drugbank_target|P18314 Urease subunit alpha (DB00551; DB05265)
 OpenBabel12092119293D

  0  0  0     0  0            999 V3000
M  V30 BEGIN CTAB
M  V30 COUNTS 8424 8509 0 0 0
M  V30 BEGIN ATOM
M  V30 1 H -0.908 1.98254 -0.117106 0
M  V30 2 N 0 1.576 0 0
M  V30 3 C 0.933 2.03868 1.02534 0
M  V30 4 C 1.911 0.928543 1.3348 0
M  V30 5 O 3.095 1.19667 1.45644 0
M  V30 6 C 0.222 2.43627 2.35294 0
M  V30 7 C -0.732 3.65373 2.2001 0
M  V30 8 S 0.101 5.13292 1.52614 0
M  V30 9 C 1.257 5.56322 2.86805 0
M  V30 10 H 1.49 2.90518 0.631377 0
M  V30 11 H -0.977 1.52953 0.210867 0
M  V30 12 H 0.981 2.67203 3.11629 0
M  V30 13 H -0.358 1.57376 2.7183 0
M  V30 14 H -1.165 3.90944 3.18086 0
M  V30 15 H -1.563 3.418 1.51819 0
M  V30 16 H 0.729 5.58782 3.83104 0
M  V30 17 H 1.672 6.56266 2.65933 0
M  V30 18 H 2.08 4.83886 2.90714 0
M  V30 19 N 1.4781 -0.272755 1.55222 0
M  V30 20 C 2.7031 -1.02683 1.80197 0
M  V30 21 C 3.1281 -1.79142 0.573551 0
M  V30 22 O 2.4861 -1.74917 -0.476849 0
M  V30 23 C 2.5341 -1.9609 3.02624 0
M  V30 24 O 1.6381 -3.04863 2.77727 0
M  V30 25 H 0.9791 -0.293557 0.595584 0
M  V30 26 H 3.5091 -0.30159 2.02365 0
M  V30 27 H 3.5191 -2.38039 3.31363 0
M  V30 28 H 2.1941 -1.39851 3.91682 0
M  V30 29 H 0.7711 -2.67228 2.60084 0
M  V30 30 N 2.9562 -1.48159 -0.537278 0
M  V30 31 C 3.9042 -1.62573 -1.66352 0
M  V30 32 C 4.8982 -0.492366 -1.62087 0
M  V30 33 O 6.1042 -0.670847 -1.67032 0
M  V30 34 H 2.4792 -0.511992 -0.550789 0
M  V30 35 H 4.4502 -2.57176 -1.51337 0
M  V30 36 C 3.1992 -1.67583 -3.04649 0
M  V30 37 H 2.5222 -2.54151 -3.08622 0
M  V30 38 H 3.9622 -1.81713 -3.83088 0
M  V30 39 C 2.4212 -0.413039 -3.34358 0
M  V30 40 O 2.9512 0.477259 -3.98855 0
M  V30 41 N 1.1572 -0.286961 -2.8918 0
M  V30 42 H 0.7042 -1.01241 -2.36871 0
M  V30 43 H 0.6622 0.556963 -3.09427 0
M  V30 44 N 4.4343 0.785586 -1.36625 0
M  V30 45 C 5.6833 1.53883 -1.30396 0
M  V30 46 C 5.9963 1.95271 0.113452 0
M  V30 47 O 7.2023 2.69858 0.298142 0
M  V30 48 C 5.6583 2.77808 -2.28802 0
M  V30 49 C 5.2663 2.43574 -3.75999 0
M  V30 50 C 7.0103 3.55783 -2.31558 0
M  V30 51 C 4.9173 3.63919 -4.66173 0
M  V30 52 H 3.8473 0.577678 -0.484566 0
M  V30 53 H 6.4983 0.861705 -1.62009 0
M  V30 54 H 4.8803 3.47339 -1.90188 0
M  V30 55 H 6.0543 1.81916 -4.23371 0
M  V30 56 H 4.3693 1.78803 -3.76056 0
M  V30 57 H 6.9663 4.45205 -2.96137 0
M  V30 58 H 7.3093 3.94644 -1.3252 0
M  V30 59 H 7.8423 2.93235 -2.68809 0
M  V30 60 H 4.5813 3.3015 -5.66287 0
M  V30 61 H 4.1013 4.2473 -4.23515 0
M  V30 62 H 5.7803 4.30901 -4.82632 0
M  V30 63 N 5.9124 1.20967 1.01018 0
M  V30 64 C 7.1374 1.0503 1.78839 0
M  V30 65 C 7.5624 -0.395752 1.8389 0
M  V30 66 O 6.9204 -1.28529 1.27867 0
M  V30 67 C 6.9684 1.64602 3.2084 0
M  V30 68 O 6.0724 0.887988 4.02726 0
M  V30 69 H 5.4134 0.369987 0.551367 0
M  V30 70 H 7.9434 1.60399 1.27018 0
M  V30 71 H 7.9534 1.68607 3.71532 0
M  V30 72 H 6.6284 2.69841 3.16479 0
M  V30 73 H 5.2054 0.922648 3.61305 0
M  V30 74 N 7.3905 -1.2043 1.01659 0
M  V30 75 C 8.8065 -1.41852 0.731442 0
M  V30 76 C 9.0065 -1.89358 -0.688898 0
M  V30 77 O 8.0625 -2.06247 -1.45666 0
M  V30 78 C 9.3755 -2.44019 1.75714 0
M  V30 79 C 10.9235 -2.57785 1.77527 0
M  V30 80 C 11.3985 -3.63194 2.79023 0
M  V30 81 N 12.8895 -3.70678 2.77763 0
M  V30 82 C 13.6245 -4.51897 3.52954 0
M  V30 83 N 13.1205 -5.36921 4.37821 0
M  V30 84 N 14.9135 -4.4643 3.41551 0
M  V30 85 H 7.0645 -0.879093 1.93354 0
M  V30 86 H 9.3275 -0.448425 0.835236 0
M  V30 87 H 9.0335 -2.1611 2.77469 0
M  V30 88 H 8.9075 -3.43007 1.56927 0
M  V30 89 H 11.2945 -2.85023 0.764569 0
M  V30 90 H 11.3755 -1.58992 2.00387 0
M  V30 91 H 11.0195 -3.36699 3.80258 0
M  V30 92 H 10.9495 -4.61609 2.53425 0
M  V30 93 H 13.4405 -3.09944 2.16201 0
M  V30 94 H 13.7535 -5.95981 4.91962 0
M  V30 95 H 12.0985 -5.36424 4.41899 0
M  V30 96 H 15.2895 -3.79042 2.74672 0
M  V30 97 H 15.4625 -5.09491 4.00404 0
M  V30 98 N 8.8686 -0.792821 -1.36206 0
M  V30 99 C 9.8006 -0.151469 -2.28699 0
M  V30 100 C 10.8136 0.641262 -1.49638 0
M  V30 101 O 12.0026 0.475885 -1.72039 0
M  V30 102 C 9.1026 0.808424 -3.29117 0
M  V30 103 C 8.2756 0.0650202 -4.37352 0
M  V30 104 C 7.3346 0.941358 -5.17711 0
M  V30 105 O 6.3606 0.397352 -5.67811 0
M  V30 106 N 7.5626 2.2652 -5.3448 0
M  V30 107 H 10.3276 -0.945982 -2.84379 0
M  V30 108 H 7.8886 -0.647032 -1.48409 0
M  V30 109 H 9.8806 1.3986 -3.79765 0
M  V30 110 H 8.4506 1.5038 -2.74052 0
M  V30 111 H 7.6706 -0.706255 -3.87822 0
M  V30 112 H 8.9586 -0.447847 -5.06825 0
M  V30 113 H 8.3566 2.73128 -4.95396 0
M  V30 114 H 6.9136 2.80493 -5.88359 0
M  V30 115 N 10.3467 1.47872 -0.545128 0
M  V30 116 C 11.3097 2.28337 0.198717 0
M  V30 117 C 12.3097 1.36255 0.853888 0
M  V30 118 O 13.4997 1.59003 0.711606 0
M  V30 119 C 10.6317 3.15585 1.28915 0
M  V30 120 H 11.8247 2.95567 -0.507941 0
M  V30 121 H 9.3777 1.53362 -0.301616 0
M  V30 122 H 10.1127 2.53019 2.02859 0
M  V30 123 H 9.8977 3.83337 0.824309 0
M  V30 124 H 11.3877 3.76243 1.81194 0
M  V30 125 N 11.8248 0.280983 1.55075 0
M  V30 126 C 13.0548 -0.336804 2.03836 0
M  V30 127 C 13.4628 -1.49577 1.15859 0
M  V30 128 O 12.8058 -1.82888 0.172503 0
M  V30 129 C 12.8678 -0.874616 3.48699 0
M  V30 130 C 12.5318 0.156478 4.56732 0
M  V30 131 C 13.5288 0.978032 5.10618 0
M  V30 132 C 11.2138 0.292409 5.01448 0
M  V30 133 C 13.2078 1.92165 6.07743 0
M  V30 134 C 10.8948 1.23949 5.98398 0
M  V30 135 C 11.8928 2.05261 6.51427 0
M  V30 136 O 11.5808 2.98367 7.4648 0
M  V30 137 H 11.3128 -0.0800885 0.671239 0
M  V30 138 H 13.8668 0.412589 2.01213 0
M  V30 139 H 12.0968 -1.67418 3.4858 0
M  V30 140 H 13.7858 -1.40612 3.80766 0
M  V30 141 H 14.5518 0.883782 4.7688 0
M  V30 142 H 10.4308 -0.330498 4.59814 0
M  V30 143 H 13.9748 2.55672 6.49059 0
M  V30 144 H 9.8718 1.33454 6.31554 0
M  V30 145 H 10.6398 2.93116 7.64215 0
M  V30 146 N 13.3029 -1.57598 0.00835791 0
M  V30 147 C 14.2659 -2.07884 -0.965242 0
M  V30 148 C 15.2659 -0.989825 -1.26725 0
M  V30 149 O 16.4559 -1.25218 -1.21104 0
M  V30 150 C 13.5879 -2.52731 -2.28779 0
M  V30 151 H 14.7809 -2.95178 -0.530112 0
M  V30 152 H 12.3339 -1.54458 -0.239283 0
M  V30 153 H 13.0689 -1.68705 -2.76964 0
M  V30 154 H 12.8539 -3.32272 -2.08177 0
M  V30 155 H 14.3439 -2.91933 -2.98605 0
M  V30 156 N 14.781 0.264519 -1.55364 0
M  V30 157 C 16.058 1.01677 -1.67096 0
M  V30 158 C 16.438 2.03996 -0.543015 0
M  V30 159 O 15.786 2.23907 0.45585 0
M  V30 160 C 15.996 1.66596 -3.0667 0
M  V30 161 C 17.344 2.17442 -3.64697 0
M  V30 162 O 18.368 1.76568 -3.09358 0
M  V30 163 O 17.227 2.92439 -4.61673 0
M  V30 164 H 14.321 0.472161 -0.678965 0
M  V30 165 H 16.867 0.259703 -1.67701 0
M  V30 166 H 15.639 0.924962 -3.80211 0
M  V30 167 H 15.262 2.48968 -3.10001 0
M  V30 168 N 16.2591 1.48442 0.529413 0
M  V30 169 C 17.1921 1.57577 1.65059 0
M  V30 170 C 18.1701 0.426198 1.56915 0
M  V30 171 O 19.3541 0.637877 1.77379 0
M  V30 172 C 16.4811 1.5043 3.03461 0
M  V30 173 C 15.5271 2.70235 3.29962 0
M  V30 174 S 16.3601 4.32198 3.16172 0
M  V30 175 C 17.5161 4.2765 4.57019 0
M  V30 176 H 17.7491 2.52427 1.5706 0
M  V30 177 H 15.2821 1.36982 0.712417 0
M  V30 178 H 17.2401 1.46992 3.8328 0
M  V30 179 H 15.9011 0.569167 3.089 0
M  V30 180 H 15.0941 2.61374 4.30929 0
M  V30 181 H 14.6961 2.70938 2.57815 0
M  V30 182 H 16.9881 3.97618 5.48549 0
M  V30 183 H 17.9311 5.28797 4.70934 0
M  V30 184 H 18.3391 3.5811 4.36368 0
M  V30 185 N 17.7372 -0.778329 1.37039 0
M  V30 186 C 18.9842 -1.53665 1.31884 0
M  V30 187 C 19.3122 -1.9425 -0.0986303 0
M  V30 188 O 18.5672 -1.63832 -1.07041 0
M  V30 189 C 18.8662 -2.81845 2.19768 0
M  V30 190 C 18.5322 -2.60345 3.68146 0
M  V30 191 C 17.1942 -2.5419 4.08584 0
M  V30 192 C 19.5462 -2.40923 4.62175 0
M  V30 193 C 16.8742 -2.26594 5.41177 0
M  V30 194 C 19.2262 -2.14852 5.94997 0
M  V30 195 C 17.8902 -2.07137 6.34547 0
M  V30 196 H 17.1602 -0.562299 0.482598 0
M  V30 197 H 19.8072 -0.897069 1.69189 0
M  V30 198 H 18.1122 -3.50328 1.75436 0
M  V30 199 H 19.8092 -3.39692 2.13097 0
M  V30 200 H 16.3992 -2.65996 3.36072 0
M  V30 201 H 20.5832 -2.44673 4.31797 0
M  V30 202 H 15.8392 -2.19111 5.70789 0
M  V30 203 H 20.0132 -1.98822 6.67415 0
M  V30 204 H 17.6402 -1.85518 7.37216 0
M  V30 205 N 19.2153 -1.21501 -1.00376 0
M  V30 206 C 20.4633 -1.03095 -1.73827 0
M  V30 207 C 20.7843 0.436341 -1.90055 0
M  V30 208 O 20.0543 1.31466 -1.45236 0
M  V30 209 H 18.6343 -0.378487 -0.644016 0
M  V30 210 H 21.2963 -1.52831 -1.20949 0
M  V30 211 H 20.3923 -1.49991 -2.73695 0
M  V30 212 N 20.6934 1.19889 -1.02296 0
M  V30 213 C 22.1044 1.71124 -0.746568 0
M  V30 214 C 22.4554 1.81939 0.734335 0
M  V30 215 O 21.5804 1.48639 1.57275 0
M  V30 216 C 22.1754 3.10804 -1.34857 0
M  V30 217 C 20.7344 3.59323 -1.1209 0
M  V30 218 C 19.8814 2.3635 -1.45031 0
M  V30 219 H 22.8324 1.04813 -1.19163 0
M  V30 220 H 22.8534 3.73186 -0.742437 0
M  V30 221 H 22.3654 3.029 -2.42638 0
M  V30 222 H 20.4664 3.7255 -0.0610337 0
M  V30 223 H 20.5794 4.4378 -1.80544 0
M  V30 224 H 18.9434 2.39399 -0.869487 0
M  V30 225 H 19.7264 2.31081 -2.53883 0
M  V30 226 N 22.1715 0.800033 1.35784 0
M  V30 227 C 23.3995 0.389606 2.03199 0
M  V30 228 C 23.8145 -0.997375 1.60306 0
M  V30 229 O 23.1715 -1.64154 0.797481 0
M  V30 230 C 23.2225 0.455855 3.58614 0
M  V30 231 O 22.9435 1.78815 3.99946 0
M  V30 232 C 24.4445 0.0374032 4.43284 0
M  V30 233 H 21.6645 0.159132 0.651857 0
M  V30 234 H 24.2085 1.08183 1.73541 0
M  V30 235 H 22.3635 -0.188057 3.86943 0
M  V30 236 H 22.7775 1.74636 4.94573 0
M  V30 237 H 24.2515 0.134882 5.51835 0
M  V30 238 H 24.7285 -1.01651 4.27275 0
M  V30 239 H 25.3345 0.654215 4.20238 0
M  V30 240 N 23.6496 -1.47581 0.552962 0
M  V30 241 C 24.8956 -2.02782 0.0273648 0
M  V30 242 C 25.2286 -1.42687 -1.31734 0
M  V30 243 O 24.5036 -0.580897 -1.85623 0
M  V30 244 C 24.7866 -3.60031 -0.0702371 0
M  V30 245 C 24.6396 -4.30566 1.30126 0
M  V30 246 C 25.9586 -4.33028 -0.785771 0
M  V30 247 H 23.0776 -0.736912 0.0114185 0
M  V30 248 H 25.7196 -1.76056 0.714432 0
M  V30 249 H 23.8696 -3.82932 -0.655382 0
M  V30 250 H 25.5416 -4.19018 1.92929 0
M  V30 251 H 23.7846 -3.91086 1.87709 0
M  V30 252 H 24.4556 -5.39114 1.18573 0
M  V30 253 H 26.9316 -4.15095 -0.288982 0
M  V30 254 H 25.8076 -5.42695 -0.823013 0
M  V30 255 H 26.0686 -4.01945 -1.841 0
M  V30 256 N 25.1277 -0.289203 -1.54924 0
M  V30 257 C 26.3757 0.322879 -1.99504 0
M  V30 258 C 26.6967 1.55313 -1.1791 0
M  V30 259 O 25.9667 1.94001 -0.272097 0
M  V30 260 H 24.5467 0.122291 -0.736922 0
M  V30 261 H 27.2087 -0.397802 -1.90797 0
M  V30 262 H 26.3047 0.603061 -3.06218 0
M  V30 263 N 26.6058 1.57591 -0.0167156 0
M  V30 264 C 27.8828 1.82547 0.702564 0
M  V30 265 C 28.2628 0.898018 1.91047 0
M  V30 266 O 27.6108 -0.0493456 2.28447 0
M  V30 267 C 27.8208 3.31459 1.09251 0
M  V30 268 C 29.1688 3.97622 1.48937 0
M  V30 269 O 30.1928 3.35881 1.18584 0
M  V30 270 O 29.0518 5.06415 2.05442 0
M  V30 271 H 26.1458 0.752268 0.343544 0
M  V30 272 H 28.6918 1.69644 -0.0434495 0
M  V30 273 H 27.4638 3.9061 0.23227 0
M  V30 274 H 27.0868 3.49422 1.89709 0
M  V30 275 N 28.0839 -0.256276 1.55502 0
M  V30 276 C 29.0309 -1.31714 1.89526 0
M  V30 277 C 30.0009 -1.4828 0.748479 0
M  V30 278 O 31.1859 -1.62416 1.00128 0
M  V30 279 C 28.3259 -2.66933 2.18725 0
M  V30 280 C 27.4389 -2.58452 3.4616 0
M  V30 281 C 26.5739 -3.85961 3.64976 0
M  V30 282 C 25.6129 -3.72059 4.86044 0
M  V30 283 N 24.7499 -4.9144 5.01429 0
M  V30 284 H 29.5899 -1.01998 2.80001 0
M  V30 285 H 27.1269 -0.492413 1.38613 0
M  V30 286 H 29.0849 -3.4563 2.33657 0
M  V30 287 H 27.7149 -2.94816 1.31466 0
M  V30 288 H 26.7669 -1.71374 3.3961 0
M  V30 289 H 28.0789 -2.44085 4.34999 0
M  V30 290 H 27.2329 -4.73101 3.79816 0
M  V30 291 H 25.9719 -4.03215 2.74353 0
M  V30 292 H 24.9769 -2.83302 4.7119 0
M  V30 293 H 26.2019 -3.56309 5.78118 0
M  V30 294 H 24.1479 -5.09072 4.13741 0
M  V30 295 H 24.0649 -4.79668 5.84341 0
M  V30 296 H 25.3329 -5.80104 5.20672 0
M  V30 297 N 29.562 -1.4872 -0.521534 0
M  V30 298 C 30.808 -1.574 -1.27879 0
M  V30 299 C 31.141 -0.250817 -1.92573 0
M  V30 300 O 30.416 0.743934 -1.79711 0
M  V30 301 C 30.699 -2.71843 -2.36164 0
M  V30 302 C 30.552 -4.13893 -1.76105 0
M  V30 303 C 31.871 -2.82008 -3.37875 0
M  V30 304 H 28.99 -0.572941 -0.463581 0
M  V30 305 H 31.632 -1.80927 -0.580119 0
M  V30 306 H 29.782 -2.51914 -2.95756 0
M  V30 307 H 31.454 -4.45284 -1.20499 0
M  V30 308 H 29.697 -4.20498 -1.06601 0
M  V30 309 H 30.368 -4.89804 -2.5455 0
M  V30 310 H 32.844 -3.00086 -2.88249 0
M  V30 311 H 31.72 -3.63796 -4.11028 0
M  V30 312 H 31.981 -1.90511 -3.98946 0
M  V30 313 N 31.0401 0.771051 -1.3745 0
M  V30 314 C 32.4561 1.07171 -1.18265 0
M  V30 315 C 32.6561 2.01491 -0.019287 0
M  V30 316 O 31.7121 2.44244 0.640408 0
M  V30 317 C 33.0251 1.66854 -2.50161 0
M  V30 318 C 34.5731 1.79109 -2.56689 0
M  V30 319 C 35.0481 2.42205 -3.88717 0
M  V30 320 N 36.5391 2.49655 -3.90162 0
M  V30 321 C 37.2741 2.9933 -4.8907 0
M  V30 322 N 36.7701 3.49172 -5.98374 0
M  V30 323 N 38.5631 2.9821 -4.76474 0
M  V30 324 H 30.7141 0.144796 -2.11906 0
M  V30 325 H 32.9771 0.126863 -0.939473 0
M  V30 326 H 32.6831 1.05017 -3.35655 0
M  V30 327 H 32.5571 2.6614 -2.673 0
M  V30 328 H 34.9441 2.40077 -1.71601 0
M  V30 329 H 35.0251 0.785757 -2.43433 0
M  V30 330 H 34.6691 1.81875 -4.74219 0
M  V30 331 H 34.5991 3.43345 -3.99276 0
M  V30 332 H 37.0901 2.14383 -3.11205 0
M  V30 333 H 37.4031 3.8548 -6.69795 0
M  V30 334 H 35.7481 3.47275 -6.02018 0
M  V30 335 H 38.9391 2.58572 -3.90203 0
M  V30 336 H 39.1121 3.36613 -5.53711 0
M  V30 337 N 32.5182 1.22032 0.997298 0
M  V30 338 C 33.4482 1.01065 2.10495 0
M  V30 339 C 34.4292 -0.0669542 1.69968 0
M  V30 340 O 35.6142 0.0943987 1.9397 0
M  V30 341 C 32.7442 0.582874 3.42374 0
M  V30 342 C 31.6982 1.60592 3.96729 0
M  V30 343 C 31.0242 1.03412 5.24605 0
M  V30 344 C 32.3242 2.99478 4.27914 0
M  V30 345 H 34.0182 1.93708 2.28292 0
M  V30 346 H 31.5642 0.932761 1.09707 0
M  V30 347 H 33.5172 0.423332 4.19268 0
M  V30 348 H 32.2412 -0.379213 3.24391 0
M  V30 349 H 30.9002 1.75316 3.21963 0
M  V30 350 H 30.5482 0.063518 5.0296 0
M  V30 351 H 30.2482 1.71754 5.61938 0
M  V30 352 H 31.7722 0.886066 6.04137 0
M  V30 353 H 33.1862 2.88153 4.95622 0
M  V30 354 H 31.5832 3.64903 4.76409 0
M  V30 355 H 32.6532 3.49742 3.3587 0
M  V30 356 N 33.9963 -1.19345 1.0293 0
M  V30 357 C 34.9593 -2.20793 0.615069 0
M  V30 358 C 35.9593 -1.57553 -0.321533 0
M  V30 359 O 37.1493 -1.73862 -0.108483 0
M  V30 360 C 34.2813 -3.40754 -0.0999222 0
M  V30 361 H 35.4743 -2.58955 1.51269 0
M  V30 362 H 33.0273 -1.3303 0.820534 0
M  V30 363 H 33.7623 -3.0811 -1.01187 0
M  V30 364 H 33.5473 -3.87889 0.57309 0
M  V30 365 H 35.0373 -4.15898 -0.376645 0
M  V30 366 N 35.4744 -0.807222 -1.35358 0
M  V30 367 C 36.7514 -0.311126 -1.9311 0
M  V30 368 C 37.1314 1.19937 -1.73719 0
M  V30 369 O 36.4794 1.99918 -1.10657 0
M  V30 370 C 36.6894 -0.723226 -3.41424 0
M  V30 371 C 38.0374 -0.713078 -4.18569 0
M  V30 372 O 39.0614 -0.664811 -3.49941 0
M  V30 373 O 37.9204 -0.772022 -5.41019 0
M  V30 374 H 35.0144 -0.081526 -0.822972 0
M  V30 375 H 37.5604 -0.890962 -1.4443 0
M  V30 376 H 36.3324 -1.76426 -3.4927 0
M  V30 377 H 35.9554 -0.118232 -3.97424 0
M  V30 378 N 36.9525 1.47285 -0.560781 0
M  V30 379 C 38.1805 2.06855 -0.0430262 0
M  V30 380 C 38.5955 1.41291 1.25229 0
M  V30 381 O 37.9525 0.510648 1.7521 0
M  V30 382 C 38.0035 3.61178 0.152518 0
M  V30 383 O 37.7245 4.24285 -1.0915 0
M  V30 384 C 39.2255 4.37624 0.707145 0
M  V30 385 H 36.4455 0.669319 -0.0474652 0
M  V30 386 H 38.9895 1.89237 -0.77521 0
M  V30 387 H 37.1445 3.78298 0.834843 0
M  V30 388 H 37.5585 5.16868 -0.891482 0
M  V30 389 H 39.0325 5.46271 0.793244 0
M  V30 390 H 39.5095 4.04152 1.71923 0
M  V30 391 H 40.1155 4.25257 0.0604027 0
M  V30 392 N 38.4306 0.297415 1.54768 0
M  V30 393 C 39.3406 -0.58983 2.27064 0
M  V30 394 C 40.3566 -1.15144 1.30453 0
M  V30 395 O 41.5326 -1.17699 1.63428 0
M  V30 396 C 38.5976 -1.74714 2.9946 0
M  V30 397 C 37.6586 -1.21997 4.11601 0
M  V30 398 C 36.8916 -2.32212 4.80535 0
M  V30 399 O 37.1146 -3.52036 4.48806 0
M  V30 400 O 36.0486 -1.99106 5.68014 0
M  V30 401 H 39.8746 -0.00348199 3.037 0
M  V30 402 H 37.4596 0.0640035 1.49263 0
M  V30 403 H 39.3416 -2.42147 3.44881 0
M  V30 404 H 38.0166 -2.32016 2.25722 0
M  V30 405 H 36.9236 -0.511458 3.70587 0
M  V30 406 H 38.2566 -0.692419 4.87305 0
M  V30 407 N 39.9087 -1.5758 0.0250728 0
M  V30 408 C 40.8387 -2.13007 -0.956575 0
M  V30 409 C 41.8197 -1.0452 -1.342 0
M  V30 410 O 43.0047 -1.32332 -1.42133 0
M  V30 411 C 40.1347 -2.65386 -2.24026 0
M  V30 412 C 39.0887 -3.78623 -1.99571 0
M  V30 413 C 38.4147 -4.17414 -3.3417 0
M  V30 414 C 39.7147 -5.04867 -1.33814 0
M  V30 415 H 41.4087 -2.9528 -0.494991 0
M  V30 416 H 38.9547 -1.42042 -0.236651 0
M  V30 417 H 40.9077 -3.02794 -2.93076 0
M  V30 418 H 39.6317 -1.80268 -2.72343 0
M  V30 419 H 38.2907 -3.41646 -1.32941 0
M  V30 420 H 37.9387 -3.29284 -3.80238 0
M  V30 421 H 37.6387 -4.93719 -3.18615 0
M  V30 422 H 39.1627 -4.57402 -4.04495 0
M  V30 423 H 40.5767 -5.39888 -1.92857 0
M  V30 424 H 38.9737 -5.86144 -1.28669 0
M  V30 425 H 40.0437 -4.83904 -0.310561 0
M  V30 426 N 41.3868 0.248026 -1.55636 0
M  V30 427 C 42.6328 0.973427 -1.78594 0
M  V30 428 C 42.9878 1.83007 -0.593823 0
M  V30 429 O 42.2808 1.87097 0.412961 0
M  V30 430 C 42.4748 1.86819 -3.04686 0
M  V30 431 C 42.3038 1.09965 -4.36048 0
M  V30 432 C 41.0738 0.805204 -4.98843 0
M  V30 433 C 43.2718 0.477783 -5.12076 0
M  V30 434 N 41.2538 0.0124859 -6.13899 0
M  V30 435 C 42.6248 -0.179565 -6.1974 0
M  V30 436 C 44.6798 0.388136 -4.96385 0
M  V30 437 C 43.3828 -0.91795 -7.13419 0
M  V30 438 C 45.4088 -0.336716 -5.90441 0
M  V30 439 C 44.7708 -0.982705 -6.97511 0
M  V30 440 H 40.8698 0.337348 -0.705493 0
M  V30 441 H 43.4538 0.24667 -1.93131 0
M  V30 442 H 41.6248 2.56698 -2.9148 0
M  V30 443 H 43.3568 2.52907 -3.15944 0
M  V30 444 H 40.1118 1.11671 -4.60246 0
M  V30 445 H 40.5358 -0.371933 -6.75978 0
M  V30 446 H 45.1778 0.873237 -4.13684 0
M  V30 447 H 42.8958 -1.41466 -7.95621 0
M  V30 448 H 46.4818 -0.406731 -5.80377 0
M  V30 449 H 45.3618 -1.53464 -7.69037 0
M  V30 450 N 42.8649 1.48995 0.513639 0
M  V30 451 C 44.1139 1.57093 1.2651 0
M  V30 452 C 44.4269 0.257091 1.93903 0
M  V30 453 O 45.6329 0.216478 2.70636 0
M  V30 454 C 44.0889 2.77118 2.29638 0
M  V30 455 C 43.6969 4.15209 1.68241 0
M  V30 456 C 45.4409 2.94538 3.05692 0
M  V30 457 C 43.3479 5.26474 2.69406 0
M  V30 458 H 42.2779 0.584876 0.475854 0
M  V30 459 H 44.9289 1.7536 0.540487 0
M  V30 460 H 43.3109 2.52319 3.05207 0
M  V30 461 H 44.4849 4.50094 0.987505 0
M  V30 462 H 42.7999 4.03042 1.04623 0
M  V30 463 H 45.3969 3.74832 3.8132 0
M  V30 464 H 45.7399 2.04614 3.62545 0
M  V30 465 H 46.2729 3.19316 2.37238 0
M  V30 466 H 43.0119 6.18417 2.17351 0
M  V30 467 H 42.5319 4.96058 3.37175 0
M  V30 468 H 44.2109 5.55277 3.32078 0
M  V30 469 N 44.343 -0.763751 1.37857 0
M  V30 470 C 45.253 -1.90817 1.36478 0
M  V30 471 C 46.269 -1.71997 0.263248 0
M  V30 472 O 47.445 -1.95095 0.499979 0
M  V30 473 C 44.51 -3.2605 1.17864 0
M  V30 474 C 43.571 -3.57467 2.3773 0
M  V30 475 C 42.804 -4.86249 2.19995 0
M  V30 476 O 43.027 -5.57884 1.18836 0
M  V30 477 O 41.961 -5.16911 3.08361 0
M  V30 478 H 45.787 -1.94933 2.32884 0
M  V30 479 H 43.372 -0.907619 1.1867 0
M  V30 480 H 45.254 -4.06924 1.09504 0
M  V30 481 H 43.929 -3.22769 0.245372 0
M  V30 482 H 42.836 -2.76796 2.51664 0
M  V30 483 H 44.169 -3.655 3.29652 0
M  V30 484 N 45.8211 -1.22559 -0.990812 0
M  V30 485 C 47.0671 -1.05297 -1.73322 0
M  V30 486 C 47.4001 0.410655 -1.89808 0
M  V30 487 O 46.6751 1.30439 -1.44277 0
M  V30 488 C 46.9581 -1.76713 -3.13759 0
M  V30 489 C 46.8111 -3.30684 -3.04907 0
M  V30 490 C 48.1301 -1.52121 -4.12974 0
M  V30 491 H 45.2491 -0.38392 -0.629106 0
M  V30 492 H 47.8911 -1.50926 -1.15418 0
M  V30 493 H 46.0411 -1.37924 -3.63193 0
M  V30 494 H 47.7131 -3.7893 -2.63077 0
M  V30 495 H 45.9561 -3.60253 -2.41661 0
M  V30 496 H 46.6271 -3.75833 -4.04294 0
M  V30 497 H 49.1031 -1.85819 -3.72304 0
M  V30 498 H 47.9791 -2.04582 -5.0935 0
M  V30 499 H 48.2401 -0.454257 -4.3976 0
M  V30 500 N 47.2992 1.18797 -1.03562 0
M  V30 501 C 48.2092 2.25913 -0.632505 0
M  V30 502 C 49.2252 1.70668 0.338882 0
M  V30 503 O 50.4012 2.00453 0.195076 0
M  V30 504 C 47.4662 3.467 0.00350942 0
M  V30 505 C 46.5272 4.17098 -1.01624 0
M  V30 506 C 45.7602 5.32119 -0.410478 0
M  V30 507 O 45.9832 5.64976 0.784725 0
M  V30 508 O 44.9172 5.9107 -1.13667 0
M  V30 509 H 48.7432 2.62648 -1.52478 0
M  V30 510 H 46.3282 1.25781 -0.806195 0
M  V30 511 H 48.2102 4.19878 0.35781 0
M  V30 512 H 46.8852 3.11798 0.869686 0
M  V30 513 H 45.7922 3.4601 -1.42224 0
M  V30 514 H 47.1252 4.55987 -1.85301 0
M  V30 515 N 48.7773 0.814389 1.34928 0
M  V30 516 C 50.0543 0.321363 1.92942 0
M  V30 517 C 50.4343 -1.19014 1.74353 0
M  V30 518 O 49.7823 -1.99328 1.11716 0
M  V30 519 C 49.9923 0.741323 3.41036 0
M  V30 520 C 51.3403 0.735266 4.18185 0
M  V30 521 O 52.3643 0.68336 3.49584 0
M  V30 522 O 51.2233 0.800703 5.40602 0
M  V30 523 H 48.3173 0.0858893 0.822528 0
M  V30 524 H 50.8633 0.898609 1.43955 0
M  V30 525 H 49.6353 1.78276 3.4833 0
M  V30 526 H 49.2583 0.139307 3.97356 0
M  V30 527 N 50.2554 -1.46986 0.568584 0
M  V30 528 C 51.5324 -1.95592 -0.0174074 0
M  V30 529 C 51.9124 -1.51124 -1.47393 0
M  V30 530 O 51.2604 -0.755329 -2.15655 0
M  V30 531 C 51.4704 -3.48719 0.139913 0
M  V30 532 C 52.8184 -4.246 0.000426376 0
M  V30 533 O 53.8424 -3.56135 0.0680316 0
M  V30 534 O 52.7014 -5.46302 -0.146988 0
M  V30 535 H 49.7954 -0.82498 -0.0577599 0
M  V30 536 H 52.3414 -1.57335 0.635909 0
M  V30 537 H 51.1134 -3.73927 1.15301 0
M  V30 538 H 50.7364 -3.93771 -0.550491 0
M  V30 539 N 51.7335 -0.305618 -1.54608 0
M  V30 540 C 52.6635 0.561482 -2.26649 0
M  V30 541 C 53.6445 1.13415 -1.26772 0
M  V30 542 O 54.8295 1.16262 -1.55553 0
M  V30 543 C 51.9595 1.73122 -3.01075 0
M  V30 544 C 50.9135 1.2887 -4.08138 0
M  V30 545 C 50.2395 2.54396 -4.70305 0
M  V30 546 C 51.5395 0.416578 -5.20636 0
M  V30 547 H 53.2335 -0.0393902 -2.99374 0
M  V30 548 H 50.7795 -0.020385 -1.43986 0
M  V30 549 H 52.7325 2.34396 -3.50195 0
M  V30 550 H 51.4565 2.3584 -2.25936 0
M  V30 551 H 50.1155 0.698991 -3.59875 0
M  V30 552 H 49.7635 3.15439 -3.918 0
M  V30 553 H 49.4635 2.25486 -5.42614 0
M  V30 554 H 50.9875 3.16464 -5.2219 0
M  V30 555 H 52.4015 0.935116 -5.65622 0
M  V30 556 H 50.7985 0.221046 -5.99693 0
M  V30 557 H 51.8685 -0.557162 -4.81688 0
M  V30 558 N 53.2116 1.57565 -0.0334293 0
M  V30 559 C 54.4396 1.9628 0.654347 0
M  V30 560 C 54.8546 0.910138 1.65414 0
M  V30 561 O 54.2116 -0.107595 1.82183 0
M  V30 562 C 54.2626 3.35067 1.35693 0
M  V30 563 O 53.9836 4.36296 0.397191 0
M  V30 564 C 55.4846 3.88439 2.13613 0
M  V30 565 H 52.7046 0.646369 0.180132 0
M  V30 566 H 55.2486 2.04282 -0.0944721 0
M  V30 567 H 53.4036 3.2827 2.05712 0
M  V30 568 H 53.8176 5.1678 0.896597 0
M  V30 569 H 55.2916 4.8788 2.58219 0
M  V30 570 H 55.7686 3.22914 2.97696 0
M  V30 571 H 56.3746 3.98516 1.48543 0
M  V30 572 N 54.6897 -0.239769 1.55765 0
M  V30 573 C 55.9177 -0.98417 1.81994 0
M  V30 574 C 56.3327 -1.7867 0.610124 0
M  V30 575 O 55.6897 -1.77571 -0.421271 0
M  V30 576 C 55.7407 -1.91635 3.06526 0
M  V30 577 O 55.4617 -1.14629 4.22838 0
M  V30 578 C 56.9627 -2.77616 3.45607 0
M  V30 579 H 54.1827 -0.28928 0.605441 0
M  V30 580 H 56.7267 -0.260499 2.02834 0
M  V30 581 H 54.8817 -2.5942 2.87715 0
M  V30 582 H 55.2957 -1.77745 4.93464 0
M  V30 583 H 56.7697 -3.38759 4.35828 0
M  V30 584 H 57.2467 -3.4909 2.6652 0
M  V30 585 H 57.8527 -2.15271 3.66795 0
M  V30 586 N 56.1678 -1.49265 -0.50573 0
M  V30 587 C 57.3978 -1.61979 -1.28243 0
M  V30 588 C 57.8058 -0.288576 -1.86986 0
M  V30 589 O 57.1488 0.735408 -1.68337 0
M  V30 590 C 57.2108 -2.62632 -2.45489 0
M  V30 591 C 56.8748 -4.071 -2.07651 0
M  V30 592 C 57.8718 -4.94049 -1.61901 0
M  V30 593 C 55.5568 -4.52801 -2.17431 0
M  V30 594 C 57.5508 -6.24736 -1.26428 0
M  V30 595 C 55.2378 -5.83503 -1.8157 0
M  V30 596 C 56.2358 -6.69294 -1.36142 0
M  V30 597 O 55.9238 -7.9756 -1.00764 0
M  V30 598 H 55.6558 -0.54834 -0.395347 0
M  V30 599 H 58.2098 -1.96002 -0.614204 0
M  V30 600 H 56.4398 -2.2378 -3.15372 0
M  V30 601 H 58.1288 -2.64925 -3.07522 0
M  V30 602 H 58.8948 -4.5997 -1.53795 0
M  V30 603 H 54.7738 -3.86196 -2.51742 0
M  V30 604 H 58.3178 -6.91652 -0.908992 0
M  V30 605 H 54.2148 -6.17112 -1.89324 0
M  V30 606 H 54.9828 -8.10529 -1.13952 0
M  V30 607 N 57.6459 0.756429 -1.3826 0
M  V30 608 C 58.8939 1.51248 -1.34047 0
M  V30 609 C 59.2149 1.94875 0.0698372 0
M  V30 610 O 58.4849 1.67436 1.01696 0
M  V30 611 H 57.0649 0.561018 -0.493222 0
M  V30 612 H 59.7269 0.899347 -1.7291 0
M  V30 613 H 58.8229 2.40472 -1.98947 0
M  V30 614 N 59.124 1.23083 0.984299 0
M  V30 615 C 60.034 1.02515 2.11016 0
M  V30 616 C 61.05 -0.0291702 1.73976 0
M  V30 617 O 62.226 0.165434 2.00719 0
M  V30 618 C 59.291 0.614673 3.41208 0
M  V30 619 C 58.352 1.74359 3.92297 0
M  V30 620 C 57.585 1.35261 5.16275 0
M  V30 621 O 57.808 0.235136 5.69915 0
M  V30 622 O 56.742 2.17227 5.61334 0
M  V30 623 H 60.568 1.96862 2.31255 0
M  V30 624 H 58.153 1.01753 1.09392 0
M  V30 625 H 60.035 0.396518 4.1953 0
M  V30 626 H 58.71 -0.299851 3.22308 0
M  V30 627 H 57.617 2.01635 3.1511 0
M  V30 628 H 58.95 2.63629 4.15645 0
M  V30 629 N 60.6021 -1.18246 1.0419 0
M  V30 630 C 61.5121 -2.25574 0.644476 0
M  V30 631 C 62.5281 -1.70845 -0.329826 0
M  V30 632 O 63.7041 -2.00554 -0.184443 0
M  V30 633 C 60.7691 -3.46697 0.014877 0
M  V30 634 C 59.8301 -4.16554 1.03834 0
M  V30 635 C 59.0631 -5.31894 0.438692 0
M  V30 636 O 59.2861 -5.65385 -0.754752 0
M  V30 637 O 58.2201 -5.90459 1.168 0
M  V30 638 H 62.0461 -2.61836 1.53869 0
M  V30 639 H 59.6311 -1.25352 0.812854 0
M  V30 640 H 61.5131 -4.20062 -0.335538 0
M  V30 641 H 60.1881 -3.12255 -0.853138 0
M  V30 642 H 59.0951 -3.45251 1.44057 0
M  V30 643 H 60.4281 -4.54998 1.87716 0
M  V30 644 N 62.0802 -0.821533 -1.34494 0
M  V30 645 C 63.3262 -0.409552 -1.98622 0
M  V30 646 C 63.6592 1.0244 -1.64984 0
M  V30 647 O 62.9342 1.71325 -0.920758 0
M  V30 648 C 63.2172 -0.610458 -3.54888 0
M  V30 649 C 63.0702 -2.09043 -3.98273 0
M  V30 650 C 64.3892 -0.0455379 -4.40076 0
M  V30 651 H 61.5082 -0.15028 -0.721516 0
M  V30 652 H 64.1502 -1.03384 -1.59411 0
M  V30 653 H 62.3002 -0.079044 -3.8842 0
M  V30 654 H 63.9722 -2.68537 -3.75081 0
M  V30 655 H 62.2152 -2.58139 -3.48635 0
M  V30 656 H 62.8862 -2.18182 -5.07051 0
M  V30 657 H 65.3622 -0.499557 -4.1309 0
M  V30 658 H 64.2382 -0.215922 -5.48475 0
M  V30 659 H 64.4992 1.04939 -4.29465 0
M  V30 660 N 63.5583 1.46682 -0.576371 0
M  V30 661 C 64.5053 2.30241 0.160499 0
M  V30 662 C 65.4753 1.40233 0.890162 0
M  V30 663 O 66.6603 1.69186 0.882084 0
M  V30 664 C 63.8003 3.24578 1.1723 0
M  V30 665 C 62.9133 4.29684 0.446736 0
M  V30 666 C 62.0483 5.11154 1.44551 0
M  V30 667 C 61.0873 6.08015 0.70599 0
M  V30 668 N 60.2243 6.82376 1.65251 0
M  V30 669 H 65.0643 2.92727 -0.558127 0
M  V30 670 H 62.6013 1.44272 -0.287056 0
M  V30 671 H 64.5593 3.77711 1.77172 0
M  V30 672 H 63.1893 2.63916 1.85872 0
M  V30 673 H 62.2413 3.79458 -0.267594 0
M  V30 674 H 63.5533 4.98626 -0.131686 0
M  V30 675 H 62.7073 5.68533 2.11791 0
M  V30 676 H 61.4463 4.42158 2.05786 0
M  V30 677 H 60.4513 5.49796 0.0197725 0
M  V30 678 H 61.6763 6.79028 0.09912 0
M  V30 679 H 59.6223 6.16094 2.25308 0
M  V30 680 H 59.5393 7.47556 1.12673 0
M  V30 681 H 60.8073 7.44316 2.31546 0
M  V30 682 N 65.0364 0.313813 1.54444 0
M  V30 683 C 66.2834 -0.291675 2.00388 0
M  V30 684 C 66.6114 -1.52904 1.2021 0
M  V30 685 O 65.8664 -1.93833 0.269707 0
M  V30 686 C 66.1654 -0.680386 3.50864 0
M  V30 687 C 65.8314 0.456699 4.48581 0
M  V30 688 C 64.4934 0.768824 4.75018 0
M  V30 689 C 66.8454 1.22098 5.06697 0
M  V30 690 C 64.1734 1.84812 5.56831 0
M  V30 691 C 66.5254 2.29029 5.89685 0
M  V30 692 C 65.1894 2.60834 6.14428 0
M  V30 693 H 64.4594 -0.106732 0.733273 0
M  V30 694 H 67.1064 0.43557 1.86481 0
M  V30 695 H 65.4114 -1.48791 3.62448 0
M  V30 696 H 67.1084 -1.16026 3.83847 0
M  V30 697 H 63.6984 0.203337 4.28117 0
M  V30 698 H 67.8824 0.993096 4.86263 0
M  V30 699 H 63.1384 2.09912 5.74236 0
M  V30 700 H 67.3124 2.887 6.33739 0
M  V30 701 H 64.9394 3.44596 6.77612 0
M  V30 702 N 66.5145 -1.57545 0.0417849 0
M  V30 703 C 67.7625 -1.91937 -0.632829 0
M  V30 704 C 68.0835 -0.919978 -1.71934 0
M  V30 705 O 67.3535 0.0366064 -1.95866 0
M  V30 706 H 65.9335 -0.708493 -0.236742 0
M  V30 707 H 68.5955 -1.9468 0.0925745 0
M  V30 708 H 67.6915 -2.92912 -1.07746 0
M  V30 709 N 67.9926 0.231505 -1.5589 0
M  V30 710 C 69.2406 0.955461 -1.78088 0
M  V30 711 C 69.5616 1.85262 -0.608533 0
M  V30 712 O 68.8316 1.92277 0.375035 0
M  V30 713 H 67.4116 0.355787 -0.656829 0
M  V30 714 H 70.0736 0.245751 -1.93344 0
M  V30 715 H 69.1696 1.56814 -2.69844 0
M  V30 716 N 69.4707 1.49531 0.497807 0
M  V30 717 C 70.7187 1.58865 1.24926 0
M  V30 718 C 71.0397 0.278721 1.92998 0
M  V30 719 O 70.3097 -0.702144 1.82885 0
M  V30 720 H 68.8897 0.585343 0.464094 0
M  V30 721 H 71.5517 1.86174 0.57666 0
M  V30 722 H 70.6477 2.38633 2.01149 0
M  V30 723 N 70.9488 -0.749086 1.3866 0
M  V30 724 C 71.8958 -1.86291 1.36251 0
M  V30 725 C 72.8658 -1.64578 0.224347 0
M  V30 726 O 74.0508 -1.86181 0.417279 0
M  V30 727 C 71.1908 -3.23644 1.19786 0
M  V30 728 C 70.3038 -3.57158 2.43027 0
M  V30 729 C 69.4388 -4.83838 2.19258 0
M  V30 730 C 68.4778 -5.10152 3.38247 0
M  V30 731 N 67.6148 -6.28029 3.13884 0
M  V30 732 H 72.4548 -1.87685 2.3147 0
M  V30 733 H 69.9918 -0.917287 1.14997 0
M  V30 734 H 71.9498 -4.0291 1.08254 0
M  V30 735 H 70.5798 -3.21566 0.282031 0
M  V30 736 H 69.6318 -2.72701 2.65214 0
M  V30 737 H 70.9438 -3.7253 3.31697 0
M  V30 738 H 70.0978 -5.71057 2.04888 0
M  V30 739 H 68.8368 -4.70614 1.2796 0
M  V30 740 H 67.8418 -4.21401 3.53131 0
M  V30 741 H 69.0668 -5.25271 4.30427 0
M  V30 742 H 67.0128 -6.1612 2.25238 0
M  V30 743 H 66.9298 -6.43922 3.96106 0
M  V30 744 H 68.1978 -7.18124 3.03179 0
M  V30 745 N 72.4269 -1.23603 -0.977757 0
M  V30 746 C 73.6729 -1.07129 -1.72195 0
M  V30 747 C 74.0059 0.390501 -1.90233 0
M  V30 748 O 73.2809 1.28902 -1.45653 0
M  V30 749 C 73.5639 -1.80031 -3.11867 0
M  V30 750 C 73.4169 -3.33899 -3.01383 0
M  V30 751 C 74.7359 -1.56492 -4.11337 0
M  V30 752 H 71.8549 -0.390571 -0.624999 0
M  V30 753 H 74.4969 -1.52142 -1.13811 0
M  V30 754 H 72.6469 -1.41768 -3.6171 0
M  V30 755 H 74.3189 -3.81699 -2.59043 0
M  V30 756 H 72.5619 -3.62796 -2.37827 0
M  V30 757 H 73.2329 -3.801 -4.00285 0
M  V30 758 H 75.7089 -1.89757 -3.70313 0
M  V30 759 H 74.5849 -2.09973 -5.07151 0
M  V30 760 H 74.8459 -0.500874 -4.39254 0
M  V30 761 N 73.905 1.17692 -1.04816 0
M  V30 762 C 75.154 1.87192 -0.751132 0
M  V30 763 C 75.467 1.8169 0.724441 0
M  V30 764 O 76.673 2.46625 1.13527 0
M  V30 765 C 75.129 3.35857 -1.29338 0
M  V30 766 C 74.737 3.4987 -2.79812 0
M  V30 767 C 76.481 4.10709 -1.07322 0
M  V30 768 C 74.388 4.92536 -3.27356 0
M  V30 769 H 73.318 0.701162 -0.277288 0
M  V30 770 H 75.969 1.32932 -1.26496 0
M  V30 771 H 74.351 3.89631 -0.707376 0
M  V30 772 H 75.525 3.06332 -3.44235 0
M  V30 773 H 73.84 2.88433 -3.00325 0
M  V30 774 H 76.437 5.15952 -1.4035 0
M  V30 775 H 76.78 4.16299 -0.0108001 0
M  V30 776 H 77.313 3.6313 -1.62423 0
M  V30 777 H 74.052 4.92119 -4.33012 0
M  V30 778 H 73.572 5.3676 -2.67673 0
M  V30 779 H 75.251 5.61288 -3.21815 0
M  V30 780 N 75.3831 0.828654 1.34056 0
M  V30 781 C 76.7991 0.515135 1.51058 0
M  V30 782 C 76.9991 -0.959581 1.77184 0
M  V30 783 O 76.0551 -1.74382 1.82612 0
M  V30 784 C 77.3681 1.37963 2.67183 0
M  V30 785 C 78.9161 1.37735 2.81066 0
M  V30 786 C 79.3911 2.22645 4.00241 0
M  V30 787 N 80.8821 2.203 4.07458 0
M  V30 788 C 81.6171 2.82744 4.98842 0
M  V30 789 N 81.1131 3.54201 5.9541 0
M  V30 790 N 82.9061 2.72268 4.91759 0
M  V30 791 H 75.0571 1.78343 1.15358 0
M  V30 792 H 77.3201 0.760304 0.566252 0
M  V30 793 H 77.0261 2.42714 2.54525 0
M  V30 794 H 76.9001 1.0484 3.62338 0
M  V30 795 H 79.2871 0.337593 2.93163 0
M  V30 796 H 79.3681 1.74859 1.86703 0
M  V30 797 H 79.0121 3.26674 3.88905 0
M  V30 798 H 78.9421 1.82869 4.93829 0
M  V30 799 H 81.4331 1.68327 3.38341 0
M  V30 800 H 81.7461 3.9908 6.61782 0
M  V30 801 H 80.0911 3.58308 5.95517 0
M  V30 802 H 83.2821 2.16014 4.15278 0
M  V30 803 H 83.4551 3.21219 5.62781 0
M  V30 804 N 76.8612 -1.46375 0.584142 0
M  V30 805 C 78.1382 -1.956 0.0033388 0
M  V30 806 C 78.5182 -1.52679 -1.45782 0
M  V30 807 O 77.8662 -0.77816 -2.14842 0
M  V30 808 C 78.0762 -3.48551 0.176891 0
M  V30 809 C 79.4242 -4.24576 0.0454609 0
M  V30 810 O 80.4482 -3.56043 0.105801 0
M  V30 811 O 79.3072 -5.46427 -0.0890376 0
M  V30 812 H 76.4012 -0.825547 -0.0490066 0
M  V30 813 H 78.9472 -1.56652 0.65256 0
M  V30 814 H 77.7192 -3.72683 1.1926 0
M  V30 815 H 77.3422 -3.94332 -0.508695 0
M  V30 816 N 78.3393 -0.321999 -1.54275 0
M  V30 817 C 79.5873 0.280489 -2.00144 0
M  V30 818 C 79.9083 1.52777 -1.21178 0
M  V30 819 O 79.1783 1.9338 -0.313187 0
M  V30 820 H 77.7583 0.106632 -0.73935 0
M  V30 821 H 80.4203 -0.438184 -1.8991 0
M  V30 822 H 79.5163 0.537972 -3.07428 0
M  V30 823 N 79.8174 1.5752 -0.0501392 0
M  V30 824 C 80.7504 2.07026 0.959962 0
M  V30 825 C 81.7284 0.970539 1.30458 0
M  V30 826 O 82.9124 1.2424 1.41763 0
M  V30 827 C 80.0394 2.5099 2.27424 0
M  V30 828 C 79.0854 3.72188 2.08275 0
M  V30 829 S 79.9184 5.17888 1.36207 0
M  V30 830 C 81.0744 5.65165 2.6896 0
M  V30 831 H 81.3074 2.9238 0.538631 0
M  V30 832 H 78.8404 1.53547 0.162099 0
M  V30 833 H 80.7984 2.76982 3.02971 0
M  V30 834 H 79.4594 1.65944 2.66686 0
M  V30 835 H 78.6524 4.00866 3.05487 0
M  V30 836 H 78.2544 3.46457 1.40868 0
M  V30 837 H 80.5464 5.70687 3.65133 0
M  V30 838 H 81.4894 6.64394 2.4492 0
M  V30 839 H 81.8974 4.9289 2.75172 0
M  V30 840 N 81.2955 -0.223234 1.56011 0
M  V30 841 C 82.5435 -0.946003 1.78592 0
M  V30 842 C 82.8645 -1.84936 0.618349 0
M  V30 843 O 82.1345 -1.92473 -0.364833 0
M  V30 844 H 80.7145 -0.352298 0.658707 0
M  V30 845 H 83.3765 -0.235494 1.93472 0
M  V30 846 H 82.4725 -1.55381 2.70672 0
M  V30 847 N 82.7736 -1.49793 -0.48987 0
M  V30 848 C 83.7056 -1.63413 -1.60713 0
M  V30 849 C 84.7186 -0.516329 -1.54395 0
M  V30 850 O 85.9076 -0.788812 -1.60125 0
M  V30 851 C 83.0076 -1.58516 -2.99543 0
M  V30 852 C 82.1806 -2.86016 -3.30928 0
M  V30 853 C 81.2396 -2.74018 -4.49222 0
M  V30 854 O 80.2656 -3.47964 -4.50455 0
M  V30 855 N 81.4676 -1.86309 -5.4979 0
M  V30 856 H 84.2326 -2.59777 -1.49452 0
M  V30 857 H 81.7936 -1.47022 -0.677955 0
M  V30 858 H 83.7856 -1.48128 -3.76617 0
M  V30 859 H 82.3556 -0.69965 -3.0467 0
M  V30 860 H 81.5756 -3.10672 -2.42645 0
M  V30 861 H 82.8636 -3.70521 -3.487 0
M  V30 862 H 82.2616 -1.2551 -5.51601 0
M  V30 863 H 80.8186 -1.81837 -6.25922 0
M  V30 864 N 84.2517 0.741722 -1.39055 0
M  V30 865 C 85.4997 1.49818 -1.35643 0
M  V30 866 C 85.8207 1.94938 0.0491642 0
M  V30 867 O 85.0907 1.68505 0.999141 0
M  V30 868 H 83.6707 0.555755 -0.499144 0
M  V30 869 H 86.3327 0.880957 -1.73854 0
M  V30 870 H 85.4287 2.38348 -2.01486 0
M  V30 871 N 85.7298 1.2412 0.971189 0
M  V30 872 C 86.6618 0.988349 2.06795 0
M  V30 873 C 87.6748 -0.0409541 1.62748 0
M  V30 874 O 88.8638 0.195673 1.77424 0
M  V30 875 C 85.9638 0.469023 3.35639 0
M  V30 876 C 85.1368 1.56065 4.08611 0
M  V30 877 C 84.1958 1.04458 5.15728 0
M  V30 878 O 83.2218 1.73553 5.42096 0
M  V30 879 N 84.4238 -0.122817 5.8037 0
M  V30 880 H 87.1888 1.93265 2.29061 0
M  V30 881 H 84.7498 1.15102 1.13856 0
M  V30 882 H 86.7418 0.108613 4.04554 0
M  V30 883 H 85.3118 -0.380919 3.1027 0
M  V30 884 H 84.5318 2.09341 3.34021 0
M  V30 885 H 85.8198 2.29449 4.54126 0
M  V30 886 H 85.2178 -0.700563 5.61345 0
M  V30 887 H 83.7748 -0.424404 6.50417 0
M  V30 888 N 87.2079 -1.17134 1.05439 0
M  V30 889 C 88.1409 -2.2012 0.601855 0
M  V30 890 C 89.1189 -1.58314 -0.370854 0
M  V30 891 O 90.3029 -1.8638 -0.281882 0
M  V30 892 C 87.4299 -3.38491 -0.118868 0
M  V30 893 C 86.4759 -4.18752 0.809242 0
M  V30 894 S 87.3089 -4.83602 2.29977 0
M  V30 895 C 88.4649 -6.0536 1.59029 0
M  V30 896 H 88.6979 -2.58165 1.47438 0
M  V30 897 H 86.2309 -1.27788 0.866573 0
M  V30 898 H 88.1889 -4.07084 -0.528495 0
M  V30 899 H 86.8499 -2.98829 -0.967465 0
M  V30 900 H 86.0429 -5.03373 0.251379 0
M  V30 901 H 85.6449 -3.5561 1.15835 0
M  V30 902 H 87.9369 -6.71615 0.891017 0
M  V30 903 H 88.8799 -6.65679 2.41407 0
M  V30 904 H 89.2879 -5.54138 1.07663 0
M  V30 905 N 88.686 -0.835752 -1.33615 0
M  V30 906 C 89.616 -0.281739 -2.31794 0
M  V30 907 C 90.597 0.608833 -1.58831 0
M  V30 908 O 91.782 0.533035 -1.86741 0
M  V30 909 C 88.912 0.546612 -3.42971 0
M  V30 910 C 87.866 -0.247904 -4.27281 0
M  V30 911 C 87.192 0.704001 -5.30045 0
M  V30 912 C 88.492 -1.46324 -5.01385 0
M  V30 913 H 90.186 -1.10206 -2.78379 0
M  V30 914 H 87.732 -0.531388 -1.33837 0
M  V30 915 H 89.685 0.944467 -4.1068 0
M  V30 916 H 88.409 1.40011 -2.95067 0
M  V30 917 H 87.068 -0.627281 -3.61194 0
M  V30 918 H 86.716 1.55381 -4.78399 0
M  V30 919 H 86.416 0.176524 -5.87335 0
M  V30 920 H 87.94 1.09944 -6.0062 0
M  V30 921 H 89.354 -1.13871 -5.61877 0
M  V30 922 H 87.751 -1.92728 -5.6831 0
M  V30 923 H 88.821 -2.23467 -4.30338 0
M  V30 924 N 90.1641 1.46063 -0.591896 0
M  V30 925 C 91.1271 2.28854 0.125973 0
M  V30 926 C 92.1271 1.38903 0.810107 0
M  V30 927 O 93.3171 1.61186 0.66066 0
M  V30 928 C 90.4491 3.19526 1.1881 0
M  V30 929 H 91.6421 2.93802 -0.601717 0
M  V30 930 H 89.1951 1.52325 -0.350254 0
M  V30 931 H 89.9301 2.59345 1.94707 0
M  V30 932 H 89.7151 3.85766 0.701936 0
M  V30 933 H 91.2051 3.81817 1.69132 0
M  V30 934 N 91.6422 0.330177 1.54103 0
M  V30 935 C 92.6052 -0.520144 2.2322 0
M  V30 936 C 93.6052 -1.03828 1.22786 0
M  V30 937 O 94.7952 -0.929652 1.4732 0
M  V30 938 C 91.9272 -1.72317 2.94142 0
M  V30 939 H 93.1202 0.0841605 2.99782 0
M  V30 940 H 90.6732 0.0813433 1.56088 0
M  V30 941 H 91.4082 -2.36653 2.21734 0
M  V30 942 H 91.1932 -1.35898 3.67796 0
M  V30 943 H 92.6832 -2.3266 3.46784 0
M  V30 944 N 93.1203 -1.57491 0.0584922 0
M  V30 945 C 94.3973 -1.84346 -0.653918 0
M  V30 946 C 94.7773 -0.948355 -1.88599 0
M  V30 947 O 94.1253 -0.0112403 -2.28497 0
M  V30 948 C 94.3353 -3.34239 -1.00425 0
M  V30 949 C 95.6833 -4.01431 -1.38342 0
M  V30 950 O 96.7073 -3.38907 -1.09637 0
M  V30 951 O 95.5663 -5.11683 -1.91943 0
M  V30 952 H 92.6603 -0.761112 -0.323478 0
M  V30 953 H 95.2063 -1.6947 0.0884125 0
M  V30 954 H 93.9783 -3.91089 -0.128625 0
M  V30 955 H 93.6013 -3.54329 -1.80378 0
M  V30 956 N 94.5984 0.214957 -1.56127 0
M  V30 957 C 95.8384 0.945364 -1.81224 0
M  V30 958 C 96.2024 1.81265 -0.633005 0
M  V30 959 O 97.4034 2.57731 -0.763423 0
M  V30 960 C 95.6744 1.75665 -3.1125 0
M  V30 961 S 97.2334 2.54179 -3.57685 0
M  V30 962 H 94.0514 0.317443 -0.6362 0
M  V30 963 H 96.6534 0.210381 -1.94365 0
M  V30 964 H 95.3574 1.10977 -3.9511 0
M  V30 965 H 94.8884 2.53381 -3.00934 0
M  V30 966 H 96.9034 3.7792 -3.21545 0
M  V30 967 N 96.0765 1.50051 0.48192 0
M  V30 968 C 97.3225 1.60736 1.2366 0
M  V30 969 C 97.6555 0.301786 1.91841 0
M  V30 970 O 96.9305 -0.696025 1.8162 0
M  V30 971 C 97.2135 2.78009 2.28874 0
M  V30 972 C 97.0665 4.18416 1.65069 0
M  V30 973 C 98.3855 2.90867 3.30279 0
M  V30 974 H 95.5045 0.585031 0.448228 0
M  V30 975 H 98.1465 1.82402 0.531946 0
M  V30 976 H 96.2965 2.59667 2.88973 0
M  V30 977 H 97.9685 4.48322 1.0865 0
M  V30 978 H 96.2115 4.23177 0.954148 0
M  V30 979 H 96.8825 4.96381 2.41474 0
M  V30 980 H 99.3585 3.07623 2.80191 0
M  V30 981 H 98.2345 3.74566 4.01238 0
M  V30 982 H 98.4955 2.01021 3.93755 0
M  V30 983 N 97.5546 -0.734337 1.39446 0
M  V30 984 C 98.8316 -1.48579 1.27215 0
M  V30 985 C 99.2116 -2.1077 -0.117968 0
M  V30 986 O 98.5596 -1.98646 -1.12924 0
M  V30 987 C 98.7696 -2.53667 2.39696 0
M  V30 988 C 100.118 -3.20031 2.79044 0
M  V30 989 O 101.142 -2.6398 2.39151 0
M  V30 990 O 100.001 -4.21455 3.47905 0
M  V30 991 H 97.0946 -0.659816 0.49857 0
M  V30 992 H 99.6406 -0.768106 1.51322 0
M  V30 993 H 98.4126 -2.06096 3.32626 0
M  V30 994 H 98.0356 -3.32994 2.17258 0
M  V30 995 N 99.0327 -1.24633 -0.964593 0
M  V30 996 C 99.9627 -1.06611 -2.07741 0
M  V30 997 C 100.944 0.0218666 -1.70086 0
M  V30 998 O 102.129 -0.145793 -1.93652 0
M  V30 999 C 99.2587 -0.673444 -3.40708 0
M  V30 1000 C 98.2127 -1.71054 -3.92332 0
M  V30 1001 C 97.5387 -1.17285 -5.21678 0
M  V30 1002 C 98.8387 -3.10718 -4.19824 0
M  V30 1003 H 100.533 -1.99693 -2.23076 0
M  V30 1004 H 98.0787 -0.96152 -1.07195 0
M  V30 1005 H 100.032 -0.534345 -4.17998 0
M  V30 1006 H 98.7557 0.293073 -3.25282 0
M  V30 1007 H 97.4147 -1.83791 -3.17201 0
M  V30 1008 H 97.0627 -0.196847 -5.02615 0
M  V30 1009 H 96.7627 -1.86592 -5.57187 0
M  V30 1010 H 98.2867 -1.04593 -6.01575 0
M  V30 1011 H 99.7007 -3.01192 -4.87808 0
M  V30 1012 H 98.0977 -3.77406 -4.66567 0
M  V30 1013 H 99.1677 -3.58524 -3.26479 0
M  V30 1014 N 100.511 1.16574 -1.06058 0
M  V30 1015 C 101.757 1.87324 -0.777022 0
M  V30 1016 C 102.09 1.81351 0.694645 0
M  V30 1017 O 101.365 1.22753 1.50871 0
M  V30 1018 C 101.648 3.36991 -1.26922 0
M  V30 1019 C 101.501 3.51667 -2.80447 0
M  V30 1020 C 102.82 4.3131 -0.87521 0
M  V30 1021 H 99.9388 0.680191 -0.28374 0
M  V30 1022 H 102.581 1.37036 -1.3161 0
M  V30 1023 H 100.731 3.79949 -0.81063 0
M  V30 1024 H 102.403 3.17664 -3.34495 0
M  V30 1025 H 100.646 2.93656 -3.19294 0
M  V30 1026 H 101.317 4.56766 -3.0995 0
M  V30 1027 H 103.793 3.9624 -1.27014 0
M  V30 1028 H 102.669 5.34545 -1.2471 0
M  V30 1029 H 102.93 4.41552 0.220071 0
M  V30 1030 N 101.989 0.842826 1.3317 0
M  V30 1031 C 102.919 0.294028 2.31641 0
M  V30 1032 C 103.9 -0.600401 1.59151 0
M  V30 1033 O 105.085 -0.523124 1.87022 0
M  V30 1034 C 102.215 -0.528416 3.43257 0
M  V30 1035 C 101.169 0.27056 4.27144 0
M  V30 1036 C 100.495 -0.675881 5.30411 0
M  V30 1037 C 101.795 1.48981 5.00602 0
M  V30 1038 H 103.489 1.11681 2.77791 0
M  V30 1039 H 101.035 0.538478 1.33553 0
M  V30 1040 H 102.988 -0.922674 4.11175 0
M  V30 1041 H 101.712 -1.38445 2.95805 0
M  V30 1042 H 100.371 0.646427 3.60856 0
M  V30 1043 H 100.019 -1.52842 4.79216 0
M  V30 1044 H 99.7189 -0.145374 5.8742 0
M  V30 1045 H 101.243 -1.06757 6.01195 0
M  V30 1046 H 102.657 1.16849 5.61266 0
M  V30 1047 H 101.054 1.95739 5.6728 0
M  V30 1048 H 102.124 2.25746 4.29147 0
M  V30 1049 N 103.467 -1.45747 0.599634 0
M  V30 1050 C 104.695 -2.06668 0.0978551 0
M  V30 1051 C 105.11 -1.44562 -1.21439 0
M  V30 1052 O 104.467 -0.556923 -1.73795 0
M  V30 1053 C 104.518 -3.61456 -0.0567044 0
M  V30 1054 O 104.239 -4.21242 1.20361 0
M  V30 1055 C 105.74 -4.39345 -0.590869 0
M  V30 1056 H 102.96 -0.667825 0.0651943 0
M  V30 1057 H 105.504 -1.87115 0.82511 0
M  V30 1058 H 103.659 -3.80378 -0.734251 0
M  V30 1059 H 104.073 -5.14323 1.02821 0
M  V30 1060 H 105.547 -5.48182 -0.648131 0
M  V30 1061 H 106.024 -4.08568 -1.61147 0
M  V30 1062 H 106.63 -4.25268 0.0523679 0
M  V30 1063 N 104.945 -0.338344 -1.53925 0
M  V30 1064 C 105.893 0.536231 -2.26335 0
M  V30 1065 C 106.887 1.1063 -1.28286 0
M  V30 1066 O 108.093 1.05264 -1.46012 0
M  V30 1067 H 104.468 0.191602 -0.727181 0
M  V30 1068 H 106.439 -0.0965747 -2.98244 0
M  V30 1069 C 105.188 1.67803 -3.04528 0
M  V30 1070 H 104.511 1.24864 -3.79801 0
M  V30 1071 H 105.951 2.26526 -3.58416 0
M  V30 1072 C 104.41 2.60439 -2.13712 0
M  V30 1073 O 104.94 3.6255 -1.72975 0
M  V30 1074 N 103.146 2.29006 -1.78898 0
M  V30 1075 H 102.693 1.46011 -2.12223 0
M  V30 1076 H 102.651 2.91248 -1.18416 0
M  V30 1077 N 106.423 1.57458 -0.0668435 0
M  V30 1078 C 107.386 2.11323 0.887422 0
M  V30 1079 C 108.386 1.03618 1.22964 0
M  V30 1080 O 109.576 1.29626 1.16373 0
M  V30 1081 C 106.708 2.61048 2.19242 0
M  V30 1082 H 107.901 2.96942 0.420194 0
M  V30 1083 H 105.454 1.55239 0.181793 0
M  V30 1084 H 106.189 1.78868 2.70512 0
M  V30 1085 H 105.974 3.39769 1.95702 0
M  V30 1086 H 107.464 3.02814 2.87565 0
M  V30 1087 N 107.901 -0.206675 1.56239 0
M  V30 1088 C 108.831 -1.25909 1.96645 0
M  V30 1089 C 109.812 -1.48097 0.836734 0
M  V30 1090 O 110.997 -1.6003 1.10019 0
M  V30 1091 C 108.127 -2.6058 2.29599 0
M  V30 1092 C 107.081 -2.53024 3.452 0
M  V30 1093 C 106.407 -3.91861 3.63798 0
M  V30 1094 C 107.707 -2.06524 4.79734 0
M  V30 1095 H 109.401 -0.923369 2.84806 0
M  V30 1096 H 106.947 -0.442735 1.37025 0
M  V30 1097 H 108.9 -3.34375 2.56459 0
M  V30 1098 H 107.624 -2.95869 1.38307 0
M  V30 1099 H 106.283 -1.81684 3.18412 0
M  V30 1100 H 105.931 -4.24483 2.69857 0
M  V30 1101 H 105.631 -3.87683 4.4156 0
M  V30 1102 H 107.155 -4.67296 3.93022 0
M  V30 1103 H 108.569 -2.70072 5.05702 0
M  V30 1104 H 106.966 -2.13374 5.60885 0
M  V30 1105 H 108.036 -1.01802 4.74093 0
M  V30 1106 N 109.379 -1.50304 -0.473955 0
M  V30 1107 C 110.628 -1.60392 -1.22301 0
M  V30 1108 C 110.941 -0.308411 -1.93153 0
M  V30 1109 O 112.147 -0.288156 -2.69966 0
M  V30 1110 C 110.603 -2.83109 -2.2221 0
M  V30 1111 C 110.211 -4.19524 -1.57173 0
M  V30 1112 C 111.955 -3.0254 -2.97775 0
M  V30 1113 C 109.862 -5.33431 -2.55353 0
M  V30 1114 H 108.792 -0.597286 -0.460179 0
M  V30 1115 H 111.443 -1.76731 -0.493803 0
M  V30 1116 H 109.825 -2.60322 -2.9841 0
M  V30 1117 H 110.999 -4.52554 -0.867824 0
M  V30 1118 H 109.314 -4.05674 -0.939002 0
M  V30 1119 H 111.911 -3.84811 -3.71248 0
M  V30 1120 H 112.254 -2.14154 -3.56992 0
M  V30 1121 H 112.787 -3.25494 -2.28688 0
M  V30 1122 H 109.526 -6.23962 -2.00878 0
M  V30 1123 H 109.046 -5.04823 -3.23904 0
M  V30 1124 H 110.725 -5.63887 -3.17239 0
M  V30 1125 N 110.857 0.726932 -1.39834 0
M  V30 1126 C 112.103 1.48884 -1.377 0
M  V30 1127 C 112.436 1.94185 0.0244852 0
M  V30 1128 O 111.711 1.67361 0.990986 0
M  V30 1129 C 111.994 2.72288 -2.3565 0
M  V30 1130 C 111.847 2.32956 -3.84775 0
M  V30 1131 C 113.166 3.74414 -2.31306 0
M  V30 1132 H 110.285 0.540062 -0.5015 0
M  V30 1133 H 112.927 0.830547 -1.70886 0
M  V30 1134 H 111.077 3.28457 -2.07481 0
M  V30 1135 H 112.749 1.82356 -4.23726 0
M  V30 1136 H 110.992 1.65088 -4.01159 0
M  V30 1137 H 111.663 3.21362 -4.4881 0
M  V30 1138 H 114.139 3.27849 -2.56231 0
M  V30 1139 H 113.015 4.58414 -3.01907 0
M  V30 1140 H 113.276 4.21909 -1.32081 0
M  V30 1141 N 112.336 1.25143 0.95797 0
M  V30 1142 C 113.613 1.00472 1.67823 0
M  V30 1143 C 113.993 -0.470056 2.058 0
M  V30 1144 O 113.341 -1.44663 1.76875 0
M  V30 1145 C 113.551 1.9372 2.90299 0
M  V30 1146 C 114.899 2.21371 3.62326 0
M  V30 1147 O 115.923 1.91451 3.00375 0
M  V30 1148 O 114.782 2.72231 4.7387 0
M  V30 1149 H 111.876 0.380752 0.734137 0
M  V30 1150 H 114.422 1.36283 1.01119 0
M  V30 1151 H 113.194 2.93316 2.59001 0
M  V30 1152 H 112.817 1.58286 3.64735 0
M  V30 1153 N 113.814 -1.1601 1.06675 0
M  V30 1154 C 114.764 -2.18512 0.650888 0
M  V30 1155 C 115.748 -1.57677 -0.320441 0
M  V30 1156 O 116.94 -1.76482 -0.135266 0
M  V30 1157 C 114.069 -3.43273 0.0429255 0
M  V30 1158 C 113.155 -4.11176 1.03898 0
M  V30 1159 N 113.546 -4.54672 2.216 0
M  V30 1160 C 111.844 -4.37417 0.870779 0
M  V30 1161 C 112.545 -5.07248 2.84736 0
M  V30 1162 N 111.521 -5.0037 2.12441 0
M  V30 1163 H 115.323 -2.49863 1.54745 0
M  V30 1164 H 112.837 -1.32503 0.938975 0
M  V30 1165 H 114.834 -4.16006 -0.272857 0
M  V30 1166 H 113.494 -3.13408 -0.84884 0
M  V30 1167 H 114.505 -4.4828 2.59356 0
M  V30 1168 H 111.182 -4.17488 0.0313293 0
M  V30 1169 H 112.572 -5.50912 3.84636 0
M  V30 1170 N 115.292 -0.849877 -1.32721 0
M  V30 1171 C 116.538 -0.460855 -1.9811 0
M  V30 1172 C 116.893 0.971716 -1.66059 0
M  V30 1173 O 116.186 1.67184 -0.935944 0
M  V30 1174 C 116.38 -0.631272 -3.51781 0
M  V30 1175 C 116.209 -2.07886 -3.98765 0
M  V30 1176 C 114.979 -2.71637 -4.26077 0
M  V30 1177 C 117.177 -3.04889 -4.14182 0
M  V30 1178 N 115.159 -4.07356 -4.59276 0
M  V30 1179 C 116.53 -4.25583 -4.50865 0
M  V30 1180 C 118.585 -3.01148 -3.96503 0
M  V30 1181 C 117.288 -5.43027 -4.71714 0
M  V30 1182 C 119.314 -4.17832 -4.18533 0
M  V30 1183 C 118.676 -5.37284 -4.55528 0
M  V30 1184 H 114.775 -0.217283 -0.751207 0
M  V30 1185 H 117.359 -1.10026 -1.60631 0
M  V30 1186 H 115.53 -0.0215966 -3.88394 0
M  V30 1187 H 117.262 -0.212614 -4.04141 0
M  V30 1188 H 114.017 -2.22705 -4.17971 0
M  V30 1189 H 114.441 -4.77351 -4.80068 0
M  V30 1190 H 119.083 -2.0992 -3.67006 0
M  V30 1191 H 116.801 -6.34791 -5.00066 0
M  V30 1192 H 120.387 -4.16368 -4.06361 0
M  V30 1193 H 119.267 -6.26071 -4.72234 0
M  V30 1194 N 116.77 1.45427 -0.607355 0
M  V30 1195 C 118.018 2.01841 -0.102253 0
M  V30 1196 C 118.339 1.47832 1.27164 0
M  V30 1197 O 117.609 0.672497 1.83995 0
M  V30 1198 H 116.189 0.746188 -0.0348101 0
M  V30 1199 H 118.851 1.78229 -0.7887 0
M  V30 1200 H 117.947 3.12057 -0.0518585 0
M  V30 1201 N 118.248 0.346503 1.53744 0
M  V30 1202 C 119.497 -0.250122 2.00143 0
M  V30 1203 C 119.81 -1.51418 1.23822 0
M  V30 1204 O 121.016 -2.18823 1.60713 0
M  V30 1205 C 119.472 -0.496252 3.56462 0
M  V30 1206 C 119.08 0.752077 4.41642 0
M  V30 1207 C 120.824 -1.05157 4.11269 0
M  V30 1208 C 118.731 0.476583 5.89477 0
M  V30 1209 H 117.661 -0.0972409 0.747703 0
M  V30 1210 H 120.312 0.46229 1.77581 0
M  V30 1211 H 118.694 -1.26944 3.75102 0
M  V30 1212 H 119.868 1.5266 4.34778 0
M  V30 1213 H 118.183 1.22925 3.97842 0
M  V30 1214 H 120.78 -1.27269 5.19333 0
M  V30 1215 H 121.123 -2.00799 3.64672 0
M  V30 1216 H 121.656 -0.339019 3.96353 0
M  V30 1217 H 118.395 1.4028 6.40314 0
M  V30 1218 H 117.915 -0.259794 5.99237 0
M  V30 1219 H 119.594 0.0949315 6.4693 0
M  V30 1220 N 119.726 -1.57421 0.075193 0
M  V30 1221 C 120.972 -1.93905 -0.594025 0
M  V30 1222 C 121.305 -0.955701 -1.69056 0
M  V30 1223 O 120.58 0.0145373 -1.94495 0
M  V30 1224 C 120.863 -3.40638 -1.1678 0
M  V30 1225 C 120.716 -4.49733 -0.0776792 0
M  V30 1226 C 122.035 -3.88259 -2.07228 0
M  V30 1227 H 119.154 -0.705105 -0.214466 0
M  V30 1228 H 121.796 -1.8947 0.141854 0
M  V30 1229 H 119.946 -3.44549 -1.79494 0
M  V30 1230 H 121.618 -4.57942 0.555573 0
M  V30 1231 H 119.861 -4.29751 0.591286 0
M  V30 1232 H 120.532 -5.49549 -0.519603 0
M  V30 1233 H 123.008 -3.86376 -1.54445 0
M  V30 1234 H 121.884 -4.91533 -2.44308 0
M  V30 1235 H 122.145 -3.26396 -2.98191 0
M  V30 1236 N 121.204 0.198386 -1.56346 0
M  V30 1237 C 122.151 1.24589 -1.94284 0
M  V30 1238 C 123.121 1.454 -0.802997 0
M  V30 1239 O 124.306 1.58588 -1.06087 0
M  V30 1240 C 121.446 2.58631 -2.28482 0
M  V30 1241 C 120.559 2.45426 -3.55514 0
M  V30 1242 C 119.694 3.7215 -3.79049 0
M  V30 1243 C 118.733 3.53763 -4.99518 0
M  V30 1244 N 117.87 4.72491 -5.19323 0
M  V30 1245 H 122.71 0.915356 -2.83593 0
M  V30 1246 H 120.247 0.440629 -1.40346 0
M  V30 1247 H 122.205 3.3672 -2.46324 0
M  V30 1248 H 120.835 2.89734 -1.42317 0
M  V30 1249 H 119.887 1.58652 -3.45737 0
M  V30 1250 H 121.199 2.27772 -4.43758 0
M  V30 1251 H 120.353 4.58679 -3.97113 0
M  V30 1252 H 119.092 3.92754 -2.89129 0
M  V30 1253 H 118.097 2.65619 -4.8138 0
M  V30 1254 H 119.322 3.34607 -5.90944 0
M  V30 1255 H 117.268 4.93365 -4.3235 0
M  V30 1256 H 117.185 4.5765 -6.01741 0
M  V30 1257 H 118.453 5.6038 -5.41843 0
M  V30 1258 N 122.682 1.50554 0.465978 0
M  V30 1259 C 123.645 1.69233 1.54574 0
M  V30 1260 C 124.645 0.562901 1.50626 0
M  V30 1261 O 125.835 0.830016 1.53155 0
M  V30 1262 C 122.967 1.7223 2.94193 0
M  V30 1263 H 124.16 2.65571 1.39327 0
M  V30 1264 H 121.713 1.40111 0.692711 0
M  V30 1265 H 122.448 0.77603 3.14878 0
M  V30 1266 H 122.233 2.54285 2.98466 0
M  V30 1267 H 123.723 1.88618 3.72576 0
M  V30 1268 N 124.16 -0.719506 1.40217 0
M  V30 1269 C 125.437 -1.47221 1.28784 0
M  V30 1270 C 125.817 -2.10883 -0.0956067 0
M  V30 1271 O 125.165 -1.99833 -1.10811 0
M  V30 1272 C 125.375 -2.5111 2.42373 0
M  V30 1273 C 126.723 -3.17053 2.82423 0
M  V30 1274 O 127.747 -2.61429 2.41937 0
M  V30 1275 O 126.606 -4.17742 3.52355 0
M  V30 1276 H 123.7 -0.654491 0.50554 0
M  V30 1277 H 126.246 -0.752014 1.52128 0
M  V30 1278 H 125.018 -2.02556 3.34793 0
M  V30 1279 H 124.641 -3.3067 2.20778 0
M  V30 1280 N 125.638 -1.25649 -0.95132 0
M  V30 1281 C 126.887 -1.09988 -1.69073 0
M  V30 1282 C 127.2 0.358355 -1.92289 0
M  V30 1283 O 128.406 0.635466 -2.63958 0
M  V30 1284 C 126.862 -1.92012 -3.044 0
M  V30 1285 C 126.47 -3.42347 -2.88968 0
M  V30 1286 C 128.214 -1.8493 -3.82101 0
M  V30 1287 C 126.121 -4.16655 -4.19705 0
M  V30 1288 H 125.051 -0.407993 -0.63408 0
M  V30 1289 H 127.702 -1.49873 -1.05879 0
M  V30 1290 H 126.084 -1.44952 -3.68517 0
M  V30 1291 H 127.258 -3.97104 -2.33762 0
M  V30 1292 H 125.573 -3.50557 -2.24719 0
M  V30 1293 H 128.17 -2.37739 -4.78941 0
M  V30 1294 H 128.513 -0.817883 -4.08187 0
M  V30 1295 H 129.046 -2.29758 -3.2474 0
M  V30 1296 H 125.785 -5.20224 -3.98807 0
M  V30 1297 H 125.305 -3.66681 -4.74663 0
M  V30 1298 H 126.984 -4.24551 -4.88227 0
M  V30 1299 N 127.117 1.15442 -1.07289 0
M  V30 1300 C 128.365 1.85845 -0.794096 0
M  V30 1301 C 128.686 1.82692 0.681809 0
M  V30 1302 O 127.956 1.26741 1.49377 0
M  V30 1303 H 126.536 0.688089 -0.290763 0
M  V30 1304 H 129.198 1.39947 -1.3565 0
M  V30 1305 H 128.294 2.91001 -1.12804 0
M  V30 1306 N 128.595 0.856903 1.32268 0
M  V30 1307 C 129.841 0.462069 1.97466 0
M  V30 1308 C 130.174 -0.980298 1.67642 0
M  V30 1309 O 129.449 -1.68824 0.965858 0
M  V30 1310 C 129.732 0.704336 3.53145 0
M  V30 1311 C 129.585 2.19529 3.9259 0
M  V30 1312 C 130.904 0.1622 4.39801 0
M  V30 1313 H 128.023 0.169357 0.717278 0
M  V30 1314 H 130.665 1.07574 1.56614 0
M  V30 1315 H 128.815 0.181999 3.88073 0
M  V30 1316 H 130.487 2.78387 3.67829 0
M  V30 1317 H 128.73 2.67292 3.41668 0
M  V30 1318 H 129.401 2.31549 5.01088 0
M  V30 1319 H 131.877 0.608905 4.11621 0
M  V30 1320 H 130.753 0.361265 5.4771 0
M  V30 1321 H 131.014 -0.935158 4.32096 0
M  V30 1322 N 130.073 -1.45103 0.615059 0
M  V30 1323 C 131.02 -2.30586 -0.0993978 0
M  V30 1324 C 131.99 -1.42544 -0.852669 0
M  V30 1325 O 133.175 -1.71465 -0.836917 0
M  V30 1326 C 130.315 -3.27572 -1.08583 0
M  V30 1327 C 129.428 -4.30717 -0.332656 0
M  V30 1328 C 128.563 -5.14807 -1.30947 0
M  V30 1329 C 127.602 -6.09673 -0.544538 0
M  V30 1330 N 126.739 -6.86517 -1.47101 0
M  V30 1331 H 131.579 -2.91144 0.635542 0
M  V30 1332 H 129.116 -1.4346 0.325206 0
M  V30 1333 H 131.074 -3.82276 -1.67095 0
M  V30 1334 H 129.704 -2.68751 -1.78809 0
M  V30 1335 H 128.756 -3.78615 0.368107 0
M  V30 1336 H 130.068 -4.98102 0.263842 0
M  V30 1337 H 129.222 -5.73948 -1.96643 0
M  V30 1338 H 127.961 -4.47458 -1.9399 0
M  V30 1339 H 126.966 -5.49656 0.126003 0
M  V30 1340 H 128.191 -6.79052 0.080947 0
M  V30 1341 H 126.137 -6.21851 -2.08895 0
M  V30 1342 H 126.054 -7.50281 -0.928137 0
M  V30 1343 H 127.322 -7.50194 -2.11731 0
M  V30 1344 N 131.551 -0.354651 -1.53558 0
M  V30 1345 C 132.828 0.294281 -1.93374 0
M  V30 1346 C 133.208 1.67313 -1.28723 0
M  V30 1347 O 132.556 2.24179 -0.442247 0
M  V30 1348 C 132.766 0.355445 -3.47185 0
M  V30 1349 C 134.114 0.601007 -4.20325 0
M  V30 1350 O 135.138 0.437106 -3.53508 0
M  V30 1351 O 133.997 0.919322 -5.38712 0
M  V30 1352 H 131.091 0.174033 -0.808481 0
M  V30 1353 H 133.637 -0.406638 -1.64756 0
M  V30 1354 H 132.409 -0.611729 -3.86489 0
M  V30 1355 H 132.032 1.1027 -3.82003 0
M  V30 1356 N 133.029 1.57378 -0.0835403 0
M  V30 1357 C 134.277 1.93547 0.581718 0
M  V30 1358 C 134.598 0.96524 1.69435 0
M  V30 1359 O 133.868 0.0153369 1.95894 0
M  V30 1360 H 132.448 0.714521 0.217874 0
M  V30 1361 H 135.11 1.94366 -0.144158 0
M  V30 1362 H 134.206 2.95665 0.999423 0
M  V30 1363 N 134.507 -0.190092 1.56449 0
M  V30 1364 C 135.923 -0.54113 1.50146 0
M  V30 1365 C 136.123 -1.85603 0.784465 0
M  V30 1366 O 135.179 -2.5024 0.337051 0
M  V30 1367 C 136.492 -0.591241 2.9483 0
M  V30 1368 C 138.04 -0.679732 3.0553 0
M  V30 1369 C 138.515 -0.760908 4.51635 0
M  V30 1370 N 140.006 -0.824302 4.55806 0
M  V30 1371 C 140.741 -0.907365 5.66175 0
M  V30 1372 N 140.237 -0.952422 6.86222 0
M  V30 1373 N 142.03 -0.94494 5.541 0
M  V30 1374 H 134.181 0.67235 2.01478 0
M  V30 1375 H 136.444 0.240127 0.917084 0
M  V30 1376 H 136.15 0.305905 3.50367 0
M  V30 1377 H 136.024 -1.44422 3.48457 0
M  V30 1378 H 138.411 -1.56731 2.50039 0
M  V30 1379 H 138.492 0.199549 2.5502 0
M  V30 1380 H 138.136 0.122336 5.07753 0
M  V30 1381 H 138.066 -1.65606 4.99882 0
M  V30 1382 H 140.557 -0.798526 3.69367 0
M  V30 1383 H 140.87 -1.01645 7.66086 0
M  V30 1384 H 139.215 -0.921014 6.8887 0
M  V30 1385 H 142.406 -0.906612 4.59236 0
M  V30 1386 H 142.579 -1.00622 6.4014 0
M  V30 1387 N 135.985 -1.50799 -0.457987 0
M  V30 1388 C 137.234 -1.6168 -1.20593 0
M  V30 1389 C 137.547 -0.32888 -1.92815 0
M  V30 1390 O 138.753 -0.316773 -2.69646 0
M  V30 1391 C 137.209 -2.8545 -2.19195 0
M  V30 1392 C 136.817 -4.21168 -1.52715 0
M  V30 1393 C 138.561 -3.05681 -2.94549 0
M  V30 1394 C 136.468 -5.3611 -2.4968 0
M  V30 1395 H 135.398 -0.602134 -0.453818 0
M  V30 1396 H 138.049 -1.77245 -0.475031 0
M  V30 1397 H 136.431 -2.63472 -2.95632 0
M  V30 1398 H 137.605 -4.53449 -0.819775 0
M  V30 1399 H 135.92 -4.06648 -0.895922 0
M  V30 1400 H 138.517 -3.88727 -3.67145 0
M  V30 1401 H 138.86 -2.17929 -3.54701 0
M  V30 1402 H 139.393 -3.27901 -2.25223 0
M  V30 1403 H 136.132 -6.26057 -1.94249 0
M  V30 1404 H 135.652 -5.0823 -3.18532 0
M  V30 1405 H 137.331 -5.6722 -3.11241 0
M  V30 1406 N 137.463 0.71206 -1.40597 0
M  V30 1407 C 138.71 1.47197 -1.39065 0
M  V30 1408 C 139.038 1.94499 0.00583891 0
M  V30 1409 O 138.293 1.68752 0.99102 0
M  V30 1410 C 138.592 2.71039 -2.32965 0
M  V30 1411 C 138.258 2.42484 -3.80148 0
M  V30 1412 C 136.92 2.34406 -4.20247 0
M  V30 1413 C 139.272 2.18598 -4.73143 0
M  V30 1414 C 136.6 2.00516 -5.51371 0
M  V30 1415 C 138.952 1.8622 -6.0457 0
M  V30 1416 C 137.616 1.76626 -6.43708 0
M  V30 1417 H 136.886 0.538634 -0.508876 0
M  V30 1418 H 139.533 0.815325 -1.73276 0
M  V30 1419 H 137.838 3.41558 -1.91951 0
M  V30 1420 H 139.535 3.29138 -2.29061 0
M  V30 1421 H 136.125 2.49659 -3.4838 0
M  V30 1422 H 140.309 2.23793 -4.42979 0
M  V30 1423 H 135.565 1.91628 -5.80593 0
M  V30 1424 H 139.739 1.66752 -6.76141 0
M  V30 1425 H 137.366 1.50133 -7.45228 0
M  V30 1426 N 138.941 1.26152 0.944643 0
M  V30 1427 C 139.904 1.07474 2.0244 0
M  V30 1428 C 140.904 0.0242064 1.60782 0
M  V30 1429 O 142.094 0.267302 1.72137 0
M  V30 1430 C 139.226 0.633956 3.34953 0
M  V30 1431 H 140.419 2.03336 2.20442 0
M  V30 1432 H 137.972 1.087 1.12312 0
M  V30 1433 H 138.707 -0.326811 3.22649 0
M  V30 1434 H 138.492 1.39247 3.66542 0
M  V30 1435 H 139.982 0.52501 4.14287 0
M  V30 1436 N 140.419 -1.14872 1.07899 0
M  V30 1437 C 141.668 -1.85135 0.800499 0
M  V30 1438 C 141.981 -1.83547 -0.676014 0
M  V30 1439 O 143.187 -2.49548 -1.06948 0
M  V30 1440 C 141.643 -3.3231 1.38197 0
M  V30 1441 C 141.251 -3.42329 2.8899 0
M  V30 1442 C 142.995 -4.0772 1.18174 0
M  V30 1443 C 140.902 -4.83684 3.403 0
M  V30 1444 H 139.832 -0.693563 0.29578 0
M  V30 1445 H 142.483 -1.29532 1.29976 0
M  V30 1446 H 140.865 -3.87618 0.810431 0
M  V30 1447 H 142.039 -2.97097 3.52236 0
M  V30 1448 H 140.354 -2.80369 3.07867 0
M  V30 1449 H 142.951 -5.12049 1.5398 0
M  V30 1450 H 143.294 -4.16124 0.12117 0
M  V30 1451 H 143.827 -3.58696 1.71994 0
M  V30 1452 H 140.566 -4.80465 4.45907 0
M  V30 1453 H 140.086 -5.29474 2.81811 0
M  V30 1454 H 141.765 -5.52558 3.36584 0
M  V30 1455 N 141.898 -0.863906 -1.31812 0
M  V30 1456 C 143.146 -0.470904 -1.96537 0
M  V30 1457 C 143.467 0.978771 -1.68657 0
M  V30 1458 O 142.737 1.6853 -0.998717 0
M  V30 1459 H 141.317 -0.171148 -0.72713 0
M  V30 1460 H 143.979 -1.10236 -1.60729 0
M  V30 1461 H 143.075 -0.623616 -3.05806 0
M  V30 1462 N 143.376 1.44774 -0.622745 0
M  V30 1463 C 144.323 2.30635 0.0871679 0
M  V30 1464 C 145.293 1.42994 0.845097 0
M  V30 1465 O 146.478 1.71907 0.827812 0
M  V30 1466 C 143.618 3.28144 1.06844 0
M  V30 1467 C 142.731 4.30888 0.309809 0
M  V30 1468 C 141.866 5.15494 1.28215 0
M  V30 1469 C 140.905 6.09953 0.512198 0
M  V30 1470 N 140.042 6.87287 1.43458 0
M  V30 1471 H 144.882 2.90803 -0.650974 0
M  V30 1472 H 142.419 1.43286 -0.33281 0
M  V30 1473 H 144.377 3.83157 1.65066 0
M  V30 1474 H 143.007 2.69695 1.77382 0
M  V30 1475 H 142.059 3.78414 -0.388181 0
M  V30 1476 H 143.371 4.97955 -0.290254 0
M  V30 1477 H 142.525 5.74983 1.93596 0
M  V30 1478 H 141.264 4.48481 1.91614 0
M  V30 1479 H 140.269 5.49581 -0.155151 0
M  V30 1480 H 141.494 6.78999 -0.116958 0
M  V30 1481 H 139.44 6.2295 2.05594 0
M  V30 1482 H 139.357 7.50763 0.888335 0
M  V30 1483 H 140.625 7.51306 2.07749 0
M  V30 1484 N 144.854 0.36279 1.53368 0
M  V30 1485 C 145.817 -0.472679 2.24273 0
M  V30 1486 C 146.817 -1.012 1.24961 0
M  V30 1487 O 148.007 -0.898194 1.49259 0
M  V30 1488 C 145.139 -1.66039 2.97731 0
M  V30 1489 H 146.332 0.14773 2.99536 0
M  V30 1490 H 143.885 0.114434 1.55881 0
M  V30 1491 H 144.62 -2.31896 2.26704 0
M  V30 1492 H 144.405 -1.28066 3.70596 0
M  V30 1493 H 145.895 -2.25252 3.51641 0
M  V30 1494 N 146.332 -1.57332 0.0918853 0
M  V30 1495 C 147.58 -1.93853 -0.571446 0
M  V30 1496 C 147.901 -0.974212 -1.6892 0
M  V30 1497 O 147.171 -0.0257254 -1.95883 0
M  V30 1498 H 145.751 -0.715666 -0.214082 0
M  V30 1499 H 148.413 -1.94287 0.154464 0
M  V30 1500 H 147.509 -2.96191 -0.983729 0
M  V30 1501 N 147.81 0.181792 -1.56548 0
M  V30 1502 C 148.758 1.24461 -1.965 0
M  V30 1503 C 149.752 1.464 -0.852261 0
M  V30 1504 O 150.958 1.47103 -1.03733 0
M  V30 1505 H 147.333 0.418138 -0.625031 0
M  V30 1506 H 149.304 0.880714 -2.85107 0
M  V30 1507 C 148.053 2.57891 -2.33212 0
M  V30 1508 H 147.376 2.41829 -3.18369 0
M  V30 1509 H 148.816 3.3097 -2.65019 0
M  V30 1510 C 147.275 3.15871 -1.17163 0
M  V30 1511 O 147.805 3.9913 -0.453708 0
M  V30 1512 N 146.011 2.74808 -0.944936 0
M  V30 1513 H 145.558 2.07205 -1.53049 0
M  V30 1514 H 145.516 3.13939 -0.170286 0
M  V30 1515 N 149.288 1.51039 0.449983 0
M  V30 1516 C 150.699 1.557 1.03026 0
M  V30 1517 C 151.05 0.372939 1.92623 0
M  V30 1518 O 150.175 -0.511771 2.10261 0
M  V30 1519 C 150.77 2.82171 1.87523 0
M  V30 1520 C 149.329 2.89444 2.40622 0
M  V30 1521 C 148.476 2.50228 1.19504 0
M  V30 1522 H 151.427 1.56999 0.231745 0
M  V30 1523 H 151.448 2.65219 2.72835 0
M  V30 1524 H 150.96 3.68331 1.22286 0
M  V30 1525 H 149.061 2.07685 3.0935 0
M  V30 1526 H 149.174 3.92816 2.74285 0
M  V30 1527 H 147.538 2.03139 1.53644 0
M  V30 1528 H 148.321 3.38719 0.558972 0
M  V30 1529 N 150.766 -0.704594 1.40972 0
M  V30 1530 C 152.043 -1.45847 1.30338 0
M  V30 1531 C 152.423 -2.10973 -0.0732344 0
M  V30 1532 O 151.771 -2.00997 -1.08685 0
M  V30 1533 C 151.981 -2.48525 2.45023 0
M  V30 1534 C 153.329 -3.1404 2.8577 0
M  V30 1535 O 154.353 -2.58848 2.44696 0
M  V30 1536 O 153.212 -4.13981 3.56766 0
M  V30 1537 H 150.306 -0.649092 0.512454 0
M  V30 1538 H 152.852 -0.735836 1.52917 0
M  V30 1539 H 151.624 -1.98994 3.36923 0
M  V30 1540 H 151.247 -3.2831 2.24272 0
M  V30 1541 N 152.244 -1.26651 -0.937939 0
M  V30 1542 C 153.493 -1.11775 -1.67897 0
M  V30 1543 C 153.806 0.33794 -1.92659 0
M  V30 1544 O 155.012 0.607434 -2.64618 0
M  V30 1545 C 153.468 -1.9523 -3.02346 0
M  V30 1546 C 153.076 -3.45393 -2.8532 0
M  V30 1547 C 154.82 -1.88972 -3.80118 0
M  V30 1548 C 152.727 -4.21083 -4.15263 0
M  V30 1549 H 151.657 -0.414696 -0.629717 0
M  V30 1550 H 154.308 -1.50988 -1.04283 0
M  V30 1551 H 152.69 -1.48853 -3.66959 0
M  V30 1552 H 153.864 -3.99561 -2.29537 0
M  V30 1553 H 152.179 -3.52921 -2.20988 0
M  V30 1554 H 154.776 -2.42805 -4.76392 0
M  V30 1555 H 155.119 -0.86113 -4.07296 0
M  V30 1556 H 155.652 -2.33189 -3.22285 0
M  V30 1557 H 152.391 -5.24425 -3.93267 0
M  V30 1558 H 151.911 -3.71695 -4.70747 0
M  V30 1559 H 153.59 -4.29706 -4.83696 0
M  V30 1560 N 153.722 1.14298 -1.08507 0
M  V30 1561 C 154.654 2.1907 -0.673859 0
M  V30 1562 C 155.667 1.60381 0.279577 0
M  V30 1563 O 156.856 1.78374 0.0670754 0
M  V30 1564 C 153.956 3.38888 0.0290979 0
M  V30 1565 C 153.129 4.27103 -0.943494 0
M  V30 1566 C 152.188 5.25477 -0.275676 0
M  V30 1567 O 151.214 5.61709 -0.920401 0
M  V30 1568 N 152.416 5.7227 0.974013 0
M  V30 1569 H 155.181 2.54965 -1.57521 0
M  V30 1570 H 152.742 1.29528 -0.971287 0
M  V30 1571 H 154.734 4.01761 0.48683 0
M  V30 1572 H 153.304 3.01309 0.832555 0
M  V30 1573 H 152.524 3.61149 -1.58004 0
M  V30 1574 H 153.812 4.82905 -1.60251 0
M  V30 1575 H 153.21 5.44965 1.51755 0
M  V30 1576 H 151.767 6.37127 1.37522 0
M  V30 1577 N 155.201 0.870884 1.31352 0
M  V30 1578 C 156.612 0.534714 1.78879 0
M  V30 1579 C 156.963 -0.948423 1.71754 0
M  V30 1580 O 156.088 -1.74055 1.28584 0
M  V30 1581 C 156.683 0.963839 3.24801 0
M  V30 1582 C 155.242 0.679311 3.70219 0
M  V30 1583 C 154.389 1.15465 2.52117 0
M  V30 1584 H 157.34 1.05651 1.18421 0
M  V30 1585 H 157.361 0.286892 3.79417 0
M  V30 1586 H 156.873 2.04332 3.29955 0
M  V30 1587 H 154.974 -0.388769 3.70566 0
M  V30 1588 H 155.087 1.25698 4.62317 0
M  V30 1589 H 153.451 0.574383 2.48139 0
M  V30 1590 H 154.234 2.24157 2.60016 0
M  V30 1591 N 156.679 -1.44442 0.630414 0
M  V30 1592 C 157.627 -2.32437 -0.0871428 0
M  V30 1593 C 158.621 -1.47304 -0.836525 0
M  V30 1594 O 159.827 -1.63653 -0.749506 0
M  V30 1595 H 156.202 -0.750533 -0.0469495 0
M  V30 1596 H 158.173 -2.90709 0.673096 0
M  V30 1597 C 156.922 -3.31288 -1.05563 0
M  V30 1598 H 156.245 -3.96805 -0.488426 0
M  V30 1599 H 157.685 -3.9554 -1.52721 0
M  V30 1600 C 156.144 -2.6016 -2.14052 0
M  V30 1601 O 156.674 -2.39997 -3.22124 0
M  V30 1602 N 154.88 -2.19911 -1.89967 0
M  V30 1603 H 154.427 -2.36509 -1.02085 0
M  V30 1604 H 154.385 -1.72646 -2.62756 0
M  V30 1605 N 158.157 -0.370918 -1.53173 0
M  V30 1606 C 159.403 0.217423 -2.01631 0
M  V30 1607 C 159.736 1.47983 -1.25756 0
M  V30 1608 O 159.011 1.91274 -0.352764 0
M  V30 1609 C 159.294 0.503982 -3.56556 0
M  V30 1610 C 159.147 -0.77243 -4.43118 0
M  V30 1611 C 160.466 1.30234 -4.20389 0
M  V30 1612 H 157.585 0.0775486 -0.732909 0
M  V30 1613 H 160.227 -0.496863 -1.83388 0
M  V30 1614 H 158.377 1.11248 -3.72231 0
M  V30 1615 H 160.049 -1.4098 -4.39229 0
M  V30 1616 H 158.292 -1.39167 -4.10871 0
M  V30 1617 H 158.963 -0.526815 -5.4948 0
M  V30 1618 H 161.439 0.787546 -4.08579 0
M  V30 1619 H 160.315 1.47158 -5.28806 0
M  V30 1620 H 160.576 2.31237 -3.76805 0
M  V30 1621 N 159.635 1.57281 -0.100228 0
M  V30 1622 C 160.863 1.98879 0.570509 0
M  V30 1623 C 161.278 0.979476 1.61405 0
M  V30 1624 O 160.635 -0.0302288 1.82475 0
M  V30 1625 C 160.686 3.4052 1.2136 0
M  V30 1626 O 160.407 4.37588 0.211786 0
M  V30 1627 C 161.908 3.97149 1.96945 0
M  V30 1628 H 159.128 0.653428 0.152555 0
M  V30 1629 H 161.672 2.03697 -0.18103 0
M  V30 1630 H 159.827 3.367 1.91603 0
M  V30 1631 H 160.241 5.20118 0.676607 0
M  V30 1632 H 161.715 4.98393 2.37294 0
M  V30 1633 H 162.192 3.3525 2.83733 0
M  V30 1634 H 162.798 4.04458 1.31506 0
M  V30 1635 N 161.113 -0.173488 1.56642 0
M  V30 1636 C 162.362 -0.888758 1.81063 0
M  V30 1637 C 162.675 -1.83506 0.67712 0
M  V30 1638 O 163.881 -2.59254 0.806206 0
M  V30 1639 C 162.337 -1.63091 3.20826 0
M  V30 1640 C 161.945 -0.728357 4.4204 0
M  V30 1641 C 163.689 -2.33454 3.54541 0
M  V30 1642 C 161.596 -1.47062 5.72823 0
M  V30 1643 H 160.526 -0.335618 0.675186 0
M  V30 1644 H 163.177 -0.141712 1.82952 0
M  V30 1645 H 161.559 -2.42263 3.13248 0
M  V30 1646 H 162.733 0.0262449 4.60793 0
M  V30 1647 H 161.048 -0.134492 4.16183 0
M  V30 1648 H 163.645 -2.89578 4.49498 0
M  V30 1649 H 163.988 -3.08687 2.79317 0
M  V30 1650 H 164.521 -1.61227 3.63663 0
M  V30 1651 H 161.26 -0.760658 6.51072 0
M  V30 1652 H 160.78 -2.1986 5.58052 0
M  V30 1653 H 162.459 -2.01868 6.14702 0
M  V30 1654 N 162.591 -1.51276 -0.441967 0
M  V30 1655 C 164.002 -1.56244 -1.02199 0
M  V30 1656 C 164.353 -0.383149 -1.92422 0
M  V30 1657 O 163.478 0.500613 -2.1053 0
M  V30 1658 C 164.073 -2.83162 -1.86024 0
M  V30 1659 C 162.632 -2.90716 -2.39084 0
M  V30 1660 C 161.779 -2.50858 -1.18175 0
M  V30 1661 H 164.73 -1.5712 -0.223416 0
M  V30 1662 H 164.751 -2.66663 -2.71425 0
M  V30 1663 H 164.263 -3.68974 -1.20331 0
M  V30 1664 H 162.364 -2.09323 -3.08244 0
M  V30 1665 H 162.477 -3.94266 -2.72198 0
M  V30 1666 H 160.841 -2.03951 -1.52565 0
M  V30 1667 H 161.624 -3.3901 -0.541001 0
M  V30 1668 N 164.069 0.697108 -1.41344 0
M  V30 1669 C 165.318 1.45279 -1.39918 0
M  V30 1670 C 165.631 1.95597 -0.0109624 0
M  V30 1671 O 166.837 2.71208 0.125919 0
M  V30 1672 C 165.293 2.62695 -2.46007 0
M  V30 1673 C 164.901 2.19169 -3.90729 0
M  V30 1674 C 166.645 3.40336 -2.53715 0
M  V30 1675 C 164.552 3.33535 -4.88373 0
M  V30 1676 H 163.482 0.545692 -0.520323 0
M  V30 1677 H 166.133 0.756929 -1.67161 0
M  V30 1678 H 164.515 3.34541 -2.11892 0
M  V30 1679 H 165.689 1.54623 -4.34083 0
M  V30 1680 H 164.004 1.54525 -3.86666 0
M  V30 1681 H 166.601 4.2547 -3.2385 0
M  V30 1682 H 166.944 3.85418 -1.5735 0
M  V30 1683 H 167.477 2.75546 -2.86913 0
M  V30 1684 H 164.216 2.93468 -5.86137 0
M  V30 1685 H 163.736 3.96936 -4.49668 0
M  V30 1686 H 165.415 3.99335 -5.09059 0
M  V30 1687 N 165.547 1.27147 0.931209 0
M  V30 1688 C 166.795 1.13055 1.6752 0
M  V30 1689 C 167.116 -0.324791 1.92276 0
M  V30 1690 O 166.386 -1.22775 1.52654 0
M  V30 1691 H 164.966 0.415391 0.620854 0
M  V30 1692 H 167.628 1.59623 1.11833 0
M  V30 1693 H 166.724 1.65694 2.64485 0
M  V30 1694 N 167.025 -1.13721 1.09112 0
M  V30 1695 C 167.988 -2.17222 0.731241 0
M  V30 1696 C 168.988 -1.59035 -0.237566 0
M  V30 1697 O 170.178 -1.74192 -0.0161704 0
M  V30 1698 C 167.31 -3.40804 0.0808443 0
M  V30 1699 H 168.503 -2.50573 1.64783 0
M  V30 1700 H 166.056 -1.28493 0.889897 0
M  V30 1701 H 166.791 -3.1304 -0.847127 0
M  V30 1702 H 166.576 -3.84306 0.777896 0
M  V30 1703 H 168.066 -4.1731 -0.155657 0
M  V30 1704 N 168.503 -0.877838 -1.30888 0
M  V30 1705 C 169.466 -0.344265 -2.266 0
M  V30 1706 C 170.466 0.50922 -1.52524 0
M  V30 1707 O 171.656 0.317398 -1.71284 0
M  V30 1708 C 168.788 0.510198 -3.37061 0
M  V30 1709 H 169.981 -1.1893 -2.7531 0
M  V30 1710 H 167.534 -0.654088 -1.41956 0
M  V30 1711 H 168.269 1.37612 -2.93655 0
M  V30 1712 H 168.054 -0.101047 -3.9197 0
M  V30 1713 H 169.544 0.875537 -4.08319 0
M  V30 1714 N 169.982 1.44106 -0.638065 0
M  V30 1715 C 171.21 2.06336 -0.152615 0
M  V30 1716 C 171.625 1.47731 1.17563 0
M  V30 1717 O 170.982 0.602806 1.72257 0
M  V30 1718 C 171.033 3.61479 -0.0391491 0
M  V30 1719 O 170.754 4.17903 -1.31487 0
M  V30 1720 C 172.255 4.40757 0.474176 0
M  V30 1721 H 169.475 0.665862 -0.0828776 0
M  V30 1722 H 172.019 1.84862 -0.87443 0
M  V30 1723 H 170.174 3.82191 0.633142 0
M  V30 1724 H 170.588 5.11416 -1.16421 0
M  V30 1725 H 172.062 5.49707 0.502562 0
M  V30 1726 H 172.539 4.12697 1.50258 0
M  V30 1727 H 173.145 4.24979 -0.165102 0
M  V30 1728 N 171.46 0.379036 1.52974 0
M  V30 1729 C 172.37 -0.468639 2.29872 0
M  V30 1730 C 173.386 -1.08067 1.36373 0
M  V30 1731 O 174.562 -1.08871 1.69438 0
M  V30 1732 C 171.627 -1.58594 3.083 0
M  V30 1733 C 170.688 -1.00007 4.17489 0
M  V30 1734 C 169.921 -2.06413 4.92168 0
M  V30 1735 O 170.144 -3.27751 4.66835 0
M  V30 1736 O 169.078 -1.68717 5.7777 0
M  V30 1737 H 172.904 0.157508 3.03291 0
M  V30 1738 H 170.489 0.143035 1.48714 0
M  V30 1739 H 172.371 -2.23525 3.57232 0
M  V30 1740 H 171.046 -2.19724 2.37703 0
M  V30 1741 H 169.953 -0.314299 3.72777 0
M  V30 1742 H 171.286 -0.433135 4.90291 0
M  V30 1743 N 172.938 -1.57226 0.108567 0
M  V30 1744 C 174.184 -1.95121 -0.552761 0
M  V30 1745 C 174.517 -0.991345 -1.66991 0
M  V30 1746 O 173.792 -0.0267211 -1.94482 0
M  V30 1747 C 174.075 -3.43039 -1.09528 0
M  V30 1748 C 173.928 -4.49797 0.0177332 0
M  V30 1749 C 175.247 -3.92567 -1.98945 0
M  V30 1750 H 172.366 -0.709496 -0.199461 0
M  V30 1751 H 175.008 -1.89126 0.182011 0
M  V30 1752 H 173.158 -3.48279 -1.72146 0
M  V30 1753 H 174.83 -4.56661 0.652584 0
M  V30 1754 H 173.073 -4.284 0.682309 0
M  V30 1755 H 173.744 -5.50528 -0.402919 0
M  V30 1756 H 176.22 -3.89565 -1.46214 0
M  V30 1757 H 175.096 -4.96605 -2.33827 0
M  V30 1758 H 175.357 -3.32648 -2.91201 0
M  V30 1759 N 174.416 0.165178 -1.56732 0
M  V30 1760 C 175.665 0.879143 -1.81532 0
M  V30 1761 C 175.978 1.83144 -0.686842 0
M  V30 1762 O 177.184 2.58823 -0.819944 0
M  V30 1763 C 175.64 1.61388 -3.21686 0
M  V30 1764 C 175.248 0.704904 -4.4242 0
M  V30 1765 C 176.992 2.3157 -3.55774 0
M  V30 1766 C 174.899 1.44022 -5.73595 0
M  V30 1767 H 173.829 0.332033 -0.676957 0
M  V30 1768 H 176.48 0.132008 -1.83025 0
M  V30 1769 H 174.862 2.40599 -3.14529 0
M  V30 1770 H 176.036 -0.0506815 -4.60772 0
M  V30 1771 H 174.351 0.112419 -4.16248 0
M  V30 1772 H 176.948 2.8719 -4.51028 0
M  V30 1773 H 177.291 3.07201 -2.8095 0
M  V30 1774 H 177.824 1.59297 -3.64513 0
M  V30 1775 H 174.563 0.72612 -6.51466 0
M  V30 1776 H 174.083 2.16898 -5.5921 0
M  V30 1777 H 175.762 1.98606 -6.15764 0
M  V30 1778 N 175.894 1.51508 0.433938 0
M  V30 1779 C 176.857 1.72473 1.50949 0
M  V30 1780 C 177.857 0.594725 1.49398 0
M  V30 1781 O 179.047 0.862315 1.5136 0
M  V30 1782 C 176.179 1.78431 2.90474 0
M  V30 1783 H 177.372 2.68467 1.33662 0
M  V30 1784 H 174.925 1.41549 0.662836 0
M  V30 1785 H 175.66 0.842645 3.13161 0
M  V30 1786 H 175.445 2.60558 2.93005 0
M  V30 1787 H 176.935 1.96479 3.68491 0
M  V30 1788 N 177.372 -0.689602 1.41712 0
M  V30 1789 C 178.335 -1.78521 1.43746 0
M  V30 1790 C 179.335 -1.57436 0.327191 0
M  V30 1791 O 180.525 -1.64 0.587348 0
M  V30 1792 C 177.657 -3.16971 1.25467 0
M  V30 1793 H 178.85 -1.78108 2.41283 0
M  V30 1794 H 176.403 -0.89781 1.27942 0
M  V30 1795 H 177.138 -3.23019 0.287948 0
M  V30 1796 H 176.923 -3.33678 2.05917 0
M  V30 1797 H 178.413 -3.96935 1.2974 0
M  V30 1798 N 178.85 -1.27639 -0.924453 0
M  V30 1799 C 179.76 -1.12466 -2.05885 0
M  V30 1800 C 180.776 -0.053869 -1.73917 0
M  V30 1801 O 181.952 -0.261012 -1.99702 0
M  V30 1802 C 179.017 -0.776768 -3.37886 0
M  V30 1803 C 178.078 -1.92878 -3.83532 0
M  V30 1804 C 177.311 -1.59739 -5.09234 0
M  V30 1805 O 177.534 -0.506782 -5.68144 0
M  V30 1806 O 176.468 -2.43761 -5.50331 0
M  V30 1807 H 180.294 -2.07671 -2.21599 0
M  V30 1808 H 177.879 -1.06857 -1.04413 0
M  V30 1809 H 179.761 -0.596229 -4.17161 0
M  V30 1810 H 178.436 0.145732 -3.23372 0
M  V30 1811 H 177.343 -2.1644 -3.0513 0
M  V30 1812 H 178.676 -2.8316 -4.02593 0
M  V30 1813 N 180.328 1.1314 -1.09713 0
M  V30 1814 C 181.576 1.84119 -0.833338 0
M  V30 1815 C 181.897 1.84097 0.642904 0
M  V30 1816 O 181.167 1.29881 1.46655 0
M  V30 1817 H 179.747 0.681766 -0.305293 0
M  V30 1818 H 182.409 1.37038 -1.38588 0
M  V30 1819 H 181.505 2.88543 -1.18951 0
M  V30 1820 N 181.806 0.884767 1.30421 0
M  V30 1821 C 182.753 0.349642 2.28136 0
M  V30 1822 C 183.723 -0.560061 1.56373 0
M  V30 1823 O 184.908 -0.488524 1.8444 0
M  V30 1824 C 182.048 -0.42999 3.42411 0
M  V30 1825 C 181.161 0.508907 4.28992 0
M  V30 1826 C 180.296 -0.286301 5.30428 0
M  V30 1827 C 179.335 0.648079 6.08659 0
M  V30 1828 N 178.472 -0.111792 7.02011 0
M  V30 1829 H 183.312 1.18807 2.73293 0
M  V30 1830 H 180.849 0.597231 1.3443 0
M  V30 1831 H 182.807 -0.897923 4.07423 0
M  V30 1832 H 181.437 -1.23299 2.98324 0
M  V30 1833 H 180.489 1.09533 3.64289 0
M  V30 1834 H 181.801 1.22475 4.8353 0
M  V30 1835 H 180.955 -0.816098 6.01186 0
M  V30 1836 H 179.694 -1.03536 4.76583 0
M  V30 1837 H 178.699 1.18951 5.36778 0
M  V30 1838 H 179.924 1.39623 6.64592 0
M  V30 1839 H 177.87 -0.843395 6.50556 0
M  V30 1840 H 177.787 0.544429 7.54037 0
M  V30 1841 H 179.055 -0.622339 7.77012 0
M  V30 1842 N 183.284 -1.43765 0.645699 0
M  V30 1843 C 184.533 -2.01116 0.153412 0
M  V30 1844 C 184.846 -1.51493 -1.23731 0
M  V30 1845 O 186.052 -2.01067 -1.8244 0
M  V30 1846 C 184.508 -3.59206 0.223473 0
M  V30 1847 C 184.116 -4.17823 1.61642 0
M  V30 1848 C 185.86 -4.23972 -0.211597 0
M  V30 1849 C 183.767 -5.68183 1.64081 0
M  V30 1850 H 182.697 -0.752093 0.0535891 0
M  V30 1851 H 185.348 -1.6482 0.806633 0
M  V30 1852 H 183.73 -3.92867 -0.497118 0
M  V30 1853 H 184.904 -3.95674 2.36176 0
M  V30 1854 H 183.219 -3.65399 1.99681 0
M  V30 1855 H 185.816 -5.34275 -0.213112 0
M  V30 1856 H 186.159 -3.97352 -1.24165 0
M  V30 1857 H 186.692 -3.95166 0.456988 0
M  V30 1858 H 183.431 -5.99559 2.64971 0
M  V30 1859 H 182.951 -5.9241 0.938611 0
M  V30 1860 H 184.63 -6.32085 1.3812 0
M  V30 1861 N 184.763 -0.387143 -1.52771 0
M  V30 1862 C 186.009 0.196025 -2.0185 0
M  V30 1863 C 186.342 1.46641 -1.27319 0
M  V30 1864 O 185.617 1.90889 -0.373032 0
M  V30 1865 C 185.9 0.466136 -3.5707 0
M  V30 1866 C 185.753 -0.819385 -4.42274 0
M  V30 1867 C 187.072 1.25768 -4.21747 0
M  V30 1868 H 184.191 0.0697708 -0.73369 0
M  V30 1869 H 186.833 -0.516286 -1.82851 0
M  V30 1870 H 184.983 1.07293 -3.7339 0
M  V30 1871 H 186.655 -1.4563 -4.37709 0
M  V30 1872 H 184.898 -1.43517 -4.09372 0
M  V30 1873 H 185.569 -0.585065 -5.48891 0
M  V30 1874 H 188.045 0.744167 -4.09391 0
M  V30 1875 H 186.921 1.41541 -5.30337 0
M  V30 1876 H 187.182 2.27228 -3.79236 0
M  V30 1877 N 186.241 1.57166 -0.116904 0
M  V30 1878 C 187.469 1.99473 0.549383 0
M  V30 1879 C 187.884 0.996541 1.60357 0
M  V30 1880 O 187.241 -0.0108731 1.82497 0
M  V30 1881 C 187.292 3.41788 1.17741 0
M  V30 1882 O 187.013 4.37788 0.165362 0
M  V30 1883 C 188.514 3.99216 1.92722 0
M  V30 1884 H 185.734 0.655009 0.145616 0
M  V30 1885 H 188.278 2.03494 -0.202625 0
M  V30 1886 H 186.433 3.38713 1.88021 0
M  V30 1887 H 186.847 5.20806 0.621403 0
M  V30 1888 H 188.321 5.00882 2.31995 0
M  V30 1889 H 188.798 3.3824 2.80161 0
M  V30 1890 H 189.404 4.0583 1.27209 0
M  V30 1891 N 187.719 -0.156864 1.56817 0
M  V30 1892 C 188.682 -1.17781 1.96622 0
M  V30 1893 C 189.682 -1.36401 0.851555 0
M  V30 1894 O 190.872 -1.33561 1.11836 0
M  V30 1895 C 188.004 -2.54008 2.27361 0
M  V30 1896 H 189.197 -0.836564 2.87996 0
M  V30 1897 H 186.75 -0.39985 1.51099 0
M  V30 1898 H 187.485 -2.9312 1.38748 0
M  V30 1899 H 187.27 -2.41856 3.08623 0
M  V30 1900 H 188.76 -3.27558 2.59029 0
M  V30 1901 N 189.197 -1.51736 -0.425897 0
M  V30 1902 C 190.445 -1.64644 -1.17204 0
M  V30 1903 C 190.766 -0.370486 -1.91448 0
M  V30 1904 O 190.036 0.614088 -1.86026 0
M  V30 1905 H 188.616 -0.606819 -0.435638 0
M  V30 1906 H 191.278 -1.88713 -0.487177 0
M  V30 1907 H 190.374 -2.47958 -1.89534 0
M  V30 1908 N 190.675 0.682077 -1.42076 0
M  V30 1909 C 191.923 1.4393 -1.41876 0
M  V30 1910 C 192.244 1.94971 -0.0335599 0
M  V30 1911 O 191.514 1.72591 0.926773 0
M  V30 1912 H 190.094 0.534085 -0.522267 0
M  V30 1913 H 192.756 0.806427 -1.77434 0
M  V30 1914 H 191.852 2.29588 -2.11414 0
M  V30 1915 N 192.153 1.28127 0.917671 0
M  V30 1916 C 193.402 1.14432 1.66097 0
M  V30 1917 C 193.715 -0.307247 1.93172 0
M  V30 1918 O 194.921 -0.565259 2.65551 0
M  V30 1919 C 193.377 2.00015 2.99202 0
M  V30 1920 C 192.985 3.49889 2.79789 0
M  V30 1921 C 194.729 1.94996 3.77064 0
M  V30 1922 C 192.636 4.27636 4.08511 0
M  V30 1923 H 191.566 0.424662 0.62304 0
M  V30 1924 H 194.217 1.52628 1.01868 0
M  V30 1925 H 192.599 1.54672 3.64544 0
M  V30 1926 H 193.773 4.03162 2.23152 0
M  V30 1927 H 192.088 3.56392 2.15345 0
M  V30 1928 H 194.685 2.50354 4.72469 0
M  V30 1929 H 195.028 0.925819 4.05875 0
M  V30 1930 H 195.561 2.38287 3.18534 0
M  V30 1931 H 192.3 5.30615 3.84874 0
M  V30 1932 H 191.82 3.79137 4.64774 0
M  V30 1933 H 193.499 4.37346 4.76799 0
M  V30 1934 N 193.631 -1.12557 1.10312 0
M  V30 1935 C 194.908 -1.80363 0.756878 0
M  V30 1936 C 195.288 -1.97067 -0.756824 0
M  V30 1937 O 194.636 -1.54601 -1.68259 0
M  V30 1938 C 194.846 -3.14812 1.50647 0
M  V30 1939 C 196.194 -3.90029 1.67817 0
M  V30 1940 O 197.218 -3.24464 1.46974 0
M  V30 1941 O 196.077 -5.07652 2.02365 0
M  V30 1942 H 193.171 -0.780667 0.272926 0
M  V30 1943 H 195.717 -1.19404 1.20586 0
M  V30 1944 H 194.489 -2.97936 2.53672 0
M  V30 1945 H 194.112 -3.83478 1.05026 0
M  V30 1946 N 195.109 -0.891671 -1.2995 0
M  V30 1947 C 196.337 -0.52866 -2.00032 0
M  V30 1948 C 196.752 0.884574 -1.66795 0
M  V30 1949 O 196.109 1.5827 -0.908669 0
M  V30 1950 C 196.16 -0.701814 -3.54622 0
M  V30 1951 O 195.881 -2.05942 -3.86678 0
M  V30 1952 C 197.382 -0.342683 -4.41973 0
M  V30 1953 H 194.602 -0.203659 -0.639347 0
M  V30 1954 H 197.146 -1.19881 -1.65677 0
M  V30 1955 H 195.301 -0.0789468 -3.8732 0
M  V30 1956 H 195.715 -2.08291 -4.81368 0
M  V30 1957 H 197.189 -0.514709 -5.49595 0
M  V30 1958 H 197.666 0.71975 -4.33262 0
M  V30 1959 H 198.272 -0.942154 -4.14733 0
M  V30 1960 N 196.587 1.43421 -0.653314 0
M  V30 1961 C 197.537 2.2792 0.060558 0
M  V30 1962 C 198.521 1.39906 0.794677 0
M  V30 1963 O 199.713 1.63536 0.677128 0
M  V30 1964 C 196.842 3.27603 1.0262 0
M  V30 1965 C 195.928 4.23104 0.290551 0
M  V30 1966 N 196.319 5.01031 -0.692967 0
M  V30 1967 C 194.617 4.42816 0.531984 0
M  V30 1968 C 195.318 5.70626 -1.12963 0
M  V30 1969 N 194.294 5.41617 -0.463867 0
M  V30 1970 H 198.096 2.85585 -0.694143 0
M  V30 1971 H 195.61 1.55126 -0.480602 0
M  V30 1972 H 197.607 3.86918 1.55242 0
M  V30 1973 H 196.267 2.71499 1.78096 0
M  V30 1974 H 197.278 5.0669 -1.07169 0
M  V30 1975 H 193.955 3.97782 1.26791 0
M  V30 1976 H 195.345 6.4318 -1.94343 0
M  V30 1977 N 198.065 0.39524 1.52563 0
M  V30 1978 C 199.314 -0.186321 2.00838 0
M  V30 1979 C 199.627 -1.47402 1.28577 0
M  V30 1980 O 200.833 -2.13599 1.67593 0
M  V30 1981 C 199.289 -0.382595 3.57861 0
M  V30 1982 C 198.897 0.892202 4.39026 0
M  V30 1983 C 200.641 -0.9202 4.14406 0
M  V30 1984 C 198.548 0.66388 5.87662 0
M  V30 1985 H 197.478 -0.0734041 0.750418 0
M  V30 1986 H 200.129 0.518552 1.76021 0
M  V30 1987 H 198.511 -1.14946 3.7895 0
M  V30 1988 H 199.685 1.66414 4.29701 0
M  V30 1989 H 198 1.35519 3.9373 0
M  V30 1990 H 200.597 -1.10683 5.23119 0
M  V30 1991 H 200.94 -1.89096 3.70875 0
M  V30 1992 H 201.473 -0.212751 3.97231 0
M  V30 1993 H 198.212 1.6058 6.35527 0
M  V30 1994 H 197.732 -0.0690193 5.9976 0
M  V30 1995 H 199.411 0.300699 6.46301 0
M  V30 1996 N 199.544 -1.57102 0.125237 0
M  V30 1997 C 200.494 -2.12202 -0.833936 0
M  V30 1998 C 201.478 -1.04433 -1.22403 0
M  V30 1999 O 202.67 -1.30655 -1.19408 0
M  V30 2000 C 199.799 -2.72994 -2.08157 0
M  V30 2001 C 198.885 -3.87852 -1.71556 0
M  V30 2002 N 199.276 -4.9464 -1.05662 0
M  V30 2003 C 197.574 -3.98153 -2.00973 0
M  V30 2004 C 198.275 -5.74953 -0.883376 0
M  V30 2005 N 197.251 -5.24985 -1.41036 0
M  V30 2006 H 201.053 -2.92141 -0.321035 0
M  V30 2007 H 198.567 -1.62217 -0.0770315 0
M  V30 2008 H 200.564 -3.10816 -2.77847 0
M  V30 2009 H 199.224 -1.9452 -2.59985 0
M  V30 2010 H 200.235 -5.12872 -0.719878 0
M  V30 2011 H 196.912 -3.30728 -2.54804 0
M  V30 2012 H 198.302 -6.70904 -0.365675 0
M  V30 2013 N 201.022 0.148545 -1.56898 0
M  V30 2014 C 202.268 0.857877 -1.84424 0
M  V30 2015 C 202.623 1.7886 -0.709006 0
M  V30 2016 O 201.916 1.89344 0.293139 0
M  V30 2017 C 202.11 1.67064 -3.1595 0
M  V30 2018 C 201.939 0.82011 -4.42159 0
M  V30 2019 C 200.709 0.486328 -5.02954 0
M  V30 2020 C 202.907 0.151155 -5.14078 0
M  V30 2021 N 200.889 -0.377956 -6.12735 0
M  V30 2022 C 202.26 -0.573333 -6.17343 0
M  V30 2023 C 204.315 0.0716685 -4.97848 0
M  V30 2024 C 203.018 -1.3698 -7.06137 0
M  V30 2025 C 205.044 -0.711532 -5.87104 0
M  V30 2026 C 204.406 -1.42431 -6.8985 0
M  V30 2027 H 200.505 0.291798 -0.725519 0
M  V30 2028 H 203.089 0.123347 -1.94309 0
M  V30 2029 H 201.26 2.37642 -3.07215 0
M  V30 2030 H 202.992 2.32302 -3.31388 0
M  V30 2031 H 199.747 0.821753 -4.66416 0
M  V30 2032 H 200.171 -0.801077 -6.72244 0
M  V30 2033 H 204.813 0.608381 -4.184 0
M  V30 2034 H 202.531 -1.91778 -7.85014 0
M  V30 2035 H 206.117 -0.775005 -5.76615 0
M  V30 2036 H 204.997 -2.02061 -7.57721 0
M  V30 2037 N 202.5 1.5196 0.417844 0
M  V30 2038 C 203.749 1.6482 1.16264 0
M  V30 2039 C 204.062 0.379886 1.91876 0
M  V30 2040 O 205.268 0.388154 2.68711 0
M  V30 2041 C 203.724 2.91161 2.1155 0
M  V30 2042 C 203.332 4.25068 1.41495 0
M  V30 2043 C 205.076 3.13383 2.86341 0
M  V30 2044 C 202.983 5.42541 2.35379 0
M  V30 2045 H 201.913 0.613954 0.437694 0
M  V30 2046 H 204.564 1.78442 0.427871 0
M  V30 2047 H 202.946 2.71218 2.88543 0
M  V30 2048 H 204.12 4.55463 0.699263 0
M  V30 2049 H 202.435 4.0888 0.787792 0
M  V30 2050 H 205.032 3.98324 3.5671 0
M  V30 2051 H 205.375 2.27256 3.48798 0
M  V30 2052 H 205.908 3.33757 2.1645 0
M  V30 2053 H 202.647 6.30987 1.77582 0
M  V30 2054 H 202.167 5.16497 3.04945 0
M  V30 2055 H 203.846 5.75272 2.96093 0
M  V30 2056 N 203.978 -0.674533 1.42435 0
M  V30 2057 C 205.218 -1.4466 1.44405 0
M  V30 2058 C 205.582 -1.91911 0.0585784 0
M  V30 2059 O 206.783 -2.68759 -0.0469991 0
M  V30 2060 C 205.054 -2.61136 2.44013 0
M  V30 2061 S 206.613 -3.49981 2.64687 0
M  V30 2062 H 203.431 -0.494074 0.511284 0
M  V30 2063 H 206.033 -0.785162 1.7904 0
M  V30 2064 H 204.737 -2.24662 3.43446 0
M  V30 2065 H 204.268 -3.32153 2.10803 0
M  V30 2066 H 206.283 -4.57124 1.93007 0
M  V30 2067 N 205.456 -1.28612 -0.910864 0
M  V30 2068 C 206.867 -1.14406 -1.47541 0
M  V30 2069 C 207.218 0.264901 -1.94403 0
M  V30 2070 O 206.343 1.15942 -1.82719 0
M  V30 2071 C 206.938 -2.07073 -2.68153 0
M  V30 2072 C 205.497 -1.96923 -3.20778 0
M  V30 2073 C 204.644 -1.98646 -1.93481 0
M  V30 2074 H 207.595 -1.41259 -0.723291 0
M  V30 2075 H 207.616 -1.63642 -3.43514 0
M  V30 2076 H 207.128 -3.09611 -2.34015 0
M  V30 2077 H 205.229 -0.97433 -3.59635 0
M  V30 2078 H 205.342 -2.84026 -3.85832 0
M  V30 2079 H 203.706 -1.43093 -2.10705 0
M  V30 2080 H 204.489 -3.02868 -1.61634 0
M  V30 2081 N 206.934 1.1197 -1.10907 0
M  V30 2082 C 207.866 2.17592 -0.720175 0
M  V30 2083 C 208.879 1.60938 0.245495 0
M  V30 2084 O 210.068 1.78476 0.0292245 0
M  V30 2085 C 207.168 3.38873 -0.0427917 0
M  V30 2086 C 206.341 4.25006 -1.03388 0
M  V30 2087 C 205.4 5.24774 -0.387075 0
M  V30 2088 O 204.426 5.59631 -1.03934 0
M  V30 2089 N 205.628 5.74208 0.852407 0
M  V30 2090 H 208.393 2.51567 -1.62893 0
M  V30 2091 H 205.954 1.27439 -0.998543 0
M  V30 2092 H 207.946 4.02703 0.401501 0
M  V30 2093 H 206.516 3.03007 0.768456 0
M  V30 2094 H 205.736 3.57716 -1.65629 0
M  V30 2095 H 207.024 4.79397 -1.70458 0
M  V30 2096 H 206.422 5.48062 1.40161 0
M  V30 2097 H 204.979 6.39901 1.23977 0
M  V30 2098 N 208.412 0.89855 1.29475 0
M  V30 2099 C 209.344 0.332726 2.26772 0
M  V30 2100 C 210.357 -0.520323 1.54261 0
M  V30 2101 O 211.546 -0.337668 1.75277 0
M  V30 2102 C 208.646 -0.544334 3.345 0
M  V30 2103 C 207.819 0.282728 4.36485 0
M  V30 2104 C 206.878 -0.526982 5.23555 0
M  V30 2105 O 205.904 0.0551165 5.69173 0
M  V30 2106 N 207.106 -1.83331 5.5079 0
M  V30 2107 H 209.871 1.16897 2.75962 0
M  V30 2108 H 207.432 0.762919 1.42798 0
M  V30 2109 H 209.424 -1.09239 3.89678 0
M  V30 2110 H 207.994 -1.28127 2.85136 0
M  V30 2111 H 207.214 1.01221 3.80983 0
M  V30 2112 H 208.502 0.84918 5.01664 0
M  V30 2113 H 207.9 -2.32898 5.15534 0
M  V30 2114 H 206.457 -2.32852 6.08788 0
M  V30 2115 N 209.89 -1.43072 0.660911 0
M  V30 2116 C 210.853 -2.29194 -0.0166406 0
M  V30 2117 C 211.853 -1.42609 -0.742912 0
M  V30 2118 O 213.043 -1.64155 -0.583004 0
M  V30 2119 C 210.175 -3.24831 -1.0343 0
M  V30 2120 H 211.368 -2.90596 0.741208 0
M  V30 2121 H 208.921 -1.5048 0.422532 0
M  V30 2122 H 209.656 -2.68339 -1.82111 0
M  V30 2123 H 209.441 -3.88676 -0.517082 0
M  V30 2124 H 210.931 -3.89451 -1.50723 0
M  V30 2125 N 211.368 -0.403325 -1.52352 0
M  V30 2126 C 212.278 0.432009 -2.30588 0
M  V30 2127 C 213.294 1.05884 -1.38075 0
M  V30 2128 O 214.47 1.06161 -1.71148 0
M  V30 2129 C 211.535 1.53669 -3.10784 0
M  V30 2130 C 210.596 0.933525 -4.19027 0
M  V30 2131 C 209.829 1.98557 -4.9539 0
M  V30 2132 O 210.052 3.20283 -4.71991 0
M  V30 2133 O 208.986 1.59504 -5.80381 0
M  V30 2134 H 212.812 -0.205739 -3.03002 0
M  V30 2135 H 210.397 -0.166675 -1.48467 0
M  V30 2136 H 212.279 2.17814 -3.60742 0
M  V30 2137 H 210.954 2.15915 -2.41169 0
M  V30 2138 H 209.861 0.254954 -3.7323 0
M  V30 2139 H 211.194 0.35508 -4.90918 0
M  V30 2140 N 212.846 1.57033 -0.133567 0
M  V30 2141 C 213.756 2.19632 0.824564 0
M  V30 2142 C 214.772 1.17666 1.28182 0
M  V30 2143 O 215.948 1.50193 1.3418 0
M  V30 2144 C 213.013 2.79499 2.05137 0
M  V30 2145 C 212.074 3.96548 1.64464 0
M  V30 2146 C 211.307 4.5355 2.81297 0
M  V30 2147 O 211.53 4.09438 3.97136 0
M  V30 2148 O 210.464 5.44018 2.57542 0
M  V30 2149 H 214.29 3.01991 0.321766 0
M  V30 2150 H 211.875 1.49112 0.0927889 0
M  V30 2151 H 213.757 3.17602 2.7696 0
M  V30 2152 H 212.432 2.00162 2.54395 0
M  V30 2153 H 211.339 3.63186 0.897048 0
M  V30 2154 H 212.672 4.77364 1.19934 0
M  V30 2155 N 214.325 -0.140222 1.56975 0
M  V30 2156 C 215.288 -1.15689 1.97861 0
M  V30 2157 C 216.288 -1.3549 0.865974 0
M  V30 2158 O 217.478 -1.32367 1.13246 0
M  V30 2159 C 214.61 -2.51582 2.30042 0
M  V30 2160 H 215.803 -0.805971 2.88867 0
M  V30 2161 H 213.356 -0.383801 1.51515 0
M  V30 2162 H 214.091 -2.91632 1.41849 0
M  V30 2163 H 213.876 -2.38569 3.11171 0
M  V30 2164 H 215.366 -3.24792 2.62488 0
M  V30 2165 N 215.803 -1.52179 -0.40978 0
M  V30 2166 C 216.733 -1.78435 -1.5061 0
M  V30 2167 C 217.714 -0.635295 -1.57791 0
M  V30 2168 O 218.899 -0.880823 -1.73076 0
M  V30 2169 C 216.029 -1.93444 -2.88439 0
M  V30 2170 C 214.983 -3.09038 -2.96108 0
M  V30 2171 C 214.309 -3.09268 -4.36185 0
M  V30 2172 C 215.609 -4.48508 -2.67652 0
M  V30 2173 H 217.303 -2.70237 -1.28889 0
M  V30 2174 H 214.849 -1.30036 -0.618605 0
M  V30 2175 H 216.802 -2.10394 -3.65119 0
M  V30 2176 H 215.526 -0.983129 -3.11452 0
M  V30 2177 H 214.185 -2.91837 -2.21872 0
M  V30 2178 H 213.833 -2.11861 -4.56206 0
M  V30 2179 H 213.533 -3.86907 -4.42241 0
M  V30 2180 H 215.057 -3.28348 -5.14801 0
M  V30 2181 H 216.471 -4.65918 -3.34056 0
M  V30 2182 H 214.868 -5.28059 -2.85085 0
M  V30 2183 H 215.938 -4.56649 -1.63095 0
M  V30 2184 N 217.281 0.66697 -1.42791 0
M  V30 2185 C 218.527 1.4291 -1.43891 0
M  V30 2186 C 218.86 1.94114 -0.0578972 0
M  V30 2187 O 218.135 1.71414 0.91911 0
M  V30 2188 C 218.418 2.62049 -2.46987 0
M  V30 2189 C 218.271 2.16426 -3.94309 0
M  V30 2190 C 219.59 3.64266 -2.46978 0
M  V30 2191 H 216.709 0.518306 -0.523954 0
M  V30 2192 H 219.351 0.757321 -1.74255 0
M  V30 2193 H 217.501 3.19361 -2.21225 0
M  V30 2194 H 219.173 1.64221 -4.31079 0
M  V30 2195 H 217.416 1.47925 -4.078 0
M  V30 2196 H 218.087 3.02038 -4.62036 0
M  V30 2197 H 220.563 3.16686 -2.69906 0
M  V30 2198 H 219.439 4.45196 -3.21079 0
M  V30 2199 H 219.7 4.15927 -1.49857 0
M  V30 2200 N 218.759 1.29093 0.90403 0
M  V30 2201 C 219.984 1.19809 1.69294 0
M  V30 2202 C 220.409 -0.238481 1.86582 0
M  V30 2203 O 219.767 -1.1723 1.383 0
M  V30 2204 C 219.815 1.91202 3.05736 0
M  V30 2205 O 218.919 1.22611 3.93752 0
M  V30 2206 H 218.26 0.415385 0.518027 0
M  V30 2207 H 220.79 1.70586 1.12967 0
M  V30 2208 H 220.8 1.99487 3.55906 0
M  V30 2209 H 219.475 2.95692 2.92471 0
M  V30 2210 H 218.052 1.22554 3.52186 0
M  V30 2211 N 220.237 -1.11381 1.11499 0
M  V30 2212 C 221.485 -1.8277 0.862524 0
M  V30 2213 C 221.806 -1.85097 -0.613534 0
M  V30 2214 O 221.076 -1.32198 -1.4457 0
M  V30 2215 H 219.656 -0.676823 0.316101 0
M  V30 2216 H 222.318 -1.34816 1.4075 0
M  V30 2217 H 221.414 -2.86614 1.23527 0
M  V30 2218 N 221.715 -0.905404 -1.28997 0
M  V30 2219 C 222.961 -0.535039 -1.95615 0
M  V30 2220 C 223.294 0.917404 -1.71165 0
M  V30 2221 O 222.569 1.65123 -1.02785 0
M  V30 2222 C 222.852 -0.834918 -3.50287 0
M  V30 2223 C 222.705 -2.33948 -3.84172 0
M  V30 2224 C 224.024 -0.325318 -4.38896 0
M  V30 2225 H 221.143 -0.195861 -0.710498 0
M  V30 2226 H 223.785 -1.13313 -1.52513 0
M  V30 2227 H 221.935 -0.325904 -3.87131 0
M  V30 2228 H 223.607 -2.91847 -3.57243 0
M  V30 2229 H 221.85 -2.79789 -3.31513 0
M  V30 2230 H 222.521 -2.49987 -4.92149 0
M  V30 2231 H 224.997 -0.761256 -4.09077 0
M  V30 2232 H 223.873 -0.564295 -5.45992 0
M  V30 2233 H 224.134 0.774144 -4.35269 0
M  V30 2234 N 223.193 1.4272 -0.668489 0
M  V30 2235 C 224.421 2.05966 -0.196348 0
M  V30 2236 C 224.836 1.50191 1.14403 0
M  V30 2237 O 224.193 0.639208 1.7094 0
M  V30 2238 C 224.244 3.61314 -0.115815 0
M  V30 2239 O 223.965 4.1502 -1.40322 0
M  V30 2240 C 225.466 4.41663 0.380579 0
M  V30 2241 H 222.686 0.663954 -0.0969829 0
M  V30 2242 H 225.23 1.82966 -0.913446 0
M  V30 2243 H 223.385 3.83448 0.551931 0
M  V30 2244 H 223.799 5.08832 -1.27243 0
M  V30 2245 H 225.273 5.5065 0.385848 0
M  V30 2246 H 225.75 4.15792 1.41471 0
M  V30 2247 H 226.356 4.24534 -0.255209 0
M  V30 2248 N 224.671 0.411399 1.52136 0
M  V30 2249 C 225.899 -0.163076 2.06256 0
M  V30 2250 C 226.314 -1.3867 1.28125 0
M  V30 2251 O 225.671 -1.79423 0.333721 0
M  V30 2252 C 225.722 -0.511252 3.57867 0
M  V30 2253 O 225.443 0.66378 4.33042 0
M  V30 2254 C 226.944 -1.13921 4.28412 0
M  V30 2255 H 224.164 -0.0193897 0.67072 0
M  V30 2256 H 226.708 0.583007 1.96013 0
M  V30 2257 H 224.863 -1.20723 3.6811 0
M  V30 2258 H 225.277 0.372601 5.23175 0
M  V30 2259 H 226.751 -1.33302 5.35663 0
M  V30 2260 H 227.228 -2.11296 3.85033 0
M  V30 2261 H 227.834 -0.483373 4.22544 0
M  V30 2262 N 226.149 -1.5696 0.141893 0
M  V30 2263 C 227.082 -2.12271 -0.837627 0
M  V30 2264 C 228.06 -1.04495 -1.24578 0
M  V30 2265 O 229.244 -1.32293 -1.34278 0
M  V30 2266 C 226.371 -2.63822 -2.12404 0
M  V30 2267 C 225.417 -3.83698 -1.86221 0
M  V30 2268 S 226.25 -5.24948 -1.05781 0
M  V30 2269 C 227.406 -5.79884 -2.35552 0
M  V30 2270 H 227.639 -2.95023 -0.367249 0
M  V30 2271 H 225.172 -1.54231 -0.0723014 0
M  V30 2272 H 227.13 -2.94175 -2.86307 0
M  V30 2273 H 225.791 -1.8121 -2.56557 0
M  V30 2274 H 224.984 -4.17995 -2.81596 0
M  V30 2275 H 224.586 -3.5408 -1.20429 0
M  V30 2276 H 226.878 -5.91005 -3.31239 0
M  V30 2277 H 227.821 -6.77544 -2.05767 0
M  V30 2278 H 228.229 -5.08095 -2.45967 0
M  V30 2279 N 227.627 0.131896 -1.57047 0
M  V30 2280 C 228.873 0.843179 -1.84441 0
M  V30 2281 C 229.206 1.80129 -0.725749 0
M  V30 2282 O 228.481 1.92624 0.269469 0
M  V30 2283 C 228.764 1.60442 -3.22382 0
M  V30 2284 C 228.617 0.666782 -4.4483 0
M  V30 2285 C 229.936 2.56354 -3.5773 0
M  V30 2286 H 227.055 0.305081 -0.670891 0
M  V30 2287 H 229.697 0.107839 -1.89694 0
M  V30 2288 H 227.847 2.23128 -3.18035 0
M  V30 2289 H 229.519 0.0497646 -4.61273 0
M  V30 2290 H 227.762 -0.022609 -4.33794 0
M  V30 2291 H 228.433 1.23579 -5.37989 0
M  V30 2292 H 230.909 2.0378 -3.62785 0
M  V30 2293 H 229.785 3.06657 -4.5525 0
M  V30 2294 H 230.046 3.38419 -2.84473 0
M  V30 2295 N 229.106 1.52395 0.401703 0
M  V30 2296 C 230.354 1.66488 1.14569 0
M  V30 2297 C 230.675 0.400897 1.90835 0
M  V30 2298 O 229.945 -0.584415 1.8698 0
M  V30 2299 H 228.525 0.613672 0.425929 0
M  V30 2300 H 231.187 1.89464 0.457093 0
M  V30 2301 H 230.283 2.50942 1.85566 0
M  V30 2302 N 230.584 -0.659388 1.43143 0
M  V30 2303 C 231.832 -1.41654 1.44147 0
M  V30 2304 C 232.153 -1.94893 0.0645739 0
M  V30 2305 O 231.423 -1.74044 -0.899198 0
M  V30 2306 H 230.003 -0.525708 0.530697 0
M  V30 2307 H 232.665 -0.778097 1.78694 0
M  V30 2308 H 231.761 -2.26195 2.1504 0
M  V30 2309 N 232.062 -1.29571 -0.897171 0
M  V30 2310 C 233.31 -1.17456 -1.64464 0
M  V30 2311 C 233.631 0.273698 -1.9307 0
M  V30 2312 O 232.901 1.18684 -1.55855 0
M  V30 2313 H 231.481 -0.431706 -0.609622 0
M  V30 2314 H 234.143 -1.62531 -1.07562 0
M  V30 2315 H 233.239 -1.72648 -2.59998 0
M  V30 2316 N 233.54 1.10788 -1.12088 0
M  V30 2317 C 234.768 1.86461 -0.896651 0
M  V30 2318 C 235.183 1.80492 0.553912 0
M  V30 2319 O 234.54 1.19102 1.38278 0
M  V30 2320 C 234.591 3.35006 -1.35843 0
M  V30 2321 O 234.312 3.40866 -2.75213 0
M  V30 2322 C 235.813 4.27565 -1.1706 0
M  V30 2323 H 233.033 0.589425 -0.320654 0
M  V30 2324 H 235.577 1.40076 -1.48993 0
M  V30 2325 H 233.732 3.7887 -0.808458 0
M  V30 2326 H 234.146 4.33411 -2.9539 0
M  V30 2327 H 235.62 5.30007 -1.54263 0
M  V30 2328 H 236.097 4.3906 -0.110814 0
M  V30 2329 H 236.703 3.89501 -1.70789 0
M  V30 2330 N 235.018 0.912232 1.28515 0
M  V30 2331 C 236.266 0.543523 1.94654 0
M  V30 2332 C 236.587 -0.9155 1.72173 0
M  V30 2333 O 235.857 -1.64708 1.06058 0
M  V30 2334 H 234.437 0.198017 0.720277 0
M  V30 2335 H 237.099 1.16126 1.56527 0
M  V30 2336 H 236.195 0.736684 3.03281 0
M  V30 2337 N 236.496 -1.42363 0.676048 0
M  V30 2338 C 237.907 -1.84649 0.275948 0
M  V30 2339 C 238.258 -1.56588 -1.18214 0
M  V30 2340 O 237.383 -1.02634 -1.90513 0
M  V30 2341 C 237.978 -3.35178 0.494053 0
M  V30 2342 C 236.537 -3.76109 0.148061 0
M  V30 2343 C 235.684 -2.65931 0.785891 0
M  V30 2344 H 238.635 -1.32192 0.878121 0
M  V30 2345 H 238.656 -3.79655 -0.25343 0
M  V30 2346 H 238.168 -3.55571 1.55535 0
M  V30 2347 H 236.269 -3.61323 -0.909742 0
M  V30 2348 H 236.382 -4.7546 0.589454 0
M  V30 2349 H 234.746 -2.53773 0.217113 0
M  V30 2350 H 235.529 -2.89146 1.85067 0
M  V30 2351 N 237.974 -0.419461 -1.51915 0
M  V30 2352 C 238.937 0.389116 -2.25873 0
M  V30 2353 C 239.937 0.964924 -1.28631 0
M  V30 2354 O 241.127 0.842179 -1.52489 0
M  V30 2355 C 238.259 1.54874 -3.03689 0
M  V30 2356 H 239.452 -0.258799 -2.98781 0
M  V30 2357 H 237.005 -0.172209 -1.55348 0
M  V30 2358 H 237.74 2.23323 -2.35154 0
M  V30 2359 H 237.525 1.14223 -3.75094 0
M  V30 2360 H 239.015 2.12046 -3.59759 0
M  V30 2361 N 239.452 1.56882 -0.150215 0
M  V30 2362 C 240.415 2.1573 0.774157 0
M  V30 2363 C 241.415 1.0999 1.17298 0
M  V30 2364 O 242.605 1.35613 1.09338 0
M  V30 2365 C 239.737 2.72302 2.05096 0
M  V30 2366 H 240.93 2.98752 0.262201 0
M  V30 2367 H 238.483 1.55985 0.099248 0
M  V30 2368 H 239.218 1.92956 2.6065 0
M  V30 2369 H 239.003 3.49665 1.77416 0
M  V30 2370 H 240.493 3.17632 2.71109 0
M  V30 2371 N 240.93 -0.123565 1.57115 0
M  V30 2372 C 242.178 -0.83051 1.84247 0
M  V30 2373 C 242.499 -1.80629 0.73471 0
M  V30 2374 O 241.769 -1.94403 -0.241688 0
M  V30 2375 H 240.349 -0.309694 0.679778 0
M  V30 2376 H 243.011 -0.111976 1.94578 0
M  V30 2377 H 242.107 -1.37852 2.80006 0
M  V30 2378 N 242.408 -1.52605 -0.393616 0
M  V30 2379 C 243.636 -1.71294 -1.16043 0
M  V30 2380 C 244.051 -0.429259 -1.83855 0
M  V30 2381 O 243.408 0.595921 -1.72496 0
M  V30 2382 C 243.459 -2.8593 -2.21193 0
M  V30 2383 O 243.18 -4.09329 -1.56146 0
M  V30 2384 C 244.681 -3.16259 -3.10636 0
M  V30 2385 H 241.901 -0.573641 -0.348104 0
M  V30 2386 H 244.445 -1.99234 -0.461092 0
M  V30 2387 H 242.6 -2.60465 -2.86769 0
M  V30 2388 H 243.014 -4.73323 -2.25978 0
M  V30 2389 H 244.488 -3.99946 -3.80456 0
M  V30 2390 H 244.965 -2.3045 -3.73884 0
M  V30 2391 H 245.571 -3.43547 -2.50711 0
M  V30 2392 N 243.887 0.651787 -1.4349 0
M  V30 2393 C 244.837 1.75783 -1.45205 0
M  V30 2394 C 245.821 1.57679 -0.320328 0
M  V30 2395 O 247.013 1.67767 -0.564211 0
M  V30 2396 C 244.142 3.14377 -1.3792 0
M  V30 2397 C 243.228 3.38023 -2.56127 0
M  V30 2398 N 243.619 3.32135 -3.81471 0
M  V30 2399 C 241.917 3.68747 -2.50882 0
M  V30 2400 C 242.618 3.55902 -4.60118 0
M  V30 2401 N 241.594 3.77783 -3.90872 0
M  V30 2402 H 245.396 1.69657 -2.39987 0
M  V30 2403 H 242.91 0.853508 -1.38163 0
M  V30 2404 H 244.907 3.93666 -1.37231 0
M  V30 2405 H 243.567 3.21683 -0.441596 0
M  V30 2406 H 244.578 3.11515 -4.13738 0
M  V30 2407 H 241.255 3.8316 -1.65816 0
M  V30 2408 H 242.645 3.57116 -5.69138 0
M  V30 2409 N 245.365 1.30045 0.890287 0
M  V30 2410 C 246.328 1.15963 1.977 0
M  V30 2411 C 247.328 0.0923777 1.60534 0
M  V30 2412 O 248.518 0.340071 1.70848 0
M  V30 2413 C 245.65 0.775451 3.31963 0
M  V30 2414 H 246.843 2.12502 2.11619 0
M  V30 2415 H 244.396 1.13366 1.07601 0
M  V30 2416 H 245.131 -0.189671 3.23745 0
M  V30 2417 H 244.916 1.54668 3.60306 0
M  V30 2418 H 246.406 0.700251 4.11687 0
M  V30 2419 N 246.843 -1.10192 1.12674 0
M  V30 2420 C 248.071 -1.85983 0.906527 0
M  V30 2421 C 248.486 -1.80783 -0.544333 0
M  V30 2422 O 247.843 -1.19834 -1.37645 0
M  V30 2423 C 247.894 -3.34281 1.37618 0
M  V30 2424 O 247.615 -3.39401 2.77017 0
M  V30 2425 C 249.116 -4.26938 1.19325 0
M  V30 2426 H 246.336 -0.587716 0.323775 0
M  V30 2427 H 248.88 -1.39284 1.49734 0
M  V30 2428 H 247.035 -3.78436 0.828539 0
M  V30 2429 H 247.449 -4.31838 2.97684 0
M  V30 2430 H 248.923 -5.29181 1.57071 0
M  V30 2431 H 249.4 -4.38995 0.134097 0
M  V30 2432 H 250.006 -3.8859 1.72852 0
M  V30 2433 N 248.321 -0.919034 -1.28029 0
M  V30 2434 C 249.549 -0.570971 -1.98866 0
M  V30 2435 C 249.964 0.848996 -1.68634 0
M  V30 2436 O 249.321 1.56307 -0.942036 0
M  V30 2437 C 249.372 -0.776876 -3.53054 0
M  V30 2438 O 249.093 -2.14097 -3.82222 0
M  V30 2439 C 250.594 -0.436356 -4.41147 0
M  V30 2440 H 247.814 -0.217175 -0.634883 0
M  V30 2441 H 250.358 -1.23368 -1.63097 0
M  V30 2442 H 248.513 -0.161085 -3.87065 0
M  V30 2443 H 248.927 -2.18455 -4.76841 0
M  V30 2444 H 250.401 -0.63117 -5.4838 0
M  V30 2445 H 250.878 0.627686 -4.34692 0
M  V30 2446 H 251.484 -1.02991 -4.12641 0
M  V30 2447 N 249.799 1.42003 -0.683588 0
M  V30 2448 C 251.039 2.03282 -0.213513 0
M  V30 2449 C 251.403 1.52924 1.16097 0
M  V30 2450 O 252.604 2.06048 1.7262 0
M  V30 2451 C 250.875 3.56483 -0.255856 0
M  V30 2452 S 252.434 4.3857 0.14193 0
M  V30 2453 H 249.252 0.705659 -0.0869853 0
M  V30 2454 H 251.854 1.73619 -0.8987 0
M  V30 2455 H 250.558 3.90631 -1.25841 0
M  V30 2456 H 250.089 3.90831 0.448875 0
M  V30 2457 H 252.104 4.76828 1.37295 0
M  V30 2458 N 251.277 0.427512 1.51691 0
M  V30 2459 C 252.505 -0.141191 2.06418 0
M  V30 2460 C 252.92 -1.37303 1.29589 0
M  V30 2461 O 252.277 -1.79059 0.352732 0
M  V30 2462 C 252.328 -0.473266 3.58389 0
M  V30 2463 O 252.049 0.709673 4.32314 0
M  V30 2464 C 253.55 -1.09371 4.29596 0
M  V30 2465 H 250.77 -0.0122747 0.670888 0
M  V30 2466 H 253.314 0.603764 1.95384 0
M  V30 2467 H 251.469 -1.16812 3.69369 0
M  V30 2468 H 251.883 0.42807 5.2275 0
M  V30 2469 H 253.357 -1.27613 5.37046 0
M  V30 2470 H 253.834 -2.072 3.87253 0
M  V30 2471 H 254.44 -0.43853 4.23033 0
M  V30 2472 N 252.755 -1.56801 0.158532 0
M  V30 2473 C 254.166 -1.83189 -0.360366 0
M  V30 2474 C 254.517 -1.07778 -1.63946 0
M  V30 2475 O 253.642 -0.326718 -2.13919 0
M  V30 2476 C 254.237 -3.32297 -0.660595 0
M  V30 2477 C 252.796 -3.59227 -1.12398 0
M  V30 2478 C 251.943 -2.76877 -0.153097 0
M  V30 2479 H 254.894 -1.54008 0.383031 0
M  V30 2480 H 254.915 -3.4908 -1.51405 0
M  V30 2481 H 254.427 -3.87156 0.270527 0
M  V30 2482 H 252.528 -3.09766 -2.07064 0
M  V30 2483 H 252.641 -4.67632 -1.04197 0
M  V30 2484 H 251.005 -2.46319 -0.647983 0
M  V30 2485 H 251.788 -3.34511 0.77182 0
M  V30 2486 N 254.233 0.115231 -1.57178 0
M  V30 2487 C 255.481 0.820727 -1.84685 0
M  V30 2488 C 255.802 1.80237 -0.744279 0
M  V30 2489 O 255.072 1.94529 0.231375 0
M  V30 2490 H 253.652 0.306084 -0.681411 0
M  V30 2491 H 256.314 0.101656 -1.94635 0
M  V30 2492 H 255.41 1.36366 -2.80733 0
M  V30 2493 N 255.711 1.52812 0.385517 0
M  V30 2494 C 257.122 1.5993 0.963293 0
M  V30 2495 C 257.473 0.454302 1.90868 0
M  V30 2496 O 256.598 -0.422132 2.12243 0
M  V30 2497 C 257.193 2.89871 1.75387 0
M  V30 2498 C 255.752 2.99389 2.28129 0
M  V30 2499 C 254.899 2.55071 1.08783 0
M  V30 2500 H 257.85 1.5784 0.164948 0
M  V30 2501 H 257.871 2.76553 2.61341 0
M  V30 2502 H 257.383 3.73186 1.06554 0
M  V30 2503 H 255.484 2.20619 3.00263 0
M  V30 2504 H 255.597 4.04096 2.57377 0
M  V30 2505 H 253.961 2.09473 1.4489 0
M  V30 2506 H 254.744 3.40785 0.414807 0
M  V30 2507 N 257.189 -0.644168 1.43834 0
M  V30 2508 C 258.435 -1.40431 1.47141 0
M  V30 2509 C 258.79 -1.92153 0.0975577 0
M  V30 2510 O 258.083 -1.69924 -0.885232 0
M  V30 2511 C 258.277 -2.59615 2.45631 0
M  V30 2512 C 258.106 -2.1956 3.92458 0
M  V30 2513 C 256.876 -2.07456 4.60749 0
M  V30 2514 C 259.074 -1.79281 4.8204 0
M  V30 2515 N 257.056 -1.60827 5.92459 0
M  V30 2516 C 258.427 -1.43801 6.03093 0
M  V30 2517 C 260.482 -1.66545 4.6922 0
M  V30 2518 C 259.185 -0.968599 7.12749 0
M  V30 2519 C 261.211 -1.21008 5.78888 0
M  V30 2520 C 260.573 -0.864711 6.99072 0
M  V30 2521 H 256.672 -0.509182 0.593513 0
M  V30 2522 H 259.256 -0.740351 1.80075 0
M  V30 2523 H 257.427 -3.23658 2.1471 0
M  V30 2524 H 259.159 -3.26357 2.39318 0
M  V30 2525 H 255.914 -2.275 4.1538 0
M  V30 2526 H 256.338 -1.39848 6.62398 0
M  V30 2527 H 260.98 -1.91883 3.7675 0
M  V30 2528 H 258.698 -0.702715 8.05039 0
M  V30 2529 H 262.284 -1.11631 5.7099 0
M  V30 2530 H 261.164 -0.517736 7.82489 0
M  V30 2531 N 258.668 -1.30515 -0.883378 0
M  V30 2532 C 259.898 -1.22182 -1.66599 0
M  V30 2533 C 260.306 0.217507 -1.87946 0
M  V30 2534 O 259.649 1.1554 -1.42815 0
M  V30 2535 C 259.711 -1.88146 -3.06335 0
M  V30 2536 C 259.375 -3.37476 -3.08154 0
M  V30 2537 C 260.372 -4.33443 -2.87094 0
M  V30 2538 C 258.057 -3.7895 -3.29701 0
M  V30 2539 C 260.051 -5.68858 -2.8754 0
M  V30 2540 C 257.738 -5.14482 -3.29776 0
M  V30 2541 C 258.736 -6.09246 -3.0872 0
M  V30 2542 O 258.424 -7.42302 -3.08615 0
M  V30 2543 H 258.156 -0.423898 -0.52658 0
M  V30 2544 H 260.71 -1.72703 -1.11188 0
M  V30 2545 H 258.94 -1.32157 -3.63416 0
M  V30 2546 H 260.629 -1.7391 -3.66756 0
M  V30 2547 H 261.395 -4.02733 -2.70243 0
M  V30 2548 H 257.274 -3.05631 -3.45124 0
M  V30 2549 H 260.818 -6.428 -2.71024 0
M  V30 2550 H 256.715 -5.44832 -3.46163 0
M  V30 2551 H 257.483 -7.5131 -3.24769 0
M  V30 2552 N 260.146 1.09593 -1.13257 0
M  V30 2553 C 261.395 1.81105 -0.887917 0
M  V30 2554 C 261.708 1.86563 0.587672 0
M  V30 2555 O 262.914 2.54367 0.949204 0
M  V30 2556 C 261.37 3.25338 -1.53895 0
M  V30 2557 C 260.978 3.28151 -3.04994 0
M  V30 2558 C 262.722 4.01617 -1.37492 0
M  V30 2559 C 260.629 4.66897 -3.6299 0
M  V30 2560 H 259.559 0.678661 -0.328534 0
M  V30 2561 H 262.21 1.23183 -1.36008 0
M  V30 2562 H 260.592 3.8331 -0.994446 0
M  V30 2563 H 261.766 2.79953 -3.66009 0
M  V30 2564 H 260.081 2.65361 -3.20893 0
M  V30 2565 H 262.678 5.04119 -1.78235 0
M  V30 2566 H 263.021 4.15072 -0.31957 0
M  V30 2567 H 263.554 3.50082 -1.88912 0
M  V30 2568 H 260.293 4.58643 -4.68323 0
M  V30 2569 H 259.813 5.15426 -3.06752 0
M  V30 2570 H 261.492 5.3587 -3.62563 0
M  V30 2571 N 261.624 0.925811 1.2754 0
M  V30 2572 C 262.849 0.580924 1.99098 0
M  V30 2573 C 263.274 -0.833555 1.68622 0
M  V30 2574 O 262.632 -1.55903 0.925422 0
M  V30 2575 C 262.68 0.811186 3.51358 0
M  V30 2576 O 261.784 -0.124129 4.12213 0
M  V30 2577 H 261.125 0.223873 0.625122 0
M  V30 2578 H 263.655 1.24455 1.62395 0
M  V30 2579 H 263.665 0.72601 4.01489 0
M  V30 2580 H 262.34 1.84227 3.72872 0
M  V30 2581 H 260.917 0.0108006 3.72898 0
M  V30 2582 N 263.102 -1.41638 0.69111 0
M  V30 2583 C 264.518 -1.55435 0.362224 0
M  V30 2584 C 264.718 -1.66754 -1.13117 0
M  V30 2585 O 263.774 -1.64348 -1.91692 0
M  V30 2586 C 265.087 -2.79588 1.10684 0
M  V30 2587 C 266.635 -2.9338 1.09075 0
M  V30 2588 C 267.11 -4.20414 1.81703 0
M  V30 2589 N 268.601 -4.27362 1.7865 0
M  V30 2590 C 269.336 -5.24507 2.31689 0
M  V30 2591 N 268.832 -6.27708 2.93179 0
M  V30 2592 N 270.625 -5.16416 2.2197 0
M  V30 2593 H 262.776 -1.32536 1.65976 0
M  V30 2594 H 265.039 -0.639115 0.700168 0
M  V30 2595 H 264.745 -2.77419 2.16175 0
M  V30 2596 H 264.619 -3.70973 0.682545 0
M  V30 2597 H 267.006 -2.95067 0.0441238 0
M  V30 2598 H 267.087 -2.0318 1.55407 0
M  V30 2599 H 266.731 -4.19488 2.86343 0
M  V30 2600 H 266.661 -5.09578 1.32808 0
M  V30 2601 H 269.152 -3.53415 1.33815 0
M  V30 2602 H 269.465 -6.98217 3.31229 0
M  V30 2603 H 267.81 -6.28223 2.97255 0
M  V30 2604 H 271.001 -4.34716 1.73607 0
M  V30 2605 H 271.174 -5.91958 2.63609 0
M  V30 2606 N 264.58 -0.43555 -1.51462 0
M  V30 2607 C 265.513 0.421989 -2.24264 0
M  V30 2608 C 266.491 1.02619 -1.26127 0
M  V30 2609 O 267.675 1.069 -1.55257 0
M  V30 2610 C 264.802 1.588 -2.99166 0
M  V30 2611 C 263.848 1.10465 -4.11946 0
M  V30 2612 S 264.681 0.048146 -5.35478 0
M  V30 2613 C 265.837 1.21887 -6.13917 0
M  V30 2614 H 266.07 -0.196102 -2.96653 0
M  V30 2615 H 263.603 -0.220054 -1.52824 0
M  V30 2616 H 265.561 2.25647 -3.42919 0
M  V30 2617 H 264.222 2.1775 -2.26371 0
M  V30 2618 H 263.415 1.97654 -4.63626 0
M  V30 2619 H 263.017 0.51445 -3.70445 0
M  V30 2620 H 265.309 2.13756 -6.42895 0
M  V30 2621 H 266.252 0.742076 -7.04201 0
M  V30 2622 H 266.66 1.45663 -5.45383 0
M  V30 2623 N 266.058 1.56714 -0.166846 0
M  V30 2624 C 266.988 2.20754 0.760913 0
M  V30 2625 C 267.969 1.16178 1.24244 0
M  V30 2626 O 269.154 1.44592 1.29641 0
M  V30 2627 C 266.284 2.84478 1.99223 0
M  V30 2628 C 265.238 3.95053 1.64672 0
M  V30 2629 C 264.564 4.45805 2.95232 0
M  V30 2630 C 265.864 5.14865 0.878155 0
M  V30 2631 H 267.558 2.98537 0.22713 0
M  V30 2632 H 265.104 1.43596 0.107805 0
M  V30 2633 H 267.057 3.27951 2.64624 0
M  V30 2634 H 265.781 2.04056 2.55007 0
M  V30 2635 H 264.44 3.52228 1.01641 0
M  V30 2636 H 264.088 3.62181 3.49047 0
M  V30 2637 H 263.788 5.204 2.7287 0
M  V30 2638 H 265.312 4.91962 3.6167 0
M  V30 2639 H 266.726 5.55059 1.43466 0
M  V30 2640 H 265.123 5.95348 0.753738 0
M  V30 2641 H 266.193 4.84735 -0.126377 0
M  V30 2642 N 267.536 -0.106894 1.57237 0
M  V30 2643 C 268.468 -1.15646 1.97885 0
M  V30 2644 C 269.481 -1.36981 0.879779 0
M  V30 2645 O 270.67 -1.35841 1.15799 0
M  V30 2646 C 267.77 -2.51425 2.27241 0
M  V30 2647 C 266.943 -2.50529 3.58545 0
M  V30 2648 C 266.002 -3.68145 3.75973 0
M  V30 2649 O 265.028 -3.51176 4.47956 0
M  V30 2650 N 266.23 -4.87177 3.15656 0
M  V30 2651 H 268.995 -0.81059 2.8853 0
M  V30 2652 H 266.556 -0.296024 1.59171 0
M  V30 2653 H 268.548 -3.28689 2.36105 0
M  V30 2654 H 267.118 -2.78147 1.42663 0
M  V30 2655 H 266.338 -1.58894 3.60758 0
M  V30 2656 H 267.626 -2.46997 4.44826 0
M  V30 2657 H 267.024 -5.03868 2.57165 0
M  V30 2658 H 265.581 -5.62075 3.30023 0
M  V30 2659 N 269.014 -1.53014 -0.377408 0
M  V30 2660 C 269.977 -1.77957 -1.44444 0
M  V30 2661 C 270.977 -0.649763 -1.47087 0
M  V30 2662 O 272.167 -0.917897 -1.48055 0
M  V30 2663 C 269.299 -1.89089 -2.83651 0
M  V30 2664 H 270.492 -2.73243 -1.23606 0
M  V30 2665 H 268.045 -1.43912 -0.609844 0
M  V30 2666 H 268.78 -0.958293 -3.09818 0
M  V30 2667 H 268.565 -2.71254 -2.83132 0
M  V30 2668 H 270.055 -2.1002 -3.60945 0
M  V30 2669 N 270.492 0.636531 -1.44174 0
M  V30 2670 C 271.455 1.73063 -1.50273 0
M  V30 2671 C 272.455 1.56113 -0.385397 0
M  V30 2672 O 273.645 1.61707 -0.64781 0
M  V30 2673 C 270.777 3.12096 -1.37145 0
M  V30 2674 H 271.97 1.69031 -2.47727 0
M  V30 2675 H 269.523 0.849706 -1.31186 0
M  V30 2676 H 270.258 3.21728 -0.407636 0
M  V30 2677 H 270.043 3.25805 -2.18159 0
M  V30 2678 H 271.533 3.91846 -1.44382 0
M  V30 2679 N 271.97 1.30982 0.876444 0
M  V30 2680 C 273.247 1.10942 1.61094 0
M  V30 2681 C 273.627 -0.338223 2.08373 0
M  V30 2682 O 272.975 -1.33122 1.85717 0
M  V30 2683 C 273.185 2.11789 2.77392 0
M  V30 2684 C 274.533 2.43965 3.47514 0
M  V30 2685 O 275.557 2.10166 2.87591 0
M  V30 2686 O 274.416 3.01817 4.55597 0
M  V30 2687 H 271.51 0.42667 0.708436 0
M  V30 2688 H 274.056 1.42438 0.922474 0
M  V30 2689 H 272.828 3.09194 2.39823 0
M  V30 2690 H 272.451 1.81161 3.5393 0
M  V30 2691 N 273.449 -1.08991 1.13837 0
M  V30 2692 C 274.674 -1.85551 0.926585 0
M  V30 2693 C 275.099 -1.80782 -0.519566 0
M  V30 2694 O 274.457 -1.18855 -1.36906 0
M  V30 2695 C 274.505 -3.31266 1.42462 0
M  V30 2696 O 273.609 -4.07822 0.612789 0
M  V30 2697 H 272.95 -0.575192 0.331738 0
M  V30 2698 H 275.48 -1.37604 1.51414 0
M  V30 2699 H 275.49 -3.82112 1.43019 0
M  V30 2700 H 274.165 -3.34052 2.47754 0
M  V30 2701 H 272.742 -3.66731 0.675463 0
M  V30 2702 N 274.927 -0.932562 -1.27047 0
M  V30 2703 C 275.857 -0.452902 -2.29066 0
M  V30 2704 C 276.838 0.489338 -1.62909 0
M  V30 2705 O 278.023 0.393046 -1.90181 0
M  V30 2706 C 275.153 0.290698 -3.46081 0
M  V30 2707 C 274.107 -0.564168 -4.24265 0
M  V30 2708 C 273.433 0.308886 -5.33807 0
M  V30 2709 C 274.733 -1.83112 -4.89149 0
M  V30 2710 H 276.427 -1.30552 -2.69437 0
M  V30 2711 H 273.973 -0.629201 -1.29526 0
M  V30 2712 H 275.926 0.637233 -4.16554 0
M  V30 2713 H 274.65 1.17738 -3.0464 0
M  V30 2714 H 273.309 -0.893477 -3.55545 0
M  V30 2715 H 272.957 1.19467 -4.88607 0
M  V30 2716 H 272.657 -0.259633 -5.87026 0
M  V30 2717 H 274.181 0.650884 -6.07121 0
M  V30 2718 H 275.595 -1.55236 -5.51883 0
M  V30 2719 H 273.992 -2.34353 -5.52448 0
M  V30 2720 H 275.062 -2.54772 -4.12576 0
M  V30 2721 N 276.405 1.4127 -0.698611 0
M  V30 2722 C 277.816 1.84187 -0.305289 0
M  V30 2723 C 278.167 1.58449 1.15708 0
M  V30 2724 O 277.292 1.05651 1.88856 0
M  V30 2725 C 277.887 3.3435 -0.547314 0
M  V30 2726 C 276.446 3.75826 -0.207878 0
M  V30 2727 C 275.593 2.64647 -0.828099 0
M  V30 2728 H 278.544 1.30778 -0.89904 0
M  V30 2729 H 278.565 3.8001 0.192998 0
M  V30 2730 H 278.077 3.53051 -1.61172 0
M  V30 2731 H 276.178 3.62725 0.852143 0
M  V30 2732 H 276.291 4.74462 -0.665021 0
M  V30 2733 H 274.655 2.53395 -0.257458 0
M  V30 2734 H 275.438 2.86165 -1.89643 0
M  V30 2735 N 277.883 0.443576 1.51229 0
M  V30 2736 C 279.129 -0.120975 2.02439 0
M  V30 2737 C 279.462 -1.41815 1.32674 0
M  V30 2738 O 278.737 -1.89373 0.443622 0
M  V30 2739 C 279.02 -0.333291 3.58554 0
M  V30 2740 C 278.873 0.982968 4.38928 0
M  V30 2741 C 280.192 -1.10028 4.26124 0
M  V30 2742 H 277.311 -0.0424923 0.735774 0
M  V30 2743 H 279.953 0.583794 1.80809 0
M  V30 2744 H 278.103 -0.933614 3.77115 0
M  V30 2745 H 279.775 1.61775 4.32003 0
M  V30 2746 H 278.018 1.58611 4.03763 0
M  V30 2747 H 278.689 0.788379 5.46341 0
M  V30 2748 H 281.165 -0.591711 4.11871 0
M  V30 2749 H 280.041 -1.21761 5.35225 0
M  V30 2750 H 280.302 -2.12996 3.87408 0
M  V30 2751 N 279.361 -1.56624 0.175154 0
M  V30 2752 C 280.309 -2.19468 -0.770495 0
M  V30 2753 C 281.303 -1.15985 -1.23466 0
M  V30 2754 O 282.509 -1.34176 -1.19987 0
M  V30 2755 H 278.884 -0.703095 -0.266761 0
M  V30 2756 H 280.855 -2.97613 -0.216542 0
M  V30 2757 C 279.604 -2.85264 -1.98796 0
M  V30 2758 H 278.927 -3.64623 -1.63983 0
M  V30 2759 H 280.367 -3.327 -2.62843 0
M  V30 2760 C 278.826 -1.85239 -2.81404 0
M  V30 2761 O 279.356 -1.34024 -3.78682 0
M  V30 2762 N 277.562 -1.53911 -2.46495 0
M  V30 2763 H 277.109 -1.95751 -1.67449 0
M  V30 2764 H 277.067 -0.872382 -3.02054 0
M  V30 2765 N 280.839 0.0985539 -1.57292 0
M  V30 2766 C 282.088 0.801358 -1.85098 0
M  V30 2767 C 282.401 1.80066 -0.763902 0
M  V30 2768 O 283.607 2.55112 -0.928981 0
M  V30 2769 C 282.063 1.47599 -3.28242 0
M  V30 2770 C 281.671 0.516624 -4.45011 0
M  V30 2771 C 283.415 2.16272 -3.65276 0
M  V30 2772 C 281.322 1.19564 -5.79188 0
M  V30 2773 H 280.252 0.303022 -0.69043 0
M  V30 2774 H 282.903 0.0542623 -1.8342 0
M  V30 2775 H 281.285 2.27042 -3.2445 0
M  V30 2776 H 282.459 -0.246065 -4.60143 0
M  V30 2777 H 280.774 -0.064227 -4.1635 0
M  V30 2778 H 283.371 2.67802 -4.62803 0
M  V30 2779 H 283.714 2.95009 -2.93727 0
M  V30 2780 H 284.247 1.43693 -3.70941 0
M  V30 2781 H 280.986 0.449157 -6.53959 0
M  V30 2782 H 280.506 1.92984 -5.67906 0
M  V30 2783 H 282.185 1.7231 -6.23633 0
M  V30 2784 N 282.317 1.53212 0.369288 0
M  V30 2785 C 283.565 1.68881 1.11012 0
M  V30 2786 C 283.886 0.441285 1.89941 0
M  V30 2787 O 283.156 -0.544623 1.88177 0
M  V30 2788 H 281.736 0.622569 0.412816 0
M  V30 2789 H 284.398 1.90391 0.416802 0
M  V30 2790 H 283.494 2.54822 1.80201 0
M  V30 2791 N 283.795 -0.628877 1.44509 0
M  V30 2792 C 284.725 -1.75187 1.54376 0
M  V30 2793 C 285.706 -1.65411 0.396618 0
M  V30 2794 O 286.891 -1.84137 0.617031 0
M  V30 2795 C 284.021 -3.13725 1.48976 0
M  V30 2796 C 282.975 -3.38291 2.62189 0
M  V30 2797 C 282.301 -4.76883 2.41841 0
M  V30 2798 C 283.601 -3.30632 4.04326 0
M  V30 2799 H 285.295 -1.67187 2.48373 0
M  V30 2800 H 282.841 -0.802909 1.19538 0
M  V30 2801 H 284.794 -3.92064 1.54478 0
M  V30 2802 H 283.518 -3.22515 0.514961 0
M  V30 2803 H 282.177 -2.62334 2.56079 0
M  V30 2804 H 281.825 -4.82378 1.42548 0
M  V30 2805 H 281.525 -4.94278 3.17747 0
M  V30 2806 H 283.049 -5.57449 2.49165 0
M  V30 2807 H 284.463 -3.98873 4.11793 0
M  V30 2808 H 282.86 -3.59561 4.80454 0
M  V30 2809 H 283.93 -2.28404 4.27738 0
M  V30 2810 N 285.273 -1.31445 -0.869486 0
M  V30 2811 C 286.203 -1.21727 -1.99261 0
M  V30 2812 C 287.184 -0.104359 -1.6978 0
M  V30 2813 O 288.369 -0.289038 -1.92037 0
M  V30 2814 C 285.499 -0.924317 -3.34774 0
M  V30 2815 C 284.453 -1.99685 -3.78563 0
M  V30 2816 C 283.779 -1.55658 -5.11541 0
M  V30 2817 C 285.079 -3.41003 -3.95619 0
M  V30 2818 H 286.773 -2.1569 -2.07649 0
M  V30 2819 H 284.319 -1.03839 -0.997675 0
M  V30 2820 H 286.272 -0.842934 -4.12883 0
M  V30 2821 H 284.996 0.0509793 -3.2656 0
M  V30 2822 H 283.655 -2.06813 -3.02694 0
M  V30 2823 H 283.303 -0.569132 -4.9977 0
M  V30 2824 H 283.003 -2.27409 -5.41811 0
M  V30 2825 H 284.527 -1.48928 -5.92159 0
M  V30 2826 H 285.941 -3.36547 -4.64122 0
M  V30 2827 H 284.338 -4.10975 -4.37286 0
M  V30 2828 H 285.408 -3.81754 -2.98985 0
M  V30 2829 N 286.751 1.08385 -1.14413 0
M  V30 2830 C 287.999 1.80419 -0.910679 0
M  V30 2831 C 288.32 1.86658 0.564243 0
M  V30 2832 O 287.59 1.35985 1.41014 0
M  V30 2833 H 286.17 0.668204 -0.333934 0
M  V30 2834 H 288.832 1.31037 -1.44275 0
M  V30 2835 H 287.928 2.83238 -1.31082 0
M  V30 2836 N 288.23 0.939286 1.26551 0
M  V30 2837 C 289.177 0.446088 2.26448 0
M  V30 2838 C 290.147 -0.493234 1.58608 0
M  V30 2839 O 291.332 -0.409857 1.86346 0
M  V30 2840 C 288.472 -0.284375 3.43926 0
M  V30 2841 C 287.585 0.690399 4.26448 0
M  V30 2842 C 286.72 -0.0610712 5.31165 0
M  V30 2843 C 285.759 0.905649 6.05363 0
M  V30 2844 N 284.896 0.186055 7.01853 0
M  V30 2845 H 289.736 1.30291 2.68008 0
M  V30 2846 H 287.273 0.65371 1.31776 0
M  V30 2847 H 289.231 -0.724313 4.10864 0
M  V30 2848 H 287.861 -1.10535 3.03285 0
M  V30 2849 H 286.913 1.24885 3.59316 0
M  V30 2850 H 288.225 1.42873 4.779 0
M  V30 2851 H 287.379 -0.56038 6.04106 0
M  V30 2852 H 286.118 -0.832297 4.80546 0
M  V30 2853 H 285.123 1.4161 5.3125 0
M  V30 2854 H 286.348 1.67685 6.58072 0
M  V30 2855 H 284.294 -0.566714 6.53548 0
M  V30 2856 H 284.211 0.863752 7.51049 0
M  V30 2857 H 285.479 -0.292221 7.78952 0
M  V30 2858 N 289.708 -1.40897 0.706093 0
M  V30 2859 C 290.956 -2.00657 0.241054 0
M  V30 2860 C 291.277 -1.56241 -1.16678 0
M  V30 2861 O 290.547 -0.79765 -1.78926 0
M  V30 2862 H 289.127 -0.742018 0.0861308 0
M  V30 2863 H 291.789 -1.72372 0.909604 0
M  V30 2864 H 290.885 -3.10958 0.266705 0
M  V30 2865 N 291.186 -0.45159 -1.50991 0
M  V30 2866 C 292.134 0.366864 -2.29689 0
M  V30 2867 C 293.128 1.00809 -1.36139 0
M  V30 2868 O 294.334 0.941427 -1.53418 0
M  V30 2869 H 290.709 0.137133 -0.739391 0
M  V30 2870 H 292.68 -0.317538 -2.96706 0
M  V30 2871 C 291.429 1.44751 -3.16137 0
M  V30 2872 H 290.752 0.963473 -3.88017 0
M  V30 2873 H 292.192 1.99315 -3.74232 0
M  V30 2874 C 290.651 2.43869 -2.32442 0
M  V30 2875 O 291.181 3.4872 -1.99392 0
M  V30 2876 N 289.387 2.15105 -1.95392 0
M  V30 2877 H 288.934 1.29866 -2.22469 0
M  V30 2878 H 288.892 2.81661 -1.39693 0
M  V30 2879 N 292.664 1.56529 -0.183458 0
M  V30 2880 C 293.91 1.97537 0.459036 0
M  V30 2881 C 294.243 1.06989 1.62071 0
M  V30 2882 O 293.518 0.11948 1.94133 0
M  V30 2883 C 293.801 3.47874 0.930368 0
M  V30 2884 C 293.654 4.492 -0.232317 0
M  V30 2885 C 294.973 4.01612 1.79989 0
M  V30 2886 H 292.092 0.718204 0.165383 0
M  V30 2887 H 294.734 1.88042 -0.272038 0
M  V30 2888 H 292.884 3.56095 1.55333 0
M  V30 2889 H 294.556 4.53027 -0.86972 0
M  V30 2890 H 292.799 4.24657 -0.885928 0
M  V30 2891 H 293.47 5.51823 0.139796 0
M  V30 2892 H 295.946 3.96097 1.27461 0
M  V30 2893 H 294.822 5.07195 2.09867 0
M  V30 2894 H 295.083 3.46163 2.74998 0
M  V30 2895 N 294.142 -0.090211 1.57342 0
M  V30 2896 C 295.367 -0.810082 1.90925 0
M  V30 2897 C 295.792 -1.71248 0.778187 0
M  V30 2898 O 295.15 -1.79278 -0.269991 0
M  V30 2899 C 295.198 -1.59529 3.23393 0
M  V30 2900 O 294.302 -2.70461 3.11327 0
M  V30 2901 H 293.643 -0.222231 0.625707 0
M  V30 2902 H 296.173 -0.0639716 2.045 0
M  V30 2903 H 296.183 -1.97847 3.5682 0
M  V30 2904 H 294.858 -0.933055 4.05299 0
M  V30 2905 H 293.435 -2.35135 2.89423 0
M  V30 2906 N 295.62 -1.53406 -0.361157 0
M  V30 2907 C 296.552 -1.76446 -1.46286 0
M  V30 2908 C 297.565 -0.645322 -1.49464 0
M  V30 2909 O 298.754 -0.921681 -1.52864 0
M  V30 2910 C 295.854 -1.83332 -2.85031 0
M  V30 2911 C 295.027 -3.13033 -3.05498 0
M  V30 2912 C 294.086 -3.11104 -4.24383 0
M  V30 2913 O 293.112 -3.84888 -4.19344 0
M  V30 2914 N 294.314 -2.32234 -5.32022 0
M  V30 2915 H 297.079 -2.71508 -1.26899 0
M  V30 2916 H 294.64 -1.52238 -0.550915 0
M  V30 2917 H 296.632 -1.79514 -3.62708 0
M  V30 2918 H 295.202 -0.955342 -2.97644 0
M  V30 2919 H 294.422 -3.30119 -2.15442 0
M  V30 2920 H 295.71 -3.9874 -3.16044 0
M  V30 2921 H 295.108 -1.71807 -5.38979 0
M  V30 2922 H 293.665 -2.3423 -6.08259 0
M  V30 2923 N 297.098 0.621204 -1.44841 0
M  V30 2924 C 298.509 1.20298 -1.42777 0
M  V30 2925 C 298.86 1.95639 -0.148259 0
M  V30 2926 O 297.985 2.02955 0.750892 0
M  V30 2927 C 298.58 2.1882 -2.58657 0
M  V30 2928 C 297.139 2.72403 -2.59756 0
M  V30 2929 C 296.286 1.4757 -2.34773 0
M  V30 2930 H 299.237 0.411297 -1.53278 0
M  V30 2931 H 299.258 3.01607 -2.31977 0
M  V30 2932 H 298.77 1.63957 -3.51766 0
M  V30 2933 H 296.871 3.31242 -1.70615 0
M  V30 2934 H 296.984 3.17765 -3.58556 0
M  V30 2935 H 295.348 1.76051 -1.8406 0
M  V30 2936 H 296.131 0.945954 -3.3001 0
M  V30 2937 N 298.576 1.31904 0.862503 0
M  V30 2938 C 299.853 1.12644 1.59908 0
M  V30 2939 C 300.233 -0.316104 2.0872 0
M  V30 2940 O 299.581 -1.31145 1.87118 0
M  V30 2941 C 299.791 2.1472 2.7513 0
M  V30 2942 C 301.139 2.47637 3.44907 0
M  V30 2943 O 302.163 2.13205 2.85346 0
M  V30 2944 O 301.022 3.06632 4.52371 0
M  V30 2945 H 298.116 0.43416 0.703871 0
M  V30 2946 H 300.662 1.43408 0.907314 0
M  V30 2947 H 299.434 3.1172 2.3653 0
M  V30 2948 H 299.057 1.84905 3.51989 0
M  V30 2949 N 300.054 -1.07777 1.14986 0
M  V30 2950 C 301.017 -2.13041 0.845358 0
M  V30 2951 C 302.017 -1.60071 -0.152931 0
M  V30 2952 O 303.207 -1.74033 0.0761879 0
M  V30 2953 C 300.339 -3.39896 0.261383 0
M  V30 2954 H 301.532 -2.41485 1.77834 0
M  V30 2955 H 299.085 -1.23595 0.956757 0
M  V30 2956 H 299.82 -3.17091 -0.68 0
M  V30 2957 H 299.605 -3.79642 0.980514 0
M  V30 2958 H 301.095 -4.17548 0.0657687 0
M  V30 2959 N 301.532 -0.945985 -1.26051 0
M  V30 2960 C 302.462 -0.477172 -2.28572 0
M  V30 2961 C 303.443 0.472032 -1.63419 0
M  V30 2962 O 304.628 0.372853 -1.90587 0
M  V30 2963 C 301.758 0.253975 -3.4637 0
M  V30 2964 C 300.712 -0.609135 -4.23643 0
M  V30 2965 C 300.038 0.252252 -5.34105 0
M  V30 2966 C 301.338 -1.8829 -4.8718 0
M  V30 2967 H 303.032 -1.33402 -2.68038 0
M  V30 2968 H 300.578 -0.642904 -1.28852 0
M  V30 2969 H 302.531 0.593016 -4.17207 0
M  V30 2970 H 301.255 1.145 -3.05871 0
M  V30 2971 H 299.914 -0.931138 -3.54578 0
M  V30 2972 H 299.562 1.14278 -4.89846 0
M  V30 2973 H 299.262 -0.32188 -5.86718 0
M  V30 2974 H 300.786 0.586454 -6.07777 0
M  V30 2975 H 302.2 -1.61081 -5.50205 0
M  V30 2976 H 300.597 -2.40199 -5.49931 0
M  V30 2977 H 301.667 -2.59134 -4.09851 0
M  V30 2978 N 303.011 1.40521 -0.713556 0
M  V30 2979 C 304.427 1.54839 -0.386907 0
M  V30 2980 C 304.627 1.68532 1.1045 0
M  V30 2981 O 303.683 1.67377 1.89053 0
M  V30 2982 C 304.996 2.77792 -1.15118 0
M  V30 2983 C 306.544 2.91607 -1.13729 0
M  V30 2984 C 307.019 4.1747 -1.88368 0
M  V30 2985 N 308.51 4.24466 -1.85427 0
M  V30 2986 C 309.245 5.20755 -2.40004 0
M  V30 2987 N 308.741 6.22965 -3.03129 0
M  V30 2988 N 310.534 5.1282 -2.30158 0
M  V30 2989 H 302.685 1.29879 -1.68063 0
M  V30 2990 H 304.948 0.627896 -0.710247 0
M  V30 2991 H 304.654 2.73944 -2.20561 0
M  V30 2992 H 304.528 3.6984 -0.741477 0
M  V30 2993 H 306.915 2.94959 -0.0910608 0
M  V30 2994 H 306.996 2.00682 -1.5862 0
M  V30 2995 H 306.64 4.1488 -2.9298 0
M  V30 2996 H 306.57 5.074 -1.40898 0
M  V30 2997 H 309.061 3.51241 -1.3942 0
M  V30 2998 H 309.374 6.92859 -3.42295 0
M  V30 2999 H 307.719 6.23415 -3.07212 0
M  V30 3000 H 310.91 4.31899 -1.80501 0
M  V30 3001 H 311.083 5.87689 -2.72993 0
M  V30 3002 N 304.489 0.459591 1.5075 0
M  V30 3003 C 305.399 -0.34613 2.32033 0
M  V30 3004 C 306.415 -1.00686 1.41909 0
M  V30 3005 O 307.591 -0.997361 1.7497 0
M  V30 3006 C 304.656 -1.42029 3.16273 0
M  V30 3007 C 303.717 -0.777362 4.22203 0
M  V30 3008 C 302.95 -1.80034 5.02418 0
M  V30 3009 O 303.173 -3.02544 4.83553 0
M  V30 3010 O 302.107 -1.37853 5.85901 0
M  V30 3011 H 305.933 0.318054 3.0203 0
M  V30 3012 H 303.518 0.221663 1.47746 0
M  V30 3013 H 305.4 -2.04275 3.68578 0
M  V30 3014 H 304.075 -2.06815 2.49016 0
M  V30 3015 H 302.982 -0.116256 3.73919 0
M  V30 3016 H 304.315 -0.172634 4.91897 0
M  V30 3017 N 305.967 -1.56429 0.191757 0
M  V30 3018 C 306.899 -2.16154 -0.762245 0
M  V30 3019 C 307.912 -1.12247 -1.17917 0
M  V30 3020 O 309.101 -1.39353 -1.11548 0
M  V30 3021 C 306.201 -2.70606 -2.04024 0
M  V30 3022 C 305.374 -3.99381 -1.78364 0
M  V30 3023 C 304.433 -4.38692 -2.90578 0
M  V30 3024 O 303.459 -5.06179 -2.6033 0
M  V30 3025 N 304.661 -4.01922 -4.18854 0
M  V30 3026 H 307.426 -2.98643 -0.251526 0
M  V30 3027 H 304.987 -1.61897 0.00967373 0
M  V30 3028 H 306.979 -2.93891 -2.78227 0
M  V30 3029 H 305.549 -1.9259 -2.46227 0
M  V30 3030 H 304.769 -3.84262 -0.879581 0
M  V30 3031 H 306.057 -4.83445 -1.58614 0
M  V30 3032 H 305.455 -3.47631 -4.46283 0
M  V30 3033 H 304.012 -4.30165 -4.89695 0
M  V30 3034 N 307.445 0.0818655 -1.57387 0
M  V30 3035 C 308.691 0.784074 -1.8703 0
M  V30 3036 C 309.024 1.77729 -0.782689 0
M  V30 3037 O 308.299 1.93384 0.208051 0
M  V30 3038 C 308.582 1.50105 -3.27323 0
M  V30 3039 C 308.435 0.524925 -4.46727 0
M  V30 3040 C 309.754 2.44843 -3.65705 0
M  V30 3041 H 306.873 0.283582 -0.680257 0
M  V30 3042 H 309.515 0.0474352 -1.89941 0
M  V30 3043 H 307.665 2.12897 -3.24972 0
M  V30 3044 H 309.337 -0.0970111 -4.61198 0
M  V30 3045 H 307.58 -0.160606 -4.33503 0
M  V30 3046 H 308.251 1.064 -5.41648 0
M  V30 3047 H 310.727 1.92135 -3.69085 0
M  V30 3048 H 309.603 2.92018 -4.64776 0
M  V30 3049 H 309.864 3.29197 -2.95096 0
M  V30 3050 N 308.923 1.53595 0.353017 0
M  V30 3051 C 309.886 1.80232 1.41594 0
M  V30 3052 C 310.886 0.673081 1.46035 0
M  V30 3053 O 312.076 0.941335 1.46576 0
M  V30 3054 C 309.208 1.93578 2.80607 0
M  V30 3055 H 310.401 2.75174 1.19244 0
M  V30 3056 H 307.954 1.44864 0.586872 0
M  V30 3057 H 308.689 1.00746 3.08254 0
M  V30 3058 H 308.474 2.75724 2.78781 0
M  V30 3059 H 309.964 2.15735 3.57558 0
M  V30 3060 N 310.401 -0.613514 1.45168 0
M  V30 3061 C 311.364 -1.7065 1.53007 0
M  V30 3062 C 312.364 -1.5548 0.410184 0
M  V30 3063 O 313.554 -1.60656 0.673455 0
M  V30 3064 C 310.686 -3.09875 1.42093 0
M  V30 3065 H 311.879 -1.65068 2.50385 0
M  V30 3066 H 309.432 -0.828728 1.32521 0
M  V30 3067 H 310.167 -3.21039 0.458769 0
M  V30 3068 H 309.952 -3.22293 2.23315 0
M  V30 3069 H 311.442 -3.895 1.50598 0
M  V30 3070 N 311.879 -1.3236 -0.855495 0
M  V30 3071 C 313.127 -1.22629 -1.60644 0
M  V30 3072 C 313.448 0.212136 -1.93843 0
M  V30 3073 O 312.718 1.13666 -1.59552 0
M  V30 3074 H 311.298 -0.450882 -0.595579 0
M  V30 3075 H 313.96 -1.65871 -1.02337 0
M  V30 3076 H 313.056 -1.80832 -2.54374 0
M  V30 3077 N 313.357 1.07166 -1.15556 0
M  V30 3078 C 314.603 1.80065 -0.932984 0
M  V30 3079 C 314.936 1.86586 0.53845 0
M  V30 3080 O 314.211 1.35098 1.39924 0
M  V30 3081 C 314.494 3.25022 -1.55025 0
M  V30 3082 C 314.347 3.26634 -3.09242 0
M  V30 3083 C 315.666 4.22341 -1.2376 0
M  V30 3084 H 312.785 0.653697 -0.340366 0
M  V30 3085 H 315.427 1.25389 -1.4275 0
M  V30 3086 H 313.577 3.71712 -1.12972 0
M  V30 3087 H 315.249 2.88173 -3.60214 0
M  V30 3088 H 313.492 2.65539 -3.43033 0
M  V30 3089 H 314.163 4.28854 -3.47546 0
M  V30 3090 H 316.639 3.8405 -1.60139 0
M  V30 3091 H 315.515 5.22053 -1.69564 0
M  V30 3092 H 315.776 4.41828 -0.154938 0
M  V30 3093 N 314.835 0.952656 1.25548 0
M  V30 3094 C 316.084 0.602053 1.92505 0
M  V30 3095 C 316.397 -0.864663 1.75451 0
M  V30 3096 O 317.603 -1.32514 2.36965 0
M  V30 3097 C 316.059 1.02607 3.44963 0
M  V30 3098 C 315.667 2.51519 3.70732 0
M  V30 3099 C 317.411 0.747905 4.1786 0
M  V30 3100 C 315.318 2.87732 5.16686 0
M  V30 3101 H 314.248 0.22146 0.720744 0
M  V30 3102 H 316.899 1.15684 1.42441 0
M  V30 3103 H 315.281 0.399712 3.93978 0
M  V30 3104 H 316.455 3.19157 3.32378 0
M  V30 3105 H 314.77 2.76786 3.11092 0
M  V30 3106 H 317.367 0.994647 5.25367 0
M  V30 3107 H 317.71 -0.315629 4.15102 0
M  V30 3108 H 318.243 1.33452 3.74747 0
M  V30 3109 H 314.982 3.93095 5.24554 0
M  V30 3110 H 314.502 2.24765 5.56094 0
M  V30 3111 H 316.181 2.76817 5.84792 0
M  V30 3112 N 316.313 -1.40141 0.720998 0
M  V30 3113 C 317.561 -2.0039 0.262323 0
M  V30 3114 C 317.882 -1.57469 -1.15015 0
M  V30 3115 O 317.152 -0.816582 -1.78069 0
M  V30 3116 H 315.732 -0.741063 0.093996 0
M  V30 3117 H 318.394 -1.71398 0.927835 0
M  V30 3118 H 317.49 -3.10658 0.299671 0
M  V30 3119 N 317.792 -0.46758 -1.50504 0
M  V30 3120 C 318.722 0.318381 -2.31319 0
M  V30 3121 C 319.703 0.993564 -1.38066 0
M  V30 3122 O 320.888 0.991411 -1.66987 0
M  V30 3123 C 318.018 1.40275 -3.17711 0
M  V30 3124 C 316.972 0.849373 -4.19487 0
M  V30 3125 C 316.298 2.03177 -4.94594 0
M  V30 3126 C 317.598 -0.136942 -5.2212 0
M  V30 3127 H 319.292 -0.356106 -2.97275 0
M  V30 3128 H 316.838 -0.172703 -1.42961 0
M  V30 3129 H 318.791 1.96004 -3.73042 0
M  V30 3130 H 317.515 2.10596 -2.49634 0
M  V30 3131 H 316.174 0.314076 -3.65252 0
M  V30 3132 H 315.822 2.72187 -4.22993 0
M  V30 3133 H 315.522 1.66774 -5.63436 0
M  V30 3134 H 317.046 2.59403 -5.52759 0
M  V30 3135 H 318.46 0.331056 -5.72343 0
M  V30 3136 H 316.857 -0.41507 -5.98663 0
M  V30 3137 H 317.927 -1.06398 -4.73083 0
M  V30 3138 N 319.27 1.56325 -0.20005 0
M  V30 3139 C 320.217 2.1932 0.718833 0
M  V30 3140 C 321.187 1.14198 1.20615 0
M  V30 3141 O 322.372 1.42469 1.26914 0
M  V30 3142 C 319.512 2.86041 1.93066 0
M  V30 3143 C 318.625 4.05702 1.48425 0
M  V30 3144 C 317.76 4.60266 2.65196 0
M  V30 3145 C 316.799 5.72273 2.17185 0
M  V30 3146 N 315.936 6.21221 3.27152 0
M  V30 3147 H 320.776 2.97486 0.17489 0
M  V30 3148 H 318.313 1.46911 0.0745794 0
M  V30 3149 H 320.271 3.22897 2.64184 0
M  V30 3150 H 318.901 2.1043 2.44783 0
M  V30 3151 H 317.953 3.74475 0.668755 0
M  V30 3152 H 319.265 4.86699 1.09204 0
M  V30 3153 H 318.419 4.99453 3.4443 0
M  V30 3154 H 317.158 3.78386 3.07693 0
M  V30 3155 H 316.163 5.3261 1.36407 0
M  V30 3156 H 317.388 6.55974 1.75713 0
M  V30 3157 H 315.334 5.42263 3.69171 0
M  V30 3158 H 315.251 6.97284 2.92116 0
M  V30 3159 H 316.519 6.65063 4.06585 0
M  V30 3160 N 320.748 -0.0735177 1.57428 0
M  V30 3161 C 321.997 -0.771809 1.86349 0
M  V30 3162 C 322.31 -1.78828 0.792452 0
M  V30 3163 O 323.516 -2.53602 0.96945 0
M  V30 3164 C 321.972 -1.42358 3.30548 0
M  V30 3165 C 321.58 -0.445761 4.45777 0
M  V30 3166 C 323.324 -2.10434 3.6867 0
M  V30 3167 C 321.231 -1.10335 5.81016 0
M  V30 3168 H 320.161 -0.291999 0.695164 0
M  V30 3169 H 322.812 -0.0250749 1.83483 0
M  V30 3170 H 321.194 -2.21852 3.28021 0
M  V30 3171 H 322.368 0.319239 4.59693 0
M  V30 3172 H 320.683 0.130457 4.16196 0
M  V30 3173 H 323.28 -2.60405 4.67004 0
M  V30 3174 H 323.623 -2.90298 2.98383 0
M  V30 3175 H 324.156 -1.37773 3.7318 0
M  V30 3176 H 320.895 -0.345061 6.54591 0
M  V30 3177 H 320.415 -1.83925 5.70904 0
M  V30 3178 H 322.094 -1.62367 6.26295 0
M  V30 3179 N 322.226 -1.5378 -0.344866 0
M  V30 3180 C 323.176 -1.78057 -1.42407 0
M  V30 3181 C 324.16 -0.635732 -1.47808 0
M  V30 3182 O 325.352 -0.89508 -1.527 0
M  V30 3183 C 322.481 -1.99242 -2.79566 0
M  V30 3184 C 321.567 -3.19787 -2.78562 0
M  V30 3185 N 321.958 -4.41284 -2.47189 0
M  V30 3186 C 320.256 -3.2093 -3.0971 0
M  V30 3187 C 320.957 -5.23128 -2.54385 0
M  V30 3188 N 319.933 -4.59813 -2.89953 0
M  V30 3189 H 323.735 -2.69588 -1.17046 0
M  V30 3190 H 321.249 -1.52687 -0.553217 0
M  V30 3191 H 323.246 -2.14768 -3.57324 0
M  V30 3192 H 321.906 -1.08953 -3.05875 0
M  V30 3193 H 322.917 -4.68657 -2.20411 0
M  V30 3194 H 319.594 -2.40603 -3.41199 0
M  V30 3195 H 320.984 -6.30096 -2.333 0
M  V30 3196 N 323.704 0.605807 -1.45491 0
M  V30 3197 C 324.614 1.74466 -1.56839 0
M  V30 3198 C 325.63 1.68006 -0.452772 0
M  V30 3199 O 326.806 1.8833 -0.713708 0
M  V30 3200 C 323.871 3.10931 -1.53371 0
M  V30 3201 C 322.932 3.28832 -2.75986 0
M  V30 3202 C 322.165 4.58787 -2.72673 0
M  V30 3203 O 322.388 5.4122 -1.80102 0
M  V30 3204 O 321.322 4.79438 -3.63899 0
M  V30 3205 H 325.148 1.67843 -2.53106 0
M  V30 3206 H 322.733 0.770108 -1.28022 0
M  V30 3207 H 324.615 3.92233 -1.54051 0
M  V30 3208 H 323.29 3.18042 -0.602572 0
M  V30 3209 H 322.197 2.47112 -2.80867 0
M  V30 3210 H 323.53 3.26599 -3.68231 0
M  V30 3211 N 325.182 1.32811 0.848464 0
M  V30 3212 C 326.459 1.14334 1.58704 0
M  V30 3213 C 326.839 -0.293948 2.09043 0
M  V30 3214 O 326.187 -1.29153 1.88499 0
M  V30 3215 C 326.397 2.17626 2.72837 0
M  V30 3216 C 327.745 2.51282 3.42261 0
M  V30 3217 O 328.769 2.16219 2.83068 0
M  V30 3218 O 327.628 3.11413 4.49093 0
M  V30 3219 H 324.722 0.441601 0.699226 0
M  V30 3220 H 327.268 1.44362 0.892053 0
M  V30 3221 H 326.04 3.14211 2.3321 0
M  V30 3222 H 325.663 1.88628 3.50008 0
M  V30 3223 N 326.66 -1.06551 1.16123 0
M  V30 3224 C 327.906 -1.79719 0.952505 0
M  V30 3225 C 328.261 -1.85396 -0.514385 0
M  V30 3226 O 327.554 -1.33263 -1.37665 0
M  V30 3227 C 327.748 -3.23911 1.51052 0
M  V30 3228 C 327.577 -3.32284 3.03013 0
M  V30 3229 C 326.347 -3.42371 3.71632 0
M  V30 3230 C 328.545 -3.22363 4.00732 0
M  V30 3231 N 326.527 -3.39732 5.11327 0
M  V30 3232 C 327.898 -3.26937 5.26794 0
M  V30 3233 C 329.953 -3.0623 3.92591 0
M  V30 3234 C 328.656 -3.17035 6.45663 0
M  V30 3235 C 330.682 -2.97665 5.11028 0
M  V30 3236 C 330.044 -3.02858 6.35969 0
M  V30 3237 H 326.143 -0.670585 0.402293 0
M  V30 3238 H 328.727 -1.27125 1.4747 0
M  V30 3239 H 326.898 -3.74907 1.01484 0
M  V30 3240 H 328.63 -3.85242 1.2398 0
M  V30 3241 H 325.385 -3.47058 3.22254 0
M  V30 3242 H 325.809 -3.41919 5.84312 0
M  V30 3243 H 330.451 -3.01063 2.96852 0
M  V30 3244 H 328.169 -3.2096 7.41627 0
M  V30 3245 H 331.755 -2.86273 5.06497 0
M  V30 3246 H 330.635 -2.96286 7.26075 0
M  V30 3247 N 328.138 -0.959301 -1.25041 0
M  V30 3248 C 329.386 -0.615393 -1.92503 0
M  V30 3249 C 329.707 0.850969 -1.75452 0
M  V30 3250 O 328.977 1.60658 -1.12098 0
M  V30 3251 H 327.557 -0.224613 -0.712431 0
M  V30 3252 H 330.219 -1.21855 -1.5211 0
M  V30 3253 H 329.315 -0.848738 -3.00338 0
M  V30 3254 N 329.616 1.39756 -0.72842 0
M  V30 3255 C 330.579 2.29012 -0.0927297 0
M  V30 3256 C 331.579 1.45992 0.674025 0
M  V30 3257 O 332.769 1.66749 0.50402 0
M  V30 3258 C 329.901 3.29396 0.878137 0
M  V30 3259 H 331.094 2.86729 -0.879011 0
M  V30 3260 H 328.647 1.48293 -0.493847 0
M  V30 3261 H 329.382 2.76722 1.69101 0
M  V30 3262 H 329.167 3.907 0.331051 0
M  V30 3263 H 330.657 3.96199 1.3197 0
M  V30 3264 N 331.094 0.475555 1.50254 0
M  V30 3265 C 332.322 -0.0754493 2.06762 0
M  V30 3266 C 332.737 -1.33111 1.33891 0
M  V30 3267 O 332.094 -1.77846 0.40952 0
M  V30 3268 C 332.145 -0.359008 3.59713 0
M  V30 3269 O 331.866 0.846851 4.29837 0
M  V30 3270 C 333.367 -0.956484 4.32858 0
M  V30 3271 H 330.587 0.00907525 0.670939 0
M  V30 3272 H 333.131 0.665618 1.93364 0
M  V30 3273 H 331.286 -1.05001 3.72899 0
M  V30 3274 H 331.7 0.594162 5.21124 0
M  V30 3275 H 333.174 -1.10463 5.40834 0
M  V30 3276 H 333.651 -1.94775 3.93649 0
M  V30 3277 H 334.257 -0.303723 4.24214 0
M  V30 3278 N 332.573 -1.56217 0.208337 0
M  V30 3279 C 333.984 -1.84243 -0.301904 0
M  V30 3280 C 334.335 -1.12939 -1.60434 0
M  V30 3281 O 333.46 -0.39461 -2.12772 0
M  V30 3282 C 334.055 -3.34231 -0.554543 0
M  V30 3283 C 332.614 -3.62621 -1.00912 0
M  V30 3284 C 331.761 -2.77224 -0.064933 0
M  V30 3285 H 334.712 -1.52712 0.431833 0
M  V30 3286 H 334.733 -3.5372 -1.40223 0
M  V30 3287 H 334.245 -3.86099 0.393561 0
M  V30 3288 H 332.346 -3.16197 -1.97104 0
M  V30 3289 H 332.459 -4.7071 -0.892674 0
M  V30 3290 H 330.823 -2.48256 -0.56929 0
M  V30 3291 H 331.606 -3.31887 0.877851 0
M  V30 3292 N 334.051 0.0651679 -1.57465 0
M  V30 3293 C 335.014 1.06117 -2.03155 0
M  V30 3294 C 336.014 1.31204 -0.929632 0
M  V30 3295 O 337.204 1.26813 -1.19432 0
M  V30 3296 C 334.336 2.4032 -2.41783 0
M  V30 3297 H 335.529 0.667231 -2.92383 0
M  V30 3298 H 333.082 0.311075 -1.53173 0
M  V30 3299 H 333.817 2.84532 -1.55601 0
M  V30 3300 H 333.602 2.23451 -3.22199 0
M  V30 3301 H 335.092 3.11898 -2.77685 0
M  V30 3302 N 335.529 1.53961 0.336706 0
M  V30 3303 C 336.492 1.81724 1.39675 0
M  V30 3304 C 337.492 0.688532 1.45313 0
M  V30 3305 O 338.682 0.956829 1.45569 0
M  V30 3306 C 335.814 1.96543 2.78538 0
M  V30 3307 H 337.007 2.76424 1.16318 0
M  V30 3308 H 334.56 1.45478 0.571474 0
M  V30 3309 H 335.295 1.0401 3.07168 0
M  V30 3310 H 335.08 2.78665 2.75841 0
M  V30 3311 H 336.57 2.19516 3.5525 0
M  V30 3312 N 337.007 -0.598083 1.45811 0
M  V30 3313 C 338.256 -1.35295 1.49594 0
M  V30 3314 C 338.569 -1.95057 0.145679 0
M  V30 3315 O 339.775 -2.71431 0.0612099 0
M  V30 3316 C 338.231 -2.45124 2.63519 0
M  V30 3317 C 337.839 -1.91732 4.04899 0
M  V30 3318 C 339.583 -3.2205 2.76558 0
M  V30 3319 C 337.49 -2.991 5.1019 0
M  V30 3320 H 336.42 -0.508552 0.556679 0
M  V30 3321 H 339.071 -0.639977 1.71978 0
M  V30 3322 H 337.453 -3.19149 2.34435 0
M  V30 3323 H 338.627 -1.24352 4.43704 0
M  V30 3324 H 336.942 -1.27522 3.96393 0
M  V30 3325 H 339.539 -4.0215 3.52391 0
M  V30 3326 H 339.882 -3.73663 1.83526 0
M  V30 3327 H 340.415 -2.55127 3.05213 0
M  V30 3328 H 337.154 -2.52393 6.04961 0
M  V30 3329 H 336.674 -3.65017 4.75944 0
M  V30 3330 H 338.353 -3.63318 5.35359 0
M  V30 3331 N 338.485 -1.33259 -0.841409 0
M  V30 3332 C 339.762 -1.15174 -1.58096 0
M  V30 3333 C 340.142 0.282858 -2.09196 0
M  V30 3334 O 339.49 1.28151 -1.89181 0
M  V30 3335 C 339.7 -2.1907 -2.71679 0
M  V30 3336 C 341.048 -2.53093 -3.40924 0
M  V30 3337 O 342.072 -2.17717 -2.81918 0
M  V30 3338 O 340.931 -3.1379 -4.47435 0
M  V30 3339 H 338.025 -0.445303 -0.696875 0
M  V30 3340 H 340.571 -1.44833 -0.884385 0
M  V30 3341 H 339.343 -3.15443 -2.31541 0
M  V30 3342 H 338.966 -1.90481 -3.49002 0
M  V30 3343 N 339.963 1.05934 -1.16686 0
M  V30 3344 C 341.203 1.80382 -0.961345 0
M  V30 3345 C 341.567 1.85331 0.501643 0
M  V30 3346 O 342.768 2.55795 0.825986 0
M  V30 3347 C 341.039 3.20777 -1.57596 0
M  V30 3348 S 342.598 4.11795 -1.51559 0
M  V30 3349 H 339.416 0.621332 -0.345641 0
M  V30 3350 H 342.018 1.27157 -1.48497 0
M  V30 3351 H 340.722 3.14773 -2.63337 0
M  V30 3352 H 340.253 3.79078 -1.05182 0
M  V30 3353 H 342.268 4.93485 -0.518374 0
M  V30 3354 N 341.441 0.965919 1.2453 0
M  V30 3355 C 342.404 0.499547 2.2369 0
M  V30 3356 C 343.404 -0.40294 1.5567 0
M  V30 3357 O 344.594 -0.19865 1.73064 0
M  V30 3358 C 341.726 -0.276792 3.39774 0
M  V30 3359 H 342.919 1.37613 2.66463 0
M  V30 3360 H 340.472 0.750324 1.37112 0
M  V30 3361 H 341.207 -1.17055 3.02438 0
M  V30 3362 H 340.992 0.370826 3.90343 0
M  V30 3363 H 342.482 -0.592175 4.1338 0
M  V30 3364 N 342.919 -1.39368 0.735821 0
M  V30 3365 C 343.849 -2.33234 0.111506 0
M  V30 3366 C 344.83 -1.53954 -0.723334 0
M  V30 3367 O 346.015 -1.82344 -0.668147 0
M  V30 3368 C 343.145 -3.38057 -0.795917 0
M  V30 3369 C 342.099 -4.2795 -0.065172 0
M  V30 3370 C 341.425 -5.23479 -1.08967 0
M  V30 3371 C 342.725 -5.10741 1.09273 0
M  V30 3372 H 344.419 -2.85692 0.895571 0
M  V30 3373 H 341.965 -1.37364 0.432109 0
M  V30 3374 H 343.918 -4.02675 -1.24221 0
M  V30 3375 H 342.642 -2.8404 -1.61211 0
M  V30 3376 H 341.301 -3.64813 0.361511 0
M  V30 3377 H 340.949 -4.65758 -1.89944 0
M  V30 3378 H 340.649 -5.84472 -0.605489 0
M  V30 3379 H 342.173 -5.90974 -1.53565 0
M  V30 3380 H 343.587 -5.68699 0.724841 0
M  V30 3381 H 341.984 -5.8088 1.50659 0
M  V30 3382 H 343.054 -4.45525 1.91404 0
M  V30 3383 N 344.397 -0.483516 -1.5 0
M  V30 3384 C 345.625 0.0644831 -2.06799 0
M  V30 3385 C 346.04 1.32399 -1.34596 0
M  V30 3386 O 345.397 1.77626 -0.418946 0
M  V30 3387 C 345.448 0.339927 -3.59898 0
M  V30 3388 O 345.169 -0.869635 -4.29382 0
M  V30 3389 C 346.67 0.933515 -4.33359 0
M  V30 3390 H 343.89 -0.0126333 -0.670881 0
M  V30 3391 H 346.434 -0.675864 -1.93009 0
M  V30 3392 H 344.589 1.03022 -3.7345 0
M  V30 3393 H 345.003 -0.62179 -5.20801 0
M  V30 3394 H 346.477 1.07593 -5.41413 0
M  V30 3395 H 346.954 1.92685 -3.94676 0
M  V30 3396 H 347.56 0.281221 -4.24369 0
M  V30 3397 N 345.875 1.56104 -0.216619 0
M  V30 3398 C 347.121 1.98466 0.417033 0
M  V30 3399 C 347.454 1.10403 1.59765 0
M  V30 3400 O 346.729 0.160632 1.93836 0
M  V30 3401 C 347.012 3.49769 0.85637 0
M  V30 3402 C 346.865 4.48606 -0.327546 0
M  V30 3403 C 348.184 4.05339 1.7143 0
M  V30 3404 H 345.303 0.721551 0.150112 0
M  V30 3405 H 347.945 1.87423 -0.311864 0
M  V30 3406 H 346.095 3.5931 1.47745 0
M  V30 3407 H 347.767 4.5108 -0.965618 0
M  V30 3408 H 346.01 4.22682 -0.975805 0
M  V30 3409 H 346.681 5.51995 0.0227149 0
M  V30 3410 H 349.157 3.98712 1.19031 0
M  V30 3411 H 348.033 5.11533 1.99061 0
M  V30 3412 H 348.294 3.51918 2.67593 0
M  V30 3413 N 347.353 -0.0568162 1.57498 0
M  V30 3414 C 348.316 -1.05038 2.03715 0
M  V30 3415 C 349.316 -1.30709 0.936577 0
M  V30 3416 O 350.506 -1.26178 1.20103 0
M  V30 3417 C 347.638 -2.39034 2.43055 0
M  V30 3418 H 348.831 -0.651715 2.92733 0
M  V30 3419 H 346.384 -0.302947 1.53336 0
M  V30 3420 H 347.119 -2.83703 1.57108 0
M  V30 3421 H 346.904 -2.21739 3.2338 0
M  V30 3422 H 348.394 -3.10421 2.79336 0
M  V30 3423 N 348.832 -1.54138 -0.328536 0
M  V30 3424 C 350.109 -1.62749 -1.08499 0
M  V30 3425 C 350.489 -0.458198 -2.06067 0
M  V30 3426 O 349.837 0.548046 -2.2183 0
M  V30 3427 C 350.047 -2.99519 -1.79135 0
M  V30 3428 C 351.395 -3.55394 -2.32337 0
M  V30 3429 O 352.419 -3.01792 -1.89209 0
M  V30 3430 O 351.278 -4.49186 -3.11279 0
M  V30 3431 H 348.372 -0.65886 -0.499832 0
M  V30 3432 H 350.918 -1.66484 -0.328826 0
M  V30 3433 H 349.69 -3.76061 -1.08139 0
M  V30 3434 H 349.313 -2.99441 -2.61574 0
M  V30 3435 N 350.31 0.590341 -1.46126 0
M  V30 3436 C 351.22 1.72793 -1.58681 0
M  V30 3437 C 352.236 1.67516 -0.470566 0
M  V30 3438 O 353.412 1.87562 -0.733642 0
M  V30 3439 C 350.477 3.09287 -1.5666 0
M  V30 3440 C 349.538 3.25886 -2.79458 0
M  V30 3441 C 348.771 4.55869 -2.77524 0
M  V30 3442 O 348.994 5.3928 -1.85832 0
M  V30 3443 O 347.928 4.75552 -3.68964 0
M  V30 3444 H 351.754 1.65149 -2.54872 0
M  V30 3445 H 349.339 0.756486 -1.28832 0
M  V30 3446 H 351.221 3.90577 -1.58202 0
M  V30 3447 H 349.896 3.17385 -0.636271 0
M  V30 3448 H 348.803 2.44119 -2.83472 0
M  V30 3449 H 350.136 3.22675 -3.71674 0
M  V30 3450 N 351.788 1.33704 0.83433 0
M  V30 3451 C 352.721 1.18675 1.94914 0
M  V30 3452 C 353.699 0.0811145 1.62398 0
M  V30 3453 O 354.883 0.244186 1.86912 0
M  V30 3454 C 352.01 0.821231 3.28593 0
M  V30 3455 C 351.056 1.93501 3.80079 0
M  V30 3456 S 351.889 3.54671 4.01209 0
M  V30 3457 C 353.045 3.20136 5.37833 0
M  V30 3458 H 353.278 2.13043 2.07364 0
M  V30 3459 H 350.811 1.18598 0.988624 0
M  V30 3460 H 352.769 0.617123 4.05835 0
M  V30 3461 H 351.43 -0.103927 3.13928 0
M  V30 3462 H 350.623 1.63273 4.76821 0
M  V30 3463 H 350.225 2.09601 3.09747 0
M  V30 3464 H 352.517 2.71242 6.20833 0
M  V30 3465 H 353.46 4.15975 5.73036 0
M  V30 3466 H 353.868 2.56613 5.02802 0
M  V30 3467 N 353.266 -1.05314 1.17247 0
M  V30 3468 C 354.543 -1.75184 0.87005 0
M  V30 3469 C 354.923 -2.01481 -0.629965 0
M  V30 3470 O 354.271 -1.64988 -1.58086 0
M  V30 3471 C 354.481 -3.04594 1.70363 0
M  V30 3472 C 355.829 -3.78567 1.92281 0
M  V30 3473 O 356.853 -3.14461 1.67311 0
M  V30 3474 O 355.712 -4.93755 2.3424 0
M  V30 3475 H 352.806 -0.761729 0.322021 0
M  V30 3476 H 355.352 -1.11493 1.27935 0
M  V30 3477 H 354.124 -2.81201 2.72106 0
M  V30 3478 H 353.747 -3.76022 1.29202 0
M  V30 3479 N 354.744 -0.972509 -1.24016 0
M  V30 3480 C 355.993 -0.632603 -1.91523 0
M  V30 3481 C 356.306 0.836641 -1.76804 0
M  V30 3482 O 357.512 1.28728 -2.39043 0
M  V30 3483 C 355.968 -1.08082 -3.43287 0
M  V30 3484 C 355.576 -2.57386 -3.66683 0
M  V30 3485 C 357.32 -0.814288 -4.16617 0
M  V30 3486 C 355.227 -2.95915 -5.12043 0
M  V30 3487 H 354.157 -0.232898 -0.717129 0
M  V30 3488 H 356.808 -1.17936 -1.40582 0
M  V30 3489 H 355.19 -0.462339 -3.93292 0
M  V30 3490 H 356.364 -3.24405 -3.27258 0
M  V30 3491 H 354.679 -2.81701 -3.06649 0
M  V30 3492 H 357.276 -1.0781 -5.23718 0
M  V30 3493 H 357.619 0.24955 -4.15551 0
M  V30 3494 H 358.152 -1.39397 -3.72577 0
M  V30 3495 H 354.891 -4.0139 -5.18234 0
M  V30 3496 H 354.411 -2.33584 -5.52448 0
M  V30 3497 H 356.09 -2.86086 -5.80314 0
M  V30 3498 N 356.222 1.38976 -0.743202 0
M  V30 3499 C 357.154 2.29096 -0.0689228 0
M  V30 3500 C 358.167 1.47229 0.694791 0
M  V30 3501 O 359.356 1.70212 0.537597 0
M  V30 3502 C 356.456 3.25988 0.926548 0
M  V30 3503 C 355.629 4.36833 0.222647 0
M  V30 3504 C 354.688 5.13981 1.12739 0
M  V30 3505 O 353.714 5.6601 0.601795 0
M  V30 3506 N 354.916 5.25966 2.45641 0
M  V30 3507 H 357.681 2.87604 -0.842846 0
M  V30 3508 H 355.242 1.50645 -0.593109 0
M  V30 3509 H 357.234 3.74476 1.5346 0
M  V30 3510 H 355.804 2.68453 1.60162 0
M  V30 3511 H 355.024 3.90116 -0.565983 0
M  V30 3512 H 356.312 5.0811 -0.264841 0
M  V30 3513 H 355.71 4.85228 2.9081 0
M  V30 3514 H 354.267 5.77865 3.01522 0
M  V30 3515 N 357.7 0.491464 1.49741 0
M  V30 3516 C 358.946 -0.0565092 2.02721 0
M  V30 3517 C 359.279 -1.37522 1.37118 0
M  V30 3518 O 358.554 -1.87866 0.503645 0
M  V30 3519 C 358.837 -0.219051 3.59433 0
M  V30 3520 C 358.69 1.12211 4.35579 0
M  V30 3521 C 360.009 -0.964157 4.29409 0
M  V30 3522 H 357.128 -0.0190627 0.736753 0
M  V30 3523 H 359.77 0.641021 1.7886 0
M  V30 3524 H 357.92 -0.813165 3.79895 0
M  V30 3525 H 359.592 1.75437 4.26637 0
M  V30 3526 H 357.835 1.71377 3.98513 0
M  V30 3527 H 358.506 0.961794 5.43556 0
M  V30 3528 H 360.982 -0.460378 4.13545 0
M  V30 3529 H 359.858 -1.04671 5.38828 0
M  V30 3530 H 360.119 -2.00563 3.93988 0
M  V30 3531 N 359.178 -1.55987 0.224894 0
M  V30 3532 C 360.141 -2.19178 -0.670348 0
M  V30 3533 C 361.141 -1.15461 -1.11917 0
M  V30 3534 O 362.331 -1.40675 -1.02743 0
M  V30 3535 C 359.463 -2.81777 -1.9187 0
M  V30 3536 H 360.656 -2.99662 -0.119364 0
M  V30 3537 H 358.209 -1.5628 -0.0247128 0
M  V30 3538 H 358.944 -2.05172 -2.51147 0
M  V30 3539 H 358.729 -3.57732 -1.60531 0
M  V30 3540 H 360.219 -3.30205 -2.55645 0
M  V30 3541 N 360.656 0.0484629 -1.57525 0
M  V30 3542 C 361.586 1.0549 -2.08313 0
M  V30 3543 C 362.567 1.38929 -0.981463 0
M  V30 3544 O 363.752 1.48151 -1.25558 0
M  V30 3545 C 360.882 2.36162 -2.54646 0
M  V30 3546 C 359.836 2.17016 -3.68901 0
M  V30 3547 C 359.162 3.53278 -4.01371 0
M  V30 3548 C 360.462 1.57219 -4.98076 0
M  V30 3549 H 362.156 0.632195 -2.92649 0
M  V30 3550 H 359.702 0.302654 -1.40784 0
M  V30 3551 H 361.655 3.06882 -2.88793 0
M  V30 3552 H 360.379 2.80456 -1.67368 0
M  V30 3553 H 359.038 1.48733 -3.35073 0
M  V30 3554 H 358.686 3.95185 -3.11188 0
M  V30 3555 H 358.386 3.41299 -4.78318 0
M  V30 3556 H 359.91 4.25391 -4.38035 0
M  V30 3557 H 361.324 2.17832 -5.30304 0
M  V30 3558 H 359.721 1.55871 -5.79503 0
M  V30 3559 H 360.791 0.535956 -4.81929 0
M  V30 3560 N 362.134 1.5431 0.320358 0
M  V30 3561 C 363.084 1.803 1.39556 0
M  V30 3562 C 364.068 0.659166 1.46778 0
M  V30 3563 O 365.26 0.91926 1.51257 0
M  V30 3564 C 362.389 2.03665 2.76361 0
M  V30 3565 C 361.475 3.24178 2.73439 0
M  V30 3566 N 361.866 4.4516 2.40137 0
M  V30 3567 C 360.164 3.25816 3.04565 0
M  V30 3568 C 360.865 5.27109 2.4603 0
M  V30 3569 N 359.841 4.64368 2.82601 0
M  V30 3570 H 363.643 2.71416 1.12742 0
M  V30 3571 H 361.157 1.53548 0.528856 0
M  V30 3572 H 363.154 2.20425 3.53862 0
M  V30 3573 H 361.814 1.13805 3.04103 0
M  V30 3574 H 362.825 4.72104 2.12927 0
M  V30 3575 H 359.502 2.46001 3.37328 0
M  V30 3576 H 360.892 6.33728 2.23246 0
M  V30 3577 N 363.613 -0.582584 1.46437 0
M  V30 3578 C 364.838 -1.37168 1.55563 0
M  V30 3579 C 365.263 -1.87061 0.19743 0
M  V30 3580 O 364.621 -1.61572 -0.822451 0
M  V30 3581 C 364.669 -2.53511 2.56446 0
M  V30 3582 O 363.773 -3.54953 2.09958 0
M  V30 3583 H 363.114 -0.408494 0.523477 0
M  V30 3584 H 365.644 -0.706646 1.9201 0
M  V30 3585 H 365.654 -3.00426 2.76058 0
M  V30 3586 H 364.329 -2.16549 3.55076 0
M  V30 3587 H 362.906 -3.14516 2.00334 0
M  V30 3588 N 365.091 -1.34144 -0.827227 0
M  V30 3589 C 366.368 -1.16844 -1.56865 0
M  V30 3590 C 366.748 0.260654 -2.09485 0
M  V30 3591 O 366.096 1.26138 -1.9053 0
M  V30 3592 C 366.306 -2.21939 -2.6934 0
M  V30 3593 C 367.654 -2.56695 -3.3822 0
M  V30 3594 O 368.678 -2.20695 -2.79593 0
M  V30 3595 O 367.537 -3.18518 -4.44082 0
M  V30 3596 H 364.631 -0.452669 -0.692112 0
M  V30 3597 H 367.177 -1.45763 -0.868973 0
M  V30 3598 H 365.949 -3.17882 -2.28182 0
M  V30 3599 H 365.572 -1.94172 -3.46962 0
M  V30 3600 N 366.569 1.04691 -1.17803 0
M  V30 3601 C 367.797 1.81446 -0.99423 0
M  V30 3602 C 368.212 1.83174 0.457459 0
M  V30 3603 O 367.569 1.26265 1.31771 0
M  V30 3604 C 367.62 3.27334 -1.5341 0
M  V30 3605 O 367.341 3.25798 -2.92895 0
M  V30 3606 C 368.842 4.20759 -1.39559 0
M  V30 3607 H 366.062 0.571599 -0.351447 0
M  V30 3608 H 368.606 1.31982 -1.56208 0
M  V30 3609 H 366.761 3.74052 -1.00815 0
M  V30 3610 H 367.175 4.17144 -3.17949 0
M  V30 3611 H 368.649 5.21084 -1.82141 0
M  V30 3612 H 369.126 4.37856 -0.343394 0
M  V30 3613 H 369.732 3.79901 -1.91195 0
M  V30 3614 N 368.047 0.979072 1.23499 0
M  V30 3615 C 368.977 0.537606 2.27227 0
M  V30 3616 C 369.958 -0.428539 1.64613 0
M  V30 3617 O 371.143 -0.322191 1.91509 0
M  V30 3618 C 368.273 -0.162052 3.46922 0
M  V30 3619 C 367.227 0.721242 4.21879 0
M  V30 3620 C 366.553 -0.110555 5.34586 0
M  V30 3621 C 367.853 2.01141 4.82016 0
M  V30 3622 H 369.547 1.40462 2.64406 0
M  V30 3623 H 367.093 0.67684 1.27102 0
M  V30 3624 H 369.046 -0.482192 4.18632 0
M  V30 3625 H 367.77 -1.06351 3.08799 0
M  V30 3626 H 366.429 1.02482 3.51984 0
M  V30 3627 H 366.077 -1.0125 4.92704 0
M  V30 3628 H 365.777 0.477325 5.85658 0
M  V30 3629 H 367.301 -0.425107 6.09118 0
M  V30 3630 H 368.715 1.75612 5.45741 0
M  V30 3631 H 367.112 2.54695 5.43369 0
M  V30 3632 H 368.182 2.69909 4.02836 0
M  V30 3633 N 369.525 -1.3858 0.750561 0
M  V30 3634 C 370.473 -2.32339 0.110162 0
M  V30 3635 C 371.467 -1.53864 -0.708674 0
M  V30 3636 O 372.673 -1.69417 -0.608112 0
M  V30 3637 H 369.048 -0.751812 0.0168275 0
M  V30 3638 H 371.019 -2.83959 0.917053 0
M  V30 3639 C 369.768 -3.39043 -0.771067 0
M  V30 3640 H 369.091 -3.99517 -0.150374 0
M  V30 3641 H 370.531 -4.07061 -1.1865 0
M  V30 3642 C 368.99 -2.77365 -1.91234 0
M  V30 3643 O 369.52 -2.66434 -3.00626 0
M  V30 3644 N 367.726 -2.35219 -1.70646 0
M  V30 3645 H 367.273 -2.4431 -0.81673 0
M  V30 3646 H 367.231 -1.94294 -2.47178 0
M  V30 3647 N 371.003 -0.499398 -1.49478 0
M  V30 3648 C 371.913 0.284489 -2.32869 0
M  V30 3649 C 372.929 0.968885 -1.44529 0
M  V30 3650 O 374.105 0.95062 -1.77553 0
M  V30 3651 C 371.17 1.33594 -3.19928 0
M  V30 3652 C 370.231 0.665149 -4.24116 0
M  V30 3653 C 369.464 1.6665 -5.07014 0
M  V30 3654 O 369.687 2.89618 -4.91404 0
M  V30 3655 O 368.621 1.22271 -5.8935 0
M  V30 3656 H 372.447 -0.39802 -3.01081 0
M  V30 3657 H 370.032 -0.260758 -1.47107 0
M  V30 3658 H 371.914 1.94431 -3.73864 0
M  V30 3659 H 370.589 2.0014 -2.54412 0
M  V30 3660 H 369.496 0.0170769 -3.74096 0
M  V30 3661 H 370.829 0.0421555 -4.92182 0
M  V30 3662 N 372.481 1.55866 -0.233164 0
M  V30 3663 C 373.706 2.03449 0.402906 0
M  V30 3664 C 374.131 1.11166 1.51736 0
M  V30 3665 O 373.489 0.101996 1.81013 0
M  V30 3666 C 373.537 3.49165 0.9009 0
M  V30 3667 O 372.641 3.60019 2.01147 0
M  V30 3668 H 371.982 0.657913 0.0897025 0
M  V30 3669 H 374.512 2.01493 -0.355201 0
M  V30 3670 H 374.522 3.89716 1.2077 0
M  V30 3671 H 373.197 4.15813 0.0852889 0
M  V30 3672 H 371.774 3.3136 1.71042 0
M  V30 3673 N 373.959 -0.0401083 1.57549 0
M  V30 3674 C 375.207 -0.731677 1.8839 0
M  V30 3675 C 375.528 -1.76481 0.829425 0
M  V30 3676 O 374.798 -1.95411 -0.1383 0
M  V30 3677 H 373.378 -0.273225 0.695239 0
M  V30 3678 H 376.04 -0.00867725 1.94898 0
M  V30 3679 H 375.136 -1.22816 2.86919 0
M  V30 3680 N 375.437 -1.54477 -0.31217 0
M  V30 3681 C 376.684 -1.73227 -1.04875 0
M  V30 3682 C 377.012 -0.512042 -1.87639 0
M  V30 3683 O 376.267 0.506131 -1.89042 0
M  V30 3684 C 376.566 -2.967 -1.99258 0
M  V30 3685 C 376.232 -4.30974 -1.32559 0
M  V30 3686 C 374.894 -4.67477 -1.141 0
M  V30 3687 C 377.246 -5.14258 -0.847835 0
M  V30 3688 C 374.574 -5.84852 -0.465326 0
M  V30 3689 C 376.926 -6.32327 -0.185931 0
M  V30 3690 C 375.59 -6.67499 0.0107077 0
M  V30 3691 H 374.86 -0.633881 -0.383765 0
M  V30 3692 H 377.507 -1.88727 -0.324731 0
M  V30 3693 H 375.812 -2.75935 -2.7815 0
M  V30 3694 H 377.509 -3.08401 -2.563 0
M  V30 3695 H 374.099 -4.02262 -1.4793 0
M  V30 3696 H 378.283 -4.86565 -0.978192 0
M  V30 3697 H 373.539 -6.10654 -0.301883 0
M  V30 3698 H 377.713 -6.96135 0.192211 0
M  V30 3699 H 375.34 -7.58306 0.536287 0
M  V30 3700 N 376.915 0.57481 -1.46744 0
M  V30 3701 C 378.161 1.3347 -1.52688 0
M  V30 3702 C 378.494 1.93353 -0.181229 0
M  V30 3703 O 377.769 1.76912 0.808237 0
M  V30 3704 C 378.052 2.45811 -2.63152 0
M  V30 3705 C 377.905 1.90912 -4.07275 0
M  V30 3706 C 379.224 3.47822 -2.69644 0
M  V30 3707 H 376.343 0.483935 -0.555856 0
M  V30 3708 H 378.985 0.644968 -1.78718 0
M  V30 3709 H 377.135 3.04646 -2.41088 0
M  V30 3710 H 378.807 1.36473 -4.4065 0
M  V30 3711 H 377.05 1.21691 -4.16382 0
M  V30 3712 H 377.721 2.72042 -4.80309 0
M  V30 3713 H 380.197 2.9888 -2.895 0
M  V30 3714 H 379.073 4.23876 -3.48742 0
M  V30 3715 H 379.334 4.05555 -1.76005 0
M  V30 3716 N 378.394 1.34581 0.820102 0
M  V30 3717 C 379.304 1.28471 1.96297 0
M  V30 3718 C 380.32 0.191902 1.72939 0
M  V30 3719 O 381.496 0.418879 1.96996 0
M  V30 3720 C 378.561 1.04281 3.30645 0
M  V30 3721 C 377.622 2.22745 3.66992 0
M  V30 3722 C 376.855 1.997 4.9493 0
M  V30 3723 O 377.078 0.956656 5.6232 0
M  V30 3724 O 376.012 2.86723 5.2922 0
M  V30 3725 H 379.838 2.24624 2.04396 0
M  V30 3726 H 377.423 1.14816 0.955913 0
M  V30 3727 H 379.305 0.925841 4.11104 0
M  V30 3728 H 377.98 0.111697 3.23507 0
M  V30 3729 H 376.887 2.40003 2.86966 0
M  V30 3730 H 378.22 3.14257 3.78819 0
M  V30 3731 N 379.872 -1.04064 1.18357 0
M  V30 3732 C 381.149 -1.74252 0.888581 0
M  V30 3733 C 381.529 -2.02138 -0.60856 0
M  V30 3734 O 380.877 -1.66656 -1.56327 0
M  V30 3735 C 381.087 -3.0277 1.73584 0
M  V30 3736 C 382.435 -3.76506 1.96286 0
M  V30 3737 O 383.459 -3.12668 1.70637 0
M  V30 3738 O 382.318 -4.91243 2.39464 0
M  V30 3739 H 379.412 -0.758271 0.330082 0
M  V30 3740 H 381.958 -1.1013 1.2911 0
M  V30 3741 H 380.73 -2.78299 2.75073 0
M  V30 3742 H 380.353 -3.74631 1.33183 0
M  V30 3743 N 381.35 -0.985608 -1.22978 0
M  V30 3744 C 382.578 -0.675582 -1.95559 0
M  V30 3745 C 382.993 0.758413 -1.72897 0
M  V30 3746 O 382.35 1.51094 -1.02357 0
M  V30 3747 C 382.401 -0.96293 -3.48439 0
M  V30 3748 O 382.122 -2.34057 -3.70336 0
M  V30 3749 C 383.623 -0.669585 -4.38214 0
M  V30 3750 H 380.843 -0.250523 -0.622478 0
M  V30 3751 H 383.387 -1.3184 -1.56328 0
M  V30 3752 H 381.542 -0.366033 -3.85667 0
M  V30 3753 H 381.956 -2.43424 -4.64591 0
M  V30 3754 H 383.43 -0.920967 -5.44263 0
M  V30 3755 H 383.907 0.396383 -4.37408 0
M  V30 3756 H 384.513 -1.2472 -4.06602 0
M  V30 3757 N 382.828 1.3818 -0.7579 0
M  V30 3758 C 383.758 2.33027 -0.148597 0
M  V30 3759 C 384.739 1.55085 0.69875 0
M  V30 3760 O 385.924 1.83384 0.639053 0
M  V30 3761 C 383.054 3.3928 0.742034 0
M  V30 3762 C 382.008 4.28 -0.00291946 0
M  V30 3763 C 381.334 5.25146 1.00625 0
M  V30 3764 C 382.634 5.08938 -1.17385 0
M  V30 3765 H 384.328 2.84231 -0.940909 0
M  V30 3766 H 381.874 1.36659 -0.453908 0
M  V30 3767 H 383.827 4.046 1.17799 0
M  V30 3768 H 382.551 2.86569 1.56671 0
M  V30 3769 H 381.21 3.64192 -0.419504 0
M  V30 3770 H 380.858 4.68721 1.8251 0
M  V30 3771 H 380.558 5.85361 0.512428 0
M  V30 3772 H 382.082 5.93342 1.44143 0
M  V30 3773 H 383.496 5.67474 -0.815224 0
M  V30 3774 H 381.893 5.7841 -1.59882 0
M  V30 3775 H 382.963 4.42424 -1.98468 0
M  V30 3776 N 384.306 0.507319 1.49211 0
M  V30 3777 C 385.269 -0.256763 2.27757 0
M  V30 3778 C 386.269 -0.888287 1.34038 0
M  V30 3779 O 387.459 -0.751841 1.5714 0
M  V30 3780 C 384.591 -1.36905 3.12202 0
M  V30 3781 H 385.784 0.432557 2.96764 0
M  V30 3782 H 383.337 0.262488 1.5408 0
M  V30 3783 H 384.072 -2.09233 2.47775 0
M  V30 3784 H 383.857 -0.921599 3.81115 0
M  V30 3785 H 385.347 -1.9071 3.7151 0
M  V30 3786 N 385.784 -1.5574 0.241426 0
M  V30 3787 C 386.747 -2.19877 -0.647063 0
M  V30 3788 C 387.747 -1.16642 -1.10686 0
M  V30 3789 O 388.937 -1.41757 -1.01245 0
M  V30 3790 C 386.069 -2.83797 -1.88871 0
M  V30 3791 H 387.262 -2.99772 -0.087574 0
M  V30 3792 H 384.815 -1.56298 -0.00813574 0
M  V30 3793 H 385.55 -2.07824 -2.48957 0
M  V30 3794 H 385.335 -3.59414 -1.56728 0
M  V30 3795 H 386.825 -3.32898 -2.52129 0
M  V30 3796 N 387.262 0.0317525 -1.57568 0
M  V30 3797 C 388.511 0.722131 -1.8833 0
M  V30 3798 C 388.824 1.76664 -0.839587 0
M  V30 3799 O 390.03 2.50942 -1.03635 0
M  V30 3800 C 388.486 1.33544 -3.34207 0
M  V30 3801 C 388.094 0.327415 -4.46802 0
M  V30 3802 C 389.838 2.00585 -3.7412 0
M  V30 3803 C 387.745 0.948915 -5.83738 0
M  V30 3804 H 386.675 0.273466 -0.702661 0
M  V30 3805 H 389.326 -0.0235811 -1.83485 0
M  V30 3806 H 387.708 2.13077 -3.33788 0
M  V30 3807 H 388.882 -0.441006 -4.58685 0
M  V30 3808 H 387.197 -0.240758 -4.15703 0
M  V30 3809 H 389.794 2.47932 -4.73744 0
M  V30 3810 H 390.137 2.82285 -3.05975 0
M  V30 3811 H 390.67 1.27831 -3.76702 0
M  V30 3812 H 387.409 0.171387 -6.55276 0
M  V30 3813 H 386.929 1.68724 -5.7558 0
M  V30 3814 H 388.608 1.45705 -6.3038 0
M  V30 3815 N 388.74 1.54641 0.303973 0
M  V30 3816 C 389.988 1.73437 1.0375 0
M  V30 3817 C 390.309 0.521449 1.87899 0
M  V30 3818 O 389.579 -0.46432 1.90318 0
M  V30 3819 H 388.159 0.639518 0.386039 0
M  V30 3820 H 390.821 1.91988 0.335675 0
M  V30 3821 H 389.917 2.62235 1.69231 0
M  V30 3822 N 390.218 -0.567019 1.47046 0
M  V30 3823 C 391.466 -1.322 1.52864 0
M  V30 3824 C 391.787 -1.94088 0.188388 0
M  V30 3825 O 391.057 -1.7941 -0.786693 0
M  V30 3826 H 389.637 -0.490894 0.563056 0
M  V30 3827 H 392.299 -0.662879 1.83281 0
M  V30 3828 H 391.395 -2.12062 2.2899 0
M  V30 3829 N 391.696 -1.35014 -0.812953 0
M  V30 3830 C 393.112 -1.14914 -1.10757 0
M  V30 3831 C 393.312 0.0426818 -2.01455 0
M  V30 3832 O 392.368 0.715212 -2.42159 0
M  V30 3833 C 393.681 -2.44911 -1.74468 0
M  V30 3834 C 395.229 -2.5106 -1.86917 0
M  V30 3835 C 395.704 -3.81085 -2.54044 0
M  V30 3836 N 397.195 -3.82301 -2.61535 0
M  V30 3837 C 397.93 -4.79634 -3.14227 0
M  V30 3838 N 397.426 -5.87353 -3.67407 0
M  V30 3839 N 399.219 -4.67078 -3.12721 0
M  V30 3840 H 391.37 -2.1136 -0.20989 0
M  V30 3841 H 393.633 -0.935128 -0.155692 0
M  V30 3842 H 393.339 -3.32267 -1.15289 0
M  V30 3843 H 393.213 -2.58989 -2.74234 0
M  V30 3844 H 395.6 -1.64137 -2.45241 0
M  V30 3845 H 395.681 -2.40901 -0.860242 0
M  V30 3846 H 395.325 -4.68402 -1.96372 0
M  V30 3847 H 395.255 -3.88529 -3.55461 0
M  V30 3848 H 397.746 -3.04465 -2.23851 0
M  V30 3849 H 398.059 -6.57624 -4.05894 0
M  V30 3850 H 396.404 -5.91054 -3.65623 0
M  V30 3851 H 399.595 -3.82067 -2.70449 0
M  V30 3852 H 399.768 -5.43098 -3.53481 0
M  V30 3853 N 393.175 1.03435 -1.18907 0
M  V30 3854 C 394.403 1.80381 -1.01342 0
M  V30 3855 C 394.818 1.83649 0.438005 0
M  V30 3856 O 394.175 1.27655 1.30424 0
M  V30 3857 C 394.226 3.25689 -1.56873 0
M  V30 3858 O 393.947 3.22673 -2.96334 0
M  V30 3859 C 395.448 4.19255 -1.44014 0
M  V30 3860 H 392.668 0.56784 -0.35749 0
M  V30 3861 H 395.212 1.30317 -1.576 0
M  V30 3862 H 393.367 3.72962 -1.04777 0
M  V30 3863 H 393.781 4.13748 -3.22355 0
M  V30 3864 H 395.255 5.19123 -1.87657 0
M  V30 3865 H 395.732 4.37467 -0.389815 0
M  V30 3866 H 396.338 3.77851 -1.95214 0
M  V30 3867 N 394.653 0.992116 1.22453 0
M  V30 3868 C 395.902 0.662992 1.90492 0
M  V30 3869 C 396.215 -0.808407 1.78113 0
M  V30 3870 O 397.421 -1.24908 2.41061 0
M  V30 3871 C 395.877 1.1353 3.41524 0
M  V30 3872 C 395.485 2.63187 3.62542 0
M  V30 3873 C 397.229 0.880465 4.15269 0
M  V30 3874 C 395.136 3.04024 5.0727 0
M  V30 3875 H 394.066 0.244278 0.713333 0
M  V30 3876 H 396.717 1.20157 1.38688 0
M  V30 3877 H 395.099 0.52485 3.92506 0
M  V30 3878 H 396.273 3.2957 3.22056 0
M  V30 3879 H 394.588 2.86543 3.02129 0
M  V30 3880 H 397.185 1.16128 5.21937 0
M  V30 3881 H 397.528 -0.183408 4.15896 0
M  V30 3882 H 398.061 1.45307 3.70312 0
M  V30 3883 H 394.8 4.09584 5.11782 0
M  V30 3884 H 394.32 2.42343 5.48662 0
M  V30 3885 H 395.999 2.95282 5.75689 0
M  V30 3886 N 396.131 -1.37776 0.765217 0
M  V30 3887 C 397.081 -2.2768 0.12075 0
M  V30 3888 C 398.065 -1.45778 -0.680988 0
M  V30 3889 O 399.257 -1.684 -0.545033 0
M  V30 3890 C 396.386 -3.34722 -0.762626 0
M  V30 3891 C 395.472 -4.24074 0.0465881 0
M  V30 3892 N 395.863 -4.93939 1.08892 0
M  V30 3893 C 394.161 -4.45643 -0.178418 0
M  V30 3894 C 394.862 -5.59845 1.57951 0
M  V30 3895 N 393.838 -5.36218 0.892797 0
M  V30 3896 H 397.64 -2.79166 0.918889 0
M  V30 3897 H 395.154 -1.50816 0.602353 0
M  V30 3898 H 397.151 -3.98031 -1.24005 0
M  V30 3899 H 395.811 -2.84793 -1.55959 0
M  V30 3900 H 396.822 -4.96572 1.47095 0
M  V30 3901 H 393.499 -4.06599 -0.9478 0
M  V30 3902 H 394.889 -6.25703 2.44838 0
M  V30 3903 N 397.609 -0.515225 -1.4894 0
M  V30 3904 C 398.837 0.0206034 -2.0689 0
M  V30 3905 C 399.252 1.29514 -1.37374 0
M  V30 3906 O 398.609 1.76698 -0.456529 0
M  V30 3907 C 398.66 0.26351 -3.60538 0
M  V30 3908 O 398.381 -0.960517 -4.27441 0
M  V30 3909 C 399.882 0.841383 -4.35242 0
M  V30 3910 H 397.102 -0.0268608 -0.670462 0
M  V30 3911 H 399.646 -0.716651 -1.91532 0
M  V30 3912 H 397.801 0.950777 -3.75552 0
M  V30 3913 H 398.215 -0.73212 -5.19365 0
M  V30 3914 H 399.689 0.96085 -5.43573 0
M  V30 3915 H 400.166 1.8427 -3.98674 0
M  V30 3916 H 400.772 0.191143 -4.2487 0
M  V30 3917 N 399.087 1.5561 -0.249682 0
M  V30 3918 C 400.334 1.99011 0.374287 0
M  V30 3919 C 400.662 1.13785 1.57744 0
M  V30 3920 O 399.917 0.189326 1.94782 0
M  V30 3921 C 400.216 3.4775 0.824887 0
M  V30 3922 C 399.882 4.50086 -0.270819 0
M  V30 3923 C 398.544 4.77791 -0.571746 0
M  V30 3924 C 400.896 5.11312 -1.01041 0
M  V30 3925 C 398.224 5.63997 -1.61629 0
M  V30 3926 C 400.576 5.98651 -2.0445 0
M  V30 3927 C 399.24 6.24688 -2.35204 0
M  V30 3928 H 398.51 0.728233 0.136961 0
M  V30 3929 H 401.157 1.88122 -0.358087 0
M  V30 3930 H 399.462 3.55985 1.63651 0
M  V30 3931 H 401.159 3.78721 1.31799 0
M  V30 3932 H 397.749 4.28592 -0.026136 0
M  V30 3933 H 401.933 4.89953 -0.791177 0
M  V30 3934 H 397.189 5.82425 -1.85988 0
M  V30 3935 H 401.363 6.45135 -2.62248 0
M  V30 3936 H 398.99 6.91281 -3.16282 0
M  V30 3937 N 400.565 -0.0233959 1.57583 0
M  V30 3938 C 401.515 -1.03023 2.03397 0
M  V30 3939 C 402.499 -1.31701 0.924315 0
M  V30 3940 O 403.691 -1.31191 1.18819 0
M  V30 3941 C 400.82 -2.32961 2.52159 0
M  V30 3942 C 399.906 -2.07349 3.69956 0
M  V30 3943 N 400.297 -1.51814 4.82479 0
M  V30 3944 C 398.595 -2.37606 3.77438 0
M  V30 3945 C 399.296 -1.42136 5.64068 0
M  V30 3946 N 398.272 -1.89891 5.09355 0
M  V30 3947 H 402.074 -0.594962 2.87815 0
M  V30 3948 H 399.588 -0.229586 1.60769 0
M  V30 3949 H 401.585 -3.05906 2.83244 0
M  V30 3950 H 400.245 -2.77162 1.69149 0
M  V30 3951 H 401.256 -1.20008 5.03804 0
M  V30 3952 H 397.933 -2.84842 3.05239 0
M  V30 3953 H 399.323 -0.996405 6.64471 0
M  V30 3954 N 402.043 -1.548 -0.295768 0
M  V30 3955 C 403.271 -1.78327 -1.04914 0
M  V30 3956 C 403.686 -0.545316 -1.80753 0
M  V30 3957 O 403.043 0.485013 -1.75937 0
M  V30 3958 C 403.094 -2.99418 -2.02561 0
M  V30 3959 O 402.815 -4.18431 -1.29798 0
M  V30 3960 C 404.316 -3.35375 -2.89895 0
M  V30 3961 H 401.536 -0.594618 -0.310918 0
M  V30 3962 H 404.08 -2.01763 -0.333454 0
M  V30 3963 H 402.235 -2.78175 -2.69624 0
M  V30 3964 H 402.649 -4.86736 -1.95419 0
M  V30 3965 H 404.123 -4.23332 -3.54251 0
M  V30 3966 H 404.6 -2.53761 -3.58472 0
M  V30 3967 H 405.206 -3.58796 -2.28355 0
M  V30 3968 N 403.521 0.559213 -1.47345 0
M  V30 3969 C 404.431 1.69388 -1.62311 0
M  V30 3970 C 405.447 1.6648 -0.505993 0
M  V30 3971 O 406.623 1.85964 -0.773262 0
M  V30 3972 C 403.688 3.05894 -1.63185 0
M  V30 3973 C 402.749 3.19885 -2.86307 0
M  V30 3974 C 401.982 4.49879 -2.87131 0
M  V30 3975 O 402.205 5.35217 -1.97229 0
M  V30 3976 O 401.139 4.67618 -3.78968 0
M  V30 3977 H 404.965 1.59706 -2.58317 0
M  V30 3978 H 402.55 0.728989 -1.30407 0
M  V30 3979 H 404.432 3.87133 -1.66451 0
M  V30 3980 H 403.107 3.15964 -0.70345 0
M  V30 3981 H 402.014 2.38052 -2.88587 0
M  V30 3982 H 403.347 3.14718 -3.78435 0
M  V30 3983 N 404.999 1.35443 0.805782 0
M  V30 3984 C 406.247 1.28507 1.55982 0
M  V30 3985 C 406.568 -0.140046 1.94496 0
M  V30 3986 O 405.838 -1.07666 1.63661 0
M  V30 3987 H 404.418 0.472676 0.578434 0
M  V30 3988 H 407.08 1.69555 0.961098 0
M  V30 3989 H 406.176 1.90148 2.47488 0
M  V30 3990 N 406.477 -1.02803 1.19454 0
M  V30 3991 C 407.44 -2.09264 0.934955 0
M  V30 3992 C 408.44 -1.60576 -0.0849015 0
M  V30 3993 O 409.63 -1.73554 0.149933 0
M  V30 3994 C 406.762 -3.38482 0.40531 0
M  V30 3995 H 407.955 -2.33726 1.87916 0
M  V30 3996 H 405.508 -1.19426 1.00832 0
M  V30 3997 H 406.243 -3.19689 -0.544899 0
M  V30 3998 H 406.028 -3.75142 1.14065 0
M  V30 3999 H 407.518 -4.16894 0.242806 0
M  V30 4000 N 407.956 -0.998596 -1.21925 0
M  V30 4001 C 409.204 -0.676325 -1.90448 0
M  V30 4002 C 409.525 0.794719 -1.78071 0
M  V30 4003 O 408.795 1.5701 -1.17152 0
M  V30 4004 H 407.375 -0.247165 -0.704925 0
M  V30 4005 H 410.037 -1.26633 -1.48156 0
M  V30 4006 H 409.133 -0.943858 -2.97486 0
M  V30 4007 N 409.434 1.37368 -0.772513 0
M  V30 4008 C 410.682 1.99279 -0.336516 0
M  V30 4009 C 411.003 1.6163 1.09091 0
M  V30 4010 O 410.273 0.882109 1.74916 0
M  V30 4011 H 408.853 0.737063 -0.121435 0
M  V30 4012 H 411.515 1.67836 -0.990809 0
M  V30 4013 H 410.611 3.09332 -0.414763 0
M  V30 4014 N 410.912 0.523116 1.48665 0
M  V30 4015 C 412.16 -0.0134497 2.02096 0
M  V30 4016 C 412.481 -1.35418 1.40311 0
M  V30 4017 O 411.751 -1.87543 0.566074 0
M  V30 4018 H 410.331 -0.00795915 0.746958 0
M  V30 4019 H 412.993 0.685388 1.82451 0
M  V30 4020 H 412.089 -0.126849 3.11842 0
M  V30 4021 N 412.39 -1.55475 0.257931 0
M  V30 4022 C 413.34 -2.18506 -0.651094 0
M  V30 4023 C 414.324 -1.14431 -1.13112 0
M  V30 4024 O 415.516 -1.40305 -1.07905 0
M  V30 4025 C 412.645 -2.89653 -1.84272 0
M  V30 4026 C 411.731 -4.00996 -1.38068 0
M  V30 4027 N 412.122 -5.01816 -0.633609 0
M  V30 4028 C 410.42 -4.13753 -1.66506 0
M  V30 4029 C 411.121 -5.80371 -0.392922 0
M  V30 4030 N 410.097 -5.3505 -0.960359 0
M  V30 4031 H 413.899 -2.93811 -0.0722883 0
M  V30 4032 H 411.413 -1.62286 0.0607256 0
M  V30 4033 H 413.41 -3.33245 -2.50506 0
M  V30 4034 H 412.07 -2.15854 -2.42564 0
M  V30 4035 H 413.081 -5.17128 -0.282626 0
M  V30 4036 H 409.758 -3.51133 -2.25858 0
M  V30 4037 H 411.148 -6.7159 0.204235 0
M  V30 4038 N 413.868 0.0150385 -1.57593 0
M  V30 4039 C 414.831 0.995996 -2.06428 0
M  V30 4040 C 415.831 1.2818 -0.970903 0
M  V30 4041 O 417.021 1.22949 -1.23406 0
M  V30 4042 C 414.153 2.32506 -2.49307 0
M  V30 4043 H 415.346 0.573873 -2.94358 0
M  V30 4044 H 412.899 0.262186 -1.54085 0
M  V30 4045 H 413.634 2.79438 -1.64575 0
M  V30 4046 H 413.419 2.13087 -3.29145 0
M  V30 4047 H 414.909 3.02906 -2.87468 0
M  V30 4048 N 415.346 1.54954 0.287554 0
M  V30 4049 C 416.757 1.65732 0.859634 0
M  V30 4050 C 417.108 0.574767 1.87592 0
M  V30 4051 O 416.233 -0.286299 2.14498 0
M  V30 4052 C 416.828 3.00438 1.56597 0
M  V30 4053 C 415.387 3.13292 2.08627 0
M  V30 4054 C 414.534 2.61473 0.923416 0
M  V30 4055 H 417.485 1.5857 0.0642338 0
M  V30 4056 H 417.506 2.92613 2.43224 0
M  V30 4057 H 417.018 3.79207 0.826053 0
M  V30 4058 H 415.119 2.39268 2.85625 0
M  V30 4059 H 415.232 4.19647 2.31157 0
M  V30 4060 H 413.596 2.18264 1.31275 0
M  V30 4061 H 414.379 3.42733 0.197241 0
M  V30 4062 N 416.824 -0.551391 1.4764 0
M  V30 4063 C 418.101 -1.31229 1.45046 0
M  V30 4064 C 418.481 -2.10563 0.150527 0
M  V30 4065 O 417.829 -2.11374 -0.867956 0
M  V30 4066 C 418.039 -2.21189 2.69956 0
M  V30 4067 C 419.387 -2.82021 3.1741 0
M  V30 4068 O 420.411 -2.31488 2.70724 0
M  V30 4069 O 419.27 -3.73885 3.98588 0
M  V30 4070 H 416.364 -0.591193 0.578291 0
M  V30 4071 H 418.91 -0.569813 1.59847 0
M  V30 4072 H 417.682 -1.62207 3.56096 0
M  V30 4073 H 417.305 -3.02722 2.57769 0
M  V30 4074 N 418.302 -1.35869 -0.798587 0
M  V30 4075 C 419.551 -1.28921 -1.5512 0
M  V30 4076 C 419.864 0.13208 -1.95154 0
M  V30 4077 O 421.07 0.323879 -2.69561 0
M  V30 4078 C 419.526 -2.26141 -2.79979 0
M  V30 4079 C 419.134 -3.73658 -2.47151 0
M  V30 4080 C 420.878 -2.28152 -3.57976 0
M  V30 4081 C 418.785 -4.62679 -3.6835 0
M  V30 4082 H 417.715 -0.479031 -0.582276 0
M  V30 4083 H 420.366 -1.61179 -0.877125 0
M  V30 4084 H 418.748 -1.86865 -3.49138 0
M  V30 4085 H 419.922 -4.21616 -1.85947 0
M  V30 4086 H 418.237 -3.74333 -1.82383 0
M  V30 4087 H 420.834 -2.91875 -4.4801 0
M  V30 4088 H 421.177 -1.28748 -3.95891 0
M  V30 4089 H 421.71 -2.65998 -2.95787 0
M  V30 4090 H 418.449 -5.63111 -3.35538 0
M  V30 4091 H 417.969 -4.19442 -4.28752 0
M  V30 4092 H 419.648 -4.78498 -4.35487 0
M  V30 4093 N 419.78 1.02168 -1.19998 0
M  V30 4094 C 421.029 1.75091 -1.0013 0
M  V30 4095 C 421.342 1.89923 0.467835 0
M  V30 4096 O 422.548 2.59888 0.785515 0
M  V30 4097 C 421.004 3.14892 -1.74273 0
M  V30 4098 C 420.612 3.0809 -3.25245 0
M  V30 4099 C 422.356 3.9206 -1.62755 0
M  V30 4100 C 420.263 4.42867 -3.91948 0
M  V30 4101 H 419.193 0.656394 -0.37103 0
M  V30 4102 H 421.844 1.14284 -1.43567 0
M  V30 4103 H 420.226 3.7621 -1.2362 0
M  V30 4104 H 421.4 2.5611 -3.83072 0
M  V30 4105 H 419.715 2.44416 -3.3712 0
M  V30 4106 H 422.312 4.91764 -2.09934 0
M  V30 4107 H 422.655 4.12199 -0.582894 0
M  V30 4108 H 423.188 3.37359 -2.10793 0
M  V30 4109 H 419.927 4.27931 -4.96543 0
M  V30 4110 H 419.447 4.94874 -3.3891 0
M  V30 4111 H 421.126 5.11728 -3.95909 0
M  V30 4112 N 421.258 1.00505 1.21394 0
M  V30 4113 C 422.486 0.706609 1.9446 0
M  V30 4114 C 422.901 -0.73081 1.74082 0
M  V30 4115 O 422.258 -1.49446 1.04747 0
M  V30 4116 C 422.309 1.01824 3.46863 0
M  V30 4117 O 422.03 2.39919 3.66566 0
M  V30 4118 C 423.531 0.739216 4.37093 0
M  V30 4119 H 420.751 0.260394 0.618414 0
M  V30 4120 H 423.295 1.34311 1.54211 0
M  V30 4121 H 421.45 0.427343 3.85036 0
M  V30 4122 H 421.864 2.50784 4.6066 0
M  V30 4123 H 423.338 1.00744 5.42729 0
M  V30 4124 H 423.815 -0.326746 4.37983 0
M  V30 4125 H 424.421 1.31173 4.04566 0
M  V30 4126 N 422.737 -1.36956 0.779787 0
M  V30 4127 C 423.7 -2.2851 0.177662 0
M  V30 4128 C 424.7 -1.48393 -0.619377 0
M  V30 4129 O 425.89 -1.68505 -0.441785 0
M  V30 4130 C 423.022 -3.32428 -0.755279 0
M  V30 4131 H 424.215 -2.83269 0.984823 0
M  V30 4132 H 421.768 -1.46358 0.548544 0
M  V30 4133 H 422.503 -2.82808 -1.58714 0
M  V30 4134 H 422.288 -3.91659 -0.185817 0
M  V30 4135 H 423.778 -4.00824 -1.17174 0
M  V30 4136 N 424.215 -0.530993 -1.48385 0
M  V30 4137 C 425.455 0.000718982 -2.044 0
M  V30 4138 C 425.819 1.31485 -1.39913 0
M  V30 4139 O 427.02 1.93265 -1.86821 0
M  V30 4140 C 425.291 0.119177 -3.57201 0
M  V30 4141 S 426.85 0.600806 -4.34667 0
M  V30 4142 H 423.668 -0.0125473 -0.710889 0
M  V30 4143 H 426.27 -0.711783 -1.82082 0
M  V30 4144 H 424.974 -0.842061 -4.01668 0
M  V30 4145 H 424.505 0.856026 -3.83974 0
M  V30 4146 H 426.52 1.86514 -4.59812 0
M  V30 4147 N 425.693 1.55336 -0.266172 0
M  V30 4148 C 426.656 2.20878 0.612001 0
M  V30 4149 C 427.656 1.18388 1.08816 0
M  V30 4150 O 428.846 1.4335 0.989774 0
M  V30 4151 C 425.978 2.86765 1.84332 0
M  V30 4152 H 427.171 2.99873 0.0398718 0
M  V30 4153 H 424.724 1.56291 -0.0167309 0
M  V30 4154 H 425.459 2.11759 2.45619 0
M  V30 4155 H 425.244 3.61862 1.5099 0
M  V30 4156 H 426.734 3.36867 2.46801 0
M  V30 4157 N 427.171 -0.0066808 1.57599 0
M  V30 4158 C 428.121 -1.0086 2.04478 0
M  V30 4159 C 429.105 -1.30714 0.938231 0
M  V30 4160 O 430.297 -1.29924 1.20203 0
M  V30 4161 C 427.426 -2.30273 2.54615 0
M  V30 4162 C 426.512 -2.03413 3.72134 0
M  V30 4163 N 426.903 -1.46688 4.84062 0
M  V30 4164 C 425.201 -2.33589 3.79937 0
M  V30 4165 C 425.902 -1.36146 5.65543 0
M  V30 4166 N 424.878 -1.84477 5.1134 0
M  V30 4167 H 428.68 -0.564402 2.8843 0
M  V30 4168 H 426.194 -0.212521 1.61003 0
M  V30 4169 H 428.191 -3.02885 2.86472 0
M  V30 4170 H 426.851 -2.75352 1.72079 0
M  V30 4171 H 427.862 -1.14658 5.05049 0
M  V30 4172 H 424.539 -2.81589 3.08243 0
M  V30 4173 H 425.929 -0.925873 6.6549 0
M  V30 4174 N 428.649 -1.55105 -0.279332 0
M  V30 4175 C 430.06 -1.66186 -0.850832 0
M  V30 4176 C 430.411 -0.584707 -1.87285 0
M  V30 4177 O 429.536 0.274919 -2.14647 0
M  V30 4178 C 430.131 -3.01264 -1.55001 0
M  V30 4179 C 428.69 -3.14394 -2.06963 0
M  V30 4180 C 427.837 -2.61959 -0.909536 0
M  V30 4181 H 430.788 -1.58602 -0.0558235 0
M  V30 4182 H 430.809 -2.93899 -2.41669 0
M  V30 4183 H 430.321 -3.7964 -0.805931 0
M  V30 4184 H 428.422 -2.4078 -2.84352 0
M  V30 4185 H 428.535 -4.20867 -2.28928 0
M  V30 4186 H 426.899 -2.18957 -1.30116 0
M  V30 4187 H 427.682 -3.42833 -0.179062 0
M  V30 4188 N 430.127 0.543554 -1.4793 0
M  V30 4189 C 431.075 1.67039 -1.61866 0
M  V30 4190 C 432.069 1.62294 -0.48549 0
M  V30 4191 O 433.275 1.67315 -0.66376 0
M  V30 4192 H 429.65 0.552954 -0.509652 0
M  V30 4193 H 431.621 1.52426 -2.56533 0
M  V30 4194 C 430.37 3.05357 -1.6629 0
M  V30 4195 H 429.693 3.09696 -2.5284 0
M  V30 4196 H 431.133 3.83855 -1.80088 0
M  V30 4197 C 429.592 3.34531 -0.398861 0
M  V30 4198 O 430.122 3.98649 0.494162 0
M  V30 4199 N 428.328 2.89299 -0.2747 0
M  V30 4200 H 427.875 2.37298 -1.00236 0
M  V30 4201 H 427.833 3.09188 0.570075 0
M  V30 4202 N 431.605 1.3629 0.791371 0
M  V30 4203 C 432.854 1.29742 1.54434 0
M  V30 4204 C 433.167 -0.121729 1.95221 0
M  V30 4205 O 434.373 -0.309579 2.69729 0
M  V30 4206 C 432.829 2.27623 2.78776 0
M  V30 4207 C 432.437 3.74963 2.45166 0
M  V30 4208 C 434.181 2.30047 3.56761 0
M  V30 4209 C 432.088 4.64626 3.65891 0
M  V30 4210 H 431.018 0.482113 0.579727 0
M  V30 4211 H 433.669 1.61642 0.868565 0
M  V30 4212 H 432.051 1.88714 3.48142 0
M  V30 4213 H 433.225 4.22596 1.83709 0
M  V30 4214 H 431.54 3.75295 1.80396 0
M  V30 4215 H 434.137 2.94247 4.46456 0
M  V30 4216 H 434.48 1.30846 3.95203 0
M  V30 4217 H 435.013 2.67563 2.94372 0
M  V30 4218 H 431.752 5.64883 3.32547 0
M  V30 4219 H 431.272 4.2171 4.26521 0
M  V30 4220 H 432.951 4.80801 4.32943 0
M  V30 4221 N 433.083 -1.0153 1.20538 0
M  V30 4222 C 434.013 -2.11972 0.979295 0
M  V30 4223 C 434.994 -1.6985 -0.0921787 0
M  V30 4224 O 436.179 -1.94089 0.0655932 0
M  V30 4225 C 433.309 -3.43201 0.531984 0
M  V30 4226 C 432.263 -3.9907 1.54685 0
M  V30 4227 C 431.589 -5.26082 0.956127 0
M  V30 4228 C 432.889 -4.32313 2.93092 0
M  V30 4229 H 434.583 -2.31143 1.90298 0
M  V30 4230 H 432.129 -1.11079 0.916372 0
M  V30 4231 H 434.082 -4.1985 0.361044 0
M  V30 4232 H 432.806 -3.23792 -0.427327 0
M  V30 4233 H 431.465 -3.2453 1.70517 0
M  V30 4234 H 431.113 -5.02999 -0.0111538 0
M  V30 4235 H 430.813 -5.64426 1.63393 0
M  V30 4236 H 432.337 -6.05386 0.796284 0
M  V30 4237 H 433.751 -4.99845 2.80763 0
M  V30 4238 H 432.148 -4.81774 3.57791 0
M  V30 4239 H 433.218 -3.41025 3.44717 0
M  V30 4240 N 434.561 -1.01147 -1.20859 0
M  V30 4241 C 435.972 -0.730205 -1.71828 0
M  V30 4242 C 436.323 0.751662 -1.8123 0
M  V30 4243 O 435.448 1.58686 -1.47132 0
M  V30 4244 C 436.043 -1.31885 -3.12077 0
M  V30 4245 C 434.602 -1.08656 -3.60376 0
M  V30 4246 C 433.749 -1.42769 -2.37723 0
M  V30 4247 H 436.7 -1.18158 -1.05945 0
M  V30 4248 H 436.721 -0.706793 -3.73878 0
M  V30 4249 H 436.233 -2.39737 -3.05201 0
M  V30 4250 H 434.334 -0.0254814 -3.72591 0
M  V30 4251 H 434.447 -1.76301 -4.45483 0
M  V30 4252 H 432.811 -0.846603 -2.40218 0
M  V30 4253 H 433.594 -2.51666 -2.33493 0
M  V30 4254 N 436.039 1.36541 -0.78704 0
M  V30 4255 C 437.264 2.0409 -0.369053 0
M  V30 4256 C 437.689 1.58957 1.00569 0
M  V30 4257 O 437.047 0.756926 1.64743 0
M  V30 4258 C 437.095 3.57924 -0.438466 0
M  V30 4259 O 436.199 4.08642 0.555479 0
M  V30 4260 H 435.54 0.645142 -0.157122 0
M  V30 4261 H 438.07 1.74545 -1.06749 0
M  V30 4262 H 438.08 4.06887 -0.301218 0
M  V30 4263 H 436.755 3.90127 -1.44132 0
M  V30 4264 H 435.332 3.70958 0.380088 0
M  V30 4265 N 437.518 0.538854 1.48102 0
M  V30 4266 C 438.743 0.0102694 2.07397 0
M  V30 4267 C 439.168 -1.26562 1.39153 0
M  V30 4268 O 438.526 -1.75357 0.460387 0
M  V30 4269 C 438.574 -0.187602 3.60112 0
M  V30 4270 O 437.678 -1.25432 3.92862 0
M  V30 4271 H 437.019 0.0430975 0.6626 0
M  V30 4272 H 439.549 0.749301 1.90385 0
M  V30 4273 H 439.559 -0.407517 4.0596 0
M  V30 4274 H 438.234 0.744386 4.09184 0
M  V30 4275 H 436.811 -1.01636 3.58782 0
M  V30 4276 N 438.996 -1.55193 0.274407 0
M  V30 4277 C 440.224 -2.03987 -0.345943 0
M  V30 4278 C 440.639 -1.15279 -1.4952 0
M  V30 4279 O 439.996 -0.172759 -1.8168 0
M  V30 4280 C 440.047 -3.51898 -0.827631 0
M  V30 4281 O 439.768 -4.37231 0.275855 0
M  V30 4282 C 441.269 -4.16577 -1.51587 0
M  V30 4283 H 438.489 -0.666335 -0.0789892 0
M  V30 4284 H 441.033 -2.00423 0.406294 0
M  V30 4285 H 439.188 -3.55909 -1.52996 0
M  V30 4286 H 439.602 -5.24415 -0.0943638 0
M  V30 4287 H 441.076 -5.21678 -1.80433 0
M  V30 4288 H 441.553 -3.64707 -2.44716 0
M  V30 4289 H 442.159 -4.16568 -0.857409 0
M  V30 4290 N 440.474 -0.00167713 -1.576 0
M  V30 4291 C 441.422 1.0074 -2.09652 0
M  V30 4292 C 442.416 1.35483 -1.01689 0
M  V30 4293 O 443.622 1.34028 -1.20152 0
M  V30 4294 H 439.997 0.342537 -0.669457 0
M  V30 4295 H 441.968 0.542841 -2.93421 0
M  V30 4296 C 440.717 2.2899 -2.61647 0
M  V30 4297 H 440.04 2.03124 -3.44355 0
M  V30 4298 H 441.48 2.9787 -3.01744 0
M  V30 4299 C 439.939 3.00085 -1.53136 0
M  V30 4300 O 440.469 3.91135 -0.91524 0
M  V30 4301 N 438.675 2.6194 -1.25841 0
M  V30 4302 H 438.222 1.8798 -1.76129 0
M  V30 4303 H 438.18 3.09822 -0.534576 0
M  V30 4304 N 441.952 1.55251 0.271103 0
M  V30 4305 C 443.363 1.66635 0.842007 0
M  V30 4306 C 443.714 0.594631 1.86972 0
M  V30 4307 O 442.839 -0.263532 2.14789 0
M  V30 4308 C 443.434 3.02082 1.53401 0
M  V30 4309 C 441.993 3.15487 2.05293 0
M  V30 4310 C 441.14 2.62438 0.895631 0
M  V30 4311 H 444.091 1.58629 0.0474117 0
M  V30 4312 H 444.112 2.95176 2.40107 0
M  V30 4313 H 443.624 3.80062 0.785786 0
M  V30 4314 H 441.725 2.42284 2.83071 0
M  V30 4315 H 441.838 4.22075 2.26693 0
M  V30 4316 H 440.202 2.19644 1.28953 0
M  V30 4317 H 440.985 3.42923 0.160878 0
M  V30 4318 N 443.43 -0.535701 1.48216 0
M  V30 4319 C 444.658 -1.31671 1.59594 0
M  V30 4320 C 445.073 -1.87083 0.254056 0
M  V30 4321 O 444.43 -1.66112 -0.755854 0
M  V30 4322 C 444.481 -2.47158 2.63809 0
M  V30 4323 O 444.202 -1.94032 3.92789 0
M  V30 4324 C 445.703 -3.39062 2.85573 0
M  V30 4325 H 442.923 -0.400623 0.538277 0
M  V30 4326 H 445.467 -0.646827 1.94001 0
M  V30 4327 H 443.622 -3.10043 2.32276 0
M  V30 4328 H 444.036 -2.69585 4.49916 0
M  V30 4329 H 445.51 -4.16459 3.62306 0
M  V30 4330 H 445.987 -3.93941 1.94184 0
M  V30 4331 H 446.593 -2.81975 3.18387 0
M  V30 4332 N 444.908 -1.36708 -0.784132 0
M  V30 4333 C 445.838 -1.34153 -1.91116 0
M  V30 4334 C 446.819 -0.212121 -1.68772 0
M  V30 4335 O 448.004 -0.410581 -1.8981 0
M  V30 4336 C 445.134 -1.13535 -3.28218 0
M  V30 4337 C 444.088 -2.23356 -3.65097 0
M  V30 4338 C 443.414 -1.87875 -5.00607 0
M  V30 4339 C 444.714 -3.65473 -3.73131 0
M  V30 4340 H 446.408 -2.28459 -1.93512 0
M  V30 4341 H 443.954 -1.09973 -0.929618 0
M  V30 4342 H 445.907 -1.10381 -4.06687 0
M  V30 4343 H 444.631 -0.156804 -3.26223 0
M  V30 4344 H 443.29 -2.25645 -2.88929 0
M  V30 4345 H 442.938 -0.885814 -4.95139 0
M  V30 4346 H 442.638 -2.61406 -5.26252 0
M  V30 4347 H 444.162 -1.86286 -5.81489 0
M  V30 4348 H 445.576 -3.65382 -4.41779 0
M  V30 4349 H 443.973 -4.37953 -4.10265 0
M  V30 4350 H 445.043 -3.99995 -2.74102 0
M  V30 4351 N 446.386 1.0089 -1.21074 0
M  V30 4352 C 447.797 1.56056 -1.02486 0
M  V30 4353 C 448.148 1.91728 0.416506 0
M  V30 4354 O 447.273 1.73066 1.29912 0
M  V30 4355 C 447.868 2.83563 -1.85411 0
M  V30 4356 C 446.427 3.3523 -1.71166 0
M  V30 4357 C 445.574 2.0846 -1.82865 0
M  V30 4358 H 448.525 0.831818 -1.35154 0
M  V30 4359 H 448.546 3.55286 -1.36205 0
M  V30 4360 H 448.058 2.57569 -2.9031 0
M  V30 4361 H 446.159 3.66167 -0.689361 0
M  V30 4362 H 446.272 4.06913 -2.52901 0
M  V30 4363 H 444.636 2.21275 -1.26132 0
M  V30 4364 H 445.419 1.84883 -2.89263 0
M  V30 4365 N 447.864 1.01787 1.20321 0
M  V30 4366 C 449.094 0.72614 1.93419 0
M  V30 4367 C 449.502 -0.717317 1.75075 0
M  V30 4368 O 448.845 -1.49836 1.06278 0
M  V30 4369 C 448.907 0.983621 3.45782 0
M  V30 4370 C 448.571 2.41645 3.87888 0
M  V30 4371 C 449.568 3.39732 3.93545 0
M  V30 4372 C 447.253 2.75752 4.19841 0
M  V30 4373 C 449.247 4.69988 4.30569 0
M  V30 4374 C 446.934 4.06221 4.56539 0
M  V30 4375 C 447.932 5.0315 4.61876 0
M  V30 4376 O 447.62 6.31284 4.97731 0
M  V30 4377 H 447.352 0.265824 0.621541 0
M  V30 4378 H 449.906 1.3623 1.53722 0
M  V30 4379 H 448.136 0.290301 3.85609 0
M  V30 4380 H 449.825 0.683279 4.00108 0
M  V30 4381 H 450.591 3.14718 3.69022 0
M  V30 4382 H 446.47 2.00993 4.14877 0
M  V30 4383 H 450.014 5.45642 4.3465 0
M  V30 4384 H 445.911 4.31013 4.80518 0
M  V30 4385 H 446.679 6.35591 5.15719 0
M  V30 4386 N 449.342 -1.36122 0.79427 0
M  V30 4387 C 450.57 -2.03362 0.380989 0
M  V30 4388 C 450.985 -1.59881 -1.00416 0
M  V30 4389 O 450.342 -0.790515 -1.6449 0
M  V30 4390 C 450.393 -3.58804 0.440649 0
M  V30 4391 O 450.114 -4.007 1.77118 0
M  V30 4392 C 451.615 -4.43296 0.0186117 0
M  V30 4393 H 448.835 -0.652526 0.156367 0
M  V30 4394 H 451.379 -1.73998 1.07447 0
M  V30 4395 H 449.534 -3.8686 -0.204458 0
M  V30 4396 H 449.948 -4.95309 1.72538 0
M  V30 4397 H 451.422 -5.51887 0.111488 0
M  V30 4398 H 451.899 -4.2684 -1.03461 0
M  V30 4399 H 452.505 -4.20512 0.636395 0
M  V30 4400 N 450.82 -0.546701 -1.47814 0
M  V30 4401 C 451.75 0.195317 -2.32682 0
M  V30 4402 C 452.731 0.918981 -1.43139 0
M  V30 4403 O 453.916 0.901501 -1.72008 0
M  V30 4404 C 451.046 1.23237 -3.247 0
M  V30 4405 C 450 0.625818 -4.234 0
M  V30 4406 C 449.326 1.76674 -5.04669 0
M  V30 4407 C 450.626 -0.413515 -5.2066 0
M  V30 4408 H 452.32 -0.513184 -2.94969 0
M  V30 4409 H 449.866 -0.248241 -1.41844 0
M  V30 4410 H 451.819 1.75955 -3.82907 0
M  V30 4411 H 450.543 1.97067 -2.60446 0
M  V30 4412 H 449.202 0.120023 -3.66403 0
M  V30 4413 H 448.85 2.49383 -4.36826 0
M  V30 4414 H 448.55 1.36673 -5.71484 0
M  V30 4415 H 450.074 2.29738 -5.65732 0
M  V30 4416 H 451.488 0.0272042 -5.73294 0
M  V30 4417 H 449.885 -0.731825 -5.95621 0
M  V30 4418 H 450.955 -1.31325 -4.66778 0
M  V30 4419 N 452.299 1.55045 -0.282633 0
M  V30 4420 C 453.247 2.24254 0.617478 0
M  V30 4421 C 454.241 1.24215 1.15183 0
M  V30 4422 O 455.447 1.42123 1.10459 0
M  V30 4423 H 451.822 0.719801 0.217693 0
M  V30 4424 H 453.793 2.98398 0.0110076 0
M  V30 4425 C 452.542 2.98281 1.78672 0
M  V30 4426 H 451.865 3.75053 1.38475 0
M  V30 4427 H 453.305 3.50017 2.393 0
M  V30 4428 C 451.764 2.04184 2.67975 0
M  V30 4429 O 452.294 1.59792 3.6855 0
M  V30 4430 N 450.5 1.70526 2.35307 0
M  V30 4431 H 450.047 2.06821 1.53567 0
M  V30 4432 H 450.005 1.07839 2.95327 0
M  V30 4433 N 453.777 0.010035 1.57597 0
M  V30 4434 C 455.005 -0.683413 1.95287 0
M  V30 4435 C 455.42 -1.66747 0.885481 0
M  V30 4436 O 454.777 -1.82003 -0.134629 0
M  V30 4437 C 454.828 -1.40652 3.33015 0
M  V30 4438 O 454.549 -0.461916 4.35658 0
M  V30 4439 C 456.05 -2.19356 3.85225 0
M  V30 4440 H 453.27 -0.189708 0.643624 0
M  V30 4441 H 455.814 0.0641359 2.04399 0
M  V30 4442 H 453.969 -2.10562 3.2518 0
M  V30 4443 H 454.383 -0.973215 5.15392 0
M  V30 4444 H 455.857 -2.65433 4.83993 0
M  V30 4445 H 456.334 -3.02457 3.18459 0
M  V30 4446 H 456.94 -1.54442 3.96267 0
M  V30 4447 N 455.255 -1.55392 -0.262866 0
M  V30 4448 C 456.504 -1.75679 -0.990943 0
M  V30 4449 C 456.817 -0.57097 -1.87081 0
M  V30 4450 O 458.023 -0.656486 -2.63444 0
M  V30 4451 C 456.479 -3.10964 -1.81188 0
M  V30 4452 C 456.087 -4.37146 -0.980188 0
M  V30 4453 C 457.831 -3.40597 -2.53365 0
M  V30 4454 C 455.738 -5.63466 -1.7961 0
M  V30 4455 H 454.668 -0.654868 -0.373716 0
M  V30 4456 H 457.319 -1.81841 -0.246203 0
M  V30 4457 H 455.701 -2.98867 -2.59797 0
M  V30 4458 H 456.875 -4.60187 -0.237558 0
M  V30 4459 H 455.19 -4.14731 -0.372497 0
M  V30 4460 H 457.787 -4.32186 -3.14833 0
M  V30 4461 H 458.13 -2.6119 -3.24169 0
M  V30 4462 H 458.663 -3.53838 -1.81779 0
M  V30 4463 H 455.402 -6.4565 -1.13209 0
M  V30 4464 H 454.922 -5.44552 -2.51443 0
M  V30 4465 H 456.601 -6.02139 -2.36723 0
M  V30 4466 N 456.733 0.527833 -1.48498 0
M  V30 4467 C 458.01 1.28905 -1.47115 0
M  V30 4468 C 458.39 2.10297 -0.184007 0
M  V30 4469 O 457.738 2.12728 0.834218 0
M  V30 4470 C 457.948 2.16866 -2.73441 0
M  V30 4471 C 459.296 2.76936 -3.21857 0
M  V30 4472 O 460.32 2.27152 -2.74373 0
M  V30 4473 O 459.179 3.67496 -4.04486 0
M  V30 4474 H 456.273 0.581918 -0.587623 0
M  V30 4475 H 458.819 0.544311 -1.60734 0
M  V30 4476 H 457.591 1.56521 -3.58632 0
M  V30 4477 H 457.214 2.98583 -2.62553 0
M  V30 4478 N 458.211 1.37122 0.776871 0
M  V30 4479 C 459.121 1.34651 1.9211 0
M  V30 4480 C 460.137 0.246824 1.7224 0
M  V30 4481 O 461.313 0.48134 1.95563 0
M  V30 4482 C 458.378 1.14748 3.2716 0
M  V30 4483 C 457.439 2.34308 3.5972 0
M  V30 4484 C 456.672 2.15345 4.88326 0
M  V30 4485 O 456.895 1.13507 5.58992 0
M  V30 4486 O 455.829 3.03414 5.1983 0
M  V30 4487 H 459.655 2.31013 1.97146 0
M  V30 4488 H 457.24 1.17799 0.918901 0
M  V30 4489 H 459.122 1.05616 4.0795 0
M  V30 4490 H 457.797 0.214562 3.22988 0
M  V30 4491 H 456.704 2.49011 2.79185 0
M  V30 4492 H 458.037 3.26149 3.68629 0
M  V30 4493 N 459.689 -1.00246 1.21608 0
M  V30 4494 C 460.639 -2.07492 0.945051 0
M  V30 4495 C 461.623 -1.60585 -0.100675 0
M  V30 4496 O 462.815 -1.76667 0.10859 0
M  V30 4497 C 459.944 -3.39425 0.514342 0
M  V30 4498 C 459.03 -3.92993 1.59428 0
M  V30 4499 N 459.421 -4.19898 2.81991 0
M  V30 4500 C 457.719 -4.21297 1.46374 0
M  V30 4501 C 458.42 -4.63297 3.51754 0
M  V30 4502 N 457.396 -4.66421 2.79199 0
M  V30 4503 H 461.198 -2.26222 1.87619 0
M  V30 4504 H 458.712 -1.18339 1.11219 0
M  V30 4505 H 460.709 -4.15808 0.301527 0
M  V30 4506 H 459.369 -3.22101 -0.410008 0
M  V30 4507 H 460.38 -4.08377 3.1851 0
M  V30 4508 H 457.057 -4.13095 0.604863 0
M  V30 4509 H 458.447 -4.92816 4.56708 0
M  V30 4510 N 461.167 -1.02423 -1.1978 0
M  V30 4511 C 462.097 -0.62157 -2.25075 0
M  V30 4512 C 463.078 0.367148 -1.6609 0
M  V30 4513 O 464.263 0.250892 -1.92573 0
M  V30 4514 C 461.393 0.0331826 -3.47284 0
M  V30 4515 C 460.347 -0.877323 -4.18912 0
M  V30 4516 C 459.673 -0.0879296 -5.34628 0
M  V30 4517 C 460.973 -2.18892 -4.74219 0
M  V30 4518 H 462.667 -1.50179 -2.59011 0
M  V30 4519 H 460.213 -0.723547 -1.24502 0
M  V30 4520 H 462.166 0.326488 -4.20133 0
M  V30 4521 H 460.89 0.948164 -3.12534 0
M  V30 4522 H 459.549 -1.15475 -3.47938 0
M  V30 4523 H 459.197 0.828941 -4.96123 0
M  V30 4524 H 458.897 -0.694359 -5.83483 0
M  V30 4525 H 460.421 0.198743 -6.10276 0
M  V30 4526 H 461.835 -1.95746 -5.38847 0
M  V30 4527 H 460.232 -2.74686 -5.33542 0
M  V30 4528 H 461.302 -2.84674 -3.92541 0
M  V30 4529 N 462.645 1.35699 -0.801477 0
M  V30 4530 C 463.922 1.9324 -0.302937 0
M  V30 4531 C 464.302 1.73209 1.20672 0
M  V30 4532 O 463.65 1.09809 2.00385 0
M  V30 4533 C 463.86 3.41728 -0.708747 0
M  V30 4534 C 465.208 4.18868 -0.695328 0
M  V30 4535 O 466.232 3.5022 -0.649971 0
M  V30 4536 O 465.091 5.41342 -0.749081 0
M  V30 4537 H 462.185 0.82331 -0.0780367 0
M  V30 4538 H 464.731 1.44806 -0.884832 0
M  V30 4539 H 463.503 3.50015 -1.74944 0
M  V30 4540 H 463.126 3.97471 -0.101384 0
M  V30 4541 N 464.123 0.554532 1.47522 0
M  V30 4542 C 465.056 -0.242442 2.26908 0
M  V30 4543 C 466.034 -0.922722 1.33883 0
M  V30 4544 O 467.218 -0.942244 1.63261 0
M  V30 4545 C 464.345 -1.34525 3.10839 0
M  V30 4546 C 463.391 -0.773805 4.19422 0
M  V30 4547 S 464.224 0.377525 5.34168 0
M  V30 4548 C 465.38 -0.727164 6.21662 0
M  V30 4549 H 465.613 0.431218 2.94156 0
M  V30 4550 H 463.146 0.3408 1.50592 0
M  V30 4551 H 465.104 -1.97683 3.59766 0
M  V30 4552 H 463.765 -1.99073 2.42958 0
M  V30 4553 H 462.958 -1.60187 4.77866 0
M  V30 4554 H 462.56 -0.218448 3.73361 0
M  V30 4555 H 464.852 -1.61992 6.57849 0
M  V30 4556 H 465.795 -0.180135 7.07871 0
M  V30 4557 H 466.203 -1.01863 5.55233 0
M  V30 4558 N 465.601 -1.54893 0.290851 0
M  V30 4559 C 466.531 -2.26103 -0.583084 0
M  V30 4560 C 467.512 -1.25684 -1.14619 0
M  V30 4561 O 468.697 -1.54436 -1.17741 0
M  V30 4562 C 465.827 -2.99409 -1.75987 0
M  V30 4563 C 464.781 -4.0689 -1.32758 0
M  V30 4564 C 464.107 -4.67856 -2.58872 0
M  V30 4565 C 465.407 -5.20215 -0.46624 0
M  V30 4566 H 467.101 -2.99398 0.0108214 0
M  V30 4567 H 464.647 -1.43998 0.00664468 0
M  V30 4568 H 466.6 -3.47943 -2.37727 0
M  V30 4569 H 465.324 -2.23675 -2.37985 0
M  V30 4570 H 463.983 -3.59191 -0.733299 0
M  V30 4571 H 463.631 -3.88772 -3.19163 0
M  V30 4572 H 463.331 -5.40438 -2.30653 0
M  V30 4573 H 464.855 -5.19147 -3.21433 0
M  V30 4574 H 466.269 -5.64704 -0.989047 0
M  V30 4575 H 464.666 -5.99455 -0.27826 0
M  V30 4576 H 465.736 -4.82198 0.511173 0
M  V30 4577 N 467.08 -0.0183926 -1.57589 0
M  V30 4578 C 468.013 1.00148 -2.0505 0
M  V30 4579 C 468.991 1.32387 -0.944058 0
M  V30 4580 O 470.175 1.44237 -1.21358 0
M  V30 4581 C 467.302 2.32435 -2.46357 0
M  V30 4582 C 466.348 2.15731 -3.67916 0
M  V30 4583 S 467.181 1.46613 -5.15039 0
M  V30 4584 C 468.337 2.80293 -5.59631 0
M  V30 4585 H 468.57 0.597429 -2.91235 0
M  V30 4586 H 466.103 0.193002 -1.53189 0
M  V30 4587 H 468.061 3.0849 -2.70822 0
M  V30 4588 H 466.722 2.69975 -1.60537 0
M  V30 4589 H 465.915 3.13502 -3.9463 0
M  V30 4590 H 465.517 1.4782 -3.43548 0
M  V30 4591 H 467.809 3.76557 -5.63215 0
M  V30 4592 H 468.752 2.58256 -6.59325 0
M  V30 4593 H 469.16 2.85047 -4.87246 0
M  V30 4594 N 468.558 1.5553 0.254621 0
M  V30 4595 C 469.804 1.77262 0.985193 0
M  V30 4596 C 470.137 0.582286 1.85265 0
M  V30 4597 O 469.412 -0.419666 1.89919 0
M  V30 4598 C 469.695 3.0881 1.85225 0
M  V30 4599 C 469.548 4.38233 1.0135 0
M  V30 4600 C 470.867 3.3653 2.83612 0
M  V30 4601 H 467.986 0.644906 0.356742 0
M  V30 4602 H 470.628 1.88264 0.256236 0
M  V30 4603 H 468.778 2.99562 2.47376 0
M  V30 4604 H 470.45 4.59463 0.411269 0
M  V30 4605 H 468.693 4.32636 0.317574 0
M  V30 4606 H 469.364 5.26644 1.65379 0
M  V30 4607 H 471.84 3.45691 2.31596 0
M  V30 4608 H 470.716 4.29805 3.41407 0
M  V30 4609 H 470.977 2.57064 3.59681 0
M  V30 4610 N 470.036 -0.519951 1.48776 0
M  V30 4611 C 471.276 -1.2856 1.58908 0
M  V30 4612 C 471.64 -1.90212 0.261418 0
M  V30 4613 O 472.841 -2.67746 0.237791 0
M  V30 4614 C 471.112 -2.33836 2.70288 0
M  V30 4615 S 472.671 -3.19992 3.0025 0
M  V30 4616 H 469.489 -0.43717 0.560717 0
M  V30 4617 H 472.091 -0.591205 1.86346 0
M  V30 4618 H 470.795 -1.87041 3.653 0
M  V30 4619 H 470.326 -3.07969 2.44783 0
M  V30 4620 H 472.341 -4.34122 2.40317 0
M  V30 4621 N 471.514 -1.37532 -0.769588 0
M  V30 4622 C 472.464 -1.29984 -1.87318 0
M  V30 4623 C 473.448 -0.187242 -1.59807 0
M  V30 4624 O 474.64 -0.421827 -1.719 0
M  V30 4625 C 471.769 -1.11126 -3.24817 0
M  V30 4626 C 470.855 -2.26939 -3.58273 0
M  V30 4627 N 471.246 -3.52336 -3.62895 0
M  V30 4628 C 469.544 -2.19141 -3.8845 0
M  V30 4629 C 470.245 -4.28719 -3.9316 0
M  V30 4630 N 469.221 -3.57884 -4.0917 0
M  V30 4631 H 473.023 -2.24946 -1.89147 0
M  V30 4632 H 470.537 -1.30535 -0.966143 0
M  V30 4633 H 472.534 -1.03803 -4.0377 0
M  V30 4634 H 471.194 -0.17083 -3.2425 0
M  V30 4635 H 472.205 -3.86216 -3.45048 0
M  V30 4636 H 468.882 -1.33167 -3.95693 0
M  V30 4637 H 470.272 -5.37254 -4.03494 0
M  V30 4638 N 472.992 0.995999 -1.22138 0
M  V30 4639 C 473.942 2.06988 -0.956042 0
M  V30 4640 C 474.926 1.60636 0.0921576 0
M  V30 4641 O 476.118 1.76607 -0.117958 0
M  V30 4642 C 473.247 3.39148 -0.532335 0
M  V30 4643 C 472.333 3.92142 -1.61509 0
M  V30 4644 N 472.724 4.18397 -2.84214 0
M  V30 4645 C 471.022 4.20514 -1.48606 0
M  V30 4646 C 471.723 4.61425 -3.54206 0
M  V30 4647 N 470.699 4.64934 -2.81669 0
M  V30 4648 H 474.501 2.25223 -1.88816 0
M  V30 4649 H 472.015 1.17748 -1.11845 0
M  V30 4650 H 474.012 4.15642 -0.323574 0
M  V30 4651 H 472.672 3.22314 0.392921 0
M  V30 4652 H 473.683 4.06682 -3.20671 0
M  V30 4653 H 470.36 4.12769 -0.626762 0
M  V30 4654 H 471.75 4.90387 -4.59315 0
M  V30 4655 N 474.47 1.03057 1.19235 0
M  V30 4656 C 475.4 0.633497 2.24742 0
M  V30 4657 C 476.381 -0.358335 1.66283 0
M  V30 4658 O 477.566 -0.240676 1.92703 0
M  V30 4659 C 474.696 -0.0147648 3.47297 0
M  V30 4660 C 473.65 0.899527 4.18441 0
M  V30 4661 C 472.976 0.116281 5.34574 0
M  V30 4662 C 474.276 2.21404 4.73051 0
M  V30 4663 H 475.97 1.5155 2.58211 0
M  V30 4664 H 473.516 0.73014 1.24117 0
M  V30 4665 H 475.469 -0.304202 4.20301 0
M  V30 4666 H 474.193 -0.931577 3.13032 0
M  V30 4667 H 472.852 1.17319 3.47321 0
M  V30 4668 H 472.5 -0.802619 4.96555 0
M  V30 4669 H 472.2 0.725293 5.83107 0
M  V30 4670 H 473.724 -0.166376 6.10373 0
M  V30 4671 H 475.138 1.98601 5.37802 0
M  V30 4672 H 473.535 2.77512 5.32078 0
M  V30 4673 H 474.605 2.86752 3.91026 0
M  V30 4674 N 475.948 -1.35272 0.808662 0
M  V30 4675 C 477.225 -1.93077 0.313181 0
M  V30 4676 C 477.605 -1.73847 -1.19752 0
M  V30 4677 O 476.953 -1.1087 -1.998 0
M  V30 4678 C 477.163 -3.41347 0.726859 0
M  V30 4679 C 478.511 -4.18493 0.717532 0
M  V30 4680 O 479.535 -3.4987 0.668535 0
M  V30 4681 O 478.394 -5.40937 0.777779 0
M  V30 4682 H 475.488 -0.822885 0.0824018 0
M  V30 4683 H 478.034 -1.44335 0.892499 0
M  V30 4684 H 476.806 -3.49082 1.76797 0
M  V30 4685 H 476.429 -3.97411 0.122461 0
M  V30 4686 N 477.426 -0.562348 -1.47226 0
M  V30 4687 C 478.837 -0.130325 -1.86245 0
M  V30 4688 C 479.188 1.30128 -1.46838 0
M  V30 4689 O 478.313 1.97974 -0.873805 0
M  V30 4690 C 478.908 -0.229738 -3.3802 0
M  V30 4691 C 477.467 0.14728 -3.76112 0
M  V30 4692 C 476.614 -0.574971 -2.71274 0
M  V30 4693 H 479.565 -0.771773 -1.3867 0
M  V30 4694 H 479.586 0.550316 -3.76499 0
M  V30 4695 H 479.098 -1.27178 -3.66671 0
M  V30 4696 H 477.199 1.19023 -3.53078 0
M  V30 4697 H 477.312 -0.214858 -4.78618 0
M  V30 4698 H 475.676 -0.0174756 -2.54694 0
M  V30 4699 H 476.459 -1.61827 -3.02766 0
M  V30 4700 N 478.904 1.54736 -0.299062 0
M  V30 4701 C 480.181 1.92187 0.363802 0
M  V30 4702 C 480.561 1.22607 1.71845 0
M  V30 4703 O 479.909 0.361141 2.25628 0
M  V30 4704 C 480.119 3.45678 0.480377 0
M  V30 4705 C 481.467 4.17885 0.752147 0
M  V30 4706 O 482.491 3.51702 0.564264 0
M  V30 4707 O 481.35 5.35048 1.11294 0
M  V30 4708 H 478.444 0.801681 0.203066 0
M  V30 4709 H 480.99 1.66115 -0.346978 0
M  V30 4710 H 479.762 3.88443 -0.471999 0
M  V30 4711 H 479.385 3.77779 1.2397 0
M  V30 4712 N 480.382 0.0267497 1.57577 0
M  V30 4713 C 481.631 -0.651736 1.9088 0
M  V30 4714 C 481.944 -1.73427 0.904576 0
M  V30 4715 O 483.15 -2.46923 1.12877 0
M  V30 4716 C 481.606 -1.21048 3.38933 0
M  V30 4717 C 481.214 -0.161362 4.47709 0
M  V30 4718 C 482.958 -1.86562 3.81307 0
M  V30 4719 C 480.865 -0.731611 5.86857 0
M  V30 4720 H 479.795 -0.247198 0.712326 0
M  V30 4721 H 482.446 0.0916641 1.83271 0
M  V30 4722 H 480.828 -2.00542 3.41466 0
M  V30 4723 H 482.002 0.61094 4.56732 0
M  V30 4724 H 480.317 0.394877 4.14523 0
M  V30 4725 H 482.914 -2.30178 4.8262 0
M  V30 4726 H 483.257 -2.70735 3.16241 0
M  V30 4727 H 483.79 -1.13762 3.81186 0
M  V30 4728 H 480.529 0.0719329 6.55461 0
M  V30 4729 H 480.049 -1.47245 5.81445 0
M  V30 4730 H 481.728 -1.22208 6.35354 0
M  V30 4731 N 481.861 -1.55662 -0.24637 0
M  V30 4732 C 482.824 -1.89558 -1.28842 0
M  V30 4733 C 483.824 -0.772082 -1.41052 0
M  V30 4734 O 485.014 -1.04007 -1.39743 0
M  V30 4735 C 482.146 -2.12449 -2.66605 0
M  V30 4736 H 483.339 -2.82735 -1.00004 0
M  V30 4737 H 480.892 -1.48562 -0.485684 0
M  V30 4738 H 481.627 -1.21742 -3.00582 0
M  V30 4739 H 481.412 -2.94273 -2.59125 0
M  V30 4740 H 482.902 -2.39854 -3.41847 0
M  V30 4741 N 483.339 0.512053 -1.4905 0
M  V30 4742 C 484.249 1.64139 -1.67617 0
M  V30 4743 C 485.265 1.64786 -0.558701 0
M  V30 4744 O 486.441 1.8341 -0.832034 0
M  V30 4745 C 483.506 3.00548 -1.72835 0
M  V30 4746 C 482.567 3.10615 -2.96339 0
M  V30 4747 C 481.8 4.40517 -3.01298 0
M  V30 4748 O 482.023 5.28671 -2.14157 0
M  V30 4749 O 480.957 4.55325 -3.93653 0
M  V30 4750 H 484.783 1.51407 -2.63267 0
M  V30 4751 H 482.368 0.687131 -1.32661 0
M  V30 4752 H 484.25 3.81641 -1.78683 0
M  V30 4753 H 482.925 3.13566 -0.803616 0
M  V30 4754 H 481.832 2.2875 -2.96014 0
M  V30 4755 H 483.165 3.0252 -3.88256 0
M  V30 4756 N 484.817 1.37938 0.762283 0
M  V30 4757 C 486.094 1.24196 1.51112 0
M  V30 4758 C 486.474 -0.160409 2.1049 0
M  V30 4759 O 485.822 -1.16904 1.96331 0
M  V30 4760 C 486.032 2.34537 2.58445 0
M  V30 4761 C 487.38 2.7254 3.25588 0
M  V30 4762 O 488.404 2.33783 2.68745 0
M  V30 4763 O 487.263 3.39343 4.28379 0
M  V30 4764 H 484.357 0.485175 0.669727 0
M  V30 4765 H 486.903 1.49743 0.798438 0
M  V30 4766 H 485.675 3.28406 2.12756 0
M  V30 4767 H 485.298 2.10505 3.37303 0
M  V30 4768 N 486.295 -0.989507 1.22664 0
M  V30 4769 C 487.541 -1.7321 1.05481 0
M  V30 4770 C 487.874 -1.89852 -0.408635 0
M  V30 4771 O 487.149 -1.44416 -1.30285 0
M  V30 4772 C 487.432 -3.1357 1.77047 0
M  V30 4773 C 487.285 -3.04555 3.31008 0
M  V30 4774 C 488.604 -4.12812 1.5256 0
M  V30 4775 H 485.723 -0.628697 0.384589 0
M  V30 4776 H 488.365 -1.15258 1.51049 0
M  V30 4777 H 486.515 -3.63046 1.3831 0
M  V30 4778 H 488.187 -2.62674 3.7921 0
M  V30 4779 H 486.43 -2.41278 3.6051 0
M  V30 4780 H 487.101 -4.03894 3.76263 0
M  V30 4781 H 489.577 -3.72106 1.86215 0
M  V30 4782 H 488.453 -5.09132 2.05124 0
M  V30 4783 H 488.714 -4.39711 0.458936 0
M  V30 4784 N 487.773 -1.03688 -1.18687 0
M  V30 4785 C 488.736 -0.629115 -2.20397 0
M  V30 4786 C 489.736 0.311495 -1.57754 0
M  V30 4787 O 490.926 0.0974107 -1.73927 0
M  V30 4788 C 488.058 0.0782231 -3.4081 0
M  V30 4789 H 489.251 -1.52915 -2.57987 0
M  V30 4790 H 486.804 -0.828988 -1.32505 0
M  V30 4791 H 487.539 0.992233 -3.08748 0
M  V30 4792 H 487.324 -0.597776 -3.87517 0
M  V30 4793 H 488.814 0.350156 -4.16129 0
M  V30 4794 N 489.251 1.34841 -0.815825 0
M  V30 4795 C 490.498 1.98499 -0.400535 0
M  V30 4796 C 490.826 1.64699 1.03463 0
M  V30 4797 O 490.081 0.907006 1.73412 0
M  V30 4798 C 490.38 3.53273 -0.541541 0
M  V30 4799 C 490.046 4.06966 -1.94138 0
M  V30 4800 C 488.708 4.21341 -2.32433 0
M  V30 4801 C 491.06 4.35933 -2.85677 0
M  V30 4802 C 488.388 4.62007 -3.61617 0
M  V30 4803 C 490.74 4.78042 -4.14317 0
M  V30 4804 C 489.404 4.90622 -4.52599 0
M  V30 4805 H 488.674 0.72636 -0.146566 0
M  V30 4806 H 491.321 1.60902 -1.0384 0
M  V30 4807 H 489.626 3.91387 0.179741 0
M  V30 4808 H 491.323 4.00497 -0.20085 0
M  V30 4809 H 487.913 3.96235 -1.63388 0
M  V30 4810 H 492.097 4.24372 -2.57337 0
M  V30 4811 H 487.353 4.69937 -3.91113 0
M  V30 4812 H 491.527 4.99415 -4.85342 0
M  V30 4813 H 489.154 5.2189 -5.52752 0
M  V30 4814 N 490.729 0.570148 1.46925 0
M  V30 4815 C 491.692 -0.159933 2.28641 0
M  V30 4816 C 492.692 -0.830638 1.37685 0
M  V30 4817 O 493.882 -0.684516 1.60187 0
M  V30 4818 C 491.014 -1.2354 3.17727 0
M  V30 4819 H 492.207 0.558035 2.94662 0
M  V30 4820 H 489.76 0.327603 1.52828 0
M  V30 4821 H 490.495 -1.98535 2.56426 0
M  V30 4822 H 490.28 -0.759125 3.84681 0
M  V30 4823 H 491.77 -1.74782 3.79264 0
M  V30 4824 N 492.207 -1.54576 0.307264 0
M  V30 4825 C 493.117 -2.27435 -0.57536 0
M  V30 4826 C 494.133 -1.31183 -1.14311 0
M  V30 4827 O 495.309 -1.64175 -1.16656 0
M  V30 4828 C 492.374 -3.00566 -1.72803 0
M  V30 4829 C 491.435 -4.12369 -1.19373 0
M  V30 4830 C 490.668 -4.82003 -2.29147 0
M  V30 4831 O 490.891 -4.51038 -3.49171 0
M  V30 4832 O 489.825 -5.69271 -1.95485 0
M  V30 4833 H 493.651 -3.03696 0.0158558 0
M  V30 4834 H 491.236 -1.49219 0.0735064 0
M  V30 4835 H 493.118 -3.46416 -2.39946 0
M  V30 4836 H 491.793 -2.27195 -2.30574 0
M  V30 4837 H 490.7 -3.70905 -0.487851 0
M  V30 4838 H 492.033 -4.87736 -0.661376 0
M  V30 4839 N 493.685 -0.035106 -1.57561 0
M  V30 4840 C 494.91 0.655802 -1.96759 0
M  V30 4841 C 495.335 1.64523 -0.911809 0
M  V30 4842 O 494.693 1.80857 0.126673 0
M  V30 4843 C 494.741 1.33326 -3.35047 0
M  V30 4844 O 493.845 2.44866 -3.31835 0
M  V30 4845 H 493.186 0.171807 -0.641388 0
M  V30 4846 H 495.716 -0.0987369 -2.04362 0
M  V30 4847 H 495.726 1.68867 -3.71413 0
M  V30 4848 H 494.401 0.608033 -4.11431 0
M  V30 4849 H 492.978 2.11392 -3.07193 0
M  V30 4850 N 495.163 1.55791 0.238111 0
M  V30 4851 C 496.579 1.48411 0.587045 0
M  V30 4852 C 496.779 0.72702 1.87927 0
M  V30 4853 O 495.835 0.259942 2.51158 0
M  V30 4854 C 497.148 2.92873 0.681623 0
M  V30 4855 C 498.696 3.03295 0.773363 0
M  V30 4856 C 499.171 4.49082 0.899428 0
M  V30 4857 N 500.662 4.53056 0.964075 0
M  V30 4858 C 501.397 5.63117 1.08104 0
M  V30 4859 N 500.893 6.82969 1.16299 0
M  V30 4860 N 502.686 5.50933 1.11488 0
M  V30 4861 H 494.837 2.0345 -0.610076 0
M  V30 4862 H 497.1 0.924034 -0.211813 0
M  V30 4863 H 496.806 3.51142 -0.19802 0
M  V30 4864 H 496.68 3.43851 1.55069 0
M  V30 4865 H 499.067 2.45101 1.64346 0
M  V30 4866 H 499.148 2.55513 -0.121034 0
M  V30 4867 H 498.792 5.07889 0.0338586 0
M  V30 4868 H 498.722 4.94553 1.809 0
M  V30 4869 H 501.213 3.66737 0.91173 0
M  V30 4870 H 501.526 7.62598 1.25155 0
M  V30 4871 H 499.871 6.85712 1.13241 0
M  V30 4872 H 503.062 4.56231 1.0474 0
M  V30 4873 H 503.235 6.36743 1.20259 0
M  V30 4874 N 496.642 -0.504142 1.49319 0
M  V30 4875 C 497.891 -1.25507 1.57895 0
M  V30 4876 C 498.204 -1.93735 0.269433 0
M  V30 4877 O 499.41 -2.70492 0.233706 0
M  V30 4878 C 497.866 -2.27869 2.78574 0
M  V30 4879 C 497.474 -1.65594 4.16272 0
M  V30 4880 C 499.218 -3.0381 2.96479 0
M  V30 4881 C 497.125 -2.66048 5.28178 0
M  V30 4882 H 496.055 -0.47212 0.587894 0
M  V30 4883 H 498.706 -0.52931 1.757 0
M  V30 4884 H 497.088 -3.03594 2.54257 0
M  V30 4885 H 498.262 -0.958826 4.50714 0
M  V30 4886 H 496.577 -1.02055 4.037 0
M  V30 4887 H 499.174 -3.78925 3.77253 0
M  V30 4888 H 499.517 -3.61235 2.06918 0
M  V30 4889 H 500.05 -2.352 3.20821 0
M  V30 4890 H 496.789 -2.13408 6.19788 0
M  V30 4891 H 496.309 -3.34009 4.98195 0
M  V30 4892 H 497.988 -3.28536 5.57381 0
M  V30 4893 N 498.12 -1.38341 -0.754957 0
M  V30 4894 C 499.536 -1.19508 -1.05783 0
M  V30 4895 C 499.736 -0.0428005 -2.01455 0
M  V30 4896 O 498.792 0.611861 -2.44975 0
M  V30 4897 C 500.105 -2.52091 -1.63923 0
M  V30 4898 C 501.653 -2.58762 -1.76101 0
M  V30 4899 C 502.128 -3.91517 -2.37652 0
M  V30 4900 N 503.619 -3.93049 -2.45085 0
M  V30 4901 C 504.354 -4.9253 -2.93602 0
M  V30 4902 N 503.85 -6.02408 -3.42165 0
M  V30 4903 N 505.643 -4.79921 -2.92629 0
M  V30 4904 H 497.794 -2.1206 -0.120056 0
M  V30 4905 H 500.057 -0.94089 -0.11589 0
M  V30 4906 H 499.763 -3.36858 -1.01093 0
M  V30 4907 H 499.637 -2.70388 -2.63003 0
M  V30 4908 H 502.024 -1.74391 -2.38058 0
M  V30 4909 H 502.105 -2.44333 -0.757294 0
M  V30 4910 H 501.749 -4.76309 -1.76329 0
M  V30 4911 H 501.679 -4.03256 -3.38662 0
M  V30 4912 H 504.17 -3.13685 -2.10736 0
M  V30 4913 H 504.483 -6.74248 -3.77637 0
M  V30 4914 H 502.828 -6.0603 -3.40225 0
M  V30 4915 H 506.019 -3.93194 -2.54001 0
M  V30 4916 H 506.192 -5.57601 -3.30128 0
M  V30 4917 N 499.598 0.982988 -1.23187 0
M  V30 4918 C 501.014 1.2487 -0.993967 0
M  V30 4919 C 501.214 1.99155 0.306498 0
M  V30 4920 O 500.27 2.30688 1.0266 0
M  V30 4921 C 501.583 2.05078 -2.19917 0
M  V30 4922 C 503.131 2.18227 -2.2438 0
M  V30 4923 C 503.606 3.01825 -3.44479 0
M  V30 4924 N 505.097 3.09411 -3.44702 0
M  V30 4925 C 505.832 3.74412 -4.34285 0
M  V30 4926 N 505.328 4.41259 -5.341 0
M  V30 4927 N 507.121 3.71273 -4.22035 0
M  V30 4928 H 499.272 0.485253 -2.06783 0
M  V30 4929 H 501.535 0.276979 -0.906635 0
M  V30 4930 H 501.241 1.57867 -3.14279 0
M  V30 4931 H 501.115 3.05829 -2.2079 0
M  V30 4932 H 503.502 2.64648 -1.30559 0
M  V30 4933 H 503.583 1.16873 -2.2754 0
M  V30 4934 H 503.227 2.56102 -4.38605 0
M  V30 4935 H 503.157 4.03342 -3.38559 0
M  V30 4936 H 505.648 2.61845 -2.7248 0
M  V30 4937 H 505.961 4.88629 -5.98717 0
M  V30 4938 H 504.306 4.39975 -5.38002 0
M  V30 4939 H 507.497 3.18217 -3.43301 0
M  V30 4940 H 507.67 4.21649 -4.92053 0
M  V30 4941 N 501.076 1.04316 1.18135 0
M  V30 4942 C 501.986 0.646876 2.25505 0
M  V30 4943 C 503.002 -0.328008 1.7088 0
M  V30 4944 O 504.178 -0.182309 2.00573 0
M  V30 4945 C 501.243 0.0185664 3.46695 0
M  V30 4946 C 500.304 1.04277 4.16443 0
M  V30 4947 C 499.537 0.444352 5.31847 0
M  V30 4948 O 499.76 -0.748735 5.65465 0
M  V30 4949 O 498.694 1.17428 5.90334 0
M  V30 4950 H 502.52 1.54147 2.61672 0
M  V30 4951 H 500.105 0.814188 1.25265 0
M  V30 4952 H 501.987 -0.331068 4.20097 0
M  V30 4953 H 500.662 -0.849814 3.12346 0
M  V30 4954 H 499.569 1.44425 3.45098 0
M  V30 4955 H 500.902 1.882 4.54798 0
M  V30 4956 N 502.554 -1.34406 0.822964 0
M  V30 4957 C 503.782 -2.02508 0.424039 0
M  V30 4958 C 504.197 -1.61975 -0.970022 0
M  V30 4959 O 503.554 -0.825228 -1.62777 0
M  V30 4960 C 503.605 -3.57789 0.516657 0
M  V30 4961 O 503.326 -3.96853 1.85577 0
M  V30 4962 C 504.827 -4.43157 0.112637 0
M  V30 4963 H 502.047 -0.649063 0.170173 0
M  V30 4964 H 504.591 -1.7168 1.11113 0
M  V30 4965 H 502.746 -3.87207 -0.122353 0
M  V30 4966 H 503.16 -4.91538 1.83005 0
M  V30 4967 H 504.634 -5.51527 0.228526 0
M  V30 4968 H 505.111 -4.28939 -0.943837 0
M  V30 4969 H 505.717 -4.19067 0.725449 0
M  V30 4970 N 504.032 -0.577932 -1.46621 0
M  V30 4971 C 505.281 -0.0594281 -2.01612 0
M  V30 4972 C 505.594 1.30663 -1.45556 0
M  V30 4973 O 506.8 1.91621 -1.92337 0
M  V30 4974 C 505.256 -0.0556666 -3.59857 0
M  V30 4975 C 504.864 -1.41975 -4.24908 0
M  V30 4976 C 506.608 0.409143 -4.22524 0
M  V30 4977 C 504.515 -1.37397 -5.75218 0
M  V30 4978 H 503.445 -0.0184469 -0.753774 0
M  V30 4979 H 506.096 -0.728869 -1.68404 0
M  V30 4980 H 504.478 0.679843 -3.90121 0
M  V30 4981 H 505.652 -2.17461 -4.0626 0
M  V30 4982 H 503.967 -1.82419 -3.74316 0
M  V30 4983 H 506.564 0.46211 -5.32699 0
M  V30 4984 H 506.907 1.42565 -3.91128 0
M  V30 4985 H 507.44 -0.272152 -3.96868 0
M  V30 4986 H 504.179 -2.36714 -6.11267 0
M  V30 4987 H 503.699 -0.661239 -5.96144 0
M  V30 4988 H 505.378 -1.08484 -6.3784 0
M  V30 4989 N 505.51 1.54411 -0.315457 0
M  V30 4990 C 506.473 2.22713 0.54142 0
M  V30 4991 C 507.473 1.2179 1.04995 0
M  V30 4992 O 508.663 1.46426 0.943667 0
M  V30 4993 C 505.795 2.92485 1.75116 0
M  V30 4994 H 506.988 2.99849 -0.0555508 0
M  V30 4995 H 504.541 1.56159 -0.0664453 0
M  V30 4996 H 505.276 2.19466 2.38758 0
M  V30 4997 H 505.061 3.66483 1.39401 0
M  V30 4998 H 506.551 3.44548 2.35959 0
M  V30 4999 N 506.988 0.0434614 1.5754 0
M  V30 5000 C 507.951 -0.918696 2.09982 0
M  V30 5001 C 508.951 -1.24488 1.01781 0
M  V30 5002 O 510.141 -1.18284 1.27885 0
M  V30 5003 C 507.273 -2.23093 2.57764 0
M  V30 5004 H 508.466 -0.464229 2.96285 0
M  V30 5005 H 506.019 -0.204818 1.54952 0
M  V30 5006 H 506.754 -2.73137 1.74832 0
M  V30 5007 H 506.539 -2.00724 3.36827 0
M  V30 5008 H 508.029 -2.92028 2.98512 0
M  V30 5009 N 508.466 -1.55915 -0.229846 0
M  V30 5010 C 509.376 -1.94891 -1.30593 0
M  V30 5011 C 510.392 -0.851604 -1.51736 0
M  V30 5012 O 511.568 -1.15447 -1.65027 0
M  V30 5013 C 508.633 -2.25052 -2.63728 0
M  V30 5014 C 507.694 -3.48306 -2.5096 0
M  V30 5015 C 506.927 -3.77019 -3.77747 0
M  V30 5016 O 507.15 -3.07534 -4.80395 0
M  V30 5017 O 506.084 -4.70523 -3.75356 0
M  V30 5018 H 509.91 -2.86581 -1.00525 0
M  V30 5019 H 507.495 -1.43017 -0.432025 0
M  V30 5020 H 509.377 -2.45682 -3.42372 0
M  V30 5021 H 508.052 -1.36538 -2.93495 0
M  V30 5022 H 506.959 -3.32964 -1.70546 0
M  V30 5023 H 508.292 -4.37177 -2.26136 0
M  V30 5024 N 509.944 0.496216 -1.49584 0
M  V30 5025 C 511.221 1.25755 -1.49816 0
M  V30 5026 C 511.601 2.09859 -0.228572 0
M  V30 5027 O 510.949 2.14449 0.788908 0
M  V30 5028 C 511.159 2.11017 -2.7798 0
M  V30 5029 C 512.507 2.70047 -3.27658 0
M  V30 5030 O 513.531 2.21281 -2.79129 0
M  V30 5031 O 512.39 3.58834 -4.1219 0
M  V30 5032 H 509.484 0.569322 -0.599834 0
M  V30 5033 H 512.03 0.510094 -1.61852 0
M  V30 5034 H 510.802 1.48879 -3.61871 0
M  V30 5035 H 510.425 2.92947 -2.68827 0
M  V30 5036 N 511.423 1.38739 0.74761 0
M  V30 5037 C 512.669 1.35475 1.50912 0
M  V30 5038 C 513.002 -0.0533093 1.94127 0
M  V30 5039 O 512.277 -1.01572 1.65871 0
M  V30 5040 C 512.56 2.31582 2.75757 0
M  V30 5041 C 512.413 3.81274 2.38642 0
M  V30 5042 C 513.732 2.25722 3.77806 0
M  V30 5043 H 510.851 0.493427 0.547447 0
M  V30 5044 H 513.493 1.69634 0.855823 0
M  V30 5045 H 511.643 2.02582 3.31501 0
M  V30 5046 H 513.315 4.20972 1.88626 0
M  V30 5047 H 511.558 3.98664 1.71025 0
M  V30 5048 H 512.229 4.4399 3.27989 0
M  V30 5049 H 514.705 2.51336 3.31616 0
M  V30 5050 H 513.581 2.95069 4.62845 0
M  V30 5051 H 513.842 1.25803 4.23823 0
M  V30 5052 N 512.901 -0.976442 1.23707 0
M  V30 5053 C 513.831 -2.08749 1.04624 0
M  V30 5054 C 514.812 -1.70057 -0.0380956 0
M  V30 5055 O 515.997 -1.93782 0.127308 0
M  V30 5056 C 513.127 -3.41335 0.640902 0
M  V30 5057 C 512.081 -3.93947 1.67302 0
M  V30 5058 C 511.407 -5.22774 1.12301 0
M  V30 5059 C 512.707 -4.22769 3.06697 0
M  V30 5060 H 514.401 -2.24972 1.97555 0
M  V30 5061 H 511.947 -1.08108 0.951247 0
M  V30 5062 H 513.9 -4.18489 0.494434 0
M  V30 5063 H 512.624 -3.24988 -0.324099 0
M  V30 5064 H 511.283 -3.18941 1.80755 0
M  V30 5065 H 510.931 -5.0278 0.148877 0
M  V30 5066 H 510.631 -5.58942 1.81267 0
M  V30 5067 H 512.155 -6.02546 0.988479 0
M  V30 5068 H 513.569 -4.90659 2.96524 0
M  V30 5069 H 511.966 -4.70147 3.72937 0
M  V30 5070 H 513.036 -3.29885 3.55392 0
M  V30 5071 N 514.379 -1.04941 -1.1758 0
M  V30 5072 C 515.329 -0.618378 -2.19454 0
M  V30 5073 C 516.313 0.343813 -1.57184 0
M  V30 5074 O 517.505 0.16145 -1.76262 0
M  V30 5075 C 514.634 0.00803847 -3.43299 0
M  V30 5076 C 513.72 -0.977827 -4.12673 0
M  V30 5077 N 514.111 -2.14826 -4.57912 0
M  V30 5078 C 512.409 -0.805748 -4.38661 0
M  V30 5079 C 513.11 -2.77174 -5.11419 0
M  V30 5080 N 512.086 -2.04989 -5.03468 0
M  V30 5081 H 515.888 -1.51018 -2.52132 0
M  V30 5082 H 513.402 -0.919201 -1.33882 0
M  V30 5083 H 515.399 0.334584 -4.15555 0
M  V30 5084 H 514.059 0.895272 -3.12114 0
M  V30 5085 H 515.07 -2.52673 -4.52081 0
M  V30 5086 H 511.747 0.0306506 -4.17489 0
M  V30 5087 H 513.137 -3.76416 -5.56562 0
M  V30 5088 N 515.857 1.33968 -0.830081 0
M  V30 5089 C 517.134 1.92554 -0.343858 0
M  V30 5090 C 517.514 1.7573 1.16971 0
M  V30 5091 O 516.862 1.14035 1.98011 0
M  V30 5092 C 517.072 3.40147 -0.781073 0
M  V30 5093 C 518.42 4.17299 -0.78402 0
M  V30 5094 O 519.444 3.48762 -0.724112 0
M  V30 5095 O 518.303 5.39631 -0.863739 0
M  V30 5096 H 515.397 0.821469 -0.0954827 0
M  V30 5097 H 517.943 1.42897 -0.915348 0
M  V30 5098 H 516.715 3.46225 -1.82329 0
M  V30 5099 H 516.338 3.97166 -0.18567 0
M  V30 5100 N 517.335 0.585699 1.46312 0
M  V30 5101 C 518.265 -0.133556 2.33118 0
M  V30 5102 C 519.246 -0.880707 1.45525 0
M  V30 5103 O 520.431 -0.855579 1.74337 0
M  V30 5104 C 517.561 -1.14585 3.27853 0
M  V30 5105 C 516.515 -0.513341 4.2491 0
M  V30 5106 C 515.841 -1.63231 5.09175 0
M  V30 5107 C 517.141 0.551413 5.19381 0
M  V30 5108 H 518.835 0.59121 2.93505 0
M  V30 5109 H 516.381 0.285761 1.41136 0
M  V30 5110 H 518.334 -1.65741 3.87438 0
M  V30 5111 H 517.058 -1.90093 2.65579 0
M  V30 5112 H 515.717 -0.0228349 3.66593 0
M  V30 5113 H 515.365 -2.37713 4.43285 0
M  V30 5114 H 515.065 -1.21473 5.74907 0
M  V30 5115 H 516.589 -2.14658 5.71624 0
M  V30 5116 H 518.003 0.124804 5.73164 0
M  V30 5117 H 516.4 0.889486 5.93471 0
M  V30 5118 H 517.47 1.43655 4.63132 0
M  V30 5119 N 518.813 -1.54241 0.323641 0
M  V30 5120 C 520.061 -2.00174 -0.278359 0
M  V30 5121 C 520.382 -1.2134 -1.52648 0
M  V30 5122 O 519.652 -0.315244 -1.93347 0
M  V30 5123 H 518.232 -0.739463 -0.105845 0
M  V30 5124 H 520.894 -1.89864 0.440204 0
M  V30 5125 H 519.99 -3.07486 -0.5347 0
M  V30 5126 N 520.291 -0.0518155 -1.57515 0
M  V30 5127 C 521.254 0.907547 -2.10467 0
M  V30 5128 C 522.254 1.23947 -1.02439 0
M  V30 5129 O 523.444 1.17604 -1.2851 0
M  V30 5130 C 520.576 2.21723 -2.58944 0
M  V30 5131 H 521.769 0.44851 -2.96527 0
M  V30 5132 H 519.322 0.196598 -1.55059 0
M  V30 5133 H 520.057 2.72206 -1.76279 0
M  V30 5134 H 519.842 1.98935 -3.37886 0
M  V30 5135 H 521.332 2.90441 -3.00056 0
M  V30 5136 N 521.769 1.56035 0.221574 0
M  V30 5137 C 523.016 1.79047 0.94597 0
M  V30 5138 C 523.344 0.62057 1.84334 0
M  V30 5139 O 522.599 -0.395053 1.91671 0
M  V30 5140 C 522.898 3.07813 1.8162 0
M  V30 5141 C 522.564 4.3797 1.07206 0
M  V30 5142 C 521.226 4.73334 0.866508 0
M  V30 5143 C 523.578 5.18326 0.546565 0
M  V30 5144 C 520.906 5.8657 0.123549 0
M  V30 5145 C 523.258 6.32335 -0.18305 0
M  V30 5146 C 521.922 6.66301 -0.399861 0
M  V30 5147 H 521.192 0.655178 0.346155 0
M  V30 5148 H 523.839 1.90299 0.214146 0
M  V30 5149 H 522.144 2.91682 2.61589 0
M  V30 5150 H 523.841 3.2282 2.37884 0
M  V30 5151 H 520.431 4.10202 1.24226 0
M  V30 5152 H 524.615 4.9144 0.692847 0
M  V30 5153 H 519.871 6.11376 -0.0546591 0
M  V30 5154 H 524.045 6.9383 -0.59775 0
M  V30 5155 H 521.672 7.53889 -0.977489 0
M  V30 5156 N 523.247 -0.488276 1.49845 0
M  V30 5157 C 524.472 -1.26997 1.63971 0
M  V30 5158 C 524.897 -1.85427 0.315994 0
M  V30 5159 O 524.255 -1.66475 -0.718032 0
M  V30 5160 C 524.303 -2.36689 2.72049 0
M  V30 5161 O 523.407 -3.40882 2.32107 0
M  V30 5162 H 522.748 -0.374376 0.548396 0
M  V30 5163 H 525.278 -0.583104 1.96115 0
M  V30 5164 H 525.288 -2.82262 2.94605 0
M  V30 5165 H 523.963 -1.93529 3.68129 0
M  V30 5166 H 522.54 -3.01139 2.19931 0
M  V30 5167 N 524.725 -1.39134 -0.740242 0
M  V30 5168 C 525.655 -1.40165 -1.86751 0
M  V30 5169 C 526.636 -0.265708 -1.68012 0
M  V30 5170 O 527.821 -0.47076 -1.88408 0
M  V30 5171 C 524.951 -1.2392 -3.2444 0
M  V30 5172 C 523.905 -2.34858 -3.57807 0
M  V30 5173 C 523.231 -2.03707 -4.94376 0
M  V30 5174 C 524.531 -3.77159 -3.61315 0
M  V30 5175 H 526.225 -2.345 -1.86145 0
M  V30 5176 H 523.771 -1.12875 -0.89416 0
M  V30 5177 H 525.724 -1.23263 -4.02969 0
M  V30 5178 H 524.448 -0.26051 -3.25559 0
M  V30 5179 H 523.107 -2.34723 -2.81604 0
M  V30 5180 H 522.755 -1.04289 -4.9207 0
M  V30 5181 H 522.455 -2.78016 -5.17669 0
M  V30 5182 H 523.979 -2.04691 -5.75268 0
M  V30 5183 H 525.393 -3.79252 -4.29931 0
M  V30 5184 H 523.79 -4.50784 -3.96124 0
M  V30 5185 H 524.86 -4.08513 -2.61238 0
M  V30 5186 N 526.204 0.969867 -1.24223 0
M  V30 5187 C 527.432 1.74756 -1.10761 0
M  V30 5188 C 527.847 1.85713 0.340041 0
M  V30 5189 O 527.204 1.34389 1.23474 0
M  V30 5190 C 527.255 3.16915 -1.73917 0
M  V30 5191 O 526.976 3.06511 -3.13021 0
M  V30 5192 C 528.477 4.11032 -1.66036 0
M  V30 5193 H 525.697 0.548092 -0.387087 0
M  V30 5194 H 528.241 1.2178 -1.64286 0
M  V30 5195 H 526.396 3.66884 -1.244 0
M  V30 5196 H 526.81 3.96079 -3.43834 0
M  V30 5197 H 528.284 5.08446 -2.14911 0
M  V30 5198 H 528.761 4.34785 -0.621159 0
M  V30 5199 H 529.367 3.66972 -2.14969 0
M  V30 5200 N 527.682 1.05563 1.17022 0
M  V30 5201 C 528.907 0.788437 1.91829 0
M  V30 5202 C 529.332 -0.650356 1.76499 0
M  V30 5203 O 528.69 -1.45229 1.08527 0
M  V30 5204 C 528.738 1.1786 3.40795 0
M  V30 5205 O 527.842 0.312965 4.11211 0
M  V30 5206 H 527.183 0.288794 0.597908 0
M  V30 5207 H 529.713 1.40948 1.48307 0
M  V30 5208 H 529.723 1.14697 3.91546 0
M  V30 5209 H 528.398 2.22666 3.51273 0
M  V30 5210 H 526.975 0.405515 3.70689 0
M  V30 5211 N 529.16 -1.33526 0.837174 0
M  V30 5212 C 530.385 -2.0258 0.444545 0
M  V30 5213 C 530.81 -1.6258 -0.946006 0
M  V30 5214 O 530.168 -0.817548 -1.6182 0
M  V30 5215 C 530.216 -3.5605 0.571006 0
M  V30 5216 O 529.32 -4.10422 -0.403431 0
M  V30 5217 H 528.661 -0.638866 0.180958 0
M  V30 5218 H 531.191 -1.70462 1.13154 0
M  V30 5219 H 531.201 -4.05488 0.452024 0
M  V30 5220 H 529.876 -3.84509 1.58512 0
M  V30 5221 H 528.453 -3.72113 -0.242147 0
M  V30 5222 N 530.638 -0.59345 -1.46 0
M  V30 5223 C 531.915 -0.0157933 -1.95594 0
M  V30 5224 C 532.295 1.44807 -1.53604 0
M  V30 5225 O 531.643 2.14342 -0.791824 0
M  V30 5226 C 531.853 -0.199081 -3.48432 0
M  V30 5227 C 533.201 -0.0724943 -4.24538 0
M  V30 5228 O 534.225 -0.128469 -3.55968 0
M  V30 5229 O 533.084 0.0542426 -5.46473 0
M  V30 5230 H 530.178 0.043749 -0.825842 0
M  V30 5231 H 532.724 -0.662522 -1.56233 0
M  V30 5232 H 531.496 -1.21631 -3.71916 0
M  V30 5233 H 531.119 0.483576 -3.94648 0
M  V30 5234 N 532.116 1.54067 -0.331816 0
M  V30 5235 C 533.341 2.05599 0.272705 0
M  V30 5236 C 533.766 1.2059 1.44359 0
M  V30 5237 O 533.124 0.216907 1.79998 0
M  V30 5238 C 533.172 3.54188 0.677021 0
M  V30 5239 O 532.276 3.72082 1.77844 0
M  V30 5240 H 531.617 0.662286 0.0476801 0
M  V30 5241 H 534.147 1.98826 -0.482624 0
M  V30 5242 H 534.157 3.96608 0.957415 0
M  V30 5243 H 532.832 4.15513 -0.179325 0
M  V30 5244 H 531.409 3.41566 1.49622 0
M  V30 5245 N 533.594 0.0601682 1.57485 0
M  V30 5246 C 534.526 -0.94047 2.09016 0
M  V30 5247 C 535.539 -1.26897 1.01985 0
M  V30 5248 O 536.728 -1.22819 1.29529 0
M  V30 5249 C 533.828 -2.25955 2.52582 0
M  V30 5250 C 533.001 -2.11163 3.83052 0
M  V30 5251 C 532.06 -3.26273 4.12835 0
M  V30 5252 O 531.086 -3.01779 4.82616 0
M  V30 5253 N 532.288 -4.51022 3.65458 0
M  V30 5254 H 535.053 -0.500578 2.9549 0
M  V30 5255 H 532.614 -0.125852 1.6141 0
M  V30 5256 H 534.606 -3.01846 2.69575 0
M  V30 5257 H 533.176 -2.61481 1.71308 0
M  V30 5258 H 532.396 -1.19808 3.75552 0
M  V30 5259 H 533.684 -1.98517 4.68475 0
M  V30 5260 H 533.082 -4.73811 3.09062 0
M  V30 5261 H 531.639 -5.23978 3.87673 0
M  V30 5262 N 535.072 -1.5615 -0.213296 0
M  V30 5263 C 536.035 -1.92249 -1.24792 0
M  V30 5264 C 537.035 -0.801828 -1.39382 0
M  V30 5265 O 538.225 -1.06948 -1.37506 0
M  V30 5266 C 535.357 -2.18056 -2.62039 0
M  V30 5267 H 536.55 -2.84793 -0.939845 0
M  V30 5268 H 534.103 -1.49559 -0.454062 0
M  V30 5269 H 534.838 -1.2809 -2.97932 0
M  V30 5270 H 534.623 -2.99703 -2.52825 0
M  V30 5271 H 536.113 -2.47051 -3.36683 0
M  V30 5272 N 536.55 0.480323 -1.50102 0
M  V30 5273 C 537.483 1.59789 -1.62919 0
M  V30 5274 C 538.461 1.55429 -0.477557 0
M  V30 5275 O 539.645 1.75186 -0.695851 0
M  V30 5276 C 536.772 2.98351 -1.60325 0
M  V30 5277 C 535.818 3.20899 -2.80938 0
M  V30 5278 S 536.651 3.01791 -4.4236 0
M  V30 5279 C 537.807 4.42712 -4.42444 0
M  V30 5280 H 538.04 1.48676 -2.57454 0
M  V30 5281 H 535.573 0.666996 -1.3925 0
M  V30 5282 H 537.531 3.7824 -1.59514 0
M  V30 5283 H 536.192 3.06862 -0.670419 0
M  V30 5284 H 535.385 4.22102 -2.75401 0
M  V30 5285 H 534.987 2.48768 -2.79268 0
M  V30 5286 H 537.279 5.3518 -4.15438 0
M  V30 5287 H 538.222 4.53294 -5.43995 0
M  V30 5288 H 538.63 4.24359 -3.72263 0
M  V30 5289 N 538.028 1.39524 0.732853 0
M  V30 5290 C 539.276 1.36594 1.48951 0
M  V30 5291 C 539.597 -0.0367507 1.94965 0
M  V30 5292 O 538.867 -0.988391 1.69138 0
M  V30 5293 H 537.447 0.502673 0.552566 0
M  V30 5294 H 540.109 1.74411 0.869869 0
M  V30 5295 H 539.205 2.03 2.3706 0
M  V30 5296 N 539.506 -0.963266 1.24736 0
M  V30 5297 C 540.922 -1.23273 1.01371 0
M  V30 5298 C 541.122 -1.99618 -0.274776 0
M  V30 5299 O 540.178 -2.32293 -0.989769 0
M  V30 5300 C 541.491 -2.01554 2.23152 0
M  V30 5301 C 543.039 -2.14629 2.27823 0
M  V30 5302 C 543.514 -2.96307 3.49237 0
M  V30 5303 N 545.005 -3.03887 3.49581 0
M  V30 5304 C 545.74 -3.67456 4.40186 0
M  V30 5305 N 545.236 -4.32706 5.41052 0
M  V30 5306 N 547.029 -3.64511 4.27888 0
M  V30 5307 H 539.18 -0.452294 2.07528 0
M  V30 5308 H 541.443 -0.262521 0.910926 0
M  V30 5309 H 541.149 -1.52847 3.1675 0
M  V30 5310 H 541.023 -3.02278 2.25628 0
M  V30 5311 H 543.41 -2.62537 1.34753 0
M  V30 5312 H 543.491 -1.13238 2.2937 0
M  V30 5313 H 543.135 -2.49091 4.42624 0
M  V30 5314 H 543.065 -3.97905 3.44933 0
M  V30 5315 H 545.556 -2.57477 2.76611 0
M  V30 5316 H 545.869 -4.79042 6.06415 0
M  V30 5317 H 544.214 -4.31361 5.44934 0
M  V30 5318 H 547.405 -3.12715 3.4832 0
M  V30 5319 H 547.578 -4.13768 4.98698 0
M  V30 5320 N 540.985 -1.06182 -1.16461 0
M  V30 5321 C 542.231 -0.779015 -1.87241 0
M  V30 5322 C 542.564 0.692715 -1.81425 0
M  V30 5323 O 541.839 1.5074 -1.22913 0
M  V30 5324 C 542.122 -1.2728 -3.36856 0
M  V30 5325 C 541.975 -2.80821 -3.51368 0
M  V30 5326 C 543.294 -0.879799 -4.31216 0
M  V30 5327 H 540.413 -0.284464 -0.679889 0
M  V30 5328 H 543.055 -1.31755 -1.36896 0
M  V30 5329 H 541.205 -0.814673 -3.79862 0
M  V30 5330 H 542.877 -3.34833 -3.17308 0
M  V30 5331 H 541.12 -3.19606 -2.93316 0
M  V30 5332 H 541.791 -3.10435 -4.56436 0
M  V30 5333 H 544.267 -1.27436 -3.96105 0
M  V30 5334 H 543.143 -1.25278 -5.34412 0
M  V30 5335 H 543.404 0.215372 -4.41575 0
M  V30 5336 N 542.463 1.3308 -0.844243 0
M  V30 5337 C 543.711 1.97215 -0.441676 0
M  V30 5338 C 544.032 1.67185 1.0037 0
M  V30 5339 O 543.302 0.973588 1.69994 0
M  V30 5340 H 541.882 0.72959 -0.160335 0
M  V30 5341 H 544.544 1.62348 -1.07838 0
M  V30 5342 H 543.64 3.06698 -0.57815 0
M  V30 5343 N 543.941 0.601185 1.45683 0
M  V30 5344 C 544.851 -0.123395 2.34275 0
M  V30 5345 C 545.867 -0.86702 1.5086 0
M  V30 5346 O 547.043 -0.826049 1.8368 0
M  V30 5347 C 544.108 -1.11237 3.2837 0
M  V30 5348 C 543.169 -0.371405 4.2769 0
M  V30 5349 C 542.402 -1.31327 5.1729 0
M  V30 5350 O 542.625 -2.55078 5.10188 0
M  V30 5351 O 541.559 -0.813811 5.96373 0
M  V30 5352 H 545.385 0.604483 2.97623 0
M  V30 5353 H 542.97 0.361477 1.44961 0
M  V30 5354 H 544.852 -1.68214 3.8637 0
M  V30 5355 H 543.527 -1.82139 2.67595 0
M  V30 5356 H 542.434 0.24067 3.73325 0
M  V30 5357 H 543.767 0.296998 4.91303 0
M  V30 5358 N 545.419 -1.53889 0.339982 0
M  V30 5359 C 546.665 -2.01152 -0.258003 0
M  V30 5360 C 546.998 -1.22749 -1.50487 0
M  V30 5361 O 546.273 -0.314156 -1.91946 0
M  V30 5362 C 546.556 -3.55468 -0.575717 0
M  V30 5363 C 546.409 -4.44584 0.682996 0
M  V30 5364 C 547.728 -4.1768 -1.38677 0
M  V30 5365 H 544.847 -0.731198 -0.0922992 0
M  V30 5366 H 547.489 -1.84352 0.459814 0
M  V30 5367 H 545.639 -3.69914 -1.18725 0
M  V30 5368 H 547.311 -4.41981 1.32102 0
M  V30 5369 H 545.554 -4.13592 1.3086 0
M  V30 5370 H 546.225 -5.5043 0.416001 0
M  V30 5371 H 548.701 -4.0691 -0.869705 0
M  V30 5372 H 547.577 -5.25734 -1.57783 0
M  V30 5373 H 547.838 -3.72069 -2.38782 0
M  V30 5374 N 546.897 -0.0685191 -1.57451 0
M  V30 5375 C 548.146 0.600898 -1.92541 0
M  V30 5376 C 548.459 1.70967 -0.950239 0
M  V30 5377 O 549.665 2.43844 -1.19384 0
M  V30 5378 C 548.121 1.12019 -3.42023 0
M  V30 5379 C 547.729 0.0426028 -4.4798 0
M  V30 5380 C 549.473 1.76386 -3.86119 0
M  V30 5381 C 547.38 0.575759 -5.88591 0
M  V30 5382 H 546.31 0.228225 -0.71863 0
M  V30 5383 H 548.961 -0.140223 -1.82963 0
M  V30 5384 H 547.343 1.91418 -3.46663 0
M  V30 5385 H 548.517 -0.73182 -4.54952 0
M  V30 5386 H 546.832 -0.504642 -4.13331 0
M  V30 5387 H 549.429 2.17302 -4.88553 0
M  V30 5388 H 549.772 2.62255 -3.23308 0
M  V30 5389 H 550.305 1.03615 -3.84069 0
M  V30 5390 H 547.044 -0.245691 -6.55039 0
M  V30 5391 H 546.564 1.31778 -5.85145 0
M  V30 5392 H 548.243 1.0532 -6.3837 0
M  V30 5393 N 548.375 1.56261 0.205012 0
M  V30 5394 C 549.305 1.96779 1.257 0
M  V30 5395 C 550.286 0.838309 1.48008 0
M  V30 5396 O 551.471 1.10189 1.59913 0
M  V30 5397 C 548.601 2.29876 2.60335 0
M  V30 5398 C 547.555 3.45469 2.52656 0
M  V30 5399 C 546.881 3.64215 3.91473 0
M  V30 5400 C 548.181 4.79954 2.06014 0
M  V30 5401 H 549.875 2.84904 0.920338 0
M  V30 5402 H 547.421 1.37072 0.441277 0
M  V30 5403 H 549.374 2.56814 3.34102 0
M  V30 5404 H 548.098 1.38622 2.95722 0
M  V30 5405 H 546.757 3.18605 1.81345 0
M  V30 5406 H 546.405 2.70309 4.24196 0
M  V30 5407 H 546.105 4.41973 3.87213 0
M  V30 5408 H 547.629 3.93519 4.66878 0
M  V30 5409 H 549.043 5.05989 2.69533 0
M  V30 5410 H 547.44 5.61111 2.12777 0
M  V30 5411 H 548.51 4.74201 1.01297 0
M  V30 5412 N 549.853 -0.472356 1.50355 0
M  V30 5413 C 551.269 -0.806001 1.37753 0
M  V30 5414 C 551.469 -1.968 0.432649 0
M  V30 5415 O 550.525 -2.52189 -0.12519 0
M  V30 5416 C 551.838 -1.11926 2.79093 0
M  V30 5417 C 553.386 -1.22579 2.87999 0
M  V30 5418 C 553.861 -1.57218 4.3017 0
M  V30 5419 N 555.352 -1.64212 4.33115 0
M  V30 5420 C 556.087 -1.92517 5.40116 0
M  V30 5421 N 555.583 -2.1885 6.57325 0
M  V30 5422 N 557.376 -1.94008 5.27558 0
M  V30 5423 H 549.527 0.293451 2.10363 0
M  V30 5424 H 551.79 0.0687672 0.945503 0
M  V30 5425 H 551.496 -0.338504 3.50067 0
M  V30 5426 H 551.37 -2.05577 3.16256 0
M  V30 5427 H 553.757 -1.99722 2.17245 0
M  V30 5428 H 553.838 -0.269107 2.54381 0
M  V30 5429 H 553.482 -0.806154 5.01461 0
M  V30 5430 H 553.412 -2.54034 4.61275 0
M  V30 5431 H 555.903 -1.45906 3.48597 0
M  V30 5432 H 556.216 -2.39718 7.3468 0
M  V30 5433 H 554.561 -2.16245 6.60502 0
M  V30 5434 H 557.752 -1.72931 4.34986 0
M  V30 5435 H 557.925 -2.15731 6.11035 0
M  V30 5436 N 551.331 -1.39911 -0.725443 0
M  V30 5437 C 552.559 -1.40949 -1.51463 0
M  V30 5438 C 552.974 -0.0065242 -1.88799 0
M  V30 5439 O 552.331 0.967163 -1.54765 0
M  V30 5440 C 552.382 -2.29119 -2.79619 0
M  V30 5441 O 552.103 -3.63952 -2.43866 0
M  V30 5442 C 553.604 -2.38642 -3.73584 0
M  V30 5443 H 550.824 -0.481091 -0.467752 0
M  V30 5444 H 553.368 -1.83843 -0.895651 0
M  V30 5445 H 551.523 -1.89612 -3.37826 0
M  V30 5446 H 551.937 -4.10677 -3.26258 0
M  V30 5447 H 553.411 -3.04563 -4.60375 0
M  V30 5448 H 553.888 -1.40846 -4.16004 0
M  V30 5449 H 554.494 -2.78659 -3.21293 0
M  V30 5450 N 552.809 0.956637 -1.25245 0
M  V30 5451 C 554.055 1.70413 -1.11044 0
M  V30 5452 C 554.41 1.89275 0.345377 0
M  V30 5453 O 553.703 1.45116 1.25107 0
M  V30 5454 C 553.897 3.08996 -1.79601 0
M  V30 5455 C 553.726 3.03654 -3.317 0
M  V30 5456 C 552.496 3.07521 -4.00947 0
M  V30 5457 C 554.694 2.84975 -4.28128 0
M  V30 5458 N 552.676 2.92316 -5.39838 0
M  V30 5459 C 554.047 2.7818 -5.5409 0
M  V30 5460 C 556.102 2.6964 -4.18568 0
M  V30 5461 C 554.805 2.57616 -6.71585 0
M  V30 5462 C 556.831 2.50447 -5.35752 0
M  V30 5463 C 556.193 2.4437 -6.60653 0
M  V30 5464 H 552.292 0.631642 -0.461035 0
M  V30 5465 H 554.876 1.13331 -1.58317 0
M  V30 5466 H 553.047 3.64248 -1.34826 0
M  V30 5467 H 554.779 3.72515 -1.58161 0
M  V30 5468 H 551.534 3.16635 -3.52192 0
M  V30 5469 H 551.958 2.87923 -6.12723 0
M  V30 5470 H 556.6 2.73113 -3.22752 0
M  V30 5471 H 554.318 2.52885 -7.67512 0
M  V30 5472 H 557.904 2.39509 -5.30214 0
M  V30 5473 H 556.784 2.29712 -7.49801 0
M  V30 5474 N 554.287 1.06798 1.15896 0
M  V30 5475 C 555.219 0.641263 2.20046 0
M  V30 5476 C 556.232 -0.303355 1.59949 0
M  V30 5477 O 557.421 -0.0935478 1.78255 0
M  V30 5478 C 554.521 -0.0794029 3.38807 0
M  V30 5479 C 553.694 0.879986 4.28457 0
M  V30 5480 C 552.753 0.197638 5.25829 0
M  V30 5481 O 551.779 0.836913 5.63014 0
M  V30 5482 N 552.981 -1.05886 5.70761 0
M  V30 5483 H 555.746 1.53718 2.57276 0
M  V30 5484 H 553.307 0.951951 1.30956 0
M  V30 5485 H 555.299 -0.546418 4.00994 0
M  V30 5486 H 553.869 -0.877193 3.0004 0
M  V30 5487 H 553.089 1.52625 3.63454 0
M  V30 5488 H 554.377 1.53065 4.8523 0
M  V30 5489 H 553.775 -1.59828 5.42652 0
M  V30 5490 H 552.332 -1.46965 6.35015 0
M  V30 5491 N 555.766 -1.3263 0.851289 0
M  V30 5492 C 557.012 -1.9766 0.453694 0
M  V30 5493 C 557.345 -1.67225 -0.987396 0
M  V30 5494 O 556.62 -0.958693 -1.69232 0
M  V30 5495 C 556.903 -3.5344 0.68936 0
M  V30 5496 C 556.756 -3.93517 2.17862 0
M  V30 5497 C 558.075 -4.39866 0.143555 0
M  V30 5498 H 555.194 -0.717989 0.166314 0
M  V30 5499 H 557.836 -1.57068 1.06909 0
M  V30 5500 H 555.986 -3.88147 0.165546 0
M  V30 5501 H 557.658 -3.69006 2.76826 0
M  V30 5502 H 555.901 -3.42798 2.65841 0
M  V30 5503 H 556.572 -5.02065 2.29422 0
M  V30 5504 H 559.048 -4.11875 0.591451 0
M  V30 5505 H 557.924 -5.47858 0.338043 0
M  V30 5506 H 558.185 -4.31696 -0.953466 0
M  V30 5507 N 557.244 -0.608902 -1.45362 0
M  V30 5508 C 558.207 0.0992563 -2.28985 0
M  V30 5509 C 559.207 0.793841 -1.39838 0
M  V30 5510 O 560.397 0.641804 -1.61946 0
M  V30 5511 C 557.529 1.15073 -3.20891 0
M  V30 5512 H 558.722 -0.635964 -2.93079 0
M  V30 5513 H 556.275 -0.368007 -1.51906 0
M  V30 5514 H 557.01 1.91667 -2.616 0
M  V30 5515 H 556.795 0.656867 -3.86559 0
M  V30 5516 H 558.285 1.64665 -3.83765 0
M  V30 5517 N 558.722 1.53707 -0.348139 0
M  V30 5518 C 559.672 2.2193 0.522592 0
M  V30 5519 C 560.656 1.20831 1.06248 0
M  V30 5520 O 561.848 1.46357 0.995415 0
M  V30 5521 C 558.977 2.99904 1.6707 0
M  V30 5522 C 558.063 4.08364 1.14454 0
M  V30 5523 N 558.454 5.04656 0.339958 0
M  V30 5524 C 556.752 4.22757 1.421 0
M  V30 5525 C 557.453 5.81675 0.0538806 0
M  V30 5526 N 556.429 5.39739 0.646776 0
M  V30 5527 H 560.231 2.93733 -0.099135 0
M  V30 5528 H 557.745 1.61656 -0.15524 0
M  V30 5529 H 559.742 3.47284 2.30651 0
M  V30 5530 H 558.402 2.29629 2.29566 0
M  V30 5531 H 559.413 5.17896 -0.0193552 0
M  V30 5532 H 556.09 3.63704 2.05002 0
M  V30 5533 H 557.48 6.69256 -0.595443 0
M  V30 5534 N 560.2 0.0768682 1.57412 0
M  V30 5535 C 561.616 -0.279772 1.57129 0
M  V30 5536 C 561.816 -1.69688 1.08666 0
M  V30 5537 O 560.872 -2.40953 0.754843 0
M  V30 5538 C 562.185 -0.0848055 3.0058 0
M  V30 5539 C 563.733 -0.153954 3.12621 0
M  V30 5540 C 564.208 0.0127946 4.57998 0
M  V30 5541 N 565.699 -0.0426435 4.6318 0
M  V30 5542 C 566.434 0.0618892 5.73367 0
M  V30 5543 N 565.93 0.220229 6.9245 0
M  V30 5544 N 567.723 0.00446072 5.621 0
M  V30 5545 H 559.874 1.00297 1.87228 0
M  V30 5546 H 562.137 0.391565 0.863354 0
M  V30 5547 H 561.843 0.89325 3.40168 0
M  V30 5548 H 561.717 -0.834961 3.67843 0
M  V30 5549 H 564.104 -1.1225 2.72917 0
M  V30 5550 H 564.185 0.627389 2.47987 0
M  V30 5551 H 563.829 0.978128 4.98392 0
M  V30 5552 H 563.759 -0.788016 5.20671 0
M  V30 5553 H 566.25 -0.163226 3.77547 0
M  V30 5554 H 566.563 0.291999 7.72248 0
M  V30 5555 H 564.908 0.255658 6.9453 0
M  V30 5556 H 568.099 -0.117979 4.67951 0
M  V30 5557 H 568.272 0.0893796 6.47938 0
M  V30 5558 N 561.678 -1.56367 -0.196722 0
M  V30 5559 C 562.611 -1.89475 -1.2718 0
M  V30 5560 C 563.589 -0.754667 -1.44026 0
M  V30 5561 O 564.773 -1.00551 -1.59442 0
M  V30 5562 C 561.9 -2.12352 -2.63864 0
M  V30 5563 C 560.946 -3.35053 -2.63897 0
M  V30 5564 S 561.779 -4.90228 -2.15492 0
M  V30 5565 C 562.935 -5.16171 -3.54004 0
M  V30 5566 H 563.168 -2.80365 -0.989075 0
M  V30 5567 H 560.701 -1.49125 -0.40014 0
M  V30 5568 H 562.659 -2.26214 -3.42545 0
M  V30 5569 H 561.32 -1.22214 -2.89349 0
M  V30 5570 H 560.513 -3.48182 -3.64397 0
M  V30 5571 H 560.115 -3.20176 -1.93296 0
M  V30 5572 H 562.407 -5.06591 -4.49857 0
M  V30 5573 H 563.35 -6.17938 -3.45771 0
M  V30 5574 H 563.758 -4.43814 -3.48841 0
M  V30 5575 N 563.156 0.464375 -1.50603 0
M  V30 5576 C 564.103 1.56152 -1.69956 0
M  V30 5577 C 565.073 1.57046 -0.54091 0
M  V30 5578 O 566.258 1.74473 -0.772258 0
M  V30 5579 C 563.398 2.94079 -1.80586 0
M  V30 5580 C 562.511 3.02923 -3.07996 0
M  V30 5581 C 561.646 4.31806 -3.09382 0
M  V30 5582 C 560.685 4.34417 -4.31218 0
M  V30 5583 N 559.822 5.54782 -4.30304 0
M  V30 5584 H 564.662 1.38955 -2.6362 0
M  V30 5585 H 562.199 0.675482 -1.30674 0
M  V30 5586 H 564.157 3.74073 -1.8473 0
M  V30 5587 H 562.787 3.09896 -0.903556 0
M  V30 5588 H 561.839 2.1576 -3.13292 0
M  V30 5589 H 563.151 3.00712 -3.97962 0
M  V30 5590 H 562.305 5.20153 -3.12292 0
M  V30 5591 H 561.044 4.36636 -2.17257 0
M  V30 5592 H 560.049 3.44467 -4.28512 0
M  V30 5593 H 561.274 4.31273 -5.24576 0
M  V30 5594 H 559.22 5.60384 -3.41037 0
M  V30 5595 H 559.137 5.54339 -5.14047 0
M  V30 5596 H 560.405 6.45235 -4.3737 0
M  V30 5597 N 564.634 1.40294 0.718013 0
M  V30 5598 C 565.88 1.38645 1.48005 0
M  V30 5599 C 566.213 -0.0121202 1.94196 0
M  V30 5600 O 565.488 -0.980309 1.67989 0
M  V30 5601 C 565.771 2.37379 2.70782 0
M  V30 5602 C 565.624 3.8625 2.30501 0
M  V30 5603 C 566.943 2.33685 3.72933 0
M  V30 5604 H 564.062 0.504928 0.536858 0
M  V30 5605 H 566.704 1.71411 0.819649 0
M  V30 5606 H 564.854 2.09568 3.27129 0
M  V30 5607 H 566.526 4.24879 1.79655 0
M  V30 5608 H 564.769 4.02202 1.6253 0
M  V30 5609 H 565.44 4.50847 3.18498 0
M  V30 5610 H 567.916 2.58314 3.2621 0
M  V30 5611 H 566.792 3.0482 4.56482 0
M  V30 5612 H 567.053 1.34765 4.21059 0
M  V30 5613 N 566.112 -0.949982 1.2575 0
M  V30 5614 C 567.044 -2.05088 1.02331 0
M  V30 5615 C 568.057 -1.62795 -0.0133247 0
M  V30 5616 O 569.246 -1.77067 0.225759 0
M  V30 5617 C 566.346 -3.34794 0.525924 0
M  V30 5618 C 565.519 -4.05903 1.62978 0
M  V30 5619 C 564.578 -5.1388 1.13196 0
M  V30 5620 O 563.604 -5.39072 1.82729 0
M  V30 5621 N 564.806 -5.80495 -0.0242926 0
M  V30 5622 H 567.571 -2.25747 1.97125 0
M  V30 5623 H 565.132 -1.11886 1.17018 0
M  V30 5624 H 567.124 -4.04312 0.177263 0
M  V30 5625 H 565.694 -3.10872 -0.328202 0
M  V30 5626 H 564.914 -3.3042 2.1498 0
M  V30 5627 H 566.202 -4.50166 2.37124 0
M  V30 5628 H 565.6 -5.62454 -0.605184 0
M  V30 5629 H 564.157 -6.51043 -0.313947 0
M  V30 5630 N 567.59 -1.07411 -1.15328 0
M  V30 5631 C 569.006 -0.799759 -1.38116 0
M  V30 5632 C 569.206 0.59572 -1.92493 0
M  V30 5633 O 568.262 1.35433 -2.13106 0
M  V30 5634 C 569.575 -1.87407 -2.35158 0
M  V30 5635 C 571.123 -1.89889 -2.48819 0
M  V30 5636 C 571.598 -2.96406 -3.49153 0
M  V30 5637 N 573.089 -2.95512 -3.56689 0
M  V30 5638 C 573.824 -3.74575 -4.34144 0
M  V30 5639 N 573.32 -4.63488 -5.14928 0
M  V30 5640 N 575.113 -3.62919 -4.29239 0
M  V30 5641 H 567.264 -1.97411 -0.78374 0
M  V30 5642 H 569.527 -0.856113 -0.407154 0
M  V30 5643 H 569.233 -2.8768 -2.0232 0
M  V30 5644 H 569.107 -1.73471 -3.34944 0
M  V30 5645 H 571.494 -0.902677 -2.80955 0
M  V30 5646 H 571.575 -2.07904 -1.49029 0
M  V30 5647 H 571.219 -3.96227 -3.17752 0
M  V30 5648 H 571.149 -2.75638 -4.48699 0
M  V30 5649 H 573.64 -2.31061 -2.99031 0
M  V30 5650 H 573.953 -5.20445 -5.71276 0
M  V30 5651 H 572.298 -4.67537 -5.14232 0
M  V30 5652 H 575.489 -2.92833 -3.65194 0
M  V30 5653 H 575.662 -4.24777 -4.89355 0
M  V30 5654 N 569.068 1.32177 -0.85831 0
M  V30 5655 C 570.316 1.96735 -0.462568 0
M  V30 5656 C 570.637 1.6824 0.985911 0
M  V30 5657 O 569.907 0.991564 1.68952 0
M  V30 5658 H 568.487 0.727849 -0.168064 0
M  V30 5659 H 571.149 1.61195 -1.09554 0
M  V30 5660 H 570.245 3.06068 -0.610647 0
M  V30 5661 N 570.547 0.616602 1.45037 0
M  V30 5662 C 571.51 -0.0871112 2.29034 0
M  V30 5663 C 572.51 -0.786414 1.40258 0
M  V30 5664 O 573.7 -0.633207 1.62284 0
M  V30 5665 C 570.832 -1.13369 3.21497 0
M  V30 5666 H 572.025 0.651497 2.92738 0
M  V30 5667 H 569.578 0.376058 1.51709 0
M  V30 5668 H 570.313 -1.90277 2.62612 0
M  V30 5669 H 570.098 -0.636358 3.86902 0
M  V30 5670 H 571.588 -1.62627 3.84633 0
M  V30 5671 N 572.025 -1.5352 0.356285 0
M  V30 5672 C 572.955 -2.28372 -0.486661 0
M  V30 5673 C 573.936 -1.30432 -1.09185 0
M  V30 5674 O 575.121 -1.59291 -1.11085 0
M  V30 5675 C 572.251 -3.06604 -1.63129 0
M  V30 5676 C 571.205 -4.12154 -1.15381 0
M  V30 5677 C 570.531 -4.78415 -2.38796 0
M  V30 5678 C 571.831 -5.21724 -0.245179 0
M  V30 5679 H 573.525 -2.99083 0.137797 0
M  V30 5680 H 571.071 -1.43841 0.0677134 0
M  V30 5681 H 573.024 -3.57712 -2.22755 0
M  V30 5682 H 571.748 -2.33568 -2.28284 0
M  V30 5683 H 570.407 -3.61978 -0.580294 0
M  V30 5684 H 570.055 -4.01959 -3.02387 0
M  V30 5685 H 569.755 -5.49734 -2.07524 0
M  V30 5686 H 571.279 -5.32313 -2.99125 0
M  V30 5687 H 572.693 -5.68391 -0.748646 0
M  V30 5688 H 571.09 -6.00095 -0.0237608 0
M  V30 5689 H 572.16 -4.79596 0.715229 0
M  V30 5690 N 573.503 -0.0852151 -1.57369 0
M  V30 5691 C 574.466 0.8627 -2.12344 0
M  V30 5692 C 575.466 1.21746 -1.05046 0
M  V30 5693 O 576.656 1.14852 -1.30976 0
M  V30 5694 C 573.788 2.1618 -2.63589 0
M  V30 5695 H 574.981 0.385511 -2.97412 0
M  V30 5696 H 572.534 0.163663 -1.55441 0
M  V30 5697 H 573.269 2.68406 -1.82013 0
M  V30 5698 H 573.054 1.91723 -3.4203 0
M  V30 5699 H 574.544 2.84011 -3.06149 0
M  V30 5700 N 574.981 1.5647 0.188427 0
M  V30 5701 C 575.891 1.98285 1.2538 0
M  V30 5702 C 576.907 0.891535 1.49424 0
M  V30 5703 O 578.083 1.19782 1.61908 0
M  V30 5704 C 575.148 2.31965 2.57669 0
M  V30 5705 C 574.209 3.54838 2.41638 0
M  V30 5706 C 573.442 3.86901 3.67618 0
M  V30 5707 O 573.665 3.20163 4.72072 0
M  V30 5708 O 572.599 4.80309 3.62749 0
M  V30 5709 H 576.425 2.89145 0.928912 0
M  V30 5710 H 574.01 1.44112 0.393955 0
M  V30 5711 H 575.892 2.54673 3.35737 0
M  V30 5712 H 574.567 1.44271 2.89771 0
M  V30 5713 H 573.474 3.37369 1.61658 0
M  V30 5714 H 574.807 4.43019 2.14465 0
M  V30 5715 N 576.459 -0.456382 1.50847 0
M  V30 5716 C 577.369 -1.57805 1.73594 0
M  V30 5717 C 578.385 -1.62599 0.619476 0
M  V30 5718 O 579.561 -1.80195 0.899532 0
M  V30 5719 C 576.626 -2.93926 1.8387 0
M  V30 5720 C 575.687 -2.99402 3.07663 0
M  V30 5721 C 574.92 -4.29031 3.1744 0
M  V30 5722 O 575.143 -5.20358 2.33631 0
M  V30 5723 O 574.077 -4.40401 4.10281 0
M  V30 5724 H 577.903 -1.41531 2.68705 0
M  V30 5725 H 575.488 -0.637422 1.3512 0
M  V30 5726 H 577.37 -3.74747 1.92725 0
M  V30 5727 H 576.045 -3.10368 0.91944 0
M  V30 5728 H 574.952 -2.17606 3.043 0
M  V30 5729 H 576.285 -2.87901 3.99216 0
M  V30 5730 N 577.937 -1.40673 -0.710563 0
M  V30 5731 C 579.165 -1.42547 -1.4996 0
M  V30 5732 C 579.58 -0.0265485 -1.88781 0
M  V30 5733 O 578.937 0.950694 -1.55782 0
M  V30 5734 C 578.988 -2.32071 -2.77173 0
M  V30 5735 O 578.709 -3.66518 -2.39992 0
M  V30 5736 C 580.21 -2.42591 -3.71032 0
M  V30 5737 H 577.43 -0.486025 -0.462623 0
M  V30 5738 H 579.974 -1.84783 -0.876102 0
M  V30 5739 H 578.129 -1.93184 -3.35795 0
M  V30 5740 H 578.543 -4.14115 -3.21884 0
M  V30 5741 H 580.017 -3.09429 -4.57119 0
M  V30 5742 H 580.494 -1.4525 -4.14486 0
M  V30 5743 H 581.1 -2.82051 -3.18319 0
M  V30 5744 N 579.415 0.9433 -1.26252 0
M  V30 5745 C 580.663 1.68592 -1.11451 0
M  V30 5746 C 580.984 1.91957 0.343123 0
M  V30 5747 O 580.254 1.51475 1.24226 0
M  V30 5748 H 578.834 0.624789 -0.409448 0
M  V30 5749 H 581.496 1.13351 -1.58548 0
M  V30 5750 H 580.592 2.66054 -1.63162 0
M  V30 5751 N 580.893 1.08022 1.14757 0
M  V30 5752 C 582.17 0.720386 1.81851 0
M  V30 5753 C 582.55 -0.796375 1.95502 0
M  V30 5754 O 581.898 -1.71339 1.51179 0
M  V30 5755 C 582.108 1.44273 3.17783 0
M  V30 5756 C 583.456 1.59925 3.93331 0
M  V30 5757 O 584.48 1.40407 3.2736 0
M  V30 5758 O 583.339 1.92096 5.11626 0
M  V30 5759 H 580.433 0.257142 0.786007 0
M  V30 5760 H 582.979 1.18155 1.21809 0
M  V30 5761 H 581.751 2.47618 3.02987 0
M  V30 5762 H 581.374 0.97279 3.85516 0
M  V30 5763 N 582.371 -1.3172 0.865308 0
M  V30 5764 C 583.319 -2.30569 0.306674 0
M  V30 5765 C 584.313 -1.59317 -0.575724 0
M  V30 5766 O 585.519 -1.73961 -0.462343 0
M  V30 5767 H 581.894 -0.747681 0.0804834 0
M  V30 5768 H 583.865 -2.75165 1.15441 0
M  V30 5769 C 582.614 -3.44358 -0.480952 0
M  V30 5770 H 581.937 -3.99354 0.18876 0
M  V30 5771 H 583.377 -4.15652 -0.837241 0
M  V30 5772 C 581.836 -2.92574 -1.67039 0
M  V30 5773 O 582.366 -2.90954 -2.76964 0
M  V30 5774 N 580.572 -2.48835 -1.50097 0
M  V30 5775 H 580.119 -2.50353 -0.606738 0
M  V30 5776 H 580.077 -2.14543 -2.29823 0
M  V30 5777 N 583.85 -0.624285 -1.44708 0
M  V30 5778 C 585.127 -0.0572781 -1.95516 0
M  V30 5779 C 585.507 1.41516 -1.56641 0
M  V30 5780 O 584.855 2.12614 -0.837111 0
M  V30 5781 C 585.065 -0.272944 -3.47931 0
M  V30 5782 C 586.413 -0.162529 -4.24289 0
M  V30 5783 O 587.437 -0.203946 -3.55616 0
M  V30 5784 O 586.296 -0.0616847 -5.46465 0
M  V30 5785 H 583.389 0.0262219 -0.826584 0
M  V30 5786 H 585.936 -0.695512 -1.54793 0
M  V30 5787 H 584.707 -1.29492 -3.69253 0
M  V30 5788 H 584.331 0.399756 -3.95585 0
M  V30 5789 N 585.328 1.53329 -0.364422 0
M  V30 5790 C 586.276 2.27212 0.497737 0
M  V30 5791 C 587.27 1.30146 1.08437 0
M  V30 5792 O 588.476 1.47778 1.0277 0
M  V30 5793 H 584.851 0.730329 0.179232 0
M  V30 5794 H 586.822 2.98037 -0.147182 0
M  V30 5795 C 585.571 3.07333 1.6261 0
M  V30 5796 H 584.894 3.81866 1.184 0
M  V30 5797 H 586.334 3.62209 2.20409 0
M  V30 5798 C 584.793 2.18102 2.56775 0
M  V30 5799 O 585.323 1.79104 3.59562 0
M  V30 5800 N 583.529 1.82759 2.25937 0
M  V30 5801 H 583.076 2.14671 1.42387 0
M  V30 5802 H 583.034 1.23342 2.89196 0
M  V30 5803 N 586.806 0.0935595 1.57322 0
M  V30 5804 C 588.053 -0.570509 1.94297 0
M  V30 5805 C 588.381 -1.68286 0.97519 0
M  V30 5806 O 587.636 -1.95699 -0.00548655 0
M  V30 5807 C 587.935 -1.16692 3.37813 0
M  V30 5808 C 587.601 -0.178509 4.50547 0
M  V30 5809 C 586.263 0.0933475 4.81109 0
M  V30 5810 C 588.615 0.496472 5.1883 0
M  V30 5811 C 585.943 1.0469 5.77284 0
M  V30 5812 C 588.295 1.43849 6.16028 0
M  V30 5813 C 586.959 1.71859 6.44997 0
M  V30 5814 H 586.229 -0.208764 0.710984 0
M  V30 5815 H 588.876 0.169066 1.90752 0
M  V30 5816 H 587.181 -1.98271 3.37929 0
M  V30 5817 H 588.878 -1.6884 3.63722 0
M  V30 5818 H 585.468 -0.400584 4.26724 0
M  V30 5819 H 589.652 0.299584 4.95395 0
M  V30 5820 H 584.908 1.27094 5.98044 0
M  V30 5821 H 589.082 1.96734 6.68034 0
M  V30 5822 H 586.709 2.45906 7.19329 0
M  V30 5823 N 588.284 -1.56567 -0.180126 0
M  V30 5824 C 589.7 -1.50488 -0.531559 0
M  V30 5825 C 589.9 -0.796267 -1.851 0
M  V30 5826 O 588.956 -0.352978 -2.50021 0
M  V30 5827 C 590.269 -2.95201 -0.572456 0
M  V30 5828 C 591.817 -3.05957 -0.660264 0
M  V30 5829 C 592.292 -4.5211 -0.732135 0
M  V30 5830 N 593.783 -4.56322 -0.795262 0
M  V30 5831 C 594.518 -5.66742 -0.871296 0
M  V30 5832 N 594.014 -6.86815 -0.908708 0
M  V30 5833 N 595.807 -5.54691 -0.909639 0
M  V30 5834 H 587.958 -2.01045 0.685165 0
M  V30 5835 H 590.221 -0.915536 0.245962 0
M  V30 5836 H 589.927 -3.50165 0.328208 0
M  V30 5837 H 589.801 -3.49369 -1.422 0
M  V30 5838 H 592.188 -2.51032 -1.55136 0
M  V30 5839 H 592.269 -2.54888 0.215783 0
M  V30 5840 H 591.913 -5.07664 0.154664 0
M  V30 5841 H 591.843 -5.00926 -1.6242 0
M  V30 5842 H 594.334 -3.69868 -0.77499 0
M  V30 5843 H 594.647 -7.66718 -0.967654 0
M  V30 5844 H 592.992 -6.89443 -0.877132 0
M  V30 5845 H 596.183 -4.59804 -0.877353 0
M  V30 5846 H 596.356 -6.40768 -0.965434 0
M  V30 5847 N 589.762 0.448376 -1.51087 0
M  V30 5848 C 591.008 1.20049 -1.6345 0
M  V30 5849 C 591.341 1.91121 -0.344444 0
M  V30 5850 O 590.616 1.83125 0.655396 0
M  V30 5851 C 590.899 2.22624 -2.83038 0
M  V30 5852 C 590.752 1.55708 -4.21989 0
M  V30 5853 C 592.071 3.23718 -2.98152 0
M  V30 5854 H 589.19 0.435085 -0.59487 0
M  V30 5855 H 591.832 0.491183 -1.83541 0
M  V30 5856 H 589.982 2.83117 -2.66039 0
M  V30 5857 H 591.654 0.986367 -4.50631 0
M  V30 5858 H 589.897 0.859647 -4.25197 0
M  V30 5859 H 590.568 2.30357 -5.01637 0
M  V30 5860 H 593.044 2.73269 -3.13788 0
M  V30 5861 H 591.92 3.92795 -3.83411 0
M  V30 5862 H 592.181 3.89179 -2.09743 0
M  V30 5863 N 591.24 1.41047 0.703093 0
M  V30 5864 C 592.187 1.42302 1.81711 0
M  V30 5865 C 593.157 0.278336 1.63751 0
M  V30 5866 O 594.342 0.478266 1.84709 0
M  V30 5867 C 591.482 1.30362 3.19531 0
M  V30 5868 C 590.595 2.54638 3.48975 0
M  V30 5869 C 589.73 2.35047 4.76368 0
M  V30 5870 C 588.769 3.54837 4.98756 0
M  V30 5871 N 587.906 3.34363 6.1737 0
M  V30 5872 H 592.746 2.37516 1.79973 0
M  V30 5873 H 590.283 1.1795 0.878983 0
M  V30 5874 H 592.241 1.21443 3.99134 0
M  V30 5875 H 590.871 0.387602 3.20464 0
M  V30 5876 H 589.923 2.74037 2.63833 0
M  V30 5877 H 591.235 3.43766 3.61423 0
M  V30 5878 H 590.389 2.23552 5.64012 0
M  V30 5879 H 589.128 1.43363 4.66153 0
M  V30 5880 H 588.133 3.66795 4.09563 0
M  V30 5881 H 589.358 4.47464 5.10835 0
M  V30 5882 H 587.304 2.45373 6.08382 0
M  V30 5883 H 587.221 4.17063 6.30551 0
M  V30 5884 H 588.489 3.26626 7.07768 0
M  V30 5885 N 592.718 -0.936591 1.26751 0
M  V30 5886 C 594.134 -1.21095 1.03963 0
M  V30 5887 C 594.334 -2.00156 -0.232372 0
M  V30 5888 O 593.39 -2.3434 -0.940274 0
M  V30 5889 C 594.703 -1.96775 2.27377 0
M  V30 5890 C 596.251 -2.09749 2.32324 0
M  V30 5891 C 596.726 -2.88832 3.55443 0
M  V30 5892 N 598.217 -2.96404 3.55948 0
M  V30 5893 C 598.952 -3.58036 4.47881 0
M  V30 5894 N 598.448 -4.21132 5.50109 0
M  V30 5895 N 600.241 -3.55353 4.35523 0
M  V30 5896 H 592.392 -0.408173 2.08441 0
M  V30 5897 H 594.655 -0.243139 0.91629 0
M  V30 5898 H 594.361 -1.46094 3.19921 0
M  V30 5899 H 594.235 -2.97424 2.31989 0
M  V30 5900 H 596.622 -2.5962 1.40291 0
M  V30 5901 H 596.703 -1.08347 2.31721 0
M  V30 5902 H 596.347 -2.39647 4.47808 0
M  V30 5903 H 596.277 -3.90499 3.53296 0
M  V30 5904 H 598.768 -2.51552 2.82011 0
M  V30 5905 H 599.081 -4.66071 6.16439 0
M  V30 5906 H 597.426 -4.19705 5.53961 0
M  V30 5907 H 600.617 -3.05256 3.54875 0
M  V30 5908 H 600.79 -4.03097 5.07363 0
M  V30 5909 N 594.196 -1.08629 -1.14182 0
M  V30 5910 C 595.426 -0.837673 -1.88856 0
M  V30 5911 C 595.834 0.614024 -1.78959 0
M  V30 5912 O 595.177 1.43384 -1.14833 0
M  V30 5913 C 595.239 -1.18355 -3.39459 0
M  V30 5914 C 594.903 -2.63848 -3.73139 0
M  V30 5915 C 595.9 -3.62099 -3.73069 0
M  V30 5916 C 593.585 -2.99761 -4.03049 0
M  V30 5917 C 595.579 -4.94292 -4.02435 0
M  V30 5918 C 593.266 -4.32147 -4.32078 0
M  V30 5919 C 594.264 -5.29223 -4.31755 0
M  V30 5920 O 593.952 -6.59229 -4.60079 0
M  V30 5921 H 593.684 -0.301609 -0.604986 0
M  V30 5922 H 596.238 -1.44961 -1.45518 0
M  V30 5923 H 594.468 -0.514628 -3.8326 0
M  V30 5924 H 596.157 -0.915391 -3.95443 0
M  V30 5925 H 596.923 -3.35698 -3.50046 0
M  V30 5926 H 592.802 -2.2484 -4.02453 0
M  V30 5927 H 596.346 -5.70055 -4.02098 0
M  V30 5928 H 592.243 -4.58296 -4.54571 0
M  V30 5929 H 593.011 -6.64578 -4.77785 0
M  V30 5930 N 595.674 1.31259 -0.872281 0
M  V30 5931 C 596.923 1.95893 -0.480493 0
M  V30 5932 C 597.236 1.697 0.972688 0
M  V30 5933 O 598.442 2.28214 1.47073 0
M  V30 5934 C 596.898 3.50705 -0.808342 0
M  V30 5935 C 596.506 3.85735 -2.27844 0
M  V30 5936 C 598.25 4.21719 -0.485136 0
M  V30 5937 C 596.157 5.33668 -2.54858 0
M  V30 5938 H 595.087 0.733182 -0.175955 0
M  V30 5939 H 597.738 1.49396 -1.0655 0
M  V30 5940 H 596.12 3.95706 -0.152558 0
M  V30 5941 H 597.294 3.51686 -2.97748 0
M  V30 5942 H 595.609 3.27792 -2.56791 0
M  V30 5943 H 598.206 5.30559 -0.664166 0
M  V30 5944 H 598.549 4.12316 0.574592 0
M  V30 5945 H 599.082 3.82359 -1.09756 0
M  V30 5946 H 595.821 5.48109 -3.59523 0
M  V30 5947 H 595.341 5.69061 -1.8955 0
M  V30 5948 H 597.02 6.00958 -2.39706 0
M  V30 5949 N 597.152 0.631951 1.44375 0
M  V30 5950 C 598.115 -0.0628142 2.29114 0
M  V30 5951 C 599.115 -0.771494 1.41084 0
M  V30 5952 O 600.305 -0.615959 1.62947 0
M  V30 5953 C 597.437 -1.09953 3.22681 0
M  V30 5954 H 598.63 0.682509 2.92031 0
M  V30 5955 H 596.183 0.392128 1.51301 0
M  V30 5956 H 596.918 -1.87481 2.64616 0
M  V30 5957 H 596.703 -0.595286 3.87555 0
M  V30 5958 H 598.193 -1.58538 3.86336 0
M  V30 5959 N 598.631 -1.53133 0.372548 0
M  V30 5960 C 599.578 -2.25951 -0.470631 0
M  V30 5961 C 600.548 -1.26895 -1.07176 0
M  V30 5962 O 601.733 -1.55691 -1.10294 0
M  V30 5963 C 598.873 -3.05726 -1.6008 0
M  V30 5964 C 597.986 -4.19684 -1.02416 0
M  V30 5965 C 597.121 -4.86888 -2.124 0
M  V30 5966 C 596.16 -5.92866 -1.52238 0
M  V30 5967 N 595.297 -6.53732 -2.56084 0
M  V30 5968 H 600.137 -2.97587 0.156816 0
M  V30 5969 H 597.674 -1.4683 0.0891571 0
M  V30 5970 H 599.632 -3.50258 -2.26661 0
M  V30 5971 H 598.262 -2.36331 -2.1988 0
M  V30 5972 H 597.314 -3.79588 -0.248426 0
M  V30 5973 H 598.626 -4.95821 -0.544366 0
M  V30 5974 H 597.78 -5.34638 -2.86787 0
M  V30 5975 H 596.519 -4.10239 -2.63734 0
M  V30 5976 H 595.524 -5.4447 -0.763685 0
M  V30 5977 H 596.749 -6.71439 -1.0172 0
M  V30 5978 H 594.695 -5.79932 -3.06618 0
M  V30 5979 H 594.612 -7.25429 -2.12811 0
M  V30 5980 H 595.88 -7.0613 -3.30152 0
M  V30 5981 N 600.109 -0.101901 -1.5727 0
M  V30 5982 C 601.339 0.567568 -1.98651 0
M  V30 5983 C 601.747 1.61839 -0.980037 0
M  V30 5984 O 601.09 1.83661 0.0376564 0
M  V30 5985 C 601.152 1.26742 -3.36417 0
M  V30 5986 C 600.816 0.366561 -4.55528 0
M  V30 5987 C 601.813 -0.388022 -5.1845 0
M  V30 5988 C 599.498 0.282629 -5.01504 0
M  V30 5989 C 601.492 -1.21445 -6.25724 0
M  V30 5990 C 599.179 -0.547443 -6.08643 0
M  V30 5991 C 600.177 -1.29462 -6.70618 0
M  V30 5992 O 599.865 -2.11095 -7.7569 0
M  V30 5993 H 599.597 0.156282 -0.657687 0
M  V30 5994 H 602.151 -0.179912 -2.04611 0
M  V30 5995 H 600.381 2.06162 -3.27161 0
M  V30 5996 H 602.07 1.8321 -3.622 0
M  V30 5997 H 602.836 -0.332949 -4.83856 0
M  V30 5998 H 598.715 0.853868 -4.53023 0
M  V30 5999 H 602.259 -1.79814 -6.74027 0
M  V30 6000 H 598.156 -0.603971 -6.42668 0
M  V30 6001 H 598.924 -2.03851 -7.92709 0
M  V30 6002 N 601.587 1.56661 0.17182 0
M  V30 6003 C 602.815 1.861 0.904115 0
M  V30 6004 C 603.23 0.687227 1.75848 0
M  V30 6005 O 602.587 -0.343671 1.79235 0
M  V30 6006 C 602.638 3.14568 1.78127 0
M  V30 6007 O 602.359 4.27422 0.961366 0
M  V30 6008 C 603.86 3.5735 2.62327 0
M  V30 6009 H 601.08 0.617445 0.262684 0
M  V30 6010 H 603.624 2.03775 0.172068 0
M  V30 6011 H 601.779 2.98721 2.46666 0
M  V30 6012 H 602.193 5.00725 1.56123 0
M  V30 6013 H 603.667 4.50144 3.1949 0
M  V30 6014 H 604.144 2.81445 3.37173 0
M  V30 6015 H 604.75 3.75807 1.99121 0
M  V30 6016 N 603.065 -0.440357 1.51323 0
M  V30 6017 C 604.314 -1.18697 1.63076 0
M  V30 6018 C 604.627 -1.92418 0.35136 0
M  V30 6019 O 605.833 -2.69258 0.348221 0
M  V30 6020 C 604.289 -2.15849 2.87988 0
M  V30 6021 C 603.897 -1.47789 4.22921 0
M  V30 6022 C 605.641 -2.90962 3.09098 0
M  V30 6023 C 603.548 -2.43407 5.38987 0
M  V30 6024 H 602.478 -0.44676 0.607389 0
M  V30 6025 H 605.129 -0.454313 1.77787 0
M  V30 6026 H 603.511 -2.92537 2.66905 0
M  V30 6027 H 604.685 -0.7668 4.54375 0
M  V30 6028 H 603 -0.848404 4.07665 0
M  V30 6029 H 605.597 -3.62584 3.92985 0
M  V30 6030 H 605.94 -3.52133 2.22053 0
M  V30 6031 H 606.473 -2.21381 3.30507 0
M  V30 6032 H 603.212 -1.86929 6.28282 0
M  V30 6033 H 602.732 -3.12579 5.11913 0
M  V30 6034 H 604.411 -3.046 5.70813 0
M  V30 6035 N 604.543 -1.41418 -0.695603 0
M  V30 6036 C 605.491 -1.43467 -1.83084 0
M  V30 6037 C 606.485 -0.312719 -1.66489 0
M  V30 6038 O 607.691 -0.484744 -1.7335 0
M  V30 6039 H 604.066 -0.448891 -0.603325 0
M  V30 6040 H 606.037 -2.39144 -1.78473 0
M  V30 6041 C 604.786 -1.3337 -3.21104 0
M  V30 6042 H 604.109 -2.18989 -3.3449 0
M  V30 6043 H 605.549 -1.38865 -4.00615 0
M  V30 6044 C 604.008 -0.0460484 -3.36869 0
M  V30 6045 O 604.538 0.909258 -3.91274 0
M  V30 6046 N 602.744 0.0300222 -2.90584 0
M  V30 6047 H 602.291 -0.748129 -2.46497 0
M  V30 6048 H 602.249 0.890991 -3.01511 0
M  V30 6049 N 606.021 0.929856 -1.27246 0
M  V30 6050 C 607.432 1.49223 -1.12203 0
M  V30 6051 C 607.783 1.93989 0.293731 0
M  V30 6052 O 606.908 1.80978 1.18642 0
M  V30 6053 C 607.503 2.71198 -2.0307 0
M  V30 6054 C 606.062 3.23666 -1.92139 0
M  V30 6055 C 605.209 1.96409 -1.95752 0
M  V30 6056 H 608.16 0.744181 -1.4017 0
M  V30 6057 H 608.181 3.45905 -1.58524 0
M  V30 6058 H 607.693 2.38585 -3.06102 0
M  V30 6059 H 605.794 3.61042 -0.920834 0
M  V30 6060 H 605.907 3.90006 -2.78267 0
M  V30 6061 H 604.271 2.12806 -1.39949 0
M  V30 6062 H 605.054 1.66113 -3.00436 0
M  V30 6063 N 607.499 1.09233 1.13605 0
M  V30 6064 C 608.462 0.733553 2.17144 0
M  V30 6065 C 609.462 -0.235873 1.59061 0
M  V30 6066 O 610.652 -0.0143167 1.74194 0
M  V30 6067 C 607.784 0.084471 3.40795 0
M  V30 6068 H 608.977 1.65049 2.50397 0
M  V30 6069 H 606.53 0.891264 1.28399 0
M  V30 6070 H 607.265 -0.843795 3.1313 0
M  V30 6071 H 607.05 0.781985 3.84223 0
M  V30 6072 H 608.54 -0.151216 4.17326 0
M  V30 6073 N 608.977 -1.30795 0.87923 0
M  V30 6074 C 609.907 -2.30742 0.357796 0
M  V30 6075 C 610.888 -1.60747 -0.556283 0
M  V30 6076 O 612.073 -1.88393 -0.47135 0
M  V30 6077 C 609.203 -3.44583 -0.433555 0
M  V30 6078 C 608.157 -4.26235 0.388251 0
M  V30 6079 C 607.483 -5.32073 -0.529352 0
M  V30 6080 C 608.783 -4.96303 1.62729 0
M  V30 6081 H 610.477 -2.74605 1.19299 0
M  V30 6082 H 608.023 -1.32017 0.575104 0
M  V30 6083 H 609.976 -4.13563 -0.808934 0
M  V30 6084 H 608.7 -2.99511 -1.30234 0
M  V30 6085 H 607.359 -3.58936 0.745695 0
M  V30 6086 H 607.007 -4.83249 -1.39569 0
M  V30 6087 H 606.707 -5.87598 0.0166741 0
M  V30 6088 H 608.231 -6.0391 -0.901373 0
M  V30 6089 H 609.645 -5.5783 1.32283 0
M  V30 6090 H 608.042 -5.61666 2.11309 0
M  V30 6091 H 609.112 -4.22758 2.37494 0
M  V30 6092 N 610.455 -0.639598 -1.44038 0
M  V30 6093 C 611.683 -0.154811 -2.0632 0
M  V30 6094 C 612.098 1.17406 -1.47856 0
M  V30 6095 O 611.455 1.72193 -0.604638 0
M  V30 6096 C 611.506 -0.0429958 -3.61474 0
M  V30 6097 O 611.227 -1.31932 -4.17763 0
M  V30 6098 C 612.728 0.469486 -4.40807 0
M  V30 6099 H 609.948 -0.0835862 -0.665773 0
M  V30 6100 H 612.492 -0.876397 -1.84769 0
M  V30 6101 H 610.647 0.629075 -3.82258 0
M  V30 6102 H 611.061 -1.16965 -5.11292 0
M  V30 6103 H 612.535 0.496712 -5.49761 0
M  V30 6104 H 613.012 1.49819 -4.12857 0
M  V30 6105 H 613.618 -0.169624 -4.24962 0
M  V30 6106 N 611.933 1.52934 -0.380664 0
M  V30 6107 C 612.883 2.22989 0.475399 0
M  V30 6108 C 613.867 1.23058 1.03661 0
M  V30 6109 O 615.059 1.48436 0.964146 0
M  V30 6110 C 612.188 3.0338 1.60671 0
M  V30 6111 C 611.274 4.107 1.05766 0
M  V30 6112 N 611.665 5.05264 0.232837 0
M  V30 6113 C 609.963 4.25676 1.33101 0
M  V30 6114 C 610.664 5.81658 -0.0695134 0
M  V30 6115 N 609.64 5.40989 0.532144 0
M  V30 6116 H 613.442 2.93456 -0.161418 0
M  V30 6117 H 610.956 1.61291 -0.189495 0
M  V30 6118 H 612.953 3.52098 2.23232 0
M  V30 6119 H 611.613 2.34446 2.24644 0
M  V30 6120 H 612.624 5.17739 -0.129204 0
M  V30 6121 H 609.301 3.6797 1.97241 0
M  V30 6122 H 610.691 6.67843 -0.737269 0
M  V30 6123 N 613.412 0.11024 1.57214 0
M  V30 6124 C 614.66 -0.548783 1.94506 0
M  V30 6125 C 614.981 -1.67772 0.99386 0
M  V30 6126 O 614.251 -1.9584 0.0485841 0
M  V30 6127 H 612.831 -0.205715 0.718116 0
M  V30 6128 H 615.493 0.177127 1.94093 0
M  V30 6129 H 614.589 -0.949096 2.97319 0
M  V30 6130 N 614.89 -1.56749 -0.16351 0
M  V30 6131 C 616.139 -1.81626 -0.877211 0
M  V30 6132 C 616.452 -0.688791 -1.83071 0
M  V30 6133 O 617.658 -0.822697 -2.58735 0
M  V30 6134 C 616.114 -3.21858 -1.61045 0
M  V30 6135 C 615.722 -4.42494 -0.700195 0
M  V30 6136 C 617.466 -3.56021 -2.31192 0
M  V30 6137 C 615.373 -5.73748 -1.43412 0
M  V30 6138 H 614.303 -0.67731 -0.331312 0
M  V30 6139 H 616.954 -1.83039 -0.13006 0
M  V30 6140 H 615.336 -3.14784 -2.40264 0
M  V30 6141 H 616.51 -4.60766 0.0555849 0
M  V30 6142 H 614.825 -4.1626 -0.10799 0
M  V30 6143 H 617.422 -4.51333 -2.8671 0
M  V30 6144 H 617.765 -2.81277 -3.06902 0
M  V30 6145 H 618.298 -3.64682 -1.58909 0
M  V30 6146 H 615.037 -6.51543 -0.719186 0
M  V30 6147 H 614.557 -5.5944 -2.16302 0
M  V30 6148 H 616.236 -6.15975 -1.9795 0
M  V30 6149 N 616.368 0.432326 -1.51554 0
M  V30 6150 C 617.331 1.50765 -1.72634 0
M  V30 6151 C 618.331 1.49334 -0.596314 0
M  V30 6152 O 619.521 1.51268 -0.863925 0
M  V30 6153 C 616.653 2.90284 -1.7874 0
M  V30 6154 H 617.846 1.33377 -2.68609 0
M  V30 6155 H 615.399 0.661329 -1.4162 0
M  V30 6156 H 616.134 3.13071 -0.845977 0
M  V30 6157 H 615.919 2.92727 -2.6087 0
M  V30 6158 H 617.409 3.68282 -1.96871 0
M  V30 6159 N 617.846 1.41785 0.688094 0
M  V30 6160 C 618.796 1.40684 1.79421 0
M  V30 6161 C 619.78 0.280096 1.58443 0
M  V30 6162 O 620.972 0.521332 1.69148 0
M  V30 6163 C 618.101 1.29874 3.17785 0
M  V30 6164 C 617.187 2.47442 3.44432 0
M  V30 6165 N 617.578 3.72895 3.41736 0
M  V30 6166 C 615.876 2.41416 3.75013 0
M  V30 6167 C 616.577 4.50912 3.67496 0
M  V30 6168 N 615.553 3.81131 3.87608 0
M  V30 6169 H 619.355 2.35591 1.7571 0
M  V30 6170 H 616.869 1.35946 0.888393 0
M  V30 6171 H 618.866 1.27168 3.97031 0
M  V30 6172 H 617.526 0.359587 3.22703 0
M  V30 6173 H 618.537 4.05676 3.21943 0
M  V30 6174 H 615.214 1.56011 3.87256 0
M  V30 6175 H 616.604 5.59865 3.71484 0
M  V30 6176 N 619.324 -0.923095 1.27737 0
M  V30 6177 C 620.234 -2.05765 1.12685 0
M  V30 6178 C 621.25 -1.73911 0.0557197 0
M  V30 6179 O 622.426 -1.99674 0.263137 0
M  V30 6180 C 619.491 -3.37804 0.780363 0
M  V30 6181 C 618.552 -3.83326 1.93286 0
M  V30 6182 C 617.785 -5.09064 1.60281 0
M  V30 6183 O 618.008 -5.6809 0.512828 0
M  V30 6184 O 616.942 -5.50071 2.44347 0
M  V30 6185 H 620.768 -2.21378 2.07907 0
M  V30 6186 H 618.353 -1.04299 1.06968 0
M  V30 6187 H 620.235 -4.17097 0.600668 0
M  V30 6188 H 618.91 -3.23387 -0.142291 0
M  V30 6189 H 617.817 -3.049 2.16764 0
M  V30 6190 H 619.15 -4.02292 2.83588 0
M  V30 6191 N 620.802 -1.09834 -1.13024 0
M  V30 6192 C 622.048 -0.83819 -1.84668 0
M  V30 6193 C 622.381 0.634645 -1.83537 0
M  V30 6194 O 621.656 1.46753 -1.27647 0
M  V30 6195 C 621.939 -1.37933 -3.32636 0
M  V30 6196 C 621.792 -2.91857 -3.42257 0
M  V30 6197 C 623.111 -1.01654 -4.28199 0
M  V30 6198 H 620.23 -0.30595 -0.670495 0
M  V30 6199 H 622.872 -1.36044 -1.32635 0
M  V30 6200 H 621.022 -0.935111 -3.77078 0
M  V30 6201 H 622.694 -3.44759 -3.06495 0
M  V30 6202 H 620.937 -3.28776 -2.83 0
M  V30 6203 H 621.608 -3.24799 -4.46329 0
M  V30 6204 H 624.084 -1.39973 -3.9185 0
M  V30 6205 H 622.96 -1.42217 -5.30156 0
M  V30 6206 H 623.221 0.0747794 -4.42037 0
M  V30 6207 N 622.28 1.30327 -0.886154 0
M  V30 6208 C 623.528 1.9571 -0.504195 0
M  V30 6209 C 623.849 1.70294 0.950003 0
M  V30 6210 O 623.119 1.02718 1.66811 0
M  V30 6211 H 621.699 0.72412 -0.183465 0
M  V30 6212 H 624.361 1.58835 -1.12949 0
M  V30 6213 H 623.457 3.04704 -0.675431 0
M  V30 6214 N 623.758 0.647228 1.43697 0
M  V30 6215 C 624.983 0.164083 2.0675 0
M  V30 6216 C 625.408 -1.15892 1.48158 0
M  V30 6217 O 624.766 -1.71459 0.589194 0
M  V30 6218 C 624.814 0.0800368 3.60511 0
M  V30 6219 O 623.918 -0.959453 4.01084 0
M  V30 6220 H 623.259 0.0921288 0.657578 0
M  V30 6221 H 625.789 0.88846 1.84303 0
M  V30 6222 H 625.799 -0.105263 4.07864 0
M  V30 6223 H 624.474 1.04586 4.02535 0
M  V30 6224 H 623.051 -0.747425 3.65333 0
M  V30 6225 N 625.236 -1.5273 0.388769 0
M  V30 6226 C 626.485 -2.00757 -0.194833 0
M  V30 6227 C 626.798 -1.27951 -1.47946 0
M  V30 6228 O 628.004 -1.66686 -2.14308 0
M  V30 6229 C 626.46 -3.57695 -0.397762 0
M  V30 6230 C 626.068 -4.394 0.873583 0
M  V30 6231 C 627.812 -4.14012 -0.937759 0
M  V30 6232 C 625.719 -5.87938 0.638962 0
M  V30 6233 H 624.649 -0.750101 -0.0765845 0
M  V30 6234 H 627.3 -1.76239 0.511086 0
M  V30 6235 H 625.682 -3.7846 -1.16552 0
M  V30 6236 H 626.856 -4.30403 1.64591 0
M  V30 6237 H 625.171 -3.94301 1.33849 0
M  V30 6238 H 627.768 -5.22645 -1.12899 0
M  V30 6239 H 628.111 -3.7007 -1.90666 0
M  V30 6240 H 628.644 -3.97137 -0.229588 0
M  V30 6241 H 625.383 -6.36202 1.57885 0
M  V30 6242 H 624.903 -5.99726 -0.094443 0
M  V30 6243 H 626.582 -6.46423 0.273299 0
M  V30 6244 N 626.714 -0.118576 -1.57153 0
M  V30 6245 C 627.624 0.845484 -2.18835 0
M  V30 6246 C 628.64 1.29299 -1.16438 0
M  V30 6247 O 629.816 1.35607 -1.48905 0
M  V30 6248 C 626.881 2.07795 -2.77529 0
M  V30 6249 C 625.942 1.6824 -3.9496 0
M  V30 6250 C 625.175 2.85612 -4.50845 0
M  V30 6251 O 625.398 4.01025 -4.05629 0
M  V30 6252 O 624.332 2.62721 -5.41536 0
M  V30 6253 H 628.158 0.350568 -3.0167 0
M  V30 6254 H 625.743 0.107013 -1.49016 0
M  V30 6255 H 627.625 2.79978 -3.14945 0
M  V30 6256 H 626.3 2.56294 -1.97725 0
M  V30 6257 H 625.207 0.931663 -3.62313 0
M  V30 6258 H 626.54 1.24484 -4.76198 0
M  V30 6259 N 628.193 1.56834 0.155195 0
M  V30 6260 C 629.439 1.83169 0.870467 0
M  V30 6261 C 629.772 0.698929 1.81187 0
M  V30 6262 O 629.047 -0.298035 1.92203 0
M  V30 6263 C 629.33 3.19965 1.65211 0
M  V30 6264 C 629.183 4.43792 0.732744 0
M  V30 6265 C 630.502 3.53885 2.61636 0
M  V30 6266 H 627.621 0.666288 0.315006 0
M  V30 6267 H 630.263 1.89513 0.135988 0
M  V30 6268 H 628.413 3.14687 2.27825 0
M  V30 6269 H 630.085 4.61148 0.118236 0
M  V30 6270 H 628.328 4.3378 0.0417906 0
M  V30 6271 H 628.999 5.36095 1.31552 0
M  V30 6272 H 631.475 3.5972 2.09143 0
M  V30 6273 H 630.351 4.50648 3.13381 0
M  V30 6274 H 630.612 2.79418 3.42605 0
M  V30 6275 N 629.671 -0.424282 1.51781 0
M  V30 6276 C 630.919 -1.17028 1.64769 0
M  V30 6277 C 631.24 -1.91409 0.372523 0
M  V30 6278 O 630.51 -1.86091 -0.612108 0
M  V30 6279 H 629.09 -0.434992 0.607282 0
M  V30 6280 H 631.752 -0.485169 1.88765 0
M  V30 6281 H 630.848 -1.8927 2.4816 0
M  V30 6282 N 631.149 -1.42148 -0.680565 0
M  V30 6283 C 632.096 -1.45175 -1.79424 0
M  V30 6284 C 633.066 -0.304352 -1.63288 0
M  V30 6285 O 634.251 -0.507591 -1.83924 0
M  V30 6286 C 631.391 -1.35429 -3.17416 0
M  V30 6287 C 630.504 -2.60158 -3.4488 0
M  V30 6288 C 629.639 -2.42596 -4.72568 0
M  V30 6289 C 628.678 -3.62727 -4.93047 0
M  V30 6290 N 627.815 -3.44143 -6.11973 0
M  V30 6291 H 632.655 -2.40349 -1.76172 0
M  V30 6292 H 630.192 -1.19334 -0.860107 0
M  V30 6293 H 632.15 -1.27777 -3.97151 0
M  V30 6294 H 630.78 -0.438536 -3.19807 0
M  V30 6295 H 629.832 -2.78199 -2.5944 0
M  V30 6296 H 631.144 -3.49473 -3.55908 0
M  V30 6297 H 630.298 -2.32497 -5.60384 0
M  V30 6298 H 629.037 -1.50761 -4.63813 0
M  V30 6299 H 628.042 -3.73264 -4.03676 0
M  V30 6300 H 629.267 -4.55534 -5.03652 0
M  V30 6301 H 627.213 -2.5502 -6.04401 0
M  V30 6302 H 627.13 -4.27041 -6.23836 0
M  V30 6303 H 628.398 -3.37845 -7.02482 0
M  V30 6304 N 632.627 0.916307 -1.28225 0
M  V30 6305 C 633.557 2.0352 -1.14464 0
M  V30 6306 C 634.538 1.70045 -0.0430844 0
M  V30 6307 O 635.723 1.92954 -0.219619 0
M  V30 6308 C 632.853 3.37889 -0.803027 0
M  V30 6309 C 631.807 3.85516 -1.85908 0
M  V30 6310 C 631.133 5.1682 -1.37116 0
M  V30 6311 C 632.433 4.07655 -3.26519 0
M  V30 6312 H 634.127 2.1529 -2.08064 0
M  V30 6313 H 631.673 1.03446 -1.00174 0
M  V30 6314 H 633.626 4.15654 -0.693537 0
M  V30 6315 H 632.35 3.26164 0.168674 0
M  V30 6316 H 631.009 3.09953 -1.95767 0
M  V30 6317 H 630.657 5.01497 -0.38859 0
M  V30 6318 H 630.357 5.49657 -2.07728 0
M  V30 6319 H 631.881 5.97143 -1.27484 0
M  V30 6320 H 633.295 4.75953 -3.19596 0
M  V30 6321 H 631.692 4.51818 -3.94943 0
M  V30 6322 H 632.762 3.12553 -3.70727 0
M  V30 6323 N 634.105 1.10431 1.1244 0
M  V30 6324 C 635.068 0.756542 2.16354 0
M  V30 6325 C 636.068 -0.21899 1.59302 0
M  V30 6326 O 637.258 0.00415969 1.742 0
M  V30 6327 C 634.39 0.120612 3.40687 0
M  V30 6328 H 635.583 1.67696 2.48632 0
M  V30 6329 H 633.136 0.904832 1.27446 0
M  V30 6330 H 633.871 -0.810536 3.14008 0
M  V30 6331 H 633.656 0.822693 3.83372 0
M  V30 6332 H 635.146 -0.106945 4.17463 0
M  V30 6333 N 635.583 -1.29855 0.893053 0
M  V30 6334 C 636.86 -1.90694 0.435336 0
M  V30 6335 C 637.24 -1.8111 -1.08454 0
M  V30 6336 O 636.588 -1.23352 -1.92345 0
M  V30 6337 C 636.798 -3.36033 0.942472 0
M  V30 6338 C 638.146 -4.13083 0.982226 0
M  V30 6339 O 639.17 -3.4491 0.889686 0
M  V30 6340 O 638.029 -5.34896 1.12022 0
M  V30 6341 H 635.123 -0.815978 0.134567 0
M  V30 6342 H 637.669 -1.38367 0.982484 0
M  V30 6343 H 636.441 -3.37132 1.9864 0
M  V30 6344 H 636.064 -3.95828 0.374952 0
M  V30 6345 N 637.061 -0.65484 -1.43351 0
M  V30 6346 C 637.991 0.0221809 -2.33489 0
M  V30 6347 C 638.972 0.810272 -1.49561 0
M  V30 6348 O 640.157 0.771426 -1.78221 0
M  V30 6349 C 637.287 0.988117 -3.32947 0
M  V30 6350 C 636.241 0.310026 -4.26876 0
M  V30 6351 C 635.567 1.38752 -5.16384 0
M  V30 6352 C 636.867 -0.798589 -5.16159 0
M  V30 6353 H 638.561 -0.730571 -2.9035 0
M  V30 6354 H 636.107 -0.352773 -1.39612 0
M  V30 6355 H 638.06 1.47067 -3.94904 0
M  V30 6356 H 636.784 1.77205 -2.74346 0
M  V30 6357 H 635.443 -0.152097 -3.66284 0
M  V30 6358 H 635.091 2.16293 -4.54121 0
M  V30 6359 H 634.791 0.939051 -5.80048 0
M  V30 6360 H 636.315 1.87141 -5.81215 0
M  V30 6361 H 637.729 -0.398126 -5.71916 0
M  V30 6362 H 636.126 -1.17163 -5.88552 0
M  V30 6363 H 637.196 -1.65588 -4.55751 0
M  V30 6364 N 638.539 1.52521 -0.396863 0
M  V30 6365 C 639.785 2.01971 0.183169 0
M  V30 6366 C 640.118 1.2825 1.45827 0
M  V30 6367 O 639.393 0.385179 1.90648 0
M  V30 6368 C 639.676 3.5736 0.443391 0
M  V30 6369 C 639.529 4.41743 -0.84753 0
M  V30 6370 C 640.848 4.22539 1.2308 0
M  V30 6371 H 637.967 0.734119 0.0650976 0
M  V30 6372 H 640.609 1.82519 -0.527918 0
M  V30 6373 H 638.759 3.74066 1.04914 0
M  V30 6374 H 640.431 4.36773 -1.48414 0
M  V30 6375 H 638.674 4.0845 -1.4612 0
M  V30 6376 H 639.345 5.48507 -0.620003 0
M  V30 6377 H 641.821 4.09857 0.718084 0
M  V30 6378 H 640.697 5.31227 1.38162 0
M  V30 6379 H 640.958 3.80675 2.24808 0
M  V30 6380 N 640.017 0.126909 1.57088 0
M  V30 6381 C 641.263 -0.529952 1.95753 0
M  V30 6382 C 641.596 -1.65823 1.01077 0
M  V30 6383 O 640.871 -1.94437 0.0494162 0
M  V30 6384 C 641.154 -1.05517 3.44294 0
M  V30 6385 C 641.007 0.0702253 4.49745 0
M  V30 6386 C 642.326 -1.9435 3.94862 0
M  V30 6387 H 639.445 -0.191168 0.711775 0
M  V30 6388 H 642.087 0.204071 1.88901 0
M  V30 6389 H 640.237 -1.68069 3.50264 0
M  V30 6390 H 641.909 0.705834 4.55868 0
M  V30 6391 H 640.152 0.732259 4.27575 0
M  V30 6392 H 640.823 -0.338642 5.5096 0
M  V30 6393 H 643.299 -1.41658 3.91244 0
M  V30 6394 H 642.175 -2.28015 4.993 0
M  V30 6395 H 642.436 -2.87299 3.36024 0
M  V30 6396 N 641.495 -1.56914 -0.146875 0
M  V30 6397 C 642.741 -1.84515 -0.855914 0
M  V30 6398 C 643.096 -0.710909 -1.78784 0
M  V30 6399 O 642.389 0.291123 -1.89375 0
M  V30 6400 C 642.583 -3.16128 -1.66727 0
M  V30 6401 C 642.412 -4.42246 -0.815405 0
M  V30 6402 C 641.182 -5.03006 -0.480976 0
M  V30 6403 C 643.38 -5.14094 -0.145684 0
M  V30 6404 N 641.362 -6.12695 0.384476 0
M  V30 6405 C 642.733 -6.17282 0.579902 0
M  V30 6406 C 644.788 -4.97856 -0.0663705 0
M  V30 6407 C 643.491 -7.0599 1.37731 0
M  V30 6408 C 645.517 -5.87028 0.71778 0
M  V30 6409 C 644.879 -6.89698 1.43165 0
M  V30 6410 H 640.978 -0.725829 -0.291026 0
M  V30 6411 H 643.562 -1.94322 -0.121279 0
M  V30 6412 H 641.733 -3.07468 -2.37315 0
M  V30 6413 H 643.465 -3.31635 -2.31949 0
M  V30 6414 H 640.22 -4.66504 -0.816789 0
M  V30 6415 H 640.644 -6.72158 0.80823 0
M  V30 6416 H 645.286 -4.18465 -0.603929 0
M  V30 6417 H 643.004 -7.84809 1.92613 0
M  V30 6418 H 646.59 -5.76532 0.781141 0
M  V30 6419 H 645.47 -7.57505 2.02868 0
M  V30 6420 N 642.974 0.416227 -1.52004 0
M  V30 6421 C 644.199 1.19029 -1.69843 0
M  V30 6422 C 644.624 1.83708 -0.404103 0
M  V30 6423 O 643.982 1.69711 0.637787 0
M  V30 6424 C 644.03 2.23439 -2.83032 0
M  V30 6425 O 643.134 3.29419 -2.48106 0
M  V30 6426 H 642.475 0.347785 -0.565634 0
M  V30 6427 H 645.005 0.488871 -1.98674 0
M  V30 6428 H 645.015 2.67884 -3.07737 0
M  V30 6429 H 643.69 1.75745 -3.76944 0
M  V30 6430 H 642.267 2.90303 -2.34048 0
M  V30 6431 N 644.452 1.42507 0.673017 0
M  V30 6432 C 645.863 1.38347 1.25367 0
M  V30 6433 C 646.214 0.0776327 1.96046 0
M  V30 6434 O 645.339 -0.823571 2.00116 0
M  V30 6435 C 645.934 2.506 2.28002 0
M  V30 6436 C 644.493 2.49767 2.81591 0
M  V30 6437 C 643.64 2.293 1.55938 0
M  V30 6438 H 646.591 1.51695 0.466288 0
M  V30 6439 H 646.612 2.20953 3.09774 0
M  V30 6440 H 646.124 3.45627 1.76532 0
M  V30 6441 H 644.225 1.58563 3.37177 0
M  V30 6442 H 644.338 3.46867 3.30485 0
M  V30 6443 H 642.702 1.77594 1.82572 0
M  V30 6444 H 643.485 3.26385 1.06431 0
M  V30 6445 N 645.93 -0.909495 1.28709 0
M  V30 6446 C 646.893 -1.99399 1.13016 0
M  V30 6447 C 647.893 -1.60654 0.068536 0
M  V30 6448 O 649.083 -1.71334 0.314671 0
M  V30 6449 C 646.215 -3.33078 0.726085 0
M  V30 6450 H 647.408 -2.14751 2.09338 0
M  V30 6451 H 644.961 -1.09272 1.11756 0
M  V30 6452 H 645.696 -3.23428 -0.23771 0
M  V30 6453 H 645.481 -3.62562 1.49302 0
M  V30 6454 H 646.971 -4.12681 0.639058 0
M  V30 6455 N 647.408 -1.11026 -1.11852 0
M  V30 6456 C 648.655 -0.85646 -1.83497 0
M  V30 6457 C 648.983 0.617938 -1.84423 0
M  V30 6458 O 648.238 1.47194 -1.28966 0
M  V30 6459 C 648.537 -1.35777 -3.30604 0
M  V30 6460 C 648.203 -2.84465 -3.49843 0
M  V30 6461 C 646.865 -3.25068 -3.54802 0
M  V30 6462 C 649.217 -3.80251 -3.56453 0
M  V30 6463 C 646.545 -4.60194 -3.63921 0
M  V30 6464 C 648.897 -5.15188 -3.67102 0
M  V30 6465 C 647.561 -5.55356 -3.70319 0
M  V30 6466 H 646.831 -0.313401 -0.671462 0
M  V30 6467 H 649.478 -1.38792 -1.31943 0
M  V30 6468 H 647.783 -0.746455 -3.84624 0
M  V30 6469 H 649.48 -1.13779 -3.8452 0
M  V30 6470 H 646.07 -2.52054 -3.46651 0
M  V30 6471 H 650.254 -3.49986 -3.51886 0
M  V30 6472 H 645.51 -4.90728 -3.64686 0
M  V30 6473 H 649.684 -5.89248 -3.71159 0
M  V30 6474 H 647.311 -6.60054 -3.77138 0
M  V30 6475 N 648.886 1.2938 -0.899927 0
M  V30 6476 C 650.133 1.9555 -0.525963 0
M  V30 6477 C 650.461 1.70945 0.927789 0
M  V30 6478 O 649.716 1.01545 1.67293 0
M  V30 6479 C 650.015 3.49114 -0.765113 0
M  V30 6480 C 649.681 3.93796 -2.19626 0
M  V30 6481 C 648.343 4.05707 -2.58758 0
M  V30 6482 C 650.695 4.16883 -3.12823 0
M  V30 6483 C 648.023 4.38074 -3.90267 0
M  V30 6484 C 650.375 4.50725 -4.4388 0
M  V30 6485 C 649.039 4.60845 -4.82885 0
M  V30 6486 H 648.309 0.715569 -0.192463 0
M  V30 6487 H 650.956 1.53972 -1.13863 0
M  V30 6488 H 649.261 3.91738 -0.069531 0
M  V30 6489 H 650.958 3.98409 -0.455144 0
M  V30 6490 H 647.548 3.85042 -1.88256 0
M  V30 6491 H 651.732 4.07147 -2.83804 0
M  V30 6492 H 646.988 4.44112 -4.20207 0
M  V30 6493 H 651.162 4.67538 -5.16121 0
M  V30 6494 H 648.789 4.85681 -5.84823 0
M  V30 6495 N 650.364 0.662433 1.43002 0
M  V30 6496 C 651.612 0.179237 2.01304 0
M  V30 6497 C 651.933 -1.21428 1.52579 0
M  V30 6498 O 651.203 -1.81294 0.742252 0
M  V30 6499 H 649.783 0.0632725 0.744316 0
M  V30 6500 H 652.445 0.856169 1.75088 0
M  V30 6501 H 651.541 0.170957 3.11631 0
M  V30 6502 N 651.842 -1.52309 0.404946 0
M  V30 6503 C 653.088 -2.02065 -0.172455 0
M  V30 6504 C 653.421 -1.29022 -1.45145 0
M  V30 6505 O 652.696 -0.395284 -1.90441 0
M  V30 6506 C 652.979 -3.5759 -0.424433 0
M  V30 6507 C 652.832 -4.41287 0.870945 0
M  V30 6508 C 654.151 -4.23186 -1.20837 0
M  V30 6509 H 651.27 -0.734454 -0.0612035 0
M  V30 6510 H 653.912 -1.82236 0.53759 0
M  V30 6511 H 652.062 -3.74617 -1.02929 0
M  V30 6512 H 653.734 -4.3598 1.50729 0
M  V30 6513 H 651.977 -4.07669 1.48284 0
M  V30 6514 H 652.648 -5.48171 0.649083 0
M  V30 6515 H 655.124 -4.10232 -0.696338 0
M  V30 6516 H 654 -5.31953 -1.35343 0
M  V30 6517 H 654.261 -3.81862 -2.22786 0
M  V30 6518 N 653.32 -0.135238 -1.57019 0
M  V30 6519 C 654.267 0.808908 -2.1616 0
M  V30 6520 C 655.237 1.25234 -1.09113 0
M  V30 6521 O 656.422 1.32697 -1.37099 0
M  V30 6522 C 653.562 2.04729 -2.77813 0
M  V30 6523 C 652.675 1.65074 -3.99218 0
M  V30 6524 C 651.81 2.84002 -4.48906 0
M  V30 6525 C 650.849 2.40663 -5.62803 0
M  V30 6526 N 649.986 3.5256 -6.07162 0
M  V30 6527 H 654.826 0.297751 -2.96509 0
M  V30 6528 H 652.363 0.135264 -1.46477 0
M  V30 6529 H 654.321 2.7731 -3.11697 0
M  V30 6530 H 652.951 2.53275 -2.00128 0
M  V30 6531 H 652.003 0.823029 -3.7139 0
M  V30 6532 H 653.315 1.29236 -4.81767 0
M  V30 6533 H 652.469 3.64788 -4.84783 0
M  V30 6534 H 651.208 3.23076 -3.65339 0
M  V30 6535 H 650.213 1.58314 -5.26514 0
M  V30 6536 H 651.438 2.02687 -6.48147 0
M  V30 6537 H 649.384 3.91278 -5.26534 0
M  V30 6538 H 649.301 3.20699 -6.84608 0
M  V30 6539 H 650.569 4.33738 -6.47682 0
M  V30 6540 N 654.798 1.5699 0.138552 0
M  V30 6541 C 656.209 1.73171 0.697754 0
M  V30 6542 C 656.56 0.750952 1.8126 0
M  V30 6543 O 655.685 -0.080549 2.1625 0
M  V30 6544 C 656.28 3.13996 1.27248 0
M  V30 6545 C 654.839 3.3175 1.77816 0
M  V30 6546 C 653.986 2.69084 0.669991 0
M  V30 6547 H 656.937 1.5846 -0.0871979 0
M  V30 6548 H 656.958 3.14463 2.14227 0
M  V30 6549 H 656.47 3.85354 0.460855 0
M  V30 6550 H 654.571 2.65403 2.61519 0
M  V30 6551 H 654.684 4.39768 1.90107 0
M  V30 6552 H 653.048 2.29782 1.09874 0
M  V30 6553 H 653.831 3.43053 -0.130329 0
M  V30 6554 N 656.276 -0.40816 1.52223 0
M  V30 6555 C 657.239 -1.48 1.7501 0
M  V30 6556 C 658.239 -1.48367 0.619996 0
M  V30 6557 O 659.429 -1.49874 0.887881 0
M  V30 6558 C 656.561 -2.87403 1.83336 0
M  V30 6559 H 657.754 -1.29086 2.70697 0
M  V30 6560 H 655.307 -0.638715 1.42654 0
M  V30 6561 H 656.042 -3.11686 0.895677 0
M  V30 6562 H 655.827 -2.8854 2.65494 0
M  V30 6563 H 657.317 -3.65103 2.02705 0
M  V30 6564 N 657.755 -1.42862 -0.66545 0
M  V30 6565 C 658.983 -1.47246 -1.45349 0
M  V30 6566 C 659.398 -0.0865944 -1.88601 0
M  V30 6567 O 658.755 0.900652 -1.58728 0
M  V30 6568 C 658.806 -2.40772 -2.6965 0
M  V30 6569 O 658.527 -3.73968 -2.2821 0
M  V30 6570 C 660.028 -2.54272 -3.63126 0
M  V30 6571 H 657.248 -0.500497 -0.446927 0
M  V30 6572 H 659.792 -1.87477 -0.816871 0
M  V30 6573 H 657.947 -2.0377 -3.29479 0
M  V30 6574 H 658.361 -4.24146 -3.08546 0
M  V30 6575 H 659.835 -3.23815 -4.47043 0
M  V30 6576 H 660.312 -1.58364 -4.09656 0
M  V30 6577 H 660.918 -2.92036 -3.09185 0
M  V30 6578 N 659.233 0.902656 -1.29189 0
M  V30 6579 C 660.479 1.65532 -1.17163 0
M  V30 6580 C 660.812 1.92216 0.276879 0
M  V30 6581 O 660.087 1.53048 1.20027 0
M  V30 6582 C 660.37 3.00629 -1.98228 0
M  V30 6583 C 660.223 2.81029 -3.51202 0
M  V30 6584 C 661.542 4.01321 -1.80635 0
M  V30 6585 H 658.661 0.60071 -0.426985 0
M  V30 6586 H 661.303 1.04578 -1.5863 0
M  V30 6587 H 659.453 3.52656 -1.62991 0
M  V30 6588 H 661.125 2.35927 -3.96404 0
M  V30 6589 H 659.368 2.1587 -3.76275 0
M  V30 6590 H 660.039 3.77014 -4.03192 0
M  V30 6591 H 662.515 3.58394 -2.11406 0
M  V30 6592 H 661.391 4.93792 -2.3971 0
M  V30 6593 H 661.652 4.35505 -0.760754 0
M  V30 6594 N 660.711 1.11618 1.11262 0
M  V30 6595 C 661.96 0.860934 1.82403 0
M  V30 6596 C 662.273 -0.615303 1.8567 0
M  V30 6597 O 663.479 -0.986861 2.52929 0
M  V30 6598 C 661.935 1.49048 3.27586 0
M  V30 6599 C 661.543 3.00089 3.32642 0
M  V30 6600 C 663.287 1.31515 4.03614 0
M  V30 6601 C 661.194 3.56019 4.72234 0
M  V30 6602 H 660.124 0.318423 0.683464 0
M  V30 6603 H 662.775 1.34165 1.25188 0
M  V30 6604 H 661.157 0.937434 3.84744 0
M  V30 6605 H 662.331 3.61813 2.85356 0
M  V30 6606 H 660.646 3.16919 2.70096 0
M  V30 6607 H 663.243 1.70732 5.0671 0
M  V30 6608 H 663.586 0.257917 4.155 0
M  V30 6609 H 664.119 1.83694 3.52848 0
M  V30 6610 H 660.858 4.61463 4.65545 0
M  V30 6611 H 660.378 2.99066 5.19923 0
M  V30 6612 H 662.057 3.54568 5.41193 0
M  V30 6613 N 662.189 -1.289 0.906776 0
M  V30 6614 C 663.136 -2.2751 0.388313 0
M  V30 6615 C 664.106 -1.57301 -0.533439 0
M  V30 6616 O 665.291 -1.85243 -0.457148 0
M  V30 6617 C 662.431 -3.43091 -0.37181 0
M  V30 6618 C 661.544 -4.28066 0.581647 0
M  V30 6619 C 660.679 -5.30837 -0.19623 0
M  V30 6620 C 659.718 -6.07472 0.751294 0
M  V30 6621 N 658.855 -7.021 0.00737727 0
M  V30 6622 H 663.695 -2.71237 1.23428 0
M  V30 6623 H 661.232 -1.33397 0.619962 0
M  V30 6624 H 663.19 -4.08888 -0.828641 0
M  V30 6625 H 661.82 -3.00374 -1.18218 0
M  V30 6626 H 660.872 -3.62378 1.157 0
M  V30 6627 H 662.184 -4.81382 1.30665 0
M  V30 6628 H 661.338 -6.02485 -0.71394 0
M  V30 6629 H 660.077 -4.78272 -0.954324 0
M  V30 6630 H 659.082 -5.34682 1.28044 0
M  V30 6631 H 660.307 -6.62126 1.50883 0
M  V30 6632 H 658.253 -6.51894 -0.732854 0
M  V30 6633 H 658.17 -7.53004 0.672334 0
M  V30 6634 H 659.438 -7.77956 -0.490365 0
M  V30 6635 N 663.667 -0.670007 -1.42649 0
M  V30 6636 C 664.915 -0.18991 -2.01206 0
M  V30 6637 C 665.236 1.20617 -1.53221 0
M  V30 6638 O 664.506 1.80898 -0.751856 0
M  V30 6639 H 663.086 -0.0672189 -0.743969 0
M  V30 6640 H 665.748 -0.865442 -1.74631 0
M  V30 6641 H 664.844 -0.187481 -3.11536 0
M  V30 6642 N 665.145 1.52092 -0.413018 0
M  V30 6643 C 666.393 2.01456 0.161178 0
M  V30 6644 C 666.714 1.30034 1.45314 0
M  V30 6645 O 665.984 0.427435 1.9118 0
M  V30 6646 H 664.564 0.744376 0.0625526 0
M  V30 6647 H 667.226 1.86974 -0.550151 0
M  V30 6648 H 666.322 3.1008 0.354517 0
M  V30 6649 N 666.623 0.143563 1.56945 0
M  V30 6650 C 667.556 -0.835367 2.1236 0
M  V30 6651 C 668.534 -1.24466 1.04627 0
M  V30 6652 O 669.718 -1.34138 1.32436 0
M  V30 6653 C 666.845 -2.12123 2.64048 0
M  V30 6654 C 665.891 -1.85812 3.83896 0
M  V30 6655 S 666.724 -1.05222 5.25061 0
M  V30 6656 C 667.88 -2.34935 5.80135 0
M  V30 6657 H 668.113 -0.364109 2.95062 0
M  V30 6658 H 665.646 -0.0706601 1.54238 0
M  V30 6659 H 667.604 -2.85993 2.94479 0
M  V30 6660 H 666.265 -2.56364 1.81483 0
M  V30 6661 H 665.458 -2.81151 4.18294 0
M  V30 6662 H 665.06 -1.20052 3.54208 0
M  V30 6663 H 667.352 -3.3061 5.91357 0
M  V30 6664 H 668.295 -2.05046 6.77762 0
M  V30 6665 H 668.703 -2.45426 5.08356 0
M  V30 6666 N 668.101 -1.57061 -0.130224 0
M  V30 6667 C 669.35 -1.83446 -0.838488 0
M  V30 6668 C 669.663 -0.727468 -1.81569 0
M  V30 6669 O 670.869 -0.877394 -2.56932 0
M  V30 6670 C 669.325 -3.25201 -1.54182 0
M  V30 6671 C 668.933 -4.4388 -0.606178 0
M  V30 6672 C 670.677 -3.60844 -2.23588 0
M  V30 6673 C 668.584 -5.76661 -1.31209 0
M  V30 6674 H 667.514 -0.684185 -0.316871 0
M  V30 6675 H 670.165 -1.83273 -0.0912059 0
M  V30 6676 H 668.547 -3.1981 -2.33533 0
M  V30 6677 H 669.721 -4.60545 0.153308 0
M  V30 6678 H 668.036 -4.16395 -0.0196705 0
M  V30 6679 H 670.633 -4.57313 -2.77072 0
M  V30 6680 H 670.976 -2.87724 -3.00867 0
M  V30 6681 H 671.509 -3.67971 -1.51137 0
M  V30 6682 H 668.248 -6.52922 -0.580823 0
M  V30 6683 H 667.768 -5.63902 -2.04387 0
M  V30 6684 H 669.447 -6.20035 -1.8484 0
M  V30 6685 N 669.579 0.400081 -1.52437 0
M  V30 6686 C 670.542 1.4707 -1.75793 0
M  V30 6687 C 671.542 1.48036 -0.627856 0
M  V30 6688 O 672.732 1.49401 -0.895817 0
M  V30 6689 C 669.864 2.86427 -1.84858 0
M  V30 6690 H 671.057 1.27649 -2.71377 0
M  V30 6691 H 668.61 0.631141 -1.42991 0
M  V30 6692 H 669.345 3.11207 -0.912194 0
M  V30 6693 H 669.13 2.87128 -2.6702 0
M  V30 6694 H 670.62 3.64023 -2.04638 0
M  V30 6695 N 671.057 1.43213 0.657864 0
M  V30 6696 C 672.306 1.43871 1.41365 0
M  V30 6697 C 672.619 0.064898 1.95492 0
M  V30 6698 O 673.825 -0.0510796 2.71452 0
M  V30 6699 C 672.281 2.53158 2.55811 0
M  V30 6700 C 671.889 3.96624 2.08311 0
M  V30 6701 C 673.633 2.63004 3.3321 0
M  V30 6702 C 671.54 4.97385 3.1994 0
M  V30 6703 H 670.47 0.535174 0.531136 0
M  V30 6704 H 673.121 1.69185 0.710543 0
M  V30 6705 H 671.503 2.21037 3.2857 0
M  V30 6706 H 672.677 4.38182 1.42593 0
M  V30 6707 H 670.992 3.90781 1.43804 0
M  V30 6708 H 673.589 3.3546 4.16378 0
M  V30 6709 H 673.932 1.67918 3.80932 0
M  V30 6710 H 674.465 2.94403 2.67529 0
M  V30 6711 H 671.204 5.94007 2.77192 0
M  V30 6712 H 670.724 4.60444 3.84385 0
M  V30 6713 H 672.403 5.19877 3.85145 0
M  V30 6714 N 672.536 -0.895792 1.29666 0
M  V30 6715 C 673.499 -1.98189 1.15124 0
M  V30 6716 C 674.499 -1.60572 0.0855717 0
M  V30 6717 O 675.689 -1.70991 0.332826 0
M  V30 6718 C 672.821 -3.32289 0.761372 0
M  V30 6719 H 674.014 -2.12518 2.11603 0
M  V30 6720 H 671.567 -1.0808 1.12908 0
M  V30 6721 H 672.302 -3.23662 -0.203393 0
M  V30 6722 H 672.087 -3.60958 1.53139 0
M  V30 6723 H 673.577 -4.1198 0.682792 0
M  V30 6724 N 674.014 -1.12206 -1.10668 0
M  V30 6725 C 675.425 -0.890657 -1.64086 0
M  V30 6726 C 675.776 0.575502 -1.8757 0
M  V30 6727 O 674.901 1.4394 -1.61587 0
M  V30 6728 C 675.496 -1.61029 -2.98085 0
M  V30 6729 C 674.055 -1.4251 -3.48379 0
M  V30 6730 C 673.202 -1.64778 -2.23033 0
M  V30 6731 H 676.153 -1.27718 -0.94201 0
M  V30 6732 H 676.174 -1.05993 -3.65439 0
M  V30 6733 H 675.686 -2.67735 -2.80962 0
M  V30 6734 H 673.787 -0.380497 -3.70652 0
M  V30 6735 H 673.9 -2.17959 -4.26651 0
M  V30 6736 H 672.264 -1.07171 -2.31055 0
M  V30 6737 H 673.047 -2.72776 -2.08443 0
M  V30 6738 N 675.492 1.28418 -0.913599 0
M  V30 6739 C 676.425 2.25557 -0.346328 0
M  V30 6740 C 677.403 1.53038 0.549366 0
M  V30 6741 O 678.587 1.81937 0.493055 0
M  V30 6742 C 675.714 3.34915 0.504961 0
M  V30 6743 C 674.76 4.25257 -0.325334 0
M  V30 6744 S 675.593 5.06718 -1.73198 0
M  V30 6745 C 676.749 6.19569 -0.887988 0
M  V30 6746 H 676.982 2.73325 -1.16965 0
M  V30 6747 H 674.515 1.36855 -0.714841 0
M  V30 6748 H 676.473 3.98376 0.990301 0
M  V30 6749 H 675.134 2.85814 1.30267 0
M  V30 6750 H 674.327 5.02947 0.325589 0
M  V30 6751 H 673.929 3.66519 -0.744321 0
M  V30 6752 H 676.221 6.77398 -0.117568 0
M  V30 6753 H 677.164 6.88908 -1.63742 0
M  V30 6754 H 677.572 5.62812 -0.436228 0
M  V30 6755 N 676.97 0.677563 1.42291 0
M  V30 6756 C 678.218 0.200578 2.01102 0
M  V30 6757 C 678.539 -1.19803 1.53858 0
M  V30 6758 O 677.809 -1.80496 0.761439 0
M  V30 6759 H 676.389 0.0711634 0.743603 0
M  V30 6760 H 679.051 0.874691 1.7417 0
M  V30 6761 H 678.147 0.204 3.11433 0
M  V30 6762 N 678.448 -1.51871 0.421078 0
M  V30 6763 C 679.725 -1.9447 -0.20993 0
M  V30 6764 C 680.105 -1.35875 -1.61558 0
M  V30 6765 O 679.453 -0.539294 -2.22045 0
M  V30 6766 C 679.663 -3.48402 -0.204165 0
M  V30 6767 C 681.011 -4.2254 -0.417696 0
M  V30 6768 O 682.035 -3.55074 -0.282999 0
M  V30 6769 O 680.894 -5.422 -0.684239 0
M  V30 6770 H 677.988 -0.815283 -0.138718 0
M  V30 6771 H 680.534 -1.62832 0.477884 0
M  V30 6772 H 679.306 -3.83464 0.779183 0
M  V30 6773 H 678.929 -3.86436 -0.935576 0
M  V30 6774 N 679.926 -0.151884 -1.56866 0
M  V30 6775 C 681.175 0.497992 -1.95456 0
M  V30 6776 C 681.488 1.6569 -1.03953 0
M  V30 6777 O 682.694 2.37173 -1.32142 0
M  V30 6778 C 681.15 0.93732 -3.4748 0
M  V30 6779 C 680.758 -0.194921 -4.47576 0
M  V30 6780 C 682.502 1.55671 -3.94926 0
M  V30 6781 C 680.409 0.26295 -5.90815 0
M  V30 6782 H 679.339 0.189811 -0.729717 0
M  V30 6783 H 681.99 -0.237011 -1.81963 0
M  V30 6784 H 680.372 1.72773 -3.56322 0
M  V30 6785 H 681.546 -0.971951 -4.50433 0
M  V30 6786 H 679.861 -0.72303 -4.10075 0
M  V30 6787 H 682.458 1.91099 -4.99385 0
M  V30 6788 H 682.801 2.44748 -3.36755 0
M  V30 6789 H 683.334 0.831109 -3.89021 0
M  V30 6790 H 680.073 -0.592568 -6.52816 0
M  V30 6791 H 679.593 1.00575 -5.91308 0
M  V30 6792 H 681.272 0.713333 -6.43056 0
M  V30 6793 N 681.404 1.57128 0.121893 0
M  V30 6794 C 682.352 2.01109 1.16868 0
M  V30 6795 C 683.346 0.907532 1.43039 0
M  V30 6796 O 684.552 1.09274 1.43036 0
M  V30 6797 H 680.927 0.640539 0.393971 0
M  V30 6798 H 682.898 2.88261 0.771224 0
M  V30 6799 C 681.647 2.42887 2.48799 0
M  V30 6800 H 680.97 3.2737 2.29498 0
M  V30 6801 H 682.41 2.77461 3.20611 0
M  V30 6802 C 680.869 1.29137 3.11168 0
M  V30 6803 O 681.399 0.605756 3.97106 0
M  V30 6804 N 679.605 1.04916 2.71 0
M  V30 6805 H 679.152 1.60848 2.01211 0
M  V30 6806 H 679.11 0.290016 3.1306 0
M  V30 6807 N 682.882 -0.391992 1.52647 0
M  V30 6808 C 683.845 -1.46135 1.7657 0
M  V30 6809 C 684.845 -1.47701 0.635698 0
M  V30 6810 O 686.035 -1.48924 0.903728 0
M  V30 6811 C 683.167 -2.85443 1.86374 0
M  V30 6812 H 684.36 -1.26208 2.72051 0
M  V30 6813 H 681.913 -0.623549 1.43323 0
M  V30 6814 H 682.648 -3.10718 0.928685 0
M  V30 6815 H 682.433 -2.85708 2.68539 0
M  V30 6816 H 683.923 -3.62933 2.06566 0
M  V30 6817 N 684.36 -1.4356 -0.65026 0
M  V30 6818 C 685.585 -1.48995 -1.44275 0
M  V30 6819 C 686.01 -0.109954 -1.87778 0
M  V30 6820 O 685.368 0.896926 -1.57559 0
M  V30 6821 C 685.416 -2.44341 -2.65198 0
M  V30 6822 O 684.52 -1.93172 -3.6436 0
M  V30 6823 H 683.861 -0.503852 -0.432469 0
M  V30 6824 H 686.391 -1.88504 -0.795446 0
M  V30 6825 H 686.401 -2.61743 -3.12977 0
M  V30 6826 H 685.076 -3.44588 -2.32877 0
M  V30 6827 H 683.653 -1.85445 -3.23519 0
M  V30 6828 N 685.838 0.888903 -1.30139 0
M  V30 6829 C 687.087 1.63507 -1.18103 0
M  V30 6830 C 687.4 1.93808 0.264141 0
M  V30 6831 O 688.606 2.66744 0.505966 0
M  V30 6832 C 687.062 2.94673 -2.0663 0
M  V30 6833 C 686.67 2.71926 -3.56034 0
M  V30 6834 C 688.414 3.72626 -2.03346 0
M  V30 6835 C 686.321 3.98884 -4.3663 0
M  V30 6836 H 685.251 0.613426 -0.438435 0
M  V30 6837 H 687.902 0.984427 -1.54859 0
M  V30 6838 H 686.284 3.61009 -1.62754 0
M  V30 6839 H 687.458 2.14116 -4.08033 0
M  V30 6840 H 685.773 2.07353 -3.61101 0
M  V30 6841 H 688.37 4.66775 -2.60816 0
M  V30 6842 H 688.713 4.03712 -1.016 0
M  V30 6843 H 689.246 3.13147 -2.45324 0
M  V30 6844 H 685.985 3.72959 -5.39056 0
M  V30 6845 H 685.505 4.56214 -3.89396 0
M  V30 6846 H 687.184 4.66938 -4.47859 0
M  V30 6847 N 687.317 1.12792 1.10072 0
M  V30 6848 C 688.728 0.899346 1.63611 0
M  V30 6849 C 689.079 -0.565547 1.87872 0
M  V30 6850 O 688.204 -1.43081 1.62348 0
M  V30 6851 C 688.799 1.62608 2.97227 0
M  V30 6852 C 687.358 1.44356 3.47618 0
M  V30 6853 C 686.505 1.65958 2.22156 0
M  V30 6854 H 689.456 1.28216 0.935223 0
M  V30 6855 H 689.477 1.0793 3.64872 0
M  V30 6856 H 688.989 2.69221 2.79538 0
M  V30 6857 H 687.09 0.400148 3.70445 0
M  V30 6858 H 687.203 2.20218 4.25489 0
M  V30 6859 H 685.567 1.08395 2.30484 0
M  V30 6860 H 686.35 2.73877 2.06993 0
M  V30 6861 N 688.795 -1.27931 0.920396 0
M  V30 6862 C 690.023 -1.98805 0.573087 0
M  V30 6863 C 690.438 -1.68724 -0.847201 0
M  V30 6864 O 689.795 -0.943699 -1.56207 0
M  V30 6865 C 689.846 -3.52971 0.780633 0
M  V30 6866 O 689.567 -3.81994 2.14504 0
M  V30 6867 C 691.068 -4.411 0.44105 0
M  V30 6868 H 688.288 -0.634651 0.21785 0
M  V30 6869 H 690.832 -1.62965 1.23542 0
M  V30 6870 H 688.987 -3.87048 0.165204 0
M  V30 6871 H 689.401 -4.76609 2.18962 0
M  V30 6872 H 690.875 -5.48312 0.637006 0
M  V30 6873 H 691.352 -4.34758 -0.62306 0
M  V30 6874 H 691.958 -4.12532 1.0343 0
M  V30 6875 N 690.273 -0.685099 -1.4193 0
M  V30 6876 C 691.684 -0.287699 -1.8447 0
M  V30 6877 C 692.035 1.17215 -1.57338 0
M  V30 6878 O 691.16 1.89856 -1.03845 0
M  V30 6879 C 691.755 -0.515385 -3.34857 0
M  V30 6880 C 690.314 -0.172006 -3.76007 0
M  V30 6881 C 689.461 -0.802808 -2.65425 0
M  V30 6882 H 692.412 -0.88652 -1.3163 0
M  V30 6883 H 692.433 0.229251 -3.79809 0
M  V30 6884 H 691.945 -1.57796 -3.54573 0
M  V30 6885 H 690.046 0.886716 -3.61895 0
M  V30 6886 H 690.159 -0.619717 -4.75075 0
M  V30 6887 H 688.523 -0.233267 -2.5363 0
M  V30 6888 H 689.306 -1.86904 -2.87961 0
M  V30 6889 N 691.751 1.51645 -0.429126 0
M  V30 6890 C 692.683 2.25279 0.422124 0
M  V30 6891 C 693.696 1.28986 0.993299 0
M  V30 6892 O 694.885 1.54797 0.888836 0
M  V30 6893 C 691.985 2.98666 1.60162 0
M  V30 6894 C 691.158 4.2199 1.15078 0
M  V30 6895 C 690.217 4.78028 2.19946 0
M  V30 6896 O 689.243 5.40084 1.79716 0
M  V30 6897 N 690.445 4.61342 3.5234 0
M  V30 6898 H 693.21 2.98971 -0.208931 0
M  V30 6899 H 690.771 1.59838 -0.257568 0
M  V30 6900 H 692.763 3.33044 2.29922 0
M  V30 6901 H 691.333 2.28036 2.13818 0
M  V30 6902 H 690.553 3.932 0.280552 0
M  V30 6903 H 691.841 5.02037 0.826831 0
M  V30 6904 H 691.239 4.11894 3.87763 0
M  V30 6905 H 689.796 5.00104 4.18019 0
M  V30 6906 N 693.229 0.160201 1.56784 0
M  V30 6907 C 694.64 -0.358417 1.83227 0
M  V30 6908 C 694.991 -1.63831 1.07952 0
M  V30 6909 O 694.116 -2.13885 0.328995 0
M  V30 6910 C 694.711 -0.657058 3.32368 0
M  V30 6911 C 693.27 -1.12015 3.59346 0
M  V30 6912 C 692.417 -0.15015 2.76893 0
M  V30 6913 H 695.368 0.384669 1.53967 0
M  V30 6914 H 695.389 -1.51033 3.49241 0
M  V30 6915 H 694.901 0.274647 3.87127 0
M  V30 6916 H 693.002 -2.06734 3.09987 0
M  V30 6917 H 693.115 -1.037 4.67743 0
M  V30 6918 H 691.479 -0.645361 2.46388 0
M  V30 6919 H 692.262 0.775379 3.34429 0
M  V30 6920 N 694.707 -1.5719 -0.113559 0
M  V30 6921 C 695.953 -1.85412 -0.821597 0
M  V30 6922 C 696.286 -0.746722 -1.7927 0
M  V30 6923 O 695.561 0.246971 -1.92926 0
M  V30 6924 C 695.844 -3.24233 -1.56669 0
M  V30 6925 C 695.697 -4.45578 -0.614823 0
M  V30 6926 C 697.016 -3.60697 -2.52161 0
M  V30 6927 H 694.135 -0.674406 -0.29723 0
M  V30 6928 H 696.777 -1.89807 -0.085694 0
M  V30 6929 H 694.927 -3.20617 -2.19401 0
M  V30 6930 H 696.599 -4.613 0.00407137 0
M  V30 6931 H 694.842 -4.33738 0.0732332 0
M  V30 6932 H 695.513 -5.39395 -1.17292 0
M  V30 6933 H 697.989 -3.65139 -1.99532 0
M  V30 6934 H 696.865 -4.58798 -3.01323 0
M  V30 6935 H 697.126 -2.88403 -3.35076 0
M  V30 6936 N 696.185 0.383891 -1.52853 0
M  V30 6937 C 697.135 1.46892 -1.74375 0
M  V30 6938 C 698.119 1.49378 -0.597909 0
M  V30 6939 O 699.311 1.54929 -0.855929 0
M  V30 6940 C 696.44 2.84547 -1.92063 0
M  V30 6941 C 695.526 2.8661 -3.12594 0
M  V30 6942 N 695.917 2.58339 -4.3485 0
M  V30 6943 C 694.215 3.17777 -3.12944 0
M  V30 6944 C 694.916 2.67616 -5.16485 0
M  V30 6945 N 693.892 3.01561 -4.52285 0
M  V30 6946 H 697.694 1.23869 -2.66522 0
M  V30 6947 H 695.208 0.591895 -1.51229 0
M  V30 6948 H 697.205 3.62674 -2.05604 0
M  V30 6949 H 695.865 3.08549 -1.01133 0
M  V30 6950 H 696.876 2.32266 -4.62896 0
M  V30 6951 H 693.553 3.47211 -2.31842 0
M  V30 6952 H 694.943 2.4926 -6.23955 0
M  V30 6953 N 697.663 1.43903 0.642637 0
M  V30 6954 C 698.893 1.49323 1.4278 0
M  V30 6955 C 699.301 0.113058 1.88862 0
M  V30 6956 O 698.644 -0.889089 1.60751 0
M  V30 6957 C 698.706 2.3861 2.68897 0
M  V30 6958 C 698.37 3.85976 2.44687 0
M  V30 6959 C 699.367 4.7681 2.07239 0
M  V30 6960 C 697.052 4.30567 2.58683 0
M  V30 6961 C 699.046 6.10234 1.841 0
M  V30 6962 C 696.733 5.64042 2.35159 0
M  V30 6963 C 697.731 6.53693 1.97925 0
M  V30 6964 O 697.419 7.84698 1.74654 0
M  V30 6965 H 697.151 0.509109 0.444729 0
M  V30 6966 H 699.705 1.89425 0.794195 0
M  V30 6967 H 697.935 1.93415 3.34855 0
M  V30 6968 H 699.624 2.35112 3.30873 0
M  V30 6969 H 700.39 4.43635 1.95993 0
M  V30 6970 H 696.269 3.61054 2.86637 0
M  V30 6971 H 699.813 6.80171 1.54962 0
M  V30 6972 H 695.71 5.96782 2.46011 0
M  V30 6973 H 696.478 7.96382 1.88993 0
M  V30 6974 N 699.141 -0.881989 1.30609 0
M  V30 6975 C 700.557 -1.16576 1.09005 0
M  V30 6976 C 700.757 -2.00961 -0.14727 0
M  V30 6977 O 699.813 -2.38117 -0.840036 0
M  V30 6978 C 701.126 -1.86954 2.35518 0
M  V30 6979 C 702.674 -1.99706 2.41011 0
M  V30 6980 C 703.149 -2.73497 3.67374 0
M  V30 6981 N 704.64 -2.8104 3.68199 0
M  V30 6982 C 705.375 -3.38718 4.62664 0
M  V30 6983 N 704.871 -3.97421 5.67475 0
M  V30 6984 N 706.664 -3.36561 4.50203 0
M  V30 6985 H 698.815 -0.319398 2.09985 0
M  V30 6986 H 701.078 -0.204058 0.925778 0
M  V30 6987 H 700.784 -1.32393 3.2583 0
M  V30 6988 H 700.658 -2.87317 2.44395 0
M  V30 6989 H 703.045 -2.53436 1.51176 0
M  V30 6990 H 703.126 -0.984218 2.36108 0
M  V30 6991 H 702.77 -2.20438 4.57569 0
M  V30 6992 H 702.7 -3.75163 3.6954 0
M  V30 6993 H 705.191 -2.39365 2.92426 0
M  V30 6994 H 705.504 -4.39507 6.35652 0
M  V30 6995 H 703.849 -3.95832 5.71264 0
M  V30 6996 H 707.04 -2.8993 3.67503 0
M  V30 6997 H 707.213 -3.81215 5.24003 0
M  V30 6998 N 700.619 -1.13374 -1.09472 0
M  V30 6999 C 702.03 -0.90801 -1.63132 0
M  V30 7000 C 702.381 0.555576 -1.8817 0
M  V30 7001 O 701.506 1.42218 -1.63104 0
M  V30 7002 C 702.101 -1.64182 -2.96361 0
M  V30 7003 C 700.66 -1.46197 -3.46848 0
M  V30 7004 C 699.807 -1.67134 -2.21273 0
M  V30 7005 H 702.758 -1.2871 -0.928411 0
M  V30 7006 H 702.779 -1.09863 -3.64294 0
M  V30 7007 H 702.291 -2.707 -2.78106 0
M  V30 7008 H 700.392 -0.419788 -3.70228 0
M  V30 7009 H 700.505 -2.22472 -4.24315 0
M  V30 7010 H 698.869 -1.09616 -2.29905 0
M  V30 7011 H 699.652 -2.74971 -2.05538 0
M  V30 7012 N 702.098 1.27442 -0.927168 0
M  V30 7013 C 703.031 2.25177 -0.370232 0
M  V30 7014 C 704.009 1.53612 0.533103 0
M  V30 7015 O 705.193 1.8245 0.47373 0
M  V30 7016 C 702.32 3.35431 0.469411 0
M  V30 7017 C 701.366 4.24888 -0.370419 0
M  V30 7018 S 702.199 5.04852 -1.78562 0
M  V30 7019 C 703.355 6.18592 -0.953651 0
M  V30 7020 H 703.588 2.72069 -1.19858 0
M  V30 7021 H 701.121 1.36089 -0.729316 0
M  V30 7022 H 703.079 3.99404 0.947992 0
M  V30 7023 H 701.74 2.87179 1.27228 0
M  V30 7024 H 700.933 5.03264 0.272226 0
M  V30 7025 H 700.535 3.65709 -0.783153 0
M  V30 7026 H 702.827 6.77235 -0.189408 0
M  V30 7027 H 703.77 6.87132 -1.7104 0
M  V30 7028 H 704.178 5.62318 -0.495897 0
M  V30 7029 N 703.576 0.692616 1.41565 0
M  V30 7030 C 704.823 0.222335 2.01276 0
M  V30 7031 C 705.151 -1.17706 1.5484 0
M  V30 7032 O 704.406 -1.80795 0.749118 0
M  V30 7033 C 704.705 0.225073 3.56691 0
M  V30 7034 C 704.371 1.57158 4.22625 0
M  V30 7035 C 703.033 1.94022 4.40351 0
M  V30 7036 C 705.385 2.45758 4.59622 0
M  V30 7037 C 702.713 3.19076 4.92349 0
M  V30 7038 C 705.065 3.70141 5.13009 0
M  V30 7039 C 703.729 4.07152 5.28946 0
M  V30 7040 H 702.999 0.0813581 0.73652 0
M  V30 7041 H 705.646 0.891123 1.69503 0
M  V30 7042 H 703.951 -0.527259 3.88236 0
M  V30 7043 H 705.648 -0.156283 4.00695 0
M  V30 7044 H 702.238 1.27486 4.09201 0
M  V30 7045 H 706.422 2.18558 4.45585 0
M  V30 7046 H 701.678 3.4775 5.02872 0
M  V30 7047 H 705.852 4.38983 5.40617 0
M  V30 7048 H 703.479 5.04125 5.69001 0
M  V30 7049 N 705.054 -1.51416 0.437162 0
M  V30 7050 C 706.302 -2.01687 -0.129108 0
M  V30 7051 C 706.623 -1.32329 -1.43227 0
M  V30 7052 O 705.893 -0.457796 -1.90476 0
M  V30 7053 H 704.473 -0.745277 -0.0507023 0
M  V30 7054 H 707.135 -1.86075 0.579828 0
M  V30 7055 H 706.231 -3.10605 -0.305141 0
M  V30 7056 N 706.532 -0.168513 -1.56696 0
M  V30 7057 C 707.495 0.748928 -2.16619 0
M  V30 7058 C 708.495 1.16007 -1.11351 0
M  V30 7059 O 709.685 1.07748 -1.3688 0
M  V30 7060 C 706.817 2.01904 -2.74677 0
M  V30 7061 H 708.01 0.227317 -2.99037 0
M  V30 7062 H 705.563 0.0810372 -1.5609 0
M  V30 7063 H 706.298 2.58381 -1.95985 0
M  V30 7064 H 706.083 1.73323 -3.51712 0
M  V30 7065 H 707.573 2.67383 -3.20774 0
M  V30 7066 N 708.01 1.57248 0.105221 0
M  V30 7067 C 708.94 2.04374 1.12931 0
M  V30 7068 C 709.921 0.93074 1.42377 0
M  V30 7069 O 711.106 1.20136 1.52581 0
M  V30 7070 C 708.236 2.45967 2.45189 0
M  V30 7071 C 707.19 3.60838 2.30174 0
M  V30 7072 C 706.516 3.88374 3.67518 0
M  V30 7073 C 707.816 4.92084 1.75073 0
M  V30 7074 H 709.51 2.9018 0.737287 0
M  V30 7075 H 707.056 1.39601 0.353211 0
M  V30 7076 H 709.009 2.77542 3.17094 0
M  V30 7077 H 707.733 1.57148 2.86308 0
M  V30 7078 H 706.392 3.29493 1.60716 0
M  V30 7079 H 706.04 2.96739 4.06147 0
M  V30 7080 H 705.74 4.65703 3.58321 0
M  V30 7081 H 707.264 4.22415 4.40906 0
M  V30 7082 H 708.678 5.22106 2.36809 0
M  V30 7083 H 707.075 5.73507 1.76662 0
M  V30 7084 H 708.145 4.79684 0.709347 0
M  V30 7085 N 709.488 -0.375779 1.53054 0
M  V30 7086 C 710.736 -1.11727 1.68409 0
M  V30 7087 C 711.057 -1.90127 0.43323 0
M  V30 7088 O 710.327 -1.87945 -0.552595 0
M  V30 7089 H 708.907 -0.415451 0.620813 0
M  V30 7090 H 711.569 -0.424869 1.90213 0
M  V30 7091 H 710.665 -1.8128 2.54055 0
M  V30 7092 N 710.966 -1.44241 -0.634997 0
M  V30 7093 C 712.191 -1.50516 -1.42687 0
M  V30 7094 C 712.616 -0.129864 -1.87651 0
M  V30 7095 O 711.974 0.880164 -1.58502 0
M  V30 7096 C 712.022 -2.4714 -2.62591 0
M  V30 7097 O 711.126 -1.97025 -3.62291 0
M  V30 7098 H 710.467 -0.50841 -0.427101 0
M  V30 7099 H 712.997 -1.89337 -0.775408 0
M  V30 7100 H 713.007 -2.65048 -3.10183 0
M  V30 7101 H 711.682 -3.47039 -2.29209 0
M  V30 7102 H 710.259 -1.88866 -3.21534 0
M  V30 7103 N 712.444 0.87505 -1.31075 0
M  V30 7104 C 713.407 1.96333 -1.18263 0
M  V30 7105 C 714.407 1.60416 -0.111106 0
M  V30 7106 O 715.597 1.7044 -0.359987 0
M  V30 7107 C 712.729 3.31036 -0.81414 0
M  V30 7108 H 713.922 2.09125 -2.14958 0
M  V30 7109 H 711.475 1.06271 -1.14614 0
M  V30 7110 H 712.21 3.23944 0.151875 0
M  V30 7111 H 711.995 3.58476 -1.58862 0
M  V30 7112 H 713.485 4.10842 -0.748249 0
M  V30 7113 N 713.922 1.13953 1.08869 0
M  V30 7114 C 715.338 0.878924 1.33218 0
M  V30 7115 C 715.538 -0.482478 1.95638 0
M  V30 7116 O 714.594 -1.22778 2.2064 0
M  V30 7117 C 715.907 2.00798 2.23832 0
M  V30 7118 C 717.455 2.04073 2.37325 0
M  V30 7119 C 717.93 3.16258 3.31278 0
M  V30 7120 N 719.421 3.15805 3.38853 0
M  V30 7121 C 720.156 3.99249 4.11567 0
M  V30 7122 N 719.652 4.92721 4.87029 0
M  V30 7123 N 721.445 3.87327 4.0735 0
M  V30 7124 H 713.596 2.01645 0.66731 0
M  V30 7125 H 715.859 0.878395 0.356547 0
M  V30 7126 H 715.565 2.98986 1.85203 0
M  V30 7127 H 715.439 1.92704 3.24261 0
M  V30 7128 H 717.826 1.06495 2.75214 0
M  V30 7129 H 717.907 2.16239 1.36654 0
M  V30 7130 H 717.551 4.14079 2.9411 0
M  V30 7131 H 717.481 3.0133 4.31866 0
M  V30 7132 H 719.972 2.48102 2.8505 0
M  V30 7133 H 720.285 5.52867 5.39961 0
M  V30 7134 H 718.63 4.96723 4.86098 0
M  V30 7135 H 721.821 3.13627 3.475 0
M  V30 7136 H 721.994 4.52585 4.63757 0
M  V30 7137 N 715.4 -1.26948 0.933913 0
M  V30 7138 C 716.35 -2.24306 0.408779 0
M  V30 7139 C 717.334 -1.53243 -0.490435 0
M  V30 7140 O 718.526 -1.73956 -0.326866 0
M  V30 7141 C 715.655 -3.41695 -0.331578 0
M  V30 7142 C 714.741 -4.20053 0.58451 0
M  V30 7143 N 715.132 -4.76122 1.70709 0
M  V30 7144 C 713.43 -4.44303 0.388703 0
M  V30 7145 C 714.131 -5.35267 2.27737 0
M  V30 7146 N 713.107 -5.20548 1.56622 0
M  V30 7147 H 716.909 -2.65244 1.26582 0
M  V30 7148 H 714.423 -1.4195 0.788919 0
M  V30 7149 H 716.42 -4.10552 -0.724774 0
M  V30 7150 H 715.08 -3.02286 -1.18547 0
M  V30 7151 H 716.091 -4.73884 2.08937 0
M  V30 7152 H 712.768 -4.15341 -0.424016 0
M  V30 7153 H 714.158 -5.89563 3.22282 0
M  V30 7154 N 716.879 -0.700114 -1.41195 0
M  V30 7155 C 717.829 -0.0144098 -2.27995 0
M  V30 7156 C 718.813 0.748249 -1.42443 0
M  V30 7157 O 720.005 0.622995 -1.65674 0
M  V30 7158 C 717.134 0.917938 -3.308 0
M  V30 7159 C 716.22 0.151286 -4.2383 0
M  V30 7160 N 716.611 -0.85732 -4.98481 0
M  V30 7161 C 714.909 0.386108 -4.44326 0
M  V30 7162 C 715.61 -1.31663 -5.66604 0
M  V30 7163 N 714.586 -0.641689 -5.39799 0
M  V30 7164 H 718.388 -0.787662 -2.83149 0
M  V30 7165 H 715.902 -0.531344 -1.53462 0
M  V30 7166 H 717.899 1.42437 -3.91813 0
M  V30 7167 H 716.559 1.69074 -2.77208 0
M  V30 7168 H 717.57 -1.2377 -5.02893 0
M  V30 7169 H 714.247 1.13644 -4.01735 0
M  V30 7170 H 715.637 -2.15384 -6.36443 0
M  V30 7171 N 718.357 1.51182 -0.445186 0
M  V30 7172 C 719.597 2.04061 0.117717 0
M  V30 7173 C 719.961 1.32158 1.39278 0
M  V30 7174 O 721.162 1.75452 2.03642 0
M  V30 7175 C 719.433 3.55933 0.323445 0
M  V30 7176 S 720.992 4.30516 0.848627 0
M  V30 7177 H 717.81 0.710442 0.028165 0
M  V30 7178 H 720.412 1.85858 -0.606391 0
M  V30 7179 H 719.116 4.0583 -0.610764 0
M  V30 7180 H 718.647 3.78444 1.07441 0
M  V30 7181 H 720.662 4.48382 2.12528 0
M  V30 7182 N 719.835 0.176821 1.56605 0
M  V30 7183 C 721.251 -0.179278 1.5859 0
M  V30 7184 C 721.451 -1.62433 1.19238 0
M  V30 7185 O 720.507 -2.35665 0.906552 0
M  V30 7186 C 721.82 0.106524 3.00511 0
M  V30 7187 C 723.368 0.0451731 3.12967 0
M  V30 7188 C 723.843 0.304038 4.5699 0
M  V30 7189 N 725.334 0.252008 4.62514 0
M  V30 7190 C 726.069 0.426404 5.71812 0
M  V30 7191 N 725.565 0.660155 6.89648 0
M  V30 7192 N 727.358 0.361926 5.60934 0
M  V30 7193 H 719.509 1.12001 1.8047 0
M  V30 7194 H 721.772 0.445679 0.836704 0
M  V30 7195 H 721.478 1.10778 3.33798 0
M  V30 7196 H 721.352 -0.599337 3.72408 0
M  V30 7197 H 723.739 -0.946662 2.79504 0
M  V30 7198 H 723.82 0.78383 2.43495 0
M  V30 7199 H 723.464 1.29311 4.91163 0
M  V30 7200 H 723.394 -0.455294 5.24628 0
M  V30 7201 H 725.885 0.0772102 3.77821 0
M  V30 7202 H 726.198 0.782529 7.68828 0
M  V30 7203 H 724.543 0.696835 6.91498 0
M  V30 7204 H 727.734 0.17986 4.67754 0
M  V30 7205 H 727.907 0.501263 6.46058 0
M  V30 7206 N 721.313 -1.57302 -0.09688 0
M  V30 7207 C 722.243 -2.0497 -1.11846 0
M  V30 7208 C 723.224 -0.938278 -1.41882 0
M  V30 7209 O 724.409 -1.20943 -1.51942 0
M  V30 7210 C 721.539 -2.47264 -2.43881 0
M  V30 7211 C 720.493 -3.62053 -2.28257 0
M  V30 7212 C 719.819 -3.90318 -3.65453 0
M  V30 7213 C 721.119 -4.93005 -1.72461 0
M  V30 7214 H 722.813 -2.90567 -0.721888 0
M  V30 7215 H 720.359 -1.39786 -0.345803 0
M  V30 7216 H 722.312 -2.7922 -3.15617 0
M  V30 7217 H 721.036 -1.58664 -2.8547 0
M  V30 7218 H 719.695 -3.30341 -1.58967 0
M  V30 7219 H 719.343 -2.98889 -4.04567 0
M  V30 7220 H 719.043 -4.67597 -3.55846 0
M  V30 7221 H 720.567 -4.24747 -4.3866 0
M  V30 7222 H 721.981 -5.23354 -2.34036 0
M  V30 7223 H 720.378 -5.74436 -1.73618 0
M  V30 7224 H 721.448 -4.80053 -0.683898 0
M  V30 7225 N 722.791 0.367657 -1.53252 0
M  V30 7226 C 724.019 1.13119 -1.73239 0
M  V30 7227 C 724.434 1.831 -0.460404 0
M  V30 7228 O 723.791 1.73483 0.566557 0
M  V30 7229 C 723.842 2.16308 -2.89643 0
M  V30 7230 O 723.563 1.49175 -4.1192 0
M  V30 7231 C 725.064 3.05224 -3.21486 0
M  V30 7232 H 722.284 0.338318 -0.579467 0
M  V30 7233 H 724.828 0.42721 -1.99988 0
M  V30 7234 H 722.983 2.82307 -2.65295 0
M  V30 7235 H 723.397 2.17912 -4.7709 0
M  V30 7236 H 724.871 3.73613 -4.06346 0
M  V30 7237 H 725.348 3.69919 -2.36763 0
M  V30 7238 H 725.954 2.44843 -3.47753 0
M  V30 7239 N 724.269 1.44576 0.627338 0
M  V30 7240 C 725.516 1.47558 1.38682 0
M  V30 7241 C 725.844 0.109636 1.94191 0
M  V30 7242 O 725.099 -0.889092 1.74338 0
M  V30 7243 C 725.398 2.48644 2.56731 0
M  V30 7244 C 725.064 3.93873 2.19489 0
M  V30 7245 C 723.726 4.33421 2.09045 0
M  V30 7246 C 726.078 4.85286 1.90124 0
M  V30 7247 C 723.406 5.62303 1.6743 0
M  V30 7248 C 725.758 6.14559 1.50001 0
M  V30 7249 C 724.422 6.53058 1.38101 0
M  V30 7250 H 723.692 0.539955 0.507474 0
M  V30 7251 H 726.339 1.77811 0.711021 0
M  V30 7252 H 724.644 2.11889 3.29561 0
M  V30 7253 H 726.341 2.48197 3.14959 0
M  V30 7254 H 722.931 3.62587 2.28537 0
M  V30 7255 H 727.115 4.55483 1.971 0
M  V30 7256 H 722.371 5.90945 1.56823 0
M  V30 7257 H 726.545 6.84848 1.26319 0
M  V30 7258 H 724.172 7.52826 1.05628 0
M  V30 7259 N 725.747 -0.868086 1.31537 0
M  V30 7260 C 726.677 -1.99131 1.21939 0
M  V30 7261 C 727.658 -1.69768 0.106166 0
M  V30 7262 O 728.843 -1.92006 0.291081 0
M  V30 7263 C 725.973 -3.34676 0.927879 0
M  V30 7264 C 724.927 -3.7835 2.00088 0
M  V30 7265 C 724.253 -5.11375 1.56203 0
M  V30 7266 C 725.553 -3.95256 3.41424 0
M  V30 7267 H 727.247 -2.07419 2.15911 0
M  V30 7268 H 724.793 -0.996569 1.03945 0
M  V30 7269 H 726.746 -4.12793 0.847327 0
M  V30 7270 H 725.47 -3.26565 -0.0475042 0
M  V30 7271 H 724.129 -3.02474 2.07135 0
M  V30 7272 H 723.777 -4.99709 0.57445 0
M  V30 7273 H 723.477 -5.41568 2.27985 0
M  V30 7274 H 725.001 -5.92001 1.49558 0
M  V30 7275 H 726.415 -4.63764 3.3704 0
M  V30 7276 H 724.812 -4.36849 4.1144 0
M  V30 7277 H 725.882 -2.98579 3.82072 0
M  V30 7278 N 727.225 -1.14528 -1.08264 0
M  V30 7279 C 728.45 -0.938381 -1.84957 0
M  V30 7280 C 728.875 0.508044 -1.81109 0
M  V30 7281 O 728.233 1.36146 -1.19724 0
M  V30 7282 C 728.281 -1.44568 -3.30352 0
M  V30 7283 O 727.385 -0.638745 -4.07423 0
M  V30 7284 H 726.726 -0.335394 -0.573068 0
M  V30 7285 H 729.256 -1.52287 -1.36637 0
M  V30 7286 H 729.266 -1.45449 -3.81194 0
M  V30 7287 H 727.941 -2.49876 -3.32468 0
M  V30 7288 H 726.518 -0.698801 -3.66294 0
M  V30 7289 N 728.703 1.26451 -0.940633 0
M  V30 7290 C 729.635 2.25556 -0.407104 0
M  V30 7291 C 730.648 1.55888 0.469324 0
M  V30 7292 O 731.837 1.76292 0.279858 0
M  V30 7293 C 728.937 3.36109 0.434064 0
M  V30 7294 C 728.11 4.3532 -0.426082 0
M  V30 7295 C 727.169 5.25004 0.354563 0
M  V30 7296 O 726.195 5.68684 -0.242219 0
M  V30 7297 N 727.397 5.5652 1.65123 0
M  V30 7298 H 730.162 2.7197 -1.25907 0
M  V30 7299 H 727.723 1.40212 -0.809456 0
M  V30 7300 H 729.715 3.93059 0.963684 0
M  V30 7301 H 728.285 2.89194 1.18683 0
M  V30 7302 H 727.505 3.77449 -1.13692 0
M  V30 7303 H 728.793 4.986 -1.01366 0
M  V30 7304 H 728.191 5.22912 2.15822 0
M  V30 7305 H 726.748 6.16115 2.12711 0
M  V30 7306 N 730.181 0.707592 1.40822 0
M  V30 7307 C 731.144 0.0587224 2.29125 0
M  V30 7308 C 732.144 -0.695624 1.44975 0
M  V30 7309 O 733.334 -0.528718 1.65983 0
M  V30 7310 C 730.466 -0.926939 3.28056 0
M  V30 7311 H 731.659 0.836349 2.88002 0
M  V30 7312 H 729.212 0.471778 1.4901 0
M  V30 7313 H 729.947 -1.7319 2.74182 0
M  V30 7314 H 729.732 -0.389015 3.90165 0
M  V30 7315 H 731.222 -1.37837 3.94196 0
M  V30 7316 N 731.66 -1.50943 0.453197 0
M  V30 7317 C 732.623 -2.26684 -0.338705 0
M  V30 7318 C 733.623 -1.30748 -0.936032 0
M  V30 7319 O 734.813 -1.54327 -0.808002 0
M  V30 7320 C 731.945 -3.07063 -1.48071 0
M  V30 7321 H 733.138 -2.98131 0.325289 0
M  V30 7322 H 730.691 -1.54926 0.206771 0
M  V30 7323 H 731.426 -2.4007 -2.18029 0
M  V30 7324 H 731.211 -3.77545 -1.0584 0
M  V30 7325 H 732.701 -3.64393 -2.0398 0
M  V30 7326 N 733.138 -0.185124 -1.56509 0
M  V30 7327 C 734.101 0.72591 -2.17401 0
M  V30 7328 C 735.101 1.14819 -1.12575 0
M  V30 7329 O 736.291 1.0629 -1.38015 0
M  V30 7330 C 733.423 1.98979 -2.76803 0
M  V30 7331 H 734.616 0.195588 -2.99262 0
M  V30 7332 H 732.169 0.0644772 -1.56167 0
M  V30 7333 H 732.904 2.56287 -1.98714 0
M  V30 7334 H 732.689 1.69583 -3.53531 0
M  V30 7335 H 734.179 2.63966 -3.23592 0
M  V30 7336 N 734.616 1.57351 0.0885366 0
M  V30 7337 C 735.579 2.01557 1.09121 0
M  V30 7338 C 736.579 0.910052 1.3257 0
M  V30 7339 O 737.769 1.17537 1.28572 0
M  V30 7340 C 734.901 2.38189 2.43883 0
M  V30 7341 H 736.094 2.91361 0.710562 0
M  V30 7342 H 733.647 1.52694 0.333779 0
M  V30 7343 H 734.382 1.5136 2.86811 0
M  V30 7344 H 734.167 3.18846 2.28209 0
M  V30 7345 H 735.657 2.73025 3.15986 0
M  V30 7346 N 736.094 -0.359525 1.53444 0
M  V30 7347 C 737.042 -1.46104 1.80987 0
M  V30 7348 C 738.036 -1.55181 0.679351 0
M  V30 7349 O 739.242 -1.57995 0.862405 0
M  V30 7350 H 735.617 -0.486835 0.573145 0
M  V30 7351 H 737.588 -1.2008 2.73173 0
M  V30 7352 C 736.337 -2.82855 2.02208 0
M  V30 7353 H 735.66 -2.76631 2.88644 0
M  V30 7354 H 737.1 -3.59091 2.25455 0
M  V30 7355 C 735.559 -3.27192 0.802931 0
M  V30 7356 O 736.089 -4.017 -0.00544286 0
M  V30 7357 N 734.295 -2.83807 0.624657 0
M  V30 7358 H 733.842 -2.23339 1.28364 0
M  V30 7359 H 733.8 -3.13828 -0.189641 0
M  V30 7360 N 737.572 -1.44907 -0.619662 0
M  V30 7361 C 738.82 -1.47999 -1.37625 0
M  V30 7362 C 739.141 -0.118295 -1.94641 0
M  V30 7363 O 738.411 0.85086 -1.76457 0
M  V30 7364 H 736.991 -0.544993 -0.510873 0
M  V30 7365 H 739.653 -1.80772 -0.728522 0
M  V30 7366 H 738.749 -2.21196 -2.20179 0
M  V30 7367 N 739.05 0.861098 -1.31996 0
M  V30 7368 C 740.296 1.61721 -1.22369 0
M  V30 7369 C 740.629 1.93 0.215587 0
M  V30 7370 O 739.904 1.56789 1.15098 0
M  V30 7371 C 740.187 2.9417 -2.07691 0
M  V30 7372 C 740.04 2.69714 -3.59965 0
M  V30 7373 C 741.359 3.95372 -1.93312 0
M  V30 7374 H 738.478 0.586822 -0.44588 0
M  V30 7375 H 741.12 0.994788 -1.61876 0
M  V30 7376 H 739.27 3.47292 -1.74128 0
M  V30 7377 H 740.942 2.23196 -4.03709 0
M  V30 7378 H 739.185 2.03789 -3.82952 0
M  V30 7379 H 739.856 3.63996 -4.14983 0
M  V30 7380 H 742.332 3.51487 -2.22701 0
M  V30 7381 H 741.208 4.85916 -2.55298 0
M  V30 7382 H 741.469 4.32865 -0.898922 0
M  V30 7383 N 740.528 1.15101 1.07655 0
M  V30 7384 C 741.491 0.847625 2.12951 0
M  V30 7385 C 742.491 -0.151227 1.60087 0
M  V30 7386 O 743.681 0.0780399 1.74025 0
M  V30 7387 C 740.813 0.265 3.39868 0
M  V30 7388 H 742.006 1.7809 2.41296 0
M  V30 7389 H 739.559 0.958072 1.23494 0
M  V30 7390 H 740.294 -0.676625 3.17163 0
M  V30 7391 H 740.079 0.984554 3.79538 0
M  V30 7392 H 741.569 0.0702121 4.17541 0
M  V30 7393 N 742.006 -1.2595 0.947325 0
M  V30 7394 C 742.916 -2.29883 0.468079 0
M  V30 7395 C 743.932 -1.67783 -0.460975 0
M  V30 7396 O 745.108 -1.98526 -0.339006 0
M  V30 7397 C 742.173 -3.45773 -0.253315 0
M  V30 7398 C 741.234 -4.23337 0.713054 0
M  V30 7399 C 740.467 -5.33694 0.025993 0
M  V30 7400 O 740.69 -5.57853 -1.18978 0
M  V30 7401 O 739.624 -5.97724 0.70782 0
M  V30 7402 H 743.45 -2.72952 1.33156 0
M  V30 7403 H 741.035 -1.31263 0.713468 0
M  V30 7404 H 742.917 -4.16209 -0.659423 0
M  V30 7405 H 741.592 -3.04721 -1.09209 0
M  V30 7406 H 740.499 -3.55359 1.16923 0
M  V30 7407 H 741.832 -4.68154 1.51963 0
M  V30 7408 N 743.484 -0.715051 -1.40445 0
M  V30 7409 C 744.9 -0.388555 -1.54798 0
M  V30 7410 C 745.1 1.10271 -1.68649 0
M  V30 7411 O 744.156 1.88875 -1.67578 0
M  V30 7412 C 745.469 -1.15414 -2.77669 0
M  V30 7413 C 747.017 -1.14039 -2.91486 0
M  V30 7414 C 747.492 -1.88812 -4.1727 0
M  V30 7415 N 748.983 -1.85878 -4.24268 0
M  V30 7416 C 749.718 -2.40558 -5.20499 0
M  V30 7417 N 749.214 -3.03791 -6.22642 0
M  V30 7418 N 751.007 -2.30703 -5.12574 0
M  V30 7419 H 743.158 -1.68201 -1.297 0
M  V30 7420 H 745.421 -0.710915 -0.627139 0
M  V30 7421 H 745.127 -2.20853 -2.7371 0
M  V30 7422 H 745.001 -0.745412 -3.69761 0
M  V30 7423 H 747.388 -0.0941996 -2.9495 0
M  V30 7424 H 747.469 -1.58834 -2.00513 0
M  V30 7425 H 747.113 -2.93422 -4.14568 0
M  V30 7426 H 747.043 -1.41438 -5.0725 0
M  V30 7427 H 749.534 -1.39794 -3.51093 0
M  V30 7428 H 749.847 -3.43032 -6.92495 0
M  V30 7429 H 748.192 -3.07875 -6.23087 0
M  V30 7430 H 751.383 -1.80961 -4.31707 0
M  V30 7431 H 751.556 -2.73618 -5.87398 0
M  V30 7432 N 744.962 1.50701 -0.461195 0
M  V30 7433 C 745.892 2.31182 0.328184 0
M  V30 7434 C 746.873 1.37644 0.999408 0
M  V30 7435 O 748.058 1.66565 0.99848 0
M  V30 7436 C 745.188 3.17113 1.41621 0
M  V30 7437 C 744.142 4.19124 0.867148 0
M  V30 7438 C 743.468 4.93728 2.05272 0
M  V30 7439 C 744.768 5.22174 -0.114808 0
M  V30 7440 H 746.462 2.97423 -0.343501 0
M  V30 7441 H 744.008 1.43033 -0.166641 0
M  V30 7442 H 745.961 3.72208 1.97584 0
M  V30 7443 H 744.685 2.48739 2.11652 0
M  V30 7444 H 743.344 3.65116 0.329557 0
M  V30 7445 H 742.992 4.21835 2.73978 0
M  V30 7446 H 742.692 5.62724 1.69161 0
M  V30 7447 H 744.216 5.51654 2.61744 0
M  V30 7448 H 745.63 5.72198 0.355316 0
M  V30 7449 H 744.027 5.98833 -0.389689 0
M  V30 7450 H 745.097 4.7353 -1.04391 0
M  V30 7451 N 746.441 0.193421 1.56409 0
M  V30 7452 C 747.389 -0.744829 2.20352 0
M  V30 7453 C 748.383 -1.22104 1.17418 0
M  V30 7454 O 749.589 -1.18413 1.35567 0
M  V30 7455 H 745.964 -0.258538 0.70616 0
M  V30 7456 H 747.935 -0.181794 2.97846 0
M  V30 7457 C 746.684 -1.95453 2.87565 0
M  V30 7458 H 746.007 -1.59716 3.66512 0
M  V30 7459 H 747.447 -2.58942 3.35745 0
M  V30 7460 C 745.906 -2.79223 1.8851 0
M  V30 7461 O 746.436 -3.77093 1.38434 0
M  V30 7462 N 744.642 -2.44682 1.56777 0
M  V30 7463 H 744.189 -1.65153 1.97692 0
M  V30 7464 H 744.147 -3.01016 0.907573 0
M  V30 7465 N 747.919 -1.57396 -0.0801906 0
M  V30 7466 C 748.849 -2.06145 -1.09665 0
M  V30 7467 C 749.83 -0.953273 -1.40878 0
M  V30 7468 O 751.015 -1.22548 -1.50651 0
M  V30 7469 C 748.145 -2.49836 -2.41245 0
M  V30 7470 C 747.099 -3.64454 -2.24405 0
M  V30 7471 C 746.425 -3.94172 -3.61293 0
M  V30 7472 C 747.725 -4.94807 -1.67223 0
M  V30 7473 H 749.419 -2.91316 -0.691028 0
M  V30 7474 H 746.965 -1.40145 -0.330957 0
M  V30 7475 H 748.918 -2.82552 -3.12638 0
M  V30 7476 H 747.642 -1.61683 -2.83771 0
M  V30 7477 H 746.301 -3.32008 -1.55454 0
M  V30 7478 H 745.949 -3.03163 -4.01374 0
M  V30 7479 H 745.649 -4.71345 -3.50867 0
M  V30 7480 H 747.173 -4.29376 -4.3413 0
M  V30 7481 H 748.587 -5.25807 -2.28472 0
M  V30 7482 H 746.984 -5.76245 -1.67515 0
M  V30 7483 H 748.054 -4.80751 -0.632944 0
M  V30 7484 N 749.397 0.351382 -1.53633 0
M  V30 7485 C 750.813 0.693987 -1.43722 0
M  V30 7486 C 751.013 1.9274 -0.587669 0
M  V30 7487 O 750.069 2.52387 -0.0756082 0
M  V30 7488 C 751.382 0.893937 -2.87105 0
M  V30 7489 C 752.93 0.993051 -2.96829 0
M  V30 7490 C 753.405 1.22537 -4.41303 0
M  V30 7491 N 754.896 1.29275 -4.44795 0
M  V30 7492 C 755.631 1.48988 -5.53706 0
M  V30 7493 N 755.127 1.65924 -6.72637 0
M  V30 7494 N 756.92 1.51472 -5.41306 0
M  V30 7495 H 749.071 -0.459688 -2.07366 0
M  V30 7496 H 751.334 -0.143684 -0.937048 0
M  V30 7497 H 751.04 0.0592517 -3.5165 0
M  V30 7498 H 750.914 1.79795 -3.31592 0
M  V30 7499 H 753.301 1.81827 -2.32429 0
M  V30 7500 H 753.382 0.0661119 -2.55715 0
M  V30 7501 H 753.026 0.405117 -5.06282 0
M  V30 7502 H 752.956 2.16575 -4.80003 0
M  V30 7503 H 755.447 1.17743 -3.59089 0
M  V30 7504 H 755.76 1.80578 -7.51406 0
M  V30 7505 H 754.105 1.63075 -6.75597 0
M  V30 7506 H 757.296 1.37818 -4.47352 0
M  V30 7507 H 757.469 1.66493 -6.26246 0
M  V30 7508 N 750.875 1.45233 0.611969 0
M  V30 7509 C 752.1 1.52767 1.40274 0
M  V30 7510 C 752.525 0.159701 1.87421 0
M  V30 7511 O 751.883 -0.854837 1.59882 0
M  V30 7512 C 751.931 2.51286 2.58626 0
M  V30 7513 O 751.035 2.02764 3.59111 0
M  V30 7514 H 750.376 0.515141 0.418958 0
M  V30 7515 H 752.906 1.90547 0.745188 0
M  V30 7516 H 752.916 2.69949 3.05927 0
M  V30 7517 H 751.591 3.50641 2.23659 0
M  V30 7518 H 750.168 1.93957 3.18489 0
M  V30 7519 N 752.353 -0.854086 1.3245 0
M  V30 7520 C 753.316 -1.94427 1.21371 0
M  V30 7521 C 754.316 -1.60219 0.136613 0
M  V30 7522 O 755.506 -1.69846 0.387057 0
M  V30 7523 C 752.638 -3.29698 0.866701 0
M  V30 7524 H 753.831 -2.05679 2.18257 0
M  V30 7525 H 751.384 -1.04434 1.1629 0
M  V30 7526 H 752.119 -3.24145 -0.100319 0
M  V30 7527 H 751.904 -3.55903 1.64545 0
M  V30 7528 H 753.394 -4.09599 0.813515 0
M  V30 7529 N 753.831 -1.1567 -1.07043 0
M  V30 7530 C 755.08 -0.928039 -1.79082 0
M  V30 7531 C 755.393 0.545968 -1.87826 0
M  V30 7532 O 756.599 0.892308 -2.56418 0
M  V30 7533 C 755.055 -1.61103 -3.21829 0
M  V30 7534 C 754.663 -3.12228 -3.21275 0
M  V30 7535 C 756.407 -1.46404 -3.98455 0
M  V30 7536 C 754.314 -3.733 -4.58695 0
M  V30 7537 H 753.244 -0.34357 -0.671175 0
M  V30 7538 H 755.895 -1.38718 -1.20123 0
M  V30 7539 H 754.277 -1.07958 -3.81 0
M  V30 7540 H 755.451 -3.72155 -2.71731 0
M  V30 7541 H 753.766 -3.26725 -2.58147 0
M  V30 7542 H 756.363 -1.8942 -5.00024 0
M  V30 7543 H 756.706 -0.41195 -4.14257 0
M  V30 7544 H 757.239 -1.96663 -3.45787 0
M  V30 7545 H 753.978 -4.78423 -4.48098 0
M  V30 7546 H 753.498 -3.18157 -5.08465 0
M  V30 7547 H 755.177 -3.7441 -5.27661 0
M  V30 7548 N 755.309 1.25446 -0.953992 0
M  V30 7549 C 756.272 2.24156 -0.478179 0
M  V30 7550 C 757.272 1.55278 0.417776 0
M  V30 7551 O 758.462 1.72866 0.215155 0
M  V30 7552 C 755.594 3.39495 0.309202 0
M  V30 7553 H 756.787 2.67764 -1.35064 0
M  V30 7554 H 754.34 1.37822 -0.737206 0
M  V30 7555 H 755.075 3.01307 1.19936 0
M  V30 7556 H 754.86 3.90679 -0.333562 0
M  V30 7557 H 756.35 4.12796 0.631594 0
M  V30 7558 N 756.787 0.722489 1.40064 0
M  V30 7559 C 758.033 0.265371 2.01056 0
M  V30 7560 C 758.366 -1.14062 1.57174 0
M  V30 7561 O 757.641 -1.77514 0.794916 0
M  V30 7562 C 757.924 0.353157 3.58364 0
M  V30 7563 C 757.777 1.79802 4.123 0
M  V30 7564 C 759.096 -0.271677 4.39261 0
M  V30 7565 H 756.215 0.0979002 0.730469 0
M  V30 7566 H 758.857 0.916289 1.66446 0
M  V30 7567 H 757.007 -0.201037 3.87979 0
M  V30 7568 H 758.679 2.40813 3.93455 0
M  V30 7569 H 756.922 2.32348 3.66329 0
M  V30 7570 H 757.593 1.81079 5.21454 0
M  V30 7571 H 760.069 0.200607 4.15616 0
M  V30 7572 H 758.945 -0.179843 5.48605 0
M  V30 7573 H 759.206 -1.35611 4.20787 0
M  V30 7574 N 758.265 -1.50454 0.469181 0
M  V30 7575 C 759.511 -2.02615 -0.0865971 0
M  V30 7576 C 759.844 -1.35062 -1.39542 0
M  V30 7577 O 759.119 -0.475701 -1.88593 0
M  V30 7578 C 759.402 -3.59068 -0.272385 0
M  V30 7579 C 759.255 -4.37196 1.05733 0
M  V30 7580 C 760.574 -4.2793 -1.0278 0
M  V30 7581 H 757.693 -0.736389 -0.0299977 0
M  V30 7582 H 760.335 -1.79792 0.614399 0
M  V30 7583 H 758.485 -3.78646 -0.869471 0
M  V30 7584 H 760.157 -4.29195 1.69084 0
M  V30 7585 H 758.4 -4.01013 1.65442 0
M  V30 7586 H 759.071 -5.44924 0.880997 0
M  V30 7587 H 761.547 -4.12816 -0.521718 0
M  V30 7588 H 760.423 -5.37214 -1.12659 0
M  V30 7589 H 760.684 -3.90968 -2.0639 0
M  V30 7590 N 759.743 -0.201713 -1.56304 0
M  V30 7591 C 760.69 0.716499 -2.19397 0
M  V30 7592 C 761.66 1.20494 -1.14326 0
M  V30 7593 O 762.845 1.26763 -1.42604 0
M  V30 7594 C 759.985 1.92762 -2.86246 0
M  V30 7595 C 759.098 1.47993 -4.0586 0
M  V30 7596 C 758.233 2.64706 -4.60547 0
M  V30 7597 C 757.272 2.16576 -5.72504 0
M  V30 7598 N 756.409 3.26491 -6.21569 0
M  V30 7599 H 761.249 0.171724 -2.97505 0
M  V30 7600 H 758.786 0.073016 -1.46919 0
M  V30 7601 H 760.744 2.6384 -3.23178 0
M  V30 7602 H 759.374 2.44559 -2.10691 0
M  V30 7603 H 758.426 0.66477 -3.74546 0
M  V30 7604 H 759.738 1.08686 -4.86815 0
M  V30 7605 H 758.892 3.43898 -4.99819 0
M  V30 7606 H 757.631 3.0729 -3.78713 0
M  V30 7607 H 756.636 1.3584 -5.32755 0
M  V30 7608 H 757.861 1.75015 -6.56161 0
M  V30 7609 H 755.807 3.68594 -5.42655 0
M  V30 7610 H 755.724 2.91374 -6.97594 0
M  V30 7611 H 756.992 4.05877 -6.65495 0
M  V30 7612 N 761.222 1.57436 0.0718424 0
M  V30 7613 C 762.47 1.86878 0.769484 0
M  V30 7614 C 762.791 0.7937 1.78116 0
M  V30 7615 O 762.061 -0.177642 1.95093 0
M  V30 7616 H 760.641 0.689593 0.287177 0
M  V30 7617 H 763.303 1.94841 0.0479427 0
M  V30 7618 H 762.399 2.84387 1.28572 0
M  V30 7619 N 762.7 -0.34323 1.53817 0
M  V30 7620 C 763.94 -1.09188 1.72793 0
M  V30 7621 C 764.304 -1.85876 0.481062 0
M  V30 7622 O 765.505 -2.63158 0.547851 0
M  V30 7623 C 763.776 -2.00783 2.9567 0
M  V30 7624 S 765.335 -2.82866 3.35459 0
M  V30 7625 H 762.153 -0.368926 0.607795 0
M  V30 7626 H 764.755 -0.370265 1.91962 0
M  V30 7627 H 763.459 -1.43245 3.84589 0
M  V30 7628 H 762.99 -2.77381 2.78968 0
M  V30 7629 H 765.005 -4.03196 2.89218 0
M  V30 7630 N 764.178 -1.45556 -0.604258 0
M  V30 7631 C 765.594 -1.30035 -0.925368 0
M  V30 7632 C 765.794 -0.255833 -1.99869 0
M  V30 7633 O 764.85 0.349076 -2.50075 0
M  V30 7634 C 766.163 -2.68028 -1.36314 0
M  V30 7635 C 767.711 -2.75951 -1.47717 0
M  V30 7636 C 768.186 -4.14476 -1.94868 0
M  V30 7637 N 769.677 -4.16787 -2.02097 0
M  V30 7638 C 770.412 -5.20845 -2.39809 0
M  V30 7639 N 769.908 -6.35246 -2.76467 0
M  V30 7640 N 771.701 -5.08204 -2.40177 0
M  V30 7641 H 763.852 -2.1214 0.10512 0
M  V30 7642 H 766.115 -0.947871 -0.0156303 0
M  V30 7643 H 765.821 -3.45667 -0.648628 0
M  V30 7644 H 765.695 -2.96711 -2.329 0
M  V30 7645 H 768.082 -1.98613 -2.18258 0
M  V30 7646 H 768.163 -2.50977 -0.494371 0
M  V30 7647 H 767.807 -4.923 -1.24912 0
M  V30 7648 H 767.737 -4.36843 -2.94068 0
M  V30 7649 H 770.228 -3.34233 -1.76343 0
M  V30 7650 H 770.541 -7.10438 -3.04134 0
M  V30 7651 H 768.886 -6.38642 -2.74155 0
M  V30 7652 H 772.077 -4.17874 -2.10947 0
M  V30 7653 H 772.25 -5.89417 -2.69242 0
M  V30 7654 N 765.656 0.84705 -1.32902 0
M  V30 7655 C 766.884 1.63403 -1.26913 0
M  V30 7656 C 767.299 1.88108 0.161483 0
M  V30 7657 O 766.656 1.45546 1.10103 0
M  V30 7658 C 766.707 2.98896 -2.03331 0
M  V30 7659 O 766.428 2.75281 -3.40811 0
M  V30 7660 C 767.929 3.93335 -2.04457 0
M  V30 7661 H 765.149 0.508701 -0.437566 0
M  V30 7662 H 767.693 1.05567 -1.75145 0
M  V30 7663 H 765.848 3.53356 -1.58802 0
M  V30 7664 H 766.262 3.61504 -3.8002 0
M  V30 7665 H 767.736 4.85647 -2.62394 0
M  V30 7666 H 768.213 4.26885 -1.03274 0
M  V30 7667 H 768.819 3.44812 -2.48967 0
M  V30 7668 N 767.134 1.16236 1.06428 0
M  V30 7669 C 768.38 0.944431 1.79467 0
M  V30 7670 C 768.713 -0.526558 1.86925 0
M  V30 7671 O 767.988 -1.39061 1.35986 0
M  V30 7672 C 768.271 1.57092 3.24028 0
M  V30 7673 C 768.124 3.11315 3.24658 0
M  V30 7674 C 769.443 1.26447 4.21544 0
M  V30 7675 H 766.562 0.344521 0.651517 0
M  V30 7676 H 769.204 1.43545 1.24478 0
M  V30 7677 H 767.354 1.15337 3.70985 0
M  V30 7678 H 769.026 3.62042 2.85873 0
M  V30 7679 H 767.269 3.44716 2.6335 0
M  V30 7680 H 767.94 3.50269 4.26633 0
M  V30 7681 H 770.416 1.62581 3.83023 0
M  V30 7682 H 769.292 1.72885 5.20963 0
M  V30 7683 H 769.553 0.183068 4.41721 0
M  V30 7684 N 768.612 -1.24939 0.960631 0
M  V30 7685 C 769.544 -2.24879 0.442937 0
M  V30 7686 C 770.557 -1.56615 -0.444464 0
M  V30 7687 O 771.746 -1.76715 -0.251776 0
M  V30 7688 C 768.846 -3.36757 -0.380537 0
M  V30 7689 C 768.019 -4.34587 0.495283 0
M  V30 7690 C 767.078 -5.25502 -0.270995 0
M  V30 7691 O 766.104 -5.68227 0.332661 0
M  V30 7692 N 767.306 -5.59077 -1.56249 0
M  V30 7693 H 770.071 -2.69932 1.30218 0
M  V30 7694 H 767.632 -1.38907 0.83166 0
M  V30 7695 H 769.624 -3.94542 -0.90103 0
M  V30 7696 H 768.194 -2.91045 -1.14067 0
M  V30 7697 H 767.414 -3.75593 1.19682 0
M  V30 7698 H 768.702 -4.96925 1.09285 0
M  V30 7699 H 768.1 -5.2628 -2.07476 0
M  V30 7700 H 766.657 -6.19421 -2.02882 0
M  V30 7701 N 770.09 -0.729906 -1.39679 0
M  V30 7702 C 771.037 -0.0866063 -2.30637 0
M  V30 7703 C 772.007 0.735115 -1.48947 0
M  V30 7704 O 773.192 0.696125 -1.77648 0
M  V30 7705 C 770.332 0.818524 -3.35252 0
M  V30 7706 C 769.445 -0.0152635 -4.31997 0
M  V30 7707 C 768.58 0.890669 -5.2368 0
M  V30 7708 C 767.619 0.0518246 -6.12078 0
M  V30 7709 N 766.756 0.913411 -6.96133 0
M  V30 7710 H 771.596 -0.867925 -2.85081 0
M  V30 7711 H 769.133 -0.439673 -1.40376 0
M  V30 7712 H 771.091 1.3577 -3.9449 0
M  V30 7713 H 769.721 1.56587 -2.82277 0
M  V30 7714 H 768.773 -0.671794 -3.74421 0
M  V30 7715 H 770.085 -0.664086 -4.9436 0
M  V30 7716 H 769.239 1.49787 -5.87919 0
M  V30 7717 H 767.978 1.57328 -4.61627 0
M  V30 7718 H 766.983 -0.568209 -5.46856 0
M  V30 7719 H 768.208 -0.627497 -6.76195 0
M  V30 7720 H 766.154 1.58141 -6.36653 0
M  V30 7721 H 766.071 0.320952 -7.55318 0
M  V30 7722 H 767.339 1.50633 -7.64807 0
M  V30 7723 N 771.568 1.50203 -0.477153 0
M  V30 7724 C 772.531 2.27194 0.302599 0
M  V30 7725 C 773.531 1.32221 0.915112 0
M  V30 7726 O 774.721 1.55593 0.783348 0
M  V30 7727 C 771.853 3.0938 1.43167 0
M  V30 7728 H 773.046 2.97575 -0.372678 0
M  V30 7729 H 770.599 1.54578 -0.231392 0
M  V30 7730 H 771.334 2.43509 2.14182 0
M  V30 7731 H 771.119 3.79181 0.998197 0
M  V30 7732 H 772.609 3.67592 1.98157 0
M  V30 7733 N 773.046 0.209999 1.56195 0
M  V30 7734 C 774.323 -0.473214 1.89789 0
M  V30 7735 C 774.703 -1.78581 1.1257 0
M  V30 7736 O 774.051 -2.27325 0.231398 0
M  V30 7737 C 774.261 -0.677458 3.42362 0
M  V30 7738 C 775.609 -0.990114 4.12895 0
M  V30 7739 O 776.633 -0.764655 3.47896 0
M  V30 7740 O 775.492 -1.41737 5.278 0
M  V30 7741 H 772.586 -0.248622 0.788743 0
M  V30 7742 H 775.132 0.251324 1.67829 0
M  V30 7743 H 773.904 0.248878 3.90508 0
M  V30 7744 H 773.527 -1.45391 3.70064 0
M  V30 7745 N 774.524 -1.57472 -0.0634922 0
M  V30 7746 C 775.457 -1.99571 -1.10664 0
M  V30 7747 C 776.435 -0.874015 -1.37112 0
M  V30 7748 O 777.619 -1.13702 -1.50347 0
M  V30 7749 C 774.746 -2.3395 -2.44918 0
M  V30 7750 C 773.792 -3.56213 -2.34551 0
M  V30 7751 S 774.625 -5.06727 -1.73169 0
M  V30 7752 C 775.781 -5.44316 -3.08984 0
M  V30 7753 H 776.014 -2.87739 -0.747905 0
M  V30 7754 H 773.547 -1.5198 -0.272316 0
M  V30 7755 H 775.505 -2.54431 -3.22141 0
M  V30 7756 H 774.166 -1.46297 -2.7795 0
M  V30 7757 H 773.359 -3.77812 -3.33578 0
M  V30 7758 H 772.961 -3.35406 -1.65466 0
M  V30 7759 H 775.253 -5.42894 -4.05305 0
M  V30 7760 H 776.196 -6.4502 -2.92156 0
M  V30 7761 H 776.604 -4.71781 -3.09972 0
M  V30 7762 N 776.003 0.335068 -1.53997 0
M  V30 7763 C 777.249 1.07594 -1.71905 0
M  V30 7764 C 777.582 1.88039 -0.485264 0
M  V30 7765 O 776.857 1.87482 0.517752 0
M  V30 7766 C 777.14 2.01016 -2.98772 0
M  V30 7767 C 776.993 1.23977 -4.32377 0
M  V30 7768 C 778.312 3.0071 -3.21343 0
M  V30 7769 H 775.431 0.38976 -0.625505 0
M  V30 7770 H 778.073 0.353684 -1.86679 0
M  V30 7771 H 776.223 2.62603 -2.86307 0
M  V30 7772 H 777.895 0.649383 -4.56706 0
M  V30 7773 H 776.138 0.541878 -4.30402 0
M  V30 7774 H 776.809 1.92512 -5.17342 0
M  V30 7775 H 779.285 2.4924 -3.33194 0
M  V30 7776 H 778.161 3.63272 -4.11491 0
M  V30 7777 H 778.422 3.72549 -2.38033 0
M  V30 7778 N 777.481 1.45874 0.596531 0
M  V30 7779 C 778.431 1.5181 1.70111 0
M  V30 7780 C 779.415 0.380293 1.56341 0
M  V30 7781 O 780.607 0.627849 1.6549 0
M  V30 7782 C 777.736 1.49822 3.08883 0
M  V30 7783 C 776.822 2.68845 3.27998 0
M  V30 7784 N 777.213 3.93873 3.17329 0
M  V30 7785 C 775.511 2.64777 3.589 0
M  V30 7786 C 776.212 4.73371 3.38076 0
M  V30 7787 N 775.188 4.0501 3.62585 0
M  V30 7788 H 778.99 2.46289 1.60372 0
M  V30 7789 H 776.504 1.41321 0.800138 0
M  V30 7790 H 778.501 1.5216 3.8814 0
M  V30 7791 H 777.161 0.564086 3.19763 0
M  V30 7792 H 778.172 4.25329 2.95492 0
M  V30 7793 H 774.849 1.80323 3.7655 0
M  V30 7794 H 776.239 5.82357 3.35127 0
M  V30 7795 N 778.959 -0.83999 1.33349 0
M  V30 7796 C 779.907 -1.97113 1.23488 0
M  V30 7797 C 780.901 -1.68849 0.136503 0
M  V30 7798 O 782.107 -1.77476 0.300389 0
M  V30 7799 H 778.482 -0.647049 0.383185 0
M  V30 7800 H 780.453 -2.02554 2.19122 0
M  V30 7801 C 779.202 -3.33314 0.989815 0
M  V30 7802 H 778.525 -3.556 1.82726 0
M  V30 7803 H 779.965 -4.12963 0.961123 0
M  V30 7804 C 778.424 -3.35496 -0.307272 0
M  V30 7805 O 778.954 -3.79589 -1.31434 0
M  V30 7806 N 777.16 -2.88669 -0.334414 0
M  V30 7807 H 776.707 -2.5298 0.485659 0
M  V30 7808 H 776.665 -2.90512 -1.20209 0
M  V30 7809 N 780.437 -1.16799 -1.0581 0
M  V30 7810 C 781.662 -0.977402 -1.82925 0
M  V30 7811 C 782.087 0.469514 -1.82146 0
M  V30 7812 O 781.445 1.33576 -1.22585 0
M  V30 7813 C 781.493 -1.51543 -3.27211 0
M  V30 7814 O 780.597 -0.725021 -4.05977 0
M  V30 7815 H 779.938 -0.347474 -0.565825 0
M  V30 7816 H 782.468 -1.55151 -1.33376 0
M  V30 7817 H 782.478 -1.53502 -3.78023 0
M  V30 7818 H 781.153 -2.56872 -3.27093 0
M  V30 7819 H 779.73 -0.77634 -3.64729 0
M  V30 7820 N 781.915 1.24427 -0.967243 0
M  V30 7821 C 782.845 2.2773 -0.515899 0
M  V30 7822 C 783.826 1.64197 0.444227 0
M  V30 7823 O 785.011 1.91193 0.340451 0
M  V30 7824 C 782.141 3.46751 0.195149 0
M  V30 7825 C 781.095 4.22548 -0.680953 0
M  V30 7826 C 780.421 5.34456 0.161561 0
M  V30 7827 C 781.721 4.83914 -1.96532 0
M  V30 7828 H 783.415 2.65735 -1.37933 0
M  V30 7829 H 780.961 1.27742 -0.664681 0
M  V30 7830 H 782.914 4.18153 0.522117 0
M  V30 7831 H 781.638 3.07771 1.09292 0
M  V30 7832 H 780.297 3.52946 -0.991186 0
M  V30 7833 H 779.945 4.91716 1.05947 0
M  V30 7834 H 779.645 5.86087 -0.421418 0
M  V30 7835 H 781.169 6.08685 0.483211 0
M  V30 7836 H 782.583 5.47392 -1.70396 0
M  V30 7837 H 780.98 5.45775 -2.49499 0
M  V30 7838 H 782.05 4.05393 -2.66053 0
M  V30 7839 N 783.393 0.737304 1.3929 0
M  V30 7840 C 784.325 0.0592106 2.29124 0
M  V30 7841 C 785.338 -0.701026 1.46934 0
M  V30 7842 O 786.527 -0.544808 1.69983 0
M  V30 7843 C 783.627 -0.940358 3.25592 0
M  V30 7844 C 782.8 -0.241163 4.36735 0
M  V30 7845 C 781.859 -1.14916 5.13498 0
M  V30 7846 O 780.885 -0.625783 5.6575 0
M  V30 7847 N 782.087 -2.47869 5.2492 0
M  V30 7848 H 784.852 0.830647 2.87959 0
M  V30 7849 H 782.413 0.586718 1.50895 0
M  V30 7850 H 784.405 -1.55046 3.73822 0
M  V30 7851 H 782.975 -1.61299 2.67771 0
M  V30 7852 H 782.195 0.549441 3.90352 0
M  V30 7853 H 783.483 0.243299 5.08218 0
M  V30 7854 H 782.881 -2.92864 4.83991 0
M  V30 7855 H 781.438 -3.03969 5.76581 0
M  V30 7856 N 784.871 -1.49948 0.485112 0
M  V30 7857 C 786.282 -1.8667 0.0334041 0
M  V30 7858 C 786.633 -1.3988 -1.37579 0
M  V30 7859 O 785.758 -0.769788 -2.02245 0
M  V30 7860 C 786.353 -3.38757 0.0538426 0
M  V30 7861 C 784.912 -3.74839 -0.342453 0
M  V30 7862 C 784.059 -2.73894 0.433281 0
M  V30 7863 H 787.01 -1.42492 0.698699 0
M  V30 7864 H 787.031 -3.73132 -0.745146 0
M  V30 7865 H 786.543 -3.72782 1.07959 0
M  V30 7866 H 784.644 -3.46419 -1.37203 0
M  V30 7867 H 784.757 -4.79088 -0.0340503 0
M  V30 7868 H 783.121 -2.54441 -0.114849 0
M  V30 7869 H 783.904 -3.10763 1.45881 0
M  V30 7870 N 786.349 -0.21828 -1.56081 0
M  V30 7871 C 787.297 0.709679 -2.21509 0
M  V30 7872 C 788.291 1.20221 -1.19346 0
M  V30 7873 O 789.497 1.16241 -1.37433 0
M  V30 7874 H 785.872 0.247271 -0.710184 0
M  V30 7875 H 787.843 0.134386 -2.98097 0
M  V30 7876 C 786.592 1.90853 -2.90638 0
M  V30 7877 H 785.915 1.53865 -3.69006 0
M  V30 7878 H 787.355 2.53568 -3.39822 0
M  V30 7879 C 785.814 2.76189 -1.92929 0
M  V30 7880 O 786.344 3.74842 -1.44416 0
M  V30 7881 N 784.55 2.42157 -1.6065 0
M  V30 7882 H 784.097 1.61987 -2.00294 0
M  V30 7883 H 784.055 2.99534 -0.955347 0
M  V30 7884 N 787.827 1.57504 0.0551401 0
M  V30 7885 C 789.076 1.87237 0.750009 0
M  V30 7886 C 789.389 0.813268 1.77891 0
M  V30 7887 O 790.595 0.99898 2.52453 0
M  V30 7888 C 789.051 3.32187 1.38491 0
M  V30 7889 C 788.659 4.46267 0.393707 0
M  V30 7890 C 790.403 3.71101 2.06117 0
M  V30 7891 C 788.31 5.82265 1.03547 0
M  V30 7892 H 787.24 0.698524 0.283866 0
M  V30 7893 H 789.891 1.835 0.00365997 0
M  V30 7894 H 788.273 3.30588 2.18008 0
M  V30 7895 H 789.447 4.59289 -0.372865 0
M  V30 7896 H 787.762 4.16015 -0.17902 0
M  V30 7897 H 790.359 4.70012 2.54937 0
M  V30 7898 H 790.702 3.01751 2.86796 0
M  V30 7899 H 791.235 3.74762 1.33409 0
M  V30 7900 H 787.974 6.54949 0.268644 0
M  V30 7901 H 787.494 5.73012 1.7725 0
M  V30 7902 H 789.173 6.28148 1.55047 0
M  V30 7903 N 789.305 -0.326896 1.54172 0
M  V30 7904 C 790.533 -1.08486 1.76177 0
M  V30 7905 C 790.948 -1.81815 0.508788 0
M  V30 7906 O 790.305 -1.74924 -0.520362 0
M  V30 7907 C 790.356 -2.08552 2.95276 0
M  V30 7908 O 790.077 -1.38202 4.15731 0
M  V30 7909 C 791.578 -2.96593 3.29466 0
M  V30 7910 H 788.798 -0.322835 0.588233 0
M  V30 7911 H 791.342 -0.374036 2.0105 0
M  V30 7912 H 789.497 -2.75174 2.72687 0
M  V30 7913 H 789.911 -2.05186 4.827 0
M  V30 7914 H 791.385 -3.62708 4.16109 0
M  V30 7915 H 791.862 -3.63511 2.46487 0
M  V30 7916 H 792.468 -2.35537 3.54122 0
M  V30 7917 N 790.784 -1.46188 -0.588786 0
M  V30 7918 C 792.03 -1.51407 -1.34921 0
M  V30 7919 C 792.363 -0.162771 -1.93517 0
M  V30 7920 O 791.638 0.825082 -1.76132 0
M  V30 7921 C 791.921 -2.60795 -2.48311 0
M  V30 7922 C 791.774 -4.05435 -1.94789 0
M  V30 7923 C 793.093 -2.66313 -3.50379 0
M  V30 7924 H 790.212 -0.551213 -0.489217 0
M  V30 7925 H 792.854 -1.78095 -0.661993 0
M  V30 7926 H 791.004 -2.3817 -3.06932 0
M  V30 7927 H 792.676 -4.39328 -1.40672 0
M  V30 7928 H 790.919 -4.15202 -1.25659 0
M  V30 7929 H 791.59 -4.77691 -2.76613 0
M  V30 7930 H 794.066 -2.86634 -3.01629 0
M  V30 7931 H 792.942 -3.44681 -4.27184 0
M  V30 7932 H 793.203 -1.72127 -4.07216 0
M  V30 7933 N 792.262 0.832906 -1.33792 0
M  V30 7934 C 793.539 1.57359 -1.16178 0
M  V30 7935 C 793.919 2.09372 0.269532 0
M  V30 7936 O 793.267 1.89993 1.26944 0
M  V30 7937 C 793.477 2.70279 -2.20795 0
M  V30 7938 C 794.825 3.39305 -2.55259 0
M  V30 7939 O 795.849 2.80526 -2.19508 0
M  V30 7940 O 794.708 4.45428 -3.16632 0
M  V30 7941 H 791.802 0.694025 -0.449731 0
M  V30 7942 H 794.348 0.875144 -1.45394 0
M  V30 7943 H 793.12 2.29527 -3.16911 0
M  V30 7944 H 792.743 3.47782 -1.927 0
M  V30 7945 N 793.74 1.17359 1.05189 0
M  V30 7946 C 794.703 0.892604 2.11105 0
M  V30 7947 C 795.703 -0.117236 1.60372 0
M  V30 7948 O 796.893 0.114936 1.7382 0
M  V30 7949 C 794.025 0.337032 3.3923 0
M  V30 7950 H 795.218 1.83169 2.37464 0
M  V30 7951 H 792.771 0.984051 1.21434 0
M  V30 7952 H 793.506 -0.609198 3.18527 0
M  V30 7953 H 793.291 1.06484 3.77364 0
M  V30 7954 H 794.781 0.158763 4.17298 0
M  V30 7955 N 795.218 -1.23913 0.973828 0
M  V30 7956 C 796.15 -2.24397 0.466763 0
M  V30 7957 C 797.163 -1.57078 -0.427828 0
M  V30 7958 O 798.352 -1.76973 -0.233019 0
M  V30 7959 C 795.452 -3.37141 -0.344798 0
M  V30 7960 C 794.625 -4.34037 0.541349 0
M  V30 7961 C 793.684 -5.2576 -0.215243 0
M  V30 7962 O 792.71 -5.67842 0.39291 0
M  V30 7963 N 793.912 -5.60702 -1.5031 0
M  V30 7964 H 796.677 -2.68536 1.33074 0
M  V30 7965 H 794.238 -1.38017 0.846346 0
M  V30 7966 H 796.23 -3.95476 -0.859133 0
M  V30 7967 H 794.8 -2.92239 -1.10974 0
M  V30 7968 H 794.02 -3.74302 1.23659 0
M  V30 7969 H 795.308 -4.95738 1.1455 0
M  V30 7970 H 794.706 -5.28451 -2.01882 0
M  V30 7971 H 793.263 -6.21538 -1.96301 0
M  V30 7972 N 796.696 -0.74468 -1.38897 0
M  V30 7973 C 797.924 -0.307428 -2.04603 0
M  V30 7974 C 798.339 1.06115 -1.56157 0
M  V30 7975 O 797.696 1.67233 -0.730701 0
M  V30 7976 C 797.747 -0.31101 -3.6016 0
M  V30 7977 O 797.468 -1.62557 -4.06825 0
M  V30 7978 C 798.969 0.141213 -4.43075 0
M  V30 7979 H 796.189 -0.132741 -0.657739 0
M  V30 7980 H 798.733 -1.01104 -1.77759 0
M  V30 7981 H 796.888 0.343792 -3.85872 0
M  V30 7982 H 797.302 -1.54569 -5.01207 0
M  V30 7983 H 798.776 0.0875449 -5.51931 0
M  V30 7984 H 799.253 1.18782 -4.22833 0
M  V30 7985 H 799.859 -0.484383 -4.22533 0
M  V30 7986 N 798.174 1.49689 -0.493057 0
M  V30 7987 C 799.404 2.06536 0.0512397 0
M  V30 7988 C 799.812 1.35459 1.32089 0
M  V30 7989 O 799.155 0.424145 1.78736 0
M  V30 7990 C 799.217 3.57452 0.383231 0
M  V30 7991 C 798.881 4.50163 -0.787555 0
M  V30 7992 C 799.878 4.92151 -1.67582 0
M  V30 7993 C 797.563 4.92565 -0.984109 0
M  V30 7994 C 799.557 5.7527 -2.74487 0
M  V30 7995 C 797.244 5.75463 -2.05634 0
M  V30 7996 C 798.242 6.16719 -2.93507 0
M  V30 7997 O 797.93 6.97961 -3.98881 0
M  V30 7998 H 797.662 0.675862 -0.0136516 0
M  V30 7999 H 800.216 1.9356 -0.687298 0
M  V30 8000 H 798.446 3.68408 1.17526 0
M  V30 8001 H 800.135 3.96572 0.8652 0
M  V30 8002 H 800.901 4.60043 -1.53575 0
M  V30 8003 H 796.78 4.5996 -0.309541 0
M  V30 8004 H 800.324 6.07392 -3.43104 0
M  V30 8005 H 796.221 6.06983 -2.19639 0
M  V30 8006 H 796.989 7.16253 -3.96137 0
M  V30 8007 N 799.652 0.226554 1.55963 0
M  V30 8008 C 800.562 -0.692725 2.24139 0
M  V30 8009 C 801.578 -1.20971 1.25068 0
M  V30 8010 O 802.754 -1.25027 1.57893 0
M  V30 8011 C 799.819 -1.88183 2.91184 0
M  V30 8012 C 798.88 -1.40633 4.05612 0
M  V30 8013 C 798.113 -2.53875 4.6945 0
M  V30 8014 O 798.336 -3.72129 4.32292 0
M  V30 8015 O 797.27 -2.24792 5.58348 0
M  V30 8016 H 801.096 -0.141921 3.03368 0
M  V30 8017 H 798.681 -0.0041049 1.49399 0
M  V30 8018 H 800.563 -2.57617 3.33484 0
M  V30 8019 H 799.238 -2.42064 2.14911 0
M  V30 8020 H 798.145 -0.67986 3.67871 0
M  V30 8021 H 799.478 -0.913838 4.83642 0
M  V30 8022 N 801.13 -1.57531 -0.0467866 0
M  V30 8023 C 802.376 -1.8873 -0.742218 0
M  V30 8024 C 802.709 -0.822084 -1.75941 0
M  V30 8025 O 801.984 0.164922 -1.938 0
M  V30 8026 C 802.267 -3.30586 -1.42776 0
M  V30 8027 C 802.12 -4.47785 -0.425285 0
M  V30 8028 C 803.439 -3.71068 -2.36636 0
M  V30 8029 H 800.558 -0.686406 -0.268359 0
M  V30 8030 H 803.2 -1.89999 -0.00511341 0
M  V30 8031 H 801.35 -3.29634 -2.05605 0
M  V30 8032 H 803.022 -4.60867 0.199721 0
M  V30 8033 H 801.265 -4.33037 0.25713 0
M  V30 8034 H 801.936 -5.43884 -0.943086 0
M  V30 8035 H 804.412 -3.73273 -1.83866 0
M  V30 8036 H 803.288 -4.71165 -2.81593 0
M  V30 8037 H 803.549 -3.02355 -3.22542 0
M  V30 8038 N 802.608 0.318715 -1.54344 0
M  V30 8039 C 804.024 0.663345 -1.45162 0
M  V30 8040 C 804.224 1.9145 -0.62842 0
M  V30 8041 O 803.28 2.5217 -0.129126 0
M  V30 8042 C 804.593 0.832836 -2.88937 0
M  V30 8043 C 806.141 0.929866 -2.98869 0
M  V30 8044 C 806.616 1.13149 -4.43803 0
M  V30 8045 N 808.107 1.19811 -4.47437 0
M  V30 8046 C 808.842 1.37209 -5.56742 0
M  V30 8047 N 808.338 1.51619 -6.76006 0
M  V30 8048 N 810.131 1.39956 -5.44398 0
M  V30 8049 H 802.282 -0.50357 -2.06344 0
M  V30 8050 H 804.545 -0.163528 -0.933789 0
M  V30 8051 H 804.251 -0.0153519 -3.51697 0
M  V30 8052 H 804.125 1.72721 -3.35332 0
M  V30 8053 H 806.512 1.76855 -2.36233 0
M  V30 8054 H 806.593 0.0118561 -2.55797 0
M  V30 8055 H 806.237 0.297636 -5.07027 0
M  V30 8056 H 806.167 2.06345 -4.84489 0
M  V30 8057 H 808.658 1.101 -3.61506 0
M  V30 8058 H 808.971 1.64599 -7.55067 0
M  V30 8059 H 807.316 1.48708 -6.78904 0
M  V30 8060 H 810.507 1.28298 -4.50175 0
M  V30 8061 H 810.68 1.53172 -6.29637 0
M  V30 8062 N 804.086 1.46499 0.581025 0
M  V30 8063 C 805.332 1.52121 1.34116 0
M  V30 8064 C 805.665 0.173031 1.93428 0
M  V30 8065 O 804.94 -0.815729 1.76568 0
M  V30 8066 C 805.223 2.62108 2.46924 0
M  V30 8067 C 805.076 4.06462 1.92636 0
M  V30 8068 C 806.395 2.68167 3.48962 0
M  V30 8069 H 803.514 0.5538 0.486287 0
M  V30 8070 H 806.156 1.78443 0.652538 0
M  V30 8071 H 804.306 2.39794 3.05665 0
M  V30 8072 H 805.978 4.40068 1.3834 0
M  V30 8073 H 804.221 4.15862 1.23455 0
M  V30 8074 H 804.892 4.79152 2.74076 0
M  V30 8075 H 807.368 2.8823 3.00104 0
M  V30 8076 H 806.244 3.46942 4.2535 0
M  V30 8077 H 806.505 1.74284 4.06297 0
M  V30 8078 N 805.565 -0.825799 1.34232 0
M  V30 8079 C 806.842 -1.56741 1.17011 0
M  V30 8080 C 807.222 -2.09512 -0.258425 0
M  V30 8081 O 806.57 -1.90664 -1.25935 0
M  V30 8082 C 806.78 -2.69104 2.22225 0
M  V30 8083 C 808.128 -3.37947 2.57055 0
M  V30 8084 O 809.152 -2.79358 2.20992 0
M  V30 8085 O 808.011 -4.43743 3.1899 0
M  V30 8086 H 805.105 -0.69163 0.453405 0
M  V30 8087 H 807.651 -0.867422 1.45856 0
M  V30 8088 H 806.423 -2.27844 3.18124 0
M  V30 8089 H 806.046 -3.46756 1.94541 0
M  V30 8090 N 807.043 -1.17915 -1.04565 0
M  V30 8091 C 808.291 -0.969505 -1.77327 0
M  V30 8092 C 808.612 0.502569 -1.88412 0
M  V30 8093 O 807.882 1.36467 -1.40547 0
M  V30 8094 H 806.462 -0.355723 -0.656864 0
M  V30 8095 H 809.124 -1.48506 -1.26223 0
M  V30 8096 H 808.22 -1.40324 -2.78775 0
M  V30 8097 N 808.521 1.23394 -0.980386 0
M  V30 8098 C 809.431 2.28561 -0.528864 0
M  V30 8099 C 810.447 1.68946 0.416329 0
M  V30 8100 O 811.623 1.99355 0.286251 0
M  V30 8101 C 808.688 3.46323 0.16155 0
M  V30 8102 C 807.749 4.21297 -0.825044 0
M  V30 8103 C 806.982 5.33437 -0.167483 0
M  V30 8104 O 807.205 5.60812 1.04146 0
M  V30 8105 O 806.139 5.95637 -0.866047 0
M  V30 8106 H 809.965 2.69326 -1.40346 0
M  V30 8107 H 807.55 1.29325 -0.748019 0
M  V30 8108 H 809.432 4.17811 0.548841 0
M  V30 8109 H 808.107 3.0751 1.01092 0
M  V30 8110 H 807.014 3.52134 -1.26303 0
M  V30 8111 H 808.347 4.6396 -1.64322 0
M  V30 8112 N 809.999 0.752036 1.385 0
M  V30 8113 C 810.929 0.138718 2.33088 0
M  V30 8114 C 811.91 -0.705318 1.54788 0
M  V30 8115 O 813.095 -0.646821 1.83112 0
M  V30 8116 C 810.225 -0.75641 3.38963 0
M  V30 8117 C 809.179 -0.0152239 4.27997 0
M  V30 8118 C 808.505 -1.0285 5.24715 0
M  V30 8119 C 809.805 1.15226 5.09431 0
M  V30 8120 H 811.499 0.928852 2.84627 0
M  V30 8121 H 809.045 0.448111 1.3685 0
M  V30 8122 H 810.998 -1.19513 4.04097 0
M  V30 8123 H 809.722 -1.57885 2.85902 0
M  V30 8124 H 808.381 0.404061 3.64366 0
M  V30 8125 H 808.029 -1.84496 4.67943 0
M  V30 8126 H 807.729 -0.537238 5.85139 0
M  V30 8127 H 809.253 -1.46657 5.92726 0
M  V30 8128 H 810.667 0.791161 5.67815 0
M  V30 8129 H 809.064 1.57428 5.79082 0
M  V30 8130 H 810.134 1.9659 4.43261 0
M  V30 8131 N 811.477 -1.49425 0.500989 0
M  V30 8132 C 812.726 -2.01649 -0.04538 0
M  V30 8133 C 813.039 -1.38572 -1.38047 0
M  V30 8134 O 814.245 -1.82124 -2.01353 0
M  V30 8135 C 812.701 -3.5966 -0.131337 0
M  V30 8136 C 812.309 -4.3171 1.19711 0
M  V30 8137 C 814.053 -4.19828 -0.628071 0
M  V30 8138 C 811.96 -5.81579 1.07332 0
M  V30 8139 H 810.89 -0.753715 -0.0207329 0
M  V30 8140 H 813.541 -1.71962 0.640407 0
M  V30 8141 H 811.923 -3.86063 -0.881574 0
M  V30 8142 H 813.097 -4.17008 1.96064 0
M  V30 8143 H 811.412 -3.83286 1.62729 0
M  V30 8144 H 814.009 -5.2958 -0.738198 0
M  V30 8145 H 814.352 -3.83194 -1.6269 0
M  V30 8146 H 814.885 -3.97746 0.0656314 0
M  V30 8147 H 811.624 -6.22738 2.04642 0
M  V30 8148 H 811.144 -5.98774 0.350679 0
M  V30 8149 H 812.823 -6.42614 0.752047 0
M  V30 8150 N 812.955 -0.234822 -1.55841 0
M  V30 8151 C 814.183 0.397745 -2.03041 0
M  V30 8152 C 814.598 1.52405 -1.11437 0
M  V30 8153 O 813.955 1.82061 -0.126466 0
M  V30 8154 C 814.006 0.916919 -3.49678 0
M  V30 8155 O 813.727 -0.164493 -4.37791 0
M  V30 8156 C 815.228 1.62139 -4.12584 0
M  V30 8157 H 812.448 0.0959214 -0.664108 0
M  V30 8158 H 814.992 -0.355156 -2.01392 0
M  V30 8159 H 813.147 1.62004 -3.519 0
M  V30 8160 H 813.561 0.227794 -5.24005 0
M  V30 8161 H 815.035 1.93651 -5.16917 0
M  V30 8162 H 815.512 2.53918 -3.58361 0
M  V30 8163 H 816.118 0.963145 -4.14251 0
M  V30 8164 N 814.433 1.57553 0.0384317 0
M  V30 8165 C 815.658 1.93485 0.746872 0
M  V30 8166 C 816.083 0.834069 1.68597 0
M  V30 8167 O 815.441 -0.210902 1.80069 0
M  V30 8168 C 815.489 3.28463 1.4881 0
M  V30 8169 O 814.593 3.20051 2.60079 0
M  V30 8170 H 813.934 0.632675 0.201539 0
M  V30 8171 H 816.464 2.046 -0.00329815 0
M  V30 8172 H 816.474 3.63132 1.86009 0
M  V30 8173 H 815.149 4.08147 0.799297 0
M  V30 8174 H 813.726 2.96998 2.25492 0
M  V30 8175 N 815.911 -0.310526 1.54511 0
M  V30 8176 C 816.821 -1.4054 1.87844 0
M  V30 8177 C 817.837 -1.55954 0.771635 0
M  V30 8178 O 819.013 -1.70801 1.06719 0
M  V30 8179 C 816.078 -2.75063 2.11048 0
M  V30 8180 C 815.139 -2.68715 3.348 0
M  V30 8181 C 814.372 -3.96821 3.56887 0
M  V30 8182 O 814.595 -4.95721 2.82165 0
M  V30 8183 O 813.529 -3.99291 4.50389 0
M  V30 8184 H 817.355 -1.15275 2.80972 0
M  V30 8185 H 814.94 -0.505732 1.4058 0
M  V30 8186 H 816.822 -3.54671 2.27566 0
M  V30 8187 H 815.497 -3.00191 1.21108 0
M  V30 8188 H 814.404 -1.87611 3.23655 0
M  V30 8189 H 815.737 -2.4854 4.2484 0
M  V30 8190 N 817.389 -1.46805 -0.573248 0
M  V30 8191 C 818.8 -1.46655 -1.15539 0
M  V30 8192 C 819.151 -0.2125 -1.95046 0
M  V30 8193 O 818.276 0.683759 -2.05314 0
M  V30 8194 C 818.871 -2.65711 -2.10198 0
M  V30 8195 C 817.43 -2.68572 -2.63716 0
M  V30 8196 C 816.577 -2.39498 -1.39772 0
M  V30 8197 H 819.528 -1.54547 -0.36068 0
M  V30 8198 H 819.549 -2.41768 -2.93817 0
M  V30 8199 H 819.061 -3.56967 -1.52303 0
M  V30 8200 H 817.162 -1.81414 -3.25453 0
M  V30 8201 H 817.275 -3.68809 -3.05805 0
M  V30 8202 H 815.639 -1.89749 -1.69904 0
M  V30 8203 H 816.422 -3.32942 -0.836943 0
M  V30 8204 N 818.867 0.818669 -1.34668 0
M  V30 8205 C 819.83 1.9114 -1.26483 0
M  V30 8206 C 820.83 1.598 -0.179044 0
M  V30 8207 O 822.02 1.6876 -0.431952 0
M  V30 8208 C 819.152 3.27285 -0.95381 0
M  V30 8209 H 820.345 1.9982 -2.23634 0
M  V30 8210 H 817.898 1.01314 -1.19018 0
M  V30 8211 H 818.633 3.24297 0.0143428 0
M  V30 8212 H 818.418 3.51416 -1.73924 0
M  V30 8213 H 819.908 4.07299 -0.921827 0
M  V30 8214 N 820.346 1.18468 1.03938 0
M  V30 8215 C 821.623 0.890435 1.74157 0
M  V30 8216 C 822.003 -0.606409 2.02203 0
M  V30 8217 O 821.351 -1.5615 1.66822 0
M  V30 8218 C 821.561 1.73906 3.02585 0
M  V30 8219 C 822.909 1.96686 3.76297 0
M  V30 8220 O 823.933 1.70969 3.12487 0
M  V30 8221 O 822.792 2.39986 4.90988 0
M  V30 8222 H 819.886 0.330889 0.757919 0
M  V30 8223 H 822.432 1.29228 1.09992 0
M  V30 8224 H 821.204 2.75369 2.78006 0
M  V30 8225 H 820.827 1.33581 3.74489 0
M  V30 8226 N 821.824 -1.22873 0.986916 0
M  V30 8227 C 823.07 -1.91746 0.660401 0
M  V30 8228 C 823.403 -1.76738 -0.804812 0
M  V30 8229 O 822.678 -1.13246 -1.58131 0
M  V30 8230 C 822.961 -3.44156 1.05966 0
M  V30 8231 C 822.814 -3.68242 2.58298 0
M  V30 8232 C 824.133 -4.35874 0.60842 0
M  V30 8233 H 821.252 -0.696347 0.241391 0
M  V30 8234 H 823.894 -1.44867 1.22937 0
M  V30 8235 H 822.044 -3.84213 0.575534 0
M  V30 8236 H 823.716 -3.37626 3.14335 0
M  V30 8237 H 821.959 -3.12728 3.00638 0
M  V30 8238 H 822.63 -4.74956 2.81285 0
M  V30 8239 H 825.106 -4.03299 1.02417 0
M  V30 8240 H 823.982 -5.41201 0.916142 0
M  V30 8241 H 824.243 -4.39364 -0.491086 0
M  V30 8242 N 823.302 -0.75937 -1.38099 0
M  V30 8243 C 824.232 -0.151077 -2.33011 0
M  V30 8244 C 825.213 0.697099 -1.5516 0
M  V30 8245 O 826.398 0.637101 -1.83452 0
M  V30 8246 C 823.528 0.738423 -3.39359 0
M  V30 8247 C 822.482 -0.0074741 -4.27999 0
M  V30 8248 C 821.808 1.00066 -5.25253 0
M  V30 8249 C 823.108 -1.17926 -5.08813 0
M  V30 8250 H 824.802 -0.943933 -2.84131 0
M  V30 8251 H 822.348 -0.455362 -1.36611 0
M  V30 8252 H 824.301 1.17369 -4.04725 0
M  V30 8253 H 823.025 1.56366 -2.86735 0
M  V30 8254 H 821.684 -0.423379 -3.64147 0
M  V30 8255 H 821.332 1.82012 -4.68914 0
M  V30 8256 H 821.032 0.506199 -5.85416 0
M  V30 8257 H 822.556 1.43512 -5.93495 0
M  V30 8258 H 823.97 -0.821262 -5.67387 0
M  V30 8259 H 822.367 -1.60497 -5.78239 0
M  V30 8260 H 823.437 -1.98938 -4.42212 0
M  V30 8261 N 824.78 1.49157 -0.508906 0
M  V30 8262 C 826.191 1.86593 -0.0630975 0
M  V30 8263 C 826.542 1.42051 1.35337 0
M  V30 8264 O 825.667 0.801866 2.00995 0
M  V30 8265 C 826.262 3.38629 -0.107729 0
M  V30 8266 C 824.821 3.75336 0.282776 0
M  V30 8267 C 823.968 2.7317 -0.4768 0
M  V30 8268 H 826.919 1.41362 -0.72128 0
M  V30 8269 H 826.94 3.74271 0.685689 0
M  V30 8270 H 826.452 3.71017 -1.13876 0
M  V30 8271 H 824.553 3.48558 1.31675 0
M  V30 8272 H 824.666 4.79081 -0.0421728 0
M  V30 8273 H 823.03 2.54591 0.0743552 0
M  V30 8274 H 823.813 3.08403 -1.50807 0
M  V30 8275 N 826.258 0.243083 1.55714 0
M  V30 8276 C 827.191 -0.698623 2.17243 0
M  V30 8277 C 828.169 -1.1756 1.12331 0
M  V30 8278 O 829.353 -1.25444 1.40699 0
M  V30 8279 C 826.48 -1.94901 2.77004 0
M  V30 8280 C 825.526 -1.61022 3.94936 0
M  V30 8281 S 826.359 -0.716173 5.30689 0
M  V30 8282 C 827.515 -1.97565 5.93901 0
M  V30 8283 H 827.748 -0.175724 2.9678 0
M  V30 8284 H 825.281 0.0275727 1.54375 0
M  V30 8285 H 827.239 -2.66687 3.12071 0
M  V30 8286 H 825.9 -2.44304 1.9742 0
M  V30 8287 H 825.093 -2.5398 4.35328 0
M  V30 8288 H 824.695 -0.972829 3.61126 0
M  V30 8289 H 826.987 -2.92333 6.11186 0
M  V30 8290 H 827.93 -1.61528 6.8943 0
M  V30 8291 H 828.338 -2.126 5.22935 0
M  V30 8292 N 827.736 -1.57571 -0.0300757 0
M  V30 8293 C 828.699 -2.05468 -1.01565 0
M  V30 8294 C 829.699 -0.958628 -1.29101 0
M  V30 8295 O 830.889 -1.22228 -1.24121 0
M  V30 8296 C 828.021 -2.47077 -2.34874 0
M  V30 8297 H 829.214 -2.93797 -0.601936 0
M  V30 8298 H 826.767 -1.53828 -0.276878 0
M  V30 8299 H 827.502 -1.61901 -2.80996 0
M  V30 8300 H 827.287 -3.27097 -2.16218 0
M  V30 8301 H 828.777 -2.84564 -3.05635 0
M  V30 8302 N 829.214 0.302327 -1.54673 0
M  V30 8303 C 830.146 1.39443 -1.81902 0
M  V30 8304 C 831.159 1.46891 -0.701914 0
M  V30 8305 O 832.348 1.49233 -0.979369 0
M  V30 8306 C 829.448 2.77824 -1.9408 0
M  V30 8307 C 828.621 2.93324 -3.24468 0
M  V30 8308 C 827.68 4.12196 -3.27079 0
M  V30 8309 O 826.706 4.04344 -4.00617 0
M  V30 8310 N 827.908 5.22768 -2.52376 0
M  V30 8311 H 830.673 1.1644 -2.76155 0
M  V30 8312 H 828.234 0.492392 -1.54231 0
M  V30 8313 H 830.226 3.5559 -1.9323 0
M  V30 8314 H 828.796 2.9378 -1.06828 0
M  V30 8315 H 828.016 2.02682 -3.38103 0
M  V30 8316 H 829.304 3.0059 -4.10516 0
M  V30 8317 H 828.702 5.32027 -1.92259 0
M  V30 8318 H 827.259 5.98874 -2.57281 0
M  V30 8319 N 830.692 1.47107 0.565454 0
M  V30 8320 C 832.108 1.32443 0.890566 0
M  V30 8321 C 832.308 0.308735 1.99121 0
M  V30 8322 O 831.364 -0.28265 2.50913 0
M  V30 8323 C 832.677 2.71548 1.2916 0
M  V30 8324 C 834.225 2.7977 1.40349 0
M  V30 8325 C 834.7 4.19497 1.83811 0
M  V30 8326 N 836.191 4.21998 1.90975 0
M  V30 8327 C 836.926 5.2702 2.25916 0
M  V30 8328 N 836.422 6.42353 2.59527 0
M  V30 8329 N 838.215 5.14393 2.26619 0
M  V30 8330 H 830.366 2.11786 -0.161328 0
M  V30 8331 H 832.629 0.947952 -0.00950631 0
M  V30 8332 H 832.335 3.47265 0.556753 0
M  V30 8333 H 832.209 3.02782 2.24951 0
M  V30 8334 H 834.596 2.0433 2.12916 0
M  V30 8335 H 834.677 2.522 0.427655 0
M  V30 8336 H 834.321 4.95439 1.11816 0
M  V30 8337 H 834.251 4.44486 2.82382 0
M  V30 8338 H 836.742 3.38791 1.6742 0
M  V30 8339 H 837.055 7.18252 2.85191 0
M  V30 8340 H 835.4 6.45687 2.57126 0
M  V30 8341 H 838.591 4.2332 1.99794 0
M  V30 8342 H 838.764 5.96349 2.5352 0
M  V30 8343 N 832.17 -0.811516 1.35101 0
M  V30 8344 C 833.4 -1.59749 1.31011 0
M  V30 8345 C 833.808 -1.88847 -0.115566 0
M  V30 8346 O 833.151 -1.48854 -1.07649 0
M  V30 8347 C 833.213 -2.95714 2.04435 0
M  V30 8348 C 832.877 -2.89456 3.53645 0
M  V30 8349 C 833.874 -2.63237 4.48333 0
M  V30 8350 C 831.559 -3.08728 3.96222 0
M  V30 8351 C 833.553 -2.56361 5.83573 0
M  V30 8352 C 831.24 -3.01475 5.3156 0
M  V30 8353 C 832.238 -2.75326 6.25048 0
M  V30 8354 O 831.926 -2.68026 7.57903 0
M  V30 8355 H 831.658 -0.502889 0.45175 0
M  V30 8356 H 834.212 -1.01687 1.78462 0
M  V30 8357 H 832.442 -3.55739 1.51613 0
M  V30 8358 H 834.131 -3.56816 1.93487 0
M  V30 8359 H 834.897 -2.48072 4.16756 0
M  V30 8360 H 830.776 -3.28094 3.23845 0
M  V30 8361 H 834.32 -2.35871 6.56514 0
M  V30 8362 H 830.217 -3.16197 5.62752 0
M  V30 8363 H 830.985 -2.8367 7.67772 0
M  V30 8364 N 833.648 -1.19017 -1.03309 0
M  V30 8365 C 834.895 -0.990214 -1.76638 0
M  V30 8366 C 835.223 0.479435 -1.88498 0
M  V30 8367 O 834.478 1.37223 -1.39529 0
M  V30 8368 C 834.777 -1.59927 -3.19622 0
M  V30 8369 C 834.443 -3.09632 -3.27779 0
M  V30 8370 C 833.105 -3.50491 -3.29712 0
M  V30 8371 C 835.457 -4.05644 -3.27264 0
M  V30 8372 C 832.785 -4.85921 -3.28782 0
M  V30 8373 C 835.137 -5.41 -3.27875 0
M  V30 8374 C 833.801 -5.81295 -3.28104 0
M  V30 8375 H 833.071 -0.362345 -0.646364 0
M  V30 8376 H 835.718 -1.48197 -1.21284 0
M  V30 8377 H 834.023 -1.0297 -3.78027 0
M  V30 8378 H 835.72 -1.41989 -3.7502 0
M  V30 8379 H 832.31 -2.77073 -3.26999 0
M  V30 8380 H 836.494 -3.75124 -3.24955 0
M  V30 8381 H 831.75 -5.16427 -3.27281 0
M  V30 8382 H 835.924 -6.15157 -3.26428 0
M  V30 8383 H 833.551 -6.86211 -3.27138 0
M  V30 8384 N 835.127 1.22348 -0.993418 0
M  V30 8385 C 836.057 2.26584 -0.564088 0
M  V30 8386 C 837.038 1.65102 0.409298 0
M  V30 8387 O 838.223 1.91872 0.299819 0
M  V30 8388 C 835.353 3.47087 0.121554 0
M  V30 8389 C 834.307 4.21009 -0.770429 0
M  V30 8390 C 833.633 5.34678 0.0481586 0
M  V30 8391 C 834.933 4.79636 -2.06752 0
M  V30 8392 H 836.627 2.62749 -1.43538 0
M  V30 8393 H 834.173 1.26303 -0.691628 0
M  V30 8394 H 836.126 4.19166 0.433303 0
M  V30 8395 H 834.85 3.1002 1.0274 0
M  V30 8396 H 833.509 3.50764 -1.06583 0
M  V30 8397 H 833.157 4.93852 0.954933 0
M  V30 8398 H 832.857 5.85061 -0.545641 0
M  V30 8399 H 834.381 6.09573 0.353991 0
M  V30 8400 H 835.795 5.43654 -1.81969 0
M  V30 8401 H 834.192 5.4036 -2.61019 0
M  V30 8402 H 835.262 3.99659 -2.74592 0
M  V30 8403 N 836.605 0.766683 1.37694 0
M  V30 8404 C 837.852 0.328714 1.99814 0
M  V30 8405 C 838.18 -1.09333 1.60862 0
M  V30 8406 O 837.435 -1.7657 0.8439 0
M  V30 8407 C 837.734 0.413831 3.54996 0
M  V30 8408 C 837.4 1.7934 4.137 0
M  V30 8409 C 836.062 2.17092 4.29447 0
M  V30 8410 C 838.414 2.69776 4.45949 0
M  V30 8411 C 835.742 3.44726 4.74743 0
M  V30 8412 C 838.094 3.96814 4.92667 0
M  V30 8413 C 836.758 4.34618 5.0662 0
M  V30 8414 H 836.028 0.120285 0.731172 0
M  V30 8415 H 838.675 0.97972 1.64541 0
M  V30 8416 H 836.98 -0.320723 3.90485 0
M  V30 8417 H 838.677 0.0563369 4.0096 0
M  V30 8418 H 835.267 1.48997 4.01868 0
M  V30 8419 H 839.451 2.41871 4.33373 0
M  V30 8420 H 834.707 3.73917 4.83731 0
M  V30 8421 H 838.881 4.67022 5.16588 0
M  V30 8422 H 836.508 5.33578 5.41478 0
M  V30 8423 O 838.122 -1.47474 0.658306 0
M  V30 8424 H 838.813 -1.92811 0.185369 0
M  V30 END ATOM
M  V30 BEGIN BOND
M  V30 END BOND
M  V30 END CTAB
M  END
$$$$
