drugbank_target|P69772 Probable UbiX-like flavin prenyltransferase (DB03247)
 OpenBabel12092120273D

  0  0  0     0  0            999 V3000
M  V30 BEGIN CTAB
M  V30 COUNTS 3025 3057 0 0 0
M  V30 BEGIN ATOM
M  V30 1 H -0.908 1.98254 -0.117106 0
M  V30 2 N 0 1.576 0 0
M  V30 3 C 0.933 2.03868 1.02534 0
M  V30 4 C 1.911 0.928543 1.3348 0
M  V30 5 O 3.095 1.19667 1.45644 0
M  V30 6 C 0.222 2.43627 2.35294 0
M  V30 7 C -0.732 3.65373 2.2001 0
M  V30 8 S 0.101 5.13292 1.52614 0
M  V30 9 C 1.257 5.56322 2.86805 0
M  V30 10 H 1.49 2.90518 0.631377 0
M  V30 11 H -0.977 1.52953 0.210867 0
M  V30 12 H 0.981 2.67203 3.11629 0
M  V30 13 H -0.358 1.57376 2.7183 0
M  V30 14 H -1.165 3.90944 3.18086 0
M  V30 15 H -1.563 3.418 1.51819 0
M  V30 16 H 0.729 5.58782 3.83104 0
M  V30 17 H 1.672 6.56266 2.65933 0
M  V30 18 H 2.08 4.83886 2.90714 0
M  V30 19 N 1.4781 -0.272755 1.55222 0
M  V30 20 C 2.4251 -1.33716 1.88119 0
M  V30 21 C 3.3951 -1.49066 0.73271 0
M  V30 22 O 4.5801 -1.63469 0.984002 0
M  V30 23 C 1.7201 -2.69238 2.15882 0
M  V30 24 C 0.8331 -2.62108 3.43399 0
M  V30 25 C -0.0319 -3.89811 3.60861 0
M  V30 26 C -0.9929 -3.77193 4.8207 0
M  V30 27 N -1.8559 -4.9673 4.96189 0
M  V30 28 H 2.9841 -1.04962 2.78903 0
M  V30 29 H 0.5211 -0.507088 1.38083 0
M  V30 30 H 2.4791 -3.48089 2.29978 0
M  V30 31 H 1.1091 -2.96194 1.28331 0
M  V30 32 H 0.1611 -1.74967 3.37773 0
M  V30 33 H 1.4731 -2.48685 4.32386 0
M  V30 34 H 0.6271 -4.77103 3.74777 0
M  V30 35 H -0.6339 -4.06102 2.7006 0
M  V30 36 H -1.6289 -2.88284 4.68159 0
M  V30 37 H -0.4039 -3.62421 5.74307 0
M  V30 38 H -2.4579 -5.13431 4.08319 0
M  V30 39 H -2.5409 -4.85839 5.79221 0
M  V30 40 H -1.2729 -5.85594 5.1449 0
M  V30 41 N 2.9562 -1.48159 -0.537278 0
M  V30 42 C 3.8862 -1.65029 -1.6519 0
M  V30 43 C 4.8672 -0.499281 -1.62607 0
M  V30 44 O 6.0522 -0.730972 -1.79918 0
M  V30 45 C 3.1822 -1.68303 -3.03795 0
M  V30 46 C 2.1362 -2.8283 -3.21234 0
M  V30 47 C 1.4622 -2.71189 -4.60826 0
M  V30 48 C 2.7622 -4.24211 -3.04701 0
M  V30 49 H 4.4562 -2.58341 -1.51328 0
M  V30 50 H 2.0022 -1.24325 -0.726585 0
M  V30 51 H 3.9552 -1.78693 -3.81637 0
M  V30 52 H 2.6792 -0.715635 -3.18663 0
M  V30 53 H 1.3382 -2.71983 -2.45807 0
M  V30 54 H 0.9862 -1.72435 -4.7252 0
M  V30 55 H 0.6862 -3.48035 -4.7344 0
M  V30 56 H 2.2102 -2.83537 -5.40777 0
M  V30 57 H 3.6242 -4.3593 -3.72341 0
M  V30 58 H 2.0212 -5.01998 -3.28813 0
M  V30 59 H 3.0912 -4.41184 -2.01209 0
M  V30 60 N 4.4343 0.785586 -1.36625 0
M  V30 61 C 5.6833 1.53883 -1.30396 0
M  V30 62 C 5.9963 1.95271 0.113452 0
M  V30 63 O 7.2023 2.69858 0.298142 0
M  V30 64 C 5.6583 2.77808 -2.28802 0
M  V30 65 C 5.2663 2.43574 -3.75999 0
M  V30 66 C 7.0103 3.55783 -2.31558 0
M  V30 67 C 4.9173 3.63919 -4.66173 0
M  V30 68 H 3.8473 0.577678 -0.484566 0
M  V30 69 H 6.4983 0.861705 -1.62009 0
M  V30 70 H 4.8803 3.47339 -1.90188 0
M  V30 71 H 6.0543 1.81916 -4.23371 0
M  V30 72 H 4.3693 1.78803 -3.76056 0
M  V30 73 H 6.9663 4.45205 -2.96137 0
M  V30 74 H 7.3093 3.94644 -1.3252 0
M  V30 75 H 7.8423 2.93235 -2.68809 0
M  V30 76 H 4.5813 3.3015 -5.66287 0
M  V30 77 H 4.1013 4.2473 -4.23515 0
M  V30 78 H 5.7803 4.30901 -4.82632 0
M  V30 79 N 5.9124 1.20967 1.01018 0
M  V30 80 C 7.1584 1.02526 1.74975 0
M  V30 81 C 7.4914 -0.4408 1.89131 0
M  V30 82 O 6.7664 -1.32718 1.42184 0
M  V30 83 C 7.0494 1.71699 3.1653 0
M  V30 84 C 6.9024 3.25791 3.10129 0
M  V30 85 C 8.2214 1.45531 4.15342 0
M  V30 86 H 5.3404 0.373863 0.635134 0
M  V30 87 H 7.9824 1.49071 1.17805 0
M  V30 88 H 6.1324 1.32128 3.65341 0
M  V30 89 H 7.8044 3.74697 2.69072 0
M  V30 90 H 6.0474 3.56363 2.47362 0
M  V30 91 H 6.7184 3.69353 4.10222 0
M  V30 92 H 9.1944 1.79872 3.75213 0
M  V30 93 H 8.0704 1.96453 5.1254 0
M  V30 94 H 8.3314 0.384237 4.40427 0
M  V30 95 N 7.3905 -1.2043 1.01659 0
M  V30 96 C 8.6385 -1.89423 0.704522 0
M  V30 97 C 8.9595 -1.79231 -0.768197 0
M  V30 98 O 8.2295 -1.1947 -1.55254 0
M  V30 99 H 6.8095 -0.701178 0.257602 0
M  V30 100 H 9.4715 -1.4626 1.28818 0
M  V30 101 H 8.5675 -2.96052 0.987916 0
M  V30 102 N 8.8686 -0.792821 -1.36206 0
M  V30 103 C 9.8016 -0.139422 -2.27774 0
M  V30 104 C 10.7796 0.68649 -1.47398 0
M  V30 105 O 11.9636 0.656738 -1.7669 0
M  V30 106 C 9.0906 0.807947 -3.28922 0
M  V30 107 C 8.1366 0.0633999 -4.26453 0
M  V30 108 S 8.9696 -1.26319 -5.20388 0
M  V30 109 C 10.1256 -0.31991 -6.25082 0
M  V30 110 H 10.3586 -0.915809 -2.82843 0
M  V30 111 H 7.8916 -0.587203 -1.42798 0
M  V30 112 H 9.8496 1.34908 -3.87699 0
M  V30 113 H 8.5106 1.55761 -2.72759 0
M  V30 114 H 7.7036 0.782386 -4.9789 0
M  V30 115 H 7.3056 -0.407352 -3.71775 0
M  V30 116 H 9.5976 0.499985 -6.75653 0
M  V30 117 H 10.5406 -1.00307 -7.00959 0
M  V30 118 H 10.9486 0.0782694 -5.64446 0
M  V30 119 N 10.3467 1.47872 -0.545128 0
M  V30 120 C 11.5747 2.06889 -0.021084 0
M  V30 121 C 11.9897 1.39955 1.2672 0
M  V30 122 O 11.3467 0.492036 1.75742 0
M  V30 123 C 11.3977 3.60996 0.190817 0
M  V30 124 O 11.1187 4.25419 -1.04644 0
M  V30 125 C 12.6197 4.36849 0.753521 0
M  V30 126 H 9.8397 0.669785 -0.0403635 0
M  V30 127 H 12.3837 1.90049 -0.755095 0
M  V30 128 H 10.5387 3.77391 0.87492 0
M  V30 129 H 10.9527 5.17785 -0.836611 0
M  V30 130 H 12.4267 5.45399 0.851139 0
M  V30 131 H 12.9037 4.02306 1.762 0
M  V30 132 H 13.5097 4.25169 0.105503 0
M  V30 133 N 11.8248 0.280983 1.55075 0
M  V30 134 C 13.0728 -0.333455 1.9933 0
M  V30 135 C 13.3938 -1.55937 1.17085 0
M  V30 136 O 12.6638 -1.94143 0.261805 0
M  V30 137 H 11.2438 -0.126197 0.736263 0
M  V30 138 H 13.9058 0.387678 1.91005 0
M  V30 139 H 13.0018 -0.619292 3.05894 0
M  V30 140 N 13.3029 -1.57598 0.00835791 0
M  V30 141 C 14.2659 -2.07884 -0.965242 0
M  V30 142 C 15.2659 -0.989825 -1.26725 0
M  V30 143 O 16.4559 -1.25218 -1.21104 0
M  V30 144 C 13.5879 -2.52731 -2.28779 0
M  V30 145 H 14.7809 -2.95178 -0.530112 0
M  V30 146 H 12.3339 -1.54458 -0.239283 0
M  V30 147 H 13.0689 -1.68705 -2.76964 0
M  V30 148 H 12.8539 -3.32272 -2.08177 0
M  V30 149 H 14.3439 -2.91933 -2.98605 0
M  V30 150 N 14.781 0.264519 -1.55364 0
M  V30 151 C 16.009 1.013 -1.80405 0
M  V30 152 C 16.424 1.79618 -0.581622 0
M  V30 153 O 15.781 1.76879 0.449468 0
M  V30 154 C 15.832 1.96487 -3.03439 0
M  V30 155 O 15.553 1.21341 -4.20961 0
M  V30 156 C 17.054 2.83079 -3.41147 0
M  V30 157 H 14.274 0.298875 -0.600762 0
M  V30 158 H 16.818 0.292736 -2.02394 0
M  V30 159 H 14.973 2.63965 -2.83551 0
M  V30 160 H 15.387 1.85573 -4.90574 0
M  V30 161 H 16.861 3.4565 -4.30384 0
M  V30 162 H 17.338 3.53286 -2.60932 0
M  V30 163 H 17.944 2.2108 -3.63323 0
M  V30 164 N 16.2591 1.48442 0.529413 0
M  V30 165 C 17.5071 1.56179 1.28267 0
M  V30 166 C 17.8281 0.237721 1.93546 0
M  V30 167 O 17.0981 -0.740779 1.81354 0
M  V30 168 H 15.6781 0.575367 0.476405 0
M  V30 169 H 18.3401 1.84909 0.61602 0
M  V30 170 H 17.4361 2.34312 2.06165 0
M  V30 171 N 17.7372 -0.778329 1.37039 0
M  V30 172 C 18.7002 -1.87301 1.32102 0
M  V30 173 C 19.7002 -1.59198 0.226405 0
M  V30 174 O 20.8902 -1.67403 0.481861 0
M  V30 175 C 18.0222 -3.24309 1.05055 0
M  V30 176 H 19.2152 -1.93093 2.29467 0
M  V30 177 H 16.7682 -0.977358 1.21973 0
M  V30 178 H 17.5032 -3.24196 0.0819373 0
M  V30 179 H 17.2882 -3.46098 1.84279 0
M  V30 180 H 18.7782 -4.04382 1.04234 0
M  V30 181 N 19.2153 -1.21501 -1.00376 0
M  V30 182 C 20.6263 -1.03146 -1.55621 0
M  V30 183 C 20.9773 0.408375 -1.91903 0
M  V30 184 O 20.1023 1.29177 -1.73616 0
M  V30 185 C 20.6973 -1.86612 -2.82775 0
M  V30 186 C 19.2563 -1.72586 -3.34501 0
M  V30 187 C 18.4033 -1.83747 -2.07683 0
M  V30 188 H 21.3543 -1.35505 -0.826081 0
M  V30 189 H 21.3753 -1.3771 -3.54706 0
M  V30 190 H 20.8873 -2.91399 -2.56336 0
M  V30 191 H 18.9883 -0.704877 -3.65872 0
M  V30 192 H 19.1013 -2.54623 -4.05837 0
M  V30 193 H 17.4653 -1.27069 -2.20739 0
M  V30 194 H 18.2483 -2.90044 -1.83655 0
M  V30 195 N 20.6934 1.19889 -1.02296 0
M  V30 196 C 21.6234 2.25141 -0.619174 0
M  V30 197 C 22.6044 1.66051 0.368915 0
M  V30 198 O 23.7894 1.92546 0.252941 0
M  V30 199 C 20.9194 3.4728 0.0368783 0
M  V30 200 C 19.8734 4.19005 -0.872865 0
M  V30 201 C 19.1994 5.34637 -0.0822402 0
M  V30 202 C 20.4994 4.74452 -2.18387 0
M  V30 203 H 22.1934 2.59171 -1.49903 0
M  V30 204 H 19.7394 1.24579 -0.722222 0
M  V30 205 H 21.6924 4.20098 0.330958 0
M  V30 206 H 20.4164 3.12433 0.95149 0
M  V30 207 H 19.0754 3.48061 -1.15105 0
M  V30 208 H 18.7234 4.96034 0.83422 0
M  V30 209 H 18.4234 5.83557 -0.688149 0
M  V30 210 H 19.9474 6.10255 0.205238 0
M  V30 211 H 21.3614 5.39055 -1.95172 0
M  V30 212 H 19.7584 5.33834 -2.74119 0
M  V30 213 H 20.8284 3.92844 -2.84257 0
M  V30 214 N 22.1715 0.800033 1.35784 0
M  V30 215 C 23.4195 0.376597 1.9856 0
M  V30 216 C 23.7405 -1.05812 1.63795 0
M  V30 217 O 23.0105 -1.73103 0.917171 0
M  V30 218 H 21.5905 0.136261 0.734467 0
M  V30 219 H 24.2525 1.02442 1.65806 0
M  V30 220 H 23.3485 0.477002 3.08433 0
M  V30 221 N 23.6496 -1.47581 0.552962 0
M  V30 222 C 24.8956 -2.02782 0.0273648 0
M  V30 223 C 25.2286 -1.42687 -1.31734 0
M  V30 224 O 24.5036 -0.580897 -1.85623 0
M  V30 225 C 24.7866 -3.60031 -0.0702371 0
M  V30 226 C 24.6396 -4.30566 1.30126 0
M  V30 227 C 25.9586 -4.33028 -0.785771 0
M  V30 228 H 23.0776 -0.736912 0.0114185 0
M  V30 229 H 25.7196 -1.76056 0.714432 0
M  V30 230 H 23.8696 -3.82932 -0.655382 0
M  V30 231 H 25.5416 -4.19018 1.92929 0
M  V30 232 H 23.7846 -3.91086 1.87709 0
M  V30 233 H 24.4556 -5.39114 1.18573 0
M  V30 234 H 26.9316 -4.15095 -0.288982 0
M  V30 235 H 25.8076 -5.42695 -0.823013 0
M  V30 236 H 26.0686 -4.01945 -1.841 0
M  V30 237 N 25.1277 -0.289203 -1.54924 0
M  V30 238 C 26.0907 0.579144 -2.21762 0
M  V30 239 C 27.0907 1.07047 -1.1999 0
M  V30 240 O 28.2807 0.968384 -1.44803 0
M  V30 241 C 25.4127 1.80055 -2.8947 0
M  V30 242 H 26.6057 -0.00464908 -2.999 0
M  V30 243 H 24.1587 -0.0399306 -1.56249 0
M  V30 244 H 24.8937 2.42449 -2.15381 0
M  V30 245 H 24.6787 1.45602 -3.64064 0
M  V30 246 H 26.1687 2.41773 -3.40493 0
M  V30 247 N 26.6058 1.57591 -0.0167156 0
M  V30 248 C 27.5358 2.12496 0.967858 0
M  V30 249 C 28.5168 1.03807 1.34752 0
M  V30 250 O 29.7018 1.31577 1.42833 0
M  V30 251 C 26.8318 2.64194 2.25431 0
M  V30 252 C 25.7858 3.77559 2.01576 0
M  V30 253 C 25.1118 4.15636 3.36379 0
M  V30 254 C 26.4118 5.04151 1.36489 0
M  V30 255 H 28.1058 2.95013 0.510643 0
M  V30 256 H 25.6518 1.41915 0.244181 0
M  V30 257 H 27.6048 3.01236 2.94678 0
M  V30 258 H 26.3288 1.78821 2.73296 0
M  V30 259 H 24.9878 3.40937 1.34751 0
M  V30 260 H 24.6358 3.27263 3.81979 0
M  V30 261 H 24.3358 4.92022 3.21229 0
M  V30 262 H 25.8598 4.5525 4.06915 0
M  V30 263 H 27.2738 5.38857 1.95718 0
M  V30 264 H 25.6708 5.85453 1.31776 0
M  V30 265 H 26.7408 4.83733 0.336219 0
M  V30 266 N 28.0839 -0.256276 1.55502 0
M  V30 267 C 29.0139 -1.32102 1.92539 0
M  V30 268 C 29.9949 -1.50684 0.789194 0
M  V30 269 O 31.1799 -1.63449 1.04872 0
M  V30 270 C 28.3099 -2.67752 2.21192 0
M  V30 271 C 27.2639 -2.63878 3.36975 0
M  V30 272 C 26.5899 -4.03236 3.51147 0
M  V30 273 C 27.8899 -2.21682 4.72921 0
M  V30 274 H 29.5839 -1.01351 2.81724 0
M  V30 275 H 27.1299 -0.486105 1.35547 0
M  V30 276 H 29.0829 -3.42365 2.45691 0
M  V30 277 H 27.8069 -3.0012 1.28824 0
M  V30 278 H 26.4659 -1.91722 3.12471 0
M  V30 279 H 26.1139 -4.32854 2.56216 0
M  V30 280 H 25.8139 -4.01535 4.29003 0
M  V30 281 H 27.3379 -4.79563 3.77957 0
M  V30 282 H 28.7519 -2.86023 4.96854 0
M  V30 283 H 27.1489 -2.3111 5.53812 0
M  V30 284 H 28.2189 -1.16833 4.70615 0
M  V30 285 N 29.562 -1.4872 -0.521534 0
M  V30 286 C 30.494 -1.59968 -1.64143 0
M  V30 287 C 31.507 -0.483463 -1.55456 0
M  V30 288 O 32.696 -0.75467 -1.61762 0
M  V30 289 C 29.796 -1.52127 -3.02838 0
M  V30 290 C 28.969 -2.78932 -3.36921 0
M  V30 291 C 28.028 -2.64428 -4.54933 0
M  V30 292 O 27.054 -3.38331 -4.57735 0
M  V30 293 N 28.256 -1.74606 -5.53618 0
M  V30 294 H 31.021 -2.56548 -1.54929 0
M  V30 295 H 28.582 -1.45551 -0.708988 0
M  V30 296 H 30.574 -1.40106 -3.79674 0
M  V30 297 H 29.144 -0.634868 -3.06085 0
M  V30 298 H 28.364 -3.05455 -2.4918 0
M  V30 299 H 29.652 -3.63041 -3.56481 0
M  V30 300 H 29.05 -1.13782 -5.54139 0
M  V30 301 H 27.607 -1.6852 -6.29638 0
M  V30 302 N 31.0401 0.771051 -1.3745 0
M  V30 303 C 32.0031 1.86598 -1.33093 0
M  V30 304 C 33.0031 1.59076 -0.234845 0
M  V30 305 O 34.1931 1.67145 -0.490732 0
M  V30 306 C 31.3251 3.23747 -1.06773 0
M  V30 307 H 32.5181 1.91873 -2.30488 0
M  V30 308 H 30.0711 0.970876 -1.2249 0
M  V30 309 H 30.8061 3.24148 -0.099129 0
M  V30 310 H 30.5911 3.45115 -1.86112 0
M  V30 311 H 32.0811 4.03824 -1.06377 0
M  V30 312 N 32.5182 1.22032 0.997298 0
M  V30 313 C 33.4482 1.01065 2.10495 0
M  V30 314 C 34.4292 -0.0669542 1.69968 0
M  V30 315 O 35.6142 0.0943987 1.9397 0
M  V30 316 C 32.7442 0.582874 3.42374 0
M  V30 317 C 31.6982 1.60592 3.96729 0
M  V30 318 C 31.0242 1.03412 5.24605 0
M  V30 319 C 32.3242 2.99478 4.27914 0
M  V30 320 H 34.0182 1.93708 2.28292 0
M  V30 321 H 31.5642 0.932761 1.09707 0
M  V30 322 H 33.5172 0.423332 4.19268 0
M  V30 323 H 32.2412 -0.379213 3.24391 0
M  V30 324 H 30.9002 1.75316 3.21963 0
M  V30 325 H 30.5482 0.063518 5.0296 0
M  V30 326 H 30.2482 1.71754 5.61938 0
M  V30 327 H 31.7722 0.886066 6.04137 0
M  V30 328 H 33.1862 2.88153 4.95622 0
M  V30 329 H 31.5832 3.64903 4.76409 0
M  V30 330 H 32.6532 3.49742 3.3587 0
M  V30 331 N 33.9963 -1.19345 1.0293 0
M  V30 332 C 35.4123 -1.41069 0.746446 0
M  V30 333 C 35.6123 -1.90078 -0.668776 0
M  V30 334 O 34.6683 -2.0778 -1.4347 0
M  V30 335 C 35.9813 -2.42141 1.78292 0
M  V30 336 C 37.5293 -2.55887 1.80252 0
M  V30 337 C 38.0043 -3.60214 2.8286 0
M  V30 338 N 39.4953 -3.67711 2.81679 0
M  V30 339 C 40.2303 -4.48128 3.57727 0
M  V30 340 N 39.7263 -5.32248 4.43491 0
M  V30 341 N 41.5193 -4.42782 3.46267 0
M  V30 342 H 33.6703 -0.858536 1.94275 0
M  V30 343 H 35.9333 -0.439541 0.839945 0
M  V30 344 H 35.6393 -2.13155 2.79746 0
M  V30 345 H 35.5133 -3.41323 1.60557 0
M  V30 346 H 37.9003 -2.84196 0.794757 0
M  V30 347 H 37.9813 -1.56858 2.02062 0
M  V30 348 H 37.6253 -3.32647 3.83807 0
M  V30 349 H 37.5553 -4.58895 2.58307 0
M  V30 350 H 40.0463 -3.07634 2.19476 0
M  V30 351 H 40.3593 -5.90729 4.98256 0
M  V30 352 H 38.7043 -5.31707 4.47564 0
M  V30 353 H 41.8953 -3.76107 2.78677 0
M  V30 354 H 42.0683 -5.05215 4.05785 0
M  V30 355 N 35.4744 -0.807222 -1.35358 0
M  V30 356 C 36.3844 -0.219594 -2.3357 0
M  V30 357 C 37.4004 0.637734 -1.61892 0
M  V30 358 O 38.5764 0.549336 -1.93763 0
M  V30 359 C 35.6414 0.62158 -3.41083 0
M  V30 360 C 34.7024 -0.256315 -4.28534 0
M  V30 361 C 33.9354 0.544807 -5.30912 0
M  V30 362 O 34.1584 1.77944 -5.41934 0
M  V30 363 O 33.0924 -0.0646478 -6.01865 0
M  V30 364 H 36.9184 -1.03208 -2.85625 0
M  V30 365 H 34.5034 -0.569025 -1.38139 0
M  V30 366 H 36.3854 1.10067 -4.06772 0
M  V30 367 H 35.0604 1.41165 -2.91297 0
M  V30 368 H 33.9674 -0.782559 -3.65823 0
M  V30 369 H 35.3004 -1.01034 -4.81719 0
M  V30 370 N 36.9525 1.47285 -0.560781 0
M  V30 371 C 37.8855 2.27009 0.232821 0
M  V30 372 C 38.8635 1.34273 0.917039 0
M  V30 373 O 40.0475 1.63659 0.935315 0
M  V30 374 C 37.1745 3.11406 1.33206 0
M  V30 375 C 36.2205 4.19746 0.756019 0
M  V30 376 S 37.0535 5.34003 -0.400165 0
M  V30 377 C 38.2095 6.21964 0.700805 0
M  V30 378 H 38.4425 2.93971 -0.443683 0
M  V30 379 H 35.9755 1.50446 -0.347181 0
M  V30 380 H 37.9335 3.60601 1.96156 0
M  V30 381 H 36.5945 2.438 1.98041 0
M  V30 382 H 35.7875 4.78541 1.5816 0
M  V30 383 H 35.3895 3.73451 0.202619 0
M  V30 384 H 37.6815 6.58529 1.59202 0
M  V30 385 H 38.6245 7.07941 0.150126 0
M  V30 386 H 39.0325 5.5566 0.995083 0
M  V30 387 N 38.4306 0.297415 1.54768 0
M  V30 388 C 39.8416 -0.195947 1.85669 0
M  V30 389 C 40.1926 -1.53707 1.21937 0
M  V30 390 O 39.3176 -2.10164 0.515754 0
M  V30 391 C 39.9126 -0.362318 3.36857 0
M  V30 392 C 38.4716 -0.799901 3.67802 0
M  V30 393 C 37.6186 0.0938578 2.77141 0
M  V30 394 H 40.5696 0.518538 1.4999 0
M  V30 395 H 40.5906 -1.19745 3.61167 0
M  V30 396 H 40.1026 0.613921 3.83214 0
M  V30 397 H 38.2036 -1.78682 3.26961 0
M  V30 398 H 38.3166 -0.621773 4.75048 0
M  V30 399 H 36.6806 -0.426254 2.51108 0
M  V30 400 H 37.4636 1.06639 3.26318 0
M  V30 401 N 39.9087 -1.5758 0.0250728 0
M  V30 402 C 40.8567 -2.11125 -0.97617 0
M  V30 403 C 41.8507 -1.03689 -1.33959 0
M  V30 404 O 43.0567 -1.22128 -1.3223 0
M  V30 405 H 39.4317 -0.674468 -0.332561 0
M  V30 406 H 41.4027 -2.94194 -0.499223 0
M  V30 407 C 40.1517 -2.65017 -2.2508 0
M  V30 408 H 39.4747 -3.47333 -1.9799 0
M  V30 409 H 40.9147 -3.06133 -2.93357 0
M  V30 410 C 39.3737 -1.57574 -2.97779 0
M  V30 411 O 39.9037 -0.973203 -3.89733 0
M  V30 412 N 38.1097 -1.29716 -2.60043 0
M  V30 413 H 37.6567 -1.789 -1.85345 0
M  V30 414 H 37.6147 -0.58051 -3.08994 0
M  V30 415 N 41.3868 0.248026 -1.55636 0
M  V30 416 C 42.6328 0.97767 -1.77678 0
M  V30 417 C 42.9658 1.85016 -0.590135 0
M  V30 418 O 42.2408 1.90095 0.411611 0
M  V30 419 C 42.5238 1.83914 -3.09593 0
M  V30 420 C 42.3768 0.99491 -4.38659 0
M  V30 421 C 43.6958 2.82183 -3.37729 0
M  V30 422 H 40.8148 0.354005 -0.646413 0
M  V30 423 H 43.4568 0.248253 -1.88371 0
M  V30 424 H 41.6068 2.46104 -3.00608 0
M  V30 425 H 43.2788 0.391789 -4.59633 0
M  V30 426 H 41.5218 0.299231 -4.32767 0
M  V30 427 H 42.1928 1.63145 -5.2734 0
M  V30 428 H 44.6688 2.30129 -3.4667 0
M  V30 429 H 43.5448 3.39582 -4.31249 0
M  V30 430 H 43.8058 3.58588 -2.58586 0
M  V30 431 N 42.8649 1.48995 0.513639 0
M  V30 432 C 43.7749 1.67443 1.64317 0
M  V30 433 C 44.7909 0.556947 1.64846 0
M  V30 434 O 45.9669 0.830082 1.83498 0
M  V30 435 C 43.0319 1.72515 3.00732 0
M  V30 436 C 42.0929 2.96009 3.1093 0
M  V30 437 C 41.3259 3.00829 4.40837 0
M  V30 438 O 41.5489 2.13594 5.28898 0
M  V30 439 O 40.4829 3.93168 4.55744 0
M  V30 440 H 44.3089 2.63106 1.51687 0
M  V30 441 H 41.8939 1.32588 0.688543 0
M  V30 442 H 43.7759 1.78277 3.81831 0
M  V30 443 H 42.4509 0.800278 3.13651 0
M  V30 444 H 41.3579 2.9577 2.29065 0
M  V30 445 H 42.6909 3.87934 3.02933 0
M  V30 446 N 44.343 -0.763751 1.37857 0
M  V30 447 C 45.571 -1.55293 1.36718 0
M  V30 448 C 45.986 -1.88745 -0.0455434 0
M  V30 449 O 45.343 -1.52039 -1.00947 0
M  V30 450 C 45.394 -2.85831 2.2132 0
M  V30 451 O 45.115 -2.5381 3.57089 0
M  V30 452 C 46.616 -3.80023 2.28249 0
M  V30 453 H 43.836 -0.480841 0.468009 0
M  V30 454 H 46.38 -0.946009 1.81303 0
M  V30 455 H 44.535 -3.42926 1.80223 0
M  V30 456 H 44.949 -3.37459 4.01524 0
M  V30 457 H 46.423 -4.68599 2.91752 0
M  V30 458 H 46.9 -4.1973 1.2932 0
M  V30 459 H 47.506 -3.28855 2.69693 0
M  V30 460 N 45.8211 -1.22559 -0.990812 0
M  V30 461 C 46.7711 -0.964807 -2.0658 0
M  V30 462 C 47.7551 0.0853472 -1.60673 0
M  V30 463 O 48.9471 -0.125443 -1.76555 0
M  V30 464 C 46.0761 -0.546707 -3.38919 0
M  V30 465 C 45.1621 -1.6317 -3.91454 0
M  V30 466 N 45.5531 -2.85985 -4.17189 0
M  V30 467 C 43.8511 -1.50387 -4.19881 0
M  V30 468 C 44.5521 -3.56159 -4.59919 0
M  V30 469 N 43.5281 -2.83637 -4.63736 0
M  V30 470 H 47.3301 -1.89769 -2.24421 0
M  V30 471 H 44.8441 -1.12343 -1.17273 0
M  V30 472 H 46.8411 -0.34119 -4.15502 0
M  V30 473 H 45.5011 0.379254 -3.22478 0
M  V30 474 H 46.5121 -3.22392 -4.05319 0
M  V30 475 H 43.1891 -0.644254 -4.12499 0
M  V30 476 H 44.5791 -4.6139 -4.88435 0
M  V30 477 N 47.2992 1.18797 -1.03562 0
M  V30 478 C 48.2292 2.24472 -0.643019 0
M  V30 479 C 49.2102 1.66433 0.351283 0
M  V30 480 O 50.3952 1.92803 0.232505 0
M  V30 481 C 47.5252 3.473 4.24935e-05 0
M  V30 482 C 46.4792 4.18055 -0.917257 0
M  V30 483 C 45.8052 5.34519 -0.138941 0
M  V30 484 C 47.1052 4.72109 -2.23407 0
M  V30 485 H 48.7992 2.57566 -1.52643 0
M  V30 486 H 46.3452 1.23806 -0.735394 0
M  V30 487 H 48.2982 4.20426 0.286383 0
M  V30 488 H 47.0222 3.13424 0.918299 0
M  V30 489 H 45.6812 3.46821 -1.1879 0
M  V30 490 H 45.3292 4.96891 0.781562 0
M  V30 491 H 45.0292 5.82794 -0.750005 0
M  V30 492 H 46.5532 6.10438 0.1405 0
M  V30 493 H 47.9672 5.36955 -2.00879 0
M  V30 494 H 46.3642 5.30897 -2.79765 0
M  V30 495 H 47.4342 3.89807 -2.88407 0
M  V30 496 N 48.7773 0.814389 1.34928 0
M  V30 497 C 50.0233 0.399013 1.98836 0
M  V30 498 C 50.3563 -1.03314 1.64438 0
M  V30 499 O 49.6313 -1.71811 0.911659 0
M  V30 500 C 49.9143 0.591629 3.55207 0
M  V30 501 C 49.7673 2.06928 3.99376 0
M  V30 502 C 51.0863 0.022199 4.40094 0
M  V30 503 H 48.2053 0.146451 0.722303 0
M  V30 504 H 50.8473 1.02537 1.59957 0
M  V30 505 H 48.9973 0.0584441 3.88456 0
M  V30 506 H 50.6693 2.66544 3.76499 0
M  V30 507 H 48.9123 2.56287 3.49999 0
M  V30 508 H 49.5833 2.1549 5.08201 0
M  V30 509 H 52.0593 0.477643 4.13349 0
M  V30 510 H 50.9353 0.186832 5.48582 0
M  V30 511 H 51.1963 -1.07215 4.28902 0
M  V30 512 N 50.2554 -1.46986 0.568584 0
M  V30 513 C 51.1884 -2.27129 -0.220779 0
M  V30 514 C 52.1664 -1.34757 -0.909905 0
M  V30 515 O 53.3504 -1.64152 -0.926622 0
M  V30 516 C 50.4774 -3.12108 -1.31553 0
M  V30 517 C 49.5234 -4.20141 -0.733748 0
M  V30 518 S 50.3564 -5.33783 0.428479 0
M  V30 519 C 51.5124 -6.22327 -0.667811 0
M  V30 520 H 51.7454 -2.93731 0.459267 0
M  V30 521 H 49.2784 -1.5026 0.355154 0
M  V30 522 H 51.2364 -3.61636 -1.94241 0
M  V30 523 H 49.8974 -2.44847 -1.96746 0
M  V30 524 H 49.0904 -4.79373 -1.5562 0
M  V30 525 H 48.6924 -3.73553 -0.182812 0
M  V30 526 H 50.9844 -6.59364 -1.55708 0
M  V30 527 H 51.9274 -7.0801 -0.11258 0
M  V30 528 H 52.3354 -5.5618 -0.965601 0
M  V30 529 N 51.7335 -0.305618 -1.54608 0
M  V30 530 C 52.9585 0.307562 -2.05107 0
M  V30 531 C 53.3835 1.46385 -1.18123 0
M  V30 532 O 52.7415 1.8034 -0.186324 0
M  V30 533 C 52.7895 0.73704 -3.52987 0
M  V30 534 O 51.8935 1.84134 -3.6901 0
M  V30 535 H 51.2345 0.0589143 -0.661381 0
M  V30 536 H 53.7645 -0.448807 -1.99617 0
M  V30 537 H 53.7745 1.02459 -3.94925 0
M  V30 538 H 52.4495 -0.108773 -4.15758 0
M  V30 539 H 51.0265 1.55398 -3.38978 0
M  V30 540 N 53.2116 1.57565 -0.0334293 0
M  V30 541 C 54.1586 2.10478 0.946981 0
M  V30 542 C 55.1286 1.00787 1.32027 0
M  V30 543 O 56.3136 1.28232 1.41284 0
M  V30 544 C 53.4536 2.63994 2.22263 0
M  V30 545 C 52.5666 3.87709 1.90541 0
M  V30 546 C 51.7016 4.29604 3.12433 0
M  V30 547 C 50.7406 5.46065 2.76549 0
M  V30 548 N 49.8776 5.83096 3.9108 0
M  V30 549 H 54.7176 2.93963 0.488846 0
M  V30 550 H 52.2546 1.45296 0.22969 0
M  V30 551 H 54.2126 2.93114 2.96884 0
M  V30 552 H 52.8426 1.83333 2.65685 0
M  V30 553 H 51.8946 3.65291 1.06144 0
M  V30 554 H 53.2066 4.72403 1.60116 0
M  V30 555 H 52.3606 4.60182 3.9537 0
M  V30 556 H 51.0996 3.43685 3.46023 0
M  V30 557 H 50.1046 5.15176 1.92026 0
M  V30 558 H 51.3296 6.33685 2.44171 0
M  V30 559 H 49.2756 5.00132 4.24504 0
M  V30 560 H 49.1926 6.6244 3.64293 0
M  V30 561 H 50.4606 6.18282 4.74708 0
M  V30 562 N 54.6897 -0.239769 1.55765 0
M  V30 563 C 55.9357 -0.963942 1.79108 0
M  V30 564 C 56.2907 -1.82689 0.60352 0
M  V30 565 O 55.5837 -1.87313 -0.403033 0
M  V30 566 C 55.7777 -1.852 3.05672 0
M  V30 567 C 55.6067 -1.07651 4.36625 0
M  V30 568 C 54.3767 -0.778738 4.99263 0
M  V30 569 C 56.5747 -0.45062 5.12322 0
M  V30 570 N 54.5567 0.0200708 6.13897 0
M  V30 571 C 55.9277 0.212429 6.19636 0
M  V30 572 C 57.9827 -0.361806 4.96584 0
M  V30 573 C 56.6857 0.955772 7.12922 0
M  V30 574 C 58.7117 0.368023 5.90254 0
M  V30 575 C 58.0737 1.01968 6.96981 0
M  V30 576 H 54.1727 -0.333601 0.707272 0
M  V30 577 H 56.7567 -0.236425 1.93259 0
M  V30 578 H 54.9277 -2.55149 2.92837 0
M  V30 579 H 56.6597 -2.51228 3.1728 0
M  V30 580 H 53.4147 -1.09229 4.60832 0
M  V30 581 H 53.8387 0.407777 6.75771 0
M  V30 582 H 58.4807 -0.851286 4.14141 0
M  V30 583 H 56.1987 1.45683 7.9486 0
M  V30 584 H 59.7847 0.437504 5.80153 0
M  V30 585 H 58.6647 1.5754 7.68213 0
M  V30 586 N 56.1678 -1.49265 -0.50573 0
M  V30 587 C 57.1308 -1.65075 -1.59006 0
M  V30 588 C 58.1308 -0.522768 -1.52065 0
M  V30 589 O 59.3208 -0.789117 -1.55302 0
M  V30 590 C 56.4528 -1.64369 -2.98656 0
M  V30 591 H 57.6458 -2.61784 -1.46319 0
M  V30 592 H 55.1988 -1.38226 -0.729616 0
M  V30 593 H 55.9338 -0.692272 -3.16825 0
M  V30 594 H 55.7188 -2.46282 -3.05103 0
M  V30 595 H 57.2088 -1.78674 -3.77446 0
M  V30 596 N 57.6459 0.756429 -1.3826 0
M  V30 597 C 58.5929 1.87011 -1.35261 0
M  V30 598 C 59.5629 1.64695 -0.215616 0
M  V30 599 O 60.7479 1.864 -0.407399 0
M  V30 600 C 57.8879 3.24275 -1.18068 0
M  V30 601 C 57.0009 3.58442 -2.41129 0
M  V30 602 C 56.1359 4.84994 -2.16689 0
M  V30 603 C 55.1749 5.11939 -3.35537 0
M  V30 604 N 54.3119 6.29685 -3.10549 0
M  V30 605 H 59.1519 1.8891 -2.30472 0
M  V30 606 H 56.6889 0.923373 -1.14509 0
M  V30 607 H 58.6469 4.03479 -1.06116 0
M  V30 608 H 57.2769 3.21711 -0.264973 0
M  V30 609 H 56.3289 2.74103 -2.63764 0
M  V30 610 H 57.6409 3.74283 -3.29717 0
M  V30 611 H 56.7949 5.72135 -2.01857 0
M  V30 612 H 55.5339 4.71286 -1.25462 0
M  V30 613 H 54.5389 4.23268 -3.50891 0
M  V30 614 H 55.7639 5.27546 -4.27635 0
M  V30 615 H 53.7099 6.17306 -2.21967 0
M  V30 616 H 53.6269 6.46014 -3.92686 0
M  V30 617 H 54.8949 7.19722 -2.99367 0
M  V30 618 N 59.124 1.23083 0.984299 0
M  V30 619 C 60.352 1.08714 1.76037 0
M  V30 620 C 60.767 -0.361691 1.85303 0
M  V30 621 O 60.124 -1.25034 1.32939 0
M  V30 622 C 60.175 1.70206 3.18923 0
M  V30 623 O 59.896 3.09423 3.10144 0
M  V30 624 C 61.397 1.61227 4.12941 0
M  V30 625 H 58.617 0.380664 0.552572 0
M  V30 626 H 61.161 1.62853 1.23689 0
M  V30 627 H 59.316 1.20109 3.6831 0
M  V30 628 H 59.73 3.39188 4.00065 0
M  V30 629 H 61.204 2.08962 5.10919 0
M  V30 630 H 61.681 0.570375 4.35481 0
M  V30 631 H 62.287 2.10671 3.69456 0
M  V30 632 N 60.6021 -1.18246 1.0419 0
M  V30 633 C 61.8301 -1.92195 0.766072 0
M  V30 634 C 62.2451 -1.76247 -0.676933 0
M  V30 635 O 61.6021 -1.09293 -1.46155 0
M  V30 636 C 61.6531 -3.43568 1.12442 0
M  V30 637 O 61.3741 -3.59015 2.51078 0
M  V30 638 C 62.8751 -4.34613 0.873275 0
M  V30 639 H 60.0951 -0.610114 0.279288 0
M  V30 640 H 62.6391 -1.50007 1.38989 0
M  V30 641 H 60.7941 -3.8354 0.545542 0
M  V30 642 H 61.2081 -4.5273 2.64831 0
M  V30 643 H 62.6821 -5.39374 1.17385 0
M  V30 644 H 63.1591 -4.38781 -0.191909 0
M  V30 645 H 63.7651 -4.00341 1.43551 0
M  V30 646 N 62.0802 -0.821533 -1.34494 0
M  V30 647 C 63.3292 -0.405355 -1.97585 0
M  V30 648 C 63.6422 1.03677 -1.65863 0
M  V30 649 O 64.8482 1.55679 -2.22433 0
M  V30 650 C 63.3042 -0.673861 -3.53535 0
M  V30 651 C 62.9122 -2.12951 -3.94152 0
M  V30 652 C 64.6562 -0.32378 -4.23263 0
M  V30 653 C 62.5632 -2.34298 -5.43009 0
M  V30 654 H 61.4932 -0.147836 -0.739365 0
M  V30 655 H 64.1442 -1.00769 -1.53355 0
M  V30 656 H 62.5262 -0.00137554 -3.96 0
M  V30 657 H 63.7002 -2.84104 -3.62797 0
M  V30 658 H 62.0152 -2.44089 -3.37356 0
M  V30 659 H 64.6122 -0.461126 -5.32708 0
M  V30 660 H 64.9552 0.731586 -4.09821 0
M  V30 661 H 65.4882 -0.950786 -3.8627 0
M  V30 662 H 62.2272 -3.38335 -5.61435 0
M  V30 663 H 61.7472 -1.67687 -5.75883 0
M  V30 664 H 63.4262 -2.16588 -6.09671 0
M  V30 665 N 63.5583 1.46682 -0.576371 0
M  V30 666 C 64.4683 2.34032 0.163141 0
M  V30 667 C 65.4843 1.49367 0.892501 0
M  V30 668 O 66.6603 1.82252 0.857106 0
M  V30 669 C 63.7253 3.26435 1.16795 0
M  V30 670 C 62.7863 4.26998 0.443944 0
M  V30 671 C 62.0193 5.14986 1.40088 0
M  V30 672 O 62.2423 5.05785 2.637 0
M  V30 673 O 61.1763 5.94906 0.914917 0
M  V30 674 H 65.0023 2.98607 -0.55388 0
M  V30 675 H 62.5873 1.45554 -0.336821 0
M  V30 676 H 64.4693 3.83459 1.74748 0
M  V30 677 H 63.1443 2.64465 1.86655 0
M  V30 678 H 62.0513 3.7368 -0.177271 0
M  V30 679 H 63.3843 4.91736 -0.213566 0
M  V30 680 N 65.0364 0.313813 1.54444 0
M  V30 681 C 65.9664 -0.549454 2.26943 0
M  V30 682 C 66.9474 -1.12741 1.27372 0
M  V30 683 O 68.1324 -1.15436 1.56167 0
M  V30 684 C 65.2624 -1.71523 3.01989 0
M  V30 685 C 64.2164 -1.26703 4.08816 0
M  V30 686 C 63.5424 -2.51898 4.71647 0
M  V30 687 C 64.8424 -0.388962 5.2085 0
M  V30 688 H 66.5364 0.0552661 2.99349 0
M  V30 689 H 64.0824 0.0280207 1.43973 0
M  V30 690 H 66.0354 -2.32535 3.51433 0
M  V30 691 H 64.7594 -2.34639 2.27183 0
M  V30 692 H 63.4184 -0.679896 3.6024 0
M  V30 693 H 63.0664 -3.13356 3.93468 0
M  V30 694 H 62.7664 -2.22605 5.43802 0
M  V30 695 H 64.2904 -3.1369 5.23861 0
M  V30 696 H 65.7044 -0.905107 5.6611 0
M  V30 697 H 64.1014 -0.18924 5.99802 0
M  V30 698 H 65.1714 0.582699 4.81386 0
M  V30 699 N 66.5145 -1.57545 0.0417849 0
M  V30 700 C 67.4245 -2.14451 -0.951213 0
M  V30 701 C 68.4405 -1.09992 -1.34825 0
M  V30 702 O 69.6165 -1.42114 -1.42708 0
M  V30 703 C 66.6815 -2.67063 -2.21084 0
M  V30 704 C 65.7425 -3.86284 -1.87304 0
M  V30 705 C 64.9755 -4.36378 -3.07261 0
M  V30 706 O 65.1985 -3.85587 -4.20332 0
M  V30 707 O 64.1325 -5.28077 -2.88822 0
M  V30 708 H 67.9585 -2.99601 -0.497287 0
M  V30 709 H 65.5435 -1.48317 -0.179567 0
M  V30 710 H 67.4255 -3.00914 -2.95006 0
M  V30 711 H 66.1005 -1.84989 -2.65633 0
M  V30 712 H 65.0075 -3.57338 -1.10727 0
M  V30 713 H 66.3405 -4.6956 -1.47562 0
M  V30 714 N 67.9926 0.231505 -1.5589 0
M  V30 715 C 69.2206 0.974505 -1.82513 0
M  V30 716 C 69.6356 1.78344 -0.619591 0
M  V30 717 O 68.9926 1.77792 0.411848 0
M  V30 718 C 69.0436 1.90007 -3.07538 0
M  V30 719 O 68.7646 1.12385 -4.2344 0
M  V30 720 C 70.2656 2.75779 -3.47075 0
M  V30 721 H 67.4856 0.286065 -0.606966 0
M  V30 722 H 70.0296 0.249739 -2.02969 0
M  V30 723 H 68.1846 2.57891 -2.89086 0
M  V30 724 H 68.5986 1.75125 -4.944 0
M  V30 725 H 70.0726 3.36443 -4.37619 0
M  V30 726 H 70.5496 3.47672 -2.68367 0
M  V30 727 H 71.1556 2.13323 -3.67931 0
M  V30 728 N 69.4707 1.49531 0.497807 0
M  V30 729 C 70.8817 1.52344 1.07927 0
M  V30 730 C 71.2327 0.311469 1.93712 0
M  V30 731 O 70.3577 -0.578405 2.08527 0
M  V30 732 C 70.9527 2.76062 1.96405 0
M  V30 733 C 69.5117 2.81643 2.49709 0
M  V30 734 C 68.6587 2.46299 1.27404 0
M  V30 735 H 71.6097 1.56182 0.281576 0
M  V30 736 H 71.6307 2.56405 2.81135 0
M  V30 737 H 71.1427 3.64254 1.33943 0
M  V30 738 H 69.2437 1.97739 3.15801 0
M  V30 739 H 69.3567 3.83891 2.86643 0
M  V30 740 H 67.7207 1.98148 1.60029 0
M  V30 741 H 68.5037 3.36769 0.66645 0
M  V30 742 N 70.9488 -0.749086 1.3866 0
M  V30 743 C 72.1788 -1.53611 1.38157 0
M  V30 744 C 72.5868 -1.89177 -0.0293595 0
M  V30 745 O 71.9298 -1.53606 -1.00752 0
M  V30 746 C 71.9918 -2.86087 2.17702 0
M  V30 747 C 71.6558 -2.73034 3.66472 0
M  V30 748 C 72.6528 -2.42526 4.59866 0
M  V30 749 C 70.3378 -2.90345 4.09884 0
M  V30 750 C 72.3318 -2.29492 5.94653 0
M  V30 751 C 70.0188 -2.7693 5.4475 0
M  V30 752 C 71.0168 -2.46547 6.36949 0
M  V30 753 O 70.7048 -2.33199 7.69333 0
M  V30 754 H 70.4368 -0.481773 0.474205 0
M  V30 755 H 72.9908 -0.934465 1.82912 0
M  V30 756 H 71.2208 -3.48458 1.67672 0
M  V30 757 H 72.9098 -3.47625 2.09551 0
M  V30 758 H 73.6758 -2.28816 4.27631 0
M  V30 759 H 69.5548 -3.1299 3.38464 0
M  V30 760 H 73.0988 -2.05698 6.66584 0
M  V30 761 H 68.9958 -2.90215 5.76581 0
M  V30 762 H 69.7638 -2.48376 7.79905 0
M  V30 763 N 72.4269 -1.23603 -0.977757 0
M  V30 764 C 73.6519 -1.09735 -1.75991 0
M  V30 765 C 74.0769 0.346858 -1.84874 0
M  V30 766 O 73.4349 1.25093 -1.3123 0
M  V30 767 C 73.4829 -1.73051 -3.16363 0
M  V30 768 O 72.5869 -0.994452 -4.0023 0
M  V30 769 H 71.9279 -0.384476 -0.541364 0
M  V30 770 H 74.4579 -1.6371 -1.2272 0
M  V30 771 H 74.4679 -1.78398 -3.66931 0
M  V30 772 H 73.1429 -2.78137 -3.09213 0
M  V30 773 H 71.7199 -1.01812 -3.58732 0
M  V30 774 N 73.905 1.17692 -1.04816 0
M  V30 775 C 74.868 2.19787 -0.650117 0
M  V30 776 C 75.868 1.58044 0.296427 0
M  V30 777 O 77.058 1.74012 0.0808097 0
M  V30 778 C 74.19 3.40869 0.0456987 0
M  V30 779 H 75.383 2.56516 -1.5537 0
M  V30 780 H 72.936 1.31708 -0.841594 0
M  V30 781 H 73.671 3.09681 0.962726 0
M  V30 782 H 73.456 3.86928 -0.634727 0
M  V30 783 H 74.946 4.16445 0.310432 0
M  V30 784 N 75.3831 0.828654 1.34056 0
M  V30 785 C 76.7991 0.515135 1.51058 0
M  V30 786 C 76.9991 -0.959581 1.77184 0
M  V30 787 O 76.0551 -1.74382 1.82612 0
M  V30 788 C 77.3681 1.37963 2.67183 0
M  V30 789 C 78.9161 1.37735 2.81066 0
M  V30 790 C 79.3911 2.22645 4.00241 0
M  V30 791 N 80.8821 2.203 4.07458 0
M  V30 792 C 81.6171 2.82744 4.98842 0
M  V30 793 N 81.1131 3.54201 5.9541 0
M  V30 794 N 82.9061 2.72268 4.91759 0
M  V30 795 H 75.0571 1.78343 1.15358 0
M  V30 796 H 77.3201 0.760304 0.566252 0
M  V30 797 H 77.0261 2.42714 2.54525 0
M  V30 798 H 76.9001 1.0484 3.62338 0
M  V30 799 H 79.2871 0.337593 2.93163 0
M  V30 800 H 79.3681 1.74859 1.86703 0
M  V30 801 H 79.0121 3.26674 3.88905 0
M  V30 802 H 78.9421 1.82869 4.93829 0
M  V30 803 H 81.4331 1.68327 3.38341 0
M  V30 804 H 81.7461 3.9908 6.61782 0
M  V30 805 H 80.0911 3.58308 5.95517 0
M  V30 806 H 83.2821 2.16014 4.15278 0
M  V30 807 H 83.4551 3.21219 5.62781 0
M  V30 808 N 76.8612 -1.46375 0.584142 0
M  V30 809 C 78.1382 -1.956 0.0033388 0
M  V30 810 C 78.5182 -1.52679 -1.45782 0
M  V30 811 O 77.8662 -0.77816 -2.14842 0
M  V30 812 C 78.0762 -3.48551 0.176891 0
M  V30 813 C 79.4242 -4.24576 0.0454609 0
M  V30 814 O 80.4482 -3.56043 0.105801 0
M  V30 815 O 79.3072 -5.46427 -0.0890376 0
M  V30 816 H 76.4012 -0.825547 -0.0490066 0
M  V30 817 H 78.9472 -1.56652 0.65256 0
M  V30 818 H 77.7192 -3.72683 1.1926 0
M  V30 819 H 77.3422 -3.94332 -0.508695 0
M  V30 820 N 78.3393 -0.321999 -1.54275 0
M  V30 821 C 79.5853 0.281461 -2.00837 0
M  V30 822 C 79.9183 1.51909 -1.20985 0
M  V30 823 O 79.1933 1.923 -0.291733 0
M  V30 824 C 79.4763 0.617162 -3.54772 0
M  V30 825 C 79.3293 -0.631064 -4.45351 0
M  V30 826 C 80.6483 1.43542 -4.16033 0
M  V30 827 H 77.7673 0.100826 -0.730071 0
M  V30 828 H 80.4093 -0.438268 -1.84876 0
M  V30 829 H 78.5593 1.23034 -3.68504 0
M  V30 830 H 80.2313 -1.26934 -4.43492 0
M  V30 831 H 78.4743 -1.26025 -4.15091 0
M  V30 832 H 79.1453 -0.351735 -5.50878 0
M  V30 833 H 81.6213 0.917134 -4.05867 0
M  V30 834 H 80.4973 1.63907 -5.23856 0
M  V30 835 H 80.7583 2.43108 -3.69257 0
M  V30 836 N 79.8174 1.5752 -0.0501392 0
M  V30 837 C 80.7804 2.1037 0.909786 0
M  V30 838 C 81.7804 1.02308 1.24056 0
M  V30 839 O 82.9704 1.28385 1.17741 0
M  V30 840 C 80.1024 2.58708 2.21998 0
M  V30 841 H 81.2954 2.96479 0.451665 0
M  V30 842 H 78.8484 1.55038 0.198248 0
M  V30 843 H 79.5834 1.75989 2.72394 0
M  V30 844 H 79.3684 3.37675 1.99295 0
M  V30 845 H 80.8584 2.99747 2.9076 0
M  V30 846 N 81.2955 -0.223234 1.56011 0
M  V30 847 C 82.2585 -1.26014 1.9145 0
M  V30 848 C 83.2585 -1.3989 0.792937 0
M  V30 849 O 84.4485 -1.38184 1.0607 0
M  V30 850 C 81.5805 -2.63422 2.16383 0
M  V30 851 H 82.7735 -0.95796 2.84189 0
M  V30 852 H 80.3265 -0.463576 1.49267 0
M  V30 853 H 81.0615 -2.98741 1.2619 0
M  V30 854 H 80.8465 -2.54728 2.98088 0
M  V30 855 H 82.3365 -3.38249 2.44903 0
M  V30 856 N 82.7736 -1.49793 -0.48987 0
M  V30 857 C 83.7036 -1.70201 -1.59856 0
M  V30 858 C 84.6846 -0.55076 -1.60937 0
M  V30 859 O 85.8696 -0.787841 -1.77501 0
M  V30 860 C 82.9996 -1.77882 -2.98287 0
M  V30 861 C 81.9536 -2.92907 -3.12073 0
M  V30 862 C 81.2796 -2.85712 -4.51965 0
M  V30 863 C 82.5796 -4.3369 -2.91051 0
M  V30 864 H 84.2736 -2.63025 -1.43032 0
M  V30 865 H 81.8196 -1.26574 -0.686664 0
M  V30 866 H 83.7726 -1.90744 -3.75759 0
M  V30 867 H 82.4966 -0.816653 -3.16225 0
M  V30 868 H 81.1556 -2.79665 -2.37029 0
M  V30 869 H 80.8036 -1.8738 -4.66795 0
M  V30 870 H 80.5036 -3.62921 -4.62128 0
M  V30 871 H 82.0276 -3.00598 -5.31482 0
M  V30 872 H 83.4416 -4.47555 -3.58284 0
M  V30 873 H 81.8386 -5.12205 -3.12675 0
M  V30 874 H 82.9086 -4.47362 -1.87071 0
M  V30 875 N 84.2517 0.741722 -1.39055 0
M  V30 876 C 85.2147 1.83733 -1.37021 0
M  V30 877 C 86.2147 1.58542 -0.268534 0
M  V30 878 O 87.4047 1.66067 -0.526076 0
M  V30 879 C 84.5367 3.2141 -1.13617 0
M  V30 880 H 85.7297 1.86941 -2.34506 0
M  V30 881 H 83.2827 0.944676 -1.24521 0
M  V30 882 H 84.0177 3.23865 -0.167863 0
M  V30 883 H 83.8027 3.4109 -1.93391 0
M  V30 884 H 85.2927 4.01477 -1.14918 0
M  V30 885 N 85.7298 1.2412 0.971189 0
M  V30 886 C 87.0068 0.986867 1.6888 0
M  V30 887 C 87.3868 -0.491857 2.0529 0
M  V30 888 O 86.7348 -1.46531 1.75331 0
M  V30 889 C 86.9448 1.9063 2.92338 0
M  V30 890 C 88.2928 2.17515 3.64654 0
M  V30 891 O 89.3168 1.88254 3.02388 0
M  V30 892 O 88.1758 2.6719 4.7673 0
M  V30 893 H 85.2698 0.372944 0.738134 0
M  V30 894 H 87.8158 1.35203 1.02559 0
M  V30 895 H 86.5878 2.90552 2.62097 0
M  V30 896 H 86.2108 1.54408 3.66393 0
M  V30 897 N 87.2079 -1.17134 1.05439 0
M  V30 898 C 88.4549 -1.87456 0.765942 0
M  V30 899 C 88.7829 -1.81189 -0.707153 0
M  V30 900 O 88.0379 -1.21633 -1.5331 0
M  V30 901 C 88.3369 -3.36833 1.19491 0
M  V30 902 C 88.0029 -3.63301 2.67063 0
M  V30 903 C 86.6649 -3.70234 3.07376 0
M  V30 904 C 89.0169 -3.74575 3.62413 0
M  V30 905 C 86.3449 -3.85933 4.41896 0
M  V30 906 C 88.6969 -3.91793 4.9667 0
M  V30 907 C 87.3609 -3.96966 5.36633 0
M  V30 908 H 86.6309 -0.685948 0.280278 0
M  V30 909 H 89.2779 -1.38556 1.32192 0
M  V30 910 H 87.5829 -3.87807 0.557969 0
M  V30 911 H 89.2799 -3.89611 0.948893 0
M  V30 912 H 85.8699 -3.58532 2.34846 0
M  V30 913 H 90.0539 -3.68537 3.32406 0
M  V30 914 H 85.3099 -3.88187 4.72357 0
M  V30 915 H 89.4839 -3.99458 5.70444 0
M  V30 916 H 87.1109 -4.08883 6.40874 0
M  V30 917 N 88.686 -0.835752 -1.33615 0
M  V30 918 C 89.911 -0.442389 -2.02627 0
M  V30 919 C 90.336 0.947735 -1.62479 0
M  V30 920 O 89.694 1.61907 -0.815826 0
M  V30 921 C 89.742 -0.567216 -3.56111 0
M  V30 922 O 88.846 0.407799 -4.10379 0
M  V30 923 H 88.187 -0.180278 -0.639059 0
M  V30 924 H 90.717 -1.12972 -1.70583 0
M  V30 925 H 90.727 -0.447708 -4.05536 0
M  V30 926 H 89.402 -1.58103 -3.84677 0
M  V30 927 H 87.979 0.246107 -3.72087 0
M  V30 928 N 90.1641 1.46063 -0.591896 0
M  V30 929 C 91.1141 2.27458 0.157172 0
M  V30 930 C 92.0981 1.3641 0.853301 0
M  V30 931 O 93.2901 1.60517 0.74588 0
M  V30 932 C 90.4191 3.22956 1.16423 0
M  V30 933 C 89.5051 4.2149 0.469742 0
M  V30 934 N 89.8961 5.03519 -0.479839 0
M  V30 935 C 88.1941 4.40161 0.719319 0
M  V30 936 C 88.8951 5.74904 -0.886591 0
M  V30 937 N 87.8711 5.43097 -0.233731 0
M  V30 938 H 91.6731 2.88272 -0.572392 0
M  V30 939 H 89.1871 1.57024 -0.414375 0
M  V30 940 H 91.1841 3.79986 1.71513 0
M  V30 941 H 89.8441 2.63701 1.89451 0
M  V30 942 H 90.8551 5.1078 -0.855823 0
M  V30 943 H 87.5321 3.92046 1.43548 0
M  V30 944 H 88.9221 6.50844 -1.66888 0
M  V30 945 N 91.6422 0.330177 1.54103 0
M  V30 946 C 92.5902 -0.548226 2.26047 0
M  V30 947 C 93.5842 -1.11309 1.27698 0
M  V30 948 O 94.7902 -1.06036 1.45452 0
M  V30 949 H 91.1652 -0.195456 0.726155 0
M  V30 950 H 93.1362 0.0807567 2.98291 0
M  V30 951 C 91.8852 -1.69415 3.03634 0
M  V30 952 H 91.2082 -1.26876 3.79134 0
M  V30 953 H 92.6482 -2.28423 3.5721 0
M  V30 954 C 91.1072 -2.61569 2.12328 0
M  V30 955 O 91.6372 -3.63462 1.7105 0
M  V30 956 N 89.8432 -2.29952 1.77681 0
M  V30 957 H 89.3902 -1.47134 2.11446 0
M  V30 958 H 89.3482 -2.91871 1.16869 0
M  V30 959 N 93.1203 -1.57491 0.0584922 0
M  V30 960 C 94.5313 -1.80526 -0.476138 0
M  V30 961 C 94.8823 -0.971334 -1.70469 0
M  V30 962 O 94.0073 -0.190012 -2.15564 0
M  V30 963 C 94.6023 -3.27424 -0.870587 0
M  V30 964 C 93.1613 -3.51351 -1.35015 0
M  V30 965 C 92.3083 -2.75343 -0.32887 0
M  V30 966 H 95.2593 -1.56133 0.284312 0
M  V30 967 H 95.2803 -3.38745 -1.73299 0
M  V30 968 H 94.7923 -3.88093 0.0237627 0
M  V30 969 H 92.8933 -2.95971 -2.26345 0
M  V30 970 H 93.0063 -4.60059 -1.33726 0
M  V30 971 H 91.3703 -2.417 -0.803321 0
M  V30 972 H 92.1533 -3.38743 0.557521 0
M  V30 973 N 94.5984 0.214957 -1.56127 0
M  V30 974 C 95.5614 1.24997 -1.92116 0
M  V30 975 C 96.5614 1.39467 -0.800344 0
M  V30 976 O 97.7514 1.37619 -1.06802 0
M  V30 977 C 94.8834 2.62271 -2.17777 0
M  V30 978 H 96.0764 0.942875 -2.84693 0
M  V30 979 H 93.6294 0.455654 -1.49511 0
M  V30 980 H 94.3644 2.98068 -1.27773 0
M  V30 981 H 94.1494 2.53143 -2.99434 0
M  V30 982 H 95.6394 3.36946 -2.46693 0
M  V30 983 N 96.0765 1.50051 0.48192 0
M  V30 984 C 97.3535 1.51009 1.2432 0
M  V30 985 C 97.7335 0.248587 2.09631 0
M  V30 986 O 97.0815 -0.768409 2.15192 0
M  V30 987 C 97.2915 2.79981 2.08355 0
M  V30 988 C 98.6395 3.3022 2.66908 0
M  V30 989 O 99.6635 2.81228 2.18607 0
M  V30 990 O 98.5225 4.15595 3.54884 0
M  V30 991 H 95.6165 0.605239 0.563573 0
M  V30 992 H 98.1625 1.62332 0.494627 0
M  V30 993 H 96.9345 3.63275 1.45419 0
M  V30 994 H 96.5575 2.7161 2.90368 0
M  V30 995 N 97.5546 -0.734337 1.39446 0
M  V30 996 C 98.4866 -1.85861 1.34121 0
M  V30 997 C 99.4996 -1.60871 0.249864 0
M  V30 998 O 100.689 -1.71093 0.508865 0
M  V30 999 C 97.7886 -3.21899 1.05991 0
M  V30 1000 C 96.9616 -3.74239 2.26415 0
M  V30 1001 C 96.0206 -4.88841 1.94733 0
M  V30 1002 O 95.0466 -5.02468 2.67422 0
M  V30 1003 N 96.2486 -5.73261 0.913884 0
M  V30 1004 H 99.0136 -1.90934 2.31007 0
M  V30 1005 H 96.5746 -0.915102 1.33557 0
M  V30 1006 H 98.5666 -3.96136 0.828147 0
M  V30 1007 H 97.1366 -3.12091 0.178361 0
M  V30 1008 H 96.3566 -2.91347 2.65539 0
M  V30 1009 H 97.6446 -4.05942 3.06738 0
M  V30 1010 H 97.0426 -5.64842 0.311476 0
M  V30 1011 H 95.5996 -6.47563 0.742015 0
M  V30 1012 N 99.0327 -1.24633 -0.964593 0
M  V30 1013 C 99.9957 -1.0424 -2.04124 0
M  V30 1014 C 100.996 0.00137563 -1.608 0
M  V30 1015 O 102.186 -0.239883 -1.7254 0
M  V30 1016 C 99.3177 -0.580588 -3.3592 0
M  V30 1017 H 100.511 -1.99803 -2.23649 0
M  V30 1018 H 98.0637 -1.06899 -1.14027 0
M  V30 1019 H 98.7987 0.3781 -3.22088 0
M  V30 1020 H 98.5837 -1.33398 -3.6871 0
M  V30 1021 H 100.074 -0.459034 -4.15069 0
M  V30 1022 N 100.511 1.16574 -1.06058 0
M  V30 1023 C 101.474 2.19085 -0.673392 0
M  V30 1024 C 102.474 1.5835 0.279648 0
M  V30 1025 O 103.664 1.74088 0.0623488 0
M  V30 1026 C 100.796 3.40899 0.00954234 0
M  V30 1027 H 101.989 2.54853 -1.58081 0
M  V30 1028 H 99.5418 1.30808 -0.855516 0
M  V30 1029 H 100.277 3.10684 0.929826 0
M  V30 1030 H 100.062 3.86233 -0.67573 0
M  V30 1031 H 101.552 4.1675 0.266245 0
M  V30 1032 N 101.989 0.842826 1.3317 0
M  V30 1033 C 103.217 0.454055 2.01856 0
M  V30 1034 C 103.632 -0.94587 1.63397 0
M  V30 1035 O 102.989 -1.61534 0.849302 0
M  V30 1036 C 103.04 0.569715 3.56982 0
M  V30 1037 O 102.761 1.91448 3.94055 0
M  V30 1038 C 104.262 0.178412 4.42941 0
M  V30 1039 H 101.482 0.17979 0.646465 0
M  V30 1040 H 104.026 1.1365 1.70012 0
M  V30 1041 H 102.181 -0.0648587 3.87346 0
M  V30 1042 H 102.595 1.90282 4.88767 0
M  V30 1043 H 104.069 0.310376 5.51127 0
M  V30 1044 H 104.546 -0.880056 4.30293 0
M  V30 1045 H 105.152 0.787579 4.17944 0
M  V30 1046 N 103.467 -1.45747 0.599634 0
M  V30 1047 C 104.716 -2.01502 0.0893511 0
M  V30 1048 C 105.029 -1.4748 -1.28488 0
M  V30 1049 O 106.235 -1.95161 -1.88745 0
M  V30 1050 C 104.691 -3.59735 0.109082 0
M  V30 1051 C 104.299 -4.22754 1.48267 0
M  V30 1052 C 106.043 -4.23085 -0.346374 0
M  V30 1053 C 103.95 -5.73115 1.45921 0
M  V30 1054 H 102.88 -0.753417 0.0296347 0
M  V30 1055 H 105.531 -1.67303 0.753788 0
M  V30 1056 H 103.913 -3.91087 -0.621854 0
M  V30 1057 H 105.087 -4.02987 2.23468 0
M  V30 1058 H 103.402 -3.71567 1.87955 0
M  V30 1059 H 105.999 -5.33327 -0.38298 0
M  V30 1060 H 106.342 -3.93201 -1.36743 0
M  V30 1061 H 106.875 -3.9642 0.331038 0
M  V30 1062 H 103.614 -6.07685 2.45762 0
M  V30 1063 H 103.134 -5.95097 0.749665 0
M  V30 1064 H 104.813 -6.3616 1.17941 0
M  V30 1065 N 104.945 -0.338344 -1.53925 0
M  V30 1066 C 106.17 0.263987 -2.05713 0
M  V30 1067 C 106.595 1.43847 -1.21201 0
M  V30 1068 O 105.953 1.79904 -0.224535 0
M  V30 1069 C 106.001 0.662 -3.54471 0
M  V30 1070 O 105.105 1.76265 -3.72833 0
M  V30 1071 H 104.446 0.0448722 -0.662482 0
M  V30 1072 H 106.976 -0.491048 -1.9862 0
M  V30 1073 H 106.986 0.940594 -3.9701 0
M  V30 1074 H 105.661 -0.196937 -4.15433 0
M  V30 1075 H 104.238 1.48173 -3.42198 0
M  V30 1076 N 106.423 1.57458 -0.0668435 0
M  V30 1077 C 107.648 1.9804 0.616027 0
M  V30 1078 C 108.073 0.944771 1.62652 0
M  V30 1079 O 107.431 -0.0902094 1.81075 0
M  V30 1080 C 107.479 3.37665 1.26549 0
M  V30 1081 O 106.583 3.36701 2.38131 0
M  V30 1082 H 105.924 0.644719 0.158849 0
M  V30 1083 H 108.454 2.04121 -0.139891 0
M  V30 1084 H 108.464 3.7474 1.6135 0
M  V30 1085 H 107.139 4.12573 0.525016 0
M  V30 1086 H 105.716 3.1139 2.0516 0
M  V30 1087 N 107.901 -0.206675 1.56239 0
M  V30 1088 C 109.149 -0.927007 1.79586 0
M  V30 1089 C 109.47 -1.8427 0.637929 0
M  V30 1090 O 108.74 -1.92849 -0.344398 0
M  V30 1091 H 107.32 -0.345292 0.662407 0
M  V30 1092 H 109.982 -0.21496 1.93711 0
M  V30 1093 H 109.078 -1.52501 2.72305 0
M  V30 1094 N 109.379 -1.50304 -0.473955 0
M  V30 1095 C 110.604 -1.65175 -1.25427 0
M  V30 1096 C 111.029 -0.333673 -1.85117 0
M  V30 1097 O 110.387 0.702114 -1.67153 0
M  V30 1098 C 110.435 -2.74295 -2.34082 0
M  V30 1099 O 109.539 -2.35349 -3.38651 0
M  V30 1100 H 108.88 -0.551944 -0.369126 0
M  V30 1101 H 111.41 -1.96662 -0.564364 0
M  V30 1102 H 111.42 -2.97285 -2.79438 0
M  V30 1103 H 110.095 -3.69959 -1.90008 0
M  V30 1104 H 108.672 -2.22794 -2.99027 0
M  V30 1105 N 110.857 0.726932 -1.39834 0
M  V30 1106 C 112.104 1.48664 -1.37496 0
M  V30 1107 C 112.432 1.94482 0.0264678 0
M  V30 1108 O 111.687 1.67692 1.00886 0
M  V30 1109 C 111.986 2.73495 -2.30077 0
M  V30 1110 C 111.652 2.46502 -3.77555 0
M  V30 1111 C 110.314 2.3885 -4.17737 0
M  V30 1112 C 112.666 2.23604 -4.70798 0
M  V30 1113 C 109.994 2.06352 -5.49214 0
M  V30 1114 C 112.346 1.92622 -6.02561 0
M  V30 1115 C 111.01 1.83444 -6.41798 0
M  V30 1116 H 110.28 0.544001 -0.503135 0
M  V30 1117 H 112.927 0.833657 -1.72402 0
M  V30 1118 H 111.232 3.43575 -1.88317 0
M  V30 1119 H 112.929 3.31549 -2.25558 0
M  V30 1120 H 109.519 2.5334 -3.45712 0
M  V30 1121 H 113.703 2.28479 -4.40581 0
M  V30 1122 H 108.959 1.97776 -5.78528 0
M  V30 1123 H 113.133 1.73914 -6.74334 0
M  V30 1124 H 110.76 1.58029 -7.43593 0
M  V30 1125 N 112.336 1.25143 0.95797 0
M  V30 1126 C 113.752 1.01892 1.22842 0
M  V30 1127 C 113.952 -0.266311 1.99732 0
M  V30 1128 O 113.008 -0.979913 2.3271 0
M  V30 1129 C 114.321 2.24004 2.00606 0
M  V30 1130 C 115.869 2.28731 2.13662 0
M  V30 1131 C 116.344 3.5049 2.94823 0
M  V30 1132 N 117.835 3.50866 3.02403 0
M  V30 1133 C 118.57 4.4174 3.65586 0
M  V30 1134 N 118.066 5.42882 4.30408 0
M  V30 1135 N 119.859 4.29429 3.62694 0
M  V30 1136 H 112.01 2.07718 0.443493 0
M  V30 1137 H 114.273 0.912031 0.258657 0
M  V30 1138 H 113.979 3.17395 1.51503 0
M  V30 1139 H 113.853 2.26907 3.01319 0
M  V30 1140 H 116.24 1.35865 2.61963 0
M  V30 1141 H 116.321 2.29848 1.12265 0
M  V30 1142 H 115.965 4.43676 2.47213 0
M  V30 1143 H 115.895 3.46617 3.96439 0
M  V30 1144 H 118.386 2.777 2.56302 0
M  V30 1145 H 118.699 6.0844 4.76467 0
M  V30 1146 H 117.044 5.46758 4.29047 0
M  V30 1147 H 120.235 3.49643 3.11236 0
M  V30 1148 H 120.408 5.00448 4.1165 0
M  V30 1149 N 113.814 -1.1601 1.06675 0
M  V30 1150 C 115.042 -1.90527 0.806667 0
M  V30 1151 C 115.457 -1.77643 -0.639396 0
M  V30 1152 O 114.814 -1.12369 -1.43803 0
M  V30 1153 C 114.865 -3.41106 1.19705 0
M  V30 1154 O 114.586 -3.53608 2.58636 0
M  V30 1155 C 116.087 -4.32663 0.965266 0
M  V30 1156 H 113.307 -0.604053 0.292166 0
M  V30 1157 H 115.851 -1.47026 1.4214 0
M  V30 1158 H 114.006 -3.82296 0.626774 0
M  V30 1159 H 114.42 -4.47011 2.74375 0
M  V30 1160 H 115.894 -5.36763 1.288 0
M  V30 1161 H 116.371 -4.39089 -0.0987936 0
M  V30 1162 H 116.977 -3.97206 1.52011 0
M  V30 1163 N 115.292 -0.849877 -1.32721 0
M  V30 1164 C 116.569 -0.372405 -1.92022 0
M  V30 1165 C 116.949 1.1435 -1.77447 0
M  V30 1166 O 116.297 1.96296 -1.16962 0
M  V30 1167 C 116.507 -0.831482 -3.3895 0
M  V30 1168 C 117.855 -0.845882 -4.16089 0
M  V30 1169 O 118.879 -0.775806 -3.47649 0
M  V30 1170 O 117.738 -0.943753 -5.38289 0
M  V30 1171 H 114.832 -0.107667 -0.819961 0
M  V30 1172 H 117.378 -0.93646 -1.41522 0
M  V30 1173 H 116.15 -1.87448 -3.4348 0
M  V30 1174 H 115.773 -0.24461 -3.96847 0
M  V30 1175 N 116.77 1.45427 -0.607355 0
M  V30 1176 C 118.018 2.01841 -0.102253 0
M  V30 1177 C 118.339 1.47832 1.27164 0
M  V30 1178 O 117.609 0.672497 1.83995 0
M  V30 1179 H 116.189 0.746188 -0.0348101 0
M  V30 1180 H 118.851 1.78229 -0.7887 0
M  V30 1181 H 117.947 3.12057 -0.0518585 0
M  V30 1182 N 118.248 0.346503 1.53744 0
M  V30 1183 C 119.181 -0.552023 2.21423 0
M  V30 1184 C 120.159 -1.09798 1.19929 0
M  V30 1185 O 121.343 -1.1577 1.4876 0
M  V30 1186 C 118.47 -1.75972 2.89398 0
M  V30 1187 C 117.516 -1.34295 4.04805 0
M  V30 1188 S 118.349 -0.360263 5.34287 0
M  V30 1189 C 119.505 -1.57473 6.05767 0
M  V30 1190 H 119.738 0.0228119 2.97291 0
M  V30 1191 H 117.271 0.130579 1.53847 0
M  V30 1192 H 119.229 -2.45256 3.2918 0
M  V30 1193 H 117.89 -2.30578 2.1329 0
M  V30 1194 H 117.083 -2.24349 4.51313 0
M  V30 1195 H 116.685 -0.729555 3.66815 0
M  V30 1196 H 118.977 -2.50875 6.29339 0
M  V30 1197 H 119.92 -1.15138 6.98676 0
M  V30 1198 H 120.328 -1.77212 5.35963 0
M  V30 1199 N 119.726 -1.57421 0.075193 0
M  V30 1200 C 120.975 -1.92794 -0.592731 0
M  V30 1201 C 121.288 -0.957478 -1.70563 0
M  V30 1202 O 122.494 -1.20417 -2.43335 0
M  V30 1203 C 120.95 -3.42495 -1.10569 0
M  V30 1204 C 120.558 -4.47994 -0.0236121 0
M  V30 1205 C 122.302 -3.86864 -1.74748 0
M  V30 1206 C 120.209 -5.88829 -0.550803 0
M  V30 1207 H 119.139 -0.719591 -0.225177 0
M  V30 1208 H 121.79 -1.82902 0.147978 0
M  V30 1209 H 120.172 -3.47471 -1.89947 0
M  V30 1210 H 121.346 -4.54637 0.751099 0
M  V30 1211 H 119.661 -4.13113 0.522159 0
M  V30 1212 H 122.258 -4.8947 -2.15229 0
M  V30 1213 H 122.601 -3.24417 -2.60882 0
M  V30 1214 H 123.134 -3.84504 -1.01986 0
M  V30 1215 H 119.873 -6.54929 0.273457 0
M  V30 1216 H 119.393 -5.85698 -1.29296 0
M  V30 1217 H 121.072 -6.38811 -1.02613 0
M  V30 1218 N 121.204 0.198386 -1.56346 0
M  V30 1219 C 122.45 0.920648 -1.80698 0
M  V30 1220 C 122.783 1.83045 -0.648697 0
M  V30 1221 O 122.058 1.91308 0.350925 0
M  V30 1222 C 122.341 1.73971 -3.15287 0
M  V30 1223 C 122.194 0.85485 -4.41602 0
M  V30 1224 C 123.513 2.71296 -3.46535 0
M  V30 1225 H 120.632 0.333261 -0.657348 0
M  V30 1226 H 123.274 0.188198 -1.89066 0
M  V30 1227 H 121.424 2.36416 -3.08285 0
M  V30 1228 H 123.096 0.245362 -4.60647 0
M  V30 1229 H 121.339 0.161398 -4.335 0
M  V30 1230 H 122.01 1.46286 -5.32264 0
M  V30 1231 H 124.486 2.18983 -3.53816 0
M  V30 1232 H 123.362 3.2569 -4.41834 0
M  V30 1233 H 123.623 3.5018 -2.69864 0
M  V30 1234 N 122.682 1.50554 0.465978 0
M  V30 1235 C 123.931 1.61038 1.21448 0
M  V30 1236 C 124.244 0.31865 1.92987 0
M  V30 1237 O 125.45 0.302469 2.6981 0
M  V30 1238 C 123.906 2.84283 2.20706 0
M  V30 1239 C 123.514 4.20352 1.54946 0
M  V30 1240 C 125.258 3.04115 2.96166 0
M  V30 1241 C 123.165 5.34778 2.5252 0
M  V30 1242 H 122.095 0.599718 0.457005 0
M  V30 1243 H 124.746 1.7699 0.484424 0
M  V30 1244 H 123.128 2.61901 2.97025 0
M  V30 1245 H 124.302 4.53008 0.843811 0
M  V30 1246 H 122.617 4.06167 0.917475 0
M  V30 1247 H 125.214 3.86774 3.69202 0
M  V30 1248 H 125.557 2.16045 3.55852 0
M  V30 1249 H 126.09 3.26702 2.26959 0
M  V30 1250 H 122.829 6.25018 1.97566 0
M  V30 1251 H 122.349 5.06534 3.21222 0
M  V30 1252 H 124.028 5.65561 3.14245 0
M  V30 1253 N 124.16 -0.719506 1.40217 0
M  V30 1254 C 125.571 -1.29848 1.34151 0
M  V30 1255 C 125.922 -1.96196 0.0131349 0
M  V30 1256 O 125.047 -1.973 -0.88892 0
M  V30 1257 C 125.642 -2.36118 2.42968 0
M  V30 1258 C 124.201 -2.8965 2.40374 0
M  V30 1259 C 123.348 -1.63393 2.24049 0
M  V30 1260 H 126.299 -0.51591 1.5008 0
M  V30 1261 H 126.32 -3.16871 2.10649 0
M  V30 1262 H 125.832 -1.878 3.39636 0
M  V30 1263 H 123.933 -3.42208 1.47392 0
M  V30 1264 H 124.046 -3.4171 3.35814 0
M  V30 1265 H 122.41 -1.88312 1.71495 0
M  V30 1266 H 123.193 -1.17104 3.2271 0
M  V30 1267 N 125.638 -1.25649 -0.95132 0
M  V30 1268 C 126.878 -1.11802 -1.71113 0
M  V30 1269 C 127.242 0.334758 -1.89059 0
M  V30 1270 O 128.443 0.595121 -2.62129 0
M  V30 1271 C 126.714 -1.85512 -3.05483 0
M  V30 1272 S 128.273 -1.87597 -3.96677 0
M  V30 1273 H 125.091 -0.399552 -0.588115 0
M  V30 1274 H 127.693 -1.59222 -1.1344 0
M  V30 1275 H 126.397 -2.90299 -2.90094 0
M  V30 1276 H 125.928 -1.38493 -3.68216 0
M  V30 1277 H 127.943 -0.955389 -4.86916 0
M  V30 1278 N 127.117 1.15442 -1.07289 0
M  V30 1279 C 128.342 1.90638 -0.816828 0
M  V30 1280 C 128.767 1.77445 0.624083 0
M  V30 1281 O 128.125 1.10671 1.43602 0
M  V30 1282 C 128.173 3.39008 -1.22906 0
M  V30 1283 O 127.277 4.10701 -0.373975 0
M  V30 1284 H 126.618 0.593555 -0.297638 0
M  V30 1285 H 129.148 1.46198 -1.43134 0
M  V30 1286 H 129.158 3.89801 -1.20497 0
M  V30 1287 H 127.833 3.47929 -2.27856 0
M  V30 1288 H 126.41 3.70046 -0.460499 0
M  V30 1289 N 128.595 0.856903 1.32268 0
M  V30 1290 C 129.528 0.247937 2.26849 0
M  V30 1291 C 130.506 -0.615382 1.50505 0
M  V30 1292 O 131.69 -0.571689 1.79622 0
M  V30 1293 C 128.817 -0.650093 3.32403 0
M  V30 1294 C 127.863 0.140138 4.2627 0
M  V30 1295 S 128.696 1.51004 5.13769 0
M  V30 1296 C 129.852 0.61778 6.22844 0
M  V30 1297 H 130.085 1.04971 2.78152 0
M  V30 1298 H 127.618 0.654665 1.39834 0
M  V30 1299 H 129.576 -1.16256 3.93694 0
M  V30 1300 H 128.237 -1.4257 2.7988 0
M  V30 1301 H 127.43 -0.543945 5.01056 0
M  V30 1302 H 127.032 0.584267 3.69408 0
M  V30 1303 H 129.324 -0.177053 6.77269 0
M  V30 1304 H 130.267 1.33636 6.95375 0
M  V30 1305 H 130.675 0.191124 5.64176 0
M  V30 1306 N 130.073 -1.45103 0.615059 0
M  V30 1307 C 131.02 -2.30586 -0.0993978 0
M  V30 1308 C 131.99 -1.42544 -0.852669 0
M  V30 1309 O 133.175 -1.71465 -0.836917 0
M  V30 1310 C 130.315 -3.27572 -1.08583 0
M  V30 1311 C 129.428 -4.30717 -0.332656 0
M  V30 1312 C 128.563 -5.14807 -1.30947 0
M  V30 1313 C 127.602 -6.09673 -0.544538 0
M  V30 1314 N 126.739 -6.86517 -1.47101 0
M  V30 1315 H 131.579 -2.91144 0.635542 0
M  V30 1316 H 129.116 -1.4346 0.325206 0
M  V30 1317 H 131.074 -3.82276 -1.67095 0
M  V30 1318 H 129.704 -2.68751 -1.78809 0
M  V30 1319 H 128.756 -3.78615 0.368107 0
M  V30 1320 H 130.068 -4.98102 0.263842 0
M  V30 1321 H 129.222 -5.73948 -1.96643 0
M  V30 1322 H 127.961 -4.47458 -1.9399 0
M  V30 1323 H 126.966 -5.49656 0.126003 0
M  V30 1324 H 128.191 -6.79052 0.080947 0
M  V30 1325 H 126.137 -6.21851 -2.08895 0
M  V30 1326 H 126.054 -7.50281 -0.928137 0
M  V30 1327 H 127.322 -7.50194 -2.11731 0
M  V30 1328 N 131.551 -0.354651 -1.53558 0
M  V30 1329 C 132.779 0.239515 -2.05509 0
M  V30 1330 C 133.194 1.4333 -1.2289 0
M  V30 1331 O 132.551 1.80538 -0.266899 0
M  V30 1332 C 132.602 0.643719 -3.55723 0
M  V30 1333 O 132.323 -0.502602 -4.35207 0
M  V30 1334 C 133.824 1.29743 -4.23889 0
M  V30 1335 H 131.044 0.0442697 -0.669538 0
M  V30 1336 H 133.588 -0.509856 -1.98042 0
M  V30 1337 H 131.743 1.34302 -3.63376 0
M  V30 1338 H 132.157 -0.178172 -5.24197 0
M  V30 1339 H 133.631 1.53091 -5.30346 0
M  V30 1340 H 134.108 2.25441 -3.76926 0
M  V30 1341 H 134.714 0.639865 -4.20459 0
M  V30 1342 N 133.029 1.57378 -0.0835403 0
M  V30 1343 C 133.959 2.1641 0.87686 0
M  V30 1344 C 134.94 1.09429 1.30228 0
M  V30 1345 O 136.125 1.37516 1.37124 0
M  V30 1346 C 133.255 2.73517 2.14022 0
M  V30 1347 C 132.209 3.85769 1.85381 0
M  V30 1348 C 131.535 4.29529 3.18448 0
M  V30 1349 C 132.835 5.09486 1.14984 0
M  V30 1350 H 134.529 2.96914 0.385059 0
M  V30 1351 H 132.075 1.42823 0.18377 0
M  V30 1352 H 134.028 3.13463 2.81636 0
M  V30 1353 H 132.752 1.90252 2.65465 0
M  V30 1354 H 131.411 3.46345 1.20169 0
M  V30 1355 H 131.059 3.43169 3.67755 0
M  V30 1356 H 130.759 5.05204 3.00071 0
M  V30 1357 H 132.283 4.72099 3.8724 0
M  V30 1358 H 133.697 5.46674 1.72687 0
M  V30 1359 H 132.094 5.90515 1.06826 0
M  V30 1360 H 133.164 4.84724 0.130749 0
M  V30 1361 N 134.507 -0.190092 1.56449 0
M  V30 1362 C 135.47 -1.21925 1.9408 0
M  V30 1363 C 136.47 -1.38176 0.822431 0
M  V30 1364 O 137.66 -1.35903 1.08977 0
M  V30 1365 C 134.792 -2.58773 2.21922 0
M  V30 1366 H 135.985 -0.897464 2.86157 0
M  V30 1367 H 133.538 -0.43181 1.50217 0
M  V30 1368 H 134.273 -2.95998 1.32499 0
M  V30 1369 H 134.058 -2.48348 3.03424 0
M  V30 1370 H 135.548 -3.32978 2.52022 0
M  V30 1371 N 135.985 -1.50799 -0.457987 0
M  V30 1372 C 137.233 -1.62121 -1.2067 0
M  V30 1373 C 137.554 -0.329793 -1.92191 0
M  V30 1374 O 136.824 0.653409 -1.84682 0
M  V30 1375 H 135.404 -0.597441 -0.448411 0
M  V30 1376 H 138.066 -1.87637 -0.527096 0
M  V30 1377 H 137.162 -2.43882 -1.94751 0
M  V30 1378 N 137.463 0.71206 -1.40597 0
M  V30 1379 C 138.712 1.46754 -1.38369 0
M  V30 1380 C 139.025 1.95598 0.0097839 0
M  V30 1381 O 140.231 2.71059 0.154677 0
M  V30 1382 C 138.687 2.65289 -2.43207 0
M  V30 1383 C 138.295 2.23301 -3.88382 0
M  V30 1384 C 140.039 3.43008 -2.50091 0
M  V30 1385 C 137.946 3.38696 -4.84808 0
M  V30 1386 H 136.876 0.55118 -0.514506 0
M  V30 1387 H 139.527 0.774616 -1.66349 0
M  V30 1388 H 137.909 3.36769 -2.08332 0
M  V30 1389 H 139.083 1.59218 -4.32419 0
M  V30 1390 H 137.398 1.58618 -3.85006 0
M  V30 1391 H 139.995 4.28881 -3.1932 0
M  V30 1392 H 140.338 3.87065 -1.53253 0
M  V30 1393 H 140.871 2.78574 -2.83974 0
M  V30 1394 H 137.61 2.99668 -5.82992 0
M  V30 1395 H 137.13 4.01683 -4.45433 0
M  V30 1396 H 138.809 4.04712 -5.04794 0
M  V30 1397 N 138.941 1.26152 0.944643 0
M  V30 1398 C 140.357 1.03189 1.21754 0
M  V30 1399 C 140.557 -0.245112 2.00004 0
M  V30 1400 O 139.613 -0.955176 2.33736 0
M  V30 1401 C 140.926 2.26119 1.98219 0
M  V30 1402 C 142.474 2.30984 2.11224 0
M  V30 1403 C 142.949 3.53597 2.91089 0
M  V30 1404 N 144.44 3.54053 2.98664 0
M  V30 1405 C 145.175 4.45593 3.60881 0
M  V30 1406 N 144.671 5.47416 4.24626 0
M  V30 1407 N 146.464 4.33252 3.58119 0
M  V30 1408 H 138.615 2.08177 0.421437 0
M  V30 1409 H 140.878 0.914723 0.248969 0
M  V30 1410 H 140.584 3.18984 1.48128 0
M  V30 1411 H 140.458 2.3009 2.98895 0
M  V30 1412 H 142.845 1.38635 2.60508 0
M  V30 1413 H 142.926 2.31026 1.09821 0
M  V30 1414 H 142.57 4.46273 2.42493 0
M  V30 1415 H 142.5 3.50802 3.92741 0
M  V30 1416 H 144.991 2.80403 2.53343 0
M  V30 1417 H 145.304 6.13459 4.69987 0
M  V30 1418 H 143.649 5.51278 4.23223 0
M  V30 1419 H 146.84 3.52924 3.0751 0
M  V30 1420 H 147.013 5.04786 4.06319 0
M  V30 1421 N 140.419 -1.14872 1.07899 0
M  V30 1422 C 141.382 -2.17986 0.708161 0
M  V30 1423 C 142.382 -1.58775 -0.25442 0
M  V30 1424 O 143.572 -1.74166 -0.034645 0
M  V30 1425 C 140.704 -3.40871 0.0446929 0
M  V30 1426 H 141.897 -2.52306 1.62116 0
M  V30 1427 H 139.45 -1.2943 0.876218 0
M  V30 1428 H 140.185 -3.12124 -0.880281 0
M  V30 1429 H 139.97 -3.8511 0.737091 0
M  V30 1430 H 141.46 -4.17121 -0.19991 0
M  V30 1431 N 141.898 -0.863906 -1.31812 0
M  V30 1432 C 143.146 -0.470904 -1.96537 0
M  V30 1433 C 143.467 0.978771 -1.68657 0
M  V30 1434 O 142.737 1.6853 -0.998717 0
M  V30 1435 H 141.317 -0.171148 -0.72713 0
M  V30 1436 H 143.979 -1.10236 -1.60729 0
M  V30 1437 H 143.075 -0.623616 -3.05806 0
M  V30 1438 N 143.376 1.44774 -0.622745 0
M  V30 1439 C 144.606 2.06187 -0.130532 0
M  V30 1440 C 145.014 1.46547 1.19669 0
M  V30 1441 O 144.357 0.579636 1.74316 0
M  V30 1442 C 144.419 3.59437 0.0674983 0
M  V30 1443 C 144.083 4.41496 -1.18026 0
M  V30 1444 C 145.08 4.75512 -2.102 0
M  V30 1445 C 142.765 4.82007 -1.41333 0
M  V30 1446 C 144.759 5.48912 -3.23998 0
M  V30 1447 C 142.446 5.55157 -2.55429 0
M  V30 1448 C 143.444 5.88528 -3.46589 0
M  V30 1449 O 143.132 6.60191 -4.58697 0
M  V30 1450 H 142.864 0.672045 -0.0730162 0
M  V30 1451 H 145.418 1.86768 -0.854802 0
M  V30 1452 H 143.648 3.77314 0.846825 0
M  V30 1453 H 145.337 4.02642 0.513209 0
M  V30 1454 H 146.103 4.4476 -1.93425 0
M  V30 1455 H 141.982 4.55457 -0.712709 0
M  V30 1456 H 145.526 5.74877 -3.95174 0
M  V30 1457 H 141.423 5.85324 -2.72151 0
M  V30 1458 H 142.191 6.78654 -4.57571 0
M  V30 1459 N 144.854 0.36279 1.53368 0
M  V30 1460 C 145.817 -0.472679 2.24273 0
M  V30 1461 C 146.817 -1.012 1.24961 0
M  V30 1462 O 148.007 -0.898194 1.49259 0
M  V30 1463 C 145.139 -1.66039 2.97731 0
M  V30 1464 H 146.332 0.14773 2.99536 0
M  V30 1465 H 143.885 0.114434 1.55881 0
M  V30 1466 H 144.62 -2.31896 2.26704 0
M  V30 1467 H 144.405 -1.28066 3.70596 0
M  V30 1468 H 145.895 -2.25252 3.51641 0
M  V30 1469 N 146.332 -1.57332 0.0918853 0
M  V30 1470 C 147.609 -1.85691 -0.614668 0
M  V30 1471 C 147.989 -0.988146 -1.86545 0
M  V30 1472 O 147.337 -0.0597055 -2.28422 0
M  V30 1473 C 147.547 -3.36294 -0.933126 0
M  V30 1474 C 148.895 -4.04275 -1.29796 0
M  V30 1475 O 149.919 -3.41157 -1.02424 0
M  V30 1476 O 148.778 -5.1564 -1.81047 0
M  V30 1477 H 145.872 -0.767802 -0.307261 0
M  V30 1478 H 148.418 -1.69244 0.12434 0
M  V30 1479 H 147.19 -3.91273 -0.0456404 0
M  V30 1480 H 146.813 -3.58076 -1.72822 0
M  V30 1481 N 147.81 0.181792 -1.56548 0
M  V30 1482 C 149.058 0.89832 -1.81038 0
M  V30 1483 C 149.379 1.83232 -0.667164 0
M  V30 1484 O 148.649 1.93372 0.313673 0
M  V30 1485 H 147.229 0.33471 -0.667816 0
M  V30 1486 H 149.891 0.184116 -1.94028 0
M  V30 1487 H 148.987 1.4815 -2.74696 0
M  V30 1488 N 149.288 1.51039 0.449983 0
M  V30 1489 C 150.218 1.74379 1.55288 0
M  V30 1490 C 151.199 0.593236 1.5942 0
M  V30 1491 O 152.384 0.834625 1.7535 0
M  V30 1492 C 149.514 1.85728 2.93466 0
M  V30 1493 C 148.468 3.01078 3.04197 0
M  V30 1494 C 147.794 2.97595 4.44231 0
M  V30 1495 C 149.094 4.41254 2.7945 0
M  V30 1496 H 150.788 2.66725 1.36008 0
M  V30 1497 H 148.334 1.2835 0.652864 0
M  V30 1498 H 150.287 2.0064 3.70569 0
M  V30 1499 H 149.011 0.900207 3.13949 0
M  V30 1500 H 147.67 2.85851 2.29531 0
M  V30 1501 H 147.318 1.99691 4.61663 0
M  V30 1502 H 147.018 3.75046 4.52343 0
M  V30 1503 H 148.542 3.14583 5.23326 0
M  V30 1504 H 149.956 4.56897 3.46292 0
M  V30 1505 H 148.353 5.20315 2.98985 0
M  V30 1506 H 149.423 4.52164 1.75144 0
M  V30 1507 N 150.766 -0.704594 1.40972 0
M  V30 1508 C 152.012 -1.46675 1.40051 0
M  V30 1509 C 152.345 -1.94199 0.00641102 0
M  V30 1510 O 151.62 -1.68916 -0.964235 0
M  V30 1511 C 151.903 -2.68505 2.39952 0
M  V30 1512 C 151.756 -2.26805 3.88432 0
M  V30 1513 C 153.075 -3.70686 2.37233 0
M  V30 1514 H 150.194 -0.532015 0.510028 0
M  V30 1515 H 152.836 -0.803255 1.72185 0
M  V30 1516 H 150.986 -3.25114 2.1268 0
M  V30 1517 H 152.658 -1.75592 4.26574 0
M  V30 1518 H 150.901 -1.58685 4.03734 0
M  V30 1519 H 151.572 -3.14181 4.53866 0
M  V30 1520 H 154.048 -3.23731 2.61415 0
M  V30 1521 H 152.924 -4.53553 3.09162 0
M  V30 1522 H 153.185 -4.19754 1.38777 0
M  V30 1523 N 152.244 -1.26651 -0.937939 0
M  V30 1524 C 153.492 -1.12165 -1.68118 0
M  V30 1525 C 153.813 0.334983 -1.92101 0
M  V30 1526 O 153.083 1.23583 -1.52 0
M  V30 1527 H 151.663 -0.412093 -0.623048 0
M  V30 1528 H 154.325 -1.59027 -1.12678 0
M  V30 1529 H 153.421 -1.64289 -2.6536 0
M  V30 1530 N 153.722 1.14298 -1.08507 0
M  V30 1531 C 155.138 1.37347 -0.812901 0
M  V30 1532 C 155.338 1.93052 0.577325 0
M  V30 1533 O 154.394 2.14389 1.33393 0
M  V30 1534 C 155.707 2.33359 -1.89642 0
M  V30 1535 C 157.255 2.46996 -1.92255 0
M  V30 1536 C 157.73 3.46309 -2.99724 0
M  V30 1537 N 159.221 3.53853 -2.98902 0
M  V30 1538 C 159.956 4.3055 -3.787 0
M  V30 1539 N 159.452 5.10482 -4.6838 0
M  V30 1540 N 161.245 4.25757 -3.66998 0
M  V30 1541 H 153.396 0.764867 -1.9815 0
M  V30 1542 H 155.659 0.398966 -0.859959 0
M  V30 1543 H 155.365 1.99565 -2.89597 0
M  V30 1544 H 155.239 3.33274 -1.76659 0
M  V30 1545 H 157.626 2.80081 -0.929445 0
M  V30 1546 H 157.707 1.47039 -2.09316 0
M  V30 1547 H 157.351 3.13957 -3.99241 0
M  V30 1548 H 157.281 4.46049 -2.79907 0
M  V30 1549 H 159.772 2.96812 -2.33904 0
M  V30 1550 H 160.085 5.66284 -5.25873 0
M  V30 1551 H 158.43 5.09747 -4.72422 0
M  V30 1552 H 161.621 3.62383 -2.96304 0
M  V30 1553 H 161.794 4.85279 -4.29427 0
M  V30 1554 N 155.201 0.870884 1.31352 0
M  V30 1555 C 156.164 0.332243 2.26779 0
M  V30 1556 C 157.164 -0.517302 1.52252 0
M  V30 1557 O 158.354 -0.326477 1.71113 0
M  V30 1558 C 155.486 -0.528066 3.36785 0
M  V30 1559 H 156.679 1.17469 2.75937 0
M  V30 1560 H 154.232 0.64655 1.423 0
M  V30 1561 H 154.967 -1.39167 2.92922 0
M  V30 1562 H 154.752 0.0802582 3.92018 0
M  V30 1563 H 156.242 -0.897179 4.07849 0
M  V30 1564 N 156.679 -1.44442 0.630414 0
M  V30 1565 C 157.642 -2.29107 -0.0652523 0
M  V30 1566 C 158.642 -1.41002 -0.772995 0
M  V30 1567 O 159.832 -1.62881 -0.617692 0
M  V30 1568 C 156.964 -3.22564 -1.10296 0
M  V30 1569 H 158.157 -2.92103 0.679401 0
M  V30 1570 H 155.71 -1.51343 0.390517 0
M  V30 1571 H 156.445 -2.64416 -1.87762 0
M  V30 1572 H 156.23 -3.87491 -0.59941 0
M  V30 1573 H 157.72 -3.86167 -1.5895 0
M  V30 1574 N 158.157 -0.370918 -1.53173 0
M  V30 1575 C 159.434 0.273754 -1.93675 0
M  V30 1576 C 159.814 1.65938 -1.3049 0
M  V30 1577 O 159.162 2.23698 -0.465999 0
M  V30 1578 C 159.372 0.318602 -3.47543 0
M  V30 1579 C 160.72 0.556392 -4.20939 0
M  V30 1580 O 161.744 0.399587 -3.53952 0
M  V30 1581 O 160.603 0.862133 -5.39657 0
M  V30 1582 H 157.697 0.165448 -0.810281 0
M  V30 1583 H 160.243 -0.42409 -1.64315 0
M  V30 1584 H 159.015 -0.652687 -3.85818 0
M  V30 1585 H 158.638 1.06212 -3.83151 0
M  V30 1586 N 159.635 1.57281 -0.100228 0
M  V30 1587 C 160.881 1.94826 0.563101 0
M  V30 1588 C 161.214 0.982475 1.67514 0
M  V30 1589 O 160.489 0.0164069 1.94493 0
M  V30 1590 C 160.772 3.42453 1.11346 0
M  V30 1591 C 160.625 4.498 0.00612081 0
M  V30 1592 C 161.944 3.91506 2.01024 0
M  V30 1593 H 159.063 0.708428 0.203221 0
M  V30 1594 H 161.705 1.8922 -0.171979 0
M  V30 1595 H 159.855 3.47361 1.7399 0
M  V30 1596 H 161.527 4.57 -0.628357 0
M  V30 1597 H 159.77 4.28756 -0.659581 0
M  V30 1598 H 160.441 5.50306 0.432109 0
M  V30 1599 H 162.917 3.88784 1.48278 0
M  V30 1600 H 161.793 4.95358 2.36457 0
M  V30 1601 H 162.054 3.31099 2.92961 0
M  V30 1602 N 161.113 -0.173488 1.56642 0
M  V30 1603 C 162.359 -0.891784 1.8214 0
M  V30 1604 C 162.692 -1.8199 0.677736 0
M  V30 1605 O 161.967 -1.91842 -0.320446 0
M  V30 1606 C 162.25 -1.68933 3.18015 0
M  V30 1607 C 162.103 -0.784487 4.42906 0
M  V30 1608 C 163.422 -2.65748 3.50808 0
M  V30 1609 H 160.541 -0.322761 0.662567 0
M  V30 1610 H 163.183 -0.158095 1.89341 0
M  V30 1611 H 161.333 -2.31482 3.12007 0
M  V30 1612 H 163.005 -0.172046 4.60979 0
M  V30 1613 H 161.248 -0.0924117 4.33702 0
M  V30 1614 H 161.919 -1.37799 5.34524 0
M  V30 1615 H 164.395 -2.13327 3.57255 0
M  V30 1616 H 163.271 -3.18619 4.4696 0
M  V30 1617 H 163.532 -3.45842 2.75401 0
M  V30 1618 N 162.591 -1.51276 -0.441967 0
M  V30 1619 C 163.521 -1.752 -1.54361 0
M  V30 1620 C 164.502 -0.601682 -1.59103 0
M  V30 1621 O 165.687 -0.843913 -1.74905 0
M  V30 1622 C 162.817 -1.87282 -2.92477 0
M  V30 1623 C 161.771 -3.02687 -3.02596 0
M  V30 1624 C 161.097 -2.99947 -4.42647 0
M  V30 1625 C 162.397 -4.4273 -2.77106 0
M  V30 1626 H 164.091 -2.67442 -1.34592 0
M  V30 1627 H 161.637 -1.28694 -0.646048 0
M  V30 1628 H 163.59 -2.02602 -3.695 0
M  V30 1629 H 162.314 -0.916844 -3.13467 0
M  V30 1630 H 160.973 -2.87065 -2.28012 0
M  V30 1631 H 160.621 -2.02136 -4.60597 0
M  V30 1632 H 160.321 -3.77439 -4.50348 0
M  V30 1633 H 161.845 -3.17354 -5.2165 0
M  V30 1634 H 163.259 -4.58727 -3.43864 0
M  V30 1635 H 161.656 -5.21893 -2.96222 0
M  V30 1636 H 162.726 -4.53087 -1.72744 0
M  V30 1637 N 164.069 0.697108 -1.41344 0
M  V30 1638 C 165.016 1.81106 -1.43071 0
M  V30 1639 C 165.986 1.63632 -0.285275 0
M  V30 1640 O 167.171 1.84504 -0.486091 0
M  V30 1641 C 164.311 3.18975 -1.31715 0
M  V30 1642 C 163.424 3.47892 -2.56115 0
M  V30 1643 C 162.559 4.75367 -2.37064 0
M  V30 1644 C 161.598 4.97247 -3.56948 0
M  V30 1645 N 160.735 6.15947 -3.36977 0
M  V30 1646 H 165.575 1.78965 -2.38276 0
M  V30 1647 H 163.112 0.873975 -1.18322 0
M  V30 1648 H 165.07 3.98615 -1.23133 0
M  V30 1649 H 163.7 3.20297 -0.401183 0
M  V30 1650 H 162.752 2.62669 -2.75153 0
M  V30 1651 H 164.064 3.59962 -3.45295 0
M  V30 1652 H 163.218 5.63059 -2.25941 0
M  V30 1653 H 161.957 4.65541 -1.45338 0
M  V30 1654 H 160.962 4.08004 -3.68527 0
M  V30 1655 H 162.187 5.08934 -4.49626 0
M  V30 1656 H 160.133 6.07336 -2.47949 0
M  V30 1657 H 160.05 6.28777 -4.19732 0
M  V30 1658 H 161.318 7.06377 -3.29623 0
M  V30 1659 N 165.547 1.27147 0.931209 0
M  V30 1660 C 166.457 1.11372 2.06478 0
M  V30 1661 C 167.473 0.044645 1.73943 0
M  V30 1662 O 168.649 0.250417 1.99837 0
M  V30 1663 C 165.714 0.758838 3.38294 0
M  V30 1664 C 164.775 1.90841 3.84549 0
M  V30 1665 C 164.008 1.57036 5.10074 0
M  V30 1666 O 164.231 0.476645 5.68405 0
M  V30 1667 O 163.165 2.40839 5.51616 0
M  V30 1668 H 166.991 2.06493 2.22698 0
M  V30 1669 H 164.576 1.06301 1.04978 0
M  V30 1670 H 166.458 0.574098 4.17471 0
M  V30 1671 H 165.133 -0.162879 3.2329 0
M  V30 1672 H 164.04 2.14819 3.06274 0
M  V30 1673 H 165.373 2.81021 4.04089 0
M  V30 1674 N 167.025 -1.13721 1.09112 0
M  V30 1675 C 168.273 -1.84559 0.823562 0
M  V30 1676 C 168.594 -1.83754 -0.652658 0
M  V30 1677 O 167.864 -1.29102 -1.47342 0
M  V30 1678 H 166.444 -0.683376 0.301673 0
M  V30 1679 H 169.106 -1.37771 1.37859 0
M  V30 1680 H 168.202 -2.8917 1.17419 0
M  V30 1681 N 168.503 -0.877838 -1.30888 0
M  V30 1682 C 169.919 -0.570844 -1.49042 0
M  V30 1683 C 170.119 0.893159 -1.80624 0
M  V30 1684 O 169.175 1.67485 -1.88958 0
M  V30 1685 C 170.488 -1.47784 -2.61878 0
M  V30 1686 C 172.036 -1.48071 -2.75761 0
M  V30 1687 C 172.511 -2.37347 -3.91702 0
M  V30 1688 N 174.002 -2.35271 -3.99001 0
M  V30 1689 C 174.737 -3.01063 -4.88004 0
M  V30 1690 N 174.233 -3.76055 -5.81854 0
M  V30 1691 N 176.026 -2.90332 -4.81315 0
M  V30 1692 H 168.177 -1.82502 -1.0866 0
M  V30 1693 H 170.44 -0.780797 -0.537644 0
M  V30 1694 H 170.146 -2.51993 -2.45341 0
M  V30 1695 H 170.02 -1.18215 -3.58197 0
M  V30 1696 H 172.407 -0.446166 -2.91708 0
M  V30 1697 H 172.488 -1.81668 -1.80085 0
M  V30 1698 H 172.132 -3.40883 -3.76512 0
M  V30 1699 H 172.062 -2.01071 -4.86701 0
M  V30 1700 H 174.553 -1.80768 -3.3186 0
M  V30 1701 H 174.866 -4.23366 -6.46514 0
M  V30 1702 H 173.211 -3.80163 -5.81808 0
M  V30 1703 H 176.402 -2.31278 -4.06974 0
M  V30 1704 H 176.575 -3.41885 -5.50471 0
M  V30 1705 N 169.982 1.44106 -0.638065 0
M  V30 1706 C 170.929 2.30715 0.062701 0
M  V30 1707 C 171.899 1.43882 0.829883 0
M  V30 1708 O 173.084 1.72775 0.809532 0
M  V30 1709 C 170.224 3.29258 1.03358 0
M  V30 1710 C 169.337 4.31192 0.26409 0
M  V30 1711 C 168.472 5.16825 1.22741 0
M  V30 1712 C 167.511 6.10462 0.447475 0
M  V30 1713 N 166.648 6.8877 1.36161 0
M  V30 1714 H 171.488 2.90096 -0.681781 0
M  V30 1715 H 169.025 1.42925 -0.347988 0
M  V30 1716 H 170.983 3.84886 1.60992 0
M  V30 1717 H 169.613 2.71562 1.74511 0
M  V30 1718 H 168.665 3.77981 -0.428295 0
M  V30 1719 H 169.977 4.97619 -0.343052 0
M  V30 1720 H 169.131 5.77004 1.87487 0
M  V30 1721 H 167.87 4.50488 1.86847 0
M  V30 1722 H 166.875 5.49386 -0.213433 0
M  V30 1723 H 168.1 6.78837 -0.188968 0
M  V30 1724 H 166.046 6.25096 1.98975 0
M  V30 1725 H 165.963 7.51663 0.808656 0
M  V30 1726 H 167.231 7.53467 1.99769 0
M  V30 1727 N 171.46 0.379036 1.52974 0
M  V30 1728 C 172.39 -0.452706 2.29069 0
M  V30 1729 C 173.371 -1.07237 1.32039 0
M  V30 1730 O 174.556 -1.08708 1.60923 0
M  V30 1731 C 171.686 -1.5856 3.08992 0
M  V30 1732 C 170.64 -1.0925 4.13822 0
M  V30 1733 C 169.966 -2.31668 4.81907 0
M  V30 1734 C 171.266 -0.167702 5.22031 0
M  V30 1735 H 172.96 0.182181 2.98845 0
M  V30 1736 H 170.506 0.0890592 1.43724 0
M  V30 1737 H 172.459 -2.1742 3.6098 0
M  V30 1738 H 171.183 -2.24792 2.36931 0
M  V30 1739 H 169.842 -0.526494 3.628 0
M  V30 1740 H 169.49 -2.96386 4.06404 0
M  V30 1741 H 169.19 -1.9934 5.52754 0
M  V30 1742 H 170.714 -2.91189 5.36695 0
M  V30 1743 H 172.128 -0.664186 5.6944 0
M  V30 1744 H 170.525 0.0653265 6.00064 0
M  V30 1745 H 171.595 0.786347 4.78482 0
M  V30 1746 N 172.938 -1.57226 0.108567 0
M  V30 1747 C 174.184 -1.95121 -0.552761 0
M  V30 1748 C 174.517 -0.991345 -1.66991 0
M  V30 1749 O 173.792 -0.0267211 -1.94482 0
M  V30 1750 C 174.075 -3.43039 -1.09528 0
M  V30 1751 C 173.928 -4.49797 0.0177332 0
M  V30 1752 C 175.247 -3.92567 -1.98945 0
M  V30 1753 H 172.366 -0.709496 -0.199461 0
M  V30 1754 H 175.008 -1.89126 0.182011 0
M  V30 1755 H 173.158 -3.48279 -1.72146 0
M  V30 1756 H 174.83 -4.56661 0.652584 0
M  V30 1757 H 173.073 -4.284 0.682309 0
M  V30 1758 H 173.744 -5.50528 -0.402919 0
M  V30 1759 H 176.22 -3.89565 -1.46214 0
M  V30 1760 H 175.096 -4.96605 -2.33827 0
M  V30 1761 H 175.357 -3.32648 -2.91201 0
M  V30 1762 N 174.416 0.165178 -1.56732 0
M  V30 1763 C 175.346 1.20651 -1.99914 0
M  V30 1764 C 176.327 1.45827 -0.875705 0
M  V30 1765 O 177.512 1.57057 -1.14223 0
M  V30 1766 C 174.642 2.54401 -2.36427 0
M  V30 1767 C 173.596 2.43782 -3.51787 0
M  V30 1768 C 172.922 3.82078 -3.7406 0
M  V30 1769 C 174.222 1.93732 -4.85041 0
M  V30 1770 H 175.916 0.847534 -2.87154 0
M  V30 1771 H 173.462 0.40625 -1.38151 0
M  V30 1772 H 175.415 3.27458 -2.65234 0
M  V30 1773 H 174.139 2.92098 -1.46103 0
M  V30 1774 H 172.798 1.73178 -3.23117 0
M  V30 1775 H 172.446 4.17179 -2.81017 0
M  V30 1776 H 172.146 3.7584 -4.51684 0
M  V30 1777 H 173.67 4.56712 -4.05274 0
M  V30 1778 H 175.084 2.56569 -5.12684 0
M  V30 1779 H 173.481 1.98428 -5.66345 0
M  V30 1780 H 174.551 0.891962 -4.76626 0
M  V30 1781 N 175.894 1.51508 0.433938 0
M  V30 1782 C 177.14 1.64588 1.18484 0
M  V30 1783 C 177.473 0.362666 1.90784 0
M  V30 1784 O 176.748 -0.637892 1.83742 0
M  V30 1785 C 177.031 2.85149 2.19913 0
M  V30 1786 C 176.884 4.23456 1.51674 0
M  V30 1787 C 178.203 3.01227 3.20858 0
M  V30 1788 H 175.322 0.598994 0.429389 0
M  V30 1789 H 177.964 1.84002 0.473647 0
M  V30 1790 H 176.114 2.68729 2.80566 0
M  V30 1791 H 177.786 4.51552 0.943322 0
M  V30 1792 H 176.029 4.25998 0.819035 0
M  V30 1793 H 176.7 5.03812 2.2556 0
M  V30 1794 H 179.176 3.16382 2.70263 0
M  V30 1795 H 178.052 3.87141 3.89118 0
M  V30 1796 H 178.313 2.13447 3.8716 0
M  V30 1797 N 177.372 -0.689602 1.41712 0
M  V30 1798 C 178.783 -1.26973 1.36875 0
M  V30 1799 C 179.134 -1.96124 0.054748 0
M  V30 1800 O 178.259 -1.99141 -0.84687 0
M  V30 1801 C 178.854 -2.30912 2.47922 0
M  V30 1802 C 177.413 -2.84486 2.46464 0
M  V30 1803 C 176.56 -1.58603 2.27465 0
M  V30 1804 H 179.511 -0.48396 1.51141 0
M  V30 1805 H 179.532 -3.12331 2.17323 0
M  V30 1806 H 179.044 -1.80554 3.43543 0
M  V30 1807 H 177.145 -3.39005 1.54617 0
M  V30 1808 H 177.258 -3.34511 3.42986 0
M  V30 1809 H 175.622 -1.84632 1.75451 0
M  V30 1810 H 176.405 -1.10233 3.25121 0
M  V30 1811 N 178.85 -1.27639 -0.924453 0
M  V30 1812 C 180.266 -1.05113 -1.20097 0
M  V30 1813 C 180.466 0.213262 -2.00368 0
M  V30 1814 O 179.522 0.91787 -2.35226 0
M  V30 1815 C 180.835 -2.29244 -1.94596 0
M  V30 1816 C 182.383 -2.34315 -2.07522 0
M  V30 1817 C 182.858 -3.58183 -2.85427 0
M  V30 1818 N 184.349 -3.5876 -2.92994 0
M  V30 1819 C 185.084 -4.51277 -3.53746 0
M  V30 1820 N 184.58 -5.54102 -4.15863 0
M  V30 1821 N 186.373 -4.38894 -3.51181 0
M  V30 1822 H 178.524 -2.08821 -0.388264 0
M  V30 1823 H 180.787 -0.918568 -0.234385 0
M  V30 1824 H 180.493 -3.21301 -1.43034 0
M  V30 1825 H 180.367 -2.34816 -2.95197 0
M  V30 1826 H 182.754 -1.42762 -2.58269 0
M  V30 1827 H 182.835 -2.32744 -1.06131 0
M  V30 1828 H 182.479 -4.50074 -2.35363 0
M  V30 1829 H 182.409 -3.57006 -3.8711 0
M  V30 1830 H 184.9 -2.84398 -2.4885 0
M  V30 1831 H 185.213 -6.20859 -4.60168 0
M  V30 1832 H 183.558 -5.57941 -4.144 0
M  V30 1833 H 186.749 -3.57772 -3.01856 0
M  V30 1834 H 186.922 -5.11186 -3.98237 0
M  V30 1835 N 180.328 1.1314 -1.09713 0
M  V30 1836 C 181.238 2.22242 -0.751367 0
M  V30 1837 C 182.254 1.72224 0.247938 0
M  V30 1838 O 183.43 2.01205 0.0885463 0
M  V30 1839 C 180.495 3.46231 -0.180274 0
M  V30 1840 C 179.556 4.11125 -1.2359 0
M  V30 1841 C 178.789 5.29195 -0.691966 0
M  V30 1842 O 179.012 5.68342 0.48414 0
M  V30 1843 O 177.946 5.84214 -1.44838 0
M  V30 1844 H 181.772 2.54197 -1.66186 0
M  V30 1845 H 179.357 1.21331 -0.871735 0
M  V30 1846 H 181.239 4.21185 0.134739 0
M  V30 1847 H 179.914 3.1597 0.703185 0
M  V30 1848 H 178.821 3.37985 -1.60366 0
M  V30 1849 H 180.154 4.45524 -2.09211 0
M  V30 1850 N 181.806 0.884767 1.30421 0
M  V30 1851 C 182.739 0.295999 2.26272 0
M  V30 1852 C 183.717 -0.58332 1.51777 0
M  V30 1853 O 184.901 -0.53346 1.80794 0
M  V30 1854 C 182.028 -0.57944 3.33707 0
M  V30 1855 C 181.074 0.230525 4.25877 0
M  V30 1856 S 181.907 1.61867 5.1045 0
M  V30 1857 C 183.063 0.749756 6.21393 0
M  V30 1858 H 183.296 1.10848 2.75862 0
M  V30 1859 H 180.829 0.684178 1.38414 0
M  V30 1860 H 182.787 -1.07879 3.96071 0
M  V30 1861 H 181.448 -1.36601 2.82841 0
M  V30 1862 H 180.641 -0.437542 5.02097 0
M  V30 1863 H 180.243 0.662493 3.68086 0
M  V30 1864 H 182.535 -0.0333547 6.77492 0
M  V30 1865 H 183.478 1.48356 6.92384 0
M  V30 1866 H 183.886 0.310751 5.63644 0
M  V30 1867 N 183.284 -1.43765 0.645699 0
M  V30 1868 C 184.695 -1.85193 0.236719 0
M  V30 1869 C 185.046 -1.54045 -1.21509 0
M  V30 1870 O 184.171 -0.985694 -1.92647 0
M  V30 1871 C 184.766 -3.36151 0.422845 0
M  V30 1872 C 183.325 -3.76338 0.0682492 0
M  V30 1873 C 182.472 -2.67538 0.729306 0
M  V30 1874 H 185.423 -1.34025 0.849883 0
M  V30 1875 H 185.444 -3.79032 -0.333904 0
M  V30 1876 H 184.956 -3.5879 1.47958 0
M  V30 1877 H 183.057 -3.59312 -0.986179 0
M  V30 1878 H 183.17 -4.76603 0.488469 0
M  V30 1879 H 181.534 -2.54176 0.163235 0
M  V30 1880 H 182.317 -2.93006 1.78892 0
M  V30 1881 N 184.763 -0.387143 -1.52771 0
M  V30 1882 C 185.693 0.440551 -2.29306 0
M  V30 1883 C 186.674 1.06535 -1.32606 0
M  V30 1884 O 187.859 1.07853 -1.61497 0
M  V30 1885 C 184.989 1.56919 -3.09829 0
M  V30 1886 C 183.943 1.07054 -4.14395 0
M  V30 1887 C 183.269 2.29109 -4.83129 0
M  V30 1888 C 184.569 0.140015 -5.22112 0
M  V30 1889 H 186.263 -0.198026 -2.98744 0
M  V30 1890 H 183.809 -0.09668 -1.43675 0
M  V30 1891 H 185.762 2.15503 -3.62128 0
M  V30 1892 H 184.486 2.23532 -2.3812 0
M  V30 1893 H 183.145 0.507247 -3.63074 0
M  V30 1894 H 182.793 2.94227 -4.0797 0
M  V30 1895 H 182.493 1.96406 -5.53804 0
M  V30 1896 H 184.017 2.88339 -5.38231 0
M  V30 1897 H 185.431 0.633978 -5.69784 0
M  V30 1898 H 183.828 -0.0971485 -6.00021 0
M  V30 1899 H 184.898 -0.811711 -4.78058 0
M  V30 1900 N 186.241 1.57166 -0.116904 0
M  V30 1901 C 187.466 1.999 0.55271 0
M  V30 1902 C 187.891 0.996039 1.59564 0
M  V30 1903 O 187.249 -0.032556 1.81271 0
M  V30 1904 C 187.297 3.4152 1.15742 0
M  V30 1905 O 186.401 3.44106 2.27299 0
M  V30 1906 H 185.742 0.649447 0.138258 0
M  V30 1907 H 188.272 2.03573 -0.204759 0
M  V30 1908 H 188.282 3.79684 1.49346 0
M  V30 1909 H 186.957 4.14034 0.393493 0
M  V30 1910 H 185.534 3.17759 1.9515 0
M  V30 1911 N 187.719 -0.156864 1.56817 0
M  V30 1912 C 188.947 -0.886316 1.86955 0
M  V30 1913 C 189.362 -1.75185 0.703975 0
M  V30 1914 O 188.719 -1.79555 -0.326552 0
M  V30 1915 C 188.77 -1.75117 3.16253 0
M  V30 1916 O 188.491 -0.920537 4.2832 0
M  V30 1917 C 189.992 -2.58905 3.59837 0
M  V30 1918 H 187.212 -0.25678 0.619923 0
M  V30 1919 H 189.756 -0.152615 2.0393 0
M  V30 1920 H 187.911 -2.43805 3.01062 0
M  V30 1921 H 188.325 -1.51337 5.02192 0
M  V30 1922 H 189.799 -3.1518 4.53172 0
M  V30 1923 H 190.276 -3.34472 2.84649 0
M  V30 1924 H 190.882 -1.95526 3.7769 0
M  V30 1925 N 189.197 -1.51736 -0.425897 0
M  V30 1926 C 190.446 -1.64201 -1.17136 0
M  V30 1927 C 190.759 -0.369705 -1.92074 0
M  V30 1928 O 191.965 -0.373898 -2.68913 0
M  V30 1929 C 190.421 -2.90035 -2.13091 0
M  V30 1930 C 190.029 -4.24312 -1.43747 0
M  V30 1931 C 191.773 -3.1186 -2.87999 0
M  V30 1932 C 189.68 -5.41285 -2.38253 0
M  V30 1933 H 188.61 -0.611624 -0.440944 0
M  V30 1934 H 191.261 -1.78212 -0.437328 0
M  V30 1935 H 189.643 -2.69684 -2.89977 0
M  V30 1936 H 190.817 -4.55086 -0.723408 0
M  V30 1937 H 189.132 -4.08456 -0.809465 0
M  V30 1938 H 191.729 -3.96427 -3.58817 0
M  V30 1939 H 192.072 -2.25403 -3.49999 0
M  V30 1940 H 192.605 -3.32605 -2.18217 0
M  V30 1941 H 189.344 -6.30037 -1.80925 0
M  V30 1942 H 188.864 -5.14872 -3.0768 0
M  V30 1943 H 190.543 -5.73694 -2.99139 0
M  V30 1944 N 190.675 0.682077 -1.42076 0
M  V30 1945 C 191.625 1.78823 -1.41444 0
M  V30 1946 C 192.609 1.58323 -0.28681 0
M  V30 1947 O 193.801 1.68926 -0.528498 0
M  V30 1948 C 190.93 3.17232 -1.3122 0
M  V30 1949 C 190.016 3.4338 -2.489 0
M  V30 1950 N 190.407 3.40152 -3.7434 0
M  V30 1951 C 188.705 3.73986 -2.43003 0
M  V30 1952 C 189.406 3.65581 -4.52466 0
M  V30 1953 N 188.382 3.85989 -3.8277 0
M  V30 1954 H 192.184 1.7471 -2.36334 0
M  V30 1955 H 189.698 0.882622 -1.36321 0
M  V30 1956 H 191.695 3.96489 -1.2885 0
M  V30 1957 H 190.355 3.22547 -0.373263 0
M  V30 1958 H 191.366 3.20221 -4.07037 0
M  V30 1959 H 188.043 3.86591 -1.57651 0
M  V30 1960 H 189.433 3.69108 -5.61435 0
M  V30 1961 N 192.153 1.28127 0.917671 0
M  V30 1962 C 193.083 1.14248 2.03641 0
M  V30 1963 C 194.064 0.0412748 1.7005 0
M  V30 1964 O 195.249 0.217566 1.92977 0
M  V30 1965 C 192.379 0.799431 3.37974 0
M  V30 1966 C 191.333 1.85497 3.85713 0
M  V30 1967 C 190.659 1.36565 5.16966 0
M  V30 1968 C 191.959 3.26085 4.08002 0
M  V30 1969 H 193.653 2.07835 2.15511 0
M  V30 1970 H 191.199 1.00064 1.03553 0
M  V30 1971 H 193.152 0.689114 4.15727 0
M  V30 1972 H 191.876 -0.172145 3.26146 0
M  V30 1973 H 190.535 1.95437 3.10161 0
M  V30 1974 H 190.183 0.383253 5.01538 0
M  V30 1975 H 189.883 2.07143 5.49878 0
M  V30 1976 H 191.407 1.26848 5.97279 0
M  V30 1977 H 192.821 3.19089 4.76293 0
M  V30 1978 H 191.218 3.94462 4.52238 0
M  V30 1979 H 192.288 3.70394 3.12948 0
M  V30 1980 N 193.631 -1.12557 1.10312 0
M  V30 1981 C 194.541 -2.21841 0.763142 0
M  V30 1982 C 195.557 -1.72354 -0.238801 0
M  V30 1983 O 196.733 -2.01249 -0.0778746 0
M  V30 1984 C 193.798 -3.46131 0.198632 0
M  V30 1985 C 192.859 -4.10464 1.25769 0
M  V30 1986 C 192.092 -5.28821 0.72002 0
M  V30 1987 O 192.315 -5.6859 -0.453993 0
M  V30 1988 O 191.249 -5.83437 1.47935 0
M  V30 1989 H 195.075 -2.53312 1.67532 0
M  V30 1990 H 192.66 -1.20867 0.878157 0
M  V30 1991 H 194.542 -4.2125 -0.112401 0
M  V30 1992 H 193.217 -3.16338 -0.686419 0
M  V30 1993 H 192.124 -3.3713 1.62156 0
M  V30 1994 H 193.457 -4.44408 2.11571 0
M  V30 1995 N 195.109 -0.891671 -1.2995 0
M  V30 1996 C 196.057 -0.353066 -2.29905 0
M  V30 1997 C 197.051 0.543509 -1.60444 0
M  V30 1998 O 198.257 0.4272 -1.74857 0
M  V30 1999 H 194.632 -0.095531 -0.745907 0
M  V30 2000 H 196.603 -1.20961 -2.72784 0
M  V30 2001 C 195.352 0.411475 -3.45257 0
M  V30 2002 H 194.675 -0.269182 -3.98893 0
M  V30 2003 H 196.115 0.753328 -4.17254 0
M  V30 2004 C 194.574 1.6111 -2.9588 0
M  V30 2005 O 195.104 2.71045 -2.96475 0
M  V30 2006 N 193.31 1.45054 -2.51809 0
M  V30 2007 H 192.857 0.556175 -2.51524 0
M  V30 2008 H 192.815 2.25453 -2.1913 0
M  V30 2009 N 196.587 1.43421 -0.653314 0
M  V30 2010 C 197.52 2.2803 0.0879804 0
M  V30 2011 C 198.498 1.39833 0.82979 0
M  V30 2012 O 199.682 1.69275 0.829341 0
M  V30 2013 C 196.809 3.19247 1.13132 0
M  V30 2014 C 195.855 4.23704 0.487546 0
M  V30 2015 S 196.688 5.30377 -0.738961 0
M  V30 2016 C 197.844 6.25162 0.30384 0
M  V30 2017 H 198.077 2.90554 -0.629739 0
M  V30 2018 H 195.61 1.47934 -0.442156 0
M  V30 2019 H 197.568 3.72346 1.72827 0
M  V30 2020 H 196.229 2.55901 1.82136 0
M  V30 2021 H 195.422 4.87631 1.27407 0
M  V30 2022 H 195.024 3.73983 -0.0352915 0
M  V30 2023 H 197.316 6.67321 1.17 0
M  V30 2024 H 198.259 7.07463 -0.300402 0
M  V30 2025 H 198.667 5.60864 0.63969 0
M  V30 2026 N 198.065 0.39524 1.52563 0
M  V30 2027 C 198.995 -0.428384 2.29537 0
M  V30 2028 C 199.976 -1.05831 1.33169 0
M  V30 2029 O 201.161 -1.06995 1.62067 0
M  V30 2030 C 198.291 -1.55274 3.10656 0
M  V30 2031 C 197.245 -1.04855 4.14957 0
M  V30 2032 C 196.571 -2.26543 4.84337 0
M  V30 2033 C 197.871 -0.112324 5.22179 0
M  V30 2034 H 199.565 0.213867 2.98635 0
M  V30 2035 H 197.111 0.104298 1.43622 0
M  V30 2036 H 199.064 -2.1358 3.63265 0
M  V30 2037 H 197.788 -2.22266 2.39302 0
M  V30 2038 H 196.447 -0.487985 3.63338 0
M  V30 2039 H 196.095 -2.92059 4.09525 0
M  V30 2040 H 195.795 -1.93466 5.54837 0
M  V30 2041 H 197.319 -2.85481 5.39753 0
M  V30 2042 H 198.733 -0.603752 5.70112 0
M  V30 2043 H 197.13 0.128968 5.99961 0
M  V30 2044 H 198.2 0.837052 4.77621 0
M  V30 2045 N 199.544 -1.57102 0.125237 0
M  V30 2046 C 200.507 -2.14471 -0.80838 0
M  V30 2047 C 201.507 -1.0811 -1.19033 0
M  V30 2048 O 202.697 -1.33856 -1.11482 0
M  V30 2049 C 199.829 -2.69005 -2.09402 0
M  V30 2050 H 201.022 -2.98297 -0.309696 0
M  V30 2051 H 198.575 -1.55807 -0.124051 0
M  V30 2052 H 199.31 -1.88785 -2.63687 0
M  V30 2053 H 199.095 -3.46799 -1.82957 0
M  V30 2054 H 200.585 -3.13278 -2.76128 0
M  V30 2055 N 201.022 0.148545 -1.56898 0
M  V30 2056 C 201.952 1.18524 -2.01182 0
M  V30 2057 C 202.933 1.4489 -0.891123 0
M  V30 2058 O 204.118 1.55836 -1.15882 0
M  V30 2059 C 201.248 2.51879 -2.39112 0
M  V30 2060 C 200.202 2.40038 -3.54353 0
M  V30 2061 C 199.528 3.78089 -3.78091 0
M  V30 2062 C 200.828 1.88577 -4.87069 0
M  V30 2063 H 202.522 0.817029 -2.88036 0
M  V30 2064 H 200.068 0.391575 -1.38574 0
M  V30 2065 H 202.021 3.24627 -2.68692 0
M  V30 2066 H 200.745 2.90532 -1.49193 0
M  V30 2067 H 199.404 1.69742 -3.24936 0
M  V30 2068 H 199.052 4.14175 -2.85426 0
M  V30 2069 H 198.752 3.71028 -4.55645 0
M  V30 2070 H 200.276 4.52387 -4.10095 0
M  V30 2071 H 201.69 2.51117 -5.15377 0
M  V30 2072 H 200.087 1.9241 -5.68417 0
M  V30 2073 H 201.157 0.84136 -4.77545 0
M  V30 2074 N 202.5 1.5196 0.417844 0
M  V30 2075 C 203.725 1.69717 1.1921 0
M  V30 2076 C 204.15 0.402148 1.83751 0
M  V30 2077 O 203.508 -0.639593 1.69643 0
M  V30 2078 C 203.556 2.82794 2.2374 0
M  V30 2079 O 202.66 2.47756 3.29683 0
M  V30 2080 H 202.001 0.565263 0.348387 0
M  V30 2081 H 204.531 1.98621 0.490985 0
M  V30 2082 H 204.541 3.07452 2.68212 0
M  V30 2083 H 203.216 3.76756 1.76146 0
M  V30 2084 H 201.793 2.33739 2.90552 0
M  V30 2085 N 203.978 -0.674533 1.42435 0
M  V30 2086 C 205.394 -0.98769 1.25367 0
M  V30 2087 C 205.594 -2.00879 0.158044 0
M  V30 2088 O 204.65 -2.48075 -0.470633 0
M  V30 2089 C 205.963 -1.49224 2.6106 0
M  V30 2090 C 207.511 -1.61 2.68417 0
M  V30 2091 C 207.986 -2.14852 4.04478 0
M  V30 2092 N 209.477 -2.22185 4.06434 0
M  V30 2093 C 210.212 -2.64928 5.08528 0
M  V30 2094 N 209.708 -3.07121 6.21006 0
M  V30 2095 N 211.501 -2.64679 4.95885 0
M  V30 2096 H 203.652 0.00152503 2.124 0
M  V30 2097 H 205.915 -0.0618434 0.945981 0
M  V30 2098 H 205.621 -0.816453 3.42092 0
M  V30 2099 H 205.495 -2.47094 2.84999 0
M  V30 2100 H 207.882 -2.27686 1.87732 0
M  V30 2101 H 207.963 -0.616195 2.48267 0
M  V30 2102 H 207.607 -1.48775 4.85622 0
M  V30 2103 H 207.537 -3.15024 4.2198 0
M  V30 2104 H 210.028 -1.92435 3.25234 0
M  V30 2105 H 210.341 -3.38423 6.94759 0
M  V30 2106 H 208.686 -3.04978 6.24511 0
M  V30 2107 H 211.877 -2.31078 4.07088 0
M  V30 2108 H 212.05 -2.9767 5.75584 0
M  V30 2109 N 205.456 -1.28612 -0.910864 0
M  V30 2110 C 206.389 -1.07109 -2.01502 0
M  V30 2111 C 207.367 0.013706 -1.62594 0
M  V30 2112 O 208.551 -0.134796 -1.88017 0
M  V30 2113 C 205.678 -0.628255 -3.32822 0
M  V30 2114 C 204.724 -1.71012 -3.90714 0
M  V30 2115 S 205.557 -3.30676 -4.21205 0
M  V30 2116 C 206.713 -2.88234 -5.55583 0
M  V30 2117 H 206.946 -2.00591 -2.19432 0
M  V30 2118 H 204.479 -1.12633 -1.05609 0
M  V30 2119 H 206.437 -0.37946 -4.08742 0
M  V30 2120 H 205.098 0.28678 -3.12788 0
M  V30 2121 H 204.291 -1.35195 -4.85529 0
M  V30 2122 H 203.893 -1.91186 -3.21441 0
M  V30 2123 H 206.185 -2.34584 -6.35591 0
M  V30 2124 H 207.128 -3.81857 -5.96314 0
M  V30 2125 H 207.536 -2.26862 -5.16908 0
M  V30 2126 N 206.934 1.1197 -1.10907 0
M  V30 2127 C 208.182 1.83225 -0.852819 0
M  V30 2128 C 208.503 1.84769 0.623341 0
M  V30 2129 O 207.773 1.3143 1.45269 0
M  V30 2130 H 206.353 0.67849 -0.312507 0
M  V30 2131 H 209.015 1.3556 -1.40033 0
M  V30 2132 H 208.111 2.87265 -1.22005 0
M  V30 2133 N 208.412 0.89855 1.29475 0
M  V30 2134 C 209.658 0.524658 1.95896 0
M  V30 2135 C 209.991 -0.926468 1.70676 0
M  V30 2136 O 209.266 -1.65665 1.01908 0
M  V30 2137 C 209.549 0.81633 3.50725 0
M  V30 2138 C 209.402 2.31907 3.85408 0
M  V30 2139 C 210.721 0.302038 4.39062 0
M  V30 2140 H 207.84 0.19209 0.711527 0
M  V30 2141 H 210.482 1.12502 1.53112 0
M  V30 2142 H 208.632 0.305369 3.87298 0
M  V30 2143 H 210.304 2.89949 3.58786 0
M  V30 2144 H 208.547 2.78027 3.32992 0
M  V30 2145 H 209.218 2.47373 4.93468 0
M  V30 2146 H 211.694 0.739551 4.09475 0
M  V30 2147 H 210.57 0.535331 5.46283 0
M  V30 2148 H 210.831 -0.797216 4.34853 0
M  V30 2149 N 209.89 -1.43072 0.660911 0
M  V30 2150 C 210.853 -2.29194 -0.0166406 0
M  V30 2151 C 211.853 -1.42609 -0.742912 0
M  V30 2152 O 213.043 -1.64155 -0.583004 0
M  V30 2153 C 210.175 -3.24831 -1.0343 0
M  V30 2154 H 211.368 -2.90596 0.741208 0
M  V30 2155 H 208.921 -1.5048 0.422532 0
M  V30 2156 H 209.656 -2.68339 -1.82111 0
M  V30 2157 H 209.441 -3.88676 -0.517082 0
M  V30 2158 H 210.931 -3.89451 -1.50723 0
M  V30 2159 N 211.368 -0.403325 -1.52352 0
M  V30 2160 C 212.301 0.469463 -2.23319 0
M  V30 2161 C 213.279 1.05272 -1.23922 0
M  V30 2162 O 214.463 1.10169 -1.52954 0
M  V30 2163 C 211.59 1.6511 -2.9573 0
M  V30 2164 C 210.636 1.19178 -4.0951 0
M  V30 2165 S 211.469 0.161718 -5.35256 0
M  V30 2166 C 212.625 1.34882 -6.11194 0
M  V30 2167 H 212.858 -0.133134 -2.97002 0
M  V30 2168 H 210.391 -0.187588 -1.53256 0
M  V30 2169 H 212.349 2.3287 -3.38056 0
M  V30 2170 H 211.01 2.22503 -2.21701 0
M  V30 2171 H 210.203 2.07444 -4.59329 0
M  V30 2172 H 209.805 0.592911 -3.6927 0
M  V30 2173 H 212.097 2.27345 -6.38217 0
M  V30 2174 H 213.04 0.89128 -7.02468 0
M  V30 2175 H 213.448 1.57198 -5.42171 0
M  V30 2176 N 212.846 1.57033 -0.133567 0
M  V30 2177 C 214.092 1.95976 0.521649 0
M  V30 2178 C 214.425 1.01779 1.65393 0
M  V30 2179 O 213.7 0.0576581 1.94415 0
M  V30 2180 C 213.983 3.44738 1.04057 0
M  V30 2181 C 213.836 4.49711 -0.0892897 0
M  V30 2182 C 215.155 3.95682 1.92675 0
M  V30 2183 H 212.274 0.712579 0.188149 0
M  V30 2184 H 214.916 1.88813 -0.212076 0
M  V30 2185 H 213.066 3.50973 1.66583 0
M  V30 2186 H 214.738 4.55565 -0.725152 0
M  V30 2187 H 212.981 4.27261 -0.750378 0
M  V30 2188 H 213.652 5.51099 0.315284 0
M  V30 2189 H 216.128 3.91841 1.39998 0
M  V30 2190 H 215.004 5.00262 2.25897 0
M  V30 2191 H 215.265 3.37239 2.85872 0
M  V30 2192 N 214.325 -0.140222 1.56975 0
M  V30 2193 C 215.736 -0.699596 1.73097 0
M  V30 2194 C 216.087 -1.8134 0.749022 0
M  V30 2195 O 215.212 -2.16241 -0.0828503 0
M  V30 2196 C 215.807 -1.27582 3.1386 0
M  V30 2197 C 214.366 -1.78169 3.31561 0
M  V30 2198 C 213.513 -0.672855 2.69013 0
M  V30 2199 H 216.464 0.0855115 1.58469 0
M  V30 2200 H 216.485 -2.14561 3.14235 0
M  V30 2201 H 215.997 -0.464955 3.85305 0
M  V30 2202 H 214.098 -2.61801 2.65124 0
M  V30 2203 H 214.211 -1.90574 4.39566 0
M  V30 2204 H 212.575 -1.10118 2.29665 0
M  V30 2205 H 213.358 0.126679 3.43066 0
M  V30 2206 N 215.803 -1.52179 -0.40978 0
M  V30 2207 C 217.214 -1.58377 -0.988615 0
M  V30 2208 C 217.565 -0.423879 -1.91566 0
M  V30 2209 O 216.69 0.455844 -2.11544 0
M  V30 2210 C 217.285 -2.87044 -1.79976 0
M  V30 2211 C 215.844 -2.95722 -2.32863 0
M  V30 2212 C 214.991 -2.53309 -1.12828 0
M  V30 2213 H 217.942 -1.57558 -0.190039 0
M  V30 2214 H 217.963 -2.7236 -2.65707 0
M  V30 2215 H 217.475 -3.71444 -1.12478 0
M  V30 2216 H 215.576 -2.15814 -3.03735 0
M  V30 2217 H 215.689 -3.99951 -2.63773 0
M  V30 2218 H 214.053 -2.07142 -1.48204 0
M  V30 2219 H 214.836 -3.40082 -0.46897 0
M  V30 2220 N 217.281 0.66697 -1.42791 0
M  V30 2221 C 218.214 1.79177 -1.41318 0
M  V30 2222 C 219.192 1.60234 -0.276401 0
M  V30 2223 O 220.376 1.82602 -0.46785 0
M  V30 2224 C 217.503 3.16289 -1.21157 0
M  V30 2225 C 216.549 3.53964 -2.37932 0
M  V30 2226 S 217.382 3.55501 -4.00474 0
M  V30 2227 C 218.538 4.95292 -3.8267 0
M  V30 2228 H 218.771 1.80153 -2.365 0
M  V30 2229 H 216.304 0.838357 -1.29657 0
M  V30 2230 H 218.262 3.95428 -1.10212 0
M  V30 2231 H 216.923 3.1289 -0.275481 0
M  V30 2232 H 216.116 4.53646 -2.19594 0
M  V30 2233 H 215.718 2.82204 -2.45432 0
M  V30 2234 H 218.01 5.83584 -3.44145 0
M  V30 2235 H 218.953 5.18679 -4.82055 0
M  V30 2236 H 219.361 4.68179 -3.15386 0
M  V30 2237 N 218.759 1.29093 0.90403 0
M  V30 2238 C 220.17 1.15186 1.46932 0
M  V30 2239 C 220.521 -0.254587 1.94541 0
M  V30 2240 O 219.646 -1.14972 1.83332 0
M  V30 2241 C 220.241 2.08492 2.67051 0
M  V30 2242 C 218.8 1.98621 3.19729 0
M  V30 2243 C 217.947 1.9967 1.92425 0
M  V30 2244 H 220.898 1.41641 0.715789 0
M  V30 2245 H 220.919 1.65461 3.42641 0
M  V30 2246 H 220.431 3.10847 2.3237 0
M  V30 2247 H 218.532 0.993389 3.59114 0
M  V30 2248 H 218.645 2.86068 3.8432 0
M  V30 2249 H 217.009 1.44208 2.09943 0
M  V30 2250 H 217.792 3.03721 1.60026 0
M  V30 2251 N 220.237 -1.11381 1.11499 0
M  V30 2252 C 221.2 -2.15622 0.777153 0
M  V30 2253 C 222.2 -1.59504 -0.203779 0
M  V30 2254 O 223.39 -1.74188 0.020782 0
M  V30 2255 C 220.522 -3.40556 0.153116 0
M  V30 2256 H 221.715 -2.47021 1.70061 0
M  V30 2257 H 219.268 -1.26577 0.916952 0
M  V30 2258 H 220.003 -3.14767 -0.780536 0
M  V30 2259 H 219.788 -3.8257 0.859238 0
M  V30 2260 H 221.278 -4.17546 -0.0671044 0
M  V30 2261 N 221.715 -0.905404 -1.28997 0
M  V30 2262 C 222.962 -0.534248 -1.95325 0
M  V30 2263 C 223.29 0.920535 -1.71337 0
M  V30 2264 O 222.545 1.66861 -1.02254 0
M  V30 2265 C 222.844 -0.779906 -3.48787 0
M  V30 2266 C 222.51 -2.21293 -3.92861 0
M  V30 2267 C 221.172 -2.60475 -4.04606 0
M  V30 2268 C 223.524 -3.14587 -4.15553 0
M  V30 2269 C 220.852 -3.9212 -4.36416 0
M  V30 2270 C 223.204 -4.45787 -4.48839 0
M  V30 2271 C 221.868 -4.84834 -4.58794 0
M  V30 2272 H 221.138 -0.195495 -0.714747 0
M  V30 2273 H 223.785 -1.14514 -1.53488 0
M  V30 2274 H 222.09 -0.0861365 -3.91705 0
M  V30 2275 H 223.787 -0.472029 -3.98212 0
M  V30 2276 H 220.377 -1.89887 -3.84241 0
M  V30 2277 H 224.561 -2.85528 -4.0594 0
M  V30 2278 H 219.817 -4.22086 -4.42327 0
M  V30 2279 H 223.991 -5.18098 -4.65346 0
M  V30 2280 H 221.618 -5.86877 -4.83197 0
M  V30 2281 N 223.193 1.4272 -0.668489 0
M  V30 2282 C 224.423 2.05668 -0.196063 0
M  V30 2283 C 224.831 1.5028 1.14946 0
M  V30 2284 O 224.174 0.6348 1.72383 0
M  V30 2285 C 224.236 3.59469 -0.0468879 0
M  V30 2286 C 223.9 4.37518 -1.32012 0
M  V30 2287 C 224.897 4.68584 -2.25222 0
M  V30 2288 C 222.582 4.77266 -1.56596 0
M  V30 2289 C 224.576 5.38326 -3.41297 0
M  V30 2290 C 222.263 5.4675 -2.72962 0
M  V30 2291 C 223.261 5.77204 -3.65137 0
M  V30 2292 O 222.949 6.45264 -4.79468 0
M  V30 2293 H 222.681 0.669382 -0.0943599 0
M  V30 2294 H 225.235 1.83954 -0.913788 0
M  V30 2295 H 223.465 3.79817 0.726357 0
M  V30 2296 H 225.154 4.04071 0.384852 0
M  V30 2297 H 225.92 4.38382 -2.07477 0
M  V30 2298 H 221.799 4.52959 -0.857249 0
M  V30 2299 H 225.343 5.62014 -4.13263 0
M  V30 2300 H 221.24 5.76369 -2.90635 0
M  V30 2301 H 222.008 6.63753 -4.78931 0
M  V30 2302 N 224.671 0.411399 1.52136 0
M  V30 2303 C 225.619 -0.427633 2.28635 0
M  V30 2304 C 226.613 -1.04383 1.33419 0
M  V30 2305 O 227.819 -0.981772 1.50868 0
M  V30 2306 H 224.194 -0.156689 0.735495 0
M  V30 2307 H 226.165 0.238761 2.97443 0
M  V30 2308 C 224.914 -1.53082 3.12188 0
M  V30 2309 H 224.237 -1.06601 3.85326 0
M  V30 2310 H 225.677 -2.09167 3.68816 0
M  V30 2311 C 224.136 -2.49946 2.25895 0
M  V30 2312 O 224.666 -3.53884 1.90076 0
M  V30 2313 N 222.872 -2.2021 1.8962 0
M  V30 2314 H 222.419 -1.35719 2.18948 0
M  V30 2315 H 222.377 -2.85266 1.32176 0
M  V30 2316 N 226.149 -1.5696 0.141893 0
M  V30 2317 C 227.099 -2.13074 -0.811383 0
M  V30 2318 C 228.083 -1.05726 -1.21288 0
M  V30 2319 O 229.275 -1.31914 -1.18015 0
M  V30 2320 C 226.404 -2.75186 -2.0525 0
M  V30 2321 C 225.49 -3.8965 -1.67432 0
M  V30 2322 N 225.881 -4.95733 -1.0041 0
M  V30 2323 C 224.179 -4.00262 -1.96739 0
M  V30 2324 C 224.88 -5.75858 -0.822345 0
M  V30 2325 N 223.856 -5.26452 -1.3546 0
M  V30 2326 H 227.658 -2.92465 -0.290031 0
M  V30 2327 H 225.172 -1.6229 -0.0598218 0
M  V30 2328 H 227.169 -3.13745 -2.74535 0
M  V30 2329 H 225.829 -1.97266 -2.57907 0
M  V30 2330 H 226.84 -5.13607 -0.665441 0
M  V30 2331 H 223.517 -3.33412 -2.51282 0
M  V30 2332 H 224.907 -6.71254 -0.294496 0
M  V30 2333 N 227.627 0.131896 -1.57047 0
M  V30 2334 C 229.038 0.690407 -1.73465 0
M  V30 2335 C 229.389 1.8094 -0.758629 0
M  V30 2336 O 228.514 2.16282 0.0713813 0
M  V30 2337 C 229.109 1.25916 -3.14532 0
M  V30 2338 C 227.668 1.76409 -3.32501 0
M  V30 2339 C 226.815 0.658579 -2.69366 0
M  V30 2340 H 229.766 -0.0939144 -1.58422 0
M  V30 2341 H 229.787 2.12892 -3.15369 0
M  V30 2342 H 229.299 0.444515 -3.85546 0
M  V30 2343 H 227.4 2.60391 -2.66509 0
M  V30 2344 H 227.513 1.88241 -4.4057 0
M  V30 2345 H 225.877 1.08899 -2.30246 0
M  V30 2346 H 226.66 -0.14487 -3.42994 0
M  V30 2347 N 229.106 1.52395 0.401703 0
M  V30 2348 C 230.016 1.7917 1.51444 0
M  V30 2349 C 231.032 0.677691 1.6026 0
M  V30 2350 O 232.208 0.963909 1.76835 0
M  V30 2351 C 229.273 1.94347 2.87107 0
M  V30 2352 C 228.334 3.18257 2.88116 0
M  V30 2353 C 227.567 3.32701 4.17308 0
M  V30 2354 O 227.79 2.52238 5.11598 0
M  V30 2355 O 226.724 4.25891 4.25324 0
M  V30 2356 H 230.55 2.73633 1.31752 0
M  V30 2357 H 228.135 1.3733 0.588296 0
M  V30 2358 H 230.017 2.06109 3.67555 0
M  V30 2359 H 228.692 1.03073 3.06851 0
M  V30 2360 H 227.599 3.11947 2.06494 0
M  V30 2361 H 228.932 4.09336 2.73322 0
M  V30 2362 N 230.584 -0.659388 1.43143 0
M  V30 2363 C 231.812 -1.44723 1.47861 0
M  V30 2364 C 232.227 -1.88563 0.0945886 0
M  V30 2365 O 231.584 -1.59108 -0.893915 0
M  V30 2366 C 231.635 -2.68627 2.41913 0
M  V30 2367 O 231.356 -2.26623 3.74932 0
M  V30 2368 C 232.857 -3.62045 2.55809 0
M  V30 2369 H 230.077 -0.444801 0.502387 0
M  V30 2370 H 232.621 -0.808916 1.87821 0
M  V30 2371 H 230.776 -3.28613 2.05164 0
M  V30 2372 H 231.19 -3.06745 4.2545 0
M  V30 2373 H 232.664 -4.45666 3.25708 0
M  V30 2374 H 233.141 -4.08981 1.60099 0
M  V30 2375 H 233.747 -3.07944 2.93344 0
M  V30 2376 N 232.062 -1.29571 -0.897171 0
M  V30 2377 C 233.308 -1.17863 -1.65034 0
M  V30 2378 C 233.641 0.268729 -1.92332 0
M  V30 2379 O 232.916 1.19378 -1.53555 0
M  V30 2380 C 233.199 -1.995 -2.99786 0
M  V30 2381 C 233.052 -3.5239 -2.79538 0
M  V30 2382 C 234.371 -1.82335 -4.00552 0
M  V30 2383 H 231.49 -0.429528 -0.598895 0
M  V30 2384 H 234.132 -1.59072 -1.03905 0
M  V30 2385 H 232.282 -1.64485 -3.51962 0
M  V30 2386 H 233.954 -3.97401 -2.34244 0
M  V30 2387 H 232.197 -3.77187 -2.14273 0
M  V30 2388 H 232.868 -4.04787 -3.75302 0
M  V30 2389 H 235.344 -2.12924 -3.57495 0
M  V30 2390 H 234.22 -2.41801 -4.92771 0
M  V30 2391 H 234.481 -0.779209 -4.35179 0
M  V30 2392 N 233.54 1.10788 -1.12088 0
M  V30 2393 C 234.817 1.79136 -0.785476 0
M  V30 2394 C 235.197 1.98246 0.725377 0
M  V30 2395 O 234.545 1.57258 1.65778 0
M  V30 2396 C 234.755 3.12375 -1.55636 0
M  V30 2397 C 236.103 3.8731 -1.74001 0
M  V30 2398 O 237.127 3.22085 -1.52117 0
M  V30 2399 O 235.986 5.04369 -2.10415 0
M  V30 2400 H 233.08 0.776226 -0.285311 0
M  V30 2401 H 235.626 1.1747 -1.2247 0
M  V30 2402 H 234.398 2.93863 -2.5838 0
M  V30 2403 H 234.021 3.81758 -1.11114 0
M  V30 2404 N 235.018 0.912232 1.28515 0
M  V30 2405 C 236.295 0.463597 1.90027 0
M  V30 2406 C 236.675 -1.05753 1.82701 0
M  V30 2407 O 236.023 -1.90492 1.26194 0
M  V30 2408 C 236.233 0.992253 3.34597 0
M  V30 2409 C 237.581 1.04344 4.11579 0
M  V30 2410 O 238.605 0.94079 3.43551 0
M  V30 2411 O 237.464 1.1995 5.33174 0
M  V30 2412 H 234.558 0.146666 0.813891 0
M  V30 2413 H 237.104 1.00292 1.36893 0
M  V30 2414 H 235.876 2.03623 3.34146 0
M  V30 2415 H 235.499 0.433672 3.95228 0
M  V30 2416 N 236.496 -1.42363 0.676048 0
M  V30 2417 C 237.745 -2.00745 0.196037 0
M  V30 2418 C 238.058 -1.54083 -1.20489 0
M  V30 2419 O 239.264 -2.04891 -1.78134 0
M  V30 2420 C 237.72 -3.58651 0.299616 0
M  V30 2421 C 237.328 -4.143 1.70468 0
M  V30 2422 C 239.072 -4.24326 -0.121619 0
M  V30 2423 C 236.979 -5.64574 1.76096 0
M  V30 2424 H 235.909 -0.750787 0.0695301 0
M  V30 2425 H 238.56 -1.63072 0.841412 0
M  V30 2426 H 236.942 -3.93833 -0.413673 0
M  V30 2427 H 238.116 -3.90575 2.44515 0
M  V30 2428 H 236.431 -3.61081 2.07387 0
M  V30 2429 H 239.028 -5.34607 -0.0997362 0
M  V30 2430 H 239.371 -3.99897 -1.15708 0
M  V30 2431 H 239.904 -3.94108 0.540706 0
M  V30 2432 H 236.643 -5.93804 2.77628 0
M  V30 2433 H 236.163 -5.90286 1.06406 0
M  V30 2434 H 237.842 -6.29013 1.51496 0
M  V30 2435 N 237.974 -0.419461 -1.51915 0
M  V30 2436 C 239.22 0.153166 -2.02221 0
M  V30 2437 C 239.553 1.43907 -1.30401 0
M  V30 2438 O 238.828 1.90055 -0.413438 0
M  V30 2439 C 239.111 0.390291 -3.57979 0
M  V30 2440 C 238.964 -0.913014 -4.40436 0
M  V30 2441 C 240.283 1.16794 -4.2432 0
M  V30 2442 H 237.402 0.0541924 -0.735005 0
M  V30 2443 H 240.044 -0.554955 -1.81715 0
M  V30 2444 H 238.194 0.993491 -3.75582 0
M  V30 2445 H 239.866 -1.54882 -4.34522 0
M  V30 2446 H 238.109 -1.52168 -4.06236 0
M  V30 2447 H 238.78 -0.701361 -5.47526 0
M  V30 2448 H 241.256 0.657161 -4.10878 0
M  V30 2449 H 240.132 1.3026 -5.3322 0
M  V30 2450 H 240.393 2.19132 -3.83971 0
M  V30 2451 N 239.452 1.56882 -0.150215 0
M  V30 2452 C 240.402 2.13501 0.800071 0
M  V30 2453 C 241.386 1.06368 1.20726 0
M  V30 2454 O 242.578 1.32538 1.17314 0
M  V30 2455 C 239.707 2.76271 2.03787 0
M  V30 2456 C 238.793 3.90533 1.65364 0
M  V30 2457 N 239.184 4.96259 0.977794 0
M  V30 2458 C 237.482 4.013 1.94613 0
M  V30 2459 C 238.183 5.76286 0.791794 0
M  V30 2460 N 237.159 5.27163 1.32666 0
M  V30 2461 H 240.961 2.92615 0.274517 0
M  V30 2462 H 238.475 1.62319 0.0512144 0
M  V30 2463 H 240.472 3.15197 2.72867 0
M  V30 2464 H 239.132 1.98631 2.56857 0
M  V30 2465 H 240.143 5.13953 0.638193 0
M  V30 2466 H 236.82 3.3474 2.4951 0
M  V30 2467 H 238.21 6.71401 0.258894 0
M  V30 2468 N 240.93 -0.123565 1.57115 0
M  V30 2469 C 241.88 -1.1575 1.96433 0
M  V30 2470 C 242.864 -1.37313 0.838686 0
M  V30 2471 O 244.056 -1.38482 1.10235 0
M  V30 2472 C 241.185 -2.48526 2.36833 0
M  V30 2473 C 240.271 -2.30457 3.5602 0
M  V30 2474 N 240.662 -1.8219 4.71848 0
M  V30 2475 C 238.96 -2.61129 3.61563 0
M  V30 2476 C 239.661 -1.77721 5.53886 0
M  V30 2477 N 238.637 -2.21899 4.96248 0
M  V30 2478 H 242.439 -0.776797 2.83449 0
M  V30 2479 H 239.953 -0.331364 1.58983 0
M  V30 2480 H 241.95 -3.233 2.63216 0
M  V30 2481 H 240.61 -2.87358 1.5118 0
M  V30 2482 H 241.621 -1.51805 4.95152 0
M  V30 2483 H 238.298 -3.03678 2.86507 0
M  V30 2484 H 239.688 -1.41697 6.56789 0
M  V30 2485 N 242.408 -1.52605 -0.393616 0
M  V30 2486 C 243.654 -1.67672 -1.14079 0
M  V30 2487 C 243.987 -0.413121 -1.89755 0
M  V30 2488 O 243.262 0.588952 -1.85369 0
M  V30 2489 C 243.545 -2.9088 -2.12276 0
M  V30 2490 C 243.398 -4.27329 -1.40394 0
M  V30 2491 C 244.717 -3.09628 -3.12759 0
M  V30 2492 H 241.836 -0.610168 -0.413356 0
M  V30 2493 H 244.478 -1.85193 -0.424696 0
M  V30 2494 H 242.628 -2.76073 -2.73342 0
M  V30 2495 H 244.3 -4.53894 -0.82327 0
M  V30 2496 H 242.543 -4.2802 -0.705801 0
M  V30 2497 H 243.214 -5.09615 -2.12123 0
M  V30 2498 H 245.69 -3.23436 -2.61779 0
M  V30 2499 H 244.566 -3.97322 -3.78717 0
M  V30 2500 H 244.827 -2.23637 -3.81365 0
M  V30 2501 N 243.887 0.651787 -1.4349 0
M  V30 2502 C 245.133 1.41376 -1.45398 0
M  V30 2503 C 245.466 1.94041 -0.0784823 0
M  V30 2504 O 244.741 1.72379 0.900878 0
M  V30 2505 C 245.024 2.59414 -2.49752 0
M  V30 2506 C 244.877 2.12232 -3.96582 0
M  V30 2507 C 246.196 3.61626 -2.50827 0
M  V30 2508 H 243.315 0.512719 -0.529422 0
M  V30 2509 H 245.957 0.738796 -1.75048 0
M  V30 2510 H 244.107 3.16997 -2.246 0
M  V30 2511 H 245.779 1.59639 -4.32797 0
M  V30 2512 H 244.022 1.43592 -4.09346 0
M  V30 2513 H 244.693 2.9712 -4.65214 0
M  V30 2514 H 247.169 3.13805 -2.7325 0
M  V30 2515 H 246.045 4.41766 -3.25783 0
M  V30 2516 H 246.306 4.14314 -1.5426 0
M  V30 2517 N 245.365 1.30045 0.890287 0
M  V30 2518 C 246.328 1.15963 1.977 0
M  V30 2519 C 247.328 0.0923777 1.60534 0
M  V30 2520 O 248.518 0.340071 1.70848 0
M  V30 2521 C 245.65 0.775451 3.31963 0
M  V30 2522 H 246.843 2.12502 2.11619 0
M  V30 2523 H 244.396 1.13366 1.07601 0
M  V30 2524 H 245.131 -0.189671 3.23745 0
M  V30 2525 H 244.916 1.54668 3.60306 0
M  V30 2526 H 246.406 0.700251 4.11687 0
M  V30 2527 N 246.843 -1.10192 1.12674 0
M  V30 2528 C 248.259 -1.34235 0.863317 0
M  V30 2529 C 248.459 -1.95062 -0.505277 0
M  V30 2530 O 247.515 -2.19192 -1.25345 0
M  V30 2531 C 248.828 -2.2616 1.98172 0
M  V30 2532 C 250.376 -2.3969 2.0129 0
M  V30 2533 C 250.851 -3.34946 3.1237 0
M  V30 2534 N 252.342 -3.42515 3.11829 0
M  V30 2535 C 253.077 -4.16199 3.94419 0
M  V30 2536 N 252.573 -4.92747 4.87004 0
M  V30 2537 N 254.366 -4.11843 3.82547 0
M  V30 2538 H 246.517 -0.690798 2.00853 0
M  V30 2539 H 248.78 -0.366774 0.874174 0
M  V30 2540 H 248.486 -1.8868 2.96804 0
M  V30 2541 H 248.36 -3.26488 1.88906 0
M  V30 2542 H 250.747 -2.76438 1.03276 0
M  V30 2543 H 250.828 -1.39169 2.14629 0
M  V30 2544 H 250.472 -2.98923 4.10619 0
M  V30 2545 H 250.402 -4.35353 2.96269 0
M  V30 2546 H 252.893 -2.87926 2.44759 0
M  V30 2547 H 253.206 -5.46376 5.46528 0
M  V30 2548 H 251.551 -4.91862 4.91016 0
M  V30 2549 H 254.742 -3.51136 3.0955 0
M  V30 2550 H 254.915 -4.69007 4.47142 0
M  V30 2551 N 248.321 -0.919034 -1.28029 0
M  V30 2552 C 249.567 -0.555757 -1.95036 0
M  V30 2553 C 249.9 0.899198 -1.72128 0
M  V30 2554 O 249.175 1.64023 -1.04531 0
M  V30 2555 C 249.458 -0.872024 -3.49382 0
M  V30 2556 C 249.311 -2.3801 -3.81669 0
M  V30 2557 C 250.63 -0.37185 -4.38526 0
M  V30 2558 H 247.749 -0.203386 -0.708381 0
M  V30 2559 H 250.391 -1.14924 -1.51303 0
M  V30 2560 H 248.541 -0.366946 -3.86763 0
M  V30 2561 H 250.213 -2.9562 -3.54128 0
M  V30 2562 H 248.456 -2.83289 -3.28526 0
M  V30 2563 H 249.127 -2.55192 -4.8947 0
M  V30 2564 H 251.603 -0.804602 -4.08247 0
M  V30 2565 H 250.479 -0.622173 -5.45362 0
M  V30 2566 H 250.74 0.727934 -4.36066 0
M  V30 2567 N 249.799 1.42003 -0.683588 0
M  V30 2568 C 250.729 2.33487 -0.024866 0
M  V30 2569 C 251.71 1.51163 0.779975 0
M  V30 2570 O 252.895 1.79739 0.735362 0
M  V30 2571 C 250.025 3.3487 0.920836 0
M  V30 2572 C 248.979 4.27414 0.223958 0
M  V30 2573 C 248.305 5.19074 1.2832 0
M  V30 2574 C 249.605 5.14445 -0.90242 0
M  V30 2575 H 251.299 2.88819 -0.788921 0
M  V30 2576 H 248.845 1.38873 -0.38083 0
M  V30 2577 H 250.798 3.97787 1.39081 0
M  V30 2578 H 249.522 2.77861 1.71642 0
M  V30 2579 H 248.181 3.65904 -0.225864 0
M  V30 2580 H 247.829 4.58387 2.071 0
M  V30 2581 H 247.529 5.81822 0.821995 0
M  V30 2582 H 249.053 5.84867 1.75392 0
M  V30 2583 H 250.467 5.70998 -0.513272 0
M  V30 2584 H 248.864 5.86072 -1.28997 0
M  V30 2585 H 249.934 4.52322 -1.74737 0
M  V30 2586 N 251.277 0.427512 1.51691 0
M  V30 2587 C 252.554 -0.201684 1.94557 0
M  V30 2588 C 252.934 -1.60981 1.36559 0
M  V30 2589 O 252.282 -2.21814 0.548702 0
M  V30 2590 C 252.492 -0.189394 3.48486 0
M  V30 2591 C 253.84 -0.39978 4.22714 0
M  V30 2592 O 254.864 -0.267945 3.55191 0
M  V30 2593 O 253.723 -0.661249 5.42485 0
M  V30 2594 H 250.817 -0.135261 0.815864 0
M  V30 2595 H 253.363 0.484782 1.62628 0
M  V30 2596 H 252.135 0.795431 3.8313 0
M  V30 2597 H 251.758 -0.919187 3.86829 0
M  V30 2598 N 252.755 -1.56801 0.158532 0
M  V30 2599 C 253.687 -2.14488 -0.807923 0
M  V30 2600 C 254.7 -1.09721 -1.20271 0
M  V30 2601 O 255.889 -1.36956 -1.14478 0
M  V30 2602 C 252.989 -2.66217 -2.09718 0
M  V30 2603 C 252.162 -3.95507 -1.86796 0
M  V30 2604 C 251.221 -4.3243 -2.99818 0
M  V30 2605 O 250.247 -5.00543 -2.71008 0
M  V30 2606 N 251.449 -3.92947 -4.27285 0
M  V30 2607 H 254.214 -2.98042 -0.314816 0
M  V30 2608 H 251.775 -1.61881 -0.0246692 0
M  V30 2609 H 253.767 -2.87924 -2.84398 0
M  V30 2610 H 252.337 -1.87324 -2.50257 0
M  V30 2611 H 251.557 -3.82309 -0.96089 0
M  V30 2612 H 252.845 -4.79972 -1.68833 0
M  V30 2613 H 252.243 -3.38087 -4.53557 0
M  V30 2614 H 250.8 -4.19681 -4.9871 0
M  V30 2615 N 254.233 0.115231 -1.57178 0
M  V30 2616 C 255.48 0.822351 -1.8505 0
M  V30 2617 C 255.808 1.79701 -0.744168 0
M  V30 2618 O 255.063 1.93909 0.26414 0
M  V30 2619 C 255.362 1.60324 -3.19423 0
M  V30 2620 C 255.028 0.772536 -4.44233 0
M  V30 2621 C 253.69 0.543468 -4.78121 0
M  V30 2622 C 256.042 0.193746 -5.2084 0
M  V30 2623 C 253.37 -0.274583 -5.86057 0
M  V30 2624 C 255.722 -0.611517 -6.29637 0
M  V30 2625 C 254.386 -0.850867 -6.62055 0
M  V30 2626 H 253.656 0.30092 -0.677147 0
M  V30 2627 H 256.303 0.0845802 -1.91313 0
M  V30 2628 H 254.608 2.41203 -3.08753 0
M  V30 2629 H 256.305 2.1544 -3.38211 0
M  V30 2630 H 252.895 0.96117 -4.17683 0
M  V30 2631 H 257.079 0.357926 -4.95008 0
M  V30 2632 H 252.335 -0.469206 -6.09597 0
M  V30 2633 H 256.509 -1.06697 -6.88178 0
M  V30 2634 H 254.136 -1.48657 -7.45523 0
M  V30 2635 N 255.711 1.52812 0.385517 0
M  V30 2636 C 256.959 1.67694 1.12797 0
M  V30 2637 C 257.28 0.421115 1.90399 0
M  V30 2638 O 256.55 -0.564551 1.87589 0
M  V30 2639 H 255.13 0.618155 0.419396 0
M  V30 2640 H 257.792 1.89938 0.436972 0
M  V30 2641 H 256.888 2.52896 1.82894 0
M  V30 2642 N 257.189 -0.644168 1.43834 0
M  V30 2643 C 258.119 -1.76814 1.52509 0
M  V30 2644 C 259.1 -1.65823 0.379052 0
M  V30 2645 O 260.285 -1.84781 0.597466 0
M  V30 2646 C 257.415 -3.15288 1.4564 0
M  V30 2647 C 256.369 -3.41053 2.58586 0
M  V30 2648 C 255.695 -4.79421 2.36769 0
M  V30 2649 C 256.995 -3.34902 4.00797 0
M  V30 2650 H 258.689 -1.69812 2.46586 0
M  V30 2651 H 256.235 -0.815542 1.1868 0
M  V30 2652 H 258.188 -3.93681 1.50311 0
M  V30 2653 H 256.912 -3.23043 0.480725 0
M  V30 2654 H 255.571 -2.65035 2.53282 0
M  V30 2655 H 255.219 -4.83863 1.37424 0
M  V30 2656 H 254.919 -4.9762 3.12487 0
M  V30 2657 H 256.443 -5.6006 2.43238 0
M  V30 2658 H 257.857 -4.03218 4.07539 0
M  V30 2659 H 256.254 -3.64637 4.76613 0
M  V30 2660 H 257.324 -2.32928 4.25291 0
M  V30 2661 N 258.668 -1.30515 -0.883378 0
M  V30 2662 C 259.578 -1.18959 -2.02203 0
M  V30 2663 C 260.594 -0.109172 -1.73657 0
M  V30 2664 O 261.77 -0.324413 -1.9877 0
M  V30 2665 C 258.835 -0.883871 -3.35244 0
M  V30 2666 C 257.896 -2.04982 -3.77201 0
M  V30 2667 C 257.129 -1.75859 -5.03894 0
M  V30 2668 O 257.352 -0.687276 -5.66244 0
M  V30 2669 O 256.286 -2.61146 -5.42297 0
M  V30 2670 H 260.112 -2.14616 -2.1488 0
M  V30 2671 H 257.697 -1.10124 -1.0096 0
M  V30 2672 H 259.579 -0.728644 -4.15053 0
M  V30 2673 H 258.254 0.0427798 -3.23672 0
M  V30 2674 H 257.161 -2.26038 -2.9809 0
M  V30 2675 H 258.494 -2.95825 -3.93381 0
M  V30 2676 N 260.146 1.09593 -1.13257 0
M  V30 2677 C 261.096 2.14345 -0.777179 0
M  V30 2678 C 262.08 1.59277 0.227966 0
M  V30 2679 O 263.272 1.76971 0.0321413 0
M  V30 2680 C 260.401 3.42439 -0.242991 0
M  V30 2681 C 259.487 4.04419 -1.27694 0
M  V30 2682 N 259.878 4.40979 -2.47732 0
M  V30 2683 C 258.176 4.31596 -1.12432 0
M  V30 2684 C 258.877 4.89784 -3.13826 0
M  V30 2685 N 257.853 4.87133 -2.41252 0
M  V30 2686 H 261.655 2.40415 -1.69049 0
M  V30 2687 H 259.169 1.26803 -1.01463 0
M  V30 2688 H 261.166 4.16889 0.0298496 0
M  V30 2689 H 259.826 3.17824 0.66467 0
M  V30 2690 H 260.837 4.32396 -2.85051 0
M  V30 2691 H 257.514 4.16595 -0.274684 0
M  V30 2692 H 258.904 5.2755 -4.16102 0
M  V30 2693 N 261.624 0.925811 1.2754 0
M  V30 2694 C 263.035 0.610102 1.7645 0
M  V30 2695 C 263.386 -0.874723 1.75622 0
M  V30 2696 O 262.511 -1.68444 1.35851 0
M  V30 2697 C 263.106 1.10073 3.20421 0
M  V30 2698 C 261.665 0.835723 3.67005 0
M  V30 2699 C 260.812 1.26054 2.46993 0
M  V30 2700 H 263.763 1.10579 1.13833 0
M  V30 2701 H 263.784 0.447557 3.77859 0
M  V30 2702 H 263.296 2.18143 3.20991 0
M  V30 2703 H 261.397 -0.231249 3.71882 0
M  V30 2704 H 261.51 1.45193 4.56569 0
M  V30 2705 H 259.874 0.679111 2.45479 0
M  V30 2706 H 260.657 2.34984 2.50275 0
M  V30 2707 N 263.102 -1.41638 0.69111 0
M  V30 2708 C 264.332 -2.0533 0.228758 0
M  V30 2709 C 264.74 -1.52089 -1.12541 0
M  V30 2710 O 264.083 -0.662145 -1.71351 0
M  V30 2711 C 264.145 -3.59349 0.10407 0
M  V30 2712 C 263.809 -4.35362 1.38956 0
M  V30 2713 C 264.806 -4.64942 2.32648 0
M  V30 2714 C 262.491 -4.74714 1.64169 0
M  V30 2715 C 264.485 -5.32828 3.49818 0
M  V30 2716 C 262.172 -5.42338 2.81625 0
M  V30 2717 C 263.17 -5.71322 3.74273 0
M  V30 2718 O 262.858 -6.37554 4.89673 0
M  V30 2719 H 262.59 -0.667796 0.104997 0
M  V30 2720 H 265.144 -1.82477 0.942938 0
M  V30 2721 H 263.374 -3.80924 -0.665839 0
M  V30 2722 H 265.063 -4.04633 -0.320519 0
M  V30 2723 H 265.829 -4.35025 2.14425 0
M  V30 2724 H 261.708 -4.51538 0.929202 0
M  V30 2725 H 265.252 -5.55368 4.22152 0
M  V30 2726 H 261.149 -5.71673 2.99768 0
M  V30 2727 H 261.917 -6.56049 4.8943 0
M  V30 2728 N 264.58 -0.43555 -1.51462 0
M  V30 2729 C 265.543 0.365137 -2.26273 0
M  V30 2730 C 266.543 0.951227 -1.29647 0
M  V30 2731 O 267.733 0.825958 -1.53374 0
M  V30 2732 C 264.865 1.51645 -3.05314 0
M  V30 2733 H 266.058 -0.290474 -2.9849 0
M  V30 2734 H 263.611 -0.188676 -1.55157 0
M  V30 2735 H 264.346 2.20816 -2.3751 0
M  V30 2736 H 264.131 1.10238 -3.76284 0
M  V30 2737 H 265.621 2.08218 -3.61987 0
M  V30 2738 N 266.058 1.56714 -0.166846 0
M  V30 2739 C 267.474 1.58473 0.189372 0
M  V30 2740 C 267.674 1.18201 1.63189 0
M  V30 2741 O 266.73 0.891528 2.36237 0
M  V30 2742 C 268.043 3.00573 -0.0873872 0
M  V30 2743 C 269.591 3.1299 -0.0252443 0
M  V30 2744 C 270.066 4.57174 -0.274934 0
M  V30 2745 N 271.557 4.62665 -0.222553 0
M  V30 2746 C 272.292 5.72072 -0.389985 0
M  V30 2747 N 271.788 6.90054 -0.616229 0
M  V30 2748 N 273.581 5.61153 -0.326202 0
M  V30 2749 H 265.732 1.8118 -1.10849 0
M  V30 2750 H 267.995 0.839525 -0.440342 0
M  V30 2751 H 267.701 3.34497 -1.0865 0
M  V30 2752 H 267.575 3.72019 0.623037 0
M  V30 2753 H 269.962 2.78895 0.96444 0
M  V30 2754 H 270.043 2.43989 -0.768309 0
M  V30 2755 H 269.687 4.91976 -1.26181 0
M  V30 2756 H 269.617 5.24328 0.48869 0
M  V30 2757 H 272.108 3.77863 -0.0531512 0
M  V30 2758 H 272.421 7.69311 -0.733559 0
M  V30 2759 H 270.766 6.91927 -0.652791 0
M  V30 2760 H 273.957 4.67859 -0.150072 0
M  V30 2761 H 274.13 6.46364 -0.460116 0
M  V30 2762 N 267.536 -0.106894 1.57237 0
M  V30 2763 C 268.952 -0.46078 1.52804 0
M  V30 2764 C 269.152 -1.81184 0.881746 0
M  V30 2765 O 268.208 -2.48102 0.469224 0
M  V30 2766 C 269.521 -0.434127 2.9755 0
M  V30 2767 C 271.069 -0.516821 3.08704 0
M  V30 2768 C 271.544 -0.520436 4.55033 0
M  V30 2769 N 273.035 -0.58153 4.59535 0
M  V30 2770 C 273.77 -0.605973 5.70189 0
M  V30 2771 N 273.266 -0.587331 6.90306 0
M  V30 2772 N 275.059 -0.649895 5.5833 0
M  V30 2773 H 267.21 0.778203 1.9763 0
M  V30 2774 H 269.473 0.288403 0.903066 0
M  V30 2775 H 269.179 0.491197 3.48253 0
M  V30 2776 H 269.053 -1.25748 3.55622 0
M  V30 2777 H 271.44 -1.43256 2.57995 0
M  V30 2778 H 271.521 0.334449 2.53604 0
M  V30 2779 H 271.165 0.391313 5.0639 0
M  V30 2780 H 271.095 -1.38876 5.07958 0
M  V30 2781 H 273.586 -0.60161 3.73081 0
M  V30 2782 H 273.899 -0.60894 7.70397 0
M  V30 2783 H 272.244 -0.554564 6.92784 0
M  V30 2784 H 275.435 -0.661907 4.63397 0
M  V30 2785 H 275.608 -0.665476 6.44574 0
M  V30 2786 N 269.014 -1.53014 -0.377408 0
M  V30 2787 C 270.26 -1.69821 -1.11948 0
M  V30 2788 C 270.615 -0.438581 -1.87335 0
M  V30 2789 O 269.908 0.568094 -1.82984 0
M  V30 2790 C 270.102 -2.87982 -2.11663 0
M  V30 2791 C 269.931 -4.25315 -1.46072 0
M  V30 2792 C 268.701 -4.90354 -1.21986 0
M  V30 2793 C 270.899 -5.06281 -0.904664 0
M  V30 2794 N 268.881 -6.11641 -0.526215 0
M  V30 2795 C 270.252 -6.19069 -0.339726 0
M  V30 2796 C 272.307 -4.91395 -0.8022 0
M  V30 2797 C 271.01 -7.18598 0.317669 0
M  V30 2798 C 273.036 -5.91187 -0.158606 0
M  V30 2799 C 272.398 -7.03289 0.39551 0
M  V30 2800 H 268.497 -0.674785 -0.395207 0
M  V30 2801 H 271.081 -1.90389 -0.407437 0
M  V30 2802 H 269.252 -2.68974 -2.80192 0
M  V30 2803 H 270.984 -2.93669 -2.78461 0
M  V30 2804 H 267.739 -4.49286 -1.49798 0
M  V30 2805 H 268.163 -6.76719 -0.195098 0
M  V30 2806 H 272.805 -4.04925 -1.21639 0
M  V30 2807 H 270.523 -8.04669 0.743836 0
M  V30 2808 H 274.109 -5.81744 -0.0804138 0
M  V30 2809 H 272.989 -7.79183 0.885648 0
M  V30 2810 N 270.492 0.636531 -1.44174 0
M  V30 2811 C 271.424 1.7618 -1.46606 0
M  V30 2812 C 272.437 1.58768 -0.360091 0
M  V30 2813 O 273.626 1.67181 -0.625518 0
M  V30 2814 C 270.726 3.13833 -1.27915 0
M  V30 2815 C 269.899 3.57753 -2.51658 0
M  V30 2816 C 268.958 4.74265 -2.27945 0
M  V30 2817 O 267.984 4.82852 -3.01401 0
M  V30 2818 N 269.186 5.65604 -1.30662 0
M  V30 2819 H 271.951 1.74567 -2.43612 0
M  V30 2820 H 269.512 0.820924 -1.39544 0
M  V30 2821 H 271.504 3.8949 -1.09907 0
M  V30 2822 H 270.074 3.10121 -0.39293 0
M  V30 2823 H 269.294 2.72362 -2.84978 0
M  V30 2824 H 270.582 3.83847 -3.33974 0
M  V30 2825 H 269.98 5.61354 -0.699844 0
M  V30 2826 H 268.537 6.40913 -1.18634 0
M  V30 2827 N 271.97 1.30982 0.876444 0
M  V30 2828 C 273.218 1.20058 1.62575 0
M  V30 2829 C 273.539 -0.242947 1.93481 0
M  V30 2830 O 272.809 -1.1619 1.57724 0
M  V30 2831 H 271.389 0.44135 0.602677 0
M  V30 2832 H 274.051 1.64222 1.04962 0
M  V30 2833 H 273.147 1.76762 2.57219 0
M  V30 2834 N 273.449 -1.08991 1.13837 0
M  V30 2835 C 274.379 -2.17771 0.842507 0
M  V30 2836 C 275.36 -1.6892 -0.20001 0
M  V30 2837 O 276.545 -1.94113 -0.0579731 0
M  V30 2838 C 273.675 -3.4589 0.312644 0
M  V30 2839 C 272.629 -4.08099 1.28992 0
M  V30 2840 C 271.955 -5.31098 0.619623 0
M  V30 2841 C 273.255 -4.50077 2.65005 0
M  V30 2842 H 274.949 -2.42777 1.75213 0
M  V30 2843 H 272.495 -1.16682 0.843875 0
M  V30 2844 H 274.448 -4.21297 0.0933043 0
M  V30 2845 H 273.172 -3.20419 -0.632382 0
M  V30 2846 H 271.831 -3.34717 1.49533 0
M  V30 2847 H 271.479 -5.0191 -0.33102 0
M  V30 2848 H 271.179 -5.73674 1.27167 0
M  V30 2849 H 272.703 -6.09224 0.409669 0
M  V30 2850 H 274.117 -5.16688 2.48407 0
M  V30 2851 H 272.514 -5.03553 3.26427 0
M  V30 2852 H 273.584 -3.62257 3.22332 0
M  V30 2853 N 274.927 -0.932562 -1.27047 0
M  V30 2854 C 276.338 -0.619451 -1.76124 0
M  V30 2855 C 276.689 0.865397 -1.76083 0
M  V30 2856 O 275.814 1.67722 -1.36742 0
M  V30 2857 C 276.409 -1.11771 -3.19832 0
M  V30 2858 C 274.968 -0.855174 -3.66557 0
M  V30 2859 C 274.115 -1.27362 -2.46321 0
M  V30 2860 H 277.066 -1.11181 -1.13245 0
M  V30 2861 H 277.087 -0.46759 -3.77616 0
M  V30 2862 H 276.599 -2.19842 -3.1983 0
M  V30 2863 H 274.7 0.211524 -3.71999 0
M  V30 2864 H 274.813 -1.47613 -4.55793 0
M  V30 2865 H 273.177 -0.692119 -2.45116 0
M  V30 2866 H 273.96 -2.36307 -2.49025 0
M  V30 2867 N 276.405 1.4127 -0.698611 0
M  V30 2868 C 277.337 2.292 0.00399731 0
M  V30 2869 C 278.35 1.44944 0.741279 0
M  V30 2870 O 279.539 1.68416 0.591477 0
M  V30 2871 C 276.639 3.22875 1.02979 0
M  V30 2872 C 275.812 4.35904 0.36151 0
M  V30 2873 C 274.871 5.10134 1.29033 0
M  V30 2874 O 273.897 5.63809 0.781562 0
M  V30 2875 N 275.099 5.17885 2.6225 0
M  V30 2876 H 277.864 2.9014 -0.750921 0
M  V30 2877 H 275.425 1.52455 -0.544882 0
M  V30 2878 H 277.417 3.69404 1.65296 0
M  V30 2879 H 275.987 2.63221 1.68622 0
M  V30 2880 H 275.207 3.91719 -0.441584 0
M  V30 2881 H 276.495 5.08696 -0.103055 0
M  V30 2882 H 275.893 4.7573 3.061 0
M  V30 2883 H 274.45 5.6798 3.19754 0
M  V30 2884 N 277.883 0.443576 1.51229 0
M  V30 2885 C 278.846 -0.353132 2.26463 0
M  V30 2886 C 279.846 -0.944338 1.3015 0
M  V30 2887 O 281.036 -0.817813 1.5381 0
M  V30 2888 C 278.168 -1.50023 3.06114 0
M  V30 2889 H 279.361 0.3063 2.98332 0
M  V30 2890 H 276.914 0.196902 1.55055 0
M  V30 2891 H 277.649 -2.19553 2.38677 0
M  V30 2892 H 277.434 -1.08241 3.76864 0
M  V30 2893 H 278.924 -2.06296 3.63087 0
M  V30 2894 N 279.361 -1.56624 0.175154 0
M  V30 2895 C 280.777 -1.58571 -0.180966 0
M  V30 2896 C 280.977 -1.19065 -1.6256 0
M  V30 2897 O 280.033 -0.904044 -2.35761 0
M  V30 2898 C 281.346 -3.00522 0.103326 0
M  V30 2899 C 282.894 -3.12972 0.0418426 0
M  V30 2900 C 283.369 -4.57022 0.299175 0
M  V30 2901 N 284.86 -4.62541 0.247086 0
M  V30 2902 C 285.595 -5.71857 0.420318 0
M  V30 2903 N 285.091 -6.89717 0.652816 0
M  V30 2904 N 286.884 -5.60972 0.355957 0
M  V30 2905 H 279.035 -1.80589 1.11809 0
M  V30 2906 H 281.298 -0.837178 0.444788 0
M  V30 2907 H 281.004 -3.33916 1.10422 0
M  V30 2908 H 280.878 -3.72344 -0.603299 0
M  V30 2909 H 283.265 -2.79403 -0.949636 0
M  V30 2910 H 283.346 -2.43578 0.781238 0
M  V30 2911 H 282.99 -4.913 1.28788 0
M  V30 2912 H 282.92 -5.24579 -0.460876 0
M  V30 2913 H 285.411 -3.77829 0.0731895 0
M  V30 2914 H 285.724 -7.68911 0.774347 0
M  V30 2915 H 284.069 -6.91572 0.689476 0
M  V30 2916 H 287.26 -4.67773 0.174882 0
M  V30 2917 H 287.433 -6.46111 0.494388 0
M  V30 2918 N 280.839 0.0985539 -1.57292 0
M  V30 2919 C 281.787 1.1387 -2.02821 0
M  V30 2920 C 282.781 1.41676 -0.928666 0
M  V30 2921 O 283.987 1.41398 -1.11385 0
M  V30 2922 H 280.362 0.384419 -0.646317 0
M  V30 2923 H 282.333 0.728347 -2.89375 0
M  V30 2924 C 281.082 2.45166 -2.46554 0
M  V30 2925 H 280.405 2.24613 -3.3074 0
M  V30 2926 H 281.845 3.16456 -2.8219 0
M  V30 2927 C 280.304 3.09216 -1.33742 0
M  V30 2928 O 280.834 3.96163 -0.66464 0
M  V30 2929 N 279.04 2.69413 -1.08928 0
M  V30 2930 H 278.587 1.98801 -1.63817 0
M  V30 2931 H 278.545 3.12594 -0.336458 0
M  V30 2932 N 282.317 1.53212 0.369288 0
M  V30 2933 C 283.564 1.69215 1.11232 0
M  V30 2934 C 283.892 0.442048 1.8941 0
M  V30 2935 O 283.147 -0.575944 1.87033 0
M  V30 2936 C 283.446 2.89101 2.10132 0
M  V30 2937 C 283.112 4.25758 1.48463 0
M  V30 2938 C 281.774 4.6292 1.31372 0
M  V30 2939 C 284.126 5.10757 1.03811 0
M  V30 2940 C 281.454 5.82722 0.68207 0
M  V30 2941 C 283.806 6.31201 0.420487 0
M  V30 2942 C 282.47 6.67079 0.237038 0
M  V30 2943 H 281.74 0.619201 0.407027 0
M  V30 2944 H 284.387 1.87391 0.394552 0
M  V30 2945 H 282.692 2.65421 2.88199 0
M  V30 2946 H 284.389 2.98676 2.6757 0
M  V30 2947 H 280.979 3.96494 1.62758 0
M  V30 2948 H 285.163 4.82599 1.1581 0
M  V30 2949 H 280.419 6.09113 0.528316 0
M  V30 2950 H 284.593 6.96368 0.0662874 0
M  V30 2951 H 282.22 7.59774 -0.254477 0
M  V30 2952 N 283.795 -0.628877 1.44509 0
M  V30 2953 C 285.02 -1.42048 1.5112 0
M  V30 2954 C 285.445 -1.87594 0.137818 0
M  V30 2955 O 284.803 -1.58873 -0.873437 0
M  V30 2956 C 284.851 -2.61541 2.48251 0
M  V30 2957 O 283.955 -3.61453 1.98559 0
M  V30 2958 H 283.296 -0.424942 0.510216 0
M  V30 2959 H 285.826 -0.767374 1.89664 0
M  V30 2960 H 285.836 -3.09057 2.66361 0
M  V30 2961 H 284.511 -2.27736 3.48007 0
M  V30 2962 H 283.088 -3.20731 1.90227 0
M  V30 2963 N 285.273 -1.31445 -0.869486 0
M  V30 2964 C 286.205 -1.14955 -1.98287 0
M  V30 2965 C 287.218 -0.0885037 -1.62559 0
M  V30 2966 O 288.407 -0.336044 -1.75308 0
M  V30 2967 C 285.507 -0.734255 -3.3085 0
M  V30 2968 C 284.68 -1.88042 -3.94917 0
M  V30 2969 C 283.739 -1.4511 -5.05796 0
M  V30 2970 O 282.765 -2.16082 -5.2659 0
M  V30 2971 N 283.967 -0.338763 -5.79511 0
M  V30 2972 H 286.732 -2.10856 -2.12979 0
M  V30 2973 H 284.293 -1.23786 -1.04349 0
M  V30 2974 H 286.285 -0.42975 -4.02412 0
M  V30 2975 H 284.855 0.133158 -3.12316 0
M  V30 2976 H 284.075 -2.35222 -3.1633 0
M  V30 2977 H 285.363 -2.6481 -4.34457 0
M  V30 2978 H 284.761 0.252274 -5.65137 0
M  V30 2979 H 283.318 -0.0937925 -6.51733 0
M  V30 2980 N 286.751 1.08385 -1.14413 0
M  V30 2981 C 287.661 2.18856 -0.844951 0
M  V30 2982 C 288.677 1.73121 0.174668 0
M  V30 2983 O 289.853 2.014 0.00312857 0
M  V30 2984 C 286.918 3.45155 -0.32696 0
M  V30 2985 C 285.979 4.05513 -1.40916 0
M  V30 2986 C 285.212 5.25784 -0.915793 0
M  V30 2987 O 285.435 5.69884 0.242651 0
M  V30 2988 O 284.369 5.77545 -1.69487 0
M  V30 2989 H 288.195 2.46919 -1.76818 0
M  V30 2990 H 285.78 1.17524 -0.922411 0
M  V30 2991 H 287.662 4.21377 -0.0440211 0
M  V30 2992 H 286.337 3.18668 0.568539 0
M  V30 2993 H 285.244 3.30879 -1.74556 0
M  V30 2994 H 286.577 4.3625 -2.27919 0
M  V30 2995 N 288.23 0.939286 1.26551 0
M  V30 2996 C 289.178 0.43815 2.28436 0
M  V30 2997 C 290.172 -0.483587 1.62351 0
M  V30 2998 O 291.378 -0.362009 1.76322 0
M  V30 2999 H 287.753 0.123149 0.741848 0
M  V30 3000 H 289.724 1.31002 2.68106 0
M  V30 3001 C 288.473 -0.283052 3.46546 0
M  V30 3002 H 287.796 0.417043 3.97619 0
M  V30 3003 H 289.236 -0.597948 4.19763 0
M  V30 3004 C 287.695 -1.50018 3.01656 0
M  V30 3005 O 288.225 -2.59855 3.0633 0
M  V30 3006 N 286.431 -1.35608 2.57019 0
M  V30 3007 H 285.978 -0.46244 2.53415 0
M  V30 3008 H 285.936 -2.17165 2.27347 0
M  V30 3009 N 289.708 -1.40897 0.706093 0
M  V30 3010 C 290.618 -2.3455 0.0482286 0
M  V30 3011 C 291.634 -1.56796 -0.754396 0
M  V30 3012 O 292.81 -1.89228 -0.689538 0
M  V30 3013 C 289.875 -3.35625 -0.869303 0
M  V30 3014 C 288.936 -4.29261 -0.0576994 0
M  V30 3015 C 288.169 -5.25508 -0.931531 0
M  V30 3016 O 288.392 -5.27472 -2.17092 0
M  V30 3017 O 287.326 -6.00727 -0.375587 0
M  V30 3018 H 291.152 -2.92407 0.820476 0
M  V30 3019 H 288.737 -1.4193 0.4665 0
M  V30 3020 H 290.619 -3.97635 -1.39514 0
M  V30 3021 H 289.294 -2.80196 -1.62086 0
M  V30 3022 H 288.201 -3.70566 0.512988 0
M  V30 3023 H 289.534 -4.87817 0.655426 0
M  V30 3024 O 291.225 -0.593567 -1.50197 0
M  V30 3025 H 291.916 -0.101366 -1.93435 0
M  V30 END ATOM
M  V30 BEGIN BOND
M  V30 END BOND
M  V30 END CTAB
M  END
$$$$
