drugbank_target|P9WPQ5 ATP-dependent dethiobiotin synthetase BioD (DB03775)
 OpenBabel12092120463D

  0  0  0     0  0            999 V3000
M  V30 BEGIN CTAB
M  V30 COUNTS 3199 3218 0 0 0
M  V30 BEGIN ATOM
M  V30 1 H -0.908 1.98254 -0.117106 0
M  V30 2 N 0 1.576 0 0
M  V30 3 C 0.933 2.03868 1.02534 0
M  V30 4 C 1.911 0.928543 1.3348 0
M  V30 5 O 3.095 1.19667 1.45644 0
M  V30 6 C 0.222 2.43627 2.35294 0
M  V30 7 C -0.732 3.65373 2.2001 0
M  V30 8 S 0.101 5.13292 1.52614 0
M  V30 9 C 1.257 5.56322 2.86805 0
M  V30 10 H 1.49 2.90518 0.631377 0
M  V30 11 H -0.977 1.52953 0.210867 0
M  V30 12 H 0.981 2.67203 3.11629 0
M  V30 13 H -0.358 1.57376 2.7183 0
M  V30 14 H -1.165 3.90944 3.18086 0
M  V30 15 H -1.563 3.418 1.51819 0
M  V30 16 H 0.729 5.58782 3.83104 0
M  V30 17 H 1.672 6.56266 2.65933 0
M  V30 18 H 2.08 4.83886 2.90714 0
M  V30 19 N 1.4781 -0.272755 1.55222 0
M  V30 20 C 2.7061 -1.02255 1.79865 0
M  V30 21 C 3.1211 -1.79924 0.572088 0
M  V30 22 O 2.4781 -1.76638 -0.458842 0
M  V30 23 C 2.5291 -1.98094 3.02392 0
M  V30 24 O 2.2501 -1.23572 4.20311 0
M  V30 25 C 3.7511 -2.84884 3.39641 0
M  V30 26 H 0.9711 -0.302057 0.599168 0
M  V30 27 H 3.5151 -0.303465 2.02236 0
M  V30 28 H 1.6701 -2.65465 2.82147 0
M  V30 29 H 2.0841 -1.88172 4.89583 0
M  V30 30 H 3.5581 -3.47927 4.28545 0
M  V30 31 H 4.0351 -3.54665 2.59055 0
M  V30 32 H 4.6411 -2.23003 3.62146 0
M  V30 33 N 2.9562 -1.48159 -0.537278 0
M  V30 34 C 4.2052 -1.5506 -1.28993 0
M  V30 35 C 4.5182 -0.226211 -1.94288 0
M  V30 36 O 5.7242 -0.173395 -2.70946 0
M  V30 37 C 4.1802 -2.73429 -2.34018 0
M  V30 38 C 3.7882 -4.1248 -1.74825 0
M  V30 39 C 5.5322 -2.89638 -3.10339 0
M  V30 40 C 3.4392 -5.22121 -2.77747 0
M  V30 41 H 2.3692 -0.577231 -0.485098 0
M  V30 42 H 5.0202 -1.74478 -0.568317 0
M  V30 43 H 3.4022 -2.47431 -3.09182 0
M  V30 44 H 4.5762 -4.48466 -1.05899 0
M  V30 45 H 2.8912 -4.01327 -1.11022 0
M  V30 46 H 5.4882 -3.68718 -3.87235 0
M  V30 47 H 5.8312 -1.9882 -3.65754 0
M  V30 48 H 6.3642 -3.15502 -2.42288 0
M  V30 49 H 3.1032 -6.1488 -2.27161 0
M  V30 50 H 2.6232 -4.90631 -3.45024 0
M  V30 51 H 4.3022 -5.49924 -3.4087 0
M  V30 52 N 4.4343 0.785586 -1.36625 0
M  V30 53 C 5.3643 1.91259 -1.33949 0
M  V30 54 C 6.3453 1.68795 -0.210325 0
M  V30 55 O 7.5303 1.89854 -0.408561 0
M  V30 56 C 4.6603 3.28339 -1.13186 0
M  V30 57 C 3.6143 3.65335 -2.22967 0
M  V30 58 C 2.9403 5.00806 -1.87342 0
M  V30 59 C 4.2403 3.7352 -3.65075 0
M  V30 60 H 5.9343 1.93755 -2.28253 0
M  V30 61 H 3.4803 0.930788 -1.09874 0
M  V30 62 H 5.4333 4.06804 -1.09948 0
M  V30 63 H 4.1573 3.2624 -0.153332 0
M  V30 64 H 2.8163 2.89169 -2.25337 0
M  V30 65 H 2.4643 4.95233 -0.880545 0
M  V30 66 H 2.1643 5.26529 -2.60846 0
M  V30 67 H 3.6883 5.81687 -1.85667 0
M  V30 68 H 5.1023 4.42168 -3.64911 0
M  V30 69 H 3.4993 4.10731 -4.37516 0
M  V30 70 H 4.5693 2.74527 -3.99703 0
M  V30 71 N 5.9124 1.20967 1.01018 0
M  V30 72 C 7.1584 1.02526 1.74975 0
M  V30 73 C 7.4914 -0.4408 1.89131 0
M  V30 74 O 6.7664 -1.32718 1.42184 0
M  V30 75 C 7.0494 1.71699 3.1653 0
M  V30 76 C 6.9024 3.25791 3.10129 0
M  V30 77 C 8.2214 1.45531 4.15342 0
M  V30 78 H 5.3404 0.373863 0.635134 0
M  V30 79 H 7.9824 1.49071 1.17805 0
M  V30 80 H 6.1324 1.32128 3.65341 0
M  V30 81 H 7.8044 3.74697 2.69072 0
M  V30 82 H 6.0474 3.56363 2.47362 0
M  V30 83 H 6.7184 3.69353 4.10222 0
M  V30 84 H 9.1944 1.79872 3.75213 0
M  V30 85 H 8.0704 1.96453 5.1254 0
M  V30 86 H 8.3314 0.384237 4.40427 0
M  V30 87 N 7.3905 -1.2043 1.01659 0
M  V30 88 C 8.6365 -1.90079 0.706963 0
M  V30 89 C 8.9695 -1.78648 -0.761474 0
M  V30 90 O 8.2445 -1.17069 -1.55323 0
M  V30 91 C 8.5275 -3.41469 1.14327 0
M  V30 92 C 8.3805 -3.61833 2.67201 0
M  V30 93 C 9.6995 -4.34261 0.714529 0
M  V30 94 H 6.8185 -0.690254 0.2583 0
M  V30 95 H 9.4605 -1.41826 1.26433 0
M  V30 96 H 7.6105 -3.82696 0.669056 0
M  V30 97 H 9.2825 -3.2986 3.22475 0
M  V30 98 H 7.5255 -3.05304 3.08175 0
M  V30 99 H 8.1965 -4.67955 2.92783 0
M  V30 100 H 10.6725 -4.00682 1.12221 0
M  V30 101 H 9.5485 -5.38806 1.04784 0
M  V30 102 H 9.8095 -4.40431 -0.383799 0
M  V30 103 N 8.8686 -0.792821 -1.36206 0
M  V30 104 C 10.0966 -0.378825 -2.03402 0
M  V30 105 C 10.5116 1.00586 -1.59774 0
M  V30 106 O 9.8686 1.64574 -0.788764 0
M  V30 107 C 9.9196 -0.43683 -3.58851 0
M  V30 108 O 9.6406 -1.76691 -4.00889 0
M  V30 109 C 11.1416 -0.0138943 -4.43298 0
M  V30 110 H 8.3616 -0.155673 -0.652692 0
M  V30 111 H 10.9056 -1.07261 -1.74113 0
M  V30 112 H 9.0606 0.208575 -3.86838 0
M  V30 113 H 9.4746 -1.72011 -4.95492 0
M  V30 114 H 10.9486 -0.105615 -5.51899 0
M  V30 115 H 11.4256 1.03915 -4.2673 0
M  V30 116 H 12.0316 -0.63192 -4.20579 0
M  V30 117 N 10.3467 1.47872 -0.545128 0
M  V30 118 C 11.5947 2.02093 -0.016553 0
M  V30 119 C 11.9157 1.42305 1.3332 0
M  V30 120 O 11.1857 0.593853 1.86682 0
M  V30 121 H 9.7657 0.746993 -0.00313038 0
M  V30 122 H 12.4277 1.81414 -0.712397 0
M  V30 123 H 11.5237 3.11996 0.0805422 0
M  V30 124 N 11.8248 0.280983 1.55075 0
M  V30 125 C 13.0528 -0.337293 2.04132 0
M  V30 126 C 13.4678 -1.4903 1.15912 0
M  V30 127 O 12.8248 -1.81606 0.180459 0
M  V30 128 C 12.8758 -0.812706 3.52246 0
M  V30 129 O 12.5968 0.294387 4.3711 0
M  V30 130 C 14.0978 -1.4982 4.17216 0
M  V30 131 H 11.3178 -0.0761638 0.666663 0
M  V30 132 H 13.8618 0.414787 2.00249 0
M  V30 133 H 12.0168 -1.51486 3.56554 0
M  V30 134 H 12.4308 -0.0721325 5.2445 0
M  V30 135 H 13.9048 -1.7822 5.22438 0
M  V30 136 H 14.3818 -2.43168 3.65741 0
M  V30 137 H 14.9878 -0.839742 4.16927 0
M  V30 138 N 13.3029 -1.57598 0.00835791 0
M  V30 139 C 14.5509 -1.90551 -0.6734 0
M  V30 140 C 14.8719 -0.883301 -1.73847 0
M  V30 141 O 14.1419 0.0781442 -1.95744 0
M  V30 142 H 12.7219 -0.703312 -0.251717 0
M  V30 143 H 15.3839 -1.94833 0.0512592 0
M  V30 144 H 14.4799 -2.9056 -1.13935 0
M  V30 145 N 14.781 0.264519 -1.55364 0
M  V30 146 C 16.009 1.013 -1.80405 0
M  V30 147 C 16.424 1.79618 -0.581622 0
M  V30 148 O 15.781 1.76879 0.449468 0
M  V30 149 C 15.832 1.96487 -3.03439 0
M  V30 150 O 15.553 1.21341 -4.20961 0
M  V30 151 C 17.054 2.83079 -3.41147 0
M  V30 152 H 14.274 0.298875 -0.600762 0
M  V30 153 H 16.818 0.292736 -2.02394 0
M  V30 154 H 14.973 2.63965 -2.83551 0
M  V30 155 H 15.387 1.85573 -4.90574 0
M  V30 156 H 16.861 3.4565 -4.30384 0
M  V30 157 H 17.338 3.53286 -2.60932 0
M  V30 158 H 17.944 2.2108 -3.63323 0
M  V30 159 N 16.2591 1.48442 0.529413 0
M  V30 160 C 17.5071 1.56179 1.28267 0
M  V30 161 C 17.8281 0.237721 1.93546 0
M  V30 162 O 17.0981 -0.740779 1.81354 0
M  V30 163 H 15.6781 0.575367 0.476405 0
M  V30 164 H 18.3401 1.84909 0.61602 0
M  V30 165 H 17.4361 2.34312 2.06165 0
M  V30 166 N 17.7372 -0.778329 1.37039 0
M  V30 167 C 18.9832 -1.53892 1.32079 0
M  V30 168 C 19.3162 -1.9396 -0.0965386 0
M  V30 169 O 18.5912 -1.63568 -1.05242 0
M  V30 170 C 18.8742 -2.80847 2.25382 0
M  V30 171 C 18.7272 -2.47076 3.75864 0
M  V30 172 C 20.0462 -3.82741 2.1725 0
M  V30 173 H 17.1652 -0.558303 0.48111 0
M  V30 174 H 19.8072 -0.893397 1.67685 0
M  V30 175 H 17.9572 -3.35931 1.95148 0
M  V30 176 H 19.6292 -1.97957 4.16666 0
M  V30 177 H 17.8722 -1.79863 3.94755 0
M  V30 178 H 18.5432 -3.37798 4.36574 0
M  V30 179 H 21.0192 -3.37133 2.43887 0
M  V30 180 H 19.8952 -4.69303 2.84686 0
M  V30 181 H 20.1562 -4.2652 1.16331 0
M  V30 182 N 19.2153 -1.21501 -1.00376 0
M  V30 183 C 20.4633 -1.03095 -1.73827 0
M  V30 184 C 20.7843 0.436341 -1.90055 0
M  V30 185 O 20.0543 1.31466 -1.45236 0
M  V30 186 H 18.6343 -0.378487 -0.644016 0
M  V30 187 H 21.2963 -1.52831 -1.20949 0
M  V30 188 H 20.3923 -1.49991 -2.73695 0
M  V30 189 N 20.6934 1.19889 -1.02296 0
M  V30 190 C 21.6404 2.22901 -0.598651 0
M  V30 191 C 22.6104 1.61588 0.384521 0
M  V30 192 O 23.7954 1.88697 0.282522 0
M  V30 193 C 20.9354 3.45063 0.0504476 0
M  V30 194 C 20.0484 4.20783 -0.978053 0
M  V30 195 C 19.1834 5.30356 -0.299338 0
M  V30 196 C 18.2224 5.97826 -1.31416 0
M  V30 197 N 17.3594 6.98975 -0.661667 0
M  V30 198 H 22.1994 2.58554 -1.48169 0
M  V30 199 H 19.7364 1.27039 -0.741584 0
M  V30 200 H 21.6944 4.14831 0.443971 0
M  V30 201 H 20.3244 3.10084 0.897097 0
M  V30 202 H 19.3764 3.50018 -1.48969 0
M  V30 203 H 20.6884 4.67109 -1.74958 0
M  V30 204 H 19.8424 6.06516 0.149347 0
M  V30 205 H 18.5814 4.85084 0.504445 0
M  V30 206 H 17.5864 5.20422 -1.77317 0
M  V30 207 H 18.8114 6.45183 -2.11933 0
M  V30 208 H 16.7574 6.55886 0.122132 0
M  V30 209 H 16.6744 7.43461 -1.37117 0
M  V30 210 H 17.9424 7.7914 -0.236785 0
M  V30 211 N 22.1715 0.800033 1.35784 0
M  V30 212 C 23.3995 0.389606 2.03199 0
M  V30 213 C 23.8145 -0.997375 1.60306 0
M  V30 214 O 23.1715 -1.64154 0.797481 0
M  V30 215 C 23.2225 0.455855 3.58614 0
M  V30 216 O 22.9435 1.78815 3.99946 0
M  V30 217 C 24.4445 0.0374032 4.43284 0
M  V30 218 H 21.6645 0.159132 0.651857 0
M  V30 219 H 24.2085 1.08183 1.73541 0
M  V30 220 H 22.3635 -0.188057 3.86943 0
M  V30 221 H 22.7775 1.74636 4.94573 0
M  V30 222 H 24.2515 0.134882 5.51835 0
M  V30 223 H 24.7285 -1.01651 4.27275 0
M  V30 224 H 25.3345 0.654215 4.20238 0
M  V30 225 N 23.6496 -1.47581 0.552962 0
M  V30 226 C 24.8956 -2.02782 0.0273648 0
M  V30 227 C 25.2286 -1.42687 -1.31734 0
M  V30 228 O 24.5036 -0.580897 -1.85623 0
M  V30 229 C 24.7866 -3.60031 -0.0702371 0
M  V30 230 C 24.6396 -4.30566 1.30126 0
M  V30 231 C 25.9586 -4.33028 -0.785771 0
M  V30 232 H 23.0776 -0.736912 0.0114185 0
M  V30 233 H 25.7196 -1.76056 0.714432 0
M  V30 234 H 23.8696 -3.82932 -0.655382 0
M  V30 235 H 25.5416 -4.19018 1.92929 0
M  V30 236 H 23.7846 -3.91086 1.87709 0
M  V30 237 H 24.4556 -5.39114 1.18573 0
M  V30 238 H 26.9316 -4.15095 -0.288982 0
M  V30 239 H 25.8076 -5.42695 -0.823013 0
M  V30 240 H 26.0686 -4.01945 -1.841 0
M  V30 241 N 25.1277 -0.289203 -1.54924 0
M  V30 242 C 26.3737 0.323998 -2.00195 0
M  V30 243 C 26.7067 1.54441 -1.17735 0
M  V30 244 O 25.9817 1.92875 -0.250878 0
M  V30 245 C 26.2647 0.692276 -3.53383 0
M  V30 246 C 26.1177 -0.536457 -4.46589 0
M  V30 247 C 27.4367 1.52335 -4.12895 0
M  V30 248 H 24.5557 0.116289 -0.727768 0
M  V30 249 H 27.1977 -0.398954 -1.85764 0
M  V30 250 H 25.3477 1.30822 -3.65811 0
M  V30 251 H 27.0197 -1.17499 -4.46085 0
M  V30 252 H 25.2627 -1.17192 -4.1767 0
M  V30 253 H 25.9337 -0.234806 -5.515 0
M  V30 254 H 28.4097 1.00302 -4.0383 0
M  V30 255 H 27.2857 1.74982 -5.20262 0
M  V30 256 H 27.5467 2.50886 -3.64018 0
M  V30 257 N 26.6058 1.57591 -0.0167156 0
M  V30 258 C 27.8458 1.93145 0.668902 0
M  V30 259 C 28.2098 0.892406 1.7 0
M  V30 260 O 29.4108 1.13373 2.43721 0
M  V30 261 C 27.6818 3.33678 1.28039 0
M  V30 262 S 29.2408 3.91142 1.9888 0
M  V30 263 H 26.0588 0.67593 0.220545 0
M  V30 264 H 28.6608 1.95347 -0.0774105 0
M  V30 265 H 27.3648 4.07126 0.517339 0
M  V30 266 H 26.8958 3.3489 2.06427 0
M  V30 267 H 28.9108 3.73571 3.26587 0
M  V30 268 N 28.0839 -0.256276 1.55502 0
M  V30 269 C 29.0469 -1.30047 1.88734 0
M  V30 270 C 30.0469 -1.4154 0.763086 0
M  V30 271 O 31.2369 -1.40403 1.03115 0
M  V30 272 C 28.3689 -2.67953 2.10747 0
M  V30 273 H 29.5619 -1.01802 2.82093 0
M  V30 274 H 27.1149 -0.495134 1.4825 0
M  V30 275 H 27.8499 -3.01351 1.19825 0
M  V30 276 H 27.6349 -2.60993 2.92617 0
M  V30 277 H 29.1249 -3.43368 2.37673 0
M  V30 278 N 29.562 -1.4872 -0.521534 0
M  V30 279 C 30.525 -1.63379 -1.60748 0
M  V30 280 C 31.525 -0.50661 -1.52611 0
M  V30 281 O 32.715 -0.772601 -1.5613 0
M  V30 282 C 29.847 -1.61192 -3.00383 0
M  V30 283 H 31.04 -2.60217 -1.49087 0
M  V30 284 H 28.593 -1.37444 -0.744235 0
M  V30 285 H 29.328 -0.65863 -3.17541 0
M  V30 286 H 29.113 -2.43032 -3.07698 0
M  V30 287 H 30.603 -1.7466 -3.7932 0
M  V30 288 N 31.0401 0.771051 -1.3745 0
M  V30 289 C 31.9701 1.89827 -1.3597 0
M  V30 290 C 32.9511 1.68562 -0.228216 0
M  V30 291 O 34.1361 1.8941 -0.428675 0
M  V30 292 C 31.2661 3.2712 -1.16662 0
M  V30 293 C 30.2201 3.6295 -2.2683 0
M  V30 294 C 29.5461 4.98791 -1.92644 0
M  V30 295 C 30.8461 3.69627 -3.69017 0
M  V30 296 H 32.5401 1.91323 -2.30295 0
M  V30 297 H 30.0861 0.919082 -1.10855 0
M  V30 298 H 32.0391 4.05615 -1.14256 0
M  V30 299 H 30.7631 3.26059 -0.187926 0
M  V30 300 H 29.4221 2.86763 -2.28392 0
M  V30 301 H 29.0701 4.94271 -0.933021 0
M  V30 302 H 28.7701 5.23733 -2.66416 0
M  V30 303 H 30.2941 5.79685 -1.91826 0
M  V30 304 H 31.7081 4.38273 -3.69581 0
M  V30 305 H 30.1051 4.06067 -4.41848 0
M  V30 306 H 31.1751 2.70273 -4.02592 0
M  V30 307 N 32.5182 1.22032 0.997298 0
M  V30 308 C 33.4812 0.987909 2.06816 0
M  V30 309 C 34.4812 -0.0440084 1.6074 0
M  V30 310 O 35.6712 0.194053 1.73116 0
M  V30 311 C 32.8032 0.49132 3.37341 0
M  V30 312 H 33.9962 1.93803 2.28868 0
M  V30 313 H 31.5492 1.03838 1.16822 0
M  V30 314 H 32.2842 -0.463364 3.20973 0
M  V30 315 H 32.0692 1.23575 3.72118 0
M  V30 316 H 33.5592 0.348824 4.16141 0
M  V30 317 N 33.9963 -1.19345 1.0293 0
M  V30 318 C 35.2213 -1.93538 0.745511 0
M  V30 319 C 35.6463 -1.75007 -0.689511 0
M  V30 320 O 35.0043 -1.05265 -1.47611 0
M  V30 321 C 35.0523 -3.43336 1.10239 0
M  V30 322 O 34.1563 -4.11806 0.221289 0
M  V30 323 H 33.4973 -0.604193 0.275404 0
M  V30 324 H 36.0273 -1.5141 1.37609 0
M  V30 325 H 36.0373 -3.94004 1.05947 0
M  V30 326 H 34.7123 -3.56146 2.14786 0
M  V30 327 H 33.2893 -3.715 0.322842 0
M  V30 328 N 35.4744 -0.807222 -1.35358 0
M  V30 329 C 36.4374 -0.223665 -2.28106 0
M  V30 330 C 37.4374 0.589354 -1.4961 0
M  V30 331 O 38.6274 0.407745 -1.69361 0
M  V30 332 C 35.7594 0.688149 -3.33882 0
M  V30 333 H 36.9524 -1.04169 -2.81227 0
M  V30 334 H 34.5054 -0.577921 -1.45223 0
M  V30 335 H 35.2404 1.52984 -2.85948 0
M  V30 336 H 35.0254 0.10687 -3.91954 0
M  V30 337 H 36.5154 1.09075 -4.03104 0
M  V30 338 N 36.9525 1.47285 -0.560781 0
M  V30 339 C 37.9155 2.28535 0.174488 0
M  V30 340 C 38.9155 1.37153 0.839388 0
M  V30 341 O 40.1055 1.59748 0.694702 0
M  V30 342 C 37.2375 3.16934 1.25561 0
M  V30 343 H 38.4305 2.95012 -0.539262 0
M  V30 344 H 35.9835 1.53034 -0.317865 0
M  V30 345 H 36.7185 2.55157 2.00164 0
M  V30 346 H 36.5035 3.8419 0.783604 0
M  V30 347 H 37.9935 3.78143 1.77193 0
M  V30 348 N 38.4306 0.297415 1.54768 0
M  V30 349 C 39.8466 -0.0560823 1.59501 0
M  V30 350 C 40.0466 -1.52725 1.31444 0
M  V30 351 O 39.1026 -2.27947 1.08611 0
M  V30 352 C 40.4156 0.338631 2.98787 0
M  V30 353 C 41.9636 0.287097 3.11681 0
M  V30 354 C 42.4386 0.656579 4.53269 0
M  V30 355 N 43.9296 0.608977 4.59179 0
M  V30 356 C 44.6646 0.867385 5.66802 0
M  V30 357 N 44.1606 1.19157 6.82476 0
M  V30 358 N 45.9536 0.794687 5.56454 0
M  V30 359 H 38.1046 1.25624 1.71267 0
M  V30 360 H 40.3676 0.509057 0.799728 0
M  V30 361 H 40.0736 1.36263 3.2423 0
M  V30 362 H 39.9476 -0.309508 3.75928 0
M  V30 363 H 42.3346 -0.727649 2.85988 0
M  V30 364 H 42.4156 0.969809 2.36703 0
M  V30 365 H 42.0596 1.66912 4.7969 0
M  V30 366 H 41.9896 -0.0481649 5.26578 0
M  V30 367 H 44.4806 0.369198 3.76092 0
M  V30 368 H 44.7936 1.37482 7.60473 0
M  V30 369 H 43.1386 1.22958 6.84037 0
M  V30 370 H 46.3296 0.541098 4.64962 0
M  V30 371 H 46.5026 0.999445 6.40246 0
M  V30 372 N 39.9087 -1.5758 0.0250728 0
M  V30 373 C 40.8407 -2.06869 -0.986796 0
M  V30 374 C 41.8537 -0.991332 -1.29137 0
M  V30 375 O 43.0427 -1.26761 -1.25674 0
M  V30 376 C 40.1427 -2.47486 -2.31525 0
M  V30 377 C 39.3157 -3.78253 -2.19643 0
M  V30 378 C 38.3747 -4.05464 -3.35388 0
M  V30 379 O 37.4007 -4.75774 -3.12454 0
M  V30 380 N 38.6027 -3.55321 -4.59051 0
M  V30 381 H 41.3677 -2.94302 -0.566276 0
M  V30 382 H 38.9287 -1.6109 -0.161776 0
M  V30 383 H 40.9207 -2.62785 -3.07776 0
M  V30 384 H 39.4907 -1.65441 -2.65232 0
M  V30 385 H 38.7107 -3.7279 -1.28144 0
M  V30 386 H 39.9987 -4.63936 -2.08903 0
M  V30 387 H 39.3967 -2.98431 -4.80578 0
M  V30 388 H 37.9537 -3.75905 -5.32483 0
M  V30 389 N 41.3868 0.248026 -1.55636 0
M  V30 390 C 42.3498 1.29044 -1.89421 0
M  V30 391 C 43.3498 1.41134 -0.770581 0
M  V30 392 O 44.5398 1.39854 -1.03858 0
M  V30 393 C 41.6718 2.66831 -2.12165 0
M  V30 394 H 42.8648 1.00305 -2.82629 0
M  V30 395 H 40.4178 0.487265 -1.48511 0
M  V30 396 H 41.1528 3.00711 -1.21422 0
M  V30 397 H 40.9378 2.59438 -2.93997 0
M  V30 398 H 42.4278 3.42103 -2.3949 0
M  V30 399 N 42.8649 1.48995 0.513639 0
M  V30 400 C 44.1129 1.57531 1.26604 0
M  V30 401 C 44.4339 0.258236 1.93283 0
M  V30 402 O 43.7039 -0.721502 1.8213 0
M  V30 403 H 42.2839 0.580387 0.470276 0
M  V30 404 H 44.9459 1.85552 0.596373 0
M  V30 405 H 44.0419 2.36486 2.03669 0
M  V30 406 N 44.343 -0.763751 1.37857 0
M  V30 407 C 45.592 -1.51789 1.32827 0
M  V30 408 C 45.905 -1.95426 -0.0823719 0
M  V30 409 O 47.111 -2.70298 -0.255172 0
M  V30 410 C 45.567 -2.74133 2.33193 0
M  V30 411 C 45.175 -2.37562 3.79827 0
M  V30 412 C 46.919 -3.52054 2.37188 0
M  V30 413 C 44.826 -3.56456 4.71904 0
M  V30 414 H 43.756 -0.569896 0.493695 0
M  V30 415 H 46.407 -0.835822 1.63359 0
M  V30 416 H 44.789 -3.4427 1.9569 0
M  V30 417 H 45.963 -1.75157 4.26212 0
M  V30 418 H 44.278 -1.72798 3.78853 0
M  V30 419 H 46.875 -4.40437 3.03182 0
M  V30 420 H 47.218 -3.92486 1.38782 0
M  V30 421 H 47.751 -2.88921 2.7344 0
M  V30 422 H 44.49 -3.21099 5.71468 0
M  V30 423 H 44.01 -4.17938 4.30218 0
M  V30 424 H 45.689 -4.23168 4.89426 0
M  V30 425 N 45.8211 -1.22559 -0.990812 0
M  V30 426 C 47.0981 -0.959875 -1.70428 0
M  V30 427 C 47.4781 0.524455 -2.04481 0
M  V30 428 O 46.8261 1.49302 -1.72977 0
M  V30 429 C 47.0361 -1.85955 -2.95333 0
M  V30 430 C 48.3841 -2.11687 -3.68068 0
M  V30 431 O 49.4081 -1.8342 -3.05345 0
M  V30 432 O 48.2671 -2.59572 -4.80921 0
M  V30 433 H 45.3611 -0.361154 -0.743974 0
M  V30 434 H 47.9071 -1.33554 -1.04697 0
M  V30 435 H 46.6791 -2.86346 -2.66687 0
M  V30 436 H 46.3021 -1.4856 -3.68803 0
M  V30 437 N 47.2992 1.18797 -1.03562 0
M  V30 438 C 48.5452 1.8893 -0.737113 0
M  V30 439 C 48.8782 1.79837 0.732956 0
M  V30 440 O 48.1532 1.19525 1.5344 0
M  V30 441 C 48.4362 3.39607 -1.19745 0
M  V30 442 C 48.2892 3.57537 -2.72924 0
M  V30 443 C 49.6082 4.33069 -0.783526 0
M  V30 444 H 46.7272 0.686057 -0.269249 0
M  V30 445 H 49.3692 1.39797 -1.28673 0
M  V30 446 H 47.5192 3.81583 -0.729855 0
M  V30 447 H 49.1912 3.24688 -3.27682 0
M  V30 448 H 47.4342 3.00363 -3.12993 0
M  V30 449 H 48.1052 4.63238 -3.00191 0
M  V30 450 H 50.5812 3.98846 -1.18581 0
M  V30 451 H 49.4572 5.3707 -1.13343 0
M  V30 452 H 49.7182 4.40986 0.313681 0
M  V30 453 N 48.7773 0.814389 1.34928 0
M  V30 454 C 49.7403 0.235759 2.27984 0
M  V30 455 C 50.7403 -0.581412 1.49921 0
M  V30 456 O 51.9303 -0.398758 1.69575 0
M  V30 457 C 49.0623 -0.670433 3.34242 0
M  V30 458 H 50.2553 1.05659 2.80671 0
M  V30 459 H 47.8083 0.585614 1.44915 0
M  V30 460 H 48.5433 -1.51466 2.86755 0
M  V30 461 H 48.3283 -0.0860822 3.92005 0
M  V30 462 H 49.8183 -1.06935 4.03676 0
M  V30 463 N 50.2554 -1.46986 0.568584 0
M  V30 464 C 51.5014 -2.02741 0.0488709 0
M  V30 465 C 51.8344 -1.44077 -1.30214 0
M  V30 466 O 51.1094 -0.600552 -1.84996 0
M  V30 467 C 51.3924 -3.60086 -0.032047 0
M  V30 468 C 51.2454 -4.29162 1.34686 0
M  V30 469 C 52.5644 -4.33838 -0.739798 0
M  V30 470 H 49.6834 -0.736749 0.0192338 0
M  V30 471 H 52.3254 -1.75289 0.733065 0
M  V30 472 H 50.4754 -3.83606 -0.61473 0
M  V30 473 H 52.1474 -4.16948 1.97362 0
M  V30 474 H 50.3904 -3.89073 1.91846 0
M  V30 475 H 51.0614 -5.37826 1.24285 0
M  V30 476 H 53.5374 -4.15378 -0.244939 0
M  V30 477 H 52.4134 -5.43537 -0.765406 0
M  V30 478 H 52.6744 -4.03875 -1.79827 0
M  V30 479 N 51.7335 -0.305618 -1.54608 0
M  V30 480 C 52.9735 0.303114 -2.0214 0
M  V30 481 C 53.3375 1.50737 -1.18921 0
M  V30 482 O 54.5385 2.18778 -1.56172 0
M  V30 483 C 52.8095 0.646332 -3.51507 0
M  V30 484 S 54.3685 1.23727 -4.20995 0
M  V30 485 H 51.1865 0.0927643 -0.704923 0
M  V30 486 H 53.7885 -0.434566 -1.90609 0
M  V30 487 H 52.4925 -0.238541 -4.09706 0
M  V30 488 H 52.0235 1.41468 -3.67084 0
M  V30 489 H 54.0385 2.52489 -4.27158 0
M  V30 490 N 53.2116 1.57565 -0.0334293 0
M  V30 491 C 54.1586 2.10478 0.946981 0
M  V30 492 C 55.1286 1.00787 1.32027 0
M  V30 493 O 56.3136 1.28232 1.41284 0
M  V30 494 C 53.4536 2.63994 2.22263 0
M  V30 495 C 52.5666 3.87709 1.90541 0
M  V30 496 C 51.7016 4.29604 3.12433 0
M  V30 497 C 50.7406 5.46065 2.76549 0
M  V30 498 N 49.8776 5.83096 3.9108 0
M  V30 499 H 54.7176 2.93963 0.488846 0
M  V30 500 H 52.2546 1.45296 0.22969 0
M  V30 501 H 54.2126 2.93114 2.96884 0
M  V30 502 H 52.8426 1.83333 2.65685 0
M  V30 503 H 51.8946 3.65291 1.06144 0
M  V30 504 H 53.2066 4.72403 1.60116 0
M  V30 505 H 52.3606 4.60182 3.9537 0
M  V30 506 H 51.0996 3.43685 3.46023 0
M  V30 507 H 50.1046 5.15176 1.92026 0
M  V30 508 H 51.3296 6.33685 2.44171 0
M  V30 509 H 49.2756 5.00132 4.24504 0
M  V30 510 H 49.1926 6.6244 3.64293 0
M  V30 511 H 50.4606 6.18282 4.74708 0
M  V30 512 N 54.6897 -0.239769 1.55765 0
M  V30 513 C 56.1007 -0.808263 1.68297 0
M  V30 514 C 56.4517 -1.85736 0.632181 0
M  V30 515 O 55.5767 -2.15277 -0.220204 0
M  V30 516 C 56.1717 -1.47284 3.05111 0
M  V30 517 C 54.7307 -1.98895 3.19559 0
M  V30 518 C 53.8777 -0.842575 2.64189 0
M  V30 519 H 56.8287 -0.0154422 1.58692 0
M  V30 520 H 56.8497 -2.34111 2.99954 0
M  V30 521 H 56.3617 -0.709053 3.81568 0
M  V30 522 H 54.4627 -2.78132 2.47938 0
M  V30 523 H 54.5757 -2.18143 4.26556 0
M  V30 524 H 52.9397 -1.24501 2.22197 0
M  V30 525 H 53.7227 -0.0917552 3.43177 0
M  V30 526 N 56.1678 -1.49265 -0.50573 0
M  V30 527 C 57.4138 -1.58748 -1.26202 0
M  V30 528 C 57.7468 -0.271227 -1.92297 0
M  V30 529 O 57.0218 0.724831 -1.80489 0
M  V30 530 C 57.3048 -2.74332 -2.33268 0
M  V30 531 C 57.1578 -4.15737 -1.71705 0
M  V30 532 C 58.4768 -2.85576 -3.34865 0
M  V30 533 H 55.5958 -0.577826 -0.457478 0
M  V30 534 H 58.2378 -1.81532 -0.560897 0
M  V30 535 H 56.3878 -2.55036 -2.93068 0
M  V30 536 H 58.0598 -4.46537 -1.15769 0
M  V30 537 H 56.3028 -4.21605 -1.02135 0
M  V30 538 H 56.9738 -4.92477 -2.49341 0
M  V30 539 H 59.4498 -3.03127 -2.8505 0
M  V30 540 H 58.3258 -3.68135 -4.07146 0
M  V30 541 H 58.5868 -1.94732 -3.96903 0
M  V30 542 N 57.6459 0.756429 -1.3826 0
M  V30 543 C 58.5779 1.87971 -1.31147 0
M  V30 544 C 59.5909 1.61248 -0.224239 0
M  V30 545 O 60.7799 1.71881 -0.481581 0
M  V30 546 C 57.8799 3.23545 -1.00857 0
M  V30 547 C 57.0529 3.77794 -2.20432 0
M  V30 548 C 56.1119 4.91877 -1.86931 0
M  V30 549 O 55.1379 5.06659 -2.59395 0
M  V30 550 N 56.3399 5.74643 -0.822568 0
M  V30 551 H 59.1049 1.94585 -2.2794 0
M  V30 552 H 56.6659 0.936234 -1.32084 0
M  V30 553 H 58.6579 3.97403 -0.765021 0
M  V30 554 H 57.2279 3.12335 -0.128687 0
M  V30 555 H 56.4479 2.95534 -2.6087 0
M  V30 556 H 57.7359 4.10771 -3.00241 0
M  V30 557 H 57.1339 5.65266 -0.221575 0
M  V30 558 H 55.6909 6.48661 -0.638899 0
M  V30 559 N 59.124 1.23083 0.984299 0
M  V30 560 C 60.352 1.08714 1.76037 0
M  V30 561 C 60.767 -0.361691 1.85303 0
M  V30 562 O 60.124 -1.25034 1.32939 0
M  V30 563 C 60.175 1.70206 3.18923 0
M  V30 564 O 59.896 3.09423 3.10144 0
M  V30 565 C 61.397 1.61227 4.12941 0
M  V30 566 H 58.617 0.380664 0.552572 0
M  V30 567 H 61.161 1.62853 1.23689 0
M  V30 568 H 59.316 1.20109 3.6831 0
M  V30 569 H 59.73 3.39188 4.00065 0
M  V30 570 H 61.204 2.08962 5.10919 0
M  V30 571 H 61.681 0.570375 4.35481 0
M  V30 572 H 62.287 2.10671 3.69456 0
M  V30 573 N 60.6021 -1.18246 1.0419 0
M  V30 574 C 61.8501 -1.87886 0.744543 0
M  V30 575 C 62.1711 -1.8082 -0.730006 0
M  V30 576 O 61.4411 -1.22736 -1.52685 0
M  V30 577 H 60.0211 -0.695556 0.272417 0
M  V30 578 H 62.6831 -1.43494 1.31892 0
M  V30 579 H 61.7791 -2.9389 1.05049 0
M  V30 580 N 62.0802 -0.821533 -1.34494 0
M  V30 581 C 63.3082 -0.421884 -2.02553 0
M  V30 582 C 63.7232 0.971745 -1.61872 0
M  V30 583 O 63.0802 1.62864 -0.823496 0
M  V30 584 C 63.1312 -0.51285 -3.57844 0
M  V30 585 O 62.8522 -1.85155 -3.97051 0
M  V30 586 C 64.3532 -0.107921 -4.43169 0
M  V30 587 H 61.5732 -0.169482 -0.649243 0
M  V30 588 H 64.1172 -1.1093 -1.71798 0
M  V30 589 H 62.2722 0.126474 -3.87193 0
M  V30 590 H 62.6862 -1.82482 -4.91732 0
M  V30 591 H 64.1602 -0.222657 -5.51551 0
M  V30 592 H 64.6372 0.948401 -4.28838 0
M  V30 593 H 65.2432 -0.720989 -4.19144 0
M  V30 594 N 63.5583 1.46682 -0.576371 0
M  V30 595 C 64.5213 2.28707 0.150239 0
M  V30 596 C 65.5213 1.38035 0.824794 0
M  V30 597 O 66.7113 1.60476 0.677719 0
M  V30 598 C 63.8433 3.18248 1.22192 0
M  V30 599 H 65.0363 2.94423 -0.570521 0
M  V30 600 H 62.5893 1.52688 -0.334078 0
M  V30 601 H 63.3243 2.57265 1.97447 0
M  V30 602 H 63.1093 3.85 0.742812 0
M  V30 603 H 64.5993 3.80001 1.73172 0
M  V30 604 N 65.0364 0.313813 1.54444 0
M  V30 605 C 66.4524 -0.0391619 1.59552 0
M  V30 606 C 66.6524 -1.51322 1.33056 0
M  V30 607 O 65.7084 -2.26782 1.11022 0
M  V30 608 C 67.0214 0.370302 2.98411 0
M  V30 609 C 68.5694 0.320139 3.11358 0
M  V30 610 C 69.0444 0.704617 4.52547 0
M  V30 611 N 70.5354 0.657645 4.58508 0
M  V30 612 C 71.2704 0.927453 5.6585 0
M  V30 613 N 70.7664 1.26389 6.81174 0
M  V30 614 N 72.5594 0.853662 5.5558 0
M  V30 615 H 64.7104 1.27433 1.69925 0
M  V30 616 H 66.9734 0.517511 0.794284 0
M  V30 617 H 66.6794 1.39694 3.22767 0
M  V30 618 H 66.5534 -0.269619 3.76235 0
M  V30 619 H 68.9404 -0.697275 2.86744 0
M  V30 620 H 69.0214 0.99486 2.35661 0
M  V30 621 H 68.6654 1.7199 4.77893 0
M  V30 622 H 68.5954 0.00768843 5.26599 0
M  V30 623 H 71.0864 0.409067 3.75679 0
M  V30 624 H 71.3994 1.4554 7.58972 0
M  V30 625 H 69.7444 1.30206 6.82694 0
M  V30 626 H 72.9354 0.590383 4.64362 0
M  V30 627 H 73.1084 1.0673 6.3915 0
M  V30 628 N 66.5145 -1.57545 0.0417849 0
M  V30 629 C 67.7625 -1.91937 -0.632829 0
M  V30 630 C 68.0835 -0.919978 -1.71934 0
M  V30 631 O 67.3535 0.0366064 -1.95866 0
M  V30 632 H 65.9335 -0.708493 -0.236742 0
M  V30 633 H 68.5955 -1.9468 0.0925745 0
M  V30 634 H 67.6915 -2.92912 -1.07746 0
M  V30 635 N 67.9926 0.231505 -1.5589 0
M  V30 636 C 69.2696 0.981096 -1.69215 0
M  V30 637 C 69.6496 2.02799 -0.586164 0
M  V30 638 O 68.9976 2.24823 0.408253 0
M  V30 639 C 69.2076 1.60054 -3.10135 0
M  V30 640 C 70.5556 2.09658 -3.69227 0
M  V30 641 O 71.5796 1.69967 -3.13033 0
M  V30 642 O 70.4386 2.8258 -4.67772 0
M  V30 643 H 67.5326 0.457653 -0.688827 0
M  V30 644 H 70.0786 0.224073 -1.68214 0
M  V30 645 H 68.8506 0.844105 -3.82087 0
M  V30 646 H 68.4736 2.42336 -3.15212 0
M  V30 647 N 69.4707 1.49531 0.497807 0
M  V30 648 C 70.7477 1.49682 1.25915 0
M  V30 649 C 71.1277 0.226339 2.09883 0
M  V30 650 O 70.4757 -0.791189 2.14365 0
M  V30 651 C 70.6857 2.77755 2.11313 0
M  V30 652 C 72.0337 3.27371 2.70395 0
M  V30 653 O 73.0577 2.78894 2.21578 0
M  V30 654 O 71.9167 4.11808 3.59272 0
M  V30 655 H 69.0107 0.599228 0.56996 0
M  V30 656 H 71.5567 1.61798 0.511816 0
M  V30 657 H 70.3287 3.61713 1.49264 0
M  V30 658 H 69.9517 2.68515 2.93233 0
M  V30 659 N 70.9488 -0.749086 1.3866 0
M  V30 660 C 72.2258 -1.4992 1.25632 0
M  V30 661 C 72.6058 -2.10633 -0.140317 0
M  V30 662 O 71.9538 -1.97437 -1.15025 0
M  V30 663 C 72.1638 -2.56195 2.36992 0
M  V30 664 C 73.5118 -3.22972 2.75634 0
M  V30 665 O 74.5358 -2.66502 2.36337 0
M  V30 666 O 73.3948 -4.25122 3.43415 0
M  V30 667 H 70.4888 -0.665067 0.491544 0
M  V30 668 H 73.0348 -0.784113 1.50498 0
M  V30 669 H 71.8068 -2.09612 3.30422 0
M  V30 670 H 71.4298 -3.35279 2.13714 0
M  V30 671 N 72.4269 -1.23603 -0.977757 0
M  V30 672 C 73.3569 -1.04401 -2.0886 0
M  V30 673 C 74.3379 0.0399052 -1.70053 0
M  V30 674 O 75.5229 -0.125246 -1.93796 0
M  V30 675 C 72.6529 -0.637269 -3.41403 0
M  V30 676 C 71.6069 -1.66883 -3.94124 0
M  V30 677 C 70.9329 -1.11745 -5.22893 0
M  V30 678 C 72.2329 -3.06247 -4.23096 0
M  V30 679 H 73.9269 -1.97316 -2.25182 0
M  V30 680 H 71.4729 -0.950096 -1.08209 0
M  V30 681 H 73.4259 -0.48998 -4.18542 0
M  V30 682 H 72.1499 0.327557 -3.24953 0
M  V30 683 H 70.8089 -1.80416 -3.19133 0
M  V30 684 H 70.4569 -0.143527 -5.02795 0
M  V30 685 H 70.1569 -1.80672 -5.59134 0
M  V30 686 H 71.6809 -0.982067 -6.02651 0
M  V30 687 H 73.0949 -2.96001 -4.90975 0
M  V30 688 H 71.4919 -3.72436 -4.70544 0
M  V30 689 H 72.5619 -3.55041 -3.30263 0
M  V30 690 N 73.905 1.17692 -1.04816 0
M  V30 691 C 74.868 2.19787 -0.650117 0
M  V30 692 C 75.868 1.58044 0.296427 0
M  V30 693 O 77.058 1.74012 0.0808097 0
M  V30 694 C 74.19 3.40869 0.0456987 0
M  V30 695 H 75.383 2.56516 -1.5537 0
M  V30 696 H 72.936 1.31708 -0.841594 0
M  V30 697 H 73.671 3.09681 0.962726 0
M  V30 698 H 73.456 3.86928 -0.634727 0
M  V30 699 H 74.946 4.16445 0.310432 0
M  V30 700 N 75.3831 0.828654 1.34056 0
M  V30 701 C 76.2931 0.256725 2.33191 0
M  V30 702 C 77.3091 -0.611898 1.62886 0
M  V30 703 O 78.4851 -0.51844 1.94613 0
M  V30 704 C 75.5501 -0.567238 3.42028 0
M  V30 705 C 74.6111 0.324458 4.28072 0
M  V30 706 C 73.8441 -0.460274 5.31712 0
M  V30 707 O 74.0671 -1.693 5.44696 0
M  V30 708 O 73.0011 0.160391 6.01686 0
M  V30 709 H 76.8271 1.07739 2.83947 0
M  V30 710 H 74.4121 0.59093 1.37217 0
M  V30 711 H 76.2941 -1.03582 4.08471 0
M  V30 712 H 74.9691 -1.36513 2.93506 0
M  V30 713 H 73.8761 0.840659 3.64532 0
M  V30 714 H 75.2091 1.08685 4.8005 0
M  V30 715 N 76.8612 -1.46375 0.584142 0
M  V30 716 C 78.1072 -2.02678 0.0703716 0
M  V30 717 C 78.4402 -1.4545 -1.28678 0
M  V30 718 O 77.7152 -0.62014 -1.84349 0
M  V30 719 C 77.9982 -3.60099 0.00614674 0
M  V30 720 C 77.8512 -4.27709 1.3923 0
M  V30 721 C 79.1702 -4.34598 -0.693742 0
M  V30 722 H 76.2892 -0.736504 0.027047 0
M  V30 723 H 78.9312 -1.74501 0.751615 0
M  V30 724 H 77.0812 -3.84236 -0.574009 0
M  V30 725 H 78.7532 -4.14832 2.01773 0
M  V30 726 H 76.9962 -3.87016 1.95962 0
M  V30 727 H 77.6672 -5.36478 1.29982 0
M  V30 728 H 80.1432 -4.15615 -0.200869 0
M  V30 729 H 79.0192 -5.44318 -0.707714 0
M  V30 730 H 79.2802 -4.05759 -1.75533 0
M  V30 731 N 78.3393 -0.321999 -1.54275 0
M  V30 732 C 79.5873 0.280489 -2.00144 0
M  V30 733 C 79.9083 1.52777 -1.21178 0
M  V30 734 O 79.1783 1.9338 -0.313187 0
M  V30 735 H 77.7583 0.106632 -0.73935 0
M  V30 736 H 80.4203 -0.438184 -1.8991 0
M  V30 737 H 79.5163 0.537972 -3.07428 0
M  V30 738 N 79.8174 1.5752 -0.0501392 0
M  V30 739 C 81.2334 1.56631 0.306402 0
M  V30 740 C 81.4334 1.0577 1.71508 0
M  V30 741 O 80.4894 0.713837 2.422 0
M  V30 742 C 81.8024 3.00393 0.135811 0
M  V30 743 C 83.3504 3.12315 0.206993 0
M  V30 744 C 83.8254 4.57954 0.064944 0
M  V30 745 N 85.3164 4.63041 0.121254 0
M  V30 746 C 86.0514 5.73389 0.0354381 0
M  V30 747 N 85.5474 6.92724 -0.102666 0
M  V30 748 N 87.3404 5.62026 0.090946 0
M  V30 749 H 79.4914 1.88903 -0.971046 0
M  V30 750 H 81.7544 0.869876 -0.376855 0
M  V30 751 H 81.4604 3.41635 -0.835384 0
M  V30 752 H 81.3344 3.66373 0.897275 0
M  V30 753 H 83.7214 2.70973 1.16866 0
M  V30 754 H 83.8024 2.49016 -0.585208 0
M  V30 755 H 83.4464 4.99981 -0.893394 0
M  V30 756 H 83.3764 5.19258 0.876277 0
M  V30 757 H 85.8674 3.77216 0.227284 0
M  V30 758 H 86.1804 7.72633 -0.160882 0
M  V30 759 H 84.5254 6.94864 -0.137737 0
M  V30 760 H 87.7164 4.67684 0.197388 0
M  V30 761 H 87.8894 6.47997 0.0206089 0
M  V30 762 N 81.2955 -0.223234 1.56011 0
M  V30 763 C 82.2255 -1.27988 1.95298 0
M  V30 764 C 83.2065 -1.48976 0.820979 0
M  V30 765 O 84.3915 -1.61188 1.08315 0
M  V30 766 C 81.5215 -2.63 2.26822 0
M  V30 767 C 80.4755 -2.56671 3.42497 0
M  V30 768 C 79.8015 -3.95697 3.59622 0
M  V30 769 C 81.1015 -2.11601 4.77517 0
M  V30 770 H 82.7955 -0.953525 2.8381 0
M  V30 771 H 80.3415 -0.457244 1.36548 0
M  V30 772 H 82.2945 -3.37077 2.52898 0
M  V30 773 H 81.0185 -2.9732 1.35161 0
M  V30 774 H 79.6775 -1.85051 3.16467 0
M  V30 775 H 79.3255 -4.27322 2.6534 0
M  V30 776 H 79.0255 -3.92345 4.37424 0
M  V30 777 H 80.5495 -4.71438 3.88044 0
M  V30 778 H 81.9635 -2.7542 5.02809 0
M  V30 779 H 80.3605 -2.19311 5.5859 0
M  V30 780 H 81.4305 -1.06824 4.72987 0
M  V30 781 N 82.7736 -1.49793 -0.48987 0
M  V30 782 C 83.7366 -1.66752 -1.57246 0
M  V30 783 C 84.7366 -0.538867 -1.51502 0
M  V30 784 O 85.9266 -0.805545 -1.54456 0
M  V30 785 C 83.0586 -1.67528 -2.96896 0
M  V30 786 H 84.2516 -2.63321 -1.43534 0
M  V30 787 H 81.8046 -1.38992 -0.714914 0
M  V30 788 H 82.5396 -0.725837 -3.16073 0
M  V30 789 H 82.3246 -2.49504 -3.02473 0
M  V30 790 H 83.8146 -1.82667 -3.7553 0
M  V30 791 N 84.2517 0.741722 -1.39055 0
M  V30 792 C 85.4997 1.49818 -1.35643 0
M  V30 793 C 85.8207 1.94938 0.0491642 0
M  V30 794 O 85.0907 1.68505 0.999141 0
M  V30 795 H 83.6707 0.555755 -0.499144 0
M  V30 796 H 86.3327 0.880957 -1.73854 0
M  V30 797 H 85.4287 2.38348 -2.01486 0
M  V30 798 N 85.7298 1.2412 0.971189 0
M  V30 799 C 86.9758 1.08041 1.71625 0
M  V30 800 C 87.3088 -0.380407 1.90438 0
M  V30 801 O 86.5838 -1.28127 1.46334 0
M  V30 802 C 86.8668 1.81682 3.10908 0
M  V30 803 C 86.7198 3.35493 2.99608 0
M  V30 804 C 88.0388 1.58671 4.10501 0
M  V30 805 H 85.1578 0.39388 0.622919 0
M  V30 806 H 87.7998 1.52743 1.13003 0
M  V30 807 H 85.9498 1.43684 3.60953 0
M  V30 808 H 87.6218 3.83068 2.57015 0
M  V30 809 H 85.8648 3.64052 2.35899 0
M  V30 810 H 86.5358 3.82217 3.98264 0
M  V30 811 H 89.0118 1.91719 3.69301 0
M  V30 812 H 87.8878 2.1266 5.06031 0
M  V30 813 H 88.1488 0.524161 4.38982 0
M  V30 814 N 87.2079 -1.17134 1.05439 0
M  V30 815 C 88.4359 -1.91372 0.786414 0
M  V30 816 C 88.8509 -1.76955 -0.658202 0
M  V30 817 O 88.2079 -1.10838 -1.44987 0
M  V30 818 C 88.2589 -3.42356 1.1608 0
M  V30 819 O 87.9799 -3.56332 2.54871 0
M  V30 820 C 89.4809 -4.33663 0.919322 0
M  V30 821 H 86.7009 -0.607118 0.285743 0
M  V30 822 H 89.2449 -1.48525 1.40572 0
M  V30 823 H 87.3999 -3.82939 0.586191 0
M  V30 824 H 87.8139 -4.49896 2.69618 0
M  V30 825 H 89.2879 -5.38099 1.231 0
M  V30 826 H 89.7649 -4.38959 -0.145359 0
M  V30 827 H 90.3709 -3.98796 1.47789 0
M  V30 828 N 88.686 -0.835752 -1.33615 0
M  V30 829 C 89.618 -0.224151 -2.28101 0
M  V30 830 C 90.631 0.593331 -1.51603 0
M  V30 831 O 91.82 0.420911 -1.73466 0
M  V30 832 C 88.92 0.703309 -3.31522 0
M  V30 833 C 88.093 -0.0741528 -4.37337 0
M  V30 834 C 87.152 0.776176 -5.20444 0
M  V30 835 O 86.178 0.216506 -5.68788 0
M  V30 836 N 87.38 2.09401 -5.41416 0
M  V30 837 H 90.145 -1.03598 -2.81225 0
M  V30 838 H 87.706 -0.69392 -1.46275 0
M  V30 839 H 89.698 1.27707 -3.84022 0
M  V30 840 H 88.268 1.41585 -2.78698 0
M  V30 841 H 87.488 -0.82928 -3.85378 0
M  V30 842 H 88.776 -0.608863 -5.05144 0
M  V30 843 H 88.174 2.57229 -5.03835 0
M  V30 844 H 86.731 2.61633 -5.96985 0
M  V30 845 N 90.1641 1.46063 -0.591896 0
M  V30 846 C 91.0941 2.33172 0.123673 0
M  V30 847 C 92.0751 1.45897 0.87453 0
M  V30 848 O 93.2601 1.74698 0.848181 0
M  V30 849 C 90.3901 3.28336 1.13194 0
M  V30 850 C 89.3441 4.25124 0.495324 0
M  V30 851 C 88.6701 5.09863 1.61071 0
M  V30 852 C 89.9701 5.19143 -0.573425 0
M  V30 853 H 91.6641 2.93252 -0.603646 0
M  V30 854 H 89.2101 1.41014 -0.291741 0
M  V30 855 H 91.1631 3.88137 1.64097 0
M  V30 856 H 89.8871 2.66383 1.88965 0
M  V30 857 H 88.5461 3.66599 0.00729452 0
M  V30 858 H 88.1941 4.44288 2.35832 0
M  V30 859 H 87.8941 5.75417 1.19035 0
M  V30 860 H 89.4181 5.72529 2.12233 0
M  V30 861 H 90.8321 5.73106 -0.1491 0
M  V30 862 H 89.2291 5.93089 -0.914636 0
M  V30 863 H 90.2991 4.62519 -1.45617 0
M  V30 864 N 91.6422 0.330177 1.54103 0
M  V30 865 C 92.6052 -0.520144 2.2322 0
M  V30 866 C 93.6052 -1.03828 1.22786 0
M  V30 867 O 94.7952 -0.929652 1.4732 0
M  V30 868 C 91.9272 -1.72317 2.94142 0
M  V30 869 H 93.1202 0.0841605 2.99782 0
M  V30 870 H 90.6732 0.0813433 1.56088 0
M  V30 871 H 91.4082 -2.36653 2.21734 0
M  V30 872 H 91.1932 -1.35898 3.67796 0
M  V30 873 H 92.6832 -2.3266 3.46784 0
M  V30 874 N 93.1203 -1.57491 0.0584922 0
M  V30 875 C 94.3683 -1.92597 -0.612436 0
M  V30 876 C 94.6893 -0.938162 -1.70949 0
M  V30 877 O 93.9593 0.0158301 -1.95894 0
M  V30 878 H 92.5393 -0.710964 -0.229214 0
M  V30 879 H 95.2013 -1.94571 0.113218 0
M  V30 880 H 94.2973 -2.94038 -1.04633 0
M  V30 881 N 94.5984 0.214957 -1.56127 0
M  V30 882 C 95.5284 1.2695 -1.95974 0
M  V30 883 C 96.5094 1.48539 -0.828868 0
M  V30 884 O 97.6944 1.60611 -1.09168 0
M  V30 885 C 94.8244 2.61794 -2.28214 0
M  V30 886 C 93.7784 2.54851 -3.43853 0
M  V30 887 C 93.1044 3.93785 -3.61715 0
M  V30 888 C 94.4044 2.09065 -4.78632 0
M  V30 889 H 96.0984 0.93846 -2.84312 0
M  V30 890 H 93.6444 0.449996 -1.36788 0
M  V30 891 H 95.5974 3.35731 -2.54682 0
M  V30 892 H 94.3214 2.96599 -1.36736 0
M  V30 893 H 92.9804 1.8337 -3.17444 0
M  V30 894 H 92.6284 4.25908 -2.67602 0
M  V30 895 H 92.3284 3.90019 -4.39498 0
M  V30 896 H 93.8524 4.69374 -3.90539 0
M  V30 897 H 95.2664 2.7275 -5.04262 0
M  V30 898 H 93.6634 2.16346 -5.59745 0
M  V30 899 H 94.7334 1.04315 -4.73547 0
M  V30 900 N 96.0765 1.50051 0.48192 0
M  V30 901 C 97.0395 1.67584 1.5636 0
M  V30 902 C 98.0395 0.546894 1.51214 0
M  V30 903 O 99.2295 0.813725 1.54026 0
M  V30 904 C 96.3615 1.691 2.96003 0
M  V30 905 H 97.5545 2.64078 1.42136 0
M  V30 906 H 95.1075 1.39369 0.707533 0
M  V30 907 H 95.8425 0.742589 3.15684 0
M  V30 908 H 95.6275 2.51105 3.01146 0
M  V30 909 H 97.1175 1.84656 3.74556 0
M  V30 910 N 97.5546 -0.734337 1.39446 0
M  V30 911 C 98.9706 -1.03997 1.21065 0
M  V30 912 C 99.1706 -2.01369 0.0727019 0
M  V30 913 O 98.2266 -2.45856 -0.575426 0
M  V30 914 C 99.5396 -1.60163 2.54496 0
M  V30 915 C 101.088 -1.7224 2.61347 0
M  V30 916 C 101.563 -2.31814 3.95002 0
M  V30 917 N 103.054 -2.39223 3.96644 0
M  V30 918 C 103.789 -2.86258 4.96834 0
M  V30 919 N 103.285 -3.33184 6.07421 0
M  V30 920 N 105.078 -2.85473 4.84213 0
M  V30 921 H 97.2286 -0.0885624 2.12215 0
M  V30 922 H 99.4916 -0.10191 0.942506 0
M  V30 923 H 99.1976 -0.960811 3.38321 0
M  V30 924 H 99.0716 -2.5896 2.74262 0
M  V30 925 H 101.459 -2.35443 1.77906 0
M  V30 926 H 101.54 -0.720939 2.4543 0
M  V30 927 H 101.184 -1.69238 4.78875 0
M  V30 928 H 101.114 -3.32638 4.08239 0
M  V30 929 H 103.605 -2.06057 3.16779 0
M  V30 930 H 103.918 -3.67586 6.7978 0
M  V30 931 H 102.263 -3.31191 6.11013 0
M  V30 932 H 105.454 -2.48136 3.96921 0
M  V30 933 H 105.627 -3.21814 5.62441 0
M  V30 934 N 99.0327 -1.24633 -0.964593 0
M  V30 935 C 100.263 -1.11339 -1.74032 0
M  V30 936 C 100.671 0.336593 -1.86182 0
M  V30 937 O 100.014 1.24389 -1.35178 0
M  V30 938 C 100.076 -1.68284 -3.1768 0
M  V30 939 C 99.7397 -3.17196 -3.28992 0
M  V30 940 C 100.737 -4.14308 -3.14078 0
M  V30 941 C 98.4217 -3.57215 -3.53133 0
M  V30 942 C 100.416 -5.4942 -3.23135 0
M  V30 943 C 98.1027 -4.92468 -3.61827 0
M  V30 944 C 99.1007 -5.8838 -3.46841 0
M  V30 945 O 98.7887 -7.21173 -3.55197 0
M  V30 946 H 98.5207 -0.389551 -0.552472 0
M  V30 947 H 101.075 -1.65282 -1.21946 0
M  V30 948 H 99.3047 -1.08777 -3.71085 0
M  V30 949 H 100.994 -1.50234 -3.77074 0
M  V30 950 H 101.76 -3.84731 -2.95308 0
M  V30 951 H 97.6387 -2.83063 -3.63863 0
M  V30 952 H 101.183 -6.24263 -3.11355 0
M  V30 953 H 97.0797 -5.21714 -3.80111 0
M  V30 954 H 97.8477 -7.29135 -3.71892 0
M  V30 955 N 100.511 1.16574 -1.06058 0
M  V30 956 C 101.922 1.68662 -0.800632 0
M  V30 957 C 102.273 1.84184 0.67608 0
M  V30 958 O 101.398 1.53568 1.52466 0
M  V30 959 C 101.993 3.06356 -1.44676 0
M  V30 960 C 100.552 3.55575 -1.23465 0
M  V30 961 C 99.6988 2.31616 -1.52477 0
M  V30 962 H 102.65 1.00969 -1.22438 0
M  V30 963 H 102.671 3.70636 -0.860788 0
M  V30 964 H 102.183 2.95027 -2.52152 0
M  V30 965 H 100.284 3.72167 -0.179527 0
M  V30 966 H 100.397 4.37812 -1.94571 0
M  V30 967 H 98.7608 2.36512 -0.945209 0
M  V30 968 H 99.5438 2.22887 -2.61106 0
M  V30 969 N 101.989 0.842826 1.3317 0
M  V30 970 C 102.921 0.236245 2.27979 0
M  V30 971 C 103.934 -0.585282 1.51915 0
M  V30 972 O 105.123 -0.411705 1.73687 0
M  V30 973 C 102.223 -0.685717 3.3189 0
M  V30 974 C 101.396 0.0973448 4.37292 0
M  V30 975 C 100.455 -0.748565 5.20848 0
M  V30 976 O 99.4809 -0.186339 5.68895 0
M  V30 977 N 100.683 -2.06527 5.42519 0
M  V30 978 H 103.448 1.05088 2.80672 0
M  V30 979 H 101.009 0.701667 1.45905 0
M  V30 980 H 103.001 -1.25669 3.84694 0
M  V30 981 H 101.571 -1.40105 2.79445 0
M  V30 982 H 100.791 0.849706 3.84933 0
M  V30 983 H 102.079 0.635643 5.04814 0
M  V30 984 H 101.477 -2.54554 5.05192 0
M  V30 985 H 100.034 -2.58464 5.98364 0
M  V30 986 N 103.467 -1.45747 0.599634 0
M  V30 987 C 104.878 -1.85853 0.177681 0
M  V30 988 C 105.229 -1.50102 -1.26348 0
M  V30 989 O 104.354 -0.923905 -1.95686 0
M  V30 990 C 104.949 -3.37326 0.315688 0
M  V30 991 C 103.508 -3.76365 -0.0515144 0
M  V30 992 C 102.655 -2.69722 0.643822 0
M  V30 993 H 105.606 -1.36661 0.806814 0
M  V30 994 H 105.627 -3.77778 -0.454321 0
M  V30 995 H 105.139 -3.63315 1.36468 0
M  V30 996 H 103.24 -3.55993 -1.09999 0
M  V30 997 H 103.353 -4.77916 0.336594 0
M  V30 998 H 101.717 -2.54567 0.0822881 0
M  V30 999 H 102.5 -2.98549 1.6948 0
M  V30 1000 N 104.945 -0.338344 -1.53925 0
M  V30 1001 C 105.878 0.563758 -2.21127 0
M  V30 1002 C 106.856 1.10433 -1.19345 0
M  V30 1003 O 108.04 1.16557 -1.48144 0
M  V30 1004 C 105.167 1.77505 -2.88461 0
M  V30 1005 C 104.213 1.3644 -4.04087 0
M  V30 1006 S 105.046 0.388593 -5.34088 0
M  V30 1007 C 106.202 1.60683 -6.04923 0
M  V30 1008 H 106.435 -0.00704546 -2.97299 0
M  V30 1009 H 103.968 -0.122418 -1.53914 0
M  V30 1010 H 105.926 2.46999 -3.27875 0
M  V30 1011 H 104.587 2.31706 -2.12064 0
M  V30 1012 H 103.78 2.26739 -4.50117 0
M  V30 1013 H 103.382 0.748998 -3.66423 0
M  V30 1014 H 105.674 2.54209 -6.28 0
M  V30 1015 H 106.617 1.18842 -6.98056 0
M  V30 1016 H 107.025 1.80052 -5.35015 0
M  V30 1017 N 106.423 1.57458 -0.0668435 0
M  V30 1018 C 107.386 2.11323 0.887422 0
M  V30 1019 C 108.386 1.03618 1.22964 0
M  V30 1020 O 109.576 1.29626 1.16373 0
M  V30 1021 C 106.708 2.61048 2.19242 0
M  V30 1022 H 107.901 2.96942 0.420194 0
M  V30 1023 H 105.454 1.55239 0.181793 0
M  V30 1024 H 106.189 1.78868 2.70512 0
M  V30 1025 H 105.974 3.39769 1.95702 0
M  V30 1026 H 107.464 3.02814 2.87565 0
M  V30 1027 N 107.901 -0.206675 1.56239 0
M  V30 1028 C 109.312 -0.772383 1.69974 0
M  V30 1029 C 109.663 -1.84353 0.671436 0
M  V30 1030 O 108.788 -2.15695 -0.174491 0
M  V30 1031 C 109.383 -1.40779 3.08167 0
M  V30 1032 C 107.942 -1.92072 3.23706 0
M  V30 1033 C 107.089 -0.786347 2.65917 0
M  V30 1034 H 110.04 0.0182223 1.5869 0
M  V30 1035 H 110.061 -2.27696 3.04852 0
M  V30 1036 H 109.573 -0.627958 3.82986 0
M  V30 1037 H 107.674 -2.7281 2.53782 0
M  V30 1038 H 107.787 -2.09046 4.31087 0
M  V30 1039 H 106.151 -1.1976 2.24788 0
M  V30 1040 H 106.934 -0.0189416 3.43295 0
M  V30 1041 N 109.379 -1.50304 -0.473955 0
M  V30 1042 C 110.342 -1.6841 -1.55469 0
M  V30 1043 C 111.342 -0.554905 -1.50922 0
M  V30 1044 O 112.532 -0.821882 -1.53593 0
M  V30 1045 C 109.664 -1.70667 -2.95102 0
M  V30 1046 H 110.857 -2.64828 -1.40733 0
M  V30 1047 H 108.41 -1.39742 -0.700132 0
M  V30 1048 H 109.145 -0.75932 -3.15285 0
M  V30 1049 H 108.93 -2.52698 -2.9981 0
M  V30 1050 H 110.42 -1.8664 -3.73571 0
M  V30 1051 N 110.857 0.726932 -1.39834 0
M  V30 1052 C 111.82 1.82269 -1.38962 0
M  V30 1053 C 112.82 1.58248 -0.285334 0
M  V30 1054 O 114.01 1.65499 -0.54366 0
M  V30 1055 C 111.142 3.20186 -1.17019 0
M  V30 1056 H 112.335 1.84443 -2.36476 0
M  V30 1057 H 109.888 0.931416 -1.25516 0
M  V30 1058 H 110.623 3.23669 -0.202204 0
M  V30 1059 H 110.408 3.3902 -1.96998 0
M  V30 1060 H 111.898 4.00235 -1.1917 0
M  V30 1061 N 112.336 1.25143 0.95797 0
M  V30 1062 C 113.299 1.05321 2.03569 0
M  V30 1063 C 114.299 0.007152 1.60798 0
M  V30 1064 O 115.489 0.24903 1.72411 0
M  V30 1065 C 112.621 0.598394 3.35607 0
M  V30 1066 H 113.814 2.00986 2.22586 0
M  V30 1067 H 111.367 1.07502 1.13459 0
M  V30 1068 H 112.102 -0.361014 3.22284 0
M  V30 1069 H 111.887 1.35351 3.67998 0
M  V30 1070 H 113.377 0.48104 4.1482 0
M  V30 1071 N 113.814 -1.1601 1.06675 0
M  V30 1072 C 114.777 -2.18724 0.685001 0
M  V30 1073 C 115.777 -1.58496 -0.271246 0
M  V30 1074 O 116.967 -1.74119 -0.0531156 0
M  V30 1075 C 114.099 -3.40899 0.00853648 0
M  V30 1076 H 115.292 -2.54011 1.59431 0
M  V30 1077 H 112.845 -1.30352 0.862441 0
M  V30 1078 H 113.58 -3.11173 -0.913337 0
M  V30 1079 H 113.365 -3.8587 0.696204 0
M  V30 1080 H 114.855 -4.16886 -0.24414 0
M  V30 1081 N 115.292 -0.849877 -1.32721 0
M  V30 1082 C 116.202 -0.293791 -2.32753 0
M  V30 1083 C 117.218 0.585906 -1.63839 0
M  V30 1084 O 118.394 0.487413 -1.95413 0
M  V30 1085 C 115.459 0.512752 -3.42887 0
M  V30 1086 C 114.52 -0.39252 -4.27502 0
M  V30 1087 C 113.753 0.375625 -5.32377 0
M  V30 1088 O 113.976 1.60613 -5.4732 0
M  V30 1089 O 112.91 -0.256094 -6.01355 0
M  V30 1090 H 116.736 -1.12242 -2.82197 0
M  V30 1091 H 114.321 -0.612685 -1.36259 0
M  V30 1092 H 116.203 0.970704 -4.10067 0
M  V30 1093 H 114.878 1.31826 -2.95641 0
M  V30 1094 H 113.785 -0.898547 -3.63149 0
M  V30 1095 H 115.118 -1.16309 -4.7826 0
M  V30 1096 N 116.77 1.45427 -0.607355 0
M  V30 1097 C 117.72 2.27612 0.133038 0
M  V30 1098 C 118.704 1.37307 0.838785 0
M  V30 1099 O 119.896 1.61299 0.728813 0
M  V30 1100 C 117.025 3.24173 1.12991 0
M  V30 1101 C 116.111 4.21965 0.425011 0
M  V30 1102 N 116.502 5.02982 -0.533217 0
M  V30 1103 C 114.8 4.40899 0.672593 0
M  V30 1104 C 115.501 5.73931 -0.947518 0
M  V30 1105 N 114.477 5.42819 -0.291321 0
M  V30 1106 H 118.279 2.87649 -0.602935 0
M  V30 1107 H 115.793 1.56576 -0.431006 0
M  V30 1108 H 117.79 3.81783 1.67473 0
M  V30 1109 H 116.45 2.65696 1.86644 0
M  V30 1110 H 117.461 5.09843 -0.90995 0
M  V30 1111 H 114.138 3.93547 1.39382 0
M  V30 1112 H 115.528 6.49037 -1.73782 0
M  V30 1113 N 118.248 0.346503 1.53744 0
M  V30 1114 C 119.211 -0.496439 2.23759 0
M  V30 1115 C 120.211 -1.0252 1.2388 0
M  V30 1116 O 121.401 -0.913974 1.48297 0
M  V30 1117 C 118.533 -1.69187 2.95954 0
M  V30 1118 H 119.726 0.115952 2.99676 0
M  V30 1119 H 117.279 0.0978939 1.55993 0
M  V30 1120 H 118.014 -2.34288 2.24231 0
M  V30 1121 H 117.799 -1.31989 3.69217 0
M  V30 1122 H 119.289 -2.28969 3.49232 0
M  V30 1123 N 119.726 -1.57421 0.075193 0
M  V30 1124 C 120.974 -1.93236 -0.591974 0
M  V30 1125 C 121.295 -0.956241 -1.69944 0
M  V30 1126 O 120.565 -0.00494792 -1.95899 0
M  V30 1127 H 119.145 -0.713355 -0.22166 0
M  V30 1128 H 121.807 -1.9444 0.133848 0
M  V30 1129 H 120.903 -2.95131 -1.01509 0
M  V30 1130 N 121.204 0.198386 -1.56346 0
M  V30 1131 C 122.137 1.27381 -1.89339 0
M  V30 1132 C 123.115 1.44106 -0.753134 0
M  V30 1133 O 124.299 1.59549 -1.00381 0
M  V30 1134 C 121.426 2.6409 -2.12071 0
M  V30 1135 C 120.472 2.64253 -3.34772 0
M  V30 1136 S 121.305 2.16013 -4.89999 0
M  V30 1137 C 122.461 3.54553 -5.15794 0
M  V30 1138 H 122.694 0.992058 -2.8026 0
M  V30 1139 H 120.227 0.401726 -1.49082 0
M  V30 1140 H 122.185 3.42786 -2.2585 0
M  V30 1141 H 120.846 2.89478 -1.21906 0
M  V30 1142 H 120.039 3.64768 -3.47794 0
M  V30 1143 H 119.641 1.93637 -3.1997 0
M  V30 1144 H 121.933 4.50396 -5.06112 0
M  V30 1145 H 122.876 3.46428 -6.1757 0
M  V30 1146 H 123.284 3.49313 -4.43442 0
M  V30 1147 N 122.682 1.50554 0.465978 0
M  V30 1148 C 123.645 1.69233 1.54574 0
M  V30 1149 C 124.645 0.562901 1.50626 0
M  V30 1150 O 125.835 0.830016 1.53155 0
M  V30 1151 C 122.967 1.7223 2.94193 0
M  V30 1152 H 124.16 2.65571 1.39327 0
M  V30 1153 H 121.713 1.40111 0.692711 0
M  V30 1154 H 122.448 0.77603 3.14878 0
M  V30 1155 H 122.233 2.54285 2.98466 0
M  V30 1156 H 123.723 1.88618 3.72576 0
M  V30 1157 N 124.16 -0.719506 1.40217 0
M  V30 1158 C 125.09 -1.8465 1.42922 0
M  V30 1159 C 126.071 -1.67599 0.29062 0
M  V30 1160 O 127.256 -1.87688 0.498677 0
M  V30 1161 C 124.386 -3.22565 1.28722 0
M  V30 1162 C 123.34 -3.54281 2.40144 0
M  V30 1163 C 122.666 -4.91298 2.11023 0
M  V30 1164 C 123.966 -3.55676 3.82481 0
M  V30 1165 H 125.66 -1.82644 2.37237 0
M  V30 1166 H 123.206 -0.877305 1.1419 0
M  V30 1167 H 125.159 -4.01095 1.29232 0
M  V30 1168 H 123.883 -3.25137 0.308811 0
M  V30 1169 H 122.542 -2.78088 2.38877 0
M  V30 1170 H 122.19 -4.90468 1.11582 0
M  V30 1171 H 121.89 -5.13485 2.8567 0
M  V30 1172 H 123.414 -5.72166 2.13209 0
M  V30 1173 H 124.828 -4.24254 3.85592 0
M  V30 1174 H 123.225 -3.89388 4.56614 0
M  V30 1175 H 124.295 -2.55144 4.12346 0
M  V30 1176 N 125.638 -1.25649 -0.95132 0
M  V30 1177 C 127.049 -1.09654 -1.51106 0
M  V30 1178 C 127.4 0.326615 -1.93462 0
M  V30 1179 O 126.525 1.21697 -1.78938 0
M  V30 1180 C 127.12 -1.98437 -2.74605 0
M  V30 1181 C 125.679 -1.86618 -3.2688 0
M  V30 1182 C 124.826 -1.9239 -1.99703 0
M  V30 1183 H 127.777 -1.38887 -0.767865 0
M  V30 1184 H 127.798 -1.5263 -3.48546 0
M  V30 1185 H 127.31 -3.02009 -2.43746 0
M  V30 1186 H 125.411 -0.859421 -3.62553 0
M  V30 1187 H 125.524 -2.71607 -3.94673 0
M  V30 1188 H 123.888 -1.36317 -2.15151 0
M  V30 1189 H 124.671 -2.97573 -1.71188 0
M  V30 1190 N 127.117 1.15442 -1.07289 0
M  V30 1191 C 128.08 2.18358 -0.696591 0
M  V30 1192 C 129.08 1.58637 0.262837 0
M  V30 1193 O 130.27 1.74145 0.0438809 0
M  V30 1194 C 127.402 3.4089 -0.0266151 0
M  V30 1195 H 128.595 2.53162 -1.60776 0
M  V30 1196 H 126.148 1.29893 -0.869342 0
M  V30 1197 H 126.883 3.11653 0.896822 0
M  V30 1198 H 126.668 3.85495 -0.716657 0
M  V30 1199 H 128.158 4.17009 0.222028 0
M  V30 1200 N 128.595 0.856903 1.32268 0
M  V30 1201 C 130.011 0.547061 1.49931 0
M  V30 1202 C 130.211 -0.921781 1.7918 0
M  V30 1203 O 129.267 -1.70469 1.8627 0
M  V30 1204 C 130.58 1.43599 2.64196 0
M  V30 1205 C 132.128 1.43665 2.78081 0
M  V30 1206 C 132.603 2.31085 3.95428 0
M  V30 1207 N 134.094 2.28893 4.02694 0
M  V30 1208 C 134.829 2.93262 4.92732 0
M  V30 1209 N 134.325 3.66751 5.87763 0
M  V30 1210 N 136.118 2.82638 4.85873 0
M  V30 1211 H 128.269 1.8075 1.11549 0
M  V30 1212 H 130.532 0.772144 0.549997 0
M  V30 1213 H 130.238 2.48058 2.49319 0
M  V30 1214 H 130.112 1.12502 3.60032 0
M  V30 1215 H 132.499 0.399701 2.92381 0
M  V30 1216 H 132.58 1.7878 1.82952 0
M  V30 1217 H 132.224 3.34849 3.81888 0
M  V30 1218 H 132.154 1.93302 4.89839 0
M  V30 1219 H 134.645 1.75466 3.34694 0
M  V30 1220 H 134.958 4.13027 6.53168 0
M  V30 1221 H 133.303 3.70859 5.87783 0
M  V30 1222 H 136.494 2.24774 4.10602 0
M  V30 1223 H 136.667 3.33084 5.55841 0
M  V30 1224 N 130.073 -1.45103 0.615059 0
M  V30 1225 C 131.35 -1.95549 0.0448276 0
M  V30 1226 C 131.73 -1.55737 -1.4251 0
M  V30 1227 O 131.078 -0.823556 -2.13143 0
M  V30 1228 C 131.288 -3.48098 0.250785 0
M  V30 1229 C 132.636 -4.24384 0.135509 0
M  V30 1230 O 133.66 -3.55738 0.181299 0
M  V30 1231 O 132.519 -5.46493 0.0268878 0
M  V30 1232 H 129.613 -0.8264 -0.0314845 0
M  V30 1233 H 132.159 -1.55232 0.685642 0
M  V30 1234 H 130.931 -3.7007 1.27139 0
M  V30 1235 H 130.554 -3.95323 -0.424937 0
M  V30 1236 N 131.551 -0.354651 -1.53558 0
M  V30 1237 C 132.483 0.5315 -2.22952 0
M  V30 1238 C 133.496 1.05503 -1.23988 0
M  V30 1239 O 134.685 0.963279 -1.50277 0
M  V30 1240 C 131.785 1.74538 -2.90499 0
M  V30 1241 C 130.958 1.35524 -4.15875 0
M  V30 1242 C 130.017 2.42999 -4.66731 0
M  V30 1243 O 129.043 2.05844 -5.30676 0
M  V30 1244 N 130.245 3.74423 -4.43608 0
M  V30 1245 H 133.01 -0.0628615 -2.99634 0
M  V30 1246 H 130.571 -0.179302 -1.60904 0
M  V30 1247 H 132.563 2.45892 -3.21433 0
M  V30 1248 H 131.133 2.24686 -2.17336 0
M  V30 1249 H 130.353 0.471998 -3.91364 0
M  V30 1250 H 131.641 1.07071 -4.97406 0
M  V30 1251 H 131.039 4.07391 -3.92491 0
M  V30 1252 H 129.596 4.41913 -4.7912 0
M  V30 1253 N 133.029 1.57378 -0.0835403 0
M  V30 1254 C 134.278 1.93106 0.582498 0
M  V30 1255 C 134.591 0.96651 1.70053 0
M  V30 1256 O 135.797 1.21705 2.42693 0
M  V30 1257 C 134.253 3.43076 1.08751 0
M  V30 1258 C 133.861 4.48 -0.000146404 0
M  V30 1259 C 135.605 3.87785 1.72694 0
M  V30 1260 C 133.512 5.89113 0.519568 0
M  V30 1261 H 132.442 0.720775 0.221358 0
M  V30 1262 H 135.093 1.82821 -0.157675 0
M  V30 1263 H 133.475 3.48474 1.88101 0
M  V30 1264 H 134.649 4.54233 -0.775199 0
M  V30 1265 H 132.964 4.1283 -0.54406 0
M  V30 1266 H 135.561 4.90604 2.1263 0
M  V30 1267 H 135.904 3.25796 2.59158 0
M  V30 1268 H 136.437 3.8504 0.999457 0
M  V30 1269 H 133.176 6.54775 -0.308186 0
M  V30 1270 H 132.696 5.86376 1.26188 0
M  V30 1271 H 134.375 6.39346 0.992237 0
M  V30 1272 N 134.507 -0.190092 1.56449 0
M  V30 1273 C 135.753 -0.911052 1.81184 0
M  V30 1274 C 136.086 -1.82699 0.658396 0
M  V30 1275 O 135.361 -1.91491 -0.340775 0
M  V30 1276 C 135.644 -1.72297 3.16205 0
M  V30 1277 C 135.497 -0.831419 4.42049 0
M  V30 1278 C 136.816 -2.69454 3.47969 0
M  V30 1279 H 133.935 -0.32977 0.659106 0
M  V30 1280 H 136.577 -0.178169 1.89163 0
M  V30 1281 H 134.727 -2.34778 3.09534 0
M  V30 1282 H 136.399 -0.220929 4.60771 0
M  V30 1283 H 134.642 -0.138406 4.33579 0
M  V30 1284 H 135.313 -1.43461 5.33032 0
M  V30 1285 H 137.789 -2.17104 3.54972 0
M  V30 1286 H 136.665 -3.23342 4.43555 0
M  V30 1287 H 136.926 -3.48744 2.71717 0
M  V30 1288 N 135.985 -1.50799 -0.457987 0
M  V30 1289 C 137.401 -1.38515 -0.792819 0
M  V30 1290 C 137.601 -0.451409 -1.96379 0
M  V30 1291 O 136.657 0.10112 -2.52297 0
M  V30 1292 C 137.97 -2.80149 -1.09258 0
M  V30 1293 C 139.518 -2.89156 -1.19825 0
M  V30 1294 C 139.993 -4.31651 -1.53106 0
M  V30 1295 N 141.484 -4.34662 -1.60072 0
M  V30 1296 C 142.219 -5.41928 -1.87354 0
M  V30 1297 N 141.715 -6.59384 -2.12568 0
M  V30 1298 N 143.508 -5.29385 -1.88965 0
M  V30 1299 H 135.659 -2.10073 0.313511 0
M  V30 1300 H 137.922 -0.944803 0.0777862 0
M  V30 1301 H 137.628 -3.50374 -0.305084 0
M  V30 1302 H 137.502 -3.18204 -2.02549 0
M  V30 1303 H 139.889 -2.19141 -1.97639 0
M  V30 1304 H 139.97 -2.54626 -0.244821 0
M  V30 1305 H 139.614 -5.02208 -0.758266 0
M  V30 1306 H 139.544 -4.63678 -2.49621 0
M  V30 1307 H 142.035 -3.49973 -1.42573 0
M  V30 1308 H 142.348 -7.36934 -2.32696 0
M  V30 1309 H 140.693 -6.62535 -2.09933 0
M  V30 1310 H 143.884 -4.36616 -1.68772 0
M  V30 1311 H 144.057 -6.13066 -2.09891 0
M  V30 1312 N 137.463 0.71206 -1.40597 0
M  V30 1313 C 138.393 1.83889 -1.43899 0
M  V30 1314 C 139.374 1.67442 -0.299504 0
M  V30 1315 O 140.559 1.87421 -0.508624 0
M  V30 1316 C 137.689 3.21877 -1.30431 0
M  V30 1317 C 136.643 3.53002 -2.42019 0
M  V30 1318 C 135.969 4.90172 -2.13626 0
M  V30 1319 C 137.269 3.53643 -3.84362 0
M  V30 1320 H 138.963 1.81383 -2.38203 0
M  V30 1321 H 136.509 0.871237 -1.14654 0
M  V30 1322 H 138.462 4.00404 -1.31357 0
M  V30 1323 H 137.186 3.24968 -0.326049 0
M  V30 1324 H 135.845 2.76818 -2.40349 0
M  V30 1325 H 135.493 4.89869 -1.14182 0
M  V30 1326 H 135.193 5.11962 -2.88389 0
M  V30 1327 H 136.717 5.71028 -2.1624 0
M  V30 1328 H 138.131 4.22203 -3.87837 0
M  V30 1329 H 136.528 3.86961 -4.58673 0
M  V30 1330 H 137.598 2.52954 -4.13693 0
M  V30 1331 N 138.941 1.26152 0.944643 0
M  V30 1332 C 140.19 1.10883 1.68487 0
M  V30 1333 C 140.503 -0.348153 1.92477 0
M  V30 1334 O 141.709 -0.621459 2.64292 0
M  V30 1335 C 140.165 1.93624 3.03377 0
M  V30 1336 C 139.773 3.43875 2.87148 0
M  V30 1337 C 141.517 1.86954 3.81115 0
M  V30 1338 C 139.424 4.18875 4.1749 0
M  V30 1339 H 138.354 0.41135 0.631907 0
M  V30 1340 H 141.005 1.50433 1.05082 0
M  V30 1341 H 139.387 1.46904 3.67743 0
M  V30 1342 H 140.561 3.98338 2.31653 0
M  V30 1343 H 138.876 3.51744 2.22856 0
M  V30 1344 H 141.473 2.40275 4.77673 0
M  V30 1345 H 141.816 0.839518 4.07747 0
M  V30 1346 H 142.349 2.31477 3.23517 0
M  V30 1347 H 139.088 5.22332 3.96043 0
M  V30 1348 H 138.608 3.69193 4.72712 0
M  V30 1349 H 140.287 4.27134 4.85968 0
M  V30 1350 N 140.419 -1.14872 1.07899 0
M  V30 1351 C 141.382 -2.17986 0.708161 0
M  V30 1352 C 142.382 -1.58775 -0.25442 0
M  V30 1353 O 143.572 -1.74166 -0.034645 0
M  V30 1354 C 140.704 -3.40871 0.0446929 0
M  V30 1355 H 141.897 -2.52306 1.62116 0
M  V30 1356 H 139.45 -1.2943 0.876218 0
M  V30 1357 H 140.185 -3.12124 -0.880281 0
M  V30 1358 H 139.97 -3.8511 0.737091 0
M  V30 1359 H 141.46 -4.17121 -0.19991 0
M  V30 1360 N 141.898 -0.863906 -1.31812 0
M  V30 1361 C 143.175 -0.39275 -1.91616 0
M  V30 1362 C 143.555 1.12461 -1.7865 0
M  V30 1363 O 142.903 1.95045 -1.19037 0
M  V30 1364 C 143.113 -0.867385 -3.38049 0
M  V30 1365 C 144.461 -0.889966 -4.15168 0
M  V30 1366 O 145.485 -0.812635 -3.46806 0
M  V30 1367 O 144.344 -1.00079 -5.37258 0
M  V30 1368 H 141.438 -0.116358 -0.818773 0
M  V30 1369 H 143.984 -0.951418 -1.40521 0
M  V30 1370 H 142.756 -1.91081 -3.41473 0
M  V30 1371 H 142.379 -0.286687 -3.96565 0
M  V30 1372 N 143.376 1.44774 -0.622745 0
M  V30 1373 C 144.306 2.33382 0.0741861 0
M  V30 1374 C 145.287 1.47719 0.843387 0
M  V30 1375 O 146.472 1.76458 0.810934 0
M  V30 1376 C 143.602 3.30663 1.06204 0
M  V30 1377 C 142.556 4.26079 0.405037 0
M  V30 1378 C 141.882 5.13165 1.5022 0
M  V30 1379 C 143.182 5.1781 -0.683414 0
M  V30 1380 H 144.876 2.91905 -0.665713 0
M  V30 1381 H 142.422 1.40363 -0.321587 0
M  V30 1382 H 144.375 3.9153 1.55827 0
M  V30 1383 H 143.099 2.70331 1.83272 0
M  V30 1384 H 141.758 3.66532 -0.0704683 0
M  V30 1385 H 141.406 4.49191 2.26355 0
M  V30 1386 H 141.106 5.77812 1.06803 0
M  V30 1387 H 142.63 5.76902 2.00041 0
M  V30 1388 H 144.044 5.72661 -0.270631 0
M  V30 1389 H 142.441 5.91015 -1.04023 0
M  V30 1390 H 143.511 4.59326 -1.55395 0
M  V30 1391 N 144.854 0.36279 1.53368 0
M  V30 1392 C 146.131 -0.284021 1.93527 0
M  V30 1393 C 146.511 -1.66628 1.29608 0
M  V30 1394 O 145.859 -2.23942 0.45413 0
M  V30 1395 C 146.069 -0.337028 3.47369 0
M  V30 1396 C 147.417 -0.578708 4.20638 0
M  V30 1397 O 148.441 -0.418352 3.53735 0
M  V30 1398 O 147.3 -0.89074 5.39192 0
M  V30 1399 H 144.394 -0.169743 0.809393 0
M  V30 1400 H 146.94 0.41537 1.64538 0
M  V30 1401 H 145.712 0.632217 3.86159 0
M  V30 1402 H 145.335 -1.08243 3.82582 0
M  V30 1403 N 146.332 -1.57332 0.0918853 0
M  V30 1404 C 147.748 -1.57389 -0.264766 0
M  V30 1405 C 147.948 -1.10281 -1.68643 0
M  V30 1406 O 147.004 -0.777801 -2.40222 0
M  V30 1407 C 148.317 -3.00648 -0.0561195 0
M  V30 1408 C 149.865 -3.12754 -0.124116 0
M  V30 1409 C 150.34 -4.57965 0.0564972 0
M  V30 1410 N 151.831 -4.632 0.00155611 0
M  V30 1411 C 152.566 -5.73281 0.116598 0
M  V30 1412 N 152.062 -6.92208 0.286294 0
M  V30 1413 N 153.855 -5.6207 0.0580973 0
M  V30 1414 H 146.006 -1.86262 1.02079 0
M  V30 1415 H 148.269 -0.859579 0.399786 0
M  V30 1416 H 147.975 -3.393 0.925669 0
M  V30 1417 H 147.849 -3.68623 -0.799823 0
M  V30 1418 H 150.236 -2.73976 -1.09641 0
M  V30 1419 H 150.317 -2.47377 0.651024 0
M  V30 1420 H 149.961 -4.97436 1.02564 0
M  V30 1421 H 149.891 -5.21399 -0.738297 0
M  V30 1422 H 152.382 -3.77686 -0.127192 0
M  V30 1423 H 152.695 -7.71934 0.365676 0
M  V30 1424 H 151.04 -6.94254 0.32192 0
M  V30 1425 H 154.231 -4.68043 -0.0733204 0
M  V30 1426 H 154.404 -6.47824 0.151203 0
M  V30 1427 N 147.81 0.181792 -1.56548 0
M  V30 1428 C 149.221 0.745244 -1.71181 0
M  V30 1429 C 149.572 1.83262 -0.70068 0
M  V30 1430 O 148.697 2.15946 0.140154 0
M  V30 1431 C 149.292 1.35859 -3.10367 0
M  V30 1432 C 147.851 1.86898 -3.2672 0
M  V30 1433 C 146.998 0.743942 -2.67134 0
M  V30 1434 H 149.949 -0.0434661 -1.5864 0
M  V30 1435 H 149.97 2.22817 -3.08436 0
M  V30 1436 H 149.482 0.566948 -3.83937 0
M  V30 1437 H 147.583 2.68738 -2.5809 0
M  V30 1438 H 147.696 2.02162 -4.34359 0
M  V30 1439 H 146.06 1.16169 -2.26665 0
M  V30 1440 H 146.843 -0.035676 -3.43281 0
M  V30 1441 N 149.288 1.51039 0.449983 0
M  V30 1442 C 150.536 1.62759 1.19808 0
M  V30 1443 C 150.857 0.339981 1.92013 0
M  V30 1444 O 150.127 -0.643606 1.85026 0
M  V30 1445 H 148.707 0.599811 0.445237 0
M  V30 1446 H 151.369 1.87914 0.517138 0
M  V30 1447 H 150.465 2.44911 1.93455 0
M  V30 1448 N 150.766 -0.704594 1.40972 0
M  V30 1449 C 152.182 -1.01406 1.23244 0
M  V30 1450 C 152.382 -2.01169 0.115399 0
M  V30 1451 O 151.438 -2.47021 -0.523147 0
M  V30 1452 C 152.751 -1.54728 2.57836 0
M  V30 1453 C 154.299 -1.66658 2.64942 0
M  V30 1454 C 154.774 -2.23383 3.9983 0
M  V30 1455 N 156.265 -2.30756 4.01629 0
M  V30 1456 C 157 -2.75655 5.02794 0
M  V30 1457 N 156.496 -3.20225 6.14352 0
M  V30 1458 N 158.289 -2.75138 4.90159 0
M  V30 1459 H 150.44 -0.0435285 2.12355 0
M  V30 1460 H 152.703 -0.0818951 0.944456 0
M  V30 1461 H 152.409 -0.888832 3.40283 0
M  V30 1462 H 152.283 -2.53084 2.79693 0
M  V30 1463 H 154.67 -2.31617 1.8286 0
M  V30 1464 H 154.751 -0.668717 2.46904 0
M  V30 1465 H 154.395 -1.59043 4.82357 0
M  V30 1466 H 154.325 -3.23904 4.15203 0
M  V30 1467 H 156.816 -1.99291 3.21079 0
M  V30 1468 H 157.129 -3.53084 6.87424 0
M  V30 1469 H 155.474 -3.18156 6.17901 0
M  V30 1470 H 158.665 -2.39661 4.02095 0
M  V30 1471 H 158.838 -3.09812 5.6914 0
M  V30 1472 N 152.244 -1.26651 -0.937939 0
M  V30 1473 C 153.174 -1.10993 -2.05433 0
M  V30 1474 C 154.155 -0.0142161 -1.70094 0
M  V30 1475 O 155.34 -0.186837 -1.93299 0
M  V30 1476 C 152.47 -0.745561 -3.39203 0
M  V30 1477 C 151.424 -1.79337 -3.88616 0
M  V30 1478 C 150.75 -1.28324 -5.19073 0
M  V30 1479 C 152.05 -3.19553 -4.13138 0
M  V30 1480 H 153.744 -2.0438 -2.1879 0
M  V30 1481 H 151.29 -0.984041 -1.05131 0
M  V30 1482 H 153.243 -0.622888 -4.16771 0
M  V30 1483 H 151.967 0.22401 -3.25831 0
M  V30 1484 H 150.626 -1.90477 -3.13231 0
M  V30 1485 H 150.274 -0.303414 -5.02084 0
M  V30 1486 H 149.974 -1.98369 -5.53103 0
M  V30 1487 H 151.498 -1.1733 -5.99221 0
M  V30 1488 H 152.912 -3.11471 -4.81309 0
M  V30 1489 H 151.309 -3.87218 -4.58457 0
M  V30 1490 H 152.379 -3.65368 -3.18801 0
M  V30 1491 N 153.722 1.14298 -1.08507 0
M  V30 1492 C 154.95 1.89219 -0.836876 0
M  V30 1493 C 155.365 1.78638 0.611054 0
M  V30 1494 O 154.722 1.14643 1.41998 0
M  V30 1495 C 154.773 3.39158 -1.25116 0
M  V30 1496 O 154.494 3.49449 -2.64229 0
M  V30 1497 C 155.995 4.31073 -1.03398 0
M  V30 1498 H 153.215 0.599328 -0.301739 0
M  V30 1499 H 155.759 1.44746 -1.44461 0
M  V30 1500 H 153.914 3.81251 -0.687514 0
M  V30 1501 H 154.328 4.42589 -2.81452 0
M  V30 1502 H 155.802 5.34646 -1.37323 0
M  V30 1503 H 156.279 4.3919 0.0289259 0
M  V30 1504 H 156.885 3.94738 -1.58311 0
M  V30 1505 N 155.201 0.870884 1.31352 0
M  V30 1506 C 156.131 0.343096 2.30966 0
M  V30 1507 C 157.112 -0.566507 1.60389 0
M  V30 1508 O 158.297 -0.483336 1.88089 0
M  V30 1509 C 155.427 -0.455487 3.443 0
M  V30 1510 C 154.381 0.361103 4.26474 0
M  V30 1511 C 153.707 -0.563221 5.31725 0
M  V30 1512 C 155.007 1.59566 4.97329 0
M  V30 1513 H 156.701 1.17548 2.75359 0
M  V30 1514 H 154.247 0.566686 1.32381 0
M  V30 1515 H 156.2 -0.83525 4.13039 0
M  V30 1516 H 154.924 -1.32139 2.98675 0
M  V30 1517 H 153.583 0.722825 3.59403 0
M  V30 1518 H 153.231 -1.42643 4.82351 0
M  V30 1519 H 152.931 -0.0207409 5.87596 0
M  V30 1520 H 154.455 -0.939808 6.03324 0
M  V30 1521 H 155.869 1.28728 5.58661 0
M  V30 1522 H 154.266 2.07728 5.63 0
M  V30 1523 H 155.336 2.34798 4.24262 0
M  V30 1524 N 156.679 -1.44442 0.630414 0
M  V30 1525 C 157.925 -2.02351 0.134816 0
M  V30 1526 C 158.258 -1.4947 -1.23986 0
M  V30 1527 O 157.533 -0.678475 -1.82283 0
M  V30 1528 C 157.816 -3.59898 0.120707 0
M  V30 1529 C 157.669 -4.23063 1.52767 0
M  V30 1530 C 158.988 -4.36585 -0.555127 0
M  V30 1531 H 156.107 -0.73527 0.0504646 0
M  V30 1532 H 158.749 -1.72022 0.806751 0
M  V30 1533 H 156.899 -3.85868 -0.451477 0
M  V30 1534 H 158.571 -4.08202 2.14869 0
M  V30 1535 H 156.814 -3.80586 2.08175 0
M  V30 1536 H 157.485 -5.32071 1.46984 0
M  V30 1537 H 159.961 -4.16044 -0.0685429 0
M  V30 1538 H 158.837 -5.46294 -0.534185 0
M  V30 1539 H 159.098 -4.11138 -1.62535 0
M  V30 1540 N 158.157 -0.370918 -1.53173 0
M  V30 1541 C 159.067 0.480823 -2.2962 0
M  V30 1542 C 160.083 1.08789 -1.35798 0
M  V30 1543 O 161.259 1.09768 -1.68858 0
M  V30 1544 C 158.324 1.60227 -3.07454 0
M  V30 1545 C 157.385 1.0222 -4.16953 0
M  V30 1546 C 156.618 2.0902 -4.91066 0
M  V30 1547 O 156.841 3.30222 -4.65091 0
M  V30 1548 O 155.775 1.71778 -5.76867 0
M  V30 1549 H 159.601 -0.141421 -3.03371 0
M  V30 1550 H 157.186 -0.135146 -1.48787 0
M  V30 1551 H 159.068 2.25417 -3.56041 0
M  V30 1552 H 157.743 2.20982 -2.36535 0
M  V30 1553 H 156.65 0.334064 -3.72605 0
M  V30 1554 H 157.983 0.459131 -4.90054 0
M  V30 1555 N 159.635 1.57281 -0.100228 0
M  V30 1556 C 160.883 1.94153 0.561157 0
M  V30 1557 C 161.204 0.983157 1.68401 0
M  V30 1558 O 160.474 0.0361132 1.95867 0
M  V30 1559 H 159.054 0.716791 0.210283 0
M  V30 1560 H 161.716 1.94202 -0.164765 0
M  V30 1561 H 160.812 2.96709 0.968008 0
M  V30 1562 N 161.113 -0.173488 1.56642 0
M  V30 1563 C 162.076 -1.19859 1.95362 0
M  V30 1564 C 163.076 -1.37296 0.83704 0
M  V30 1565 O 164.266 -1.34739 1.10413 0
M  V30 1566 C 161.398 -2.56405 2.24654 0
M  V30 1567 H 162.591 -0.867062 2.87092 0
M  V30 1568 H 160.144 -0.415853 1.50666 0
M  V30 1569 H 160.879 -2.94576 1.35631 0
M  V30 1570 H 160.664 -2.45115 3.06041 0
M  V30 1571 H 162.154 -3.30287 2.5554 0
M  V30 1572 N 162.591 -1.51276 -0.441967 0
M  V30 1573 C 163.839 -1.63392 -1.18943 0
M  V30 1574 C 164.16 -0.350159 -1.9183 0
M  V30 1575 O 163.43 0.633784 -1.85364 0
M  V30 1576 H 162.01 -0.602164 -0.442049 0
M  V30 1577 H 164.672 -1.88186 -0.507165 0
M  V30 1578 H 163.768 -2.45934 -1.92154 0
M  V30 1579 N 164.069 0.697108 -1.41344 0
M  V30 1580 C 165.317 1.45426 -1.40341 0
M  V30 1581 C 165.638 1.94996 -0.0128787 0
M  V30 1582 O 164.908 1.71599 0.945027 0
M  V30 1583 H 163.488 0.539594 -0.516573 0
M  V30 1584 H 166.15 0.825201 -1.76569 0
M  V30 1585 H 165.246 2.31817 -2.08967 0
M  V30 1586 N 165.547 1.27147 0.931209 0
M  V30 1587 C 166.477 1.12081 2.04842 0
M  V30 1588 C 167.458 0.0232364 1.70084 0
M  V30 1589 O 168.643 0.197085 1.93197 0
M  V30 1590 C 165.773 0.76354 3.38803 0
M  V30 1591 C 164.727 1.81396 3.87659 0
M  V30 1592 C 164.053 1.31075 5.18385 0
M  V30 1593 C 165.353 3.21739 4.11438 0
M  V30 1594 H 167.047 2.05537 2.17703 0
M  V30 1595 H 164.593 0.989603 1.04608 0
M  V30 1596 H 166.546 0.644982 4.16435 0
M  V30 1597 H 165.27 -0.206727 3.25945 0
M  V30 1598 H 163.929 1.92136 3.12217 0
M  V30 1599 H 163.577 0.330037 5.01916 0
M  V30 1600 H 163.277 2.013 5.52044 0
M  V30 1601 H 164.801 1.20506 5.98591 0
M  V30 1602 H 166.215 3.14019 4.79651 0
M  V30 1603 H 164.612 3.89644 4.56397 0
M  V30 1604 H 165.682 3.67054 3.16859 0
M  V30 1605 N 167.025 -1.13721 1.09112 0
M  V30 1606 C 167.955 -2.21148 0.749385 0
M  V30 1607 C 168.936 -1.6792 -0.271475 0
M  V30 1608 O 170.121 -1.93693 -0.140251 0
M  V30 1609 C 167.251 -3.46905 0.165659 0
M  V30 1610 C 166.205 -4.13203 1.11567 0
M  V30 1611 C 165.531 -5.33248 0.393809 0
M  V30 1612 C 166.831 -4.60912 2.45678 0
M  V30 1613 H 168.525 -2.4999 1.64758 0
M  V30 1614 H 166.071 -1.20156 0.793626 0
M  V30 1615 H 168.024 -4.21313 -0.085466 0
M  V30 1616 H 166.748 -3.17449 -0.767714 0
M  V30 1617 H 165.407 -3.40758 1.35202 0
M  V30 1618 H 165.055 -5.00054 -0.543599 0
M  V30 1619 H 164.755 -5.78552 1.02721 0
M  V30 1620 H 166.279 -6.10413 0.150908 0
M  V30 1621 H 167.693 -5.26759 2.26269 0
M  V30 1622 H 166.09 -5.16944 3.04776 0
M  V30 1623 H 167.16 -3.75603 3.06677 0
M  V30 1624 N 168.503 -0.877838 -1.30888 0
M  V30 1625 C 169.749 -0.493426 -1.96706 0
M  V30 1626 C 170.082 0.953504 -1.6918 0
M  V30 1627 O 169.357 1.67266 -0.992594 0
M  V30 1628 C 169.64 -0.760429 -3.51979 0
M  V30 1629 C 169.493 -2.25747 -3.89048 0
M  V30 1630 C 170.812 -0.232148 -4.39487 0
M  V30 1631 H 167.931 -0.180746 -0.714493 0
M  V30 1632 H 170.573 -1.10052 -1.54882 0
M  V30 1633 H 168.723 -0.243715 -3.87735 0
M  V30 1634 H 170.395 -2.84204 -3.63354 0
M  V30 1635 H 168.638 -2.72694 -3.37373 0
M  V30 1636 H 169.309 -2.39491 -4.97341 0
M  V30 1637 H 171.785 -0.674314 -4.106 0
M  V30 1638 H 170.661 -0.448355 -5.47066 0
M  V30 1639 H 170.922 0.866297 -4.33529 0
M  V30 1640 N 169.982 1.44106 -0.638065 0
M  V30 1641 C 170.892 2.34513 0.0637334 0
M  V30 1642 C 171.908 1.53018 0.828346 0
M  V30 1643 O 173.084 1.85723 0.779036 0
M  V30 1644 C 170.149 3.31095 1.02844 0
M  V30 1645 C 169.21 4.28497 0.26244 0
M  V30 1646 C 168.443 5.20465 1.1812 0
M  V30 1647 O 168.666 5.16514 2.42011 0
M  V30 1648 O 167.6 5.98251 0.661774 0
M  V30 1649 H 171.426 2.95989 -0.68003 0
M  V30 1650 H 169.011 1.43994 -0.398252 0
M  V30 1651 H 170.893 3.90526 1.58327 0
M  V30 1652 H 169.568 2.72144 1.7527 0
M  V30 1653 H 168.475 3.72592 -0.335602 0
M  V30 1654 H 169.808 4.90388 -0.421936 0
M  V30 1655 N 171.46 0.379036 1.52974 0
M  V30 1656 C 172.39 -0.452706 2.29069 0
M  V30 1657 C 173.371 -1.07237 1.32039 0
M  V30 1658 O 174.556 -1.08708 1.60923 0
M  V30 1659 C 171.686 -1.5856 3.08992 0
M  V30 1660 C 170.64 -1.0925 4.13822 0
M  V30 1661 C 169.966 -2.31668 4.81907 0
M  V30 1662 C 171.266 -0.167702 5.22031 0
M  V30 1663 H 172.96 0.182181 2.98845 0
M  V30 1664 H 170.506 0.0890592 1.43724 0
M  V30 1665 H 172.459 -2.1742 3.6098 0
M  V30 1666 H 171.183 -2.24792 2.36931 0
M  V30 1667 H 169.842 -0.526494 3.628 0
M  V30 1668 H 169.49 -2.96386 4.06404 0
M  V30 1669 H 169.19 -1.9934 5.52754 0
M  V30 1670 H 170.714 -2.91189 5.36695 0
M  V30 1671 H 172.128 -0.664186 5.6944 0
M  V30 1672 H 170.525 0.0653265 6.00064 0
M  V30 1673 H 171.595 0.786347 4.78482 0
M  V30 1674 N 172.938 -1.57226 0.108567 0
M  V30 1675 C 173.901 -2.13602 -0.831082 0
M  V30 1676 C 174.901 -1.06841 -1.20173 0
M  V30 1677 O 176.091 -1.32666 -1.12895 0
M  V30 1678 C 173.223 -2.66769 -2.12243 0
M  V30 1679 H 174.416 -2.97951 -0.341317 0
M  V30 1680 H 171.969 -1.55667 -0.14057 0
M  V30 1681 H 172.704 -1.85977 -2.65675 0
M  V30 1682 H 172.489 -3.44839 -1.86625 0
M  V30 1683 H 173.979 -3.10332 -2.79435 0
M  V30 1684 N 174.416 0.165178 -1.56732 0
M  V30 1685 C 175.326 1.22423 -2.00125 0
M  V30 1686 C 176.342 1.48084 -0.913619 0
M  V30 1687 O 177.518 1.60112 -1.22172 0
M  V30 1688 C 174.583 2.54197 -2.35764 0
M  V30 1689 C 173.644 2.36343 -3.58386 0
M  V30 1690 C 172.877 3.61834 -3.92316 0
M  V30 1691 O 173.1 4.67267 -3.27135 0
M  V30 1692 O 172.034 3.55579 -4.85641 0
M  V30 1693 H 175.86 0.885886 -2.90492 0
M  V30 1694 H 173.445 0.372518 -1.44681 0
M  V30 1695 H 175.327 3.3192 -2.59629 0
M  V30 1696 H 174.002 2.87598 -1.48557 0
M  V30 1697 H 172.909 1.56632 -3.39731 0
M  V30 1698 H 174.242 2.07865 -4.46154 0
M  V30 1699 N 175.894 1.51508 0.433938 0
M  V30 1700 C 177.305 1.56784 1.01369 0
M  V30 1701 C 177.656 0.393349 1.92217 0
M  V30 1702 O 176.781 -0.489441 2.10792 0
M  V30 1703 C 177.376 2.84144 1.8452 0
M  V30 1704 C 175.935 2.9198 2.37539 0
M  V30 1705 C 175.082 2.51482 1.16843 0
M  V30 1706 H 178.033 1.57236 0.215081 0
M  V30 1707 H 178.054 2.68098 2.70007 0
M  V30 1708 H 177.566 3.69607 1.18373 0
M  V30 1709 H 175.667 2.10955 3.0713 0
M  V30 1710 H 175.78 3.95704 2.70103 0
M  V30 1711 H 174.144 2.04758 1.51481 0
M  V30 1712 H 174.927 3.39293 0.523015 0
M  V30 1713 N 177.372 -0.689602 1.41712 0
M  V30 1714 C 178.62 -1.4468 1.4111 0
M  V30 1715 C 178.941 -1.94986 0.0232196 0
M  V30 1716 O 178.211 -1.72097 -0.935913 0
M  V30 1717 H 176.791 -0.536847 0.519427 0
M  V30 1718 H 179.453 -0.815825 1.77004 0
M  V30 1719 H 178.549 -2.30706 2.10193 0
M  V30 1720 N 178.85 -1.27639 -0.924453 0
M  V30 1721 C 180.096 -1.14336 -1.67497 0
M  V30 1722 C 180.429 0.309465 -1.91718 0
M  V30 1723 O 179.704 1.22608 -1.50989 0
M  V30 1724 C 179.987 -1.93096 -3.0395 0
M  V30 1725 C 179.84 -3.46381 -2.8695 0
M  V30 1726 C 181.159 -1.73798 -4.0433 0
M  V30 1727 H 178.278 -0.416728 -0.607871 0
M  V30 1728 H 180.92 -1.56832 -1.07256 0
M  V30 1729 H 179.07 -1.56982 -3.55372 0
M  V30 1730 H 180.742 -3.92343 -2.42621 0
M  V30 1731 H 178.985 -3.72557 -2.22225 0
M  V30 1732 H 179.656 -3.96735 -3.83804 0
M  V30 1733 H 182.132 -2.05293 -3.61931 0
M  V30 1734 H 181.008 -2.31294 -4.97789 0
M  V30 1735 H 181.269 -0.686725 -4.36734 0
M  V30 1736 N 180.328 1.1314 -1.09713 0
M  V30 1737 C 181.556 1.88321 -0.856898 0
M  V30 1738 C 181.971 1.79276 0.592073 0
M  V30 1739 O 181.328 1.16142 1.40774 0
M  V30 1740 C 181.379 3.37812 -1.28706 0
M  V30 1741 O 181.1 3.46627 -2.67921 0
M  V30 1742 C 182.601 4.29952 -1.07964 0
M  V30 1743 H 179.821 0.596094 -0.308079 0
M  V30 1744 H 182.365 1.43205 -1.45988 0
M  V30 1745 H 180.52 3.805 -0.727912 0
M  V30 1746 H 180.934 4.39579 -2.8613 0
M  V30 1747 H 182.408 5.33159 -1.42986 0
M  V30 1748 H 182.885 4.39196 -0.0176577 0
M  V30 1749 H 183.491 3.93036 -1.62489 0
M  V30 1750 N 181.806 0.884767 1.30421 0
M  V30 1751 C 182.736 0.367574 2.30589 0
M  V30 1752 C 183.717 -0.549464 1.60981 0
M  V30 1753 O 184.902 -0.46336 1.88591 0
M  V30 1754 C 182.032 -0.418944 3.44764 0
M  V30 1755 C 180.986 0.406316 4.26067 0
M  V30 1756 C 180.312 -0.506793 5.32293 0
M  V30 1757 C 181.612 1.64832 4.95608 0
M  V30 1758 H 183.306 1.20462 2.74097 0
M  V30 1759 H 180.852 0.580695 1.31772 0
M  V30 1760 H 182.805 -0.791395 4.13902 0
M  V30 1761 H 181.529 -1.28964 3.0006 0
M  V30 1762 H 180.188 0.760903 3.58617 0
M  V30 1763 H 179.836 -1.37519 4.83836 0
M  V30 1764 H 179.536 0.0415828 5.87585 0
M  V30 1765 H 181.06 -0.875764 6.04287 0
M  V30 1766 H 182.474 1.34646 5.57264 0
M  V30 1767 H 180.871 2.13688 5.60765 0
M  V30 1768 H 181.941 2.39284 4.21748 0
M  V30 1769 N 183.284 -1.43765 0.645699 0
M  V30 1770 C 184.7 -1.56509 0.312591 0
M  V30 1771 C 184.9 -1.6307 -1.18365 0
M  V30 1772 O 183.956 -1.58167 -1.96824 0
M  V30 1773 C 185.269 -2.82968 1.01733 0
M  V30 1774 C 186.817 -2.96701 0.996865 0
M  V30 1775 C 187.292 -4.25982 1.68236 0
M  V30 1776 N 188.783 -4.32829 1.64964 0
M  V30 1777 C 189.518 -5.31613 2.14885 0
M  V30 1778 N 189.014 -6.36718 2.73061 0
M  V30 1779 N 190.807 -5.23217 2.05428 0
M  V30 1780 H 182.958 -1.3775 1.61675 0
M  V30 1781 H 185.221 -0.661067 0.679481 0
M  V30 1782 H 184.927 -2.84156 2.0724 0
M  V30 1783 H 184.801 -3.72957 0.564177 0
M  V30 1784 H 187.188 -2.95058 -0.0497719 0
M  V30 1785 H 187.269 -2.08022 1.48865 0
M  V30 1786 H 186.913 -4.28386 2.72852 0
M  V30 1787 H 186.843 -5.13545 1.16529 0
M  V30 1788 H 189.334 -3.57493 1.22503 0
M  V30 1789 H 189.647 -7.08401 3.08848 0
M  V30 1790 H 187.992 -6.37362 2.77118 0
M  V30 1791 H 191.183 -4.40019 1.59689 0
M  V30 1792 H 191.356 -6.00045 2.44643 0
M  V30 1793 N 184.763 -0.387143 -1.52771 0
M  V30 1794 C 186.04 0.253197 -1.93954 0
M  V30 1795 C 186.42 1.64545 -1.32243 0
M  V30 1796 O 185.768 2.23191 -0.489699 0
M  V30 1797 C 185.978 0.281722 -3.47861 0
M  V30 1798 C 187.326 0.511715 -4.21505 0
M  V30 1799 O 188.35 0.362023 -3.54356 0
M  V30 1800 O 187.209 0.804847 -5.40541 0
M  V30 1801 H 184.303 0.156845 -0.811991 0
M  V30 1802 H 186.849 -0.441494 -1.63856 0
M  V30 1803 H 185.621 -0.693571 -3.85104 0
M  V30 1804 H 185.244 1.02142 -3.84256 0
M  V30 1805 N 186.241 1.57166 -0.116904 0
M  V30 1806 C 187.487 1.95412 0.542405 0
M  V30 1807 C 187.82 1.00019 1.66463 0
M  V30 1808 O 187.095 0.0370346 1.94465 0
M  V30 1809 C 187.378 3.43615 1.07708 0
M  V30 1810 C 187.231 4.49781 -0.0415868 0
M  V30 1811 C 188.55 3.93616 1.96861 0
M  V30 1812 H 185.669 0.710543 0.195696 0
M  V30 1813 H 188.311 1.89027 -0.192038 0
M  V30 1814 H 186.461 3.49187 1.70296 0
M  V30 1815 H 188.133 4.56308 -0.676793 0
M  V30 1816 H 186.376 4.28033 -0.705019 0
M  V30 1817 H 187.047 5.50733 0.373717 0
M  V30 1818 H 189.523 3.90335 1.44146 0
M  V30 1819 H 188.399 4.97838 2.3119 0
M  V30 1820 H 188.66 3.34188 2.89432 0
M  V30 1821 N 187.719 -0.156864 1.56817 0
M  V30 1822 C 188.682 -1.17781 1.96622 0
M  V30 1823 C 189.682 -1.36401 0.851555 0
M  V30 1824 O 190.872 -1.33561 1.11836 0
M  V30 1825 C 188.004 -2.54008 2.27361 0
M  V30 1826 H 189.197 -0.836564 2.87996 0
M  V30 1827 H 186.75 -0.39985 1.51099 0
M  V30 1828 H 187.485 -2.9312 1.38748 0
M  V30 1829 H 187.27 -2.41856 3.08623 0
M  V30 1830 H 188.76 -3.27558 2.59029 0
M  V30 1831 N 189.197 -1.51736 -0.425897 0
M  V30 1832 C 190.443 -1.65214 -1.1761 0
M  V30 1833 C 190.776 -0.372778 -1.90589 0
M  V30 1834 O 190.051 0.628139 -1.84078 0
M  V30 1835 C 190.334 -2.86312 -2.18398 0
M  V30 1836 C 190.187 -4.24254 -1.49426 0
M  V30 1837 C 191.506 -3.02925 -3.19256 0
M  V30 1838 H 188.625 -0.601263 -0.426206 0
M  V30 1839 H 191.267 -1.8425 -0.463882 0
M  V30 1840 H 189.417 -2.70213 -2.79137 0
M  V30 1841 H 191.089 -4.52046 -0.919362 0
M  V30 1842 H 189.332 -4.26426 -0.796432 0
M  V30 1843 H 190.003 -5.05001 -2.22885 0
M  V30 1844 H 192.479 -3.1781 -2.68581 0
M  V30 1845 H 191.355 -3.89199 -3.8706 0
M  V30 1846 H 191.616 -2.15497 -3.86023 0
M  V30 1847 N 190.675 0.682077 -1.42076 0
M  V30 1848 C 191.952 1.43755 -1.32642 0
M  V30 1849 C 192.332 2.11063 0.0396611 0
M  V30 1850 O 191.68 2.02701 1.05474 0
M  V30 1851 C 191.89 2.44596 -2.48946 0
M  V30 1852 C 193.238 3.09454 -2.9073 0
M  V30 1853 O 194.262 2.54922 -2.48783 0
M  V30 1854 O 193.121 4.08253 -3.63307 0
M  V30 1855 H 190.215 0.640857 -0.522715 0
M  V30 1856 H 192.761 0.711415 -1.54068 0
M  V30 1857 H 191.533 1.93609 -3.40046 0
M  V30 1858 H 191.156 3.24701 -2.29467 0
M  V30 1859 N 192.153 1.28127 0.917671 0
M  V30 1860 C 193.399 1.15223 1.66888 0
M  V30 1861 C 193.732 -0.299293 1.9188 0
M  V30 1862 O 193.007 -1.21805 1.51637 0
M  V30 1863 C 193.29 1.94706 3.02922 0
M  V30 1864 C 193.143 3.47898 2.85109 0
M  V30 1865 C 194.462 1.75939 4.03402 0
M  V30 1866 H 191.581 0.419946 0.605652 0
M  V30 1867 H 194.223 1.57398 1.06423 0
M  V30 1868 H 192.373 1.58864 3.54534 0
M  V30 1869 H 194.045 3.93624 2.40537 0
M  V30 1870 H 192.288 3.7373 2.20246 0
M  V30 1871 H 192.959 3.98765 3.81694 0
M  V30 1872 H 195.435 2.07209 3.60837 0
M  V30 1873 H 194.311 2.33931 4.96556 0
M  V30 1874 H 194.572 0.709877 4.36364 0
M  V30 1875 N 193.631 -1.12557 1.10312 0
M  V30 1876 C 194.594 -2.16434 0.75424 0
M  V30 1877 C 195.594 -1.59278 -0.220685 0
M  V30 1878 O 196.784 -1.742 0.00230591 0
M  V30 1879 C 193.916 -3.40699 0.116987 0
M  V30 1880 H 195.109 -2.48811 1.67431 0
M  V30 1881 H 192.662 -1.27542 0.903475 0
M  V30 1882 H 193.397 -3.13921 -0.813877 0
M  V30 1883 H 193.182 -3.83459 0.818613 0
M  V30 1884 H 194.672 -4.17451 -0.111387 0
M  V30 1885 N 195.109 -0.891671 -1.2995 0
M  V30 1886 C 196.072 -0.36828 -2.26222 0
M  V30 1887 C 197.072 0.493014 -1.53056 0
M  V30 1888 O 198.262 0.299213 -1.71611 0
M  V30 1889 C 195.394 0.47442 -3.37583 0
M  V30 1890 H 196.587 -1.21844 -2.74033 0
M  V30 1891 H 194.14 -0.669107 -1.41254 0
M  V30 1892 H 194.875 1.34489 -2.95099 0
M  V30 1893 H 194.66 -0.142615 -3.91841 0
M  V30 1894 H 196.15 0.83218 -4.09224 0
M  V30 1895 N 196.587 1.43421 -0.653314 0
M  V30 1896 C 197.55 2.29182 0.0287951 0
M  V30 1897 C 198.55 1.42213 0.750465 0
M  V30 1898 O 199.74 1.63843 0.591701 0
M  V30 1899 C 196.872 3.24278 1.05151 0
M  V30 1900 H 198.065 2.90985 -0.725786 0
M  V30 1901 H 195.618 1.50702 -0.414545 0
M  V30 1902 H 196.353 2.6737 1.83532 0
M  V30 1903 H 196.138 3.88396 0.537687 0
M  V30 1904 H 197.628 3.88647 1.52786 0
M  V30 1905 N 198.065 0.39524 1.52563 0
M  V30 1906 C 199.028 -0.425001 2.25225 0
M  V30 1907 C 200.028 -0.985266 1.27079 0
M  V30 1908 O 201.218 -0.866332 1.5113 0
M  V30 1909 C 198.35 -1.59686 3.01186 0
M  V30 1910 H 199.543 0.211233 2.99155 0
M  V30 1911 H 197.096 0.147472 1.55603 0
M  V30 1912 H 197.831 -2.27035 2.31572 0
M  V30 1913 H 197.616 -1.20176 3.73229 0
M  V30 1914 H 199.106 -2.17743 3.5634 0
M  V30 1915 N 199.544 -1.57102 0.125237 0
M  V30 1916 C 200.474 -2.18659 -0.819174 0
M  V30 1917 C 201.455 -1.12843 -1.27281 0
M  V30 1918 O 202.64 -1.41104 -1.33429 0
M  V30 1919 C 199.77 -2.79096 -2.06695 0
M  V30 1920 C 198.724 -3.90548 -1.75088 0
M  V30 1921 C 198.05 -4.37821 -3.06948 0
M  V30 1922 C 199.35 -5.12356 -1.01435 0
M  V30 1923 H 201.044 -2.9783 -0.306202 0
M  V30 1924 H 198.59 -1.4326 -0.145839 0
M  V30 1925 H 200.543 -3.2082 -2.73226 0
M  V30 1926 H 199.267 -1.97223 -2.60328 0
M  V30 1927 H 197.926 -3.49409 -1.10944 0
M  V30 1928 H 197.574 -3.52799 -3.58527 0
M  V30 1929 H 197.274 -5.12982 -2.86571 0
M  V30 1930 H 198.798 -4.822 -3.74587 0
M  V30 1931 H 200.212 -5.5106 -1.58132 0
M  V30 1932 H 198.609 -5.9314 -0.911319 0
M  V30 1933 H 199.679 -4.849 -0.00218681 0
M  V30 1934 N 201.022 0.148545 -1.56898 0
M  V30 1935 C 202.268 0.862694 -1.83536 0
M  V30 1936 C 202.601 1.80889 -0.706604 0
M  V30 1937 O 201.876 1.92328 0.289885 0
M  V30 1938 C 202.159 1.63853 -3.20662 0
M  V30 1939 C 202.012 0.713925 -4.44098 0
M  V30 1940 C 203.331 2.60133 -3.54991 0
M  V30 1941 H 200.45 0.312179 -0.667618 0
M  V30 1942 H 203.092 0.127953 -1.89569 0
M  V30 1943 H 201.242 2.26489 -3.1565 0
M  V30 1944 H 202.914 0.098686 -4.61194 0
M  V30 1945 H 201.157 0.0234019 -4.33794 0
M  V30 1946 H 201.828 1.29278 -5.36648 0
M  V30 1947 H 204.304 2.07616 -3.60603 0
M  V30 1948 H 203.18 3.11468 -4.51972 0
M  V30 1949 H 203.441 3.41417 -2.80868 0
M  V30 1950 N 202.5 1.5196 0.417844 0
M  V30 1951 C 203.746 1.65836 1.16732 0
M  V30 1952 C 204.079 0.382881 1.90388 0
M  V30 1953 O 203.354 -0.618368 1.84408 0
M  V30 1954 C 203.637 2.87466 2.16876 0
M  V30 1955 C 203.49 4.25041 1.47174 0
M  V30 1956 C 204.809 3.04613 3.17646 0
M  V30 1957 H 201.928 0.603515 0.423011 0
M  V30 1958 H 204.57 1.84494 0.454105 0
M  V30 1959 H 202.72 2.71689 2.777 0
M  V30 1960 H 204.392 4.52527 0.895376 0
M  V30 1961 H 202.635 4.26843 0.773806 0
M  V30 1962 H 203.306 5.06176 2.20204 0
M  V30 1963 H 205.782 3.1923 2.66892 0
M  V30 1964 H 204.658 3.91247 3.8499 0
M  V30 1965 H 204.919 2.17541 3.84874 0
M  V30 1966 N 203.978 -0.674533 1.42435 0
M  V30 1967 C 205.224 -1.43671 1.43131 0
M  V30 1968 C 205.557 -1.94142 0.0476021 0
M  V30 1969 O 204.832 -1.70924 -0.928188 0
M  V30 1970 C 205.115 -2.63355 2.45594 0
M  V30 1971 C 204.968 -2.18514 3.93156 0
M  V30 1972 C 206.287 -3.65571 2.45043 0
M  V30 1973 H 203.406 -0.521077 0.521198 0
M  V30 1974 H 206.048 -0.766551 1.7385 0
M  V30 1975 H 204.198 -3.2053 2.19528 0
M  V30 1976 H 205.87 -1.66504 4.30202 0
M  V30 1977 H 204.113 -1.50086 4.07009 0
M  V30 1978 H 204.784 -3.04484 4.60428 0
M  V30 1979 H 207.26 -3.18113 2.68223 0
M  V30 1980 H 206.136 -4.46893 3.18713 0
M  V30 1981 H 206.397 -4.16716 1.47649 0
M  V30 1982 N 205.456 -1.28612 -0.910864 0
M  V30 1983 C 206.684 -1.18792 -1.69399 0
M  V30 1984 C 207.099 0.253039 -1.87097 0
M  V30 1985 O 206.456 1.17071 -1.40003 0
M  V30 1986 C 206.507 -1.88511 -3.08457 0
M  V30 1987 O 206.228 -3.26979 -2.91576 0
M  V30 1988 C 207.729 -1.85029 -4.02839 0
M  V30 1989 H 204.949 -0.412233 -0.529438 0
M  V30 1990 H 207.493 -1.69788 -1.13984 0
M  V30 1991 H 205.648 -1.41379 -3.60681 0
M  V30 1992 H 206.062 -3.61936 -3.79608 0
M  V30 1993 H 207.536 -2.38395 -4.97867 0
M  V30 1994 H 208.013 -0.823303 -4.31414 0
M  V30 1995 H 208.619 -2.31853 -3.56545 0
M  V30 1996 N 206.934 1.1197 -1.10907 0
M  V30 1997 C 207.897 2.16031 -0.765707 0
M  V30 1998 C 208.897 1.59393 0.212235 0
M  V30 1999 O 210.087 1.74196 -0.0115441 0
M  V30 2000 C 207.219 3.40632 -0.135053 0
M  V30 2001 H 208.412 2.47919 -1.68748 0
M  V30 2002 H 205.965 1.27061 -0.910226 0
M  V30 2003 H 206.7 3.14348 0.797218 0
M  V30 2004 H 206.485 3.8302 -0.838937 0
M  V30 2005 H 207.975 4.17505 0.0892469 0
M  V30 2006 N 208.412 0.89855 1.29475 0
M  V30 2007 C 209.689 0.443416 1.90508 0
M  V30 2008 C 210.069 -1.07685 1.81569 0
M  V30 2009 O 209.417 -1.9182 1.24166 0
M  V30 2010 C 209.627 0.956708 3.35631 0
M  V30 2011 C 210.975 0.999728 4.12663 0
M  V30 2012 O 211.999 0.904299 3.4453 0
M  V30 2013 O 210.858 1.14289 5.34416 0
M  V30 2014 H 207.952 0.138025 0.815401 0
M  V30 2015 H 210.498 0.98834 1.37949 0
M  V30 2016 H 209.27 2.00067 3.36287 0
M  V30 2017 H 208.893 0.391728 3.95666 0
M  V30 2018 N 209.89 -1.43072 0.660911 0
M  V30 2019 C 210.82 -2.33497 -0.0122829 0
M  V30 2020 C 211.801 -1.49903 -0.803925 0
M  V30 2021 O 212.986 -1.78546 -0.763864 0
M  V30 2022 C 210.116 -3.33363 -0.973994 0
M  V30 2023 C 209.07 -4.27003 -0.291928 0
M  V30 2024 C 208.396 -5.16967 -1.36562 0
M  V30 2025 C 209.696 -5.15816 0.820462 0
M  V30 2026 H 211.39 -2.90038 0.742873 0
M  V30 2027 H 208.936 -1.39461 0.358688 0
M  V30 2028 H 210.889 -3.95524 -1.45392 0
M  V30 2029 H 209.613 -2.75095 -1.7604 0
M  V30 2030 H 208.272 -3.66217 0.167623 0
M  V30 2031 H 207.92 -4.55034 -2.14366 0
M  V30 2032 H 207.62 -5.80441 -0.914454 0
M  V30 2033 H 209.144 -5.82003 -1.84675 0
M  V30 2034 H 210.558 -5.71742 0.422366 0
M  V30 2035 H 208.955 -5.8805 1.19656 0
M  V30 2036 H 210.025 -4.55045 1.67518 0
M  V30 2037 N 211.368 -0.403325 -1.52352 0
M  V30 2038 C 212.616 0.174003 -2.0135 0
M  V30 2039 C 212.937 1.46139 -1.29106 0
M  V30 2040 O 212.207 1.91448 -0.415253 0
M  V30 2041 H 210.787 0.0672911 -0.743963 0
M  V30 2042 H 213.449 -0.538235 -1.87321 0
M  V30 2043 H 212.545 0.374254 -3.09848 0
M  V30 2044 N 212.846 1.57033 -0.133567 0
M  V30 2045 C 214.074 2.00044 0.528195 0
M  V30 2046 C 214.489 1.01349 1.59291 0
M  V30 2047 O 213.846 0.00848369 1.82498 0
M  V30 2048 C 213.897 3.43018 1.1411 0
M  V30 2049 O 213.618 4.37939 0.11892 0
M  V30 2050 C 215.119 4.01237 1.88477 0
M  V30 2051 H 212.339 0.656517 0.138661 0
M  V30 2052 H 214.883 2.03267 -0.224196 0
M  V30 2053 H 213.038 3.40688 1.84418 0
M  V30 2054 H 213.452 5.21436 0.56613 0
M  V30 2055 H 214.926 5.03314 2.26669 0
M  V30 2056 H 215.403 3.41193 2.76558 0
M  V30 2057 H 216.009 4.07156 1.22898 0
M  V30 2058 N 214.325 -0.140222 1.56975 0
M  V30 2059 C 215.255 -1.17456 2.01808 0
M  V30 2060 C 216.236 -1.44415 0.898794 0
M  V30 2061 O 217.421 -1.5522 1.16707 0
M  V30 2062 C 214.551 -2.50607 2.40444 0
M  V30 2063 C 213.505 -2.38155 3.55621 0
M  V30 2064 C 212.831 -3.76078 3.80091 0
M  V30 2065 C 214.131 -1.85991 4.88062 0
M  V30 2066 H 215.825 -0.801743 2.88466 0
M  V30 2067 H 213.371 -0.38422 1.38779 0
M  V30 2068 H 215.324 -3.23197 2.7041 0
M  V30 2069 H 214.048 -2.89737 1.50732 0
M  V30 2070 H 212.707 -1.68016 3.25832 0
M  V30 2071 H 212.355 -4.12656 2.87618 0
M  V30 2072 H 212.055 -3.68606 4.57606 0
M  V30 2073 H 213.579 -4.50206 4.12488 0
M  V30 2074 H 214.993 -2.4838 5.16701 0
M  V30 2075 H 213.39 -1.89393 5.6943 0
M  V30 2076 H 214.46 -0.816023 4.77984 0
M  V30 2077 N 215.803 -1.52179 -0.40978 0
M  V30 2078 C 216.751 -1.76086 -1.51975 0
M  V30 2079 C 217.745 -0.627964 -1.57331 0
M  V30 2080 O 218.951 -0.809993 -1.60745 0
M  V30 2081 H 215.326 -0.556829 -0.505416 0
M  V30 2082 H 217.297 -2.69077 -1.28996 0
M  V30 2083 C 216.046 -1.92799 -2.8935 0
M  V30 2084 H 215.369 -2.79392 -2.85972 0
M  V30 2085 H 216.809 -2.13527 -3.66309 0
M  V30 2086 C 215.268 -0.694923 -3.29655 0
M  V30 2087 O 215.798 0.13751 -4.01465 0
M  V30 2088 N 214.004 -0.53101 -2.85707 0
M  V30 2089 H 213.551 -1.20952 -2.27439 0
M  V30 2090 H 213.509 0.292718 -3.13034 0
M  V30 2091 N 217.281 0.66697 -1.42791 0
M  V30 2092 C 218.231 1.77313 -1.43332 0
M  V30 2093 C 219.215 1.5801 -0.303586 0
M  V30 2094 O 220.407 1.68356 -0.546385 0
M  V30 2095 C 217.536 3.15822 -1.34578 0
M  V30 2096 C 216.622 3.40721 -2.52528 0
M  V30 2097 N 217.013 3.36162 -3.77927 0
M  V30 2098 C 215.311 3.71387 -2.46956 0
M  V30 2099 C 216.012 3.60762 -4.56318 0
M  V30 2100 N 214.988 3.81908 -3.86843 0
M  V30 2101 H 218.79 1.72193 -2.38174 0
M  V30 2102 H 216.304 0.868114 -1.3725 0
M  V30 2103 H 218.301 3.951 -1.33048 0
M  V30 2104 H 216.961 3.22133 -0.407453 0
M  V30 2105 H 217.972 3.15885 -4.10411 0
M  V30 2106 H 214.649 3.84897 -1.61743 0
M  V30 2107 H 216.039 3.63132 -5.65318 0
M  V30 2108 N 218.759 1.29093 0.90403 0
M  V30 2109 C 219.987 1.19689 1.68766 0
M  V30 2110 C 220.402 -0.243113 1.87228 0
M  V30 2111 O 219.759 -1.16326 1.40621 0
M  V30 2112 C 219.81 1.90144 3.07453 0
M  V30 2113 O 219.531 3.2852 2.89838 0
M  V30 2114 C 221.032 1.87162 4.01852 0
M  V30 2115 H 218.252 0.415035 0.527244 0
M  V30 2116 H 220.796 1.7039 1.13082 0
M  V30 2117 H 218.951 1.43289 3.59926 0
M  V30 2118 H 219.365 3.63944 3.77684 0
M  V30 2119 H 220.839 2.41032 4.96596 0
M  V30 2120 H 221.316 0.84617 4.30972 0
M  V30 2121 H 221.922 2.33741 3.5531 0
M  V30 2122 N 220.237 -1.11381 1.11499 0
M  V30 2123 C 221.184 -2.17439 0.773887 0
M  V30 2124 C 222.154 -1.64132 -0.254899 0
M  V30 2125 O 223.339 -1.90345 -0.13168 0
M  V30 2126 C 220.479 -3.44373 0.223917 0
M  V30 2127 C 219.592 -4.1168 1.30934 0
M  V30 2128 C 218.727 -5.263 0.71984 0
M  V30 2129 C 217.766 -5.85493 1.78507 0
M  V30 2130 N 216.903 -6.91507 1.21502 0
M  V30 2131 H 221.743 -2.45962 1.68246 0
M  V30 2132 H 219.28 -1.20744 0.840191 0
M  V30 2133 H 221.238 -4.17047 -0.112921 0
M  V30 2134 H 219.868 -3.16232 -0.647851 0
M  V30 2135 H 218.92 -3.37073 1.76312 0
M  V30 2136 H 220.232 -4.51729 2.11524 0
M  V30 2137 H 219.386 -6.05785 0.333094 0
M  V30 2138 H 218.125 -4.87559 -0.117377 0
M  V30 2139 H 217.13 -5.04686 2.18111 0
M  V30 2140 H 218.355 -6.26301 2.62533 0
M  V30 2141 H 216.301 -6.54783 0.399455 0
M  V30 2142 H 216.218 -7.30214 1.95763 0
M  V30 2143 H 217.486 -7.74795 0.855181 0
M  V30 2144 N 221.715 -0.905404 -1.28997 0
M  V30 2145 C 222.645 -0.404212 -2.29975 0
M  V30 2146 C 223.626 0.523784 -1.61835 0
M  V30 2147 O 224.811 0.433298 -1.89304 0
M  V30 2148 C 221.941 0.364042 -3.45387 0
M  V30 2149 C 220.895 -0.474048 -4.25367 0
M  V30 2150 C 220.221 0.422045 -5.33032 0
M  V30 2151 C 221.521 -1.72696 -4.92923 0
M  V30 2152 H 223.215 -1.24807 -2.72146 0
M  V30 2153 H 220.761 -0.601585 -1.30832 0
M  V30 2154 H 222.714 0.725447 -4.15109 0
M  V30 2155 H 221.438 1.24174 -3.02074 0
M  V30 2156 H 220.097 -0.81786 -3.57361 0
M  V30 2157 H 219.745 1.29804 -4.85963 0
M  V30 2158 H 219.445 -0.135057 -5.87445 0
M  V30 2159 H 220.969 0.779517 -6.05604 0
M  V30 2160 H 222.383 -1.43495 -5.55051 0
M  V30 2161 H 220.78 -2.22582 -5.57295 0
M  V30 2162 H 221.85 -2.45964 -4.17887 0
M  V30 2163 N 223.193 1.4272 -0.668489 0
M  V30 2164 C 224.421 2.05966 -0.196348 0
M  V30 2165 C 224.836 1.50191 1.14403 0
M  V30 2166 O 224.193 0.639208 1.7094 0
M  V30 2167 C 224.244 3.61314 -0.115815 0
M  V30 2168 O 223.965 4.1502 -1.40322 0
M  V30 2169 C 225.466 4.41663 0.380579 0
M  V30 2170 H 222.686 0.663954 -0.0969829 0
M  V30 2171 H 225.23 1.82966 -0.913446 0
M  V30 2172 H 223.385 3.83448 0.551931 0
M  V30 2173 H 223.799 5.08832 -1.27243 0
M  V30 2174 H 225.273 5.5065 0.385848 0
M  V30 2175 H 225.75 4.15792 1.41471 0
M  V30 2176 H 226.356 4.24534 -0.255209 0
M  V30 2177 N 224.671 0.411399 1.52136 0
M  V30 2178 C 225.601 -0.404015 2.29978 0
M  V30 2179 C 226.582 -1.04412 1.34284 0
M  V30 2180 O 227.767 -1.0527 1.63192 0
M  V30 2181 C 224.897 -1.5197 3.12286 0
M  V30 2182 C 223.851 -1.00448 4.16046 0
M  V30 2183 C 223.177 -2.21393 4.86712 0
M  V30 2184 C 224.477 -0.0569336 5.22269 0
M  V30 2185 H 226.171 0.245529 2.98392 0
M  V30 2186 H 223.717 0.119525 1.43503 0
M  V30 2187 H 225.67 -2.09715 3.6551 0
M  V30 2188 H 224.394 -2.19716 2.41646 0
M  V30 2189 H 223.053 -0.449421 3.63835 0
M  V30 2190 H 222.701 -2.87699 4.12599 0
M  V30 2191 H 222.401 -1.87571 5.56858 0
M  V30 2192 H 223.925 -2.7974 5.4275 0
M  V30 2193 H 225.339 -0.54325 5.7072 0
M  V30 2194 H 223.736 0.192594 5.99791 0
M  V30 2195 H 224.806 0.887663 4.76706 0
M  V30 2196 N 226.149 -1.5696 0.141893 0
M  V30 2197 C 227.059 -2.20066 -0.812905 0
M  V30 2198 C 228.075 -1.18344 -1.27557 0
M  V30 2199 O 229.251 -1.50902 -1.33381 0
M  V30 2200 C 226.316 -2.80583 -2.03652 0
M  V30 2201 C 225.377 -3.97414 -1.62359 0
M  V30 2202 C 224.61 -4.55036 -2.78887 0
M  V30 2203 O 224.833 -4.11538 -3.94959 0
M  V30 2204 O 223.767 -5.45376 -2.54653 0
M  V30 2205 H 227.593 -3.02157 -0.305746 0
M  V30 2206 H 225.178 -1.49159 -0.0848799 0
M  V30 2207 H 227.06 -3.19067 -2.75272 0
M  V30 2208 H 225.735 -2.01508 -2.5333 0
M  V30 2209 H 224.642 -3.63656 -0.877775 0
M  V30 2210 H 225.975 -4.77994 -1.17401 0
M  V30 2211 N 227.627 0.131896 -1.57047 0
M  V30 2212 C 228.59 1.14638 -1.98471 0
M  V30 2213 C 229.59 1.35029 -0.873148 0
M  V30 2214 O 230.78 1.31764 -1.13946 0
M  V30 2215 C 227.912 2.50358 -2.31373 0
M  V30 2216 H 229.105 0.79064 -2.8929 0
M  V30 2217 H 226.658 0.375761 -1.51716 0
M  V30 2218 H 227.393 2.90876 -1.43393 0
M  V30 2219 H 227.178 2.36915 -3.12432 0
M  V30 2220 H 228.668 3.23395 -2.64207 0
M  V30 2221 N 229.106 1.52395 0.401703 0
M  V30 2222 C 230.036 1.79231 1.49661 0
M  V30 2223 C 231.017 0.643654 1.57452 0
M  V30 2224 O 232.202 0.889989 1.72606 0
M  V30 2225 C 229.332 1.94971 2.87409 0
M  V30 2226 C 228.286 3.10604 2.94465 0
M  V30 2227 C 227.612 3.11577 4.34538 0
M  V30 2228 C 228.912 4.49921 2.6527 0
M  V30 2229 H 230.606 2.70917 1.27454 0
M  V30 2230 H 228.152 1.30362 0.6117 0
M  V30 2231 H 230.105 2.12328 3.63999 0
M  V30 2232 H 228.829 0.999632 3.10926 0
M  V30 2233 H 227.488 2.93009 2.20321 0
M  V30 2234 H 227.136 2.14277 4.55076 0
M  V30 2235 H 226.836 3.89247 4.40183 0
M  V30 2236 H 228.36 3.31073 5.13053 0
M  V30 2237 H 229.774 4.67683 3.31581 0
M  V30 2238 H 228.171 5.29564 2.82281 0
M  V30 2239 H 229.241 4.57507 1.60671 0
M  V30 2240 N 230.584 -0.659388 1.43143 0
M  V30 2241 C 231.547 -1.75432 1.47501 0
M  V30 2242 C 232.547 -1.56707 0.360512 0
M  V30 2243 O 233.737 -1.62717 0.622002 0
M  V30 2244 C 230.869 -3.14239 1.32162 0
M  V30 2245 H 232.062 -1.7295 2.45006 0
M  V30 2246 H 229.615 -0.870469 1.29817 0
M  V30 2247 H 230.35 -3.22336 0.356401 0
M  V30 2248 H 230.135 -3.29235 2.12948 0
M  V30 2249 H 231.625 -3.94094 1.3813 0
M  V30 2250 N 232.062 -1.29571 -0.897171 0
M  V30 2251 C 233.025 -1.14913 -1.98312 0
M  V30 2252 C 234.025 -0.0838629 -1.60581 0
M  V30 2253 O 235.215 -0.331006 -1.71026 0
M  V30 2254 C 232.347 -0.757835 -3.3237 0
M  V30 2255 H 233.54 -2.11377 -2.12743 0
M  V30 2256 H 231.093 -1.12793 -1.08201 0
M  V30 2257 H 231.828 0.206837 -3.2364 0
M  V30 2258 H 231.613 -1.52755 -3.61121 0
M  V30 2259 H 233.103 -0.678408 -4.12053 0
M  V30 2260 N 233.54 1.10788 -1.12088 0
M  V30 2261 C 234.472 2.16816 -0.743213 0
M  V30 2262 C 235.485 1.6119 0.228412 0
M  V30 2263 O 236.674 1.78497 0.0102931 0
M  V30 2264 C 233.774 3.38809 -0.0787313 0
M  V30 2265 C 232.947 4.23885 -1.0789 0
M  V30 2266 C 232.006 5.24334 -0.442713 0
M  V30 2267 O 231.032 5.58497 -1.09864 0
M  V30 2268 N 232.234 5.75079 0.791457 0
M  V30 2269 H 234.999 2.49825 -1.65552 0
M  V30 2270 H 232.56 1.26373 -1.012 0
M  V30 2271 H 234.552 4.03107 0.358766 0
M  V30 2272 H 233.122 3.03805 0.736275 0
M  V30 2273 H 232.342 3.55939 -1.69414 0
M  V30 2274 H 233.63 4.77562 -1.75533 0
M  V30 2275 H 233.028 5.49517 1.3434 0
M  V30 2276 H 231.585 6.4118 1.17183 0
M  V30 2277 N 235.018 0.912232 1.28515 0
M  V30 2278 C 235.95 0.35676 2.26406 0
M  V30 2279 C 236.963 -0.503933 1.54804 0
M  V30 2280 O 238.152 -0.319059 1.75625 0
M  V30 2281 C 235.252 -0.508825 3.35058 0
M  V30 2282 C 234.425 0.329007 4.36161 0
M  V30 2283 C 233.484 -0.471422 5.24084 0
M  V30 2284 O 232.51 0.115482 5.69083 0
M  V30 2285 N 233.712 -1.77479 5.52704 0
M  V30 2286 H 236.477 1.19818 2.74707 0
M  V30 2287 H 234.038 0.778022 1.4198 0
M  V30 2288 H 236.03 -1.051 3.90815 0
M  V30 2289 H 234.6 -1.25095 2.86478 0
M  V30 2290 H 233.82 1.05256 3.79888 0
M  V30 2291 H 235.108 0.90234 5.00735 0
M  V30 2292 H 234.506 -2.27417 5.17975 0
M  V30 2293 H 233.063 -2.26382 6.11224 0
M  V30 2294 N 236.496 -1.42363 0.676048 0
M  V30 2295 C 237.742 -2.0182 0.199125 0
M  V30 2296 C 238.075 -1.53339 -1.19168 0
M  V30 2297 O 237.35 -0.736124 -1.80032 0
M  V30 2298 C 237.633 -3.59331 0.235144 0
M  V30 2299 C 237.486 -4.17989 1.66149 0
M  V30 2300 C 238.805 -4.3813 -0.41595 0
M  V30 2301 H 235.924 -0.733293 0.0738311 0
M  V30 2302 H 238.566 -1.69368 0.86107 0
M  V30 2303 H 236.716 -3.87109 -0.328487 0
M  V30 2304 H 238.388 -4.0116 2.27747 0
M  V30 2305 H 236.631 -3.7377 2.20178 0
M  V30 2306 H 237.302 -5.27126 1.63837 0
M  V30 2307 H 239.778 -4.16051 0.0638529 0
M  V30 2308 H 238.654 -5.47717 -0.360115 0
M  V30 2309 H 238.915 -4.16101 -1.49373 0
M  V30 2310 N 237.974 -0.419461 -1.51915 0
M  V30 2311 C 239.199 0.154572 -2.06823 0
M  V30 2312 C 239.624 1.3722 -1.28656 0
M  V30 2313 O 238.982 1.78461 -0.319583 0
M  V30 2314 C 239.03 0.473172 -3.57482 0
M  V30 2315 O 238.134 1.56255 -3.81652 0
M  V30 2316 H 237.475 0.0096924 -0.663929 0
M  V30 2317 H 240.005 -0.595642 -1.95738 0
M  V30 2318 H 240.015 0.728825 -4.01438 0
M  V30 2319 H 238.69 -0.416873 -4.13805 0
M  V30 2320 H 237.267 1.29825 -3.49571 0
M  V30 2321 N 239.452 1.56882 -0.150215 0
M  V30 2322 C 240.692 1.98119 0.502804 0
M  V30 2323 C 241.056 1.03327 1.61826 0
M  V30 2324 O 242.257 1.33621 2.33236 0
M  V30 2325 C 240.528 3.43329 0.992988 0
M  V30 2326 S 242.087 4.0659 1.65015 0
M  V30 2327 H 238.905 0.692189 0.162467 0
M  V30 2328 H 241.507 1.93988 -0.242689 0
M  V30 2329 H 240.211 4.10046 0.170436 0
M  V30 2330 H 239.742 3.5118 1.77303 0
M  V30 2331 H 241.757 3.99906 2.93752 0
M  V30 2332 N 240.93 -0.123565 1.57115 0
M  V30 2333 C 241.893 -1.13583 1.99076 0
M  V30 2334 C 242.893 -1.34564 0.880296 0
M  V30 2335 O 244.083 -1.31158 1.14644 0
M  V30 2336 C 241.215 -2.49128 2.32698 0
M  V30 2337 H 242.408 -0.775287 2.89706 0
M  V30 2338 H 239.961 -0.36771 1.51913 0
M  V30 2339 H 240.696 -2.90111 1.44934 0
M  V30 2340 H 240.481 -2.35255 3.13684 0
M  V30 2341 H 241.971 -3.2199 2.65918 0
M  V30 2342 N 242.408 -1.52605 -0.393616 0
M  V30 2343 C 243.656 -1.67093 -1.13685 0
M  V30 2344 C 243.977 -0.411011 -1.90619 0
M  V30 2345 O 243.247 0.574491 -1.87287 0
M  V30 2346 H 241.827 -0.615923 -0.422668 0
M  V30 2347 H 244.489 -1.89704 -0.447039 0
M  V30 2348 H 243.585 -2.51922 -1.84232 0
M  V30 2349 N 243.887 0.651787 -1.4349 0
M  V30 2350 C 244.817 1.77621 -1.51569 0
M  V30 2351 C 245.798 1.66022 -0.370253 0
M  V30 2352 O 246.983 1.85095 -0.587658 0
M  V30 2353 C 244.113 3.16056 -1.43966 0
M  V30 2354 C 243.067 3.4242 -2.56774 0
M  V30 2355 C 242.393 4.8067 -2.34223 0
M  V30 2356 C 243.693 3.37023 -3.99015 0
M  V30 2357 H 245.387 1.71117 -2.45681 0
M  V30 2358 H 242.933 0.821825 -1.18246 0
M  V30 2359 H 244.886 3.94472 -1.48221 0
M  V30 2360 H 243.61 3.23293 -0.463586 0
M  V30 2361 H 242.269 2.66375 -2.51873 0
M  V30 2362 H 241.917 4.84585 -1.34856 0
M  V30 2363 H 241.617 4.9927 -3.09844 0
M  V30 2364 H 243.141 5.61342 -2.40265 0
M  V30 2365 H 244.555 4.05374 -4.05395 0
M  V30 2366 H 242.952 3.67159 -4.74673 0
M  V30 2367 H 244.022 2.3518 -4.2405 0
M  V30 2368 N 245.365 1.30045 0.890287 0
M  V30 2369 C 246.611 1.18737 1.64406 0
M  V30 2370 C 246.944 -0.258525 1.92472 0
M  V30 2371 O 246.219 -1.18562 1.54186 0
M  V30 2372 C 246.502 2.01087 2.98724 0
M  V30 2373 C 246.355 3.53867 2.77665 0
M  V30 2374 C 247.674 1.84457 3.9958 0
M  V30 2375 H 244.793 0.432698 0.596608 0
M  V30 2376 H 247.435 1.5962 1.0306 0
M  V30 2377 H 245.585 1.66349 3.51084 0
M  V30 2378 H 247.257 3.98637 2.32133 0
M  V30 2379 H 245.5 3.78318 2.12269 0
M  V30 2380 H 246.171 4.06772 3.7315 0
M  V30 2381 H 248.647 2.14817 3.56361 0
M  V30 2382 H 247.523 2.44411 4.91482 0
M  V30 2383 H 247.784 0.802276 4.3476 0
M  V30 2384 N 246.843 -1.10192 1.12674 0
M  V30 2385 C 248.092 -1.81573 0.8783 0
M  V30 2386 C 248.405 -1.86249 -0.597557 0
M  V30 2387 O 249.611 -2.5386 -0.962681 0
M  V30 2388 C 248.067 -3.26149 1.52167 0
M  V30 2389 C 247.675 -3.29763 3.03249 0
M  V30 2390 C 249.419 -4.0234 1.3536 0
M  V30 2391 C 247.326 -4.68815 3.60508 0
M  V30 2392 H 246.256 -0.680394 0.324931 0
M  V30 2393 H 248.907 -1.23902 1.35353 0
M  V30 2394 H 247.289 -3.83832 0.974104 0
M  V30 2395 H 248.463 -2.8189 3.6452 0
M  V30 2396 H 246.778 -2.67059 3.19481 0
M  V30 2397 H 249.375 -5.05058 1.75559 0
M  V30 2398 H 249.718 -4.15235 0.297554 0
M  V30 2399 H 250.251 -3.51079 1.87052 0
M  V30 2400 H 246.99 -4.61121 4.65884 0
M  V30 2401 H 246.51 -5.17045 3.04014 0
M  V30 2402 H 248.189 -5.37785 3.59717 0
M  V30 2403 N 248.321 -0.919034 -1.28029 0
M  V30 2404 C 249.569 -0.553838 -1.94363 0
M  V30 2405 C 249.89 0.906357 -1.72656 0
M  V30 2406 O 249.16 1.64143 -1.0693 0
M  V30 2407 H 247.74 -0.201834 -0.719216 0
M  V30 2408 H 250.402 -1.16954 -1.55909 0
M  V30 2409 H 249.498 -0.752758 -3.02886 0
M  V30 2410 N 249.799 1.42003 -0.683588 0
M  V30 2411 C 251.024 2.06265 -0.216647 0
M  V30 2412 C 251.449 1.51059 1.12083 0
M  V30 2413 O 250.807 0.632638 1.69904 0
M  V30 2414 C 250.855 3.60191 -0.171759 0
M  V30 2415 O 249.959 4.03396 0.857069 0
M  V30 2416 H 249.3 0.65502 -0.108834 0
M  V30 2417 H 251.83 1.81982 -0.935077 0
M  V30 2418 H 251.84 4.08 0.0014303 0
M  V30 2419 H 250.515 3.99743 -1.14796 0
M  V30 2420 H 249.092 3.67117 0.654208 0
M  V30 2421 N 251.277 0.427512 1.51691 0
M  V30 2422 C 252.523 -0.134744 2.02953 0
M  V30 2423 C 252.878 -1.41235 1.30654 0
M  V30 2424 O 252.171 -1.87168 0.409713 0
M  V30 2425 C 252.365 -0.418249 3.54944 0
M  V30 2426 C 252.194 0.830327 4.41968 0
M  V30 2427 C 250.964 1.36097 4.86627 0
M  V30 2428 C 253.162 1.7137 4.84909 0
M  V30 2429 N 251.144 2.56311 5.57833 0
M  V30 2430 C 252.515 2.76195 5.55082 0
M  V30 2431 C 254.57 1.72928 4.66905 0
M  V30 2432 C 253.273 3.82512 6.09161 0
M  V30 2433 C 255.299 2.78175 5.21894 0
M  V30 2434 C 254.661 3.8172 5.92004 0
M  V30 2435 H 250.76 -0.0103958 0.781931 0
M  V30 2436 H 253.344 0.585981 1.85673 0
M  V30 2437 H 251.515 -1.10801 3.7226 0
M  V30 2438 H 253.247 -0.970999 3.92879 0
M  V30 2439 H 250.002 0.916311 4.64651 0
M  V30 2440 H 250.426 3.17242 5.98069 0
M  V30 2441 H 255.068 0.942081 4.12171 0
M  V30 2442 H 252.786 4.62077 6.62956 0
M  V30 2443 H 256.372 2.8031 5.09821 0
M  V30 2444 H 255.252 4.61821 6.33791 0
M  V30 2445 N 252.755 -1.56801 0.158532 0
M  V30 2446 C 254.166 -1.83189 -0.360366 0
M  V30 2447 C 254.517 -1.07778 -1.63946 0
M  V30 2448 O 253.642 -0.326718 -2.13919 0
M  V30 2449 C 254.237 -3.32297 -0.660595 0
M  V30 2450 C 252.796 -3.59227 -1.12398 0
M  V30 2451 C 251.943 -2.76877 -0.153097 0
M  V30 2452 H 254.894 -1.54008 0.383031 0
M  V30 2453 H 254.915 -3.4908 -1.51405 0
M  V30 2454 H 254.427 -3.87156 0.270527 0
M  V30 2455 H 252.528 -3.09766 -2.07064 0
M  V30 2456 H 252.641 -4.67632 -1.04197 0
M  V30 2457 H 251.005 -2.46319 -0.647983 0
M  V30 2458 H 251.788 -3.34511 0.77182 0
M  V30 2459 N 254.233 0.115231 -1.57178 0
M  V30 2460 C 255.51 0.852873 -1.76027 0
M  V30 2461 C 255.89 1.97892 -0.73498 0
M  V30 2462 O 255.238 2.27232 0.24036 0
M  V30 2463 C 255.448 1.36608 -3.21153 0
M  V30 2464 C 256.796 1.81692 -3.83762 0
M  V30 2465 O 257.82 1.46278 -3.24779 0
M  V30 2466 O 256.679 2.47104 -4.87444 0
M  V30 2467 H 253.773 0.405296 -0.720877 0
M  V30 2468 H 256.319 0.0986785 -1.69413 0
M  V30 2469 H 255.091 0.558357 -3.87296 0
M  V30 2470 H 254.714 2.18287 -3.3232 0
M  V30 2471 N 255.711 1.52812 0.385517 0
M  V30 2472 C 257.122 1.5993 0.963293 0
M  V30 2473 C 257.473 0.454302 1.90868 0
M  V30 2474 O 256.598 -0.422132 2.12243 0
M  V30 2475 C 257.193 2.89871 1.75387 0
M  V30 2476 C 255.752 2.99389 2.28129 0
M  V30 2477 C 254.899 2.55071 1.08783 0
M  V30 2478 H 257.85 1.5784 0.164948 0
M  V30 2479 H 257.871 2.76553 2.61341 0
M  V30 2480 H 257.383 3.73186 1.06554 0
M  V30 2481 H 255.484 2.20619 3.00263 0
M  V30 2482 H 255.597 4.04096 2.57377 0
M  V30 2483 H 253.961 2.09473 1.4489 0
M  V30 2484 H 254.744 3.40785 0.414807 0
M  V30 2485 N 257.189 -0.644168 1.43834 0
M  V30 2486 C 258.6 -1.22554 1.40845 0
M  V30 2487 C 258.951 -1.9585 0.117115 0
M  V30 2488 O 258.076 -2.01734 -0.783086 0
M  V30 2489 C 258.671 -2.22907 2.55143 0
M  V30 2490 C 257.23 -2.76501 2.5539 0
M  V30 2491 C 256.377 -1.51287 2.32396 0
M  V30 2492 H 259.328 -0.43563 1.52604 0
M  V30 2493 H 259.349 -3.05259 2.2715 0
M  V30 2494 H 258.861 -1.69533 3.49114 0
M  V30 2495 H 256.962 -3.33914 1.65324 0
M  V30 2496 H 257.075 -3.23429 3.53455 0
M  V30 2497 H 255.439 -1.78957 1.81236 0
M  V30 2498 H 256.222 -0.998336 3.28463 0
M  V30 2499 N 258.668 -1.30515 -0.883378 0
M  V30 2500 C 259.916 -1.19194 -1.63209 0
M  V30 2501 C 260.237 0.253205 -1.93349 0
M  V30 2502 O 259.507 1.17025 -1.57105 0
M  V30 2503 H 258.087 -0.438148 -0.605009 0
M  V30 2504 H 260.749 -1.63663 -1.05832 0
M  V30 2505 H 259.845 -1.75396 -2.58153 0
M  V30 2506 N 260.146 1.09593 -1.13257 0
M  V30 2507 C 261.076 2.18214 -0.830946 0
M  V30 2508 C 262.057 1.68812 0.208966 0
M  V30 2509 O 263.242 1.9408 0.0682666 0
M  V30 2510 C 260.372 3.46051 -0.294296 0
M  V30 2511 C 259.326 4.08778 -1.26826 0
M  V30 2512 C 258.652 5.31419 -0.591449 0
M  V30 2513 C 259.952 4.51476 -2.62615 0
M  V30 2514 H 261.646 2.43703 -1.73923 0
M  V30 2515 H 259.192 1.17128 -0.837675 0
M  V30 2516 H 261.145 4.2134 -0.0709606 0
M  V30 2517 H 259.869 3.20079 0.649366 0
M  V30 2518 H 258.528 3.35505 -1.47756 0
M  V30 2519 H 258.176 5.01727 0.357633 0
M  V30 2520 H 257.876 5.74341 -1.24123 0
M  V30 2521 H 259.4 6.09433 -0.377355 0
M  V30 2522 H 260.814 5.17999 -2.45663 0
M  V30 2523 H 259.211 5.05277 -3.23752 0
M  V30 2524 H 260.281 3.63962 -3.20406 0
M  V30 2525 N 261.624 0.925811 1.2754 0
M  V30 2526 C 262.87 0.566092 1.94739 0
M  V30 2527 C 263.203 -0.890057 1.72603 0
M  V30 2528 O 262.478 -1.63467 1.05399 0
M  V30 2529 C 262.761 0.89054 3.48915 0
M  V30 2530 C 262.614 2.4003 3.80402 0
M  V30 2531 C 263.933 0.395101 4.38323 0
M  V30 2532 H 261.052 0.20714 0.707292 0
M  V30 2533 H 263.694 1.15725 1.50691 0
M  V30 2534 H 261.844 0.387452 3.86563 0
M  V30 2535 H 263.516 2.97494 3.52555 0
M  V30 2536 H 261.759 2.85028 3.2702 0
M  V30 2537 H 262.43 2.57785 4.8811 0
M  V30 2538 H 264.906 0.826241 4.07814 0
M  V30 2539 H 263.782 0.651086 5.45025 0
M  V30 2540 H 264.043 -0.704798 4.36446 0
M  V30 2541 N 263.102 -1.41638 0.69111 0
M  V30 2542 C 264.065 -2.29178 0.0319786 0
M  V30 2543 C 265.065 -1.44153 -0.712496 0
M  V30 2544 O 266.255 -1.65354 -0.548053 0
M  V30 2545 C 263.387 -3.26952 -0.965161 0
M  V30 2546 H 264.58 -2.88959 0.802681 0
M  V30 2547 H 262.133 -1.4955 0.454356 0
M  V30 2548 H 262.868 -2.72142 -1.76378 0
M  V30 2549 H 262.653 -3.89685 -0.434522 0
M  V30 2550 H 264.143 -3.92561 -1.42428 0
M  V30 2551 N 264.58 -0.43555 -1.51462 0
M  V30 2552 C 265.543 0.365137 -2.26273 0
M  V30 2553 C 266.543 0.951227 -1.29647 0
M  V30 2554 O 267.733 0.825958 -1.53374 0
M  V30 2555 C 264.865 1.51645 -3.05314 0
M  V30 2556 H 266.058 -0.290474 -2.9849 0
M  V30 2557 H 263.611 -0.188676 -1.55157 0
M  V30 2558 H 264.346 2.20816 -2.3751 0
M  V30 2559 H 264.131 1.10238 -3.76284 0
M  V30 2560 H 265.621 2.08218 -3.61987 0
M  V30 2561 N 266.058 1.56714 -0.166846 0
M  V30 2562 C 267.283 2.01557 0.488833 0
M  V30 2563 C 267.708 1.0463 1.56314 0
M  V30 2564 O 267.066 0.0251304 1.81283 0
M  V30 2565 C 267.114 3.4503 1.04818 0
M  V30 2566 O 266.218 3.51163 2.16236 0
M  V30 2567 H 265.559 0.653516 0.117526 0
M  V30 2568 H 268.089 2.02818 -0.269421 0
M  V30 2569 H 268.099 3.84243 1.37191 0
M  V30 2570 H 266.774 4.15077 0.261572 0
M  V30 2571 H 265.351 3.23807 1.84942 0
M  V30 2572 N 267.536 -0.106894 1.57237 0
M  V30 2573 C 268.484 -1.14944 2.02215 0
M  V30 2574 C 269.478 -1.42167 0.92114 0
M  V30 2575 O 270.684 -1.41987 1.10634 0
M  V30 2576 H 267.059 -0.387841 0.64427 0
M  V30 2577 H 269.03 -0.743683 2.88984 0
M  V30 2578 C 267.779 -2.4647 2.4525 0
M  V30 2579 H 267.102 -2.26363 3.29545 0
M  V30 2580 H 268.542 -3.17948 2.80508 0
M  V30 2581 C 267.001 -3.09921 1.321 0
M  V30 2582 O 267.531 -3.9651 0.643622 0
M  V30 2583 N 265.737 -2.69986 1.07497 0
M  V30 2584 H 265.284 -1.99667 1.62761 0
M  V30 2585 H 265.242 -3.12769 0.319876 0
M  V30 2586 N 269.014 -1.53014 -0.377408 0
M  V30 2587 C 270.43 -1.42523 -0.718281 0
M  V30 2588 C 270.63 -0.55487 -1.9371 0
M  V30 2589 O 269.686 -0.0327593 -2.52479 0
M  V30 2590 C 270.999 -2.85546 -0.942539 0
M  V30 2591 C 272.547 -2.95101 -1.04329 0
M  V30 2592 C 273.022 -4.3916 -1.3001 0
M  V30 2593 N 274.513 -4.42536 -1.36806 0
M  V30 2594 C 275.248 -5.51097 -1.58364 0
M  V30 2595 N 274.744 -6.69724 -1.77317 0
M  V30 2596 N 276.537 -5.38657 -1.60638 0
M  V30 2597 H 268.688 -2.08116 0.424426 0
M  V30 2598 H 270.951 -0.939352 0.127759 0
M  V30 2599 H 270.657 -3.51499 -0.118929 0
M  V30 2600 H 270.531 -3.28493 -1.85397 0
M  V30 2601 H 272.918 -2.29309 -1.85745 0
M  V30 2602 H 272.999 -2.55566 -0.109505 0
M  V30 2603 H 272.643 -5.05521 -0.490991 0
M  V30 2604 H 272.573 -4.76258 -2.24691 0
M  V30 2605 H 275.064 -3.57039 -1.23821 0
M  V30 2606 H 275.377 -7.48233 -1.93306 0
M  V30 2607 H 273.722 -6.72732 -1.74518 0
M  V30 2608 H 276.913 -4.44948 -1.45391 0
M  V30 2609 H 277.086 -6.2333 -1.77098 0
M  V30 2610 N 270.492 0.636531 -1.44174 0
M  V30 2611 C 271.717 1.42847 -1.50364 0
M  V30 2612 C 272.142 1.87665 -0.127867 0
M  V30 2613 O 271.5 1.58408 0.88185 0
M  V30 2614 C 271.548 2.62854 -2.4686 0
M  V30 2615 O 270.652 3.62501 -1.9664 0
M  V30 2616 H 269.993 0.427642 -0.507955 0
M  V30 2617 H 272.523 0.777422 -1.89255 0
M  V30 2618 H 272.533 3.10465 -2.64718 0
M  V30 2619 H 271.208 2.29578 -3.46795 0
M  V30 2620 H 269.785 3.21735 -1.88523 0
M  V30 2621 N 271.97 1.30982 0.876444 0
M  V30 2622 C 272.933 1.18054 1.96459 0
M  V30 2623 C 273.933 0.109399 1.60427 0
M  V30 2624 O 275.123 0.358173 1.70478 0
M  V30 2625 C 272.255 0.810616 3.31122 0
M  V30 2626 H 273.448 2.14735 2.09354 0
M  V30 2627 H 271.001 1.145 1.06392 0
M  V30 2628 H 271.736 -0.155322 3.23928 0
M  V30 2629 H 271.521 1.58481 3.58645 0
M  V30 2630 H 273.011 0.743876 4.10921 0
M  V30 2631 N 273.449 -1.08991 1.13837 0
M  V30 2632 C 274.379 -2.17771 0.842507 0
M  V30 2633 C 275.36 -1.6892 -0.20001 0
M  V30 2634 O 276.545 -1.94113 -0.0579731 0
M  V30 2635 C 273.675 -3.4589 0.312644 0
M  V30 2636 C 272.629 -4.08099 1.28992 0
M  V30 2637 C 271.955 -5.31098 0.619623 0
M  V30 2638 C 273.255 -4.50077 2.65005 0
M  V30 2639 H 274.949 -2.42777 1.75213 0
M  V30 2640 H 272.495 -1.16682 0.843875 0
M  V30 2641 H 274.448 -4.21297 0.0933043 0
M  V30 2642 H 273.172 -3.20419 -0.632382 0
M  V30 2643 H 271.831 -3.34717 1.49533 0
M  V30 2644 H 271.479 -5.0191 -0.33102 0
M  V30 2645 H 271.179 -5.73674 1.27167 0
M  V30 2646 H 272.703 -6.09224 0.409669 0
M  V30 2647 H 274.117 -5.16688 2.48407 0
M  V30 2648 H 272.514 -5.03553 3.26427 0
M  V30 2649 H 273.584 -3.62257 3.22332 0
M  V30 2650 N 274.927 -0.932562 -1.27047 0
M  V30 2651 C 275.89 -0.440064 -2.24936 0
M  V30 2652 C 276.89 0.444071 -1.54547 0
M  V30 2653 O 278.08 0.244465 -1.72476 0
M  V30 2654 C 275.212 0.36678 -3.38921 0
M  V30 2655 H 276.405 -1.305 -2.70018 0
M  V30 2656 H 273.958 -0.713707 -1.39054 0
M  V30 2657 H 274.693 1.25033 -2.99228 0
M  V30 2658 H 274.478 -0.267204 -3.91188 0
M  V30 2659 H 275.968 0.701567 -4.11665 0
M  V30 2660 N 276.405 1.4127 -0.698611 0
M  V30 2661 C 277.821 1.55241 -0.370462 0
M  V30 2662 C 278.021 1.67351 1.12231 0
M  V30 2663 O 277.077 1.65363 1.90818 0
M  V30 2664 C 278.39 2.78997 -1.12165 0
M  V30 2665 C 279.938 2.92797 -1.1063 0
M  V30 2666 C 280.413 4.19445 -1.8393 0
M  V30 2667 N 281.904 4.26409 -1.80914 0
M  V30 2668 C 282.639 5.23271 -2.34467 0
M  V30 2669 N 282.135 6.26145 -2.96504 0
M  V30 2670 N 283.928 5.15232 -2.24706 0
M  V30 2671 H 276.079 1.31654 -1.66676 0
M  V30 2672 H 278.342 0.635393 -0.703548 0
M  V30 2673 H 278.048 2.76268 -2.17644 0
M  V30 2674 H 277.922 3.70606 -0.702209 0
M  V30 2675 H 280.309 2.95039 -0.0597713 0
M  V30 2676 H 280.39 2.02353 -1.56483 0
M  V30 2677 H 280.034 4.17964 -2.88563 0
M  V30 2678 H 279.964 5.08866 -1.35509 0
M  V30 2679 H 282.455 3.527 -1.35687 0
M  V30 2680 H 282.768 6.96451 -3.34927 0
M  V30 2681 H 281.113 6.26638 -3.00583 0
M  V30 2682 H 284.304 4.33789 -1.7591 0
M  V30 2683 H 284.477 5.90552 -2.66745 0
M  V30 2684 N 277.883 0.443576 1.51229 0
M  V30 2685 C 279.132 -0.122332 2.01329 0
M  V30 2686 C 279.445 -1.43237 1.33201 0
M  V30 2687 O 280.651 -2.0816 1.74304 0
M  V30 2688 C 279.107 -0.268551 3.58897 0
M  V30 2689 C 278.715 1.03142 4.35965 0
M  V30 2690 C 280.459 -0.787894 4.17124 0
M  V30 2691 C 278.366 0.850504 5.85252 0
M  V30 2692 H 277.296 -0.0494929 0.752374 0
M  V30 2693 H 279.947 0.574289 1.74282 0
M  V30 2694 H 278.329 -1.02832 3.82415 0
M  V30 2695 H 279.503 1.80001 4.24189 0
M  V30 2696 H 277.818 1.47977 3.89219 0
M  V30 2697 H 280.415 -0.939841 5.26375 0
M  V30 2698 H 280.758 -1.77201 3.76703 0
M  V30 2699 H 281.291 -0.0862669 3.97706 0
M  V30 2700 H 278.03 1.80718 6.30096 0
M  V30 2701 H 277.55 0.121825 5.99676 0
M  V30 2702 H 279.229 0.506163 6.45017 0
M  V30 2703 N 279.361 -1.56624 0.175154 0
M  V30 2704 C 280.324 -2.16934 -0.739738 0
M  V30 2705 C 281.324 -1.11842 -1.15533 0
M  V30 2706 O 282.514 -1.37335 -1.07167 0
M  V30 2707 C 279.646 -2.75531 -2.00738 0
M  V30 2708 H 280.839 -2.99131 -0.214639 0
M  V30 2709 H 278.392 -1.56123 -0.0744197 0
M  V30 2710 H 279.127 -1.97078 -2.57548 0
M  V30 2711 H 278.912 -3.52444 -1.71831 0
M  V30 2712 H 280.402 -3.21904 -2.66021 0
M  V30 2713 N 280.839 0.0985539 -1.57292 0
M  V30 2714 C 281.772 1.15082 -1.97057 0
M  V30 2715 C 282.75 1.39025 -0.843255 0
M  V30 2716 O 283.934 1.52842 -1.10325 0
M  V30 2717 C 281.061 2.50069 -2.28437 0
M  V30 2718 C 280.107 2.42428 -3.509 0
M  V30 2719 S 280.94 1.84414 -5.02744 0
M  V30 2720 C 282.096 3.21032 -5.37298 0
M  V30 2721 H 282.329 0.811815 -2.86002 0
M  V30 2722 H 279.862 0.306102 -1.51335 0
M  V30 2723 H 281.82 3.27729 -2.47192 0
M  V30 2724 H 280.481 2.8114 -1.40069 0
M  V30 2725 H 279.674 3.41911 -3.70288 0
M  V30 2726 H 279.276 1.72896 -3.31637 0
M  V30 2727 H 281.568 4.17297 -5.33731 0
M  V30 2728 H 282.511 3.06452 -6.38352 0
M  V30 2729 H 282.919 3.20404 -4.64759 0
M  V30 2730 N 282.317 1.53212 0.369288 0
M  V30 2731 C 283.563 1.69466 1.11397 0
M  V30 2732 C 283.896 0.443257 1.89074 0
M  V30 2733 O 283.171 -0.559386 1.86282 0
M  V30 2734 C 283.454 2.9422 2.07621 0
M  V30 2735 C 283.307 4.29508 1.33577 0
M  V30 2736 C 284.626 3.14565 3.07794 0
M  V30 2737 H 281.745 0.616667 0.403597 0
M  V30 2738 H 284.387 1.85845 0.395179 0
M  V30 2739 H 282.537 2.80387 2.68916 0
M  V30 2740 H 284.209 4.55147 0.750955 0
M  V30 2741 H 282.452 4.29088 0.637618 0
M  V30 2742 H 283.123 5.12926 2.03989 0
M  V30 2743 H 285.599 3.2756 2.56601 0
M  V30 2744 H 284.475 4.03297 3.72348 0
M  V30 2745 H 284.736 2.29675 3.77759 0
M  V30 2746 N 283.795 -0.628877 1.44509 0
M  V30 2747 C 285.211 -0.947305 1.28446 0
M  V30 2748 C 285.411 -2.00275 0.221872 0
M  V30 2749 O 284.467 -2.49447 -0.391471 0
M  V30 2750 C 285.78 -1.40843 2.65676 0
M  V30 2751 C 287.328 -1.52379 2.73404 0
M  V30 2752 C 287.803 -2.01875 4.11109 0
M  V30 2753 N 289.294 -2.09142 4.13296 0
M  V30 2754 C 290.029 -2.48615 5.16699 0
M  V30 2755 N 289.525 -2.87209 6.30462 0
M  V30 2756 N 291.318 -2.48768 5.04054 0
M  V30 2757 H 283.469 0.0690977 2.12288 0
M  V30 2758 H 285.732 -0.0317164 0.947469 0
M  V30 2759 H 285.438 -0.707206 3.44516 0
M  V30 2760 H 285.312 -2.37902 2.92716 0
M  V30 2761 H 287.699 -2.21598 1.9488 0
M  V30 2762 H 287.78 -0.536898 2.50102 0
M  V30 2763 H 287.424 -1.3325 4.90109 0
M  V30 2764 H 287.354 -3.0144 4.31789 0
M  V30 2765 H 289.845 -1.81991 3.31191 0
M  V30 2766 H 290.158 -3.16149 7.05174 0
M  V30 2767 H 288.503 -2.84955 6.33897 0
M  V30 2768 H 291.694 -2.18009 4.14234 0
M  V30 2769 H 291.867 -2.79207 5.84763 0
M  V30 2770 N 285.273 -1.31445 -0.869486 0
M  V30 2771 C 286.236 -1.19094 -1.9583 0
M  V30 2772 C 287.236 -0.117906 -1.60367 0
M  V30 2773 O 288.426 -0.367208 -1.70286 0
M  V30 2774 C 285.558 -0.828165 -3.30688 0
M  V30 2775 H 286.751 -2.15842 -2.08212 0
M  V30 2776 H 284.304 -1.15063 -1.05784 0
M  V30 2777 H 285.039 0.138142 -3.24006 0
M  V30 2778 H 284.824 -1.6038 -3.578 0
M  V30 2779 H 286.314 -0.765658 -4.10521 0
M  V30 2780 N 286.751 1.08385 -1.14413 0
M  V30 2781 C 287.714 2.13486 -0.834048 0
M  V30 2782 C 288.714 1.59988 0.161418 0
M  V30 2783 O 289.904 1.74071 -0.0669575 0
M  V30 2784 C 287.036 3.4003 -0.243354 0
M  V30 2785 H 288.229 2.42425 -1.7655 0
M  V30 2786 H 285.782 1.24101 -0.950189 0
M  V30 2787 H 286.517 3.16726 0.696807 0
M  V30 2788 H 286.302 3.80157 -0.960367 0
M  V30 2789 H 287.792 4.17577 -0.0436242 0
M  V30 2790 N 288.23 0.939286 1.26551 0
M  V30 2791 C 289.16 0.465044 2.28822 0
M  V30 2792 C 290.141 -0.480692 1.63167 0
M  V30 2793 O 291.326 -0.382955 1.90387 0
M  V30 2794 C 288.456 -0.27234 3.46231 0
M  V30 2795 C 287.41 0.58666 4.2396 0
M  V30 2796 C 286.736 -0.280573 5.33963 0
M  V30 2797 C 288.036 1.85704 4.88171 0
M  V30 2798 H 289.73 1.31979 2.68741 0
M  V30 2799 H 287.276 0.636061 1.29191 0
M  V30 2800 H 289.229 -0.615133 4.16886 0
M  V30 2801 H 287.953 -1.16121 3.0526 0
M  V30 2802 H 286.612 0.91232 3.55067 0
M  V30 2803 H 286.26 -1.16874 4.89234 0
M  V30 2804 H 285.96 0.29076 5.8688 0
M  V30 2805 H 287.484 -0.618678 6.07458 0
M  V30 2806 H 288.898 1.58161 5.51052 0
M  V30 2807 H 287.295 2.37279 5.51197 0
M  V30 2808 H 288.365 2.56957 4.11219 0
M  V30 2809 N 289.708 -1.40897 0.706093 0
M  V30 2810 C 291.119 -1.84023 0.315052 0
M  V30 2811 C 291.47 -1.5906 -1.14866 0
M  V30 2812 O 290.595 -1.06651 -1.88293 0
M  V30 2813 C 291.19 -3.34055 0.565038 0
M  V30 2814 C 289.749 -3.7571 0.227806 0
M  V30 2815 C 288.896 -2.64204 0.842122 0
M  V30 2816 H 291.847 -1.303 0.905963 0
M  V30 2817 H 291.868 -3.80107 -0.172843 0
M  V30 2818 H 291.38 -3.52192 1.63042 0
M  V30 2819 H 289.481 -3.63172 -0.832895 0
M  V30 2820 H 289.594 -4.74103 0.690174 0
M  V30 2821 H 287.958 -2.53255 0.270893 0
M  V30 2822 H 288.741 -2.85155 1.91158 0
M  V30 2823 N 291.186 -0.45159 -1.50991 0
M  V30 2824 C 292.149 0.341117 -2.26647 0
M  V30 2825 C 293.149 0.937422 -1.30649 0
M  V30 2826 O 294.339 0.809644 -1.54241 0
M  V30 2827 C 291.471 1.48398 -3.06905 0
M  V30 2828 H 292.664 -0.322117 -2.98165 0
M  V30 2829 H 290.217 -0.205122 -1.54948 0
M  V30 2830 H 290.952 2.18284 -2.39838 0
M  V30 2831 H 290.737 1.06241 -3.77432 0
M  V30 2832 H 292.227 2.04367 -3.64176 0
M  V30 2833 N 292.664 1.56529 -0.183458 0
M  V30 2834 C 293.912 1.96855 0.457452 0
M  V30 2835 C 294.233 1.07104 1.62953 0
M  V30 2836 O 293.503 0.139887 1.954 0
M  V30 2837 H 292.083 0.72693 0.171992 0
M  V30 2838 H 294.745 1.93056 -0.267476 0
M  V30 2839 H 293.841 3.01423 0.809368 0
M  V30 2840 N 294.142 -0.090211 1.57342 0
M  V30 2841 C 295.105 -1.09335 2.01441 0
M  V30 2842 C 296.105 -1.32666 0.908641 0
M  V30 2843 O 297.295 -1.28697 1.174 0
M  V30 2844 C 294.427 -2.44136 2.3793 0
M  V30 2845 H 295.62 -0.713662 2.91285 0
M  V30 2846 H 293.173 -0.335404 1.52659 0
M  V30 2847 H 293.908 -2.86972 1.51055 0
M  V30 2848 H 293.693 -2.28548 3.18603 0
M  V30 2849 H 295.183 -3.16277 2.72688 0
M  V30 2850 N 295.62 -1.53406 -0.361157 0
M  V30 2851 C 296.583 -1.79479 -1.42548 0
M  V30 2852 C 297.583 -0.665327 -1.4639 0
M  V30 2853 O 298.773 -0.933549 -1.47073 0
M  V30 2854 C 295.905 -1.92087 -2.8163 0
M  V30 2855 H 297.098 -2.74538 -1.20701 0
M  V30 2856 H 294.651 -1.4455 -0.594546 0
M  V30 2857 H 295.386 -0.991099 -3.08784 0
M  V30 2858 H 295.171 -2.74241 -2.80239 0
M  V30 2859 H 296.661 -2.13836 -3.58697 0
M  V30 2860 N 297.098 0.621204 -1.44841 0
M  V30 2861 C 298.323 1.41244 -1.51871 0
M  V30 2862 C 298.748 1.87519 -0.147764 0
M  V30 2863 O 298.106 1.59334 0.865 0
M  V30 2864 C 298.154 2.60221 -2.49634 0
M  V30 2865 O 297.258 3.60395 -2.00473 0
M  V30 2866 H 296.599 0.42223 -0.512463 0
M  V30 2867 H 299.129 0.757305 -1.90069 0
M  V30 2868 H 299.139 3.0764 -2.67996 0
M  V30 2869 H 297.814 2.25887 -3.4921 0
M  V30 2870 H 296.391 3.19717 -1.91925 0
M  V30 2871 N 298.576 1.31904 0.862503 0
M  V30 2872 C 299.506 1.22782 1.98612 0
M  V30 2873 C 300.487 0.113362 1.69722 0
M  V30 2874 O 301.672 0.299218 1.91881 0
M  V30 2875 C 298.802 0.942058 3.34279 0
M  V30 2876 C 297.756 2.0169 3.77499 0
M  V30 2877 C 297.082 1.58369 5.10709 0
M  V30 2878 C 298.382 3.43096 3.93805 0
M  V30 2879 H 300.076 2.16788 2.06502 0
M  V30 2880 H 297.622 1.04366 0.992154 0
M  V30 2881 H 299.575 0.864818 4.1243 0
M  V30 2882 H 298.299 -0.0336603 3.26583 0
M  V30 2883 H 296.958 2.08416 3.01593 0
M  V30 2884 H 296.606 0.595628 4.99461 0
M  V30 2885 H 296.306 2.30279 5.40597 0
M  V30 2886 H 297.83 1.52067 5.91361 0
M  V30 2887 H 299.244 3.39003 4.62331 0
M  V30 2888 H 297.641 4.13288 4.35101 0
M  V30 2889 H 298.711 3.83334 2.96957 0
M  V30 2890 N 300.054 -1.07777 1.14986 0
M  V30 2891 C 301.331 -1.7699 0.832695 0
M  V30 2892 C 301.711 -2.001 -0.672561 0
M  V30 2893 O 301.059 -1.61598 -1.6155 0
M  V30 2894 C 301.269 -3.08139 1.63863 0
M  V30 2895 C 302.617 -3.8256 1.84208 0
M  V30 2896 O 303.641 -3.17939 1.60603 0
M  V30 2897 O 302.5 -4.98612 2.23714 0
M  V30 2898 H 299.594 -0.768389 0.305791 0
M  V30 2899 H 302.14 -1.14182 1.25541 0
M  V30 2900 H 300.912 -2.86909 2.6608 0
M  V30 2901 H 300.535 -3.78678 1.21197 0
M  V30 2902 N 301.532 -0.945985 -1.26051 0
M  V30 2903 C 302.495 -0.463897 -2.24456 0
M  V30 2904 C 303.495 0.427655 -1.55009 0
M  V30 2905 O 304.685 0.226157 -1.72726 0
M  V30 2906 C 301.817 0.330812 -3.39291 0
M  V30 2907 H 303.01 -1.33357 -2.68619 0
M  V30 2908 H 300.563 -0.728416 -1.38289 0
M  V30 2909 H 301.298 1.21852 -3.00537 0
M  V30 2910 H 301.083 -0.308679 -3.90883 0
M  V30 2911 H 302.573 0.657865 -4.12386 0
M  V30 2912 N 303.011 1.40521 -0.713556 0
M  V30 2913 C 304.259 2.00527 -0.251692 0
M  V30 2914 C 304.58 1.56857 1.15848 0
M  V30 2915 O 303.85 0.807127 1.785 0
M  V30 2916 H 302.43 0.741551 -0.0900646 0
M  V30 2917 H 305.092 1.71887 -0.918733 0
M  V30 2918 H 304.188 3.10813 -0.283192 0
M  V30 2919 N 304.489 0.459591 1.5075 0
M  V30 2920 C 305.766 -0.160371 1.94941 0
M  V30 2921 C 306.146 -1.58048 1.39943 0
M  V30 2922 O 305.494 -2.206 0.595629 0
M  V30 2923 C 305.704 -0.115432 3.48809 0
M  V30 2924 C 307.052 -0.310026 4.23467 0
M  V30 2925 O 308.076 -0.192543 3.55679 0
M  V30 2926 O 306.935 -0.546031 5.43765 0
M  V30 2927 H 304.029 -0.117925 0.818549 0
M  V30 2928 H 306.575 0.519169 1.61563 0
M  V30 2929 H 305.347 0.87652 3.81357 0
M  V30 2930 H 304.97 -0.836928 3.88692 0
M  V30 2931 N 305.967 -1.56429 0.191757 0
M  V30 2932 C 307.214 -1.97485 -0.447891 0
M  V30 2933 C 307.542 -1.07852 -1.61859 0
M  V30 2934 O 306.797 -0.116903 -1.95351 0
M  V30 2935 C 307.096 -3.44449 -0.953384 0
M  V30 2936 C 306.762 -4.50781 0.103586 0
M  V30 2937 C 305.424 -4.79584 0.394023 0
M  V30 2938 C 307.776 -5.1471 0.819946 0
M  V30 2939 C 305.104 -5.69607 1.40585 0
M  V30 2940 C 307.456 -6.05827 1.8209 0
M  V30 2941 C 306.12 -6.32987 2.11857 0
M  V30 2942 H 305.39 -0.722648 -0.163895 0
M  V30 2943 H 308.037 -1.89322 0.28802 0
M  V30 2944 H 306.342 -3.49666 -1.76751 0
M  V30 2945 H 308.039 -3.73569 -1.45765 0
M  V30 2946 H 304.629 -4.28394 -0.132951 0
M  V30 2947 H 308.813 -4.92552 0.608789 0
M  V30 2948 H 304.069 -5.88926 1.64243 0
M  V30 2949 H 308.243 -6.54424 2.38123 0
M  V30 2950 H 305.87 -7.02544 2.90407 0
M  V30 2951 N 307.445 0.0818655 -1.57387 0
M  V30 2952 C 308.408 1.08265 -2.02018 0
M  V30 2953 C 309.408 1.32183 -0.915664 0
M  V30 2954 O 310.598 1.28073 -1.18081 0
M  V30 2955 C 307.73 2.42871 -2.39221 0
M  V30 2956 H 308.923 0.698204 -2.91659 0
M  V30 2957 H 306.476 0.327303 -1.52835 0
M  V30 2958 H 307.211 2.86167 -1.52575 0
M  V30 2959 H 306.996 2.26855 -3.19811 0
M  V30 2960 H 308.486 3.14826 -2.74362 0
M  V30 2961 N 308.923 1.53595 0.353017 0
M  V30 2962 C 309.886 1.80232 1.41594 0
M  V30 2963 C 310.886 0.673081 1.46035 0
M  V30 2964 O 312.076 0.941335 1.46576 0
M  V30 2965 C 309.208 1.93578 2.80607 0
M  V30 2966 H 310.401 2.75174 1.19244 0
M  V30 2967 H 307.954 1.44864 0.586872 0
M  V30 2968 H 308.689 1.00746 3.08254 0
M  V30 2969 H 308.474 2.75724 2.78781 0
M  V30 2970 H 309.964 2.15735 3.57558 0
M  V30 2971 N 310.401 -0.613514 1.45168 0
M  V30 2972 C 311.334 -1.73809 1.47871 0
M  V30 2973 C 312.312 -1.59097 0.33568 0
M  V30 2974 O 313.496 -1.8074 0.535299 0
M  V30 2975 C 310.623 -3.11574 1.32813 0
M  V30 2976 C 309.669 -3.4489 2.50905 0
M  V30 2977 S 310.502 -3.40393 4.13392 0
M  V30 2978 C 311.658 -4.80749 4.00789 0
M  V30 2979 H 311.891 -1.71252 2.43023 0
M  V30 2980 H 309.424 -0.789658 1.32679 0
M  V30 2981 H 311.382 -3.91065 1.24812 0
M  V30 2982 H 310.043 -3.11652 0.391418 0
M  V30 2983 H 309.236 -4.45183 2.36279 0
M  V30 2984 H 308.838 -2.72901 2.55736 0
M  V30 2985 H 311.13 -5.7041 3.65567 0
M  V30 2986 H 312.073 -5.00431 5.00974 0
M  V30 2987 H 312.481 -4.56151 3.32545 0
M  V30 2988 N 311.879 -1.3236 -0.855495 0
M  V30 2989 C 313.104 -1.2601 -1.64731 0
M  V30 2990 C 313.529 0.169068 -1.87339 0
M  V30 2991 O 312.887 1.12016 -1.42556 0
M  V30 2992 C 312.935 -2.02417 -2.98429 0
M  V30 2993 O 312.039 -1.3714 -3.8893 0
M  V30 2994 H 311.38 -0.434325 -0.502253 0
M  V30 2995 H 313.91 -1.74661 -1.06558 0
M  V30 2996 H 313.92 -2.12559 -3.48257 0
M  V30 2997 H 312.595 -3.06343 -2.81295 0
M  V30 2998 H 311.172 -1.3554 -3.47395 0
M  V30 2999 N 313.357 1.07166 -1.15556 0
M  V30 3000 C 314.32 2.12589 -0.856644 0
M  V30 3001 C 315.32 1.6015 0.14444 0
M  V30 3002 O 316.51 1.7399 -0.0854163 0
M  V30 3003 C 313.642 3.39753 -0.279405 0
M  V30 3004 H 314.835 2.40539 -1.79112 0
M  V30 3005 H 312.388 1.23086 -0.963298 0
M  V30 3006 H 313.123 3.17447 0.663174 0
M  V30 3007 H 312.908 3.79117 -1.00063 0
M  V30 3008 H 314.398 4.17507 -0.0879113 0
M  V30 3009 N 314.835 0.952656 1.25548 0
M  V30 3010 C 315.798 0.475794 2.24207 0
M  V30 3011 C 316.798 -0.419428 1.55234 0
M  V30 3012 O 317.988 -0.216994 1.72843 0
M  V30 3013 C 315.12 -0.312814 3.39462 0
M  V30 3014 H 316.313 1.34779 2.67908 0
M  V30 3015 H 313.866 0.735739 1.37901 0
M  V30 3016 H 314.601 -1.20257 3.01179 0
M  V30 3017 H 314.386 0.329404 3.90714 0
M  V30 3018 H 315.876 -0.635986 4.12729 0
M  V30 3019 N 316.313 -1.40141 0.720998 0
M  V30 3020 C 317.276 -2.29058 0.0805834 0
M  V30 3021 C 318.276 -1.45632 -0.681758 0
M  V30 3022 O 319.466 -1.6648 -0.512856 0
M  V30 3023 C 316.598 -3.28925 -0.895593 0
M  V30 3024 H 317.791 -2.87191 0.863793 0
M  V30 3025 H 315.344 -1.48553 0.485975 0
M  V30 3026 H 316.079 -2.75822 -1.70566 0
M  V30 3027 H 315.864 -3.90519 -0.351766 0
M  V30 3028 H 317.354 -3.95494 -1.34069 0
M  V30 3029 N 317.792 -0.46758 -1.50504 0
M  V30 3030 C 319.039 0.0886219 -2.02306 0
M  V30 3031 C 319.367 1.40037 -1.34981 0
M  V30 3032 O 318.622 1.90136 -0.463318 0
M  V30 3033 C 318.921 0.323995 -3.55928 0
M  V30 3034 C 318.587 -0.905618 -4.41712 0
M  V30 3035 C 317.249 -1.24275 -4.64875 0
M  V30 3036 C 319.601 -1.72448 -4.91845 0
M  V30 3037 C 316.929 -2.39888 -5.35417 0
M  V30 3038 C 319.281 -2.87185 -5.63656 0
M  V30 3039 C 317.945 -3.21317 -5.85074 0
M  V30 3040 H 317.215 0.0324291 -0.74029 0
M  V30 3041 H 319.862 -0.620945 -1.81153 0
M  V30 3042 H 318.167 1.11577 -3.75577 0
M  V30 3043 H 319.864 0.76826 -3.93572 0
M  V30 3044 H 316.454 -0.632956 -4.239 0
M  V30 3045 H 320.638 -1.4772 -4.73806 0
M  V30 3046 H 315.894 -2.66611 -5.50208 0
M  V30 3047 H 320.068 -3.50985 -6.01484 0
M  V30 3048 H 317.695 -4.1101 -6.39511 0
M  V30 3049 N 319.27 1.56325 -0.20005 0
M  V30 3050 C 320.547 1.89484 0.48529 0
M  V30 3051 C 320.927 1.1143 1.79294 0
M  V30 3052 O 320.275 0.216919 2.27468 0
M  V30 3053 C 320.485 3.41923 0.699243 0
M  V30 3054 C 321.833 4.12256 1.01638 0
M  V30 3055 O 322.857 3.47402 0.786792 0
M  V30 3056 O 321.716 5.26887 1.45095 0
M  V30 3057 H 318.81 0.787144 0.253639 0
M  V30 3058 H 321.356 1.67985 -0.240633 0
M  V30 3059 H 320.128 3.90658 -0.224008 0
M  V30 3060 H 319.751 3.69131 1.47744 0
M  V30 3061 N 320.748 -0.0735177 1.57428 0
M  V30 3062 C 322.164 -0.428264 1.53747 0
M  V30 3063 C 322.364 -1.79272 0.91998 0
M  V30 3064 O 321.42 -2.47051 0.521745 0
M  V30 3065 C 322.733 -0.370914 2.98404 0
M  V30 3066 C 324.281 -0.451224 3.0973 0
M  V30 3067 C 324.756 -0.4238 4.56035 0
M  V30 3068 N 326.247 -0.483925 4.60665 0
M  V30 3069 C 326.982 -0.484891 5.71346 0
M  V30 3070 N 326.478 -0.440775 6.91396 0
M  V30 3071 N 328.271 -0.531319 5.59583 0
M  V30 3072 H 320.422 0.819949 1.95935 0
M  V30 3073 H 322.685 0.307493 0.896745 0
M  V30 3074 H 322.391 0.564956 3.47133 0
M  V30 3075 H 322.265 -1.18176 3.5821 0
M  V30 3076 H 324.652 -1.37752 2.60976 0
M  V30 3077 H 324.733 0.388167 2.52838 0
M  V30 3078 H 324.377 0.498638 5.05446 0
M  V30 3079 H 324.307 -1.2807 5.10789 0
M  V30 3080 H 326.798 -0.522338 3.74273 0
M  V30 3081 H 327.111 -0.44539 7.71515 0
M  V30 3082 H 325.456 -0.40749 6.93804 0
M  V30 3083 H 328.647 -0.563464 4.64696 0
M  V30 3084 H 328.82 -0.528603 6.4584 0
M  V30 3085 N 322.226 -1.5378 -0.344866 0
M  V30 3086 C 323.174 -1.82373 -1.4437 0
M  V30 3087 C 324.168 -0.694128 -1.54526 0
M  V30 3088 O 325.374 -0.877442 -1.57165 0
M  V30 3089 H 321.749 -0.577765 -0.481344 0
M  V30 3090 H 323.72 -2.74306 -1.17468 0
M  V30 3091 C 322.469 -2.04898 -2.80913 0
M  V30 3092 H 321.792 -2.9127 -2.73865 0
M  V30 3093 H 323.232 -2.28871 -3.56923 0
M  V30 3094 C 321.691 -0.834116 -3.26411 0
M  V30 3095 O 322.221 -0.0328885 -4.01687 0
M  V30 3096 N 320.427 -0.65171 -2.83198 0
M  V30 3097 H 319.974 -1.30489 -2.22104 0
M  V30 3098 H 319.932 0.159686 -3.13994 0
M  V30 3099 N 323.704 0.605807 -1.45491 0
M  V30 3100 C 324.95 1.36481 -1.50813 0
M  V30 3101 C 325.305 1.91826 -0.148469 0
M  V30 3102 O 324.598 1.72211 0.839869 0
M  V30 3103 C 324.792 2.53012 -2.52428 0
M  V30 3104 C 324.621 2.09078 -3.98141 0
M  V30 3105 C 323.391 1.95167 -4.66088 0
M  V30 3106 C 325.589 1.66438 -4.86624 0
M  V30 3107 N 323.571 1.45062 -5.96515 0
M  V30 3108 C 324.942 1.27761 -6.06694 0
M  V30 3109 C 326.997 1.54046 -4.7347 0
M  V30 3110 C 325.7 0.779286 -7.15066 0
M  V30 3111 C 327.726 1.05618 -5.81892 0
M  V30 3112 C 327.088 0.67906 -7.01119 0
M  V30 3113 H 323.187 0.493267 -0.606805 0
M  V30 3114 H 325.771 0.692347 -1.81974 0
M  V30 3115 H 323.942 3.17851 -2.23215 0
M  V30 3116 H 325.674 3.19897 -2.47887 0
M  V30 3117 H 322.429 2.16407 -4.21266 0
M  V30 3118 H 322.853 1.22237 -6.65873 0
M  V30 3119 H 327.495 1.81827 -3.81705 0
M  V30 3120 H 325.213 0.489026 -8.06619 0
M  V30 3121 H 328.799 0.964529 -5.73749 0
M  V30 3122 H 327.679 0.310091 -7.83587 0
M  V30 3123 N 325.182 1.32811 0.848464 0
M  V30 3124 C 326.428 1.23907 1.60546 0
M  V30 3125 C 326.761 -0.197161 1.93197 0
M  V30 3126 O 326.036 -1.13596 1.5788 0
M  V30 3127 C 326.319 2.10489 2.92175 0
M  V30 3128 C 326.172 3.62522 2.66266 0
M  V30 3129 C 327.491 1.97075 3.93509 0
M  V30 3130 H 324.61 0.451459 0.58254 0
M  V30 3131 H 327.252 1.62818 0.979296 0
M  V30 3132 H 325.402 1.77434 3.45614 0
M  V30 3133 H 327.074 4.05821 2.19334 0
M  V30 3134 H 325.317 3.84879 2.00126 0
M  V30 3135 H 325.988 4.18437 3.6002 0
M  V30 3136 H 328.464 2.26045 3.49346 0
M  V30 3137 H 327.34 2.59923 4.83457 0
M  V30 3138 H 327.601 0.940186 4.31987 0
M  V30 3139 N 326.66 -1.06551 1.16123 0
M  V30 3140 C 327.623 -2.12132 0.867906 0
M  V30 3141 C 328.623 -1.60224 -0.135944 0
M  V30 3142 O 329.813 -1.73943 0.0946422 0
M  V30 3143 C 326.945 -3.396 0.297419 0
M  V30 3144 H 328.138 -2.39586 1.80385 0
M  V30 3145 H 325.691 -1.22574 0.969812 0
M  V30 3146 H 326.426 -3.17794 -0.64633 0
M  V30 3147 H 326.211 -3.78581 1.02073 0
M  V30 3148 H 327.701 -4.17455 0.110052 0
M  V30 3149 N 328.138 -0.959301 -1.25041 0
M  V30 3150 C 329.386 -0.615393 -1.92503 0
M  V30 3151 C 329.707 0.850969 -1.75452 0
M  V30 3152 O 328.977 1.60658 -1.12098 0
M  V30 3153 H 327.557 -0.224613 -0.712431 0
M  V30 3154 H 330.219 -1.21855 -1.5211 0
M  V30 3155 H 329.315 -0.848738 -3.00338 0
M  V30 3156 N 329.616 1.39756 -0.72842 0
M  V30 3157 C 330.546 2.33289 -0.0991354 0
M  V30 3158 C 331.527 1.53568 0.731489 0
M  V30 3159 O 332.712 1.81987 0.677807 0
M  V30 3160 C 329.842 3.3763 0.813834 0
M  V30 3161 C 328.796 4.2791 0.0878663 0
M  V30 3162 C 328.122 5.22894 1.11741 0
M  V30 3163 C 329.422 5.11314 -1.06563 0
M  V30 3164 H 331.116 2.86163 -0.880408 0
M  V30 3165 H 328.662 1.37591 -0.424819 0
M  V30 3166 H 330.615 4.0201 1.26355 0
M  V30 3167 H 329.339 2.83181 1.62715 0
M  V30 3168 H 327.998 3.65 -0.342159 0
M  V30 3169 H 327.646 4.64744 1.92412 0
M  V30 3170 H 327.346 5.84143 0.636477 0
M  V30 3171 H 328.87 5.90151 1.56697 0
M  V30 3172 H 330.284 5.69076 -0.694671 0
M  V30 3173 H 328.681 5.81671 -1.47577 0
M  V30 3174 H 329.751 4.46534 -1.89038 0
M  V30 3175 N 331.094 0.475555 1.50254 0
M  V30 3176 C 332.34 -0.0780073 2.0265 0
M  V30 3177 C 332.673 -1.38968 1.35652 0
M  V30 3178 O 331.948 -1.8839 0.483691 0
M  V30 3179 C 332.231 -0.257161 3.59181 0
M  V30 3180 C 332.084 1.07585 4.36744 0
M  V30 3181 C 333.403 -1.00965 4.28362 0
M  V30 3182 H 330.522 -0.0268758 0.73651 0
M  V30 3183 H 333.164 0.622015 1.7953 0
M  V30 3184 H 331.314 -0.853412 3.79011 0
M  V30 3185 H 332.986 1.70902 4.28474 0
M  V30 3186 H 331.229 1.6714 4.00308 0
M  V30 3187 H 331.9 0.904088 5.44546 0
M  V30 3188 H 334.376 -0.504214 4.13034 0
M  V30 3189 H 333.252 -1.10381 5.37687 0
M  V30 3190 H 333.513 -2.04731 3.91839 0
M  V30 3191 N 332.573 -1.56217 0.208337 0
M  V30 3192 C 333.821 -1.97558 -0.426076 0
M  V30 3193 C 334.142 -1.09683 -1.61229 0
M  V30 3194 O 333.412 -0.170956 -1.95153 0
M  V30 3195 H 331.992 -0.729575 -0.160405 0
M  V30 3196 H 334.654 -1.92606 0.298155 0
M  V30 3197 H 333.75 -3.02672 -0.761312 0
M  V30 3198 O 334.09 -0.071647 -1.61341 0
M  V30 3199 H 334.781 0.534597 -1.86177 0
M  V30 END ATOM
M  V30 BEGIN BOND
M  V30 END BOND
M  V30 END CTAB
M  END
$$$$
