drugbank_target|O43766 Lipoyl synthase, mitochondrial (DB00166)
 OpenBabel12092120093D

  0  0  0     0  0            999 V3000
M  V30 BEGIN CTAB
M  V30 COUNTS 5903 5964 0 0 0
M  V30 BEGIN ATOM
M  V30 1 H -0.908 1.98254 -0.117106 0
M  V30 2 N 0 1.576 0 0
M  V30 3 C 0.933 2.03868 1.02534 0
M  V30 4 C 1.911 0.928543 1.3348 0
M  V30 5 O 3.095 1.19667 1.45644 0
M  V30 6 C 0.222 2.43627 2.35294 0
M  V30 7 C -0.732 3.65373 2.2001 0
M  V30 8 S 0.101 5.13292 1.52614 0
M  V30 9 C 1.257 5.56322 2.86805 0
M  V30 10 H 1.49 2.90518 0.631377 0
M  V30 11 H -0.977 1.52953 0.210867 0
M  V30 12 H 0.981 2.67203 3.11629 0
M  V30 13 H -0.358 1.57376 2.7183 0
M  V30 14 H -1.165 3.90944 3.18086 0
M  V30 15 H -1.563 3.418 1.51819 0
M  V30 16 H 0.729 5.58782 3.83104 0
M  V30 17 H 1.672 6.56266 2.65933 0
M  V30 18 H 2.08 4.83886 2.90714 0
M  V30 19 N 1.4781 -0.272755 1.55222 0
M  V30 20 C 2.7031 -1.02683 1.80197 0
M  V30 21 C 3.1281 -1.79142 0.573551 0
M  V30 22 O 2.4861 -1.74917 -0.476849 0
M  V30 23 C 2.5341 -1.9609 3.02624 0
M  V30 24 O 1.6381 -3.04863 2.77727 0
M  V30 25 H 0.9791 -0.293557 0.595584 0
M  V30 26 H 3.5091 -0.30159 2.02365 0
M  V30 27 H 3.5191 -2.38039 3.31363 0
M  V30 28 H 2.1941 -1.39851 3.91682 0
M  V30 29 H 0.7711 -2.67228 2.60084 0
M  V30 30 N 2.9562 -1.48159 -0.537278 0
M  V30 31 C 3.8862 -1.65029 -1.6519 0
M  V30 32 C 4.8672 -0.499281 -1.62607 0
M  V30 33 O 6.0522 -0.730972 -1.79918 0
M  V30 34 C 3.1822 -1.68303 -3.03795 0
M  V30 35 C 2.1362 -2.8283 -3.21234 0
M  V30 36 C 1.4622 -2.71189 -4.60826 0
M  V30 37 C 2.7622 -4.24211 -3.04701 0
M  V30 38 H 4.4562 -2.58341 -1.51328 0
M  V30 39 H 2.0022 -1.24325 -0.726585 0
M  V30 40 H 3.9552 -1.78693 -3.81637 0
M  V30 41 H 2.6792 -0.715635 -3.18663 0
M  V30 42 H 1.3382 -2.71983 -2.45807 0
M  V30 43 H 0.9862 -1.72435 -4.7252 0
M  V30 44 H 0.6862 -3.48035 -4.7344 0
M  V30 45 H 2.2102 -2.83537 -5.40777 0
M  V30 46 H 3.6242 -4.3593 -3.72341 0
M  V30 47 H 2.0212 -5.01998 -3.28813 0
M  V30 48 H 3.0912 -4.41184 -2.01209 0
M  V30 49 N 4.4343 0.785586 -1.36625 0
M  V30 50 C 5.8503 1.08419 -1.17122 0
M  V30 51 C 6.0503 2.015 0.00208491 0
M  V30 52 O 5.1063 2.43551 0.666278 0
M  V30 53 C 6.4193 1.69498 -2.48377 0
M  V30 54 C 7.9673 1.81821 -2.54775 0
M  V30 55 C 8.4423 2.46315 -3.86126 0
M  V30 56 N 9.9333 2.53779 -3.87492 0
M  V30 57 C 10.6683 3.045 -4.85868 0
M  V30 58 N 10.1643 3.55499 -5.94637 0
M  V30 59 N 11.9573 3.03247 -4.73284 0
M  V30 60 H 4.1083 0.167264 -2.1174 0
M  V30 61 H 6.3713 0.13682 -0.938075 0
M  V30 62 H 6.0773 1.08571 -3.34522 0
M  V30 63 H 5.9513 2.6896 -2.64462 0
M  V30 64 H 8.3383 2.41884 -1.69045 0
M  V30 65 H 8.4193 0.811532 -2.42586 0
M  V30 66 H 8.0633 1.86895 -4.72263 0
M  V30 67 H 7.9933 3.47561 -3.95612 0
M  V30 68 H 10.4843 2.17672 -3.08913 0
M  V30 69 H 10.7973 3.92562 -6.65669 0
M  V30 70 H 9.1423 3.5364 -5.98301 0
M  V30 71 H 12.3333 2.62696 -3.87438 0
M  V30 72 H 12.5063 3.42467 -5.50109 0
M  V30 73 N 5.9124 1.20967 1.01018 0
M  V30 74 C 7.1524 1.03511 1.76252 0
M  V30 75 C 7.5164 -0.42458 1.87247 0
M  V30 76 O 8.7174 -0.719508 2.58991 0
M  V30 77 C 6.9884 1.70726 3.13986 0
M  V30 78 S 8.5474 1.68458 4.05176 0
M  V30 79 H 5.3654 0.371037 0.606508 0
M  V30 80 H 7.9674 1.53628 1.20908 0
M  V30 81 H 6.6714 2.76128 3.03614 0
M  V30 82 H 6.2024 1.20767 3.74405 0
M  V30 83 H 8.2174 0.721987 4.90919 0
M  V30 84 N 7.3905 -1.2043 1.01659 0
M  V30 85 C 8.6385 -1.89423 0.704522 0
M  V30 86 C 8.9595 -1.79231 -0.768197 0
M  V30 87 O 8.2295 -1.1947 -1.55254 0
M  V30 88 H 6.8095 -0.701178 0.257602 0
M  V30 89 H 9.4715 -1.4626 1.28818 0
M  V30 90 H 8.5675 -2.96052 0.987916 0
M  V30 91 N 8.8686 -0.792821 -1.36206 0
M  V30 92 C 10.1456 -0.290627 -1.93429 0
M  V30 93 C 10.5256 1.21773 -1.72437 0
M  V30 94 O 9.8736 2.0108 -1.08531 0
M  V30 95 C 10.0836 -0.686973 -3.42172 0
M  V30 96 C 11.4316 -0.668643 -4.19302 0
M  V30 97 O 12.4556 -0.627658 -3.50626 0
M  V30 98 O 11.3146 -0.714597 -5.41808 0
M  V30 99 H 8.4086 -0.0727927 -0.82379 0
M  V30 100 H 10.9546 -0.875593 -1.45367 0
M  V30 101 H 9.7266 -1.72711 -3.51122 0
M  V30 102 H 9.3496 -0.0760733 -3.97527 0
M  V30 103 N 10.3467 1.47872 -0.545128 0
M  V30 104 C 11.3097 2.28337 0.198717 0
M  V30 105 C 12.3097 1.36255 0.853888 0
M  V30 106 O 13.4997 1.59003 0.711606 0
M  V30 107 C 10.6317 3.15585 1.28915 0
M  V30 108 H 11.8247 2.95567 -0.507941 0
M  V30 109 H 9.3777 1.53362 -0.301616 0
M  V30 110 H 10.1127 2.53019 2.02859 0
M  V30 111 H 9.8977 3.83337 0.824309 0
M  V30 112 H 11.3877 3.76243 1.81194 0
M  V30 113 N 11.8248 0.280983 1.55075 0
M  V30 114 C 12.7878 -0.590896 2.21452 0
M  V30 115 C 13.7878 -1.07682 1.19421 0
M  V30 116 O 14.9778 -0.97605 1.44288 0
M  V30 117 C 12.1098 -1.81587 2.88511 0
M  V30 118 H 13.3028 -0.0112554 2.99898 0
M  V30 119 H 10.8558 0.0316438 1.56268 0
M  V30 120 H 11.5908 -2.43587 2.14093 0
M  V30 121 H 11.3758 -1.4753 3.63287 0
M  V30 122 H 12.8658 -2.43575 3.39206 0
M  V30 123 N 13.3029 -1.57598 0.00835791 0
M  V30 124 C 14.7189 -1.55764 -0.347822 0
M  V30 125 C 14.9189 -1.01186 -1.74252 0
M  V30 126 O 13.9749 -0.649371 -2.44007 0
M  V30 127 C 15.2879 -2.99927 -0.215407 0
M  V30 128 C 16.8359 -3.11656 -0.289725 0
M  V30 129 C 17.3109 -4.57621 -0.18634 0
M  V30 130 N 18.8019 -4.62557 -0.243978 0
M  V30 131 C 19.5369 -5.73094 -0.18745 0
M  V30 132 N 19.0329 -6.92753 -0.0810331 0
M  V30 133 N 20.8259 -5.61588 -0.239925 0
M  V30 134 H 12.9769 -1.91411 0.92062 0
M  V30 135 H 15.2399 -0.879562 0.353659 0
M  V30 136 H 14.9459 -3.43729 0.744512 0
M  V30 137 H 14.8199 -3.63865 -0.994097 0
M  V30 138 H 17.2069 -2.67779 -1.24009 0
M  V30 139 H 17.2879 -2.5048 0.51898 0
M  V30 140 H 16.9319 -5.02174 0.760519 0
M  V30 141 H 16.8619 -5.16752 -1.01364 0
M  V30 142 H 19.3529 -3.76481 -0.327217 0
M  V30 143 H 19.6659 -7.72787 -0.0440241 0
M  V30 144 H 18.0109 -6.94984 -0.0465419 0
M  V30 145 H 21.2019 -4.66996 -0.321317 0
M  V30 146 H 21.3749 -6.47714 -0.192407 0
M  V30 147 N 14.781 0.264519 -1.55364 0
M  V30 148 C 16.009 1.013 -1.80405 0
M  V30 149 C 16.424 1.79618 -0.581622 0
M  V30 150 O 15.781 1.76879 0.449468 0
M  V30 151 C 15.832 1.96487 -3.03439 0
M  V30 152 O 15.553 1.21341 -4.20961 0
M  V30 153 C 17.054 2.83079 -3.41147 0
M  V30 154 H 14.274 0.298875 -0.600762 0
M  V30 155 H 16.818 0.292736 -2.02394 0
M  V30 156 H 14.973 2.63965 -2.83551 0
M  V30 157 H 15.387 1.85573 -4.90574 0
M  V30 158 H 16.861 3.4565 -4.30384 0
M  V30 159 H 17.338 3.53286 -2.60932 0
M  V30 160 H 17.944 2.2108 -3.63323 0
M  V30 161 N 16.2591 1.48442 0.529413 0
M  V30 162 C 17.1891 1.65902 1.64313 0
M  V30 163 C 18.1701 0.507897 1.6234 0
M  V30 164 O 19.3551 0.740503 1.79528 0
M  V30 165 C 16.4851 1.69911 3.02898 0
M  V30 166 C 15.4391 2.8453 3.19729 0
M  V30 167 C 14.7651 2.73629 4.59381 0
M  V30 168 C 16.0651 4.25821 3.02447 0
M  V30 169 H 17.7591 2.5914 1.49955 0
M  V30 170 H 15.3051 1.24709 0.719982 0
M  V30 171 H 17.2581 1.80715 3.80684 0
M  V30 172 H 15.9821 0.732524 3.18279 0
M  V30 173 H 14.6411 2.73283 2.44361 0
M  V30 174 H 14.2891 1.74938 4.71599 0
M  V30 175 H 13.9891 3.50541 4.71588 0
M  V30 176 H 15.5131 2.86401 5.39265 0
M  V30 177 H 16.9271 4.37898 3.70024 0
M  V30 178 H 15.3241 5.03735 3.26146 0
M  V30 179 H 16.3941 4.42244 1.98867 0
M  V30 180 N 17.7372 -0.778329 1.37039 0
M  V30 181 C 18.9852 -1.53361 1.31623 0
M  V30 182 C 19.3062 -1.94739 -0.100831 0
M  V30 183 O 18.5762 -1.65797 -1.04347 0
M  V30 184 H 17.1562 -0.568794 0.484234 0
M  V30 185 H 19.8182 -0.926742 1.71457 0
M  V30 186 H 18.9142 -2.43606 1.95096 0
M  V30 187 N 19.2153 -1.21501 -1.00376 0
M  V30 188 C 20.6263 -1.03146 -1.55621 0
M  V30 189 C 20.9773 0.408375 -1.91903 0
M  V30 190 O 20.1023 1.29177 -1.73616 0
M  V30 191 C 20.6973 -1.86612 -2.82775 0
M  V30 192 C 19.2563 -1.72586 -3.34501 0
M  V30 193 C 18.4033 -1.83747 -2.07683 0
M  V30 194 H 21.3543 -1.35505 -0.826081 0
M  V30 195 H 21.3753 -1.3771 -3.54706 0
M  V30 196 H 20.8873 -2.91399 -2.56336 0
M  V30 197 H 18.9883 -0.704877 -3.65872 0
M  V30 198 H 19.1013 -2.54623 -4.05837 0
M  V30 199 H 17.4653 -1.27069 -2.20739 0
M  V30 200 H 18.2483 -2.90044 -1.83655 0
M  V30 201 N 20.6934 1.19889 -1.02296 0
M  V30 202 C 22.1094 1.41462 -0.738954 0
M  V30 203 C 22.3094 1.89721 0.678846 0
M  V30 204 O 21.3654 2.07016 1.4457 0
M  V30 205 C 22.6784 2.43083 -1.77005 0
M  V30 206 C 24.2264 2.5684 -1.78892 0
M  V30 207 C 24.7014 3.61709 -2.80945 0
M  V30 208 N 26.1924 3.69199 -2.79725 0
M  V30 209 C 26.9274 4.50019 -3.55345 0
M  V30 210 N 26.4234 5.34592 -4.40662 0
M  V30 211 N 28.2164 4.44612 -3.43914 0
M  V30 212 H 20.3674 0.868827 -1.93817 0
M  V30 213 H 22.6304 0.44399 -0.837602 0
M  V30 214 H 22.3364 2.14636 -2.78612 0
M  V30 215 H 22.2104 3.4217 -1.58744 0
M  V30 216 H 24.5974 2.84614 -0.779674 0
M  V30 217 H 24.6784 1.57927 -2.01228 0
M  V30 218 H 24.3224 3.34678 -3.82038 0
M  V30 219 H 24.2524 4.60259 -2.5587 0
M  V30 220 H 26.7434 3.08794 -2.17842 0
M  V30 221 H 27.0564 5.93363 -4.95116 0
M  V30 222 H 25.4014 5.34073 -4.44737 0
M  V30 223 H 28.5924 3.7758 -2.76679 0
M  V30 224 H 28.7654 5.0736 -4.031 0
M  V30 225 N 22.1715 0.800033 1.35784 0
M  V30 226 C 23.4175 0.377901 1.99248 0
M  V30 227 C 23.7505 -1.05052 1.63333 0
M  V30 228 O 23.0255 -1.72768 0.893385 0
M  V30 229 C 23.3085 0.553922 3.55814 0
M  V30 230 C 23.1615 2.0268 4.01548 0
M  V30 231 C 24.4805 -0.0244802 4.40093 0
M  V30 232 H 21.5995 0.138782 0.723815 0
M  V30 233 H 24.2415 1.00835 1.61035 0
M  V30 234 H 22.3915 0.0172398 3.88496 0
M  V30 235 H 24.0635 2.62536 3.79305 0
M  V30 236 H 22.3065 2.5256 3.52698 0
M  V30 237 H 22.9775 2.10087 5.10458 0
M  V30 238 H 25.4535 0.433775 4.13833 0
M  V30 239 H 24.3295 0.128637 5.48749 0
M  V30 240 H 24.5905 -1.11758 4.27741 0
M  V30 241 N 23.6496 -1.47581 0.552962 0
M  V30 242 C 24.8966 -2.02482 0.0273243 0
M  V30 243 C 25.2246 -1.42776 -1.32081 0
M  V30 244 O 24.4796 -0.571393 -1.87173 0
M  V30 245 C 24.7786 -3.57199 -0.119728 0
M  V30 246 C 24.4446 -4.35804 1.15697 0
M  V30 247 C 23.1066 -4.57 1.50681 0
M  V30 248 C 25.4586 -4.81167 2.00319 0
M  V30 249 C 22.7866 -5.20807 2.70142 0
M  V30 250 C 25.1386 -5.46293 3.18978 0
M  V30 251 C 23.8026 -5.65722 3.54281 0
M  V30 252 H 23.0726 -0.740933 0.00999866 0
M  V30 253 H 25.7196 -1.77302 0.72362 0
M  V30 254 H 24.0246 -3.81348 -0.89896 0
M  V30 255 H 25.7216 -3.97324 -0.541718 0
M  V30 256 H 22.3116 -4.19582 0.874561 0
M  V30 257 H 26.4956 -4.64574 1.74599 0
M  V30 258 H 21.7516 -5.34045 2.97668 0
M  V30 259 H 25.9256 -5.80407 3.84838 0
M  V30 260 H 23.5526 -6.14936 4.46942 0
M  V30 261 N 25.1277 -0.289203 -1.54924 0
M  V30 262 C 26.3757 0.322879 -1.99504 0
M  V30 263 C 26.6967 1.55313 -1.1791 0
M  V30 264 O 25.9667 1.94001 -0.272097 0
M  V30 265 H 24.5467 0.122291 -0.736922 0
M  V30 266 H 27.2087 -0.397802 -1.90797 0
M  V30 267 H 26.3047 0.603061 -3.06218 0
M  V30 268 N 26.6058 1.57591 -0.0167156 0
M  V30 269 C 28.0218 1.55946 0.339557 0
M  V30 270 C 28.2218 1.02109 1.73713 0
M  V30 271 O 27.2778 0.662303 2.43659 0
M  V30 272 C 28.5908 3.00037 0.199499 0
M  V30 273 C 30.1388 3.11805 0.273193 0
M  V30 274 C 30.6138 4.57713 0.162068 0
M  V30 275 N 32.1048 4.6268 0.219444 0
M  V30 276 C 32.8398 5.73185 0.157054 0
M  V30 277 N 32.3358 6.92786 0.0442936 0
M  V30 278 N 34.1288 5.61707 0.21014 0
M  V30 279 H 26.2798 1.90921 -0.930758 0
M  V30 280 H 28.5428 0.877674 -0.358319 0
M  V30 281 H 28.2488 3.4333 -0.76273 0
M  V30 282 H 28.1228 3.64387 0.974786 0
M  V30 283 H 30.5098 2.68433 1.22587 0
M  V30 284 H 30.5908 2.50201 -0.532256 0
M  V30 285 H 30.2348 5.01763 -0.78714 0
M  V30 286 H 30.1648 5.17283 0.986222 0
M  V30 287 H 32.6558 3.76649 0.307246 0
M  V30 288 H 32.9688 7.728 0.00304069 0
M  V30 289 H 31.3138 6.94999 0.00968457 0
M  V30 290 H 34.5048 4.6716 0.296546 0
M  V30 291 H 34.6778 6.47807 0.158054 0
M  V30 292 N 28.0839 -0.256276 1.55502 0
M  V30 293 C 29.3139 -1.00196 1.80677 0
M  V30 294 C 29.7219 -1.79805 0.588797 0
M  V30 295 O 29.0649 -1.78055 -0.451883 0
M  V30 296 C 29.1269 -1.99515 2.99055 0
M  V30 297 C 28.7909 -1.38688 4.35448 0
M  V30 298 C 29.7879 -0.794079 5.138 0
M  V30 299 C 27.4729 -1.40906 4.82132 0
M  V30 300 C 29.4669 -0.231562 6.36979 0
M  V30 301 C 27.1539 -0.842684 6.05262 0
M  V30 302 C 28.1519 -0.254953 6.82524 0
M  V30 303 O 27.8399 0.3027 8.0333 0
M  V30 304 H 27.5719 -0.300919 0.60533 0
M  V30 305 H 30.1259 -0.287307 2.03381 0
M  V30 306 H 28.3559 -2.74785 2.72084 0
M  V30 307 H 30.0449 -2.60349 3.11405 0
M  V30 308 H 30.8109 -0.769519 4.78856 0
M  V30 309 H 26.6899 -1.85591 4.21992 0
M  V30 310 H 30.2339 0.227816 6.97228 0
M  V30 311 H 26.1309 -0.86454 6.39684 0
M  V30 312 H 26.8989 0.193662 8.18271 0
M  V30 313 N 29.562 -1.4872 -0.521534 0
M  V30 314 C 30.809 -1.57168 -1.27689 0
M  V30 315 C 31.137 -0.249275 -1.92896 0
M  V30 316 O 30.392 0.761162 -1.80291 0
M  V30 317 C 30.691 -2.66497 -2.38148 0
M  V30 318 C 30.357 -4.08664 -1.90538 0
M  V30 319 C 29.019 -4.47357 -1.77271 0
M  V30 320 C 31.371 -4.97724 -1.54663 0
M  V30 321 C 28.699 -5.72905 -1.26478 0
M  V30 322 C 31.051 -6.2377 -1.05329 0
M  V30 323 C 29.715 -6.61311 -0.906861 0
M  V30 324 H 28.985 -0.575117 -0.467249 0
M  V30 325 H 31.632 -1.82472 -0.581051 0
M  V30 326 H 29.937 -2.35085 -3.13437 0
M  V30 327 H 31.634 -2.70246 -2.96257 0
M  V30 328 H 28.224 -3.78111 -2.01816 0
M  V30 329 H 32.408 -4.68501 -1.63768 0
M  V30 330 H 27.664 -6.00709 -1.13835 0
M  V30 331 H 31.838 -6.9217 -0.76644 0
M  V30 332 H 29.465 -7.5848 -0.511083 0
M  V30 333 N 31.0401 0.771051 -1.3745 0
M  V30 334 C 32.2801 1.54264 -1.34096 0
M  V30 335 C 32.6441 1.91858 0.0737639 0
M  V30 336 O 33.8451 2.67797 0.23203 0
M  V30 337 C 32.1161 2.77326 -2.25445 0
M  V30 338 S 33.6751 3.67383 -2.39948 0
M  V30 339 H 30.4931 0.528122 -0.476034 0
M  V30 340 H 33.0951 0.906633 -1.73206 0
M  V30 341 H 31.7991 2.47788 -3.27153 0
M  V30 342 H 31.3301 3.45886 -1.87421 0
M  V30 343 H 33.3451 4.69334 -1.61059 0
M  V30 344 N 32.5182 1.22032 0.997298 0
M  V30 345 C 33.7432 1.06921 1.77715 0
M  V30 346 C 34.1682 -0.376226 1.84299 0
M  V30 347 O 33.5262 -1.27165 1.29223 0
M  V30 348 C 33.5742 1.67996 3.19076 0
M  V30 349 O 32.6782 0.930653 4.01762 0
M  V30 350 H 32.0192 0.375814 0.547412 0
M  V30 351 H 34.5492 1.61737 1.25309 0
M  V30 352 H 34.5592 1.72538 3.69723 0
M  V30 353 H 33.2342 2.73182 3.13599 0
M  V30 354 H 31.8112 0.960917 3.60307 0
M  V30 355 N 33.9963 -1.19345 1.0293 0
M  V30 356 C 35.4073 -1.70725 0.755633 0
M  V30 357 C 35.7583 -1.82326 -0.724676 0
M  V30 358 O 34.8833 -1.49471 -1.56484 0
M  V30 359 C 35.4783 -3.10084 1.36503 0
M  V30 360 C 34.0373 -3.58723 1.13994 0
M  V30 361 C 33.1843 -2.35577 1.46283 0
M  V30 362 H 36.1353 -1.0418 1.19718 0
M  V30 363 H 36.1563 -3.72787 0.762217 0
M  V30 364 H 35.6683 -3.01609 2.44241 0
M  V30 365 H 33.7693 -3.72512 0.0807901 0
M  V30 366 H 33.8823 -4.42816 1.82894 0
M  V30 367 H 32.2463 -2.38935 0.88217 0
M  V30 368 H 33.0293 -2.29731 2.55105 0
M  V30 369 N 35.4744 -0.807222 -1.35358 0
M  V30 370 C 36.7204 -0.388463 -1.99045 0
M  V30 371 C 37.0534 1.04184 -1.63888 0
M  V30 372 O 36.3284 1.72292 -0.902535 0
M  V30 373 C 36.6114 -0.572783 -3.55515 0
M  V30 374 C 36.4644 -2.04807 -4.00468 0
M  V30 375 C 37.7834 0.00114064 -4.401 0
M  V30 376 H 34.9024 -0.142619 -0.723069 0
M  V30 377 H 37.5444 -1.01687 -1.60498 0
M  V30 378 H 35.6944 -0.0378425 -3.88482 0
M  V30 379 H 37.3664 -2.64544 -3.77908 0
M  V30 380 H 35.6094 -2.54427 -3.51353 0
M  V30 381 H 36.2804 -2.12792 -5.09337 0
M  V30 382 H 38.7564 -0.455716 -4.13597 0
M  V30 383 H 37.6324 -0.157737 -5.48673 0
M  V30 384 H 37.8934 1.09488 -4.28328 0
M  V30 385 N 36.9525 1.47285 -0.560781 0
M  V30 386 C 38.3685 1.58065 -0.22081 0
M  V30 387 C 38.5685 1.55892 1.27671 0
M  V30 388 O 37.6245 1.46422 2.0571 0
M  V30 389 C 38.9375 2.88418 -0.850625 0
M  V30 390 C 40.4855 3.02009 -0.822184 0
M  V30 391 C 40.9605 4.35066 -1.43113 0
M  V30 392 N 42.4515 4.41711 -1.39448 0
M  V30 393 C 43.1865 5.43237 -1.83525 0
M  V30 394 N 42.6825 6.51555 -2.35474 0
M  V30 395 N 44.4755 5.34304 -1.74574 0
M  V30 396 H 36.6265 1.46941 -1.53369 0
M  V30 397 H 38.8895 0.699558 -0.639783 0
M  V30 398 H 38.5955 2.95755 -1.9032 0
M  V30 399 H 38.4695 3.75612 -0.345773 0
M  V30 400 H 40.8565 2.94266 0.221714 0
M  V30 401 H 40.9375 2.16347 -1.36483 0
M  V30 402 H 40.5815 4.43565 -2.47412 0
M  V30 403 H 40.5115 5.19465 -0.863899 0
M  V30 404 H 43.0025 3.64027 -1.01452 0
M  V30 405 H 43.3155 7.25203 -2.67021 0
M  V30 406 H 41.6605 6.52435 -2.39487 0
M  V30 407 H 44.8515 4.48581 -1.33763 0
M  V30 408 H 45.0245 6.13288 -2.09242 0
M  V30 409 N 38.4306 0.297415 1.54768 0
M  V30 410 C 39.8416 -0.195947 1.85669 0
M  V30 411 C 40.1926 -1.53707 1.21937 0
M  V30 412 O 39.3176 -2.10164 0.515754 0
M  V30 413 C 39.9126 -0.362318 3.36857 0
M  V30 414 C 38.4716 -0.799901 3.67802 0
M  V30 415 C 37.6186 0.0938578 2.77141 0
M  V30 416 H 40.5696 0.518538 1.4999 0
M  V30 417 H 40.5906 -1.19745 3.61167 0
M  V30 418 H 40.1026 0.613921 3.83214 0
M  V30 419 H 38.2036 -1.78682 3.26961 0
M  V30 420 H 38.3166 -0.621773 4.75048 0
M  V30 421 H 36.6806 -0.426254 2.51108 0
M  V30 422 H 37.4636 1.06639 3.26318 0
M  V30 423 N 39.9087 -1.5758 0.0250728 0
M  V30 424 C 40.8387 -2.13007 -0.956575 0
M  V30 425 C 41.8197 -1.0452 -1.342 0
M  V30 426 O 43.0047 -1.32332 -1.42133 0
M  V30 427 C 40.1347 -2.65386 -2.24026 0
M  V30 428 C 39.0887 -3.78623 -1.99571 0
M  V30 429 C 38.4147 -4.17414 -3.3417 0
M  V30 430 C 39.7147 -5.04867 -1.33814 0
M  V30 431 H 41.4087 -2.9528 -0.494991 0
M  V30 432 H 38.9547 -1.42042 -0.236651 0
M  V30 433 H 40.9077 -3.02794 -2.93076 0
M  V30 434 H 39.6317 -1.80268 -2.72343 0
M  V30 435 H 38.2907 -3.41646 -1.32941 0
M  V30 436 H 37.9387 -3.29284 -3.80238 0
M  V30 437 H 37.6387 -4.93719 -3.18615 0
M  V30 438 H 39.1627 -4.57402 -4.04495 0
M  V30 439 H 40.5767 -5.39888 -1.92857 0
M  V30 440 H 38.9737 -5.86144 -1.28669 0
M  V30 441 H 40.0437 -4.83904 -0.310561 0
M  V30 442 N 41.3868 0.248026 -1.55636 0
M  V30 443 C 42.6118 0.998028 -1.81808 0
M  V30 444 C 43.0368 1.78207 -0.601979 0
M  V30 445 O 42.3948 1.75653 0.448961 0
M  V30 446 C 42.4428 1.9125 -3.05705 0
M  V30 447 O 41.5468 3.00406 -2.82542 0
M  V30 448 H 40.8878 0.284045 -0.600179 0
M  V30 449 H 43.4178 0.269357 -2.02819 0
M  V30 450 H 43.4278 2.32737 -3.35108 0
M  V30 451 H 42.1028 1.33602 -3.93857 0
M  V30 452 H 40.6798 2.63056 -2.64303 0
M  V30 453 N 42.8649 1.48995 0.513639 0
M  V30 454 C 44.0899 1.61792 1.29762 0
M  V30 455 C 44.5149 0.284475 1.85936 0
M  V30 456 O 43.8729 -0.746185 1.65232 0
M  V30 457 C 43.9209 2.67993 2.41272 0
M  V30 458 O 43.0249 2.26287 3.44772 0
M  V30 459 H 42.3659 0.541963 0.38363 0
M  V30 460 H 44.8959 1.95097 0.616307 0
M  V30 461 H 44.9059 2.89772 2.87221 0
M  V30 462 H 43.5809 3.64791 1.9975 0
M  V30 463 H 42.1579 2.14788 3.04829 0
M  V30 464 N 44.343 -0.763751 1.37857 0
M  V30 465 C 45.273 -1.89103 1.36975 0
M  V30 466 C 46.254 -1.68439 0.237152 0
M  V30 467 O 47.439 -1.8918 0.438713 0
M  V30 468 C 44.569 -3.26496 1.18395 0
M  V30 469 C 43.523 -3.61741 2.28751 0
M  V30 470 C 42.849 -4.97762 1.95286 0
M  V30 471 C 44.149 -3.67665 3.70972 0
M  V30 472 H 45.843 -1.90099 2.31307 0
M  V30 473 H 43.389 -0.91319 1.11341 0
M  V30 474 H 45.342 -4.05003 1.16406 0
M  V30 475 H 44.066 -3.25955 0.205215 0
M  V30 476 H 42.725 -2.85547 2.29909 0
M  V30 477 H 42.373 -4.93769 0.959221 0
M  V30 478 H 42.073 -5.22313 2.69189 0
M  V30 479 H 43.597 -5.7866 1.94898 0
M  V30 480 H 45.011 -4.36307 3.719 0
M  V30 481 H 43.408 -4.03718 4.43995 0
M  V30 482 H 44.478 -2.68134 4.0402 0
M  V30 483 N 45.8211 -1.22559 -0.990812 0
M  V30 484 C 47.2321 -1.04791 -1.54518 0
M  V30 485 C 47.5831 0.387998 -1.92325 0
M  V30 486 O 46.7081 1.27328 -1.74976 0
M  V30 487 C 47.3031 -1.896 -2.80779 0
M  V30 488 C 45.8621 -1.76124 -3.32652 0
M  V30 489 C 45.0091 -1.8594 -2.05722 0
M  V30 490 H 47.9601 -1.36374 -0.811662 0
M  V30 491 H 47.9811 -1.41464 -3.53225 0
M  V30 492 H 47.4931 -2.94101 -2.53231 0
M  V30 493 H 45.5941 -0.743643 -3.65104 0
M  V30 494 H 45.7071 -2.58913 -4.03114 0
M  V30 495 H 44.0711 -1.29403 -2.19379 0
M  V30 496 H 44.8541 -2.91976 -1.80568 0
M  V30 497 N 47.2992 1.18797 -1.03562 0
M  V30 498 C 48.5762 1.84469 -0.650434 0
M  V30 499 C 48.9562 1.92319 0.870433 0
M  V30 500 O 48.3042 1.44528 1.76986 0
M  V30 501 C 48.5142 3.2306 -1.32036 0
M  V30 502 C 49.8622 3.9915 -1.44792 0
M  V30 503 O 50.8862 3.32481 -1.27806 0
M  V30 504 O 49.7452 5.18587 -1.72423 0
M  V30 505 H 46.8392 0.795251 -0.226946 0
M  V30 506 H 49.3852 1.26231 -1.13419 0
M  V30 507 H 48.1572 3.1222 -2.3587 0
M  V30 508 H 47.7802 3.88949 -0.8249 0
M  V30 509 N 48.7773 0.814389 1.34928 0
M  V30 510 C 49.7243 0.22822 2.29669 0
M  V30 511 C 50.6943 -0.642164 1.53184 0
M  V30 512 O 51.8793 -0.585605 1.81591 0
M  V30 513 C 49.0193 -0.61089 3.3965 0
M  V30 514 C 48.1323 0.280792 4.31086 0
M  V30 515 C 47.2673 -0.567067 5.28165 0
M  V30 516 C 46.3063 0.324531 6.11239 0
M  V30 517 N 45.4433 -0.483756 7.00431 0
M  V30 518 H 50.2833 1.04153 2.79206 0
M  V30 519 H 47.8203 0.525133 1.37407 0
M  V30 520 H 49.7783 -1.11263 4.0209 0
M  V30 521 H 48.4083 -1.38939 2.91369 0
M  V30 522 H 47.4603 0.900688 3.69583 0
M  V30 523 H 48.7723 0.966723 4.89342 0
M  V30 524 H 47.9263 -1.13363 5.96015 0
M  V30 525 H 46.6653 -1.28654 4.70425 0
M  V30 526 H 45.6703 0.903298 5.42329 0
M  V30 527 H 46.8953 1.04198 6.71059 0
M  V30 528 H 44.8413 -1.18706 6.45171 0
M  V30 529 H 44.7583 0.143965 7.55863 0
M  V30 530 H 46.0263 -1.03334 7.7262 0
M  V30 531 N 50.2554 -1.46986 0.568584 0
M  V30 532 C 51.2024 -2.30153 -0.172707 0
M  V30 533 C 52.1724 -1.39759 -0.897586 0
M  V30 534 O 53.3574 -1.68716 -0.891044 0
M  V30 535 C 50.4974 -3.23952 -1.1895 0
M  V30 536 C 49.6104 -4.29441 -0.469517 0
M  V30 537 C 48.7454 -5.1038 -1.47259 0
M  V30 538 C 47.7844 -6.07632 -0.738225 0
M  V30 539 N 46.9214 -6.8149 -1.68868 0
M  V30 540 H 51.7614 -2.93019 0.542596 0
M  V30 541 H 49.2984 -1.44422 0.279401 0
M  V30 542 H 51.2564 -3.76767 -1.79173 0
M  V30 543 H 49.8864 -2.62926 -1.87269 0
M  V30 544 H 48.9384 -3.79594 0.247467 0
M  V30 545 H 50.2504 -4.98689 0.105241 0
M  V30 546 H 49.4044 -5.67402 -2.14803 0
M  V30 547 H 48.1434 -4.4106 -2.08128 0
M  V30 548 H 47.1484 -5.49778 -0.0489293 0
M  V30 549 H 48.3734 -6.78966 -0.135129 0
M  V30 550 H 46.3194 -6.14891 -2.28573 0
M  V30 551 H 46.2364 -7.46948 -1.16636 0
M  V30 552 H 47.5044 -7.43078 -2.3549 0
M  V30 553 N 51.7335 -0.305618 -1.54608 0
M  V30 554 C 52.6805 0.568421 -2.23691 0
M  V30 555 C 53.6505 1.12592 -1.22116 0
M  V30 556 O 54.8355 1.16959 -1.50749 0
M  V30 557 C 51.9755 1.7322 -2.98477 0
M  V30 558 C 51.0885 1.20566 -4.14835 0
M  V30 559 C 50.2235 2.33368 -4.77193 0
M  V30 560 C 49.2625 1.7787 -5.85686 0
M  V30 561 N 48.3995 2.84263 -6.4198 0
M  V30 562 H 53.2395 -0.0272867 -2.97988 0
M  V30 563 H 50.7765 -0.0252363 -1.47078 0
M  V30 564 H 52.7345 2.41675 -3.40072 0
M  V30 565 H 51.3645 2.29947 -2.26548 0
M  V30 566 H 50.4165 0.413223 -3.78149 0
M  V30 567 H 51.7285 0.759417 -4.92985 0
M  V30 568 H 50.8825 3.09761 -5.21664 0
M  V30 569 H 49.6215 2.8132 -3.98385 0
M  V30 570 H 48.6265 0.99968 -5.40635 0
M  V30 571 H 49.8515 1.30816 -6.66381 0
M  V30 572 H 47.7975 3.31541 -5.66053 0
M  V30 573 H 47.7145 2.44149 -7.15491 0
M  V30 574 H 48.9825 3.6054 -6.91109 0
M  V30 575 N 53.2116 1.57565 -0.0334293 0
M  V30 576 C 54.1216 2.13943 0.962572 0
M  V30 577 C 55.1376 1.09276 1.35406 0
M  V30 578 O 56.3136 1.41355 1.4346 0
M  V30 579 C 53.3786 2.65887 2.22497 0
M  V30 580 C 52.4396 3.85286 1.8935 0
M  V30 581 C 51.6726 4.34743 3.09571 0
M  V30 582 O 51.8956 3.83352 4.22371 0
M  V30 583 O 50.8296 5.26538 2.91618 0
M  V30 584 H 54.6556 2.99333 0.513169 0
M  V30 585 H 52.2406 1.4822 0.18743 0
M  V30 586 H 54.1226 2.99346 2.96598 0
M  V30 587 H 52.7976 1.83578 2.6661 0
M  V30 588 H 51.7046 3.56746 1.1262 0
M  V30 589 H 53.0376 4.68771 1.5005 0
M  V30 590 N 54.6897 -0.239769 1.55765 0
M  V30 591 C 55.6197 -1.30052 1.9393 0
M  V30 592 C 56.6007 -1.49839 0.805132 0
M  V30 593 O 57.7857 -1.62328 1.06599 0
M  V30 594 C 54.9157 -2.65391 2.2402 0
M  V30 595 C 53.8697 -2.60289 3.39755 0
M  V30 596 C 53.1957 -3.99489 3.55405 0
M  V30 597 C 54.4957 -2.16654 4.75246 0
M  V30 598 H 56.1897 -0.983573 2.82783 0
M  V30 599 H 53.7357 -0.471701 1.36055 0
M  V30 600 H 55.6887 -3.3974 2.49308 0
M  V30 601 H 54.4127 -2.98736 1.32 0
M  V30 602 H 53.0717 -1.88398 3.14487 0
M  V30 603 H 52.7197 -4.30112 2.60793 0
M  V30 604 H 52.4197 -3.96962 4.33238 0
M  V30 605 H 53.9437 -4.75528 3.83022 0
M  V30 606 H 55.3577 -2.80737 4.99859 0
M  V30 607 H 53.7547 -2.25223 5.56232 0
M  V30 608 H 54.8247 -1.11835 4.71827 0
M  V30 609 N 56.1678 -1.49265 -0.50573 0
M  V30 610 C 57.0978 -1.68495 -1.61653 0
M  V30 611 C 58.0788 -0.53366 -1.61512 0
M  V30 612 O 59.2638 -0.76897 -1.78327 0
M  V30 613 C 56.3938 -1.74709 -3.00157 0
M  V30 614 C 55.3478 -2.89581 -3.15162 0
M  V30 615 C 54.6738 -2.80903 -4.5497 0
M  V30 616 C 55.9738 -4.30578 -2.95634 0
M  V30 617 H 57.6678 -2.61493 -1.45814 0
M  V30 618 H 55.2138 -1.25838 -0.70005 0
M  V30 619 H 57.1668 -1.86748 -3.77761 0
M  V30 620 H 55.8908 -0.783067 -3.17074 0
M  V30 621 H 54.5498 -2.77136 -2.39982 0
M  V30 622 H 54.1978 -1.82419 -4.68756 0
M  V30 623 H 53.8978 -3.57999 -4.65951 0
M  V30 624 H 55.4218 -2.94944 -5.34641 0
M  V30 625 H 56.8358 -4.4373 -3.63011 0
M  V30 626 H 55.2328 -5.0886 -3.18091 0
M  V30 627 H 56.3028 -4.45352 -1.91806 0
M  V30 628 N 57.6459 0.756429 -1.3826 0
M  V30 629 C 58.5779 1.87971 -1.31147 0
M  V30 630 C 59.5909 1.61248 -0.224239 0
M  V30 631 O 60.7799 1.71881 -0.481581 0
M  V30 632 C 57.8799 3.23545 -1.00857 0
M  V30 633 C 57.0529 3.77794 -2.20432 0
M  V30 634 C 56.1119 4.91877 -1.86931 0
M  V30 635 O 55.1379 5.06659 -2.59395 0
M  V30 636 N 56.3399 5.74643 -0.822568 0
M  V30 637 H 59.1049 1.94585 -2.2794 0
M  V30 638 H 56.6659 0.936234 -1.32084 0
M  V30 639 H 58.6579 3.97403 -0.765021 0
M  V30 640 H 57.2279 3.12335 -0.128687 0
M  V30 641 H 56.4479 2.95534 -2.6087 0
M  V30 642 H 57.7359 4.10771 -3.00241 0
M  V30 643 H 57.1339 5.65266 -0.221575 0
M  V30 644 H 55.6909 6.48661 -0.638899 0
M  V30 645 N 59.124 1.23083 0.984299 0
M  V30 646 C 60.072 1.00593 2.09723 0
M  V30 647 C 61.066 -0.0538014 1.69315 0
M  V30 648 O 62.272 0.0993719 1.79725 0
M  V30 649 H 58.647 0.30817 0.685956 0
M  V30 650 H 60.618 1.95012 2.2586 0
M  V30 651 C 59.367 0.609601 3.42314 0
M  V30 652 H 58.69 1.41675 3.73856 0
M  V30 653 H 60.13 0.491726 4.21139 0
M  V30 654 C 58.589 -0.681745 3.2993 0
M  V30 655 O 59.119 -1.73192 3.62446 0
M  V30 656 N 57.325 -0.656178 2.83095 0
M  V30 657 H 56.872 0.198759 2.56832 0
M  V30 658 H 56.83 -1.52044 2.75191 0
M  V30 659 N 60.6021 -1.18246 1.0419 0
M  V30 660 C 61.8501 -1.87886 0.744543 0
M  V30 661 C 62.1711 -1.8082 -0.730006 0
M  V30 662 O 61.4411 -1.22736 -1.52685 0
M  V30 663 H 60.0211 -0.695556 0.272417 0
M  V30 664 H 62.6831 -1.43494 1.31892 0
M  V30 665 H 61.7791 -2.9389 1.05049 0
M  V30 666 N 62.0802 -0.821533 -1.34494 0
M  V30 667 C 63.4912 -0.467956 -1.8074 0
M  V30 668 C 63.8422 1.01151 -1.68116 0
M  V30 669 O 62.9672 1.78707 -1.22036 0
M  V30 670 C 63.5622 -0.842627 -3.28154 0
M  V30 671 C 62.1212 -0.541439 -3.72485 0
M  V30 672 C 61.2682 -1.06028 -2.56229 0
M  V30 673 H 64.2192 -1.01183 -1.22261 0
M  V30 674 H 64.2402 -0.145876 -3.8022 0
M  V30 675 H 63.7522 -1.91945 -3.37311 0
M  V30 676 H 61.8532 0.526034 -3.68868 0
M  V30 677 H 61.9662 -1.08453 -4.66663 0
M  V30 678 H 60.3302 -0.481892 -2.501 0
M  V30 679 H 61.1132 -2.14352 -2.68157 0
M  V30 680 N 63.5583 1.46682 -0.576371 0
M  V30 681 C 64.8353 1.95599 0.00703437 0
M  V30 682 C 65.2153 1.51904 1.46589 0
M  V30 683 O 64.5633 0.766755 2.15251 0
M  V30 684 C 64.7733 3.4864 -0.158404 0
M  V30 685 C 66.1213 4.24594 -0.0229439 0
M  V30 686 O 67.1453 3.56094 -0.0869173 0
M  V30 687 O 66.0043 5.46373 0.118015 0
M  V30 688 H 63.0983 0.825275 0.053384 0
M  V30 689 H 65.6443 1.56996 -0.644244 0
M  V30 690 H 64.4163 3.7331 -1.17282 0
M  V30 691 H 64.0393 3.94057 0.5296 0
M  V30 692 N 65.0364 0.313813 1.54444 0
M  V30 693 C 65.9664 -0.549454 2.26943 0
M  V30 694 C 66.9474 -1.12741 1.27372 0
M  V30 695 O 68.1324 -1.15436 1.56167 0
M  V30 696 C 65.2624 -1.71523 3.01989 0
M  V30 697 C 64.2164 -1.26703 4.08816 0
M  V30 698 C 63.5424 -2.51898 4.71647 0
M  V30 699 C 64.8424 -0.388962 5.2085 0
M  V30 700 H 66.5364 0.0552661 2.99349 0
M  V30 701 H 64.0824 0.0280207 1.43973 0
M  V30 702 H 66.0354 -2.32535 3.51433 0
M  V30 703 H 64.7594 -2.34639 2.27183 0
M  V30 704 H 63.4184 -0.679896 3.6024 0
M  V30 705 H 63.0664 -3.13356 3.93468 0
M  V30 706 H 62.7664 -2.22605 5.43802 0
M  V30 707 H 64.2904 -3.1369 5.23861 0
M  V30 708 H 65.7044 -0.905107 5.6611 0
M  V30 709 H 64.1014 -0.18924 5.99802 0
M  V30 710 H 65.1714 0.582699 4.81386 0
M  V30 711 N 66.5145 -1.57545 0.0417849 0
M  V30 712 C 67.4465 -2.07904 -0.964799 0
M  V30 713 C 68.4595 -1.00497 -1.28079 0
M  V30 714 O 69.6485 -1.28087 -1.24322 0
M  V30 715 C 66.7485 -2.49928 -2.28887 0
M  V30 716 C 65.9215 -3.80562 -2.15619 0
M  V30 717 C 64.9805 -4.08999 -3.31069 0
M  V30 718 O 64.0065 -4.79061 -3.0739 0
M  V30 719 N 65.2085 -3.6017 -4.55256 0
M  V30 720 H 67.9735 -2.94886 -0.535029 0
M  V30 721 H 65.5345 -1.61252 -0.144681 0
M  V30 722 H 67.5265 -2.66034 -3.04972 0
M  V30 723 H 66.0965 -1.68245 -2.63463 0
M  V30 724 H 65.3165 -3.74129 -1.24183 0
M  V30 725 H 66.6045 -4.66126 -2.03971 0
M  V30 726 H 66.0025 -3.03512 -4.77386 0
M  V30 727 H 64.5595 -3.81532 -5.28466 0
M  V30 728 N 67.9926 0.231505 -1.5589 0
M  V30 729 C 69.2696 0.981096 -1.69215 0
M  V30 730 C 69.6496 2.02799 -0.586164 0
M  V30 731 O 68.9976 2.24823 0.408253 0
M  V30 732 C 69.2076 1.60054 -3.10135 0
M  V30 733 C 70.5556 2.09658 -3.69227 0
M  V30 734 O 71.5796 1.69967 -3.13033 0
M  V30 735 O 70.4386 2.8258 -4.67772 0
M  V30 736 H 67.5326 0.457653 -0.688827 0
M  V30 737 H 70.0786 0.224073 -1.68214 0
M  V30 738 H 68.8506 0.844105 -3.82087 0
M  V30 739 H 68.4736 2.42336 -3.15212 0
M  V30 740 N 69.4707 1.49531 0.497807 0
M  V30 741 C 70.7177 1.59179 1.25173 0
M  V30 742 C 71.0457 0.279932 1.92475 0
M  V30 743 O 70.3007 -0.732383 1.81479 0
M  V30 744 C 70.5997 2.70252 2.33878 0
M  V30 745 C 70.2657 4.11644 1.84012 0
M  V30 746 C 68.9277 4.50121 1.70132 0
M  V30 747 C 71.2797 5.00121 1.46725 0
M  V30 748 C 68.6077 5.74845 1.17348 0
M  V30 749 C 70.9597 6.25366 0.95392 0
M  V30 750 C 69.6237 6.6267 0.801538 0
M  V30 751 H 68.8937 0.582478 0.45804 0
M  V30 752 H 71.5407 1.83373 0.551948 0
M  V30 753 H 69.8457 2.40041 3.09657 0
M  V30 754 H 71.5427 2.74925 2.9192 0
M  V30 755 H 68.1327 3.81274 1.95775 0
M  V30 756 H 72.3167 4.71048 1.56294 0
M  V30 757 H 67.5727 6.02444 1.04264 0
M  V30 758 H 71.7467 6.93301 0.656225 0
M  V30 759 H 69.3737 7.59197 0.390351 0
M  V30 760 N 70.9488 -0.749086 1.3866 0
M  V30 761 C 72.1948 -1.51056 1.35314 0
M  V30 762 C 72.5278 -1.94121 -0.0553751 0
M  V30 763 O 71.8028 -1.65763 -1.01749 0
M  V30 764 C 72.0858 -2.76003 2.31288 0
M  V30 765 C 71.9388 -2.39047 3.8102 0
M  V30 766 C 73.2578 -3.78046 2.2532 0
M  V30 767 H 70.3768 -0.547972 0.492844 0
M  V30 768 H 73.0188 -0.857628 1.69543 0
M  V30 769 H 71.1688 -3.31716 2.02229 0
M  V30 770 H 72.8408 -1.89074 4.20771 0
M  V30 771 H 71.0838 -1.71449 3.98482 0
M  V30 772 H 71.7548 -3.28462 4.4364 0
M  V30 773 H 74.2308 -3.31884 2.50983 0
M  V30 774 H 73.1068 -4.63159 2.94576 0
M  V30 775 H 73.3678 -4.23957 1.25352 0
M  V30 776 N 72.4269 -1.23603 -0.977757 0
M  V30 777 C 73.6519 -1.09735 -1.75991 0
M  V30 778 C 74.0769 0.346858 -1.84874 0
M  V30 779 O 73.4349 1.25093 -1.3123 0
M  V30 780 C 73.4829 -1.73051 -3.16363 0
M  V30 781 O 72.5869 -0.994452 -4.0023 0
M  V30 782 H 71.9279 -0.384476 -0.541364 0
M  V30 783 H 74.4579 -1.6371 -1.2272 0
M  V30 784 H 74.4679 -1.78398 -3.66931 0
M  V30 785 H 73.1429 -2.78137 -3.09213 0
M  V30 786 H 71.7199 -1.01812 -3.58732 0
M  V30 787 N 73.905 1.17692 -1.04816 0
M  V30 788 C 75.153 1.87488 -0.754497 0
M  V30 789 C 75.474 1.81205 0.720407 0
M  V30 790 O 74.744 1.23544 1.52032 0
M  V30 791 H 73.324 0.694101 -0.276102 0
M  V30 792 H 75.986 1.42793 -1.32651 0
M  V30 793 H 75.082 2.93328 -1.06606 0
M  V30 794 N 75.3831 0.828654 1.34056 0
M  V30 795 C 76.6601 0.341809 1.9259 0
M  V30 796 C 77.0401 -1.17158 1.75605 0
M  V30 797 O 76.3881 -1.98132 1.13824 0
M  V30 798 C 76.5981 0.777453 3.4023 0
M  V30 799 C 77.9461 0.779579 4.17382 0
M  V30 800 O 78.9701 0.7204 3.48839 0
M  V30 801 O 77.8291 0.857996 5.39723 0
M  V30 802 H 74.9231 0.0946085 0.821571 0
M  V30 803 H 77.4691 0.913827 1.42994 0
M  V30 804 H 76.2411 1.8196 3.46419 0
M  V30 805 H 75.8641 0.181444 3.97186 0
M  V30 806 N 76.8612 -1.46375 0.584142 0
M  V30 807 C 77.7912 -2.33103 -0.136037 0
M  V30 808 C 78.7722 -1.45431 -0.882255 0
M  V30 809 O 79.9572 -1.74246 -0.857434 0
M  V30 810 C 77.0872 -3.27731 -1.14933 0
M  V30 811 C 76.0412 -4.24855 -0.517862 0
M  V30 812 C 75.3672 -5.09001 -1.63773 0
M  V30 813 C 76.6672 -5.19439 0.545886 0
M  V30 814 H 78.3612 -2.93568 0.588086 0
M  V30 815 H 75.9072 -1.41166 0.284259 0
M  V30 816 H 77.8602 -3.87261 -1.66153 0
M  V30 817 H 76.5842 -2.65377 -1.90375 0
M  V30 818 H 75.2432 -3.6659 -0.0267361 0
M  V30 819 H 74.8912 -4.43031 -2.38185 0
M  V30 820 H 74.5912 -5.74777 -1.22085 0
M  V30 821 H 76.1152 -5.71396 -2.15266 0
M  V30 822 H 77.5292 -5.73177 0.118704 0
M  V30 823 H 75.9262 -5.93566 0.88317 0
M  V30 824 H 76.9962 -4.63285 1.43162 0
M  V30 825 N 78.3393 -0.321999 -1.54275 0
M  V30 826 C 79.3023 0.531975 -2.22941 0
M  V30 827 C 80.3023 1.04478 -1.22234 0
M  V30 828 O 81.4923 0.937452 -1.46825 0
M  V30 829 C 78.6243 1.73874 -2.93224 0
M  V30 830 H 79.8173 -0.0682612 -2.99822 0
M  V30 831 H 77.3703 -0.0730644 -1.56129 0
M  V30 832 H 78.1053 2.37825 -2.20476 0
M  V30 833 H 77.8903 1.37847 -3.6707 0
M  V30 834 H 79.3803 2.34496 -3.45545 0
M  V30 835 N 79.8174 1.5752 -0.0501392 0
M  V30 836 C 81.0944 1.83996 0.663685 0
M  V30 837 C 81.4744 0.938339 1.89099 0
M  V30 838 O 80.8224 -0.00087759 2.285 0
M  V30 839 C 81.0324 3.33702 1.02196 0
M  V30 840 C 82.3804 4.00691 1.40469 0
M  V30 841 O 83.4044 3.38321 1.11433 0
M  V30 842 O 82.2634 5.10658 1.94654 0
M  V30 843 H 79.3574 0.759385 0.32751 0
M  V30 844 H 81.9034 1.69514 -0.0794238 0
M  V30 845 H 80.6754 3.91015 0.149364 0
M  V30 846 H 80.2984 3.53368 1.82255 0
M  V30 847 N 81.2955 -0.223234 1.56011 0
M  V30 848 C 82.7115 -0.572856 1.48965 0
M  V30 849 C 82.9115 -1.87225 0.74492 0
M  V30 850 O 81.9675 -2.50899 0.283896 0
M  V30 851 C 83.2805 -0.653646 2.9351 0
M  V30 852 C 84.8285 -0.744386 3.0402 0
M  V30 853 C 85.3035 -0.856535 4.49919 0
M  V30 854 N 86.7945 -0.9208 4.53955 0
M  V30 855 C 87.5295 -1.02726 5.64123 0
M  V30 856 N 87.0255 -1.09777 6.84047 0
M  V30 857 N 88.8185 -1.06226 5.51971 0
M  V30 858 H 80.9695 0.629462 2.02858 0
M  V30 859 H 83.2325 0.220621 0.921971 0
M  V30 860 H 82.9385 0.231518 3.50937 0
M  V30 861 H 82.8125 -1.51781 3.45315 0
M  V30 862 H 85.1995 -1.61999 2.46658 0
M  V30 863 H 85.2805 0.14541 2.55386 0
M  V30 864 H 84.9245 0.0146069 5.07898 0
M  V30 865 H 84.8545 -1.76172 4.96257 0
M  V30 866 H 87.3455 -0.876694 3.6759 0
M  V30 867 H 87.6585 -1.17872 7.63758 0
M  V30 868 H 86.0035 -1.06693 6.86762 0
M  V30 869 H 89.1945 -1.00382 4.5721 0
M  V30 870 H 89.3675 -1.14177 6.37862 0
M  V30 871 N 82.7736 -1.49793 -0.48987 0
M  V30 872 C 83.9986 -1.63836 -1.27172 0
M  V30 873 C 84.4236 -0.31402 -1.8546 0
M  V30 874 O 83.7816 0.719803 -1.66399 0
M  V30 875 C 83.8296 -2.71797 -2.36978 0
M  V30 876 O 82.9336 -2.31744 -3.41128 0
M  V30 877 H 82.2746 -0.547997 -0.37496 0
M  V30 878 H 84.8046 -1.96053 -0.585191 0
M  V30 879 H 84.8146 -2.94305 -2.82575 0
M  V30 880 H 83.4896 -3.67923 -1.93921 0
M  V30 881 H 82.0666 -2.1961 -3.01373 0
M  V30 882 N 84.2517 0.741722 -1.39055 0
M  V30 883 C 85.4797 1.53098 -1.39171 0
M  V30 884 C 85.8947 1.88794 0.0155099 0
M  V30 885 O 85.2517 1.53626 0.985159 0
M  V30 886 C 85.3027 2.82274 -2.2584 0
M  V30 887 O 85.0237 2.48097 -3.61081 0
M  V30 888 C 86.5247 3.76343 -2.34266 0
M  V30 889 H 83.7447 0.473335 -0.4756 0
M  V30 890 H 86.2887 0.917045 -1.82785 0
M  V30 891 H 84.4437 3.40015 -1.85656 0
M  V30 892 H 84.8577 3.31029 -4.06842 0
M  V30 893 H 86.3317 4.63898 -2.9917 0
M  V30 894 H 86.8087 4.17619 -1.35982 0
M  V30 895 H 87.4147 3.24523 -2.74891 0
M  V30 896 N 85.7298 1.2412 0.971189 0
M  V30 897 C 86.9758 1.09048 1.71698 0
M  V30 898 C 87.3308 -0.367442 1.88859 0
M  V30 899 O 86.6238 -1.26792 1.43646 0
M  V30 900 C 86.8178 1.75983 3.11071 0
M  V30 901 C 86.6468 3.28133 3.07504 0
M  V30 902 C 85.4168 3.97331 3.1218 0
M  V30 903 C 87.6148 4.24773 2.89952 0
M  V30 904 N 85.5968 5.3639 2.98596 0
M  V30 905 C 86.9678 5.50806 2.84627 0
M  V30 906 C 89.0228 4.15392 2.74506 0
M  V30 907 C 87.7258 6.68533 2.65437 0
M  V30 908 C 89.7518 5.32793 2.56682 0
M  V30 909 C 89.1138 6.57756 2.52063 0
M  V30 910 H 85.2128 0.453632 0.636979 0
M  V30 911 H 87.7968 1.56983 1.15171 0
M  V30 912 H 85.9678 1.30566 3.65796 0
M  V30 913 H 87.6998 1.53803 3.74335 0
M  V30 914 H 84.4548 3.48473 3.20724 0
M  V30 915 H 84.8788 6.09321 2.95054 0
M  V30 916 H 89.5208 3.19543 2.76861 0
M  V30 917 H 87.2388 7.64509 2.61825 0
M  V30 918 H 90.8248 5.27383 2.4568 0
M  V30 919 H 89.7048 7.4707 2.38446 0
M  V30 920 N 87.2079 -1.17134 1.05439 0
M  V30 921 C 88.4849 -1.83411 0.679699 0
M  V30 922 C 88.8649 -1.9368 -0.839726 0
M  V30 923 O 88.2129 -1.47325 -1.74664 0
M  V30 924 C 88.4229 -3.20918 1.37159 0
M  V30 925 C 89.7709 -3.96796 1.51123 0
M  V30 926 O 90.7949 -3.30406 1.3308 0
M  V30 927 O 89.6539 -5.15778 1.80651 0
M  V30 928 H 86.7479 -0.79154 0.239569 0
M  V30 929 H 89.2939 -1.24411 1.15413 0
M  V30 930 H 88.0659 -3.08428 2.40807 0
M  V30 931 H 87.6889 -3.87587 0.886674 0
M  V30 932 N 88.686 -0.835752 -1.33615 0
M  V30 933 C 89.596 -0.269088 -2.33052 0
M  V30 934 C 90.612 0.603251 -1.63208 0
M  V30 935 O 91.788 0.508112 -1.94885 0
M  V30 936 C 88.853 0.549091 -3.42324 0
M  V30 937 C 87.914 -0.347156 -4.27894 0
M  V30 938 C 87.147 0.43207 -5.31948 0
M  V30 939 O 87.37 1.66409 -5.45586 0
M  V30 940 O 86.304 -0.192298 -6.01593 0
M  V30 941 H 90.13 -1.09243 -2.83372 0
M  V30 942 H 87.715 -0.598198 -1.36901 0
M  V30 943 H 89.597 1.01414 -4.09015 0
M  V30 944 H 88.272 1.34955 -2.94226 0
M  V30 945 H 87.179 -0.859979 -3.64081 0
M  V30 946 H 88.512 -1.1123 -4.79467 0
M  V30 947 N 90.1641 1.46063 -0.591896 0
M  V30 948 C 91.3941 2.06418 -0.0867676 0
M  V30 949 C 91.8021 1.43975 1.22751 0
M  V30 950 O 91.1451 0.542531 1.75506 0
M  V30 951 C 91.2071 3.59213 0.143725 0
M  V30 952 C 90.8711 4.439 -1.08635 0
M  V30 953 C 91.8681 4.79864 -2.00067 0
M  V30 954 C 89.5531 4.84896 -1.31077 0
M  V30 955 C 91.5471 5.55661 -3.12282 0
M  V30 956 C 89.2341 5.6045 -2.43596 0
M  V30 957 C 90.2321 5.95747 -3.34027 0
M  V30 958 O 89.9201 6.69772 -4.4459 0
M  V30 959 H 89.6521 0.673443 -0.0587447 0
M  V30 960 H 92.2061 1.88539 -0.814994 0
M  V30 961 H 90.4361 3.75433 0.926668 0
M  V30 962 H 92.1251 4.01463 0.5985 0
M  V30 963 H 92.8911 4.48763 -1.83947 0
M  V30 964 H 88.7701 4.56867 -0.61594 0
M  V30 965 H 92.3141 5.8313 -3.82891 0
M  V30 966 H 88.2111 5.90965 -2.59674 0
M  V30 967 H 88.9791 6.88207 -4.43073 0
M  V30 968 N 91.6422 0.330177 1.54103 0
M  V30 969 C 92.5892 -0.532762 2.24567 0
M  V30 970 C 93.5592 -1.10635 1.23892 0
M  V30 971 O 94.7442 -1.14546 1.5259 0
M  V30 972 C 91.8842 -1.6845 3.01195 0
M  V30 973 C 90.9972 -1.13951 4.167 0
M  V30 974 C 90.1322 -2.25746 4.80845 0
M  V30 975 C 89.1712 -1.6853 5.88442 0
M  V30 976 N 88.3082 -2.74014 6.46421 0
M  V30 977 H 93.1482 0.0746905 2.97906 0
M  V30 978 H 90.6852 0.048632 1.4702 0
M  V30 979 H 92.6432 -2.36234 3.43874 0
M  V30 980 H 91.2732 -2.26314 2.30178 0
M  V30 981 H 90.3252 -0.35301 3.78758 0
M  V30 982 H 91.6372 -0.680892 4.94131 0
M  V30 983 H 90.7912 -3.01422 5.26526 0
M  V30 984 H 89.5302 -2.74947 4.0281 0
M  V30 985 H 88.5352 -0.913543 5.42157 0
M  V30 986 H 89.7602 -1.20198 6.68378 0
M  V30 987 H 87.7062 -3.22494 5.71256 0
M  V30 988 H 87.6232 -2.32735 7.19285 0
M  V30 989 H 88.8912 -3.49499 6.96757 0
M  V30 990 N 93.1203 -1.57491 0.0584922 0
M  V30 991 C 94.3683 -1.92597 -0.612436 0
M  V30 992 C 94.6893 -0.938162 -1.70949 0
M  V30 993 O 93.9593 0.0158301 -1.95894 0
M  V30 994 H 92.5393 -0.710964 -0.229214 0
M  V30 995 H 95.2013 -1.94571 0.113218 0
M  V30 996 H 94.2973 -2.94038 -1.04633 0
M  V30 997 N 94.5984 0.214957 -1.56127 0
M  V30 998 C 95.5464 1.28601 -1.93816 0
M  V30 999 C 96.5404 1.48175 -0.821016 0
M  V30 1000 O 97.7464 1.49271 -1.0059 0
M  V30 1001 H 94.1214 0.431302 -0.616022 0
M  V30 1002 H 96.0924 0.940991 -2.83175 0
M  V30 1003 C 94.8414 2.62779 -2.27689 0
M  V30 1004 H 94.1644 2.48527 -3.13168 0
M  V30 1005 H 95.6044 3.36517 -2.57939 0
M  V30 1006 C 94.0634 3.18285 -1.10436 0
M  V30 1007 O 94.5934 4.00002 -0.368945 0
M  V30 1008 N 92.7994 2.7675 -0.886433 0
M  V30 1009 H 92.3464 2.10404 -1.48619 0
M  V30 1010 H 92.3044 3.14229 -0.103656 0
M  V30 1011 N 96.0765 1.50051 0.48192 0
M  V30 1012 C 97.0065 1.71046 1.58951 0
M  V30 1013 C 97.9875 0.559288 1.60642 0
M  V30 1014 O 99.1725 0.797243 1.77081 0
M  V30 1015 C 96.3025 1.79462 2.97339 0
M  V30 1016 C 95.2565 2.94558 3.10515 0
M  V30 1017 C 94.5825 2.88105 4.50444 0
M  V30 1018 C 95.8825 4.35227 2.88747 0
M  V30 1019 H 97.5765 2.6378 1.41635 0
M  V30 1020 H 95.1225 1.26936 0.679942 0
M  V30 1021 H 97.0755 1.92734 3.74742 0
M  V30 1022 H 95.7995 0.833412 3.15788 0
M  V30 1023 H 94.4585 2.80918 2.35543 0
M  V30 1024 H 94.1065 1.89853 4.65795 0
M  V30 1025 H 93.8065 3.65366 4.60197 0
M  V30 1026 H 95.3305 3.03412 5.29881 0
M  V30 1027 H 96.7445 4.49449 3.55905 0
M  V30 1028 H 95.1415 5.13856 3.09955 0
M  V30 1029 H 96.2115 4.48347 1.84696 0
M  V30 1030 N 97.5546 -0.734337 1.39446 0
M  V30 1031 C 98.5016 -1.84835 1.38219 0
M  V30 1032 C 99.4716 -1.64331 0.24179 0
M  V30 1033 O 100.657 -1.85728 0.437002 0
M  V30 1034 C 97.7966 -3.22355 1.23212 0
M  V30 1035 C 96.9096 -3.5456 2.46801 0
M  V30 1036 C 96.0446 -4.81485 2.24377 0
M  V30 1037 C 95.0836 -5.06536 3.43639 0
M  V30 1038 N 94.2206 -6.24665 3.20528 0
M  V30 1039 H 99.0606 -1.85219 2.33448 0
M  V30 1040 H 96.5976 -0.905039 1.15963 0
M  V30 1041 H 98.5556 -4.0174 1.12522 0
M  V30 1042 H 97.1856 -3.21248 0.316121 0
M  V30 1043 H 96.2376 -2.69872 2.68092 0
M  V30 1044 H 97.5496 -3.6899 3.3563 0
M  V30 1045 H 96.7036 -5.68852 2.10933 0
M  V30 1046 H 95.4426 -4.6923 1.32944 0
M  V30 1047 H 94.4476 -4.17632 3.5758 0
M  V30 1048 H 95.6726 -5.20676 4.35974 0
M  V30 1049 H 93.6186 -6.13696 2.3176 0
M  V30 1050 H 93.5356 -6.39685 4.02913 0
M  V30 1051 H 94.8036 -7.14868 3.10779 0
M  V30 1052 N 99.0327 -1.24633 -0.964593 0
M  V30 1053 C 100.449 -1.01239 -1.2338 0
M  V30 1054 C 100.649 0.2769 -1.99588 0
M  V30 1055 O 99.7047 0.992241 -2.32187 0
M  V30 1056 C 101.018 -2.22937 -2.01791 0
M  V30 1057 C 102.566 -2.27594 -2.14872 0
M  V30 1058 C 103.041 -3.48921 -2.96678 0
M  V30 1059 N 104.532 -3.49257 -3.04259 0
M  V30 1060 C 105.267 -4.39795 -3.67924 0
M  V30 1061 N 104.763 -5.40591 -4.33281 0
M  V30 1062 N 106.556 -4.275 -3.64966 0
M  V30 1063 H 98.7067 -2.0748 -0.454502 0
M  V30 1064 H 100.97 -0.910647 -0.26349 0
M  V30 1065 H 100.676 -3.16587 -1.53184 0
M  V30 1066 H 100.55 -2.25306 -3.02518 0
M  V30 1067 H 102.937 -1.34473 -2.6268 0
M  V30 1068 H 103.018 -2.2925 -1.13482 0
M  V30 1069 H 102.662 -4.42359 -2.49562 0
M  V30 1070 H 102.592 -3.4451 -3.98272 0
M  V30 1071 H 105.083 -2.76337 -2.57771 0
M  V30 1072 H 105.396 -6.05904 -4.79687 0
M  V30 1073 H 103.741 -5.44475 -4.3194 0
M  V30 1074 H 106.932 -3.47987 -3.13086 0
M  V30 1075 H 107.105 -4.98258 -4.14298 0
M  V30 1076 N 100.511 1.16574 -1.06058 0
M  V30 1077 C 101.443 2.2045 -0.627239 0
M  V30 1078 C 102.456 1.59752 0.313534 0
M  V30 1079 O 103.645 1.78192 0.104896 0
M  V30 1080 C 100.745 3.3875 0.100974 0
M  V30 1081 C 99.9178 4.29008 -0.852687 0
M  V30 1082 C 98.9768 5.25944 -0.164152 0
M  V30 1083 O 98.0028 5.63535 -0.801047 0
M  V30 1084 N 99.2048 5.70075 1.09518 0
M  V30 1085 H 101.97 2.58249 -1.52077 0
M  V30 1086 H 99.5308 1.3156 -0.943594 0
M  V30 1087 H 101.523 4.00638 0.57194 0
M  V30 1088 H 100.093 2.99476 0.89628 0
M  V30 1089 H 99.3128 3.64419 -1.50308 0
M  V30 1090 H 100.601 4.86195 -1.49972 0
M  V30 1091 H 99.9988 5.41624 1.6328 0
M  V30 1092 H 98.5558 6.34067 1.51006 0
M  V30 1093 N 101.989 0.842826 1.3317 0
M  V30 1094 C 102.936 0.276885 2.29133 0
M  V30 1095 C 103.906 -0.609527 1.54512 0
M  V30 1096 O 105.091 -0.546955 1.82792 0
M  V30 1097 C 102.231 -0.538707 3.40869 0
M  V30 1098 C 101.344 0.372169 4.30394 0
M  V30 1099 C 100.479 -0.454908 5.29249 0
M  V30 1100 C 99.5179 0.45411 6.10413 0
M  V30 1101 N 98.6549 -0.335075 7.013 0
M  V30 1102 H 103.495 1.10052 2.76934 0
M  V30 1103 H 101.032 0.554161 1.36262 0
M  V30 1104 H 102.99 -1.02709 4.0436 0
M  V30 1105 H 101.62 -1.32727 2.9425 0
M  V30 1106 H 100.672 0.97888 3.6759 0
M  V30 1107 H 101.984 1.0703 4.87182 0
M  V30 1108 H 101.138 -1.00695 5.98285 0
M  V30 1109 H 99.8769 -1.18646 4.73048 0
M  V30 1110 H 98.8819 1.01813 5.40291 0
M  V30 1111 H 100.107 1.18409 6.68697 0
M  V30 1112 H 98.0529 -1.04994 6.47543 0
M  V30 1113 H 97.9699 0.304262 7.55387 0
M  V30 1114 H 99.2379 -0.869224 7.74638 0
M  V30 1115 N 103.467 -1.45747 0.599634 0
M  V30 1116 C 104.715 -2.01893 0.0915472 0
M  V30 1117 C 105.036 -1.47155 -1.27946 0
M  V30 1118 O 104.306 -0.66273 -1.84349 0
M  V30 1119 H 102.886 -0.746363 0.0308524 0
M  V30 1120 H 105.548 -1.78645 0.779237 0
M  V30 1121 H 104.644 -3.1208 0.0353086 0
M  V30 1122 N 104.945 -0.338344 -1.53925 0
M  V30 1123 C 105.855 0.529421 -2.28548 0
M  V30 1124 C 106.871 1.11645 -1.3346 0
M  V30 1125 O 108.047 1.13325 -1.66492 0
M  V30 1126 C 105.112 1.66713 -3.03987 0
M  V30 1127 C 104.173 1.11041 -4.14691 0
M  V30 1128 C 103.406 2.19389 -4.86522 0
M  V30 1129 O 103.629 3.40013 -4.57982 0
M  V30 1130 O 102.563 1.83976 -5.73094 0
M  V30 1131 H 106.389 -0.0770399 -3.03602 0
M  V30 1132 H 103.974 -0.103555 -1.49041 0
M  V30 1133 H 105.856 2.32918 -3.5118 0
M  V30 1134 H 104.531 2.25949 -2.31794 0
M  V30 1135 H 103.438 0.413024 -3.71813 0
M  V30 1136 H 104.771 0.562975 -4.8897 0
M  V30 1137 N 106.423 1.57458 -0.0668435 0
M  V30 1138 C 107.839 1.56947 0.289772 0
M  V30 1139 C 108.039 1.07584 1.70376 0
M  V30 1140 O 107.095 0.739486 2.41429 0
M  V30 1141 C 108.408 3.0052 0.103943 0
M  V30 1142 C 109.956 3.12517 0.173857 0
M  V30 1143 C 110.431 4.57997 0.0163682 0
M  V30 1144 N 111.922 4.63144 0.0721352 0
M  V30 1145 C 112.657 5.73394 -0.0253794 0
M  V30 1146 N 112.153 6.92576 -0.176133 0
M  V30 1147 N 113.946 5.62091 0.0313305 0
M  V30 1148 H 106.097 1.87863 -0.991027 0
M  V30 1149 H 108.36 0.86583 -0.38606 0
M  V30 1150 H 108.066 3.40729 -0.871572 0
M  V30 1151 H 107.94 3.67304 0.858366 0
M  V30 1152 H 110.327 2.72197 1.13985 0
M  V30 1153 H 110.408 2.48381 -0.611586 0
M  V30 1154 H 110.052 4.99005 -0.946374 0
M  V30 1155 H 109.982 5.20158 0.821153 0
M  V30 1156 H 112.473 3.77436 0.187263 0
M  V30 1157 H 112.786 7.72418 -0.242821 0
M  V30 1158 H 111.131 6.94678 -0.211429 0
M  V30 1159 H 114.322 4.67867 0.147773 0
M  V30 1160 H 114.495 6.47982 -0.048121 0
M  V30 1161 N 107.901 -0.206675 1.56239 0
M  V30 1162 C 108.831 -1.25909 1.96645 0
M  V30 1163 C 109.812 -1.48097 0.836734 0
M  V30 1164 O 110.997 -1.6003 1.10019 0
M  V30 1165 C 108.127 -2.6058 2.29599 0
M  V30 1166 C 107.081 -2.53024 3.452 0
M  V30 1167 C 106.407 -3.91861 3.63798 0
M  V30 1168 C 107.707 -2.06524 4.79734 0
M  V30 1169 H 109.401 -0.923369 2.84806 0
M  V30 1170 H 106.947 -0.442735 1.37025 0
M  V30 1171 H 108.9 -3.34375 2.56459 0
M  V30 1172 H 107.624 -2.95869 1.38307 0
M  V30 1173 H 106.283 -1.81684 3.18412 0
M  V30 1174 H 105.931 -4.24483 2.69857 0
M  V30 1175 H 105.631 -3.87683 4.4156 0
M  V30 1176 H 107.155 -4.67296 3.93022 0
M  V30 1177 H 108.569 -2.70072 5.05702 0
M  V30 1178 H 106.966 -2.13374 5.60885 0
M  V30 1179 H 108.036 -1.01802 4.74093 0
M  V30 1180 N 109.379 -1.50304 -0.473955 0
M  V30 1181 C 110.795 -1.37667 -0.807466 0
M  V30 1182 C 110.995 -0.430555 -1.96846 0
M  V30 1183 O 110.051 0.127874 -2.52176 0
M  V30 1184 C 111.364 -2.78974 -1.12223 0
M  V30 1185 C 112.912 -2.87868 -1.22885 0
M  V30 1186 C 113.387 -4.30003 -1.57676 0
M  V30 1187 N 114.878 -4.3294 -1.64673 0
M  V30 1188 C 115.613 -5.3991 -1.93091 0
M  V30 1189 N 115.109 -6.57092 -2.1955 0
M  V30 1190 N 116.902 -5.27351 -1.94569 0
M  V30 1191 H 109.053 -2.10394 0.291212 0
M  V30 1192 H 111.316 -0.945575 0.0677609 0
M  V30 1193 H 111.022 -3.50031 -0.342229 0
M  V30 1194 H 110.896 -3.16038 -2.05913 0
M  V30 1195 H 113.283 -2.17032 -1.99953 0
M  V30 1196 H 113.364 -2.54352 -0.271814 0
M  V30 1197 H 113.008 -5.01375 -0.81149 0
M  V30 1198 H 112.938 -4.61004 -2.54525 0
M  V30 1199 H 115.429 -3.48441 -1.46277 0
M  V30 1200 H 115.742 -7.34425 -2.405 0
M  V30 1201 H 114.087 -6.60272 -2.16948 0
M  V30 1202 H 117.278 -4.34801 -1.73394 0
M  V30 1203 H 117.451 -6.10805 -2.16381 0
M  V30 1204 N 110.857 0.726932 -1.39834 0
M  V30 1205 C 111.787 1.85405 -1.41941 0
M  V30 1206 C 112.768 1.67751 -0.281728 0
M  V30 1207 O 113.953 1.8795 -0.488717 0
M  V30 1208 C 111.083 3.23243 -1.2701 0
M  V30 1209 C 110.037 3.55549 -2.38262 0
M  V30 1210 C 109.363 4.9241 -2.08415 0
M  V30 1211 C 110.663 3.577 -3.80589 0
M  V30 1212 H 112.357 1.83899 -2.36266 0
M  V30 1213 H 109.903 0.883349 -1.13723 0
M  V30 1214 H 111.856 4.01775 -1.27103 0
M  V30 1215 H 110.58 3.25296 -0.291564 0
M  V30 1216 H 109.239 2.79351 -2.37399 0
M  V30 1217 H 108.887 4.91052 -1.0898 0
M  V30 1218 H 108.587 5.14992 -2.82943 0
M  V30 1219 H 110.111 5.73289 -2.10171 0
M  V30 1220 H 111.525 4.26293 -3.83337 0
M  V30 1221 H 109.922 3.91804 -4.54543 0
M  V30 1222 H 110.992 2.57328 -4.10987 0
M  V30 1223 N 112.336 1.25143 0.95797 0
M  V30 1224 C 113.747 1.08851 1.51685 0
M  V30 1225 C 114.098 -0.33687 1.93286 0
M  V30 1226 O 113.223 -1.22644 1.7829 0
M  V30 1227 C 113.818 1.96978 2.75654 0
M  V30 1228 C 112.377 1.84881 3.27866 0
M  V30 1229 C 111.524 1.91329 2.0072 0
M  V30 1230 H 114.475 1.38478 0.77522 0
M  V30 1231 H 114.496 1.5078 3.4935 0
M  V30 1232 H 114.008 3.00712 2.45345 0
M  V30 1233 H 112.109 0.840182 3.63004 0
M  V30 1234 H 112.222 2.6951 3.96107 0
M  V30 1235 H 110.586 1.35174 2.15871 0
M  V30 1236 H 111.369 2.96661 1.72764 0
M  V30 1237 N 113.814 -1.1601 1.06675 0
M  V30 1238 C 115.225 -1.68235 0.809565 0
M  V30 1239 C 115.576 -1.8454 -0.666303 0
M  V30 1240 O 114.701 -1.54374 -1.5165 0
M  V30 1241 C 115.296 -3.05585 1.46299 0
M  V30 1242 C 113.855 -3.54915 1.25349 0
M  V30 1243 C 113.002 -2.30804 1.53703 0
M  V30 1244 H 115.953 -1.00318 1.22971 0
M  V30 1245 H 115.974 -3.70174 0.880431 0
M  V30 1246 H 115.486 -2.93686 2.53713 0
M  V30 1247 H 113.587 -3.72067 0.199261 0
M  V30 1248 H 113.7 -4.36774 1.9689 0
M  V30 1249 H 112.064 -2.36007 0.957739 0
M  V30 1250 H 112.847 -2.21499 2.62284 0
M  V30 1251 N 115.292 -0.849877 -1.32721 0
M  V30 1252 C 116.538 -0.460855 -1.9811 0
M  V30 1253 C 116.893 0.971716 -1.66059 0
M  V30 1254 O 116.186 1.67184 -0.935944 0
M  V30 1255 C 116.38 -0.631272 -3.51781 0
M  V30 1256 C 116.209 -2.07886 -3.98765 0
M  V30 1257 C 114.979 -2.71637 -4.26077 0
M  V30 1258 C 117.177 -3.04889 -4.14182 0
M  V30 1259 N 115.159 -4.07356 -4.59276 0
M  V30 1260 C 116.53 -4.25583 -4.50865 0
M  V30 1261 C 118.585 -3.01148 -3.96503 0
M  V30 1262 C 117.288 -5.43027 -4.71714 0
M  V30 1263 C 119.314 -4.17832 -4.18533 0
M  V30 1264 C 118.676 -5.37284 -4.55528 0
M  V30 1265 H 114.775 -0.217283 -0.751207 0
M  V30 1266 H 117.359 -1.10026 -1.60631 0
M  V30 1267 H 115.53 -0.0215966 -3.88394 0
M  V30 1268 H 117.262 -0.212614 -4.04141 0
M  V30 1269 H 114.017 -2.22705 -4.17971 0
M  V30 1270 H 114.441 -4.77351 -4.80068 0
M  V30 1271 H 119.083 -2.0992 -3.67006 0
M  V30 1272 H 116.801 -6.34791 -5.00066 0
M  V30 1273 H 120.387 -4.16368 -4.06361 0
M  V30 1274 H 119.267 -6.26071 -4.72234 0
M  V30 1275 N 116.77 1.45427 -0.607355 0
M  V30 1276 C 117.7 2.3329 0.0989352 0
M  V30 1277 C 118.681 1.46816 0.859007 0
M  V30 1278 O 119.866 1.75588 0.829604 0
M  V30 1279 C 116.996 3.29518 1.09705 0
M  V30 1280 C 115.95 4.25626 0.450206 0
M  V30 1281 C 115.276 5.11542 1.55655 0
M  V30 1282 C 116.576 5.18505 -0.628455 0
M  V30 1283 H 118.27 2.92595 -0.634716 0
M  V30 1284 H 115.816 1.40696 -0.306681 0
M  V30 1285 H 117.769 3.89855 1.59971 0
M  V30 1286 H 116.493 2.68372 1.86129 0
M  V30 1287 H 115.152 3.66586 -0.0315886 0
M  V30 1288 H 114.8 4.46765 2.31107 0
M  V30 1289 H 114.5 5.76647 1.12925 0
M  V30 1290 H 116.024 5.74748 2.06148 0
M  V30 1291 H 117.438 5.72916 -0.209877 0
M  V30 1292 H 115.835 5.92085 -0.977489 0
M  V30 1293 H 116.905 4.60948 -1.50514 0
M  V30 1294 N 118.248 0.346503 1.53744 0
M  V30 1295 C 119.195 -0.508914 2.25119 0
M  V30 1296 C 120.165 -1.09315 1.25058 0
M  V30 1297 O 121.35 -1.12921 1.53797 0
M  V30 1298 C 118.49 -1.65246 3.02965 0
M  V30 1299 C 117.603 -1.09525 4.17886 0
M  V30 1300 C 116.738 -2.20634 4.83212 0
M  V30 1301 C 115.777 -1.62279 5.90196 0
M  V30 1302 N 114.914 -2.67143 6.49291 0
M  V30 1303 H 119.754 0.106283 2.9781 0
M  V30 1304 H 117.291 0.0642227 1.4696 0
M  V30 1305 H 119.249 -2.32574 3.4636 0
M  V30 1306 H 117.879 -2.2386 2.32565 0
M  V30 1307 H 116.931 -0.312818 3.79112 0
M  V30 1308 H 118.243 -0.628444 4.94825 0
M  V30 1309 H 117.397 -2.95821 5.29693 0
M  V30 1310 H 116.136 -2.70659 4.05703 0
M  V30 1311 H 115.141 -0.855989 5.43096 0
M  V30 1312 H 116.366 -1.13102 6.69615 0
M  V30 1313 H 114.312 -3.16417 5.74645 0
M  V30 1314 H 114.229 -2.25093 7.21713 0
M  V30 1315 H 115.497 -3.4209 7.00425 0
M  V30 1316 N 119.726 -1.57421 0.075193 0
M  V30 1317 C 120.954 -1.97946 -0.602076 0
M  V30 1318 C 121.369 -0.953674 -1.62943 0
M  V30 1319 O 120.726 0.0592551 -1.82404 0
M  V30 1320 C 120.777 -3.38546 -1.26762 0
M  V30 1321 O 120.498 -4.37195 -0.281376 0
M  V30 1322 C 121.999 -3.93966 -2.03239 0
M  V30 1323 H 119.219 -0.650918 -0.162931 0
M  V30 1324 H 121.763 -2.03959 0.148601 0
M  V30 1325 H 119.918 -3.33609 -1.96936 0
M  V30 1326 H 120.332 -5.18975 -0.759267 0
M  V30 1327 H 121.806 -4.94555 -2.45193 0
M  V30 1328 H 122.283 -3.30693 -2.8903 0
M  V30 1329 H 122.889 -4.02315 -1.37924 0
M  V30 1330 N 121.204 0.198386 -1.56346 0
M  V30 1331 C 122.114 1.2664 -1.97483 0
M  V30 1332 C 123.13 1.49989 -0.882002 0
M  V30 1333 O 124.306 1.62668 -1.18748 0
M  V30 1334 C 121.371 2.59141 -2.30319 0
M  V30 1335 C 120.432 2.43892 -3.53292 0
M  V30 1336 C 119.665 3.70074 -3.84553 0
M  V30 1337 O 119.888 4.74101 -3.1715 0
M  V30 1338 O 118.822 3.658 -4.7799 0
M  V30 1339 H 122.648 0.947304 -2.88548 0
M  V30 1340 H 120.233 0.403123 -1.43859 0
M  V30 1341 H 122.115 3.37352 -2.5253 0
M  V30 1342 H 120.79 2.90684 -1.42423 0
M  V30 1343 H 119.697 1.63803 -3.36332 0
M  V30 1344 H 121.03 2.17282 -4.41644 0
M  V30 1345 N 122.682 1.50554 0.465978 0
M  V30 1346 C 123.931 1.61038 1.21448 0
M  V30 1347 C 124.244 0.31865 1.92987 0
M  V30 1348 O 125.45 0.302469 2.6981 0
M  V30 1349 C 123.906 2.84283 2.20706 0
M  V30 1350 C 123.514 4.20352 1.54946 0
M  V30 1351 C 125.258 3.04115 2.96166 0
M  V30 1352 C 123.165 5.34778 2.5252 0
M  V30 1353 H 122.095 0.599718 0.457005 0
M  V30 1354 H 124.746 1.7699 0.484424 0
M  V30 1355 H 123.128 2.61901 2.97025 0
M  V30 1356 H 124.302 4.53008 0.843811 0
M  V30 1357 H 122.617 4.06167 0.917475 0
M  V30 1358 H 125.214 3.86774 3.69202 0
M  V30 1359 H 125.557 2.16045 3.55852 0
M  V30 1360 H 126.09 3.26702 2.26959 0
M  V30 1361 H 122.829 6.25018 1.97566 0
M  V30 1362 H 122.349 5.06534 3.21222 0
M  V30 1363 H 124.028 5.65561 3.14245 0
M  V30 1364 N 124.16 -0.719506 1.40217 0
M  V30 1365 C 125.571 -1.29848 1.34151 0
M  V30 1366 C 125.922 -1.96196 0.0131349 0
M  V30 1367 O 125.047 -1.973 -0.88892 0
M  V30 1368 C 125.642 -2.36118 2.42968 0
M  V30 1369 C 124.201 -2.8965 2.40374 0
M  V30 1370 C 123.348 -1.63393 2.24049 0
M  V30 1371 H 126.299 -0.51591 1.5008 0
M  V30 1372 H 126.32 -3.16871 2.10649 0
M  V30 1373 H 125.832 -1.878 3.39636 0
M  V30 1374 H 123.933 -3.42208 1.47392 0
M  V30 1375 H 124.046 -3.4171 3.35814 0
M  V30 1376 H 122.41 -1.88312 1.71495 0
M  V30 1377 H 123.193 -1.17104 3.2271 0
M  V30 1378 N 125.638 -1.25649 -0.95132 0
M  V30 1379 C 126.571 -1.00644 -2.04807 0
M  V30 1380 C 127.549 0.0654271 -1.62468 0
M  V30 1381 O 128.733 -0.074911 -1.88351 0
M  V30 1382 C 125.86 -0.522052 -3.34653 0
M  V30 1383 C 124.906 -1.58495 -3.95957 0
M  V30 1384 S 125.739 -3.17108 -4.31512 0
M  V30 1385 C 126.895 -2.70412 -5.64471 0
M  V30 1386 H 127.128 -1.93508 -2.25703 0
M  V30 1387 H 124.661 -1.09216 -1.09139 0
M  V30 1388 H 126.619 -0.24923 -4.09743 0
M  V30 1389 H 125.28 0.386146 -3.11717 0
M  V30 1390 H 124.473 -1.1968 -4.89584 0
M  V30 1391 H 124.075 -1.80862 -3.2736 0
M  V30 1392 H 126.367 -2.14245 -6.42733 0
M  V30 1393 H 127.31 -3.62693 -6.08161 0
M  V30 1394 H 127.718 -2.10302 -5.23864 0
M  V30 1395 N 127.117 1.15442 -1.07289 0
M  V30 1396 C 128.365 1.85845 -0.794096 0
M  V30 1397 C 128.686 1.82692 0.681809 0
M  V30 1398 O 127.956 1.26741 1.49377 0
M  V30 1399 H 126.536 0.688089 -0.290763 0
M  V30 1400 H 129.198 1.39947 -1.3565 0
M  V30 1401 H 128.294 2.91001 -1.12804 0
M  V30 1402 N 128.595 0.856903 1.32268 0
M  V30 1403 C 129.542 0.301172 2.28827 0
M  V30 1404 C 130.512 -0.593104 1.5515 0
M  V30 1405 O 131.697 -0.527537 1.83362 0
M  V30 1406 C 128.837 -0.502523 3.41422 0
M  V30 1407 C 127.95 0.417797 4.29975 0
M  V30 1408 C 127.085 -0.398749 5.29701 0
M  V30 1409 C 126.124 0.518827 6.09897 0
M  V30 1410 N 125.261 -0.260674 7.01616 0
M  V30 1411 H 130.101 1.12983 2.75751 0
M  V30 1412 H 127.638 0.568582 1.35667 0
M  V30 1413 H 129.596 -0.984141 4.05426 0
M  V30 1414 H 128.226 -1.29599 2.95642 0
M  V30 1415 H 127.278 1.01781 3.66531 0
M  V30 1416 H 128.59 1.12191 4.86019 0
M  V30 1417 H 127.744 -0.943435 5.9932 0
M  V30 1418 H 126.483 -1.13622 4.7428 0
M  V30 1419 H 125.488 1.07538 5.39181 0
M  V30 1420 H 126.713 1.25495 6.67404 0
M  V30 1421 H 124.659 -0.981198 6.4862 0
M  V30 1422 H 124.576 0.384364 7.55022 0
M  V30 1423 H 125.844 -0.787014 7.75517 0
M  V30 1424 N 130.073 -1.45103 0.615059 0
M  V30 1425 C 131.021 -2.32331 -0.111791 0
M  V30 1426 C 132.015 -1.46409 -0.852102 0
M  V30 1427 O 133.221 -1.62849 -0.766821 0
M  V30 1428 H 129.596 -0.749993 -0.0549072 0
M  V30 1429 H 131.567 -2.91407 0.642225 0
M  V30 1430 C 130.316 -3.3015 -1.09071 0
M  V30 1431 H 129.639 -3.96265 -0.530485 0
M  V30 1432 H 131.079 -3.93898 -1.56908 0
M  V30 1433 C 129.538 -2.57875 -2.168 0
M  V30 1434 O 130.068 -2.36567 -3.24652 0
M  V30 1435 N 128.274 -2.17884 -1.92289 0
M  V30 1436 H 127.821 -2.35413 -1.04587 0
M  V30 1437 H 127.779 -1.6985 -2.64572 0
M  V30 1438 N 131.551 -0.354651 -1.53558 0
M  V30 1439 C 132.781 0.239167 -2.05211 0
M  V30 1440 C 133.189 1.43879 -1.22863 0
M  V30 1441 O 132.532 1.81857 -0.259565 0
M  V30 1442 C 132.594 0.707251 -3.52474 0
M  V30 1443 C 132.258 -0.374212 -4.55465 0
M  V30 1444 C 133.255 -1.22054 -5.0537 0
M  V30 1445 C 130.94 -0.531323 -4.99482 0
M  V30 1446 C 132.934 -2.20942 -5.97882 0
M  V30 1447 C 130.621 -1.52358 -5.91802 0
M  V30 1448 C 131.619 -2.36108 -6.40892 0
M  V30 1449 O 131.307 -3.33643 -7.31394 0
M  V30 1450 H 131.039 0.0479716 -0.674296 0
M  V30 1451 H 133.593 -0.508121 -1.99016 0
M  V30 1452 H 131.823 1.50596 -3.56171 0
M  V30 1453 H 133.512 1.22285 -3.87042 0
M  V30 1454 H 134.278 -1.1103 -4.7212 0
M  V30 1455 H 130.157 0.110738 -4.60867 0
M  V30 1456 H 133.701 -2.86348 -6.36121 0
M  V30 1457 H 129.598 -1.63434 -6.24467 0
M  V30 1458 H 130.366 -3.29244 -7.4936 0
M  V30 1459 N 133.029 1.57378 -0.0835403 0
M  V30 1460 C 133.977 2.14602 0.89714 0
M  V30 1461 C 134.971 1.08589 1.30018 0
M  V30 1462 O 136.177 1.26952 1.27606 0
M  V30 1463 H 132.552 0.686346 0.3073 0
M  V30 1464 H 134.523 2.95845 0.38969 0
M  V30 1465 C 133.272 2.73188 2.15089 0
M  V30 1466 H 132.595 3.54442 1.84962 0
M  V30 1467 H 134.035 3.1681 2.81793 0
M  V30 1468 C 132.494 1.68517 2.91725 0
M  V30 1469 O 133.024 1.11718 3.85852 0
M  V30 1470 N 131.23 1.39277 2.55049 0
M  V30 1471 H 130.777 1.85655 1.78577 0
M  V30 1472 H 130.735 0.694791 3.06627 0
M  V30 1473 N 134.507 -0.190092 1.56449 0
M  V30 1474 C 135.454 -1.23557 1.94942 0
M  V30 1475 C 136.424 -1.44972 0.810696 0
M  V30 1476 O 137.609 -1.58023 1.06927 0
M  V30 1477 C 134.749 -2.57416 2.2985 0
M  V30 1478 C 133.862 -2.43537 3.5681 0
M  V30 1479 C 132.997 -3.70134 3.81017 0
M  V30 1480 C 132.036 -3.51109 5.01387 0
M  V30 1481 N 131.173 -4.6973 5.21822 0
M  V30 1482 H 136.013 -0.900304 2.84075 0
M  V30 1483 H 133.55 -0.43318 1.40577 0
M  V30 1484 H 135.508 -3.35409 2.48106 0
M  V30 1485 H 134.138 -2.88975 1.43852 0
M  V30 1486 H 133.19 -1.56816 3.46573 0
M  V30 1487 H 134.502 -2.25415 4.4496 0
M  V30 1488 H 133.656 -4.56566 3.9954 0
M  V30 1489 H 132.395 -3.91215 2.91207 0
M  V30 1490 H 131.4 -2.63063 4.82782 0
M  V30 1491 H 132.625 -3.31468 5.9271 0
M  V30 1492 H 130.571 -4.91065 4.34961 0
M  V30 1493 H 130.488 -4.54452 6.0416 0
M  V30 1494 H 131.756 -5.57499 5.44808 0
M  V30 1495 N 135.985 -1.50799 -0.457987 0
M  V30 1496 C 136.915 -1.73553 -1.5621 0
M  V30 1497 C 137.896 -0.584774 -1.59732 0
M  V30 1498 O 139.081 -0.825314 -1.7579 0
M  V30 1499 C 136.211 -1.84169 -2.94447 0
M  V30 1500 C 135.165 -2.99461 -3.0579 0
M  V30 1501 C 134.491 -2.95235 -4.45803 0
M  V30 1502 C 135.791 -4.39766 -2.81786 0
M  V30 1503 H 137.485 -2.66 -1.37421 0
M  V30 1504 H 135.031 -1.28002 -0.659662 0
M  V30 1505 H 136.984 -1.98672 -3.71628 0
M  V30 1506 H 135.708 -0.883545 -3.14422 0
M  V30 1507 H 134.367 -2.8463 -2.31044 0
M  V30 1508 H 134.015 -1.97239 -4.62715 0
M  V30 1509 H 133.715 -3.72642 -4.54326 0
M  V30 1510 H 135.239 -3.11803 -5.24987 0
M  V30 1511 H 136.653 -4.55054 -3.4871 0
M  V30 1512 H 135.05 -5.18722 -3.0174 0
M  V30 1513 H 136.12 -4.51229 -1.7754 0
M  V30 1514 N 137.463 0.71206 -1.40597 0
M  V30 1515 C 138.41 1.82613 -1.41142 0
M  V30 1516 C 139.38 1.63925 -0.267903 0
M  V30 1517 O 140.565 1.85009 -0.466495 0
M  V30 1518 C 137.705 3.20354 -1.28324 0
M  V30 1519 C 136.818 3.50589 -2.52411 0
M  V30 1520 C 135.953 4.77855 -2.32009 0
M  V30 1521 C 134.992 5.01005 -3.51654 0
M  V30 1522 N 134.129 6.19487 -3.30425 0
M  V30 1523 H 138.969 1.81482 -2.36365 0
M  V30 1524 H 136.506 0.886475 -1.17388 0
M  V30 1525 H 138.464 3.99899 -1.18899 0
M  V30 1526 H 137.094 3.20705 -0.367189 0
M  V30 1527 H 136.146 2.65573 -2.72351 0
M  V30 1528 H 137.458 3.63604 -3.41458 0
M  V30 1529 H 136.612 5.65424 -2.19956 0
M  V30 1530 H 135.351 4.67056 -1.40392 0
M  V30 1531 H 134.356 4.1189 -3.64179 0
M  V30 1532 H 135.581 5.13674 -4.44202 0
M  V30 1533 H 133.527 6.09932 -2.41494 0
M  V30 1534 H 133.444 6.33194 -4.13039 0
M  V30 1535 H 134.712 7.09834 -3.22113 0
M  V30 1536 N 138.941 1.26152 0.944643 0
M  V30 1537 C 139.889 1.07215 2.06417 0
M  V30 1538 C 140.883 9.2007e-05 1.694 0
M  V30 1539 O 142.089 0.1565 1.79318 0
M  V30 1540 H 138.464 0.329837 0.675805 0
M  V30 1541 H 140.435 2.02099 2.19541 0
M  V30 1542 C 139.184 0.718197 3.40202 0
M  V30 1543 H 138.507 1.53497 3.69159 0
M  V30 1544 H 139.947 0.625459 4.19361 0
M  V30 1545 C 138.406 -0.576435 3.31932 0
M  V30 1546 O 138.936 -1.61574 3.67773 0
M  V30 1547 N 137.142 -0.565781 2.85039 0
M  V30 1548 H 136.689 0.280367 2.5607 0
M  V30 1549 H 136.647 -1.43213 2.79888 0
M  V30 1550 N 140.419 -1.14872 1.07899 0
M  V30 1551 C 141.647 -1.89661 0.82683 0
M  V30 1552 C 142.062 -1.78312 -0.620519 0
M  V30 1553 O 141.419 -1.13888 -1.42604 0
M  V30 1554 C 141.47 -3.39817 1.23316 0
M  V30 1555 O 141.191 -3.50845 2.62372 0
M  V30 1556 C 142.692 -4.31615 1.0111 0
M  V30 1557 H 139.912 -0.60092 0.298557 0
M  V30 1558 H 142.456 -1.4551 1.43691 0
M  V30 1559 H 140.611 -3.8161 0.667286 0
M  V30 1560 H 141.025 -4.44076 2.79101 0
M  V30 1561 H 142.499 -5.35367 1.34486 0
M  V30 1562 H 142.976 -4.39169 -0.0522168 0
M  V30 1563 H 143.582 -3.95572 1.56215 0
M  V30 1564 N 141.898 -0.863906 -1.31812 0
M  V30 1565 C 142.828 -0.330843 -2.31144 0
M  V30 1566 C 143.809 0.575005 -1.60087 0
M  V30 1567 O 144.994 0.493304 -1.8783 0
M  V30 1568 C 142.124 0.47374 -3.44054 0
M  V30 1569 C 141.078 -0.338481 -4.26659 0
M  V30 1570 C 140.404 0.591412 -5.31419 0
M  V30 1571 C 141.704 -1.56926 -4.98168 0
M  V30 1572 H 143.398 -1.16086 -2.75979 0
M  V30 1573 H 140.944 -0.559657 -1.32679 0
M  V30 1574 H 142.897 0.857143 -4.12591 0
M  V30 1575 H 141.621 1.33721 -2.9797 0
M  V30 1576 H 140.28 -0.703754 -3.59782 0
M  V30 1577 H 139.928 1.45199 -4.81587 0
M  V30 1578 H 139.628 0.0519022 -5.87577 0
M  V30 1579 H 141.152 0.97179 -6.02817 0
M  V30 1580 H 142.566 -1.25764 -5.59336 0
M  V30 1581 H 140.963 -2.04739 -5.64094 0
M  V30 1582 H 142.033 -2.32544 -4.25501 0
M  V30 1583 N 143.376 1.44774 -0.622745 0
M  V30 1584 C 144.792 1.56986 -0.287652 0
M  V30 1585 C 144.992 1.61167 1.20944 0
M  V30 1586 O 144.048 1.55015 1.99315 0
M  V30 1587 C 145.361 2.84551 -0.972188 0
M  V30 1588 C 146.909 2.9825 -0.949536 0
M  V30 1589 C 147.384 4.28605 -1.61437 0
M  V30 1590 N 148.875 4.35399 -1.58057 0
M  V30 1591 C 149.61 5.34964 -2.064 0
M  V30 1592 N 149.106 6.40981 -2.62897 0
M  V30 1593 N 150.899 5.26419 -1.97078 0
M  V30 1594 H 143.05 1.40304 -1.59463 0
M  V30 1595 H 145.313 0.671794 -0.668878 0
M  V30 1596 H 145.019 2.87417 -2.02693 0
M  V30 1597 H 144.893 3.73807 -0.504771 0
M  V30 1598 H 147.28 2.94941 0.0967067 0
M  V30 1599 H 147.361 2.10364 -1.45536 0
M  V30 1600 H 147.005 4.32672 -2.66002 0
M  V30 1601 H 146.935 5.15334 -1.08344 0
M  V30 1602 H 149.426 3.59397 -1.16801 0
M  V30 1603 H 149.739 7.13225 -2.97539 0
M  V30 1604 H 148.084 6.4169 -2.66943 0
M  V30 1605 H 151.275 4.42504 -1.52669 0
M  V30 1606 H 151.448 6.03861 -2.35066 0
M  V30 1607 N 144.854 0.36279 1.53368 0
M  V30 1608 C 145.802 -0.500155 2.27159 0
M  V30 1609 C 146.796 -1.08575 1.3003 0
M  V30 1610 O 148.002 -1.02927 1.47668 0
M  V30 1611 H 144.377 -0.180009 0.730138 0
M  V30 1612 H 146.348 0.14401 2.98052 0
M  V30 1613 C 145.097 -1.62937 3.07159 0
M  V30 1614 H 144.42 -1.18806 3.8174 0
M  V30 1615 H 145.86 -2.20795 3.61975 0
M  V30 1616 C 144.319 -2.57007 2.17829 0
M  V30 1617 O 144.849 -3.59752 1.78721 0
M  V30 1618 N 143.055 -2.26131 1.82518 0
M  V30 1619 H 142.602 -1.42616 2.14519 0
M  V30 1620 H 142.56 -2.89327 1.23034 0
M  V30 1621 N 146.332 -1.57332 0.0918853 0
M  V30 1622 C 147.262 -2.16872 -0.865371 0
M  V30 1623 C 148.243 -1.10118 -1.29646 0
M  V30 1624 O 149.428 -1.38242 -1.36392 0
M  V30 1625 C 146.558 -2.74649 -2.12569 0
M  V30 1626 C 145.512 -3.86747 -1.83333 0
M  V30 1627 C 144.838 -4.31212 -3.16166 0
M  V30 1628 C 146.138 -5.10089 -1.1228 0
M  V30 1629 H 147.832 -2.97114 -0.369307 0
M  V30 1630 H 145.378 -1.42918 -0.176194 0
M  V30 1631 H 147.331 -3.14952 -2.7997 0
M  V30 1632 H 146.055 -1.91657 -2.64452 0
M  V30 1633 H 144.714 -3.46978 -1.18331 0
M  V30 1634 H 144.362 -3.45115 -3.6593 0
M  V30 1635 H 144.062 -5.06788 -2.97388 0
M  V30 1636 H 145.586 -4.74146 -3.84731 0
M  V30 1637 H 147 -5.47582 -1.69785 0
M  V30 1638 H 145.397 -5.91073 -1.03693 0
M  V30 1639 H 146.467 -4.84786 -0.105041 0
M  V30 1640 N 147.81 0.181792 -1.56548 0
M  V30 1641 C 148.758 1.24461 -1.965 0
M  V30 1642 C 149.752 1.464 -0.852261 0
M  V30 1643 O 150.958 1.47103 -1.03733 0
M  V30 1644 H 147.333 0.418138 -0.625031 0
M  V30 1645 H 149.304 0.880714 -2.85107 0
M  V30 1646 C 148.053 2.57891 -2.33212 0
M  V30 1647 H 147.376 2.41829 -3.18369 0
M  V30 1648 H 148.816 3.3097 -2.65019 0
M  V30 1649 C 147.275 3.15871 -1.17163 0
M  V30 1650 O 147.805 3.9913 -0.453708 0
M  V30 1651 N 146.011 2.74808 -0.944936 0
M  V30 1652 H 145.558 2.07205 -1.53049 0
M  V30 1653 H 145.516 3.13939 -0.170286 0
M  V30 1654 N 149.288 1.51039 0.449983 0
M  V30 1655 C 150.218 1.74379 1.55288 0
M  V30 1656 C 151.199 0.593236 1.5942 0
M  V30 1657 O 152.384 0.834625 1.7535 0
M  V30 1658 C 149.514 1.85728 2.93466 0
M  V30 1659 C 148.468 3.01078 3.04197 0
M  V30 1660 C 147.794 2.97595 4.44231 0
M  V30 1661 C 149.094 4.41254 2.7945 0
M  V30 1662 H 150.788 2.66725 1.36008 0
M  V30 1663 H 148.334 1.2835 0.652864 0
M  V30 1664 H 150.287 2.0064 3.70569 0
M  V30 1665 H 149.011 0.900207 3.13949 0
M  V30 1666 H 147.67 2.85851 2.29531 0
M  V30 1667 H 147.318 1.99691 4.61663 0
M  V30 1668 H 147.018 3.75046 4.52343 0
M  V30 1669 H 148.542 3.14583 5.23326 0
M  V30 1670 H 149.956 4.56897 3.46292 0
M  V30 1671 H 148.353 5.20315 2.98985 0
M  V30 1672 H 149.423 4.52164 1.75144 0
M  V30 1673 N 150.766 -0.704594 1.40972 0
M  V30 1674 C 151.716 -1.81051 1.38581 0
M  V30 1675 C 152.7 -1.58759 0.261585 0
M  V30 1676 O 153.892 -1.69745 0.501556 0
M  V30 1677 C 151.021 -3.19279 1.26157 0
M  V30 1678 C 150.107 -3.47296 2.43405 0
M  V30 1679 N 150.498 -3.46064 3.68881 0
M  V30 1680 C 148.796 -3.77804 2.37023 0
M  V30 1681 C 149.497 -3.72733 4.46592 0
M  V30 1682 N 148.473 -3.9203 3.76581 0
M  V30 1683 H 152.275 -1.78448 2.33525 0
M  V30 1684 H 149.789 -0.904198 1.349 0
M  V30 1685 H 151.786 -3.98488 1.22526 0
M  V30 1686 H 150.446 -3.231 0.321902 0
M  V30 1687 H 151.457 -3.26656 4.01891 0
M  V30 1688 H 148.134 -3.8905 1.51481 0
M  V30 1689 H 149.524 -3.77993 5.55492 0
M  V30 1690 N 152.244 -1.26651 -0.937939 0
M  V30 1691 C 153.472 -1.15173 -1.7188 0
M  V30 1692 C 153.887 0.292668 -1.86518 0
M  V30 1693 O 153.244 1.20014 -1.37488 0
M  V30 1694 C 153.295 -1.81925 -3.12387 0
M  V30 1695 O 153.016 -3.2072 -2.98446 0
M  V30 1696 C 154.517 -1.76442 -4.06673 0
M  V30 1697 H 151.737 -0.400911 -0.538063 0
M  V30 1698 H 154.281 -1.67332 -1.1756 0
M  V30 1699 H 152.436 -1.33696 -3.63599 0
M  V30 1700 H 152.85 -3.53802 -3.872 0
M  V30 1701 H 154.324 -2.27781 -5.02812 0
M  V30 1702 H 154.801 -0.731608 -4.33064 0
M  V30 1703 H 155.407 -2.24238 -3.61382 0
M  V30 1704 N 153.722 1.14298 -1.08507 0
M  V30 1705 C 154.968 1.85633 -0.816581 0
M  V30 1706 C 155.301 1.82784 0.656021 0
M  V30 1707 O 154.576 1.25926 1.48233 0
M  V30 1708 C 154.859 3.34223 -1.34041 0
M  V30 1709 C 154.712 3.45639 -2.87843 0
M  V30 1710 C 156.031 4.29356 -0.9665 0
M  V30 1711 H 153.15 0.67402 -0.298104 0
M  V30 1712 H 155.792 1.34214 -1.34487 0
M  V30 1713 H 153.942 3.78144 -0.89104 0
M  V30 1714 H 155.614 3.10498 -3.41158 0
M  V30 1715 H 153.857 2.86817 -3.25451 0
M  V30 1716 H 154.528 4.50089 -3.19569 0
M  V30 1717 H 157.004 3.93457 -1.35391 0
M  V30 1718 H 155.88 5.3178 -1.3602 0
M  V30 1719 H 156.141 4.41919 0.126362 0
M  V30 1720 N 155.201 0.870884 1.31352 0
M  V30 1721 C 156.441 0.488783 1.9847 0
M  V30 1722 C 156.805 -0.941536 1.67329 0
M  V30 1723 O 158.006 -1.42903 2.27667 0
M  V30 1724 C 156.277 0.739688 3.49662 0
M  V30 1725 S 157.836 0.457582 4.36408 0
M  V30 1726 H 154.654 0.18242 0.6872 0
M  V30 1727 H 157.256 1.12711 1.59739 0
M  V30 1728 H 155.96 1.77944 3.69816 0
M  V30 1729 H 155.491 0.0883905 3.93301 0
M  V30 1730 H 157.506 -0.709752 4.91098 0
M  V30 1731 N 156.679 -1.44442 0.630414 0
M  V30 1732 C 157.589 -2.34476 -0.0761693 0
M  V30 1733 C 158.605 -1.52576 -0.836449 0
M  V30 1734 O 159.781 -1.85307 -0.788874 0
M  V30 1735 C 156.846 -3.30545 -1.04599 0
M  V30 1736 C 155.907 -4.28352 -0.28516 0
M  V30 1737 C 155.14 -5.19831 -1.20878 0
M  V30 1738 O 155.363 -5.15223 -2.44747 0
M  V30 1739 O 154.297 -5.97892 -0.693491 0
M  V30 1740 H 158.123 -2.96345 0.664324 0
M  V30 1741 H 155.708 -1.44203 0.39061 0
M  V30 1742 H 157.59 -3.89681 -1.60396 0
M  V30 1743 H 156.265 -2.7121 -1.76711 0
M  V30 1744 H 155.172 -3.72764 0.315837 0
M  V30 1745 H 156.505 -4.90605 0.395924 0
M  V30 1746 N 158.157 -0.370918 -1.53173 0
M  V30 1747 C 159.067 0.480823 -2.2962 0
M  V30 1748 C 160.083 1.08789 -1.35798 0
M  V30 1749 O 161.259 1.09768 -1.68858 0
M  V30 1750 C 158.324 1.60227 -3.07454 0
M  V30 1751 C 157.385 1.0222 -4.16953 0
M  V30 1752 C 156.618 2.0902 -4.91066 0
M  V30 1753 O 156.841 3.30222 -4.65091 0
M  V30 1754 O 155.775 1.71778 -5.76867 0
M  V30 1755 H 159.601 -0.141421 -3.03371 0
M  V30 1756 H 157.186 -0.135146 -1.48787 0
M  V30 1757 H 159.068 2.25417 -3.56041 0
M  V30 1758 H 157.743 2.20982 -2.36535 0
M  V30 1759 H 156.65 0.334064 -3.72605 0
M  V30 1760 H 157.983 0.459131 -4.90054 0
M  V30 1761 N 159.635 1.57281 -0.100228 0
M  V30 1762 C 160.598 2.13158 0.842398 0
M  V30 1763 C 161.598 1.06202 1.20738 0
M  V30 1764 O 162.788 1.32066 1.13597 0
M  V30 1765 C 159.92 2.65639 2.13655 0
M  V30 1766 H 161.113 2.97766 0.357114 0
M  V30 1767 H 158.666 1.5559 0.148823 0
M  V30 1768 H 159.401 1.84566 2.66657 0
M  V30 1769 H 159.186 3.43844 1.88451 0
M  V30 1770 H 160.676 3.08846 2.81077 0
M  V30 1771 N 161.113 -0.173488 1.56642 0
M  V30 1772 C 162.529 -0.525174 1.50712 0
M  V30 1773 C 162.729 -1.8476 0.804107 0
M  V30 1774 O 161.785 -2.49869 0.363574 0
M  V30 1775 C 163.098 -0.559937 2.95441 0
M  V30 1776 C 164.646 -0.647288 3.06234 0
M  V30 1777 C 165.121 -0.712963 4.52417 0
M  V30 1778 N 166.612 -0.775911 4.56655 0
M  V30 1779 C 167.347 -0.847264 5.67106 0
M  V30 1780 N 166.843 -0.879585 6.87194 0
M  V30 1781 N 168.636 -0.886117 5.55071 0
M  V30 1782 H 160.787 0.693681 2.00753 0
M  V30 1783 H 163.05 0.249841 0.914485 0
M  V30 1784 H 162.756 0.343049 3.50023 0
M  V30 1785 H 162.63 -1.40718 3.49969 0
M  V30 1786 H 165.017 -1.5407 2.51687 0
M  V30 1787 H 165.098 0.226586 2.54794 0
M  V30 1788 H 164.742 0.176183 5.07594 0
M  V30 1789 H 164.672 -1.60295 5.0161 0
M  V30 1790 H 167.163 -0.759304 3.70193 0
M  V30 1791 H 167.476 -0.935144 7.67121 0
M  V30 1792 H 165.821 -0.847898 6.89808 0
M  V30 1793 H 169.012 -0.857853 4.60172 0
M  V30 1794 H 169.185 -0.938263 6.41171 0
M  V30 1795 N 162.591 -1.51276 -0.441967 0
M  V30 1796 C 163.831 -1.65372 -1.20132 0
M  V30 1797 C 164.195 -0.359871 -1.88597 0
M  V30 1798 O 165.396 -0.376551 -2.66149 0
M  V30 1799 C 163.667 -2.8207 -2.1948 0
M  V30 1800 S 165.226 -3.16467 -3.03964 0
M  V30 1801 H 162.044 -0.582669 -0.407453 0
M  V30 1802 H 164.646 -1.89166 -0.493609 0
M  V30 1803 H 163.35 -3.74523 -1.67812 0
M  V30 1804 H 162.881 -2.6045 -2.94838 0
M  V30 1805 H 164.896 -2.62543 -4.21053 0
M  V30 1806 N 164.069 0.697108 -1.41344 0
M  V30 1807 C 165.48 1.27697 -1.36199 0
M  V30 1808 C 165.831 1.9615 -0.0443463 0
M  V30 1809 O 164.956 1.98689 0.857419 0
M  V30 1810 C 165.551 2.32223 -2.46694 0
M  V30 1811 C 164.11 2.8579 -2.44952 0
M  V30 1812 C 163.257 1.59807 -2.26621 0
M  V30 1813 H 166.208 0.491968 -1.50882 0
M  V30 1814 H 166.229 3.1348 -2.15664 0
M  V30 1815 H 165.741 1.82373 -3.42581 0
M  V30 1816 H 163.842 3.3982 -1.52817 0
M  V30 1817 H 163.955 3.36325 -3.41207 0
M  V30 1818 H 162.319 1.8556 -1.7447 0
M  V30 1819 H 163.102 1.11956 -3.24532 0
M  V30 1820 N 165.547 1.27147 0.931209 0
M  V30 1821 C 166.495 1.09398 2.05268 0
M  V30 1822 C 167.489 0.0180591 1.6939 0
M  V30 1823 O 168.695 0.17551 1.79142 0
M  V30 1824 H 165.07 0.336986 0.672268 0
M  V30 1825 H 167.041 2.04416 2.17386 0
M  V30 1826 C 165.79 0.75424 3.39421 0
M  V30 1827 H 165.113 1.57404 3.67511 0
M  V30 1828 H 166.553 0.669903 4.18674 0
M  V30 1829 C 165.012 -0.541197 3.32525 0
M  V30 1830 O 165.542 -1.57664 3.69466 0
M  V30 1831 N 163.748 -0.535517 2.85623 0
M  V30 1832 H 163.295 0.307511 2.55758 0
M  V30 1833 H 163.253 -1.40236 2.81392 0
M  V30 1834 N 167.025 -1.13721 1.09112 0
M  V30 1835 C 168.274 -1.84275 0.82009 0
M  V30 1836 C 168.587 -1.84253 -0.656509 0
M  V30 1837 O 169.793 -2.50668 -1.04296 0
M  V30 1838 C 168.249 -3.30825 1.41714 0
M  V30 1839 C 167.857 -3.39244 2.92605 0
M  V30 1840 C 169.601 -4.06443 1.22492 0
M  V30 1841 C 167.508 -4.80047 3.45411 0
M  V30 1842 H 166.438 -0.690387 0.30312 0
M  V30 1843 H 169.089 -1.28146 1.31343 0
M  V30 1844 H 167.471 -3.86737 0.851498 0
M  V30 1845 H 168.645 -2.93344 3.55367 0
M  V30 1846 H 166.96 -2.77088 3.10823 0
M  V30 1847 H 169.557 -5.10387 1.59402 0
M  V30 1848 H 169.9 -4.15972 0.165299 0
M  V30 1849 H 170.433 -3.56852 1.75788 0
M  V30 1850 H 167.172 -4.75709 4.50978 0
M  V30 1851 H 166.692 -5.26455 2.87411 0
M  V30 1852 H 168.371 -5.48957 3.42425 0
M  V30 1853 N 168.503 -0.877838 -1.30888 0
M  V30 1854 C 169.751 -0.491723 -1.96027 0
M  V30 1855 C 170.072 0.960827 -1.69685 0
M  V30 1856 O 169.342 1.67462 -1.01654 0
M  V30 1857 H 167.922 -0.17885 -0.725273 0
M  V30 1858 H 170.584 -1.11935 -1.59551 0
M  V30 1859 H 169.68 -0.656016 -3.05128 0
M  V30 1860 N 169.982 1.44106 -0.638065 0
M  V30 1861 C 170.892 2.34513 0.0637334 0
M  V30 1862 C 171.908 1.53018 0.828346 0
M  V30 1863 O 173.084 1.85723 0.779036 0
M  V30 1864 C 170.149 3.31095 1.02844 0
M  V30 1865 C 169.21 4.28497 0.26244 0
M  V30 1866 C 168.443 5.20465 1.1812 0
M  V30 1867 O 168.666 5.16514 2.42011 0
M  V30 1868 O 167.6 5.98251 0.661774 0
M  V30 1869 H 171.426 2.95989 -0.68003 0
M  V30 1870 H 169.011 1.43994 -0.398252 0
M  V30 1871 H 170.893 3.90526 1.58327 0
M  V30 1872 H 169.568 2.72144 1.7527 0
M  V30 1873 H 168.475 3.72592 -0.335602 0
M  V30 1874 H 169.808 4.90388 -0.421936 0
M  V30 1875 N 171.46 0.379036 1.52974 0
M  V30 1876 C 172.7 -0.206325 2.03356 0
M  V30 1877 C 173.064 -1.44892 1.25977 0
M  V30 1878 O 174.265 -2.11078 1.66432 0
M  V30 1879 C 172.536 -0.477887 3.54191 0
M  V30 1880 S 174.095 -1.035 4.26419 0
M  V30 1881 H 170.913 -0.0590259 0.708546 0
M  V30 1882 H 173.515 0.525013 1.88319 0
M  V30 1883 H 172.219 0.433745 4.08101 0
M  V30 1884 H 171.75 -1.23793 3.73415 0
M  V30 1885 H 173.765 -2.31821 4.38718 0
M  V30 1886 N 172.938 -1.57226 0.108567 0
M  V30 1887 C 174.184 -1.95919 -0.546564 0
M  V30 1888 C 174.539 -0.990417 -1.6495 0
M  V30 1889 O 173.832 -0.0186593 -1.91591 0
M  V30 1890 C 174.026 -3.38911 -1.13463 0
M  V30 1891 C 173.855 -4.4961 -0.0901926 0
M  V30 1892 C 172.625 -5.04168 0.338008 0
M  V30 1893 C 174.823 -5.09693 0.686808 0
M  V30 1894 N 172.805 -5.98434 1.36931 0
M  V30 1895 C 174.176 -5.99804 1.56958 0
M  V30 1896 C 176.231 -4.92388 0.738846 0
M  V30 1897 C 174.934 -6.74463 2.49983 0
M  V30 1898 C 176.96 -5.67719 1.65676 0
M  V30 1899 C 176.322 -6.57507 2.52713 0
M  V30 1900 H 172.421 -0.763312 -0.169936 0
M  V30 1901 H 175.005 -1.93728 0.194264 0
M  V30 1902 H 173.176 -3.41769 -1.84522 0
M  V30 1903 H 174.908 -3.64752 -1.75322 0
M  V30 1904 H 171.663 -4.73571 -0.0523673 0
M  V30 1905 H 172.087 -6.5027 1.88356 0
M  V30 1906 H 176.729 -4.22724 0.080084 0
M  V30 1907 H 174.447 -7.4338 3.16878 0
M  V30 1908 H 178.033 -5.56338 1.70233 0
M  V30 1909 H 176.913 -7.14778 3.22586 0
M  V30 1910 N 174.416 0.165178 -1.56732 0
M  V30 1911 C 175.664 0.879068 -1.8198 0
M  V30 1912 C 175.985 1.82514 -0.686561 0
M  V30 1913 O 175.255 1.93694 0.293146 0
M  V30 1914 H 173.835 0.327608 -0.671329 0
M  V30 1915 H 176.497 0.163526 -1.94213 0
M  V30 1916 H 175.593 1.45228 -2.76252 0
M  V30 1917 N 175.894 1.51508 0.433938 0
M  V30 1918 C 177.142 1.6402 1.18075 0
M  V30 1919 C 177.463 0.360328 1.91642 0
M  V30 1920 O 176.733 -0.623945 1.85698 0
M  V30 1921 H 175.313 0.6045 0.43885 0
M  V30 1922 H 177.975 1.88452 0.497178 0
M  V30 1923 H 177.071 2.46949 1.90847 0
M  V30 1924 N 177.372 -0.689602 1.41712 0
M  V30 1925 C 178.62 -1.4468 1.4111 0
M  V30 1926 C 178.941 -1.94986 0.0232196 0
M  V30 1927 O 178.211 -1.72097 -0.935913 0
M  V30 1928 H 176.791 -0.536847 0.519427 0
M  V30 1929 H 179.453 -0.815825 1.77004 0
M  V30 1930 H 178.549 -2.30706 2.10193 0
M  V30 1931 N 178.85 -1.27639 -0.924453 0
M  V30 1932 C 179.76 -1.12466 -2.05885 0
M  V30 1933 C 180.776 -0.053869 -1.73917 0
M  V30 1934 O 181.952 -0.261012 -1.99702 0
M  V30 1935 C 179.017 -0.776768 -3.37886 0
M  V30 1936 C 178.078 -1.92878 -3.83532 0
M  V30 1937 C 177.311 -1.59739 -5.09234 0
M  V30 1938 O 177.534 -0.506782 -5.68144 0
M  V30 1939 O 176.468 -2.43761 -5.50331 0
M  V30 1940 H 180.294 -2.07671 -2.21599 0
M  V30 1941 H 177.879 -1.06857 -1.04413 0
M  V30 1942 H 179.761 -0.596229 -4.17161 0
M  V30 1943 H 178.436 0.145732 -3.23372 0
M  V30 1944 H 177.343 -2.1644 -3.0513 0
M  V30 1945 H 178.676 -2.8316 -4.02593 0
M  V30 1946 N 180.328 1.1314 -1.09713 0
M  V30 1947 C 181.558 1.88048 -0.855656 0
M  V30 1948 C 181.966 1.79537 0.596919 0
M  V30 1949 O 181.309 1.16196 1.42282 0
M  V30 1950 C 181.371 3.38314 -1.21589 0
M  V30 1951 C 181.035 3.70605 -2.67397 0
M  V30 1952 C 182.032 3.69596 -3.65643 0
M  V30 1953 C 179.717 4.0017 -3.03593 0
M  V30 1954 C 181.711 3.977 -4.9811 0
M  V30 1955 C 179.398 4.27935 -4.36251 0
M  V30 1956 C 180.396 4.26685 -5.33318 0
M  V30 1957 O 180.084 4.53767 -6.63589 0
M  V30 1958 H 179.816 0.60208 -0.307368 0
M  V30 1959 H 182.37 1.44128 -1.46343 0
M  V30 1960 H 180.6 3.82752 -0.551177 0
M  V30 1961 H 182.289 3.94552 -0.953083 0
M  V30 1962 H 183.055 3.46826 -3.39023 0
M  V30 1963 H 178.934 4.00289 -2.2867 0
M  V30 1964 H 182.478 3.9664 -5.73866 0
M  V30 1965 H 178.375 4.50178 -4.62613 0
M  V30 1966 H 179.143 4.71422 -6.69107 0
M  V30 1967 N 181.806 0.884767 1.30421 0
M  V30 1968 C 182.769 0.356277 2.26414 0
M  V30 1969 C 183.769 -0.501124 1.52792 0
M  V30 1970 O 184.959 -0.30831 1.7145 0
M  V30 1971 C 182.091 -0.492316 3.37326 0
M  V30 1972 H 183.284 1.20389 2.74675 0
M  V30 1973 H 180.837 0.661607 1.41607 0
M  V30 1974 H 181.572 -1.36052 2.94381 0
M  V30 1975 H 181.357 0.121832 3.91911 0
M  V30 1976 H 182.847 -0.853871 4.08777 0
M  V30 1977 N 183.284 -1.43765 0.645699 0
M  V30 1978 C 184.512 -2.06253 0.163556 0
M  V30 1979 C 184.927 -1.48352 -1.16778 0
M  V30 1980 O 184.284 -0.611932 -1.71935 0
M  V30 1981 C 184.335 -3.61453 0.0583186 0
M  V30 1982 O 184.056 -4.172 1.33702 0
M  V30 1983 C 185.557 -4.41002 -0.450795 0
M  V30 1984 H 182.777 -0.665413 0.0864077 0
M  V30 1985 H 185.321 -1.84396 0.884222 0
M  V30 1986 H 183.476 -3.82522 -0.612865 0
M  V30 1987 H 183.89 -5.10791 1.19131 0
M  V30 1988 H 185.364 -5.49966 -0.473403 0
M  V30 1989 H 185.841 -4.13488 -1.48068 0
M  V30 1990 H 186.447 -4.24886 0.187637 0
M  V30 1991 N 184.763 -0.387143 -1.52771 0
M  V30 1992 C 185.726 0.436939 -2.24997 0
M  V30 1993 C 186.726 0.991991 -1.26555 0
M  V30 1994 O 187.916 0.874335 -1.50669 0
M  V30 1995 C 185.048 1.61281 -3.00335 0
M  V30 1996 H 186.241 -0.195365 -2.99263 0
M  V30 1997 H 183.794 -0.139218 -1.55679 0
M  V30 1998 H 184.529 2.2826 -2.30364 0
M  V30 1999 H 184.314 1.22154 -3.72587 0
M  V30 2000 H 185.804 2.19629 -3.5518 0
M  V30 2001 N 186.241 1.57166 -0.116904 0
M  V30 2002 C 187.469 1.99473 0.549383 0
M  V30 2003 C 187.884 0.996541 1.60357 0
M  V30 2004 O 187.241 -0.0108731 1.82497 0
M  V30 2005 C 187.292 3.41788 1.17741 0
M  V30 2006 O 187.013 4.37788 0.165362 0
M  V30 2007 C 188.514 3.99216 1.92722 0
M  V30 2008 H 185.734 0.655009 0.145616 0
M  V30 2009 H 188.278 2.03494 -0.202625 0
M  V30 2010 H 186.433 3.38713 1.88021 0
M  V30 2011 H 186.847 5.20806 0.621403 0
M  V30 2012 H 188.321 5.00882 2.31995 0
M  V30 2013 H 188.798 3.3824 2.80161 0
M  V30 2014 H 189.404 4.0583 1.27209 0
M  V30 2015 N 187.719 -0.156864 1.56817 0
M  V30 2016 C 188.682 -1.17781 1.96622 0
M  V30 2017 C 189.682 -1.36401 0.851555 0
M  V30 2018 O 190.872 -1.33561 1.11836 0
M  V30 2019 C 188.004 -2.54008 2.27361 0
M  V30 2020 H 189.197 -0.836564 2.87996 0
M  V30 2021 H 186.75 -0.39985 1.51099 0
M  V30 2022 H 187.485 -2.9312 1.38748 0
M  V30 2023 H 187.27 -2.41856 3.08623 0
M  V30 2024 H 188.76 -3.27558 2.59029 0
M  V30 2025 N 189.197 -1.51736 -0.425897 0
M  V30 2026 C 190.425 -1.68794 -1.1965 0
M  V30 2027 C 190.84 -0.390164 -1.84725 0
M  V30 2028 O 190.197 0.632376 -1.71194 0
M  V30 2029 C 190.248 -2.81174 -2.27208 0
M  V30 2030 O 189.969 -4.05925 -1.64793 0
M  V30 2031 C 191.47 -3.09599 -3.17275 0
M  V30 2032 H 188.69 -0.566128 -0.360194 0
M  V30 2033 H 191.234 -1.98211 -0.503249 0
M  V30 2034 H 189.389 -2.54324 -2.9223 0
M  V30 2035 H 189.803 -4.68423 -2.35967 0
M  V30 2036 H 191.277 -3.91786 -3.88854 0
M  V30 2037 H 191.754 -2.22468 -3.78688 0
M  V30 2038 H 192.36 -3.38151 -2.57941 0
M  V30 2039 N 190.675 0.682077 -1.42076 0
M  V30 2040 C 191.924 1.43786 -1.41451 0
M  V30 2041 C 192.237 1.95574 -0.0317074 0
M  V30 2042 O 193.443 2.71326 0.0971462 0
M  V30 2043 C 191.899 2.60071 -2.48779 0
M  V30 2044 C 191.507 2.15013 -3.93031 0
M  V30 2045 C 193.251 3.37626 -2.57311 0
M  V30 2046 C 191.158 3.28336 -4.91883 0
M  V30 2047 H 190.088 0.540143 -0.526082 0
M  V30 2048 H 192.739 0.739157 -1.67955 0
M  V30 2049 H 191.121 3.32275 -2.15429 0
M  V30 2050 H 192.295 1.5001 -4.35699 0
M  V30 2051 H 190.61 1.50416 -3.88284 0
M  V30 2052 H 193.207 4.22012 -3.28345 0
M  V30 2053 H 193.55 3.83727 -1.61429 0
M  V30 2054 H 194.083 2.72488 -2.89819 0
M  V30 2055 H 190.822 2.87234 -5.89217 0
M  V30 2056 H 190.342 3.92145 -4.53853 0
M  V30 2057 H 192.021 3.93913 -5.13265 0
M  V30 2058 N 192.153 1.28127 0.917671 0
M  V30 2059 C 193.086 1.06039 2.02067 0
M  V30 2060 C 194.064 -0.0223285 1.62585 0
M  V30 2061 O 195.248 0.124823 1.88086 0
M  V30 2062 C 192.375 0.610596 3.33151 0
M  V30 2063 C 191.421 1.68937 3.91615 0
M  V30 2064 S 192.254 3.28437 4.22953 0
M  V30 2065 C 193.41 2.85283 5.57103 0
M  V30 2066 H 193.643 1.99425 2.20493 0
M  V30 2067 H 191.176 1.12071 1.06205 0
M  V30 2068 H 193.134 0.357778 4.08938 0
M  V30 2069 H 191.795 -0.303364 3.12632 0
M  V30 2070 H 190.988 1.32619 4.86239 0
M  V30 2071 H 190.59 1.89478 3.2245 0
M  V30 2072 H 192.882 2.3121 6.36827 0
M  V30 2073 H 193.825 3.7869 5.98331 0
M  V30 2074 H 194.233 2.24118 5.18104 0
M  V30 2075 N 193.631 -1.12557 1.10312 0
M  V30 2076 C 194.561 -2.20341 0.772798 0
M  V30 2077 C 195.542 -1.68198 -0.25365 0
M  V30 2078 O 196.727 -1.93831 -0.119699 0
M  V30 2079 C 193.857 -3.46709 0.202443 0
M  V30 2080 C 192.811 -4.11996 1.15943 0
M  V30 2081 C 192.137 -5.328 0.450345 0
M  V30 2082 C 193.437 -4.5828 2.50552 0
M  V30 2083 H 195.131 -2.48229 1.674 0
M  V30 2084 H 192.677 -1.19308 0.806326 0
M  V30 2085 H 194.63 -4.2138 -0.0407752 0
M  V30 2086 H 193.354 -3.18245 -0.734001 0
M  V30 2087 H 192.013 -3.39305 1.38808 0
M  V30 2088 H 191.661 -5.00602 -0.490531 0
M  V30 2089 H 191.361 -5.7743 1.08851 0
M  V30 2090 H 192.885 -6.10219 0.215642 0
M  V30 2091 H 194.299 -5.2433 2.31843 0
M  V30 2092 H 192.696 -5.13683 3.10242 0
M  V30 2093 H 193.766 -3.72329 3.10643 0
M  V30 2094 N 195.109 -0.891671 -1.2995 0
M  V30 2095 C 196.042 -0.307994 -2.26112 0
M  V30 2096 C 197.02 0.575262 -1.52084 0
M  V30 2097 O 198.204 0.523864 -1.81074 0
M  V30 2098 C 195.331 0.561734 -3.34009 0
M  V30 2099 C 194.377 -0.253107 -4.25748 0
M  V30 2100 S 195.21 -1.64572 -5.09584 0
M  V30 2101 C 196.366 -0.782699 -6.20987 0
M  V30 2102 H 196.599 -1.12309 -2.75271 0
M  V30 2103 H 194.132 -0.691509 -1.38049 0
M  V30 2104 H 196.09 1.05777 -3.96638 0
M  V30 2105 H 194.751 1.35099 -2.83561 0
M  V30 2106 H 193.944 0.410908 -5.02322 0
M  V30 2107 H 193.546 -0.682004 -3.67729 0
M  V30 2108 H 195.838 -0.00257476 -6.775 0
M  V30 2109 H 196.781 -1.52026 -6.91588 0
M  V30 2110 H 197.189 -0.340638 -5.63471 0
M  V30 2111 N 196.587 1.43421 -0.653314 0
M  V30 2112 C 197.835 2.01414 -0.166415 0
M  V30 2113 C 198.156 1.51803 1.22397 0
M  V30 2114 O 197.426 0.730693 1.81763 0
M  V30 2115 H 196.006 0.744703 -0.0585319 0
M  V30 2116 H 198.668 1.75629 -0.845003 0
M  V30 2117 H 197.764 3.11734 -0.151111 0
M  V30 2118 N 198.065 0.39524 1.52563 0
M  V30 2119 C 199.342 -0.242908 1.94086 0
M  V30 2120 C 199.722 -1.63841 1.33114 0
M  V30 2121 O 199.07 -2.22928 0.501529 0
M  V30 2122 C 199.28 -0.26327 3.48006 0
M  V30 2123 C 200.628 -0.489354 4.21771 0
M  V30 2124 O 201.652 -0.343226 3.54543 0
M  V30 2125 O 200.511 -0.776169 5.4096 0
M  V30 2126 H 197.605 -0.152536 0.812811 0
M  V30 2127 H 200.151 0.450178 1.6362 0
M  V30 2128 H 198.923 0.713985 3.84731 0
M  V30 2129 H 198.546 -1.00103 3.84792 0
M  V30 2130 N 199.544 -1.57102 0.125237 0
M  V30 2131 C 200.772 -1.99761 -0.538797 0
M  V30 2132 C 201.187 -1.00503 -1.59827 0
M  V30 2133 O 200.544 0.00119474 -1.825 0
M  V30 2134 C 200.595 -3.42408 -1.15927 0
M  V30 2135 O 200.316 -4.37869 -0.142143 0
M  V30 2136 C 201.817 -4.00232 -1.90602 0
M  V30 2137 H 199.037 -0.655772 -0.14214 0
M  V30 2138 H 201.581 -2.03383 0.213413 0
M  V30 2139 H 199.736 -3.39706 -1.86223 0
M  V30 2140 H 200.15 -5.21128 -0.593775 0
M  V30 2141 H 201.624 -5.02105 -2.29335 0
M  V30 2142 H 202.101 -3.39721 -2.78363 0
M  V30 2143 H 202.707 -4.06499 -1.25055 0
M  V30 2144 N 201.022 0.148545 -1.56898 0
M  V30 2145 C 202.262 0.86765 -1.85071 0
M  V30 2146 C 202.626 1.78417 -0.709317 0
M  V30 2147 O 203.827 2.54261 -0.872049 0
M  V30 2148 C 202.098 1.62306 -3.1842 0
M  V30 2149 S 203.657 2.3878 -3.68143 0
M  V30 2150 H 200.475 0.290174 -0.649092 0
M  V30 2151 H 203.077 0.127755 -1.95082 0
M  V30 2152 H 201.781 0.941192 -3.99462 0
M  V30 2153 H 201.312 2.4039 -3.1141 0
M  V30 2154 H 203.327 3.63942 -3.37285 0
M  V30 2155 N 202.5 1.5196 0.417844 0
M  V30 2156 C 203.728 1.69426 1.18753 0
M  V30 2157 C 204.143 0.399955 1.84515 0
M  V30 2158 O 203.5 -0.623288 1.71527 0
M  V30 2159 C 203.551 2.82375 2.25714 0
M  V30 2160 O 203.272 4.06793 1.62638 0
M  V30 2161 C 204.773 3.11277 3.15628 0
M  V30 2162 H 201.993 0.568031 0.357186 0
M  V30 2163 H 204.537 1.98475 0.49273 0
M  V30 2164 H 202.692 2.5587 2.90877 0
M  V30 2165 H 203.106 4.69667 2.3348 0
M  V30 2166 H 204.58 3.93843 3.86771 0
M  V30 2167 H 205.057 2.24473 3.77503 0
M  V30 2168 H 205.663 3.39515 2.56144 0
M  V30 2169 N 203.978 -0.674533 1.42435 0
M  V30 2170 C 205.394 -0.98769 1.25367 0
M  V30 2171 C 205.594 -2.00879 0.158044 0
M  V30 2172 O 204.65 -2.48075 -0.470633 0
M  V30 2173 C 205.963 -1.49224 2.6106 0
M  V30 2174 C 207.511 -1.61 2.68417 0
M  V30 2175 C 207.986 -2.14852 4.04478 0
M  V30 2176 N 209.477 -2.22185 4.06434 0
M  V30 2177 C 210.212 -2.64928 5.08528 0
M  V30 2178 N 209.708 -3.07121 6.21006 0
M  V30 2179 N 211.501 -2.64679 4.95885 0
M  V30 2180 H 203.652 0.00152503 2.124 0
M  V30 2181 H 205.915 -0.0618434 0.945981 0
M  V30 2182 H 205.621 -0.816453 3.42092 0
M  V30 2183 H 205.495 -2.47094 2.84999 0
M  V30 2184 H 207.882 -2.27686 1.87732 0
M  V30 2185 H 207.963 -0.616195 2.48267 0
M  V30 2186 H 207.607 -1.48775 4.85622 0
M  V30 2187 H 207.537 -3.15024 4.2198 0
M  V30 2188 H 210.028 -1.92435 3.25234 0
M  V30 2189 H 210.341 -3.38423 6.94759 0
M  V30 2190 H 208.686 -3.04978 6.24511 0
M  V30 2191 H 211.877 -2.31078 4.07088 0
M  V30 2192 H 212.05 -2.9767 5.75584 0
M  V30 2193 N 205.456 -1.28612 -0.910864 0
M  V30 2194 C 206.704 -1.15705 -1.65701 0
M  V30 2195 C 207.025 0.29416 -1.92769 0
M  V30 2196 O 206.295 1.20331 -1.54588 0
M  V30 2197 H 204.875 -0.425216 -0.614167 0
M  V30 2198 H 207.537 -1.61381 -1.0928 0
M  V30 2199 H 206.633 -1.6988 -2.61815 0
M  V30 2200 N 206.934 1.1197 -1.10907 0
M  V30 2201 C 208.174 1.85224 -0.864378 0
M  V30 2202 C 208.538 1.82411 0.599178 0
M  V30 2203 O 209.739 2.51057 0.960416 0
M  V30 2204 C 208.01 3.2868 -1.40371 0
M  V30 2205 S 209.569 4.1925 -1.29518 0
M  V30 2206 H 206.387 0.63878 -0.312219 0
M  V30 2207 H 208.989 1.3485 -1.41548 0
M  V30 2208 H 207.693 3.28289 -2.46281 0
M  V30 2209 H 207.224 3.84121 -0.849402 0
M  V30 2210 H 209.239 4.95539 -0.256059 0
M  V30 2211 N 208.412 0.89855 1.29475 0
M  V30 2212 C 209.828 0.594483 1.48115 0
M  V30 2213 C 210.028 -0.86431 1.82022 0
M  V30 2214 O 209.084 -1.64457 1.91599 0
M  V30 2215 C 210.397 1.51932 2.59494 0
M  V30 2216 C 211.945 1.5244 2.7337 0
M  V30 2217 C 212.42 2.43548 3.87877 0
M  V30 2218 N 213.911 2.41589 3.95208 0
M  V30 2219 C 214.646 3.08789 4.83153 0
M  V30 2220 N 214.142 3.85265 5.75798 0
M  V30 2221 N 215.935 2.97952 4.76635 0
M  V30 2222 H 208.086 1.84207 1.05742 0
M  V30 2223 H 210.349 0.789251 0.525154 0
M  V30 2224 H 210.055 2.55865 2.41301 0
M  V30 2225 H 209.929 1.23899 3.56271 0
M  V30 2226 H 212.316 0.492518 2.90961 0
M  V30 2227 H 212.397 1.8451 1.77172 0
M  V30 2228 H 212.041 3.46829 3.71041 0
M  V30 2229 H 211.971 2.08788 4.83441 0
M  V30 2230 H 214.462 1.86025 3.28943 0
M  V30 2231 H 214.775 4.33598 6.39697 0
M  V30 2232 H 213.12 3.89371 5.75687 0
M  V30 2233 H 216.311 2.37723 4.03244 0
M  V30 2234 H 216.484 3.50599 5.44962 0
M  V30 2235 N 209.89 -1.43072 0.660911 0
M  V30 2236 C 211.137 -2.01721 0.177445 0
M  V30 2237 C 211.465 -1.5218 -1.21126 0
M  V30 2238 O 210.72 -0.708659 -1.82419 0
M  V30 2239 C 211.019 -3.57103 0.145563 0
M  V30 2240 C 210.685 -4.26021 1.47705 0
M  V30 2241 C 209.347 -4.44563 1.84165 0
M  V30 2242 C 211.699 -4.64983 2.35458 0
M  V30 2243 C 209.027 -4.99334 3.0803 0
M  V30 2244 C 211.379 -5.21127 3.58622 0
M  V30 2245 C 210.043 -5.37884 3.95268 0
M  V30 2246 H 209.313 -0.73815 0.0649317 0
M  V30 2247 H 211.96 -1.71446 0.853144 0
M  V30 2248 H 210.265 -3.86965 -0.61361 0
M  V30 2249 H 211.962 -4.00248 -0.2455 0
M  V30 2250 H 208.552 -4.11939 1.18339 0
M  V30 2251 H 212.736 -4.50343 2.08579 0
M  V30 2252 H 207.992 -5.10493 3.36462 0
M  V30 2253 H 212.166 -5.50262 4.26831 0
M  V30 2254 H 209.793 -5.80089 4.91325 0
M  V30 2255 N 211.368 -0.403325 -1.52352 0
M  V30 2256 C 212.608 0.173946 -2.03659 0
M  V30 2257 C 212.972 1.42869 -1.28267 0
M  V30 2258 O 214.173 2.08403 -1.69769 0
M  V30 2259 C 212.444 0.421478 -3.54906 0
M  V30 2260 S 214.003 0.967027 -4.28012 0
M  V30 2261 H 210.821 0.0477461 -0.709395 0
M  V30 2262 H 213.423 -0.554906 -1.87459 0
M  V30 2263 H 212.127 -0.498616 -4.0736 0
M  V30 2264 H 211.658 1.17837 -3.75337 0
M  V30 2265 H 213.673 2.24812 -4.4235 0
M  V30 2266 N 212.846 1.57033 -0.133567 0
M  V30 2267 C 214.071 2.00475 0.531477 0
M  V30 2268 C 214.496 1.01291 1.58499 0
M  V30 2269 O 213.854 -0.0133279 1.81295 0
M  V30 2270 C 213.902 3.42729 1.12113 0
M  V30 2271 O 213.006 3.46498 2.23636 0
M  V30 2272 H 212.347 0.650876 0.131362 0
M  V30 2273 H 214.877 2.03344 -0.22634 0
M  V30 2274 H 214.887 3.81246 1.4531 0
M  V30 2275 H 213.562 4.14428 0.349557 0
M  V30 2276 H 212.139 3.19811 1.91769 0
M  V30 2277 N 214.325 -0.140222 1.56975 0
M  V30 2278 C 215.571 -0.852949 1.83991 0
M  V30 2279 C 215.904 -1.80512 0.716187 0
M  V30 2280 O 215.179 -1.92479 -0.279681 0
M  V30 2281 C 215.462 -1.6215 3.21527 0
M  V30 2282 C 215.315 -0.690363 4.4447 0
M  V30 2283 C 216.634 -2.58247 3.56366 0
M  V30 2284 H 213.753 -0.308634 0.669264 0
M  V30 2285 H 216.395 -0.117898 1.89634 0
M  V30 2286 H 214.545 -2.24812 3.16847 0
M  V30 2287 H 216.217 -0.0742264 4.6124 0
M  V30 2288 H 214.46 -0.000396433 4.338 0
M  V30 2289 H 215.131 -1.2643 5.37326 0
M  V30 2290 H 217.607 -2.05701 3.61699 0
M  V30 2291 H 216.483 -3.09067 4.53617 0
M  V30 2292 H 216.744 -3.39923 2.82674 0
M  V30 2293 N 215.803 -1.52179 -0.40978 0
M  V30 2294 C 216.75 -1.75475 -1.49924 0
M  V30 2295 C 217.72 -0.597175 -1.54994 0
M  V30 2296 O 218.905 -0.834655 -1.71575 0
M  V30 2297 C 216.045 -1.9107 -2.87378 0
M  V30 2298 C 215.158 -3.18717 -2.91622 0
M  V30 2299 C 214.293 -3.24747 -4.20372 0
M  V30 2300 C 213.332 -4.46598 -4.18588 0
M  V30 2301 N 212.469 -4.50025 -5.38908 0
M  V30 2302 H 217.309 -2.68458 -1.29361 0
M  V30 2303 H 214.846 -1.33024 -0.627934 0
M  V30 2304 H 216.804 -1.98096 -3.6717 0
M  V30 2305 H 215.434 -1.01469 -3.06437 0
M  V30 2306 H 214.486 -3.20866 -2.04326 0
M  V30 2307 H 215.798 -4.08544 -2.86169 0
M  V30 2308 H 214.952 -3.30841 -5.08556 0
M  V30 2309 H 213.691 -2.32857 -4.28519 0
M  V30 2310 H 212.696 -4.40652 -3.28794 0
M  V30 2311 H 213.921 -5.39783 -4.12081 0
M  V30 2312 H 211.867 -3.61017 -5.47725 0
M  V30 2313 H 211.784 -5.33697 -5.35447 0
M  V30 2314 H 213.052 -4.60347 -6.29048 0
M  V30 2315 N 217.281 0.66697 -1.42791 0
M  V30 2316 C 218.509 1.45505 -1.47091 0
M  V30 2317 C 218.924 1.8861 -0.0845873 0
M  V30 2318 O 218.281 1.58632 0.90234 0
M  V30 2319 C 218.332 2.69906 -2.40485 0
M  V30 2320 O 218.053 2.28608 -3.73725 0
M  V30 2321 C 219.554 3.63396 -2.53886 0
M  V30 2322 H 216.774 0.447459 -0.500022 0
M  V30 2323 H 219.318 0.818866 -1.8739 0
M  V30 2324 H 217.473 3.29696 -2.03419 0
M  V30 2325 H 217.887 3.08997 -4.23817 0
M  V30 2326 H 219.361 4.47387 -3.2334 0
M  V30 2327 H 219.838 4.09824 -1.57927 0
M  V30 2328 H 220.444 3.09495 -2.91706 0
M  V30 2329 N 218.759 1.29093 0.90403 0
M  V30 2330 C 219.722 1.1386 1.98919 0
M  V30 2331 C 220.722 0.0753457 1.60623 0
M  V30 2332 O 221.912 0.321931 1.71199 0
M  V30 2333 C 219.044 0.740198 3.32767 0
M  V30 2334 H 220.237 2.10246 2.13861 0
M  V30 2335 H 217.79 1.12218 1.08797 0
M  V30 2336 H 218.525 -0.223997 3.23525 0
M  V30 2337 H 218.31 1.50838 3.61926 0
M  V30 2338 H 219.8 0.656546 4.12407 0
M  V30 2339 N 220.237 -1.11381 1.11499 0
M  V30 2340 C 221.653 -1.35143 0.849031 0
M  V30 2341 C 221.853 -1.94515 -0.525938 0
M  V30 2342 O 220.909 -2.1785 -1.27662 0
M  V30 2343 C 222.222 -2.28249 1.95762 0
M  V30 2344 C 223.77 -2.41812 1.98736 0
M  V30 2345 C 224.245 -3.3824 3.088 0
M  V30 2346 N 225.736 -3.45803 3.08179 0
M  V30 2347 C 226.471 -4.20358 3.89982 0
M  V30 2348 N 225.967 -4.97884 4.8175 0
M  V30 2349 N 227.76 -4.15877 3.78157 0
M  V30 2350 H 219.911 -0.712062 2.00109 0
M  V30 2351 H 222.174 -0.376025 0.870235 0
M  V30 2352 H 221.88 -1.91817 2.94787 0
M  V30 2353 H 221.754 -3.28473 1.85433 0
M  V30 2354 H 224.141 -2.77518 1.00338 0
M  V30 2355 H 224.222 -1.41437 2.13141 0
M  V30 2356 H 223.866 -3.03261 4.07425 0
M  V30 2357 H 223.796 -4.38471 2.91635 0
M  V30 2358 H 226.287 -2.90506 2.41691 0
M  V30 2359 H 226.6 -5.52142 5.40702 0
M  V30 2360 H 224.945 -4.97043 4.85771 0
M  V30 2361 H 228.136 -3.544 3.05808 0
M  V30 2362 H 228.309 -4.73723 4.42143 0
M  V30 2363 N 221.715 -0.905404 -1.28997 0
M  V30 2364 C 222.663 -0.377431 -2.29517 0
M  V30 2365 C 223.657 0.526461 -1.61012 0
M  V30 2366 O 224.863 0.40863 -1.753 0
M  V30 2367 H 221.238 -0.103437 -0.744852 0
M  V30 2368 H 223.209 -1.23848 -2.71485 0
M  V30 2369 C 221.958 0.374833 -3.45674 0
M  V30 2370 H 221.281 -0.311474 -3.98585 0
M  V30 2371 H 222.721 0.70903 -4.1803 0
M  V30 2372 C 221.18 1.57963 -2.97572 0
M  V30 2373 O 221.71 2.67886 -2.99333 0
M  V30 2374 N 219.916 1.42375 -2.53333 0
M  V30 2375 H 219.463 0.529466 -2.521 0
M  V30 2376 H 219.421 2.23117 -2.21509 0
M  V30 2377 N 223.193 1.4272 -0.668489 0
M  V30 2378 C 224.604 1.84793 -0.266151 0
M  V30 2379 C 224.955 1.55959 1.19043 0
M  V30 2380 O 224.08 1.01622 1.91055 0
M  V30 2381 C 224.675 3.35436 -0.476271 0
M  V30 2382 C 223.234 3.76182 -0.128113 0
M  V30 2383 C 222.381 2.66344 -0.771777 0
M  V30 2384 H 225.332 1.32656 -0.871098 0
M  V30 2385 H 225.353 3.79515 0.273561 0
M  V30 2386 H 224.865 3.5639 -1.53647 0
M  V30 2387 H 222.966 3.60836 0.928891 0
M  V30 2388 H 223.079 4.75766 -0.564231 0
M  V30 2389 H 221.443 2.53885 -0.203652 0
M  V30 2390 H 222.226 2.90123 -1.83531 0
M  V30 2391 N 224.671 0.411399 1.52136 0
M  V30 2392 C 226.082 -0.0576826 1.86611 0
M  V30 2393 C 226.433 -1.44238 1.33003 0
M  V30 2394 O 225.558 -2.05759 0.670228 0
M  V30 2395 C 226.153 -0.111448 3.38617 0
M  V30 2396 C 224.712 -0.52487 3.72723 0
M  V30 2397 C 223.859 0.299176 2.75681 0
M  V30 2398 H 226.81 0.628368 1.4573 0
M  V30 2399 H 226.831 -0.926252 3.69054 0
M  V30 2400 H 226.343 0.896488 3.77604 0
M  V30 2401 H 224.444 -1.53936 3.39315 0
M  V30 2402 H 224.557 -0.267681 4.78352 0
M  V30 2403 H 222.921 -0.238814 2.53578 0
M  V30 2404 H 223.704 1.3055 3.17508 0
M  V30 2405 N 226.149 -1.5696 0.141893 0
M  V30 2406 C 227.56 -1.82797 -0.379776 0
M  V30 2407 C 227.911 -1.06033 -1.6508 0
M  V30 2408 O 227.036 -0.304011 -2.14254 0
M  V30 2409 C 227.631 -3.31578 -0.695802 0
M  V30 2410 C 226.19 -3.58014 -1.16201 0
M  V30 2411 C 225.337 -2.76699 -0.182455 0
M  V30 2412 H 228.288 -1.54406 0.366675 0
M  V30 2413 H 228.309 -3.47454 -1.55099 0
M  V30 2414 H 227.821 -3.87421 0.229449 0
M  V30 2415 H 225.922 -3.07553 -2.10338 0
M  V30 2416 H 226.035 -4.66501 -1.09151 0
M  V30 2417 H 224.399 -2.45618 -0.674072 0
M  V30 2418 H 225.182 -3.35311 0.736297 0
M  V30 2419 N 227.627 0.131896 -1.57047 0
M  V30 2420 C 228.557 1.16384 -2.02428 0
M  V30 2421 C 229.538 1.43936 -0.90644 0
M  V30 2422 O 230.723 1.54599 -1.17528 0
M  V30 2423 C 227.853 2.49328 -2.4177 0
M  V30 2424 C 226.807 2.36266 -3.56879 0
M  V30 2425 C 226.133 3.74057 -3.8208 0
M  V30 2426 C 227.433 1.834 -4.89042 0
M  V30 2427 H 229.127 0.786433 -2.88887 0
M  V30 2428 H 226.673 0.376855 -1.38981 0
M  V30 2429 H 228.626 3.21759 -2.7212 0
M  V30 2430 H 227.35 2.88934 -1.52266 0
M  V30 2431 H 226.009 1.66286 -3.26718 0
M  V30 2432 H 225.657 4.11125 -2.89803 0
M  V30 2433 H 225.357 3.66174 -4.59554 0
M  V30 2434 H 226.881 4.48012 -4.1487 0
M  V30 2435 H 228.295 2.45636 -5.18011 0
M  V30 2436 H 226.692 1.8637 -5.70426 0
M  V30 2437 H 227.762 0.790662 -4.7841 0
M  V30 2438 N 229.106 1.52395 0.401703 0
M  V30 2439 C 230.383 1.57387 1.16141 0
M  V30 2440 C 230.763 0.359359 2.08019 0
M  V30 2441 O 230.111 -0.65326 2.18963 0
M  V30 2442 C 230.321 2.90631 1.93221 0
M  V30 2443 C 231.669 3.43904 2.49028 0
M  V30 2444 O 232.693 2.92421 2.03393 0
M  V30 2445 O 231.552 4.33823 3.32356 0
M  V30 2446 H 228.646 0.634262 0.530698 0
M  V30 2447 H 231.192 1.64725 0.407883 0
M  V30 2448 H 229.964 3.70473 1.25958 0
M  V30 2449 H 229.587 2.8662 2.75563 0
M  V30 2450 N 230.584 -0.659388 1.43143 0
M  V30 2451 C 231.547 -1.75432 1.47501 0
M  V30 2452 C 232.547 -1.56707 0.360512 0
M  V30 2453 O 233.737 -1.62717 0.622002 0
M  V30 2454 C 230.869 -3.14239 1.32162 0
M  V30 2455 H 232.062 -1.7295 2.45006 0
M  V30 2456 H 229.615 -0.870469 1.29817 0
M  V30 2457 H 230.35 -3.22336 0.356401 0
M  V30 2458 H 230.135 -3.29235 2.12948 0
M  V30 2459 H 231.625 -3.94094 1.3813 0
M  V30 2460 N 232.062 -1.29571 -0.897171 0
M  V30 2461 C 233.287 -1.20705 -1.68656 0
M  V30 2462 C 233.712 0.228582 -1.86706 0
M  V30 2463 O 233.07 1.16494 -1.3892 0
M  V30 2464 C 233.118 -1.9282 -3.04717 0
M  V30 2465 O 232.222 -1.24697 -3.93096 0
M  V30 2466 H 231.563 -0.418126 -0.515816 0
M  V30 2467 H 234.093 -1.71183 -1.12061 0
M  V30 2468 H 234.103 -2.01372 -3.54843 0
M  V30 2469 H 232.778 -2.97239 -2.90899 0
M  V30 2470 H 231.355 -1.2442 -3.51531 0
M  V30 2471 N 233.54 1.10788 -1.12088 0
M  V30 2472 C 234.45 2.20599 -0.798338 0
M  V30 2473 C 235.466 1.72712 0.21135 0
M  V30 2474 O 236.642 2.01348 0.0458477 0
M  V30 2475 C 233.707 3.45771 -0.253674 0
M  V30 2476 C 232.768 4.08411 -1.32283 0
M  V30 2477 C 232.001 5.27608 -0.80406 0
M  V30 2478 O 232.224 5.69241 0.363478 0
M  V30 2479 O 231.158 5.8101 -1.57198 0
M  V30 2480 H 234.984 2.50614 -1.7154 0
M  V30 2481 H 232.569 1.19454 -0.897275 0
M  V30 2482 H 234.451 4.21376 0.0453691 0
M  V30 2483 H 233.126 3.1739 0.636005 0
M  V30 2484 H 232.033 3.34507 -1.67499 0
M  V30 2485 H 233.366 4.40986 -2.18614 0
M  V30 2486 N 235.018 0.912232 1.28515 0
M  V30 2487 C 236.429 0.591352 1.77087 0
M  V30 2488 C 236.78 -0.8933 1.74684 0
M  V30 2489 O 235.905 -1.69876 1.34056 0
M  V30 2490 C 236.5 1.06668 3.2157 0
M  V30 2491 C 235.059 0.79675 3.67871 0
M  V30 2492 C 234.206 1.23427 2.48316 0
M  V30 2493 H 237.157 1.09365 1.15 0
M  V30 2494 H 237.178 0.407455 3.78312 0
M  V30 2495 H 236.69 2.14726 3.23287 0
M  V30 2496 H 234.791 -0.270679 3.71616 0
M  V30 2497 H 234.904 1.40343 4.58084 0
M  V30 2498 H 233.268 0.653036 2.46186 0
M  V30 2499 H 234.051 2.32316 2.52753 0
M  V30 2500 N 236.496 -1.42363 0.676048 0
M  V30 2501 C 237.726 -2.05561 0.206967 0
M  V30 2502 C 238.134 -1.50887 -1.14148 0
M  V30 2503 O 237.477 -0.643933 -1.72044 0
M  V30 2504 C 237.539 -3.5944 0.0659508 0
M  V30 2505 C 237.203 -4.36812 1.34331 0
M  V30 2506 C 238.2 -4.67383 2.27704 0
M  V30 2507 C 235.885 -4.76429 1.59125 0
M  V30 2508 C 237.879 -5.36509 3.44147 0
M  V30 2509 C 235.566 -5.45294 2.75857 0
M  V30 2510 C 236.564 -5.75259 3.68193 0
M  V30 2511 O 236.252 -6.42712 4.82883 0
M  V30 2512 H 235.984 -0.668872 0.0979084 0
M  V30 2513 H 238.538 -1.83467 0.923531 0
M  V30 2514 H 236.768 -3.80197 -0.706204 0
M  V30 2515 H 238.457 -4.0427 -0.363418 0
M  V30 2516 H 239.223 -4.37275 2.09799 0
M  V30 2517 H 235.102 -4.52498 0.881258 0
M  V30 2518 H 238.646 -5.59814 4.16238 0
M  V30 2519 H 234.543 -5.7482 2.93688 0
M  V30 2520 H 235.311 -6.61204 4.82444 0
M  V30 2521 N 237.974 -0.419461 -1.51915 0
M  V30 2522 C 238.922 0.415502 -2.28859 0
M  V30 2523 C 239.916 1.03674 -1.3397 0
M  V30 2524 O 241.122 0.973757 -1.51387 0
M  V30 2525 H 237.497 0.152786 -0.736315 0
M  V30 2526 H 239.468 -0.254531 -2.97312 0
M  V30 2527 C 238.217 1.51425 -3.12995 0
M  V30 2528 H 237.54 1.04556 -3.85886 0
M  V30 2529 H 238.98 2.07208 -3.6992 0
M  V30 2530 C 237.439 2.48745 -2.27217 0
M  V30 2531 O 237.969 3.52871 -1.9195 0
M  V30 2532 N 236.175 2.19202 -1.90785 0
M  V30 2533 H 235.722 1.34556 -2.19664 0
M  V30 2534 H 235.68 2.84561 -1.33687 0
M  V30 2535 N 239.452 1.56882 -0.150215 0
M  V30 2536 C 240.68 2.00593 0.506948 0
M  V30 2537 C 241.095 1.03033 1.58208 0
M  V30 2538 O 240.452 0.0278396 1.82479 0
M  V30 2539 C 240.503 3.44209 1.10465 0
M  V30 2540 O 240.224 4.3804 0.0724636 0
M  V30 2541 C 241.725 4.03214 1.84211 0
M  V30 2542 H 238.945 0.65795 0.13169 0
M  V30 2543 H 241.489 2.03018 -0.245743 0
M  V30 2544 H 239.644 3.42625 1.80795 0
M  V30 2545 H 240.058 5.22007 0.510793 0
M  V30 2546 H 241.532 5.0569 2.21318 0
M  V30 2547 H 242.009 3.44107 2.72923 0
M  V30 2548 H 242.615 4.08437 1.18572 0
M  V30 2549 N 240.93 -0.123565 1.57115 0
M  V30 2550 C 241.893 -1.13583 1.99076 0
M  V30 2551 C 242.893 -1.34564 0.880296 0
M  V30 2552 O 244.083 -1.31158 1.14644 0
M  V30 2553 C 241.215 -2.49128 2.32698 0
M  V30 2554 H 242.408 -0.775287 2.89706 0
M  V30 2555 H 239.961 -0.36771 1.51913 0
M  V30 2556 H 240.696 -2.90111 1.44934 0
M  V30 2557 H 240.481 -2.35255 3.13684 0
M  V30 2558 H 241.971 -3.2199 2.65918 0
M  V30 2559 N 242.408 -1.52605 -0.393616 0
M  V30 2560 C 243.355 -1.77055 -1.48054 0
M  V30 2561 C 244.325 -0.61358 -1.54352 0
M  V30 2562 O 245.51 -0.852806 -1.70681 0
M  V30 2563 C 242.65 -1.94108 -2.85335 0
M  V30 2564 C 241.763 -3.21792 -2.88226 0
M  V30 2565 C 240.898 -3.29188 -4.16904 0
M  V30 2566 C 239.937 -4.51013 -4.13828 0
M  V30 2567 N 239.074 -4.55716 -5.34105 0
M  V30 2568 H 243.914 -2.69815 -1.26506 0
M  V30 2569 H 241.451 -1.33683 -0.61379 0
M  V30 2570 H 243.409 -2.01979 -3.65049 0
M  V30 2571 H 242.039 -1.04713 -3.05344 0
M  V30 2572 H 241.091 -3.23015 -2.00911 0
M  V30 2573 H 242.403 -4.11557 -2.8182 0
M  V30 2574 H 241.557 -3.36216 -5.05018 0
M  V30 2575 H 240.296 -2.37389 -4.26026 0
M  V30 2576 H 239.301 -4.44115 -3.24102 0
M  V30 2577 H 240.526 -5.44123 -4.06333 0
M  V30 2578 H 238.472 -3.66807 -5.43865 0
M  V30 2579 H 238.389 -5.39346 -5.29756 0
M  V30 2580 H 239.657 -4.66993 -6.2413 0
M  V30 2581 N 243.887 0.651787 -1.4349 0
M  V30 2582 C 244.85 1.74647 -1.48429 0
M  V30 2583 C 245.85 1.56513 -0.368817 0
M  V30 2584 O 247.04 1.62385 -0.630623 0
M  V30 2585 C 244.172 3.13533 -1.33827 0
M  V30 2586 H 245.365 1.71649 -2.4592 0
M  V30 2587 H 242.918 0.863573 -1.30277 0
M  V30 2588 H 243.653 3.22142 -0.37349 0
M  V30 2589 H 243.438 3.28101 -2.14691 0
M  V30 2590 H 244.928 3.93356 -1.40218 0
M  V30 2591 N 245.365 1.30045 0.890287 0
M  V30 2592 C 246.614 1.17929 1.63633 0
M  V30 2593 C 246.927 -0.266204 1.9378 0
M  V30 2594 O 248.133 -0.508804 2.6669 0
M  V30 2595 C 246.589 2.06317 2.94892 0
M  V30 2596 C 246.197 3.55745 2.72305 0
M  V30 2597 C 247.941 2.0295 3.72843 0
M  V30 2598 C 245.848 4.36205 3.99348 0
M  V30 2599 H 244.778 0.437782 0.613892 0
M  V30 2600 H 247.429 1.54754 0.986075 0
M  V30 2601 H 245.811 1.6237 3.61182 0
M  V30 2602 H 246.985 4.07805 2.1455 0
M  V30 2603 H 245.3 3.6088 2.07737 0
M  V30 2604 H 247.897 2.60319 4.67053 0
M  V30 2605 H 248.24 1.0117 4.0382 0
M  V30 2606 H 248.773 2.4499 3.13408 0
M  V30 2607 H 245.512 5.38659 3.73533 0
M  V30 2608 H 245.032 3.8891 4.56628 0
M  V30 2609 H 246.711 4.47362 4.67415 0
M  V30 2610 N 246.843 -1.10192 1.12674 0
M  V30 2611 C 247.806 -2.14786 0.799979 0
M  V30 2612 C 248.806 -1.59711 -0.18685 0
M  V30 2613 O 249.996 -1.74156 0.0392558 0
M  V30 2614 C 247.128 -3.40374 0.189228 0
M  V30 2615 H 248.321 -2.45203 1.72671 0
M  V30 2616 H 245.874 -1.25597 0.930326 0
M  V30 2617 H 246.609 -3.15577 -0.747107 0
M  V30 2618 H 246.394 -3.81637 0.899766 0
M  V30 2619 H 247.884 -4.17594 -0.0228143 0
M  V30 2620 N 248.321 -0.919034 -1.28029 0
M  V30 2621 C 249.231 -0.416756 -2.30869 0
M  V30 2622 C 250.247 0.498235 -1.66714 0
M  V30 2623 O 251.423 0.383144 -1.97722 0
M  V30 2624 C 248.488 0.330274 -3.45123 0
M  V30 2625 C 247.549 -0.618578 -4.2482 0
M  V30 2626 C 246.782 0.0928959 -5.33619 0
M  V30 2627 O 247.005 1.31375 -5.55065 0
M  V30 2628 O 245.939 -0.574499 -5.99152 0
M  V30 2629 H 249.765 -1.27043 -2.75851 0
M  V30 2630 H 247.35 -0.684052 -1.3282 0
M  V30 2631 H 249.232 0.751972 -4.14636 0
M  V30 2632 H 247.907 1.1597 -3.02213 0
M  V30 2633 H 246.814 -1.08978 -3.57875 0
M  V30 2634 H 248.147 -1.41497 -4.71423 0
M  V30 2635 N 249.799 1.42003 -0.683588 0
M  V30 2636 C 251.045 2.02223 -0.218536 0
M  V30 2637 C 251.4 1.53126 1.16492 0
M  V30 2638 O 250.693 0.727459 1.77253 0
M  V30 2639 C 250.887 3.56827 -0.202357 0
M  V30 2640 C 250.716 4.20928 -1.5827 0
M  V30 2641 C 249.486 4.5573 -2.18262 0
M  V30 2642 C 251.684 4.47933 -2.52706 0
M  V30 2643 N 249.666 5.05056 -3.48986 0
M  V30 2644 C 251.037 4.98906 -3.68094 0
M  V30 2645 C 253.092 4.29931 -2.51125 0
M  V30 2646 C 251.795 5.33768 -4.82166 0
M  V30 2647 C 253.821 4.65875 -3.643 0
M  V30 2648 C 253.183 5.17008 -4.78417 0
M  V30 2649 H 249.282 0.771931 -0.125088 0
M  V30 2650 H 251.866 1.72729 -0.898479 0
M  V30 2651 H 250.037 3.85819 0.447029 0
M  V30 2652 H 251.769 4.03755 0.276399 0
M  V30 2653 H 248.524 4.41781 -1.70665 0
M  V30 2654 H 248.948 5.34139 -4.15962 0
M  V30 2655 H 253.59 3.89647 -1.6412 0
M  V30 2656 H 251.308 5.72981 -5.6984 0
M  V30 2657 H 254.894 4.53615 -3.64314 0
M  V30 2658 H 253.774 5.44301 -5.64541 0
M  V30 2659 N 251.277 0.427512 1.51691 0
M  V30 2660 C 252.525 -0.141948 2.01601 0
M  V30 2661 C 252.846 -1.44067 1.31414 0
M  V30 2662 O 252.116 -1.90763 0.445658 0
M  V30 2663 H 250.696 -0.0554468 0.744939 0
M  V30 2664 H 253.358 0.567968 1.86441 0
M  V30 2665 H 252.454 -0.324913 3.10404 0
M  V30 2666 N 252.755 -1.56801 0.158532 0
M  V30 2667 C 253.685 -2.20347 -0.772609 0
M  V30 2668 C 254.666 -1.15518 -1.24859 0
M  V30 2669 O 255.851 -1.43902 -1.30406 0
M  V30 2670 C 252.981 -2.83417 -2.00729 0
M  V30 2671 C 251.935 -3.94174 -1.66765 0
M  V30 2672 C 251.261 -4.44233 -2.97592 0
M  V30 2673 C 252.561 -5.14392 -0.905447 0
M  V30 2674 H 254.255 -2.98413 -0.242959 0
M  V30 2675 H 251.801 -1.43537 -0.115419 0
M  V30 2676 H 253.754 -3.26543 -2.6636 0
M  V30 2677 H 252.478 -2.02701 -2.56086 0
M  V30 2678 H 251.137 -3.51684 -1.03508 0
M  V30 2679 H 250.785 -3.60325 -3.50963 0
M  V30 2680 H 250.485 -5.18945 -2.75626 0
M  V30 2681 H 252.009 -4.90037 -3.64274 0
M  V30 2682 H 253.423 -5.5429 -1.46408 0
M  V30 2683 H 251.82 -5.9494 -0.7853 0
M  V30 2684 H 252.89 -4.84795 0.100668 0
M  V30 2685 N 254.233 0.115231 -1.57178 0
M  V30 2686 C 255.51 0.852873 -1.76027 0
M  V30 2687 C 255.89 1.97892 -0.73498 0
M  V30 2688 O 255.238 2.27232 0.24036 0
M  V30 2689 C 255.448 1.36608 -3.21153 0
M  V30 2690 C 256.796 1.81692 -3.83762 0
M  V30 2691 O 257.82 1.46278 -3.24779 0
M  V30 2692 O 256.679 2.47104 -4.87444 0
M  V30 2693 H 253.773 0.405296 -0.720877 0
M  V30 2694 H 256.319 0.0986785 -1.69413 0
M  V30 2695 H 255.091 0.558357 -3.87296 0
M  V30 2696 H 254.714 2.18287 -3.3232 0
M  V30 2697 N 255.711 1.52812 0.385517 0
M  V30 2698 C 256.941 1.71658 1.14966 0
M  V30 2699 C 257.349 0.436253 1.84102 0
M  V30 2700 O 256.692 -0.599313 1.73649 0
M  V30 2701 C 256.754 2.81309 2.23843 0
M  V30 2702 C 256.418 4.22313 1.74644 0
M  V30 2703 C 257.415 5.05352 1.22129 0
M  V30 2704 C 255.1 4.68648 1.80761 0
M  V30 2705 C 257.094 6.32807 0.763838 0
M  V30 2706 C 254.781 5.96086 1.34627 0
M  V30 2707 C 255.779 6.77996 0.825264 0
M  V30 2708 O 255.467 8.03045 0.370669 0
M  V30 2709 H 255.199 0.578022 0.350523 0
M  V30 2710 H 257.753 2.00263 0.456509 0
M  V30 2711 H 255.983 2.48133 2.96592 0
M  V30 2712 H 257.672 2.88524 2.85497 0
M  V30 2713 H 258.438 4.70736 1.16758 0
M  V30 2714 H 254.317 4.04979 2.20256 0
M  V30 2715 H 257.861 6.96689 0.356494 0
M  V30 2716 H 253.758 6.30205 1.39686 0
M  V30 2717 H 254.526 8.17021 0.491829 0
M  V30 2718 N 257.189 -0.644168 1.43834 0
M  V30 2719 C 258.435 -1.40603 1.46146 0
M  V30 2720 C 258.768 -1.93997 0.0887717 0
M  V30 2721 O 258.043 -1.72854 -0.891724 0
M  V30 2722 C 258.326 -2.58086 2.51124 0
M  V30 2723 C 258.179 -2.10126 3.97702 0
M  V30 2724 C 259.498 -3.60291 2.52742 0
M  V30 2725 H 256.617 -0.509905 0.532134 0
M  V30 2726 H 259.259 -0.729502 1.75437 0
M  V30 2727 H 257.409 -3.15801 2.26278 0
M  V30 2728 H 259.081 -1.57342 4.33637 0
M  V30 2729 H 257.324 -1.41419 4.10101 0
M  V30 2730 H 257.995 -2.94649 4.66783 0
M  V30 2731 H 260.471 -3.12352 2.7491 0
M  V30 2732 H 259.347 -4.40032 3.28121 0
M  V30 2733 H 259.608 -4.1349 1.56455 0
M  V30 2734 N 258.668 -1.30515 -0.883378 0
M  V30 2735 C 259.914 -1.19607 -1.63774 0
M  V30 2736 C 260.247 0.248314 -1.92606 0
M  V30 2737 O 259.522 1.17742 -1.54813 0
M  V30 2738 C 259.805 -2.02669 -2.97653 0
M  V30 2739 C 259.658 -3.55335 -2.75784 0
M  V30 2740 C 260.977 -1.86573 -3.98596 0
M  V30 2741 H 258.096 -0.435856 -0.594305 0
M  V30 2742 H 260.738 -1.60165 -1.02212 0
M  V30 2743 H 258.888 -1.68208 -3.50197 0
M  V30 2744 H 260.56 -3.99863 -2.30016 0
M  V30 2745 H 258.803 -3.79438 -2.1026 0
M  V30 2746 H 259.474 -4.08745 -3.70988 0
M  V30 2747 H 261.95 -2.16703 -3.55217 0
M  V30 2748 H 260.826 -2.47014 -4.90179 0
M  V30 2749 H 261.087 -0.825321 -4.34328 0
M  V30 2750 N 260.146 1.09593 -1.13257 0
M  V30 2751 C 261.076 2.18214 -0.830946 0
M  V30 2752 C 262.057 1.68812 0.208966 0
M  V30 2753 O 263.242 1.9408 0.0682666 0
M  V30 2754 C 260.372 3.46051 -0.294296 0
M  V30 2755 C 259.326 4.08778 -1.26826 0
M  V30 2756 C 258.652 5.31419 -0.591449 0
M  V30 2757 C 259.952 4.51476 -2.62615 0
M  V30 2758 H 261.646 2.43703 -1.73923 0
M  V30 2759 H 259.192 1.17128 -0.837675 0
M  V30 2760 H 261.145 4.2134 -0.0709606 0
M  V30 2761 H 259.869 3.20079 0.649366 0
M  V30 2762 H 258.528 3.35505 -1.47756 0
M  V30 2763 H 258.176 5.01727 0.357633 0
M  V30 2764 H 257.876 5.74341 -1.24123 0
M  V30 2765 H 259.4 6.09433 -0.377355 0
M  V30 2766 H 260.814 5.17999 -2.45663 0
M  V30 2767 H 259.211 5.05277 -3.23752 0
M  V30 2768 H 260.281 3.63962 -3.20406 0
M  V30 2769 N 261.624 0.925811 1.2754 0
M  V30 2770 C 262.852 0.581509 1.9856 0
M  V30 2771 C 263.267 -0.840041 1.69082 0
M  V30 2772 O 262.624 -1.55805 0.950312 0
M  V30 2773 C 262.675 0.795589 3.52637 0
M  V30 2774 O 262.396 2.16121 3.81082 0
M  V30 2775 C 263.897 0.459744 4.4091 0
M  V30 2776 H 261.117 0.220538 0.633722 0
M  V30 2777 H 263.661 1.24232 1.6244 0
M  V30 2778 H 261.816 0.18161 3.86974 0
M  V30 2779 H 262.23 2.2098 4.75676 0
M  V30 2780 H 263.704 0.660244 5.48037 0
M  V30 2781 H 264.181 -0.604625 4.35018 0
M  V30 2782 H 264.787 1.05178 4.12089 0
M  V30 2783 N 263.102 -1.41638 0.69111 0
M  V30 2784 C 264.327 -2.06148 0.227583 0
M  V30 2785 C 264.752 -1.51652 -1.11281 0
M  V30 2786 O 264.11 -0.64164 -1.69566 0
M  V30 2787 C 264.158 -3.60095 0.190858 0
M  V30 2788 O 263.262 -4.03845 -0.835664 0
M  V30 2789 H 262.603 -0.654434 0.112306 0
M  V30 2790 H 265.133 -1.81484 0.944714 0
M  V30 2791 H 265.143 -4.07995 0.020207 0
M  V30 2792 H 263.818 -3.99129 1.16915 0
M  V30 2793 H 262.395 -3.67458 -0.63473 0
M  V30 2794 N 264.58 -0.43555 -1.51462 0
M  V30 2795 C 265.826 0.131709 -2.02372 0
M  V30 2796 C 266.159 1.42516 -1.3192 0
M  V30 2797 O 265.434 1.89606 -0.433573 0
M  V30 2798 C 265.717 0.352301 -3.58373 0
M  V30 2799 C 265.57 -0.959676 -4.39443 0
M  V30 2800 C 266.889 1.12286 -4.25535 0
M  V30 2801 H 264.008 0.0463936 -0.735538 0
M  V30 2802 H 266.65 -0.574197 -1.81116 0
M  V30 2803 H 264.8 0.9536 -3.76615 0
M  V30 2804 H 266.472 -1.59482 -4.32855 0
M  V30 2805 H 264.715 -1.56468 -4.04599 0
M  V30 2806 H 265.386 -0.759394 -5.46752 0
M  V30 2807 H 267.862 0.613545 -4.11552 0
M  V30 2808 H 266.738 1.24598 -5.34571 0
M  V30 2809 H 266.999 2.15048 -3.86273 0
M  V30 2810 N 266.058 1.56714 -0.166846 0
M  V30 2811 C 267.335 1.88412 0.525373 0
M  V30 2812 C 267.715 1.07602 1.81618 0
M  V30 2813 O 267.063 0.168621 2.27877 0
M  V30 2814 C 267.273 3.40363 0.771613 0
M  V30 2815 C 268.621 4.10007 1.1036 0
M  V30 2816 O 269.645 3.45655 0.860304 0
M  V30 2817 O 268.504 5.2369 1.56239 0
M  V30 2818 H 265.598 0.781587 0.270278 0
M  V30 2819 H 268.144 1.68458 -0.204946 0
M  V30 2820 H 266.916 3.91046 -0.141093 0
M  V30 2821 H 266.539 3.65914 1.55541 0
M  V30 2822 N 267.536 -0.106894 1.57237 0
M  V30 2823 C 268.952 -0.46078 1.52804 0
M  V30 2824 C 269.152 -1.81184 0.881746 0
M  V30 2825 O 268.208 -2.48102 0.469224 0
M  V30 2826 C 269.521 -0.434127 2.9755 0
M  V30 2827 C 271.069 -0.516821 3.08704 0
M  V30 2828 C 271.544 -0.520436 4.55033 0
M  V30 2829 N 273.035 -0.58153 4.59535 0
M  V30 2830 C 273.77 -0.605973 5.70189 0
M  V30 2831 N 273.266 -0.587331 6.90306 0
M  V30 2832 N 275.059 -0.649895 5.5833 0
M  V30 2833 H 267.21 0.778203 1.9763 0
M  V30 2834 H 269.473 0.288403 0.903066 0
M  V30 2835 H 269.179 0.491197 3.48253 0
M  V30 2836 H 269.053 -1.25748 3.55622 0
M  V30 2837 H 271.44 -1.43256 2.57995 0
M  V30 2838 H 271.521 0.334449 2.53604 0
M  V30 2839 H 271.165 0.391313 5.0639 0
M  V30 2840 H 271.095 -1.38876 5.07958 0
M  V30 2841 H 273.586 -0.60161 3.73081 0
M  V30 2842 H 273.899 -0.60894 7.70397 0
M  V30 2843 H 272.244 -0.554564 6.92784 0
M  V30 2844 H 275.435 -0.661907 4.63397 0
M  V30 2845 H 275.608 -0.665476 6.44574 0
M  V30 2846 N 269.014 -1.53014 -0.377408 0
M  V30 2847 C 270.291 -1.59215 -1.13622 0
M  V30 2848 C 270.671 -0.392407 -2.07421 0
M  V30 2849 O 270.019 0.618342 -2.19975 0
M  V30 2850 C 270.229 -2.93669 -1.88573 0
M  V30 2851 C 271.577 -3.47822 -2.43526 0
M  V30 2852 O 272.601 -2.9562 -1.98715 0
M  V30 2853 O 271.46 -4.39055 -3.25412 0
M  V30 2854 H 268.554 -0.642625 -0.52054 0
M  V30 2855 H 271.1 -1.65353 -0.381625 0
M  V30 2856 H 269.872 -3.7243 -1.20048 0
M  V30 2857 H 269.495 -2.90968 -2.70968 0
M  V30 2858 N 270.492 0.636531 -1.44174 0
M  V30 2859 C 271.769 1.39463 -1.37148 0
M  V30 2860 C 272.149 2.11082 -0.027507 0
M  V30 2861 O 271.497 2.05954 0.989716 0
M  V30 2862 C 271.707 2.36552 -2.56601 0
M  V30 2863 C 273.055 3.00048 -3.00427 0
M  V30 2864 O 274.079 2.46878 -2.56767 0
M  V30 2865 O 272.938 3.96488 -3.76111 0
M  V30 2866 H 270.032 0.623903 -0.542839 0
M  V30 2867 H 272.578 0.662039 -1.56253 0
M  V30 2868 H 271.35 1.82692 -3.46034 0
M  V30 2869 H 270.973 3.17236 -2.39681 0
M  V30 2870 N 271.97 1.30982 0.876444 0
M  V30 2871 C 272.903 1.12414 1.98591 0
M  V30 2872 C 273.881 0.0294078 1.62573 0
M  V30 2873 O 275.065 0.184598 1.87594 0
M  V30 2874 C 272.192 0.716276 3.3104 0
M  V30 2875 C 271.238 1.81311 3.86042 0
M  V30 2876 S 272.071 3.41727 4.1229 0
M  V30 2877 C 273.227 3.02863 5.47745 0
M  V30 2878 H 273.46 2.06338 2.14037 0
M  V30 2879 H 270.993 1.15393 1.02586 0
M  V30 2880 H 272.951 0.487697 4.07593 0
M  V30 2881 H 271.612 -0.203749 3.13438 0
M  V30 2882 H 270.805 1.48021 4.81774 0
M  V30 2883 H 270.407 1.99641 3.16259 0
M  V30 2884 H 272.699 2.51353 6.29148 0
M  V30 2885 H 273.642 3.97533 5.8598 0
M  V30 2886 H 274.05 2.40487 5.10711 0
M  V30 2887 N 273.449 -1.08991 1.13837 0
M  V30 2888 C 274.86 -1.62746 0.914917 0
M  V30 2889 C 275.211 -1.88403 -0.547594 0
M  V30 2890 O 274.336 -1.63706 -1.41525 0
M  V30 2891 C 274.931 -2.95662 1.65437 0
M  V30 2892 C 273.49 -3.46225 1.47666 0
M  V30 2893 C 272.637 -2.20562 1.6807 0
M  V30 2894 H 275.588 -0.922946 1.29102 0
M  V30 2895 H 275.609 -3.63825 1.11407 0
M  V30 2896 H 275.121 -2.76956 2.71877 0
M  V30 2897 H 273.222 -3.70046 0.435478 0
M  V30 2898 H 273.335 -4.23368 2.24268 0
M  V30 2899 H 271.699 -2.29439 1.10589 0
M  V30 2900 H 272.482 -2.0437 2.7584 0
M  V30 2901 N 274.927 -0.932562 -1.27047 0
M  V30 2902 C 276.204 -0.49377 -1.89265 0
M  V30 2903 C 276.584 1.02833 -1.8436 0
M  V30 2904 O 275.932 1.88461 -1.29209 0
M  V30 2905 C 276.142 -1.04536 -3.32976 0
M  V30 2906 C 277.49 -1.10879 -4.09867 0
M  V30 2907 O 278.514 -0.995327 -3.42011 0
M  V30 2908 O 277.373 -1.28417 -5.31198 0
M  V30 2909 H 274.467 -0.159596 -0.811454 0
M  V30 2910 H 277.013 -1.02457 -1.3528 0
M  V30 2911 H 275.785 -2.08913 -3.30864 0
M  V30 2912 H 275.408 -0.496494 -3.94488 0
M  V30 2913 N 276.405 1.4127 -0.698611 0
M  V30 2914 C 277.653 2.00782 -0.230409 0
M  V30 2915 C 277.974 1.5562 1.17505 0
M  V30 2916 O 277.244 0.78815 1.79346 0
M  V30 2917 H 275.824 0.742464 -0.0821944 0
M  V30 2918 H 278.486 1.72852 -0.90045 0
M  V30 2919 H 277.582 3.11095 -0.25021 0
M  V30 2920 N 277.883 0.443576 1.51229 0
M  V30 2921 C 279.131 -0.120557 2.0174 0
M  V30 2922 C 279.452 -1.42665 1.32935 0
M  V30 2923 O 278.722 -1.9028 0.465866 0
M  V30 2924 H 277.302 -0.0475426 0.745486 0
M  V30 2925 H 279.964 0.587711 1.85828 0
M  V30 2926 H 279.06 -0.291972 3.10731 0
M  V30 2927 N 279.361 -1.56624 0.175154 0
M  V30 2928 C 280.324 -2.16934 -0.739738 0
M  V30 2929 C 281.324 -1.11842 -1.15533 0
M  V30 2930 O 282.514 -1.37335 -1.07167 0
M  V30 2931 C 279.646 -2.75531 -2.00738 0
M  V30 2932 H 280.839 -2.99131 -0.214639 0
M  V30 2933 H 278.392 -1.56123 -0.0744197 0
M  V30 2934 H 279.127 -1.97078 -2.57548 0
M  V30 2935 H 278.912 -3.52444 -1.71831 0
M  V30 2936 H 280.402 -3.21904 -2.66021 0
M  V30 2937 N 280.839 0.0985539 -1.57292 0
M  V30 2938 C 281.749 1.13824 -2.05137 0
M  V30 2939 C 282.765 1.44076 -0.975604 0
M  V30 2940 O 283.941 1.54786 -1.28853 0
M  V30 2941 C 281.006 2.43969 -2.46333 0
M  V30 2942 C 280.067 2.2093 -3.68087 0
M  V30 2943 C 279.3 3.44869 -4.0731 0
M  V30 2944 O 279.523 4.52972 -3.46659 0
M  V30 2945 O 278.457 3.34661 -5.00285 0
M  V30 2946 H 282.283 0.761881 -2.93988 0
M  V30 2947 H 279.868 0.310818 -1.46131 0
M  V30 2948 H 281.75 3.20609 -2.73473 0
M  V30 2949 H 280.425 2.81038 -1.60621 0
M  V30 2950 H 279.332 1.42081 -3.46069 0
M  V30 2951 H 280.665 1.88755 -4.54568 0
M  V30 2952 N 282.317 1.53212 0.369288 0
M  V30 2953 C 283.267 1.75769 1.45222 0
M  V30 2954 C 284.251 0.612136 1.48801 0
M  V30 2955 O 285.443 0.870674 1.54105 0
M  V30 2956 C 282.572 1.94769 2.82701 0
M  V30 2957 C 281.658 3.15315 2.83615 0
M  V30 2958 N 282.049 4.37295 2.54178 0
M  V30 2959 C 280.347 3.15962 3.14776 0
M  V30 2960 C 281.048 5.19015 2.62675 0
M  V30 2961 N 280.024 4.55142 2.97232 0
M  V30 2962 H 283.826 2.67691 1.2132 0
M  V30 2963 H 281.34 1.51787 0.577438 0
M  V30 2964 H 283.337 2.09056 3.60696 0
M  V30 2965 H 281.997 1.04073 3.07569 0
M  V30 2966 H 283.008 4.65091 2.27839 0
M  V30 2967 H 279.685 2.35144 3.44983 0
M  V30 2968 H 281.075 6.26305 2.43294 0
M  V30 2969 N 283.795 -0.628877 1.44509 0
M  V30 2970 C 285.044 -1.38437 1.4669 0
M  V30 2971 C 285.357 -1.95322 0.104272 0
M  V30 2972 O 286.563 -2.715 0.00362163 0
M  V30 2973 C 285.019 -2.50659 2.5826 0
M  V30 2974 C 284.627 -2.00277 4.0074 0
M  V30 2975 C 286.371 -3.27844 2.69664 0
M  V30 2976 C 284.278 -3.09854 5.0373 0
M  V30 2977 H 283.208 -0.520245 0.545766 0
M  V30 2978 H 285.859 -0.676313 1.70582 0
M  V30 2979 H 284.241 -3.2405 2.27612 0
M  V30 2980 H 285.415 -1.33736 4.40966 0
M  V30 2981 H 283.73 -1.35901 3.93599 0
M  V30 2982 H 286.327 -4.09534 3.43781 0
M  V30 2983 H 286.67 -3.77471 1.75559 0
M  V30 2984 H 287.203 -2.61543 2.99733 0
M  V30 2985 H 283.942 -2.65168 5.99472 0
M  V30 2986 H 283.462 -3.7503 4.68095 0
M  V30 2987 H 285.141 -3.74592 5.27532 0
M  V30 2988 N 285.273 -1.31445 -0.869486 0
M  V30 2989 C 286.236 -1.19094 -1.9583 0
M  V30 2990 C 287.236 -0.117906 -1.60367 0
M  V30 2991 O 288.426 -0.367208 -1.70286 0
M  V30 2992 C 285.558 -0.828165 -3.30688 0
M  V30 2993 H 286.751 -2.15842 -2.08212 0
M  V30 2994 H 284.304 -1.15063 -1.05784 0
M  V30 2995 H 285.039 0.138142 -3.24006 0
M  V30 2996 H 284.824 -1.6038 -3.578 0
M  V30 2997 H 286.314 -0.765658 -4.10521 0
M  V30 2998 N 286.751 1.08385 -1.14413 0
M  V30 2999 C 287.698 2.15311 -0.831265 0
M  V30 3000 C 288.668 1.64751 0.211292 0
M  V30 3001 O 289.853 1.90627 0.0811674 0
M  V30 3002 C 286.993 3.43658 -0.315143 0
M  V30 3003 C 286.106 4.08064 -1.41802 0
M  V30 3004 C 285.241 5.24207 -0.859126 0
M  V30 3005 C 284.28 5.80554 -1.93967 0
M  V30 3006 N 283.417 6.88042 -1.39793 0
M  V30 3007 H 288.257 2.41415 -1.74708 0
M  V30 3008 H 285.794 1.18474 -0.871909 0
M  V30 3009 H 287.752 4.172 0.00230884 0
M  V30 3010 H 286.382 3.17839 0.56378 0
M  V30 3011 H 285.434 3.3228 -1.85187 0
M  V30 3012 H 286.746 4.45962 -2.23427 0
M  V30 3013 H 285.9 6.04689 -0.49359 0
M  V30 3014 H 284.639 4.87699 -0.011932 0
M  V30 3015 H 283.644 4.98725 -2.31415 0
M  V30 3016 H 284.869 6.19121 -2.79046 0
M  V30 3017 H 282.815 6.53493 -0.572919 0
M  V30 3018 H 282.732 7.24767 -2.15054 0
M  V30 3019 H 284 7.72255 -1.0603 0
M  V30 3020 N 288.23 0.939286 1.26551 0
M  V30 3021 C 289.458 0.602536 1.97932 0
M  V30 3022 C 289.873 -0.82206 1.69964 0
M  V30 3023 O 289.23 -1.54789 0.966784 0
M  V30 3024 C 289.281 0.832946 3.51773 0
M  V30 3025 O 289.002 2.20151 3.78768 0
M  V30 3026 C 290.503 0.506483 4.40397 0
M  V30 3027 H 287.723 0.227248 0.631347 0
M  V30 3028 H 290.267 1.25948 1.61113 0
M  V30 3029 H 288.422 0.222644 3.8676 0
M  V30 3030 H 288.836 2.26013 4.73306 0
M  V30 3031 H 290.31 0.718333 5.47306 0
M  V30 3032 H 290.787 -0.558451 4.35635 0
M  V30 3033 H 291.393 1.09543 4.10951 0
M  V30 3034 N 289.708 -1.40897 0.706093 0
M  V30 3035 C 290.954 -2.01352 0.241889 0
M  V30 3036 C 291.287 -1.55832 -1.15888 0
M  V30 3037 O 290.562 -0.774145 -1.7843 0
M  V30 3038 C 290.845 -3.58752 0.311311 0
M  V30 3039 C 290.698 -4.1437 1.74978 0
M  V30 3040 C 292.017 -4.38914 -0.322922 0
M  V30 3041 H 289.136 -0.731562 0.0893687 0
M  V30 3042 H 291.778 -1.67504 0.896802 0
M  V30 3043 H 289.928 -3.87718 -0.246302 0
M  V30 3044 H 291.6 -3.96239 2.36205 0
M  V30 3045 H 289.843 -3.69016 2.28057 0
M  V30 3046 H 290.514 -5.23532 1.74981 0
M  V30 3047 H 292.99 -4.15822 0.152089 0
M  V30 3048 H 291.866 -5.48358 -0.243855 0
M  V30 3049 H 292.127 -4.19176 -1.40513 0
M  V30 3050 N 291.186 -0.45159 -1.50991 0
M  V30 3051 C 292.411 0.110667 -2.07105 0
M  V30 3052 C 292.836 1.3446 -1.31538 0
M  V30 3053 O 292.194 1.77743 -0.357365 0
M  V30 3054 C 292.242 0.397238 -3.58405 0
M  V30 3055 O 291.346 1.48124 -3.84881 0
M  V30 3056 H 290.687 -0.00439271 -0.663985 0
M  V30 3057 H 293.217 -0.637026 -1.9443 0
M  V30 3058 H 293.227 0.64351 -4.02893 0
M  V30 3059 H 291.902 -0.504553 -4.12828 0
M  V30 3060 H 290.479 1.22381 -3.52246 0
M  V30 3061 N 292.664 1.56529 -0.183458 0
M  V30 3062 C 293.894 2.01331 0.463612 0
M  V30 3063 C 294.302 1.06278 1.5653 0
M  V30 3064 O 293.645 0.0577976 1.83609 0
M  V30 3065 C 293.707 3.42547 1.09096 0
M  V30 3066 C 293.371 4.56817 0.129442 0
M  V30 3067 C 294.368 5.15734 -0.656807 0
M  V30 3068 C 292.053 5.02295 0.02174 0
M  V30 3069 C 294.047 6.1857 -1.53784 0
M  V30 3070 C 291.734 6.04978 -0.862864 0
M  V30 3071 C 292.732 6.62988 -1.64123 0
M  V30 3072 O 292.42 7.63677 -2.51103 0
M  V30 3073 H 292.152 0.664917 0.121907 0
M  V30 3074 H 294.706 2.034 -0.285954 0
M  V30 3075 H 292.936 3.37428 1.88889 0
M  V30 3076 H 294.625 3.71228 1.64148 0
M  V30 3077 H 295.391 4.81473 -0.583839 0
M  V30 3078 H 291.27 4.56847 0.617392 0
M  V30 3079 H 294.814 6.63777 -2.14583 0
M  V30 3080 H 290.711 6.38663 -0.93699 0
M  V30 3081 H 291.479 7.81049 -2.44753 0
M  V30 3082 N 294.142 -0.090211 1.57342 0
M  V30 3083 C 295.072 -1.10976 2.05443 0
M  V30 3084 C 296.053 -1.41482 0.944284 0
M  V30 3085 O 297.238 -1.51428 1.21586 0
M  V30 3086 C 294.368 -2.42831 2.48295 0
M  V30 3087 C 293.322 -2.26721 3.63018 0
M  V30 3088 C 292.648 -3.63796 3.91863 0
M  V30 3089 C 293.948 -1.7037 4.93732 0
M  V30 3090 H 295.642 -0.709564 2.9087 0
M  V30 3091 H 293.188 -0.339874 1.39932 0
M  V30 3092 H 295.141 -3.14431 2.80555 0
M  V30 3093 H 293.865 -2.84795 1.59873 0
M  V30 3094 H 292.524 -1.57565 3.31012 0
M  V30 3095 H 292.172 -4.03297 3.00601 0
M  V30 3096 H 291.872 -3.53861 4.69101 0
M  V30 3097 H 293.396 -4.36855 4.26603 0
M  V30 3098 H 294.81 -2.31816 5.24342 0
M  V30 3099 H 293.207 -1.71181 5.75167 0
M  V30 3100 H 294.277 -0.663542 4.80339 0
M  V30 3101 N 295.62 -1.53406 -0.361157 0
M  V30 3102 C 296.567 -1.80156 -1.44265 0
M  V30 3103 C 297.537 -0.646183 -1.53015 0
M  V30 3104 O 298.722 -0.888818 -1.68833 0
M  V30 3105 C 295.862 -2.00116 -2.81154 0
M  V30 3106 C 294.975 -3.27833 -2.81335 0
M  V30 3107 C 294.11 -3.37957 -4.09828 0
M  V30 3108 C 293.149 -4.59689 -4.04168 0
M  V30 3109 N 292.286 -4.66942 -5.24318 0
M  V30 3110 H 297.126 -2.72438 -1.20754 0
M  V30 3111 H 294.663 -1.34954 -0.585296 0
M  V30 3112 H 296.621 -2.09677 -3.60682 0
M  V30 3113 H 295.251 -1.11167 -3.03054 0
M  V30 3114 H 294.303 -3.27204 -1.94014 0
M  V30 3115 H 295.615 -4.17442 -2.73027 0
M  V30 3116 H 294.769 -3.46853 -4.97773 0
M  V30 3117 H 293.508 -2.46372 -4.20894 0
M  V30 3118 H 292.513 -4.50889 -3.14609 0
M  V30 3119 H 293.738 -5.5262 -3.947 0
M  V30 3120 H 291.684 -3.7826 -5.35962 0
M  V30 3121 H 291.601 -5.50462 -5.18197 0
M  V30 3122 H 292.869 -4.80127 -6.14084 0
M  V30 3123 N 297.098 0.621204 -1.44841 0
M  V30 3124 C 298.008 1.7612 -1.5498 0
M  V30 3125 C 299.024 1.68477 -0.434927 0
M  V30 3126 O 300.2 1.89076 -0.693693 0
M  V30 3127 C 297.265 3.1254 -1.50065 0
M  V30 3128 C 296.326 3.31741 -2.72482 0
M  V30 3129 C 295.559 4.61653 -2.67792 0
M  V30 3130 O 295.782 5.431 -1.74352 0
M  V30 3131 O 294.716 4.83271 -3.58794 0
M  V30 3132 H 298.542 1.70518 -2.51311 0
M  V30 3133 H 296.127 0.783643 -1.27198 0
M  V30 3134 H 298.009 3.93844 -1.49882 0
M  V30 3135 H 296.684 3.18663 -0.568806 0
M  V30 3136 H 295.591 2.50077 -2.7823 0
M  V30 3137 H 296.924 3.30486 -3.64746 0
M  V30 3138 N 298.576 1.31904 0.862503 0
M  V30 3139 C 299.992 1.10724 1.14945 0
M  V30 3140 C 300.192 -0.117421 2.01158 0
M  V30 3141 O 299.248 -0.804595 2.39338 0
M  V30 3142 C 300.561 2.38267 1.83437 0
M  V30 3143 C 302.109 2.43949 1.96106 0
M  V30 3144 C 302.584 3.71394 2.68013 0
M  V30 3145 N 304.075 3.72331 2.75543 0
M  V30 3146 C 304.81 4.67641 3.31812 0
M  V30 3147 N 304.306 5.73313 3.88953 0
M  V30 3148 N 306.099 4.5515 3.29841 0
M  V30 3149 H 298.25 2.10436 0.288191 0
M  V30 3150 H 300.513 0.928705 0.190292 0
M  V30 3151 H 300.219 3.27759 1.27542 0
M  V30 3152 H 300.093 2.48633 2.83657 0
M  V30 3153 H 302.48 1.54922 2.51164 0
M  V30 3154 H 302.561 2.37543 0.949059 0
M  V30 3155 H 302.205 4.60791 2.13621 0
M  V30 3156 H 302.135 3.75069 3.69636 0
M  V30 3157 H 304.626 2.95947 2.34997 0
M  V30 3158 H 304.939 6.42107 4.30022 0
M  V30 3159 H 303.284 5.77077 3.87308 0
M  V30 3160 H 306.475 3.71766 2.84443 0
M  V30 3161 H 306.648 5.29604 3.73394 0
M  V30 3162 N 300.054 -1.07777 1.14986 0
M  V30 3163 C 301.002 -2.16964 0.838406 0
M  V30 3164 C 301.996 -1.68372 -0.186386 0
M  V30 3165 O 303.202 -1.79951 -0.0418465 0
M  V30 3166 H 299.577 -0.708006 0.253439 0
M  V30 3167 H 301.548 -2.40454 1.76704 0
M  V30 3168 C 300.297 -3.4604 0.339335 0
M  V30 3169 H 299.62 -3.83813 1.11927 0
M  V30 3170 H 301.06 -4.23698 0.160021 0
M  V30 3171 C 299.519 -3.23569 -0.938325 0
M  V30 3172 O 300.049 -3.47752 -2.01077 0
M  V30 3173 N 298.255 -2.77079 -0.876117 0
M  V30 3174 H 297.802 -2.576 -0.00322037 0
M  V30 3175 H 297.76 -2.62422 -1.73153 0
M  V30 3176 N 301.532 -0.945985 -1.26051 0
M  V30 3177 C 302.943 -0.638096 -1.75457 0
M  V30 3178 C 303.294 0.846672 -1.76991 0
M  V30 3179 O 302.419 1.66262 -1.38513 0
M  V30 3180 C 303.014 -1.15157 -3.18629 0
M  V30 3181 C 301.573 -0.894004 -3.65629 0
M  V30 3182 C 300.72 -1.29967 -2.44957 0
M  V30 3183 H 303.671 -1.12376 -1.1206 0
M  V30 3184 H 303.692 -0.507615 -3.77099 0
M  V30 3185 H 303.204 -2.23222 -3.1748 0
M  V30 3186 H 301.305 0.172057 -3.72203 0
M  V30 3187 H 301.418 -1.52439 -4.54202 0
M  V30 3188 H 299.782 -0.718078 -2.44368 0
M  V30 3189 H 300.565 -2.38935 -2.46505 0
M  V30 3190 N 303.011 1.40521 -0.713556 0
M  V30 3191 C 303.958 2.30723 -0.059684 0
M  V30 3192 C 304.928 1.48079 0.752448 0
M  V30 3193 O 306.113 1.76823 0.71681 0
M  V30 3194 C 303.253 3.34274 0.857594 0
M  V30 3195 C 302.366 4.31986 0.0351536 0
M  V30 3196 C 301.501 5.22605 0.951724 0
M  V30 3197 C 300.54 6.11976 0.123253 0
M  V30 3198 N 299.677 6.9502 0.99459 0
M  V30 3199 H 304.517 2.86074 -0.834596 0
M  V30 3200 H 302.054 1.40879 -0.42326 0
M  V30 3201 H 304.012 3.92879 1.40364 0
M  V30 3202 H 302.642 2.8043 1.59871 0
M  V30 3203 H 301.694 3.7518 -0.628052 0
M  V30 3204 H 303.006 4.95101 -0.606347 0
M  V30 3205 H 302.16 5.86131 1.56638 0
M  V30 3206 H 300.899 4.59759 1.62705 0
M  V30 3207 H 299.904 5.47482 -0.50435 0
M  V30 3208 H 301.129 6.76881 -0.548539 0
M  V30 3209 H 299.075 6.34764 1.6556 0
M  V30 3210 H 298.992 7.54892 0.40908 0
M  V30 3211 H 300.26 7.62997 1.59549 0
M  V30 3212 N 304.489 0.459591 1.5075 0
M  V30 3213 C 305.738 -0.100971 2.01447 0
M  V30 3214 C 306.051 -1.41816 1.34713 0
M  V30 3215 O 307.257 -2.06299 1.76502 0
M  V30 3216 C 305.713 -0.23047 3.59161 0
M  V30 3217 C 305.321 1.0776 4.34847 0
M  V30 3218 C 307.065 -0.743608 4.17936 0
M  V30 3219 C 304.972 0.91253 5.84317 0
M  V30 3220 H 303.902 -0.0415102 0.752856 0
M  V30 3221 H 306.553 0.592742 1.73663 0
M  V30 3222 H 304.935 -0.987703 3.83485 0
M  V30 3223 H 306.109 1.8449 4.22256 0
M  V30 3224 H 304.424 1.52097 3.87628 0
M  V30 3225 H 307.021 -0.883959 5.27343 0
M  V30 3226 H 307.364 -1.73196 3.78562 0
M  V30 3227 H 307.897 -0.04408 3.97776 0
M  V30 3228 H 304.636 1.87391 6.28144 0
M  V30 3229 H 304.156 0.185422 5.99513 0
M  V30 3230 H 305.835 0.574547 6.44444 0
M  V30 3231 N 305.967 -1.56429 0.191757 0
M  V30 3232 C 306.897 -2.21937 -0.725696 0
M  V30 3233 C 307.878 -1.1814 -1.2238 0
M  V30 3234 O 309.063 -1.46636 -1.27325 0
M  V30 3235 C 306.193 -2.87611 -1.94672 0
M  V30 3236 C 305.147 -3.97623 -1.58366 0
M  V30 3237 C 304.473 -4.50446 -2.88102 0
M  V30 3238 C 305.773 -5.16197 -0.796133 0
M  V30 3239 H 307.467 -2.98861 -0.179606 0
M  V30 3240 H 305.013 -1.43749 -0.0849464 0
M  V30 3241 H 306.966 -3.3212 -2.59373 0
M  V30 3242 H 305.69 -2.08087 -2.51728 0
M  V30 3243 H 304.349 -3.53801 -0.960247 0
M  V30 3244 H 303.997 -3.67688 -3.43241 0
M  V30 3245 H 303.697 -5.24675 -2.64556 0
M  V30 3246 H 305.221 -4.97654 -3.53798 0
M  V30 3247 H 306.635 -5.57271 -1.34618 0
M  V30 3248 H 305.032 -5.96471 -0.658928 0
M  V30 3249 H 306.102 -4.84473 0.203478 0
M  V30 3250 N 307.445 0.0818655 -1.57387 0
M  V30 3251 C 308.691 0.784074 -1.8703 0
M  V30 3252 C 309.024 1.77729 -0.782689 0
M  V30 3253 O 308.299 1.93384 0.208051 0
M  V30 3254 C 308.582 1.50105 -3.27323 0
M  V30 3255 C 308.435 0.524925 -4.46727 0
M  V30 3256 C 309.754 2.44843 -3.65705 0
M  V30 3257 H 306.873 0.283582 -0.680257 0
M  V30 3258 H 309.515 0.0474352 -1.89941 0
M  V30 3259 H 307.665 2.12897 -3.24972 0
M  V30 3260 H 309.337 -0.0970111 -4.61198 0
M  V30 3261 H 307.58 -0.160606 -4.33503 0
M  V30 3262 H 308.251 1.064 -5.41648 0
M  V30 3263 H 310.727 1.92135 -3.69085 0
M  V30 3264 H 309.603 2.92018 -4.64776 0
M  V30 3265 H 309.864 3.29197 -2.95096 0
M  V30 3266 N 308.923 1.53595 0.353017 0
M  V30 3267 C 309.833 1.83897 1.45667 0
M  V30 3268 C 310.849 0.728334 1.58023 0
M  V30 3269 O 312.025 1.01968 1.73679 0
M  V30 3270 C 309.09 2.03383 2.80778 0
M  V30 3271 C 308.151 3.27262 2.77845 0
M  V30 3272 C 307.384 3.45809 4.06512 0
M  V30 3273 O 307.607 2.68387 5.03314 0
M  V30 3274 O 306.541 4.39207 4.11559 0
M  V30 3275 H 310.367 2.77686 1.2298 0
M  V30 3276 H 307.952 1.39132 0.544308 0
M  V30 3277 H 309.834 2.17698 3.60812 0
M  V30 3278 H 308.509 1.12783 3.03417 0
M  V30 3279 H 307.416 3.18359 1.96465 0
M  V30 3280 H 308.749 4.17824 2.60161 0
M  V30 3281 N 310.401 -0.613514 1.45168 0
M  V30 3282 C 311.641 -1.38405 1.5041 0
M  V30 3283 C 312.005 -1.91489 0.139922 0
M  V30 3284 O 313.206 -2.68716 0.067033 0
M  V30 3285 C 311.477 -2.50552 2.5487 0
M  V30 3286 S 313.036 -3.38439 2.79292 0
M  V30 3287 H 309.854 -0.471945 0.531779 0
M  V30 3288 H 312.456 -0.708518 1.82209 0
M  V30 3289 H 311.16 -2.09894 3.52665 0
M  V30 3290 H 310.691 -3.22913 2.24701 0
M  V30 3291 H 312.706 -4.48527 2.12222 0
M  V30 3292 N 311.879 -1.3236 -0.855495 0
M  V30 3293 C 312.809 -1.23833 -1.97958 0
M  V30 3294 C 313.79 -0.122361 -1.69659 0
M  V30 3295 O 314.975 -0.30939 -1.9172 0
M  V30 3296 C 312.105 -0.959772 -3.33775 0
M  V30 3297 C 311.059 -2.03689 -3.76424 0
M  V30 3298 C 310.385 -1.61075 -5.09862 0
M  V30 3299 C 311.685 -3.4518 -3.9198 0
M  V30 3300 H 313.379 -2.1788 -2.0535 0
M  V30 3301 H 310.925 -1.04891 -0.986605 0
M  V30 3302 H 312.878 -0.886678 -4.11966 0
M  V30 3303 H 311.602 0.0163404 -3.26596 0
M  V30 3304 H 310.261 -2.10012 -3.00484 0
M  V30 3305 H 309.909 -0.622107 -4.99138 0
M  V30 3306 H 309.609 -2.33143 -5.39368 0
M  V30 3307 H 311.133 -1.55201 -5.90546 0
M  V30 3308 H 312.547 -3.4145 -4.60526 0
M  V30 3309 H 310.944 -4.1559 -4.32903 0
M  V30 3310 H 312.014 -3.84903 -2.94919 0
M  V30 3311 N 313.357 1.07166 -1.15556 0
M  V30 3312 C 314.585 1.83514 -0.955519 0
M  V30 3313 C 315 1.82163 0.49621 0
M  V30 3314 O 314.357 1.23441 1.34419 0
M  V30 3315 C 314.408 3.30515 -1.46432 0
M  V30 3316 O 314.129 3.31937 -2.85918 0
M  V30 3317 C 315.63 4.23625 -1.30603 0
M  V30 3318 H 312.85 0.578926 -0.339244 0
M  V30 3319 H 315.394 1.35265 -1.53374 0
M  V30 3320 H 313.549 3.76106 -0.928584 0
M  V30 3321 H 313.963 4.23794 -3.09029 0
M  V30 3322 H 315.437 5.24831 -1.71047 0
M  V30 3323 H 315.914 4.38485 -0.250441 0
M  V30 3324 H 316.52 3.83871 -1.83094 0
M  V30 3325 N 314.835 0.952656 1.25548 0
M  V30 3326 C 316.246 0.647392 1.75116 0
M  V30 3327 C 316.597 -0.837274 1.77438 0
M  V30 3328 O 315.722 -1.65525 1.39393 0
M  V30 3329 C 316.317 1.16845 3.18014 0
M  V30 3330 C 314.876 0.913382 3.6515 0
M  V30 3331 C 314.023 1.31265 2.44264 0
M  V30 3332 H 316.974 1.12968 1.11462 0
M  V30 3333 H 316.995 0.527606 3.76824 0
M  V30 3334 H 316.507 2.24902 3.16292 0
M  V30 3335 H 314.608 -0.152316 3.72289 0
M  V30 3336 H 314.721 1.54845 4.53387 0
M  V30 3337 H 313.085 0.731028 2.43984 0
M  V30 3338 H 313.868 2.40239 2.45234 0
M  V30 3339 N 316.313 -1.40141 0.720998 0
M  V30 3340 C 317.59 -1.94677 0.189757 0
M  V30 3341 C 317.97 -1.65879 -1.30566 0
M  V30 3342 O 317.318 -0.979391 -2.06447 0
M  V30 3343 C 317.528 -3.45279 0.508304 0
M  V30 3344 C 318.876 -4.22209 0.449934 0
M  V30 3345 O 319.9 -3.53413 0.444677 0
M  V30 3346 O 318.759 -5.44788 0.432189 0
M  V30 3347 H 315.853 -0.826459 0.0299026 0
M  V30 3348 H 318.399 -1.49719 0.7989 0
M  V30 3349 H 317.171 -3.59619 1.54239 0
M  V30 3350 H 316.794 -3.97386 -0.130525 0
M  V30 3351 N 317.792 -0.46758 -1.50504 0
M  V30 3352 C 319.039 0.0886219 -2.02306 0
M  V30 3353 C 319.367 1.40037 -1.34981 0
M  V30 3354 O 318.622 1.90136 -0.463318 0
M  V30 3355 C 318.921 0.323995 -3.55928 0
M  V30 3356 C 318.587 -0.905618 -4.41712 0
M  V30 3357 C 317.249 -1.24275 -4.64875 0
M  V30 3358 C 319.601 -1.72448 -4.91845 0
M  V30 3359 C 316.929 -2.39888 -5.35417 0
M  V30 3360 C 319.281 -2.87185 -5.63656 0
M  V30 3361 C 317.945 -3.21317 -5.85074 0
M  V30 3362 H 317.215 0.0324291 -0.74029 0
M  V30 3363 H 319.862 -0.620945 -1.81153 0
M  V30 3364 H 318.167 1.11577 -3.75577 0
M  V30 3365 H 319.864 0.76826 -3.93572 0
M  V30 3366 H 316.454 -0.632956 -4.239 0
M  V30 3367 H 320.638 -1.4772 -4.73806 0
M  V30 3368 H 315.894 -2.66611 -5.50208 0
M  V30 3369 H 320.068 -3.50985 -6.01484 0
M  V30 3370 H 317.695 -4.1101 -6.39511 0
M  V30 3371 N 319.27 1.56325 -0.20005 0
M  V30 3372 C 320.686 1.58839 0.155716 0
M  V30 3373 C 320.886 1.21636 1.60645 0
M  V30 3374 O 319.942 0.941437 2.34293 0
M  V30 3375 C 321.255 3.0032 -0.151124 0
M  V30 3376 C 322.803 3.12866 -0.0916284 0
M  V30 3377 C 323.278 4.56488 -0.371845 0
M  V30 3378 N 324.769 4.62089 -0.320641 0
M  V30 3379 C 325.504 5.71116 -0.511243 0
M  V30 3380 N 325 6.88592 -0.762461 0
M  V30 3381 N 326.793 5.60335 -0.445157 0
M  V30 3382 H 318.944 1.78788 -1.14668 0
M  V30 3383 H 321.207 0.829996 -0.458051 0
M  V30 3384 H 320.913 3.32117 -1.15721 0
M  V30 3385 H 320.787 3.73257 0.543986 0
M  V30 3386 H 323.174 2.80878 0.905065 0
M  V30 3387 H 323.255 2.42304 -0.81989 0
M  V30 3388 H 322.899 4.89189 -1.36588 0
M  V30 3389 H 322.829 5.25246 0.377362 0
M  V30 3390 H 325.32 3.77665 -0.13329 0
M  V30 3391 H 325.633 7.67581 -0.896576 0
M  V30 3392 H 323.978 6.90387 -0.799412 0
M  V30 3393 H 327.169 4.67436 -0.249278 0
M  V30 3394 H 327.342 6.45243 -0.597116 0
M  V30 3395 N 320.748 -0.0735177 1.57428 0
M  V30 3396 C 321.996 -0.771472 1.86796 0
M  V30 3397 C 322.317 -1.78201 0.791804 0
M  V30 3398 O 321.587 -1.95074 -0.179718 0
M  V30 3399 H 320.167 -0.28791 0.689287 0
M  V30 3400 H 322.829 -0.0500161 1.94836 0
M  V30 3401 H 321.925 -1.28874 2.8425 0
M  V30 3402 N 322.226 -1.5378 -0.344866 0
M  V30 3403 C 323.503 -1.61589 -1.10219 0
M  V30 3404 C 323.883 -0.436316 -2.06542 0
M  V30 3405 O 323.231 0.571543 -2.21237 0
M  V30 3406 C 323.441 -2.97602 -1.82301 0
M  V30 3407 C 324.789 -3.5291 -2.36093 0
M  V30 3408 O 325.813 -2.99768 -1.924 0
M  V30 3409 O 324.672 -4.45859 -3.16026 0
M  V30 3410 H 321.766 -0.653522 -0.506792 0
M  V30 3411 H 324.312 -1.66126 -0.346465 0
M  V30 3412 H 323.084 -3.74893 -1.12121 0
M  V30 3413 H 322.707 -2.9665 -2.64735 0
M  V30 3414 N 323.704 0.605807 -1.45491 0
M  V30 3415 C 324.634 1.72709 -1.57143 0
M  V30 3416 C 325.615 1.6476 -0.422884 0
M  V30 3417 O 326.8 1.83132 -0.646247 0
M  V30 3418 C 323.93 3.11316 -1.53948 0
M  V30 3419 C 322.884 3.34077 -2.67537 0
M  V30 3420 C 322.21 4.72975 -2.49397 0
M  V30 3421 C 323.51 3.24158 -4.09535 0
M  V30 3422 H 325.204 1.63214 -2.51001 0
M  V30 3423 H 322.75 0.78379 -1.208 0
M  V30 3424 H 324.703 3.89557 -1.60696 0
M  V30 3425 H 323.427 3.21655 -0.566205 0
M  V30 3426 H 322.086 2.58227 -2.6022 0
M  V30 3427 H 321.734 4.8005 -1.50205 0
M  V30 3428 H 321.434 4.8916 -3.25571 0
M  V30 3429 H 322.958 5.53414 -2.58002 0
M  V30 3430 H 324.372 3.92271 -4.18086 0
M  V30 3431 H 322.769 3.51872 -4.86113 0
M  V30 3432 H 323.839 2.2157 -4.31317 0
M  V30 3433 N 325.182 1.32811 0.848464 0
M  V30 3434 C 326.129 1.22265 1.95755 0
M  V30 3435 C 327.099 0.103413 1.65778 0
M  V30 3436 O 328.284 0.280033 1.88734 0
M  V30 3437 C 325.424 0.958014 3.31536 0
M  V30 3438 C 324.537 2.16262 3.73971 0
M  V30 3439 C 323.672 1.83295 4.98575 0
M  V30 3440 C 322.711 3.00041 5.33518 0
M  V30 3441 N 321.848 2.67125 6.49299 0
M  V30 3442 H 326.688 2.17128 2.04107 0
M  V30 3443 H 324.225 1.07982 0.998913 0
M  V30 3444 H 326.183 0.785052 4.09747 0
M  V30 3445 H 324.813 0.046159 3.22767 0
M  V30 3446 H 323.865 2.44565 2.91362 0
M  V30 3447 H 325.177 3.03572 3.95785 0
M  V30 3448 H 324.331 1.62586 5.84509 0
M  V30 3449 H 323.07 0.932078 4.7871 0
M  V30 3450 H 322.075 3.21374 4.46093 0
M  V30 3451 H 323.3 3.90869 5.55336 0
M  V30 3452 H 321.246 1.79586 6.3094 0
M  V30 3453 H 321.163 3.47965 6.71161 0
M  V30 3454 H 322.431 2.49861 7.3837 0
M  V30 3455 N 326.66 -1.06551 1.16123 0
M  V30 3456 C 327.623 -2.12132 0.867906 0
M  V30 3457 C 328.623 -1.60224 -0.135944 0
M  V30 3458 O 329.813 -1.73943 0.0946422 0
M  V30 3459 C 326.945 -3.396 0.297419 0
M  V30 3460 H 328.138 -2.39586 1.80385 0
M  V30 3461 H 325.691 -1.22574 0.969812 0
M  V30 3462 H 326.426 -3.17794 -0.64633 0
M  V30 3463 H 326.211 -3.78581 1.02073 0
M  V30 3464 H 327.701 -4.17455 0.110052 0
M  V30 3465 N 328.138 -0.959301 -1.25041 0
M  V30 3466 C 329.387 -0.612254 -1.92183 0
M  V30 3467 C 329.7 0.855347 -1.75907 0
M  V30 3468 O 330.906 1.31256 -2.37664 0
M  V30 3469 C 329.362 -1.04435 -3.44414 0
M  V30 3470 C 328.97 -2.53482 -3.69393 0
M  V30 3471 C 330.714 -0.770055 -4.17457 0
M  V30 3472 C 328.621 -2.90468 -5.15153 0
M  V30 3473 H 327.551 -0.225279 -0.719559 0
M  V30 3474 H 330.202 -1.16438 -1.41825 0
M  V30 3475 H 328.584 -0.4206 -3.9376 0
M  V30 3476 H 329.758 -3.20916 -3.30681 0
M  V30 3477 H 328.073 -2.78432 -3.0962 0
M  V30 3478 H 330.67 -1.02249 -5.24832 0
M  V30 3479 H 331.013 0.293611 -4.15263 0
M  V30 3480 H 331.546 -1.35437 -3.74034 0
M  V30 3481 H 328.285 -3.95871 -5.22462 0
M  V30 3482 H 327.805 -2.27711 -5.54894 0
M  V30 3483 H 329.484 -2.79914 -5.83315 0
M  V30 3484 N 329.616 1.39756 -0.72842 0
M  V30 3485 C 330.526 2.34444 -0.0855374 0
M  V30 3486 C 331.542 1.57976 0.729356 0
M  V30 3487 O 332.718 1.90301 0.659346 0
M  V30 3488 C 329.783 3.36965 0.815798 0
M  V30 3489 C 328.844 4.29299 -0.0105996 0
M  V30 3490 C 328.077 5.26923 0.84781 0
M  V30 3491 O 328.3 5.30859 2.08673 0
M  V30 3492 O 327.234 6.01249 0.279969 0
M  V30 3493 H 331.06 2.91065 -0.866892 0
M  V30 3494 H 328.645 1.4117 -0.48902 0
M  V30 3495 H 330.527 3.99804 1.33171 0
M  V30 3496 H 329.202 2.82739 1.57608 0
M  V30 3497 H 328.109 3.69703 -0.571877 0
M  V30 3498 H 329.442 4.86712 -0.73295 0
M  V30 3499 N 331.094 0.475555 1.50254 0
M  V30 3500 C 332.041 -0.316293 2.28622 0
M  V30 3501 C 333.011 -0.983227 1.33873 0
M  V30 3502 O 334.196 -0.994805 1.62814 0
M  V30 3503 C 331.336 -1.38975 3.1588 0
M  V30 3504 C 330.449 -0.737146 4.25664 0
M  V30 3505 C 329.584 -1.78887 5.00173 0
M  V30 3506 C 328.623 -1.11676 6.01826 0
M  V30 3507 N 327.76 -2.11154 6.69596 0
M  V30 3508 H 332.6 0.358297 2.95838 0
M  V30 3509 H 330.137 0.188541 1.45887 0
M  V30 3510 H 332.095 -2.02383 3.64825 0
M  V30 3511 H 330.725 -2.03344 2.50701 0
M  V30 3512 H 329.777 0.0096065 3.80399 0
M  V30 3513 H 331.089 -0.206816 4.98371 0
M  V30 3514 H 330.243 -2.49865 5.52859 0
M  V30 3515 H 328.982 -2.35302 4.27182 0
M  V30 3516 H 327.987 -0.392633 5.48396 0
M  V30 3517 H 329.212 -0.55945 6.76792 0
M  V30 3518 H 327.158 -2.66577 5.99394 0
M  V30 3519 H 327.075 -1.63118 7.38193 0
M  V30 3520 H 328.343 -2.81497 7.26897 0
M  V30 3521 N 332.573 -1.56217 0.208337 0
M  V30 3522 C 333.819 -1.98242 -0.427552 0
M  V30 3523 C 334.152 -1.09554 -1.60348 0
M  V30 3524 O 333.427 -0.15035 -1.93918 0
M  V30 3525 C 333.71 -3.4931 -0.874907 0
M  V30 3526 C 333.563 -4.48773 0.303751 0
M  V30 3527 C 334.882 -4.04424 -1.73577 0
M  V30 3528 H 332.001 -0.720744 -0.153936 0
M  V30 3529 H 334.643 -1.87586 0.30192 0
M  V30 3530 H 332.793 -3.58522 -1.49648 0
M  V30 3531 H 334.465 -4.51586 0.941682 0
M  V30 3532 H 332.708 -4.23194 0.953375 0
M  V30 3533 H 333.379 -5.51976 -0.0519883 0
M  V30 3534 H 335.855 -3.98075 -1.21143 0
M  V30 3535 H 334.731 -5.1047 -2.01771 0
M  V30 3536 H 334.992 -3.50494 -2.69456 0
M  V30 3537 N 334.051 0.0651679 -1.57465 0
M  V30 3538 C 335.014 1.06117 -2.03155 0
M  V30 3539 C 336.014 1.31204 -0.929632 0
M  V30 3540 O 337.204 1.26813 -1.19432 0
M  V30 3541 C 334.336 2.4032 -2.41783 0
M  V30 3542 H 335.529 0.667231 -2.92383 0
M  V30 3543 H 333.082 0.311075 -1.53173 0
M  V30 3544 H 333.817 2.84532 -1.55601 0
M  V30 3545 H 333.602 2.23451 -3.22199 0
M  V30 3546 H 335.092 3.11898 -2.77685 0
M  V30 3547 N 335.529 1.53961 0.336706 0
M  V30 3548 C 336.459 1.85417 1.41925 0
M  V30 3549 C 337.44 0.709856 1.5458 0
M  V30 3550 O 338.625 0.962396 1.68676 0
M  V30 3551 C 335.755 2.06985 2.78881 0
M  V30 3552 C 334.709 3.22813 2.81026 0
M  V30 3553 C 334.035 3.29727 4.20932 0
M  V30 3554 C 335.335 4.60767 2.45949 0
M  V30 3555 H 337.029 2.76079 1.15848 0
M  V30 3556 H 334.575 1.32839 0.555859 0
M  V30 3557 H 336.528 2.27575 3.54665 0
M  V30 3558 H 335.252 1.13061 3.06406 0
M  V30 3559 H 333.911 3.0209 2.07695 0
M  V30 3560 H 333.559 2.33385 4.45579 0
M  V30 3561 H 333.259 4.07566 4.23277 0
M  V30 3562 H 334.783 3.52536 4.98549 0
M  V30 3563 H 336.197 4.81325 3.11446 0
M  V30 3564 H 334.594 5.4106 2.59566 0
M  V30 3565 H 335.664 4.6391 1.41122 0
M  V30 3566 N 337.007 -0.598083 1.45811 0
M  V30 3567 C 338.232 -1.3881 1.54099 0
M  V30 3568 C 338.657 -1.8726 0.177578 0
M  V30 3569 O 338.015 -1.6069 -0.839541 0
M  V30 3570 C 338.063 -2.56217 2.53743 0
M  V30 3571 O 337.167 -3.5716 2.06182 0
M  V30 3572 H 336.508 -0.414024 0.519115 0
M  V30 3573 H 339.038 -0.726971 1.91249 0
M  V30 3574 H 339.048 -3.03337 2.72856 0
M  V30 3575 H 337.723 -2.20303 3.5276 0
M  V30 3576 H 336.3 -3.16624 1.96987 0
M  V30 3577 N 338.485 -1.33259 -0.841409 0
M  V30 3578 C 339.733 -1.24326 -1.59334 0
M  V30 3579 C 340.054 0.191564 -1.94057 0
M  V30 3580 O 339.324 1.11967 -1.60749 0
M  V30 3581 H 337.904 -0.457174 -0.590763 0
M  V30 3582 H 340.566 -1.66947 -1.00571 0
M  V30 3583 H 339.662 -1.8352 -2.52442 0
M  V30 3584 N 339.963 1.05934 -1.16686 0
M  V30 3585 C 340.893 2.1546 -0.899949 0
M  V30 3586 C 341.874 1.69391 0.155154 0
M  V30 3587 O 343.059 1.94199 0.00648693 0
M  V30 3588 C 340.189 3.44939 -0.404241 0
M  V30 3589 C 339.143 4.04536 -1.39767 0
M  V30 3590 C 338.469 5.29268 -0.760216 0
M  V30 3591 C 339.769 4.42893 -2.76845 0
M  V30 3592 H 341.463 2.38046 -1.81588 0
M  V30 3593 H 339.009 1.14404 -0.874514 0
M  V30 3594 H 340.962 4.20901 -0.204971 0
M  V30 3595 H 339.686 3.21983 0.547206 0
M  V30 3596 H 338.345 3.30635 -1.58355 0
M  V30 3597 H 337.993 5.02611 0.197831 0
M  V30 3598 H 337.693 5.70101 -1.42332 0
M  V30 3599 H 339.217 6.07924 -0.57105 0
M  V30 3600 H 340.631 5.09921 -2.62019 0
M  V30 3601 H 339.028 4.94721 -3.39663 0
M  V30 3602 H 340.098 3.53584 -3.31823 0
M  V30 3603 N 341.441 0.965919 1.2453 0
M  V30 3604 C 342.718 0.543777 1.87889 0
M  V30 3605 C 343.098 -0.97909 1.87021 0
M  V30 3606 O 342.446 -1.84969 1.3416 0
M  V30 3607 C 342.656 1.13327 3.30088 0
M  V30 3608 C 344.004 1.21707 4.06783 0
M  V30 3609 O 345.028 1.08566 3.39252 0
M  V30 3610 O 343.887 1.42456 5.27606 0
M  V30 3611 H 340.981 0.181054 0.806938 0
M  V30 3612 H 343.527 1.06007 1.32516 0
M  V30 3613 H 342.299 2.17612 3.25209 0
M  V30 3614 H 341.922 0.600911 3.93033 0
M  V30 3615 N 342.919 -1.39368 0.735821 0
M  V30 3616 C 344.165 -2.00794 0.284544 0
M  V30 3617 C 344.498 -1.58255 -1.12557 0
M  V30 3618 O 343.773 -0.811819 -1.76748 0
M  V30 3619 C 344.056 -3.58011 0.387337 0
M  V30 3620 C 343.909 -4.10566 1.83728 0
M  V30 3621 C 345.228 -4.395 -0.22975 0
M  V30 3622 H 342.347 -0.729501 0.104866 0
M  V30 3623 H 344.989 -1.65564 0.93213 0
M  V30 3624 H 343.139 -3.88154 -0.164006 0
M  V30 3625 H 344.811 -3.91139 2.44556 0
M  V30 3626 H 343.054 -3.64095 2.35833 0
M  V30 3627 H 343.725 -5.19702 1.86047 0
M  V30 3628 H 346.201 -4.15406 0.240257 0
M  V30 3629 H 345.077 -5.48752 -0.127485 0
M  V30 3630 H 345.338 -4.22062 -1.3159 0
M  V30 3631 N 344.397 -0.483516 -1.5 0
M  V30 3632 C 345.627 0.0643896 -2.065 0
M  V30 3633 C 346.035 1.32949 -1.34615 0
M  V30 3634 O 345.378 1.79003 -0.412756 0
M  V30 3635 C 345.44 0.405983 -3.572 0
M  V30 3636 C 345.104 -0.758875 -4.50655 0
M  V30 3637 C 346.101 -1.64445 -4.93208 0
M  V30 3638 C 343.786 -0.952725 -4.93182 0
M  V30 3639 C 345.78 -2.70818 -5.77006 0
M  V30 3640 C 343.467 -2.01966 -5.76761 0
M  V30 3641 C 344.465 -2.89574 -6.18576 0
M  V30 3642 O 344.153 -3.94429 -7.00486 0
M  V30 3643 H 343.885 -0.00934786 -0.675935 0
M  V30 3644 H 346.439 -0.674959 -1.93993 0
M  V30 3645 H 344.669 1.19869 -3.67652 0
M  V30 3646 H 346.358 0.890433 -3.96013 0
M  V30 3647 H 347.124 -1.50643 -4.61012 0
M  V30 3648 H 343.003 -0.280247 -4.60147 0
M  V30 3649 H 346.547 -3.3923 -6.09565 0
M  V30 3650 H 342.444 -2.1577 -6.0837 0
M  V30 3651 H 343.212 -3.91568 -7.1876 0
M  V30 3652 N 345.875 1.56104 -0.216619 0
M  V30 3653 C 346.838 2.18819 0.681962 0
M  V30 3654 C 347.838 1.14866 1.12528 0
M  V30 3655 O 349.028 1.40128 1.03488 0
M  V30 3656 C 346.16 2.80756 1.93362 0
M  V30 3657 H 347.353 2.99595 0.135254 0
M  V30 3658 H 344.906 1.56265 0.0330003 0
M  V30 3659 H 345.641 2.03837 2.52232 0
M  V30 3660 H 345.426 3.56876 1.62426 0
M  V30 3661 H 346.916 3.28844 2.57393 0
M  V30 3662 N 347.353 -0.0568162 1.57498 0
M  V30 3663 C 348.303 -1.07315 2.01166 0
M  V30 3664 C 349.287 -1.33632 0.896171 0
M  V30 3665 O 350.479 -1.33682 1.16009 0
M  V30 3666 C 347.608 -2.38257 2.47161 0
M  V30 3667 C 346.694 -2.1515 3.65474 0
M  V30 3668 N 347.085 -1.62014 4.7915 0
M  V30 3669 C 345.383 -2.45559 3.72313 0
M  V30 3670 C 346.084 -1.54069 5.60926 0
M  V30 3671 N 345.06 -2.00652 5.05213 0
M  V30 3672 H 348.862 -0.655878 2.86488 0
M  V30 3673 H 346.376 -0.263635 1.60246 0
M  V30 3674 H 348.373 -3.11845 2.76691 0
M  V30 3675 H 347.033 -2.80687 1.63232 0
M  V30 3676 H 348.044 -1.30667 5.01145 0
M  V30 3677 H 344.721 -2.91253 2.99129 0
M  V30 3678 H 346.111 -1.13712 6.62208 0
M  V30 3679 N 348.832 -1.54138 -0.328536 0
M  V30 3680 C 349.78 -1.83894 -1.42428 0
M  V30 3681 C 350.774 -0.710478 -1.53781 0
M  V30 3682 O 351.98 -0.894062 -1.56226 0
M  V30 3683 H 348.355 -0.582837 -0.475189 0
M  V30 3684 H 350.326 -2.75537 -1.14552 0
M  V30 3685 C 349.075 -2.07866 -2.78724 0
M  V30 3686 H 348.398 -2.94158 -2.7076 0
M  V30 3687 H 349.838 -2.32644 -3.54476 0
M  V30 3688 C 348.297 -0.868689 -3.25508 0
M  V30 3689 O 348.827 -0.0754908 -4.01629 0
M  V30 3690 N 347.033 -0.681711 -2.82491 0
M  V30 3691 H 346.58 -1.32838 -2.20708 0
M  V30 3692 H 346.538 0.126374 -3.14146 0
M  V30 3693 N 350.31 0.590341 -1.46126 0
M  V30 3694 C 351.556 1.35082 -1.51264 0
M  V30 3695 C 351.889 1.93534 -0.160711 0
M  V30 3696 O 351.164 1.76045 0.826956 0
M  V30 3697 C 351.447 2.48588 -2.6053 0
M  V30 3698 C 351.3 1.95221 -4.05227 0
M  V30 3699 C 352.619 3.50662 -2.6594 0
M  V30 3700 H 349.738 0.489803 -0.550692 0
M  V30 3701 H 352.38 0.663887 -1.78024 0
M  V30 3702 H 350.53 3.07186 -2.37843 0
M  V30 3703 H 352.202 1.41139 -4.39178 0
M  V30 3704 H 350.445 1.26101 -4.15068 0
M  V30 3705 H 351.116 2.77121 -4.77397 0
M  V30 3706 H 353.592 3.01934 -2.86313 0
M  V30 3707 H 352.468 4.27551 -3.44226 0
M  V30 3708 H 352.729 4.07399 -1.71694 0
M  V30 3709 N 351.788 1.33704 0.83433 0
M  V30 3710 C 352.698 1.26382 1.97648 0
M  V30 3711 C 353.714 0.173548 1.73132 0
M  V30 3712 O 354.89 0.397962 1.97429 0
M  V30 3713 C 351.955 1.00769 3.31733 0
M  V30 3714 C 351.016 2.1884 3.69334 0
M  V30 3715 C 350.249 1.9444 4.9702 0
M  V30 3716 O 350.472 0.896961 5.63303 0
M  V30 3717 O 349.406 2.81093 5.32231 0
M  V30 3718 H 353.232 2.22444 2.06767 0
M  V30 3719 H 350.817 1.13795 0.968037 0
M  V30 3720 H 352.699 0.882186 4.12062 0
M  V30 3721 H 351.374 0.0773783 3.23608 0
M  V30 3722 H 350.281 2.36946 2.89495 0
M  V30 3723 H 351.614 3.10221 3.82131 0
M  V30 3724 N 353.266 -1.05314 1.17247 0
M  V30 3725 C 354.494 -1.81971 0.984593 0
M  V30 3726 C 354.909 -1.82929 -0.467166 0
M  V30 3727 O 354.266 -1.25564 -1.32438 0
M  V30 3728 C 354.317 -3.28143 1.51672 0
M  V30 3729 O 354.038 -3.27347 2.91163 0
M  V30 3730 C 355.539 -4.21493 1.37326 0
M  V30 3731 H 352.759 -0.573455 0.348411 0
M  V30 3732 H 355.303 -1.32808 1.55506 0
M  V30 3733 H 353.458 -3.74582 0.988302 0
M  V30 3734 H 353.872 -4.18824 3.15732 0
M  V30 3735 H 355.346 -5.22043 1.79375 0
M  V30 3736 H 355.823 -4.38031 0.320169 0
M  V30 3737 H 356.429 -3.80909 1.89178 0
M  V30 3738 N 354.744 -0.972509 -1.24016 0
M  V30 3739 C 355.99 -0.637978 -1.92504 0
M  V30 3740 C 356.323 0.825383 -1.75787 0
M  V30 3741 O 355.598 1.59442 -1.11393 0
M  V30 3742 C 355.881 -1.01942 -3.45369 0
M  V30 3743 C 355.734 -2.53983 -3.71231 0
M  V30 3744 C 357.053 -0.55751 -4.36555 0
M  V30 3745 H 354.172 -0.233248 -0.699117 0
M  V30 3746 H 356.814 -1.21238 -1.46292 0
M  V30 3747 H 354.964 -0.530656 -3.84859 0
M  V30 3748 H 356.636 -3.10374 -3.41271 0
M  V30 3749 H 354.879 -2.96968 -3.16216 0
M  V30 3750 H 355.55 -2.75723 -4.78206 0
M  V30 3751 H 358.026 -0.977029 -4.04467 0
M  V30 3752 H 356.902 -0.85292 -5.42233 0
M  V30 3753 H 357.163 0.542328 -4.38761 0
M  V30 3754 N 356.222 1.38976 -0.743202 0
M  V30 3755 C 357.633 1.83123 -0.363732 0
M  V30 3756 C 357.984 1.6205 1.10609 0
M  V30 3757 O 357.109 1.11606 1.854 0
M  V30 3758 C 357.704 3.32439 -0.653408 0
M  V30 3759 C 356.263 3.74974 -0.327338 0
M  V30 3760 C 355.41 2.61878 -0.911875 0
M  V30 3761 H 358.361 1.27852 -0.940191 0
M  V30 3762 H 358.382 3.80432 0.0720031 0
M  V30 3763 H 357.894 3.47745 -1.72323 0
M  V30 3764 H 355.995 3.65252 0.736314 0
M  V30 3765 H 356.108 4.72106 -0.815631 0
M  V30 3766 H 354.472 2.52448 -0.337944 0
M  V30 3767 H 355.255 2.79987 -1.98651 0
M  V30 3768 N 357.7 0.491464 1.49741 0
M  V30 3769 C 358.61 -0.296835 2.32715 0
M  V30 3770 C 359.626 -0.976536 1.44013 0
M  V30 3771 O 360.802 -0.960023 1.77047 0
M  V30 3772 C 357.867 -1.35288 3.19215 0
M  V30 3773 C 356.928 -0.687632 4.23757 0
M  V30 3774 C 356.161 -1.69336 5.06123 0
M  V30 3775 O 356.384 -2.92219 4.89861 0
M  V30 3776 O 355.318 -1.25394 5.88693 0
M  V30 3777 H 359.144 0.382048 3.01287 0
M  V30 3778 H 356.729 0.252953 1.47243 0
M  V30 3779 H 358.611 -1.96411 3.72828 0
M  V30 3780 H 357.286 -2.01487 2.53347 0
M  V30 3781 H 356.193 -0.0369159 3.74082 0
M  V30 3782 H 357.526 -0.0682566 4.92153 0
M  V30 3783 N 359.178 -1.55987 0.224894 0
M  V30 3784 C 360.108 -2.23426 -0.678457 0
M  V30 3785 C 361.089 -1.20709 -1.19847 0
M  V30 3786 O 362.274 -1.49304 -1.24186 0
M  V30 3787 C 359.404 -2.91676 -1.88527 0
M  V30 3788 C 358.358 -4.00893 -1.49896 0
M  V30 3789 C 357.684 -4.56455 -2.78483 0
M  V30 3790 C 358.984 -5.17769 -0.686461 0
M  V30 3791 H 360.678 -2.99175 -0.116173 0
M  V30 3792 H 358.224 -1.43897 -0.054436 0
M  V30 3793 H 360.177 -3.37547 -2.5227 0
M  V30 3794 H 358.901 -2.1338 -2.47258 0
M  V30 3795 H 357.56 -3.55758 -0.884985 0
M  V30 3796 H 357.208 -3.74886 -3.35365 0
M  V30 3797 H 356.908 -5.30169 -2.53368 0
M  V30 3798 H 358.432 -5.05047 -3.43162 0
M  V30 3799 H 359.846 -5.60001 -1.22767 0
M  V30 3800 H 358.243 -5.97735 -0.532259 0
M  V30 3801 H 359.313 -4.83932 0.306196 0
M  V30 3802 N 360.656 0.0484629 -1.57525 0
M  V30 3803 C 361.588 1.08222 -2.02041 0
M  V30 3804 C 362.601 1.33621 -0.930012 0
M  V30 3805 O 363.79 1.3145 -1.20761 0
M  V30 3806 C 360.89 2.42818 -2.36416 0
M  V30 3807 C 360.063 2.37049 -3.67596 0
M  V30 3808 C 359.122 3.53937 -3.89378 0
M  V30 3809 O 358.148 3.34308 -4.60681 0
M  V30 3810 N 359.35 4.75126 -3.3352 0
M  V30 3811 H 362.115 0.702946 -2.9134 0
M  V30 3812 H 359.676 0.236745 -1.6016 0
M  V30 3813 H 361.668 3.197 -2.48141 0
M  V30 3814 H 360.238 2.72661 -1.52888 0
M  V30 3815 H 359.458 1.45395 -3.66407 0
M  V30 3816 H 360.746 2.30318 -4.53686 0
M  V30 3817 H 360.144 4.93976 -2.75688 0
M  V30 3818 H 358.701 5.49439 -3.50656 0
M  V30 3819 N 362.134 1.5431 0.320358 0
M  V30 3820 C 363.359 1.76954 1.08175 0
M  V30 3821 C 363.784 0.518193 1.80821 0
M  V30 3822 O 363.142 -0.530411 1.73368 0
M  V30 3823 C 363.19 2.96451 2.05303 0
M  V30 3824 O 362.294 2.68221 3.13259 0
M  V30 3825 H 361.635 0.586275 0.311733 0
M  V30 3826 H 364.165 2.01342 0.363676 0
M  V30 3827 H 364.175 3.23887 2.48116 0
M  V30 3828 H 362.85 3.87196 1.51829 0
M  V30 3829 H 361.427 2.51744 2.75099 0
M  V30 3830 N 363.613 -0.582584 1.46437 0
M  V30 3831 C 364.56 -1.69164 1.5701 0
M  V30 3832 C 365.53 -1.60847 0.414403 0
M  V30 3833 O 366.715 -1.80058 0.631171 0
M  V30 3834 C 363.855 -3.075 1.56646 0
M  V30 3835 C 362.968 -3.2644 2.82951 0
M  V30 3836 C 362.103 -4.55026 2.7409 0
M  V30 3837 C 361.142 -4.6731 3.95333 0
M  V30 3838 N 360.279 -5.87221 3.84858 0
M  V30 3839 H 365.119 -1.59464 2.51744 0
M  V30 3840 H 362.656 -0.777186 1.24893 0
M  V30 3841 H 364.614 -3.8757 1.5442 0
M  V30 3842 H 363.244 -3.16096 0.654439 0
M  V30 3843 H 362.296 -2.39974 2.95155 0
M  V30 3844 H 363.608 -3.31385 3.72808 0
M  V30 3845 H 362.762 -5.43324 2.6997 0
M  V30 3846 H 361.501 -4.52519 1.81873 0
M  V30 3847 H 360.506 -3.77429 3.99784 0
M  V30 3848 H 361.731 -4.71595 4.88646 0
M  V30 3849 H 359.677 -5.85712 2.95427 0
M  V30 3850 H 359.594 -5.93435 4.6837 0
M  V30 3851 H 360.862 -6.7795 3.84713 0
M  V30 3852 N 365.091 -1.34144 -0.827227 0
M  V30 3853 C 366.337 -1.26446 -1.58554 0
M  V30 3854 C 366.67 0.1664 -1.93486 0
M  V30 3855 O 365.945 1.1107 -1.59667 0
M  V30 3856 C 366.228 -2.15111 -2.8879 0
M  V30 3857 C 366.081 -3.66712 -2.60465 0
M  V30 3858 C 367.4 -2.03311 -3.90324 0
M  V30 3859 H 364.519 -0.46067 -0.575284 0
M  V30 3860 H 367.161 -1.64356 -0.953269 0
M  V30 3861 H 365.311 -1.8291 -3.42748 0
M  V30 3862 H 366.983 -4.09259 -2.1285 0
M  V30 3863 H 365.226 -3.88014 -1.93978 0
M  V30 3864 H 365.897 -4.24112 -3.53317 0
M  V30 3865 H 368.373 -2.31574 -3.45706 0
M  V30 3866 H 367.249 -2.67582 -4.79261 0
M  V30 3867 H 367.51 -1.00879 -4.30437 0
M  V30 3868 N 366.569 1.04691 -1.17803 0
M  V30 3869 C 367.985 1.29963 -0.926379 0
M  V30 3870 C 368.185 1.97251 0.411635 0
M  V30 3871 O 367.241 2.24922 1.14744 0
M  V30 3872 C 368.554 2.16447 -2.08737 0
M  V30 3873 C 370.102 2.29814 -2.12496 0
M  V30 3874 C 370.577 3.19661 -3.27995 0
M  V30 3875 N 372.068 3.27247 -3.27816 0
M  V30 3876 C 372.803 3.96906 -4.13827 0
M  V30 3877 N 372.299 4.6895 -5.09959 0
M  V30 3878 N 374.092 3.93122 -4.01761 0
M  V30 3879 H 366.243 0.594182 -2.0392 0
M  V30 3880 H 368.506 0.324649 -0.890678 0
M  V30 3881 H 368.212 1.74304 -3.05469 0
M  V30 3882 H 368.086 3.17103 -2.04268 0
M  V30 3883 H 370.473 2.71196 -1.16347 0
M  V30 3884 H 370.554 1.2877 -2.21025 0
M  V30 3885 H 370.198 2.78991 -4.24413 0
M  V30 3886 H 370.128 4.20722 -3.16703 0
M  V30 3887 H 372.619 2.75921 -2.58217 0
M  V30 3888 H 372.932 5.19679 -5.71974 0
M  V30 3889 H 371.277 4.67875 -5.13924 0
M  V30 3890 H 374.468 3.35967 -3.2595 0
M  V30 3891 H 374.641 4.47139 -4.6901 0
M  V30 3892 N 368.047 0.979072 1.23499 0
M  V30 3893 C 369.324 0.563674 1.87302 0
M  V30 3894 C 369.704 -0.959199 1.88049 0
M  V30 3895 O 369.052 -1.83535 1.36114 0
M  V30 3896 C 369.262 1.16822 3.28867 0
M  V30 3897 C 370.61 1.26014 4.0547 0
M  V30 3898 O 371.634 1.12158 3.38082 0
M  V30 3899 O 370.493 1.48044 5.26066 0
M  V30 3900 H 367.587 0.189602 0.804972 0
M  V30 3901 H 370.133 1.07407 1.31384 0
M  V30 3902 H 368.905 2.21049 3.22883 0
M  V30 3903 H 368.528 0.642564 3.92373 0
M  V30 3904 N 369.525 -1.3858 0.750561 0
M  V30 3905 C 370.936 -1.82927 0.373438 0
M  V30 3906 C 371.287 -1.62634 -1.09748 0
M  V30 3907 O 370.412 -1.12588 -1.84805 0
M  V30 3908 C 371.007 -3.32088 0.671029 0
M  V30 3909 C 369.566 -3.74795 0.34722 0
M  V30 3910 C 368.713 -2.61391 0.92575 0
M  V30 3911 H 371.664 -1.27351 0.946958 0
M  V30 3912 H 371.685 -3.80465 -0.0518269 0
M  V30 3913 H 371.197 -3.46826 1.74164 0
M  V30 3914 H 369.298 -3.65638 -0.716933 0
M  V30 3915 H 369.411 -4.71667 0.840656 0
M  V30 3916 H 367.775 -2.52265 0.351327 0
M  V30 3917 H 368.558 -2.78929 2.00133 0
M  V30 3918 N 371.003 -0.499398 -1.49478 0
M  V30 3919 C 372.419 -0.155261 -1.58843 0
M  V30 3920 C 372.619 1.34008 -1.50479 0
M  V30 3921 O 371.675 2.11589 -1.37791 0
M  V30 3922 C 372.988 -0.730636 -2.91689 0
M  V30 3923 C 374.536 -0.696599 -3.0515 0
M  V30 3924 C 375.011 -1.25001 -4.40612 0
M  V30 3925 N 376.502 -1.21064 -4.47099 0
M  V30 3926 C 377.237 -1.60905 -5.50361 0
M  V30 3927 N 376.733 -2.08331 -6.60735 0
M  V30 3928 N 378.526 -1.52331 -5.41065 0
M  V30 3929 H 370.677 -1.47162 -1.53158 0
M  V30 3930 H 372.94 -0.610309 -0.725415 0
M  V30 3931 H 372.646 -1.77928 -3.03372 0
M  V30 3932 H 372.52 -0.190161 -3.7672 0
M  V30 3933 H 374.907 0.343204 -2.93097 0
M  V30 3934 H 374.988 -1.2742 -2.21806 0
M  V30 3935 H 374.632 -2.28859 -4.53416 0
M  V30 3936 H 374.562 -0.64836 -5.22593 0
M  V30 3937 H 377.053 -0.863128 -3.67911 0
M  V30 3938 H 377.366 -2.36805 -7.35624 0
M  V30 3939 H 375.711 -2.12304 -6.6178 0
M  V30 3940 H 378.902 -1.151 -4.53729 0
M  V30 3941 H 379.075 -1.83704 -6.21415 0
M  V30 3942 N 372.481 1.55866 -0.233164 0
M  V30 3943 C 373.444 2.1953 0.658715 0
M  V30 3944 C 374.444 1.16053 1.11303 0
M  V30 3945 O 375.634 1.41218 1.01996 0
M  V30 3946 C 372.766 2.82791 1.90373 0
M  V30 3947 H 373.959 2.99721 0.10347 0
M  V30 3948 H 371.512 1.56291 0.0164245 0
M  V30 3949 H 372.247 2.06501 2.50056 0
M  V30 3950 H 372.032 3.58578 1.58632 0
M  V30 3951 H 373.522 3.31556 2.53891 0
M  V30 3952 N 373.959 -0.0401083 1.57549 0
M  V30 3953 C 374.907 -1.06264 2.06908 0
M  V30 3954 C 375.901 -1.38132 0.980608 0
M  V30 3955 O 377.107 -1.37167 1.16556 0
M  V30 3956 H 373.482 -0.360166 0.660139 0
M  V30 3957 H 375.453 -0.620445 2.91878 0
M  V30 3958 C 374.202 -2.35846 2.55483 0
M  V30 3959 H 373.525 -2.12183 3.38849 0
M  V30 3960 H 374.965 -3.05765 2.93741 0
M  V30 3961 C 373.424 -3.0404 1.45126 0
M  V30 3962 O 373.954 -3.93424 0.811216 0
M  V30 3963 N 372.16 -2.65184 1.18852 0
M  V30 3964 H 371.707 -1.92584 1.71083 0
M  V30 3965 H 371.665 -3.1113 0.452244 0
M  V30 3966 N 375.437 -1.54477 -0.31217 0
M  V30 3967 C 376.684 -1.73227 -1.04875 0
M  V30 3968 C 377.012 -0.512042 -1.87639 0
M  V30 3969 O 376.267 0.506131 -1.89042 0
M  V30 3970 C 376.566 -2.967 -1.99258 0
M  V30 3971 C 376.232 -4.30974 -1.32559 0
M  V30 3972 C 374.894 -4.67477 -1.141 0
M  V30 3973 C 377.246 -5.14258 -0.847835 0
M  V30 3974 C 374.574 -5.84852 -0.465326 0
M  V30 3975 C 376.926 -6.32327 -0.185931 0
M  V30 3976 C 375.59 -6.67499 0.0107077 0
M  V30 3977 H 374.86 -0.633881 -0.383765 0
M  V30 3978 H 377.507 -1.88727 -0.324731 0
M  V30 3979 H 375.812 -2.75935 -2.7815 0
M  V30 3980 H 377.509 -3.08401 -2.563 0
M  V30 3981 H 374.099 -4.02262 -1.4793 0
M  V30 3982 H 378.283 -4.86565 -0.978192 0
M  V30 3983 H 373.539 -6.10654 -0.301883 0
M  V30 3984 H 377.713 -6.96135 0.192211 0
M  V30 3985 H 375.34 -7.58306 0.536287 0
M  V30 3986 N 376.915 0.57481 -1.46744 0
M  V30 3987 C 378.192 1.3352 -1.4294 0
M  V30 3988 C 378.572 2.10775 -0.117009 0
M  V30 3989 O 377.92 2.09966 0.901474 0
M  V30 3990 C 378.13 2.25456 -2.66403 0
M  V30 3991 C 379.478 2.87035 -3.12883 0
M  V30 3992 O 380.502 2.35766 -2.67007 0
M  V30 3993 O 379.361 3.80179 -3.92589 0
M  V30 3994 H 376.455 0.600318 -0.568812 0
M  V30 3995 H 379.001 0.595171 -1.58921 0
M  V30 3996 H 377.773 1.67851 -3.53471 0
M  V30 3997 H 377.396 3.06785 -2.52921 0
M  V30 3998 N 378.394 1.34581 0.820102 0
M  V30 3999 C 379.326 1.22236 1.93884 0
M  V30 4000 C 380.339 0.148776 1.62119 0
M  V30 4001 O 381.528 0.400877 1.7394 0
M  V30 4002 C 378.628 0.856542 3.27897 0
M  V30 4003 C 377.801 2.02569 3.87666 0
M  V30 4004 C 376.86 1.63782 5.00062 0
M  V30 4005 O 375.886 2.35477 5.18208 0
M  V30 4006 N 377.088 0.553611 5.77854 0
M  V30 4007 H 379.853 2.18615 2.05006 0
M  V30 4008 H 377.414 1.27573 0.99683 0
M  V30 4009 H 379.406 0.578806 4.0054 0
M  V30 4010 H 377.976 -0.0171518 3.12595 0
M  V30 4011 H 377.196 2.468 3.07382 0
M  V30 4012 H 378.484 2.80752 4.24329 0
M  V30 4013 H 377.882 -0.0423528 5.65684 0
M  V30 4014 H 376.439 0.335614 6.50935 0
M  V30 4015 N 379.872 -1.04064 1.18357 0
M  V30 4016 C 381.097 -1.81454 1.00445 0
M  V30 4017 C 381.522 -1.82823 -0.442423 0
M  V30 4018 O 380.88 -1.24555 -1.31741 0
M  V30 4019 C 380.928 -3.24925 1.56384 0
M  V30 4020 O 380.032 -4.04856 0.785209 0
M  V30 4021 H 379.373 -0.560604 0.355835 0
M  V30 4022 H 381.903 -1.31059 1.57114 0
M  V30 4023 H 381.913 -3.75702 1.59097 0
M  V30 4024 H 380.588 -3.23244 2.61699 0
M  V30 4025 H 379.165 -3.63537 0.830399 0
M  V30 4026 N 381.35 -0.985608 -1.22978 0
M  V30 4027 C 382.28 -0.549649 -2.26939 0
M  V30 4028 C 383.261 0.419803 -1.64838 0
M  V30 4029 O 384.446 0.31203 -1.91677 0
M  V30 4030 C 381.576 0.143652 -3.47003 0
M  V30 4031 C 380.53 -0.743606 -4.21491 0
M  V30 4032 C 379.856 0.0822027 -5.34637 0
M  V30 4033 C 381.156 -2.03694 -4.80943 0
M  V30 4034 H 382.85 -1.41862 -2.63658 0
M  V30 4035 H 380.396 -0.683571 -1.26741 0
M  V30 4036 H 382.349 0.459985 -4.18882 0
M  V30 4037 H 381.073 1.04711 -3.09359 0
M  V30 4038 H 379.732 -1.04347 -3.51436 0
M  V30 4039 H 379.38 0.986359 -4.93234 0
M  V30 4040 H 379.08 -0.508377 -5.85397 0
M  V30 4041 H 380.604 0.392797 -6.09335 0
M  V30 4042 H 382.018 -1.78504 -5.44802 0
M  V30 4043 H 380.415 -2.57573 -5.42011 0
M  V30 4044 H 381.485 -2.72042 -4.01399 0
M  V30 4045 N 382.828 1.3818 -0.7579 0
M  V30 4046 C 384.244 1.5353 -0.435972 0
M  V30 4047 C 384.444 1.71961 1.05032 0
M  V30 4048 O 383.5 1.73307 1.83633 0
M  V30 4049 C 384.813 2.73989 -1.23898 0
M  V30 4050 C 386.361 2.87841 -1.22949 0
M  V30 4051 C 386.836 4.11266 -2.01554 0
M  V30 4052 N 388.327 4.18352 -1.98837 0
M  V30 4053 C 389.062 5.12856 -2.5645 0
M  V30 4054 N 388.558 6.13005 -3.22794 0
M  V30 4055 N 390.351 5.05238 -2.46356 0
M  V30 4056 H 382.502 1.24467 -1.7211 0
M  V30 4057 H 384.765 0.604982 -0.729864 0
M  V30 4058 H 384.471 2.66789 -2.29165 0
M  V30 4059 H 384.345 3.67294 -0.858764 0
M  V30 4060 H 386.732 2.9452 -0.184854 0
M  V30 4061 H 386.813 1.95534 -1.64924 0
M  V30 4062 H 386.457 4.05349 -3.06031 0
M  V30 4063 H 386.387 5.02661 -1.5697 0
M  V30 4064 H 388.878 3.46628 -1.50524 0
M  V30 4065 H 389.191 6.81619 -3.64165 0
M  V30 4066 H 387.536 6.13325 -3.2689 0
M  V30 4067 H 390.727 4.25938 -1.9415 0
M  V30 4068 H 390.9 5.78707 -2.91552 0
M  V30 4069 N 384.306 0.507319 1.49211 0
M  V30 4070 C 385.552 -0.0350047 2.0277 0
M  V30 4071 C 385.885 -1.3606 1.38569 0
M  V30 4072 O 385.16 -1.87321 0.523542 0
M  V30 4073 C 385.443 -0.180916 3.59645 0
M  V30 4074 C 385.296 1.16825 4.34364 0
M  V30 4075 C 386.615 -0.918558 4.30407 0
M  V30 4076 H 383.734 -0.0112473 0.736914 0
M  V30 4077 H 386.376 0.659956 1.7817 0
M  V30 4078 H 384.526 -0.772826 3.80736 0
M  V30 4079 H 386.198 1.79952 4.24753 0
M  V30 4080 H 384.441 1.75594 3.96673 0
M  V30 4081 H 385.112 1.01939 5.42506 0
M  V30 4082 H 387.588 -0.41649 4.1401 0
M  V30 4083 H 386.464 -0.989505 5.39907 0
M  V30 4084 H 386.725 -1.96373 3.96093 0
M  V30 4085 N 385.784 -1.5574 0.241426 0
M  V30 4086 C 386.714 -2.24133 -0.654722 0
M  V30 4087 C 387.695 -1.21974 -1.1856 0
M  V30 4088 O 388.88 -1.50612 -1.22595 0
M  V30 4089 C 386.01 -2.93659 -1.85423 0
M  V30 4090 C 384.964 -4.0246 -1.45636 0
M  V30 4091 C 384.29 -4.59383 -2.73626 0
M  V30 4092 C 385.59 -5.18468 -0.631506 0
M  V30 4093 H 387.284 -2.99281 -0.0844353 0
M  V30 4094 H 384.83 -1.43947 -0.0391707 0
M  V30 4095 H 386.783 -3.40203 -2.48676 0
M  V30 4096 H 385.507 -2.15991 -2.44981 0
M  V30 4097 H 384.166 -3.56676 -0.847202 0
M  V30 4098 H 383.814 -3.78422 -3.3137 0
M  V30 4099 H 383.514 -5.32826 -2.4773 0
M  V30 4100 H 385.038 -5.08658 -3.37786 0
M  V30 4101 H 386.452 -5.61272 -1.1682 0
M  V30 4102 H 384.849 -5.98266 -0.468831 0
M  V30 4103 H 385.919 -4.8358 0.357506 0
M  V30 4104 N 387.262 0.0317525 -1.57568 0
M  V30 4105 C 388.209 1.0332 -2.06382 0
M  V30 4106 C 389.179 1.36082 -0.952414 0
M  V30 4107 O 390.364 1.46466 -1.2228 0
M  V30 4108 C 387.504 2.32989 -2.54578 0
M  V30 4109 C 386.617 2.0641 -3.79498 0
M  V30 4110 C 385.752 3.2993 -4.16317 0
M  V30 4111 C 384.791 2.98893 -5.34162 0
M  V30 4112 N 383.928 4.14857 -5.66426 0
M  V30 4113 H 388.768 0.609982 -2.9169 0
M  V30 4114 H 386.305 0.289573 -1.44222 0
M  V30 4115 H 388.263 3.0875 -2.80587 0
M  V30 4116 H 386.893 2.73039 -1.7219 0
M  V30 4117 H 385.945 1.21158 -3.6059 0
M  V30 4118 H 387.257 1.79513 -4.65378 0
M  V30 4119 H 386.411 4.1406 -4.4344 0
M  V30 4120 H 385.15 3.59938 -3.29083 0
M  V30 4121 H 384.155 2.13164 -5.06795 0
M  V30 4122 H 385.38 2.70165 -6.23047 0
M  V30 4123 H 383.326 4.44821 -4.82151 0
M  V30 4124 H 383.243 3.91374 -6.4681 0
M  V30 4125 H 384.511 4.99868 -5.98124 0
M  V30 4126 N 388.74 1.54641 0.303973 0
M  V30 4127 C 389.69 1.8177 1.37636 0
M  V30 4128 C 390.674 0.674697 1.46071 0
M  V30 4129 O 391.866 0.935251 1.50273 0
M  V30 4130 C 388.995 2.06584 2.74186 0
M  V30 4131 C 388.081 3.2706 2.69986 0
M  V30 4132 N 388.472 4.47682 2.35402 0
M  V30 4133 C 386.77 3.29028 3.01092 0
M  V30 4134 C 387.471 5.29689 2.40426 0
M  V30 4135 N 386.447 4.67339 2.7766 0
M  V30 4136 H 390.249 2.72596 1.09857 0
M  V30 4137 H 387.763 1.541 0.51254 0
M  V30 4138 H 389.76 2.24166 3.51504 0
M  V30 4139 H 388.42 1.17024 3.02879 0
M  V30 4140 H 389.431 4.74336 2.07908 0
M  V30 4141 H 386.108 2.49565 3.34699 0
M  V30 4142 H 387.498 6.3606 2.16512 0
M  V30 4143 N 390.218 -0.567019 1.47046 0
M  V30 4144 C 391.181 -1.65696 1.58359 0
M  V30 4145 C 392.181 -1.54097 0.459441 0
M  V30 4146 O 393.371 -1.58432 0.724225 0
M  V30 4147 C 390.503 -3.05197 1.51879 0
M  V30 4148 H 391.696 -1.57019 2.5551 0
M  V30 4149 H 389.249 -0.786148 1.3509 0
M  V30 4150 H 389.984 -3.19417 0.560673 0
M  V30 4151 H 389.769 -3.15025 2.33455 0
M  V30 4152 H 391.259 -3.84511 1.62913 0
M  V30 4153 N 391.696 -1.35014 -0.812953 0
M  V30 4154 C 392.643 -1.27412 -1.92444 0
M  V30 4155 C 393.613 -0.14733 -1.65445 0
M  V30 4156 O 394.798 -0.329974 -1.87925 0
M  V30 4157 C 391.938 -1.04558 -3.28879 0
M  V30 4158 C 391.051 -2.26101 -3.68106 0
M  V30 4159 C 390.186 -1.96449 -4.9354 0
M  V30 4160 C 389.225 -3.14081 -5.25376 0
M  V30 4161 N 388.362 -2.84246 -6.41988 0
M  V30 4162 H 393.202 -2.22463 -1.98278 0
M  V30 4163 H 390.739 -1.10593 -0.969933 0
M  V30 4164 H 392.697 -0.893413 -4.07522 0
M  V30 4165 H 391.327 -0.131719 -3.22531 0
M  V30 4166 H 390.379 -2.52204 -2.84775 0
M  V30 4167 H 391.691 -3.13959 -3.87597 0
M  V30 4168 H 390.845 -1.78026 -5.79993 0
M  V30 4169 H 389.584 -1.05867 -4.76071 0
M  V30 4170 H 388.589 -3.33089 -4.37415 0
M  V30 4171 H 389.814 -4.05455 -5.44778 0
M  V30 4172 H 387.76 -1.96252 -6.25956 0
M  V30 4173 H 387.677 -3.65637 -6.61699 0
M  V30 4174 H 388.945 -2.6935 -7.31485 0
M  V30 4175 N 393.175 1.03435 -1.18907 0
M  V30 4176 C 394.122 2.11591 -0.921837 0
M  V30 4177 C 395.092 1.65499 0.141226 0
M  V30 4178 O 396.277 1.908 0.000242829 0
M  V30 4179 C 393.417 3.42012 -0.460616 0
M  V30 4180 C 392.53 4.01682 -1.58982 0
M  V30 4181 C 391.665 5.20091 -1.08069 0
M  V30 4182 C 390.704 5.71805 -2.18416 0
M  V30 4183 N 389.841 6.81494 -1.68849 0
M  V30 4184 H 394.681 2.33787 -1.8479 0
M  V30 4185 H 392.218 1.1467 -0.921373 0
M  V30 4186 H 394.176 4.16834 -0.174642 0
M  V30 4187 H 392.806 3.19944 0.428467 0
M  V30 4188 H 391.858 3.24127 -1.99113 0
M  V30 4189 H 393.17 4.36084 -2.4214 0
M  V30 4190 H 392.324 6.02051 -0.749615 0
M  V30 4191 H 391.063 4.87209 -0.218771 0
M  V30 4192 H 390.068 4.88461 -2.5236 0
M  V30 4193 H 391.293 6.06728 -3.05054 0
M  V30 4194 H 389.239 6.50475 -0.849572 0
M  V30 4195 H 389.156 7.14994 -2.45601 0
M  V30 4196 H 390.424 7.67063 -1.38689 0
M  V30 4197 N 394.653 0.992116 1.22453 0
M  V30 4198 C 395.899 0.668523 1.91464 0
M  V30 4199 C 396.232 -0.797313 1.77078 0
M  V30 4200 O 395.507 -1.5765 1.13916 0
M  V30 4201 C 395.79 1.07424 3.43703 0
M  V30 4202 C 395.643 2.59857 3.67143 0
M  V30 4203 C 396.962 0.626891 4.35612 0
M  V30 4204 H 394.081 0.244341 0.695318 0
M  V30 4205 H 396.723 1.2355 1.44345 0
M  V30 4206 H 394.873 0.591816 3.83966 0
M  V30 4207 H 396.545 3.15764 3.3629 0
M  V30 4208 H 394.788 3.01961 3.11451 0
M  V30 4209 H 395.459 2.83296 4.73759 0
M  V30 4210 H 397.935 1.04125 4.02861 0
M  V30 4211 H 396.811 0.939076 5.40807 0
M  V30 4212 H 397.072 -0.472457 4.39568 0
M  V30 4213 N 396.131 -1.37776 0.765217 0
M  V30 4214 C 397.063 -2.28958 0.105361 0
M  V30 4215 C 398.076 -1.48316 -0.67128 0
M  V30 4216 O 399.265 -1.71046 -0.51045 0
M  V30 4217 C 396.365 -3.27421 -0.874569 0
M  V30 4218 C 395.538 -4.37132 -0.153123 0
M  V30 4219 C 394.597 -5.1571 -1.04547 0
M  V30 4220 O 393.623 -5.66896 -0.511672 0
M  V30 4221 N 394.825 -5.29808 -2.37243 0
M  V30 4222 H 397.59 -2.86227 0.888495 0
M  V30 4223 H 395.151 -1.49682 0.617 0
M  V30 4224 H 397.143 -3.7687 -1.47483 0
M  V30 4225 H 395.713 -2.70967 -1.55871 0
M  V30 4226 H 394.933 -3.89166 0.627975 0
M  V30 4227 H 396.221 -5.07625 0.345643 0
M  V30 4228 H 395.619 -4.89793 -2.83054 0
M  V30 4229 H 394.176 -5.82589 -2.9229 0
M  V30 4230 N 397.609 -0.515225 -1.4894 0
M  V30 4231 C 399.02 -0.0710067 -1.86565 0
M  V30 4232 C 399.371 1.34733 -1.42623 0
M  V30 4233 O 398.496 2.00653 -0.810379 0
M  V30 4234 C 399.091 -0.122083 -3.3858 0
M  V30 4235 C 397.65 0.266863 -3.75453 0
M  V30 4236 C 396.797 -0.488376 -2.72966 0
M  V30 4237 H 399.748 -0.727266 -1.41055 0
M  V30 4238 H 399.769 0.669818 -3.74558 0
M  V30 4239 H 399.281 -1.15448 -3.70531 0
M  V30 4240 H 397.382 1.30196 -3.49113 0
M  V30 4241 H 397.495 -0.0624811 -4.79059 0
M  V30 4242 H 395.859 0.0635622 -2.54621 0
M  V30 4243 H 396.642 -1.52113 -3.07761 0
M  V30 4244 N 399.087 1.5561 -0.249682 0
M  V30 4245 C 400.364 1.90932 0.424761 0
M  V30 4246 C 400.744 1.17078 1.75658 0
M  V30 4247 O 400.092 0.289176 2.26663 0
M  V30 4248 C 400.302 3.43975 0.590109 0
M  V30 4249 C 401.65 4.15281 0.884714 0
M  V30 4250 O 402.674 3.49729 0.67587 0
M  V30 4251 O 401.533 5.31236 1.28259 0
M  V30 4252 H 398.627 0.794815 0.228468 0
M  V30 4253 H 401.173 1.67135 -0.293954 0
M  V30 4254 H 399.945 3.89748 -0.34818 0
M  V30 4255 H 399.568 3.73644 1.35926 0
M  V30 4256 N 400.565 -0.0233959 1.57583 0
M  V30 4257 C 401.811 -0.714119 1.89811 0
M  V30 4258 C 402.144 -1.74702 0.848113 0
M  V30 4259 O 401.419 -1.94023 -0.136135 0
M  V30 4260 C 401.702 -1.37853 3.32669 0
M  V30 4261 C 401.555 -0.358764 4.48367 0
M  V30 4262 C 402.874 -2.31101 3.7454 0
M  V30 4263 H 399.993 -0.25814 0.690314 0
M  V30 4264 H 402.635 0.0230927 1.89986 0
M  V30 4265 H 400.785 -2.00689 3.3265 0
M  V30 4266 H 402.457 0.268115 4.6052 0
M  V30 4267 H 400.7 0.321387 4.32608 0
M  V30 4268 H 401.371 -0.862242 5.45224 0
M  V30 4269 H 403.847 -1.78304 3.75961 0
M  V30 4270 H 402.723 -2.74567 4.75294 0
M  V30 4271 H 402.984 -3.18018 3.0711 0
M  V30 4272 N 402.043 -1.548 -0.295768 0
M  V30 4273 C 403.292 -1.73538 -1.02798 0
M  V30 4274 C 403.605 -0.531159 -1.8825 0
M  V30 4275 O 404.811 -0.600458 -2.64777 0
M  V30 4276 C 403.267 -3.07051 -1.87744 0
M  V30 4277 C 402.875 -4.34968 -1.07269 0
M  V30 4278 C 404.619 -3.35146 -2.60533 0
M  V30 4279 C 402.526 -5.5953 -1.91521 0
M  V30 4280 H 401.456 -0.646794 -0.387522 0
M  V30 4281 H 404.107 -1.81278 -0.284718 0
M  V30 4282 H 402.489 -2.93289 -2.66078 0
M  V30 4283 H 403.663 -4.5958 -0.335117 0
M  V30 4284 H 401.978 -4.13847 -0.460384 0
M  V30 4285 H 404.575 -4.2541 -3.23929 0
M  V30 4286 H 404.918 -2.54255 -3.29636 0
M  V30 4287 H 405.451 -3.49902 -1.89244 0
M  V30 4288 H 402.19 -6.43103 -1.26878 0
M  V30 4289 H 401.71 -5.39096 -2.62937 0
M  V30 4290 H 403.389 -5.96982 -2.49442 0
M  V30 4291 N 403.521 0.559213 -1.47345 0
M  V30 4292 C 404.746 1.34676 -1.57725 0
M  V30 4293 C 405.171 1.86723 -0.227164 0
M  V30 4294 O 404.529 1.6286 0.796642 0
M  V30 4295 C 404.577 2.49399 -2.60447 0
M  V30 4296 O 403.681 3.51567 -2.15578 0
M  V30 4297 H 403.022 0.400115 -0.52991 0
M  V30 4298 H 405.552 0.676009 -1.93109 0
M  V30 4299 H 405.562 2.95996 -2.80803 0
M  V30 4300 H 404.237 2.10873 -3.58477 0
M  V30 4301 H 402.814 3.11289 -2.05313 0
M  V30 4302 N 404.999 1.35443 0.805782 0
M  V30 4303 C 405.946 1.28431 1.91766 0
M  V30 4304 C 406.916 0.156102 1.65365 0
M  V30 4305 O 408.101 0.339936 1.87747 0
M  V30 4306 C 405.241 1.06301 3.2832 0
M  V30 4307 C 404.354 2.2805 3.66902 0
M  V30 4308 C 403.489 1.99064 4.92491 0
M  V30 4309 C 402.528 3.16863 5.23703 0
M  V30 4310 N 401.665 2.87647 6.40471 0
M  V30 4311 H 406.505 2.23511 1.97096 0
M  V30 4312 H 404.042 1.11105 0.964054 0
M  V30 4313 H 406 0.915012 4.07042 0
M  V30 4314 H 404.63 0.148822 3.22457 0
M  V30 4315 H 403.682 2.53711 2.83434 0
M  V30 4316 H 404.994 3.1601 3.85927 0
M  V30 4317 H 404.148 1.81099 5.7904 0
M  V30 4318 H 402.887 1.0839 4.75503 0
M  V30 4319 H 401.892 3.35404 4.35642 0
M  V30 4320 H 403.117 4.08339 5.4262 0
M  V30 4321 H 401.063 1.99568 6.24907 0
M  V30 4322 H 400.98 3.69141 6.59751 0
M  V30 4323 H 402.248 2.73226 7.30047 0
M  V30 4324 N 406.477 -1.02803 1.19454 0
M  V30 4325 C 407.705 -1.79841 1.02297 0
M  V30 4326 C 408.12 -1.83879 -0.428259 0
M  V30 4327 O 407.477 -1.28345 -1.29745 0
M  V30 4328 C 407.528 -3.24852 1.58598 0
M  V30 4329 O 407.249 -3.21097 2.98041 0
M  V30 4330 C 408.75 -4.18485 1.46236 0
M  V30 4331 H 405.97 -0.565936 0.360496 0
M  V30 4332 H 408.514 -1.2948 1.58288 0
M  V30 4333 H 406.669 -3.72401 1.06753 0
M  V30 4334 H 407.083 -4.12033 3.24545 0
M  V30 4335 H 408.557 -5.18121 1.90407 0
M  V30 4336 H 409.034 -4.37254 0.41301 0
M  V30 4337 H 409.64 -3.76811 1.97215 0
M  V30 4338 N 407.956 -0.998596 -1.21925 0
M  V30 4339 C 409.181 -0.696015 -1.95372 0
M  V30 4340 C 409.606 0.733826 -1.73195 0
M  V30 4341 O 408.964 1.50242 -1.01474 0
M  V30 4342 C 409.012 -1.01466 -3.4603 0
M  V30 4343 O 408.116 -0.116415 -4.12236 0
M  V30 4344 H 407.457 -0.259938 -0.611006 0
M  V30 4345 H 409.987 -1.33711 -1.54863 0
M  V30 4346 H 409.997 -0.958855 -3.96573 0
M  V30 4347 H 408.672 -2.05653 -3.61497 0
M  V30 4348 H 407.249 -0.228193 -3.72201 0
M  V30 4349 N 409.434 1.37368 -0.772513 0
M  V30 4350 C 410.683 1.98918 -0.333861 0
M  V30 4351 C 410.996 1.62017 1.09589 0
M  V30 4352 O 412.202 2.16676 1.63596 0
M  V30 4353 C 410.658 3.55735 -0.545971 0
M  V30 4354 C 410.266 4.01573 -1.98603 0
M  V30 4355 C 412.01 4.24156 -0.170979 0
M  V30 4356 C 409.917 5.51102 -2.1457 0
M  V30 4357 H 408.847 0.744214 -0.121085 0
M  V30 4358 H 411.498 1.56888 -0.95175 0
M  V30 4359 H 409.88 3.95748 0.141387 0
M  V30 4360 H 411.054 3.72803 -2.7084 0
M  V30 4361 H 409.369 3.45937 -2.31769 0
M  V30 4362 H 411.966 5.34024 -0.26878 0
M  V30 4363 H 412.309 4.06917 0.878855 0
M  V30 4364 H 412.842 3.89447 -0.810914 0
M  V30 4365 H 409.581 5.73268 -3.17875 0
M  V30 4366 H 409.101 5.81554 -1.46817 0
M  V30 4367 H 410.78 6.17083 -1.94468 0
M  V30 4368 N 410.912 0.523116 1.48665 0
M  V30 4369 C 411.845 -0.290518 2.26343 0
M  V30 4370 C 412.823 -0.950913 1.31895 0
M  V30 4371 O 414.007 -0.976662 1.61225 0
M  V30 4372 C 411.134 -1.41088 3.07915 0
M  V30 4373 C 410.18 -0.862597 4.17686 0
M  V30 4374 S 411.013 0.264135 5.34848 0
M  V30 4375 C 412.169 -0.858864 6.19979 0
M  V30 4376 H 412.402 0.368726 2.95005 0
M  V30 4377 H 409.935 0.30878 1.51281 0
M  V30 4378 H 411.893 -2.0527 3.55492 0
M  V30 4379 H 410.554 -2.04182 2.38681 0
M  V30 4380 H 409.747 -1.70287 4.74361 0
M  V30 4381 H 409.349 -0.297595 3.72814 0
M  V30 4382 H 411.641 -1.7591 6.54264 0
M  V30 4383 H 412.584 -0.330244 7.07329 0
M  V30 4384 H 412.992 -1.13617 5.52948 0
M  V30 4385 N 412.39 -1.55475 0.257931 0
M  V30 4386 C 413.32 -2.24815 -0.630912 0
M  V30 4387 C 414.301 -1.23224 -1.17259 0
M  V30 4388 O 415.486 -1.51904 -1.20991 0
M  V30 4389 C 412.616 -2.95609 -1.82298 0
M  V30 4390 C 411.57 -4.03982 -1.41359 0
M  V30 4391 C 410.896 -4.6226 -2.68738 0
M  V30 4392 C 412.196 -5.19109 -0.57648 0
M  V30 4393 H 413.89 -2.99354 -0.0526878 0
M  V30 4394 H 411.436 -1.4398 -0.023901 0
M  V30 4395 H 413.389 -3.42822 -2.45054 0
M  V30 4396 H 412.113 -2.18577 -2.42676 0
M  V30 4397 H 410.772 -3.57555 -0.809324 0
M  V30 4398 H 410.42 -3.81915 -3.27338 0
M  V30 4399 H 410.12 -5.35424 -2.42065 0
M  V30 4400 H 411.644 -5.12212 -3.32372 0
M  V30 4401 H 413.058 -5.62479 -1.10861 0
M  V30 4402 H 411.455 -5.98729 -0.405351 0
M  V30 4403 H 412.525 -4.83174 0.408776 0
M  V30 4404 N 413.868 0.0150385 -1.57593 0
M  V30 4405 C 415.116 0.701613 -1.8953 0
M  V30 4406 C 415.437 1.75139 -0.857396 0
M  V30 4407 O 414.707 1.95607 0.107194 0
M  V30 4408 H 413.287 0.26213 -0.699498 0
M  V30 4409 H 415.949 -0.0223304 -1.94887 0
M  V30 4410 H 415.045 1.18236 -2.88837 0
M  V30 4411 N 415.346 1.54954 0.287554 0
M  V30 4412 C 416.276 1.89839 1.35954 0
M  V30 4413 C 417.257 0.758675 1.52244 0
M  V30 4414 O 418.442 1.01557 1.65529 0
M  V30 4415 C 415.572 2.15753 2.72154 0
M  V30 4416 C 414.526 3.3159 2.70614 0
M  V30 4417 C 413.852 3.42952 4.10229 0
M  V30 4418 C 415.152 4.68359 2.31165 0
M  V30 4419 H 416.846 2.79625 1.07007 0
M  V30 4420 H 414.392 1.3454 0.513316 0
M  V30 4421 H 416.345 2.38743 3.47246 0
M  V30 4422 H 415.069 1.22752 3.02654 0
M  V30 4423 H 413.728 3.08545 1.97979 0
M  V30 4424 H 413.376 2.47443 4.37928 0
M  V30 4425 H 413.076 4.20826 4.10097 0
M  V30 4426 H 414.6 3.68218 4.87081 0
M  V30 4427 H 416.014 4.9099 2.95976 0
M  V30 4428 H 414.411 5.49044 2.42221 0
M  V30 4429 H 415.481 4.68165 1.26291 0
M  V30 4430 N 416.824 -0.551391 1.4764 0
M  V30 4431 C 418.072 -1.30572 1.54258 0
M  V30 4432 C 418.393 -1.93877 0.208963 0
M  V30 4433 O 417.663 -1.80234 -0.767619 0
M  V30 4434 H 416.243 -0.484894 0.568231 0
M  V30 4435 H 418.905 -0.643402 1.83974 0
M  V30 4436 H 418.001 -2.09621 2.31226 0
M  V30 4437 N 418.302 -1.35869 -0.798587 0
M  V30 4438 C 419.212 -1.31578 -1.94228 0
M  V30 4439 C 420.228 -0.21939 -1.72611 0
M  V30 4440 O 421.404 -0.450167 -1.96305 0
M  V30 4441 C 418.469 -1.09528 -3.28944 0
M  V30 4442 C 417.53 -2.28556 -3.63402 0
M  V30 4443 C 416.763 -2.07549 -4.9169 0
M  V30 4444 O 416.986 -1.046 -5.60727 0
M  V30 4445 O 415.92 -2.95106 -5.24591 0
M  V30 4446 H 419.746 -2.27847 -2.00796 0
M  V30 4447 H 417.331 -1.16322 -0.937526 0
M  V30 4448 H 419.213 -0.991127 -4.09579 0
M  V30 4449 H 417.888 -0.16315 -3.23289 0
M  V30 4450 H 416.795 -2.44538 -2.83112 0
M  V30 4451 H 418.128 -3.20244 -3.73771 0
M  V30 4452 N 419.78 1.02168 -1.19998 0
M  V30 4453 C 420.728 2.12717 -0.940967 0
M  V30 4454 C 421.722 1.69069 0.105841 0
M  V30 4455 O 422.928 1.79946 -0.0440583 0
M  V30 4456 H 419.303 0.695108 -0.28693 0
M  V30 4457 H 421.274 2.3175 -1.87975 0
M  V30 4458 C 420.023 3.44027 -0.504049 0
M  V30 4459 H 419.346 3.78036 -1.30112 0
M  V30 4460 H 420.786 4.22452 -0.361991 0
M  V30 4461 C 419.245 3.27678 0.782878 0
M  V30 4462 O 419.775 3.56949 1.84256 0
M  V30 4463 N 417.981 2.80943 0.742921 0
M  V30 4464 H 417.528 2.57322 -0.119687 0
M  V30 4465 H 417.486 2.70385 1.60435 0
M  V30 4466 N 421.258 1.00505 1.21394 0
M  V30 4467 C 422.535 0.603277 1.86064 0
M  V30 4468 C 422.915 -0.919095 1.90042 0
M  V30 4469 O 422.263 -1.80607 1.39977 0
M  V30 4470 C 422.473 1.23772 3.26315 0
M  V30 4471 C 423.821 1.34586 4.02705 0
M  V30 4472 O 424.845 1.19304 3.35626 0
M  V30 4473 O 423.704 1.59169 5.22807 0
M  V30 4474 H 420.798 0.206634 0.800769 0
M  V30 4475 H 423.344 1.1017 1.29076 0
M  V30 4476 H 422.116 2.27848 3.18121 0
M  V30 4477 H 421.739 0.725648 3.90922 0
M  V30 4478 N 422.737 -1.36956 0.779787 0
M  V30 4479 C 423.647 -2.33965 0.172491 0
M  V30 4480 C 424.663 -1.60574 -0.670222 0
M  V30 4481 O 425.839 -1.92617 -0.588263 0
M  V30 4482 C 422.904 -3.39761 -0.690173 0
M  V30 4483 C 421.965 -4.28964 0.169924 0
M  V30 4484 C 421.198 -5.29707 -0.651662 0
M  V30 4485 O 421.421 -5.38238 -1.88827 0
M  V30 4486 O 420.355 -6.01873 -0.0566264 0
M  V30 4487 H 424.181 -2.87647 0.974321 0
M  V30 4488 H 421.766 -1.39258 0.541078 0
M  V30 4489 H 423.648 -4.04471 -1.1824 0
M  V30 4490 H 422.323 -2.88394 -1.47006 0
M  V30 4491 H 421.23 -3.67326 0.708696 0
M  V30 4492 H 422.563 -4.83656 0.913085 0
M  V30 4493 N 424.215 -0.530993 -1.48385 0
M  V30 4494 C 425.147 0.268353 -2.27624 0
M  V30 4495 C 426.16 0.903525 -1.35426 0
M  V30 4496 O 427.349 0.781796 -1.60469 0
M  V30 4497 C 424.449 1.39535 -3.08842 0
M  V30 4498 C 423.622 0.861913 -4.28824 0
M  V30 4499 C 422.681 1.87016 -4.91845 0
M  V30 4500 O 421.707 1.4267 -5.5103 0
M  V30 4501 N 422.909 3.20238 -4.84178 0
M  V30 4502 H 425.674 -0.41123 -2.96865 0
M  V30 4503 H 423.235 -0.365387 -1.57723 0
M  V30 4504 H 425.227 2.06803 -3.47871 0
M  V30 4505 H 423.797 1.97859 -2.42014 0
M  V30 4506 H 423.017 0.0132126 -3.94198 0
M  V30 4507 H 424.305 0.484415 -5.06489 0
M  V30 4508 H 423.703 3.58932 -4.37246 0
M  V30 4509 H 422.26 3.83136 -5.27305 0
M  V30 4510 N 425.693 1.55336 -0.266172 0
M  V30 4511 C 426.939 1.99692 0.353681 0
M  V30 4512 C 427.272 1.1543 1.56172 0
M  V30 4513 O 426.547 0.222218 1.93226 0
M  V30 4514 C 426.83 3.52316 0.74466 0
M  V30 4515 C 426.683 4.47337 -0.470101 0
M  V30 4516 C 428.002 4.10588 1.58447 0
M  V30 4517 H 425.121 0.725961 0.12708 0
M  V30 4518 H 427.763 1.86336 -0.371333 0
M  V30 4519 H 425.913 3.63829 1.36239 0
M  V30 4520 H 427.585 4.4778 -1.10864 0
M  V30 4521 H 425.828 4.19364 -1.10978 0
M  V30 4522 H 426.499 5.51788 -0.15291 0
M  V30 4523 H 428.975 4.02297 1.06286 0
M  V30 4524 H 427.851 5.17607 1.82686 0
M  V30 4525 H 428.112 3.60253 2.56262 0
M  V30 4526 N 427.171 -0.0066808 1.57599 0
M  V30 4527 C 428.401 -0.703066 1.94269 0
M  V30 4528 C 428.809 -1.68206 0.866222 0
M  V30 4529 O 428.152 -1.82966 -0.164087 0
M  V30 4530 C 428.214 -1.49616 3.26887 0
M  V30 4531 C 427.878 -0.679494 4.5192 0
M  V30 4532 C 428.875 0.0299508 5.19891 0
M  V30 4533 C 426.56 -0.627433 4.98366 0
M  V30 4534 C 428.554 0.780514 6.32603 0
M  V30 4535 C 426.241 0.126861 6.10968 0
M  V30 4536 C 427.239 0.829574 6.77943 0
M  V30 4537 O 426.927 1.57157 7.88389 0
M  V30 4538 H 426.659 -0.201217 0.645359 0
M  V30 4539 H 429.213 0.0385326 2.05364 0
M  V30 4540 H 427.443 -2.28209 3.12182 0
M  V30 4541 H 429.132 -2.07726 3.48719 0
M  V30 4542 H 429.898 -0.00115963 4.85 0
M  V30 4543 H 425.777 -1.16392 4.46065 0
M  V30 4544 H 429.321 1.32954 6.84813 0
M  V30 4545 H 425.218 0.159815 6.45302 0
M  V30 4546 H 425.986 1.48758 8.04868 0
M  V30 4547 N 428.649 -1.55105 -0.279332 0
M  V30 4548 C 429.612 -1.86783 -1.32834 0
M  V30 4549 C 430.612 -0.74199 -1.42657 0
M  V30 4550 O 431.802 -1.0102 -1.41918 0
M  V30 4551 C 428.934 -2.06746 -2.71052 0
M  V30 4552 H 430.127 -2.8055 -1.05979 0
M  V30 4553 H 427.68 -1.47499 -0.517087 0
M  V30 4554 H 428.415 -1.15339 -3.03097 0
M  V30 4555 H 428.2 -2.88711 -2.65309 0
M  V30 4556 H 429.69 -2.32549 -3.46858 0
M  V30 4557 N 430.127 0.543554 -1.4793 0
M  V30 4558 C 431.355 1.32516 -1.58894 0
M  V30 4559 C 431.77 1.87215 -0.244131 0
M  V30 4560 O 431.127 1.65709 0.764652 0
M  V30 4561 C 431.178 2.48554 -2.62494 0
M  V30 4562 O 430.899 1.96112 -3.91755 0
M  V30 4563 C 432.4 3.40572 -2.8377 0
M  V30 4564 H 429.62 0.403472 -0.536145 0
M  V30 4565 H 432.164 0.657106 -1.93655 0
M  V30 4566 H 430.319 3.1127 -2.30629 0
M  V30 4567 H 430.733 2.71967 -4.4848 0
M  V30 4568 H 432.207 4.18375 -3.60093 0
M  V30 4569 H 432.684 3.94965 -1.92092 0
M  V30 4570 H 433.29 2.8366 -3.16887 0
M  V30 4571 N 431.605 1.3629 0.791371 0
M  V30 4572 C 432.538 1.24816 1.9104 0
M  V30 4573 C 433.516 0.132739 1.62057 0
M  V30 4574 O 434.7 0.303527 1.8604 0
M  V30 4575 C 431.827 0.925355 3.25814 0
M  V30 4576 C 430.873 2.05495 3.7373 0
M  V30 4577 S 431.706 3.67255 3.89723 0
M  V30 4578 C 432.862 3.37084 5.27376 0
M  V30 4579 H 433.095 2.19533 2.00481 0
M  V30 4580 H 430.628 1.21684 0.950393 0
M  V30 4581 H 432.586 0.745924 4.03666 0
M  V30 4582 H 431.247 -0.00400098 3.141 0
M  V30 4583 H 430.44 1.7836 4.71385 0
M  V30 4584 H 430.042 2.1935 3.02922 0
M  V30 4585 H 432.334 2.90856 6.1189 0
M  V30 4586 H 433.277 4.33995 5.59512 0
M  V30 4587 H 433.685 2.7248 4.94383 0
M  V30 4588 N 433.083 -1.0153 1.20538 0
M  V30 4589 C 434.03 -2.10098 0.955383 0
M  V30 4590 C 435 -1.65702 -0.114878 0
M  V30 4591 O 436.185 -1.90776 0.0301118 0
M  V30 4592 C 433.325 -3.41236 0.514969 0
M  V30 4593 C 432.438 -3.99102 1.65353 0
M  V30 4594 C 431.573 -5.18306 1.16329 0
M  V30 4595 C 430.612 -5.68258 2.27485 0
M  V30 4596 N 429.749 -6.78722 1.7967 0
M  V30 4597 H 434.589 -2.30818 1.88486 0
M  V30 4598 H 432.126 -1.13189 0.939499 0
M  V30 4599 H 434.084 -4.16504 0.240935 0
M  V30 4600 H 432.714 -3.20585 -0.377512 0
M  V30 4601 H 431.766 -3.20918 2.04245 0
M  V30 4602 H 433.078 -4.32177 2.49047 0
M  V30 4603 H 432.232 -6.00782 0.845302 0
M  V30 4604 H 430.971 -4.86799 0.296254 0
M  V30 4605 H 429.976 -4.84385 2.60099 0
M  V30 4606 H 431.201 -6.01798 3.14667 0
M  V30 4607 H 429.147 -6.49042 0.95295 0
M  V30 4608 H 429.064 -7.10996 2.56944 0
M  V30 4609 H 430.332 -7.64759 1.50875 0
M  V30 4610 N 434.561 -1.01147 -1.20859 0
M  V30 4611 C 435.524 -0.582224 -2.21682 0
M  V30 4612 C 436.524 0.344887 -1.57058 0
M  V30 4613 O 437.714 0.134281 -1.73682 0
M  V30 4614 C 434.846 0.150496 -3.40568 0
M  V30 4615 H 436.039 -1.47408 -2.61172 0
M  V30 4616 H 433.592 -0.800695 -1.34233 0
M  V30 4617 H 434.327 1.0575 -3.06574 0
M  V30 4618 H 434.112 -0.515444 -3.88697 0
M  V30 4619 H 435.602 0.438344 -4.15293 0
M  V30 4620 N 436.039 1.36541 -0.78704 0
M  V30 4621 C 436.969 2.32659 -0.197992 0
M  V30 4622 C 437.95 1.56533 0.665697 0
M  V30 4623 O 439.135 1.84698 0.60001 0
M  V30 4624 C 436.265 3.40778 0.669901 0
M  V30 4625 C 435.219 4.27897 -0.0937039 0
M  V30 4626 C 434.545 5.27163 0.894629 0
M  V30 4627 C 435.845 5.06334 -1.28154 0
M  V30 4628 H 437.539 2.82171 -1.00099 0
M  V30 4629 H 435.085 1.35665 -0.482793 0
M  V30 4630 H 437.038 4.07008 1.09191 0
M  V30 4631 H 435.762 2.89827 1.50558 0
M  V30 4632 H 434.421 3.6322 -0.49666 0
M  V30 4633 H 434.069 4.72486 1.72527 0
M  V30 4634 H 433.769 5.86317 0.388149 0
M  V30 4635 H 435.293 5.96266 1.31525 0
M  V30 4636 H 436.707 5.65617 -0.93541 0
M  V30 4637 H 435.104 5.74888 -1.72115 0
M  V30 4638 H 436.174 4.38114 -2.07807 0
M  V30 4639 N 437.518 0.538854 1.48102 0
M  V30 4640 C 438.934 0.19732 1.58376 0
M  V30 4641 C 439.134 -1.29971 1.5398 0
M  V30 4642 O 438.19 -2.07861 1.43352 0
M  V30 4643 C 439.503 0.807716 2.89649 0
M  V30 4644 C 441.051 0.77726 3.03196 0
M  V30 4645 C 441.526 1.36639 4.37143 0
M  V30 4646 N 443.017 1.32875 4.43732 0
M  V30 4647 C 443.752 1.7544 5.45901 0
M  V30 4648 N 443.248 2.25776 6.54979 0
M  V30 4649 N 445.041 1.66623 5.36836 0
M  V30 4650 H 437.192 1.5117 1.49202 0
M  V30 4651 H 439.455 0.629327 0.708979 0
M  V30 4652 H 439.161 1.85909 2.98548 0
M  V30 4653 H 439.035 0.289975 3.76084 0
M  V30 4654 H 441.422 -0.265374 2.93904 0
M  V30 4655 H 441.503 1.33256 2.18349 0
M  V30 4656 H 441.147 2.408 4.47189 0
M  V30 4657 H 441.077 0.786689 5.20691 0
M  V30 4658 H 443.568 0.96037 3.65493 0
M  V30 4659 H 443.881 2.56226 7.29087 0
M  V30 4660 H 442.226 2.29775 6.55918 0
M  V30 4661 H 445.417 1.27089 4.50517 0
M  V30 4662 H 445.59 2.00115 6.16326 0
M  V30 4663 N 438.996 -1.55193 0.274407 0
M  V30 4664 C 439.906 -2.26164 -0.623473 0
M  V30 4665 C 440.922 -1.28729 -1.17068 0
M  V30 4666 O 442.098 -1.61663 -1.20112 0
M  V30 4667 C 439.163 -2.96833 -1.7914 0
M  V30 4668 C 438.224 -4.09745 -1.28093 0
M  V30 4669 C 437.457 -4.77034 -2.3932 0
M  V30 4670 O 437.68 -4.4353 -3.5866 0
M  V30 4671 O 436.614 -5.64996 -2.07516 0
M  V30 4672 H 440.44 -3.03661 -0.0485661 0
M  V30 4673 H 438.025 -1.49341 0.0418382 0
M  V30 4674 H 439.907 -3.41248 -2.4724 0
M  V30 4675 H 438.582 -2.22253 -2.35341 0
M  V30 4676 H 437.489 -3.69787 -0.566416 0
M  V30 4677 H 438.822 -4.86224 -0.764683 0
M  V30 4678 N 440.474 -0.00167713 -1.576 0
M  V30 4679 C 441.437 0.974046 -2.07473 0
M  V30 4680 C 442.437 1.27143 -0.984444 0
M  V30 4681 O 443.627 1.21633 -1.24703 0
M  V30 4682 C 440.759 2.29849 -2.51759 0
M  V30 4683 H 441.952 0.54262 -2.9495 0
M  V30 4684 H 439.505 0.245829 -1.54355 0
M  V30 4685 H 440.24 2.77677 -1.67529 0
M  V30 4686 H 440.025 2.09584 -3.31386 0
M  V30 4687 H 441.515 2.9984 -2.90664 0
M  V30 4688 N 441.952 1.55251 0.271103 0
M  V30 4689 C 443.229 1.66664 1.02384 0
M  V30 4690 C 443.609 0.534363 2.04225 0
M  V30 4691 O 442.957 -0.465337 2.23712 0
M  V30 4692 C 443.167 3.05961 1.67895 0
M  V30 4693 C 444.515 3.63772 2.18986 0
M  V30 4694 O 445.539 3.08606 1.77878 0
M  V30 4695 O 444.398 4.60429 2.94393 0
M  V30 4696 H 441.492 0.676957 0.475035 0
M  V30 4697 H 444.038 1.67589 0.26681 0
M  V30 4698 H 442.81 3.79815 0.941071 0
M  V30 4699 H 442.433 3.08943 2.5028 0
M  V30 4700 N 443.43 -0.535701 1.48216 0
M  V30 4701 C 444.676 -1.29375 1.56173 0
M  V30 4702 C 445.009 -1.92804 0.232429 0
M  V30 4703 O 444.284 -1.78992 -0.761048 0
M  V30 4704 C 444.567 -2.38747 2.69577 0
M  V30 4705 C 444.42 -1.80046 4.12193 0
M  V30 4706 C 445.739 -3.40551 2.78771 0
M  V30 4707 H 442.858 -0.469027 0.568491 0
M  V30 4708 H 445.5 -0.597358 1.80365 0
M  V30 4709 H 443.65 -2.98147 2.4908 0
M  V30 4710 H 445.322 -1.24742 4.44114 0
M  V30 4711 H 443.565 -1.10609 4.19462 0
M  V30 4712 H 444.236 -2.59212 4.87353 0
M  V30 4713 H 446.712 -2.91099 2.97322 0
M  V30 4714 H 445.588 -4.1448 3.59857 0
M  V30 4715 H 445.849 -4.00746 1.86696 0
M  V30 4716 N 444.908 -1.36708 -0.784132 0
M  V30 4717 C 446.185 -1.21776 -1.53069 0
M  V30 4718 C 446.565 0.193876 -2.10208 0
M  V30 4719 O 445.913 1.20012 -1.94446 0
M  V30 4720 C 446.123 -2.30395 -2.62143 0
M  V30 4721 C 447.471 -2.67325 -3.29882 0
M  V30 4722 O 448.495 -2.29478 -2.7243 0
M  V30 4723 O 447.354 -3.32485 -4.33724 0
M  V30 4724 H 444.448 -0.474459 -0.677361 0
M  V30 4725 H 446.994 -1.48454 -0.82216 0
M  V30 4726 H 445.766 -3.2498 -2.17953 0
M  V30 4727 H 445.389 -2.05112 -3.40609 0
M  V30 4728 N 446.386 1.0089 -1.21074 0
M  V30 4729 C 447.626 1.76142 -1.03699 0
M  V30 4730 C 447.99 1.87292 0.422587 0
M  V30 4731 O 449.191 2.59068 0.716752 0
M  V30 4732 C 447.462 3.13805 -1.7106 0
M  V30 4733 S 449.021 4.04996 -1.68889 0
M  V30 4734 H 445.839 0.606113 -0.371683 0
M  V30 4735 H 448.441 1.20744 -1.53756 0
M  V30 4736 H 447.145 3.0332 -2.76451 0
M  V30 4737 H 446.676 3.74276 -1.21166 0
M  V30 4738 H 448.691 4.90842 -0.727211 0
M  V30 4739 N 447.864 1.01787 1.20321 0
M  V30 4740 C 448.794 0.609625 2.25401 0
M  V30 4741 C 449.775 -0.375951 1.65893 0
M  V30 4742 O 450.96 -0.261101 1.92437 0
M  V30 4743 C 448.09 -0.0515995 3.47262 0
M  V30 4744 C 447.044 0.855095 4.19371 0
M  V30 4745 C 446.37 0.0595757 5.34667 0
M  V30 4746 C 447.67 2.16374 4.75373 0
M  V30 4747 H 449.364 1.48803 2.59804 0
M  V30 4748 H 446.91 0.716934 1.24884 0
M  V30 4749 H 448.863 -0.348764 4.19954 0
M  V30 4750 H 447.587 -0.964726 3.12027 0
M  V30 4751 H 446.246 1.13628 3.48546 0
M  V30 4752 H 445.894 -0.85524 4.95676 0
M  V30 4753 H 445.594 0.663406 5.83843 0
M  V30 4754 H 447.118 -0.231105 6.10162 0
M  V30 4755 H 448.532 1.92885 5.39878 0
M  V30 4756 H 446.929 2.71853 5.34991 0
M  V30 4757 H 447.999 2.82589 3.94045 0
M  V30 4758 N 449.342 -1.36122 0.79427 0
M  V30 4759 C 450.57 -2.03362 0.380989 0
M  V30 4760 C 450.985 -1.59881 -1.00416 0
M  V30 4761 O 450.342 -0.790515 -1.6449 0
M  V30 4762 C 450.393 -3.58804 0.440649 0
M  V30 4763 O 450.114 -4.007 1.77118 0
M  V30 4764 C 451.615 -4.43296 0.0186117 0
M  V30 4765 H 448.835 -0.652526 0.156367 0
M  V30 4766 H 451.379 -1.73998 1.07447 0
M  V30 4767 H 449.534 -3.8686 -0.204458 0
M  V30 4768 H 449.948 -4.95309 1.72538 0
M  V30 4769 H 451.422 -5.51887 0.111488 0
M  V30 4770 H 451.899 -4.2684 -1.03461 0
M  V30 4771 H 452.505 -4.20512 0.636395 0
M  V30 4772 N 450.82 -0.546701 -1.47814 0
M  V30 4773 C 451.75 0.195317 -2.32682 0
M  V30 4774 C 452.731 0.918981 -1.43139 0
M  V30 4775 O 453.916 0.901501 -1.72008 0
M  V30 4776 C 451.046 1.23237 -3.247 0
M  V30 4777 C 450 0.625818 -4.234 0
M  V30 4778 C 449.326 1.76674 -5.04669 0
M  V30 4779 C 450.626 -0.413515 -5.2066 0
M  V30 4780 H 452.32 -0.513184 -2.94969 0
M  V30 4781 H 449.866 -0.248241 -1.41844 0
M  V30 4782 H 451.819 1.75955 -3.82907 0
M  V30 4783 H 450.543 1.97067 -2.60446 0
M  V30 4784 H 449.202 0.120023 -3.66403 0
M  V30 4785 H 448.85 2.49383 -4.36826 0
M  V30 4786 H 448.55 1.36673 -5.71484 0
M  V30 4787 H 450.074 2.29738 -5.65732 0
M  V30 4788 H 451.488 0.0272042 -5.73294 0
M  V30 4789 H 449.885 -0.731825 -5.95621 0
M  V30 4790 H 450.955 -1.31325 -4.66778 0
M  V30 4791 N 452.299 1.55045 -0.282633 0
M  V30 4792 C 453.547 1.99365 0.331334 0
M  V30 4793 C 453.868 1.1725 1.55812 0
M  V30 4794 O 453.138 0.263871 1.94115 0
M  V30 4795 H 451.718 0.736397 0.125414 0
M  V30 4796 H 454.38 1.90964 -0.389711 0
M  V30 4797 H 453.476 3.0596 0.616036 0
M  V30 4798 N 453.777 0.010035 1.57597 0
M  V30 4799 C 454.709 -1.00649 2.05918 0
M  V30 4800 C 455.722 -1.30077 0.978964 0
M  V30 4801 O 456.911 -1.26878 1.25556 0
M  V30 4802 C 454.011 -2.33876 2.45265 0
M  V30 4803 C 453.184 -2.23242 3.7614 0
M  V30 4804 C 452.243 -3.39242 4.02245 0
M  V30 4805 O 451.269 -3.1698 4.72771 0
M  V30 4806 N 452.471 -4.6242 3.50924 0
M  V30 4807 H 455.236 -0.594333 2.93748 0
M  V30 4808 H 452.797 -0.17714 1.60928 0
M  V30 4809 H 454.789 -3.1027 2.59836 0
M  V30 4810 H 453.359 -2.66799 1.62902 0
M  V30 4811 H 452.579 -1.31696 3.71551 0
M  V30 4812 H 453.867 -2.13321 4.61922 0
M  V30 4813 H 453.265 -4.83404 2.93832 0
M  V30 4814 H 451.822 -5.36046 3.70807 0
M  V30 4815 N 455.255 -1.55392 -0.262866 0
M  V30 4816 C 456.485 -1.80251 -1.00961 0
M  V30 4817 C 456.893 -0.58117 -1.80053 0
M  V30 4818 O 456.236 0.459427 -1.77862 0
M  V30 4819 C 456.298 -2.98207 -2.00781 0
M  V30 4820 C 455.962 -4.34856 -1.40533 0
M  V30 4821 C 456.959 -5.13459 -0.815853 0
M  V30 4822 C 454.644 -4.8153 -1.42948 0
M  V30 4823 C 456.638 -6.36875 -0.258562 0
M  V30 4824 C 454.325 -6.04899 -0.868334 0
M  V30 4825 C 455.323 -6.8241 -0.283884 0
M  V30 4826 O 455.011 -8.03451 0.268644 0
M  V30 4827 H 454.743 -0.604049 -0.303482 0
M  V30 4828 H 457.297 -2.03257 -0.295926 0
M  V30 4829 H 455.527 -2.70917 -2.75936 0
M  V30 4830 H 457.216 -3.10299 -2.61667 0
M  V30 4831 H 457.982 -4.78526 -0.789812 0
M  V30 4832 H 453.861 -4.21201 -1.87378 0
M  V30 4833 H 457.405 -6.97318 0.198257 0
M  V30 4834 H 453.302 -6.39312 -0.891649 0
M  V30 4835 H 454.07 -8.18346 0.158974 0
M  V30 4836 N 456.733 0.527833 -1.48498 0
M  V30 4837 C 457.666 1.64892 -1.57753 0
M  V30 4838 C 458.644 1.5687 -0.427867 0
M  V30 4839 O 459.828 1.77311 -0.639764 0
M  V30 4840 C 456.955 3.03301 -1.50752 0
M  V30 4841 C 456.001 3.29675 -2.70586 0
M  V30 4842 S 456.834 3.15712 -4.32535 0
M  V30 4843 C 457.99 4.56564 -4.28136 0
M  V30 4844 H 458.223 1.56792 -2.52594 0
M  V30 4845 H 455.756 0.710959 -1.37057 0
M  V30 4846 H 457.714 3.83123 -1.474 0
M  V30 4847 H 456.375 3.08839 -0.572454 0
M  V30 4848 H 455.568 4.3065 -2.61833 0
M  V30 4849 H 455.17 2.57526 -2.71212 0
M  V30 4850 H 457.462 5.48126 -3.98201 0
M  V30 4851 H 458.405 4.70371 -5.29298 0
M  V30 4852 H 458.813 4.35987 -3.58574 0
M  V30 4853 N 458.211 1.37122 0.776871 0
M  V30 4854 C 459.143 1.28342 1.89897 0
M  V30 4855 C 460.156 0.200277 1.61563 0
M  V30 4856 O 461.345 0.456012 1.72577 0
M  V30 4857 C 458.445 0.960427 3.25006 0
M  V30 4858 C 457.618 2.148 3.81025 0
M  V30 4859 C 456.677 1.79608 4.94598 0
M  V30 4860 O 455.703 2.51845 5.10454 0
M  V30 4861 N 456.905 0.737171 5.758 0
M  V30 4862 H 459.67 2.25027 1.97947 0
M  V30 4863 H 457.231 1.3068 0.955739 0
M  V30 4864 H 459.223 0.705942 3.98495 0
M  V30 4865 H 457.793 0.0823066 3.12492 0
M  V30 4866 H 457.013 2.56454 2.99374 0
M  V30 4867 H 458.301 2.9411 4.15183 0
M  V30 4868 H 457.699 0.137637 5.65533 0
M  V30 4869 H 456.256 0.542534 6.49538 0
M  V30 4870 N 459.689 -1.00246 1.21608 0
M  V30 4871 C 461.1 -1.55511 1.03312 0
M  V30 4872 C 461.451 -1.91946 -0.406332 0
M  V30 4873 O 460.576 -1.73753 -1.28992 0
M  V30 4874 C 461.171 -2.82576 1.86913 0
M  V30 4875 C 459.73 -3.34318 1.72941 0
M  V30 4876 C 458.877 -2.07487 1.83968 0
M  V30 4877 H 461.828 -0.824638 1.35593 0
M  V30 4878 H 461.849 -3.54559 1.38087 0
M  V30 4879 H 461.361 -2.56026 2.91672 0
M  V30 4880 H 459.462 -3.65797 0.70877 0
M  V30 4881 H 459.575 -4.05566 2.55055 0
M  V30 4882 H 457.939 -2.20603 1.27304 0
M  V30 4883 H 458.722 -1.83346 2.9024 0
M  V30 4884 N 461.167 -1.02423 -1.1978 0
M  V30 4885 C 462.395 -0.737456 -1.93311 0
M  V30 4886 C 462.81 0.703023 -1.75223 0
M  V30 4887 O 462.167 1.47761 -1.07112 0
M  V30 4888 C 462.218 -1.0733 -3.45199 0
M  V30 4889 O 461.939 -2.4572 -3.62702 0
M  V30 4890 C 463.44 -0.80866 -4.35862 0
M  V30 4891 H 460.66 -0.2702 -0.614193 0
M  V30 4892 H 463.204 -1.36747 -1.52054 0
M  V30 4893 H 461.359 -0.488545 -3.84307 0
M  V30 4894 H 461.773 -2.58081 -4.56612 0
M  V30 4895 H 463.247 -1.09365 -5.41057 0
M  V30 4896 H 463.724 0.257025 -4.38447 0
M  V30 4897 H 464.33 -1.37592 -4.02428 0
M  V30 4898 N 462.645 1.35699 -0.801477 0
M  V30 4899 C 464.061 1.52065 -0.484596 0
M  V30 4900 C 464.261 1.75215 0.995084 0
M  V30 4901 O 463.317 1.79061 1.78026 0
M  V30 4902 C 464.63 2.69908 -1.32552 0
M  V30 4903 C 466.178 2.83784 -1.32044 0
M  V30 4904 C 466.653 4.04646 -2.14536 0
M  V30 4905 N 468.144 4.11814 -2.12046 0
M  V30 4906 C 468.879 5.04437 -2.72636 0
M  V30 4907 N 468.375 6.02426 -3.42133 0
M  V30 4908 N 470.168 4.97144 -2.62305 0
M  V30 4909 H 462.319 1.18928 -1.75983 0
M  V30 4910 H 464.582 0.581455 -0.748741 0
M  V30 4911 H 464.288 2.59363 -2.37537 0
M  V30 4912 H 464.162 3.64376 -0.975181 0
M  V30 4913 H 466.549 2.93783 -0.27846 0
M  V30 4914 H 466.63 1.90188 -1.71062 0
M  V30 4915 H 466.274 3.95407 -3.18772 0
M  V30 4916 H 466.204 4.97413 -1.72882 0
M  V30 4917 H 468.695 3.41664 -1.61476 0
M  V30 4918 H 469.008 6.69688 -3.85666 0
M  V30 4919 H 467.353 6.02615 -3.46237 0
M  V30 4920 H 470.544 4.19546 -2.07603 0
M  V30 4921 H 470.717 5.69138 -3.09815 0
M  V30 4922 N 464.123 0.554532 1.47522 0
M  V30 4923 C 465.539 0.214107 1.58157 0
M  V30 4924 C 465.739 -1.28331 1.55349 0
M  V30 4925 O 464.795 -2.06329 1.45549 0
M  V30 4926 C 466.108 0.838391 2.88776 0
M  V30 4927 C 467.656 0.809374 3.02354 0
M  V30 4928 C 468.131 1.41268 4.35669 0
M  V30 4929 N 469.622 1.37574 4.42298 0
M  V30 4930 C 470.357 1.8122 5.4401 0
M  V30 4931 N 469.853 2.3271 6.52547 0
M  V30 4932 N 471.646 1.72307 5.35039 0
M  V30 4933 H 463.797 1.52744 1.4759 0
M  V30 4934 H 466.06 0.636812 0.702264 0
M  V30 4935 H 465.766 1.89065 2.96559 0
M  V30 4936 H 465.64 0.329847 3.75755 0
M  V30 4937 H 468.027 -0.234187 2.94169 0
M  V30 4938 H 468.108 1.35565 2.16924 0
M  V30 4939 H 467.752 2.45529 4.4461 0
M  V30 4940 H 467.682 0.841871 5.19827 0
M  V30 4941 H 470.173 0.999081 3.64454 0
M  V30 4942 H 470.486 2.63944 7.26329 0
M  V30 4943 H 468.831 2.36719 6.53444 0
M  V30 4944 H 472.022 1.3186 4.49144 0
M  V30 4945 H 472.195 2.06641 6.14169 0
M  V30 4946 N 465.601 -1.54893 0.290851 0
M  V30 4947 C 466.551 -2.19838 -0.604599 0
M  V30 4948 C 467.535 -1.16805 -1.10659 0
M  V30 4949 O 468.727 -1.42562 -1.04905 0
M  V30 4950 C 465.856 -2.93497 -1.78086 0
M  V30 4951 C 464.942 -4.03835 -1.29531 0
M  V30 4952 N 465.333 -5.03047 -0.527024 0
M  V30 4953 C 463.631 -4.17192 -1.57693 0
M  V30 4954 C 464.332 -5.81074 -0.269728 0
M  V30 4955 N 463.308 -5.36966 -0.846651 0
M  V30 4956 H 467.11 -2.93898 -0.00995032 0
M  V30 4957 H 464.624 -1.62121 0.0951353 0
M  V30 4958 H 466.621 -3.38484 -2.43381 0
M  V30 4959 H 465.281 -2.2095 -2.37931 0
M  V30 4960 H 466.292 -5.17611 -0.172872 0
M  V30 4961 H 462.969 -3.55845 -2.18359 0
M  V30 4962 H 464.359 -6.71005 0.346643 0
M  V30 4963 N 467.08 -0.0183926 -1.57589 0
M  V30 4964 C 468.01 0.965596 -2.12599 0
M  V30 4965 C 468.991 1.34641 -1.0395 0
M  V30 4966 O 470.176 1.42693 -1.31729 0
M  V30 4967 C 467.306 2.25149 -2.64434 0
M  V30 4968 C 466.26 2.01175 -3.77773 0
M  V30 4969 C 465.586 3.35937 -4.15994 0
M  V30 4970 C 466.886 1.35953 -5.04296 0
M  V30 4971 H 468.58 0.507504 -2.95067 0
M  V30 4972 H 466.126 0.242671 -1.41941 0
M  V30 4973 H 468.079 2.94357 -3.01549 0
M  V30 4974 H 466.803 2.73105 -1.79112 0
M  V30 4975 H 465.462 1.34388 -3.4108 0
M  V30 4976 H 465.11 3.81631 -3.27669 0
M  V30 4977 H 464.81 3.20705 -4.92364 0
M  V30 4978 H 466.334 4.0643 -4.55683 0
M  V30 4979 H 467.748 1.95144 -5.39065 0
M  V30 4980 H 466.145 1.31152 -5.85593 0
M  V30 4981 H 467.215 0.331071 -4.83768 0
M  V30 4982 N 468.558 1.5553 0.254621 0
M  V30 4983 C 469.505 1.89666 1.31512 0
M  V30 4984 C 470.475 0.750057 1.482 0
M  V30 4985 O 471.66 1.00301 1.62309 0
M  V30 4986 C 468.8 2.19009 2.667 0
M  V30 4987 C 467.913 3.46435 2.58083 0
M  V30 4988 C 467.048 3.65386 3.85573 0
M  V30 4989 C 466.087 4.8644 3.71541 0
M  V30 4990 N 465.224 5.01952 4.90906 0
M  V30 4991 H 470.064 2.80109 1.017 0
M  V30 4992 H 467.601 1.38666 0.490938 0
M  V30 4993 H 469.559 2.34025 3.45381 0
M  V30 4994 H 468.189 1.31779 2.94676 0
M  V30 4995 H 467.241 3.39792 1.71013 0
M  V30 4996 H 468.553 4.35258 2.43622 0
M  V30 4997 H 467.707 3.80319 4.72697 0
M  V30 4998 H 466.446 2.74781 4.02922 0
M  V30 4999 H 465.451 4.71491 2.82801 0
M  V30 5000 H 466.676 5.78497 3.55694 0
M  V30 5001 H 464.622 4.14283 5.08631 0
M  V30 5002 H 464.539 5.84851 4.79046 0
M  V30 5003 H 465.807 5.21289 5.7955 0
M  V30 5004 N 470.036 -0.519951 1.48776 0
M  V30 5005 C 471.282 -1.27711 1.57536 0
M  V30 5006 C 471.615 -1.92547 0.252866 0
M  V30 5007 O 470.89 -1.7979 -0.742021 0
M  V30 5008 C 471.173 -2.35875 2.72094 0
M  V30 5009 C 471.026 -1.75664 4.1408 0
M  V30 5010 C 472.345 -3.37575 2.82367 0
M  V30 5011 H 469.464 -0.462971 0.573434 0
M  V30 5012 H 472.106 -0.578194 1.80989 0
M  V30 5013 H 470.256 -2.95488 2.52228 0
M  V30 5014 H 471.928 -1.20025 4.45412 0
M  V30 5015 H 470.171 -1.06154 4.20611 0
M  V30 5016 H 470.842 -2.54029 4.90075 0
M  V30 5017 H 473.318 -2.87929 3.00393 0
M  V30 5018 H 472.194 -4.1064 3.64233 0
M  V30 5019 H 472.455 -3.98743 1.90936 0
M  V30 5020 N 471.514 -1.37532 -0.769588 0
M  V30 5021 C 472.424 -1.35668 -1.91393 0
M  V30 5022 C 473.44 -0.255954 -1.72107 0
M  V30 5023 O 474.616 -0.491704 -1.95305 0
M  V30 5024 C 471.681 -1.16481 -3.26547 0
M  V30 5025 C 470.742 -2.36212 -3.58472 0
M  V30 5026 C 469.975 -2.17932 -4.87177 0
M  V30 5027 O 470.198 -1.1647 -5.58382 0
M  V30 5028 O 469.132 -3.06167 -5.18214 0
M  V30 5029 H 472.958 -2.32055 -1.95918 0
M  V30 5030 H 470.543 -1.18284 -0.912641 0
M  V30 5031 H 472.425 -1.07778 -4.07384 0
M  V30 5032 H 471.1 -0.231687 -3.2287 0
M  V30 5033 H 470.007 -2.50488 -2.77861 0
M  V30 5034 H 471.34 -3.281 -3.66894 0
M  V30 5035 N 472.992 0.995999 -1.22138 0
M  V30 5036 C 473.902 2.11985 -1.00496 0
M  V30 5037 C 474.918 1.7394 0.0457701 0
M  V30 5038 O 476.094 2.00868 -0.146273 0
M  V30 5039 C 473.159 3.41779 -0.582086 0
M  V30 5040 C 472.22 3.93943 -1.70608 0
M  V30 5041 C 471.453 5.17542 -1.30328 0
M  V30 5042 O 471.676 5.70114 -0.180743 0
M  V30 5043 O 470.61 5.63382 -2.11861 0
M  V30 5044 H 474.436 2.33123 -1.94647 0
M  V30 5045 H 472.021 1.10358 -1.00705 0
M  V30 5046 H 473.903 4.1989 -0.356467 0
M  V30 5047 H 472.578 3.22007 0.330592 0
M  V30 5048 H 471.485 3.17019 -1.98619 0
M  V30 5049 H 472.818 4.18141 -2.59651 0
M  V30 5050 N 474.47 1.03057 1.19235 0
M  V30 5051 C 475.7 0.746613 1.92638 0
M  V30 5052 C 476.108 -0.698708 1.75826 0
M  V30 5053 O 475.451 -1.487 1.07861 0
M  V30 5054 C 475.513 1.02024 3.44719 0
M  V30 5055 C 475.177 2.45745 3.85303 0
M  V30 5056 C 476.174 3.43887 3.8992 0
M  V30 5057 C 473.859 2.8019 4.16892 0
M  V30 5058 C 475.853 4.74529 4.2556 0
M  V30 5059 C 473.54 4.1104 4.52205 0
M  V30 5060 C 474.538 5.0802 4.56513 0
M  V30 5061 O 474.226 6.36527 4.91008 0
M  V30 5062 H 473.958 0.272401 0.618687 0
M  V30 5063 H 476.512 1.37853 1.52269 0
M  V30 5064 H 474.742 0.331184 3.85279 0
M  V30 5065 H 476.431 0.725677 3.9936 0
M  V30 5066 H 477.197 3.18614 3.65664 0
M  V30 5067 H 473.076 2.05382 4.12722 0
M  V30 5068 H 476.62 5.50222 4.28838 0
M  V30 5069 H 472.517 4.36086 4.7592 0
M  V30 5070 H 473.285 6.41025 5.08949 0
M  V30 5071 N 475.948 -1.35272 0.808662 0
M  V30 5072 C 477.197 -1.97963 0.386483 0
M  V30 5073 C 477.51 -1.64866 -1.05255 0
M  V30 5074 O 478.716 -2.20937 -1.57794 0
M  V30 5075 C 477.172 -3.54162 0.640096 0
M  V30 5076 C 476.78 -3.96166 2.0918 0
M  V30 5077 C 478.524 -4.23553 0.283376 0
M  V30 5078 C 476.431 -5.4522 2.29106 0
M  V30 5079 H 475.361 -0.740742 0.140774 0
M  V30 5080 H 478.012 -1.5431 0.993012 0
M  V30 5081 H 476.394 -3.95983 -0.0364117 0
M  V30 5082 H 477.568 -3.65491 2.80629 0
M  V30 5083 H 475.883 -3.3967 2.40859 0
M  V30 5084 H 478.48 -5.33124 0.410273 0
M  V30 5085 H 478.823 -4.09105 -0.770659 0
M  V30 5086 H 479.356 -3.8716 0.913884 0
M  V30 5087 H 476.095 -5.64638 3.32962 0
M  V30 5088 H 475.615 -5.77457 1.62184 0
M  V30 5089 H 477.294 -6.1171 2.1076 0
M  V30 5090 N 477.426 -0.562348 -1.47226 0
M  V30 5091 C 478.654 -0.0452275 -2.06851 0
M  V30 5092 C 479.069 1.25078 -1.41424 0
M  V30 5093 O 478.426 1.75156 -0.512513 0
M  V30 5094 C 478.477 0.148674 -3.61194 0
M  V30 5095 O 478.198 -1.09602 -4.24169 0
M  V30 5096 C 479.699 0.702488 -4.37699 0
M  V30 5097 H 476.919 -0.0481775 -0.669268 0
M  V30 5098 H 479.463 -0.777223 -1.89155 0
M  V30 5099 H 477.618 0.830817 -3.78386 0
M  V30 5100 H 478.032 -0.896982 -5.16773 0
M  V30 5101 H 479.506 0.78743 -5.46355 0
M  V30 5102 H 479.983 1.71493 -4.04335 0
M  V30 5103 H 480.589 0.0558772 -4.25263 0
M  V30 5104 N 478.904 1.54736 -0.299062 0
M  V30 5105 C 480.315 1.8569 0.193971 0
M  V30 5106 C 480.666 1.22101 1.53577 0
M  V30 5107 O 479.791 0.51799 2.10109 0
M  V30 5108 C 480.386 3.36895 0.358733 0
M  V30 5109 C 478.945 3.67887 0.795986 0
M  V30 5110 C 478.092 2.77131 -0.096807 0
M  V30 5111 H 481.043 1.49934 -0.520134 0
M  V30 5112 H 481.064 3.61294 1.19361 0
M  V30 5113 H 480.576 3.83148 -0.617998 0
M  V30 5114 H 478.677 3.27151 1.78334 0
M  V30 5115 H 478.79 4.75114 0.616718 0
M  V30 5116 H 477.154 2.51153 0.423581 0
M  V30 5117 H 477.937 3.26204 -1.06986 0
M  V30 5118 N 480.382 0.0267497 1.57577 0
M  V30 5119 C 481.292 -0.971633 2.13533 0
M  V30 5120 C 482.308 -1.35868 1.08701 0
M  V30 5121 O 483.484 -1.44058 1.40746 0
M  V30 5122 C 480.549 -2.23622 2.64941 0
M  V30 5123 C 479.61 -1.90982 3.8448 0
M  V30 5124 C 478.843 -3.11411 4.33427 0
M  V30 5125 O 479.066 -4.23992 3.81558 0
M  V30 5126 O 478 -2.93848 5.25297 0
M  V30 5127 H 481.826 -0.525853 2.99113 0
M  V30 5128 H 479.411 -0.193712 1.48139 0
M  V30 5129 H 481.293 -2.97864 2.98086 0
M  V30 5130 H 479.968 -2.67386 1.82446 0
M  V30 5131 H 478.875 -1.14132 3.56265 0
M  V30 5132 H 480.208 -1.52036 4.6813 0
M  V30 5133 N 481.861 -1.55662 -0.24637 0
M  V30 5134 C 482.808 -1.90361 -1.30504 0
M  V30 5135 C 483.778 -0.757905 -1.47801 0
M  V30 5136 O 484.963 -1.01161 -1.61775 0
M  V30 5137 C 482.103 -2.2042 -2.65535 0
M  V30 5138 C 481.216 -3.47799 -2.56242 0
M  V30 5139 C 480.351 -3.67426 -3.8363 0
M  V30 5140 C 479.39 -4.88403 -3.68956 0
M  V30 5141 N 478.527 -5.04548 -4.88237 0
M  V30 5142 H 483.367 -2.80645 -1.00213 0
M  V30 5143 H 480.904 -1.38924 -0.483577 0
M  V30 5144 H 482.862 -2.35853 -3.44135 0
M  V30 5145 H 481.492 -1.3334 -2.93973 0
M  V30 5146 H 480.544 -3.40694 -1.69208 0
M  V30 5147 H 481.856 -4.36544 -2.4131 0
M  V30 5148 H 481.01 -3.82821 -4.70673 0
M  V30 5149 H 479.749 -2.76914 -4.01459 0
M  V30 5150 H 478.754 -4.72984 -2.80296 0
M  V30 5151 H 479.979 -5.80375 -3.52621 0
M  V30 5152 H 477.925 -4.16974 -5.06427 0
M  V30 5153 H 477.842 -5.87384 -4.75937 0
M  V30 5154 H 479.11 -5.24355 -5.76777 0
M  V30 5155 N 483.339 0.512053 -1.4905 0
M  V30 5156 C 484.586 1.26686 -1.57978 0
M  V30 5157 C 484.914 1.92733 -0.261553 0
M  V30 5158 O 484.169 1.80772 0.749667 0
M  V30 5159 C 484.468 2.36446 -2.68008 0
M  V30 5160 C 484.134 1.87932 -4.09869 0
M  V30 5161 C 482.796 1.74419 -4.48477 0
M  V30 5162 C 485.148 1.5149 -4.98698 0
M  V30 5163 C 482.476 1.22827 -5.73699 0
M  V30 5164 C 484.828 1.01355 -6.24428 0
M  V30 5165 C 483.492 0.864735 -6.61875 0
M  V30 5166 H 482.762 0.463577 -0.578081 0
M  V30 5167 H 485.409 0.569421 -1.82838 0
M  V30 5168 H 483.714 3.11933 -2.37076 0
M  V30 5169 H 485.411 2.9453 -2.72127 0
M  V30 5170 H 482.001 1.99405 -3.79389 0
M  V30 5171 H 486.185 1.60782 -4.69535 0
M  V30 5172 H 481.441 1.10008 -6.01422 0
M  V30 5173 H 485.615 0.722351 -6.92644 0
M  V30 5174 H 483.242 0.462777 -7.5879 0
M  V30 5175 N 484.817 1.37938 0.762283 0
M  V30 5176 C 485.764 1.34467 1.87583 0
M  V30 5177 C 486.734 0.208633 1.64785 0
M  V30 5178 O 487.919 0.399494 1.86571 0
M  V30 5179 C 485.059 1.16692 3.24772 0
M  V30 5180 C 484.172 2.39608 3.59461 0
M  V30 5181 C 483.307 2.14631 4.85908 0
M  V30 5182 C 482.346 3.33364 5.13357 0
M  V30 5183 N 481.483 3.07877 6.30996 0
M  V30 5184 H 486.323 2.29669 1.89885 0
M  V30 5185 H 483.86 1.14116 0.928219 0
M  V30 5186 H 485.818 1.04405 4.03925 0
M  V30 5187 H 484.448 0.251333 3.2182 0
M  V30 5188 H 483.5 2.626 2.75219 0
M  V30 5189 H 484.812 3.28128 3.75678 0
M  V30 5190 H 483.966 1.99429 5.72986 0
M  V30 5191 H 482.705 1.23463 4.71814 0
M  V30 5192 H 481.71 3.49094 4.24751 0
M  V30 5193 H 482.935 4.25395 5.29354 0
M  V30 5194 H 480.881 2.19348 6.18241 0
M  V30 5195 H 480.798 3.89944 6.47673 0
M  V30 5196 H 482.066 2.96313 7.20985 0
M  V30 5197 N 486.295 -0.989507 1.22664 0
M  V30 5198 C 487.525 -1.7624 1.0781 0
M  V30 5199 C 487.933 -1.85466 -0.374036 0
M  V30 5200 O 487.276 -1.32645 -1.27087 0
M  V30 5201 C 487.338 -3.21007 1.61849 0
M  V30 5202 C 487.002 -3.35316 3.10503 0
M  V30 5203 C 487.999 -3.22362 4.07896 0
M  V30 5204 C 485.684 -3.60258 3.50028 0
M  V30 5205 C 487.678 -3.34139 5.42798 0
M  V30 5206 C 485.365 -3.71676 4.85078 0
M  V30 5207 C 486.363 -3.58625 5.81272 0
M  V30 5208 O 486.051 -3.69655 7.1387 0
M  V30 5209 H 485.783 -0.560209 0.378341 0
M  V30 5210 H 488.337 -1.25252 1.62792 0
M  V30 5211 H 486.567 -3.73202 1.01279 0
M  V30 5212 H 488.256 -3.80024 1.42606 0
M  V30 5213 H 489.022 -3.03 3.78703 0
M  V30 5214 H 484.901 -3.69492 2.75675 0
M  V30 5215 H 488.445 -3.23869 6.17863 0
M  V30 5216 H 484.342 -3.90545 5.1395 0
M  V30 5217 H 485.11 -3.86507 7.21495 0
M  V30 5218 N 487.773 -1.03688 -1.18687 0
M  V30 5219 C 489.019 -0.74888 -1.89112 0
M  V30 5220 C 489.374 0.715345 -1.78607 0
M  V30 5221 O 488.667 1.51498 -1.17299 0
M  V30 5222 C 488.861 -1.14477 -3.3857 0
M  V30 5223 C 488.69 -2.64594 -3.63621 0
M  V30 5224 C 487.46 -3.31685 -3.812 0
M  V30 5225 C 489.658 -3.62811 -3.64517 0
M  V30 5226 N 487.64 -4.70822 -3.93955 0
M  V30 5227 C 489.011 -4.87603 -3.8294 0
M  V30 5228 C 491.066 -3.56495 -3.47585 0
M  V30 5229 C 489.769 -6.0684 -3.86184 0
M  V30 5230 C 491.795 -4.75155 -3.52111 0
M  V30 5231 C 491.157 -5.98765 -3.71026 0
M  V30 5232 H 487.256 -0.32603 -0.710794 0
M  V30 5233 H 489.84 -1.3258 -1.42586 0
M  V30 5234 H 488.011 -0.595974 -3.838 0
M  V30 5235 H 489.743 -0.808187 -3.96548 0
M  V30 5236 H 486.498 -2.82091 -3.80423 0
M  V30 5237 H 486.922 -5.43122 -4.04163 0
M  V30 5238 H 491.564 -2.61907 -3.31911 0
M  V30 5239 H 489.282 -7.01788 -4.00648 0
M  V30 5240 H 492.868 -4.71905 -3.40289 0
M  V30 5241 H 491.748 -6.89047 -3.74412 0
M  V30 5242 N 489.251 1.34841 -0.815825 0
M  V30 5243 C 490.161 2.33425 -0.234462 0
M  V30 5244 C 491.177 1.62295 0.627413 0
M  V30 5245 O 492.353 1.94109 0.536987 0
M  V30 5246 C 489.418 3.41471 0.599849 0
M  V30 5247 C 488.479 4.28362 -0.283596 0
M  V30 5248 C 487.712 5.31248 0.51099 0
M  V30 5249 O 487.935 5.43056 1.7449 0
M  V30 5250 O 486.869 6.01812 -0.10297 0
M  V30 5251 H 490.695 2.84962 -1.05024 0
M  V30 5252 H 488.28 1.37774 -0.577809 0
M  V30 5253 H 490.162 4.07464 1.07475 0
M  V30 5254 H 488.837 2.9219 1.39308 0
M  V30 5255 H 487.744 3.65318 -0.805836 0
M  V30 5256 H 489.077 4.81066 -1.041 0
M  V30 5257 N 490.729 0.570148 1.46925 0
M  V30 5258 C 491.676 -0.170257 2.30171 0
M  V30 5259 C 492.646 -0.896099 1.39855 0
M  V30 5260 O 493.831 -0.889248 1.68811 0
M  V30 5261 C 490.971 -1.18605 3.24079 0
M  V30 5262 C 490.084 -0.464947 4.29491 0
M  V30 5263 C 489.219 -1.46716 5.10537 0
M  V30 5264 C 488.258 -0.731758 6.0771 0
M  V30 5265 N 487.395 -1.68142 6.81669 0
M  V30 5266 H 492.235 0.545713 2.92961 0
M  V30 5267 H 489.772 0.280938 1.44392 0
M  V30 5268 H 491.73 -1.78771 3.76957 0
M  V30 5269 H 490.36 -1.86989 2.63125 0
M  V30 5270 H 489.412 0.251506 3.79568 0
M  V30 5271 H 490.724 0.110548 4.98677 0
M  V30 5272 H 489.878 -2.14199 5.6763 0
M  V30 5273 H 488.617 -2.07658 4.41282 0
M  V30 5274 H 487.622 -0.0430787 5.49783 0
M  V30 5275 H 488.847 -0.127904 6.7898 0
M  V30 5276 H 486.793 -2.27918 6.15134 0
M  V30 5277 H 486.71 -1.15841 7.47072 0
M  V30 5278 H 487.978 -2.347 7.43328 0
M  V30 5279 N 492.207 -1.54576 0.307264 0
M  V30 5280 C 493.453 -2.0056 -0.300612 0
M  V30 5281 C 493.786 -1.1953 -1.53057 0
M  V30 5282 O 493.061 -0.27337 -1.92569 0
M  V30 5283 C 493.344 -3.54167 -0.650987 0
M  V30 5284 C 493.197 -4.45933 0.588539 0
M  V30 5285 C 494.516 -4.14645 -1.47506 0
M  V30 5286 H 491.635 -0.729075 -0.107788 0
M  V30 5287 H 494.277 -1.85286 0.420606 0
M  V30 5288 H 492.427 -3.67313 -1.26544 0
M  V30 5289 H 494.099 -4.44683 1.22697 0
M  V30 5290 H 492.342 -4.16274 1.22058 0
M  V30 5291 H 493.013 -5.51189 0.299153 0
M  V30 5292 H 495.489 -4.04973 -0.955821 0
M  V30 5293 H 494.365 -5.22269 -1.68899 0
M  V30 5294 H 494.626 -3.66921 -2.4662 0
M  V30 5295 N 493.685 -0.035106 -1.57561 0
M  V30 5296 C 494.933 0.64096 -1.91667 0
M  V30 5297 C 495.254 1.72323 -0.912681 0
M  V30 5298 O 494.524 1.95849 0.0449089 0
M  V30 5299 H 493.104 0.239743 -0.707483 0
M  V30 5300 H 495.766 -0.084321 -1.94718 0
M  V30 5301 H 494.862 1.08987 -2.92452 0
M  V30 5302 N 495.163 1.55791 0.238111 0
M  V30 5303 C 496.111 1.91885 1.31464 0
M  V30 5304 C 497.105 0.798929 1.49377 0
M  V30 5305 O 498.311 0.983626 1.50747 0
M  V30 5306 H 494.686 0.609551 0.440399 0
M  V30 5307 H 496.657 2.81747 0.982925 0
M  V30 5308 C 495.406 2.23763 2.6613 0
M  V30 5309 H 494.729 3.09444 2.53149 0
M  V30 5310 H 496.169 2.52915 3.40309 0
M  V30 5311 C 494.628 1.05699 3.1989 0
M  V30 5312 O 495.158 0.309524 4.00506 0
M  V30 5313 N 493.364 0.845251 2.78036 0
M  V30 5314 H 492.911 1.4548 2.12588 0
M  V30 5315 H 492.869 0.0569973 3.14348 0
M  V30 5316 N 496.642 -0.504142 1.49319 0
M  V30 5317 C 497.552 -1.63248 1.68486 0
M  V30 5318 C 498.568 -1.64488 0.567432 0
M  V30 5319 O 499.744 -1.82966 0.841749 0
M  V30 5320 C 496.809 -2.99627 1.74426 0
M  V30 5321 C 495.87 -3.09039 2.97982 0
M  V30 5322 C 495.103 -4.38913 3.0363 0
M  V30 5323 O 495.326 -5.27528 2.16958 0
M  V30 5324 O 494.26 -4.53231 3.96062 0
M  V30 5325 H 498.086 -1.50008 2.64067 0
M  V30 5326 H 495.671 -0.680086 1.33023 0
M  V30 5327 H 497.553 -3.80689 1.80705 0
M  V30 5328 H 496.228 -3.13136 0.820233 0
M  V30 5329 H 495.135 -2.27177 2.97223 0
M  V30 5330 H 496.468 -3.00456 3.89855 0
M  V30 5331 N 498.12 -1.38341 -0.754957 0
M  V30 5332 C 499.05 -1.38176 -1.88227 0
M  V30 5333 C 500.031 -0.247873 -1.68284 0
M  V30 5334 O 501.216 -0.45075 -1.88896 0
M  V30 5335 C 498.346 -1.20471 -3.25736 0
M  V30 5336 C 497.3 -2.3105 -3.60278 0
M  V30 5337 C 496.626 -1.98452 -4.96509 0
M  V30 5338 C 497.926 -3.73305 -3.65295 0
M  V30 5339 H 499.62 -2.32512 -1.88622 0
M  V30 5340 H 497.166 -1.1192 -0.906082 0
M  V30 5341 H 499.119 -1.18982 -4.04254 0
M  V30 5342 H 497.843 -0.225965 -3.25817 0
M  V30 5343 H 496.502 -2.31723 -2.84078 0
M  V30 5344 H 496.15 -0.990641 -4.93148 0
M  V30 5345 H 495.85 -2.7251 -5.20588 0
M  V30 5346 H 497.374 -1.98578 -5.77407 0
M  V30 5347 H 498.788 -3.7467 -4.3393 0
M  V30 5348 H 497.185 -4.46557 -4.00883 0
M  V30 5349 H 498.255 -4.05719 -2.65556 0
M  V30 5350 N 499.598 0.982988 -1.23187 0
M  V30 5351 C 500.846 1.72052 -1.06031 0
M  V30 5352 C 501.167 1.90769 0.404019 0
M  V30 5353 O 500.437 1.47446 1.28982 0
M  V30 5354 H 499.017 0.637499 -0.389363 0
M  V30 5355 H 501.679 1.18338 -1.54862 0
M  V30 5356 H 500.775 2.7111 -1.54615 0
M  V30 5357 N 501.076 1.04316 1.18135 0
M  V30 5358 C 502.323 0.74802 1.88178 0
M  V30 5359 C 502.651 -0.72441 1.80506 0
M  V30 5360 O 501.906 -1.54463 1.20165 0
M  V30 5361 C 502.205 1.16271 3.37958 0
M  V30 5362 C 501.871 2.63585 3.65833 0
M  V30 5363 C 500.533 3.03829 3.73151 0
M  V30 5364 C 502.885 3.58822 3.78016 0
M  V30 5365 C 500.213 4.38194 3.90132 0
M  V30 5366 C 502.565 4.92909 3.96514 0
M  V30 5367 C 501.229 5.3282 4.02068 0
M  V30 5368 H 500.499 0.27372 0.688592 0
M  V30 5369 H 503.146 1.30863 1.39811 0
M  V30 5370 H 501.451 0.520938 3.88321 0
M  V30 5371 H 503.148 0.911672 3.90499 0
M  V30 5372 H 499.738 2.31414 3.60757 0
M  V30 5373 H 503.922 3.28875 3.71692 0
M  V30 5374 H 499.178 4.68631 3.92677 0
M  V30 5375 H 503.352 5.66606 4.04883 0
M  V30 5376 H 500.979 6.36943 4.14979 0
M  V30 5377 N 502.554 -1.34406 0.822964 0
M  V30 5378 C 503.504 -2.26963 0.217208 0
M  V30 5379 C 504.488 -1.48536 -0.618545 0
M  V30 5380 O 505.68 -1.7056 -0.473118 0
M  V30 5381 C 502.809 -3.37655 -0.619973 0
M  V30 5382 C 501.895 -4.23495 0.226411 0
M  V30 5383 N 502.286 -4.88876 1.29744 0
M  V30 5384 C 500.584 -4.45999 0.0107554 0
M  V30 5385 C 501.285 -5.52642 1.81553 0
M  V30 5386 N 500.261 -5.31949 1.11942 0
M  V30 5387 H 504.063 -2.75017 1.03647 0
M  V30 5388 H 501.577 -1.48126 0.665777 0
M  V30 5389 H 503.574 -4.02932 -1.07011 0
M  V30 5390 H 502.234 -2.91151 -1.43739 0
M  V30 5391 H 503.245 -4.89886 1.68024 0
M  V30 5392 H 499.922 -4.10253 -0.774495 0
M  V30 5393 H 501.312 -6.14755 2.71156 0
M  V30 5394 N 504.032 -0.577932 -1.46621 0
M  V30 5395 C 505.262 -0.0670668 -2.06491 0
M  V30 5396 C 505.67 1.24119 -1.42798 0
M  V30 5397 O 505.013 1.76016 -0.525759 0
M  V30 5398 C 505.075 0.177995 -3.59059 0
M  V30 5399 C 504.739 -1.04394 -4.44917 0
M  V30 5400 C 505.736 -1.95479 -4.81751 0
M  V30 5401 C 503.421 -1.26444 -4.86125 0
M  V30 5402 C 505.415 -3.06965 -5.58615 0
M  V30 5403 C 503.102 -2.38237 -5.62749 0
M  V30 5404 C 504.1 -3.28327 -5.98908 0
M  V30 5405 O 503.788 -4.38179 -6.73984 0
M  V30 5406 H 503.52 -0.0523159 -0.673973 0
M  V30 5407 H 506.074 -0.796966 -1.89308 0
M  V30 5408 H 504.304 0.962451 -3.74531 0
M  V30 5409 H 505.993 0.636782 -4.00874 0
M  V30 5410 H 506.759 -1.79657 -4.50498 0
M  V30 5411 H 502.638 -0.572316 -4.57434 0
M  V30 5412 H 506.182 -3.77309 -5.86757 0
M  V30 5413 H 502.079 -2.54023 -5.93416 0
M  V30 5414 H 502.847 -4.36486 -6.92403 0
M  V30 5415 N 505.51 1.54411 -0.315457 0
M  V30 5416 C 506.738 2.04833 0.291738 0
M  V30 5417 C 507.153 1.19203 1.46411 0
M  V30 5418 O 506.51 0.220867 1.81159 0
M  V30 5419 C 506.561 3.53969 0.73404 0
M  V30 5420 O 506.282 4.36346 -0.391682 0
M  V30 5421 C 507.783 4.2045 1.40489 0
M  V30 5422 H 505.003 0.668195 0.0612947 0
M  V30 5423 H 507.547 1.99276 -0.45929 0
M  V30 5424 H 505.702 3.5984 1.43506 0
M  V30 5425 H 506.116 5.24481 -0.0447088 0
M  V30 5426 H 507.59 5.26278 1.66539 0
M  V30 5427 H 508.067 3.71067 2.3496 0
M  V30 5428 H 508.673 4.18694 0.746662 0
M  V30 5429 N 506.988 0.0434614 1.5754 0
M  V30 5430 C 507.951 -0.918696 2.09982 0
M  V30 5431 C 508.951 -1.24488 1.01781 0
M  V30 5432 O 510.141 -1.18284 1.27885 0
M  V30 5433 C 507.273 -2.23093 2.57764 0
M  V30 5434 H 508.466 -0.464229 2.96285 0
M  V30 5435 H 506.019 -0.204818 1.54952 0
M  V30 5436 H 506.754 -2.73137 1.74832 0
M  V30 5437 H 506.539 -2.00724 3.36827 0
M  V30 5438 H 508.029 -2.92028 2.98512 0
M  V30 5439 N 508.466 -1.55915 -0.229846 0
M  V30 5440 C 509.691 -1.8296 -0.976743 0
M  V30 5441 C 510.116 -0.622735 -1.77493 0
M  V30 5442 O 509.474 0.428431 -1.76165 0
M  V30 5443 C 509.522 -3.07916 -1.8767 0
M  V30 5444 O 508.626 -2.86028 -2.97088 0
M  V30 5445 H 507.967 -0.603453 -0.277021 0
M  V30 5446 H 510.497 -2.0312 -0.245669 0
M  V30 5447 H 510.507 -3.37802 -2.2881 0
M  V30 5448 H 509.182 -3.95389 -1.28996 0
M  V30 5449 H 507.759 -2.67355 -2.59954 0
M  V30 5450 N 509.944 0.496216 -1.49584 0
M  V30 5451 C 511.192 1.24756 -1.58998 0
M  V30 5452 C 511.513 1.92968 -0.280775 0
M  V30 5453 O 510.783 1.82959 0.700198 0
M  V30 5454 H 509.363 0.463471 -0.585836 0
M  V30 5455 H 512.025 0.574678 -1.86235 0
M  V30 5456 H 511.121 2.00895 -2.38847 0
M  V30 5457 N 511.423 1.38739 0.74761 0
M  V30 5458 C 512.834 1.31507 1.32524 0
M  V30 5459 C 513.185 -0.0263963 1.96182 0
M  V30 5460 O 512.31 -0.92849 1.95469 0
M  V30 5461 C 512.905 2.38162 2.40966 0
M  V30 5462 C 511.464 2.34489 2.94434 0
M  V30 5463 C 510.611 2.20712 1.67873 0
M  V30 5464 H 513.562 1.4901 0.546043 0
M  V30 5465 H 513.583 2.04222 3.21051 0
M  V30 5466 H 513.095 3.35783 1.94605 0
M  V30 5467 H 511.196 1.40467 3.45108 0
M  V30 5468 H 511.309 3.28861 3.48407 0
M  V30 5469 H 509.673 1.67667 1.91729 0
M  V30 5470 H 510.456 3.20285 1.23582 0
M  V30 5471 N 512.901 -0.976442 1.23707 0
M  V30 5472 C 513.831 -2.08749 1.04624 0
M  V30 5473 C 514.812 -1.70057 -0.0380956 0
M  V30 5474 O 515.997 -1.93782 0.127308 0
M  V30 5475 C 513.127 -3.41335 0.640902 0
M  V30 5476 C 512.081 -3.93947 1.67302 0
M  V30 5477 C 511.407 -5.22774 1.12301 0
M  V30 5478 C 512.707 -4.22769 3.06697 0
M  V30 5479 H 514.401 -2.24972 1.97555 0
M  V30 5480 H 511.947 -1.08108 0.951247 0
M  V30 5481 H 513.9 -4.18489 0.494434 0
M  V30 5482 H 512.624 -3.24988 -0.324099 0
M  V30 5483 H 511.283 -3.18941 1.80755 0
M  V30 5484 H 510.931 -5.0278 0.148877 0
M  V30 5485 H 510.631 -5.58942 1.81267 0
M  V30 5486 H 512.155 -6.02546 0.988479 0
M  V30 5487 H 513.569 -4.90659 2.96524 0
M  V30 5488 H 511.966 -4.70147 3.72937 0
M  V30 5489 H 513.036 -3.29885 3.55392 0
M  V30 5490 N 514.379 -1.04941 -1.1758 0
M  V30 5491 C 515.625 -0.759112 -1.88057 0
M  V30 5492 C 515.958 0.711918 -1.8068 0
M  V30 5493 O 515.233 1.52035 -1.21308 0
M  V30 5494 C 515.516 -1.237 -3.38187 0
M  V30 5495 C 515.369 -2.77078 -3.54327 0
M  V30 5496 C 516.688 -0.834014 -4.32125 0
M  V30 5497 H 513.807 -0.277237 -0.682868 0
M  V30 5498 H 516.449 -1.30296 -1.38286 0
M  V30 5499 H 514.599 -0.774337 -3.80705 0
M  V30 5500 H 516.271 -3.31449 -3.20842 0
M  V30 5501 H 514.514 -3.16477 -2.96689 0
M  V30 5502 H 515.185 -3.05577 -4.59703 0
M  V30 5503 H 517.661 -1.23228 -3.97434 0
M  V30 5504 H 516.537 -1.19603 -5.35711 0
M  V30 5505 H 516.798 0.262195 -4.41322 0
M  V30 5506 N 515.857 1.33968 -0.830081 0
M  V30 5507 C 517.273 1.51003 -0.516742 0
M  V30 5508 C 517.473 1.77286 0.957694 0
M  V30 5509 O 516.529 1.82797 1.74188 0
M  V30 5510 C 517.842 2.67036 -1.38247 0
M  V30 5511 C 519.39 2.80919 -1.38034 0
M  V30 5512 C 519.865 4.00004 -2.23071 0
M  V30 5513 N 521.356 4.07224 -2.20733 0
M  V30 5514 C 522.091 4.98541 -2.83275 0
M  V30 5515 N 521.587 5.95033 -3.54835 0
M  V30 5516 N 523.38 4.91469 -2.72791 0
M  V30 5517 H 515.531 1.15168 -1.78466 0
M  V30 5518 H 517.794 0.565443 -0.760906 0
M  V30 5519 H 517.5 2.54266 -2.42985 0
M  V30 5520 H 517.374 3.62226 -1.05225 0
M  V30 5521 H 519.761 2.93127 -0.340713 0
M  V30 5522 H 519.842 1.86517 -1.75057 0
M  V30 5523 H 519.486 3.88557 -3.27087 0
M  V30 5524 H 519.416 4.93634 -1.83394 0
M  V30 5525 H 521.907 3.38162 -1.68687 0
M  V30 5526 H 522.22 6.61357 -3.99784 0
M  V30 5527 H 520.565 5.95135 -3.58942 0
M  V30 5528 H 523.756 4.15048 -2.16456 0
M  V30 5529 H 523.929 5.62439 -3.21818 0
M  V30 5530 N 517.335 0.585699 1.46312 0
M  V30 5531 C 518.56 0.0762461 2.0726 0
M  V30 5532 C 518.985 -1.22071 1.43109 0
M  V30 5533 O 518.343 -1.73804 0.515942 0
M  V30 5534 C 518.391 -0.0729404 3.60526 0
M  V30 5535 O 517.495 -1.1287 3.96654 0
M  V30 5536 H 516.836 0.0641558 0.660893 0
M  V30 5537 H 519.366 0.809492 1.87905 0
M  V30 5538 H 519.376 -0.278158 4.07051 0
M  V30 5539 H 518.051 0.874188 4.06609 0
M  V30 5540 H 516.628 -0.901703 3.61834 0
M  V30 5541 N 518.813 -1.54241 0.323641 0
M  V30 5542 C 520.038 -2.05452 -0.283605 0
M  V30 5543 C 520.463 -1.19823 -1.44997 0
M  V30 5544 O 519.821 -0.207358 -1.8011 0
M  V30 5545 C 519.869 -3.53823 -0.695795 0
M  V30 5546 O 518.973 -3.71134 -1.79815 0
M  V30 5547 H 518.314 -0.662024 -0.0511917 0
M  V30 5548 H 520.844 -1.99079 0.472073 0
M  V30 5549 H 520.854 -3.96094 -0.978434 0
M  V30 5550 H 519.529 -4.15602 0.157287 0
M  V30 5551 H 518.106 -3.40768 -1.51431 0
M  V30 5552 N 520.291 -0.0518155 -1.57515 0
M  V30 5553 C 521.521 0.63048 -1.96745 0
M  V30 5554 C 521.929 1.64875 -0.928054 0
M  V30 5555 O 521.272 1.83449 0.0960678 0
M  V30 5556 C 521.334 1.37381 -3.32215 0
M  V30 5557 C 520.998 0.511298 -4.54131 0
M  V30 5558 C 521.995 -0.222884 -5.19422 0
M  V30 5559 C 519.68 0.442035 -5.00351 0
M  V30 5560 C 521.674 -1.01476 -6.2927 0
M  V30 5561 C 519.361 -0.35353 -6.10077 0
M  V30 5562 C 520.359 -1.08062 -6.74397 0
M  V30 5563 O 520.047 -1.8631 -7.82013 0
M  V30 5564 H 519.779 0.177126 -0.652382 0
M  V30 5565 H 522.333 -0.114726 -2.05079 0
M  V30 5566 H 520.563 2.16466 -3.20436 0
M  V30 5567 H 522.252 1.9464 -3.56188 0
M  V30 5568 H 523.018 -0.178846 -4.8467 0
M  V30 5569 H 518.897 0.997562 -4.50077 0
M  V30 5570 H 522.441 -1.58279 -6.79407 0
M  V30 5571 H 518.338 -0.399205 -6.44264 0
M  V30 5572 H 519.106 -1.78528 -7.98793 0
M  V30 5573 N 521.769 1.56035 0.221574 0
M  V30 5574 C 522.716 1.92413 1.27459 0
M  V30 5575 C 523.686 0.781323 1.46576 0
M  V30 5576 O 524.871 1.03721 1.60145 0
M  V30 5577 C 522.011 2.24617 2.61995 0
M  V30 5578 C 521.124 3.51831 2.50677 0
M  V30 5579 C 520.259 3.73482 3.77736 0
M  V30 5580 C 519.298 4.94211 3.6114 0
M  V30 5581 N 518.435 5.12252 4.80148 0
M  V30 5582 H 523.275 2.82203 0.957355 0
M  V30 5583 H 520.812 1.39676 0.461415 0
M  V30 5584 H 522.77 2.41298 3.40339 0
M  V30 5585 H 521.4 1.38 2.91815 0
M  V30 5586 H 520.452 3.43343 1.63767 0
M  V30 5587 H 521.764 4.40328 2.34334 0
M  V30 5588 H 520.918 3.9026 4.64523 0
M  V30 5589 H 519.657 2.83266 3.97003 0
M  V30 5590 H 518.662 4.77384 2.72736 0
M  V30 5591 H 519.887 5.85912 3.43343 0
M  V30 5592 H 517.833 4.24978 4.99729 0
M  V30 5593 H 517.75 5.94881 4.66532 0
M  V30 5594 H 519.018 5.33465 5.68362 0
M  V30 5595 N 523.247 -0.488276 1.49845 0
M  V30 5596 C 524.21 -1.57069 1.66919 0
M  V30 5597 C 525.21 -1.51445 0.540479 0
M  V30 5598 O 526.4 -1.5437 0.807188 0
M  V30 5599 C 523.532 -2.96718 1.67844 0
M  V30 5600 H 524.725 -1.43254 2.63474 0
M  V30 5601 H 522.278 -0.713435 1.39068 0
M  V30 5602 H 523.013 -3.15996 0.7292 0
M  V30 5603 H 522.798 -3.02208 2.49826 0
M  V30 5604 H 524.288 -3.75335 1.83066 0
M  V30 5605 N 524.725 -1.39134 -0.740242 0
M  V30 5606 C 525.973 -1.35803 -1.49673 0
M  V30 5607 C 526.294 0.0470897 -1.94943 0
M  V30 5608 O 525.564 0.997347 -1.68611 0
M  V30 5609 H 524.144 -0.499736 -0.555224 0
M  V30 5610 H 526.806 -1.73947 -0.879107 0
M  V30 5611 H 525.902 -2.0174 -2.38133 0
M  V30 5612 N 526.204 0.969867 -1.24223 0
M  V30 5613 C 527.114 2.09806 -1.0497 0
M  V30 5614 C 528.13 1.73998 0.00886455 0
M  V30 5615 O 529.306 2.00513 -0.188848 0
M  V30 5616 C 526.371 3.40467 -0.654452 0
M  V30 5617 C 525.432 3.90236 -1.78926 0
M  V30 5618 C 524.665 5.14662 -1.41277 0
M  V30 5619 O 524.888 5.69602 -0.301632 0
M  V30 5620 O 523.822 5.58761 -2.23763 0
M  V30 5621 H 527.648 2.28942 -1.99548 0
M  V30 5622 H 525.233 1.08197 -1.03023 0
M  V30 5623 H 527.115 4.19039 -0.445452 0
M  V30 5624 H 525.79 3.22636 0.262216 0
M  V30 5625 H 524.697 3.12735 -2.05299 0
M  V30 5626 H 526.03 4.1254 -2.68462 0
M  V30 5627 N 527.682 1.05563 1.17022 0
M  V30 5628 C 528.929 0.767937 1.87374 0
M  V30 5629 C 529.257 -0.705224 1.81265 0
M  V30 5630 O 528.512 -1.5318 1.21796 0
M  V30 5631 C 528.811 1.19849 3.36706 0
M  V30 5632 C 528.477 2.6745 3.63017 0
M  V30 5633 C 527.139 3.0777 3.69907 0
M  V30 5634 C 529.491 3.62811 3.74189 0
M  V30 5635 C 526.819 4.42307 3.85463 0
M  V30 5636 C 529.171 4.97087 3.91264 0
M  V30 5637 C 527.835 5.37055 3.96394 0
M  V30 5638 H 527.105 0.281008 0.68565 0
M  V30 5639 H 529.752 1.32339 1.38415 0
M  V30 5640 H 528.057 0.562096 3.87747 0
M  V30 5641 H 529.754 0.953038 3.8951 0
M  V30 5642 H 526.344 2.35228 3.58282 0
M  V30 5643 H 530.528 3.32798 3.68183 0
M  V30 5644 H 525.784 4.72769 3.87684 0
M  V30 5645 H 529.958 5.70869 3.9885 0
M  V30 5646 H 527.585 6.41308 4.082 0
M  V30 5647 N 529.16 -1.33526 0.837174 0
M  V30 5648 C 530.407 -1.97837 0.432064 0
M  V30 5649 C 530.735 -1.66324 -1.00829 0
M  V30 5650 O 529.99 -0.93448 -1.71948 0
M  V30 5651 C 530.289 -3.52367 0.597675 0
M  V30 5652 C 529.955 -4.03826 2.00587 0
M  V30 5653 C 528.617 -4.1759 2.39106 0
M  V30 5654 C 530.969 -4.31333 2.92576 0
M  V30 5655 C 528.297 -4.56195 3.68921 0
M  V30 5656 C 530.649 -4.7139 4.2187 0
M  V30 5657 C 529.313 -4.8336 4.60347 0
M  V30 5658 H 528.583 -0.723937 0.158104 0
M  V30 5659 H 531.23 -1.5923 1.06387 0
M  V30 5660 H 529.535 -3.91624 -0.117452 0
M  V30 5661 H 531.232 -4.00126 0.26454 0
M  V30 5662 H 527.822 -3.93586 1.69671 0
M  V30 5663 H 532.006 -4.20224 2.64056 0
M  V30 5664 H 527.262 -4.63655 3.9854 0
M  V30 5665 H 531.436 -4.91631 4.93226 0
M  V30 5666 H 529.063 -5.1303 5.60985 0
M  V30 5667 N 530.638 -0.59345 -1.46 0
M  V30 5668 C 531.568 0.121192 -2.33185 0
M  V30 5669 C 532.549 0.872977 -1.4599 0
M  V30 5670 O 533.734 0.846321 -1.74789 0
M  V30 5671 C 530.864 1.12844 -3.28456 0
M  V30 5672 C 529.818 0.4908 -4.25177 0
M  V30 5673 C 529.144 1.60529 -5.10034 0
M  V30 5674 C 530.444 -0.578949 -5.19081 0
M  V30 5675 H 532.138 -0.606767 -2.93187 0
M  V30 5676 H 529.684 -0.293242 -1.40983 0
M  V30 5677 H 531.637 1.63684 -3.88311 0
M  V30 5678 H 530.361 1.88681 -2.66584 0
M  V30 5679 H 529.02 0.00339328 -3.666 0
M  V30 5680 H 528.668 2.35359 -4.44539 0
M  V30 5681 H 528.368 1.18422 -5.75543 0
M  V30 5682 H 529.892 2.11623 -5.72755 0
M  V30 5683 H 531.306 -0.155199 -5.7309 0
M  V30 5684 H 529.703 -0.920947 -5.92991 0
M  V30 5685 H 530.773 -1.46109 -4.62364 0
M  V30 5686 N 532.116 1.54067 -0.331816 0
M  V30 5687 C 533.063 2.24623 0.530372 0
M  V30 5688 C 534.033 1.24009 1.10503 0
M  V30 5689 O 535.218 1.52712 1.14384 0
M  V30 5690 C 532.358 3.01374 1.68129 0
M  V30 5691 C 531.471 4.16821 1.13507 0
M  V30 5692 C 530.606 4.81085 2.25234 0
M  V30 5693 C 529.645 5.88621 1.67903 0
M  V30 5694 N 528.782 6.46713 2.73326 0
M  V30 5695 H 533.622 2.97898 -0.0778607 0
M  V30 5696 H 531.159 1.47014 -0.0501965 0
M  V30 5697 H 533.117 3.44125 2.35868 0
M  V30 5698 H 531.747 2.30419 2.26069 0
M  V30 5699 H 530.799 3.78796 0.348979 0
M  V30 5700 H 532.111 4.94203 0.675633 0
M  V30 5701 H 531.265 5.26846 3.00862 0
M  V30 5702 H 530.004 4.03102 2.74518 0
M  V30 5703 H 529.009 5.42254 0.907773 0
M  V30 5704 H 530.234 6.68506 1.19487 0
M  V30 5705 H 528.18 5.71599 3.21886 0
M  V30 5706 H 528.097 7.19532 2.3197 0
M  V30 5707 H 529.365 6.97129 3.48758 0
M  V30 5708 N 533.594 0.0601682 1.57485 0
M  V30 5709 C 534.542 -0.928899 2.13247 0
M  V30 5710 C 535.536 -1.31616 1.06647 0
M  V30 5711 O 536.742 -1.29476 1.25043 0
M  V30 5712 H 533.117 -0.317455 0.681708 0
M  V30 5713 H 535.088 -0.433566 2.95233 0
M  V30 5714 C 533.837 -2.19121 2.69965 0
M  V30 5715 H 533.16 -1.90204 3.51657 0
M  V30 5716 H 534.6 -2.86465 3.12592 0
M  V30 5717 C 533.059 -2.94195 1.64168 0
M  V30 5718 O 533.589 -3.87468 1.05978 0
M  V30 5719 N 531.795 -2.57089 1.35476 0
M  V30 5720 H 531.342 -1.81314 1.82984 0
M  V30 5721 H 531.3 -3.07624 0.649196 0
M  V30 5722 N 535.072 -1.5615 -0.213296 0
M  V30 5723 C 536.002 -1.96109 -1.26742 0
M  V30 5724 C 536.983 -0.830448 -1.48451 0
M  V30 5725 O 538.168 -1.09339 -1.60495 0
M  V30 5726 C 535.298 -2.28492 -2.61551 0
M  V30 5727 C 534.252 -3.44124 -2.54485 0
M  V30 5728 C 533.578 -3.62134 -3.93399 0
M  V30 5729 C 534.878 -4.78855 -2.08556 0
M  V30 5730 H 536.572 -2.84412 -0.935434 0
M  V30 5731 H 534.118 -1.36836 -0.44854 0
M  V30 5732 H 536.071 -2.55039 -3.3546 0
M  V30 5733 H 534.795 -1.37052 -2.96453 0
M  V30 5734 H 533.454 -3.17639 -1.83033 0
M  V30 5735 H 533.102 -2.68055 -4.25623 0
M  V30 5736 H 532.802 -4.39913 -3.89551 0
M  V30 5737 H 534.326 -3.91038 -4.68958 0
M  V30 5738 H 535.74 -5.04552 -2.72213 0
M  V30 5739 H 534.137 -5.59975 -2.1575 0
M  V30 5740 H 535.207 -4.73657 -1.03811 0
M  V30 5741 N 536.55 0.480323 -1.50102 0
M  V30 5742 C 537.796 1.23489 -1.60867 0
M  V30 5743 C 538.129 1.91809 -0.303827 0
M  V30 5744 O 537.404 1.81694 0.694092 0
M  V30 5745 C 537.687 2.28578 -2.78252 0
M  V30 5746 C 537.54 1.64624 -4.18592 0
M  V30 5747 C 538.859 3.2997 -2.91218 0
M  V30 5748 H 535.978 0.447605 -0.585507 0
M  V30 5749 H 538.62 0.530005 -1.82458 0
M  V30 5750 H 536.77 2.88697 -2.59974 0
M  V30 5751 H 538.442 1.08173 -4.48438 0
M  V30 5752 H 536.685 0.949645 -4.23278 0
M  V30 5753 H 537.356 2.40946 -4.96638 0
M  V30 5754 H 539.832 2.79864 -3.07921 0
M  V30 5755 H 538.708 4.00839 -3.74993 0
M  V30 5756 H 538.969 3.93541 -2.0144 0
M  V30 5757 N 538.028 1.39524 0.732853 0
M  V30 5758 C 538.991 1.38189 1.82857 0
M  V30 5759 C 539.991 0.278624 1.58368 0
M  V30 5760 O 541.181 0.536639 1.65728 0
M  V30 5761 C 538.313 1.15661 3.2068 0
M  V30 5762 H 539.506 2.35692 1.85444 0
M  V30 5763 H 537.059 1.2512 0.936728 0
M  V30 5764 H 537.794 0.188482 3.23752 0
M  V30 5765 H 537.579 1.95559 3.39852 0
M  V30 5766 H 539.069 1.17472 4.00737 0
M  V30 5767 N 539.506 -0.963266 1.24736 0
M  V30 5768 C 540.453 -2.05857 1.04363 0
M  V30 5769 C 541.423 -1.6604 -0.0444951 0
M  V30 5770 O 542.608 -1.90477 0.110999 0
M  V30 5771 C 539.748 -3.38745 0.659235 0
M  V30 5772 C 538.861 -3.9173 1.82131 0
M  V30 5773 C 537.996 -5.12906 1.38208 0
M  V30 5774 C 537.035 -5.58098 2.51382 0
M  V30 5775 N 536.172 -6.7049 2.08295 0
M  V30 5776 H 541.012 -2.22616 1.98107 0
M  V30 5777 H 538.549 -1.09103 0.986661 0
M  V30 5778 H 540.507 -4.15107 0.417371 0
M  V30 5779 H 539.137 -3.21898 -0.241201 0
M  V30 5780 H 538.189 -3.11966 2.17672 0
M  V30 5781 H 539.501 -4.21225 2.67153 0
M  V30 5782 H 538.655 -5.96657 1.09935 0
M  V30 5783 H 537.394 -4.85105 0.502456 0
M  V30 5784 H 536.399 -4.72917 2.80409 0
M  V30 5785 H 537.624 -5.87911 3.39909 0
M  V30 5786 H 535.57 -6.44416 1.22737 0
M  V30 5787 H 535.487 -6.99458 2.86869 0
M  V30 5788 H 536.755 -7.57672 1.83175 0
M  V30 5789 N 540.985 -1.06182 -1.16461 0
M  V30 5790 C 542.401 -0.785065 -1.38956 0
M  V30 5791 C 542.601 0.616103 -1.9185 0
M  V30 5792 O 541.657 1.37686 -2.11657 0
M  V30 5793 C 542.97 -1.84902 -2.37132 0
M  V30 5794 C 544.518 -1.8724 -2.50819 0
M  V30 5795 C 544.993 -2.92686 -3.52277 0
M  V30 5796 N 546.484 -2.91712 -3.59803 0
M  V30 5797 C 547.219 -3.69949 -4.38093 0
M  V30 5798 N 546.715 -4.58 -5.19815 0
M  V30 5799 N 548.508 -3.58346 -4.33064 0
M  V30 5800 H 540.659 -1.96569 -0.804634 0
M  V30 5801 H 542.922 -0.851747 -0.416211 0
M  V30 5802 H 542.628 -2.85518 -2.0536 0
M  V30 5803 H 542.502 -1.69908 -3.36766 0
M  V30 5804 H 544.889 -0.872827 -2.81897 0
M  V30 5805 H 544.97 -2.06311 -1.51226 0
M  V30 5806 H 544.614 -3.92835 -3.21937 0
M  V30 5807 H 544.544 -2.70864 -4.51598 0
M  V30 5808 H 547.035 -2.27876 -3.01464 0
M  V30 5809 H 547.348 -5.14357 -5.76764 0
M  V30 5810 H 545.693 -4.62056 -5.19162 0
M  V30 5811 H 548.884 -2.88943 -3.68279 0
M  V30 5812 H 549.057 -4.19563 -4.93833 0
M  V30 5813 N 542.463 1.3308 -0.844243 0
M  V30 5814 C 543.41 2.29104 -0.279323 0
M  V30 5815 C 544.38 1.54577 0.607882 0
M  V30 5816 O 545.565 1.8285 0.545009 0
M  V30 5817 C 542.705 3.40927 0.53508 0
M  V30 5818 C 541.818 4.30354 -0.376749 0
M  V30 5819 C 540.953 5.29297 0.449276 0
M  V30 5820 C 539.992 6.10365 -0.460606 0
M  V30 5821 N 539.129 7.01335 0.327612 0
M  V30 5822 H 543.969 2.76817 -1.10346 0
M  V30 5823 H 541.506 1.36203 -0.555611 0
M  V30 5824 H 543.464 4.04469 1.02278 0
M  V30 5825 H 542.094 2.94391 1.32414 0
M  V30 5826 H 541.146 3.67485 -0.982791 0
M  V30 5827 H 542.458 4.87067 -1.07549 0
M  V30 5828 H 541.612 5.98392 1.00058 0
M  V30 5829 H 540.351 4.73174 1.18143 0
M  V30 5830 H 539.356 5.40182 -1.02388 0
M  V30 5831 H 540.581 6.68571 -1.1912 0
M  V30 5832 H 538.527 6.47655 1.04305 0
M  V30 5833 H 538.444 7.55355 -0.3123 0
M  V30 5834 H 539.712 7.74731 0.86098 0
M  V30 5835 N 543.941 0.601185 1.45683 0
M  V30 5836 C 545.169 0.100054 2.06658 0
M  V30 5837 C 545.584 -1.21285 1.44691 0
M  V30 5838 O 544.941 -1.73735 0.558772 0
M  V30 5839 C 544.992 -0.0528579 3.61461 0
M  V30 5840 O 544.713 1.20809 4.21114 0
M  V30 5841 C 546.214 -0.586193 4.39407 0
M  V30 5842 H 543.434 0.065905 0.667756 0
M  V30 5843 H 545.978 0.827101 1.87028 0
M  V30 5844 H 544.133 -0.730203 3.80456 0
M  V30 5845 H 544.547 1.03368 5.14213 0
M  V30 5846 H 546.021 -0.642297 5.4825 0
M  V30 5847 H 546.498 -1.60713 4.0874 0
M  V30 5848 H 547.104 0.0568935 4.25262 0
M  V30 5849 N 545.419 -1.53889 0.339982 0
M  V30 5850 C 546.366 -2.24902 -0.518452 0
M  V30 5851 C 547.336 -1.24593 -1.09844 0
M  V30 5852 O 548.521 -1.53317 -1.13572 0
M  V30 5853 C 545.661 -3.02262 -1.66529 0
M  V30 5854 C 544.774 -4.17418 -1.11295 0
M  V30 5855 C 543.909 -4.82273 -2.2268 0
M  V30 5856 C 542.948 -5.89503 -1.6478 0
M  V30 5857 N 542.085 -6.48153 -2.69893 0
M  V30 5858 H 546.925 -2.97853 0.0936579 0
M  V30 5859 H 544.462 -1.46986 0.0579924 0
M  V30 5860 H 546.42 -3.45371 -2.3404 0
M  V30 5861 H 545.05 -2.31614 -2.24844 0
M  V30 5862 H 544.102 -3.78976 -0.328886 0
M  V30 5863 H 545.414 -4.94554 -0.649414 0
M  V30 5864 H 544.568 -5.28435 -2.98063 0
M  V30 5865 H 543.307 -4.04552 -2.72376 0
M  V30 5866 H 542.312 -5.42728 -0.879004 0
M  V30 5867 H 543.537 -6.6913 -1.1594 0
M  V30 5868 H 541.483 -5.73298 -3.1885 0
M  V30 5869 H 541.4 -7.20752 -2.28151 0
M  V30 5870 H 542.668 -6.98968 -3.45056 0
M  V30 5871 N 546.897 -0.0685191 -1.57451 0
M  V30 5872 C 548.174 0.642167 -1.84758 0
M  V30 5873 C 548.554 1.87991 -0.960344 0
M  V30 5874 O 547.902 2.28485 -0.0257894 0
M  V30 5875 C 548.112 0.982946 -3.34872 0
M  V30 5876 C 549.46 1.35784 -4.02303 0
M  V30 5877 O 550.484 1.07477 -3.39598 0
M  V30 5878 O 549.343 1.88681 -5.12895 0
M  V30 5879 H 546.437 0.318625 -0.763156 0
M  V30 5880 H 548.983 -0.0992015 -1.6941 0
M  V30 5881 H 547.755 0.10372 -3.91163 0
M  V30 5882 H 547.378 1.78119 -3.55471 0
M  V30 5883 N 548.375 1.56261 0.205012 0
M  V30 5884 C 549.305 1.96779 1.257 0
M  V30 5885 C 550.286 0.838309 1.48008 0
M  V30 5886 O 551.471 1.10189 1.59913 0
M  V30 5887 C 548.601 2.29876 2.60335 0
M  V30 5888 C 547.555 3.45469 2.52656 0
M  V30 5889 C 546.881 3.64215 3.91473 0
M  V30 5890 C 548.181 4.79954 2.06014 0
M  V30 5891 H 549.875 2.84904 0.920338 0
M  V30 5892 H 547.421 1.37072 0.441277 0
M  V30 5893 H 549.374 2.56814 3.34102 0
M  V30 5894 H 548.098 1.38622 2.95722 0
M  V30 5895 H 546.757 3.18605 1.81345 0
M  V30 5896 H 546.405 2.70309 4.24196 0
M  V30 5897 H 546.105 4.41973 3.87213 0
M  V30 5898 H 547.629 3.93519 4.66878 0
M  V30 5899 H 549.043 5.05989 2.69533 0
M  V30 5900 H 547.44 5.61111 2.12777 0
M  V30 5901 H 548.51 4.74201 1.01297 0
M  V30 5902 O 549.892 -0.350324 1.57655 0
M  V30 5903 H 550.583 -1.00029 1.65873 0
M  V30 END ATOM
M  V30 BEGIN BOND
M  V30 END BOND
M  V30 END CTAB
M  END
$$$$
