drugbank_target|Q56691 NADPH-flavin oxidoreductase (DB03247)
 OpenBabel12092120233D

  0  0  0     0  0            999 V3000
M  V30 BEGIN CTAB
M  V30 COUNTS 3671 3701 0 0 0
M  V30 BEGIN ATOM
M  V30 1 H -0.908 1.98254 -0.117106 0
M  V30 2 N 0 1.576 0 0
M  V30 3 C 0.933 2.03868 1.02534 0
M  V30 4 C 1.911 0.928543 1.3348 0
M  V30 5 O 3.095 1.19667 1.45644 0
M  V30 6 C 0.222 2.43627 2.35294 0
M  V30 7 C -0.732 3.65373 2.2001 0
M  V30 8 S 0.101 5.13292 1.52614 0
M  V30 9 C 1.257 5.56322 2.86805 0
M  V30 10 H 1.49 2.90518 0.631377 0
M  V30 11 H -0.977 1.52953 0.210867 0
M  V30 12 H 0.981 2.67203 3.11629 0
M  V30 13 H -0.358 1.57376 2.7183 0
M  V30 14 H -1.165 3.90944 3.18086 0
M  V30 15 H -1.563 3.418 1.51819 0
M  V30 16 H 0.729 5.58782 3.83104 0
M  V30 17 H 1.672 6.56266 2.65933 0
M  V30 18 H 2.08 4.83886 2.90714 0
M  V30 19 N 1.4781 -0.272755 1.55222 0
M  V30 20 C 2.4261 -1.35705 1.88909 0
M  V30 21 C 3.4201 -1.5112 0.765456 0
M  V30 22 O 4.6261 -1.52901 0.949802 0
M  V30 23 H 1.0011 -0.453868 0.59959 0
M  V30 24 H 2.9721 -1.04544 2.79487 0
M  V30 25 C 1.7211 -2.71049 2.17779 0
M  V30 26 H 1.0441 -2.59979 3.03728 0
M  V30 27 H 2.4841 -3.45858 2.45272 0
M  V30 28 C 0.9431 -3.22165 0.985473 0
M  V30 29 O 1.4731 -4.01096 0.220233 0
M  V30 30 N -0.3209 -2.7985 0.783108 0
M  V30 31 H -0.7739 -2.15775 1.40708 0
M  V30 32 H -0.8159 -3.14397 -0.0130392 0
M  V30 33 N 2.9562 -1.48159 -0.537278 0
M  V30 34 C 3.9042 -1.62573 -1.66352 0
M  V30 35 C 4.8982 -0.492366 -1.62087 0
M  V30 36 O 6.1042 -0.670847 -1.67032 0
M  V30 37 H 2.4792 -0.511992 -0.550789 0
M  V30 38 H 4.4502 -2.57176 -1.51337 0
M  V30 39 C 3.1992 -1.67583 -3.04649 0
M  V30 40 H 2.5222 -2.54151 -3.08622 0
M  V30 41 H 3.9622 -1.81713 -3.83088 0
M  V30 42 C 2.4212 -0.413039 -3.34358 0
M  V30 43 O 2.9512 0.477259 -3.98855 0
M  V30 44 N 1.1572 -0.286961 -2.8918 0
M  V30 45 H 0.7042 -1.01241 -2.36871 0
M  V30 46 H 0.6622 0.556963 -3.09427 0
M  V30 47 N 4.4343 0.785586 -1.36625 0
M  V30 48 C 5.6623 1.57448 -1.3423 0
M  V30 49 C 6.0773 1.88649 0.0755653 0
M  V30 50 O 5.4343 1.50414 1.03354 0
M  V30 51 C 5.4853 2.89316 -2.16745 0
M  V30 52 O 5.2063 2.59459 -3.53005 0
M  V30 53 C 6.7073 3.83606 -2.22174 0
M  V30 54 H 3.9273 0.488226 -0.4603 0
M  V30 55 H 6.4713 0.974733 -1.79775 0
M  V30 56 H 4.6263 3.4575 -1.74745 0
M  V30 57 H 5.0403 3.43804 -3.96105 0
M  V30 58 H 6.5143 4.73181 -2.8426 0
M  V30 59 H 6.9913 4.21734 -1.22627 0
M  V30 60 H 7.5973 3.33104 -2.64427 0
M  V30 61 N 5.9124 1.20967 1.01018 0
M  V30 62 C 7.1614 1.01796 1.74128 0
M  V30 63 C 7.4744 -0.449691 1.90361 0
M  V30 64 O 8.6804 -0.76068 2.60626 0
M  V30 65 C 7.1364 1.7727 3.13215 0
M  V30 66 C 6.7444 3.28171 3.04972 0
M  V30 67 C 8.4884 1.66489 3.90489 0
M  V30 68 C 6.3954 3.96156 4.39107 0
M  V30 69 H 5.3254 0.377276 0.652824 0
M  V30 70 H 7.9764 1.44651 1.12909 0
M  V30 71 H 6.3584 1.27205 3.75013 0
M  V30 72 H 7.5324 3.85499 2.52443 0
M  V30 73 H 5.8474 3.39437 2.41188 0
M  V30 74 H 8.4444 2.14617 4.89738 0
M  V30 75 H 8.7874 0.6222 4.11624 0
M  V30 76 H 9.3204 2.14003 3.35332 0
M  V30 77 H 6.0594 5.00604 4.23174 0
M  V30 78 H 5.5794 3.43617 4.91617 0
M  V30 79 H 7.2584 4.00774 5.07926 0
M  V30 80 N 7.3905 -1.2043 1.01659 0
M  V30 81 C 8.3005 -2.2689 0.596484 0
M  V30 82 C 9.3165 -1.70107 -0.36599 0
M  V30 83 O 10.4925 -2.00117 -0.226942 0
M  V30 84 C 7.5575 -3.4665 -0.0586659 0
M  V30 85 C 6.6185 -4.18662 0.949751 0
M  V30 86 C 5.8515 -5.32705 0.32577 0
M  V30 87 O 6.0745 -5.63656 -0.874509 0
M  V30 88 O 5.0085 -5.92803 1.04249 0
M  V30 89 H 8.8345 -2.65041 1.4828 0
M  V30 90 H 6.4195 -1.27048 0.786082 0
M  V30 91 H 8.3015 -4.19256 -0.424564 0
M  V30 92 H 6.9765 -3.10375 -0.91918 0
M  V30 93 H 5.8835 -3.48229 1.36702 0
M  V30 94 H 7.2165 -4.58878 1.78023 0
M  V30 95 N 8.8686 -0.792821 -1.36206 0
M  V30 96 C 10.0966 -0.378825 -2.03402 0
M  V30 97 C 10.5116 1.00586 -1.59774 0
M  V30 98 O 9.8686 1.64574 -0.788764 0
M  V30 99 C 9.9196 -0.43683 -3.58851 0
M  V30 100 O 9.6406 -1.76691 -4.00889 0
M  V30 101 C 11.1416 -0.0138943 -4.43298 0
M  V30 102 H 8.3616 -0.155673 -0.652692 0
M  V30 103 H 10.9056 -1.07261 -1.74113 0
M  V30 104 H 9.0606 0.208575 -3.86838 0
M  V30 105 H 9.4746 -1.72011 -4.95492 0
M  V30 106 H 10.9486 -0.105615 -5.51899 0
M  V30 107 H 11.4256 1.03915 -4.2673 0
M  V30 108 H 12.0316 -0.63192 -4.20579 0
M  V30 109 N 10.3467 1.47872 -0.545128 0
M  V30 110 C 11.5957 2.01695 -0.0145033 0
M  V30 111 C 11.9087 1.42609 1.33873 0
M  V30 112 O 13.1147 1.88021 1.95858 0
M  V30 113 C 11.5707 3.59892 0.0245068 0
M  V30 114 C 11.1787 4.27966 -1.32475 0
M  V30 115 C 12.9227 4.21507 0.50316 0
M  V30 116 C 10.8297 5.78136 -1.2455 0
M  V30 117 H 9.7597 0.753998 -0.00165172 0
M  V30 118 H 12.4107 1.69985 -0.691175 0
M  V30 119 H 10.7927 3.88509 0.766575 0
M  V30 120 H 11.9667 4.11003 -2.08357 0
M  V30 121 H 10.2817 3.78286 -1.74036 0
M  V30 122 H 12.8787 5.31538 0.580656 0
M  V30 123 H 13.2217 3.87855 1.51243 0
M  V30 124 H 13.7547 3.97376 -0.183681 0
M  V30 125 H 10.4937 6.16388 -2.23039 0
M  V30 126 H 10.0137 5.97469 -0.528282 0
M  V30 127 H 11.6927 6.40099 -0.942488 0
M  V30 128 N 11.8248 0.280983 1.55075 0
M  V30 129 C 12.7548 -0.597469 2.25727 0
M  V30 130 C 13.7358 -1.15417 1.24952 0
M  V30 131 O 14.9208 -1.18722 1.53684 0
M  V30 132 C 12.0508 -1.7789 2.98283 0
M  V30 133 C 11.0048 -1.35347 4.06036 0
M  V30 134 C 10.3308 -2.61846 4.66198 0
M  V30 135 C 11.6308 -0.499354 5.19907 0
M  V30 136 H 13.3248 -0.00824265 2.99399 0
M  V30 137 H 10.8708 -0.0025244 1.44 0
M  V30 138 H 12.8238 -2.39937 3.46422 0
M  V30 139 H 11.5478 -2.39405 2.22155 0
M  V30 140 H 10.2068 -0.756156 3.58717 0
M  V30 141 H 9.8548 -3.21632 3.86732 0
M  V30 142 H 9.5548 -2.3409 5.38958 0
M  V30 143 H 11.0788 -3.24732 5.1709 0
M  V30 144 H 12.4928 -1.02498 5.64063 0
M  V30 145 H 10.8898 -0.316424 5.99265 0
M  V30 146 H 11.9598 0.480459 4.82514 0
M  V30 147 N 13.3029 -1.57598 0.00835791 0
M  V30 148 C 14.2659 -2.07884 -0.965242 0
M  V30 149 C 15.2659 -0.989825 -1.26725 0
M  V30 150 O 16.4559 -1.25218 -1.21104 0
M  V30 151 C 13.5879 -2.52731 -2.28779 0
M  V30 152 H 14.7809 -2.95178 -0.530112 0
M  V30 153 H 12.3339 -1.54458 -0.239283 0
M  V30 154 H 13.0689 -1.68705 -2.76964 0
M  V30 155 H 12.8539 -3.32272 -2.08177 0
M  V30 156 H 14.3439 -2.91933 -2.98605 0
M  V30 157 N 14.781 0.264519 -1.55364 0
M  V30 158 C 15.731 1.32966 -1.85214 0
M  V30 159 C 16.715 1.44306 -0.711653 0
M  V30 160 O 17.907 1.47844 -0.973192 0
M  V30 161 C 15.036 2.68839 -2.13495 0
M  V30 162 C 14.122 2.61575 -3.33825 0
M  V30 163 N 14.513 2.23933 -4.53528 0
M  V30 164 C 12.811 2.92621 -3.36584 0
M  V30 165 C 13.512 2.26868 -5.35636 0
M  V30 166 N 12.488 2.65677 -4.74254 0
M  V30 167 H 16.29 1.02884 -2.75304 0
M  V30 168 H 13.804 0.473157 -1.55354 0
M  V30 169 H 15.801 3.45685 -2.33039 0
M  V30 170 H 14.461 2.99802 -1.24694 0
M  V30 171 H 15.472 1.95769 -4.79474 0
M  V30 172 H 12.149 3.2824 -2.58002 0
M  V30 173 H 13.539 2.00254 -6.41364 0
M  V30 174 N 16.2591 1.48442 0.529413 0
M  V30 175 C 17.6751 1.34575 0.858004 0
M  V30 176 C 17.8751 0.3572 1.98309 0
M  V30 177 O 16.9311 -0.221379 2.51528 0
M  V30 178 C 18.2441 2.74617 1.22499 0
M  V30 179 C 19.7921 2.83109 1.33484 0
M  V30 180 C 20.2671 4.23854 1.73526 0
M  V30 181 N 21.7581 4.2653 1.80628 0
M  V30 182 C 22.4931 5.32372 2.12997 0
M  V30 183 N 21.9891 6.48491 2.43786 0
M  V30 184 N 23.7821 5.19766 2.14008 0
M  V30 185 H 15.9331 2.1133 -0.212925 0
M  V30 186 H 18.1961 0.947439 -0.0326199 0
M  V30 187 H 17.9021 3.4852 0.471905 0
M  V30 188 H 17.7761 3.08177 2.17501 0
M  V30 189 H 20.1631 2.09462 2.0787 0
M  V30 190 H 20.2441 2.53168 0.366027 0
M  V30 191 H 19.8881 4.98018 0.997013 0
M  V30 192 H 19.8181 4.5124 2.71459 0
M  V30 193 H 22.3091 3.42772 1.59108 0
M  V30 194 H 22.6221 7.24993 2.67592 0
M  V30 195 H 20.9671 6.51765 2.41304 0
M  V30 196 H 24.1581 4.28066 1.89412 0
M  V30 197 H 24.3311 6.02354 2.38902 0
M  V30 198 N 17.7372 -0.778329 1.37039 0
M  V30 199 C 18.9622 -1.57248 1.35233 0
M  V30 200 C 19.3872 -1.87999 -0.0615568 0
M  V30 201 O 18.7452 -1.48734 -1.03672 0
M  V30 202 C 18.7932 -2.86353 2.19167 0
M  V30 203 O 17.8972 -3.80442 1.59178 0
M  V30 204 H 17.2382 -0.476569 0.462362 0
M  V30 205 H 19.7682 -0.963853 1.80474 0
M  V30 206 H 19.7782 -3.35519 2.32145 0
M  V30 207 H 18.4532 -2.63299 3.21942 0
M  V30 208 H 17.0302 -3.39067 1.55203 0
M  V30 209 N 19.2153 -1.21501 -1.00376 0
M  V30 210 C 20.4643 -1.02718 -1.73586 0
M  V30 211 C 20.7773 0.439589 -1.90596 0
M  V30 212 O 21.9833 0.746848 -2.61026 0
M  V30 213 C 20.4393 -1.78929 -3.1227 0
M  V30 214 C 20.0473 -3.29783 -3.03228 0
M  V30 215 C 21.7913 -1.68557 -3.89601 0
M  V30 216 C 19.6983 -3.98479 -4.36999 0
M  V30 217 H 18.6283 -0.380733 -0.650814 0
M  V30 218 H 21.2793 -1.45248 -1.1214 0
M  V30 219 H 19.6613 -1.29192 -3.74333 0
M  V30 220 H 20.8353 -3.86832 -2.50395 0
M  V30 221 H 19.1503 -3.40711 -2.39385 0
M  V30 222 H 21.7473 -2.17211 -4.88593 0
M  V30 223 H 22.0903 -0.644021 -4.11288 0
M  V30 224 H 22.6233 -2.15778 -3.34193 0
M  V30 225 H 19.3623 -5.02841 -4.20513 0
M  V30 226 H 18.8823 -3.46219 -4.89788 0
M  V30 227 H 20.5613 -4.03462 -5.05794 0
M  V30 228 N 20.6934 1.19889 -1.02296 0
M  V30 229 C 22.1094 1.41462 -0.738954 0
M  V30 230 C 22.3094 1.89721 0.678846 0
M  V30 231 O 21.3654 2.07016 1.4457 0
M  V30 232 C 22.6784 2.43083 -1.77005 0
M  V30 233 C 24.2264 2.5684 -1.78892 0
M  V30 234 C 24.7014 3.61709 -2.80945 0
M  V30 235 N 26.1924 3.69199 -2.79725 0
M  V30 236 C 26.9274 4.50019 -3.55345 0
M  V30 237 N 26.4234 5.34592 -4.40662 0
M  V30 238 N 28.2164 4.44612 -3.43914 0
M  V30 239 H 20.3674 0.868827 -1.93817 0
M  V30 240 H 22.6304 0.44399 -0.837602 0
M  V30 241 H 22.3364 2.14636 -2.78612 0
M  V30 242 H 22.2104 3.4217 -1.58744 0
M  V30 243 H 24.5974 2.84614 -0.779674 0
M  V30 244 H 24.6784 1.57927 -2.01228 0
M  V30 245 H 24.3224 3.34678 -3.82038 0
M  V30 246 H 24.2524 4.60259 -2.5587 0
M  V30 247 H 26.7434 3.08794 -2.17842 0
M  V30 248 H 27.0564 5.93363 -4.95116 0
M  V30 249 H 25.4014 5.34073 -4.44737 0
M  V30 250 H 28.5924 3.7758 -2.76679 0
M  V30 251 H 28.7654 5.0736 -4.031 0
M  V30 252 N 22.1715 0.800033 1.35784 0
M  V30 253 C 23.1185 0.203848 2.29898 0
M  V30 254 C 24.0885 -0.658375 1.52495 0
M  V30 255 O 25.2735 -0.604832 1.8096 0
M  V30 256 C 22.4135 -0.64688 3.38983 0
M  V30 257 C 21.5265 0.235054 4.3136 0
M  V30 258 C 20.6615 -0.623054 5.27533 0
M  V30 259 C 19.7005 0.259682 6.11549 0
M  V30 260 N 18.8375 -0.558019 6.99879 0
M  V30 261 H 23.6775 1.01186 2.80295 0
M  V30 262 H 21.2145 0.51053 1.37957 0
M  V30 263 H 23.1725 -1.15521 4.00887 0
M  V30 264 H 21.8025 -1.42021 2.89879 0
M  V30 265 H 20.8545 0.861438 3.70518 0
M  V30 266 H 22.1665 0.914768 4.9034 0
M  V30 267 H 21.3205 -1.19678 5.94779 0
M  V30 268 H 20.0595 -1.33636 4.69034 0
M  V30 269 H 19.0645 0.845726 5.43256 0
M  V30 270 H 20.2895 0.970748 6.72126 0
M  V30 271 H 18.2355 -1.25542 6.43875 0
M  V30 272 H 18.1525 0.0637872 7.55973 0
M  V30 273 H 19.4205 -1.11523 7.71481 0
M  V30 274 N 23.6496 -1.47581 0.552962 0
M  V30 275 C 24.8966 -2.02482 0.0273243 0
M  V30 276 C 25.2246 -1.42776 -1.32081 0
M  V30 277 O 24.4796 -0.571393 -1.87173 0
M  V30 278 C 24.7786 -3.57199 -0.119728 0
M  V30 279 C 24.4446 -4.35804 1.15697 0
M  V30 280 C 23.1066 -4.57 1.50681 0
M  V30 281 C 25.4586 -4.81167 2.00319 0
M  V30 282 C 22.7866 -5.20807 2.70142 0
M  V30 283 C 25.1386 -5.46293 3.18978 0
M  V30 284 C 23.8026 -5.65722 3.54281 0
M  V30 285 H 23.0726 -0.740933 0.00999866 0
M  V30 286 H 25.7196 -1.77302 0.72362 0
M  V30 287 H 24.0246 -3.81348 -0.89896 0
M  V30 288 H 25.7216 -3.97324 -0.541718 0
M  V30 289 H 22.3116 -4.19582 0.874561 0
M  V30 290 H 26.4956 -4.64574 1.74599 0
M  V30 291 H 21.7516 -5.34045 2.97668 0
M  V30 292 H 25.9256 -5.80407 3.84838 0
M  V30 293 H 23.5526 -6.14936 4.46942 0
M  V30 294 N 25.1277 -0.289203 -1.54924 0
M  V30 295 C 26.3557 0.326463 -2.04308 0
M  V30 296 C 26.7707 1.48413 -1.16701 0
M  V30 297 O 26.1277 1.81507 -0.190087 0
M  V30 298 C 26.1787 0.794014 -3.52672 0
M  V30 299 O 25.8997 -0.317564 -4.36948 0
M  V30 300 C 27.4007 1.47605 -4.18004 0
M  V30 301 H 24.6207 0.0726272 -0.667058 0
M  V30 302 H 27.1647 -0.425401 -2.00026 0
M  V30 303 H 25.3197 1.49593 -3.57352 0
M  V30 304 H 25.7337 0.0443186 -5.24481 0
M  V30 305 H 27.2077 1.75447 -5.23376 0
M  V30 306 H 27.6847 2.41224 -3.67025 0
M  V30 307 H 28.2907 0.81762 -4.17367 0
M  V30 308 N 26.6058 1.57591 -0.0167156 0
M  V30 309 C 27.5688 2.08393 0.954204 0
M  V30 310 C 28.5688 0.996531 1.26198 0
M  V30 311 O 29.7588 1.25858 1.20438 0
M  V30 312 C 26.8908 2.5394 2.27436 0
M  V30 313 H 28.0838 2.95455 0.514451 0
M  V30 314 H 25.6368 1.54582 0.231089 0
M  V30 315 H 26.3718 1.70171 2.76066 0
M  V30 316 H 26.1568 3.33371 2.06412 0
M  V30 317 H 27.6468 2.93512 2.97053 0
M  V30 318 N 28.0839 -0.256276 1.55502 0
M  V30 319 C 29.3299 -0.987079 1.77157 0
M  V30 320 C 29.6629 -1.85327 0.580315 0
M  V30 321 O 28.9379 -1.89874 -0.421686 0
M  V30 322 C 29.2209 -1.85553 3.08613 0
M  V30 323 C 29.0739 -1.01816 4.38125 0
M  V30 324 C 30.3929 -2.8397 3.36228 0
M  V30 325 H 27.5119 -0.357428 0.644526 0
M  V30 326 H 30.1539 -0.258239 1.88237 0
M  V30 327 H 28.3039 -2.47695 2.99298 0
M  V30 328 H 29.9759 -0.416159 4.59419 0
M  V30 329 H 28.2189 -0.322178 4.32602 0
M  V30 330 H 28.8899 -1.65939 5.26468 0
M  V30 331 H 31.3659 -2.31964 3.45445 0
M  V30 332 H 30.2419 -3.41864 4.29442 0
M  V30 333 H 30.5029 -3.59955 2.56681 0
M  V30 334 N 29.562 -1.4872 -0.521534 0
M  V30 335 C 30.973 -1.50607 -1.10337 0
M  V30 336 C 31.324 -0.280612 -1.94183 0
M  V30 337 O 30.449 0.611507 -2.0758 0
M  V30 338 C 31.044 -2.72903 -2.00772 0
M  V30 339 C 29.603 -2.77634 -2.54158 0
M  V30 340 C 28.75 -2.44241 -1.31307 0
M  V30 341 H 31.701 -1.55714 -0.306388 0
M  V30 342 H 31.722 -2.519 -2.85178 0
M  V30 343 H 31.234 -3.62077 -1.39721 0
M  V30 344 H 29.335 -1.92689 -3.18907 0
M  V30 345 H 29.448 -3.79283 -2.92714 0
M  V30 346 H 27.812 -1.95577 -1.63161 0
M  V30 347 H 28.595 -3.35666 -0.719943 0
M  V30 348 N 31.0401 0.771051 -1.3745 0
M  V30 349 C 32.2891 1.52491 -1.3202 0
M  V30 350 C 32.6021 1.9538 0.0927347 0
M  V30 351 O 33.8081 2.70159 0.269503 0
M  V30 352 C 32.2641 2.75366 -2.31736 0
M  V30 353 C 31.8721 2.39573 -3.78562 0
M  V30 354 C 33.6161 3.53307 -2.35318 0
M  V30 355 C 31.5231 3.58954 -4.70007 0
M  V30 356 H 30.4531 0.572506 -0.490666 0
M  V30 357 H 33.1041 0.844474 -1.62914 0
M  V30 358 H 31.4861 3.45303 -1.93861 0
M  V30 359 H 32.6601 1.77415 -4.25277 0
M  V30 360 H 30.9751 1.74805 -3.77932 0
M  V30 361 H 33.5721 4.42039 -3.00842 0
M  V30 362 H 33.9151 3.93217 -1.36698 0
M  V30 363 H 34.4481 2.90367 -2.71904 0
M  V30 364 H 31.1871 3.24125 -5.69757 0
M  V30 365 H 30.7071 4.20214 -4.27996 0
M  V30 366 H 32.3861 4.25758 -4.87175 0
M  V30 367 N 32.5182 1.22032 0.997298 0
M  V30 368 C 33.7462 1.06841 1.7718 0
M  V30 369 C 34.1612 -0.381325 1.84909 0
M  V30 370 O 33.5182 -1.26437 1.31605 0
M  V30 371 C 33.5692 1.66814 3.20711 0
M  V30 372 O 33.2902 3.06116 3.13408 0
M  V30 373 C 34.7912 1.56838 4.14628 0
M  V30 374 H 32.0112 0.374782 0.556578 0
M  V30 375 H 34.5552 1.61532 1.2541 0
M  V30 376 H 32.7102 1.16196 3.69564 0
M  V30 377 H 33.1242 3.34926 4.0364 0
M  V30 378 H 34.5982 2.03532 5.13107 0
M  V30 379 H 35.0752 0.524155 4.36061 0
M  V30 380 H 35.6812 2.06741 3.7167 0
M  V30 381 N 33.9963 -1.19345 1.0293 0
M  V30 382 C 35.2733 -1.84811 0.640642 0
M  V30 383 C 35.6533 -1.91855 -0.88062 0
M  V30 384 O 35.0013 -1.43587 -1.7775 0
M  V30 385 C 35.2113 -3.23755 1.30321 0
M  V30 386 C 36.5593 -3.99912 1.42673 0
M  V30 387 O 37.5833 -3.33155 1.26041 0
M  V30 388 O 36.4423 -5.19494 1.6967 0
M  V30 389 H 33.5363 -0.796443 0.222726 0
M  V30 390 H 36.0823 -1.26831 1.12748 0
M  V30 391 H 34.8543 -3.13466 2.34211 0
M  V30 392 H 34.4773 -3.89381 0.804261 0
M  V30 393 N 35.4744 -0.807222 -1.35358 0
M  V30 394 C 36.3844 -0.219594 -2.3357 0
M  V30 395 C 37.4004 0.637734 -1.61892 0
M  V30 396 O 38.5764 0.549336 -1.93763 0
M  V30 397 C 35.6414 0.62158 -3.41083 0
M  V30 398 C 34.7024 -0.256315 -4.28534 0
M  V30 399 C 33.9354 0.544807 -5.30912 0
M  V30 400 O 34.1584 1.77944 -5.41934 0
M  V30 401 O 33.0924 -0.0646478 -6.01865 0
M  V30 402 H 36.9184 -1.03208 -2.85625 0
M  V30 403 H 34.5034 -0.569025 -1.38139 0
M  V30 404 H 36.3854 1.10067 -4.06772 0
M  V30 405 H 35.0604 1.41165 -2.91297 0
M  V30 406 H 33.9674 -0.782559 -3.65823 0
M  V30 407 H 35.3004 -1.01034 -4.81719 0
M  V30 408 N 36.9525 1.47285 -0.560781 0
M  V30 409 C 37.8845 2.28118 0.222438 0
M  V30 410 C 38.8975 1.37219 0.876056 0
M  V30 411 O 40.0865 1.62011 0.749307 0
M  V30 412 C 37.1865 3.1159 1.33285 0
M  V30 413 C 36.3595 4.30473 0.77534 0
M  V30 414 C 35.4185 4.95513 1.77069 0
M  V30 415 O 34.4445 5.53792 1.31539 0
M  V30 416 N 35.6465 4.90531 3.10418 0
M  V30 417 H 38.4115 2.95976 -0.470958 0
M  V30 418 H 35.9725 1.56955 -0.39709 0
M  V30 419 H 37.9645 3.51967 1.99752 0
M  V30 420 H 36.5345 2.45951 1.92943 0
M  V30 421 H 35.7545 3.94144 -0.0662113 0
M  V30 422 H 37.0425 5.07362 0.382272 0
M  V30 423 H 36.4405 4.44389 3.5005 0
M  V30 424 H 34.9975 5.34917 3.72434 0
M  V30 425 N 38.4306 0.297415 1.54768 0
M  V30 426 C 39.8466 -0.0560823 1.59501 0
M  V30 427 C 40.0466 -1.52725 1.31444 0
M  V30 428 O 39.1026 -2.27947 1.08611 0
M  V30 429 C 40.4156 0.338631 2.98787 0
M  V30 430 C 41.9636 0.287097 3.11681 0
M  V30 431 C 42.4386 0.656579 4.53269 0
M  V30 432 N 43.9296 0.608977 4.59179 0
M  V30 433 C 44.6646 0.867385 5.66802 0
M  V30 434 N 44.1606 1.19157 6.82476 0
M  V30 435 N 45.9536 0.794687 5.56454 0
M  V30 436 H 38.1046 1.25624 1.71267 0
M  V30 437 H 40.3676 0.509057 0.799728 0
M  V30 438 H 40.0736 1.36263 3.2423 0
M  V30 439 H 39.9476 -0.309508 3.75928 0
M  V30 440 H 42.3346 -0.727649 2.85988 0
M  V30 441 H 42.4156 0.969809 2.36703 0
M  V30 442 H 42.0596 1.66912 4.7969 0
M  V30 443 H 41.9896 -0.0481649 5.26578 0
M  V30 444 H 44.4806 0.369198 3.76092 0
M  V30 445 H 44.7936 1.37482 7.60473 0
M  V30 446 H 43.1386 1.22958 6.84037 0
M  V30 447 H 46.3296 0.541098 4.64962 0
M  V30 448 H 46.5026 0.999445 6.40246 0
M  V30 449 N 39.9087 -1.5758 0.0250728 0
M  V30 450 C 40.8407 -2.06869 -0.986796 0
M  V30 451 C 41.8537 -0.991332 -1.29137 0
M  V30 452 O 43.0427 -1.26761 -1.25674 0
M  V30 453 C 40.1427 -2.47486 -2.31525 0
M  V30 454 C 39.3157 -3.78253 -2.19643 0
M  V30 455 C 38.3747 -4.05464 -3.35388 0
M  V30 456 O 37.4007 -4.75774 -3.12454 0
M  V30 457 N 38.6027 -3.55321 -4.59051 0
M  V30 458 H 41.3677 -2.94302 -0.566276 0
M  V30 459 H 38.9287 -1.6109 -0.161776 0
M  V30 460 H 40.9207 -2.62785 -3.07776 0
M  V30 461 H 39.4907 -1.65441 -2.65232 0
M  V30 462 H 38.7107 -3.7279 -1.28144 0
M  V30 463 H 39.9987 -4.63936 -2.08903 0
M  V30 464 H 39.3967 -2.98431 -4.80578 0
M  V30 465 H 37.9537 -3.75905 -5.32483 0
M  V30 466 N 41.3868 0.248026 -1.55636 0
M  V30 467 C 42.6148 0.993808 -1.81469 0
M  V30 468 C 43.0298 1.78991 -0.60064 0
M  V30 469 O 42.3868 1.77345 0.430682 0
M  V30 470 C 42.4378 1.93258 -3.05506 0
M  V30 471 O 42.1588 1.16869 -4.22224 0
M  V30 472 C 43.6598 2.79444 -3.4413 0
M  V30 473 H 40.8798 0.292486 -0.603898 0
M  V30 474 H 43.4238 0.271253 -2.02693 0
M  V30 475 H 41.5788 2.60943 -2.86335 0
M  V30 476 H 41.9928 1.80359 -4.92515 0
M  V30 477 H 43.4668 3.41066 -4.34026 0
M  V30 478 H 43.9438 3.50499 -2.64665 0
M  V30 479 H 44.5498 2.17214 -3.65648 0
M  V30 480 N 42.8649 1.48995 0.513639 0
M  V30 481 C 44.1139 1.57093 1.2651 0
M  V30 482 C 44.4269 0.257091 1.93903 0
M  V30 483 O 45.6329 0.216478 2.70636 0
M  V30 484 C 44.0889 2.77118 2.29638 0
M  V30 485 C 43.6969 4.15209 1.68241 0
M  V30 486 C 45.4409 2.94538 3.05692 0
M  V30 487 C 43.3479 5.26474 2.69406 0
M  V30 488 H 42.2779 0.584876 0.475854 0
M  V30 489 H 44.9289 1.7536 0.540487 0
M  V30 490 H 43.3109 2.52319 3.05207 0
M  V30 491 H 44.4849 4.50094 0.987505 0
M  V30 492 H 42.7999 4.03042 1.04623 0
M  V30 493 H 45.3969 3.74832 3.8132 0
M  V30 494 H 45.7399 2.04614 3.62545 0
M  V30 495 H 46.2729 3.19316 2.37238 0
M  V30 496 H 43.0119 6.18417 2.17351 0
M  V30 497 H 42.5319 4.96058 3.37175 0
M  V30 498 H 44.2109 5.55277 3.32078 0
M  V30 499 N 44.343 -0.763751 1.37857 0
M  V30 500 C 45.592 -1.51789 1.32827 0
M  V30 501 C 45.905 -1.95426 -0.0823719 0
M  V30 502 O 47.111 -2.70298 -0.255172 0
M  V30 503 C 45.567 -2.74133 2.33193 0
M  V30 504 C 45.175 -2.37562 3.79827 0
M  V30 505 C 46.919 -3.52054 2.37188 0
M  V30 506 C 44.826 -3.56456 4.71904 0
M  V30 507 H 43.756 -0.569896 0.493695 0
M  V30 508 H 46.407 -0.835822 1.63359 0
M  V30 509 H 44.789 -3.4427 1.9569 0
M  V30 510 H 45.963 -1.75157 4.26212 0
M  V30 511 H 44.278 -1.72798 3.78853 0
M  V30 512 H 46.875 -4.40437 3.03182 0
M  V30 513 H 47.218 -3.92486 1.38782 0
M  V30 514 H 47.751 -2.88921 2.7344 0
M  V30 515 H 44.49 -3.21099 5.71468 0
M  V30 516 H 44.01 -4.17938 4.30218 0
M  V30 517 H 45.689 -4.23168 4.89426 0
M  V30 518 N 45.8211 -1.22559 -0.990812 0
M  V30 519 C 46.7531 -0.955325 -2.08342 0
M  V30 520 C 47.7661 0.0668408 -1.62663 0
M  V30 521 O 48.9551 -0.167421 -1.77713 0
M  V30 522 C 46.0551 -0.415566 -3.36342 0
M  V30 523 C 45.2281 -1.49544 -4.11042 0
M  V30 524 C 44.2871 -0.962399 -5.17324 0
M  V30 525 O 43.3131 -1.64907 -5.44788 0
M  V30 526 N 44.5151 0.215134 -5.80101 0
M  V30 527 H 47.2801 -1.89596 -2.32106 0
M  V30 528 H 44.8411 -1.13276 -1.15673 0
M  V30 529 H 46.8331 -0.0442386 -4.04676 0
M  V30 530 H 45.4031 0.430232 -3.09625 0
M  V30 531 H 44.6231 -2.04 -3.37309 0
M  V30 532 H 45.9111 -2.22195 -4.57719 0
M  V30 533 H 45.3091 0.789779 -5.6016 0
M  V30 534 H 43.8661 0.527826 -6.49659 0
M  V30 535 N 47.2992 1.18797 -1.03562 0
M  V30 536 C 48.2622 2.20464 -0.626769 0
M  V30 537 C 49.2622 1.57721 0.313173 0
M  V30 538 O 50.4522 1.73917 0.0992615 0
M  V30 539 C 47.5842 3.40802 0.0818498 0
M  V30 540 H 48.7772 2.58149 -1.5264 0
M  V30 541 H 46.3302 1.32593 -0.827578 0
M  V30 542 H 47.0652 3.08642 0.995518 0
M  V30 543 H 46.8502 3.8758 -0.593652 0
M  V30 544 H 48.3402 4.16092 0.354584 0
M  V30 545 N 48.7773 0.814389 1.34928 0
M  V30 546 C 50.0253 0.397636 1.9815 0
M  V30 547 C 50.3463 -1.04069 1.64908 0
M  V30 548 O 49.6163 -1.72121 0.93548 0
M  V30 549 H 48.1963 0.144043 0.732981 0
M  V30 550 H 50.8583 1.04195 1.6471 0
M  V30 551 H 49.9543 0.509688 3.0791 0
M  V30 552 N 50.2554 -1.46986 0.568584 0
M  V30 553 C 51.1854 -2.32946 -0.160753 0
M  V30 554 C 52.1664 -1.44487 -0.897631 0
M  V30 555 O 53.3514 -1.73327 -0.875867 0
M  V30 556 C 50.4814 -3.26494 -1.18403 0
M  V30 557 C 49.4354 -4.24282 -0.562895 0
M  V30 558 C 48.7614 -5.07236 -1.69163 0
M  V30 559 C 50.0614 -5.19989 0.490761 0
M  V30 560 H 51.7554 -2.94175 0.556916 0
M  V30 561 H 49.3014 -1.4146 0.26927 0
M  V30 562 H 51.2544 -3.85477 -1.70251 0
M  V30 563 H 49.9784 -2.63343 -1.93179 0
M  V30 564 H 48.6374 -3.66541 -0.0656164 0
M  V30 565 H 48.2854 -4.4048 -2.42871 0
M  V30 566 H 47.9854 -5.7345 -1.28174 0
M  V30 567 H 49.5094 -5.6908 -2.21314 0
M  V30 568 H 50.9234 -5.73271 0.0579047 0
M  V30 569 H 49.3204 -5.94469 0.820165 0
M  V30 570 H 50.3904 -4.64777 1.3824 0
M  V30 571 N 51.7335 -0.305618 -1.54608 0
M  V30 572 C 52.6965 0.555591 -2.22364 0
M  V30 573 C 53.6965 1.05768 -1.21119 0
M  V30 574 O 54.8865 0.952972 -1.45822 0
M  V30 575 C 52.0185 1.76974 -2.91364 0
M  V30 576 H 53.2115 -0.0364572 -2.99878 0
M  V30 577 H 50.7645 -0.0565007 -1.56198 0
M  V30 578 H 51.4995 2.40151 -2.17941 0
M  V30 579 H 51.2845 1.41732 -3.65588 0
M  V30 580 H 52.7745 2.38148 -3.43038 0
M  V30 581 N 53.2116 1.57565 -0.0334293 0
M  V30 582 C 54.1746 2.09393 0.932048 0
M  V30 583 C 55.1746 1.00986 1.25134 0
M  V30 584 O 56.3646 1.27129 1.19096 0
M  V30 585 C 53.4966 2.56338 2.2473 0
M  V30 586 H 54.6896 2.95984 0.483085 0
M  V30 587 H 52.2426 1.54819 0.21468 0
M  V30 588 H 52.9776 1.7309 2.74245 0
M  V30 589 H 52.7626 3.35542 2.02865 0
M  V30 590 H 54.2526 2.96646 2.93923 0
M  V30 591 N 54.6897 -0.239769 1.55765 0
M  V30 592 C 55.9147 -0.988373 1.82335 0
M  V30 593 C 56.3397 -1.77886 0.611421 0
M  V30 594 O 55.6977 -1.75889 -0.439639 0
M  V30 595 C 55.7457 -1.89627 3.06715 0
M  V30 596 O 54.8497 -2.98904 2.84131 0
M  V30 597 H 54.1907 -0.280858 0.601677 0
M  V30 598 H 56.7207 -0.258597 2.02959 0
M  V30 599 H 56.7307 -2.30957 3.36338 0
M  V30 600 H 55.4057 -1.31511 3.9456 0
M  V30 601 H 53.9827 -2.61651 2.65694 0
M  V30 602 N 56.1678 -1.49265 -0.50573 0
M  V30 603 C 57.3928 -1.62478 -1.28902 0
M  V30 604 C 57.8178 -0.294332 -1.85783 0
M  V30 605 O 57.1758 0.737412 -1.65626 0
M  V30 606 C 57.2238 -2.69268 -2.39848 0
M  V30 607 O 56.3278 -2.28113 -3.43567 0
M  V30 608 H 55.6688 -0.54399 -0.380751 0
M  V30 609 H 58.1988 -1.95421 -0.605952 0
M  V30 610 H 58.2088 -2.91291 -2.85681 0
M  V30 611 H 56.8838 -3.65846 -1.97812 0
M  V30 612 H 55.4608 -2.16401 -3.03685 0
M  V30 613 N 57.6459 0.756429 -1.3826 0
M  V30 614 C 58.8709 1.55077 -1.37717 0
M  V30 615 C 59.2959 1.88073 0.03164 0
M  V30 616 O 58.6539 1.50364 1.01293 0
M  V30 617 C 58.7019 2.8283 -2.23695 0
M  V30 618 O 57.8059 3.77862 -1.6521 0
M  V30 619 H 57.1469 0.469152 -0.469885 0
M  V30 620 H 59.6769 0.935019 -1.81985 0
M  V30 621 H 59.6869 3.31783 -2.37453 0
M  V30 622 H 58.3619 2.58144 -3.2609 0
M  V30 623 H 56.9389 3.36555 -1.60578 0
M  V30 624 N 59.124 1.23083 0.984299 0
M  V30 625 C 60.349 1.088 1.76571 0
M  V30 626 C 60.774 -0.356657 1.84688 0
M  V30 627 O 60.132 -1.25788 1.30565 0
M  V30 628 C 60.18 1.71371 3.17277 0
M  V30 629 O 59.284 0.973213 4.00752 0
M  V30 630 H 58.625 0.381599 0.543395 0
M  V30 631 H 61.155 1.63057 1.23587 0
M  V30 632 H 61.165 1.76449 3.67872 0
M  V30 633 H 59.84 2.76493 3.10684 0
M  V30 634 H 58.417 0.999078 3.59267 0
M  V30 635 N 60.6021 -1.18246 1.0419 0
M  V30 636 C 61.5351 -2.20746 0.578474 0
M  V30 637 C 62.5131 -1.57912 -0.387624 0
M  V30 638 O 63.6971 -1.86071 -0.301634 0
M  V30 639 C 60.8241 -3.38346 -0.154762 0
M  V30 640 C 59.8701 -4.19587 0.764782 0
M  V30 641 S 60.7031 -4.86014 2.24835 0
M  V30 642 C 61.8591 -6.07012 1.526 0
M  V30 643 H 62.0921 -2.59715 1.44691 0
M  V30 644 H 59.6251 -1.287 0.85297 0
M  V30 645 H 61.5831 -4.065 -0.571641 0
M  V30 646 H 60.2441 -2.97786 -0.999105 0
M  V30 647 H 59.4371 -5.03611 0.197976 0
M  V30 648 H 59.0391 -3.56818 1.12057 0
M  V30 649 H 61.3311 -6.72523 0.819733 0
M  V30 650 H 62.2741 -6.68202 2.34333 0
M  V30 651 H 62.6821 -5.55249 1.01779 0
M  V30 652 N 62.0802 -0.821533 -1.34494 0
M  V30 653 C 63.0102 -0.257138 -2.3208 0
M  V30 654 C 63.9912 0.625645 -1.58176 0
M  V30 655 O 65.1762 0.552811 -1.86166 0
M  V30 656 C 62.3062 0.582958 -3.42372 0
M  V30 657 C 61.2602 -0.202571 -4.2752 0
M  V30 658 C 60.5862 0.760179 -5.29269 0
M  V30 659 C 61.8862 -1.40998 -5.02908 0
M  V30 660 H 63.5802 -1.07247 -2.79532 0
M  V30 661 H 61.1262 -0.517163 -1.34393 0
M  V30 662 H 63.0792 0.987972 -4.09655 0
M  V30 663 H 61.8032 1.43133 -2.93565 0
M  V30 664 H 60.4622 -0.588936 -3.61838 0
M  V30 665 H 60.1102 1.60447 -4.76724 0
M  V30 666 H 59.8102 0.238809 -5.87115 0
M  V30 667 H 61.3342 1.16308 -5.9942 0
M  V30 668 H 62.7482 -1.07905 -5.63054 0
M  V30 669 H 61.1452 -1.86689 -5.70322 0
M  V30 670 H 62.2152 -2.1889 -4.32684 0
M  V30 671 N 63.5583 1.46682 -0.576371 0
M  V30 672 C 64.4903 2.28341 0.198231 0
M  V30 673 C 65.5033 1.38141 0.861453 0
M  V30 674 O 66.6923 1.62797 0.732082 0
M  V30 675 C 63.7923 3.12986 1.29972 0
M  V30 676 C 62.9653 4.31271 0.729639 0
M  V30 677 C 62.0243 4.97363 1.71803 0
M  V30 678 O 61.0503 5.55156 1.25658 0
M  V30 679 N 62.2523 4.93796 3.05198 0
M  V30 680 H 65.0173 2.9546 -0.502324 0
M  V30 681 H 62.5783 1.56525 -0.413715 0
M  V30 682 H 64.5703 3.54066 1.96008 0
M  V30 683 H 63.1403 2.47984 1.90323 0
M  V30 684 H 62.3603 3.94052 -0.108012 0
M  V30 685 H 63.6483 5.07739 0.328438 0
M  V30 686 H 63.0463 4.48077 3.45317 0
M  V30 687 H 61.6033 5.38837 3.6674 0
M  V30 688 N 65.0364 0.313813 1.54444 0
M  V30 689 C 66.2824 -0.292108 2.00685 0
M  V30 690 C 66.6154 -1.52548 1.20177 0
M  V30 691 O 65.8904 -1.92452 0.281531 0
M  V30 692 C 66.1734 -0.635968 3.5444 0
M  V30 693 C 66.0264 0.607437 4.4568 0
M  V30 694 C 67.3454 -1.45747 4.15266 0
M  V30 695 H 64.4644 -0.104697 0.729526 0
M  V30 696 H 67.1064 0.428457 1.85106 0
M  V30 697 H 65.2564 -1.24986 3.67846 0
M  V30 698 H 66.9284 1.24581 4.44159 0
M  V30 699 H 65.1714 1.23822 4.15753 0
M  V30 700 H 65.8424 0.322515 5.51057 0
M  V30 701 H 68.3184 -0.938645 4.05375 0
M  V30 702 H 67.1944 -1.66683 5.2298 0
M  V30 703 H 67.4554 -2.45063 3.67963 0
M  V30 704 N 66.5145 -1.57545 0.0417849 0
M  V30 705 C 67.7605 -1.92601 -0.635021 0
M  V30 706 C 68.0935 -0.919627 -1.71045 0
M  V30 707 O 67.3685 0.0557892 -1.9442 0
M  V30 708 C 67.6515 -3.38085 -1.23979 0
M  V30 709 C 67.5045 -4.49467 -0.173057 0
M  V30 710 C 68.8235 -3.83776 -2.15416 0
M  V30 711 H 65.9425 -0.700397 -0.229374 0
M  V30 712 H 68.5845 -1.89728 0.101633 0
M  V30 713 H 66.7345 -3.40664 -1.86762 0
M  V30 714 H 68.4065 -4.59018 0.458312 0
M  V30 715 H 66.6495 -4.30909 0.499996 0
M  V30 716 H 67.3205 -5.48323 -0.636054 0
M  V30 717 H 69.7965 -3.83013 -1.62605 0
M  V30 718 H 68.6725 -4.8624 -2.54679 0
M  V30 719 H 68.9335 -3.19998 -3.05047 0
M  V30 720 N 67.9926 0.231505 -1.5589 0
M  V30 721 C 69.2176 0.978689 -1.82856 0
M  V30 722 C 69.6426 1.77559 -0.620846 0
M  V30 723 O 69.0006 1.76119 0.430305 0
M  V30 724 C 69.0486 1.87997 -3.07716 0
M  V30 725 O 68.1526 2.97393 -2.85712 0
M  V30 726 H 67.4936 0.277663 -0.603158 0
M  V30 727 H 70.0236 0.24783 -2.03093 0
M  V30 728 H 70.0336 2.2917 -3.37558 0
M  V30 729 H 68.7086 1.29417 -3.95252 0
M  V30 730 H 67.2856 2.60238 -2.67078 0
M  V30 731 N 69.4707 1.49531 0.497807 0
M  V30 732 C 70.7197 1.58426 1.24837 0
M  V30 733 C 71.0327 0.277643 1.93619 0
M  V30 734 O 72.2387 0.24517 2.70391 0
M  V30 735 C 70.6947 2.79538 2.26686 0
M  V30 736 C 70.3027 4.16971 1.63828 0
M  V30 737 C 72.0467 2.97764 3.0255 0
M  V30 738 C 69.9537 5.29301 2.63807 0
M  V30 739 H 68.8837 0.58989 0.469623 0
M  V30 740 H 71.5347 1.75923 0.521857 0
M  V30 741 H 69.9167 2.55542 3.02514 0
M  V30 742 H 71.0907 4.51116 0.939711 0
M  V30 743 H 69.4057 4.04129 1.00342 0
M  V30 744 H 72.0027 3.78856 3.77323 0
M  V30 745 H 72.3457 2.08448 3.60354 0
M  V30 746 H 72.8787 3.21815 2.33838 0
M  V30 747 H 69.6177 6.20687 2.10779 0
M  V30 748 H 69.1377 4.99606 3.31894 0
M  V30 749 H 70.8167 5.58768 3.2617 0
M  V30 750 N 70.9488 -0.749086 1.3866 0
M  V30 751 C 72.1948 -1.51056 1.35314 0
M  V30 752 C 72.5278 -1.94121 -0.0553751 0
M  V30 753 O 71.8028 -1.65763 -1.01749 0
M  V30 754 C 72.0858 -2.76003 2.31288 0
M  V30 755 C 71.9388 -2.39047 3.8102 0
M  V30 756 C 73.2578 -3.78046 2.2532 0
M  V30 757 H 70.3768 -0.547972 0.492844 0
M  V30 758 H 73.0188 -0.857628 1.69543 0
M  V30 759 H 71.1688 -3.31716 2.02229 0
M  V30 760 H 72.8408 -1.89074 4.20771 0
M  V30 761 H 71.0838 -1.71449 3.98482 0
M  V30 762 H 71.7548 -3.28462 4.4364 0
M  V30 763 H 74.2308 -3.31884 2.50983 0
M  V30 764 H 73.1068 -4.63159 2.94576 0
M  V30 765 H 73.3678 -4.23957 1.25352 0
M  V30 766 N 72.4269 -1.23603 -0.977757 0
M  V30 767 C 73.8429 -0.999251 -1.24447 0
M  V30 768 C 74.0429 0.298053 -1.99283 0
M  V30 769 O 73.0989 1.01681 -2.31122 0
M  V30 770 C 74.4119 -2.20784 -2.04144 0
M  V30 771 C 75.9599 -2.25303 -2.17273 0
M  V30 772 C 76.4349 -3.45755 -3.00362 0
M  V30 773 N 77.9259 -3.4601 -3.07947 0
M  V30 774 C 78.6609 -4.35868 -3.72568 0
M  V30 775 N 78.1569 -5.35966 -4.38991 0
M  V30 776 N 79.9499 -4.23605 -3.6948 0
M  V30 777 H 72.1009 -2.06986 -0.476483 0
M  V30 778 H 74.3639 -0.907801 -0.273134 0
M  V30 779 H 74.0699 -3.14945 -1.56533 0
M  V30 780 H 73.9439 -2.22085 -3.04891 0
M  V30 781 H 76.3309 -1.3168 -2.64092 0
M  V30 782 H 76.4119 -2.28033 -1.15907 0
M  V30 783 H 76.0559 -4.39687 -2.5424 0
M  V30 784 H 75.9859 -3.40266 -4.01904 0
M  V30 785 H 78.4769 -2.73588 -2.60688 0
M  V30 786 H 78.7899 -6.00783 -4.86086 0
M  V30 787 H 77.1349 -5.39863 -4.37691 0
M  V30 788 H 80.3259 -3.44647 -3.16759 0
M  V30 789 H 80.4989 -4.93836 -4.1956 0
M  V30 790 N 73.905 1.17692 -1.04816 0
M  V30 791 C 75.151 1.88137 -0.75711 0
M  V30 792 C 75.484 1.80604 0.713841 0
M  V30 793 O 74.759 1.21146 1.52164 0
M  V30 794 C 75.042 3.38318 -1.2334 0
M  V30 795 C 74.895 3.54622 -2.76701 0
M  V30 796 C 76.214 4.32214 -0.829415 0
M  V30 797 H 73.333 0.683163 -0.27651 0
M  V30 798 H 75.975 1.38424 -1.30149 0
M  V30 799 H 74.125 3.80787 -0.770286 0
M  V30 800 H 75.797 3.21194 -3.31107 0
M  V30 801 H 74.04 2.97026 -3.16161 0
M  V30 802 H 74.711 4.60028 -3.05088 0
M  V30 803 H 77.187 3.97565 -1.22805 0
M  V30 804 H 76.063 5.35838 -1.19033 0
M  V30 805 H 76.324 4.41294 0.266891 0
M  V30 806 N 75.3831 0.828654 1.34056 0
M  V30 807 C 76.6111 0.43262 2.02326 0
M  V30 808 C 77.0261 -0.963147 1.62385 0
M  V30 809 O 76.3831 -1.62425 0.832121 0
M  V30 810 C 76.4341 0.53182 3.57567 0
M  V30 811 O 76.1551 1.87258 3.96063 0
M  V30 812 C 77.6561 0.131422 4.43105 0
M  V30 813 H 74.8761 0.172923 0.648335 0
M  V30 814 H 77.4201 1.1184 1.71208 0
M  V30 815 H 75.5751 -0.105938 3.87255 0
M  V30 816 H 75.9891 1.85087 4.90758 0
M  V30 817 H 77.4631 0.251904 5.51425 0
M  V30 818 H 77.9401 -0.925645 4.29335 0
M  V30 819 H 78.5461 0.743207 4.18756 0
M  V30 820 N 76.8612 -1.46375 0.584142 0
M  V30 821 C 78.1382 -1.956 0.0033388 0
M  V30 822 C 78.5182 -1.52679 -1.45782 0
M  V30 823 O 77.8662 -0.77816 -2.14842 0
M  V30 824 C 78.0762 -3.48551 0.176891 0
M  V30 825 C 79.4242 -4.24576 0.0454609 0
M  V30 826 O 80.4482 -3.56043 0.105801 0
M  V30 827 O 79.3072 -5.46427 -0.0890376 0
M  V30 828 H 76.4012 -0.825547 -0.0490066 0
M  V30 829 H 78.9472 -1.56652 0.65256 0
M  V30 830 H 77.7192 -3.72683 1.1926 0
M  V30 831 H 77.3422 -3.94332 -0.508695 0
M  V30 832 N 78.3393 -0.321999 -1.54275 0
M  V30 833 C 79.5643 0.285791 -2.05422 0
M  V30 834 C 79.9893 1.45124 -1.19669 0
M  V30 835 O 79.3473 1.80132 -0.205441 0
M  V30 836 C 79.3953 0.69956 -3.53749 0
M  V30 837 O 78.4993 1.8021 -3.70942 0
M  V30 838 H 77.8403 0.0518962 -0.661969 0
M  V30 839 H 80.3703 -0.469954 -1.9913 0
M  V30 840 H 80.3803 0.982649 -3.9599 0
M  V30 841 H 79.0553 -0.152864 -4.15619 0
M  V30 842 H 77.6323 1.51794 -3.40607 0
M  V30 843 N 79.8174 1.5752 -0.0501392 0
M  V30 844 C 80.7274 2.14952 0.939827 0
M  V30 845 C 81.7434 1.10706 1.34239 0
M  V30 846 O 82.9194 1.42869 1.41952 0
M  V30 847 C 79.9844 2.68232 2.19665 0
M  V30 848 C 79.0454 3.87272 1.85253 0
M  V30 849 C 78.2784 4.38002 3.04943 0
M  V30 850 O 78.5014 3.87811 4.18281 0
M  V30 851 O 77.4354 5.29602 2.86017 0
M  V30 852 H 81.2614 2.9986 0.481392 0
M  V30 853 H 78.8464 1.4841 0.171699 0
M  V30 854 H 80.7284 3.02475 2.93406 0
M  V30 855 H 79.4034 1.86395 2.64648 0
M  V30 856 H 78.3104 3.5792 1.0883 0
M  V30 857 H 79.6434 4.70336 1.4507 0
M  V30 858 N 81.2955 -0.223234 1.56011 0
M  V30 859 C 82.2425 -1.27664 1.92277 0
M  V30 860 C 83.2125 -1.46659 0.779763 0
M  V30 861 O 84.3975 -1.60256 1.03551 0
M  V30 862 C 81.5375 -2.62234 2.24338 0
M  V30 863 C 80.6505 -2.51051 3.51564 0
M  V30 864 C 79.7855 -3.78133 3.7308 0
M  V30 865 C 78.8245 -3.61665 4.93827 0
M  V30 866 N 77.9615 -4.80693 5.11741 0
M  V30 867 H 82.8015 -0.960358 2.82101 0
M  V30 868 H 80.3385 -0.462901 1.39627 0
M  V30 869 H 82.2965 -3.40596 2.40936 0
M  V30 870 H 80.9265 -2.91961 1.3769 0
M  V30 871 H 79.9785 -1.64132 3.43169 0
M  V30 872 H 81.2905 -2.34803 4.40079 0
M  V30 873 H 80.4445 -4.64938 3.89766 0
M  V30 874 H 79.1835 -3.97304 2.82844 0
M  V30 875 H 78.1885 -2.73244 4.77093 0
M  V30 876 H 79.4135 -3.43966 5.85546 0
M  V30 877 H 77.3595 -5.00181 4.24446 0
M  V30 878 H 77.2765 -4.67165 5.94384 0
M  V30 879 H 78.5445 -5.6893 5.3286 0
M  V30 880 N 82.7736 -1.49793 -0.48987 0
M  V30 881 C 84.1896 -1.36803 -0.822022 0
M  V30 882 C 84.3896 -0.409652 -1.97292 0
M  V30 883 O 83.4456 0.154614 -2.52026 0
M  V30 884 C 84.7586 -2.77768 -1.15175 0
M  V30 885 C 86.3066 -2.86549 -1.25931 0
M  V30 886 C 86.7816 -4.28306 -1.62228 0
M  V30 887 N 88.2726 -4.31169 -1.69256 0
M  V30 888 C 89.0076 -5.37832 -1.98807 0
M  V30 889 N 88.5036 -6.54726 -2.26507 0
M  V30 890 N 90.2966 -5.25258 -2.00152 0
M  V30 891 H 82.4476 -2.10691 0.268881 0
M  V30 892 H 84.7106 -0.946241 0.057728 0
M  V30 893 H 84.4166 -3.49648 -0.379335 0
M  V30 894 H 84.2906 -3.13836 -2.09253 0
M  V30 895 H 86.6776 -2.14899 -2.02243 0
M  V30 896 H 86.7586 -2.54049 -0.298776 0
M  V30 897 H 86.4026 -5.00486 -0.864622 0
M  V30 898 H 86.3326 -4.58279 -2.594 0
M  V30 899 H 88.8236 -3.4687 -1.49965 0
M  V30 900 H 89.1366 -7.31833 -2.48276 0
M  V30 901 H 87.4816 -6.57933 -2.23939 0
M  V30 902 H 90.6726 -4.32938 -1.77996 0
M  V30 903 H 90.8456 -6.08476 -2.22848 0
M  V30 904 N 84.2517 0.741722 -1.39055 0
M  V30 905 C 85.1997 1.87702 -1.3737 0
M  V30 906 C 86.1937 1.67427 -0.257812 0
M  V30 907 O 87.3997 1.7485 -0.427489 0
M  V30 908 H 83.7747 0.617757 -0.428812 0
M  V30 909 H 85.7457 1.86239 -2.33147 0
M  V30 910 C 84.4947 3.25315 -1.22741 0
M  V30 911 H 83.8177 3.41509 -2.07873 0
M  V30 912 H 85.2577 4.04964 -1.25618 0
M  V30 913 C 83.7167 3.36838 0.0647316 0
M  V30 914 O 84.2467 3.88073 1.03741 0
M  V30 915 N 82.4527 2.90329 0.125544 0
M  V30 916 H 81.9997 2.48823 -0.666682 0
M  V30 917 H 81.9577 2.98418 0.989639 0
M  V30 918 N 85.7298 1.2412 0.971189 0
M  V30 919 C 86.6398 1.04747 2.09917 0
M  V30 920 C 87.6558 -0.0107162 1.73997 0
M  V30 921 O 88.8318 0.186714 2.00533 0
M  V30 922 C 85.8968 0.650828 3.40537 0
M  V30 923 C 84.9578 1.7851 3.90426 0
M  V30 924 C 84.1908 1.40729 5.14812 0
M  V30 925 O 84.4138 0.29557 5.69634 0
M  V30 926 O 83.3478 2.23168 5.58999 0
M  V30 927 H 87.1738 1.99304 2.29154 0
M  V30 928 H 84.7588 1.02908 1.08307 0
M  V30 929 H 86.6408 0.440992 4.19086 0
M  V30 930 H 85.3158 -0.265649 3.22608 0
M  V30 931 H 84.2228 2.04966 3.12953 0
M  V30 932 H 85.5558 2.68023 4.12825 0
M  V30 933 N 87.2079 -1.17134 1.05439 0
M  V30 934 C 88.1379 -2.2342 0.678649 0
M  V30 935 C 89.1189 -1.66971 -0.32476 0
M  V30 936 O 90.3039 -1.93149 -0.201802 0
M  V30 937 C 87.4339 -3.47256 0.0552099 0
M  V30 938 C 86.3879 -4.16543 0.98365 0
M  V30 939 C 85.7139 -5.34231 0.223961 0
M  V30 940 C 87.0139 -4.68495 2.3089 0
M  V30 941 H 88.7079 -2.55105 1.56722 0
M  V30 942 H 86.2539 -1.2262 0.754998 0
M  V30 943 H 88.2069 -4.20828 -0.21946 0
M  V30 944 H 86.9309 -3.14846 -0.868319 0
M  V30 945 H 85.5899 -3.44887 1.24293 0
M  V30 946 H 85.2379 -4.98071 -0.702412 0
M  V30 947 H 84.9379 -5.81527 0.842627 0
M  V30 948 H 86.4619 -6.10585 -0.0433671 0
M  V30 949 H 87.8759 -5.33691 2.09396 0
M  V30 950 H 86.2729 -5.26379 2.88176 0
M  V30 951 H 87.3429 -3.85169 2.94572 0
M  V30 952 N 88.686 -0.835752 -1.33615 0
M  V30 953 C 89.649 -0.272 -2.2758 0
M  V30 954 C 90.649 0.557487 -1.50827 0
M  V30 955 O 91.839 0.37173 -1.70188 0
M  V30 956 C 88.971 0.617173 -3.35267 0
M  V30 957 H 90.164 -1.10111 -2.78954 0
M  V30 958 H 87.717 -0.608594 -1.43965 0
M  V30 959 H 88.452 1.46884 -2.89129 0
M  V30 960 H 88.237 0.0237066 -3.92093 0
M  V30 961 H 89.727 1.005 -4.05326 0
M  V30 962 N 90.1641 1.46063 -0.591896 0
M  V30 963 C 91.0961 2.28539 0.174001 0
M  V30 964 C 92.1091 1.39047 0.846753 0
M  V30 965 O 93.2981 1.63564 0.714774 0
M  V30 966 C 90.3981 3.14347 1.26645 0
M  V30 967 C 89.5711 4.32021 0.683856 0
M  V30 968 C 88.6301 4.99157 1.66518 0
M  V30 969 O 87.6561 5.56458 1.19763 0
M  V30 970 N 88.8581 4.97005 2.99943 0
M  V30 971 H 91.6231 2.94911 -0.533633 0
M  V30 972 H 89.1841 1.56077 -0.430294 0
M  V30 973 H 91.1761 3.56125 1.92242 0
M  V30 974 H 89.7461 2.49988 1.87682 0
M  V30 975 H 88.9661 3.93915 -0.1498 0
M  V30 976 H 90.2541 5.08059 0.274567 0
M  V30 977 H 89.6521 4.51714 3.40545 0
M  V30 978 H 88.2091 5.42696 3.61004 0
M  V30 979 N 91.6422 0.330177 1.54103 0
M  V30 980 C 92.8892 -0.270405 2.00686 0
M  V30 981 C 93.2172 -1.51621 1.21825 0
M  V30 982 O 92.4722 -1.93536 0.29025 0
M  V30 983 C 92.7712 -0.643134 3.51566 0
M  V30 984 C 92.4372 0.504251 4.48072 0
M  V30 985 C 91.0992 0.819163 4.74176 0
M  V30 986 C 93.4512 1.27465 5.05373 0
M  V30 987 C 90.7792 1.90708 5.5484 0
M  V30 988 C 93.1312 2.35271 5.87223 0
M  V30 989 C 91.7952 2.67336 6.11627 0
M  V30 990 H 91.0652 -0.0989482 0.734364 0
M  V30 991 H 93.7122 0.455324 1.86008 0
M  V30 992 H 92.0172 -1.44938 3.64006 0
M  V30 993 H 93.7142 -1.11949 3.85056 0
M  V30 994 H 90.3042 0.248733 4.27878 0
M  V30 995 H 94.4882 1.04462 4.85182 0
M  V30 996 H 89.7442 2.15991 5.71977 0
M  V30 997 H 93.9182 2.95405 6.30641 0
M  V30 998 H 91.5452 3.51763 6.73919 0
M  V30 999 N 93.1203 -1.57491 0.0584922 0
M  V30 1000 C 94.0833 -2.1085 -0.898617 0
M  V30 1001 C 95.0833 -1.02964 -1.23511 0
M  V30 1002 O 96.2733 -1.29007 -1.17059 0
M  V30 1003 C 93.4053 -2.59881 -2.20623 0
M  V30 1004 H 94.5983 -2.96715 -0.435936 0
M  V30 1005 H 92.1513 -1.55141 -0.190023 0
M  V30 1006 H 92.8863 -1.77431 -2.71457 0
M  V30 1007 H 92.6713 -3.38727 -1.97501 0
M  V30 1008 H 94.1613 -3.01285 -2.89166 0
M  V30 1009 N 94.5984 0.214957 -1.56127 0
M  V30 1010 C 95.8464 0.936518 -1.79091 0
M  V30 1011 C 96.1674 1.84606 -0.628148 0
M  V30 1012 O 95.4374 1.92664 0.35462 0
M  V30 1013 H 94.0174 0.3488 -0.660566 0
M  V30 1014 H 96.6794 0.22523 -1.93594 0
M  V30 1015 H 95.7754 1.53943 -2.71492 0
M  V30 1016 N 96.0765 1.50051 0.48192 0
M  V30 1017 C 97.0245 1.68635 1.60203 0
M  V30 1018 C 98.0185 0.552184 1.60148 0
M  V30 1019 O 99.2245 0.732377 1.64427 0
M  V30 1020 H 95.5995 0.532081 0.531407 0
M  V30 1021 H 97.5705 2.62616 1.41688 0
M  V30 1022 C 96.3195 1.78775 2.9822 0
M  V30 1023 H 95.6425 2.6543 2.98976 0
M  V30 1024 H 97.0825 1.95806 3.7608 0
M  V30 1025 C 95.5415 0.536849 3.32595 0
M  V30 1026 O 96.0715 -0.328897 4.00351 0
M  V30 1027 N 94.2775 0.394091 2.87915 0
M  V30 1028 H 93.8245 1.09962 2.32951 0
M  V30 1029 H 93.7825 -0.441737 3.11281 0
M  V30 1030 N 97.5546 -0.734337 1.39446 0
M  V30 1031 C 98.4866 -1.85861 1.34121 0
M  V30 1032 C 99.4996 -1.60871 0.249864 0
M  V30 1033 O 100.689 -1.71093 0.508865 0
M  V30 1034 C 97.7886 -3.21899 1.05991 0
M  V30 1035 C 96.9616 -3.74239 2.26415 0
M  V30 1036 C 96.0206 -4.88841 1.94733 0
M  V30 1037 O 95.0466 -5.02468 2.67422 0
M  V30 1038 N 96.2486 -5.73261 0.913884 0
M  V30 1039 H 99.0136 -1.90934 2.31007 0
M  V30 1040 H 96.5746 -0.915102 1.33557 0
M  V30 1041 H 98.5666 -3.96136 0.828147 0
M  V30 1042 H 97.1366 -3.12091 0.178361 0
M  V30 1043 H 96.3566 -2.91347 2.65539 0
M  V30 1044 H 97.6446 -4.05942 3.06738 0
M  V30 1045 H 97.0426 -5.64842 0.311476 0
M  V30 1046 H 95.5996 -6.47563 0.742015 0
M  V30 1047 N 99.0327 -1.24633 -0.964593 0
M  V30 1048 C 99.9957 -1.0424 -2.04124 0
M  V30 1049 C 100.996 0.00137563 -1.608 0
M  V30 1050 O 102.186 -0.239883 -1.7254 0
M  V30 1051 C 99.3177 -0.580588 -3.3592 0
M  V30 1052 H 100.511 -1.99803 -2.23649 0
M  V30 1053 H 98.0637 -1.06899 -1.14027 0
M  V30 1054 H 98.7987 0.3781 -3.22088 0
M  V30 1055 H 98.5837 -1.33398 -3.6871 0
M  V30 1056 H 100.074 -0.459034 -4.15069 0
M  V30 1057 N 100.511 1.16574 -1.06058 0
M  V30 1058 C 101.741 1.90675 -0.795397 0
M  V30 1059 C 102.149 1.77547 0.653735 0
M  V30 1060 O 101.492 1.11611 1.45907 0
M  V30 1061 C 101.554 3.42011 -1.10764 0
M  V30 1062 C 101.218 3.78924 -2.55471 0
M  V30 1063 C 102.215 3.81042 -3.53699 0
M  V30 1064 C 99.8998 4.09626 -2.90708 0
M  V30 1065 C 101.894 4.13346 -4.85205 0
M  V30 1066 C 99.5808 4.41597 -4.22416 0
M  V30 1067 C 100.579 4.43436 -5.19474 0
M  V30 1068 O 100.267 4.74649 -6.48817 0
M  V30 1069 H 99.9988 0.611554 -0.288058 0
M  V30 1070 H 102.553 1.48711 -1.41683 0
M  V30 1071 H 100.783 3.84312 -0.429128 0
M  V30 1072 H 102.472 3.97384 -0.827077 0
M  V30 1073 H 103.238 3.57437 -3.27817 0
M  V30 1074 H 99.1168 4.07361 -2.15819 0
M  V30 1075 H 102.661 4.14696 -5.60957 0
M  V30 1076 H 98.5578 4.64667 -4.48056 0
M  V30 1077 H 99.3258 4.9247 -6.5377 0
M  V30 1078 N 101.989 0.842826 1.3317 0
M  V30 1079 C 103.235 0.441099 1.97945 0
M  V30 1080 C 103.568 -0.998024 1.66593 0
M  V30 1081 O 102.843 -1.69839 0.947898 0
M  V30 1082 C 103.126 0.666841 3.53872 0
M  V30 1083 C 102.979 2.15352 3.94897 0
M  V30 1084 C 104.298 0.115544 4.39948 0
M  V30 1085 H 101.417 0.161739 0.719034 0
M  V30 1086 H 104.059 1.05907 1.57746 0
M  V30 1087 H 102.209 0.140828 3.88245 0
M  V30 1088 H 103.881 2.7447 3.70761 0
M  V30 1089 H 102.124 2.63653 3.44484 0
M  V30 1090 H 102.795 2.26221 5.03516 0
M  V30 1091 H 105.271 0.565213 4.12243 0
M  V30 1092 H 104.147 0.303152 5.48062 0
M  V30 1093 H 104.408 -0.980935 4.3108 0
M  V30 1094 N 103.467 -1.45747 0.599634 0
M  V30 1095 C 104.377 -2.34262 -0.125888 0
M  V30 1096 C 105.393 -1.50768 -0.868625 0
M  V30 1097 O 106.569 -1.83592 -0.828003 0
M  V30 1098 C 103.634 -3.28252 -1.11587 0
M  V30 1099 C 102.695 -4.27651 -0.375956 0
M  V30 1100 C 101.928 -5.1715 -1.31877 0
M  V30 1101 O 102.151 -5.09916 -2.55621 0
M  V30 1102 O 101.085 -5.96286 -0.820157 0
M  V30 1103 H 104.911 -2.97688 0.601315 0
M  V30 1104 H 102.496 -1.44999 0.359934 0
M  V30 1105 H 104.378 -3.86191 -1.68626 0
M  V30 1106 H 103.053 -2.67401 -1.82424 0
M  V30 1107 H 101.96 -3.7335 0.236698 0
M  V30 1108 H 103.293 -4.91334 0.29177 0
M  V30 1109 N 104.945 -0.338344 -1.53925 0
M  V30 1110 C 106.17 0.263987 -2.05713 0
M  V30 1111 C 106.595 1.43847 -1.21201 0
M  V30 1112 O 105.953 1.79904 -0.224535 0
M  V30 1113 C 106.001 0.662 -3.54471 0
M  V30 1114 O 105.105 1.76265 -3.72833 0
M  V30 1115 H 104.446 0.0448722 -0.662482 0
M  V30 1116 H 106.976 -0.491048 -1.9862 0
M  V30 1117 H 106.986 0.940594 -3.9701 0
M  V30 1118 H 105.661 -0.196937 -4.15433 0
M  V30 1119 H 104.238 1.48173 -3.42198 0
M  V30 1120 N 106.423 1.57458 -0.0668435 0
M  V30 1121 C 107.386 2.11323 0.887422 0
M  V30 1122 C 108.386 1.03618 1.22964 0
M  V30 1123 O 109.576 1.29626 1.16373 0
M  V30 1124 C 106.708 2.61048 2.19242 0
M  V30 1125 H 107.901 2.96942 0.420194 0
M  V30 1126 H 105.454 1.55239 0.181793 0
M  V30 1127 H 106.189 1.78868 2.70512 0
M  V30 1128 H 105.974 3.39769 1.95702 0
M  V30 1129 H 107.464 3.02814 2.87565 0
M  V30 1130 N 107.901 -0.206675 1.56239 0
M  V30 1131 C 108.864 -1.23976 1.92776 0
M  V30 1132 C 109.864 -1.39041 0.807729 0
M  V30 1133 O 111.054 -1.37051 1.0753 0
M  V30 1134 C 108.186 -2.61112 2.19165 0
M  V30 1135 H 109.379 -0.927764 2.85189 0
M  V30 1136 H 106.932 -0.447718 1.4975 0
M  V30 1137 H 107.667 -2.97386 1.29352 0
M  V30 1138 H 107.452 -2.51552 3.00772 0
M  V30 1139 H 108.942 -3.35633 2.48476 0
M  V30 1140 N 109.379 -1.50304 -0.473955 0
M  V30 1141 C 110.289 -1.7174 -1.5982 0
M  V30 1142 C 111.305 -0.600457 -1.63311 0
M  V30 1143 O 112.481 -0.878441 -1.81233 0
M  V30 1144 C 109.546 -1.80427 -2.96052 0
M  V30 1145 C 108.607 -3.04148 -3.02972 0
M  V30 1146 C 107.84 -3.12411 -4.32706 0
M  V30 1147 O 108.063 -2.27542 -5.23049 0
M  V30 1148 O 106.997 -4.05113 -4.45159 0
M  V30 1149 H 110.823 -2.67035 -1.44657 0
M  V30 1150 H 108.408 -1.34366 -0.653148 0
M  V30 1151 H 110.29 -1.88338 -3.7697 0
M  V30 1152 H 108.965 -0.883156 -3.11419 0
M  V30 1153 H 107.872 -3.0174 -2.21142 0
M  V30 1154 H 109.205 -3.95829 -2.92541 0
M  V30 1155 N 110.857 0.726932 -1.39834 0
M  V30 1156 C 112.104 1.48664 -1.37496 0
M  V30 1157 C 112.432 1.94482 0.0264678 0
M  V30 1158 O 111.687 1.67692 1.00886 0
M  V30 1159 C 111.986 2.73495 -2.30077 0
M  V30 1160 C 111.652 2.46502 -3.77555 0
M  V30 1161 C 110.314 2.3885 -4.17737 0
M  V30 1162 C 112.666 2.23604 -4.70798 0
M  V30 1163 C 109.994 2.06352 -5.49214 0
M  V30 1164 C 112.346 1.92622 -6.02561 0
M  V30 1165 C 111.01 1.83444 -6.41798 0
M  V30 1166 H 110.28 0.544001 -0.503135 0
M  V30 1167 H 112.927 0.833657 -1.72402 0
M  V30 1168 H 111.232 3.43575 -1.88317 0
M  V30 1169 H 112.929 3.31549 -2.25558 0
M  V30 1170 H 109.519 2.5334 -3.45712 0
M  V30 1171 H 113.703 2.28479 -4.40581 0
M  V30 1172 H 108.959 1.97776 -5.78528 0
M  V30 1173 H 113.133 1.73914 -6.74334 0
M  V30 1174 H 110.76 1.58029 -7.43593 0
M  V30 1175 N 112.336 1.25143 0.95797 0
M  V30 1176 C 113.266 1.07711 2.07173 0
M  V30 1177 C 114.247 -0.0128462 1.70095 0
M  V30 1178 O 115.432 0.156061 1.93572 0
M  V30 1179 C 112.562 0.691503 3.40346 0
M  V30 1180 C 111.516 1.73132 3.9142 0
M  V30 1181 C 110.842 1.20049 5.21049 0
M  V30 1182 C 112.142 3.1294 4.1817 0
M  V30 1183 H 113.836 2.00873 2.22014 0
M  V30 1184 H 111.382 0.967191 1.06684 0
M  V30 1185 H 113.335 0.556505 4.17709 0
M  V30 1186 H 112.059 -0.275819 3.25433 0
M  V30 1187 H 110.718 1.8547 3.16222 0
M  V30 1188 H 110.366 0.223499 5.02503 0
M  V30 1189 H 110.066 1.89545 5.56189 0
M  V30 1190 H 111.59 1.07782 6.01012 0
M  V30 1191 H 113.004 3.03775 4.86203 0
M  V30 1192 H 111.401 3.79875 4.64559 0
M  V30 1193 H 112.471 3.6025 3.24573 0
M  V30 1194 N 113.814 -1.1601 1.06675 0
M  V30 1195 C 115.06 -1.86909 0.786945 0
M  V30 1196 C 115.393 -1.81717 -0.685018 0
M  V30 1197 O 114.668 -1.23551 -1.50218 0
M  V30 1198 C 114.951 -3.36313 1.28707 0
M  V30 1199 C 114.804 -3.50175 2.82308 0
M  V30 1200 C 116.123 -4.3084 0.898071 0
M  V30 1201 H 113.242 -0.678677 0.287343 0
M  V30 1202 H 115.884 -1.36336 1.32334 0
M  V30 1203 H 114.034 -3.79513 0.830768 0
M  V30 1204 H 115.706 -3.15886 3.36175 0
M  V30 1205 H 113.949 -2.91959 3.20847 0
M  V30 1206 H 114.62 -4.55116 3.12368 0
M  V30 1207 H 117.096 -3.95561 1.29114 0
M  V30 1208 H 115.972 -5.33876 1.27543 0
M  V30 1209 H 116.233 -4.41662 -0.196651 0
M  V30 1210 N 115.292 -0.849877 -1.32721 0
M  V30 1211 C 116.539 -0.450923 -1.97416 0
M  V30 1212 C 116.867 0.992376 -1.67279 0
M  V30 1213 O 116.122 1.71048 -0.950845 0
M  V30 1214 C 116.421 -0.631272 -3.51781 0
M  V30 1215 C 116.087 -2.04432 -4.01894 0
M  V30 1216 C 114.749 -2.4308 -4.1529 0
M  V30 1217 C 117.101 -2.96679 -4.28522 0
M  V30 1218 C 114.429 -3.73257 -4.52654 0
M  V30 1219 C 116.781 -4.26349 -4.67343 0
M  V30 1220 C 115.445 -4.64939 -4.78945 0
M  V30 1221 H 114.715 -0.165004 -0.722395 0
M  V30 1222 H 117.362 -1.07901 -1.58207 0
M  V30 1223 H 115.667 0.0800767 -3.91718 0
M  V30 1224 H 117.364 -0.302709 -3.99856 0
M  V30 1225 H 113.954 -1.73419 -3.91949 0
M  V30 1226 H 118.138 -2.68054 -4.17685 0
M  V30 1227 H 113.394 -4.02946 -4.59831 0
M  V30 1228 H 117.568 -4.97895 -4.86902 0
M  V30 1229 H 115.195 -5.65855 -5.07654 0
M  V30 1230 N 116.77 1.45427 -0.607355 0
M  V30 1231 C 118.01 2.04128 -0.105458 0
M  V30 1232 C 118.374 1.46555 1.24039 0
M  V30 1233 O 119.575 1.96608 1.833 0
M  V30 1234 C 117.846 3.57338 -0.0665324 0
M  V30 1235 S 119.405 4.37201 0.374207 0
M  V30 1236 H 116.223 0.709278 -0.0494575 0
M  V30 1237 H 118.825 1.78139 -0.805404 0
M  V30 1238 H 117.529 3.96752 -1.04957 0
M  V30 1239 H 117.06 3.87902 0.655415 0
M  V30 1240 H 119.075 4.6888 1.62377 0
M  V30 1241 N 118.248 0.346503 1.53744 0
M  V30 1242 C 119.497 -0.250122 2.00143 0
M  V30 1243 C 119.81 -1.51418 1.23822 0
M  V30 1244 O 121.016 -2.18823 1.60713 0
M  V30 1245 C 119.472 -0.496252 3.56462 0
M  V30 1246 C 119.08 0.752077 4.41642 0
M  V30 1247 C 120.824 -1.05157 4.11269 0
M  V30 1248 C 118.731 0.476583 5.89477 0
M  V30 1249 H 117.661 -0.0972409 0.747703 0
M  V30 1250 H 120.312 0.46229 1.77581 0
M  V30 1251 H 118.694 -1.26944 3.75102 0
M  V30 1252 H 119.868 1.5266 4.34778 0
M  V30 1253 H 118.183 1.22925 3.97842 0
M  V30 1254 H 120.78 -1.27269 5.19333 0
M  V30 1255 H 121.123 -2.00799 3.64672 0
M  V30 1256 H 121.656 -0.339019 3.96353 0
M  V30 1257 H 118.395 1.4028 6.40314 0
M  V30 1258 H 117.915 -0.259794 5.99237 0
M  V30 1259 H 119.594 0.0949315 6.4693 0
M  V30 1260 N 119.726 -1.57421 0.075193 0
M  V30 1261 C 121.003 -1.85029 -0.634329 0
M  V30 1262 C 121.383 -0.968305 -1.87582 0
M  V30 1263 O 120.731 -0.0354749 -2.28472 0
M  V30 1264 C 120.941 -3.35286 -0.968742 0
M  V30 1265 C 122.289 -4.02875 -1.34077 0
M  V30 1266 O 123.313 -3.40051 -1.06037 0
M  V30 1267 O 122.172 -5.13691 -1.86506 0
M  V30 1268 H 119.266 -0.7645 -0.315387 0
M  V30 1269 H 121.812 -1.69366 0.106382 0
M  V30 1270 H 120.584 -3.91203 -0.0871376 0
M  V30 1271 H 120.207 -3.56223 -1.7661 0
M  V30 1272 N 121.204 0.198386 -1.56346 0
M  V30 1273 C 122.434 0.934215 -1.84271 0
M  V30 1274 C 122.842 1.77496 -0.655125 0
M  V30 1275 O 122.185 1.7961 0.385488 0
M  V30 1276 C 122.247 1.88278 -3.06254 0
M  V30 1277 C 121.911 1.22431 -4.40295 0
M  V30 1278 C 122.908 0.602839 -5.16393 0
M  V30 1279 C 120.593 1.22915 -4.87029 0
M  V30 1280 C 122.587 -0.0050083 -6.374 0
M  V30 1281 C 120.274 0.617465 -6.07973 0
M  V30 1282 C 121.272 0.00146341 -6.83 0
M  V30 1283 O 120.96 -0.600642 -8.01653 0
M  V30 1284 H 120.692 0.278245 -0.616081 0
M  V30 1285 H 123.246 0.211626 -2.04307 0
M  V30 1286 H 121.476 2.64498 -2.82095 0
M  V30 1287 H 123.165 2.48612 -3.20853 0
M  V30 1288 H 123.931 0.591265 -4.81382 0
M  V30 1289 H 119.81 1.69801 -4.28589 0
M  V30 1290 H 123.354 -0.48643 -6.95902 0
M  V30 1291 H 119.251 0.62653 -6.42452 0
M  V30 1292 H 120.019 -0.497225 -8.16988 0
M  V30 1293 N 122.682 1.50554 0.465978 0
M  V30 1294 C 123.614 1.65949 1.58093 0
M  V30 1295 C 124.627 0.540827 1.53554 0
M  V30 1296 O 125.816 0.814187 1.5885 0
M  V30 1297 C 122.916 1.63261 2.96983 0
M  V30 1298 C 122.089 2.91245 3.26336 0
M  V30 1299 C 121.148 2.8113 4.44806 0
M  V30 1300 O 120.174 3.55086 4.44862 0
M  V30 1301 N 121.376 1.95032 5.46756 0
M  V30 1302 H 124.141 2.62122 1.45301 0
M  V30 1303 H 121.702 1.48082 0.65448 0
M  V30 1304 H 123.694 1.54101 3.74212 0
M  V30 1305 H 122.264 0.748032 3.03518 0
M  V30 1306 H 121.484 3.14493 2.37672 0
M  V30 1307 H 122.772 3.76022 3.42761 0
M  V30 1308 H 122.17 1.3427 5.49534 0
M  V30 1309 H 120.727 1.91772 6.2295 0
M  V30 1310 N 124.16 -0.719506 1.40217 0
M  V30 1311 C 125.576 -1.02707 1.22161 0
M  V30 1312 C 125.776 -2.0128 0.0940557 0
M  V30 1313 O 124.832 -2.46452 -0.549318 0
M  V30 1314 C 126.145 -1.57454 2.56181 0
M  V30 1315 C 127.693 -1.69458 2.63159 0
M  V30 1316 C 128.168 -2.27611 3.97438 0
M  V30 1317 N 129.659 -2.35002 3.99159 0
M  V30 1318 C 130.394 -2.80972 4.99842 0
M  V30 1319 N 129.89 -3.26723 6.10921 0
M  V30 1320 N 131.683 -2.80321 4.87213 0
M  V30 1321 H 123.834 -0.0660492 2.12297 0
M  V30 1322 H 126.097 -0.0919077 0.943534 0
M  V30 1323 H 125.803 -0.924873 3.39321 0
M  V30 1324 H 125.677 -2.56036 2.76993 0
M  V30 1325 H 128.064 -2.33543 1.80393 0
M  V30 1326 H 128.145 -0.694867 2.46181 0
M  V30 1327 H 127.789 -1.6415 4.80643 0
M  V30 1328 H 127.719 -3.2829 4.11744 0
M  V30 1329 H 130.21 -2.02685 3.18947 0
M  V30 1330 H 130.523 -3.60355 6.8364 0
M  V30 1331 H 128.868 -3.24692 6.14492 0
M  V30 1332 H 132.059 -2.43912 3.9953 0
M  V30 1333 H 132.232 -3.15831 5.65822 0
M  V30 1334 N 125.638 -1.25649 -0.95132 0
M  V30 1335 C 126.588 -1.03004 -2.03406 0
M  V30 1336 C 127.572 0.034187 -1.60864 0
M  V30 1337 O 128.764 -0.181549 -1.76066 0
M  V30 1338 C 125.893 -0.654255 -3.37008 0
M  V30 1339 C 124.979 -1.75542 -3.86065 0
M  V30 1340 N 125.37 -2.99113 -4.07879 0
M  V30 1341 C 123.668 -1.63669 -4.14884 0
M  V30 1342 C 124.369 -3.70611 -4.48356 0
M  V30 1343 N 123.345 -2.98247 -4.54477 0
M  V30 1344 H 127.147 -1.96813 -2.1827 0
M  V30 1345 H 124.661 -1.16017 -1.13639 0
M  V30 1346 H 126.658 -0.473206 -4.14206 0
M  V30 1347 H 125.318 0.276468 -3.23521 0
M  V30 1348 H 126.329 -3.35124 -3.94857 0
M  V30 1349 H 123.006 -0.775161 -4.10241 0
M  V30 1350 H 124.396 -4.76695 -4.73509 0
M  V30 1351 N 127.117 1.15442 -1.07289 0
M  V30 1352 C 128.08 2.18358 -0.696591 0
M  V30 1353 C 129.08 1.58637 0.262837 0
M  V30 1354 O 130.27 1.74145 0.0438809 0
M  V30 1355 C 127.402 3.4089 -0.0266151 0
M  V30 1356 H 128.595 2.53162 -1.60776 0
M  V30 1357 H 126.148 1.29893 -0.869342 0
M  V30 1358 H 126.883 3.11653 0.896822 0
M  V30 1359 H 126.668 3.85495 -0.716657 0
M  V30 1360 H 128.158 4.17009 0.222028 0
M  V30 1361 N 128.595 0.856903 1.32268 0
M  V30 1362 C 129.823 0.475439 2.01363 0
M  V30 1363 C 130.238 -0.928486 1.64392 0
M  V30 1364 O 129.595 -1.60624 0.866387 0
M  V30 1365 C 129.646 0.607545 3.56358 0
M  V30 1366 O 129.367 1.95617 3.92002 0
M  V30 1367 C 130.868 0.225382 4.42727 0
M  V30 1368 H 128.088 0.186636 0.644521 0
M  V30 1369 H 130.632 1.15446 1.68797 0
M  V30 1370 H 128.787 -0.0237719 3.87393 0
M  V30 1371 H 129.201 1.95455 4.86721 0
M  V30 1372 H 130.675 0.368813 5.50767 0
M  V30 1373 H 131.152 -0.834369 4.31202 0
M  V30 1374 H 131.758 0.831864 4.17085 0
M  V30 1375 N 130.073 -1.45103 0.615059 0
M  V30 1376 C 131.322 -2.01396 0.110718 0
M  V30 1377 C 131.635 -1.48834 -1.26916 0
M  V30 1378 O 132.841 -1.97152 -1.86664 0
M  V30 1379 C 131.297 -3.59599 0.14723 0
M  V30 1380 C 130.905 -4.21158 1.52743 0
M  V30 1381 C 132.649 -4.23428 -0.30148 0
M  V30 1382 C 130.556 -5.71535 1.51992 0
M  V30 1383 H 129.486 -0.753061 0.0376241 0
M  V30 1384 H 132.137 -1.66494 0.77149 0
M  V30 1385 H 130.519 -3.91724 -0.580339 0
M  V30 1386 H 131.693 -4.00594 2.2773 0
M  V30 1387 H 130.008 -3.69552 1.91886 0
M  V30 1388 H 132.605 -5.33703 -0.326392 0
M  V30 1389 H 132.948 -3.94629 -1.32565 0
M  V30 1390 H 133.481 -3.96047 0.373065 0
M  V30 1391 H 130.22 -6.05044 2.52193 0
M  V30 1392 H 129.74 -5.94268 0.81274 0
M  V30 1393 H 131.419 -6.34873 1.24681 0
M  V30 1394 N 131.551 -0.354651 -1.53558 0
M  V30 1395 C 132.499 0.512195 -2.26891 0
M  V30 1396 C 133.493 1.09263 -1.29452 0
M  V30 1397 O 134.699 1.03709 -1.47121 0
M  V30 1398 H 131.074 0.183878 -0.729173 0
M  V30 1399 H 133.045 -0.128202 -2.98124 0
M  V30 1400 C 131.794 1.64563 -3.06291 0
M  V30 1401 H 131.117 1.20829 -3.81104 0
M  V30 1402 H 132.557 2.22711 -3.60799 0
M  V30 1403 C 131.016 2.58158 -2.16462 0
M  V30 1404 O 131.546 3.60695 -1.76811 0
M  V30 1405 N 129.752 2.27096 -1.81317 0
M  V30 1406 H 129.299 1.43751 -2.1376 0
M  V30 1407 H 129.257 2.89975 -1.21498 0
M  V30 1408 N 133.029 1.57378 -0.0835403 0
M  V30 1409 C 134.44 1.81261 0.447358 0
M  V30 1410 C 134.791 0.998331 1.68902 0
M  V30 1411 O 133.916 0.224282 2.15235 0
M  V30 1412 C 134.511 3.28767 0.818386 0
M  V30 1413 C 133.07 3.53455 1.29409 0
M  V30 1414 C 132.217 2.75831 0.285024 0
M  V30 1415 H 135.168 1.5566 -0.309115 0
M  V30 1416 H 135.189 3.41459 1.67887 0
M  V30 1417 H 134.701 3.88006 -0.0855019 0
M  V30 1418 H 132.802 2.99534 2.21608 0
M  V30 1419 H 132.915 4.62128 1.2639 0
M  V30 1420 H 131.279 2.42947 0.764767 0
M  V30 1421 H 132.062 3.37813 -0.611341 0
M  V30 1422 N 134.507 -0.190092 1.56449 0
M  V30 1423 C 135.784 -0.935886 1.71757 0
M  V30 1424 C 136.164 -2.01173 0.639726 0
M  V30 1425 O 135.512 -2.25827 -0.348502 0
M  V30 1426 C 135.722 -1.51775 3.1427 0
M  V30 1427 C 137.07 -1.99794 3.74656 0
M  V30 1428 O 138.094 -1.61607 3.1743 0
M  V30 1429 O 136.953 -2.70079 4.751 0
M  V30 1430 H 134.047 -0.439229 0.700719 0
M  V30 1431 H 136.593 -0.179395 1.68749 0
M  V30 1432 H 135.365 -0.742505 3.84191 0
M  V30 1433 H 134.988 -2.33894 3.21527 0
M  V30 1434 N 135.985 -1.50799 -0.457987 0
M  V30 1435 C 137.231 -1.62683 -1.21088 0
M  V30 1436 C 137.564 -0.332268 -1.91336 0
M  V30 1437 O 136.839 0.667043 -1.82704 0
M  V30 1438 C 137.122 -2.81615 -2.24422 0
M  V30 1439 C 136.975 -4.20989 -1.58392 0
M  V30 1440 C 138.294 -2.96085 -3.2561 0
M  V30 1441 H 135.413 -0.592087 -0.438864 0
M  V30 1442 H 138.055 -1.83225 -0.50286 0
M  V30 1443 H 136.205 -2.64231 -2.84806 0
M  V30 1444 H 137.877 -4.49994 -1.01504 0
M  V30 1445 H 136.12 -4.24641 -0.886704 0
M  V30 1446 H 136.791 -5.0016 -2.33547 0
M  V30 1447 H 139.267 -3.12042 -2.75262 0
M  V30 1448 H 138.143 -3.80902 -3.95228 0
M  V30 1449 H 138.404 -2.0726 -3.90507 0
M  V30 1450 N 137.463 0.71206 -1.40597 0
M  V30 1451 C 138.395 1.83704 -1.37061 0
M  V30 1452 C 139.408 1.60453 -0.275426 0
M  V30 1453 O 140.597 1.70262 -0.53602 0
M  V30 1454 C 137.697 3.20172 -1.11099 0
M  V30 1455 C 136.87 3.7059 -2.3234 0
M  V30 1456 C 135.929 4.85681 -2.02485 0
M  V30 1457 O 134.955 4.9815 -2.75382 0
M  V30 1458 N 136.157 5.71735 -1.00497 0
M  V30 1459 H 138.922 1.87235 -2.34016 0
M  V30 1460 H 136.483 0.893739 -1.34996 0
M  V30 1461 H 138.475 3.94768 -0.891064 0
M  V30 1462 H 137.045 3.11767 -0.227989 0
M  V30 1463 H 136.265 2.87085 -2.7014 0
M  V30 1464 H 137.553 4.01011 -3.13157 0
M  V30 1465 H 136.951 5.64275 -0.401298 0
M  V30 1466 H 135.508 6.463 -0.844942 0
M  V30 1467 N 138.941 1.26152 0.944643 0
M  V30 1468 C 139.904 1.07474 2.0244 0
M  V30 1469 C 140.904 0.0242064 1.60782 0
M  V30 1470 O 142.094 0.267302 1.72137 0
M  V30 1471 C 139.226 0.633956 3.34953 0
M  V30 1472 H 140.419 2.03336 2.20442 0
M  V30 1473 H 137.972 1.087 1.12312 0
M  V30 1474 H 138.707 -0.326811 3.22649 0
M  V30 1475 H 138.492 1.39247 3.66542 0
M  V30 1476 H 139.982 0.52501 4.14287 0
M  V30 1477 N 140.419 -1.14872 1.07899 0
M  V30 1478 C 141.696 -1.81928 0.71845 0
M  V30 1479 C 142.076 -1.95417 -0.798455 0
M  V30 1480 O 141.424 -1.50997 -1.715 0
M  V30 1481 C 141.634 -3.17937 1.43935 0
M  V30 1482 C 142.982 -3.93501 1.59506 0
M  V30 1483 O 144.006 -3.27509 1.40058 0
M  V30 1484 O 142.865 -5.1183 1.91551 0
M  V30 1485 H 139.959 -0.78628 0.256305 0
M  V30 1486 H 142.505 -1.21934 1.18026 0
M  V30 1487 H 141.277 -3.0325 2.47295 0
M  V30 1488 H 140.9 -3.85619 0.968687 0
M  V30 1489 N 141.898 -0.863906 -1.31812 0
M  V30 1490 C 143.145 -0.471836 -1.96926 0
M  V30 1491 C 143.473 0.974578 -1.68322 0
M  V30 1492 O 142.728 1.7003 -0.968933 0
M  V30 1493 C 143.027 -0.668547 -3.51091 0
M  V30 1494 C 142.693 -2.08683 -3.99703 0
M  V30 1495 C 141.355 -2.47471 -4.12688 0
M  V30 1496 C 143.707 -3.01207 -4.25351 0
M  V30 1497 C 141.035 -3.78037 -4.4867 0
M  V30 1498 C 143.387 -4.31282 -4.62794 0
M  V30 1499 C 142.051 -4.69992 -4.73987 0
M  V30 1500 H 141.321 -0.172657 -0.720604 0
M  V30 1501 H 143.968 -1.09573 -1.57054 0
M  V30 1502 H 142.273 0.0385252 -3.91781 0
M  V30 1503 H 143.97 -0.345102 -3.99512 0
M  V30 1504 H 140.56 -1.77566 -3.90087 0
M  V30 1505 H 144.744 -2.72469 -4.14819 0
M  V30 1506 H 140 -4.078 -4.55532 0
M  V30 1507 H 144.174 -5.03031 -4.81594 0
M  V30 1508 H 141.801 -5.71207 -5.01624 0
M  V30 1509 N 143.376 1.44774 -0.622745 0
M  V30 1510 C 144.604 2.06487 -0.130722 0
M  V30 1511 C 145.019 1.46476 1.19123 0
M  V30 1512 O 144.376 0.584502 1.72887 0
M  V30 1513 C 144.427 3.615 -0.000807207 0
M  V30 1514 O 144.148 4.19274 -1.27048 0
M  V30 1515 C 145.649 4.40229 0.520898 0
M  V30 1516 H 142.869 0.666704 -0.0758106 0
M  V30 1517 H 145.413 1.85779 -0.854774 0
M  V30 1518 H 143.568 3.81498 0.673643 0
M  V30 1519 H 143.982 5.12622 -1.1099 0
M  V30 1520 H 145.456 5.49144 0.560838 0
M  V30 1521 H 145.933 4.1108 1.54627 0
M  V30 1522 H 146.539 4.25131 -0.120018 0
M  V30 1523 N 144.854 0.36279 1.53368 0
M  V30 1524 C 145.764 -0.492994 2.29362 0
M  V30 1525 C 146.78 -1.09507 1.35219 0
M  V30 1526 O 147.956 -1.10662 1.68273 0
M  V30 1527 C 145.021 -1.61855 3.066 0
M  V30 1528 C 144.082 -1.04429 4.16405 0
M  V30 1529 C 143.315 -2.11621 4.89951 0
M  V30 1530 O 143.538 -3.32684 4.63333 0
M  V30 1531 O 142.472 -1.74835 5.75948 0
M  V30 1532 H 146.298 0.125331 3.03441 0
M  V30 1533 H 143.883 0.127253 1.48857 0
M  V30 1534 H 145.765 -2.27302 3.54841 0
M  V30 1535 H 144.44 -2.22233 2.3536 0
M  V30 1536 H 143.347 -0.353819 3.72423 0
M  V30 1537 H 144.68 -0.485113 4.89804 0
M  V30 1538 N 146.332 -1.57332 0.0918853 0
M  V30 1539 C 147.262 -2.16872 -0.865371 0
M  V30 1540 C 148.243 -1.10118 -1.29646 0
M  V30 1541 O 149.428 -1.38242 -1.36392 0
M  V30 1542 C 146.558 -2.74649 -2.12569 0
M  V30 1543 C 145.512 -3.86747 -1.83333 0
M  V30 1544 C 144.838 -4.31212 -3.16166 0
M  V30 1545 C 146.138 -5.10089 -1.1228 0
M  V30 1546 H 147.832 -2.97114 -0.369307 0
M  V30 1547 H 145.378 -1.42918 -0.176194 0
M  V30 1548 H 147.331 -3.14952 -2.7997 0
M  V30 1549 H 146.055 -1.91657 -2.64452 0
M  V30 1550 H 144.714 -3.46978 -1.18331 0
M  V30 1551 H 144.362 -3.45115 -3.6593 0
M  V30 1552 H 144.062 -5.06788 -2.97388 0
M  V30 1553 H 145.586 -4.74146 -3.84731 0
M  V30 1554 H 147 -5.47582 -1.69785 0
M  V30 1555 H 145.397 -5.91073 -1.03693 0
M  V30 1556 H 146.467 -4.84786 -0.105041 0
M  V30 1557 N 147.81 0.181792 -1.56548 0
M  V30 1558 C 149.038 0.915947 -1.85521 0
M  V30 1559 C 149.453 1.76282 -0.676016 0
M  V30 1560 O 148.81 1.79012 0.355077 0
M  V30 1561 C 148.861 1.80126 -3.13427 0
M  V30 1562 O 148.582 0.988562 -4.26801 0
M  V30 1563 C 150.083 2.64597 -3.55673 0
M  V30 1564 H 147.303 0.26661 -0.61576 0
M  V30 1565 H 149.847 0.185039 -2.03661 0
M  V30 1566 H 148.002 2.48563 -2.97145 0
M  V30 1567 H 148.416 1.59308 -4.99721 0
M  V30 1568 H 149.89 3.2235 -4.48101 0
M  V30 1569 H 150.367 3.38958 -2.79292 0
M  V30 1570 H 150.973 2.0151 -3.74532 0
M  V30 1571 N 149.288 1.51039 0.449983 0
M  V30 1572 C 150.218 1.74379 1.55288 0
M  V30 1573 C 151.199 0.593236 1.5942 0
M  V30 1574 O 152.384 0.834625 1.7535 0
M  V30 1575 C 149.514 1.85728 2.93466 0
M  V30 1576 C 148.468 3.01078 3.04197 0
M  V30 1577 C 147.794 2.97595 4.44231 0
M  V30 1578 C 149.094 4.41254 2.7945 0
M  V30 1579 H 150.788 2.66725 1.36008 0
M  V30 1580 H 148.334 1.2835 0.652864 0
M  V30 1581 H 150.287 2.0064 3.70569 0
M  V30 1582 H 149.011 0.900207 3.13949 0
M  V30 1583 H 147.67 2.85851 2.29531 0
M  V30 1584 H 147.318 1.99691 4.61663 0
M  V30 1585 H 147.018 3.75046 4.52343 0
M  V30 1586 H 148.542 3.14583 5.23326 0
M  V30 1587 H 149.956 4.56897 3.46292 0
M  V30 1588 H 148.353 5.20315 2.98985 0
M  V30 1589 H 149.423 4.52164 1.75144 0
M  V30 1590 N 150.766 -0.704594 1.40972 0
M  V30 1591 C 152.015 -1.46018 1.39146 0
M  V30 1592 C 152.328 -1.956 0.000589254 0
M  V30 1593 O 153.534 -2.71137 -0.1403 0
M  V30 1594 C 151.99 -2.63996 2.4461 0
M  V30 1595 C 151.598 -2.21238 3.89561 0
M  V30 1596 C 153.342 -3.41677 2.51907 0
M  V30 1597 C 151.249 -3.3612 4.86598 0
M  V30 1598 H 150.179 -0.548444 0.517422 0
M  V30 1599 H 152.83 -0.765784 1.66757 0
M  V30 1600 H 151.212 -3.3566 2.10115 0
M  V30 1601 H 152.386 -1.56923 4.33257 0
M  V30 1602 H 150.701 -1.56574 3.85841 0
M  V30 1603 H 153.298 -4.27182 3.2159 0
M  V30 1604 H 153.641 -3.86247 1.55303 0
M  V30 1605 H 154.174 -2.77064 2.85448 0
M  V30 1606 H 150.913 -2.96572 5.84573 0
M  V30 1607 H 150.433 -3.99315 4.47557 0
M  V30 1608 H 152.112 -4.02029 5.06934 0
M  V30 1609 N 152.244 -1.26651 -0.937939 0
M  V30 1610 C 153.492 -1.12165 -1.68118 0
M  V30 1611 C 153.813 0.334983 -1.92101 0
M  V30 1612 O 153.083 1.23583 -1.52 0
M  V30 1613 H 151.663 -0.412093 -0.623048 0
M  V30 1614 H 154.325 -1.59027 -1.12678 0
M  V30 1615 H 153.421 -1.64289 -2.6536 0
M  V30 1616 N 153.722 1.14298 -1.08507 0
M  V30 1617 C 154.685 2.17607 -0.719711 0
M  V30 1618 C 155.685 1.58907 0.245997 0
M  V30 1619 O 156.875 1.74181 0.0254081 0
M  V30 1620 C 154.007 3.40842 -0.0627695 0
M  V30 1621 H 155.2 2.51443 -1.63452 0
M  V30 1622 H 152.753 1.28963 -0.88307 0
M  V30 1623 H 153.488 3.12587 0.863716 0
M  V30 1624 H 153.273 3.84713 -0.757504 0
M  V30 1625 H 154.763 4.17221 0.177786 0
M  V30 1626 N 155.201 0.870884 1.31352 0
M  V30 1627 C 156.447 0.482987 1.96965 0
M  V30 1628 C 156.78 -0.962462 1.68672 0
M  V30 1629 O 156.055 -1.6779 0.98371 0
M  V30 1630 C 156.338 0.741752 3.52378 0
M  V30 1631 C 156.191 2.2368 3.9024 0
M  V30 1632 C 157.51 0.208838 4.39604 0
M  V30 1633 H 154.629 0.176955 0.715441 0
M  V30 1634 H 157.271 1.09229 1.55464 0
M  V30 1635 H 155.421 0.223149 3.87859 0
M  V30 1636 H 157.093 2.82273 3.64856 0
M  V30 1637 H 155.336 2.70901 3.38814 0
M  V30 1638 H 156.007 2.3685 4.98604 0
M  V30 1639 H 158.483 0.652529 4.10952 0
M  V30 1640 H 157.359 0.419336 5.47296 0
M  V30 1641 H 157.62 -0.889275 4.33064 0
M  V30 1642 N 156.679 -1.44442 0.630414 0
M  V30 1643 C 157.956 -1.9549 0.0655657 0
M  V30 1644 C 158.336 -1.5724 -1.40851 0
M  V30 1645 O 157.684 -0.846116 -2.12257 0
M  V30 1646 C 157.894 -3.47812 0.287691 0
M  V30 1647 C 159.242 -4.24216 0.180513 0
M  V30 1648 O 160.266 -3.55526 0.219019 0
M  V30 1649 O 159.125 -5.46434 0.0848493 0
M  V30 1650 H 156.219 -0.826688 -0.0227177 0
M  V30 1651 H 158.765 -1.54496 0.702068 0
M  V30 1652 H 157.537 -3.687 1.31056 0
M  V30 1653 H 157.16 -3.95751 -0.382984 0
M  V30 1654 N 158.157 -0.370918 -1.53173 0
M  V30 1655 C 159.382 0.220293 -2.06227 0
M  V30 1656 C 159.807 1.41243 -1.24225 0
M  V30 1657 O 159.165 1.79387 -0.262645 0
M  V30 1658 C 159.213 0.586663 -3.55796 0
M  V30 1659 O 158.317 1.68317 -3.76488 0
M  V30 1660 H 157.658 0.0308099 -0.663285 0
M  V30 1661 H 160.188 -0.533068 -1.97534 0
M  V30 1662 H 160.198 0.85617 -3.98916 0
M  V30 1663 H 158.873 -0.285013 -4.14922 0
M  V30 1664 H 157.45 1.40881 -3.45264 0
M  V30 1665 N 159.635 1.57281 -0.100228 0
M  V30 1666 C 160.883 1.94153 0.561157 0
M  V30 1667 C 161.204 0.983157 1.68401 0
M  V30 1668 O 160.474 0.0361132 1.95867 0
M  V30 1669 H 159.054 0.716791 0.210283 0
M  V30 1670 H 161.716 1.94202 -0.164765 0
M  V30 1671 H 160.812 2.96709 0.968008 0
M  V30 1672 N 161.113 -0.173488 1.56642 0
M  V30 1673 C 162.362 -0.888758 1.81063 0
M  V30 1674 C 162.675 -1.83506 0.67712 0
M  V30 1675 O 163.881 -2.59254 0.806206 0
M  V30 1676 C 162.337 -1.63091 3.20826 0
M  V30 1677 C 161.945 -0.728357 4.4204 0
M  V30 1678 C 163.689 -2.33454 3.54541 0
M  V30 1679 C 161.596 -1.47062 5.72823 0
M  V30 1680 H 160.526 -0.335618 0.675186 0
M  V30 1681 H 163.177 -0.141712 1.82952 0
M  V30 1682 H 161.559 -2.42263 3.13248 0
M  V30 1683 H 162.733 0.0262449 4.60793 0
M  V30 1684 H 161.048 -0.134492 4.16183 0
M  V30 1685 H 163.645 -2.89578 4.49498 0
M  V30 1686 H 163.988 -3.08687 2.79317 0
M  V30 1687 H 164.521 -1.61227 3.63663 0
M  V30 1688 H 161.26 -0.760658 6.51072 0
M  V30 1689 H 160.78 -2.1986 5.58052 0
M  V30 1690 H 162.459 -2.01868 6.14702 0
M  V30 1691 N 162.591 -1.51276 -0.441967 0
M  V30 1692 C 163.524 -1.66933 -1.55591 0
M  V30 1693 C 164.502 -0.516958 -1.54163 0
M  V30 1694 O 165.686 -0.740209 -1.73358 0
M  V30 1695 C 162.813 -1.67866 -2.94174 0
M  V30 1696 C 161.859 -2.89013 -3.13646 0
M  V30 1697 S 162.692 -4.49897 -2.90436 0
M  V30 1698 C 163.848 -4.53568 -4.31308 0
M  V30 1699 H 164.081 -2.61155 -1.42076 0
M  V30 1700 H 161.614 -1.40902 -0.631341 0
M  V30 1701 H 163.572 -1.69089 -3.74058 0
M  V30 1702 H 162.233 -0.748296 -3.05056 0
M  V30 1703 H 161.426 -2.86054 -4.14957 0
M  V30 1704 H 161.028 -2.85509 -2.4158 0
M  V30 1705 H 163.32 -4.28924 -5.24434 0
M  V30 1706 H 164.263 -5.55355 -4.39303 0
M  V30 1707 H 164.671 -3.82943 -4.14747 0
M  V30 1708 N 164.069 0.697108 -1.41344 0
M  V30 1709 C 165.032 1.79281 -1.42797 0
M  V30 1710 C 166.032 1.57607 -0.318837 0
M  V30 1711 O 167.222 1.64309 -0.578642 0
M  V30 1712 C 164.354 3.17632 -1.23785 0
M  V30 1713 H 165.547 1.79385 -2.40335 0
M  V30 1714 H 163.1 0.904582 -1.27464 0
M  V30 1715 H 163.835 3.23167 -0.270814 0
M  V30 1716 H 163.62 3.34765 -2.04144 0
M  V30 1717 H 165.11 3.97617 -1.27633 0
M  V30 1718 N 165.547 1.27147 0.931209 0
M  V30 1719 C 166.479 1.05364 2.03546 0
M  V30 1720 C 167.492 0.0108438 1.62796 0
M  V30 1721 O 168.681 0.25202 1.76712 0
M  V30 1722 C 165.781 0.575566 3.33977 0
M  V30 1723 C 164.954 1.68985 4.03439 0
M  V30 1724 C 164.013 1.20813 5.12143 0
M  V30 1725 O 163.039 1.90712 5.363 0
M  V30 1726 N 164.241 0.0618851 5.80467 0
M  V30 1727 H 167.006 2.00454 2.22796 0
M  V30 1728 H 164.567 1.18666 1.10136 0
M  V30 1729 H 166.559 0.237264 4.04004 0
M  V30 1730 H 165.129 -0.282016 3.11325 0
M  V30 1731 H 164.349 2.19861 3.27192 0
M  V30 1732 H 165.637 2.4378 4.46597 0
M  V30 1733 H 165.035 -0.521621 5.6329 0
M  V30 1734 H 163.592 -0.217264 6.51438 0
M  V30 1735 N 167.025 -1.13721 1.09112 0
M  V30 1736 C 167.973 -2.21103 0.722219 0
M  V30 1737 C 168.967 -1.67147 -0.275374 0
M  V30 1738 O 170.173 -1.79477 -0.137176 0
M  V30 1739 H 166.548 -0.720445 0.215553 0
M  V30 1740 H 168.519 -2.49483 1.63709 0
M  V30 1741 C 167.268 -3.47352 0.15543 0
M  V30 1742 H 166.591 -3.89206 0.914246 0
M  V30 1743 H 168.031 -4.2395 -0.0647967 0
M  V30 1744 C 166.49 -3.1814 -1.10852 0
M  V30 1745 O 167.02 -3.36604 -2.19227 0
M  V30 1746 N 165.226 -2.72045 -1.02176 0
M  V30 1747 H 164.773 -2.57221 -0.139764 0
M  V30 1748 H 164.731 -2.52875 -1.8682 0
M  V30 1749 N 168.503 -0.877838 -1.30888 0
M  V30 1750 C 169.743 -0.499301 -1.98208 0
M  V30 1751 C 170.107 0.932649 -1.67826 0
M  V30 1752 O 171.308 1.41694 -2.28421 0
M  V30 1753 C 169.579 -0.758221 -3.49265 0
M  V30 1754 S 171.138 -0.480719 -4.36159 0
M  V30 1755 H 167.956 -0.186062 -0.686223 0
M  V30 1756 H 170.558 -1.13556 -1.59139 0
M  V30 1757 H 169.262 -1.79903 -3.68867 0
M  V30 1758 H 168.793 -0.109247 -3.93248 0
M  V30 1759 H 170.808 0.683698 -4.91467 0
M  V30 1760 N 169.982 1.44106 -0.638065 0
M  V30 1761 C 170.912 2.33448 0.0494287 0
M  V30 1762 C 171.893 1.48606 0.827672 0
M  V30 1763 O 173.078 1.77308 0.792173 0
M  V30 1764 C 170.208 3.31771 1.02691 0
M  V30 1765 C 169.162 4.26485 0.359823 0
M  V30 1766 C 168.488 5.14729 1.44769 0
M  V30 1767 C 169.788 5.17056 -0.738296 0
M  V30 1768 H 171.482 2.91183 -0.696636 0
M  V30 1769 H 169.028 1.40014 -0.336456 0
M  V30 1770 H 170.981 3.93161 1.51666 0
M  V30 1771 H 169.705 2.7226 1.80395 0
M  V30 1772 H 168.364 3.66437 -0.10934 0
M  V30 1773 H 168.012 4.51566 2.21578 0
M  V30 1774 H 167.712 5.78913 1.00668 0
M  V30 1775 H 169.236 5.78991 1.93911 0
M  V30 1776 H 170.65 5.72342 -0.331354 0
M  V30 1777 H 169.047 5.89879 -1.10286 0
M  V30 1778 H 170.117 4.57652 -1.60258 0
M  V30 1779 N 171.46 0.379036 1.52974 0
M  V30 1780 C 172.39 -0.452706 2.29069 0
M  V30 1781 C 173.371 -1.07237 1.32039 0
M  V30 1782 O 174.556 -1.08708 1.60923 0
M  V30 1783 C 171.686 -1.5856 3.08992 0
M  V30 1784 C 170.64 -1.0925 4.13822 0
M  V30 1785 C 169.966 -2.31668 4.81907 0
M  V30 1786 C 171.266 -0.167702 5.22031 0
M  V30 1787 H 172.96 0.182181 2.98845 0
M  V30 1788 H 170.506 0.0890592 1.43724 0
M  V30 1789 H 172.459 -2.1742 3.6098 0
M  V30 1790 H 171.183 -2.24792 2.36931 0
M  V30 1791 H 169.842 -0.526494 3.628 0
M  V30 1792 H 169.49 -2.96386 4.06404 0
M  V30 1793 H 169.19 -1.9934 5.52754 0
M  V30 1794 H 170.714 -2.91189 5.36695 0
M  V30 1795 H 172.128 -0.664186 5.6944 0
M  V30 1796 H 170.525 0.0653265 6.00064 0
M  V30 1797 H 171.595 0.786347 4.78482 0
M  V30 1798 N 172.938 -1.57226 0.108567 0
M  V30 1799 C 173.901 -2.13602 -0.831082 0
M  V30 1800 C 174.901 -1.06841 -1.20173 0
M  V30 1801 O 176.091 -1.32666 -1.12895 0
M  V30 1802 C 173.223 -2.66769 -2.12243 0
M  V30 1803 H 174.416 -2.97951 -0.341317 0
M  V30 1804 H 171.969 -1.55667 -0.14057 0
M  V30 1805 H 172.704 -1.85977 -2.65675 0
M  V30 1806 H 172.489 -3.44839 -1.86625 0
M  V30 1807 H 173.979 -3.10332 -2.79435 0
M  V30 1808 N 174.416 0.165178 -1.56732 0
M  V30 1809 C 175.379 1.18822 -1.95995 0
M  V30 1810 C 176.379 1.3685 -0.84431 0
M  V30 1811 O 177.569 1.34152 -1.11126 0
M  V30 1812 C 174.701 2.5521 -2.26011 0
M  V30 1813 H 175.894 0.851825 -2.87548 0
M  V30 1814 H 173.447 0.407857 -1.50885 0
M  V30 1815 H 174.182 2.93852 -1.37191 0
M  V30 1816 H 173.967 2.43489 -3.07336 0
M  V30 1817 H 175.457 3.28927 -2.57288 0
M  V30 1818 N 175.894 1.51508 0.433938 0
M  V30 1819 C 176.804 1.75917 1.5521 0
M  V30 1820 C 177.82 0.643545 1.61662 0
M  V30 1821 O 178.996 0.926183 1.7884 0
M  V30 1822 C 176.061 1.88213 2.91164 0
M  V30 1823 C 175.122 3.12074 2.94802 0
M  V30 1824 C 174.355 3.23774 4.24271 0
M  V30 1825 O 174.578 2.4133 5.16833 0
M  V30 1826 O 173.512 4.16774 4.34262 0
M  V30 1827 H 177.338 2.70777 1.37527 0
M  V30 1828 H 174.923 1.36051 0.617293 0
M  V30 1829 H 176.805 1.98267 3.71845 0
M  V30 1830 H 175.48 0.965413 3.08968 0
M  V30 1831 H 174.387 3.07497 2.13065 0
M  V30 1832 H 175.72 4.03446 2.81943 0
M  V30 1833 N 177.372 -0.689602 1.41712 0
M  V30 1834 C 178.597 -1.48329 1.44959 0
M  V30 1835 C 179.022 -1.8801 0.0581283 0
M  V30 1836 O 178.38 -1.55026 -0.940035 0
M  V30 1837 C 178.428 -2.71835 2.36935 0
M  V30 1838 O 177.532 -3.69549 1.8305 0
M  V30 1839 H 176.873 -0.446199 0.491734 0
M  V30 1840 H 179.403 -0.847127 1.86239 0
M  V30 1841 H 179.413 -3.20076 2.53013 0
M  V30 1842 H 178.088 -2.42291 3.38035 0
M  V30 1843 H 176.665 -3.2851 1.76452 0
M  V30 1844 N 178.85 -1.27639 -0.924453 0
M  V30 1845 C 179.783 -1.04966 -2.02626 0
M  V30 1846 C 180.761 0.0309505 -1.62571 0
M  V30 1847 O 181.945 -0.114846 -1.8815 0
M  V30 1848 C 179.072 -0.59292 -3.3347 0
M  V30 1849 C 178.118 -1.66858 -3.92506 0
M  V30 1850 S 178.951 -3.2619 -4.24689 0
M  V30 1851 C 180.107 -2.82325 -5.58609 0
M  V30 1852 H 180.34 -1.98252 -2.21547 0
M  V30 1853 H 177.873 -1.11506 -1.06798 0
M  V30 1854 H 179.831 -0.336086 -4.09122 0
M  V30 1855 H 178.492 0.319939 -3.12466 0
M  V30 1856 H 177.685 -1.30038 -4.86935 0
M  V30 1857 H 177.287 -1.87766 -3.2345 0
M  V30 1858 H 179.579 -2.2783 -6.38044 0
M  V30 1859 H 180.522 -3.75511 -6.00331 0
M  V30 1860 H 180.93 -2.21367 -5.19285 0
M  V30 1861 N 180.328 1.1314 -1.09713 0
M  V30 1862 C 181.576 1.84119 -0.833338 0
M  V30 1863 C 181.897 1.84097 0.642904 0
M  V30 1864 O 181.167 1.29881 1.46655 0
M  V30 1865 H 179.747 0.681766 -0.305293 0
M  V30 1866 H 182.409 1.37038 -1.38588 0
M  V30 1867 H 181.505 2.88543 -1.18951 0
M  V30 1868 N 181.806 0.884767 1.30421 0
M  V30 1869 C 182.736 0.367574 2.30589 0
M  V30 1870 C 183.717 -0.549464 1.60981 0
M  V30 1871 O 184.902 -0.46336 1.88591 0
M  V30 1872 C 182.032 -0.418944 3.44764 0
M  V30 1873 C 180.986 0.406316 4.26067 0
M  V30 1874 C 180.312 -0.506793 5.32293 0
M  V30 1875 C 181.612 1.64832 4.95608 0
M  V30 1876 H 183.306 1.20462 2.74097 0
M  V30 1877 H 180.852 0.580695 1.31772 0
M  V30 1878 H 182.805 -0.791395 4.13902 0
M  V30 1879 H 181.529 -1.28964 3.0006 0
M  V30 1880 H 180.188 0.760903 3.58617 0
M  V30 1881 H 179.836 -1.37519 4.83836 0
M  V30 1882 H 179.536 0.0415828 5.87585 0
M  V30 1883 H 181.06 -0.875764 6.04287 0
M  V30 1884 H 182.474 1.34646 5.57264 0
M  V30 1885 H 180.871 2.13688 5.60765 0
M  V30 1886 H 181.941 2.39284 4.21748 0
M  V30 1887 N 183.284 -1.43765 0.645699 0
M  V30 1888 C 184.532 -2.01499 0.155731 0
M  V30 1889 C 184.853 -1.51151 -1.232 0
M  V30 1890 O 184.123 -0.721044 -1.82148 0
M  V30 1891 H 182.703 -0.745003 0.0545817 0
M  V30 1892 H 185.365 -1.76075 0.835677 0
M  V30 1893 H 184.461 -3.1181 0.134577 0
M  V30 1894 N 184.763 -0.387143 -1.52771 0
M  V30 1895 C 186.011 0.195349 -2.01154 0
M  V30 1896 C 186.332 1.475 -1.27549 0
M  V30 1897 O 185.602 1.91878 -0.394924 0
M  V30 1898 H 184.182 0.075178 -0.743207 0
M  V30 1899 H 186.844 -0.518337 -1.87881 0
M  V30 1900 H 185.94 0.407096 -3.09434 0
M  V30 1901 N 186.241 1.57166 -0.116904 0
M  V30 1902 C 187.487 1.95412 0.542405 0
M  V30 1903 C 187.82 1.00019 1.66463 0
M  V30 1904 O 187.095 0.0370346 1.94465 0
M  V30 1905 C 187.378 3.43615 1.07708 0
M  V30 1906 C 187.231 4.49781 -0.0415868 0
M  V30 1907 C 188.55 3.93616 1.96861 0
M  V30 1908 H 185.669 0.710543 0.195696 0
M  V30 1909 H 188.311 1.89027 -0.192038 0
M  V30 1910 H 186.461 3.49187 1.70296 0
M  V30 1911 H 188.133 4.56308 -0.676793 0
M  V30 1912 H 186.376 4.28033 -0.705019 0
M  V30 1913 H 187.047 5.50733 0.373717 0
M  V30 1914 H 189.523 3.90335 1.44146 0
M  V30 1915 H 188.399 4.97838 2.3119 0
M  V30 1916 H 188.66 3.34188 2.89432 0
M  V30 1917 N 187.719 -0.156864 1.56817 0
M  V30 1918 C 188.949 -0.885031 1.86684 0
M  V30 1919 C 189.357 -1.75696 0.701954 0
M  V30 1920 O 188.7 -1.80569 -0.337732 0
M  V30 1921 C 188.762 -1.80092 3.11138 0
M  V30 1922 C 188.426 -1.10714 4.43386 0
M  V30 1923 C 189.423 -0.465714 5.1781 0
M  V30 1924 C 187.108 -1.09959 4.90117 0
M  V30 1925 C 189.102 0.174002 6.37162 0
M  V30 1926 C 186.789 -0.456055 6.09396 0
M  V30 1927 C 187.787 0.179622 6.82764 0
M  V30 1928 O 187.475 0.812975 7.99779 0
M  V30 1929 H 187.207 -0.261813 0.623242 0
M  V30 1930 H 189.761 -0.157383 2.04796 0
M  V30 1931 H 187.991 -2.56926 2.89009 0
M  V30 1932 H 189.68 -2.40018 3.27332 0
M  V30 1933 H 190.446 -0.463427 4.82781 0
M  V30 1934 H 186.325 -1.58378 4.3294 0
M  V30 1935 H 189.869 0.670765 6.94368 0
M  V30 1936 H 185.766 -0.455975 6.43888 0
M  V30 1937 H 186.534 0.71366 8.15383 0
M  V30 1938 N 189.197 -1.51736 -0.425897 0
M  V30 1939 C 190.446 -1.64201 -1.17136 0
M  V30 1940 C 190.759 -0.369705 -1.92074 0
M  V30 1941 O 191.965 -0.373898 -2.68913 0
M  V30 1942 C 190.421 -2.90035 -2.13091 0
M  V30 1943 C 190.029 -4.24312 -1.43747 0
M  V30 1944 C 191.773 -3.1186 -2.87999 0
M  V30 1945 C 189.68 -5.41285 -2.38253 0
M  V30 1946 H 188.61 -0.611624 -0.440944 0
M  V30 1947 H 191.261 -1.78212 -0.437328 0
M  V30 1948 H 189.643 -2.69684 -2.89977 0
M  V30 1949 H 190.817 -4.55086 -0.723408 0
M  V30 1950 H 189.132 -4.08456 -0.809465 0
M  V30 1951 H 191.729 -3.96427 -3.58817 0
M  V30 1952 H 192.072 -2.25403 -3.49999 0
M  V30 1953 H 192.605 -3.32605 -2.18217 0
M  V30 1954 H 189.344 -6.30037 -1.80925 0
M  V30 1955 H 188.864 -5.14872 -3.0768 0
M  V30 1956 H 190.543 -5.73694 -2.99139 0
M  V30 1957 N 190.675 0.682077 -1.42076 0
M  V30 1958 C 191.923 1.4393 -1.41876 0
M  V30 1959 C 192.244 1.94971 -0.0335599 0
M  V30 1960 O 191.514 1.72591 0.926773 0
M  V30 1961 H 190.094 0.534085 -0.522267 0
M  V30 1962 H 192.756 0.806427 -1.77434 0
M  V30 1963 H 191.852 2.29588 -2.11414 0
M  V30 1964 N 192.153 1.28127 0.917671 0
M  V30 1965 C 193.401 1.14825 1.66312 0
M  V30 1966 C 193.722 -0.304379 1.9261 0
M  V30 1967 O 192.992 -1.21149 1.53947 0
M  V30 1968 H 191.572 0.421953 0.616413 0
M  V30 1969 H 194.234 1.608 1.10134 0
M  V30 1970 H 193.33 1.68489 2.62712 0
M  V30 1971 N 193.631 -1.12557 1.10312 0
M  V30 1972 C 194.561 -2.20341 0.772798 0
M  V30 1973 C 195.542 -1.68198 -0.25365 0
M  V30 1974 O 196.727 -1.93831 -0.119699 0
M  V30 1975 C 193.857 -3.46709 0.202443 0
M  V30 1976 C 192.811 -4.11996 1.15943 0
M  V30 1977 C 192.137 -5.328 0.450345 0
M  V30 1978 C 193.437 -4.5828 2.50552 0
M  V30 1979 H 195.131 -2.48229 1.674 0
M  V30 1980 H 192.677 -1.19308 0.806326 0
M  V30 1981 H 194.63 -4.2138 -0.0407752 0
M  V30 1982 H 193.354 -3.18245 -0.734001 0
M  V30 1983 H 192.013 -3.39305 1.38808 0
M  V30 1984 H 191.661 -5.00602 -0.490531 0
M  V30 1985 H 191.361 -5.7743 1.08851 0
M  V30 1986 H 192.885 -6.10219 0.215642 0
M  V30 1987 H 194.299 -5.2433 2.31843 0
M  V30 1988 H 192.696 -5.13683 3.10242 0
M  V30 1989 H 193.766 -3.72329 3.10643 0
M  V30 1990 N 195.109 -0.891671 -1.2995 0
M  V30 1991 C 196.525 -0.58662 -1.48428 0
M  V30 1992 C 196.725 0.873951 -1.81561 0
M  V30 1993 O 195.781 1.65471 -1.90724 0
M  V30 1994 C 197.094 -1.50553 -2.60296 0
M  V30 1995 C 198.642 -1.50988 -2.74175 0
M  V30 1996 C 199.117 -2.41488 -3.89163 0
M  V30 1997 N 200.608 -2.39489 -3.96483 0
M  V30 1998 C 201.343 -3.06223 -4.84784 0
M  V30 1999 N 200.839 -3.82206 -5.77833 0
M  V30 2000 N 202.632 -2.95421 -4.78208 0
M  V30 2001 H 194.783 -1.83644 -1.06718 0
M  V30 2002 H 197.046 -0.786455 -0.529332 0
M  V30 2003 H 196.752 -2.54581 -2.42654 0
M  V30 2004 H 196.626 -1.22008 -3.56923 0
M  V30 2005 H 199.013 -0.47708 -2.91218 0
M  V30 2006 H 199.094 -1.83567 -1.78148 0
M  V30 2007 H 198.738 -3.44857 -3.72876 0
M  V30 2008 H 198.668 -2.06222 -4.84541 0
M  V30 2009 H 201.159 -1.84278 -3.29924 0
M  V30 2010 H 201.472 -4.302 -6.41988 0
M  V30 2011 H 199.817 -3.86313 -5.77743 0
M  V30 2012 H 203.008 -2.35581 -4.04499 0
M  V30 2013 H 203.181 -3.47704 -5.46814 0
M  V30 2014 N 196.587 1.43421 -0.653314 0
M  V30 2015 C 197.535 2.32546 0.0501531 0
M  V30 2016 C 198.529 1.48617 0.812985 0
M  V30 2017 O 199.735 1.64825 0.723375 0
M  V30 2018 H 196.11 0.751185 0.0350032 0
M  V30 2019 H 198.081 2.89602 -0.719261 0
M  V30 2020 C 196.83 3.32925 1.00279 0
M  V30 2021 H 196.153 3.97532 0.425236 0
M  V30 2022 H 197.593 3.9792 1.46409 0
M  V30 2023 C 196.052 2.63532 2.09886 0
M  V30 2024 O 196.582 2.45092 3.18265 0
M  V30 2025 N 194.788 2.22905 1.86445 0
M  V30 2026 H 194.335 2.38103 0.98309 0
M  V30 2027 H 194.293 1.76805 2.59976 0
M  V30 2028 N 198.065 0.39524 1.52563 0
M  V30 2029 C 199.29 -0.187456 2.06551 0
M  V30 2030 C 199.715 -1.39249 1.26457 0
M  V30 2031 O 199.073 -1.78947 0.291151 0
M  V30 2032 C 199.121 -0.529985 3.56684 0
M  V30 2033 O 198.225 -1.62307 3.79118 0
M  V30 2034 H 197.566 -0.0202537 0.663691 0
M  V30 2035 H 200.096 0.564426 1.96661 0
M  V30 2036 H 200.106 -0.792598 4.00227 0
M  V30 2037 H 198.781 0.350987 4.14416 0
M  V30 2038 H 197.358 -1.3537 3.47461 0
M  V30 2039 N 199.544 -1.57102 0.125237 0
M  V30 2040 C 200.507 -2.14471 -0.80838 0
M  V30 2041 C 201.507 -1.0811 -1.19033 0
M  V30 2042 O 202.697 -1.33856 -1.11482 0
M  V30 2043 C 199.829 -2.69005 -2.09402 0
M  V30 2044 H 201.022 -2.98297 -0.309696 0
M  V30 2045 H 198.575 -1.55807 -0.124051 0
M  V30 2046 H 199.31 -1.88785 -2.63687 0
M  V30 2047 H 199.095 -3.46799 -1.82957 0
M  V30 2048 H 200.585 -3.13278 -2.76128 0
M  V30 2049 N 201.022 0.148545 -1.56898 0
M  V30 2050 C 201.985 1.16736 -1.97244 0
M  V30 2051 C 202.985 1.35947 -0.858777 0
M  V30 2052 O 204.175 1.32966 -1.12542 0
M  V30 2053 C 201.307 2.52798 -2.28705 0
M  V30 2054 H 202.5 0.821279 -2.88435 0
M  V30 2055 H 200.053 0.391831 -1.51309 0
M  V30 2056 H 200.788 2.92381 -1.403 0
M  V30 2057 H 200.573 2.40216 -3.09901 0
M  V30 2058 H 202.063 3.26179 -2.60762 0
M  V30 2059 N 202.5 1.5196 0.417844 0
M  V30 2060 C 203.432 1.70895 1.52733 0
M  V30 2061 C 204.445 0.589405 1.51756 0
M  V30 2062 O 205.634 0.864312 1.56179 0
M  V30 2063 C 202.734 1.72627 2.91639 0
M  V30 2064 C 201.907 3.01479 3.16905 0
M  V30 2065 C 200.966 2.95139 4.35637 0
M  V30 2066 O 199.992 3.69059 4.3334 0
M  V30 2067 N 201.194 2.12328 5.40275 0
M  V30 2068 H 203.959 2.66612 1.36888 0
M  V30 2069 H 201.52 1.50089 0.607037 0
M  V30 2070 H 203.512 1.65928 3.6912 0
M  V30 2071 H 202.082 0.844216 3.00985 0
M  V30 2072 H 201.302 3.21895 2.27546 0
M  V30 2073 H 202.59 3.86736 3.30625 0
M  V30 2074 H 201.988 1.51685 5.44985 0
M  V30 2075 H 200.545 2.11494 6.16534 0
M  V30 2076 N 203.978 -0.674533 1.42435 0
M  V30 2077 C 205.224 -1.43671 1.43131 0
M  V30 2078 C 205.557 -1.94142 0.0476021 0
M  V30 2079 O 204.832 -1.70924 -0.928188 0
M  V30 2080 C 205.115 -2.63355 2.45594 0
M  V30 2081 C 204.968 -2.18514 3.93156 0
M  V30 2082 C 206.287 -3.65571 2.45043 0
M  V30 2083 H 203.406 -0.521077 0.521198 0
M  V30 2084 H 206.048 -0.766551 1.7385 0
M  V30 2085 H 204.198 -3.2053 2.19528 0
M  V30 2086 H 205.87 -1.66504 4.30202 0
M  V30 2087 H 204.113 -1.50086 4.07009 0
M  V30 2088 H 204.784 -3.04484 4.60428 0
M  V30 2089 H 207.26 -3.18113 2.68223 0
M  V30 2090 H 206.136 -4.46893 3.18713 0
M  V30 2091 H 206.397 -4.16716 1.47649 0
M  V30 2092 N 205.456 -1.28612 -0.910864 0
M  V30 2093 C 206.733 -1.06632 -1.63979 0
M  V30 2094 C 207.113 0.393351 -2.07403 0
M  V30 2095 O 206.461 1.37999 -1.82122 0
M  V30 2096 C 206.671 -2.0436 -2.8291 0
M  V30 2097 C 208.019 -2.34666 -3.5386 0
M  V30 2098 O 209.043 -2.02467 -2.93062 0
M  V30 2099 O 207.902 -2.89631 -4.63439 0
M  V30 2100 H 204.996 -0.407737 -0.7195 0
M  V30 2101 H 207.542 -1.39942 -0.959914 0
M  V30 2102 H 206.314 -3.02727 -2.47936 0
M  V30 2103 H 205.937 -1.71714 -3.58609 0
M  V30 2104 N 206.934 1.1197 -1.10907 0
M  V30 2105 C 207.844 2.21433 -0.774896 0
M  V30 2106 C 208.86 1.72478 0.229657 0
M  V30 2107 O 210.036 2.01288 0.0672008 0
M  V30 2108 C 207.101 3.4602 -0.216986 0
M  V30 2109 C 206.162 4.09791 -1.27944 0
M  V30 2110 C 205.395 5.28431 -0.748055 0
M  V30 2111 O 205.618 5.68823 0.423833 0
M  V30 2112 O 204.552 5.82644 -1.51027 0
M  V30 2113 H 208.378 2.5242 -1.68873 0
M  V30 2114 H 205.963 1.20399 -0.884555 0
M  V30 2115 H 207.845 4.21304 0.090059 0
M  V30 2116 H 206.52 3.16698 0.669633 0
M  V30 2117 H 205.427 3.36265 -1.63941 0
M  V30 2118 H 206.76 4.4328 -2.13925 0
M  V30 2119 N 208.412 0.89855 1.29475 0
M  V30 2120 C 209.342 0.39201 2.30186 0
M  V30 2121 C 210.323 -0.532359 1.61555 0
M  V30 2122 O 211.508 -0.443331 1.89072 0
M  V30 2123 C 208.638 -0.382353 3.45189 0
M  V30 2124 C 207.592 0.451483 4.25612 0
M  V30 2125 C 206.918 -0.450307 5.328 0
M  V30 2126 C 208.218 1.70079 4.93832 0
M  V30 2127 H 209.912 1.23362 2.72804 0
M  V30 2128 H 207.458 0.594638 1.31149 0
M  V30 2129 H 209.411 -0.747451 4.14718 0
M  V30 2130 H 208.135 -1.25774 3.01411 0
M  V30 2131 H 206.794 0.798897 3.57789 0
M  V30 2132 H 206.442 -1.32379 4.85268 0
M  V30 2133 H 206.142 0.103902 5.87508 0
M  V30 2134 H 207.666 -0.811623 6.05182 0
M  V30 2135 H 209.08 1.40549 5.55805 0
M  V30 2136 H 207.477 2.19623 5.58467 0
M  V30 2137 H 208.547 2.43744 4.19186 0
M  V30 2138 N 209.89 -1.43072 0.660911 0
M  V30 2139 C 210.82 -2.33497 -0.0122829 0
M  V30 2140 C 211.801 -1.49903 -0.803925 0
M  V30 2141 O 212.986 -1.78546 -0.763864 0
M  V30 2142 C 210.116 -3.33363 -0.973994 0
M  V30 2143 C 209.07 -4.27003 -0.291928 0
M  V30 2144 C 208.396 -5.16967 -1.36562 0
M  V30 2145 C 209.696 -5.15816 0.820462 0
M  V30 2146 H 211.39 -2.90038 0.742873 0
M  V30 2147 H 208.936 -1.39461 0.358688 0
M  V30 2148 H 210.889 -3.95524 -1.45392 0
M  V30 2149 H 209.613 -2.75095 -1.7604 0
M  V30 2150 H 208.272 -3.66217 0.167623 0
M  V30 2151 H 207.92 -4.55034 -2.14366 0
M  V30 2152 H 207.62 -5.80441 -0.914454 0
M  V30 2153 H 209.144 -5.82003 -1.84675 0
M  V30 2154 H 210.558 -5.71742 0.422366 0
M  V30 2155 H 208.955 -5.8805 1.19656 0
M  V30 2156 H 210.025 -4.55045 1.67518 0
M  V30 2157 N 211.368 -0.403325 -1.52352 0
M  V30 2158 C 212.616 0.174003 -2.0135 0
M  V30 2159 C 212.937 1.46139 -1.29106 0
M  V30 2160 O 212.207 1.91448 -0.415253 0
M  V30 2161 H 210.787 0.0672911 -0.743963 0
M  V30 2162 H 213.449 -0.538235 -1.87321 0
M  V30 2163 H 212.545 0.374254 -3.09848 0
M  V30 2164 N 212.846 1.57033 -0.133567 0
M  V30 2165 C 213.776 2.1909 0.807567 0
M  V30 2166 C 214.757 1.13517 1.26681 0
M  V30 2167 O 215.942 1.41809 1.32679 0
M  V30 2168 C 213.072 2.80188 2.05212 0
M  V30 2169 C 212.026 3.91471 1.73015 0
M  V30 2170 C 211.352 4.39443 3.04622 0
M  V30 2171 C 212.652 5.12886 0.987168 0
M  V30 2172 H 214.346 2.97988 0.290403 0
M  V30 2173 H 211.892 1.43335 0.138239 0
M  V30 2174 H 213.845 3.22264 2.71521 0
M  V30 2175 H 212.569 1.98601 2.59278 0
M  V30 2176 H 211.228 3.49993 1.0909 0
M  V30 2177 H 210.876 3.54695 3.56651 0
M  V30 2178 H 210.576 5.14495 2.83847 0
M  V30 2179 H 212.1 4.8418 3.72024 0
M  V30 2180 H 213.514 5.51891 1.55208 0
M  V30 2181 H 211.911 5.93615 0.87985 0
M  V30 2182 H 212.981 4.84894 -0.0235286 0
M  V30 2183 N 214.325 -0.140222 1.56975 0
M  V30 2184 C 215.736 -0.699596 1.73097 0
M  V30 2185 C 216.087 -1.8134 0.749022 0
M  V30 2186 O 215.212 -2.16241 -0.0828503 0
M  V30 2187 C 215.807 -1.27582 3.1386 0
M  V30 2188 C 214.366 -1.78169 3.31561 0
M  V30 2189 C 213.513 -0.672855 2.69013 0
M  V30 2190 H 216.464 0.0855115 1.58469 0
M  V30 2191 H 216.485 -2.14561 3.14235 0
M  V30 2192 H 215.997 -0.464955 3.85305 0
M  V30 2193 H 214.098 -2.61801 2.65124 0
M  V30 2194 H 214.211 -1.90574 4.39566 0
M  V30 2195 H 212.575 -1.10118 2.29665 0
M  V30 2196 H 213.358 0.126679 3.43066 0
M  V30 2197 N 215.803 -1.52179 -0.40978 0
M  V30 2198 C 216.713 -1.78364 -1.52392 0
M  V30 2199 C 217.729 -0.669183 -1.60617 0
M  V30 2200 O 218.905 -0.954518 -1.77344 0
M  V30 2201 C 215.97 -1.92822 -2.88133 0
M  V30 2202 C 215.031 -3.16725 -2.898 0
M  V30 2203 C 214.264 -3.30483 -4.19067 0
M  V30 2204 O 214.487 -2.49522 -5.12928 0
M  V30 2205 O 213.421 -4.2363 -4.27576 0
M  V30 2206 H 217.247 -2.72931 -1.33201 0
M  V30 2207 H 214.832 -1.37016 -0.59557 0
M  V30 2208 H 216.714 -2.04157 -3.68643 0
M  V30 2209 H 215.389 -1.01444 -3.07393 0
M  V30 2210 H 214.296 -3.10848 -2.08146 0
M  V30 2211 H 215.629 -4.07881 -2.75489 0
M  V30 2212 N 217.281 0.66697 -1.42791 0
M  V30 2213 C 218.229 1.80157 -1.47127 0
M  V30 2214 C 219.223 1.65825 -0.346199 0
M  V30 2215 O 220.429 1.72338 -0.519572 0
M  V30 2216 H 216.804 0.594158 -0.460956 0
M  V30 2217 H 218.775 1.73619 -2.42692 0
M  V30 2218 C 217.524 3.18351 -1.39813 0
M  V30 2219 H 216.847 3.3001 -2.25684 0
M  V30 2220 H 218.287 3.97736 -1.46908 0
M  V30 2221 C 216.746 3.36707 -0.11391 0
M  V30 2222 O 217.276 3.93027 0.830241 0
M  V30 2223 N 215.482 2.90586 -0.0285295 0
M  V30 2224 H 215.029 2.4494 -0.79764 0
M  V30 2225 H 214.987 3.03245 0.830063 0
M  V30 2226 N 218.759 1.29093 0.90403 0
M  V30 2227 C 219.984 1.19809 1.69294 0
M  V30 2228 C 220.409 -0.238481 1.86582 0
M  V30 2229 O 219.767 -1.1723 1.383 0
M  V30 2230 C 219.815 1.91202 3.05736 0
M  V30 2231 O 218.919 1.22611 3.93752 0
M  V30 2232 H 218.26 0.415385 0.518027 0
M  V30 2233 H 220.79 1.70586 1.12967 0
M  V30 2234 H 220.8 1.99487 3.55906 0
M  V30 2235 H 219.475 2.95692 2.92471 0
M  V30 2236 H 218.052 1.22554 3.52186 0
M  V30 2237 N 220.237 -1.11381 1.11499 0
M  V30 2238 C 221.2 -2.15622 0.777153 0
M  V30 2239 C 222.2 -1.59504 -0.203779 0
M  V30 2240 O 223.39 -1.74188 0.020782 0
M  V30 2241 C 220.522 -3.40556 0.153116 0
M  V30 2242 H 221.715 -2.47021 1.70061 0
M  V30 2243 H 219.268 -1.26577 0.916952 0
M  V30 2244 H 220.003 -3.14767 -0.780536 0
M  V30 2245 H 219.788 -3.8257 0.859238 0
M  V30 2246 H 221.278 -4.17546 -0.0671044 0
M  V30 2247 N 221.715 -0.905404 -1.28997 0
M  V30 2248 C 222.961 -0.535039 -1.95615 0
M  V30 2249 C 223.294 0.917404 -1.71165 0
M  V30 2250 O 222.569 1.65123 -1.02785 0
M  V30 2251 C 222.852 -0.834918 -3.50287 0
M  V30 2252 C 222.705 -2.33948 -3.84172 0
M  V30 2253 C 224.024 -0.325318 -4.38896 0
M  V30 2254 H 221.143 -0.195861 -0.710498 0
M  V30 2255 H 223.785 -1.13313 -1.52513 0
M  V30 2256 H 221.935 -0.325904 -3.87131 0
M  V30 2257 H 223.607 -2.91847 -3.57243 0
M  V30 2258 H 221.85 -2.79789 -3.31513 0
M  V30 2259 H 222.521 -2.49987 -4.92149 0
M  V30 2260 H 224.997 -0.761256 -4.09077 0
M  V30 2261 H 223.873 -0.564295 -5.45992 0
M  V30 2262 H 224.134 0.774144 -4.35269 0
M  V30 2263 N 223.193 1.4272 -0.668489 0
M  V30 2264 C 224.123 2.335 -0.000100175 0
M  V30 2265 C 225.104 1.50328 0.795964 0
M  V30 2266 O 226.289 1.78949 0.754385 0
M  V30 2267 C 223.419 3.33874 0.956302 0
M  V30 2268 C 222.373 4.27152 0.269278 0
M  V30 2269 C 221.699 5.17684 1.33818 0
M  V30 2270 C 222.999 5.15373 -0.847805 0
M  V30 2271 H 224.693 2.89639 -0.758244 0
M  V30 2272 H 222.239 1.39269 -0.366079 0
M  V30 2273 H 224.192 3.9629 1.43292 0
M  V30 2274 H 222.916 2.76025 1.74579 0
M  V30 2275 H 221.575 3.66123 -0.187042 0
M  V30 2276 H 221.223 4.56165 2.1195 0
M  V30 2277 H 220.923 5.80918 0.883659 0
M  V30 2278 H 222.447 5.82974 1.81586 0
M  V30 2279 H 223.861 5.7151 -0.452681 0
M  V30 2280 H 222.258 5.87407 -1.22773 0
M  V30 2281 H 223.328 4.5415 -1.69929 0
M  V30 2282 N 224.671 0.411399 1.52136 0
M  V30 2283 C 225.918 -0.163645 2.01838 0
M  V30 2284 C 226.246 -1.4495 1.29691 0
M  V30 2285 O 225.501 -1.91725 0.392431 0
M  V30 2286 C 225.8 -0.455872 3.54481 0
M  V30 2287 C 225.466 0.741055 4.44769 0
M  V30 2288 C 224.128 1.06936 4.69167 0
M  V30 2289 C 226.48 1.54075 4.97906 0
M  V30 2290 C 223.808 2.19851 5.43951 0
M  V30 2291 C 226.16 2.66067 5.73926 0
M  V30 2292 C 224.824 2.99381 5.96596 0
M  V30 2293 H 224.094 -0.0598821 0.738576 0
M  V30 2294 H 226.741 0.553283 1.83333 0
M  V30 2295 H 225.046 -1.2544 3.71177 0
M  V30 2296 H 226.743 -0.913802 3.90449 0
M  V30 2297 H 223.333 0.475192 4.25958 0
M  V30 2298 H 227.517 1.30033 4.78963 0
M  V30 2299 H 222.773 2.46006 5.59724 0
M  V30 2300 H 226.947 3.28419 6.14096 0
M  V30 2301 H 224.574 3.86992 6.54325 0
M  V30 2302 N 226.149 -1.5696 0.141893 0
M  V30 2303 C 227.397 -1.95573 -0.509484 0
M  V30 2304 C 227.718 -1.02746 -1.65736 0
M  V30 2305 O 226.988 -0.0880311 -1.95702 0
M  V30 2306 H 225.568 -0.722115 -0.191205 0
M  V30 2307 H 228.23 -1.93697 0.216196 0
M  V30 2308 H 227.326 -2.99171 -0.889 0
M  V30 2309 N 227.627 0.131896 -1.57047 0
M  V30 2310 C 228.56 1.19236 -1.94571 0
M  V30 2311 C 229.538 1.40782 -0.813576 0
M  V30 2312 O 230.722 1.55148 -1.07058 0
M  V30 2313 C 227.849 2.54858 -2.23081 0
M  V30 2314 C 226.895 2.49817 -3.45679 0
M  V30 2315 S 227.728 1.95036 -4.98719 0
M  V30 2316 C 228.884 3.32357 -5.30367 0
M  V30 2317 H 229.117 0.872297 -2.84215 0
M  V30 2318 H 226.65 0.338134 -1.50652 0
M  V30 2319 H 228.608 3.32898 -2.40185 0
M  V30 2320 H 227.269 2.84047 -1.34074 0
M  V30 2321 H 226.462 3.49688 -3.62952 0
M  V30 2322 H 226.064 1.79892 -3.27895 0
M  V30 2323 H 228.356 4.28525 -5.2476 0
M  V30 2324 H 229.299 3.19923 -6.31708 0
M  V30 2325 H 229.707 3.3019 -4.57859 0
M  V30 2326 N 229.106 1.52395 0.401703 0
M  V30 2327 C 230.346 1.68498 1.15705 0
M  V30 2328 C 230.71 0.409748 1.87577 0
M  V30 2329 O 231.911 0.446983 2.65058 0
M  V30 2330 C 230.182 2.87789 2.11924 0
M  V30 2331 S 231.741 3.24415 2.95466 0
M  V30 2332 H 228.559 0.593267 0.391862 0
M  V30 2333 H 231.161 1.90408 0.443282 0
M  V30 2334 H 229.865 3.7884 1.57824 0
M  V30 2335 H 229.396 2.68175 2.87829 0
M  V30 2336 H 231.411 2.73614 4.13944 0
M  V30 2337 N 230.584 -0.659388 1.43143 0
M  V30 2338 C 231.514 -1.78422 1.50625 0
M  V30 2339 C 232.495 -1.66216 0.361443 0
M  V30 2340 O 233.68 -1.85404 0.577834 0
M  V30 2341 C 230.81 -3.16815 1.42287 0
M  V30 2342 C 229.764 -3.43777 2.54954 0
M  V30 2343 C 229.09 -4.81905 2.31671 0
M  V30 2344 C 230.39 -3.39134 3.97222 0
M  V30 2345 H 232.084 -1.72417 2.44771 0
M  V30 2346 H 229.63 -0.828084 1.17808 0
M  V30 2347 H 231.583 -3.95253 1.46127 0
M  V30 2348 H 230.307 -3.23534 0.446435 0
M  V30 2349 H 228.966 -2.67707 2.50457 0
M  V30 2350 H 228.614 -4.85294 1.32284 0
M  V30 2351 H 228.314 -5.00906 3.07192 0
M  V30 2352 H 229.838 -5.62609 2.37284 0
M  V30 2353 H 231.252 -4.07518 4.03239 0
M  V30 2354 H 229.649 -3.69671 4.72719 0
M  V30 2355 H 230.719 -2.37426 4.22797 0
M  V30 2356 N 232.062 -1.29571 -0.897171 0
M  V30 2357 C 233.31 -1.17456 -1.64464 0
M  V30 2358 C 233.631 0.273698 -1.9307 0
M  V30 2359 O 232.901 1.18684 -1.55855 0
M  V30 2360 H 231.481 -0.431706 -0.609622 0
M  V30 2361 H 234.143 -1.62531 -1.07562 0
M  V30 2362 H 233.239 -1.72648 -2.59998 0
M  V30 2363 N 233.54 1.10788 -1.12088 0
M  V30 2364 C 234.49 2.15158 -0.754401 0
M  V30 2365 C 235.474 1.59026 0.244846 0
M  V30 2366 O 236.666 1.76927 0.0509097 0
M  V30 2367 C 233.795 3.42677 -0.206657 0
M  V30 2368 C 232.881 4.05751 -1.23398 0
M  V30 2369 N 233.272 4.43582 -2.43041 0
M  V30 2370 C 231.57 4.32764 -1.07848 0
M  V30 2371 C 232.271 4.93085 -3.08613 0
M  V30 2372 N 231.247 4.89664 -2.36072 0
M  V30 2373 H 235.049 2.42195 -1.6649 0
M  V30 2374 H 232.563 1.27872 -1.00112 0
M  V30 2375 H 234.56 4.16834 0.0740646 0
M  V30 2376 H 233.22 3.17101 0.698342 0
M  V30 2377 H 234.231 4.35395 -2.80449 0
M  V30 2378 H 230.908 4.16863 -0.230483 0
M  V30 2379 H 232.298 5.31933 -4.10483 0
M  V30 2380 N 235.018 0.912232 1.28515 0
M  V30 2381 C 236.429 0.591352 1.77087 0
M  V30 2382 C 236.78 -0.8933 1.74684 0
M  V30 2383 O 235.905 -1.69876 1.34056 0
M  V30 2384 C 236.5 1.06668 3.2157 0
M  V30 2385 C 235.059 0.79675 3.67871 0
M  V30 2386 C 234.206 1.23427 2.48316 0
M  V30 2387 H 237.157 1.09365 1.15 0
M  V30 2388 H 237.178 0.407455 3.78312 0
M  V30 2389 H 236.69 2.14726 3.23287 0
M  V30 2390 H 234.791 -0.270679 3.71616 0
M  V30 2391 H 234.904 1.40343 4.58084 0
M  V30 2392 H 233.268 0.653036 2.46186 0
M  V30 2393 H 234.051 2.32316 2.52753 0
M  V30 2394 N 236.496 -1.42363 0.676048 0
M  V30 2395 C 237.773 -1.95183 0.127726 0
M  V30 2396 C 238.153 -1.61641 -1.35777 0
M  V30 2397 O 237.501 -0.913216 -2.09458 0
M  V30 2398 C 237.711 -3.46721 0.398199 0
M  V30 2399 C 239.059 -4.23427 0.315383 0
M  V30 2400 O 240.083 -3.54649 0.332016 0
M  V30 2401 O 238.942 -5.45888 0.25865 0
M  V30 2402 H 236.036 -0.826992 0.00359427 0
M  V30 2403 H 238.582 -1.52184 0.750864 0
M  V30 2404 H 237.354 -3.64344 1.4272 0
M  V30 2405 H 236.977 -3.96769 -0.256885 0
M  V30 2406 N 237.974 -0.419461 -1.51915 0
M  V30 2407 C 238.906 0.43646 -2.25006 0
M  V30 2408 C 239.919 1.00149 -1.28351 0
M  V30 2409 O 241.108 0.898674 -1.54227 0
M  V30 2410 C 238.208 1.6206 -2.9764 0
M  V30 2411 C 237.381 1.17763 -4.21249 0
M  V30 2412 C 236.44 2.22985 -4.76617 0
M  V30 2413 O 235.466 1.83151 -5.38929 0
M  V30 2414 N 236.668 3.55271 -4.59089 0
M  V30 2415 H 239.433 -0.18989 -2.99098 0
M  V30 2416 H 236.994 -0.247386 -1.59999 0
M  V30 2417 H 238.986 2.32038 -3.31573 0
M  V30 2418 H 237.556 2.15266 -2.2667 0
M  V30 2419 H 236.776 0.305582 -3.93014 0
M  V30 2420 H 238.064 0.858781 -5.015 0
M  V30 2421 H 237.462 3.90377 -4.09417 0
M  V30 2422 H 236.019 4.21195 -4.97432 0
M  V30 2423 N 239.452 1.56882 -0.150215 0
M  V30 2424 C 240.4 2.18214 0.805313 0
M  V30 2425 C 241.394 1.14006 1.25296 0
M  V30 2426 O 242.6 1.3225 1.22107 0
M  V30 2427 H 238.975 0.698762 0.277913 0
M  V30 2428 H 240.946 2.97231 0.263862 0
M  V30 2429 C 239.695 2.82065 2.03309 0
M  V30 2430 H 239.018 3.61968 1.69763 0
M  V30 2431 H 240.458 3.28477 2.68103 0
M  V30 2432 C 238.917 1.80739 2.84315 0
M  V30 2433 O 239.447 1.27983 3.80767 0
M  V30 2434 N 237.653 1.4997 2.48913 0
M  V30 2435 H 237.2 1.93062 1.70542 0
M  V30 2436 H 237.158 0.824217 3.03404 0
M  V30 2437 N 240.93 -0.123565 1.57115 0
M  V30 2438 C 242.341 -0.681198 1.73829 0
M  V30 2439 C 242.692 -1.80535 0.768214 0
M  V30 2440 O 241.817 -2.16317 -0.0599103 0
M  V30 2441 C 242.412 -1.24246 3.15196 0
M  V30 2442 C 240.971 -1.74643 3.33432 0
M  V30 2443 C 240.118 -0.644284 2.69711 0
M  V30 2444 H 243.069 0.102315 1.5837 0
M  V30 2445 H 243.09 -2.11216 3.16493 0
M  V30 2446 H 242.602 -0.424062 3.85776 0
M  V30 2447 H 240.703 -2.58974 2.67886 0
M  V30 2448 H 240.816 -1.85902 4.41562 0
M  V30 2449 H 239.18 -1.07676 2.3082 0
M  V30 2450 H 239.963 0.163058 3.42913 0
M  V30 2451 N 242.408 -1.52605 -0.393616 0
M  V30 2452 C 243.318 -1.79971 -1.50492 0
M  V30 2453 C 244.334 -0.686181 -1.59899 0
M  V30 2454 O 245.51 -0.973274 -1.76322 0
M  V30 2455 C 242.575 -1.95867 -2.86072 0
M  V30 2456 C 241.636 -3.19781 -2.86424 0
M  V30 2457 C 240.869 -3.34909 -4.15538 0
M  V30 2458 O 241.092 -2.54948 -5.10253 0
M  V30 2459 O 240.026 -4.28141 -4.23059 0
M  V30 2460 H 243.852 -2.74328 -1.30299 0
M  V30 2461 H 241.437 -1.3764 -0.581005 0
M  V30 2462 H 243.319 -2.08056 -3.66457 0
M  V30 2463 H 241.994 -1.04699 -3.063 0
M  V30 2464 H 240.901 -3.13038 -2.04837 0
M  V30 2465 H 242.234 -4.1078 -2.71147 0
M  V30 2466 N 243.887 0.651787 -1.4349 0
M  V30 2467 C 245.133 1.41376 -1.45398 0
M  V30 2468 C 245.466 1.94041 -0.0784823 0
M  V30 2469 O 244.741 1.72379 0.900878 0
M  V30 2470 C 245.024 2.59414 -2.49752 0
M  V30 2471 C 244.877 2.12232 -3.96582 0
M  V30 2472 C 246.196 3.61626 -2.50827 0
M  V30 2473 H 243.315 0.512719 -0.529422 0
M  V30 2474 H 245.957 0.738796 -1.75048 0
M  V30 2475 H 244.107 3.16997 -2.246 0
M  V30 2476 H 245.779 1.59639 -4.32797 0
M  V30 2477 H 244.022 1.43592 -4.09346 0
M  V30 2478 H 244.693 2.9712 -4.65214 0
M  V30 2479 H 247.169 3.13805 -2.7325 0
M  V30 2480 H 246.045 4.41766 -3.25783 0
M  V30 2481 H 246.306 4.14314 -1.5426 0
M  V30 2482 N 245.365 1.30045 0.890287 0
M  V30 2483 C 246.312 1.15976 1.99545 0
M  V30 2484 C 247.282 0.0506202 1.66023 0
M  V30 2485 O 248.467 0.219847 1.89529 0
M  V30 2486 C 245.607 0.852054 3.34416 0
M  V30 2487 C 244.72 2.04255 3.80662 0
M  V30 2488 C 243.855 1.6734 5.04154 0
M  V30 2489 C 242.894 2.82916 5.42794 0
M  V30 2490 N 242.031 2.46333 6.57468 0
M  V30 2491 H 246.871 2.10524 2.10911 0
M  V30 2492 H 244.408 1.04749 1.03276 0
M  V30 2493 H 246.366 0.654296 4.12037 0
M  V30 2494 H 244.996 -0.0565502 3.2275 0
M  V30 2495 H 244.048 2.35172 2.98995 0
M  V30 2496 H 245.36 2.90826 4.05242 0
M  V30 2497 H 244.514 1.43908 5.89386 0
M  V30 2498 H 243.253 0.779308 4.81433 0
M  V30 2499 H 242.258 3.0702 4.56091 0
M  V30 2500 H 243.483 3.73004 5.6749 0
M  V30 2501 H 241.429 1.59423 6.36334 0
M  V30 2502 H 241.346 3.26436 6.81891 0
M  V30 2503 H 242.614 2.26244 7.45945 0
M  V30 2504 N 246.843 -1.10192 1.12674 0
M  V30 2505 C 248.254 -1.63707 0.897604 0
M  V30 2506 C 248.605 -1.87812 -0.567546 0
M  V30 2507 O 247.73 -1.62196 -1.43253 0
M  V30 2508 C 248.325 -2.974 1.62292 0
M  V30 2509 C 246.884 -3.47772 1.43986 0
M  V30 2510 C 246.031 -2.22332 1.65722 0
M  V30 2511 H 248.982 -0.936587 1.28116 0
M  V30 2512 H 249.003 -3.64986 1.07541 0
M  V30 2513 H 248.515 -2.79824 2.68924 0
M  V30 2514 H 246.616 -3.70487 0.396206 0
M  V30 2515 H 246.729 -4.25723 2.19765 0
M  V30 2516 H 245.093 -2.30599 1.08149 0
M  V30 2517 H 245.876 -2.07285 2.73657 0
M  V30 2518 N 248.321 -0.919034 -1.28029 0
M  V30 2519 C 249.737 -0.617972 -1.4715 0
M  V30 2520 C 249.937 0.835242 -1.83374 0
M  V30 2521 O 248.993 1.61388 -1.94191 0
M  V30 2522 C 250.306 -1.56041 -2.57044 0
M  V30 2523 C 251.854 -1.56769 -2.7091 0
M  V30 2524 C 252.329 -2.49688 -3.83953 0
M  V30 2525 N 253.82 -2.47845 -3.91314 0
M  V30 2526 C 254.555 -3.16437 -4.78179 0
M  V30 2527 N 254.051 -3.94376 -5.69596 0
M  V30 2528 N 255.844 -3.05498 -4.71834 0
M  V30 2529 H 247.995 -1.85866 -1.02798 0
M  V30 2530 H 250.258 -0.797506 -0.512531 0
M  V30 2531 H 249.964 -2.59671 -2.372 0
M  V30 2532 H 249.838 -1.29551 -3.54255 0
M  V30 2533 H 252.225 -0.538745 -2.90141 0
M  V30 2534 H 252.306 -1.87305 -1.74214 0
M  V30 2535 H 251.95 -3.52688 -3.65477 0
M  V30 2536 H 251.88 -2.16453 -4.80058 0
M  V30 2537 H 254.371 -1.91234 -3.25941 0
M  V30 2538 H 254.684 -4.43721 -6.32718 0
M  V30 2539 H 253.029 -3.98481 -5.69419 0
M  V30 2540 H 256.22 -2.44108 -3.99411 0
M  V30 2541 H 256.393 -3.59225 -5.39316 0
M  V30 2542 N 249.799 1.42003 -0.683588 0
M  V30 2543 C 250.729 2.33487 -0.024866 0
M  V30 2544 C 251.71 1.51163 0.779975 0
M  V30 2545 O 252.895 1.79739 0.735362 0
M  V30 2546 C 250.025 3.3487 0.920836 0
M  V30 2547 C 248.979 4.27414 0.223958 0
M  V30 2548 C 248.305 5.19074 1.2832 0
M  V30 2549 C 249.605 5.14445 -0.90242 0
M  V30 2550 H 251.299 2.88819 -0.788921 0
M  V30 2551 H 248.845 1.38873 -0.38083 0
M  V30 2552 H 250.798 3.97787 1.39081 0
M  V30 2553 H 249.522 2.77861 1.71642 0
M  V30 2554 H 248.181 3.65904 -0.225864 0
M  V30 2555 H 247.829 4.58387 2.071 0
M  V30 2556 H 247.529 5.81822 0.821995 0
M  V30 2557 H 249.053 5.84867 1.75392 0
M  V30 2558 H 250.467 5.70998 -0.513272 0
M  V30 2559 H 248.864 5.86072 -1.28997 0
M  V30 2560 H 249.934 4.52322 -1.74737 0
M  V30 2561 N 251.277 0.427512 1.51691 0
M  V30 2562 C 252.688 -0.0378867 1.86662 0
M  V30 2563 C 253.039 -1.42819 1.34525 0
M  V30 2564 O 252.164 -2.05037 0.692014 0
M  V30 2565 C 252.759 -0.0755266 3.38716 0
M  V30 2566 C 251.318 -0.485309 3.73258 0
M  V30 2567 C 250.465 0.328399 2.75349 0
M  V30 2568 H 253.416 0.64379 1.45055 0
M  V30 2569 H 253.437 -0.887056 3.70016 0
M  V30 2570 H 252.949 0.936487 3.76632 0
M  V30 2571 H 251.05 -1.50329 3.40928 0
M  V30 2572 H 251.163 -0.21693 4.78609 0
M  V30 2573 H 249.527 -0.211905 2.53817 0
M  V30 2574 H 250.31 1.3391 3.16106 0
M  V30 2575 N 252.755 -1.56801 0.158532 0
M  V30 2576 C 253.718 -2.16138 -0.762705 0
M  V30 2577 C 254.718 -1.1061 -1.16713 0
M  V30 2578 O 255.908 -1.36191 -1.08617 0
M  V30 2579 C 253.04 -2.73386 -2.03649 0
M  V30 2580 H 254.233 -2.98886 -0.246354 0
M  V30 2581 H 251.786 -1.56035 -0.0909744 0
M  V30 2582 H 252.521 -1.94335 -2.59623 0
M  V30 2583 H 252.306 -3.50601 -1.75559 0
M  V30 2584 H 253.796 -3.19065 -2.6942 0
M  V30 2585 N 254.233 0.115231 -1.57178 0
M  V30 2586 C 255.183 1.14707 -1.97044 0
M  V30 2587 C 256.167 1.36866 -0.845957 0
M  V30 2588 O 257.359 1.37895 -1.10968 0
M  V30 2589 C 254.488 2.47266 -2.38148 0
M  V30 2590 C 253.574 2.28566 -3.57237 0
M  V30 2591 N 253.965 1.79685 -4.72807 0
M  V30 2592 C 252.263 2.59208 -3.62943 0
M  V30 2593 C 252.964 1.74781 -5.54821 0
M  V30 2594 N 251.94 2.19264 -4.97417 0
M  V30 2595 H 255.742 0.761754 -2.83857 0
M  V30 2596 H 253.256 0.322928 -1.59157 0
M  V30 2597 H 255.253 3.219 -2.64927 0
M  V30 2598 H 253.913 2.86552 -1.52702 0
M  V30 2599 H 254.924 1.49177 -4.9595 0
M  V30 2600 H 251.601 3.02154 -2.88113 0
M  V30 2601 H 252.991 1.38212 -6.57531 0
M  V30 2602 N 255.711 1.52812 0.385517 0
M  V30 2603 C 256.957 1.68275 1.13188 0
M  V30 2604 C 257.29 0.423179 1.89533 0
M  V30 2605 O 256.565 -0.579113 1.85679 0
M  V30 2606 C 256.848 2.92001 2.1073 0
M  V30 2607 C 256.701 4.28067 1.38125 0
M  V30 2608 C 258.02 3.11283 3.11113 0
M  V30 2609 H 255.139 0.612352 0.410115 0
M  V30 2610 H 257.781 1.85415 0.414869 0
M  V30 2611 H 255.931 2.77519 2.71874 0
M  V30 2612 H 257.603 4.54324 0.799187 0
M  V30 2613 H 255.846 4.28388 0.683092 0
M  V30 2614 H 256.517 5.10733 2.09417 0
M  V30 2615 H 258.993 3.2482 2.6006 0
M  V30 2616 H 257.869 3.99325 3.76605 0
M  V30 2617 H 258.13 2.25656 3.80173 0
M  V30 2618 N 257.189 -0.644168 1.43834 0
M  V30 2619 C 258.435 -1.40603 1.46146 0
M  V30 2620 C 258.768 -1.93997 0.0887717 0
M  V30 2621 O 258.043 -1.72854 -0.891724 0
M  V30 2622 C 258.326 -2.58086 2.51124 0
M  V30 2623 C 258.179 -2.10126 3.97702 0
M  V30 2624 C 259.498 -3.60291 2.52742 0
M  V30 2625 H 256.617 -0.509905 0.532134 0
M  V30 2626 H 259.259 -0.729502 1.75437 0
M  V30 2627 H 257.409 -3.15801 2.26278 0
M  V30 2628 H 259.081 -1.57342 4.33637 0
M  V30 2629 H 257.324 -1.41419 4.10101 0
M  V30 2630 H 257.995 -2.94649 4.66783 0
M  V30 2631 H 260.471 -3.12352 2.7491 0
M  V30 2632 H 259.347 -4.40032 3.28121 0
M  V30 2633 H 259.608 -4.1349 1.56455 0
M  V30 2634 N 258.668 -1.30515 -0.883378 0
M  V30 2635 C 259.914 -1.19607 -1.63774 0
M  V30 2636 C 260.247 0.248314 -1.92606 0
M  V30 2637 O 259.522 1.17742 -1.54813 0
M  V30 2638 C 259.805 -2.02669 -2.97653 0
M  V30 2639 C 259.658 -3.55335 -2.75784 0
M  V30 2640 C 260.977 -1.86573 -3.98596 0
M  V30 2641 H 258.096 -0.435856 -0.594305 0
M  V30 2642 H 260.738 -1.60165 -1.02212 0
M  V30 2643 H 258.888 -1.68208 -3.50197 0
M  V30 2644 H 260.56 -3.99863 -2.30016 0
M  V30 2645 H 258.803 -3.79438 -2.1026 0
M  V30 2646 H 259.474 -4.08745 -3.70988 0
M  V30 2647 H 261.95 -2.16703 -3.55217 0
M  V30 2648 H 260.826 -2.47014 -4.90179 0
M  V30 2649 H 261.087 -0.825321 -4.34328 0
M  V30 2650 N 260.146 1.09593 -1.13257 0
M  V30 2651 C 261.096 2.14345 -0.777179 0
M  V30 2652 C 262.08 1.59277 0.227966 0
M  V30 2653 O 263.272 1.76971 0.0321413 0
M  V30 2654 C 260.401 3.42439 -0.242991 0
M  V30 2655 C 259.487 4.04419 -1.27694 0
M  V30 2656 N 259.878 4.40979 -2.47732 0
M  V30 2657 C 258.176 4.31596 -1.12432 0
M  V30 2658 C 258.877 4.89784 -3.13826 0
M  V30 2659 N 257.853 4.87133 -2.41252 0
M  V30 2660 H 261.655 2.40415 -1.69049 0
M  V30 2661 H 259.169 1.26803 -1.01463 0
M  V30 2662 H 261.166 4.16889 0.0298496 0
M  V30 2663 H 259.826 3.17824 0.66467 0
M  V30 2664 H 260.837 4.32396 -2.85051 0
M  V30 2665 H 257.514 4.16595 -0.274684 0
M  V30 2666 H 258.904 5.2755 -4.16102 0
M  V30 2667 N 261.624 0.925811 1.2754 0
M  V30 2668 C 262.534 0.428993 2.30644 0
M  V30 2669 C 263.55 -0.489387 1.66976 0
M  V30 2670 O 264.726 -0.372653 1.97922 0
M  V30 2671 C 261.791 -0.311967 3.45294 0
M  V30 2672 C 260.852 0.641098 4.24486 0
M  V30 2673 C 260.085 -0.0645955 5.33661 0
M  V30 2674 O 260.308 -1.28429 5.55754 0
M  V30 2675 O 259.242 0.606265 5.98839 0
M  V30 2676 H 263.068 1.28504 2.75173 0
M  V30 2677 H 260.653 0.691086 1.32455 0
M  V30 2678 H 262.535 -0.729972 4.15029 0
M  V30 2679 H 261.21 -1.14365 3.02824 0
M  V30 2680 H 260.117 1.10874 3.57292 0
M  V30 2681 H 261.45 1.43995 4.70666 0
M  V30 2682 N 263.102 -1.41638 0.69111 0
M  V30 2683 C 264.05 -2.32597 0.0115199 0
M  V30 2684 C 265.044 -1.5072 -0.773296 0
M  V30 2685 O 266.25 -1.66685 -0.67942 0
M  V30 2686 H 262.625 -0.751849 -0.0150746 0
M  V30 2687 H 264.596 -2.87593 0.795791 0
M  V30 2688 C 263.345 -3.35467 -0.914172 0
M  V30 2689 H 262.668 -3.9852 -0.319687 0
M  V30 2690 H 264.108 -4.01662 -1.35808 0
M  V30 2691 C 262.567 -2.69004 -2.02826 0
M  V30 2692 O 263.097 -2.53444 -3.11655 0
M  V30 2693 N 261.303 -2.2777 -1.80469 0
M  V30 2694 H 260.85 -2.40626 -0.919615 0
M  V30 2695 H 260.808 -1.83635 -2.55197 0
M  V30 2696 N 264.58 -0.43555 -1.51462 0
M  V30 2697 C 265.512 0.41257 -2.25456 0
M  V30 2698 C 266.525 0.987822 -1.29406 0
M  V30 2699 O 267.714 0.882266 -1.55172 0
M  V30 2700 C 264.814 1.58894 -2.99342 0
M  V30 2701 C 263.987 1.13288 -4.22474 0
M  V30 2702 C 263.046 2.17917 -4.78956 0
M  V30 2703 O 262.072 1.77425 -5.40841 0
M  V30 2704 N 263.274 3.50382 -4.62832 0
M  V30 2705 H 266.039 -0.221603 -2.9888 0
M  V30 2706 H 263.6 -0.264342 -1.59727 0
M  V30 2707 H 265.592 2.28508 -3.34015 0
M  V30 2708 H 264.162 2.12849 -2.28941 0
M  V30 2709 H 263.382 0.263881 -3.93316 0
M  V30 2710 H 264.67 0.805542 -5.02383 0
M  V30 2711 H 264.068 3.86013 -4.13534 0
M  V30 2712 H 262.625 4.15895 -5.01871 0
M  V30 2713 N 266.058 1.56714 -0.166846 0
M  V30 2714 C 267.288 2.00828 0.48494 0
M  V30 2715 C 267.696 1.04612 1.57648 0
M  V30 2716 O 267.039 0.0383201 1.8366 0
M  V30 2717 C 267.101 3.4137 1.12723 0
M  V30 2718 C 266.765 4.56654 0.177886 0
M  V30 2719 C 267.762 5.16402 -0.60207 0
M  V30 2720 C 265.447 5.02244 0.0750139 0
M  V30 2721 C 267.441 6.20167 -1.47215 0
M  V30 2722 C 265.128 6.05859 -0.798649 0
M  V30 2723 C 266.126 6.64691 -1.57082 0
M  V30 2724 O 265.814 7.66297 -2.42989 0
M  V30 2725 H 265.546 0.663587 0.128953 0
M  V30 2726 H 268.1 2.03692 -0.264365 0
M  V30 2727 H 266.33 3.35406 1.92457 0
M  V30 2728 H 268.019 3.69466 1.68076 0
M  V30 2729 H 268.785 4.82065 -0.53274 0
M  V30 2730 H 264.664 4.56167 0.665812 0
M  V30 2731 H 268.208 6.66016 -2.07531 0
M  V30 2732 H 264.105 6.39621 -0.869199 0
M  V30 2733 H 264.873 7.83601 -2.36455 0
M  V30 2734 N 267.536 -0.106894 1.57237 0
M  V30 2735 C 268.468 -1.15646 1.97885 0
M  V30 2736 C 269.481 -1.36981 0.879779 0
M  V30 2737 O 270.67 -1.35841 1.15799 0
M  V30 2738 C 267.77 -2.51425 2.27241 0
M  V30 2739 C 266.943 -2.50529 3.58545 0
M  V30 2740 C 266.002 -3.68145 3.75973 0
M  V30 2741 O 265.028 -3.51176 4.47956 0
M  V30 2742 N 266.23 -4.87177 3.15656 0
M  V30 2743 H 268.995 -0.81059 2.8853 0
M  V30 2744 H 266.556 -0.296024 1.59171 0
M  V30 2745 H 268.548 -3.28689 2.36105 0
M  V30 2746 H 267.118 -2.78147 1.42663 0
M  V30 2747 H 266.338 -1.58894 3.60758 0
M  V30 2748 H 267.626 -2.46997 4.44826 0
M  V30 2749 H 267.024 -5.03868 2.57165 0
M  V30 2750 H 265.581 -5.62075 3.30023 0
M  V30 2751 N 269.014 -1.53014 -0.377408 0
M  V30 2752 C 269.924 -1.81557 -1.48574 0
M  V30 2753 C 270.94 -0.703102 -1.59162 0
M  V30 2754 O 272.116 -0.99192 -1.75279 0
M  V30 2755 C 269.181 -1.9889 -2.83978 0
M  V30 2756 C 268.242 -3.22801 -2.83016 0
M  V30 2757 C 267.475 -3.39298 -4.11962 0
M  V30 2758 O 267.698 -2.60345 -5.0752 0
M  V30 2759 O 266.632 -4.32604 -4.18494 0
M  V30 2760 H 270.458 -2.75695 -1.27382 0
M  V30 2761 H 268.043 -1.38248 -0.566373 0
M  V30 2762 H 269.925 -2.11931 -3.6423 0
M  V30 2763 H 268.6 -1.07942 -3.05172 0
M  V30 2764 H 267.507 -3.15193 -2.01505 0
M  V30 2765 H 268.84 -4.13632 -2.66775 0
M  V30 2766 N 270.492 0.636531 -1.44174 0
M  V30 2767 C 271.422 1.76003 -1.53444 0
M  V30 2768 C 272.403 1.65619 -0.387841 0
M  V30 2769 O 273.588 1.84461 -0.607257 0
M  V30 2770 C 270.718 3.14511 -1.4731 0
M  V30 2771 C 269.672 3.39677 -2.60391 0
M  V30 2772 C 268.998 4.78159 -2.39308 0
M  V30 2773 C 270.298 3.32772 -4.02567 0
M  V30 2774 H 271.992 1.68501 -2.47483 0
M  V30 2775 H 269.538 0.809237 -1.19111 0
M  V30 2776 H 271.491 3.92878 -1.52397 0
M  V30 2777 H 270.215 3.22783 -0.49785 0
M  V30 2778 H 268.874 2.63688 -2.54684 0
M  V30 2779 H 268.522 4.83128 -1.39988 0
M  V30 2780 H 268.222 4.95956 -3.15122 0
M  V30 2781 H 269.746 5.58762 -2.46205 0
M  V30 2782 H 271.16 4.01051 -4.09672 0
M  V30 2783 H 269.557 3.62104 -4.7854 0
M  V30 2784 H 270.627 2.30669 -4.2652 0
M  V30 2785 N 271.97 1.30982 0.876444 0
M  V30 2786 C 272.918 1.18006 2.00443 0
M  V30 2787 C 273.912 0.0898871 1.69161 0
M  V30 2788 O 275.118 0.251333 1.78237 0
M  V30 2789 H 271.493 0.365196 0.65737 0
M  V30 2790 H 273.464 2.13453 2.0852 0
M  V30 2791 C 272.213 0.897521 3.35916 0
M  V30 2792 H 271.536 1.7285 3.60504 0
M  V30 2793 H 272.976 0.846874 4.15456 0
M  V30 2794 C 271.435 -0.399674 3.34521 0
M  V30 2795 O 271.965 -1.41852 3.7582 0
M  V30 2796 N 270.171 -0.413893 2.87637 0
M  V30 2797 H 269.718 0.41571 2.54224 0
M  V30 2798 H 269.676 -1.28175 2.87086 0
M  V30 2799 N 273.449 -1.08991 1.13837 0
M  V30 2800 C 274.379 -2.17771 0.842507 0
M  V30 2801 C 275.36 -1.6892 -0.20001 0
M  V30 2802 O 276.545 -1.94113 -0.0579731 0
M  V30 2803 C 273.675 -3.4589 0.312644 0
M  V30 2804 C 272.629 -4.08099 1.28992 0
M  V30 2805 C 271.955 -5.31098 0.619623 0
M  V30 2806 C 273.255 -4.50077 2.65005 0
M  V30 2807 H 274.949 -2.42777 1.75213 0
M  V30 2808 H 272.495 -1.16682 0.843875 0
M  V30 2809 H 274.448 -4.21297 0.0933043 0
M  V30 2810 H 273.172 -3.20419 -0.632382 0
M  V30 2811 H 271.831 -3.34717 1.49533 0
M  V30 2812 H 271.479 -5.0191 -0.33102 0
M  V30 2813 H 271.179 -5.73674 1.27167 0
M  V30 2814 H 272.703 -6.09224 0.409669 0
M  V30 2815 H 274.117 -5.16688 2.48407 0
M  V30 2816 H 272.514 -5.03553 3.26427 0
M  V30 2817 H 273.584 -3.62257 3.22332 0
M  V30 2818 N 274.927 -0.932562 -1.27047 0
M  V30 2819 C 276.204 -0.49377 -1.89265 0
M  V30 2820 C 276.584 1.02833 -1.8436 0
M  V30 2821 O 275.932 1.88461 -1.29209 0
M  V30 2822 C 276.142 -1.04536 -3.32976 0
M  V30 2823 C 277.49 -1.10879 -4.09867 0
M  V30 2824 O 278.514 -0.995327 -3.42011 0
M  V30 2825 O 277.373 -1.28417 -5.31198 0
M  V30 2826 H 274.467 -0.159596 -0.811454 0
M  V30 2827 H 277.013 -1.02457 -1.3528 0
M  V30 2828 H 275.785 -2.08913 -3.30864 0
M  V30 2829 H 275.408 -0.496494 -3.94488 0
M  V30 2830 N 276.405 1.4127 -0.698611 0
M  V30 2831 C 277.682 1.94955 -0.158762 0
M  V30 2832 C 278.062 1.63781 1.33188 0
M  V30 2833 O 277.41 0.946423 2.07979 0
M  V30 2834 C 277.62 3.46044 -0.453309 0
M  V30 2835 C 278.968 4.22872 -0.382707 0
M  V30 2836 O 279.992 3.54076 -0.388396 0
M  V30 2837 O 278.851 5.45407 -0.345463 0
M  V30 2838 H 275.945 0.82683 -0.0167505 0
M  V30 2839 H 278.491 1.50971 -0.77498 0
M  V30 2840 H 277.263 3.62028 -1.48498 0
M  V30 2841 H 276.886 3.97128 0.19373 0
M  V30 2842 N 277.883 0.443576 1.51229 0
M  V30 2843 C 279.132 -0.122332 2.01329 0
M  V30 2844 C 279.445 -1.43237 1.33201 0
M  V30 2845 O 280.651 -2.0816 1.74304 0
M  V30 2846 C 279.107 -0.268551 3.58897 0
M  V30 2847 C 278.715 1.03142 4.35965 0
M  V30 2848 C 280.459 -0.787894 4.17124 0
M  V30 2849 C 278.366 0.850504 5.85252 0
M  V30 2850 H 277.296 -0.0494929 0.752374 0
M  V30 2851 H 279.947 0.574289 1.74282 0
M  V30 2852 H 278.329 -1.02832 3.82415 0
M  V30 2853 H 279.503 1.80001 4.24189 0
M  V30 2854 H 277.818 1.47977 3.89219 0
M  V30 2855 H 280.415 -0.939841 5.26375 0
M  V30 2856 H 280.758 -1.77201 3.76703 0
M  V30 2857 H 281.291 -0.0862669 3.97706 0
M  V30 2858 H 278.03 1.80718 6.30096 0
M  V30 2859 H 277.55 0.121825 5.99676 0
M  V30 2860 H 279.229 0.506163 6.45017 0
M  V30 2861 N 279.361 -1.56624 0.175154 0
M  V30 2862 C 280.293 -2.15333 -0.785128 0
M  V30 2863 C 281.306 -1.1099 -1.19101 0
M  V30 2864 O 282.495 -1.38162 -1.13019 0
M  V30 2865 C 279.595 -2.68427 -2.06882 0
M  V30 2866 C 278.768 -3.97466 -1.8259 0
M  V30 2867 C 277.827 -4.35585 -2.95215 0
M  V30 2868 O 276.853 -5.03389 -2.65684 0
M  V30 2869 N 278.055 -3.97457 -4.23094 0
M  V30 2870 H 280.82 -2.98359 -0.283187 0
M  V30 2871 H 278.381 -1.61898 -0.00749817 0
M  V30 2872 H 280.373 -2.90924 -2.81328 0
M  V30 2873 H 278.943 -1.89968 -2.48256 0
M  V30 2874 H 278.163 -3.83307 -0.920287 0
M  V30 2875 H 279.451 -4.81736 -1.63733 0
M  V30 2876 H 278.849 -3.42878 -4.49945 0
M  V30 2877 H 277.406 -4.24947 -4.9423 0
M  V30 2878 N 280.839 0.0985539 -1.57292 0
M  V30 2879 C 282.064 0.820196 -1.90493 0
M  V30 2880 C 282.489 1.71658 -0.769094 0
M  V30 2881 O 281.847 1.79133 0.279495 0
M  V30 2882 C 281.895 1.61242 -3.22542 0
M  V30 2883 O 280.999 2.72108 -3.09888 0
M  V30 2884 H 280.34 0.225547 -0.62452 0
M  V30 2885 H 282.87 0.0748159 -2.04463 0
M  V30 2886 H 282.88 1.99737 -3.55766 0
M  V30 2887 H 281.555 0.954535 -4.04798 0
M  V30 2888 H 280.132 2.36667 -2.88172 0
M  V30 2889 N 282.317 1.53212 0.369288 0
M  V30 2890 C 283.547 1.72868 1.13139 0
M  V30 2891 C 283.955 0.455754 1.83629 0
M  V30 2892 O 283.298 -0.580861 1.74275 0
M  V30 2893 C 283.36 2.83667 2.20847 0
M  V30 2894 C 283.024 4.24142 1.70155 0
M  V30 2895 C 284.021 5.06619 1.16763 0
M  V30 2896 C 281.706 4.70539 1.7578 0
M  V30 2897 C 283.7 6.33581 0.696678 0
M  V30 2898 C 281.387 5.97481 1.28297 0
M  V30 2899 C 282.385 6.78833 0.753307 0
M  V30 2900 O 282.073 8.03393 0.285475 0
M  V30 2901 H 281.805 0.581707 0.344373 0
M  V30 2902 H 284.359 2.00736 0.435243 0
M  V30 2903 H 282.589 2.51265 2.93944 0
M  V30 2904 H 284.278 2.91536 2.82421 0
M  V30 2905 H 285.044 4.71948 1.11758 0
M  V30 2906 H 280.923 4.07293 2.15949 0
M  V30 2907 H 284.467 6.97027 0.282581 0
M  V30 2908 H 280.364 6.31651 1.32994 0
M  V30 2909 H 281.132 8.17497 0.405145 0
M  V30 2910 N 283.795 -0.628877 1.44509 0
M  V30 2911 C 285.072 -1.38733 1.37886 0
M  V30 2912 C 285.452 -2.11065 0.0387008 0
M  V30 2913 O 284.8 -2.06476 -0.97878 0
M  V30 2914 C 285.01 -2.35188 2.57852 0
M  V30 2915 C 286.358 -2.9845 3.02014 0
M  V30 2916 O 287.382 -2.45513 2.58073 0
M  V30 2917 O 286.241 -3.94487 3.78209 0
M  V30 2918 H 283.335 -0.621015 0.54614 0
M  V30 2919 H 285.881 -0.653744 1.56602 0
M  V30 2920 H 284.653 -1.80855 3.46998 0
M  V30 2921 H 284.276 -3.1596 2.4136 0
M  V30 2922 N 285.273 -1.31445 -0.869486 0
M  V30 2923 C 286.205 -1.14955 -1.98287 0
M  V30 2924 C 287.218 -0.0885037 -1.62559 0
M  V30 2925 O 288.407 -0.336044 -1.75308 0
M  V30 2926 C 285.507 -0.734255 -3.3085 0
M  V30 2927 C 284.68 -1.88042 -3.94917 0
M  V30 2928 C 283.739 -1.4511 -5.05796 0
M  V30 2929 O 282.765 -2.16082 -5.2659 0
M  V30 2930 N 283.967 -0.338763 -5.79511 0
M  V30 2931 H 286.732 -2.10856 -2.12979 0
M  V30 2932 H 284.293 -1.23786 -1.04349 0
M  V30 2933 H 286.285 -0.42975 -4.02412 0
M  V30 2934 H 284.855 0.133158 -3.12316 0
M  V30 2935 H 284.075 -2.35222 -3.1633 0
M  V30 2936 H 285.363 -2.6481 -4.34457 0
M  V30 2937 H 284.761 0.252274 -5.65137 0
M  V30 2938 H 283.318 -0.0937925 -6.51733 0
M  V30 2939 N 286.751 1.08385 -1.14413 0
M  V30 2940 C 287.979 1.84517 -0.936001 0
M  V30 2941 C 288.394 1.81626 0.515503 0
M  V30 2942 O 287.751 1.22008 1.35721 0
M  V30 2943 C 287.802 3.32049 -1.42918 0
M  V30 2944 O 287.523 3.34951 -2.82381 0
M  V30 2945 C 289.024 4.24986 -1.26103 0
M  V30 2946 H 286.244 0.582491 -0.333084 0
M  V30 2947 H 288.788 1.36885 -1.5193 0
M  V30 2948 H 286.943 3.7707 -0.888641 0
M  V30 2949 H 287.357 4.27048 -3.04517 0
M  V30 2950 H 288.831 5.26615 -1.6547 0
M  V30 2951 H 289.308 4.38726 -0.20392 0
M  V30 2952 H 289.914 3.85791 -1.79012 0
M  V30 2953 N 288.23 0.939286 1.26551 0
M  V30 2954 C 289.163 0.391702 2.24813 0
M  V30 2955 C 290.141 -0.518421 1.54114 0
M  V30 2956 O 291.325 -0.456299 1.82894 0
M  V30 2957 C 288.452 -0.437382 3.35864 0
M  V30 2958 C 287.498 0.410946 4.24516 0
M  V30 2959 S 288.331 1.83372 5.03125 0
M  V30 2960 C 289.487 1.01264 6.17654 0
M  V30 2961 H 289.72 1.22448 2.70913 0
M  V30 2962 H 287.253 0.742269 1.35387 0
M  V30 2963 H 289.211 -0.909837 4.0029 0
M  V30 2964 H 287.872 -1.24482 2.8838 0
M  V30 2965 H 287.065 -0.224191 5.03501 0
M  V30 2966 H 286.667 0.818014 3.64945 0
M  V30 2967 H 288.959 0.254023 6.77024 0
M  V30 2968 H 289.902 1.77589 6.85469 0
M  V30 2969 H 290.31 0.549532 5.61819 0
M  V30 2970 N 289.708 -1.40897 0.706093 0
M  V30 2971 C 290.64 -2.29199 0.00815776 0
M  V30 2972 C 291.653 -1.45336 -0.733582 0
M  V30 2973 O 292.842 -1.68727 -0.582537 0
M  V30 2974 C 289.942 -3.23417 -1.01265 0
M  V30 2975 C 289.115 -4.36089 -0.338387 0
M  V30 2976 C 288.174 -5.10811 -1.26326 0
M  V30 2977 O 287.2 -5.64215 -0.751651 0
M  V30 2978 N 288.402 -5.19269 -2.595 0
M  V30 2979 H 291.167 -2.89738 0.766297 0
M  V30 2980 H 288.728 -1.52164 0.55296 0
M  V30 2981 H 290.72 -3.70276 -1.63334 0
M  V30 2982 H 289.29 -2.64112 -1.67223 0
M  V30 2983 H 288.51 -3.91479 0.462352 0
M  V30 2984 H 289.798 -5.08634 0.130031 0
M  V30 2985 H 289.196 -4.77347 -3.03573 0
M  V30 2986 H 287.753 -5.69667 -3.16737 0
M  V30 2987 N 291.186 -0.45159 -1.50991 0
M  V30 2988 C 292.149 0.341117 -2.26647 0
M  V30 2989 C 293.149 0.937422 -1.30649 0
M  V30 2990 O 294.339 0.809644 -1.54241 0
M  V30 2991 C 291.471 1.48398 -3.06905 0
M  V30 2992 H 292.664 -0.322117 -2.98165 0
M  V30 2993 H 290.217 -0.205122 -1.54948 0
M  V30 2994 H 290.952 2.18284 -2.39838 0
M  V30 2995 H 290.737 1.06241 -3.77432 0
M  V30 2996 H 292.227 2.04367 -3.64176 0
M  V30 2997 N 292.664 1.56529 -0.183458 0
M  V30 2998 C 293.894 2.01331 0.463612 0
M  V30 2999 C 294.302 1.06278 1.5653 0
M  V30 3000 O 293.645 0.0577976 1.83609 0
M  V30 3001 C 293.707 3.42547 1.09096 0
M  V30 3002 C 293.371 4.56817 0.129442 0
M  V30 3003 C 294.368 5.15734 -0.656807 0
M  V30 3004 C 292.053 5.02295 0.02174 0
M  V30 3005 C 294.047 6.1857 -1.53784 0
M  V30 3006 C 291.734 6.04978 -0.862864 0
M  V30 3007 C 292.732 6.62988 -1.64123 0
M  V30 3008 O 292.42 7.63677 -2.51103 0
M  V30 3009 H 292.152 0.664917 0.121907 0
M  V30 3010 H 294.706 2.034 -0.285954 0
M  V30 3011 H 292.936 3.37428 1.88889 0
M  V30 3012 H 294.625 3.71228 1.64148 0
M  V30 3013 H 295.391 4.81473 -0.583839 0
M  V30 3014 H 291.27 4.56847 0.617392 0
M  V30 3015 H 294.814 6.63777 -2.14583 0
M  V30 3016 H 290.711 6.38663 -0.93699 0
M  V30 3017 H 291.479 7.81049 -2.44753 0
M  V30 3018 N 294.142 -0.090211 1.57342 0
M  V30 3019 C 295.372 -0.805055 1.90269 0
M  V30 3020 C 295.78 -1.72561 0.775842 0
M  V30 3021 O 295.123 -1.81839 -0.260843 0
M  V30 3022 C 295.185 -1.66734 3.18497 0
M  V30 3023 C 294.849 -0.918092 4.47683 0
M  V30 3024 C 295.846 -0.245674 5.19319 0
M  V30 3025 C 293.531 -0.890724 4.94339 0
M  V30 3026 C 295.525 0.444088 6.35851 0
M  V30 3027 C 293.212 -0.197179 6.10782 0
M  V30 3028 C 294.21 0.469044 6.81388 0
M  V30 3029 O 293.898 1.15146 7.95611 0
M  V30 3030 H 293.63 -0.235143 0.633785 0
M  V30 3031 H 296.184 -0.0703805 2.05279 0
M  V30 3032 H 294.414 -2.44437 2.99646 0
M  V30 3033 H 296.103 -2.25919 3.37217 0
M  V30 3034 H 296.869 -0.258246 4.84312 0
M  V30 3035 H 292.748 -1.39873 4.39268 0
M  V30 3036 H 296.292 0.964667 6.90898 0
M  V30 3037 H 292.189 -0.18247 6.45242 0
M  V30 3038 H 292.957 1.05885 8.11622 0
M  V30 3039 N 295.62 -1.53406 -0.361157 0
M  V30 3040 C 296.583 -1.79479 -1.42548 0
M  V30 3041 C 297.583 -0.665327 -1.4639 0
M  V30 3042 O 298.773 -0.933549 -1.47073 0
M  V30 3043 C 295.905 -1.92087 -2.8163 0
M  V30 3044 H 297.098 -2.74538 -1.20701 0
M  V30 3045 H 294.651 -1.4455 -0.594546 0
M  V30 3046 H 295.386 -0.991099 -3.08784 0
M  V30 3047 H 295.171 -2.74241 -2.80239 0
M  V30 3048 H 296.661 -2.13836 -3.58697 0
M  V30 3049 N 297.098 0.621204 -1.44841 0
M  V30 3050 C 298.323 1.41244 -1.51871 0
M  V30 3051 C 298.748 1.87519 -0.147764 0
M  V30 3052 O 298.106 1.59334 0.865 0
M  V30 3053 C 298.154 2.60221 -2.49634 0
M  V30 3054 O 297.258 3.60395 -2.00473 0
M  V30 3055 H 296.599 0.42223 -0.512463 0
M  V30 3056 H 299.129 0.757305 -1.90069 0
M  V30 3057 H 299.139 3.0764 -2.67996 0
M  V30 3058 H 297.814 2.25887 -3.4921 0
M  V30 3059 H 296.391 3.19717 -1.91925 0
M  V30 3060 N 298.576 1.31904 0.862503 0
M  V30 3061 C 299.992 1.10724 1.14945 0
M  V30 3062 C 300.192 -0.117421 2.01158 0
M  V30 3063 O 299.248 -0.804595 2.39338 0
M  V30 3064 C 300.561 2.38267 1.83437 0
M  V30 3065 C 302.109 2.43949 1.96106 0
M  V30 3066 C 302.584 3.71394 2.68013 0
M  V30 3067 N 304.075 3.72331 2.75543 0
M  V30 3068 C 304.81 4.67641 3.31812 0
M  V30 3069 N 304.306 5.73313 3.88953 0
M  V30 3070 N 306.099 4.5515 3.29841 0
M  V30 3071 H 298.25 2.10436 0.288191 0
M  V30 3072 H 300.513 0.928705 0.190292 0
M  V30 3073 H 300.219 3.27759 1.27542 0
M  V30 3074 H 300.093 2.48633 2.83657 0
M  V30 3075 H 302.48 1.54922 2.51164 0
M  V30 3076 H 302.561 2.37543 0.949059 0
M  V30 3077 H 302.205 4.60791 2.13621 0
M  V30 3078 H 302.135 3.75069 3.69636 0
M  V30 3079 H 304.626 2.95947 2.34997 0
M  V30 3080 H 304.939 6.42107 4.30022 0
M  V30 3081 H 303.284 5.77077 3.87308 0
M  V30 3082 H 306.475 3.71766 2.84443 0
M  V30 3083 H 306.648 5.29604 3.73394 0
M  V30 3084 N 300.054 -1.07777 1.14986 0
M  V30 3085 C 301.282 -1.84018 0.945773 0
M  V30 3086 C 301.697 -1.81897 -0.505863 0
M  V30 3087 O 301.054 -1.22726 -1.35072 0
M  V30 3088 C 301.105 -3.31287 1.44677 0
M  V30 3089 O 300.826 -3.33449 2.84154 0
M  V30 3090 C 302.327 -4.24311 1.28355 0
M  V30 3091 H 299.547 -0.580716 0.336169 0
M  V30 3092 H 302.091 -1.36077 1.52654 0
M  V30 3093 H 300.246 -3.76594 0.908625 0
M  V30 3094 H 300.66 -4.25427 3.06777 0
M  V30 3095 H 302.134 -5.2573 1.68261 0
M  V30 3096 H 302.611 -4.38612 0.227184 0
M  V30 3097 H 303.217 -3.84836 1.81056 0
M  V30 3098 N 301.532 -0.945985 -1.26051 0
M  V30 3099 C 302.757 -0.612525 -1.98149 0
M  V30 3100 C 303.182 0.806623 -1.69927 0
M  V30 3101 O 302.54 1.54411 -0.950108 0
M  V30 3102 C 302.588 -0.866981 -3.50023 0
M  V30 3103 O 301.692 0.0585333 -4.12358 0
M  V30 3104 H 301.033 -0.23379 -0.621481 0
M  V30 3105 H 303.563 -1.27023 -1.60395 0
M  V30 3106 H 303.573 -0.789792 -4.00283 0
M  V30 3107 H 302.248 -1.90135 -3.69894 0
M  V30 3108 H 300.825 -0.0701241 -3.72834 0
M  V30 3109 N 303.011 1.40521 -0.713556 0
M  V30 3110 C 303.959 2.32549 -0.0485227 0
M  V30 3111 C 304.953 1.51931 0.74922 0
M  V30 3112 O 306.159 1.67745 0.652816 0
M  V30 3113 H 302.534 0.751994 0.00311138 0
M  V30 3114 H 304.505 2.86291 -0.841443 0
M  V30 3115 C 303.254 3.36879 0.860687 0
M  V30 3116 H 302.577 3.98978 0.256246 0
M  V30 3117 H 304.017 4.03772 1.294 0
M  V30 3118 C 302.476 2.72197 1.9852 0
M  V30 3119 O 303.006 2.5837 3.07584 0
M  V30 3120 N 301.212 2.30612 1.76823 0
M  V30 3121 H 300.759 2.42059 0.881217 0
M  V30 3122 H 300.717 1.87672 2.52243 0
M  V30 3123 N 304.489 0.459591 1.5075 0
M  V30 3124 C 305.421 -0.37665 2.26084 0
M  V30 3125 C 306.434 -0.967109 1.30961 0
M  V30 3126 O 307.623 -0.857468 1.56556 0
M  V30 3127 C 304.723 -1.54112 3.01832 0
M  V30 3128 C 303.896 -1.06553 4.24223 0
M  V30 3129 C 302.955 -2.1027 4.82362 0
M  V30 3130 O 301.981 -1.68798 5.43595 0
M  V30 3131 N 303.183 -3.42974 4.68347 0
M  V30 3132 H 305.948 0.269124 2.98489 0
M  V30 3133 H 303.509 0.28972 1.59287 0
M  V30 3134 H 305.501 -2.23165 3.37608 0
M  V30 3135 H 304.071 -2.0918 2.32298 0
M  V30 3136 H 303.291 -0.201274 3.93686 0
M  V30 3137 H 304.579 -0.725516 5.03601 0
M  V30 3138 H 303.977 -3.79385 4.19623 0
M  V30 3139 H 302.534 -4.07858 5.08424 0
M  V30 3140 N 305.967 -1.56429 0.191757 0
M  V30 3141 C 306.914 -2.18936 -0.730454 0
M  V30 3142 C 307.884 -1.13557 -1.21219 0
M  V30 3143 O 309.069 -1.41794 -1.27668 0
M  V30 3144 C 306.209 -2.85013 -1.9458 0
M  V30 3145 C 305.322 -4.04909 -1.50574 0
M  V30 3146 C 304.457 -4.58853 -2.67634 0
M  V30 3147 C 303.496 -5.71114 -2.20217 0
M  V30 3148 N 302.633 -6.19478 -3.30442 0
M  V30 3149 H 307.473 -2.97389 -0.190664 0
M  V30 3150 H 305.01 -1.46869 -0.0823694 0
M  V30 3151 H 306.968 -3.21492 -2.65893 0
M  V30 3152 H 305.598 -2.09129 -2.45896 0
M  V30 3153 H 304.65 -3.74115 -0.688605 0
M  V30 3154 H 305.962 -4.86113 -1.11784 0
M  V30 3155 H 305.116 -4.97619 -3.47074 0
M  V30 3156 H 303.855 -3.76749 -3.09696 0
M  V30 3157 H 302.86 -5.31879 -1.3923 0
M  V30 3158 H 304.085 -6.55033 -1.79189 0
M  V30 3159 H 302.031 -5.40297 -3.72041 0
M  V30 3160 H 301.948 -6.95725 -2.9581 0
M  V30 3161 H 303.216 -6.62898 -4.10106 0
M  V30 3162 N 307.445 0.0818655 -1.57387 0
M  V30 3163 C 308.375 1.09885 -2.06028 0
M  V30 3164 C 309.356 1.4098 -0.951774 0
M  V30 3165 O 310.541 1.50781 -1.22387 0
M  V30 3166 C 307.671 2.4151 -2.4958 0
M  V30 3167 C 306.625 2.24792 -3.64215 0
M  V30 3168 C 305.951 3.61712 -3.93787 0
M  V30 3169 C 307.251 1.67749 -4.94629 0
M  V30 3170 H 308.945 0.694128 -2.91243 0
M  V30 3171 H 306.491 0.332448 -1.4011 0
M  V30 3172 H 308.444 3.12939 -2.82219 0
M  V30 3173 H 307.168 2.83943 -1.61381 0
M  V30 3174 H 305.827 1.55807 -3.31843 0
M  V30 3175 H 305.475 4.01697 -3.02735 0
M  V30 3176 H 305.175 3.51368 -4.70971 0
M  V30 3177 H 306.699 4.34587 -4.28913 0
M  V30 3178 H 308.113 2.29032 -5.25564 0
M  V30 3179 H 306.51 1.68128 -5.76067 0
M  V30 3180 H 307.58 0.638059 -4.80684 0
M  V30 3181 N 308.923 1.53595 0.353017 0
M  V30 3182 C 310.148 1.7462 1.11904 0
M  V30 3183 C 310.573 0.479721 1.8188 0
M  V30 3184 O 309.931 -0.567066 1.72204 0
M  V30 3185 C 309.979 2.92029 2.11545 0
M  V30 3186 O 309.083 2.61516 3.18878 0
M  V30 3187 H 308.424 0.579531 0.324099 0
M  V30 3188 H 310.954 2.00525 0.406301 0
M  V30 3189 H 310.964 3.18551 2.5493 0
M  V30 3190 H 309.639 3.83888 1.60008 0
M  V30 3191 H 308.216 2.45852 2.80377 0
M  V30 3192 N 310.401 -0.613514 1.45168 0
M  V30 3193 C 311.629 -1.39946 1.5239 0
M  V30 3194 C 312.044 -1.88167 0.154531 0
M  V30 3195 O 311.401 -1.61872 -0.842843 0
M  V30 3196 C 311.452 -2.60795 2.50337 0
M  V30 3197 O 311.173 -2.1458 3.81952 0
M  V30 3198 C 312.674 -3.53723 2.67198 0
M  V30 3199 H 309.894 -0.428593 0.516284 0
M  V30 3200 H 312.438 -0.748753 1.903 0
M  V30 3201 H 310.593 -3.21919 2.15515 0
M  V30 3202 H 311.007 -2.93055 4.34993 0
M  V30 3203 H 312.481 -4.35079 3.39721 0
M  V30 3204 H 312.958 -4.0368 1.73029 0
M  V30 3205 H 313.564 -2.98456 3.02992 0
M  V30 3206 N 311.879 -1.3236 -0.855495 0
M  V30 3207 C 313.125 -1.24064 -1.61182 0
M  V30 3208 C 313.48 0.195914 -1.914 0
M  V30 3209 O 312.773 1.13345 -1.54478 0
M  V30 3210 C 312.967 -2.03275 -2.93963 0
M  V30 3211 C 312.796 -3.54486 -2.76712 0
M  V30 3212 C 311.566 -4.23824 -2.75139 0
M  V30 3213 C 313.764 -4.49154 -2.50531 0
M  V30 3214 N 311.746 -5.61095 -2.4909 0
M  V30 3215 C 313.117 -5.74195 -2.3388 0
M  V30 3216 C 315.172 -4.3842 -2.35992 0
M  V30 3217 C 313.875 -6.89716 -2.04168 0
M  V30 3218 C 315.901 -5.53739 -2.0767 0
M  V30 3219 C 315.263 -6.77779 -1.9182 0
M  V30 3220 H 311.362 -0.509139 -0.59355 0
M  V30 3221 H 313.946 -1.66715 -1.00569 0
M  V30 3222 H 312.117 -1.6297 -3.52555 0
M  V30 3223 H 313.849 -1.86881 -3.58967 0
M  V30 3224 H 310.604 -3.75934 -2.88047 0
M  V30 3225 H 311.028 -6.33411 -2.38996 0
M  V30 3226 H 315.67 -3.43172 -2.46967 0
M  V30 3227 H 313.388 -7.84977 -1.9193 0
M  V30 3228 H 316.974 -5.4736 -1.97201 0
M  V30 3229 H 315.854 -7.65504 -1.70217 0
M  V30 3230 N 313.357 1.07166 -1.15556 0
M  V30 3231 C 314.582 1.84053 -0.955988 0
M  V30 3232 C 315.007 1.81586 0.490739 0
M  V30 3233 O 314.365 1.21018 1.34997 0
M  V30 3234 C 314.413 3.28957 -1.47714 0
M  V30 3235 O 313.517 4.06795 -0.677593 0
M  V30 3236 H 312.858 0.569842 -0.340847 0
M  V30 3237 H 315.388 1.35178 -1.53584 0
M  V30 3238 H 315.398 3.79788 -1.4908 0
M  V30 3239 H 314.073 3.30068 -2.53037 0
M  V30 3240 H 312.65 3.6561 -0.733721 0
M  V30 3241 N 314.835 0.952656 1.25548 0
M  V30 3242 C 315.767 0.428609 2.25157 0
M  V30 3243 C 316.78 -0.454428 1.56329 0
M  V30 3244 O 317.969 -0.263023 1.76552 0
M  V30 3245 C 315.069 -0.401972 3.36508 0
M  V30 3246 C 314.242 0.467601 4.34893 0
M  V30 3247 C 313.301 -0.30445 5.25319 0
M  V30 3248 O 312.327 0.296473 5.68427 0
M  V30 3249 N 313.529 -1.59805 5.5807 0
M  V30 3250 H 316.294 1.28497 2.70756 0
M  V30 3251 H 313.855 0.822798 1.39433 0
M  V30 3252 H 315.847 -0.926134 3.9396 0
M  V30 3253 H 314.417 -1.15918 2.90313 0
M  V30 3254 H 313.637 1.17288 3.76347 0
M  V30 3255 H 314.925 1.06119 4.97611 0
M  V30 3256 H 314.323 -2.10823 5.24948 0
M  V30 3257 H 312.88 -2.06822 6.18116 0
M  V30 3258 N 316.313 -1.40141 0.720998 0
M  V30 3259 C 317.223 -2.34486 0.0731031 0
M  V30 3260 C 318.239 -1.57587 -0.737723 0
M  V30 3261 O 319.415 -1.89949 -0.669429 0
M  V30 3262 C 316.48 -3.36528 -0.833656 0
M  V30 3263 C 315.541 -4.29298 -0.0121673 0
M  V30 3264 C 314.774 -5.26466 -0.875742 0
M  V30 3265 O 314.997 -5.29745 -2.11485 0
M  V30 3266 O 313.931 -6.01092 -0.31185 0
M  V30 3267 H 317.757 -2.9152 0.851444 0
M  V30 3268 H 315.342 -1.41427 0.481527 0
M  V30 3269 H 317.224 -3.99093 -1.35289 0
M  V30 3270 H 315.899 -2.81899 -1.59105 0
M  V30 3271 H 314.806 -3.70001 0.552262 0
M  V30 3272 H 316.139 -4.87094 0.707129 0
M  V30 3273 N 317.792 -0.46758 -1.50504 0
M  V30 3274 C 319.038 0.0887532 -2.02606 0
M  V30 3275 C 319.371 1.39686 -1.34913 0
M  V30 3276 O 318.646 1.88644 -0.473694 0
M  V30 3277 C 318.929 0.276206 -3.59039 0
M  V30 3278 C 318.782 -1.05267 -4.37309 0
M  V30 3279 C 320.101 1.03235 -4.27821 0
M  V30 3280 H 317.22 0.0307814 -0.736357 0
M  V30 3281 H 319.862 -0.612485 -1.79857 0
M  V30 3282 H 318.012 0.8735 -3.78553 0
M  V30 3283 H 319.684 -1.68628 -4.29374 0
M  V30 3284 H 317.927 -1.65015 -4.01189 0
M  V30 3285 H 318.598 -0.875197 -5.45018 0
M  V30 3286 H 321.074 0.526111 -4.12761 0
M  V30 3287 H 319.95 1.1323 -5.37094 0
M  V30 3288 H 320.211 2.06806 -3.90748 0
M  V30 3289 N 319.27 1.56325 -0.20005 0
M  V30 3290 C 320.498 2.02105 0.442874 0
M  V30 3291 C 320.913 1.08014 1.5485 0
M  V30 3292 O 320.27 0.0858797 1.82298 0
M  V30 3293 C 320.321 3.47549 0.994583 0
M  V30 3294 O 320.042 4.38049 -0.0669322 0
M  V30 3295 C 321.543 4.0887 1.7129 0
M  V30 3296 H 318.763 0.661807 0.110691 0
M  V30 3297 H 321.307 2.02134 -0.310207 0
M  V30 3298 H 319.462 3.48204 1.69803 0
M  V30 3299 H 319.876 5.23368 0.344462 0
M  V30 3300 H 321.35 5.12475 2.05118 0
M  V30 3301 H 321.827 3.52615 2.61838 0
M  V30 3302 H 322.433 4.12002 1.05518 0
M  V30 3303 N 320.748 -0.0735177 1.57428 0
M  V30 3304 C 321.996 -0.771472 1.86796 0
M  V30 3305 C 322.317 -1.78201 0.791804 0
M  V30 3306 O 321.587 -1.95074 -0.179718 0
M  V30 3307 H 320.167 -0.28791 0.689287 0
M  V30 3308 H 322.829 -0.0500161 1.94836 0
M  V30 3309 H 321.925 -1.28874 2.8425 0
M  V30 3310 N 322.226 -1.5378 -0.344866 0
M  V30 3311 C 323.173 -1.81676 -1.42346 0
M  V30 3312 C 324.143 -0.662376 -1.52321 0
M  V30 3313 O 325.328 -0.906675 -1.67881 0
M  V30 3314 C 322.468 -2.03087 -2.79015 0
M  V30 3315 C 321.581 -3.30799 -2.77842 0
M  V30 3316 C 320.716 -3.42285 -4.0622 0
M  V30 3317 C 319.755 -4.6395 -3.9927 0
M  V30 3318 N 318.892 -4.72477 -5.19336 0
M  V30 3319 H 323.732 -2.73703 -1.17858 0
M  V30 3320 H 321.269 -1.35568 -0.570949 0
M  V30 3321 H 323.227 -2.1349 -3.58438 0
M  V30 3322 H 321.857 -1.14375 -3.01858 0
M  V30 3323 H 320.909 -3.29244 -1.90533 0
M  V30 3324 H 322.221 -4.20314 -2.68584 0
M  V30 3325 H 321.375 -3.52113 -4.94066 0
M  V30 3326 H 320.114 -2.50823 -4.18258 0
M  V30 3327 H 319.119 -4.54201 -3.09809 0
M  V30 3328 H 320.344 -5.56775 -3.88817 0
M  V30 3329 H 318.29 -3.83924 -5.3192 0
M  V30 3330 H 318.207 -5.55927 -5.12329 0
M  V30 3331 H 319.475 -4.86613 -6.08957 0
M  V30 3332 N 323.704 0.605807 -1.45491 0
M  V30 3333 C 324.634 1.72709 -1.57143 0
M  V30 3334 C 325.615 1.6476 -0.422884 0
M  V30 3335 O 326.8 1.83132 -0.646247 0
M  V30 3336 C 323.93 3.11316 -1.53948 0
M  V30 3337 C 322.884 3.34077 -2.67537 0
M  V30 3338 C 322.21 4.72975 -2.49397 0
M  V30 3339 C 323.51 3.24158 -4.09535 0
M  V30 3340 H 325.204 1.63214 -2.51001 0
M  V30 3341 H 322.75 0.78379 -1.208 0
M  V30 3342 H 324.703 3.89557 -1.60696 0
M  V30 3343 H 323.427 3.21655 -0.566205 0
M  V30 3344 H 322.086 2.58227 -2.6022 0
M  V30 3345 H 321.734 4.8005 -1.50205 0
M  V30 3346 H 321.434 4.8916 -3.25571 0
M  V30 3347 H 322.958 5.53414 -2.58002 0
M  V30 3348 H 324.372 3.92271 -4.18086 0
M  V30 3349 H 322.769 3.51872 -4.86113 0
M  V30 3350 H 323.839 2.2157 -4.31317 0
M  V30 3351 N 325.182 1.32811 0.848464 0
M  V30 3352 C 326.145 1.22194 1.9391 0
M  V30 3353 C 327.145 0.143404 1.60159 0
M  V30 3354 O 328.335 0.394253 1.6968 0
M  V30 3355 C 325.467 0.88067 3.29328 0
M  V30 3356 H 326.66 2.19127 2.04752 0
M  V30 3357 H 324.213 1.16731 1.0394 0
M  V30 3358 H 324.948 -0.0865776 3.24184 0
M  V30 3359 H 324.733 1.66052 3.55203 0
M  V30 3360 H 326.223 0.830871 4.09251 0
M  V30 3361 N 326.66 -1.06551 1.16123 0
M  V30 3362 C 327.908 -1.78947 0.939267 0
M  V30 3363 C 328.229 -1.87532 -0.534476 0
M  V30 3364 O 327.499 -1.38211 -1.38833 0
M  V30 3365 H 326.079 -0.662807 0.344523 0
M  V30 3366 H 328.741 -1.28725 1.46342 0
M  V30 3367 H 327.837 -2.81117 1.35572 0
M  V30 3368 N 328.138 -0.959301 -1.25041 0
M  V30 3369 C 329.048 -0.489994 -2.29426 0
M  V30 3370 C 330.064 0.444944 -1.68215 0
M  V30 3371 O 331.24 0.320046 -1.98841 0
M  V30 3372 C 328.305 0.220309 -3.45999 0
M  V30 3373 C 327.366 -0.753418 -4.22637 0
M  V30 3374 C 326.599 -0.076918 -5.33645 0
M  V30 3375 O 326.822 1.13649 -5.58963 0
M  V30 3376 O 325.756 -0.764824 -5.97021 0
M  V30 3377 H 329.582 -1.35755 -2.71669 0
M  V30 3378 H 327.167 -0.725961 -1.30576 0
M  V30 3379 H 329.049 0.619677 -4.16819 0
M  V30 3380 H 327.724 1.06296 -3.0575 0
M  V30 3381 H 326.631 -1.20308 -3.54227 0
M  V30 3382 H 327.964 -1.56423 -4.66683 0
M  V30 3383 N 329.616 1.39756 -0.72842 0
M  V30 3384 C 330.841 2.05472 -0.282159 0
M  V30 3385 C 331.266 1.54549 1.07221 0
M  V30 3386 O 330.624 0.686372 1.67805 0
M  V30 3387 C 330.672 3.59462 -0.286264 0
M  V30 3388 O 329.776 4.05918 0.728298 0
M  V30 3389 H 329.117 0.651226 -0.129618 0
M  V30 3390 H 331.647 1.78915 -0.992499 0
M  V30 3391 H 331.657 4.07798 -0.128373 0
M  V30 3392 H 330.332 3.95889 -1.27456 0
M  V30 3393 H 328.909 3.69012 0.537081 0
M  V30 3394 N 331.094 0.475555 1.50254 0
M  V30 3395 C 332.51 0.12997 1.5907 0
M  V30 3396 C 332.71 -1.36385 1.48328 0
M  V30 3397 O 331.766 -2.13754 1.34407 0
M  V30 3398 C 333.079 0.684139 2.92814 0
M  V30 3399 C 334.627 0.647965 3.0622 0
M  V30 3400 C 335.102 1.17975 4.42545 0
M  V30 3401 N 336.593 1.13936 4.48969 0
M  V30 3402 C 337.328 1.52129 5.52851 0
M  V30 3403 N 336.824 1.97793 6.63965 0
M  V30 3404 N 338.617 1.43704 5.4342 0
M  V30 3405 H 330.768 1.44706 1.55479 0
M  V30 3406 H 333.031 0.598691 0.735033 0
M  V30 3407 H 332.737 1.73079 3.06164 0
M  V30 3408 H 332.611 0.130204 3.76975 0
M  V30 3409 H 334.998 -0.38979 2.92514 0
M  V30 3410 H 335.079 1.23876 2.23805 0
M  V30 3411 H 334.723 2.21616 4.57 0
M  V30 3412 H 334.653 0.565138 5.23559 0
M  V30 3413 H 337.144 0.804488 3.69238 0
M  V30 3414 H 337.457 2.25072 7.39299 0
M  V30 3415 H 335.802 2.01749 6.65073 0
M  V30 3416 H 338.993 1.07867 4.55502 0
M  V30 3417 H 339.166 1.73794 6.24259 0
M  V30 3418 N 332.573 -1.56217 0.208337 0
M  V30 3419 C 333.984 -1.84243 -0.301904 0
M  V30 3420 C 334.335 -1.12939 -1.60434 0
M  V30 3421 O 333.46 -0.39461 -2.12772 0
M  V30 3422 C 334.055 -3.34231 -0.554543 0
M  V30 3423 C 332.614 -3.62621 -1.00912 0
M  V30 3424 C 331.761 -2.77224 -0.064933 0
M  V30 3425 H 334.712 -1.52712 0.431833 0
M  V30 3426 H 334.733 -3.5372 -1.40223 0
M  V30 3427 H 334.245 -3.86099 0.393561 0
M  V30 3428 H 332.346 -3.16197 -1.97104 0
M  V30 3429 H 332.459 -4.7071 -0.892674 0
M  V30 3430 H 330.823 -2.48256 -0.56929 0
M  V30 3431 H 331.606 -3.31887 0.877851 0
M  V30 3432 N 334.051 0.0651679 -1.57465 0
M  V30 3433 C 335.001 1.0838 -2.00594 0
M  V30 3434 C 335.985 1.34106 -0.889071 0
M  V30 3435 O 337.177 1.34295 -1.15299 0
M  V30 3436 C 334.306 2.39565 -2.45894 0
M  V30 3437 C 333.392 2.17085 -3.64328 0
M  V30 3438 N 333.783 1.64553 -4.78285 0
M  V30 3439 C 332.081 2.4753 -3.71006 0
M  V30 3440 C 332.782 1.57042 -5.60101 0
M  V30 3441 N 331.758 2.03328 -5.04141 0
M  V30 3442 H 335.56 0.671062 -2.86136 0
M  V30 3443 H 333.074 0.27213 -1.60104 0
M  V30 3444 H 335.071 3.13308 -2.75034 0
M  V30 3445 H 333.731 2.81549 -1.61741 0
M  V30 3446 H 334.742 1.33323 -5.00445 0
M  V30 3447 H 331.419 2.92835 -2.9758 0
M  V30 3448 H 332.809 1.17223 -6.61595 0
M  V30 3449 N 335.529 1.53961 0.336706 0
M  V30 3450 C 336.778 1.70751 1.07363 0
M  V30 3451 C 337.091 0.481061 1.89592 0
M  V30 3452 O 338.297 0.530046 2.66276 0
M  V30 3453 C 336.753 3.01965 1.95818 0
M  V30 3454 C 336.361 4.31971 1.18764 0
M  V30 3455 C 338.105 3.28121 2.69327 0
M  V30 3456 C 336.012 5.54255 2.06289 0
M  V30 3457 H 334.942 0.636292 0.404535 0
M  V30 3458 H 337.593 1.80459 0.332681 0
M  V30 3459 H 335.975 2.86132 2.7376 0
M  V30 3460 H 337.149 4.5853 0.456849 0
M  V30 3461 H 335.464 4.12481 0.569946 0
M  V30 3462 H 338.061 4.16673 3.35094 0
M  V30 3463 H 338.404 2.45426 3.36261 0
M  V30 3464 H 338.937 3.44762 1.98454 0
M  V30 3465 H 335.676 6.39513 1.43885 0
M  V30 3466 H 335.196 5.31935 2.77138 0
M  V30 3467 H 336.875 5.90159 2.65182 0
M  V30 3468 N 337.007 -0.598083 1.45811 0
M  V30 3469 C 337.937 -1.71873 1.58057 0
M  V30 3470 C 338.918 -1.64533 0.431615 0
M  V30 3471 O 340.103 -1.82787 0.65595 0
M  V30 3472 C 337.233 -3.10495 1.55597 0
M  V30 3473 C 336.187 -3.32654 2.69305 0
M  V30 3474 C 335.513 -4.71646 2.51902 0
M  V30 3475 C 336.813 -3.21981 4.11248 0
M  V30 3476 H 338.507 -1.61881 2.51863 0
M  V30 3477 H 336.053 -0.777372 1.21214 0
M  V30 3478 H 338.006 -3.88699 1.6276 0
M  V30 3479 H 336.73 -3.2135 0.583255 0
M  V30 3480 H 335.389 -2.56843 2.61586 0
M  V30 3481 H 335.037 -4.79246 1.52748 0
M  V30 3482 H 334.737 -4.87426 3.2816 0
M  V30 3483 H 336.261 -5.52038 2.60933 0
M  V30 3484 H 337.675 -3.90049 4.20161 0
M  V30 3485 H 336.072 -3.49289 4.87972 0
M  V30 3486 H 337.142 -2.1928 4.32486 0
M  V30 3487 N 338.485 -1.33259 -0.841409 0
M  V30 3488 C 339.896 -1.22066 -1.41269 0
M  V30 3489 C 340.247 0.161479 -1.95534 0
M  V30 3490 O 339.372 1.06094 -1.88608 0
M  V30 3491 C 339.967 -2.20996 -2.568 0
M  V30 3492 C 338.526 -2.13649 -3.09888 0
M  V30 3493 C 337.673 -2.08623 -1.82679 0
M  V30 3494 H 340.624 -1.44895 -0.647395 0
M  V30 3495 H 340.645 -1.81621 -3.34356 0
M  V30 3496 H 340.157 -3.2158 -2.17274 0
M  V30 3497 H 338.258 -1.16359 -3.53965 0
M  V30 3498 H 338.371 -3.04079 -3.70234 0
M  V30 3499 H 336.735 -1.54061 -2.02824 0
M  V30 3500 H 337.518 -3.1101 -1.45353 0
M  V30 3501 N 339.963 1.05934 -1.16686 0
M  V30 3502 C 341.193 1.82226 -0.973515 0
M  V30 3503 C 341.601 1.8297 0.481532 0
M  V30 3504 O 340.944 1.25009 1.34604 0
M  V30 3505 C 341.006 3.29897 -1.42858 0
M  V30 3506 C 340.67 3.52849 -2.90425 0
M  V30 3507 C 341.667 3.45595 -3.88407 0
M  V30 3508 C 339.352 3.80053 -3.28428 0
M  V30 3509 C 341.346 3.65217 -5.22394 0
M  V30 3510 C 339.033 3.99325 -4.62583 0
M  V30 3511 C 340.031 3.91905 -5.59374 0
M  V30 3512 O 339.719 4.10647 -6.91104 0
M  V30 3513 H 339.451 0.581314 -0.345036 0
M  V30 3514 H 342.005 1.3453 -1.55212 0
M  V30 3515 H 340.235 3.78472 -0.793477 0
M  V30 3516 H 341.924 3.87692 -1.20207 0
M  V30 3517 H 342.69 3.24564 -3.60393 0
M  V30 3518 H 338.569 3.84936 -2.53664 0
M  V30 3519 H 342.113 3.59341 -5.9793 0
M  V30 3520 H 338.01 4.19846 -4.90306 0
M  V30 3521 H 338.778 4.27915 -6.97733 0
M  V30 3522 N 341.441 0.965919 1.2453 0
M  V30 3523 C 342.371 0.513476 2.27784 0
M  V30 3524 C 343.352 -0.445974 1.6415 0
M  V30 3525 O 344.537 -0.342485 1.91156 0
M  V30 3526 C 341.667 -0.198839 3.4673 0
M  V30 3527 C 340.621 0.676456 4.2262 0
M  V30 3528 C 339.947 -0.167248 5.34438 0
M  V30 3529 C 341.247 1.96017 4.84123 0
M  V30 3530 H 342.941 1.3765 2.65881 0
M  V30 3531 H 340.487 0.663321 1.27813 0
M  V30 3532 H 342.44 -0.526567 4.18097 0
M  V30 3533 H 341.164 -1.0962 3.07654 0
M  V30 3534 H 339.823 0.98743 3.53052 0
M  V30 3535 H 339.471 -1.0647 4.91603 0
M  V30 3536 H 339.171 0.415181 5.86131 0
M  V30 3537 H 340.695 -0.489688 6.08633 0
M  V30 3538 H 342.109 1.69814 5.47573 0
M  V30 3539 H 340.506 2.48918 5.4604 0
M  V30 3540 H 341.576 2.65622 4.05676 0
M  V30 3541 N 342.919 -1.39368 0.735821 0
M  V30 3542 C 343.867 -2.32443 0.0855131 0
M  V30 3543 C 344.861 -1.53104 -0.724954 0
M  V30 3544 O 346.067 -1.68762 -0.626047 0
M  V30 3545 H 342.442 -0.751948 0.00885257 0
M  V30 3546 H 344.413 -2.84916 0.886883 0
M  V30 3547 C 343.162 -3.38206 -0.806983 0
M  V30 3548 H 342.485 -3.99335 -0.19274 0
M  V30 3549 H 343.925 -4.05779 -1.2296 0
M  V30 3550 C 342.384 -2.75321 -1.94165 0
M  V30 3551 O 342.914 -2.63231 -3.03435 0
M  V30 3552 N 341.12 -2.33396 -1.73132 0
M  V30 3553 H 340.667 -2.4343 -0.842596 0
M  V30 3554 H 340.625 -1.91661 -2.49225 0
M  V30 3555 N 344.397 -0.483516 -1.5 0
M  V30 3556 C 345.622 0.0667119 -2.07293 0
M  V30 3557 C 346.047 1.3164 -1.3436 0
M  V30 3558 O 345.405 1.76945 -0.394987 0
M  V30 3559 C 345.453 0.321126 -3.59167 0
M  V30 3560 O 344.557 1.39927 -3.87936 0
M  V30 3561 H 343.898 -0.0184758 -0.663743 0
M  V30 3562 H 346.428 -0.678125 -1.93035 0
M  V30 3563 H 346.438 0.557906 -4.04168 0
M  V30 3564 H 345.113 -0.592007 -4.11665 0
M  V30 3565 H 343.69 1.14882 -3.54763 0
M  V30 3566 N 345.875 1.56104 -0.216619 0
M  V30 3567 C 346.822 2.2007 0.695531 0
M  V30 3568 C 347.792 1.15471 1.19397 0
M  V30 3569 O 348.977 1.43807 1.25396 0
M  V30 3570 C 346.117 2.88073 1.90021 0
M  V30 3571 C 345.23 4.07253 1.44113 0
M  V30 3572 C 344.365 4.63052 2.603 0
M  V30 3573 C 343.404 5.74545 2.11103 0
M  V30 3574 N 342.541 6.24656 3.20545 0
M  V30 3575 H 347.381 2.97655 0.143327 0
M  V30 3576 H 344.918 1.46982 0.0589934 0
M  V30 3577 H 346.876 3.25681 2.60745 0
M  V30 3578 H 345.506 2.13015 2.42538 0
M  V30 3579 H 344.558 3.75164 0.628999 0
M  V30 3580 H 345.87 4.8783 1.04036 0
M  V30 3581 H 345.024 5.03078 3.39113 0
M  V30 3582 H 343.763 3.81628 3.03663 0
M  V30 3583 H 342.768 5.34027 1.3075 0
M  V30 3584 H 343.993 6.57801 1.68746 0
M  V30 3585 H 341.939 5.46148 3.63399 0
M  V30 3586 H 341.856 7.00343 2.84704 0
M  V30 3587 H 343.124 6.69338 3.99508 0
M  V30 3588 N 347.353 -0.0568162 1.57498 0
M  V30 3589 C 348.601 -0.751617 1.87604 0
M  V30 3590 C 348.922 -1.77351 0.81066 0
M  V30 3591 O 348.192 -1.95254 -0.159018 0
M  V30 3592 H 346.772 -0.280583 0.692302 0
M  V30 3593 H 349.434 -0.0293483 1.94878 0
M  V30 3594 H 348.53 -1.25852 2.856 0
M  V30 3595 N 348.832 -1.54138 -0.328536 0
M  V30 3596 C 349.762 -1.86167 -1.40939 0
M  V30 3597 C 350.743 -0.718044 -1.54202 0
M  V30 3598 O 351.928 -0.971328 -1.68163 0
M  V30 3599 C 349.058 -2.08461 -2.77779 0
M  V30 3600 C 348.012 -3.24299 -2.7931 0
M  V30 3601 C 347.338 -3.31955 -4.19178 0
M  V30 3602 C 348.638 -4.62065 -2.43502 0
M  V30 3603 H 350.332 -2.76689 -1.14383 0
M  V30 3604 H 347.878 -1.33132 -0.548806 0
M  V30 3605 H 349.831 -2.29453 -3.53454 0
M  V30 3606 H 348.555 -1.14684 -3.05802 0
M  V30 3607 H 347.214 -3.03187 -2.0609 0
M  V30 3608 H 346.862 -2.35745 -4.44335 0
M  V30 3609 H 346.562 -4.09805 -4.2111 0
M  V30 3610 H 348.086 -3.55175 -4.96672 0
M  V30 3611 H 349.5 -4.8297 -3.08889 0
M  V30 3612 H 347.897 -5.42429 -2.56693 0
M  V30 3613 H 348.967 -4.64652 -1.38659 0
M  V30 3614 N 350.31 0.590341 -1.46126 0
M  V30 3615 C 351.273 1.68194 -1.55703 0
M  V30 3616 C 352.273 1.54808 -0.434868 0
M  V30 3617 O 353.463 1.59564 -0.698928 0
M  V30 3618 C 350.595 3.07575 -1.47005 0
M  V30 3619 H 351.788 1.61064 -2.52979 0
M  V30 3620 H 349.341 0.807541 -1.33823 0
M  V30 3621 H 350.076 3.20268 -0.509785 0
M  V30 3622 H 349.861 3.187 -2.28414 0
M  V30 3623 H 351.351 3.87055 -1.56776 0
M  V30 3624 N 351.788 1.33704 0.83433 0
M  V30 3625 C 352.735 1.24335 1.94447 0
M  V30 3626 C 353.705 0.120991 1.65659 0
M  V30 3627 O 354.89 0.300035 1.88426 0
M  V30 3628 C 352.03 0.993124 3.30501 0
M  V30 3629 C 351.143 2.20217 3.71657 0
M  V30 3630 C 350.278 1.88572 4.96602 0
M  V30 3631 C 349.317 3.05683 5.30306 0
M  V30 3632 N 348.454 2.73997 6.46429 0
M  V30 3633 H 353.294 2.1928 2.01792 0
M  V30 3634 H 350.831 1.09035 0.987404 0
M  V30 3635 H 352.789 0.828467 4.08892 0
M  V30 3636 H 351.419 0.0803902 3.227 0
M  V30 3637 H 350.471 2.47642 2.88752 0
M  V30 3638 H 351.783 3.07752 3.92543 0
M  V30 3639 H 350.937 1.68776 5.82752 0
M  V30 3640 H 349.676 0.982799 4.77695 0
M  V30 3641 H 348.681 3.26088 4.42659 0
M  V30 3642 H 349.906 3.96737 5.51159 0
M  V30 3643 H 347.852 1.86268 6.28999 0
M  V30 3644 H 347.769 3.55064 6.67432 0
M  V30 3645 H 349.037 2.57679 7.35678 0
M  V30 3646 N 353.266 -1.05314 1.17247 0
M  V30 3647 C 354.682 -1.30452 0.919473 0
M  V30 3648 C 354.882 -1.9703 -0.42209 0
M  V30 3649 O 353.938 -2.24311 -1.15935 0
M  V30 3650 C 355.251 -2.17551 2.07586 0
M  V30 3651 C 356.799 -2.30937 2.11275 0
M  V30 3652 C 357.274 -3.21396 3.26296 0
M  V30 3653 N 358.765 -3.28981 3.26076 0
M  V30 3654 C 359.5 -3.99095 4.11716 0
M  V30 3655 N 358.996 -4.71648 5.07465 0
M  V30 3656 N 360.789 -3.95247 3.9967 0
M  V30 3657 H 352.94 -0.604988 2.03602 0
M  V30 3658 H 355.203 -0.329368 0.888944 0
M  V30 3659 H 354.909 -1.75921 3.0454 0
M  V30 3660 H 354.783 -3.18182 2.02584 0
M  V30 3661 H 357.17 -2.71809 1.14907 0
M  V30 3662 H 357.251 -1.2994 2.20339 0
M  V30 3663 H 356.895 -2.81238 4.22927 0
M  V30 3664 H 356.825 -4.22395 3.14467 0
M  V30 3665 H 359.316 -2.77286 2.5675 0
M  V30 3666 H 359.629 -5.22705 5.6921 0
M  V30 3667 H 357.974 -4.70594 5.11435 0
M  V30 3668 H 361.165 -3.37691 3.24164 0
M  V30 3669 H 361.338 -4.4962 4.66632 0
M  V30 3670 O 354.783 -1.10174 -1.18084 0
M  V30 3671 H 355.474 -0.801769 -1.76327 0
M  V30 END ATOM
M  V30 BEGIN BOND
M  V30 END BOND
M  V30 END CTAB
M  END
$$$$
