drugbank_target|P05981 Serine protease hepsin (DB00522; DB03297; DB03643; DB03865)
 OpenBabel12092120063D

  0  0  0     0  0            999 V3000
M  V30 BEGIN CTAB
M  V30 COUNTS 6272 6344 0 0 0
M  V30 BEGIN ATOM
M  V30 1 H -0.908 1.98254 -0.117106 0
M  V30 2 N 0 1.576 0 0
M  V30 3 C 0.933 2.03868 1.02534 0
M  V30 4 C 1.911 0.928543 1.3348 0
M  V30 5 O 3.095 1.19667 1.45644 0
M  V30 6 C 0.222 2.43627 2.35294 0
M  V30 7 C -0.732 3.65373 2.2001 0
M  V30 8 S 0.101 5.13292 1.52614 0
M  V30 9 C 1.257 5.56322 2.86805 0
M  V30 10 H 1.49 2.90518 0.631377 0
M  V30 11 H -0.977 1.52953 0.210867 0
M  V30 12 H 0.981 2.67203 3.11629 0
M  V30 13 H -0.358 1.57376 2.7183 0
M  V30 14 H -1.165 3.90944 3.18086 0
M  V30 15 H -1.563 3.418 1.51819 0
M  V30 16 H 0.729 5.58782 3.83104 0
M  V30 17 H 1.672 6.56266 2.65933 0
M  V30 18 H 2.08 4.83886 2.90714 0
M  V30 19 N 1.4781 -0.272755 1.55222 0
M  V30 20 C 2.4411 -1.32041 1.87344 0
M  V30 21 C 3.4411 -1.42342 0.74803 0
M  V30 22 O 4.6311 -1.41488 1.0162 0
M  V30 23 C 1.7631 -2.70173 2.07893 0
M  V30 24 H 2.9561 -1.04789 2.80997 0
M  V30 25 H 0.5091 -0.51083 1.47717 0
M  V30 26 H 1.2441 -3.02605 1.16622 0
M  V30 27 H 1.0291 -2.64082 2.89833 0
M  V30 28 H 2.5191 -3.45869 2.34017 0
M  V30 29 N 2.9562 -1.48159 -0.537278 0
M  V30 30 C 3.8882 -1.58218 -1.65831 0
M  V30 31 C 4.9012 -0.466948 -1.5596 0
M  V30 32 O 6.0902 -0.73747 -1.62553 0
M  V30 33 C 3.1902 -1.48906 -3.04434 0
M  V30 34 C 2.3632 -2.75343 -3.3986 0
M  V30 35 C 1.4222 -2.59588 -4.57712 0
M  V30 36 O 0.4482 -3.33457 -4.61297 0
M  V30 37 N 1.6502 -1.68724 -5.55439 0
M  V30 38 H 4.4152 -2.54891 -1.57641 0
M  V30 39 H 1.9762 -1.4479 -0.724386 0
M  V30 40 H 3.9682 -1.36072 -3.81139 0
M  V30 41 H 2.5382 -0.602368 -3.06741 0
M  V30 42 H 1.7582 -3.02795 -2.52406 0
M  V30 43 H 3.0462 -3.5924 -3.60311 0
M  V30 44 H 2.4442 -1.07898 -5.55315 0
M  V30 45 H 1.0012 -1.61832 -6.3139 0
M  V30 46 N 4.4343 0.785586 -1.36625 0
M  V30 47 C 5.3813 1.89838 -1.31264 0
M  V30 48 C 6.3513 1.65115 -0.180633 0
M  V30 49 O 7.5363 1.87222 -0.36777 0
M  V30 50 C 4.6763 3.26706 -1.11163 0
M  V30 51 C 3.7893 3.63476 -2.33472 0
M  V30 52 C 2.9243 4.89481 -2.06353 0
M  V30 53 C 1.9633 5.18941 -3.24602 0
M  V30 54 N 1.1003 6.36131 -2.97123 0
M  V30 55 H 5.9403 1.93756 -2.26413 0
M  V30 56 H 3.4773 0.947454 -1.12524 0
M  V30 57 H 5.4353 4.05639 -0.975337 0
M  V30 58 H 4.0653 3.222 -0.196674 0
M  V30 59 H 3.1173 2.79636 -2.57891 0
M  V30 60 H 4.4293 3.81193 -3.21704 0
M  V30 61 H 3.5833 5.76288 -1.89675 0
M  V30 62 H 2.3223 4.73841 -1.15437 0
M  V30 63 H 1.3273 4.30615 -3.41834 0
M  V30 64 H 2.5523 5.36498 -4.16349 0
M  V30 65 H 0.4983 6.21875 -2.08823 0
M  V30 66 H 0.4153 6.54198 -3.78894 0
M  V30 67 H 1.6833 7.2591 -2.84033 0
M  V30 68 N 5.9124 1.20967 1.01018 0
M  V30 69 C 6.8224 0.980157 2.13143 0
M  V30 70 C 7.8384 -0.0660665 1.73875 0
M  V30 71 O 9.0144 0.122821 2.01025 0
M  V30 72 C 6.0794 0.54216 3.42435 0
M  V30 73 C 5.1404 1.65999 3.95908 0
M  V30 74 C 4.3734 1.2428 5.19028 0
M  V30 75 O 4.5964 0.114196 5.70286 0
M  V30 76 O 3.5304 2.05271 5.65816 0
M  V30 77 H 7.3564 1.91913 2.35379 0
M  V30 78 H 4.9414 0.994099 1.11526 0
M  V30 79 H 6.8234 0.30744 4.20277 0
M  V30 80 H 5.4984 -0.36815 3.216 0
M  V30 81 H 4.4054 1.94906 3.19316 0
M  V30 82 H 5.7384 2.54753 4.21143 0
M  V30 83 N 7.3905 -1.2043 1.01659 0
M  V30 84 C 8.6385 -1.89423 0.704522 0
M  V30 85 C 8.9595 -1.79231 -0.768197 0
M  V30 86 O 8.2295 -1.1947 -1.55254 0
M  V30 87 H 6.8095 -0.701178 0.257602 0
M  V30 88 H 9.4715 -1.4626 1.28818 0
M  V30 89 H 8.5675 -2.96052 0.987916 0
M  V30 90 N 8.8686 -0.792821 -1.36206 0
M  V30 91 C 10.1166 -0.366062 -1.98757 0
M  V30 92 C 10.4376 1.0668 -1.63231 0
M  V30 93 O 9.7076 1.73587 -0.907978 0
M  V30 94 H 8.2876 -0.132364 -0.735179 0
M  V30 95 H 10.9496 -1.01562 -1.66347 0
M  V30 96 H 10.0456 -0.460638 -3.08682 0
M  V30 97 N 10.3467 1.47872 -0.545128 0
M  V30 98 C 11.7627 1.5829 -0.204032 0
M  V30 99 C 11.9627 1.54529 1.29317 0
M  V30 100 O 11.0187 1.44232 2.07252 0
M  V30 101 C 12.3317 2.89304 -0.819987 0
M  V30 102 C 13.8797 3.02864 -0.790105 0
M  V30 103 C 14.3547 4.3656 -1.38491 0
M  V30 104 N 15.8457 4.43165 -1.34755 0
M  V30 105 C 16.5807 5.45153 -1.77753 0
M  V30 106 N 16.0767 6.54016 -2.2855 0
M  V30 107 N 17.8697 5.36125 -1.68897 0
M  V30 108 H 10.0207 1.4856 -1.51802 0
M  V30 109 H 12.2837 0.706305 -0.632327 0
M  V30 110 H 11.9897 2.97757 -1.87173 0
M  V30 111 H 11.8637 3.75957 -0.305915 0
M  V30 112 H 14.2507 2.94014 0.252913 0
M  V30 113 H 14.3317 2.17782 -1.34181 0
M  V30 114 H 13.9757 4.46164 -2.42693 0
M  V30 115 H 13.9057 5.20353 -0.808754 0
M  V30 116 H 16.3967 3.65083 -0.975855 0
M  V30 117 H 16.7097 7.27994 -2.59314 0
M  V30 118 H 15.0547 6.54938 -2.32553 0
M  V30 119 H 18.2457 4.49975 -1.28998 0
M  V30 120 H 18.4187 6.15472 -2.02726 0
M  V30 121 N 11.8248 0.280983 1.55075 0
M  V30 122 C 13.0528 -0.337293 2.04132 0
M  V30 123 C 13.4678 -1.4903 1.15912 0
M  V30 124 O 12.8248 -1.81606 0.180459 0
M  V30 125 C 12.8758 -0.812706 3.52246 0
M  V30 126 O 12.5968 0.294387 4.3711 0
M  V30 127 C 14.0978 -1.4982 4.17216 0
M  V30 128 H 11.3178 -0.0761638 0.666663 0
M  V30 129 H 13.8618 0.414787 2.00249 0
M  V30 130 H 12.0168 -1.51486 3.56554 0
M  V30 131 H 12.4308 -0.0721325 5.2445 0
M  V30 132 H 13.9048 -1.7822 5.22438 0
M  V30 133 H 14.3818 -2.43168 3.65741 0
M  V30 134 H 14.9878 -0.839742 4.16927 0
M  V30 135 N 13.3029 -1.57598 0.00835791 0
M  V30 136 C 14.5489 -1.91211 -0.675732 0
M  V30 137 C 14.8819 -0.883139 -1.72958 0
M  V30 138 O 14.1569 0.097016 -1.94258 0
M  V30 139 C 14.4399 -3.35379 -1.31123 0
M  V30 140 C 14.2929 -4.48999 -0.268356 0
M  V30 141 C 15.6119 -3.7912 -2.23508 0
M  V30 142 H 12.7309 -0.695374 -0.244179 0
M  V30 143 H 15.3729 -1.89901 0.0613655 0
M  V30 144 H 13.5229 -3.36626 -1.93946 0
M  V30 145 H 15.1949 -4.59887 0.360844 0
M  V30 146 H 13.4379 -4.31873 0.408482 0
M  V30 147 H 14.1089 -5.46851 -0.752218 0
M  V30 148 H 16.5849 -3.79477 -1.70693 0
M  V30 149 H 15.4609 -4.80729 -2.64936 0
M  V30 150 H 15.7219 -3.13455 -3.11766 0
M  V30 151 N 14.781 0.264519 -1.55364 0
M  V30 152 C 16.192 0.834936 -1.6699 0
M  V30 153 C 16.543 1.86718 -0.602552 0
M  V30 154 O 15.668 2.14899 0.254425 0
M  V30 155 C 16.263 1.5212 -3.02729 0
M  V30 156 C 14.822 2.03954 -3.16354 0
M  V30 157 C 13.969 0.884498 -2.62815 0
M  V30 158 H 16.92 0.0406869 -1.58648 0
M  V30 159 H 16.941 2.38853 -2.96191 0
M  V30 160 H 16.453 0.769668 -3.80392 0
M  V30 161 H 14.554 2.82041 -2.43482 0
M  V30 162 H 14.667 2.24902 -4.23032 0
M  V30 163 H 13.031 1.2802 -2.20188 0
M  V30 164 H 13.814 0.14634 -3.42988 0
M  V30 165 N 16.2591 1.48442 0.529413 0
M  V30 166 C 17.4991 1.58086 1.29569 0
M  V30 167 C 17.8631 0.249302 1.90375 0
M  V30 168 O 19.0641 0.220738 2.67892 0
M  V30 169 C 17.3351 2.68793 2.35552 0
M  V30 170 S 18.8941 2.98207 3.21898 0
M  V30 171 H 15.7121 0.557922 0.440732 0
M  V30 172 H 18.3141 1.85966 0.603059 0
M  V30 173 H 17.0181 3.64102 1.89363 0
M  V30 174 H 16.5491 2.42817 3.09522 0
M  V30 175 H 18.5641 2.37548 4.35644 0
M  V30 176 N 17.7372 -0.778329 1.37039 0
M  V30 177 C 18.9772 -1.54973 1.33276 0
M  V30 178 C 19.3412 -1.91816 -0.0839376 0
M  V30 179 O 20.5422 -2.6767 -0.246228 0
M  V30 180 C 18.8132 -2.78517 2.23971 0
M  V30 181 S 20.3722 -3.6865 2.37997 0
M  V30 182 H 17.1902 -0.530639 0.473226 0
M  V30 183 H 19.7922 -0.915806 1.72723 0
M  V30 184 H 18.4962 -2.4952 3.25835 0
M  V30 185 H 18.0272 -3.46875 1.85584 0
M  V30 186 H 20.0422 -4.70182 1.58567 0
M  V30 187 N 19.2153 -1.21501 -1.00376 0
M  V30 188 C 20.4403 -1.05977 -1.78279 0
M  V30 189 C 20.8653 0.385994 -1.84097 0
M  V30 190 O 20.2233 1.27849 -1.28547 0
M  V30 191 C 20.2713 -1.66302 -3.19963 0
M  V30 192 O 19.3753 -0.909333 -4.0225 0
M  V30 193 H 18.7163 -0.372906 -0.549397 0
M  V30 194 H 21.2463 -1.6107 -1.26165 0
M  V30 195 H 21.2563 -1.70574 -3.70632 0
M  V30 196 H 19.9313 -2.71515 -3.15043 0
M  V30 197 H 18.5083 -0.941795 -3.60811 0
M  V30 198 N 20.6934 1.19889 -1.02296 0
M  V30 199 C 22.1094 1.41462 -0.738954 0
M  V30 200 C 22.3094 1.89721 0.678846 0
M  V30 201 O 21.3654 2.07016 1.4457 0
M  V30 202 C 22.6784 2.43083 -1.77005 0
M  V30 203 C 24.2264 2.5684 -1.78892 0
M  V30 204 C 24.7014 3.61709 -2.80945 0
M  V30 205 N 26.1924 3.69199 -2.79725 0
M  V30 206 C 26.9274 4.50019 -3.55345 0
M  V30 207 N 26.4234 5.34592 -4.40662 0
M  V30 208 N 28.2164 4.44612 -3.43914 0
M  V30 209 H 20.3674 0.868827 -1.93817 0
M  V30 210 H 22.6304 0.44399 -0.837602 0
M  V30 211 H 22.3364 2.14636 -2.78612 0
M  V30 212 H 22.2104 3.4217 -1.58744 0
M  V30 213 H 24.5974 2.84614 -0.779674 0
M  V30 214 H 24.6784 1.57927 -2.01228 0
M  V30 215 H 24.3224 3.34678 -3.82038 0
M  V30 216 H 24.2524 4.60259 -2.5587 0
M  V30 217 H 26.7434 3.08794 -2.17842 0
M  V30 218 H 27.0564 5.93363 -4.95116 0
M  V30 219 H 25.4014 5.34073 -4.44737 0
M  V30 220 H 28.5924 3.7758 -2.76679 0
M  V30 221 H 28.7654 5.0736 -4.031 0
M  V30 222 N 22.1715 0.800033 1.35784 0
M  V30 223 C 23.5825 0.439142 1.81462 0
M  V30 224 C 23.9335 -1.03813 1.66485 0
M  V30 225 O 23.0585 -1.80626 1.19177 0
M  V30 226 C 23.6535 0.790314 3.29453 0
M  V30 227 C 22.2125 0.482111 3.733 0
M  V30 228 C 21.3595 1.01938 2.57883 0
M  V30 229 H 24.3105 0.992254 1.23855 0
M  V30 230 H 24.3315 0.0853677 3.80404 0
M  V30 231 H 23.8435 1.86554 3.40322 0
M  V30 232 H 21.9445 -0.584652 3.67984 0
M  V30 233 H 22.0575 1.01015 4.6833 0
M  V30 234 H 20.4215 0.442043 2.50835 0
M  V30 235 H 21.2045 2.10059 2.71533 0
M  V30 236 N 23.6496 -1.47581 0.552962 0
M  V30 237 C 24.5966 -2.29957 -0.197108 0
M  V30 238 C 25.5666 -1.38799 -0.912359 0
M  V30 239 O 26.7516 -1.67761 -0.908888 0
M  V30 240 C 23.8916 -3.22672 -1.22379 0
M  V30 241 C 23.0046 -4.28919 -0.515038 0
M  V30 242 C 22.1396 -5.0879 -1.52664 0
M  V30 243 C 21.1786 -6.06815 -0.802631 0
M  V30 244 N 20.3156 -6.7966 -1.76086 0
M  V30 245 H 25.1556 -2.93578 0.511486 0
M  V30 246 H 22.6926 -1.4471 0.264067 0
M  V30 247 H 24.6506 -3.74845 -1.83159 0
M  V30 248 H 23.2806 -2.60925 -1.90047 0
M  V30 249 H 22.3326 -3.79835 0.207192 0
M  V30 250 H 23.6446 -4.98773 0.0523425 0
M  V30 251 H 22.7986 -5.65091 -2.20809 0
M  V30 252 H 21.5376 -4.38828 -2.12794 0
M  V30 253 H 20.5426 -5.49695 -0.107238 0
M  V30 254 H 21.7676 -6.78784 -0.207135 0
M  V30 255 H 19.7136 -6.12432 -2.35081 0
M  V30 256 H 19.6306 -7.45669 -1.24552 0
M  V30 257 H 20.8986 -7.40538 -2.43359 0
M  V30 258 N 25.1277 -0.289203 -1.54924 0
M  V30 259 C 26.3737 0.323998 -2.00195 0
M  V30 260 C 26.7067 1.54441 -1.17735 0
M  V30 261 O 25.9817 1.92875 -0.250878 0
M  V30 262 C 26.2647 0.692276 -3.53383 0
M  V30 263 C 26.1177 -0.536457 -4.46589 0
M  V30 264 C 27.4367 1.52335 -4.12895 0
M  V30 265 H 24.5557 0.116289 -0.727768 0
M  V30 266 H 27.1977 -0.398954 -1.85764 0
M  V30 267 H 25.3477 1.30822 -3.65811 0
M  V30 268 H 27.0197 -1.17499 -4.46085 0
M  V30 269 H 25.2627 -1.17192 -4.1767 0
M  V30 270 H 25.9337 -0.234806 -5.515 0
M  V30 271 H 28.4097 1.00302 -4.0383 0
M  V30 272 H 27.2857 1.74982 -5.20262 0
M  V30 273 H 27.5467 2.50886 -3.64018 0
M  V30 274 N 26.6058 1.57591 -0.0167156 0
M  V30 275 C 27.5688 2.08393 0.954204 0
M  V30 276 C 28.5688 0.996531 1.26198 0
M  V30 277 O 29.7588 1.25858 1.20438 0
M  V30 278 C 26.8908 2.5394 2.27436 0
M  V30 279 H 28.0838 2.95455 0.514451 0
M  V30 280 H 25.6368 1.54582 0.231089 0
M  V30 281 H 26.3718 1.70171 2.76066 0
M  V30 282 H 26.1568 3.33371 2.06412 0
M  V30 283 H 27.6468 2.93512 2.97053 0
M  V30 284 N 28.0839 -0.256276 1.55502 0
M  V30 285 C 29.0469 -1.30047 1.88734 0
M  V30 286 C 30.0469 -1.4154 0.763086 0
M  V30 287 O 31.2369 -1.40403 1.03115 0
M  V30 288 C 28.3689 -2.67953 2.10747 0
M  V30 289 H 29.5619 -1.01802 2.82093 0
M  V30 290 H 27.1149 -0.495134 1.4825 0
M  V30 291 H 27.8499 -3.01351 1.19825 0
M  V30 292 H 27.6349 -2.60993 2.92617 0
M  V30 293 H 29.1249 -3.43368 2.37673 0
M  V30 294 N 29.562 -1.4872 -0.521534 0
M  V30 295 C 30.492 -1.66771 -1.63431 0
M  V30 296 C 31.473 -0.516499 -1.62069 0
M  V30 297 O 32.658 -0.750013 -1.79132 0
M  V30 298 C 29.788 -1.71515 -3.01993 0
M  V30 299 C 28.742 -2.86222 -3.18216 0
M  V30 300 C 28.068 -2.76061 -4.57924 0
M  V30 301 C 29.368 -4.27419 -3.00184 0
M  V30 302 H 31.062 -2.59932 -1.48579 0
M  V30 303 H 28.608 -1.25089 -0.713358 0
M  V30 304 H 30.561 -1.82731 -3.7972 0
M  V30 305 H 29.285 -0.749393 -3.17886 0
M  V30 306 H 27.944 -2.74575 -2.42908 0
M  V30 307 H 27.592 -1.77437 -4.70665 0
M  V30 308 H 27.292 -3.53037 -4.69722 0
M  V30 309 H 28.816 -2.89256 -5.37739 0
M  V30 310 H 30.23 -4.39855 -3.67697 0
M  V30 311 H 28.627 -5.05458 -3.2347 0
M  V30 312 H 29.697 -4.43293 -1.96518 0
M  V30 313 N 31.0401 0.771051 -1.3745 0
M  V30 314 C 32.2681 1.56015 -1.35893 0
M  V30 315 C 32.6831 1.88718 0.0555523 0
M  V30 316 O 32.0401 1.51502 1.01752 0
M  V30 317 C 32.0911 2.87001 -2.19801 0
M  V30 318 O 31.8121 2.557 -3.55738 0
M  V30 319 C 33.3131 3.81228 -2.26231 0
M  V30 320 H 30.5331 0.483317 -0.465453 0
M  V30 321 H 33.0771 0.955611 -1.80799 0
M  V30 322 H 31.2321 3.43877 -1.78402 0
M  V30 323 H 31.6461 3.39584 -3.99729 0
M  V30 324 H 33.1201 4.70139 -2.89263 0
M  V30 325 H 33.5971 4.20409 -1.27093 0
M  V30 326 H 34.2031 3.30281 -2.67945 0
M  V30 327 N 32.5182 1.22032 0.997298 0
M  V30 328 C 33.4812 0.987909 2.06816 0
M  V30 329 C 34.4812 -0.0440084 1.6074 0
M  V30 330 O 35.6712 0.194053 1.73116 0
M  V30 331 C 32.8032 0.49132 3.37341 0
M  V30 332 H 33.9962 1.93803 2.28868 0
M  V30 333 H 31.5492 1.03838 1.16822 0
M  V30 334 H 32.2842 -0.463364 3.20973 0
M  V30 335 H 32.0692 1.23575 3.72118 0
M  V30 336 H 33.5592 0.348824 4.16141 0
M  V30 337 N 33.9963 -1.19345 1.0293 0
M  V30 338 C 35.2443 -1.88665 0.724574 0
M  V30 339 C 35.5653 -1.80036 -0.749144 0
M  V30 340 O 34.8353 -1.2111 -1.53978 0
M  V30 341 H 33.4153 -0.698406 0.265025 0
M  V30 342 H 36.0773 -1.44885 1.30362 0
M  V30 343 H 35.1733 -2.94987 1.01926 0
M  V30 344 N 35.4744 -0.807222 -1.35358 0
M  V30 345 C 36.7024 -0.400377 -2.02989 0
M  V30 346 C 37.1174 0.988859 -1.60832 0
M  V30 347 O 36.4744 1.63729 -0.806175 0
M  V30 348 C 36.5254 -0.474867 -3.58368 0
M  V30 349 O 36.2464 -1.80933 -3.98992 0
M  V30 350 C 37.7474 -0.0609112 -4.43258 0
M  V30 351 H 34.9674 -0.162587 -0.651004 0
M  V30 352 H 37.5114 -1.09102 -1.72965 0
M  V30 353 H 35.6664 0.167534 -3.87038 0
M  V30 354 H 36.0804 -1.77256 -4.9364 0
M  V30 355 H 37.5544 -0.164145 -5.51756 0
M  V30 356 H 38.0314 0.993831 -4.27808 0
M  V30 357 H 38.6374 -0.676492 -4.19885 0
M  V30 358 N 36.9525 1.47285 -0.560781 0
M  V30 359 C 37.8825 2.32857 0.173105 0
M  V30 360 C 38.8635 1.44009 0.905281 0
M  V30 361 O 40.0485 1.7286 0.885046 0
M  V30 362 C 37.1785 3.25861 1.20133 0
M  V30 363 C 36.1325 4.23978 0.585388 0
M  V30 364 C 35.4585 5.06332 1.7185 0
M  V30 365 C 36.7585 5.20242 -0.463178 0
M  V30 366 H 38.4525 2.94466 -0.541307 0
M  V30 367 H 35.9985 1.41601 -0.261764 0
M  V30 368 H 37.9515 3.84569 1.72293 0
M  V30 369 H 36.6755 2.62315 1.94573 0
M  V30 370 H 35.3345 3.66501 0.085054 0
M  V30 371 H 34.9825 4.39186 2.45203 0
M  V30 372 H 34.6825 5.72762 1.31213 0
M  V30 373 H 36.2065 5.67899 2.24329 0
M  V30 374 H 37.6205 5.73293 -0.027502 0
M  V30 375 H 36.0175 5.94896 -0.788627 0
M  V30 376 H 37.0875 4.65504 -1.35773 0
M  V30 377 N 38.4306 0.297415 1.54768 0
M  V30 378 C 39.3606 -0.573494 2.26348 0
M  V30 379 C 40.3416 -1.14085 1.26169 0
M  V30 380 O 41.5266 -1.17086 1.54934 0
M  V30 381 C 38.6566 -1.74716 3.00153 0
M  V30 382 C 37.6106 -1.31032 4.07449 0
M  V30 383 C 36.9366 -2.56887 4.68949 0
M  V30 384 C 38.2366 -0.444183 5.20408 0
M  V30 385 H 39.9306 0.0235131 2.99391 0
M  V30 386 H 37.4766 0.0127488 1.43994 0
M  V30 387 H 39.4296 -2.3625 3.48947 0
M  V30 388 H 38.1536 -2.37035 2.24682 0
M  V30 389 H 36.8126 -0.718066 3.59499 0
M  V30 390 H 36.4606 -3.17512 3.90122 0
M  V30 391 H 36.1606 -2.2836 5.41411 0
M  V30 392 H 37.6846 -3.19229 5.20505 0
M  V30 393 H 39.0986 -0.9651 5.65118 0
M  V30 394 H 37.4956 -0.252846 5.99567 0
M  V30 395 H 38.5656 0.531609 4.81977 0
M  V30 396 N 39.9087 -1.5758 0.0250728 0
M  V30 397 C 40.8387 -2.13007 -0.956575 0
M  V30 398 C 41.8197 -1.0452 -1.342 0
M  V30 399 O 43.0047 -1.32332 -1.42133 0
M  V30 400 C 40.1347 -2.65386 -2.24026 0
M  V30 401 C 39.0887 -3.78623 -1.99571 0
M  V30 402 C 38.4147 -4.17414 -3.3417 0
M  V30 403 C 39.7147 -5.04867 -1.33814 0
M  V30 404 H 41.4087 -2.9528 -0.494991 0
M  V30 405 H 38.9547 -1.42042 -0.236651 0
M  V30 406 H 40.9077 -3.02794 -2.93076 0
M  V30 407 H 39.6317 -1.80268 -2.72343 0
M  V30 408 H 38.2907 -3.41646 -1.32941 0
M  V30 409 H 37.9387 -3.29284 -3.80238 0
M  V30 410 H 37.6387 -4.93719 -3.18615 0
M  V30 411 H 39.1627 -4.57402 -4.04495 0
M  V30 412 H 40.5767 -5.39888 -1.92857 0
M  V30 413 H 38.9737 -5.86144 -1.28669 0
M  V30 414 H 40.0437 -4.83904 -0.310561 0
M  V30 415 N 41.3868 0.248026 -1.55636 0
M  V30 416 C 42.3168 1.31079 -1.93237 0
M  V30 417 C 43.2978 1.50264 -0.797174 0
M  V30 418 O 44.4828 1.62891 -1.05737 0
M  V30 419 C 41.6128 2.66575 -2.22609 0
M  V30 420 C 40.5668 2.62087 -3.3837 0
M  V30 421 C 39.8928 4.01369 -3.53281 0
M  V30 422 C 41.1928 2.19171 -4.7409 0
M  V30 423 H 42.8868 0.998556 -2.82257 0
M  V30 424 H 40.4328 0.47891 -1.35803 0
M  V30 425 H 42.3858 3.41057 -2.47503 0
M  V30 426 H 41.1098 2.99432 -1.30414 0
M  V30 427 H 39.7688 1.90063 -3.13483 0
M  V30 428 H 39.4168 4.31489 -2.58508 0
M  V30 429 H 39.1168 3.99254 -4.31127 0
M  V30 430 H 40.6408 4.77552 -3.80495 0
M  V30 431 H 42.0548 2.83384 -4.98363 0
M  V30 432 H 40.4518 2.2817 -5.5503 0
M  V30 433 H 41.5218 1.14336 -4.71227 0
M  V30 434 N 42.8649 1.48995 0.513639 0
M  V30 435 C 44.0929 1.61531 1.29288 0
M  V30 436 C 44.5079 0.281801 1.86685 0
M  V30 437 O 43.8649 -0.731111 1.67215 0
M  V30 438 C 43.9159 2.67449 2.43215 0
M  V30 439 O 43.6369 3.95626 1.88179 0
M  V30 440 C 45.1379 2.90575 3.34785 0
M  V30 441 H 42.3579 0.544165 0.392588 0
M  V30 442 H 44.9019 1.9494 0.617956 0
M  V30 443 H 43.0569 2.36853 3.0656 0
M  V30 444 H 43.4709 4.53868 2.62876 0
M  V30 445 H 44.9449 3.68449 4.11035 0
M  V30 446 H 45.4219 2.00011 3.91015 0
M  V30 447 H 46.0279 3.22538 2.77218 0
M  V30 448 N 44.343 -0.763751 1.37857 0
M  V30 449 C 45.306 -1.85889 1.34081 0
M  V30 450 C 46.306 -1.58949 0.243277 0
M  V30 451 O 47.496 -1.66882 0.499589 0
M  V30 452 C 44.628 -3.23176 1.08489 0
M  V30 453 H 45.821 -1.90648 2.31502 0
M  V30 454 H 43.374 -0.964367 1.23003 0
M  V30 455 H 44.109 -3.24091 0.116318 0
M  V30 456 H 43.894 -3.44124 1.8794 0
M  V30 457 H 45.384 -4.03254 1.08517 0
M  V30 458 N 45.8211 -1.22559 -0.990812 0
M  V30 459 C 47.0701 -1.04553 -1.72486 0
M  V30 460 C 47.3831 0.419349 -1.91052 0
M  V30 461 O 48.5891 0.719121 -2.61803 0
M  V30 462 C 47.0451 -1.82231 -3.10355 0
M  V30 463 C 46.6531 -3.32981 -2.99713 0
M  V30 464 C 48.3971 -1.7268 -3.87791 0
M  V30 465 C 46.3041 -4.03091 -4.32748 0
M  V30 466 H 45.2341 -0.387614 -0.646739 0
M  V30 467 H 47.8851 -1.46429 -1.10593 0
M  V30 468 H 46.2671 -1.33155 -3.72942 0
M  V30 469 H 47.4411 -3.89466 -2.46278 0
M  V30 470 H 45.7561 -3.43231 -2.35758 0
M  V30 471 H 48.3531 -2.22381 -4.86262 0
M  V30 472 H 48.6961 -0.687607 -4.10582 0
M  V30 473 H 49.2291 -2.1931 -3.31885 0
M  V30 474 H 45.9681 -5.07273 -4.15156 0
M  V30 475 H 45.4881 -3.51394 -4.86089 0
M  V30 476 H 47.1671 -4.08804 -5.01486 0
M  V30 477 N 47.2992 1.18797 -1.03562 0
M  V30 478 C 48.5472 1.88278 -0.734569 0
M  V30 479 C 48.8682 1.8043 0.739586 0
M  V30 480 O 48.1382 1.21925 1.53333 0
M  V30 481 H 46.7182 0.696991 -0.268725 0
M  V30 482 H 49.3802 1.44192 -1.31129 0
M  V30 483 H 48.4762 2.94443 -1.03489 0
M  V30 484 N 48.7773 0.814389 1.34928 0
M  V30 485 C 49.7403 0.235759 2.27984 0
M  V30 486 C 50.7403 -0.581412 1.49921 0
M  V30 487 O 51.9303 -0.398758 1.69575 0
M  V30 488 C 49.0623 -0.670433 3.34242 0
M  V30 489 H 50.2553 1.05659 2.80671 0
M  V30 490 H 47.8083 0.585614 1.44915 0
M  V30 491 H 48.5433 -1.51466 2.86755 0
M  V30 492 H 48.3283 -0.0860822 3.92005 0
M  V30 493 H 49.8183 -1.06935 4.03676 0
M  V30 494 N 50.2554 -1.46986 0.568584 0
M  V30 495 C 51.2184 -2.28624 -0.162366 0
M  V30 496 C 52.2184 -1.37596 -0.832103 0
M  V30 497 O 53.4084 -1.60115 -0.68622 0
M  V30 498 C 50.5404 -3.17596 -1.23878 0
M  V30 499 H 51.7334 -2.94722 0.554899 0
M  V30 500 H 49.2864 -1.52863 0.325976 0
M  V30 501 H 50.0214 -2.56214 -1.98808 0
M  V30 502 H 49.8064 -3.846 -0.763219 0
M  V30 503 H 51.2964 -3.79078 -1.75185 0
M  V30 504 N 51.7335 -0.305618 -1.54608 0
M  V30 505 C 52.9585 0.307562 -2.05107 0
M  V30 506 C 53.3835 1.46385 -1.18123 0
M  V30 507 O 52.7415 1.8034 -0.186324 0
M  V30 508 C 52.7895 0.73704 -3.52987 0
M  V30 509 O 51.8935 1.84134 -3.6901 0
M  V30 510 H 51.2345 0.0589143 -0.661381 0
M  V30 511 H 53.7645 -0.448807 -1.99617 0
M  V30 512 H 53.7745 1.02459 -3.94925 0
M  V30 513 H 52.4495 -0.108773 -4.15758 0
M  V30 514 H 51.0265 1.55398 -3.38978 0
M  V30 515 N 53.2116 1.57565 -0.0334293 0
M  V30 516 C 54.4576 1.93088 0.639417 0
M  V30 517 C 54.8126 0.910589 1.69488 0
M  V30 518 O 54.1056 -0.0727725 1.91462 0
M  V30 519 C 54.2996 3.33112 1.29504 0
M  V30 520 C 54.1286 4.48667 0.304604 0
M  V30 521 C 52.8986 5.05207 -0.0970777 0
M  V30 522 C 55.0966 5.1239 -0.442845 0
M  V30 523 N 53.0786 6.04286 -1.08223 0
M  V30 524 C 54.4496 6.06609 -1.28161 0
M  V30 525 C 56.5046 4.95352 -0.50308 0
M  V30 526 C 55.2076 6.85622 -2.17519 0
M  V30 527 C 57.2336 5.74978 -1.38401 0
M  V30 528 C 56.5956 6.68816 -2.21054 0
M  V30 529 H 52.6946 0.754335 0.206161 0
M  V30 530 H 55.2786 1.94435 -0.101613 0
M  V30 531 H 53.4496 3.32576 2.00618 0
M  V30 532 H 55.1816 3.55972 1.92525 0
M  V30 533 H 51.9366 4.72782 0.278255 0
M  V30 534 H 52.3606 6.58516 -1.57117 0
M  V30 535 H 57.0026 4.22625 0.121694 0
M  V30 536 H 54.7206 7.57652 -2.81049 0
M  V30 537 H 58.3066 5.63826 -1.43496 0
M  V30 538 H 57.1866 7.29355 -2.88116 0
M  V30 539 N 54.6897 -0.239769 1.55765 0
M  V30 540 C 55.6527 -1.28038 1.90103 0
M  V30 541 C 56.6527 -1.40723 0.778055 0
M  V30 542 O 57.8427 -1.39301 1.04599 0
M  V30 543 C 54.9747 -2.65702 2.13577 0
M  V30 544 H 56.1677 -0.988048 2.83157 0
M  V30 545 H 53.7207 -0.479382 1.48767 0
M  V30 546 H 54.4557 -3.00063 1.23015 0
M  V30 547 H 54.2407 -2.57875 2.95369 0
M  V30 548 H 55.7307 -3.40828 2.41301 0
M  V30 549 N 56.1678 -1.49265 -0.50573 0
M  V30 550 C 57.4168 -1.57761 -1.25675 0
M  V30 551 C 57.7298 -0.267371 -1.93764 0
M  V30 552 O 58.9358 -0.230827 -2.70517 0
M  V30 553 C 57.3918 -2.78332 -2.28165 0
M  V30 554 C 56.9998 -4.16096 -1.66037 0
M  V30 555 C 58.7438 -2.96155 -3.04125 0
M  V30 556 C 56.6508 -5.27895 -2.6661 0
M  V30 557 H 55.5808 -0.587391 -0.472745 0
M  V30 558 H 58.2318 -1.75644 -0.53118 0
M  V30 559 H 56.6138 -2.53934 -3.03865 0
M  V30 560 H 57.7878 -4.50612 -0.963622 0
M  V30 561 H 56.1028 -4.03591 -1.02484 0
M  V30 562 H 58.6998 -3.76849 -3.79327 0
M  V30 563 H 59.0428 -2.06534 -3.61455 0
M  V30 564 H 59.5758 -3.2057 -2.35541 0
M  V30 565 H 56.3148 -6.1956 -2.14068 0
M  V30 566 H 55.8348 -4.97839 -3.34539 0
M  V30 567 H 57.5138 -5.57031 -3.29129 0
M  V30 568 N 57.6459 0.756429 -1.3826 0
M  V30 569 C 58.8919 1.51772 -1.34511 0
M  V30 570 C 59.2249 1.94089 0.0656691 0
M  V30 571 O 58.4999 1.65221 1.02626 0
M  V30 572 C 58.7829 2.77226 -2.29821 0
M  V30 573 C 58.6359 2.41065 -3.79747 0
M  V30 574 C 59.9549 3.79236 -2.23312 0
M  V30 575 H 57.0739 0.550578 -0.489931 0
M  V30 576 H 59.7159 0.866607 -1.69086 0
M  V30 577 H 57.8659 3.32784 -2.00467 0
M  V30 578 H 59.5379 1.91303 -4.19763 0
M  V30 579 H 57.7809 1.7356 -3.97567 0
M  V30 580 H 58.4519 3.3081 -4.41892 0
M  V30 581 H 60.9279 3.3321 -2.49219 0
M  V30 582 H 59.8039 4.64714 -2.92116 0
M  V30 583 H 60.0649 4.24615 -1.23102 0
M  V30 584 N 59.124 1.23083 0.984299 0
M  V30 585 C 60.087 1.00979 2.05757 0
M  V30 586 C 61.087 -0.0269573 1.60777 0
M  V30 587 O 62.277 0.212403 1.729 0
M  V30 588 C 59.409 0.527072 3.36801 0
M  V30 589 H 60.602 1.9622 2.26799 0
M  V30 590 H 58.155 1.05072 1.15714 0
M  V30 591 H 58.89 -0.429294 3.21446 0
M  V30 592 H 58.675 1.27515 3.70786 0
M  V30 593 H 60.165 0.392942 4.15747 0
M  V30 594 N 60.6021 -1.18246 1.0419 0
M  V30 595 C 61.8481 -1.88536 0.747122 0
M  V30 596 C 62.1811 -1.80223 -0.723409 0
M  V30 597 O 61.4561 -1.20337 -1.52804 0
M  V30 598 C 61.7391 -3.38968 1.21544 0
M  V30 599 C 61.5921 -3.56084 2.74816 0
M  V30 600 C 62.9111 -4.32648 0.806482 0
M  V30 601 H 60.0301 -0.684619 0.272883 0
M  V30 602 H 62.6721 -1.39113 1.29413 0
M  V30 603 H 60.8221 -3.8119 0.750081 0
M  V30 604 H 62.4941 -3.22946 3.29399 0
M  V30 605 H 60.7371 -2.98699 3.14582 0
M  V30 606 H 61.4081 -4.61639 3.02644 0
M  V30 607 H 63.8841 -3.98211 1.20695 0
M  V30 608 H 62.7601 -5.36462 1.1619 0
M  V30 609 H 63.0211 -4.41146 -0.29029 0
M  V30 610 N 62.0802 -0.821533 -1.34494 0
M  V30 611 C 63.0102 -0.257138 -2.3208 0
M  V30 612 C 63.9912 0.625645 -1.58176 0
M  V30 613 O 65.1762 0.552811 -1.86166 0
M  V30 614 C 62.3062 0.582958 -3.42372 0
M  V30 615 C 61.2602 -0.202571 -4.2752 0
M  V30 616 C 60.5862 0.760179 -5.29269 0
M  V30 617 C 61.8862 -1.40998 -5.02908 0
M  V30 618 H 63.5802 -1.07247 -2.79532 0
M  V30 619 H 61.1262 -0.517163 -1.34393 0
M  V30 620 H 63.0792 0.987972 -4.09655 0
M  V30 621 H 61.8032 1.43133 -2.93565 0
M  V30 622 H 60.4622 -0.588936 -3.61838 0
M  V30 623 H 60.1102 1.60447 -4.76724 0
M  V30 624 H 59.8102 0.238809 -5.87115 0
M  V30 625 H 61.3342 1.16308 -5.9942 0
M  V30 626 H 62.7482 -1.07905 -5.63054 0
M  V30 627 H 61.1452 -1.86689 -5.70322 0
M  V30 628 H 62.2152 -2.1889 -4.32684 0
M  V30 629 N 63.5583 1.46682 -0.576371 0
M  V30 630 C 64.4883 2.33028 0.148397 0
M  V30 631 C 65.4693 1.44961 0.889956 0
M  V30 632 O 66.6543 1.73789 0.866662 0
M  V30 633 C 63.7843 3.27117 1.1667 0
M  V30 634 C 62.7383 4.24575 0.540386 0
M  V30 635 C 62.0643 5.08126 1.6647 0
M  V30 636 C 63.3643 5.19722 -0.518331 0
M  V30 637 H 65.0583 2.93875 -0.572509 0
M  V30 638 H 62.6043 1.41315 -0.276768 0
M  V30 639 H 64.5573 3.86374 1.68204 0
M  V30 640 H 63.2813 2.64364 1.9178 0
M  V30 641 H 61.9403 3.66571 0.0461769 0
M  V30 642 H 61.5883 4.41762 2.40531 0
M  V30 643 H 61.2883 5.74122 1.25131 0
M  V30 644 H 62.8123 5.70246 2.18293 0
M  V30 645 H 64.2263 5.73232 -0.0883058 0
M  V30 646 H 62.6233 5.94026 -0.851679 0
M  V30 647 H 63.6933 4.64037 -1.40703 0
M  V30 648 N 65.0364 0.313813 1.54444 0
M  V30 649 C 66.4524 -0.0391619 1.59552 0
M  V30 650 C 66.6524 -1.51322 1.33056 0
M  V30 651 O 65.7084 -2.26782 1.11022 0
M  V30 652 C 67.0214 0.370302 2.98411 0
M  V30 653 C 68.5694 0.320139 3.11358 0
M  V30 654 C 69.0444 0.704617 4.52547 0
M  V30 655 N 70.5354 0.657645 4.58508 0
M  V30 656 C 71.2704 0.927453 5.6585 0
M  V30 657 N 70.7664 1.26389 6.81174 0
M  V30 658 N 72.5594 0.853662 5.5558 0
M  V30 659 H 64.7104 1.27433 1.69925 0
M  V30 660 H 66.9734 0.517511 0.794284 0
M  V30 661 H 66.6794 1.39694 3.22767 0
M  V30 662 H 66.5534 -0.269619 3.76235 0
M  V30 663 H 68.9404 -0.697275 2.86744 0
M  V30 664 H 69.0214 0.99486 2.35661 0
M  V30 665 H 68.6654 1.7199 4.77893 0
M  V30 666 H 68.5954 0.00768843 5.26599 0
M  V30 667 H 71.0864 0.409067 3.75679 0
M  V30 668 H 71.3994 1.4554 7.58972 0
M  V30 669 H 69.7444 1.30206 6.82694 0
M  V30 670 H 72.9354 0.590383 4.64362 0
M  V30 671 H 73.1084 1.0673 6.3915 0
M  V30 672 N 66.5145 -1.57545 0.0417849 0
M  V30 673 C 67.7395 -1.97035 -0.647455 0
M  V30 674 C 68.1645 -0.918775 -1.64135 0
M  V30 675 O 67.5225 0.119006 -1.80909 0
M  V30 676 C 67.5705 -3.35609 -1.31905 0
M  V30 677 O 66.6745 -3.3287 -2.43457 0
M  V30 678 H 66.0155 -0.64211 -0.169086 0
M  V30 679 H 68.5455 -2.04318 0.107399 0
M  V30 680 H 68.5555 -3.72126 -1.67291 0
M  V30 681 H 67.2305 -4.11685 -0.590586 0
M  V30 682 H 65.8075 -3.08087 -2.10088 0
M  V30 683 N 67.9926 0.231505 -1.5589 0
M  V30 684 C 69.2696 0.981096 -1.69215 0
M  V30 685 C 69.6496 2.02799 -0.586164 0
M  V30 686 O 68.9976 2.24823 0.408253 0
M  V30 687 C 69.2076 1.60054 -3.10135 0
M  V30 688 C 70.5556 2.09658 -3.69227 0
M  V30 689 O 71.5796 1.69967 -3.13033 0
M  V30 690 O 70.4386 2.8258 -4.67772 0
M  V30 691 H 67.5326 0.457653 -0.688827 0
M  V30 692 H 70.0786 0.224073 -1.68214 0
M  V30 693 H 68.8506 0.844105 -3.82087 0
M  V30 694 H 68.4736 2.42336 -3.15212 0
M  V30 695 N 69.4707 1.49531 0.497807 0
M  V30 696 C 70.4027 1.62559 1.61578 0
M  V30 697 C 71.4157 0.508134 1.54667 0
M  V30 698 O 72.6047 0.780309 1.60541 0
M  V30 699 C 69.7047 1.56925 3.00379 0
M  V30 700 C 68.8777 2.84257 3.3244 0
M  V30 701 C 67.9367 2.71632 4.50669 0
M  V30 702 O 66.9627 3.4557 4.52294 0
M  V30 703 N 68.1647 1.83391 5.5077 0
M  V30 704 H 70.9297 2.58981 1.50828 0
M  V30 705 H 68.4907 1.4666 0.685743 0
M  V30 706 H 70.4827 1.46129 3.77397 0
M  V30 707 H 69.0527 0.683483 3.05037 0
M  V30 708 H 68.2727 3.09381 2.44289 0
M  V30 709 H 69.5607 3.68666 3.5066 0
M  V30 710 H 68.9587 1.22583 5.52259 0
M  V30 711 H 67.5157 1.78515 6.26878 0
M  V30 712 N 70.9488 -0.749086 1.3866 0
M  V30 713 C 71.8588 -1.89358 1.38494 0
M  V30 714 C 72.8748 -1.71708 0.281476 0
M  V30 715 O 74.0508 -1.94554 0.520643 0
M  V30 716 C 71.1158 -3.24782 1.21316 0
M  V30 717 C 70.1768 -3.54926 2.41508 0
M  V30 718 C 69.4098 -4.83888 2.2514 0
M  V30 719 O 69.6328 -5.56592 1.24746 0
M  V30 720 O 68.5668 -5.13612 3.13826 0
M  V30 721 H 72.3928 -1.92452 2.34938 0
M  V30 722 H 69.9778 -0.894981 1.19626 0
M  V30 723 H 71.8598 -4.05739 1.13814 0
M  V30 724 H 70.5348 -3.2249 0.279592 0
M  V30 725 H 69.4418 -2.74112 2.54585 0
M  V30 726 H 70.7748 -3.61983 3.3351 0
M  V30 727 N 72.4269 -1.23603 -0.977757 0
M  V30 728 C 73.8379 -1.06424 -1.53398 0
M  V30 729 C 74.1889 0.367578 -1.92726 0
M  V30 730 O 73.3139 1.25465 -1.76316 0
M  V30 731 C 73.9089 -1.92568 -2.78753 0
M  V30 732 C 72.4679 -1.79642 -3.30765 0
M  V30 733 C 71.6149 -1.88111 -2.03739 0
M  V30 734 H 74.5659 -1.37227 -0.797152 0
M  V30 735 H 74.5869 -1.45203 -3.51705 0
M  V30 736 H 74.0989 -2.96771 -2.50098 0
M  V30 737 H 72.1999 -0.782325 -3.64294 0
M  V30 738 H 72.3129 -2.63174 -4.00345 0
M  V30 739 H 70.6769 -1.31723 -2.17994 0
M  V30 740 H 71.4599 -2.93875 -1.77461 0
M  V30 741 N 73.905 1.17692 -1.04816 0
M  V30 742 C 74.835 2.23777 -0.666791 0
M  V30 743 C 75.816 1.66796 0.33361 0
M  V30 744 O 77.001 1.93039 0.212042 0
M  V30 745 C 74.131 3.47281 -0.0367933 0
M  V30 746 C 73.085 4.17059 -0.961546 0
M  V30 747 C 72.411 5.34342 -0.195626 0
M  V30 748 C 73.711 4.69713 -2.28402 0
M  V30 749 H 75.405 2.55933 -1.55367 0
M  V30 750 H 72.951 1.23019 -0.748484 0
M  V30 751 H 74.904 4.20706 0.241775 0
M  V30 752 H 73.628 3.14381 0.885004 0
M  V30 753 H 72.287 3.45541 -1.22462 0
M  V30 754 H 71.935 4.97692 0.728816 0
M  V30 755 H 71.635 5.81966 -0.811775 0
M  V30 756 H 73.159 6.10553 0.0757473 0
M  V30 757 H 74.573 5.34794 -2.06563 0
M  V30 758 H 72.97 5.279 -2.8538 0
M  V30 759 H 74.04 3.86726 -2.92525 0
M  V30 760 N 75.3831 0.828654 1.34056 0
M  V30 761 C 76.6131 0.431993 2.02033 0
M  V30 762 C 77.0211 -0.96844 1.62536 0
M  V30 763 O 76.3641 -1.6391 0.829408 0
M  V30 764 C 76.4261 0.461224 3.56529 0
M  V30 765 C 76.0901 1.81599 4.1937 0
M  V30 766 C 77.0871 2.7777 4.39477 0
M  V30 767 C 74.7721 2.10604 4.56017 0
M  V30 768 C 76.7661 4.01115 4.95364 0
M  V30 769 C 74.4531 3.34207 5.11614 0
M  V30 770 C 75.4511 4.2928 5.31232 0
M  V30 771 O 75.1391 5.50699 5.8565 0
M  V30 772 H 74.8711 0.170943 0.654029 0
M  V30 773 H 77.4251 1.11988 1.72185 0
M  V30 774 H 75.6551 -0.283388 3.8566 0
M  V30 775 H 77.3441 0.0838149 4.05813 0
M  V30 776 H 78.1101 2.56659 4.11523 0
M  V30 777 H 73.9891 1.37402 4.40047 0
M  V30 778 H 77.5331 4.75333 5.10592 0
M  V30 779 H 73.4301 3.55179 5.38997 0
M  V30 780 H 74.1981 5.52298 6.04077 0
M  V30 781 N 76.8612 -1.46375 0.584142 0
M  V30 782 C 78.2722 -1.86031 0.157959 0
M  V30 783 C 78.6232 -1.48753 -1.27933 0
M  V30 784 O 77.7482 -0.903098 -1.96655 0
M  V30 785 C 78.3432 -3.37642 0.279892 0
M  V30 786 C 76.9022 -3.76289 -0.09143 0
M  V30 787 C 76.0492 -2.7039 0.615178 0
M  V30 788 H 79.0002 -1.37509 0.792274 0
M  V30 789 H 79.0212 -3.77275 -0.494364 0
M  V30 790 H 78.5332 -3.64742 1.32607 0
M  V30 791 H 76.6342 -3.54806 -1.13769 0
M  V30 792 H 76.7472 -4.78246 0.285886 0
M  V30 793 H 75.1112 -2.5464 0.0552833 0
M  V30 794 H 75.8942 -3.0033 1.66303 0
M  V30 795 N 78.3393 -0.321999 -1.54275 0
M  V30 796 C 79.5853 0.281461 -2.00837 0
M  V30 797 C 79.9183 1.51909 -1.20985 0
M  V30 798 O 79.1933 1.923 -0.291733 0
M  V30 799 C 79.4763 0.617162 -3.54772 0
M  V30 800 C 79.3293 -0.631064 -4.45351 0
M  V30 801 C 80.6483 1.43542 -4.16033 0
M  V30 802 H 77.7673 0.100826 -0.730071 0
M  V30 803 H 80.4093 -0.438268 -1.84876 0
M  V30 804 H 78.5593 1.23034 -3.68504 0
M  V30 805 H 80.2313 -1.26934 -4.43492 0
M  V30 806 H 78.4743 -1.26025 -4.15091 0
M  V30 807 H 79.1453 -0.351735 -5.50878 0
M  V30 808 H 81.6213 0.917134 -4.05867 0
M  V30 809 H 80.4973 1.63907 -5.23856 0
M  V30 810 H 80.7583 2.43108 -3.69257 0
M  V30 811 N 79.8174 1.5752 -0.0501392 0
M  V30 812 C 80.7494 2.08413 0.95376 0
M  V30 813 C 81.7624 1.01175 1.27544 0
M  V30 814 O 82.9514 1.28744 1.23641 0
M  V30 815 C 80.0514 2.51138 2.27559 0
M  V30 816 C 79.2244 3.817 2.13598 0
M  V30 817 C 78.2834 4.10749 3.28895 0
M  V30 818 O 77.3094 4.80685 3.04845 0
M  V30 819 N 78.5114 3.62579 4.5334 0
M  V30 820 H 81.2764 2.95165 0.519383 0
M  V30 821 H 78.8374 1.61327 0.136127 0
M  V30 822 H 80.8294 2.67648 3.03557 0
M  V30 823 H 79.3994 1.6964 2.62567 0
M  V30 824 H 78.6194 3.74782 1.22197 0
M  V30 825 H 79.9074 4.67201 2.01496 0
M  V30 826 H 79.3054 3.06039 4.75769 0
M  V30 827 H 77.8624 3.84329 5.26436 0
M  V30 828 N 81.2955 -0.223234 1.56011 0
M  V30 829 C 82.5415 -0.949279 1.79211 0
M  V30 830 C 82.8745 -1.84054 0.619494 0
M  V30 831 O 82.1495 -1.90726 -0.381317 0
M  V30 832 C 82.4325 -1.78965 3.12479 0
M  V30 833 C 82.2855 -0.924997 4.40186 0
M  V30 834 C 83.6045 -2.76774 3.42175 0
M  V30 835 H 80.7235 -0.343676 0.651963 0
M  V30 836 H 83.3655 -0.218253 1.88742 0
M  V30 837 H 81.5155 -2.41291 3.04485 0
M  V30 838 H 83.1875 -0.318615 4.60198 0
M  V30 839 H 81.4305 -0.230344 4.33188 0
M  V30 840 H 82.1015 -1.54735 5.29869 0
M  V30 841 H 84.5775 -2.24584 3.50287 0
M  V30 842 H 83.4535 -3.32678 4.36597 0
M  V30 843 H 83.7145 -3.54429 2.64258 0
M  V30 844 N 82.7736 -1.49793 -0.48987 0
M  V30 845 C 83.9986 -1.63836 -1.27172 0
M  V30 846 C 84.4236 -0.31402 -1.8546 0
M  V30 847 O 83.7816 0.719803 -1.66399 0
M  V30 848 C 83.8296 -2.71797 -2.36978 0
M  V30 849 O 82.9336 -2.31744 -3.41128 0
M  V30 850 H 82.2746 -0.547997 -0.37496 0
M  V30 851 H 84.8046 -1.96053 -0.585191 0
M  V30 852 H 84.8146 -2.94305 -2.82575 0
M  V30 853 H 83.4896 -3.67923 -1.93921 0
M  V30 854 H 82.0666 -2.1961 -3.01373 0
M  V30 855 N 84.2517 0.741722 -1.39055 0
M  V30 856 C 85.4767 1.53607 -1.39354 0
M  V30 857 C 85.9017 1.88096 0.0116905 0
M  V30 858 O 85.2597 1.5143 0.996924 0
M  V30 859 C 85.3077 2.80441 -2.26682 0
M  V30 860 O 84.4117 3.76088 -1.69208 0
M  V30 861 H 83.7527 0.464142 -0.474835 0
M  V30 862 H 86.2827 0.915665 -1.82967 0
M  V30 863 H 86.2927 3.29246 -2.40959 0
M  V30 864 H 84.9677 2.5467 -3.2881 0
M  V30 865 H 83.5447 3.34833 -1.64138 0
M  V30 866 N 85.7298 1.2412 0.971189 0
M  V30 867 C 86.6928 1.03156 2.04674 0
M  V30 868 C 87.6928 -0.00990322 1.60797 0
M  V30 869 O 88.8828 0.230729 1.72665 0
M  V30 870 C 86.0148 0.562765 3.36223 0
M  V30 871 H 87.2078 1.98614 2.24705 0
M  V30 872 H 84.7608 1.06293 1.14593 0
M  V30 873 H 85.4958 -0.395176 3.21883 0
M  V30 874 H 85.2808 1.31441 3.69413 0
M  V30 875 H 86.7708 0.437015 4.15307 0
M  V30 876 N 87.2079 -1.17134 1.05439 0
M  V30 877 C 88.4849 -1.83411 0.679699 0
M  V30 878 C 88.8649 -1.9368 -0.839726 0
M  V30 879 O 88.2129 -1.47325 -1.74664 0
M  V30 880 C 88.4229 -3.20918 1.37159 0
M  V30 881 C 89.7709 -3.96796 1.51123 0
M  V30 882 O 90.7949 -3.30406 1.3308 0
M  V30 883 O 89.6539 -5.15778 1.80651 0
M  V30 884 H 86.7479 -0.79154 0.239569 0
M  V30 885 H 89.2939 -1.24411 1.15413 0
M  V30 886 H 88.0659 -3.08428 2.40807 0
M  V30 887 H 87.6889 -3.87587 0.886674 0
M  V30 888 N 88.686 -0.835752 -1.33615 0
M  V30 889 C 89.649 -0.272 -2.2758 0
M  V30 890 C 90.649 0.557487 -1.50827 0
M  V30 891 O 91.839 0.37173 -1.70188 0
M  V30 892 C 88.971 0.617173 -3.35267 0
M  V30 893 H 90.164 -1.10111 -2.78954 0
M  V30 894 H 87.717 -0.608594 -1.43965 0
M  V30 895 H 88.452 1.46884 -2.89129 0
M  V30 896 H 88.237 0.0237066 -3.92093 0
M  V30 897 H 89.727 1.005 -4.05326 0
M  V30 898 N 90.1641 1.46063 -0.591896 0
M  V30 899 C 91.5801 1.57561 -0.254288 0
M  V30 900 C 91.7801 1.58565 1.24336 0
M  V30 901 O 90.8361 1.50753 2.02558 0
M  V30 902 C 92.1491 2.86549 -0.911611 0
M  V30 903 C 93.6971 3.00197 -0.886059 0
M  V30 904 C 94.1721 4.31933 -1.5231 0
M  V30 905 N 95.6631 4.38654 -1.48786 0
M  V30 906 C 96.3981 5.39222 -1.95006 0
M  V30 907 N 95.8941 6.46414 -2.49241 0
M  V30 908 N 97.6871 5.3048 -1.85868 0
M  V30 909 H 89.8381 1.43655 -1.56451 0
M  V30 910 H 92.1011 0.68583 -0.654478 0
M  V30 911 H 91.8071 2.91651 -1.96551 0
M  V30 912 H 91.6811 3.74794 -0.425368 0
M  V30 913 H 94.0681 2.9467 0.159246 0
M  V30 914 H 94.1491 2.13403 -1.41041 0
M  V30 915 H 93.7931 4.38217 -2.56765 0
M  V30 916 H 93.7231 5.17516 -0.973891 0
M  V30 917 H 96.2141 3.61793 -1.09151 0
M  V30 918 H 96.5271 7.19376 -2.82344 0
M  V30 919 H 94.8721 6.47208 -2.53272 0
M  V30 920 H 98.0631 4.45643 -1.43248 0
M  V30 921 H 98.2361 6.08711 -2.22204 0
M  V30 922 N 91.6422 0.330177 1.54103 0
M  V30 923 C 92.5722 -0.525353 2.27513 0
M  V30 924 C 93.5532 -1.11383 1.2856 0
M  V30 925 O 94.7382 -1.13773 1.57383 0
M  V30 926 C 91.8682 -1.6831 3.03791 0
M  V30 927 C 90.8222 -1.2236 4.10137 0
M  V30 928 C 90.1482 -2.46882 4.74293 0
M  V30 929 C 91.4482 -0.333697 5.21233 0
M  V30 930 H 93.1422 0.087013 2.99274 0
M  V30 931 H 90.6882 0.0432893 1.43935 0
M  V30 932 H 92.6412 -2.28795 3.5388 0
M  V30 933 H 91.3652 -2.32216 2.29659 0
M  V30 934 H 90.0242 -0.64165 3.60941 0
M  V30 935 H 89.6722 -3.09165 3.96769 0
M  V30 936 H 89.3722 -2.16825 5.46133 0
M  V30 937 H 90.8962 -3.08117 5.27159 0
M  V30 938 H 92.3102 -0.845013 5.67038 0
M  V30 939 H 90.7072 -0.125612 5.99969 0
M  V30 940 H 91.7772 0.633724 4.80741 0
M  V30 941 N 93.1203 -1.57491 0.0584922 0
M  V30 942 C 94.0533 -2.07533 -0.948969 0
M  V30 943 C 95.0313 -0.977444 -1.29942 0
M  V30 944 O 96.2153 -1.2499 -1.41102 0
M  V30 945 C 93.3423 -2.52192 -2.2609 0
M  V30 946 C 92.3883 -3.73287 -2.06298 0
M  V30 947 S 93.2213 -5.18603 -1.33459 0
M  V30 948 C 94.3773 -5.66583 -2.65959 0
M  V30 949 H 94.6103 -2.92662 -0.523118 0
M  V30 950 H 92.1433 -1.53631 -0.153954 0
M  V30 951 H 94.1013 -2.78585 -3.01498 0
M  V30 952 H 92.7623 -1.67356 -2.65802 0
M  V30 953 H 91.9553 -4.0248 -3.03357 0
M  V30 954 H 91.5573 -3.47199 -1.39029 0
M  V30 955 H 93.8493 -5.72616 -3.62101 0
M  V30 956 H 94.7923 -6.65684 -2.41393 0
M  V30 957 H 95.2003 -4.94342 -2.72554 0
M  V30 958 N 94.5984 0.214957 -1.56127 0
M  V30 959 C 95.8444 0.939762 -1.79712 0
M  V30 960 C 96.1774 1.83723 -0.629247 0
M  V30 961 O 95.4524 1.90925 0.371197 0
M  V30 962 C 95.7354 1.77306 -3.13424 0
M  V30 963 C 95.5884 0.90164 -4.40671 0
M  V30 964 C 96.9074 2.74956 -3.43638 0
M  V30 965 H 94.0264 0.340214 -0.653776 0
M  V30 966 H 96.6684 0.20824 -1.88855 0
M  V30 967 H 94.8184 2.39673 -3.0576 0
M  V30 968 H 96.4904 0.294206 -4.60361 0
M  V30 969 H 94.7334 0.207368 -4.33304 0
M  V30 970 H 95.4044 1.51923 -5.30682 0
M  V30 971 H 97.8804 2.22724 -3.51473 0
M  V30 972 H 96.7564 3.30358 -4.38355 0
M  V30 973 H 97.0174 3.53023 -2.66134 0
M  V30 974 N 96.0765 1.50051 0.48192 0
M  V30 975 C 97.3235 1.60498 1.23477 0
M  V30 976 C 97.6515 0.300331 1.92167 0
M  V30 977 O 96.9065 -0.713094 1.82246 0
M  V30 978 C 97.2055 2.72717 2.30998 0
M  V30 979 C 96.8715 4.13572 1.79636 0
M  V30 980 C 95.5335 4.519 1.65348 0
M  V30 981 C 97.8855 5.01649 1.41412 0
M  V30 982 C 95.2135 5.76057 1.11244 0
M  V30 983 C 97.5655 6.26343 0.887538 0
M  V30 984 C 96.2295 6.63483 0.731207 0
M  V30 985 H 95.4995 0.587303 0.451836 0
M  V30 986 H 98.1465 1.83948 0.532468 0
M  V30 987 H 96.4515 2.43312 3.07094 0
M  V30 988 H 98.1485 2.78006 2.88988 0
M  V30 989 H 94.7385 3.83329 1.91721 0
M  V30 990 H 98.9225 4.72679 1.51289 0
M  V30 991 H 94.1785 6.03516 0.978686 0
M  V30 992 H 98.3525 6.93958 0.582654 0
M  V30 993 H 95.9795 7.59568 0.309806 0
M  V30 994 N 97.5546 -0.734337 1.39446 0
M  V30 995 C 98.8316 -1.48579 1.27215 0
M  V30 996 C 99.2116 -2.1077 -0.117968 0
M  V30 997 O 98.5596 -1.98646 -1.12924 0
M  V30 998 C 98.7696 -2.53667 2.39696 0
M  V30 999 C 100.118 -3.20031 2.79044 0
M  V30 1000 O 101.142 -2.6398 2.39151 0
M  V30 1001 O 100.001 -4.21455 3.47905 0
M  V30 1002 H 97.0946 -0.659816 0.49857 0
M  V30 1003 H 99.6406 -0.768106 1.51322 0
M  V30 1004 H 98.4126 -2.06096 3.32626 0
M  V30 1005 H 98.0356 -3.32994 2.17258 0
M  V30 1006 N 99.0327 -1.24633 -0.964593 0
M  V30 1007 C 99.9797 -1.04144 -2.05968 0
M  V30 1008 C 100.95 0.046262 -1.66036 0
M  V30 1009 O 102.135 -0.108972 -1.90489 0
M  V30 1010 C 99.2747 -0.65563 -3.38815 0
M  V30 1011 C 98.3877 -1.81714 -3.91923 0
M  V30 1012 C 97.5227 -1.37662 -5.13052 0
M  V30 1013 C 96.5617 -2.50788 -5.58365 0
M  V30 1014 N 95.6987 -2.07582 -6.70712 0
M  V30 1015 H 100.539 -1.9787 -2.22827 0
M  V30 1016 H 98.0757 -0.9855 -1.09208 0
M  V30 1017 H 100.034 -0.412954 -4.15151 0
M  V30 1018 H 98.6637 0.244627 -3.21872 0
M  V30 1019 H 97.7157 -2.1734 -3.12198 0
M  V30 1020 H 99.0277 -2.66705 -4.21509 0
M  V30 1021 H 98.1817 -1.093 -5.96773 0
M  V30 1022 H 96.9207 -0.497293 -4.85158 0
M  V30 1023 H 95.9257 -2.79906 -4.73215 0
M  V30 1024 H 97.1507 -3.39283 -5.88272 0
M  V30 1025 H 95.0967 -1.22051 -6.44546 0
M  V30 1026 H 95.0137 -2.86125 -6.99763 0
M  V30 1027 H 96.2817 -1.82369 -7.57867 0
M  V30 1028 N 100.511 1.16574 -1.06058 0
M  V30 1029 C 101.739 1.90952 -0.796552 0
M  V30 1030 C 102.154 1.77302 0.648808 0
M  V30 1031 O 101.511 1.11605 1.44397 0
M  V30 1032 C 101.562 3.41736 -1.17894 0
M  V30 1033 O 101.283 3.54975 -2.56758 0
M  V30 1034 C 102.784 4.33169 -0.942308 0
M  V30 1035 H 100.004 0.605594 -0.288959 0
M  V30 1036 H 102.548 1.47777 -1.41358 0
M  V30 1037 H 100.703 3.82623 -0.606491 0
M  V30 1038 H 101.117 4.4846 -2.72 0
M  V30 1039 H 102.591 5.37439 -1.25952 0
M  V30 1040 H 103.068 4.3903 0.122078 0
M  V30 1041 H 103.674 3.98007 -1.49902 0
M  V30 1042 N 101.989 0.842826 1.3317 0
M  V30 1043 C 102.899 0.281444 2.32906 0
M  V30 1044 C 103.915 -0.594587 1.63526 0
M  V30 1045 O 105.091 -0.49777 1.95152 0
M  V30 1046 C 102.156 -0.530929 3.42611 0
M  V30 1047 C 101.217 0.369843 4.27704 0
M  V30 1048 C 100.45 -0.403853 5.3217 0
M  V30 1049 O 100.673 -1.63513 5.46461 0
M  V30 1050 O 99.6069 0.224199 6.01482 0
M  V30 1051 H 103.433 1.10744 2.82789 0
M  V30 1052 H 101.018 0.60545 1.36582 0
M  V30 1053 H 102.9 -0.992437 4.09547 0
M  V30 1054 H 101.575 -1.33392 2.94938 0
M  V30 1055 H 100.482 0.879275 3.6362 0
M  V30 1056 H 101.815 1.13771 4.78871 0
M  V30 1057 N 103.467 -1.45747 0.599634 0
M  V30 1058 C 104.715 -2.01893 0.0915472 0
M  V30 1059 C 105.036 -1.47155 -1.27946 0
M  V30 1060 O 104.306 -0.66273 -1.84349 0
M  V30 1061 H 102.886 -0.746363 0.0308524 0
M  V30 1062 H 105.548 -1.78645 0.779237 0
M  V30 1063 H 104.644 -3.1208 0.0353086 0
M  V30 1064 N 104.945 -0.338344 -1.53925 0
M  V30 1065 C 106.173 0.261298 -2.05243 0
M  V30 1066 C 106.588 1.44625 -1.21363 0
M  V30 1067 O 105.945 1.80811 -0.247736 0
M  V30 1068 C 105.996 0.681412 -3.5502 0
M  V30 1069 O 105.717 -0.456414 -4.35716 0
M  V30 1070 C 107.218 1.34232 -4.22489 0
M  V30 1071 H 104.438 0.0513685 -0.669031 0
M  V30 1072 H 106.982 -0.488822 -1.98572 0
M  V30 1073 H 105.137 1.38148 -3.61931 0
M  V30 1074 H 105.551 -0.122564 -5.24357 0
M  V30 1075 H 107.025 1.58708 -5.28693 0
M  V30 1076 H 107.502 2.29426 -3.74514 0
M  V30 1077 H 108.108 0.684424 -4.19757 0
M  V30 1078 N 106.423 1.57458 -0.0668435 0
M  V30 1079 C 107.669 1.94401 0.598316 0
M  V30 1080 C 108.024 0.946335 1.67518 0
M  V30 1081 O 107.317 -0.0321442 1.91573 0
M  V30 1082 C 107.511 3.35784 1.22409 0
M  V30 1083 C 107.34 4.49212 0.209367 0
M  V30 1084 C 106.11 5.04887 -0.204218 0
M  V30 1085 C 108.308 5.11335 -0.551431 0
M  V30 1086 N 106.29 6.01854 -1.21016 0
M  V30 1087 C 107.661 6.03754 -1.41 0
M  V30 1088 C 109.716 4.94173 -0.608038 0
M  V30 1089 C 108.419 6.80854 -2.32013 0
M  V30 1090 C 110.445 5.71912 -1.50566 0
M  V30 1091 C 109.807 6.63976 -2.35191 0
M  V30 1092 H 105.906 0.758538 0.190114 0
M  V30 1093 H 108.49 1.94175 -0.142832 0
M  V30 1094 H 106.661 3.36757 1.93518 0
M  V30 1095 H 108.393 3.59976 1.84931 0
M  V30 1096 H 105.148 4.73266 0.177908 0
M  V30 1097 H 105.572 6.55035 -1.71049 0
M  V30 1098 H 110.214 4.22788 0.032022 0
M  V30 1099 H 107.932 7.5152 -2.97057 0
M  V30 1100 H 111.518 5.60656 -1.55423 0
M  V30 1101 H 110.398 7.2308 -3.03522 0
M  V30 1102 N 107.901 -0.206675 1.56239 0
M  V30 1103 C 109.317 -0.557025 1.49564 0
M  V30 1104 C 109.517 -1.86424 0.764735 0
M  V30 1105 O 108.573 -2.50584 0.310491 0
M  V30 1106 C 109.886 -0.622478 2.94186 0
M  V30 1107 C 111.434 -0.712099 3.04792 0
M  V30 1108 C 111.909 -0.808767 4.50803 0
M  V30 1109 N 113.4 -0.8726 4.54907 0
M  V30 1110 C 114.135 -0.967365 5.65181 0
M  V30 1111 N 113.631 -1.02515 6.85173 0
M  V30 1112 N 115.424 -1.00366 5.53067 0
M  V30 1113 H 107.575 0.650943 2.02179 0
M  V30 1114 H 109.838 0.230387 0.919579 0
M  V30 1115 H 109.544 0.268727 3.50672 0
M  V30 1116 H 109.418 -1.4811 3.46905 0
M  V30 1117 H 111.805 -1.59374 2.48363 0
M  V30 1118 H 111.886 0.172489 2.55218 0
M  V30 1119 H 111.53 0.0684754 5.07854 0
M  V30 1120 H 111.46 -1.70899 4.98098 0
M  V30 1121 H 113.951 -0.837657 3.68499 0
M  V30 1122 H 114.264 -1.09765 7.64965 0
M  V30 1123 H 112.609 -0.994026 6.87855 0
M  V30 1124 H 115.8 -0.95527 4.58249 0
M  V30 1125 H 115.973 -1.07405 6.39037 0
M  V30 1126 N 109.379 -1.50304 -0.473955 0
M  V30 1127 C 110.309 -1.71886 -1.58042 0
M  V30 1128 C 111.29 -0.567799 -1.60344 0
M  V30 1129 O 112.475 -0.806623 -1.76656 0
M  V30 1130 C 109.605 -1.81036 -2.96384 0
M  V30 1131 C 108.559 -2.962 -3.08949 0
M  V30 1132 C 107.885 -2.9049 -4.48909 0
M  V30 1133 C 109.185 -4.36752 -2.86434 0
M  V30 1134 H 110.879 -2.64527 -1.40234 0
M  V30 1135 H 108.425 -1.27295 -0.673201 0
M  V30 1136 H 110.378 -1.94719 -3.73714 0
M  V30 1137 H 109.102 -0.850147 -3.15341 0
M  V30 1138 H 107.761 -2.82164 -2.3405 0
M  V30 1139 H 107.409 -1.92321 -4.64781 0
M  V30 1140 H 107.109 -3.67802 -4.58253 0
M  V30 1141 H 108.633 -3.06218 -5.28264 0
M  V30 1142 H 110.047 -4.5133 -3.53517 0
M  V30 1143 H 108.444 -5.15493 -3.07225 0
M  V30 1144 H 109.514 -4.49321 -1.82316 0
M  V30 1145 N 110.857 0.726932 -1.39834 0
M  V30 1146 C 111.787 1.85405 -1.41941 0
M  V30 1147 C 112.768 1.67751 -0.281728 0
M  V30 1148 O 113.953 1.8795 -0.488717 0
M  V30 1149 C 111.083 3.23243 -1.2701 0
M  V30 1150 C 110.037 3.55549 -2.38262 0
M  V30 1151 C 109.363 4.9241 -2.08415 0
M  V30 1152 C 110.663 3.577 -3.80589 0
M  V30 1153 H 112.357 1.83899 -2.36266 0
M  V30 1154 H 109.903 0.883349 -1.13723 0
M  V30 1155 H 111.856 4.01775 -1.27103 0
M  V30 1156 H 110.58 3.25296 -0.291564 0
M  V30 1157 H 109.239 2.79351 -2.37399 0
M  V30 1158 H 108.887 4.91052 -1.0898 0
M  V30 1159 H 108.587 5.14992 -2.82943 0
M  V30 1160 H 110.111 5.73289 -2.10171 0
M  V30 1161 H 111.525 4.26293 -3.83337 0
M  V30 1162 H 109.922 3.91804 -4.54543 0
M  V30 1163 H 110.992 2.57328 -4.10987 0
M  V30 1164 N 112.336 1.25143 0.95797 0
M  V30 1165 C 113.576 1.10893 1.71703 0
M  V30 1166 C 113.94 -0.34478 1.88879 0
M  V30 1167 O 115.141 -0.609014 2.6181 0
M  V30 1168 C 113.412 1.83889 3.06463 0
M  V30 1169 S 114.971 1.85491 3.97666 0
M  V30 1170 H 111.789 0.396428 0.590226 0
M  V30 1171 H 114.391 1.58618 1.14283 0
M  V30 1172 H 113.095 2.88756 2.9163 0
M  V30 1173 H 112.626 1.36538 3.68946 0
M  V30 1174 H 114.641 0.929553 4.87415 0
M  V30 1175 N 113.814 -1.1601 1.06675 0
M  V30 1176 C 115.039 -1.91068 0.806706 0
M  V30 1177 C 115.464 -1.77112 -0.633485 0
M  V30 1178 O 114.822 -1.09908 -1.44187 0
M  V30 1179 C 114.87 -3.39655 1.21106 0
M  V30 1180 O 113.974 -4.10893 0.352189 0
M  V30 1181 H 113.315 -0.595125 0.294486 0
M  V30 1182 H 115.845 -1.46955 1.42356 0
M  V30 1183 H 115.855 -3.90434 1.18428 0
M  V30 1184 H 114.53 -3.49132 2.26008 0
M  V30 1185 H 113.107 -3.70285 0.440868 0
M  V30 1186 N 115.292 -0.849877 -1.32721 0
M  V30 1187 C 116.517 -0.463856 -2.02146 0
M  V30 1188 C 116.942 0.930449 -1.63476 0
M  V30 1189 O 116.3 1.61033 -0.832952 0
M  V30 1190 C 116.348 -0.604955 -3.55489 0
M  V30 1191 O 115.452 0.36425 -4.10788 0
M  V30 1192 H 114.793 -0.187046 -0.637111 0
M  V30 1193 H 117.323 -1.14775 -1.69375 0
M  V30 1194 H 117.333 -0.490696 -4.05038 0
M  V30 1195 H 116.008 -1.62174 -3.82978 0
M  V30 1196 H 114.585 0.206628 -3.72327 0
M  V30 1197 N 116.77 1.45427 -0.607355 0
M  V30 1198 C 118.186 1.57283 -0.270985 0
M  V30 1199 C 118.386 1.59875 1.22647 0
M  V30 1200 O 117.442 1.52893 2.00948 0
M  V30 1201 C 118.755 2.85566 -0.941952 0
M  V30 1202 C 120.303 2.9924 -0.917849 0
M  V30 1203 C 120.778 4.30293 -1.56882 0
M  V30 1204 N 122.269 4.37051 -1.5343 0
M  V30 1205 C 123.004 5.37123 -2.00715 0
M  V30 1206 N 122.5 6.43734 -2.56084 0
M  V30 1207 N 124.293 5.28479 -1.91484 0
M  V30 1208 H 116.444 1.41988 -1.57966 0
M  V30 1209 H 118.707 0.67885 -0.661715 0
M  V30 1210 H 118.413 2.8955 -1.99633 0
M  V30 1211 H 118.287 3.74322 -0.465096 0
M  V30 1212 H 120.674 2.94822 0.127984 0
M  V30 1213 H 120.755 2.11895 -1.43297 0
M  V30 1214 H 120.399 4.35469 -2.61398 0
M  V30 1215 H 120.329 5.16454 -1.02873 0
M  V30 1216 H 122.82 3.60615 -1.12982 0
M  V30 1217 H 123.133 7.16341 -2.89958 0
M  V30 1218 H 121.478 6.44485 -2.60122 0
M  V30 1219 H 124.669 4.44098 -1.47967 0
M  V30 1220 H 124.842 6.0632 -2.28648 0
M  V30 1221 N 118.248 0.346503 1.53744 0
M  V30 1222 C 119.473 -0.253074 2.0585 0
M  V30 1223 C 119.898 -1.43202 1.21962 0
M  V30 1224 O 119.256 -1.79783 0.234073 0
M  V30 1225 C 119.304 -0.643193 3.54817 0
M  V30 1226 O 118.408 -1.74286 3.73762 0
M  V30 1227 H 117.749 -0.0413583 0.662711 0
M  V30 1228 H 120.279 0.501574 1.98357 0
M  V30 1229 H 120.289 -0.919526 3.97503 0
M  V30 1230 H 118.964 0.218966 4.15323 0
M  V30 1231 H 117.541 -1.46356 3.42979 0
M  V30 1232 N 119.726 -1.57421 0.075193 0
M  V30 1233 C 120.674 -2.14124 -0.908508 0
M  V30 1234 C 121.668 -1.07898 -1.30592 0
M  V30 1235 O 122.874 -1.26273 -1.28277 0
M  V30 1236 H 119.249 -0.684707 -0.310935 0
M  V30 1237 H 121.22 -2.95634 -0.405374 0
M  V30 1238 C 119.969 -2.72044 -2.16535 0
M  V30 1239 H 119.292 -3.53456 -1.86839 0
M  V30 1240 H 120.732 -3.15311 -2.83469 0
M  V30 1241 C 119.191 -1.66968 -2.92615 0
M  V30 1242 O 119.721 -1.0967 -3.86439 0
M  V30 1243 N 117.927 -1.37923 -2.55784 0
M  V30 1244 H 117.474 -1.84706 -1.79559 0
M  V30 1245 H 117.432 -0.67852 -3.06991 0
M  V30 1246 N 121.204 0.198386 -1.56346 0
M  V30 1247 C 122.167 1.22952 -1.93431 0
M  V30 1248 C 123.167 1.38611 -0.815092 0
M  V30 1249 O 124.357 1.36479 -1.08255 0
M  V30 1250 C 121.489 2.59946 -2.20546 0
M  V30 1251 H 122.682 0.912626 -2.85677 0
M  V30 1252 H 120.235 0.43977 -1.49986 0
M  V30 1253 H 120.97 2.96696 -1.30927 0
M  V30 1254 H 120.755 2.49953 -3.02102 0
M  V30 1255 H 122.245 3.3431 -2.50253 0
M  V30 1256 N 122.682 1.50554 0.465978 0
M  V30 1257 C 124.098 1.38093 0.800154 0
M  V30 1258 C 124.298 0.440988 1.96615 0
M  V30 1259 O 123.354 -0.114499 2.5224 0
M  V30 1260 C 124.667 2.79565 1.10742 0
M  V30 1261 C 126.215 2.88516 1.21357 0
M  V30 1262 C 126.69 4.30833 1.55393 0
M  V30 1263 N 128.181 4.33807 1.62375 0
M  V30 1264 C 128.916 5.40927 1.90225 0
M  V30 1265 N 128.412 6.58247 2.16062 0
M  V30 1266 N 130.205 5.28376 1.9177 0
M  V30 1267 H 122.356 2.10237 -0.302366 0
M  V30 1268 H 124.619 0.945203 -0.0727746 0
M  V30 1269 H 124.325 3.50208 0.323661 0
M  V30 1270 H 124.199 3.17125 2.04234 0
M  V30 1271 H 126.586 2.1809 1.98799 0
M  V30 1272 H 126.667 2.54492 0.258321 0
M  V30 1273 H 126.311 5.01799 0.784889 0
M  V30 1274 H 126.241 4.62347 2.52076 0
M  V30 1275 H 128.732 3.49212 1.44427 0
M  V30 1276 H 129.045 7.3569 2.36601 0
M  V30 1277 H 127.39 6.61413 2.13444 0
M  V30 1278 H 130.581 4.35715 1.71085 0
M  V30 1279 H 130.754 6.11944 2.13139 0
M  V30 1280 N 124.16 -0.719506 1.40217 0
M  V30 1281 C 125.406 -1.48152 1.38488 0
M  V30 1282 C 125.739 -1.94195 -0.0141867 0
M  V30 1283 O 125.014 -1.67884 -0.982096 0
M  V30 1284 C 125.297 -2.71035 2.37091 0
M  V30 1285 C 125.15 -2.30912 3.86005 0
M  V30 1286 C 126.469 -3.73182 2.33288 0
M  V30 1287 H 123.588 -0.537395 0.504357 0
M  V30 1288 H 126.23 -0.821472 1.71324 0
M  V30 1289 H 124.38 -3.27352 2.0922 0
M  V30 1290 H 126.052 -1.80107 4.24687 0
M  V30 1291 H 124.295 -1.62958 4.02029 0
M  V30 1292 H 124.966 -3.18978 4.50508 0
M  V30 1293 H 127.442 -3.26485 2.57966 0
M  V30 1294 H 126.318 -4.56806 3.04334 0
M  V30 1295 H 126.579 -4.21202 1.34317 0
M  V30 1296 N 125.638 -1.25649 -0.95132 0
M  V30 1297 C 126.601 -1.06399 -2.03007 0
M  V30 1298 C 127.601 -0.0156794 -1.60792 0
M  V30 1299 O 128.791 -0.25817 -1.72276 0
M  V30 1300 C 125.923 -0.616184 -3.35285 0
M  V30 1301 H 127.116 -2.02164 -2.21517 0
M  V30 1302 H 124.669 -1.08103 -1.12887 0
M  V30 1303 H 125.404 0.343917 -3.22471 0
M  V30 1304 H 125.189 -1.37301 -3.67275 0
M  V30 1305 H 126.679 -0.503032 -4.14559 0
M  V30 1306 N 127.117 1.15442 -1.07289 0
M  V30 1307 C 128.365 1.85845 -0.794096 0
M  V30 1308 C 128.686 1.82692 0.681809 0
M  V30 1309 O 127.956 1.26741 1.49377 0
M  V30 1310 H 126.536 0.688089 -0.290763 0
M  V30 1311 H 129.198 1.39947 -1.3565 0
M  V30 1312 H 128.294 2.91001 -1.12804 0
M  V30 1313 N 128.595 0.856903 1.32268 0
M  V30 1314 C 129.525 0.31858 2.31316 0
M  V30 1315 C 130.506 -0.583487 1.59779 0
M  V30 1316 O 131.691 -0.503259 1.87566 0
M  V30 1317 C 128.821 -0.491979 3.43798 0
M  V30 1318 C 127.775 0.315849 4.26833 0
M  V30 1319 C 127.101 -0.619586 5.31098 0
M  V30 1320 C 128.401 1.54282 4.98993 0
M  V30 1321 H 130.095 1.14621 2.76591 0
M  V30 1322 H 127.641 0.552613 1.32974 0
M  V30 1323 H 129.594 -0.879012 4.1213 0
M  V30 1324 H 128.318 -1.35299 2.97257 0
M  V30 1325 H 126.977 0.684664 3.6015 0
M  V30 1326 H 126.625 -1.47751 4.8081 0
M  V30 1327 H 126.325 -0.0830621 5.87541 0
M  V30 1328 H 127.849 -1.00375 6.02293 0
M  V30 1329 H 129.263 1.22796 5.59995 0
M  V30 1330 H 127.66 2.01745 5.65172 0
M  V30 1331 H 128.73 2.30285 4.26728 0
M  V30 1332 N 130.073 -1.45103 0.615059 0
M  V30 1333 C 131.298 -2.07064 0.117988 0
M  V30 1334 C 131.723 -1.4554 -1.19163 0
M  V30 1335 O 131.081 -0.550855 -1.72729 0
M  V30 1336 C 131.129 -3.606 -0.000288387 0
M  V30 1337 O 130.233 -3.98847 -1.04856 0
M  V30 1338 H 129.574 -0.659467 0.0774581 0
M  V30 1339 H 132.104 -1.86236 0.847186 0
M  V30 1340 H 132.114 -4.07529 -0.196091 0
M  V30 1341 H 130.789 -4.04765 0.955932 0
M  V30 1342 H 129.366 -3.63577 -0.828619 0
M  V30 1343 N 131.551 -0.354651 -1.53558 0
M  V30 1344 C 132.791 0.238651 -2.03002 0
M  V30 1345 C 133.155 1.46878 -1.23656 0
M  V30 1346 O 134.356 2.13699 -1.63053 0
M  V30 1347 C 132.627 0.534175 -3.53386 0
M  V30 1348 S 134.186 1.10271 -4.24719 0
M  V30 1349 H 131.004 0.0702908 -0.707517 0
M  V30 1350 H 133.606 -0.494987 -1.8913 0
M  V30 1351 H 132.31 -0.368765 -4.0874 0
M  V30 1352 H 131.841 1.29718 -3.71398 0
M  V30 1353 H 133.856 2.38772 -4.34974 0
M  V30 1354 N 133.029 1.57378 -0.0835403 0
M  V30 1355 C 133.939 2.16897 0.894021 0
M  V30 1356 C 134.955 1.13528 1.31861 0
M  V30 1357 O 136.131 1.45848 1.3889 0
M  V30 1358 C 133.196 2.72831 2.13925 0
M  V30 1359 C 132.257 3.91115 1.76997 0
M  V30 1360 C 131.49 4.44371 2.95584 0
M  V30 1361 O 131.713 3.96596 4.09961 0
M  V30 1362 O 130.647 5.35549 2.74719 0
M  V30 1363 H 134.473 3.00814 0.417679 0
M  V30 1364 H 132.058 1.48741 0.140181 0
M  V30 1365 H 133.94 3.0863 2.86924 0
M  V30 1366 H 132.615 1.91967 2.60635 0
M  V30 1367 H 131.522 3.60148 1.01214 0
M  V30 1368 H 132.855 4.73307 1.3506 0
M  V30 1369 N 134.507 -0.190092 1.56449 0
M  V30 1370 C 135.417 -1.25591 1.98152 0
M  V30 1371 C 136.433 -1.49519 0.889944 0
M  V30 1372 O 137.609 -1.62036 1.19609 0
M  V30 1373 C 134.674 -2.57916 2.3169 0
M  V30 1374 C 133.735 -2.42015 3.5458 0
M  V30 1375 C 132.968 -3.6803 3.8651 0
M  V30 1376 O 133.191 -4.72413 3.1966 0
M  V30 1377 O 132.125 -3.6326 4.79923 0
M  V30 1378 H 135.951 -0.931988 2.89046 0
M  V30 1379 H 133.536 -0.395488 1.4407 0
M  V30 1380 H 135.418 -3.36008 2.54316 0
M  V30 1381 H 134.093 -2.89925 1.43963 0
M  V30 1382 H 133 -1.62017 3.37196 0
M  V30 1383 H 134.333 -2.14937 4.4279 0
M  V30 1384 N 135.985 -1.50799 -0.457987 0
M  V30 1385 C 136.918 -1.65273 -1.57353 0
M  V30 1386 C 137.896 -0.500578 -1.54703 0
M  V30 1387 O 139.08 -0.721781 -1.74134 0
M  V30 1388 C 136.207 -1.64737 -2.95938 0
M  V30 1389 C 135.253 -2.8567 -3.16693 0
M  V30 1390 S 136.086 -4.46791 -2.95191 0
M  V30 1391 C 137.242 -4.48968 -4.36095 0
M  V30 1392 H 137.475 -2.59633 -1.44838 0
M  V30 1393 H 135.008 -1.40225 -0.64625 0
M  V30 1394 H 136.966 -1.65112 -3.7583 0
M  V30 1395 H 135.627 -0.715899 -3.05833 0
M  V30 1396 H 134.82 -2.81637 -4.17967 0
M  V30 1397 H 134.422 -2.8293 -2.44594 0
M  V30 1398 H 136.714 -4.23337 -5.28954 0
M  V30 1399 H 137.657 -5.50664 -4.45168 0
M  V30 1400 H 138.065 -3.78522 -4.18786 0
M  V30 1401 N 137.463 0.71206 -1.40597 0
M  V30 1402 C 138.711 1.46907 -1.38791 0
M  V30 1403 C 139.032 1.94998 0.00780391 0
M  V30 1404 O 138.302 1.70587 0.963174 0
M  V30 1405 H 136.882 0.545043 -0.51082 0
M  V30 1406 H 139.544 0.843882 -1.75683 0
M  V30 1407 H 138.64 2.34021 -2.06496 0
M  V30 1408 N 138.941 1.26152 0.944643 0
M  V30 1409 C 140.188 1.11492 1.69044 0
M  V30 1410 C 140.516 -0.342366 1.91463 0
M  V30 1411 O 139.771 -1.26812 1.49054 0
M  V30 1412 C 140.07 1.82541 3.07268 0
M  V30 1413 C 139.736 3.32445 3.04616 0
M  V30 1414 C 138.398 3.73337 3.036 0
M  V30 1415 C 140.75 4.28171 2.97185 0
M  V30 1416 C 138.078 5.08348 2.92915 0
M  V30 1417 C 140.43 5.63218 2.88041 0
M  V30 1418 C 139.094 6.03426 2.85366 0
M  V30 1419 H 138.364 0.407977 0.618576 0
M  V30 1420 H 141.011 1.56551 1.10291 0
M  V30 1421 H 139.316 1.29941 3.69625 0
M  V30 1422 H 141.013 1.68642 3.63815 0
M  V30 1423 H 137.603 2.99915 3.06185 0
M  V30 1424 H 141.787 3.97563 2.97081 0
M  V30 1425 H 137.043 5.38667 2.89219 0
M  V30 1426 H 141.217 6.37078 2.81254 0
M  V30 1427 H 138.844 7.07999 2.76842 0
M  V30 1428 N 140.419 -1.14872 1.07899 0
M  V30 1429 C 141.349 -2.2193 0.725887 0
M  V30 1430 C 142.33 -1.67622 -0.28927 0
M  V30 1431 O 143.515 -1.93533 -0.160787 0
M  V30 1432 C 140.645 -3.47061 0.128856 0
M  V30 1433 C 139.599 -4.14363 1.07178 0
M  V30 1434 C 138.925 -5.33636 0.337229 0
M  V30 1435 C 140.225 -4.63492 2.40775 0
M  V30 1436 H 141.919 -2.51724 1.62097 0
M  V30 1437 H 139.465 -1.20991 0.780838 0
M  V30 1438 H 141.418 -4.21199 -0.130147 0
M  V30 1439 H 140.142 -3.16617 -0.80134 0
M  V30 1440 H 138.801 -3.42173 1.3158 0
M  V30 1441 H 138.449 -4.99449 -0.596606 0
M  V30 1442 H 138.149 -5.79609 0.965788 0
M  V30 1443 H 139.673 -6.10539 0.0861567 0
M  V30 1444 H 141.087 -5.2913 2.20669 0
M  V30 1445 H 139.484 -5.20148 2.99276 0
M  V30 1446 H 140.554 -3.78834 3.02676 0
M  V30 1447 N 141.898 -0.863906 -1.31812 0
M  V30 1448 C 143.314 -0.555004 -1.49639 0
M  V30 1449 C 143.514 0.912266 -1.79666 0
M  V30 1450 O 142.57 1.69479 -1.87171 0
M  V30 1451 C 143.883 -1.44998 -2.63431 0
M  V30 1452 C 145.431 -1.45138 -2.77316 0
M  V30 1453 C 145.906 -2.33179 -3.94197 0
M  V30 1454 N 147.397 -2.31025 -4.01474 0
M  V30 1455 C 148.132 -2.95871 -4.9117 0
M  V30 1456 N 147.628 -3.69863 -5.8581 0
M  V30 1457 N 149.421 -2.85211 -4.84367 0
M  V30 1458 H 141.572 -1.81339 -1.10589 0
M  V30 1459 H 143.835 -0.77505 -0.545895 0
M  V30 1460 H 143.541 -2.49377 -2.48 0
M  V30 1461 H 143.415 -1.14409 -3.59431 0
M  V30 1462 H 145.802 -0.415201 -2.92164 0
M  V30 1463 H 145.883 -1.79747 -1.82001 0
M  V30 1464 H 145.527 -3.3687 -3.80107 0
M  V30 1465 H 145.457 -1.95897 -4.88807 0
M  V30 1466 H 147.948 -1.77238 -3.33759 0
M  V30 1467 H 148.261 -4.16486 -6.50968 0
M  V30 1468 H 146.606 -3.73971 -5.85808 0
M  V30 1469 H 149.797 -2.26948 -4.09405 0
M  V30 1470 H 149.97 -3.36027 -5.54066 0
M  V30 1471 N 143.376 1.44774 -0.622745 0
M  V30 1472 C 144.339 2.29069 0.0774015 0
M  V30 1473 C 145.339 1.4059 0.780461 0
M  V30 1474 O 146.529 1.62551 0.626322 0
M  V30 1475 C 143.661 3.21974 1.12006 0
M  V30 1476 H 144.854 2.92459 -0.663901 0
M  V30 1477 H 142.407 1.51548 -0.382486 0
M  V30 1478 H 143.142 2.63417 1.89162 0
M  V30 1479 H 142.927 3.87168 0.619951 0
M  V30 1480 H 144.417 3.85318 1.60995 0
M  V30 1481 N 144.854 0.36279 1.53368 0
M  V30 1482 C 145.784 -0.476976 2.28576 0
M  V30 1483 C 146.765 -1.08631 1.30894 0
M  V30 1484 O 147.95 -1.10409 1.59761 0
M  V30 1485 C 145.08 -1.61828 3.07293 0
M  V30 1486 C 144.034 -1.13633 4.1264 0
M  V30 1487 C 143.36 -2.36766 4.79423 0
M  V30 1488 C 144.66 -0.223061 5.21823 0
M  V30 1489 H 146.354 0.150474 2.99022 0
M  V30 1490 H 143.9 0.0738103 1.43811 0
M  V30 1491 H 145.853 -2.21237 3.58653 0
M  V30 1492 H 144.577 -2.27292 2.34533 0
M  V30 1493 H 143.236 -0.564945 3.62221 0
M  V30 1494 H 142.884 -3.0068 4.03238 0
M  V30 1495 H 142.584 -2.05192 5.50609 0
M  V30 1496 H 144.108 -2.96865 5.33576 0
M  V30 1497 H 145.522 -0.724545 5.68703 0
M  V30 1498 H 143.919 0.001678 6.001 0
M  V30 1499 H 144.989 0.735553 4.79289 0
M  V30 1500 N 146.332 -1.57332 0.0918853 0
M  V30 1501 C 147.56 -1.98574 -0.581048 0
M  V30 1502 C 147.975 -0.970903 -1.61923 0
M  V30 1503 O 147.332 0.0399054 -1.82456 0
M  V30 1504 C 147.383 -3.39872 -1.23164 0
M  V30 1505 O 147.104 -4.37469 -0.234989 0
M  V30 1506 C 148.605 -3.96099 -1.99049 0
M  V30 1507 H 145.825 -0.65261 -0.156018 0
M  V30 1508 H 148.369 -2.0379 0.170225 0
M  V30 1509 H 146.524 -3.35679 -1.93386 0
M  V30 1510 H 146.938 -5.19751 -0.70418 0
M  V30 1511 H 148.412 -4.97127 -2.39934 0
M  V30 1512 H 148.889 -3.3374 -2.85507 0
M  V30 1513 H 149.495 -4.03755 -1.3365 0
M  V30 1514 N 147.81 0.181792 -1.56548 0
M  V30 1515 C 148.76 1.22961 -1.92002 0
M  V30 1516 C 149.744 1.40331 -0.787146 0
M  V30 1517 O 150.936 1.42478 -1.05019 0
M  V30 1518 C 148.065 2.57144 -2.27446 0
M  V30 1519 C 147.151 2.43512 -3.47222 0
M  V30 1520 N 147.542 1.99577 -4.64761 0
M  V30 1521 C 145.84 2.74368 -3.51622 0
M  V30 1522 C 146.541 1.98156 -5.46909 0
M  V30 1523 N 145.517 2.40164 -4.8767 0
M  V30 1524 H 149.319 0.881462 -2.8037 0
M  V30 1525 H 146.833 0.390141 -1.57644 0
M  V30 1526 H 148.83 3.32847 -2.51035 0
M  V30 1527 H 147.49 2.92771 -1.40411 0
M  V30 1528 H 148.501 1.70078 -4.89177 0
M  V30 1529 H 145.178 3.14102 -2.75038 0
M  V30 1530 H 146.568 1.65975 -6.51077 0
M  V30 1531 N 149.288 1.51039 0.449983 0
M  V30 1532 C 150.513 1.6715 1.22783 0
M  V30 1533 C 150.938 0.363081 1.84563 0
M  V30 1534 O 150.296 -0.675433 1.68249 0
M  V30 1535 C 150.344 2.77985 2.29689 0
M  V30 1536 O 149.448 2.40707 3.34864 0
M  V30 1537 H 148.789 0.557746 0.360299 0
M  V30 1538 H 151.319 1.97535 0.533005 0
M  V30 1539 H 151.329 3.01693 2.74673 0
M  V30 1540 H 150.004 3.72935 1.84098 0
M  V30 1541 H 148.581 2.27523 2.95445 0
M  V30 1542 N 150.766 -0.704594 1.40972 0
M  V30 1543 C 151.676 -1.84856 1.44448 0
M  V30 1544 C 152.692 -1.70726 0.335961 0
M  V30 1545 O 153.868 -1.92799 0.582276 0
M  V30 1546 C 150.933 -3.20758 1.31587 0
M  V30 1547 C 149.994 -3.47063 2.52677 0
M  V30 1548 C 149.227 -4.76481 2.4042 0
M  V30 1549 O 149.45 -5.52341 1.42391 0
M  V30 1550 O 148.384 -5.03367 3.30007 0
M  V30 1551 H 152.21 -1.8488 2.40942 0
M  V30 1552 H 149.795 -0.85647 1.22413 0
M  V30 1553 H 151.677 -4.01913 1.26665 0
M  V30 1554 H 150.352 -3.21438 0.382049 0
M  V30 1555 H 149.259 -2.65873 2.63177 0
M  V30 1556 H 150.592 -3.5119 3.44858 0
M  V30 1557 N 152.244 -1.26651 -0.937939 0
M  V30 1558 C 153.174 -1.10993 -2.05433 0
M  V30 1559 C 154.155 -0.0142161 -1.70094 0
M  V30 1560 O 155.34 -0.186837 -1.93299 0
M  V30 1561 C 152.47 -0.745561 -3.39203 0
M  V30 1562 C 151.424 -1.79337 -3.88616 0
M  V30 1563 C 150.75 -1.28324 -5.19073 0
M  V30 1564 C 152.05 -3.19553 -4.13138 0
M  V30 1565 H 153.744 -2.0438 -2.1879 0
M  V30 1566 H 151.29 -0.984041 -1.05131 0
M  V30 1567 H 153.243 -0.622888 -4.16771 0
M  V30 1568 H 151.967 0.22401 -3.25831 0
M  V30 1569 H 150.626 -1.90477 -3.13231 0
M  V30 1570 H 150.274 -0.303414 -5.02084 0
M  V30 1571 H 149.974 -1.98369 -5.53103 0
M  V30 1572 H 151.498 -1.1733 -5.99221 0
M  V30 1573 H 152.912 -3.11471 -4.81309 0
M  V30 1574 H 151.309 -3.87218 -4.58457 0
M  V30 1575 H 152.379 -3.65368 -3.18801 0
M  V30 1576 N 153.722 1.14298 -1.08507 0
M  V30 1577 C 154.999 1.81544 -0.728088 0
M  V30 1578 C 155.379 1.95838 0.78808 0
M  V30 1579 O 154.727 1.51904 1.70697 0
M  V30 1580 C 154.937 3.17169 -1.45619 0
M  V30 1581 C 156.285 3.9265 -1.61591 0
M  V30 1582 O 157.309 3.26762 -1.41793 0
M  V30 1583 O 156.168 5.10807 -1.94263 0
M  V30 1584 H 153.262 0.78491 -0.260471 0
M  V30 1585 H 155.808 1.21307 -1.18671 0
M  V30 1586 H 154.58 3.01934 -2.489 0
M  V30 1587 H 154.203 3.851 -0.989124 0
M  V30 1588 N 155.201 0.870884 1.31352 0
M  V30 1589 C 156.447 0.482987 1.96965 0
M  V30 1590 C 156.78 -0.962462 1.68672 0
M  V30 1591 O 156.055 -1.6779 0.98371 0
M  V30 1592 C 156.338 0.741752 3.52378 0
M  V30 1593 C 156.191 2.2368 3.9024 0
M  V30 1594 C 157.51 0.208838 4.39604 0
M  V30 1595 H 154.629 0.176955 0.715441 0
M  V30 1596 H 157.271 1.09229 1.55464 0
M  V30 1597 H 155.421 0.223149 3.87859 0
M  V30 1598 H 157.093 2.82273 3.64856 0
M  V30 1599 H 155.336 2.70901 3.38814 0
M  V30 1600 H 156.007 2.3685 4.98604 0
M  V30 1601 H 158.483 0.652529 4.10952 0
M  V30 1602 H 157.359 0.419336 5.47296 0
M  V30 1603 H 157.62 -0.889275 4.33064 0
M  V30 1604 N 156.679 -1.44442 0.630414 0
M  V30 1605 C 158.095 -1.56832 0.295973 0
M  V30 1606 C 158.295 -1.61806 -1.20088 0
M  V30 1607 O 157.351 -1.5607 -1.9849 0
M  V30 1608 C 158.664 -2.84031 0.987264 0
M  V30 1609 C 160.212 -2.97742 0.96534 0
M  V30 1610 C 160.687 -4.27743 1.63708 0
M  V30 1611 N 162.178 -4.34555 1.60364 0
M  V30 1612 C 162.913 -5.33862 2.09234 0
M  V30 1613 N 162.409 -6.39578 2.66292 0
M  V30 1614 N 164.202 -5.25366 1.99867 0
M  V30 1615 H 156.353 -1.39457 1.60205 0
M  V30 1616 H 158.616 -0.668237 0.672431 0
M  V30 1617 H 158.322 -2.86338 2.04215 0
M  V30 1618 H 158.196 -3.73534 0.524588 0
M  V30 1619 H 160.583 -2.94989 -0.0810639 0
M  V30 1620 H 160.664 -2.09589 1.4665 0
M  V30 1621 H 160.308 -4.31255 2.68293 0
M  V30 1622 H 160.238 -5.14752 1.11076 0
M  V30 1623 H 162.729 -3.58772 1.18705 0
M  V30 1624 H 163.042 -7.11637 3.01317 0
M  V30 1625 H 161.387 -6.40265 2.70343 0
M  V30 1626 H 164.578 -4.41688 1.55013 0
M  V30 1627 H 164.751 -6.02606 2.38265 0
M  V30 1628 N 158.157 -0.370918 -1.53173 0
M  V30 1629 C 159.385 0.217704 -2.05751 0
M  V30 1630 C 159.8 1.42018 -1.24404 0
M  V30 1631 O 159.157 1.80245 -0.286033 0
M  V30 1632 C 159.208 0.605954 -3.56385 0
M  V30 1633 O 158.929 -0.548734 -4.3465 0
M  V30 1634 C 160.43 1.2524 -4.25241 0
M  V30 1635 H 157.65 0.0371659 -0.66997 0
M  V30 1636 H 160.194 -0.530832 -1.9749 0
M  V30 1637 H 158.349 1.3044 -3.6478 0
M  V30 1638 H 158.763 -0.23376 -5.23979 0
M  V30 1639 H 160.237 1.47458 -5.3194 0
M  V30 1640 H 160.714 2.2143 -3.79296 0
M  V30 1641 H 161.32 0.595233 -4.21114 0
M  V30 1642 N 159.635 1.57281 -0.100228 0
M  V30 1643 C 160.598 2.13158 0.842398 0
M  V30 1644 C 161.598 1.06202 1.20738 0
M  V30 1645 O 162.788 1.32066 1.13597 0
M  V30 1646 C 159.92 2.65639 2.13655 0
M  V30 1647 H 161.113 2.97766 0.357114 0
M  V30 1648 H 158.666 1.5559 0.148823 0
M  V30 1649 H 159.401 1.84566 2.66657 0
M  V30 1650 H 159.186 3.43844 1.88451 0
M  V30 1651 H 160.676 3.08846 2.81077 0
M  V30 1652 N 161.113 -0.173488 1.56642 0
M  V30 1653 C 162.361 -0.888706 1.81512 0
M  V30 1654 C 162.682 -1.82875 0.676872 0
M  V30 1655 O 161.952 -1.93536 -0.303414 0
M  V30 1656 H 160.532 -0.331164 0.669582 0
M  V30 1657 H 163.194 -0.173823 1.94123 0
M  V30 1658 H 162.29 -1.46691 2.75478 0
M  V30 1659 N 162.591 -1.51276 -0.441967 0
M  V30 1660 C 163.554 -1.7167 -1.51862 0
M  V30 1661 C 164.554 -0.586793 -1.49711 0
M  V30 1662 O 165.744 -0.854276 -1.51815 0
M  V30 1663 C 162.876 -1.76889 -2.91416 0
M  V30 1664 H 164.069 -2.67754 -1.35084 0
M  V30 1665 H 161.622 -1.41196 -0.670333 0
M  V30 1666 H 162.357 -0.826026 -3.13604 0
M  V30 1667 H 162.142 -2.59001 -2.94382 0
M  V30 1668 H 163.632 -1.94522 -3.69528 0
M  V30 1669 N 164.069 0.697108 -1.41344 0
M  V30 1670 C 165.017 1.83237 -1.43272 0
M  V30 1671 C 166.011 1.66522 -0.310947 0
M  V30 1672 O 167.217 1.73402 -0.482899 0
M  V30 1673 H 163.592 0.603802 -0.448249 0
M  V30 1674 H 165.563 1.78727 -2.38954 0
M  V30 1675 C 164.312 3.21245 -1.33029 0
M  V30 1676 H 163.635 3.34723 -2.18633 0
M  V30 1677 H 165.075 4.00763 -1.38439 0
M  V30 1678 C 163.534 3.36873 -0.0424635 0
M  V30 1679 O 164.064 3.91177 0.913421 0
M  V30 1680 N 162.27 2.90581 0.0331145 0
M  V30 1681 H 161.817 2.46577 -0.745506 0
M  V30 1682 H 161.775 3.01416 0.894199 0
M  V30 1683 N 165.547 1.27147 0.931209 0
M  V30 1684 C 166.795 1.13055 1.6752 0
M  V30 1685 C 167.116 -0.324791 1.92276 0
M  V30 1686 O 166.386 -1.22775 1.52654 0
M  V30 1687 H 164.966 0.415391 0.620854 0
M  V30 1688 H 167.628 1.59623 1.11833 0
M  V30 1689 H 166.724 1.65694 2.64485 0
M  V30 1690 N 167.025 -1.13721 1.09112 0
M  V30 1691 C 168.253 -1.88773 0.846899 0
M  V30 1692 C 168.668 -1.7896 -0.601572 0
M  V30 1693 O 168.025 -1.15394 -1.41388 0
M  V30 1694 C 168.076 -3.3849 1.26913 0
M  V30 1695 O 167.797 -3.48043 2.66079 0
M  V30 1696 C 169.298 -4.30518 1.05682 0
M  V30 1697 H 166.518 -0.59772 0.304914 0
M  V30 1698 H 169.062 -1.43977 1.45227 0
M  V30 1699 H 167.217 -3.80881 0.707723 0
M  V30 1700 H 167.631 -4.4109 2.83795 0
M  V30 1701 H 169.105 -5.3391 1.40156 0
M  V30 1702 H 169.582 -4.392 -0.00563416 0
M  V30 1703 H 170.188 -3.93893 1.60402 0
M  V30 1704 N 168.503 -0.877838 -1.30888 0
M  V30 1705 C 169.728 -0.506629 -2.01117 0
M  V30 1706 C 170.153 0.895564 -1.65412 0
M  V30 1707 O 169.511 1.5923 -0.866922 0
M  V30 1708 C 169.559 -0.680223 -3.54126 0
M  V30 1709 O 168.663 0.277033 -4.11468 0
M  V30 1710 H 168.004 -0.200518 -0.633 0
M  V30 1711 H 170.534 -1.18342 -1.66902 0
M  V30 1712 H 170.544 -0.5765 -4.03907 0
M  V30 1713 H 169.219 -1.70261 -3.79452 0
M  V30 1714 H 167.796 0.127606 -3.72682 0
M  V30 1715 N 169.982 1.44106 -0.638065 0
M  V30 1716 C 171.23 2.01579 -0.145043 0
M  V30 1717 C 171.551 1.50496 1.24 0
M  V30 1718 O 170.821 0.711374 1.82527 0
M  V30 1719 H 169.401 0.745282 -0.05063 0
M  V30 1720 H 172.063 1.76516 -0.826327 0
M  V30 1721 H 171.159 3.11877 -0.118039 0
M  V30 1722 N 171.46 0.379036 1.52974 0
M  V30 1723 C 172.707 -0.206421 2.01445 0
M  V30 1724 C 173.035 -1.47668 1.26587 0
M  V30 1725 O 172.29 -1.92514 0.351675 0
M  V30 1726 C 172.589 -0.53096 3.53434 0
M  V30 1727 C 172.255 0.646546 4.46241 0
M  V30 1728 C 170.917 0.969604 4.7133 0
M  V30 1729 C 173.269 1.43479 5.01062 0
M  V30 1730 C 170.597 2.08263 5.48492 0
M  V30 1731 C 172.949 2.53834 5.7944 0
M  V30 1732 C 171.613 2.86659 6.02812 0
M  V30 1733 H 170.883 -0.0755349 0.73714 0
M  V30 1734 H 173.53 0.514271 1.84465 0
M  V30 1735 H 171.835 -1.33285 3.68432 0
M  V30 1736 H 173.532 -0.996417 3.88423 0
M  V30 1737 H 170.122 0.384734 4.2687 0
M  V30 1738 H 174.306 1.19844 4.81613 0
M  V30 1739 H 169.562 2.34078 5.64816 0
M  V30 1740 H 173.736 3.15319 6.20924 0
M  V30 1741 H 171.363 3.73026 6.62387 0
M  V30 1742 N 172.938 -1.57226 0.108567 0
M  V30 1743 C 174.185 -1.94833 -0.551943 0
M  V30 1744 C 174.513 -0.991204 -1.67348 0
M  V30 1745 O 173.768 -0.0131878 -1.95696 0
M  V30 1746 C 174.067 -3.38911 -1.13463 0
M  V30 1747 C 173.733 -4.50696 -0.135509 0
M  V30 1748 C 172.395 -4.80998 0.139252 0
M  V30 1749 C 174.747 -5.18333 0.545957 0
M  V30 1750 C 172.075 -5.76259 1.10194 0
M  V30 1751 C 174.427 -6.14627 1.49721 0
M  V30 1752 C 173.091 -6.43327 1.78006 0
M  V30 1753 H 172.361 -0.712944 -0.20197 0
M  V30 1754 H 175.008 -1.90582 0.18726 0
M  V30 1755 H 173.313 -3.39805 -1.95037 0
M  V30 1756 H 175.01 -3.65317 -1.65362 0
M  V30 1757 H 171.6 -4.27087 -0.359846 0
M  V30 1758 H 175.784 -4.95087 0.346842 0
M  V30 1759 H 171.04 -5.96804 1.32795 0
M  V30 1760 H 175.214 -6.66126 2.03099 0
M  V30 1761 H 172.841 -7.1695 2.52759 0
M  V30 1762 N 174.416 0.165178 -1.56732 0
M  V30 1763 C 175.656 0.887231 -1.8414 0
M  V30 1764 C 176.02 1.79159 -0.690353 0
M  V30 1765 O 177.221 2.55172 -0.845032 0
M  V30 1766 C 175.492 1.65674 -3.16681 0
M  V30 1767 S 177.051 2.42671 -3.6559 0
M  V30 1768 H 173.869 0.297042 -0.645978 0
M  V30 1769 H 176.471 0.148439 -1.94936 0
M  V30 1770 H 175.175 0.983507 -3.98441 0
M  V30 1771 H 174.706 2.43679 -3.08843 0
M  V30 1772 H 176.721 3.67499 -3.33406 0
M  V30 1773 N 175.894 1.51508 0.433938 0
M  V30 1774 C 177.14 1.64588 1.18484 0
M  V30 1775 C 177.473 0.362666 1.90784 0
M  V30 1776 O 176.748 -0.637892 1.83742 0
M  V30 1777 C 177.031 2.85149 2.19913 0
M  V30 1778 C 176.884 4.23456 1.51674 0
M  V30 1779 C 178.203 3.01227 3.20858 0
M  V30 1780 H 175.322 0.598994 0.429389 0
M  V30 1781 H 177.964 1.84002 0.473647 0
M  V30 1782 H 176.114 2.68729 2.80566 0
M  V30 1783 H 177.786 4.51552 0.943322 0
M  V30 1784 H 176.029 4.25998 0.819035 0
M  V30 1785 H 176.7 5.03812 2.2556 0
M  V30 1786 H 179.176 3.16382 2.70263 0
M  V30 1787 H 178.052 3.87141 3.89118 0
M  V30 1788 H 178.313 2.13447 3.8716 0
M  V30 1789 N 177.372 -0.689602 1.41712 0
M  V30 1790 C 178.649 -1.44457 1.31877 0
M  V30 1791 C 179.029 -2.11039 -0.0508537 0
M  V30 1792 O 178.377 -2.02138 -1.06547 0
M  V30 1793 C 178.587 -2.45913 2.47645 0
M  V30 1794 C 179.935 -3.10991 2.89084 0
M  V30 1795 O 180.959 -2.56238 2.47428 0
M  V30 1796 O 179.818 -4.10174 3.61137 0
M  V30 1797 H 176.912 -0.64362 0.519309 0
M  V30 1798 H 179.458 -0.719576 1.53689 0
M  V30 1799 H 178.23 -1.95409 3.39015 0
M  V30 1800 H 177.853 -3.25913 2.27742 0
M  V30 1801 N 178.85 -1.27639 -0.924453 0
M  V30 1802 C 179.76 -1.12466 -2.05885 0
M  V30 1803 C 180.776 -0.053869 -1.73917 0
M  V30 1804 O 181.952 -0.261012 -1.99702 0
M  V30 1805 C 179.017 -0.776768 -3.37886 0
M  V30 1806 C 178.078 -1.92878 -3.83532 0
M  V30 1807 C 177.311 -1.59739 -5.09234 0
M  V30 1808 O 177.534 -0.506782 -5.68144 0
M  V30 1809 O 176.468 -2.43761 -5.50331 0
M  V30 1810 H 180.294 -2.07671 -2.21599 0
M  V30 1811 H 177.879 -1.06857 -1.04413 0
M  V30 1812 H 179.761 -0.596229 -4.17161 0
M  V30 1813 H 178.436 0.145732 -3.23372 0
M  V30 1814 H 177.343 -2.1644 -3.0513 0
M  V30 1815 H 178.676 -2.8316 -4.02593 0
M  V30 1816 N 180.328 1.1314 -1.09713 0
M  V30 1817 C 181.576 1.84119 -0.833338 0
M  V30 1818 C 181.897 1.84097 0.642904 0
M  V30 1819 O 181.167 1.29881 1.46655 0
M  V30 1820 H 179.747 0.681766 -0.305293 0
M  V30 1821 H 182.409 1.37038 -1.38588 0
M  V30 1822 H 181.505 2.88543 -1.18951 0
M  V30 1823 N 181.806 0.884767 1.30421 0
M  V30 1824 C 183.222 0.57874 1.48737 0
M  V30 1825 C 183.422 -0.883567 1.81095 0
M  V30 1826 O 182.478 -1.6648 1.89844 0
M  V30 1827 C 183.791 1.49171 2.61091 0
M  V30 1828 C 185.339 1.49532 2.74971 0
M  V30 1829 C 185.814 2.39421 3.90438 0
M  V30 1830 N 187.305 2.37383 3.97748 0
M  V30 1831 C 188.04 3.03647 4.86401 0
M  V30 1832 N 187.536 3.79136 5.79852 0
M  V30 1833 N 189.329 2.9288 4.79768 0
M  V30 1834 H 181.48 1.83075 1.0769 0
M  V30 1835 H 183.743 0.783637 0.533495 0
M  V30 1836 H 183.449 2.53291 2.44001 0
M  V30 1837 H 183.323 1.20113 3.57565 0
M  V30 1838 H 185.71 0.46163 2.91467 0
M  V30 1839 H 185.791 1.8262 1.79119 0
M  V30 1840 H 185.435 3.42874 3.74699 0
M  V30 1841 H 185.365 2.03649 4.85628 0
M  V30 1842 H 187.856 1.82525 3.30897 0
M  V30 1843 H 188.169 4.26789 6.4426 0
M  V30 1844 H 186.514 3.83243 5.79784 0
M  V30 1845 H 189.705 2.33433 4.05742 0
M  V30 1846 H 189.878 3.448 5.4865 0
M  V30 1847 N 183.284 -1.43765 0.645699 0
M  V30 1848 C 184.214 -2.33471 -0.0370477 0
M  V30 1849 C 185.195 -1.49042 -0.819779 0
M  V30 1850 O 186.38 -1.77726 -0.782758 0
M  V30 1851 C 183.51 -3.32311 -1.0093 0
M  V30 1852 C 182.464 -4.2667 -0.337201 0
M  V30 1853 C 181.79 -5.1549 -1.42037 0
M  V30 1854 C 183.09 -5.16657 0.765706 0
M  V30 1855 H 184.784 -2.90809 0.712069 0
M  V30 1856 H 182.33 -1.39834 0.343876 0
M  V30 1857 H 184.283 -3.9396 -1.49578 0
M  V30 1858 H 183.007 -2.73213 -1.78948 0
M  V30 1859 H 181.666 -3.66374 0.128771 0
M  V30 1860 H 181.314 -4.52735 -2.1918 0
M  V30 1861 H 181.014 -5.79438 -0.975966 0
M  V30 1862 H 182.538 -5.80012 -1.90838 0
M  V30 1863 H 183.952 -5.72158 0.361702 0
M  V30 1864 H 182.349 -5.89286 1.13413 0
M  V30 1865 H 183.419 -4.56796 1.62683 0
M  V30 1866 N 184.763 -0.387143 -1.52771 0
M  V30 1867 C 186.174 0.0873634 -1.86495 0
M  V30 1868 C 186.525 1.46336 -1.30691 0
M  V30 1869 O 185.65 2.068 -0.637409 0
M  V30 1870 C 186.245 0.165305 -3.38396 0
M  V30 1871 C 184.804 0.584101 -3.7184 0
M  V30 1872 C 183.951 -0.255279 -2.76122 0
M  V30 1873 H 186.902 -0.605104 -1.46711 0
M  V30 1874 H 186.923 0.984848 -3.67534 0
M  V30 1875 H 186.435 -0.836301 -3.78982 0
M  V30 1876 H 184.536 1.59315 -3.36823 0
M  V30 1877 H 184.649 0.343749 -4.77865 0
M  V30 1878 H 183.013 0.279126 -2.53166 0
M  V30 1879 H 183.796 -1.25482 -3.19545 0
M  V30 1880 N 186.241 1.57166 -0.116904 0
M  V30 1881 C 187.191 2.11756 0.845178 0
M  V30 1882 C 188.175 1.03783 1.22955 0
M  V30 1883 O 189.367 1.3002 1.20099 0
M  V30 1884 C 186.496 2.71886 2.09602 0
M  V30 1885 C 185.582 3.86937 1.7361 0
M  V30 1886 N 185.973 4.94073 1.08284 0
M  V30 1887 C 184.271 3.97082 2.03082 0
M  V30 1888 C 184.972 5.74477 0.913855 0
M  V30 1889 N 183.948 5.2423 1.43818 0
M  V30 1890 H 187.75 2.91967 0.336523 0
M  V30 1891 H 185.264 1.62174 0.0856332 0
M  V30 1892 H 187.261 3.09338 2.79492 0
M  V30 1893 H 185.921 1.93138 2.61013 0
M  V30 1894 H 186.932 5.12483 0.747067 0
M  V30 1895 H 183.609 3.29372 2.56554 0
M  V30 1896 H 184.999 6.70701 0.40125 0
M  V30 1897 N 187.719 -0.156864 1.56817 0
M  V30 1898 C 188.947 -0.886316 1.86955 0
M  V30 1899 C 189.362 -1.75185 0.703975 0
M  V30 1900 O 188.719 -1.79555 -0.326552 0
M  V30 1901 C 188.77 -1.75117 3.16253 0
M  V30 1902 O 188.491 -0.920537 4.2832 0
M  V30 1903 C 189.992 -2.58905 3.59837 0
M  V30 1904 H 187.212 -0.25678 0.619923 0
M  V30 1905 H 189.756 -0.152615 2.0393 0
M  V30 1906 H 187.911 -2.43805 3.01062 0
M  V30 1907 H 188.325 -1.51337 5.02192 0
M  V30 1908 H 189.799 -3.1518 4.53172 0
M  V30 1909 H 190.276 -3.34472 2.84649 0
M  V30 1910 H 190.882 -1.95526 3.7769 0
M  V30 1911 N 189.197 -1.51736 -0.425897 0
M  V30 1912 C 190.129 -1.70083 -1.53638 0
M  V30 1913 C 191.142 -0.581349 -1.52066 0
M  V30 1914 O 192.331 -0.856017 -1.56635 0
M  V30 1915 C 189.431 -1.71078 -2.9255 0
M  V30 1916 C 188.604 -2.99795 -3.185 0
M  V30 1917 C 187.663 -2.92825 -4.37196 0
M  V30 1918 O 186.689 -3.66756 -4.35291 0
M  V30 1919 N 187.891 -2.0946 -5.41393 0
M  V30 1920 H 190.656 -2.65882 -1.383 0
M  V30 1921 H 188.217 -1.49765 -0.614988 0
M  V30 1922 H 190.209 -1.63969 -3.69995 0
M  V30 1923 H 188.779 -0.828242 -3.01428 0
M  V30 1924 H 187.999 -3.20684 -2.2925 0
M  V30 1925 H 189.287 -3.84977 -3.32671 0
M  V30 1926 H 188.685 -1.48792 -5.45781 0
M  V30 1927 H 187.242 -2.08221 -6.17647 0
M  V30 1928 N 190.675 0.682077 -1.42076 0
M  V30 1929 C 192.091 0.994324 -1.24841 0
M  V30 1930 C 192.291 2.0096 -0.147389 0
M  V30 1931 O 191.347 2.47822 0.483782 0
M  V30 1932 C 192.66 1.50607 -2.60265 0
M  V30 1933 C 194.208 1.62421 -2.6756 0
M  V30 1934 C 194.683 2.16994 -4.03333 0
M  V30 1935 N 196.174 2.24337 -4.0525 0
M  V30 1936 C 196.909 2.67621 -5.07116 0
M  V30 1937 N 196.405 3.1041 -6.19368 0
M  V30 1938 N 198.198 2.67305 -4.94474 0
M  V30 1939 H 190.349 0.00973908 -2.12398 0
M  V30 1940 H 192.612 0.0668593 -0.945639 0
M  V30 1941 H 192.318 0.834583 -3.41654 0
M  V30 1942 H 192.192 2.48602 -2.83684 0
M  V30 1943 H 194.579 2.28678 -1.86521 0
M  V30 1944 H 194.66 0.629352 -2.47937 0
M  V30 1945 H 194.304 1.51349 -4.84826 0
M  V30 1946 H 194.234 3.17258 -4.20304 0
M  V30 1947 H 196.725 1.94158 -3.24209 0
M  V30 1948 H 197.038 3.42103 -6.92954 0
M  V30 1949 H 195.383 3.08286 -6.22884 0
M  V30 1950 H 198.574 2.33233 -4.05857 0
M  V30 1951 H 198.747 3.00718 -5.73997 0
M  V30 1952 N 192.153 1.28127 0.917671 0
M  V30 1953 C 193.083 1.14248 2.03641 0
M  V30 1954 C 194.064 0.0412748 1.7005 0
M  V30 1955 O 195.249 0.217566 1.92977 0
M  V30 1956 C 192.379 0.799431 3.37974 0
M  V30 1957 C 191.333 1.85497 3.85713 0
M  V30 1958 C 190.659 1.36565 5.16966 0
M  V30 1959 C 191.959 3.26085 4.08002 0
M  V30 1960 H 193.653 2.07835 2.15511 0
M  V30 1961 H 191.199 1.00064 1.03553 0
M  V30 1962 H 193.152 0.689114 4.15727 0
M  V30 1963 H 191.876 -0.172145 3.26146 0
M  V30 1964 H 190.535 1.95437 3.10161 0
M  V30 1965 H 190.183 0.383253 5.01538 0
M  V30 1966 H 189.883 2.07143 5.49878 0
M  V30 1967 H 191.407 1.26848 5.97279 0
M  V30 1968 H 192.821 3.19089 4.76293 0
M  V30 1969 H 191.218 3.94462 4.52238 0
M  V30 1970 H 192.288 3.70394 3.12948 0
M  V30 1971 N 193.631 -1.12557 1.10312 0
M  V30 1972 C 194.561 -2.20341 0.772798 0
M  V30 1973 C 195.542 -1.68198 -0.25365 0
M  V30 1974 O 196.727 -1.93831 -0.119699 0
M  V30 1975 C 193.857 -3.46709 0.202443 0
M  V30 1976 C 192.811 -4.11996 1.15943 0
M  V30 1977 C 192.137 -5.328 0.450345 0
M  V30 1978 C 193.437 -4.5828 2.50552 0
M  V30 1979 H 195.131 -2.48229 1.674 0
M  V30 1980 H 192.677 -1.19308 0.806326 0
M  V30 1981 H 194.63 -4.2138 -0.0407752 0
M  V30 1982 H 193.354 -3.18245 -0.734001 0
M  V30 1983 H 192.013 -3.39305 1.38808 0
M  V30 1984 H 191.661 -5.00602 -0.490531 0
M  V30 1985 H 191.361 -5.7743 1.08851 0
M  V30 1986 H 192.885 -6.10219 0.215642 0
M  V30 1987 H 194.299 -5.2433 2.31843 0
M  V30 1988 H 192.696 -5.13683 3.10242 0
M  V30 1989 H 193.766 -3.72329 3.10643 0
M  V30 1990 N 195.109 -0.891671 -1.2995 0
M  V30 1991 C 196.019 -0.367691 -2.31701 0
M  V30 1992 C 197.035 0.533486 -1.6562 0
M  V30 1993 O 198.211 0.424997 -1.96865 0
M  V30 1994 C 195.276 0.403406 -3.44345 0
M  V30 1995 C 194.337 -0.528328 -4.26037 0
M  V30 1996 C 193.57 0.206063 -5.33302 0
M  V30 1997 O 193.793 1.43119 -5.52153 0
M  V30 1998 O 192.727 -0.447281 -6.00236 0
M  V30 1999 H 196.553 -1.21163 -2.78484 0
M  V30 2000 H 194.138 -0.655725 -1.34241 0
M  V30 2001 H 196.02 0.839753 -4.12948 0
M  V30 2002 H 194.695 1.22354 -2.99685 0
M  V30 2003 H 193.602 -1.01362 -3.60106 0
M  V30 2004 H 194.935 -1.31465 -4.74318 0
M  V30 2005 N 196.587 1.43421 -0.653314 0
M  V30 2006 C 197.833 2.02111 -0.166992 0
M  V30 2007 C 198.166 1.51423 1.21592 0
M  V30 2008 O 197.441 0.707389 1.8118 0
M  V30 2009 C 197.724 3.5966 -0.177948 0
M  V30 2010 C 197.577 4.20579 -1.59478 0
M  V30 2011 C 198.896 4.37413 0.4856 0
M  V30 2012 H 196.015 0.734374 -0.0621557 0
M  V30 2013 H 198.657 1.70717 -0.834016 0
M  V30 2014 H 196.807 3.86537 0.390032 0
M  V30 2015 H 198.479 4.04732 -2.21336 0
M  V30 2016 H 196.722 3.77226 -2.14204 0
M  V30 2017 H 197.393 5.29665 -1.5543 0
M  V30 2018 H 199.869 4.161 0.00234528 0
M  V30 2019 H 198.745 5.47075 0.447207 0
M  V30 2020 H 199.006 4.13672 1.55974 0
M  V30 2021 N 198.065 0.39524 1.52563 0
M  V30 2022 C 199.314 -0.186321 2.00838 0
M  V30 2023 C 199.627 -1.47402 1.28577 0
M  V30 2024 O 200.833 -2.13599 1.67593 0
M  V30 2025 C 199.289 -0.382595 3.57861 0
M  V30 2026 C 198.897 0.892202 4.39026 0
M  V30 2027 C 200.641 -0.9202 4.14406 0
M  V30 2028 C 198.548 0.66388 5.87662 0
M  V30 2029 H 197.478 -0.0734041 0.750418 0
M  V30 2030 H 200.129 0.518552 1.76021 0
M  V30 2031 H 198.511 -1.14946 3.7895 0
M  V30 2032 H 199.685 1.66414 4.29701 0
M  V30 2033 H 198 1.35519 3.9373 0
M  V30 2034 H 200.597 -1.10683 5.23119 0
M  V30 2035 H 200.94 -1.89096 3.70875 0
M  V30 2036 H 201.473 -0.212751 3.97231 0
M  V30 2037 H 198.212 1.6058 6.35527 0
M  V30 2038 H 197.732 -0.0690193 5.9976 0
M  V30 2039 H 199.411 0.300699 6.46301 0
M  V30 2040 N 199.544 -1.57102 0.125237 0
M  V30 2041 C 200.769 -2.0019 -0.542101 0
M  V30 2042 C 201.194 -1.00449 -1.59034 0
M  V30 2043 O 200.552 0.0229423 -1.81285 0
M  V30 2044 C 200.6 -3.42129 -1.13929 0
M  V30 2045 O 199.704 -3.45307 -2.2547 0
M  V30 2046 H 199.045 -0.650171 -0.134812 0
M  V30 2047 H 201.575 -2.03461 0.215553 0
M  V30 2048 H 201.585 -3.80471 -1.4733 0
M  V30 2049 H 200.26 -4.14237 -0.371531 0
M  V30 2050 H 198.837 -3.1879 -1.93462 0
M  V30 2051 N 201.022 0.148545 -1.56898 0
M  V30 2052 C 202.268 0.862694 -1.83536 0
M  V30 2053 C 202.601 1.80889 -0.706604 0
M  V30 2054 O 201.876 1.92328 0.289885 0
M  V30 2055 C 202.159 1.63853 -3.20662 0
M  V30 2056 C 202.012 0.713925 -4.44098 0
M  V30 2057 C 203.331 2.60133 -3.54991 0
M  V30 2058 H 200.45 0.312179 -0.667618 0
M  V30 2059 H 203.092 0.127953 -1.89569 0
M  V30 2060 H 201.242 2.26489 -3.1565 0
M  V30 2061 H 202.914 0.098686 -4.61194 0
M  V30 2062 H 201.157 0.0234019 -4.33794 0
M  V30 2063 H 201.828 1.29278 -5.36648 0
M  V30 2064 H 204.304 2.07616 -3.60603 0
M  V30 2065 H 203.18 3.11468 -4.51972 0
M  V30 2066 H 203.441 3.41417 -2.80868 0
M  V30 2067 N 202.5 1.5196 0.417844 0
M  V30 2068 C 203.74 1.67262 1.17486 0
M  V30 2069 C 204.104 0.38983 1.88001 0
M  V30 2070 O 205.305 0.418845 2.65517 0
M  V30 2071 C 203.576 2.85526 2.14965 0
M  V30 2072 S 205.135 3.21263 2.98891 0
M  V30 2073 H 201.953 0.589077 0.398132 0
M  V30 2074 H 204.555 1.89927 0.463452 0
M  V30 2075 H 203.259 3.77145 1.61833 0
M  V30 2076 H 202.79 2.65107 2.90657 0
M  V30 2077 H 204.805 2.69208 4.16823 0
M  V30 2078 N 203.978 -0.674533 1.42435 0
M  V30 2079 C 205.255 -1.4305 1.33402 0
M  V30 2080 C 205.635 -2.11081 -0.0284674 0
M  V30 2081 O 204.983 -2.03257 -1.04397 0
M  V30 2082 C 205.193 -2.43272 2.50239 0
M  V30 2083 C 206.541 -3.07907 2.92367 0
M  V30 2084 O 207.565 -2.53599 2.50132 0
M  V30 2085 O 206.424 -4.0632 3.65467 0
M  V30 2086 H 203.518 -0.638076 0.526106 0
M  V30 2087 H 206.064 -0.703235 1.54443 0
M  V30 2088 H 204.836 -1.91803 3.41068 0
M  V30 2089 H 204.459 -3.23479 2.31186 0
M  V30 2090 N 205.456 -1.28612 -0.910864 0
M  V30 2091 C 206.696 -1.1719 -1.67469 0
M  V30 2092 C 207.06 0.274441 -1.90028 0
M  V30 2093 O 208.261 0.511425 -2.6389 0
M  V30 2094 C 206.532 -1.95137 -2.99427 0
M  V30 2095 S 208.091 -2.00122 -3.90508 0
M  V30 2096 H 204.909 -0.41806 -0.575106 0
M  V30 2097 H 207.511 -1.6275 -1.08317 0
M  V30 2098 H 206.215 -2.99381 -2.80712 0
M  V30 2099 H 205.746 -1.50137 -3.63624 0
M  V30 2100 H 207.761 -1.10981 -4.8363 0
M  V30 2101 N 206.934 1.1197 -1.10907 0
M  V30 2102 C 208.345 1.65114 -0.871446 0
M  V30 2103 C 208.696 1.86885 0.597353 0
M  V30 2104 O 207.821 1.59896 1.45816 0
M  V30 2105 C 208.416 2.99944 -1.5754 0
M  V30 2106 C 206.975 3.50018 -1.38435 0
M  V30 2107 C 206.122 2.24941 -1.62164 0
M  V30 2108 H 209.073 0.956851 -1.2661 0
M  V30 2109 H 209.094 3.66651 -1.01721 0
M  V30 2110 H 208.606 2.84067 -2.64438 0
M  V30 2111 H 206.707 3.71071 -0.337214 0
M  V30 2112 H 206.82 4.29165 -2.12965 0
M  V30 2113 H 205.184 2.3229 -1.04467 0
M  V30 2114 H 205.967 2.11612 -2.70324 0
M  V30 2115 N 208.412 0.89855 1.29475 0
M  V30 2116 C 209.828 0.594483 1.48115 0
M  V30 2117 C 210.028 -0.86431 1.82022 0
M  V30 2118 O 209.084 -1.64457 1.91599 0
M  V30 2119 C 210.397 1.51932 2.59494 0
M  V30 2120 C 211.945 1.5244 2.7337 0
M  V30 2121 C 212.42 2.43548 3.87877 0
M  V30 2122 N 213.911 2.41589 3.95208 0
M  V30 2123 C 214.646 3.08789 4.83153 0
M  V30 2124 N 214.142 3.85265 5.75798 0
M  V30 2125 N 215.935 2.97952 4.76635 0
M  V30 2126 H 208.086 1.84207 1.05742 0
M  V30 2127 H 210.349 0.789251 0.525154 0
M  V30 2128 H 210.055 2.55865 2.41301 0
M  V30 2129 H 209.929 1.23899 3.56271 0
M  V30 2130 H 212.316 0.492518 2.90961 0
M  V30 2131 H 212.397 1.8451 1.77172 0
M  V30 2132 H 212.041 3.46829 3.71041 0
M  V30 2133 H 211.971 2.08788 4.83441 0
M  V30 2134 H 214.462 1.86025 3.28943 0
M  V30 2135 H 214.775 4.33598 6.39697 0
M  V30 2136 H 213.12 3.89371 5.75687 0
M  V30 2137 H 216.311 2.37723 4.03244 0
M  V30 2138 H 216.484 3.50599 5.44962 0
M  V30 2139 N 209.89 -1.43072 0.660911 0
M  V30 2140 C 211.138 -2.01323 0.177094 0
M  V30 2141 C 211.459 -1.5245 -1.2159 0
M  V30 2142 O 210.729 -0.740322 -1.81373 0
M  V30 2143 H 209.309 -0.744382 0.0624804 0
M  V30 2144 H 211.971 -1.75179 0.854305 0
M  V30 2145 H 211.067 -3.11649 0.167641 0
M  V30 2146 N 211.368 -0.403325 -1.52352 0
M  V30 2147 C 212.784 -0.0539281 -1.59509 0
M  V30 2148 C 212.984 1.43307 -1.41652 0
M  V30 2149 O 212.04 2.19924 -1.24056 0
M  V30 2150 C 213.353 -0.543654 -2.95745 0
M  V30 2151 C 214.901 -0.501125 -3.08962 0
M  V30 2152 C 215.376 -0.967267 -4.47669 0
M  V30 2153 N 216.867 -0.923849 -4.53893 0
M  V30 2154 C 217.602 -1.25578 -5.5948 0
M  V30 2155 N 217.098 -1.65889 -6.72646 0
M  V30 2156 N 218.891 -1.17613 -5.49658 0
M  V30 2157 H 211.042 -1.37123 -1.62206 0
M  V30 2158 H 213.305 -0.56294 -0.76276 0
M  V30 2159 H 213.011 -1.58275 -3.14073 0
M  V30 2160 H 212.885 0.0498042 -3.77167 0
M  V30 2161 H 215.272 0.528909 -2.90321 0
M  V30 2162 H 215.353 -1.13056 -2.2946 0
M  V30 2163 H 214.997 -1.9956 -4.67053 0
M  V30 2164 H 214.927 -0.314698 -5.25659 0
M  V30 2165 H 217.418 -0.627403 -3.72655 0
M  V30 2166 H 217.731 -1.89543 -7.49195 0
M  V30 2167 H 216.076 -1.69787 -6.73942 0
M  V30 2168 H 219.267 -0.860115 -4.6013 0
M  V30 2169 H 219.44 -1.43812 -6.3184 0
M  V30 2170 N 212.846 1.57033 -0.133567 0
M  V30 2171 C 214.093 1.95686 0.520877 0
M  V30 2172 C 214.421 1.0177 1.6575 0
M  V30 2173 O 213.676 0.0443195 1.9565 0
M  V30 2174 C 213.975 3.40674 1.08057 0
M  V30 2175 C 213.641 4.50855 0.0637899 0
M  V30 2176 C 212.303 4.80716 -0.215757 0
M  V30 2177 C 214.655 5.17398 -0.62835 0
M  V30 2178 C 211.983 5.74433 -1.19348 0
M  V30 2179 C 214.335 6.12167 -1.5948 0
M  V30 2180 C 212.999 6.40414 -1.88218 0
M  V30 2181 H 212.269 0.716067 0.190602 0
M  V30 2182 H 214.916 1.9026 -0.217556 0
M  V30 2183 H 213.221 3.42865 1.89606 0
M  V30 2184 H 214.918 3.67902 1.59529 0
M  V30 2185 H 211.508 4.27605 0.291855 0
M  V30 2186 H 215.692 4.94472 -0.425562 0
M  V30 2187 H 210.948 5.94616 -1.42272 0
M  V30 2188 H 215.122 6.6281 -2.13671 0
M  V30 2189 H 212.749 7.12838 -2.64133 0
M  V30 2190 N 214.325 -0.140222 1.56975 0
M  V30 2191 C 215.255 -1.17456 2.01808 0
M  V30 2192 C 216.236 -1.44415 0.898794 0
M  V30 2193 O 217.421 -1.5522 1.16707 0
M  V30 2194 C 214.551 -2.50607 2.40444 0
M  V30 2195 C 213.505 -2.38155 3.55621 0
M  V30 2196 C 212.831 -3.76078 3.80091 0
M  V30 2197 C 214.131 -1.85991 4.88062 0
M  V30 2198 H 215.825 -0.801743 2.88466 0
M  V30 2199 H 213.371 -0.38422 1.38779 0
M  V30 2200 H 215.324 -3.23197 2.7041 0
M  V30 2201 H 214.048 -2.89737 1.50732 0
M  V30 2202 H 212.707 -1.68016 3.25832 0
M  V30 2203 H 212.355 -4.12656 2.87618 0
M  V30 2204 H 212.055 -3.68606 4.57606 0
M  V30 2205 H 213.579 -4.50206 4.12488 0
M  V30 2206 H 214.993 -2.4838 5.16701 0
M  V30 2207 H 213.39 -1.89393 5.6943 0
M  V30 2208 H 214.46 -0.816023 4.77984 0
M  V30 2209 N 215.803 -1.52179 -0.40978 0
M  V30 2210 C 216.766 -1.74853 -1.48186 0
M  V30 2211 C 217.766 -0.618417 -1.48433 0
M  V30 2212 O 218.956 -0.886286 -1.49969 0
M  V30 2213 C 216.088 -1.8303 -2.87598 0
M  V30 2214 H 217.281 -2.70559 -1.29374 0
M  V30 2215 H 214.834 -1.42586 -0.640233 0
M  V30 2216 H 215.569 -0.89236 -3.11781 0
M  V30 2217 H 215.354 -2.65187 -2.88822 0
M  V30 2218 H 216.844 -2.02316 -3.65319 0
M  V30 2219 N 217.281 0.66697 -1.42791 0
M  V30 2220 C 218.244 1.76211 -1.46568 0
M  V30 2221 C 219.244 1.56896 -0.352196 0
M  V30 2222 O 220.434 1.63044 -0.613364 0
M  V30 2223 C 217.566 3.14935 -1.30494 0
M  V30 2224 H 218.759 1.74247 -2.44086 0
M  V30 2225 H 216.312 0.877342 -1.29354 0
M  V30 2226 H 217.047 3.2252 -0.339301 0
M  V30 2227 H 216.832 3.30359 -2.11199 0
M  V30 2228 H 218.322 3.94821 -1.36038 0
M  V30 2229 N 218.759 1.29093 0.90403 0
M  V30 2230 C 220.008 1.16187 1.64874 0
M  V30 2231 C 220.321 -0.286742 1.93487 0
M  V30 2232 O 221.527 -0.537062 2.66135 0
M  V30 2233 C 219.983 2.03177 2.97064 0
M  V30 2234 C 219.591 3.52836 2.76062 0
M  V30 2235 C 221.335 1.98984 3.74974 0
M  V30 2236 C 219.242 4.31945 4.03952 0
M  V30 2237 H 218.172 0.431246 0.618501 0
M  V30 2238 H 220.823 1.53699 1.00243 0
M  V30 2239 H 219.205 1.5853 3.62883 0
M  V30 2240 H 220.379 4.05507 2.18863 0
M  V30 2241 H 218.694 3.58656 2.11553 0
M  V30 2242 H 221.291 2.55351 4.69787 0
M  V30 2243 H 221.634 0.968815 4.0487 0
M  V30 2244 H 222.167 2.41652 3.15989 0
M  V30 2245 H 218.906 5.34667 3.79225 0
M  V30 2246 H 218.426 3.84045 4.60727 0
M  V30 2247 H 220.105 4.42379 4.72133 0
M  V30 2248 N 220.237 -1.11381 1.11499 0
M  V30 2249 C 221.477 -1.84763 0.874188 0
M  V30 2250 C 221.841 -1.82726 -0.589496 0
M  V30 2251 O 223.042 -2.51562 -0.947089 0
M  V30 2252 C 221.313 -3.27931 1.42112 0
M  V30 2253 S 222.872 -4.18557 1.31739 0
M  V30 2254 H 219.69 -0.637115 0.315603 0
M  V30 2255 H 222.292 -1.34097 1.42261 0
M  V30 2256 H 220.996 -3.26978 2.48019 0
M  V30 2257 H 220.527 -3.83665 0.869761 0
M  V30 2258 H 222.542 -4.95396 0.282335 0
M  V30 2259 N 221.715 -0.905404 -1.28997 0
M  V30 2260 C 222.647 -0.344748 -2.26592 0
M  V30 2261 C 223.66 0.512135 -1.54535 0
M  V30 2262 O 224.849 0.328368 -1.75454 0
M  V30 2263 C 221.949 0.526587 -3.34784 0
M  V30 2264 C 221.122 -0.305871 -4.36329 0
M  V30 2265 C 220.181 0.499209 -5.23827 0
M  V30 2266 O 219.207 -0.0853004 -5.69136 0
M  V30 2267 N 220.409 1.80408 -5.51755 0
M  V30 2268 H 223.174 -1.18359 -2.75338 0
M  V30 2269 H 220.735 -0.770481 -1.42391 0
M  V30 2270 H 222.727 1.07171 -3.90252 0
M  V30 2271 H 221.297 1.26613 -2.85811 0
M  V30 2272 H 220.517 -1.0324 -3.80441 0
M  V30 2273 H 221.805 -0.875773 -5.01206 0
M  V30 2274 H 221.203 2.3016 -5.16762 0
M  V30 2275 H 219.76 2.29621 -6.10014 0
M  V30 2276 N 223.193 1.4272 -0.668489 0
M  V30 2277 C 224.47 1.95248 -0.117373 0
M  V30 2278 C 224.85 1.60919 1.36632 0
M  V30 2279 O 224.198 0.902095 2.09939 0
M  V30 2280 C 224.408 3.46927 -0.379806 0
M  V30 2281 C 225.756 4.23588 -0.292923 0
M  V30 2282 O 226.78 3.5482 -0.313204 0
M  V30 2283 O 225.639 5.46017 -0.229697 0
M  V30 2284 H 222.733 0.827 0.00079152 0
M  V30 2285 H 225.279 1.52581 -0.742783 0
M  V30 2286 H 224.051 3.65096 -1.40786 0
M  V30 2287 H 223.674 3.96627 0.277923 0
M  V30 2288 N 224.671 0.411399 1.52136 0
M  V30 2289 C 225.911 -0.163143 2.03748 0
M  V30 2290 C 226.275 -1.42187 1.29022 0
M  V30 2291 O 227.476 -2.075 1.70872 0
M  V30 2292 C 225.747 -0.402651 3.55125 0
M  V30 2293 S 227.306 -0.944315 4.28519 0
M  V30 2294 H 224.124 -0.0439833 0.709638 0
M  V30 2295 H 226.726 0.56484 1.87163 0
M  V30 2296 H 225.43 0.520212 4.0709 0
M  V30 2297 H 224.961 -1.15844 3.75957 0
M  V30 2298 H 226.976 -2.22463 4.43536 0
M  V30 2299 N 226.149 -1.5696 0.141893 0
M  V30 2300 C 227.397 -1.95573 -0.509484 0
M  V30 2301 C 227.718 -1.02746 -1.65736 0
M  V30 2302 O 226.988 -0.0880311 -1.95702 0
M  V30 2303 H 225.568 -0.722115 -0.191205 0
M  V30 2304 H 228.23 -1.93697 0.216196 0
M  V30 2305 H 227.326 -2.99171 -0.889 0
M  V30 2306 N 227.627 0.131896 -1.57047 0
M  V30 2307 C 229.043 0.485031 -1.52051 0
M  V30 2308 C 229.243 1.82563 -0.85281 0
M  V30 2309 O 228.299 2.48817 -0.429694 0
M  V30 2310 C 229.612 0.481409 -2.96821 0
M  V30 2311 C 231.16 0.565868 -3.07842 0
M  V30 2312 C 231.635 0.592762 -4.54148 0
M  V30 2313 N 233.126 0.654564 -4.58552 0
M  V30 2314 C 233.861 0.696608 -5.69153 0
M  V30 2315 N 233.357 0.697078 -6.89284 0
M  V30 2316 N 235.15 0.738639 -5.57226 0
M  V30 2317 H 227.301 -0.746664 -1.98843 0
M  V30 2318 H 229.564 -0.273999 -0.90754 0
M  V30 2319 H 229.27 -0.435731 -3.4899 0
M  V30 2320 H 229.144 1.3139 -3.53577 0
M  V30 2321 H 231.531 1.47343 -2.55684 0
M  V30 2322 H 231.612 -0.29406 -2.54104 0
M  V30 2323 H 231.256 -0.310701 -5.06949 0
M  V30 2324 H 231.186 1.46939 -5.05684 0
M  V30 2325 H 233.677 0.660887 -3.72076 0
M  V30 2326 H 233.99 0.731426 -7.69331 0
M  V30 2327 H 232.335 0.66471 -6.91814 0
M  V30 2328 H 235.526 0.735545 -4.62285 0
M  V30 2329 H 235.699 0.767938 -6.43434 0
M  V30 2330 N 229.106 1.52395 0.401703 0
M  V30 2331 C 230.522 1.41363 0.740864 0
M  V30 2332 C 230.722 0.523982 1.94568 0
M  V30 2333 O 229.778 -0.00741204 2.52499 0
M  V30 2334 C 231.091 2.84011 0.987847 0
M  V30 2335 C 232.639 2.93404 1.09011 0
M  V30 2336 C 233.114 4.37036 1.3698 0
M  V30 2337 N 234.605 4.40304 1.43829 0
M  V30 2338 C 235.34 5.48508 1.67112 0
M  V30 2339 N 234.836 6.66819 1.87949 0
M  V30 2340 N 236.629 5.36034 1.69187 0
M  V30 2341 H 228.78 2.08765 -0.391262 0
M  V30 2342 H 231.043 0.941265 -0.112798 0
M  V30 2343 H 230.749 3.51265 0.174835 0
M  V30 2344 H 230.623 3.25502 1.906 0
M  V30 2345 H 233.01 2.26325 1.8937 0
M  V30 2346 H 233.091 2.55359 0.15015 0
M  V30 2347 H 232.735 5.04676 0.571353 0
M  V30 2348 H 232.665 4.72623 2.3224 0
M  V30 2349 H 235.156 3.55024 1.29486 0
M  V30 2350 H 235.469 7.45063 2.05185 0
M  V30 2351 H 233.814 6.6987 1.85199 0
M  V30 2352 H 237.005 4.42579 1.52451 0
M  V30 2353 H 237.178 6.20434 1.86993 0
M  V30 2354 N 230.584 -0.659388 1.43143 0
M  V30 2355 C 231.531 -1.77249 1.47822 0
M  V30 2356 C 232.501 -1.62818 0.328558 0
M  V30 2357 O 233.686 -1.83151 0.534838 0
M  V30 2358 C 230.826 -3.15371 1.40126 0
M  V30 2359 C 229.939 -3.4098 2.65249 0
M  V30 2360 C 229.074 -4.68915 2.49584 0
M  V30 2361 C 228.113 -4.87608 3.70006 0
M  V30 2362 N 227.25 -6.06796 3.53189 0
M  V30 2363 H 232.09 -1.72584 2.42938 0
M  V30 2364 H 229.627 -0.842297 1.20598 0
M  V30 2365 H 231.585 -3.9521 1.33659 0
M  V30 2366 H 230.215 -3.19121 0.485964 0
M  V30 2367 H 229.267 -2.55282 2.8202 0
M  V30 2368 H 230.579 -3.50681 3.54717 0
M  V30 2369 H 229.733 -5.56871 2.4079 0
M  V30 2370 H 228.472 -4.61524 1.5763 0
M  V30 2371 H 227.477 -3.9809 3.79215 0
M  V30 2372 H 228.702 -4.96834 4.62961 0
M  V30 2373 H 226.648 -6.00549 2.63965 0
M  V30 2374 H 226.565 -6.17428 4.36255 0
M  V30 2375 H 227.833 -6.9739 3.48236 0
M  V30 2376 N 232.062 -1.29571 -0.897171 0
M  V30 2377 C 232.992 -1.17473 -2.01798 0
M  V30 2378 C 233.973 -0.068323 -1.69963 0
M  V30 2379 O 235.158 -0.248239 -1.92607 0
M  V30 2380 C 232.288 -0.853099 -3.36659 0
M  V30 2381 C 231.242 -1.9161 -3.82713 0
M  V30 2382 C 230.568 -1.44773 -5.14728 0
M  V30 2383 C 231.868 -3.32535 -4.02763 0
M  V30 2384 H 233.562 -2.11237 -2.12177 0
M  V30 2385 H 231.108 -1.01699 -1.01948 0
M  V30 2386 H 233.061 -0.755165 -4.14578 0
M  V30 2387 H 231.785 0.120236 -3.26379 0
M  V30 2388 H 230.444 -2.00346 -3.07013 0
M  V30 2389 H 230.092 -0.462995 -5.00865 0
M  V30 2390 H 229.792 -2.15865 -5.46513 0
M  V30 2391 H 231.316 -1.36334 -5.95185 0
M  V30 2392 H 232.73 -3.26626 -4.71156 0
M  V30 2393 H 231.127 -4.01607 -4.45905 0
M  V30 2394 H 232.197 -3.75326 -3.07016 0
M  V30 2395 N 233.54 1.10788 -1.12088 0
M  V30 2396 C 234.951 1.64181 -0.88891 0
M  V30 2397 C 235.302 1.87508 0.577498 0
M  V30 2398 O 234.427 1.61434 1.44112 0
M  V30 2399 C 235.022 2.98257 -1.60712 0
M  V30 2400 C 233.581 3.4853 -1.42139 0
M  V30 2401 C 232.728 2.23208 -1.6454 0
M  V30 2402 H 235.679 0.943368 -1.27618 0
M  V30 2403 H 235.7 3.65552 -1.05604 0
M  V30 2404 H 235.212 2.81246 -2.67436 0
M  V30 2405 H 233.313 3.70692 -0.376552 0
M  V30 2406 H 233.426 4.26882 -2.17505 0
M  V30 2407 H 231.79 2.31169 -1.06925 0
M  V30 2408 H 232.573 2.08733 -2.72554 0
M  V30 2409 N 235.018 0.912232 1.28515 0
M  V30 2410 C 236.264 0.545405 1.95328 0
M  V30 2411 C 236.597 -0.908313 1.71649 0
M  V30 2412 O 235.872 -1.64575 1.03659 0
M  V30 2413 C 236.155 0.853483 3.4984 0
M  V30 2414 C 236.008 2.35982 3.82926 0
M  V30 2415 C 237.327 0.348589 4.38717 0
M  V30 2416 H 234.446 0.199626 0.709449 0
M  V30 2417 H 237.088 1.1412 1.5191 0
M  V30 2418 H 235.238 0.34643 3.86952 0
M  V30 2419 H 236.91 2.93738 3.55691 0
M  V30 2420 H 235.153 2.81543 3.30024 0
M  V30 2421 H 235.824 2.52593 4.90816 0
M  V30 2422 H 238.3 0.78294 4.08668 0
M  V30 2423 H 237.176 0.593242 5.45685 0
M  V30 2424 H 237.437 -0.751049 4.35674 0
M  V30 2425 N 236.496 -1.42363 0.676048 0
M  V30 2426 C 237.773 -1.95183 0.127726 0
M  V30 2427 C 238.153 -1.61641 -1.35777 0
M  V30 2428 O 237.501 -0.913216 -2.09458 0
M  V30 2429 C 237.711 -3.46721 0.398199 0
M  V30 2430 C 239.059 -4.23427 0.315383 0
M  V30 2431 O 240.083 -3.54649 0.332016 0
M  V30 2432 O 238.942 -5.45888 0.25865 0
M  V30 2433 H 236.036 -0.826992 0.00359427 0
M  V30 2434 H 238.582 -1.52184 0.750864 0
M  V30 2435 H 237.354 -3.64344 1.4272 0
M  V30 2436 H 236.977 -3.96769 -0.256885 0
M  V30 2437 N 237.974 -0.419461 -1.51915 0
M  V30 2438 C 239.39 -0.0708431 -1.59443 0
M  V30 2439 C 239.59 1.41796 -1.43164 0
M  V30 2440 O 238.646 2.18596 -1.26381 0
M  V30 2441 C 239.959 -0.574991 -2.95151 0
M  V30 2442 C 241.507 -0.533867 -3.08413 0
M  V30 2443 C 241.982 -1.01469 -4.46618 0
M  V30 2444 N 243.473 -0.971939 -4.52888 0
M  V30 2445 C 244.208 -1.31505 -5.58116 0
M  V30 2446 N 243.704 -1.73014 -6.70849 0
M  V30 2447 N 245.497 -1.23436 -5.48379 0
M  V30 2448 H 237.648 -1.38836 -1.60743 0
M  V30 2449 H 239.911 -0.570998 -0.756747 0
M  V30 2450 H 239.617 -1.61597 -3.12377 0
M  V30 2451 H 239.491 0.00979777 -3.77199 0
M  V30 2452 H 241.878 0.498086 -2.90866 0
M  V30 2453 H 241.959 -1.15484 -2.28248 0
M  V30 2454 H 241.603 -2.04502 -4.6491 0
M  V30 2455 H 241.533 -0.370433 -5.25295 0
M  V30 2456 H 244.024 -0.666893 -3.71969 0
M  V30 2457 H 244.337 -1.97479 -7.47143 0
M  V30 2458 H 242.682 -1.76926 -6.72103 0
M  V30 2459 H 245.873 -0.908869 -4.59192 0
M  V30 2460 H 246.046 -1.50506 -6.30279 0
M  V30 2461 N 239.452 1.56882 -0.150215 0
M  V30 2462 C 240.701 1.95403 0.500071 0
M  V30 2463 C 241.014 1.03777 1.658 0
M  V30 2464 O 242.22 1.31889 2.37313 0
M  V30 2465 C 240.676 3.4738 0.941018 0
M  V30 2466 C 240.284 4.47596 -0.190158 0
M  V30 2467 C 242.028 3.9476 1.56091 0
M  V30 2468 C 239.935 5.90787 0.269237 0
M  V30 2469 H 238.865 0.729515 0.190588 0
M  V30 2470 H 241.516 1.81988 -0.235074 0
M  V30 2471 H 239.898 3.56138 1.73152 0
M  V30 2472 H 241.072 4.50536 -0.967157 0
M  V30 2473 H 239.387 4.10151 -0.718666 0
M  V30 2474 H 241.984 4.99181 1.9163 0
M  V30 2475 H 242.327 3.36494 2.45107 0
M  V30 2476 H 242.86 3.88932 0.835249 0
M  V30 2477 H 239.599 6.52879 -0.585621 0
M  V30 2478 H 239.119 5.912 1.01204 0
M  V30 2479 H 240.798 6.42979 0.720176 0
M  V30 2480 N 240.93 -0.123565 1.57115 0
M  V30 2481 C 242.176 -0.833386 1.84885 0
M  V30 2482 C 242.509 -1.79742 0.735292 0
M  V30 2483 O 241.784 -1.92764 -0.25925 0
M  V30 2484 C 242.067 -1.5873 3.23228 0
M  V30 2485 C 241.92 -0.643183 4.45178 0
M  V30 2486 C 243.239 -2.54453 3.59085 0
M  V30 2487 H 240.358 -0.301518 0.6725 0
M  V30 2488 H 243 -0.097778 1.89748 0
M  V30 2489 H 241.15 -2.21438 3.19214 0
M  V30 2490 H 242.822 -0.0253015 4.61293 0
M  V30 2491 H 241.065 0.0456139 4.33776 0
M  V30 2492 H 241.736 -1.20724 5.38637 0
M  V30 2493 H 244.212 -2.01853 3.63861 0
M  V30 2494 H 243.088 -3.04238 4.5687 0
M  V30 2495 H 243.349 -3.36906 2.86264 0
M  V30 2496 N 242.408 -1.52605 -0.393616 0
M  V30 2497 C 243.656 -1.67093 -1.13685 0
M  V30 2498 C 243.977 -0.411011 -1.90619 0
M  V30 2499 O 243.247 0.574491 -1.87287 0
M  V30 2500 H 241.827 -0.615923 -0.422668 0
M  V30 2501 H 244.489 -1.89704 -0.447039 0
M  V30 2502 H 243.585 -2.51922 -1.84232 0
M  V30 2503 N 243.887 0.651787 -1.4349 0
M  V30 2504 C 245.135 1.40888 -1.44897 0
M  V30 2505 C 245.456 1.94856 -0.0749086 0
M  V30 2506 O 244.726 1.74518 0.889956 0
M  V30 2507 H 243.306 0.522887 -0.533478 0
M  V30 2508 H 245.968 0.768609 -1.79104 0
M  V30 2509 H 245.064 2.25052 -2.16236 0
M  V30 2510 N 245.365 1.30045 0.890287 0
M  V30 2511 C 246.781 1.08261 1.17268 0
M  V30 2512 C 246.981 -0.160063 2.00863 0
M  V30 2513 O 246.037 -0.855181 2.37577 0
M  V30 2514 C 247.35 2.34323 1.8845 0
M  V30 2515 C 248.898 2.39735 2.01237 0
M  V30 2516 C 249.373 3.65625 2.7583 0
M  V30 2517 N 250.864 3.66402 2.83379 0
M  V30 2518 C 251.599 4.60498 3.41657 0
M  V30 2519 N 251.095 5.64933 4.01026 0
M  V30 2520 N 252.888 4.48051 3.39421 0
M  V30 2521 H 245.039 2.09777 0.332762 0
M  V30 2522 H 247.302 0.92446 0.209948 0
M  V30 2523 H 247.008 3.2498 1.34465 0
M  V30 2524 H 246.882 2.4256 2.88867 0
M  V30 2525 H 249.269 1.4956 2.54393 0
M  V30 2526 H 249.35 2.35476 0.999232 0
M  V30 2527 H 248.994 4.56156 2.23347 0
M  V30 2528 H 248.924 3.67144 3.77509 0
M  V30 2529 H 251.415 2.90896 2.41222 0
M  V30 2530 H 251.728 6.32841 4.43545 0
M  V30 2531 H 250.073 5.68732 3.99461 0
M  V30 2532 H 253.264 3.65649 2.92264 0
M  V30 2533 H 253.437 5.21565 3.84544 0
M  V30 2534 N 246.843 -1.10192 1.12674 0
M  V30 2535 C 248.12 -1.78717 0.794965 0
M  V30 2536 C 248.5 -1.98628 -0.714853 0
M  V30 2537 O 247.848 -1.58135 -1.64941 0
M  V30 2538 C 248.058 -3.11546 1.5729 0
M  V30 2539 C 249.406 -3.86382 1.76052 0
M  V30 2540 O 250.43 -3.21274 1.53823 0
M  V30 2541 O 249.289 -5.03246 2.13087 0
M  V30 2542 H 246.383 -0.774702 0.289423 0
M  V30 2543 H 248.929 -1.16819 1.23091 0
M  V30 2544 H 247.701 -2.92489 2.59935 0
M  V30 2545 H 247.324 -3.81164 1.13137 0
M  V30 2546 N 248.321 -0.919034 -1.28029 0
M  V30 2547 C 249.549 -0.570971 -1.98866 0
M  V30 2548 C 249.964 0.848996 -1.68634 0
M  V30 2549 O 249.321 1.56307 -0.942036 0
M  V30 2550 C 249.372 -0.776876 -3.53054 0
M  V30 2551 O 249.093 -2.14097 -3.82222 0
M  V30 2552 C 250.594 -0.436356 -4.41147 0
M  V30 2553 H 247.814 -0.217175 -0.634883 0
M  V30 2554 H 250.358 -1.23368 -1.63097 0
M  V30 2555 H 248.513 -0.161085 -3.87065 0
M  V30 2556 H 248.927 -2.18455 -4.76841 0
M  V30 2557 H 250.401 -0.63117 -5.4838 0
M  V30 2558 H 250.878 0.627686 -4.34692 0
M  V30 2559 H 251.484 -1.02991 -4.12641 0
M  V30 2560 N 249.799 1.42003 -0.683588 0
M  V30 2561 C 251.024 2.06265 -0.216647 0
M  V30 2562 C 251.449 1.51059 1.12083 0
M  V30 2563 O 250.807 0.632638 1.69904 0
M  V30 2564 C 250.855 3.60191 -0.171759 0
M  V30 2565 O 249.959 4.03396 0.857069 0
M  V30 2566 H 249.3 0.65502 -0.108834 0
M  V30 2567 H 251.83 1.81982 -0.935077 0
M  V30 2568 H 251.84 4.08 0.0014303 0
M  V30 2569 H 250.515 3.99743 -1.14796 0
M  V30 2570 H 249.092 3.67117 0.654208 0
M  V30 2571 N 251.277 0.427512 1.51691 0
M  V30 2572 C 252.207 -0.3796 2.30394 0
M  V30 2573 C 253.188 -1.02982 1.35384 0
M  V30 2574 O 254.373 -1.03534 1.643 0
M  V30 2575 C 251.503 -1.48649 3.1388 0
M  V30 2576 C 250.457 -0.960294 4.17088 0
M  V30 2577 C 249.783 -2.16219 4.89033 0
M  V30 2578 C 251.083 -0.00153679 5.223 0
M  V30 2579 H 252.777 0.277164 2.98114 0
M  V30 2580 H 250.323 0.134739 1.43368 0
M  V30 2581 H 252.276 -2.05826 3.67714 0
M  V30 2582 H 251 -2.1714 2.43962 0
M  V30 2583 H 249.659 -0.410806 3.64291 0
M  V30 2584 H 249.307 -2.83307 4.15628 0
M  V30 2585 H 249.007 -1.81654 5.58816 0
M  V30 2586 H 250.531 -2.73968 5.45687 0
M  V30 2587 H 251.945 -0.482687 5.71264 0
M  V30 2588 H 250.342 0.256199 5.99553 0
M  V30 2589 H 251.412 0.938174 4.75738 0
M  V30 2590 N 252.755 -1.56801 0.158532 0
M  V30 2591 C 254.003 -1.96102 -0.488712 0
M  V30 2592 C 254.324 -1.04498 -1.64636 0
M  V30 2593 O 253.594 -0.108783 -1.95598 0
M  V30 2594 H 252.174 -0.724102 -0.183535 0
M  V30 2595 H 254.836 -1.93457 0.236728 0
M  V30 2596 H 253.932 -3.00097 -0.857219 0
M  V30 2597 N 254.233 0.115231 -1.57178 0
M  V30 2598 C 255.649 0.468877 -1.52557 0
M  V30 2599 C 255.849 1.81649 -0.872125 0
M  V30 2600 O 254.905 2.48347 -0.45606 0
M  V30 2601 C 256.218 0.4499 -2.97315 0
M  V30 2602 C 257.766 0.533185 -3.08425 0
M  V30 2603 C 258.241 0.54456 -4.54751 0
M  V30 2604 N 259.732 0.605892 -4.5922 0
M  V30 2605 C 260.467 0.636203 -5.6986 0
M  V30 2606 N 259.963 0.623931 -6.89985 0
M  V30 2607 N 261.756 0.679496 -5.57978 0
M  V30 2608 H 253.907 -0.767712 -1.9804 0
M  V30 2609 H 256.17 -0.283609 -0.904583 0
M  V30 2610 H 255.876 -0.472721 -3.48509 0
M  V30 2611 H 255.75 1.27632 -3.5495 0
M  V30 2612 H 258.137 1.44623 -2.57232 0
M  V30 2613 H 258.218 -0.320995 -2.53778 0
M  V30 2614 H 257.862 -0.364452 -5.06591 0
M  V30 2615 H 257.792 1.41568 -5.07214 0
M  V30 2616 H 260.283 0.621386 -3.72756 0
M  V30 2617 H 260.596 0.649787 -7.70063 0
M  V30 2618 H 258.941 0.591296 -6.9248 0
M  V30 2619 H 262.132 0.686472 -4.63039 0
M  V30 2620 H 262.305 0.69965 -6.44212 0
M  V30 2621 N 255.711 1.52812 0.385517 0
M  V30 2622 C 256.957 1.69225 1.12847 0
M  V30 2623 C 257.312 0.42864 1.87564 0
M  V30 2624 O 256.605 -0.57779 1.8268 0
M  V30 2625 C 256.799 2.86856 2.13187 0
M  V30 2626 C 256.628 4.24535 1.48325 0
M  V30 2627 C 255.398 4.89701 1.24585 0
M  V30 2628 C 257.596 5.05794 0.931501 0
M  V30 2629 N 255.578 6.11353 0.558644 0
M  V30 2630 C 256.949 6.1888 0.372552 0
M  V30 2631 C 259.004 4.90963 0.828248 0
M  V30 2632 C 257.707 7.18757 -0.279556 0
M  V30 2633 C 259.733 5.91095 0.189956 0
M  V30 2634 C 259.095 7.03489 -0.358207 0
M  V30 2635 H 255.194 0.67268 0.39878 0
M  V30 2636 H 257.778 1.9017 0.417528 0
M  V30 2637 H 255.949 2.67484 2.81614 0
M  V30 2638 H 257.681 2.92188 2.80014 0
M  V30 2639 H 254.436 4.48485 1.52178 0
M  V30 2640 H 254.86 6.76606 0.230983 0
M  V30 2641 H 259.502 4.04274 1.23784 0
M  V30 2642 H 257.22 8.05052 -0.701152 0
M  V30 2643 H 260.806 5.81694 0.111264 0
M  V30 2644 H 259.686 7.79642 -0.844314 0
M  V30 2645 N 257.189 -0.644168 1.43834 0
M  V30 2646 C 258.6 -1.22554 1.40845 0
M  V30 2647 C 258.951 -1.9585 0.117115 0
M  V30 2648 O 258.076 -2.01734 -0.783086 0
M  V30 2649 C 258.671 -2.22907 2.55143 0
M  V30 2650 C 257.23 -2.76501 2.5539 0
M  V30 2651 C 256.377 -1.51287 2.32396 0
M  V30 2652 H 259.328 -0.43563 1.52604 0
M  V30 2653 H 259.349 -3.05259 2.2715 0
M  V30 2654 H 258.861 -1.69533 3.49114 0
M  V30 2655 H 256.962 -3.33914 1.65324 0
M  V30 2656 H 257.075 -3.23429 3.53455 0
M  V30 2657 H 255.439 -1.78957 1.81236 0
M  V30 2658 H 256.222 -0.998336 3.28463 0
M  V30 2659 N 258.668 -1.30515 -0.883378 0
M  V30 2660 C 259.914 -1.20617 -1.63778 0
M  V30 2661 C 260.269 0.236469 -1.90941 0
M  V30 2662 O 259.562 1.16596 -1.52039 0
M  V30 2663 C 259.756 -1.96994 -2.98209 0
M  V30 2664 C 259.585 -3.48537 -2.84169 0
M  V30 2665 C 258.355 -4.17893 -2.84067 0
M  V30 2666 C 260.553 -4.43738 -2.60001 0
M  V30 2667 N 258.535 -5.55685 -2.60936 0
M  V30 2668 C 259.906 -5.69105 -2.46007 0
M  V30 2669 C 261.961 -4.33316 -2.45239 0
M  V30 2670 C 260.664 -6.8523 -2.18752 0
M  V30 2671 C 262.69 -5.4921 -2.19369 0
M  V30 2672 C 262.052 -6.73558 -2.06153 0
M  V30 2673 H 258.151 -0.496434 -0.604216 0
M  V30 2674 H 260.735 -1.64544 -1.04083 0
M  V30 2675 H 258.906 -1.55455 -3.55933 0
M  V30 2676 H 260.638 -1.79225 -3.62851 0
M  V30 2677 H 257.393 -3.69739 -2.95956 0
M  V30 2678 H 257.817 -6.28199 -2.52378 0
M  V30 2679 H 262.459 -3.37856 -2.54191 0
M  V30 2680 H 260.177 -7.80729 -2.08537 0
M  V30 2681 H 263.763 -5.43054 -2.08766 0
M  V30 2682 H 262.643 -7.61721 -1.86416 0
M  V30 2683 N 260.146 1.09593 -1.13257 0
M  V30 2684 C 261.078 2.16015 -0.766167 0
M  V30 2685 C 262.091 1.61423 0.211303 0
M  V30 2686 O 263.28 1.78498 -0.00863946 0
M  V30 2687 C 260.38 3.38706 -0.114662 0
M  V30 2688 C 259.553 4.22717 -1.12379 0
M  V30 2689 C 258.612 5.23835 -0.498301 0
M  V30 2690 O 257.638 5.573 -1.15781 0
M  V30 2691 N 258.84 5.75886 0.730417 0
M  V30 2692 H 261.605 2.48055 -1.68193 0
M  V30 2693 H 259.166 1.25292 -1.02535 0
M  V30 2694 H 261.158 4.03464 0.315991 0
M  V30 2695 H 259.728 3.04569 0.704011 0
M  V30 2696 H 258.948 3.54122 -1.73179 0
M  V30 2697 H 260.236 4.75673 -1.80589 0
M  V30 2698 H 259.634 5.50911 1.28504 0
M  V30 2699 H 258.191 6.42387 1.10376 0
M  V30 2700 N 261.624 0.925811 1.2754 0
M  V30 2701 C 262.87 0.566092 1.94739 0
M  V30 2702 C 263.203 -0.890057 1.72603 0
M  V30 2703 O 262.478 -1.63467 1.05399 0
M  V30 2704 C 262.761 0.89054 3.48915 0
M  V30 2705 C 262.614 2.4003 3.80402 0
M  V30 2706 C 263.933 0.395101 4.38323 0
M  V30 2707 H 261.052 0.20714 0.707292 0
M  V30 2708 H 263.694 1.15725 1.50691 0
M  V30 2709 H 261.844 0.387452 3.86563 0
M  V30 2710 H 263.516 2.97494 3.52555 0
M  V30 2711 H 261.759 2.85028 3.2702 0
M  V30 2712 H 262.43 2.57785 4.8811 0
M  V30 2713 H 264.906 0.826241 4.07814 0
M  V30 2714 H 263.782 0.651086 5.45025 0
M  V30 2715 H 264.043 -0.704798 4.36446 0
M  V30 2716 N 263.102 -1.41638 0.69111 0
M  V30 2717 C 264.327 -2.06148 0.227583 0
M  V30 2718 C 264.752 -1.51652 -1.11281 0
M  V30 2719 O 264.11 -0.64164 -1.69566 0
M  V30 2720 C 264.158 -3.60095 0.190858 0
M  V30 2721 O 263.262 -4.03845 -0.835664 0
M  V30 2722 H 262.603 -0.654434 0.112306 0
M  V30 2723 H 265.133 -1.81484 0.944714 0
M  V30 2724 H 265.143 -4.07995 0.020207 0
M  V30 2725 H 263.818 -3.99129 1.16915 0
M  V30 2726 H 262.395 -3.67458 -0.63473 0
M  V30 2727 N 264.58 -0.43555 -1.51462 0
M  V30 2728 C 265.51 0.367376 -2.30592 0
M  V30 2729 C 266.491 1.02263 -1.35928 0
M  V30 2730 O 267.676 1.02661 -1.64847 0
M  V30 2731 C 264.806 1.46983 -3.14664 0
M  V30 2732 C 263.76 0.938161 -4.17591 0
M  V30 2733 C 263.086 2.13622 -4.90173 0
M  V30 2734 C 264.386 -0.0261621 -5.22293 0
M  V30 2735 H 266.08 -0.292969 -2.97963 0
M  V30 2736 H 263.626 -0.14234 -1.43295 0
M  V30 2737 H 265.579 2.03873 -3.688 0
M  V30 2738 H 264.303 2.15843 -2.4511 0
M  V30 2739 H 262.962 0.391481 -3.64504 0
M  V30 2740 H 262.61 2.81098 -4.17124 0
M  V30 2741 H 262.31 1.78688 -5.59772 0
M  V30 2742 H 263.834 2.7107 -5.47132 0
M  V30 2743 H 265.248 0.452384 -5.71512 0
M  V30 2744 H 263.645 -0.287992 -5.99409 0
M  V30 2745 H 264.715 -0.963391 -4.75233 0
M  V30 2746 N 266.058 1.56714 -0.166846 0
M  V30 2747 C 267.474 1.58473 0.189372 0
M  V30 2748 C 267.674 1.18201 1.63189 0
M  V30 2749 O 266.73 0.891528 2.36237 0
M  V30 2750 C 268.043 3.00573 -0.0873872 0
M  V30 2751 C 269.591 3.1299 -0.0252443 0
M  V30 2752 C 270.066 4.57174 -0.274934 0
M  V30 2753 N 271.557 4.62665 -0.222553 0
M  V30 2754 C 272.292 5.72072 -0.389985 0
M  V30 2755 N 271.788 6.90054 -0.616229 0
M  V30 2756 N 273.581 5.61153 -0.326202 0
M  V30 2757 H 265.732 1.8118 -1.10849 0
M  V30 2758 H 267.995 0.839525 -0.440342 0
M  V30 2759 H 267.701 3.34497 -1.0865 0
M  V30 2760 H 267.575 3.72019 0.623037 0
M  V30 2761 H 269.962 2.78895 0.96444 0
M  V30 2762 H 270.043 2.43989 -0.768309 0
M  V30 2763 H 269.687 4.91976 -1.26181 0
M  V30 2764 H 269.617 5.24328 0.48869 0
M  V30 2765 H 272.108 3.77863 -0.0531512 0
M  V30 2766 H 272.421 7.69311 -0.733559 0
M  V30 2767 H 270.766 6.91927 -0.652791 0
M  V30 2768 H 273.957 4.67859 -0.150072 0
M  V30 2769 H 274.13 6.46364 -0.460116 0
M  V30 2770 N 267.536 -0.106894 1.57237 0
M  V30 2771 C 268.766 -0.825191 1.89405 0
M  V30 2772 C 269.174 -1.73374 0.757496 0
M  V30 2773 O 268.517 -1.81552 -0.280115 0
M  V30 2774 C 268.579 -1.70102 3.1671 0
M  V30 2775 C 268.243 -0.965523 4.46684 0
M  V30 2776 C 269.24 -0.300741 5.19029 0
M  V30 2777 C 266.925 -0.943105 4.93367 0
M  V30 2778 C 268.919 0.376622 6.36286 0
M  V30 2779 C 266.606 -0.261949 6.10538 0
M  V30 2780 C 267.604 0.396748 6.81847 0
M  V30 2781 O 267.292 1.06701 7.96787 0
M  V30 2782 H 267.024 -0.241852 0.631255 0
M  V30 2783 H 269.578 -0.0921491 2.05193 0
M  V30 2784 H 267.808 -2.47601 2.97036 0
M  V30 2785 H 269.497 -2.29483 3.34802 0
M  V30 2786 H 270.263 -0.309599 4.84011 0
M  V30 2787 H 266.142 -1.44524 4.3776 0
M  V30 2788 H 269.686 0.891334 6.91882 0
M  V30 2789 H 265.583 -0.250896 6.45012 0
M  V30 2790 H 266.351 0.972707 8.127 0
M  V30 2791 N 269.014 -1.53014 -0.377408 0
M  V30 2792 C 270.291 -1.59215 -1.13622 0
M  V30 2793 C 270.671 -0.392407 -2.07421 0
M  V30 2794 O 270.019 0.618342 -2.19975 0
M  V30 2795 C 270.229 -2.93669 -1.88573 0
M  V30 2796 C 271.577 -3.47822 -2.43526 0
M  V30 2797 O 272.601 -2.9562 -1.98715 0
M  V30 2798 O 271.46 -4.39055 -3.25412 0
M  V30 2799 H 268.554 -0.642625 -0.52054 0
M  V30 2800 H 271.1 -1.65353 -0.381625 0
M  V30 2801 H 269.872 -3.7243 -1.20048 0
M  V30 2802 H 269.495 -2.90968 -2.70968 0
M  V30 2803 N 270.492 0.636531 -1.44174 0
M  V30 2804 C 271.74 1.39343 -1.46383 0
M  V30 2805 C 272.061 1.94766 -0.0955715 0
M  V30 2806 O 271.331 1.75452 0.871395 0
M  V30 2807 H 269.911 0.517199 -0.538994 0
M  V30 2808 H 272.573 0.74957 -1.7991 0
M  V30 2809 H 271.669 2.22746 -2.18611 0
M  V30 2810 N 271.97 1.30982 0.876444 0
M  V30 2811 C 272.933 1.18054 1.96459 0
M  V30 2812 C 273.933 0.109399 1.60427 0
M  V30 2813 O 275.123 0.358173 1.70478 0
M  V30 2814 C 272.255 0.810616 3.31122 0
M  V30 2815 H 273.448 2.14735 2.09354 0
M  V30 2816 H 271.001 1.145 1.06392 0
M  V30 2817 H 271.736 -0.155322 3.23928 0
M  V30 2818 H 271.521 1.58481 3.58645 0
M  V30 2819 H 273.011 0.743876 4.10921 0
M  V30 2820 N 273.449 -1.08991 1.13837 0
M  V30 2821 C 274.399 -2.1393 0.788535 0
M  V30 2822 C 275.383 -1.59396 -0.219516 0
M  V30 2823 O 276.575 -1.76985 -0.0227557 0
M  V30 2824 C 273.704 -3.42305 0.261147 0
M  V30 2825 C 272.79 -4.03736 1.29837 0
M  V30 2826 N 273.181 -4.39659 2.50067 0
M  V30 2827 C 271.479 -4.30993 1.1472 0
M  V30 2828 C 272.18 -4.88113 3.16419 0
M  V30 2829 N 271.156 -4.85846 2.43832 0
M  V30 2830 H 274.958 -2.39516 1.70322 0
M  V30 2831 H 272.472 -1.26263 1.02134 0
M  V30 2832 H 274.469 -4.16899 -0.0077405 0
M  V30 2833 H 273.129 -3.18172 -0.647805 0
M  V30 2834 H 274.14 -4.30878 2.8734 0
M  V30 2835 H 270.817 -4.16444 0.296773 0
M  V30 2836 H 272.207 -5.25336 4.18894 0
M  V30 2837 N 274.927 -0.932562 -1.27047 0
M  V30 2838 C 275.857 -0.452902 -2.29066 0
M  V30 2839 C 276.838 0.489338 -1.62909 0
M  V30 2840 O 278.023 0.393046 -1.90181 0
M  V30 2841 C 275.153 0.290698 -3.46081 0
M  V30 2842 C 274.107 -0.564168 -4.24265 0
M  V30 2843 C 273.433 0.308886 -5.33807 0
M  V30 2844 C 274.733 -1.83112 -4.89149 0
M  V30 2845 H 276.427 -1.30552 -2.69437 0
M  V30 2846 H 273.973 -0.629201 -1.29526 0
M  V30 2847 H 275.926 0.637233 -4.16554 0
M  V30 2848 H 274.65 1.17738 -3.0464 0
M  V30 2849 H 273.309 -0.893477 -3.55545 0
M  V30 2850 H 272.957 1.19467 -4.88607 0
M  V30 2851 H 272.657 -0.259633 -5.87026 0
M  V30 2852 H 274.181 0.650884 -6.07121 0
M  V30 2853 H 275.595 -1.55236 -5.51883 0
M  V30 2854 H 273.992 -2.34353 -5.52448 0
M  V30 2855 H 275.062 -2.54772 -4.12576 0
M  V30 2856 N 276.405 1.4127 -0.698611 0
M  V30 2857 C 277.645 2.03044 -0.235062 0
M  V30 2858 C 278.009 1.54146 1.14468 0
M  V30 2859 O 279.21 2.07867 1.70425 0
M  V30 2860 C 277.481 3.56192 -0.293651 0
M  V30 2861 S 279.04 4.38696 0.0954053 0
M  V30 2862 H 275.858 0.704697 -0.0944648 0
M  V30 2863 H 278.46 1.72656 -0.917064 0
M  V30 2864 H 277.164 3.89274 -1.29977 0
M  V30 2865 H 276.695 3.91285 0.407397 0
M  V30 2866 H 278.71 4.78257 1.3223 0
M  V30 2867 N 277.883 0.443576 1.51229 0
M  V30 2868 C 279.131 -0.120557 2.0174 0
M  V30 2869 C 279.452 -1.42665 1.32935 0
M  V30 2870 O 278.722 -1.9028 0.465866 0
M  V30 2871 H 277.302 -0.0475426 0.745486 0
M  V30 2872 H 279.964 0.587711 1.85828 0
M  V30 2873 H 279.06 -0.291972 3.10731 0
M  V30 2874 N 279.361 -1.56624 0.175154 0
M  V30 2875 C 280.609 -1.96609 -0.467885 0
M  V30 2876 C 280.93 -1.06238 -1.63519 0
M  V30 2877 O 280.2 -0.129523 -1.95471 0
M  V30 2878 H 278.78 -0.726008 -0.175845 0
M  V30 2879 H 281.442 -1.93195 0.257234 0
M  V30 2880 H 280.538 -3.00989 -0.825342 0
M  V30 2881 N 280.839 0.0985539 -1.57292 0
M  V30 2882 C 282.064 0.820196 -1.90493 0
M  V30 2883 C 282.489 1.71658 -0.769094 0
M  V30 2884 O 281.847 1.79133 0.279495 0
M  V30 2885 C 281.895 1.61242 -3.22542 0
M  V30 2886 O 280.999 2.72108 -3.09888 0
M  V30 2887 H 280.34 0.225547 -0.62452 0
M  V30 2888 H 282.87 0.0748159 -2.04463 0
M  V30 2889 H 282.88 1.99737 -3.55766 0
M  V30 2890 H 281.555 0.954535 -4.04798 0
M  V30 2891 H 280.132 2.36667 -2.88172 0
M  V30 2892 N 282.317 1.53212 0.369288 0
M  V30 2893 C 283.247 1.82365 1.45826 0
M  V30 2894 C 284.228 0.676907 1.56051 0
M  V30 2895 O 285.413 0.926401 1.70679 0
M  V30 2896 C 282.543 2.01023 2.83208 0
M  V30 2897 C 281.497 3.1678 2.8781 0
M  V30 2898 C 280.823 3.20724 4.27832 0
M  V30 2899 C 282.123 4.55447 2.55667 0
M  V30 2900 H 283.817 2.73559 1.21678 0
M  V30 2901 H 281.363 1.3163 0.583911 0
M  V30 2902 H 283.316 2.20001 3.59413 0
M  V30 2903 H 282.04 1.06536 3.08736 0
M  V30 2904 H 280.699 2.97616 2.14056 0
M  V30 2905 H 280.347 2.23882 4.50429 0
M  V30 2906 H 280.047 3.98496 4.31827 0
M  V30 2907 H 281.571 3.41881 5.05915 0
M  V30 2908 H 282.985 4.74611 3.21586 0
M  V30 2909 H 281.382 5.35432 2.70984 0
M  V30 2910 H 282.452 4.60812 1.5093 0
M  V30 2911 N 283.795 -0.628877 1.44509 0
M  V30 2912 C 284.725 -1.75187 1.54376 0
M  V30 2913 C 285.706 -1.65411 0.396618 0
M  V30 2914 O 286.891 -1.84137 0.617031 0
M  V30 2915 C 284.021 -3.13725 1.48976 0
M  V30 2916 C 282.975 -3.38291 2.62189 0
M  V30 2917 C 282.301 -4.76883 2.41841 0
M  V30 2918 C 283.601 -3.30632 4.04326 0
M  V30 2919 H 285.295 -1.67187 2.48373 0
M  V30 2920 H 282.841 -0.802909 1.19538 0
M  V30 2921 H 284.794 -3.92064 1.54478 0
M  V30 2922 H 283.518 -3.22515 0.514961 0
M  V30 2923 H 282.177 -2.62334 2.56079 0
M  V30 2924 H 281.825 -4.82378 1.42548 0
M  V30 2925 H 281.525 -4.94278 3.17747 0
M  V30 2926 H 283.049 -5.57449 2.49165 0
M  V30 2927 H 284.463 -3.98873 4.11793 0
M  V30 2928 H 282.86 -3.59561 4.80454 0
M  V30 2929 H 283.93 -2.28404 4.27738 0
M  V30 2930 N 285.273 -1.31445 -0.869486 0
M  V30 2931 C 286.498 -1.24256 -1.66058 0
M  V30 2932 C 286.923 0.188928 -1.87149 0
M  V30 2933 O 286.281 1.13522 -1.4136 0
M  V30 2934 C 286.329 -1.9924 -3.00559 0
M  V30 2935 O 285.433 -1.33007 -3.90362 0
M  V30 2936 H 284.774 -0.428973 -0.506831 0
M  V30 2937 H 287.304 -1.73521 -1.08404 0
M  V30 2938 H 287.314 -2.08854 -3.50491 0
M  V30 2939 H 285.989 -3.03342 -2.84528 0
M  V30 2940 H 284.566 -1.31848 -3.48813 0
M  V30 2941 N 286.751 1.08385 -1.14413 0
M  V30 2942 C 287.999 1.80419 -0.910679 0
M  V30 2943 C 288.32 1.86658 0.564243 0
M  V30 2944 O 287.59 1.35985 1.41014 0
M  V30 2945 H 286.17 0.668204 -0.333934 0
M  V30 2946 H 288.832 1.31037 -1.44275 0
M  V30 2947 H 287.928 2.83238 -1.31082 0
M  V30 2948 N 288.23 0.939286 1.26551 0
M  V30 2949 C 289.507 0.5038 1.89001 0
M  V30 2950 C 289.887 -1.01854 1.84903 0
M  V30 2951 O 289.235 -1.87773 1.30206 0
M  V30 2952 C 289.445 1.063 3.32417 0
M  V30 2953 C 290.793 1.13051 4.09273 0
M  V30 2954 O 291.817 1.01345 3.41479 0
M  V30 2955 O 290.676 1.31233 5.30509 0
M  V30 2956 H 287.77 0.163897 0.810597 0
M  V30 2957 H 290.316 1.03173 1.34735 0
M  V30 2958 H 289.088 2.10665 3.29752 0
M  V30 2959 H 288.711 0.517408 3.94219 0
M  V30 2960 N 289.708 -1.40897 0.706093 0
M  V30 2961 C 290.954 -2.01849 0.250681 0
M  V30 2962 C 291.309 -1.5496 -1.14041 0
M  V30 2963 O 290.602 -0.755566 -1.76073 0
M  V30 2964 C 290.796 -3.5646 0.259099 0
M  V30 2965 C 290.625 -4.18357 1.64947 0
M  V30 2966 C 289.395 -4.522 2.25485 0
M  V30 2967 C 291.593 -4.43856 2.598 0
M  V30 2968 N 289.575 -4.9944 3.56977 0
M  V30 2969 C 290.946 -4.92986 3.75985 0
M  V30 2970 C 293.001 -4.25882 2.57933 0
M  V30 2971 C 291.704 -5.2603 4.90597 0
M  V30 2972 C 293.73 -4.6002 3.71665 0
M  V30 2973 C 293.092 -5.09331 4.86581 0
M  V30 2974 H 289.191 -0.769843 0.137353 0
M  V30 2975 H 291.775 -1.71278 0.925845 0
M  V30 2976 H 289.946 -3.86481 -0.385592 0
M  V30 2977 H 291.678 -4.04144 -0.21213 0
M  V30 2978 H 288.433 -4.3901 1.77671 0
M  V30 2979 H 288.857 -5.27454 4.24407 0
M  V30 2980 H 293.499 -3.86986 1.70298 0
M  V30 2981 H 291.217 -5.63843 5.78884 0
M  V30 2982 H 294.803 -4.47762 3.71484 0
M  V30 2983 H 293.683 -5.35251 5.73129 0
M  V30 2984 N 291.186 -0.45159 -1.50991 0
M  V30 2985 C 292.432 0.110237 -2.025 0
M  V30 2986 C 292.765 1.41109 -1.33424 0
M  V30 2987 O 292.04 1.89135 -0.453659 0
M  V30 2988 C 292.323 0.314271 -3.58726 0
M  V30 2989 C 292.176 -1.00623 -4.38401 0
M  V30 2990 C 293.495 1.07767 -4.26702 0
M  V30 2991 H 290.614 0.0385897 -0.735989 0
M  V30 2992 H 293.256 -0.593374 -1.80497 0
M  V30 2993 H 291.406 0.913601 -3.77605 0
M  V30 2994 H 293.078 -1.64064 -4.31139 0
M  V30 2995 H 291.321 -1.6075 -4.02917 0
M  V30 2996 H 291.992 -0.817341 -5.45915 0
M  V30 2997 H 294.468 0.56986 -4.12179 0
M  V30 2998 H 293.344 1.18921 -5.35863 0
M  V30 2999 H 293.605 2.10939 -3.88532 0
M  V30 3000 N 292.664 1.56529 -0.183458 0
M  V30 3001 C 293.594 2.21549 0.737456 0
M  V30 3002 C 294.575 1.17489 1.23005 0
M  V30 3003 O 295.76 1.45959 1.281 0
M  V30 3004 C 292.89 2.86575 1.96194 0
M  V30 3005 C 291.844 3.96778 1.60473 0
M  V30 3006 C 291.17 4.48911 2.90487 0
M  V30 3007 C 292.47 5.15767 0.823497 0
M  V30 3008 H 294.164 2.98761 0.195453 0
M  V30 3009 H 291.71 1.43702 0.0925686 0
M  V30 3010 H 293.663 3.30739 2.61131 0
M  V30 3011 H 292.387 2.06749 2.52828 0
M  V30 3012 H 291.046 3.53286 0.978997 0
M  V30 3013 H 290.694 3.65862 3.45186 0
M  V30 3014 H 290.394 5.23265 2.67335 0
M  V30 3015 H 291.918 4.95771 3.56432 0
M  V30 3016 H 293.332 5.56549 1.37571 0
M  V30 3017 H 291.729 5.96114 0.690551 0
M  V30 3018 H 292.799 4.84574 -0.177782 0
M  V30 3019 N 294.142 -0.090211 1.57342 0
M  V30 3020 C 295.37 -0.806224 1.90546 0
M  V30 3021 C 295.785 -1.72041 0.777644 0
M  V30 3022 O 295.142 -1.80778 -0.250103 0
M  V30 3023 C 295.193 -1.61546 3.23396 0
M  V30 3024 O 294.914 -0.738043 4.31839 0
M  V30 3025 C 296.415 -2.4341 3.70495 0
M  V30 3026 H 293.635 -0.230256 0.630257 0
M  V30 3027 H 296.179 -0.0659843 2.04394 0
M  V30 3028 H 294.334 -2.30816 3.11131 0
M  V30 3029 H 294.748 -1.29901 5.08159 0
M  V30 3030 H 296.222 -2.95676 4.66133 0
M  V30 3031 H 296.699 -3.22098 2.98579 0
M  V30 3032 H 297.305 -1.79331 3.85643 0
M  V30 3033 N 295.62 -1.53406 -0.361157 0
M  V30 3034 C 296.583 -1.79479 -1.42548 0
M  V30 3035 C 297.583 -0.665327 -1.4639 0
M  V30 3036 O 298.773 -0.933549 -1.47073 0
M  V30 3037 C 295.905 -1.92087 -2.8163 0
M  V30 3038 H 297.098 -2.74538 -1.20701 0
M  V30 3039 H 294.651 -1.4455 -0.594546 0
M  V30 3040 H 295.386 -0.991099 -3.08784 0
M  V30 3041 H 295.171 -2.74241 -2.80239 0
M  V30 3042 H 296.661 -2.13836 -3.58697 0
M  V30 3043 N 297.098 0.621204 -1.44841 0
M  V30 3044 C 298.061 1.71459 -1.521 0
M  V30 3045 C 299.061 1.55696 -0.401933 0
M  V30 3046 O 300.251 1.61011 -0.664925 0
M  V30 3047 C 297.383 3.10624 -1.40447 0
M  V30 3048 H 298.576 1.66394 -2.49506 0
M  V30 3049 H 296.129 0.835745 -1.3208 0
M  V30 3050 H 296.864 3.21277 -0.441737 0
M  V30 3051 H 296.649 3.23473 -2.21602 0
M  V30 3052 H 298.139 3.90293 -1.4853 0
M  V30 3053 N 298.576 1.31904 0.862503 0
M  V30 3054 C 299.526 1.16772 1.95827 0
M  V30 3055 C 300.51 0.0767098 1.60717 0
M  V30 3056 O 301.702 0.302407 1.74398 0
M  V30 3057 C 298.831 0.884858 3.317 0
M  V30 3058 C 297.917 2.0172 3.73055 0
M  V30 3059 N 298.308 3.265 3.86305 0
M  V30 3060 C 296.606 1.91861 4.02623 0
M  V30 3061 C 297.307 4.00616 4.2176 0
M  V30 3062 N 296.283 3.28847 4.32852 0
M  V30 3063 H 300.085 2.11382 2.04193 0
M  V30 3064 H 297.599 1.2357 1.05377 0
M  V30 3065 H 299.596 0.757419 4.09962 0
M  V30 3066 H 298.256 -0.0529448 3.24657 0
M  V30 3067 H 299.267 3.61529 3.70833 0
M  V30 3068 H 295.944 1.05593 4.03926 0
M  V30 3069 H 297.334 5.08182 4.39546 0
M  V30 3070 N 300.054 -1.07777 1.14986 0
M  V30 3071 C 301.294 -1.81888 0.932527 0
M  V30 3072 C 301.658 -1.84509 -0.531064 0
M  V30 3073 O 302.859 -2.54448 -0.866577 0
M  V30 3074 C 301.13 -3.23244 1.52473 0
M  V30 3075 S 302.689 -4.14154 1.44989 0
M  V30 3076 H 299.507 -0.626752 0.335712 0
M  V30 3077 H 302.109 -1.29503 1.46455 0
M  V30 3078 H 300.813 -3.18922 2.58296 0
M  V30 3079 H 300.344 -3.80704 0.991381 0
M  V30 3080 H 302.359 -4.94247 0.439799 0
M  V30 3081 N 301.532 -0.945985 -1.26051 0
M  V30 3082 C 302.779 -0.596118 -1.93527 0
M  V30 3083 C 303.107 0.865559 -1.74179 0
M  V30 3084 O 302.362 1.63524 -1.0751 0
M  V30 3085 C 302.661 -0.890475 -3.46129 0
M  V30 3086 C 302.327 -2.3368 -3.85622 0
M  V30 3087 C 300.989 -2.73216 -3.96114 0
M  V30 3088 C 303.341 -3.27648 -4.05334 0
M  V30 3089 C 300.669 -4.05806 -4.2372 0
M  V30 3090 C 303.021 -4.59841 -4.3443 0
M  V30 3091 C 301.685 -4.99185 -4.43137 0
M  V30 3092 H 300.955 -0.218135 -0.708165 0
M  V30 3093 H 303.602 -1.1934 -1.49768 0
M  V30 3094 H 301.907 -0.210711 -3.91233 0
M  V30 3095 H 303.604 -0.598478 -3.96509 0
M  V30 3096 H 300.194 -2.02015 -3.78005 0
M  V30 3097 H 304.378 -2.98298 -3.96651 0
M  V30 3098 H 299.634 -4.35945 -4.28675 0
M  V30 3099 H 303.808 -5.32641 -4.48628 0
M  V30 3100 H 301.435 -6.01952 -4.64282 0
M  V30 3101 N 303.011 1.40521 -0.713556 0
M  V30 3102 C 304.422 1.83853 -0.324807 0
M  V30 3103 C 304.773 1.59667 1.14021 0
M  V30 3104 O 303.898 1.07649 1.87725 0
M  V30 3105 C 304.493 3.33751 -0.582746 0
M  V30 3106 C 303.052 3.75584 -0.247727 0
M  V30 3107 C 302.199 2.63753 -0.856121 0
M  V30 3108 H 305.15 1.29817 -0.91286 0
M  V30 3109 H 305.171 3.80194 0.152682 0
M  V30 3110 H 304.683 3.51322 -1.64908 0
M  V30 3111 H 302.784 3.63608 0.813624 0
M  V30 3112 H 302.897 4.7373 -0.715307 0
M  V30 3113 H 301.261 2.53108 -0.28432 0
M  V30 3114 H 302.044 2.84137 -1.92668 0
M  V30 3115 N 304.489 0.459591 1.5075 0
M  V30 3116 C 305.399 -0.34613 2.32033 0
M  V30 3117 C 306.415 -1.00686 1.41909 0
M  V30 3118 O 307.591 -0.997361 1.7497 0
M  V30 3119 C 304.656 -1.42029 3.16273 0
M  V30 3120 C 303.717 -0.777362 4.22203 0
M  V30 3121 C 302.95 -1.80034 5.02418 0
M  V30 3122 O 303.173 -3.02544 4.83553 0
M  V30 3123 O 302.107 -1.37853 5.85901 0
M  V30 3124 H 305.933 0.318054 3.0203 0
M  V30 3125 H 303.518 0.221663 1.47746 0
M  V30 3126 H 305.4 -2.04275 3.68578 0
M  V30 3127 H 304.075 -2.06815 2.49016 0
M  V30 3128 H 302.982 -0.116256 3.73919 0
M  V30 3129 H 304.315 -0.172634 4.91897 0
M  V30 3130 N 305.967 -1.56429 0.191757 0
M  V30 3131 C 307.383 -1.58754 -0.164137 0
M  V30 3132 C 307.583 -1.20782 -1.61288 0
M  V30 3133 O 306.639 -0.928999 -2.34789 0
M  V30 3134 C 307.952 -3.00396 0.135195 0
M  V30 3135 C 309.5 -3.1291 0.0750351 0
M  V30 3136 C 309.975 -4.56679 0.347632 0
M  V30 3137 N 311.466 -4.62252 0.296131 0
M  V30 3138 C 312.201 -5.71379 0.480948 0
M  V30 3139 N 311.697 -6.88986 0.725933 0
M  V30 3140 N 313.49 -5.60563 0.415435 0
M  V30 3141 H 305.641 -1.79393 1.13718 0
M  V30 3142 H 307.904 -0.832414 0.453643 0
M  V30 3143 H 307.61 -3.32726 1.13958 0
M  V30 3144 H 307.484 -3.72963 -0.563773 0
M  V30 3145 H 309.871 -2.80394 -0.919948 0
M  V30 3146 H 309.952 -2.42736 0.807029 0
M  V30 3147 H 309.596 -4.89907 1.33992 0
M  V30 3148 H 309.526 -5.25039 -0.405212 0
M  V30 3149 H 312.017 -3.7773 0.113259 0
M  V30 3150 H 312.33 -7.68046 0.855857 0
M  V30 3151 H 310.675 -6.90801 0.762788 0
M  V30 3152 H 313.866 -4.67561 0.224486 0
M  V30 3153 H 314.039 -6.45551 0.562889 0
M  V30 3154 N 307.445 0.0818655 -1.57387 0
M  V30 3155 C 308.393 1.11712 -2.04018 0
M  V30 3156 C 309.387 1.40683 -0.94364 0
M  V30 3157 O 310.593 1.40209 -1.12878 0
M  V30 3158 H 306.968 0.377542 -0.650358 0
M  V30 3159 H 308.939 0.697614 -2.90131 0
M  V30 3160 C 307.688 2.42537 -2.49141 0
M  V30 3161 H 307.011 2.21092 -3.33104 0
M  V30 3162 H 308.451 3.13446 -2.85531 0
M  V30 3163 C 306.91 3.0778 -1.37014 0
M  V30 3164 O 307.44 3.95436 -0.706621 0
M  V30 3165 N 305.646 2.68242 -1.11779 0
M  V30 3166 H 305.193 1.97052 -1.65917 0
M  V30 3167 H 305.151 3.1222 -0.369594 0
M  V30 3168 N 308.923 1.53595 0.353017 0
M  V30 3169 C 310.339 1.43648 0.695516 0
M  V30 3170 C 310.539 0.585617 1.92802 0
M  V30 3171 O 309.595 0.0729223 2.52395 0
M  V30 3172 C 310.908 2.8701 0.896991 0
M  V30 3173 C 312.456 2.96723 0.996209 0
M  V30 3174 C 312.931 4.41173 1.23007 0
M  V30 3175 N 314.422 4.44657 1.29749 0
M  V30 3176 C 315.157 5.53547 1.49577 0
M  V30 3177 N 314.653 6.72461 1.66639 0
M  V30 3178 N 316.446 5.41145 1.52048 0
M  V30 3179 H 308.597 2.07415 -0.457481 0
M  V30 3180 H 310.86 0.9372 -0.142687 0
M  V30 3181 H 310.566 3.51644 0.0629938 0
M  V30 3182 H 310.44 3.31401 1.80148 0
M  V30 3183 H 312.827 2.32235 1.82074 0
M  V30 3184 H 312.908 2.55707 0.0688331 0
M  V30 3185 H 312.552 5.06238 0.410505 0
M  V30 3186 H 312.482 4.79772 2.17086 0
M  V30 3187 H 314.973 3.58963 1.18126 0
M  V30 3188 H 315.286 7.51214 1.81378 0
M  V30 3189 H 313.631 6.75423 1.63794 0
M  V30 3190 H 316.822 4.47205 1.38294 0
M  V30 3191 H 316.995 6.26068 1.67159 0
M  V30 3192 N 310.401 -0.613514 1.45168 0
M  V30 3193 C 311.647 -1.37471 1.49096 0
M  V30 3194 C 311.98 -1.93765 0.129901 0
M  V30 3195 O 311.255 -1.74707 -0.854858 0
M  V30 3196 C 311.538 -2.52701 2.56542 0
M  V30 3197 C 311.391 -2.01643 4.0207 0
M  V30 3198 C 312.71 -3.54849 2.60327 0
M  V30 3199 H 309.829 -0.498502 0.54283 0
M  V30 3200 H 312.471 -0.692125 1.76945 0
M  V30 3201 H 310.621 -3.10931 2.32926 0
M  V30 3202 H 312.293 -1.48108 4.36877 0
M  V30 3203 H 310.536 -1.32688 4.13009 0
M  V30 3204 H 311.207 -2.84681 4.72928 0
M  V30 3205 H 313.683 -3.0645 2.81474 0
M  V30 3206 H 312.559 -4.32973 3.37381 0
M  V30 3207 H 312.82 -4.10079 1.6519 0
M  V30 3208 N 311.879 -1.3236 -0.855495 0
M  V30 3209 C 312.809 -1.23833 -1.97958 0
M  V30 3210 C 313.79 -0.122361 -1.69659 0
M  V30 3211 O 314.975 -0.30939 -1.9172 0
M  V30 3212 C 312.105 -0.959772 -3.33775 0
M  V30 3213 C 311.059 -2.03689 -3.76424 0
M  V30 3214 C 310.385 -1.61075 -5.09862 0
M  V30 3215 C 311.685 -3.4518 -3.9198 0
M  V30 3216 H 313.379 -2.1788 -2.0535 0
M  V30 3217 H 310.925 -1.04891 -0.986605 0
M  V30 3218 H 312.878 -0.886678 -4.11966 0
M  V30 3219 H 311.602 0.0163404 -3.26596 0
M  V30 3220 H 310.261 -2.10012 -3.00484 0
M  V30 3221 H 309.909 -0.622107 -4.99138 0
M  V30 3222 H 309.609 -2.33143 -5.39368 0
M  V30 3223 H 311.133 -1.55201 -5.90546 0
M  V30 3224 H 312.547 -3.4145 -4.60526 0
M  V30 3225 H 310.944 -4.1559 -4.32903 0
M  V30 3226 H 312.014 -3.84903 -2.94919 0
M  V30 3227 N 313.357 1.07166 -1.15556 0
M  V30 3228 C 314.582 1.84053 -0.955988 0
M  V30 3229 C 315.007 1.81586 0.490739 0
M  V30 3230 O 314.365 1.21018 1.34997 0
M  V30 3231 C 314.413 3.28957 -1.47714 0
M  V30 3232 O 313.517 4.06795 -0.677593 0
M  V30 3233 H 312.858 0.569842 -0.340847 0
M  V30 3234 H 315.388 1.35178 -1.53584 0
M  V30 3235 H 315.398 3.79788 -1.4908 0
M  V30 3236 H 314.073 3.30068 -2.53037 0
M  V30 3237 H 312.65 3.6561 -0.733721 0
M  V30 3238 N 314.835 0.952656 1.25548 0
M  V30 3239 C 316.251 0.656769 1.4546 0
M  V30 3240 C 316.451 -0.78633 1.85524 0
M  V30 3241 O 315.507 -1.56183 1.98402 0
M  V30 3242 C 316.82 1.62801 2.52817 0
M  V30 3243 C 318.368 1.63897 2.66659 0
M  V30 3244 C 318.843 2.5978 3.77198 0
M  V30 3245 N 320.334 2.58133 3.84606 0
M  V30 3246 C 321.069 3.29003 4.69621 0
M  V30 3247 N 320.565 4.09339 5.58939 0
M  V30 3248 N 322.358 3.179 4.63569 0
M  V30 3249 H 314.509 1.88526 0.978344 0
M  V30 3250 H 316.772 0.810815 0.491206 0
M  V30 3251 H 316.478 2.65869 2.30232 0
M  V30 3252 H 316.352 1.38898 3.50695 0
M  V30 3253 H 318.739 0.615481 2.8861 0
M  V30 3254 H 318.82 1.91858 1.69187 0
M  V30 3255 H 318.464 3.62254 3.55997 0
M  V30 3256 H 318.394 2.29105 4.7415 0
M  V30 3257 H 320.885 1.99809 3.20757 0
M  V30 3258 H 321.198 4.6034 6.20731 0
M  V30 3259 H 319.543 4.13438 5.58654 0
M  V30 3260 H 322.734 2.54612 3.92798 0
M  V30 3261 H 322.907 3.73398 5.29602 0
M  V30 3262 N 316.313 -1.40141 0.720998 0
M  V30 3263 C 317.559 -2.01572 0.272075 0
M  V30 3264 C 317.914 -1.5616 -1.12391 0
M  V30 3265 O 317.207 -0.774198 -1.75262 0
M  V30 3266 C 317.401 -3.56165 0.296892 0
M  V30 3267 C 317.23 -4.16584 1.69375 0
M  V30 3268 C 316 -4.49783 2.30269 0
M  V30 3269 C 318.198 -4.41076 2.64493 0
M  V30 3270 N 316.18 -4.95626 3.62254 0
M  V30 3271 C 317.551 -4.88971 3.81192 0
M  V30 3272 C 319.606 -4.23122 2.62435 0
M  V30 3273 C 318.309 -5.20796 4.96149 0
M  V30 3274 C 320.335 -4.56052 3.76524 0
M  V30 3275 C 319.697 -5.04141 4.91956 0
M  V30 3276 H 315.796 -0.768343 0.145511 0
M  V30 3277 H 318.38 -1.70287 0.943959 0
M  V30 3278 H 316.551 -3.86868 -0.344578 0
M  V30 3279 H 318.283 -4.04346 -0.169254 0
M  V30 3280 H 315.038 -4.37101 1.82318 0
M  V30 3281 H 315.462 -5.22923 4.29977 0
M  V30 3282 H 320.104 -3.85158 1.74393 0
M  V30 3283 H 317.822 -5.57672 5.84831 0
M  V30 3284 H 321.408 -4.43796 3.76213 0
M  V30 3285 H 320.288 -5.29142 5.78774 0
M  V30 3286 N 317.792 -0.46758 -1.50504 0
M  V30 3287 C 319.208 -0.121533 -1.59137 0
M  V30 3288 C 319.408 1.3717 -1.47603 0
M  V30 3289 O 318.464 2.14464 -1.33272 0
M  V30 3290 C 319.777 -0.6686 -2.93173 0
M  V30 3291 C 321.325 -0.631716 -3.06559 0
M  V30 3292 C 321.8 -1.15627 -4.43164 0
M  V30 3293 N 323.291 -1.11553 -4.49567 0
M  V30 3294 C 324.026 -1.49195 -5.5365 0
M  V30 3295 N 323.522 -1.94269 -6.65005 0
M  V30 3296 N 325.315 -1.4082 -5.44175 0
M  V30 3297 H 317.466 -1.4388 -1.56245 0
M  V30 3298 H 319.729 -0.594784 -0.738198 0
M  V30 3299 H 319.435 -1.71453 -3.07078 0
M  V30 3300 H 319.309 -0.11021 -3.77039 0
M  V30 3301 H 321.696 0.405297 -2.92304 0
M  V30 3302 H 321.777 -1.22687 -2.24458 0
M  V30 3303 H 321.421 -2.1919 -4.58168 0
M  V30 3304 H 321.351 -0.537365 -5.23851 0
M  V30 3305 H 323.842 -0.784895 -3.69659 0
M  V30 3306 H 324.155 -2.21148 -7.40482 0
M  V30 3307 H 322.5 -1.98219 -6.66134 0
M  V30 3308 H 325.691 -1.0545 -4.56068 0
M  V30 3309 H 325.864 -1.70481 -6.25172 0
M  V30 3310 N 319.27 1.56325 -0.20005 0
M  V30 3311 C 320.516 1.98012 0.438059 0
M  V30 3312 C 320.849 1.08702 1.60927 0
M  V30 3313 O 320.124 0.140064 1.93995 0
M  V30 3314 C 320.407 3.48841 0.893419 0
M  V30 3315 C 320.26 4.48928 -0.279947 0
M  V30 3316 C 321.579 4.03498 1.75719 0
M  V30 3317 H 318.698 0.719918 0.157757 0
M  V30 3318 H 321.34 1.87743 -0.291968 0
M  V30 3319 H 319.49 3.57723 1.51547 0
M  V30 3320 H 321.162 4.52079 -0.91772 0
M  V30 3321 H 319.405 4.23694 -0.930919 0
M  V30 3322 H 320.076 5.5194 0.0812601 0
M  V30 3323 H 322.552 3.97427 1.23253 0
M  V30 3324 H 321.428 5.09393 2.04476 0
M  V30 3325 H 321.689 3.4906 2.71311 0
M  V30 3326 N 320.748 -0.0735177 1.57428 0
M  V30 3327 C 321.995 -0.772999 1.87166 0
M  V30 3328 C 322.323 -1.77665 0.791551 0
M  V30 3329 O 321.578 -1.94541 -0.212636 0
M  V30 3330 C 321.877 -1.51799 3.23561 0
M  V30 3331 C 321.543 -0.654484 4.46125 0
M  V30 3332 C 320.205 -0.416511 4.79394 0
M  V30 3333 C 322.557 -0.0555862 5.2117 0
M  V30 3334 C 319.885 0.429869 5.85123 0
M  V30 3335 C 322.237 0.778239 6.27795 0
M  V30 3336 C 320.901 1.0261 6.59566 0
M  V30 3337 H 320.171 -0.282861 0.684888 0
M  V30 3338 H 322.818 -0.0338272 1.9147 0
M  V30 3339 H 321.123 -2.32932 3.1504 0
M  V30 3340 H 322.82 -2.06397 3.43804 0
M  V30 3341 H 319.41 -0.850091 4.20085 0
M  V30 3342 H 323.594 -0.226558 4.95783 0
M  V30 3343 H 318.85 0.630665 6.08139 0
M  V30 3344 H 323.024 1.24906 6.85107 0
M  V30 3345 H 320.651 1.68371 7.4132 0
M  V30 3346 N 322.226 -1.5378 -0.344866 0
M  V30 3347 C 323.189 -1.80981 -1.40637 0
M  V30 3348 C 324.189 -0.680816 -1.45676 0
M  V30 3349 O 325.379 -0.949095 -1.46075 0
M  V30 3350 C 322.511 -1.95063 -2.79577 0
M  V30 3351 H 323.704 -2.75803 -1.17783 0
M  V30 3352 H 321.257 -1.45173 -0.579181 0
M  V30 3353 H 321.992 -1.02379 -3.07716 0
M  V30 3354 H 321.777 -2.77198 -2.77315 0
M  V30 3355 H 323.267 -2.17629 -3.56409 0
M  V30 3356 N 323.704 0.605807 -1.45491 0
M  V30 3357 C 324.952 1.36207 -1.49305 0
M  V30 3358 C 325.273 1.94519 -0.136863 0
M  V30 3359 O 324.543 1.77261 0.833983 0
M  V30 3360 H 323.123 0.50565 -0.549843 0
M  V30 3361 H 325.785 0.711239 -1.81459 0
M  V30 3362 H 324.881 2.18058 -2.23287 0
M  V30 3363 N 325.182 1.32811 0.848464 0
M  V30 3364 C 326.145 1.22194 1.9391 0
M  V30 3365 C 327.145 0.143404 1.60159 0
M  V30 3366 O 328.335 0.394253 1.6968 0
M  V30 3367 C 325.467 0.88067 3.29328 0
M  V30 3368 H 326.66 2.19127 2.04752 0
M  V30 3369 H 324.213 1.16731 1.0394 0
M  V30 3370 H 324.948 -0.0865776 3.24184 0
M  V30 3371 H 324.733 1.66052 3.55203 0
M  V30 3372 H 326.223 0.830871 4.09251 0
M  V30 3373 N 326.66 -1.06551 1.16123 0
M  V30 3374 C 327.906 -1.79567 0.94252 0
M  V30 3375 C 328.239 -1.86869 -0.528547 0
M  V30 3376 O 327.514 -1.35838 -1.39206 0
M  V30 3377 C 327.797 -3.24195 1.56747 0
M  V30 3378 C 327.65 -3.24989 3.10969 0
M  V30 3379 C 328.969 -4.21678 1.25998 0
M  V30 3380 H 326.088 -0.651883 0.343828 0
M  V30 3381 H 328.73 -1.2463 1.43413 0
M  V30 3382 H 326.88 -3.71107 1.14942 0
M  V30 3383 H 328.552 -2.86258 3.61737 0
M  V30 3384 H 326.795 -2.63716 3.44436 0
M  V30 3385 H 327.466 -4.27005 3.49815 0
M  V30 3386 H 329.942 -3.83196 1.62174 0
M  V30 3387 H 328.818 -5.21146 1.7233 0
M  V30 3388 H 329.079 -4.4174 0.178367 0
M  V30 3389 N 328.138 -0.959301 -1.25041 0
M  V30 3390 C 329.101 -0.487677 -2.23952 0
M  V30 3391 C 330.101 0.41119 -1.55454 0
M  V30 3392 O 331.291 0.207825 -1.72956 0
M  V30 3393 C 328.423 0.294807 -3.39623 0
M  V30 3394 H 329.616 -1.36198 -2.67189 0
M  V30 3395 H 327.169 -0.743042 -1.37508 0
M  V30 3396 H 327.904 1.18658 -3.01813 0
M  V30 3397 H 327.689 -0.35012 -3.90534 0
M  V30 3398 H 329.179 0.614089 -4.1306 0
M  V30 3399 N 329.616 1.39756 -0.72842 0
M  V30 3400 C 330.548 2.29157 -0.0446202 0
M  V30 3401 C 331.561 1.46484 0.710367 0
M  V30 3402 O 332.75 1.69632 0.55562 0
M  V30 3403 C 329.85 3.24987 0.961071 0
M  V30 3404 C 329.023 4.36572 0.268967 0
M  V30 3405 C 328.082 5.12756 1.18184 0
M  V30 3406 O 327.108 5.6534 0.661794 0
M  V30 3407 N 328.31 5.23331 2.51206 0
M  V30 3408 H 331.075 2.88482 -0.812295 0
M  V30 3409 H 328.636 1.51265 -0.577098 0
M  V30 3410 H 330.628 3.72827 1.57423 0
M  V30 3411 H 329.198 2.66739 1.63 0
M  V30 3412 H 328.418 3.90694 -0.524574 0
M  V30 3413 H 329.706 5.08363 -0.210934 0
M  V30 3414 H 329.104 4.82116 2.9594 0
M  V30 3415 H 327.661 5.74634 3.07634 0
M  V30 3416 N 331.094 0.475555 1.50254 0
M  V30 3417 C 332.057 -0.305016 2.27161 0
M  V30 3418 C 333.057 -0.916519 1.32123 0
M  V30 3419 O 334.247 -0.785003 1.5551 0
M  V30 3420 C 331.379 -1.43496 3.09227 0
M  V30 3421 H 332.572 0.369511 2.97615 0
M  V30 3422 H 330.125 0.229747 1.54602 0
M  V30 3423 H 330.86 -2.14441 2.43281 0
M  V30 3424 H 330.645 -1.00223 3.79075 0
M  V30 3425 H 332.135 -1.98548 3.67381 0
M  V30 3426 N 332.573 -1.56217 0.208337 0
M  V30 3427 C 333.798 -2.02782 -0.435222 0
M  V30 3428 C 334.223 -1.08738 -1.53485 0
M  V30 3429 O 333.581 -0.0731855 -1.81152 0
M  V30 3430 C 333.629 -3.47687 -0.956335 0
M  V30 3431 O 332.733 -3.56773 -2.06849 0
M  V30 3432 H 332.074 -0.656403 -0.100158 0
M  V30 3433 H 334.604 -2.02033 0.3231 0
M  V30 3434 H 334.614 -3.87745 -1.26955 0
M  V30 3435 H 333.289 -4.15624 -0.15143 0
M  V30 3436 H 331.866 -3.28597 -1.76292 0
M  V30 3437 N 334.051 0.0651679 -1.57465 0
M  V30 3438 C 335.462 0.616213 -1.76238 0
M  V30 3439 C 335.813 1.7756 -0.834689 0
M  V30 3440 O 334.938 2.1639 -0.0204156 0
M  V30 3441 C 335.533 1.12462 -3.1959 0
M  V30 3442 C 334.092 1.62147 -3.39684 0
M  V30 3443 C 333.239 0.543739 -2.71917 0
M  V30 3444 H 336.19 -0.161022 -1.57881 0
M  V30 3445 H 336.211 1.99324 -3.24114 0
M  V30 3446 H 335.723 0.280592 -3.87084 0
M  V30 3447 H 333.824 2.48854 -2.77313 0
M  V30 3448 H 333.937 1.69385 -4.48158 0
M  V30 3449 H 332.301 0.990352 -2.34657 0
M  V30 3450 H 333.084 -0.290216 -3.42071 0
M  V30 3451 N 335.529 1.53961 0.336706 0
M  V30 3452 C 336.479 1.7881 1.41461 0
M  V30 3453 C 337.463 0.643561 1.47469 0
M  V30 3454 O 338.655 0.903166 1.52223 0
M  V30 3455 C 335.784 2.00722 2.78506 0
M  V30 3456 C 334.87 3.2126 2.76862 0
M  V30 3457 N 335.261 4.42588 2.44845 0
M  V30 3458 C 333.559 3.22568 3.08004 0
M  V30 3459 C 334.26 5.2447 2.51607 0
M  V30 3460 N 333.236 4.61344 2.87511 0
M  V30 3461 H 337.038 2.70205 1.15615 0
M  V30 3462 H 334.552 1.52978 0.545112 0
M  V30 3463 H 336.549 2.1666 3.5618 0
M  V30 3464 H 335.209 1.10573 3.05293 0
M  V30 3465 H 336.22 4.69819 2.17922 0
M  V30 3466 H 332.897 2.42409 3.39918 0
M  V30 3467 H 334.287 6.31324 2.29955 0
M  V30 3468 N 337.007 -0.598083 1.45811 0
M  V30 3469 C 338.255 -1.35413 1.50026 0
M  V30 3470 C 338.576 -1.94444 0.147177 0
M  V30 3471 O 337.846 -1.77701 -0.824571 0
M  V30 3472 H 336.426 -0.502727 0.552517 0
M  V30 3473 H 339.088 -0.701606 1.81834 0
M  V30 3474 H 338.184 -2.16871 2.2444 0
M  V30 3475 N 338.485 -1.33259 -0.841409 0
M  V30 3476 C 339.415 -1.25926 -1.96634 0
M  V30 3477 C 340.396 -0.140349 -1.6952 0
M  V30 3478 O 341.581 -0.329707 -1.91381 0
M  V30 3479 C 338.711 -0.99512 -3.32738 0
M  V30 3480 C 337.665 -2.0767 -3.74242 0
M  V30 3481 C 336.991 -1.66474 -5.08125 0
M  V30 3482 C 338.291 -3.49318 -3.88297 0
M  V30 3483 H 339.985 -2.20046 -2.03027 0
M  V30 3484 H 337.531 -1.05931 -0.975425 0
M  V30 3485 H 339.484 -0.930323 -4.11002 0
M  V30 3486 H 338.208 -0.0183004 -3.26595 0
M  V30 3487 H 336.867 -2.13187 -2.98239 0
M  V30 3488 H 336.515 -0.675012 -4.9845 0
M  V30 3489 H 336.215 -2.3885 -5.36865 0
M  V30 3490 H 337.739 -1.61455 -5.88867 0
M  V30 3491 H 339.153 -3.46316 -4.56879 0
M  V30 3492 H 337.55 -4.20158 -4.28471 0
M  V30 3493 H 338.62 -3.8801 -2.9082 0
M  V30 3494 N 339.963 1.05934 -1.16686 0
M  V30 3495 C 340.895 2.13468 -0.834503 0
M  V30 3496 C 341.908 1.62013 0.15984 0
M  V30 3497 O 343.097 1.7838 -0.0654228 0
M  V30 3498 C 340.197 3.3817 -0.222361 0
M  V30 3499 C 339.37 4.18928 -1.25771 0
M  V30 3500 C 338.429 5.21985 -0.664703 0
M  V30 3501 O 337.455 5.53334 -1.33453 0
M  V30 3502 N 338.657 5.77919 0.546834 0
M  V30 3503 H 341.422 2.42578 -1.75999 0
M  V30 3504 H 338.983 1.21967 -1.06469 0
M  V30 3505 H 340.975 4.04266 0.187472 0
M  V30 3506 H 339.545 3.06655 0.606758 0
M  V30 3507 H 338.765 3.48433 -1.84358 0
M  V30 3508 H 340.053 4.69687 -1.95631 0
M  V30 3509 H 339.451 5.54721 1.10912 0
M  V30 3510 H 338.008 6.45573 0.898829 0
M  V30 3511 N 341.441 0.965919 1.2453 0
M  V30 3512 C 342.371 0.513476 2.27784 0
M  V30 3513 C 343.352 -0.445974 1.6415 0
M  V30 3514 O 344.537 -0.342485 1.91156 0
M  V30 3515 C 341.667 -0.198839 3.4673 0
M  V30 3516 C 340.621 0.676456 4.2262 0
M  V30 3517 C 339.947 -0.167248 5.34438 0
M  V30 3518 C 341.247 1.96017 4.84123 0
M  V30 3519 H 342.941 1.3765 2.65881 0
M  V30 3520 H 340.487 0.663321 1.27813 0
M  V30 3521 H 342.44 -0.526567 4.18097 0
M  V30 3522 H 341.164 -1.0962 3.07654 0
M  V30 3523 H 339.823 0.98743 3.53052 0
M  V30 3524 H 339.471 -1.0647 4.91603 0
M  V30 3525 H 339.171 0.415181 5.86131 0
M  V30 3526 H 340.695 -0.489688 6.08633 0
M  V30 3527 H 342.109 1.69814 5.47573 0
M  V30 3528 H 340.506 2.48918 5.4604 0
M  V30 3529 H 341.576 2.65622 4.05676 0
M  V30 3530 N 342.919 -1.39368 0.735821 0
M  V30 3531 C 344.167 -2.00101 0.283562 0
M  V30 3532 C 344.488 -1.5868 -1.13338 0
M  V30 3533 O 343.758 -0.835423 -1.77193 0
M  V30 3534 H 342.338 -0.740024 0.101851 0
M  V30 3535 H 345 -1.70404 0.945962 0
M  V30 3536 H 344.096 -3.10323 0.332604 0
M  V30 3537 N 344.397 -0.483516 -1.5 0
M  V30 3538 C 345.643 0.0672592 -2.02688 0
M  V30 3539 C 345.976 1.38247 -1.36387 0
M  V30 3540 O 345.251 1.88131 -0.493675 0
M  V30 3541 C 345.534 0.238109 -3.59312 0
M  V30 3542 C 345.387 -1.099 -4.36168 0
M  V30 3543 C 346.706 0.986916 -4.28892 0
M  V30 3544 H 343.825 0.0229696 -0.736642 0
M  V30 3545 H 346.467 -0.631527 -1.79197 0
M  V30 3546 H 344.617 0.8333 -3.79458 0
M  V30 3547 H 346.289 -1.73172 -4.27562 0
M  V30 3548 H 344.532 -1.69261 -3.99416 0
M  V30 3549 H 345.203 -0.932954 -5.44059 0
M  V30 3550 H 347.679 0.482302 -4.13295 0
M  V30 3551 H 346.555 1.07527 -5.38265 0
M  V30 3552 H 346.816 2.0265 -3.92919 0
M  V30 3553 N 345.875 1.56104 -0.216619 0
M  V30 3554 C 346.807 2.17339 0.72776 0
M  V30 3555 C 347.82 1.14109 1.16116 0
M  V30 3556 O 349.009 1.4111 1.09317 0
M  V30 3557 C 346.109 2.73818 1.99693 0
M  V30 3558 C 345.282 4.02168 1.71988 0
M  V30 3559 C 344.341 4.43259 2.83562 0
M  V30 3560 O 343.367 5.10257 2.52244 0
M  V30 3561 N 344.569 4.08535 4.12407 0
M  V30 3562 H 347.334 2.99005 0.203983 0
M  V30 3563 H 344.895 1.61861 -0.0354289 0
M  V30 3564 H 346.887 2.9828 2.73516 0
M  V30 3565 H 345.457 1.96483 2.43132 0
M  V30 3566 H 344.677 3.85612 0.818337 0
M  V30 3567 H 345.965 4.85907 1.50903 0
M  V30 3568 H 345.363 3.54687 4.40696 0
M  V30 3569 H 343.92 4.37901 4.8279 0
M  V30 3570 N 347.353 -0.0568162 1.57498 0
M  V30 3571 C 348.316 -1.05038 2.03715 0
M  V30 3572 C 349.316 -1.30709 0.936577 0
M  V30 3573 O 350.506 -1.26178 1.20103 0
M  V30 3574 C 347.638 -2.39034 2.43055 0
M  V30 3575 H 348.831 -0.651715 2.92733 0
M  V30 3576 H 346.384 -0.302947 1.53336 0
M  V30 3577 H 347.119 -2.83703 1.57108 0
M  V30 3578 H 346.904 -2.21739 3.2338 0
M  V30 3579 H 348.394 -3.10421 2.79336 0
M  V30 3580 N 348.832 -1.54138 -0.328536 0
M  V30 3581 C 350.078 -1.7236 -1.06865 0
M  V30 3582 C 350.411 -0.493231 -1.87832 0
M  V30 3583 O 349.686 0.5098 -1.877 0
M  V30 3584 C 349.969 -2.99621 -1.99747 0
M  V30 3585 C 349.822 -4.32899 -1.22143 0
M  V30 3586 C 351.141 -3.22615 -2.99345 0
M  V30 3587 H 348.26 -0.627151 -0.387105 0
M  V30 3588 H 350.902 -1.86827 -0.345767 0
M  V30 3589 H 349.052 -2.87418 -2.61387 0
M  V30 3590 H 350.724 -4.56978 -0.630017 0
M  V30 3591 H 348.967 -4.30628 -0.523628 0
M  V30 3592 H 349.638 -5.18154 -1.90318 0
M  V30 3593 H 352.114 -3.34248 -2.47826 0
M  V30 3594 H 350.99 -4.13027 -3.61524 0
M  V30 3595 H 351.251 -2.3961 -3.71536 0
M  V30 3596 N 350.31 0.590341 -1.46126 0
M  V30 3597 C 351.556 1.35082 -1.51264 0
M  V30 3598 C 351.889 1.93534 -0.160711 0
M  V30 3599 O 351.164 1.76045 0.826956 0
M  V30 3600 C 351.447 2.48588 -2.6053 0
M  V30 3601 C 351.3 1.95221 -4.05227 0
M  V30 3602 C 352.619 3.50662 -2.6594 0
M  V30 3603 H 349.738 0.489803 -0.550692 0
M  V30 3604 H 352.38 0.663887 -1.78024 0
M  V30 3605 H 350.53 3.07186 -2.37843 0
M  V30 3606 H 352.202 1.41139 -4.39178 0
M  V30 3607 H 350.445 1.26101 -4.15068 0
M  V30 3608 H 351.116 2.77121 -4.77397 0
M  V30 3609 H 353.592 3.01934 -2.86313 0
M  V30 3610 H 352.468 4.27551 -3.44226 0
M  V30 3611 H 352.729 4.07399 -1.71694 0
M  V30 3612 N 351.788 1.33704 0.83433 0
M  V30 3613 C 353.018 1.28281 1.6195 0
M  V30 3614 C 353.426 -0.147603 1.88623 0
M  V30 3615 O 352.769 -1.1016 1.47005 0
M  V30 3616 C 352.831 1.99386 2.99141 0
M  V30 3617 C 352.495 3.48681 2.95416 0
M  V30 3618 C 353.492 4.438 2.70809 0
M  V30 3619 C 351.177 3.90925 3.15409 0
M  V30 3620 C 353.171 5.79138 2.66229 0
M  V30 3621 C 350.858 5.26366 3.10454 0
M  V30 3622 C 351.856 6.20284 2.85895 0
M  V30 3623 O 351.544 7.53245 2.80852 0
M  V30 3624 H 351.276 0.44315 0.510484 0
M  V30 3625 H 353.83 1.76711 1.04702 0
M  V30 3626 H 352.06 1.45554 3.58261 0
M  V30 3627 H 353.749 1.87403 3.60049 0
M  V30 3628 H 354.515 4.12485 2.5511 0
M  V30 3629 H 350.394 3.18229 3.33543 0
M  V30 3630 H 353.938 6.52416 2.4698 0
M  V30 3631 H 349.835 5.57304 3.25703 0
M  V30 3632 H 350.603 7.62846 2.96661 0
M  V30 3633 N 353.266 -1.05314 1.17247 0
M  V30 3634 C 354.216 -2.11313 0.856196 0
M  V30 3635 C 355.2 -1.60013 -0.168694 0
M  V30 3636 O 356.392 -1.76968 0.0335624 0
M  V30 3637 C 353.521 -3.41301 0.369917 0
M  V30 3638 C 352.607 -3.99401 1.42616 0
M  V30 3639 N 352.998 -4.31481 2.63928 0
M  V30 3640 C 351.296 -4.27126 1.28373 0
M  V30 3641 C 351.997 -4.77799 3.31787 0
M  V30 3642 N 350.973 -4.77843 2.59166 0
M  V30 3643 H 354.775 -2.33976 1.77856 0
M  V30 3644 H 352.289 -1.2295 1.06099 0
M  V30 3645 H 354.286 -4.16713 0.124897 0
M  V30 3646 H 352.946 -3.20072 -0.546253 0
M  V30 3647 H 353.957 -4.21519 3.00902 0
M  V30 3648 H 350.634 -4.15289 0.429111 0
M  V30 3649 H 352.024 -5.11743 4.35395 0
M  V30 3650 N 354.744 -0.972509 -1.24016 0
M  V30 3651 C 355.992 -0.635776 -1.91839 0
M  V30 3652 C 356.313 0.832312 -1.76345 0
M  V30 3653 O 355.583 1.5946 -1.13795 0
M  V30 3654 H 354.163 -0.232157 -0.710009 0
M  V30 3655 H 356.825 -1.23462 -1.50809 0
M  V30 3656 H 355.921 -0.880545 -2.99421 0
M  V30 3657 N 356.222 1.38976 -0.743202 0
M  V30 3658 C 357.47 1.99948 -0.29417 0
M  V30 3659 C 357.791 1.59279 1.12495 0
M  V30 3660 O 357.061 0.844808 1.76748 0
M  V30 3661 H 355.641 0.739473 -0.105774 0
M  V30 3662 H 358.303 1.699 -0.954986 0
M  V30 3663 H 357.399 3.10142 -0.349056 0
M  V30 3664 N 357.7 0.491464 1.49741 0
M  V30 3665 C 358.93 -0.0534375 2.06531 0
M  V30 3666 C 359.338 -1.32233 1.35318 0
M  V30 3667 O 358.681 -1.78781 0.422243 0
M  V30 3668 C 358.743 -0.387034 3.57411 0
M  V30 3669 C 358.407 0.782764 4.50246 0
M  V30 3670 C 359.404 1.67059 4.92329 0
M  V30 3671 C 357.089 0.978866 4.9267 0
M  V30 3672 C 359.083 2.73874 5.75562 0
M  V30 3673 C 356.77 2.05022 5.75682 0
M  V30 3674 C 357.768 2.92851 6.17031 0
M  V30 3675 O 357.456 3.98138 6.98385 0
M  V30 3676 H 357.188 0.0129324 0.675876 0
M  V30 3677 H 359.742 0.685238 1.93633 0
M  V30 3678 H 357.972 -1.17918 3.68283 0
M  V30 3679 H 359.661 -0.869419 3.96479 0
M  V30 3680 H 360.427 1.53086 4.60206 0
M  V30 3681 H 356.306 0.304646 4.59992 0
M  V30 3682 H 359.85 3.42458 6.07757 0
M  V30 3683 H 355.747 2.18993 6.07217 0
M  V30 3684 H 356.515 3.95374 7.16674 0
M  V30 3685 N 359.178 -1.55987 0.224894 0
M  V30 3686 C 360.108 -2.23426 -0.678457 0
M  V30 3687 C 361.089 -1.20709 -1.19847 0
M  V30 3688 O 362.274 -1.49304 -1.24186 0
M  V30 3689 C 359.404 -2.91676 -1.88527 0
M  V30 3690 C 358.358 -4.00893 -1.49896 0
M  V30 3691 C 357.684 -4.56455 -2.78483 0
M  V30 3692 C 358.984 -5.17769 -0.686461 0
M  V30 3693 H 360.678 -2.99175 -0.116173 0
M  V30 3694 H 358.224 -1.43897 -0.054436 0
M  V30 3695 H 360.177 -3.37547 -2.5227 0
M  V30 3696 H 358.901 -2.1338 -2.47258 0
M  V30 3697 H 357.56 -3.55758 -0.884985 0
M  V30 3698 H 357.208 -3.74886 -3.35365 0
M  V30 3699 H 356.908 -5.30169 -2.53368 0
M  V30 3700 H 358.432 -5.05047 -3.43162 0
M  V30 3701 H 359.846 -5.60001 -1.22767 0
M  V30 3702 H 358.243 -5.97735 -0.532259 0
M  V30 3703 H 359.313 -4.83932 0.306196 0
M  V30 3704 N 360.656 0.0484629 -1.57525 0
M  V30 3705 C 362.067 0.597486 -1.76881 0
M  V30 3706 C 362.418 1.76664 -0.853475 0
M  V30 3707 O 361.543 2.16357 -0.0433656 0
M  V30 3708 C 362.138 1.09066 -3.20765 0
M  V30 3709 C 360.697 1.58535 -3.41385 0
M  V30 3710 C 359.844 0.514868 -2.72478 0
M  V30 3711 H 362.795 -0.177758 -1.57701 0
M  V30 3712 H 362.816 1.95875 -3.2621 0
M  V30 3713 H 362.328 0.239521 -3.8736 0
M  V30 3714 H 360.429 2.45898 -2.79937 0
M  V30 3715 H 360.542 1.64622 -4.49929 0
M  V30 3716 H 358.906 0.965407 -2.35695 0
M  V30 3717 H 359.689 -0.32648 -3.41744 0
M  V30 3718 N 362.134 1.5431 0.320358 0
M  V30 3719 C 363.381 1.72668 1.05792 0
M  V30 3720 C 363.709 0.502084 1.87908 0
M  V30 3721 O 362.964 -0.516149 1.88771 0
M  V30 3722 C 363.263 2.95639 2.00828 0
M  V30 3723 C 362.929 4.30265 1.34843 0
M  V30 3724 C 361.591 4.66865 1.16578 0
M  V30 3725 C 363.943 5.13801 0.875095 0
M  V30 3726 C 361.271 5.84597 0.496336 0
M  V30 3727 C 363.623 6.32219 0.219463 0
M  V30 3728 C 362.287 6.67495 0.0246915 0
M  V30 3729 H 361.557 0.631837 0.387121 0
M  V30 3730 H 364.204 1.88552 0.334735 0
M  V30 3731 H 362.509 2.74456 2.79609 0
M  V30 3732 H 364.206 3.07038 2.57932 0
M  V30 3733 H 360.796 4.01472 1.50061 0
M  V30 3734 H 364.98 4.86039 1.00398 0
M  V30 3735 H 360.236 6.10486 0.334264 0
M  V30 3736 H 364.41 6.96227 -0.155291 0
M  V30 3737 H 362.037 7.5858 -0.496065 0
M  V30 3738 N 363.613 -0.582584 1.46437 0
M  V30 3739 C 365.029 -0.905962 1.31394 0
M  V30 3740 C 365.229 -1.99468 0.285476 0
M  V30 3741 O 364.285 -2.50566 -0.311914 0
M  V30 3742 C 365.598 -1.3232 2.70022 0
M  V30 3743 C 367.146 -1.43604 2.78113 0
M  V30 3744 C 367.621 -1.88694 4.17323 0
M  V30 3745 N 369.112 -1.95887 4.19741 0
M  V30 3746 C 369.847 -2.32051 5.24347 0
M  V30 3747 N 369.343 -2.67006 6.39281 0
M  V30 3748 N 371.136 -2.32606 5.11713 0
M  V30 3749 H 363.287 0.1366 2.1196 0
M  V30 3750 H 365.55 -0.00155736 0.947999 0
M  V30 3751 H 365.256 -0.597242 3.46592 0
M  V30 3752 H 365.13 -2.28469 3.00136 0
M  V30 3753 H 367.517 -2.15286 2.01832 0
M  V30 3754 H 367.598 -0.457059 2.51684 0
M  V30 3755 H 367.242 -1.1759 4.941 0
M  V30 3756 H 367.172 -2.8755 4.4116 0
M  V30 3757 H 369.663 -1.71362 3.36814 0
M  V30 3758 H 369.976 -2.93554 7.14875 0
M  V30 3759 H 368.321 -2.64644 6.42642 0
M  V30 3760 H 371.512 -2.04721 4.2096 0
M  V30 3761 H 371.685 -2.60462 5.93349 0
M  V30 3762 N 365.091 -1.34144 -0.827227 0
M  V30 3763 C 366.368 -1.16844 -1.56865 0
M  V30 3764 C 366.748 0.260654 -2.09485 0
M  V30 3765 O 366.096 1.26138 -1.9053 0
M  V30 3766 C 366.306 -2.21939 -2.6934 0
M  V30 3767 C 367.654 -2.56695 -3.3822 0
M  V30 3768 O 368.678 -2.20695 -2.79593 0
M  V30 3769 O 367.537 -3.18518 -4.44082 0
M  V30 3770 H 364.631 -0.452669 -0.692112 0
M  V30 3771 H 367.177 -1.45763 -0.868973 0
M  V30 3772 H 365.949 -3.17882 -2.28182 0
M  V30 3773 H 365.572 -1.94172 -3.46962 0
M  V30 3774 N 366.569 1.04691 -1.17803 0
M  V30 3775 C 367.98 1.59238 -0.974689 0
M  V30 3776 C 368.331 1.90306 0.477292 0
M  V30 3777 O 367.456 1.68846 1.35352 0
M  V30 3778 C 368.051 2.89318 -1.76296 0
M  V30 3779 C 366.61 3.40506 -1.60414 0
M  V30 3780 C 365.757 2.14172 -1.76141 0
M  V30 3781 H 368.708 0.874395 -1.32439 0
M  V30 3782 H 368.729 3.5944 -1.24833 0
M  V30 3783 H 368.241 2.66675 -2.81968 0
M  V30 3784 H 366.342 3.68175 -0.572519 0
M  V30 3785 H 366.455 4.14753 -2.39827 0
M  V30 3786 H 364.819 2.25176 -1.19028 0
M  V30 3787 H 365.602 1.93992 -2.83235 0
M  V30 3788 N 368.047 0.979072 1.23499 0
M  V30 3789 C 368.995 0.510604 2.26926 0
M  V30 3790 C 369.989 -0.431691 1.63807 0
M  V30 3791 O 371.195 -0.30573 1.77385 0
M  V30 3792 H 367.57 0.146688 0.737554 0
M  V30 3793 H 369.541 1.39466 2.63803 0
M  V30 3794 C 368.29 -0.172658 3.47271 0
M  V30 3795 H 367.613 0.543331 3.96091 0
M  V30 3796 H 369.053 -0.464101 4.21452 0
M  V30 3797 C 367.512 -1.40345 3.06276 0
M  V30 3798 O 368.042 -2.49978 3.14442 0
M  V30 3799 N 366.248 -1.27362 2.61203 0
M  V30 3800 H 365.795 -0.381584 2.54758 0
M  V30 3801 H 365.753 -2.09822 2.34141 0
M  V30 3802 N 369.525 -1.3858 0.750561 0
M  V30 3803 C 370.75 -2.04997 0.314812 0
M  V30 3804 C 371.175 -1.56235 -1.04749 0
M  V30 3805 O 370.533 -0.712981 -1.66692 0
M  V30 3806 C 370.581 -3.58961 0.343415 0
M  V30 3807 O 369.685 -4.07025 -0.663628 0
M  V30 3808 H 369.026 -0.649081 0.139962 0
M  V30 3809 H 371.556 -1.77313 1.02084 0
M  V30 3810 H 371.566 -4.07542 0.193233 0
M  V30 3811 H 370.241 -3.93811 1.33738 0
M  V30 3812 H 368.818 -3.6982 -0.478307 0
M  V30 3813 N 371.003 -0.499398 -1.49478 0
M  V30 3814 C 371.913 0.284489 -2.32869 0
M  V30 3815 C 372.929 0.968885 -1.44529 0
M  V30 3816 O 374.105 0.95062 -1.77553 0
M  V30 3817 C 371.17 1.33594 -3.19928 0
M  V30 3818 C 370.231 0.665149 -4.24116 0
M  V30 3819 C 369.464 1.6665 -5.07014 0
M  V30 3820 O 369.687 2.89618 -4.91404 0
M  V30 3821 O 368.621 1.22271 -5.8935 0
M  V30 3822 H 372.447 -0.39802 -3.01081 0
M  V30 3823 H 370.032 -0.260758 -1.47107 0
M  V30 3824 H 371.914 1.94431 -3.73864 0
M  V30 3825 H 370.589 2.0014 -2.54412 0
M  V30 3826 H 369.496 0.0170769 -3.74096 0
M  V30 3827 H 370.829 0.0421555 -4.92182 0
M  V30 3828 N 372.481 1.55866 -0.233164 0
M  V30 3829 C 373.391 2.24431 0.683217 0
M  V30 3830 C 374.407 1.2558 1.2044 0
M  V30 3831 O 375.583 1.58422 1.24356 0
M  V30 3832 C 372.648 2.91979 1.86947 0
M  V30 3833 C 371.709 4.06204 1.38912 0
M  V30 3834 C 370.942 4.70522 2.51883 0
M  V30 3835 O 371.165 4.33865 3.70293 0
M  V30 3836 O 370.099 5.59296 2.22423 0
M  V30 3837 H 373.925 3.03426 0.129059 0
M  V30 3838 H 371.51 1.494 -0.0022283 0
M  V30 3839 H 373.392 3.34573 2.56201 0
M  V30 3840 H 372.067 2.15935 2.41151 0
M  V30 3841 H 370.974 3.68155 0.664259 0
M  V30 3842 H 372.307 4.84025 0.893328 0
M  V30 3843 N 373.959 -0.0401083 1.57549 0
M  V30 3844 C 374.907 -1.06264 2.06908 0
M  V30 3845 C 375.901 -1.38132 0.980608 0
M  V30 3846 O 377.107 -1.37167 1.16556 0
M  V30 3847 H 373.482 -0.360166 0.660139 0
M  V30 3848 H 375.453 -0.620445 2.91878 0
M  V30 3849 C 374.202 -2.35846 2.55483 0
M  V30 3850 H 373.525 -2.12183 3.38849 0
M  V30 3851 H 374.965 -3.05765 2.93741 0
M  V30 3852 C 373.424 -3.0404 1.45126 0
M  V30 3853 O 373.954 -3.93424 0.811216 0
M  V30 3854 N 372.16 -2.65184 1.18852 0
M  V30 3855 H 371.707 -1.92584 1.71083 0
M  V30 3856 H 371.665 -3.1113 0.452244 0
M  V30 3857 N 375.437 -1.54477 -0.31217 0
M  V30 3858 C 376.662 -1.77526 -1.07235 0
M  V30 3859 C 377.087 -0.527775 -1.80544 0
M  V30 3860 O 376.445 0.52121 -1.73646 0
M  V30 3861 C 376.493 -2.97535 -2.03728 0
M  V30 3862 O 375.597 -2.69878 -3.11833 0
M  V30 3863 H 374.938 -0.58792 -0.30862 0
M  V30 3864 H 377.468 -2.01532 -0.352993 0
M  V30 3865 H 377.478 -3.25198 -2.46395 0
M  V30 3866 H 376.153 -3.87996 -1.49774 0
M  V30 3867 H 374.73 -2.53199 -2.7376 0
M  V30 3868 N 376.915 0.57481 -1.46744 0
M  V30 3869 C 377.863 1.70435 -1.58286 0
M  V30 3870 C 378.857 1.63287 -0.450956 0
M  V30 3871 O 380.063 1.68685 -0.628121 0
M  V30 3872 H 376.438 0.56364 -0.497809 0
M  V30 3873 H 378.409 1.57833 -2.53242 0
M  V30 3874 C 377.158 3.08815 -1.59776 0
M  V30 3875 H 376.481 3.1499 -2.46214 0
M  V30 3876 H 377.921 3.87588 -1.71905 0
M  V30 3877 C 376.38 3.35301 -0.327812 0
M  V30 3878 O 376.91 3.97511 0.57861 0
M  V30 3879 N 375.116 2.89816 -0.213274 0
M  V30 3880 H 374.663 2.39371 -0.951798 0
M  V30 3881 H 374.621 3.0791 0.63553 0
M  V30 3882 N 378.394 1.34581 0.820102 0
M  V30 3883 C 379.671 1.17675 1.56244 0
M  V30 3884 C 380.051 -0.249541 2.0962 0
M  V30 3885 O 379.399 -1.25125 1.91196 0
M  V30 3886 C 379.609 2.23364 2.6816 0
M  V30 3887 C 380.957 2.58485 3.36854 0
M  V30 3888 O 381.981 2.22175 2.78418 0
M  V30 3889 O 380.84 3.20868 4.42386 0
M  V30 3890 H 377.934 0.456333 0.689702 0
M  V30 3891 H 380.48 1.46222 0.861231 0
M  V30 3892 H 379.252 3.19087 2.26493 0
M  V30 3893 H 378.875 1.96009 3.45928 0
M  V30 3894 N 379.872 -1.04064 1.18357 0
M  V30 3895 C 381.121 -1.76662 0.973313 0
M  V30 3896 C 381.434 -1.89154 -0.497991 0
M  V30 3897 O 382.64 -2.58606 -0.826762 0
M  V30 3898 C 381.096 -3.17624 1.69242 0
M  V30 3899 C 380.704 -3.13225 3.20303 0
M  V30 3900 C 382.448 -3.946 1.56497 0
M  V30 3901 C 380.355 -4.49046 3.84853 0
M  V30 3902 H 379.285 -0.662214 0.36054 0
M  V30 3903 H 381.936 -1.16553 1.41731 0
M  V30 3904 H 380.318 -3.78129 1.1762 0
M  V30 3905 H 381.492 -2.62172 3.78949 0
M  V30 3906 H 379.807 -2.49749 3.33189 0
M  V30 3907 H 382.404 -4.95042 2.02084 0
M  V30 3908 H 382.747 -4.13074 0.517243 0
M  V30 3909 H 383.28 -3.4067 2.05399 0
M  V30 3910 H 380.019 -4.35777 4.89672 0
M  V30 3911 H 379.539 -5.00203 3.30994 0
M  V30 3912 H 381.218 -5.17961 3.87718 0
M  V30 3913 N 381.35 -0.985608 -1.22978 0
M  V30 3914 C 382.313 -0.535071 -2.22867 0
M  V30 3915 C 383.313 0.378123 -1.56291 0
M  V30 3916 O 384.503 0.171092 -1.73358 0
M  V30 3917 C 381.635 0.222702 -3.40172 0
M  V30 3918 H 382.828 -1.41835 -2.6424 0
M  V30 3919 H 380.381 -0.772042 -1.35901 0
M  V30 3920 H 381.116 1.12229 -3.04262 0
M  V30 3921 H 380.901 -0.43288 -3.89703 0
M  V30 3922 H 382.391 0.526335 -4.1427 0
M  V30 3923 N 382.828 1.3818 -0.7579 0
M  V30 3924 C 383.758 2.33027 -0.148597 0
M  V30 3925 C 384.739 1.55085 0.69875 0
M  V30 3926 O 385.924 1.83384 0.639053 0
M  V30 3927 C 383.054 3.3928 0.742034 0
M  V30 3928 C 382.008 4.28 -0.00291946 0
M  V30 3929 C 381.334 5.25146 1.00625 0
M  V30 3930 C 382.634 5.08938 -1.17385 0
M  V30 3931 H 384.328 2.84231 -0.940909 0
M  V30 3932 H 381.874 1.36659 -0.453908 0
M  V30 3933 H 383.827 4.046 1.17799 0
M  V30 3934 H 382.551 2.86569 1.56671 0
M  V30 3935 H 381.21 3.64192 -0.419504 0
M  V30 3936 H 380.858 4.68721 1.8251 0
M  V30 3937 H 380.558 5.85361 0.512428 0
M  V30 3938 H 382.082 5.93342 1.44143 0
M  V30 3939 H 383.496 5.67474 -0.815224 0
M  V30 3940 H 381.893 5.7841 -1.59882 0
M  V30 3941 H 382.963 4.42424 -1.98468 0
M  V30 3942 N 384.306 0.507319 1.49211 0
M  V30 3943 C 385.552 -0.0350047 2.0277 0
M  V30 3944 C 385.885 -1.3606 1.38569 0
M  V30 3945 O 385.16 -1.87321 0.523542 0
M  V30 3946 C 385.443 -0.180916 3.59645 0
M  V30 3947 C 385.296 1.16825 4.34364 0
M  V30 3948 C 386.615 -0.918558 4.30407 0
M  V30 3949 H 383.734 -0.0112473 0.736914 0
M  V30 3950 H 386.376 0.659956 1.7817 0
M  V30 3951 H 384.526 -0.772826 3.80736 0
M  V30 3952 H 386.198 1.79952 4.24753 0
M  V30 3953 H 384.441 1.75594 3.96673 0
M  V30 3954 H 385.112 1.01939 5.42506 0
M  V30 3955 H 387.588 -0.41649 4.1401 0
M  V30 3956 H 386.464 -0.989505 5.39907 0
M  V30 3957 H 386.725 -1.96373 3.96093 0
M  V30 3958 N 385.784 -1.5574 0.241426 0
M  V30 3959 C 386.734 -2.17803 -0.674233 0
M  V30 3960 C 387.718 -1.13225 -1.14319 0
M  V30 3961 O 388.91 -1.39153 -1.09387 0
M  V30 3962 C 386.039 -2.87682 -1.87333 0
M  V30 3963 C 385.125 -3.99509 -1.42313 0
M  V30 3964 N 385.516 -5.01115 -0.686798 0
M  V30 3965 C 383.814 -4.11964 -1.70885 0
M  V30 3966 C 384.515 -5.79922 -0.454456 0
M  V30 3967 N 383.491 -5.34001 -1.01705 0
M  V30 3968 H 387.293 -2.93718 -0.103447 0
M  V30 3969 H 384.807 -1.62342 0.0435095 0
M  V30 3970 H 386.804 -3.3057 -2.54026 0
M  V30 3971 H 385.464 -2.13269 -2.4484 0
M  V30 3972 H 386.475 -5.16799 -0.337459 0
M  V30 3973 H 383.152 -3.48718 -2.2957 0
M  V30 3974 H 384.542 -6.71768 0.132992 0
M  V30 3975 N 387.262 0.0317525 -1.57568 0
M  V30 3976 C 388.192 1.03274 -2.0942 0
M  V30 3977 C 389.173 1.3788 -0.996143 0
M  V30 3978 O 390.358 1.46811 -1.27122 0
M  V30 3979 C 387.488 2.33448 -2.57137 0
M  V30 3980 C 386.442 2.13091 -3.71182 0
M  V30 3981 C 385.768 3.49001 -4.05095 0
M  V30 3982 C 387.068 1.51928 -4.99715 0
M  V30 3983 H 388.762 0.60112 -2.93303 0
M  V30 3984 H 386.308 0.287705 -1.41097 0
M  V30 3985 H 388.261 3.03802 -2.92032 0
M  V30 3986 H 386.985 2.78665 -1.70333 0
M  V30 3987 H 385.644 1.45171 -3.36632 0
M  V30 3988 H 385.292 3.91862 -3.15362 0
M  V30 3989 H 384.992 3.36207 -4.81911 0
M  V30 3990 H 386.516 4.20721 -4.42522 0
M  V30 3991 H 387.93 2.12196 -5.32584 0
M  V30 3992 H 386.327 1.49716 -5.81124 0
M  V30 3993 H 387.397 0.484811 -4.8247 0
M  V30 3994 N 388.74 1.54641 0.303973 0
M  V30 3995 C 389.965 1.78092 1.06292 0
M  V30 3996 C 390.39 0.537342 1.80262 0
M  V30 3997 O 389.748 -0.511993 1.7392 0
M  V30 3998 C 389.796 2.98612 2.02147 0
M  V30 3999 O 388.9 2.71528 3.10397 0
M  V30 4000 H 388.241 0.589548 0.305497 0
M  V30 4001 H 390.771 2.01716 0.3423 0
M  V30 4002 H 390.781 3.265 2.44667 0
M  V30 4003 H 389.456 3.88785 1.47714 0
M  V30 4004 H 388.033 2.54648 2.72413 0
M  V30 4005 N 390.218 -0.567019 1.47046 0
M  V30 4006 C 391.443 -1.3551 1.57009 0
M  V30 4007 C 391.868 -1.86841 0.217259 0
M  V30 4008 O 391.226 -1.62435 -0.805268 0
M  V30 4009 C 391.274 -2.50777 2.5912 0
M  V30 4010 O 390.378 -3.52706 2.13711 0
M  V30 4011 H 389.719 -0.402919 0.52778 0
M  V30 4012 H 392.249 -0.686241 1.92748 0
M  V30 4013 H 392.259 -2.97481 2.79229 0
M  V30 4014 H 390.934 -2.12771 3.57353 0
M  V30 4015 H 389.511 -3.12374 2.03659 0
M  V30 4016 N 391.696 -1.35014 -0.812953 0
M  V30 4017 C 393.107 -1.25035 -1.38648 0
M  V30 4018 C 393.458 0.119967 -1.95833 0
M  V30 4019 O 392.583 1.02069 -1.90816 0
M  V30 4020 C 393.178 -2.26394 -2.52054 0
M  V30 4021 C 391.737 -2.20175 -3.05287 0
M  V30 4022 C 390.884 -2.12451 -1.78213 0
M  V30 4023 H 393.835 -1.46235 -0.616516 0
M  V30 4024 H 393.856 -1.88672 -3.30429 0
M  V30 4025 H 393.368 -3.26116 -2.10404 0
M  V30 4026 H 391.469 -1.23841 -3.51417 0
M  V30 4027 H 391.582 -3.11863 -3.63701 0
M  V30 4028 H 389.946 -1.58328 -1.9951 0
M  V30 4029 H 390.729 -3.14024 -1.38723 0
M  V30 4030 N 393.175 1.03435 -1.18907 0
M  V30 4031 C 394.105 2.13503 -0.945448 0
M  V30 4032 C 395.086 1.69682 0.119189 0
M  V30 4033 O 396.271 1.94169 -0.034707 0
M  V30 4034 C 393.401 3.44004 -0.477316 0
M  V30 4035 C 392.355 4.0148 -1.48316 0
M  V30 4036 C 391.681 5.27537 -0.872311 0
M  V30 4037 C 392.981 4.36921 -2.86177 0
M  V30 4038 H 394.675 2.34141 -1.86597 0
M  V30 4039 H 392.221 1.12523 -0.898584 0
M  V30 4040 H 394.174 4.20372 -0.294204 0
M  V30 4041 H 392.898 3.23072 0.478786 0
M  V30 4042 H 391.557 3.27201 -1.65332 0
M  V30 4043 H 391.205 5.02917 0.0911752 0
M  V30 4044 H 390.905 5.66954 -1.54393 0
M  V30 4045 H 392.429 6.06576 -0.699871 0
M  V30 4046 H 393.843 5.04248 -2.72776 0
M  V30 4047 H 392.24 4.87405 -3.50081 0
M  V30 4048 H 393.31 3.46466 -3.39248 0
M  V30 4049 N 394.653 0.992116 1.22453 0
M  V30 4050 C 396.064 0.702776 1.72968 0
M  V30 4051 C 396.415 -0.780399 1.80012 0
M  V30 4052 O 395.54 -1.61007 1.44589 0
M  V30 4053 C 396.135 1.26903 3.14135 0
M  V30 4054 C 394.694 1.02909 3.62059 0
M  V30 4055 C 393.841 1.38969 2.39964 0
M  V30 4056 H 396.792 1.16457 1.07812 0
M  V30 4057 H 396.813 0.647223 3.74955 0
M  V30 4058 H 396.325 2.34851 3.08977 0
M  V30 4059 H 394.426 -0.0337979 3.72585 0
M  V30 4060 H 394.539 1.69191 4.48231 0
M  V30 4061 H 392.903 0.808279 2.41535 0
M  V30 4062 H 393.686 2.4792 2.37467 0
M  V30 4063 N 396.131 -1.37776 0.765217 0
M  V30 4064 C 397.061 -2.32945 0.160953 0
M  V30 4065 C 398.042 -1.55454 -0.690516 0
M  V30 4066 O 399.227 -1.83721 -0.629318 0
M  V30 4067 C 396.357 -3.39669 -0.724031 0
M  V30 4068 C 395.311 -4.27992 0.0256173 0
M  V30 4069 C 394.637 -5.25673 -0.978383 0
M  V30 4070 C 395.937 -5.08309 1.20082 0
M  V30 4071 H 397.631 -2.83728 0.955969 0
M  V30 4072 H 395.177 -1.36416 0.461149 0
M  V30 4073 H 397.13 -4.05219 -1.15652 0
M  V30 4074 H 395.854 -2.87396 -1.5515 0
M  V30 4075 H 394.513 -3.63964 0.438812 0
M  V30 4076 H 394.161 -4.69682 -1.80022 0
M  V30 4077 H 393.861 -5.85625 -0.481378 0
M  V30 4078 H 395.385 -5.94098 -1.40995 0
M  V30 4079 H 396.799 -5.67034 0.845307 0
M  V30 4080 H 395.196 -5.77554 1.62947 0
M  V30 4081 H 396.266 -4.41365 2.00811 0
M  V30 4082 N 397.609 -0.515225 -1.4894 0
M  V30 4083 C 398.837 0.0206034 -2.0689 0
M  V30 4084 C 399.252 1.29514 -1.37374 0
M  V30 4085 O 398.609 1.76698 -0.456529 0
M  V30 4086 C 398.66 0.26351 -3.60538 0
M  V30 4087 O 398.381 -0.960517 -4.27441 0
M  V30 4088 C 399.882 0.841383 -4.35242 0
M  V30 4089 H 397.102 -0.0268608 -0.670462 0
M  V30 4090 H 399.646 -0.716651 -1.91532 0
M  V30 4091 H 397.801 0.950777 -3.75552 0
M  V30 4092 H 398.215 -0.73212 -5.19365 0
M  V30 4093 H 399.689 0.96085 -5.43573 0
M  V30 4094 H 400.166 1.8427 -3.98674 0
M  V30 4095 H 400.772 0.191143 -4.2487 0
M  V30 4096 N 399.087 1.5561 -0.249682 0
M  V30 4097 C 399.997 2.25143 0.659375 0
M  V30 4098 C 401.013 1.2685 1.19101 0
M  V30 4099 O 402.189 1.59732 1.22669 0
M  V30 4100 C 399.254 2.93945 1.8384 0
M  V30 4101 C 398.315 4.07655 1.34596 0
M  V30 4102 C 397.548 4.73167 2.46878 0
M  V30 4103 O 397.771 4.37768 3.65671 0
M  V30 4104 O 396.705 5.61623 2.16478 0
M  V30 4105 H 400.531 3.03545 0.0968698 0
M  V30 4106 H 398.116 1.49389 -0.018074 0
M  V30 4107 H 399.998 3.37271 2.52638 0
M  V30 4108 H 398.673 2.18481 2.38847 0
M  V30 4109 H 397.58 3.68839 0.625174 0
M  V30 4110 H 398.913 4.84946 0.841941 0
M  V30 4111 N 400.565 -0.0233959 1.57583 0
M  V30 4112 C 401.795 -0.723631 1.93513 0
M  V30 4113 C 402.203 -1.69115 0.848333 0
M  V30 4114 O 401.546 -1.82781 -0.183484 0
M  V30 4115 C 401.608 -1.53075 3.25282 0
M  V30 4116 C 401.272 -0.727388 4.51174 0
M  V30 4117 C 402.269 -0.0251924 5.19894 0
M  V30 4118 C 399.954 -0.680256 4.97672 0
M  V30 4119 C 401.948 0.713374 6.33395 0
M  V30 4120 C 399.635 0.0620523 6.11068 0
M  V30 4121 C 400.633 0.757622 6.78785 0
M  V30 4122 O 400.321 1.48787 7.90011 0
M  V30 4123 H 400.053 -0.208051 0.643188 0
M  V30 4124 H 402.607 0.0167489 2.05393 0
M  V30 4125 H 400.837 -2.31508 3.09744 0
M  V30 4126 H 402.526 -2.11413 3.46496 0
M  V30 4127 H 403.292 -0.0526003 4.84971 0
M  V30 4128 H 399.171 -1.21116 4.44805 0
M  V30 4129 H 402.715 1.25683 6.86185 0
M  V30 4130 H 398.612 0.0913634 6.45435 0
M  V30 4131 H 399.38 1.40213 8.06401 0
M  V30 4132 N 402.043 -1.548 -0.295768 0
M  V30 4133 C 403.292 -1.73538 -1.02798 0
M  V30 4134 C 403.605 -0.531159 -1.8825 0
M  V30 4135 O 404.811 -0.600458 -2.64777 0
M  V30 4136 C 403.267 -3.07051 -1.87744 0
M  V30 4137 C 402.875 -4.34968 -1.07269 0
M  V30 4138 C 404.619 -3.35146 -2.60533 0
M  V30 4139 C 402.526 -5.5953 -1.91521 0
M  V30 4140 H 401.456 -0.646794 -0.387522 0
M  V30 4141 H 404.107 -1.81278 -0.284718 0
M  V30 4142 H 402.489 -2.93289 -2.66078 0
M  V30 4143 H 403.663 -4.5958 -0.335117 0
M  V30 4144 H 401.978 -4.13847 -0.460384 0
M  V30 4145 H 404.575 -4.2541 -3.23929 0
M  V30 4146 H 404.918 -2.54255 -3.29636 0
M  V30 4147 H 405.451 -3.49902 -1.89244 0
M  V30 4148 H 402.19 -6.43103 -1.26878 0
M  V30 4149 H 401.71 -5.39096 -2.62937 0
M  V30 4150 H 403.389 -5.96982 -2.49442 0
M  V30 4151 N 403.521 0.559213 -1.47345 0
M  V30 4152 C 404.453 1.68161 -1.55738 0
M  V30 4153 C 405.466 1.56636 -0.443744 0
M  V30 4154 O 406.655 1.6363 -0.713258 0
M  V30 4155 C 403.755 3.06611 -1.4437 0
M  V30 4156 C 402.928 3.4391 -2.70268 0
M  V30 4157 C 401.987 4.61515 -2.52765 0
M  V30 4158 O 401.013 4.66197 -3.26572 0
M  V30 4159 N 402.215 5.57883 -1.6046 0
M  V30 4160 H 404.98 1.61408 -2.52522 0
M  V30 4161 H 402.541 0.7458 -1.43699 0
M  V30 4162 H 404.533 3.83117 -1.30398 0
M  V30 4163 H 403.103 3.07602 -0.556766 0
M  V30 4164 H 402.323 2.56873 -2.99015 0
M  V30 4165 H 403.611 3.65605 -3.53851 0
M  V30 4166 H 403.009 5.56855 -0.996422 0
M  V30 4167 H 401.566 6.33723 -1.52441 0
M  V30 4168 N 404.999 1.35443 0.805782 0
M  V30 4169 C 406.41 1.25768 1.37983 0
M  V30 4170 C 406.761 -0.10958 1.95894 0
M  V30 4171 O 405.886 -1.01056 1.91355 0
M  V30 4172 C 406.481 2.27727 2.5085 0
M  V30 4173 C 405.04 2.2179 3.04115 0
M  V30 4174 C 404.187 2.13393 1.77084 0
M  V30 4175 H 407.138 1.4656 0.608752 0
M  V30 4176 H 407.159 1.90422 3.29424 0
M  V30 4177 H 406.671 3.27227 2.08671 0
M  V30 4178 H 404.772 1.25703 3.50756 0
M  V30 4179 H 404.885 3.13788 3.62042 0
M  V30 4180 H 403.249 1.59384 1.98668 0
M  V30 4181 H 404.032 3.14755 1.37056 0
M  V30 4182 N 406.477 -1.02803 1.19454 0
M  V30 4183 C 407.723 -1.76478 0.999171 0
M  V30 4184 C 408.056 -1.88456 -0.468828 0
M  V30 4185 O 407.331 -1.40198 -1.34814 0
M  V30 4186 C 407.614 -3.19044 1.66981 0
M  V30 4187 C 407.467 -3.14932 3.21151 0
M  V30 4188 C 408.786 -4.17456 1.39349 0
M  V30 4189 H 405.905 -0.640614 0.364393 0
M  V30 4190 H 408.547 -1.20005 1.47305 0
M  V30 4191 H 406.697 -3.67263 1.2669 0
M  V30 4192 H 408.369 -2.74605 3.70661 0
M  V30 4193 H 406.612 -2.52625 3.52652 0
M  V30 4194 H 407.283 -4.1566 3.63223 0
M  V30 4195 H 409.759 -3.77842 1.74283 0
M  V30 4196 H 408.635 -5.154 1.88823 0
M  V30 4197 H 408.896 -4.40949 0.318813 0
M  V30 4198 N 407.956 -0.998596 -1.21925 0
M  V30 4199 C 409.196 -0.685948 -1.92546 0
M  V30 4200 C 409.56 0.768441 -1.75952 0
M  V30 4201 O 410.761 1.19277 -2.40887 0
M  V30 4202 C 409.032 -1.08767 -3.40448 0
M  V30 4203 S 410.591 -0.894251 -4.29591 0
M  V30 4204 H 407.409 -0.250622 -0.665364 0
M  V30 4205 H 410.011 -1.28207 -1.47591 0
M  V30 4206 H 408.715 -2.14242 -3.50041 0
M  V30 4207 H 408.246 -0.48357 -3.90417 0
M  V30 4208 H 410.261 0.212149 -4.95746 0
M  V30 4209 N 409.434 1.37368 -0.772513 0
M  V30 4210 C 410.364 2.32856 -0.173304 0
M  V30 4211 C 411.345 1.55818 0.682262 0
M  V30 4212 O 412.53 1.84052 0.619566 0
M  V30 4213 C 409.66 3.40048 0.706007 0
M  V30 4214 C 408.614 4.27973 -0.0483144 0
M  V30 4215 C 407.94 5.26184 0.950491 0
M  V30 4216 C 409.24 5.07665 -1.22776 0
M  V30 4217 H 410.934 2.83217 -0.971002 0
M  V30 4218 H 408.48 1.3617 -0.468377 0
M  V30 4219 H 410.433 4.05827 1.13501 0
M  V30 4220 H 409.157 2.88214 1.53623 0
M  V30 4221 H 407.816 3.63726 -0.458107 0
M  V30 4222 H 407.464 4.7063 1.77529 0
M  V30 4223 H 407.164 5.85872 0.450314 0
M  V30 4224 H 408.688 5.94838 1.37842 0
M  V30 4225 H 410.102 5.66578 -0.875366 0
M  V30 4226 H 408.499 5.76681 -1.66007 0
M  V30 4227 H 409.569 4.40294 -2.03149 0
M  V30 4228 N 410.912 0.523116 1.48665 0
M  V30 4229 C 412.323 0.0808997 1.86525 0
M  V30 4230 C 412.674 -1.33975 1.43336 0
M  V30 4231 O 411.799 -2.00221 0.821009 0
M  V30 4232 C 412.394 0.140037 3.3851 0
M  V30 4233 C 410.953 -0.246948 3.75589 0
M  V30 4234 C 410.1 0.502845 2.72703 0
M  V30 4235 H 413.051 0.734736 1.40667 0
M  V30 4236 H 413.072 -0.649945 3.74908 0
M  V30 4237 H 412.584 1.17412 3.69914 0
M  V30 4238 H 410.685 -1.28343 3.49798 0
M  V30 4239 H 410.798 0.0878859 4.79019 0
M  V30 4240 H 409.162 -0.0500581 2.54651 0
M  V30 4241 H 409.945 1.53743 3.0695 0
M  V30 4242 N 412.39 -1.55475 0.257931 0
M  V30 4243 C 413.353 -2.20551 -0.623706 0
M  V30 4244 C 414.353 -1.17809 -1.09443 0
M  V30 4245 O 415.543 -1.42823 -0.997362 0
M  V30 4246 C 412.675 -2.85784 -1.8585 0
M  V30 4247 H 413.868 -2.99848 -0.0557743 0
M  V30 4248 H 411.421 -1.56298 0.0084422 0
M  V30 4249 H 412.156 -2.10453 -2.46739 0
M  V30 4250 H 411.941 -3.61057 -1.52907 0
M  V30 4251 H 413.431 -3.35553 -2.48584 0
M  V30 4252 N 413.868 0.0150385 -1.57593 0
M  V30 4253 C 414.831 0.995996 -2.06428 0
M  V30 4254 C 415.831 1.2818 -0.970903 0
M  V30 4255 O 417.021 1.22949 -1.23406 0
M  V30 4256 C 414.153 2.32506 -2.49307 0
M  V30 4257 H 415.346 0.573873 -2.94358 0
M  V30 4258 H 412.899 0.262186 -1.54085 0
M  V30 4259 H 413.634 2.79438 -1.64575 0
M  V30 4260 H 413.419 2.13087 -3.29145 0
M  V30 4261 H 414.909 3.02906 -2.87468 0
M  V30 4262 N 415.346 1.54954 0.287554 0
M  V30 4263 C 416.594 1.74528 1.01904 0
M  V30 4264 C 416.915 0.541349 1.87335 0
M  V30 4265 O 416.185 -0.444108 1.908 0
M  V30 4266 H 414.765 0.643576 0.379235 0
M  V30 4267 H 417.427 1.92333 0.315294 0
M  V30 4268 H 416.523 2.64015 1.6644 0
M  V30 4269 N 416.824 -0.551391 1.4764 0
M  V30 4270 C 417.756 -1.67333 1.56628 0
M  V30 4271 C 418.769 -1.56398 0.452045 0
M  V30 4272 O 419.958 -1.6325 0.721926 0
M  V30 4273 C 417.058 -3.05841 1.45994 0
M  V30 4274 C 416.231 -3.42472 2.72088 0
M  V30 4275 C 415.29 -4.60168 2.55209 0
M  V30 4276 O 414.316 -4.64458 3.2904 0
M  V30 4277 N 415.518 -5.57024 1.63416 0
M  V30 4278 H 418.283 -1.60066 2.53375 0
M  V30 4279 H 415.844 -0.738169 1.44093 0
M  V30 4280 H 417.836 -3.8242 1.32428 0
M  V30 4281 H 416.406 -3.07302 0.573071 0
M  V30 4282 H 415.626 -2.55284 3.00373 0
M  V30 4283 H 416.914 -3.63723 3.55785 0
M  V30 4284 H 416.312 -5.56319 1.02594 0
M  V30 4285 H 414.869 -6.32906 1.558 0
M  V30 4286 N 418.302 -1.35869 -0.798587 0
M  V30 4287 C 419.265 -1.29307 -1.89242 0
M  V30 4288 C 420.265 -0.202747 -1.59517 0
M  V30 4289 O 421.455 -0.456957 -1.681 0
M  V30 4290 C 418.587 -1.00229 -3.25833 0
M  V30 4291 H 419.78 -2.26576 -1.96478 0
M  V30 4292 H 417.333 -1.20509 -0.995358 0
M  V30 4293 H 418.068 -0.033801 -3.24282 0
M  V30 4294 H 417.853 -1.79121 -3.48795 0
M  V30 4295 H 419.343 -0.98219 -4.05885 0
M  V30 4296 N 419.78 1.02168 -1.19998 0
M  V30 4297 C 420.71 2.12488 -0.96804 0
M  V30 4298 C 421.691 1.69799 0.101185 0
M  V30 4299 O 422.876 1.94121 -0.0552993 0
M  V30 4300 C 420.006 3.43479 -0.513776 0
M  V30 4301 C 418.96 3.99884 -1.52566 0
M  V30 4302 C 418.286 5.26582 -0.928214 0
M  V30 4303 C 419.586 4.33861 -2.90795 0
M  V30 4304 H 421.28 2.32149 -1.89069 0
M  V30 4305 H 418.826 1.11564 -0.910468 0
M  V30 4306 H 420.779 4.20036 -0.338774 0
M  V30 4307 H 419.503 3.23561 0.444493 0
M  V30 4308 H 418.162 3.25429 -1.68794 0
M  V30 4309 H 417.81 5.02986 0.0378289 0
M  V30 4310 H 417.51 5.65284 -1.60397 0
M  V30 4311 H 419.034 6.05799 -0.764167 0
M  V30 4312 H 420.448 5.01327 -2.78109 0
M  V30 4313 H 418.845 4.83664 -3.55231 0
M  V30 4314 H 419.915 3.42848 -3.42904 0
M  V30 4315 N 421.258 1.00505 1.21394 0
M  V30 4316 C 422.504 0.688793 1.90745 0
M  V30 4317 C 422.837 -0.778486 1.77914 0
M  V30 4318 O 422.112 -1.56433 1.15581 0
M  V30 4319 C 422.395 1.11063 3.42545 0
M  V30 4320 C 422.248 2.63737 3.64367 0
M  V30 4321 C 423.567 0.673059 4.34923 0
M  V30 4322 H 420.686 0.251702 0.692687 0
M  V30 4323 H 423.328 1.25074 1.43026 0
M  V30 4324 H 421.478 0.632508 3.83317 0
M  V30 4325 H 423.15 3.19313 3.32922 0
M  V30 4326 H 421.393 3.05248 3.08231 0
M  V30 4327 H 422.064 2.88305 4.70727 0
M  V30 4328 H 424.54 1.08392 4.01734 0
M  V30 4329 H 423.416 0.996383 5.39781 0
M  V30 4330 H 423.677 -0.425808 4.40045 0
M  V30 4331 N 422.737 -1.36956 0.779787 0
M  V30 4332 C 424.014 -1.93697 0.272156 0
M  V30 4333 C 424.394 -1.71267 -1.23413 0
M  V30 4334 O 423.742 -1.06607 -2.02107 0
M  V30 4335 C 423.952 -3.42812 0.654291 0
M  V30 4336 C 425.3 -4.19921 0.628602 0
M  V30 4337 O 426.324 -3.51209 0.594172 0
M  V30 4338 O 425.183 -5.42465 0.662864 0
M  V30 4339 H 422.277 -0.824447 0.0649286 0
M  V30 4340 H 424.823 -1.46196 0.861682 0
M  V30 4341 H 423.595 -3.52754 1.69353 0
M  V30 4342 H 423.218 -3.97582 0.0381369 0
M  V30 4343 N 424.215 -0.530993 -1.48385 0
M  V30 4344 C 425.463 0.00273189 -2.021 0
M  V30 4345 C 425.784 1.34672 -1.41027 0
M  V30 4346 O 425.054 1.8724 -0.576012 0
M  V30 4347 H 423.634 0.00399774 -0.746989 0
M  V30 4348 H 426.296 -0.695054 -1.82085 0
M  V30 4349 H 425.392 0.11031 -3.11905 0
M  V30 4350 N 425.693 1.55336 -0.266172 0
M  V30 4351 C 426.64 2.22172 0.625165 0
M  V30 4352 C 427.61 1.19211 1.15663 0
M  V30 4353 O 428.795 1.47723 1.20758 0
M  V30 4354 C 425.935 2.93972 1.8076 0
M  V30 4355 C 425.048 4.11632 1.31084 0
M  V30 4356 C 424.183 4.71099 2.45436 0
M  V30 4357 C 423.222 5.8097 1.92718 0
M  V30 4358 N 422.359 6.34538 3.00509 0
M  V30 4359 H 427.199 2.9796 0.0485582 0
M  V30 4360 H 424.736 1.47095 0.0122024 0
M  V30 4361 H 426.694 3.33811 2.50251 0
M  V30 4362 H 425.324 2.20623 2.35638 0
M  V30 4363 H 424.376 3.76975 0.509326 0
M  V30 4364 H 425.688 4.90893 0.884633 0
M  V30 4365 H 424.842 5.13612 3.22936 0
M  V30 4366 H 423.581 3.91096 2.91368 0
M  V30 4367 H 422.586 5.37916 1.13695 0
M  V30 4368 H 423.811 6.62836 1.47733 0
M  V30 4369 H 421.757 5.57433 3.45839 0
M  V30 4370 H 421.674 7.09046 2.62279 0
M  V30 4371 H 422.942 6.81709 3.78011 0
M  V30 4372 N 427.171 -0.0066808 1.57599 0
M  V30 4373 C 428.42 -0.692078 1.89455 0
M  V30 4374 C 428.733 -1.75306 0.867586 0
M  V30 4375 O 429.939 -2.49262 1.07614 0
M  V30 4376 C 428.395 -1.2821 3.36289 0
M  V30 4377 C 428.003 -0.256291 4.47266 0
M  V30 4378 C 429.747 -1.94608 3.77264 0
M  V30 4379 C 427.654 -0.855927 5.85173 0
M  V30 4380 H 426.584 -0.262252 0.706923 0
M  V30 4381 H 429.235 0.052769 1.83424 0
M  V30 4382 H 427.617 -2.0774 3.37135 0
M  V30 4383 H 428.791 0.513923 4.57925 0
M  V30 4384 H 427.106 0.306862 4.15268 0
M  V30 4385 H 429.703 -2.40364 4.77629 0
M  V30 4386 H 430.046 -2.77382 3.10427 0
M  V30 4387 H 430.579 -1.21822 3.78688 0
M  V30 4388 H 427.318 -0.0671161 6.55466 0
M  V30 4389 H 426.838 -1.59546 5.78191 0
M  V30 4390 H 428.517 -1.35658 6.32618 0
M  V30 4391 N 428.649 -1.55105 -0.279332 0
M  V30 4392 C 429.889 -1.7716 -1.01949 0
M  V30 4393 C 430.253 -0.557511 -1.83728 0
M  V30 4394 O 431.454 -0.656198 -2.60667 0
M  V30 4395 C 429.725 -3.0372 -1.88385 0
M  V30 4396 S 431.284 -3.46868 -2.68752 0
M  V30 4397 H 428.102 -0.62253 -0.343478 0
M  V30 4398 H 430.704 -1.93329 -0.290572 0
M  V30 4399 H 429.408 -3.90184 -1.2722 0
M  V30 4400 H 428.939 -2.902 -2.65608 0
M  V30 4401 H 430.954 -3.05643 -3.90892 0
M  V30 4402 N 430.127 0.543554 -1.4793 0
M  V30 4403 C 431.355 1.32516 -1.58894 0
M  V30 4404 C 431.77 1.87215 -0.244131 0
M  V30 4405 O 431.127 1.65709 0.764652 0
M  V30 4406 C 431.178 2.48554 -2.62494 0
M  V30 4407 O 430.899 1.96112 -3.91755 0
M  V30 4408 C 432.4 3.40572 -2.8377 0
M  V30 4409 H 429.62 0.403472 -0.536145 0
M  V30 4410 H 432.164 0.657106 -1.93655 0
M  V30 4411 H 430.319 3.1127 -2.30629 0
M  V30 4412 H 430.733 2.71967 -4.4848 0
M  V30 4413 H 432.207 4.18375 -3.60093 0
M  V30 4414 H 432.684 3.94965 -1.92092 0
M  V30 4415 H 433.29 2.8366 -3.16887 0
M  V30 4416 N 431.605 1.3629 0.791371 0
M  V30 4417 C 432.851 1.30605 1.55146 0
M  V30 4418 C 433.184 -0.115042 1.93859 0
M  V30 4419 O 432.459 -1.06798 1.62556 0
M  V30 4420 C 432.742 2.22692 2.82985 0
M  V30 4421 C 432.595 3.73489 2.50651 0
M  V30 4422 C 433.914 2.13588 3.84796 0
M  V30 4423 H 431.033 0.475761 0.562868 0
M  V30 4424 H 433.675 1.66825 0.909358 0
M  V30 4425 H 431.825 1.91933 3.37778 0
M  V30 4426 H 433.497 4.14758 2.01924 0
M  V30 4427 H 431.74 3.93021 1.83622 0
M  V30 4428 H 432.411 4.3333 3.41949 0
M  V30 4429 H 434.887 2.40659 3.39445 0
M  V30 4430 H 433.763 2.80195 4.71998 0
M  V30 4431 H 434.024 1.12256 4.27611 0
M  V30 4432 N 433.083 -1.0153 1.20538 0
M  V30 4433 C 434.311 -1.78746 1.04199 0
M  V30 4434 C 434.726 -1.84323 -0.408733 0
M  V30 4435 O 434.083 -1.29714 -1.28377 0
M  V30 4436 C 434.134 -3.23152 1.62035 0
M  V30 4437 O 433.855 -3.17918 3.0143 0
M  V30 4438 C 435.356 -4.16911 1.50666 0
M  V30 4439 H 432.576 -0.56208 0.366479 0
M  V30 4440 H 435.12 -1.27794 1.59653 0
M  V30 4441 H 433.275 -3.71248 1.10697 0
M  V30 4442 H 433.689 -4.08567 3.28897 0
M  V30 4443 H 435.163 -5.16072 1.95892 0
M  V30 4444 H 435.64 -4.36791 0.459363 0
M  V30 4445 H 436.246 -3.74698 2.01201 0
M  V30 4446 N 434.561 -1.01147 -1.20859 0
M  V30 4447 C 435.809 -0.696486 -1.89719 0
M  V30 4448 C 436.13 0.775788 -1.78904 0
M  V30 4449 O 435.4 1.55759 -1.18811 0
M  V30 4450 H 433.98 -0.254628 -0.702263 0
M  V30 4451 H 436.642 -1.28197 -1.46804 0
M  V30 4452 H 435.738 -0.975357 -2.96468 0
M  V30 4453 N 436.039 1.36541 -0.78704 0
M  V30 4454 C 437.285 2.00044 -0.367938 0
M  V30 4455 C 437.64 1.61345 1.04812 0
M  V30 4456 O 436.933 0.856936 1.71368 0
M  V30 4457 C 437.127 3.54343 -0.466485 0
M  V30 4458 C 436.956 4.08029 -1.89058 0
M  V30 4459 C 435.726 4.38284 -2.51466 0
M  V30 4460 C 437.924 4.27954 -2.85236 0
M  V30 4461 N 435.906 4.77778 -3.85488 0
M  V30 4462 C 437.277 4.70227 -4.04088 0
M  V30 4463 C 439.332 4.10119 -2.82324 0
M  V30 4464 C 438.035 4.96532 -5.20432 0
M  V30 4465 C 440.061 4.37569 -3.97854 0
M  V30 4466 C 439.423 4.80095 -5.15449 0
M  V30 4467 H 435.522 0.760525 -0.182004 0
M  V30 4468 H 438.106 1.65589 -1.02413 0
M  V30 4469 H 436.277 3.88072 0.159606 0
M  V30 4470 H 438.009 4.04693 -0.0238577 0
M  V30 4471 H 434.764 4.27905 -2.02965 0
M  V30 4472 H 435.188 5.01813 -4.54437 0
M  V30 4473 H 439.83 3.76399 -1.92571 0
M  V30 4474 H 437.548 5.29134 -6.10773 0
M  V30 4475 H 441.134 4.25341 -3.96958 0
M  V30 4476 H 440.014 5.00925 -6.0336 0
M  V30 4477 N 437.518 0.538854 1.48102 0
M  V30 4478 C 438.766 0.00798599 2.02098 0
M  V30 4479 C 439.087 -1.33922 1.41739 0
M  V30 4480 O 438.357 -1.86932 0.585934 0
M  V30 4481 H 436.937 -3.62179e-05 0.747 0
M  V30 4482 H 439.599 0.7047 1.81714 0
M  V30 4483 H 438.695 -0.0937672 3.11959 0
M  V30 4484 N 438.996 -1.55193 0.274407 0
M  V30 4485 C 439.944 -2.23924 -0.629362 0
M  V30 4486 C 440.938 -1.23602 -1.1584 0
M  V30 4487 O 442.144 -1.41535 -1.11211 0
M  V30 4488 H 438.519 -0.718637 -0.221507 0
M  V30 4489 H 440.49 -2.98388 -0.0268322 0
M  V30 4490 C 439.239 -2.97329 -1.80252 0
M  V30 4491 H 438.562 -3.74313 -1.40462 0
M  V30 4492 H 440.002 -3.48743 -2.41152 0
M  V30 4493 C 438.461 -2.0276 -2.69054 0
M  V30 4494 O 438.991 -1.57836 -3.69392 0
M  V30 4495 N 437.197 -1.69275 -2.36208 0
M  V30 4496 H 436.744 -2.06004 -1.54661 0
M  V30 4497 H 436.702 -1.06271 -2.95895 0
M  V30 4498 N 440.474 -0.00167713 -1.576 0
M  V30 4499 C 441.702 0.693759 -1.94922 0
M  V30 4500 C 442.117 1.67215 -0.876626 0
M  V30 4501 O 441.474 1.81929 0.144279 0
M  V30 4502 C 441.525 1.42416 -3.32265 0
M  V30 4503 O 441.246 0.485014 -4.35407 0
M  V30 4504 C 442.747 2.21395 -3.84056 0
M  V30 4505 H 439.967 0.193118 -0.642609 0
M  V30 4506 H 442.511 -0.0532952 -2.04431 0
M  V30 4507 H 440.666 2.12284 -3.24059 0
M  V30 4508 H 441.08 1.00053 -5.14868 0
M  V30 4509 H 442.554 2.67996 -4.82578 0
M  V30 4510 H 443.031 3.04142 -3.16851 0
M  V30 4511 H 443.637 1.56542 -3.95443 0
M  V30 4512 N 441.952 1.55251 0.271103 0
M  V30 4513 C 442.884 1.84675 1.35749 0
M  V30 4514 C 443.897 0.731366 1.45447 0
M  V30 4515 O 445.086 1.00924 1.4723 0
M  V30 4516 C 442.186 1.99638 2.73857 0
M  V30 4517 C 441.359 3.30312 2.86727 0
M  V30 4518 C 440.418 3.35318 4.05522 0
M  V30 4519 O 439.444 4.08682 3.96191 0
M  V30 4520 N 440.646 2.62857 5.17577 0
M  V30 4521 H 443.411 2.78445 1.10853 0
M  V30 4522 H 440.972 1.55191 0.461218 0
M  V30 4523 H 442.964 2.00355 3.51625 0
M  V30 4524 H 441.534 1.12725 2.91568 0
M  V30 4525 H 440.754 3.42118 1.95829 0
M  V30 4526 H 442.042 4.16488 2.92258 0
M  V30 4527 H 441.44 2.02939 5.28046 0
M  V30 4528 H 439.997 2.69295 5.93568 0
M  V30 4529 N 443.43 -0.535701 1.48216 0
M  V30 4530 C 444.66 -1.3148 1.59363 0
M  V30 4531 C 445.068 -1.8753 0.250844 0
M  V30 4532 O 444.411 -1.66821 -0.769174 0
M  V30 4533 C 444.473 -2.50731 2.57632 0
M  V30 4534 C 444.137 -2.15811 4.02833 0
M  V30 4535 C 445.134 -1.71822 4.90686 0
M  V30 4536 C 442.819 -2.26509 4.48329 0
M  V30 4537 C 444.813 -1.3899 6.22062 0
M  V30 4538 C 442.5 -1.93289 5.79726 0
M  V30 4539 C 443.498 -1.49599 6.66415 0
M  V30 4540 O 443.186 -1.16812 7.95368 0
M  V30 4541 H 442.918 -0.406315 0.540263 0
M  V30 4542 H 445.472 -0.653569 1.94725 0
M  V30 4543 H 443.702 -3.19817 2.1738 0
M  V30 4544 H 445.391 -3.12797 2.58675 0
M  V30 4545 H 446.157 -1.63031 4.56778 0
M  V30 4546 H 442.036 -2.59471 3.81045 0
M  V30 4547 H 445.58 -1.04816 6.89681 0
M  V30 4548 H 441.477 -2.01718 6.13172 0
M  V30 4549 H 442.245 -1.30259 8.08069 0
M  V30 4550 N 444.908 -1.36708 -0.784132 0
M  V30 4551 C 446.138 -1.34203 -1.57077 0
M  V30 4552 C 446.546 0.0774945 -1.89041 0
M  V30 4553 O 445.889 1.04628 -1.50992 0
M  V30 4554 C 445.951 -2.10351 -2.91535 0
M  V30 4555 C 445.615 -3.59405 -2.82272 0
M  V30 4556 C 446.612 -4.53545 -2.54151 0
M  V30 4557 C 444.297 -4.02362 -3.00683 0
M  V30 4558 C 446.291 -5.8862 -2.44551 0
M  V30 4559 C 443.978 -5.37526 -2.90704 0
M  V30 4560 C 444.976 -6.30468 -2.62677 0
M  V30 4561 O 444.664 -7.63149 -2.52702 0
M  V30 4562 H 444.396 -0.461791 -0.493685 0
M  V30 4563 H 446.95 -1.80475 -0.980712 0
M  V30 4564 H 445.18 -1.5875 -3.52612 0
M  V30 4565 H 446.869 -2.00636 -3.52845 0
M  V30 4566 H 447.635 -4.21669 -2.39625 0
M  V30 4567 H 443.514 -3.30389 -3.21503 0
M  V30 4568 H 447.058 -6.61133 -2.22596 0
M  V30 4569 H 442.955 -5.69008 -3.04795 0
M  V30 4570 H 443.723 -7.73331 -2.68144 0
M  V30 4571 N 446.386 1.0089 -1.21074 0
M  V30 4572 C 447.634 1.74262 -1.02358 0
M  V30 4573 C 447.955 1.89869 0.444393 0
M  V30 4574 O 447.225 1.44677 1.32081 0
M  V30 4575 H 445.805 0.645615 -0.375754 0
M  V30 4576 H 448.467 1.21596 -1.52317 0
M  V30 4577 H 447.563 2.74328 -1.4883 0
M  V30 4578 N 447.864 1.01787 1.20321 0
M  V30 4579 C 448.796 0.547357 2.22568 0
M  V30 4580 C 449.809 -0.370922 1.58518 0
M  V30 4581 O 450.998 -0.169067 1.77698 0
M  V30 4582 C 448.098 -0.223031 3.38165 0
M  V30 4583 C 447.271 0.697472 4.31803 0
M  V30 4584 C 446.33 -0.025562 5.26194 0
M  V30 4585 O 445.356 0.597367 5.66057 0
M  V30 4586 N 446.558 -1.29999 5.65757 0
M  V30 4587 H 449.323 1.42668 2.63564 0
M  V30 4588 H 446.884 0.895552 1.34876 0
M  V30 4589 H 448.876 -0.716002 3.98316 0
M  V30 4590 H 447.446 -1.00366 2.9605 0
M  V30 4591 H 446.666 1.37073 3.69601 0
M  V30 4592 H 447.954 1.32347 4.91286 0
M  V30 4593 H 447.352 -1.827 5.35385 0
M  V30 4594 H 445.909 -1.73766 6.28211 0
M  V30 4595 N 449.342 -1.36122 0.79427 0
M  V30 4596 C 450.274 -2.28683 0.153903 0
M  V30 4597 C 451.287 -1.49707 -0.639669 0
M  V30 4598 O 452.476 -1.7209 -0.474054 0
M  V30 4599 C 449.576 -3.29202 -0.804921 0
M  V30 4600 C 448.749 -4.37358 -0.060366 0
M  V30 4601 C 447.808 -5.17811 -0.935849 0
M  V30 4602 O 446.834 -5.67853 -0.391309 0
M  V30 4603 N 448.036 -5.34721 -2.25951 0
M  V30 4604 H 450.801 -2.84278 0.949008 0
M  V30 4605 H 448.362 -1.4834 0.648611 0
M  V30 4606 H 450.354 -3.79914 -1.39455 0
M  V30 4607 H 448.924 -2.74212 -1.50088 0
M  V30 4608 H 448.144 -3.87746 0.710382 0
M  V30 4609 H 449.432 -5.06777 0.45324 0
M  V30 4610 H 448.83 -4.95687 -2.72601 0
M  V30 4611 H 447.387 -5.88657 -2.79867 0
M  V30 4612 N 450.82 -0.546701 -1.47814 0
M  V30 4613 C 451.783 0.196287 -2.28358 0
M  V30 4614 C 452.783 0.852437 -1.36346 0
M  V30 4615 O 453.973 0.709913 -1.59078 0
M  V30 4616 C 451.105 1.28579 -3.15722 0
M  V30 4617 H 452.298 -0.511086 -2.95513 0
M  V30 4618 H 449.851 -0.303248 -1.5333 0
M  V30 4619 H 450.586 2.0259 -2.53235 0
M  V30 4620 H 450.371 0.820229 -3.83425 0
M  V30 4621 H 451.861 1.80793 -3.76435 0
M  V30 4622 N 452.299 1.55045 -0.282633 0
M  V30 4623 C 453.547 1.99365 0.331334 0
M  V30 4624 C 453.868 1.1725 1.55812 0
M  V30 4625 O 453.138 0.263871 1.94115 0
M  V30 4626 H 451.718 0.736397 0.125414 0
M  V30 4627 H 454.38 1.90964 -0.389711 0
M  V30 4628 H 453.476 3.0596 0.616036 0
M  V30 4629 N 453.777 0.010035 1.57597 0
M  V30 4630 C 455.023 -0.673697 1.91283 0
M  V30 4631 C 455.356 -1.72863 0.884979 0
M  V30 4632 O 454.631 -1.94268 -0.0949487 0
M  V30 4633 C 454.914 -1.30766 3.35518 0
M  V30 4634 C 454.767 -0.263578 4.49027 0
M  V30 4635 C 456.086 -2.23105 3.79358 0
M  V30 4636 H 453.205 -0.243439 0.695634 0
M  V30 4637 H 455.847 0.0633864 1.89894 0
M  V30 4638 H 453.997 -1.93588 3.36832 0
M  V30 4639 H 455.669 0.365738 4.59848 0
M  V30 4640 H 453.912 0.413077 4.31829 0
M  V30 4641 H 454.583 -0.746398 5.4693 0
M  V30 4642 H 457.059 -1.70289 3.79659 0
M  V30 4643 H 455.935 -2.64424 4.81011 0
M  V30 4644 H 456.196 -3.11433 3.13787 0
M  V30 4645 N 455.255 -1.55392 -0.262866 0
M  V30 4646 C 456.185 -1.91978 -1.32917 0
M  V30 4647 C 457.166 -0.7828 -1.51017 0
M  V30 4648 O 458.351 -1.04178 -1.63892 0
M  V30 4649 C 455.481 -2.20055 -2.68687 0
M  V30 4650 C 454.435 -3.35854 -2.65304 0
M  V30 4651 C 453.761 -3.49435 -4.04721 0
M  V30 4652 C 455.061 -4.71977 -2.23685 0
M  V30 4653 H 456.755 -2.81292 -1.02544 0
M  V30 4654 H 454.301 -1.3534 -0.491846 0
M  V30 4655 H 456.254 -2.44237 -3.43404 0
M  V30 4656 H 454.978 -1.27551 -3.00663 0
M  V30 4657 H 453.637 -3.11655 -1.93045 0
M  V30 4658 H 453.285 -2.54379 -4.33936 0
M  V30 4659 H 452.985 -4.27297 -4.0335 0
M  V30 4660 H 454.509 -3.7592 -4.81161 0
M  V30 4661 H 455.923 -4.95637 -2.88127 0
M  V30 4662 H 454.32 -5.52828 -2.33456 0
M  V30 4663 H 455.39 -4.70115 -1.18827 0
M  V30 4664 N 456.733 0.527833 -1.48498 0
M  V30 4665 C 457.665 1.6482 -1.5927 0
M  V30 4666 C 458.678 1.55659 -0.476869 0
M  V30 4667 O 459.867 1.62081 -0.747806 0
M  V30 4668 C 456.967 3.0348 -1.50842 0
M  V30 4669 C 456.14 3.381 -2.77502 0
M  V30 4670 C 455.199 4.5605 -2.62497 0
M  V30 4671 O 454.225 4.59165 -3.36387 0
M  V30 4672 N 455.427 5.54353 -1.72257 0
M  V30 4673 H 458.192 1.56015 -2.55889 0
M  V30 4674 H 455.753 0.715152 -1.45249 0
M  V30 4675 H 457.745 3.80264 -1.38496 0
M  V30 4676 H 456.315 3.06352 -0.621887 0
M  V30 4677 H 455.535 2.50473 -3.04396 0
M  V30 4678 H 456.823 3.58017 -3.61527 0
M  V30 4679 H 456.221 5.54617 -1.11431 0
M  V30 4680 H 454.778 6.30347 -1.65849 0
M  V30 4681 N 458.211 1.37122 0.776871 0
M  V30 4682 C 459.121 1.34651 1.9211 0
M  V30 4683 C 460.137 0.246824 1.7224 0
M  V30 4684 O 461.313 0.48134 1.95563 0
M  V30 4685 C 458.378 1.14748 3.2716 0
M  V30 4686 C 457.439 2.34308 3.5972 0
M  V30 4687 C 456.672 2.15345 4.88326 0
M  V30 4688 O 456.895 1.13507 5.58992 0
M  V30 4689 O 455.829 3.03414 5.1983 0
M  V30 4690 H 459.655 2.31013 1.97146 0
M  V30 4691 H 457.24 1.17799 0.918901 0
M  V30 4692 H 459.122 1.05616 4.0795 0
M  V30 4693 H 457.797 0.214562 3.22988 0
M  V30 4694 H 456.704 2.49011 2.79185 0
M  V30 4695 H 458.037 3.26149 3.68629 0
M  V30 4696 N 459.689 -1.00246 1.21608 0
M  V30 4697 C 460.652 -2.07233 0.979133 0
M  V30 4698 C 461.652 -1.6072 -0.0508219 0
M  V30 4699 O 462.842 -1.73196 0.186712 0
M  V30 4700 C 459.974 -3.37546 0.477016 0
M  V30 4701 H 461.167 -2.29687 1.92831 0
M  V30 4702 H 458.72 -1.17261 1.03342 0
M  V30 4703 H 459.455 -3.20773 -0.476966 0
M  V30 4704 H 459.24 -3.72638 1.21997 0
M  V30 4705 H 460.73 -4.16285 0.331181 0
M  V30 4706 N 461.167 -1.02423 -1.1978 0
M  V30 4707 C 462.583 -0.740459 -1.41384 0
M  V30 4708 C 462.783 0.676827 -1.89793 0
M  V30 4709 O 461.839 1.4435 -2.0717 0
M  V30 4710 C 463.152 -1.77264 -2.42895 0
M  V30 4711 C 464.7 -1.79165 -2.56649 0
M  V30 4712 C 465.175 -2.8133 -3.6141 0
M  V30 4713 N 466.666 -2.80118 -3.68901 0
M  V30 4714 C 467.401 -3.55824 -4.49641 0
M  V30 4715 N 466.897 -4.41231 -5.34123 0
M  V30 4716 N 468.69 -3.44387 -4.44246 0
M  V30 4717 H 460.841 -1.9391 -0.866764 0
M  V30 4718 H 463.104 -0.838074 -0.443098 0
M  V30 4719 H 462.81 -2.7884 -2.14339 0
M  V30 4720 H 462.684 -1.59108 -3.42001 0
M  V30 4721 H 465.071 -0.782702 -2.84531 0
M  V30 4722 H 465.152 -2.01396 -1.57713 0
M  V30 4723 H 464.796 -3.82394 -3.34271 0
M  V30 4724 H 464.726 -2.56359 -4.59986 0
M  V30 4725 H 467.217 -2.1817 -3.08562 0
M  V30 4726 H 467.53 -4.95747 -5.92836 0
M  V30 4727 H 465.875 -4.45306 -5.33599 0
M  V30 4728 H 469.066 -2.7708 -3.77285 0
M  V30 4729 H 469.239 -4.0364 -5.06931 0
M  V30 4730 N 462.645 1.35699 -0.801477 0
M  V30 4731 C 463.891 1.99208 -0.380022 0
M  V30 4732 C 464.224 1.63445 1.04878 0
M  V30 4733 O 463.499 0.895223 1.72673 0
M  V30 4734 C 463.782 3.55755 -0.557708 0
M  V30 4735 C 463.635 4.01332 -2.03107 0
M  V30 4736 C 464.954 4.40096 0.0197968 0
M  V30 4737 H 462.073 0.723667 -0.139552 0
M  V30 4738 H 464.715 1.60928 -1.01006 0
M  V30 4739 H 462.865 3.88494 -0.0213741 0
M  V30 4740 H 464.537 3.79026 -2.62939 0
M  V30 4741 H 462.78 3.52429 -2.52936 0
M  V30 4742 H 463.451 5.10234 -2.1063 0
M  V30 4743 H 465.927 4.13786 -0.438179 0
M  V30 4744 H 464.803 5.48735 -0.134477 0
M  V30 4745 H 465.064 4.2786 1.11303 0
M  V30 4746 N 464.123 0.554532 1.47522 0
M  V30 4747 C 465.534 0.120446 1.86311 0
M  V30 4748 C 465.885 -1.30904 1.46145 0
M  V30 4749 O 465.01 -1.98434 0.863294 0
M  V30 4750 C 465.605 0.211808 3.38137 0
M  V30 4751 C 464.164 -0.167224 3.76028 0
M  V30 4752 C 463.311 0.560576 2.71575 0
M  V30 4753 H 466.262 0.764408 1.39077 0
M  V30 4754 H 466.283 -0.570275 3.76202 0
M  V30 4755 H 465.795 1.25232 3.6734 0
M  V30 4756 H 463.896 -1.20894 3.52442 0
M  V30 4757 H 464.009 0.189473 4.78725 0
M  V30 4758 H 462.373 0.00396836 2.547 0
M  V30 4759 H 463.156 1.60219 3.0362 0
M  V30 4760 N 465.601 -1.54893 0.290851 0
M  V30 4761 C 466.85 -1.99111 -0.322113 0
M  V30 4762 C 467.163 -1.18283 -1.55784 0
M  V30 4763 O 468.369 -1.5272 -2.24475 0
M  V30 4764 C 466.825 -3.54442 -0.624438 0
M  V30 4765 C 466.433 -4.44066 0.592373 0
M  V30 4766 C 468.177 -4.07211 -1.19916 0
M  V30 4767 C 466.084 -5.90812 0.263762 0
M  V30 4768 H 465.014 -0.743712 -0.124133 0
M  V30 4769 H 467.665 -1.79132 0.39797 0
M  V30 4770 H 466.047 -3.70281 -1.40384 0
M  V30 4771 H 467.221 -4.39999 1.36886 0
M  V30 4772 H 465.536 -4.02015 1.08502 0
M  V30 4773 H 468.133 -5.14407 -1.45909 0
M  V30 4774 H 468.476 -3.57196 -2.13815 0
M  V30 4775 H 469.009 -3.94873 -0.481687 0
M  V30 4776 H 465.748 -6.44955 1.17105 0
M  V30 4777 H 465.268 -5.97911 -0.475655 0
M  V30 4778 H 466.947 -6.46852 -0.138354 0
M  V30 4779 N 467.08 -0.0183926 -1.57589 0
M  V30 4780 C 468.329 0.66185 -1.90532 0
M  V30 4781 C 468.642 1.73904 -0.895366 0
M  V30 4782 O 469.848 2.47518 -1.11566 0
M  V30 4783 C 468.304 1.22844 -3.38286 0
M  V30 4784 C 467.912 0.185103 -4.47617 0
M  V30 4785 C 469.656 1.88581 -3.80312 0
M  V30 4786 C 467.563 0.762723 -5.86461 0
M  V30 4787 H 466.493 0.250972 -0.711006 0
M  V30 4788 H 469.144 -0.0819435 -1.83317 0
M  V30 4789 H 467.526 2.0235 -3.40398 0
M  V30 4790 H 468.7 -0.58671 -4.5705 0
M  V30 4791 H 467.015 -0.372889 -4.14727 0
M  V30 4792 H 469.612 2.32735 -4.81392 0
M  V30 4793 H 469.955 2.72408 -3.14801 0
M  V30 4794 H 470.488 1.15782 -3.80578 0
M  V30 4795 H 467.227 -0.0371713 -6.55489 0
M  V30 4796 H 466.747 1.50327 -5.80656 0
M  V30 4797 H 468.426 1.25576 -6.34697 0
M  V30 4798 N 468.558 1.5553 0.254621 0
M  V30 4799 C 469.783 1.81383 1.00573 0
M  V30 4800 C 470.208 0.594419 1.78461 0
M  V30 4801 O 469.566 -0.456403 1.75461 0
M  V30 4802 C 469.614 3.04892 1.92545 0
M  V30 4803 O 468.718 2.81266 3.01601 0
M  V30 4804 H 468.059 0.598969 0.286587 0
M  V30 4805 H 470.589 2.02703 0.277952 0
M  V30 4806 H 470.599 3.34119 2.34155 0
M  V30 4807 H 469.274 3.93287 1.3527 0
M  V30 4808 H 467.851 2.63185 2.64174 0
M  V30 4809 N 470.036 -0.519951 1.48776 0
M  V30 4810 C 470.984 -1.64443 1.64503 0
M  V30 4811 C 471.978 -1.61501 0.511248 0
M  V30 4812 O 473.184 -1.66238 0.690294 0
M  V30 4813 H 469.559 -0.544776 0.518385 0
M  V30 4814 H 471.53 -1.48325 2.58925 0
M  V30 4815 C 470.279 -3.02673 1.71127 0
M  V30 4816 H 469.602 -3.05635 2.57735 0
M  V30 4817 H 471.042 -3.80941 1.86172 0
M  V30 4818 C 469.501 -3.33854 0.452032 0
M  V30 4819 O 470.031 -3.99385 -0.430678 0
M  V30 4820 N 468.237 -2.88825 0.32069 0
M  V30 4821 H 467.784 -2.35674 1.03998 0
M  V30 4822 H 467.742 -3.10056 -0.520814 0
M  V30 4823 N 471.514 -1.37532 -0.769588 0
M  V30 4824 C 472.791 -1.23392 -1.51768 0
M  V30 4825 C 473.171 0.17157 -2.10402 0
M  V30 4826 O 472.519 1.17943 -1.95708 0
M  V30 4827 C 472.729 -2.33163 -2.59685 0
M  V30 4828 C 474.077 -2.70809 -3.27028 0
M  V30 4829 O 475.101 -2.32355 -2.69981 0
M  V30 4830 O 473.96 -3.37066 -4.30173 0
M  V30 4831 H 471.054 -0.481617 -0.67229 0
M  V30 4832 H 473.6 -1.49318 -0.806368 0
M  V30 4833 H 472.372 -3.27273 -2.14494 0
M  V30 4834 H 471.995 -2.08713 -3.38415 0
M  V30 4835 N 472.992 0.995999 -1.22138 0
M  V30 4836 C 474.238 1.73767 -1.04561 0
M  V30 4837 C 474.571 1.89633 0.418698 0
M  V30 4838 O 473.846 1.43723 1.3105 0
M  V30 4839 C 474.129 3.14505 -1.75382 0
M  V30 4840 C 473.982 3.06306 -3.29388 0
M  V30 4841 C 475.301 4.13615 -1.50369 0
M  V30 4842 H 472.42 0.630728 -0.38125 0
M  V30 4843 H 475.062 1.16057 -1.50435 0
M  V30 4844 H 473.212 3.63775 -1.36383 0
M  V30 4845 H 474.884 2.64681 -3.77812 0
M  V30 4846 H 473.127 2.43186 -3.59226 0
M  V30 4847 H 473.798 4.05884 -3.74116 0
M  V30 4848 H 476.274 3.73089 -1.84239 0
M  V30 4849 H 475.15 5.10212 -2.02421 0
M  V30 4850 H 475.411 4.39949 -0.435611 0
M  V30 4851 N 474.47 1.03057 1.19235 0
M  V30 4852 C 475.71 0.736757 1.9066 0
M  V30 4853 C 476.074 -0.721521 1.77927 0
M  V30 4854 O 477.275 -1.12849 2.43964 0
M  V30 4855 C 475.546 1.17755 3.37444 0
M  V30 4856 S 477.105 1.00783 4.27069 0
M  V30 4857 H 473.923 0.268174 0.658486 0
M  V30 4858 H 476.525 1.32076 1.4414 0
M  V30 4859 H 475.229 2.23448 3.44237 0
M  V30 4860 H 474.76 0.586912 3.88997 0
M  V30 4861 H 476.775 -0.0806356 4.96134 0
M  V30 4862 N 475.948 -1.35272 0.808662 0
M  V30 4863 C 476.896 -2.31663 0.208606 0
M  V30 4864 C 477.89 -1.56731 -0.642778 0
M  V30 4865 O 479.096 -1.71843 -0.53571 0
M  V30 4866 H 475.471 -0.750421 0.0486993 0
M  V30 4867 H 477.442 -2.79814 1.03666 0
M  V30 4868 C 476.191 -3.42008 -0.626573 0
M  V30 4869 H 475.514 -3.99795 0.0192103 0
M  V30 4870 H 476.954 -4.11727 -1.01278 0
M  V30 4871 C 475.413 -2.85226 -1.79298 0
M  V30 4872 O 475.943 -2.78945 -2.89055 0
M  V30 4873 N 474.149 -2.42245 -1.60516 0
M  V30 4874 H 473.696 -2.47554 -0.712375 0
M  V30 4875 H 473.654 -2.04603 -2.38715 0
M  V30 4876 N 477.426 -0.562348 -1.47226 0
M  V30 4877 C 478.674 -0.0401371 -2.0206 0
M  V30 4878 C 478.995 1.3165 -1.43852 0
M  V30 4879 O 478.265 1.85976 -0.615599 0
M  V30 4880 H 476.845 -0.0118479 -0.746906 0
M  V30 4881 H 479.507 -0.73352 -1.8057 0
M  V30 4882 H 478.603 0.0441254 -3.12069 0
M  V30 4883 N 478.904 1.54736 -0.299062 0
M  V30 4884 C 479.867 2.22127 0.565012 0
M  V30 4885 C 480.867 1.20669 1.06281 0
M  V30 4886 O 482.057 1.45417 0.959145 0
M  V30 4887 C 479.189 2.90611 1.78208 0
M  V30 4888 H 480.382 2.99891 -0.0237448 0
M  V30 4889 H 477.935 1.5622 -0.0498788 0
M  V30 4890 H 478.67 2.16921 2.41072 0
M  V30 4891 H 478.455 3.64984 1.43281 0
M  V30 4892 H 479.945 3.42026 2.396 0
M  V30 4893 N 480.382 0.0267497 1.57577 0
M  V30 4894 C 481.659 -0.690926 1.82991 0
M  V30 4895 C 482.039 -1.90471 0.910164 0
M  V30 4896 O 481.387 -2.28474 -0.0347985 0
M  V30 4897 C 481.597 -1.07139 3.32148 0
M  V30 4898 C 482.945 -1.46402 3.98562 0
M  V30 4899 O 483.969 -1.16443 3.36629 0
M  V30 4900 O 482.828 -2.02214 5.07712 0
M  V30 4901 H 479.922 -0.338747 0.75444 0
M  V30 4902 H 482.468 0.0542506 1.69613 0
M  V30 4903 H 481.24 -0.207394 3.9075 0
M  V30 4904 H 480.863 -1.87481 3.50623 0
M  V30 4905 N 481.861 -1.55662 -0.24637 0
M  V30 4906 C 483.108 -1.77519 -0.974335 0
M  V30 4907 C 483.436 -0.591165 -1.85298 0
M  V30 4908 O 482.691 0.425497 -1.91018 0
M  V30 4909 C 482.99 -3.04885 -1.86494 0
M  V30 4910 C 482.656 -4.36209 -1.14161 0
M  V30 4911 C 481.318 -4.71896 -0.941701 0
M  V30 4912 C 483.67 -5.17391 -0.628957 0
M  V30 4913 C 480.998 -5.86299 -0.216852 0
M  V30 4914 C 483.35 -6.32546 0.0824273 0
M  V30 4915 C 482.014 -6.66853 0.293807 0
M  V30 4916 H 481.284 -0.649588 -0.356535 0
M  V30 4917 H 483.931 -1.89934 -0.244394 0
M  V30 4918 H 482.236 -2.87484 -2.66196 0
M  V30 4919 H 483.933 -3.18994 -2.42989 0
M  V30 4920 H 480.523 -4.08174 -1.30736 0
M  V30 4921 H 484.707 -4.90276 -0.770943 0
M  V30 4922 H 479.963 -6.11385 -0.0426124 0
M  V30 4923 H 484.137 -6.94693 0.487292 0
M  V30 4924 H 481.764 -7.55349 0.857428 0
M  V30 4925 N 483.339 0.512053 -1.4905 0
M  V30 4926 C 484.569 1.28928 -1.61434 0
M  V30 4927 C 484.977 1.87107 -0.280647 0
M  V30 4928 O 484.32 1.68024 0.742537 0
M  V30 4929 C 484.382 2.466 -2.61588 0
M  V30 4930 C 484.046 2.09375 -4.06216 0
M  V30 4931 C 485.043 1.63994 -4.93358 0
M  V30 4932 C 482.728 2.19348 -4.51876 0
M  V30 4933 C 484.722 1.29076 -6.24194 0
M  V30 4934 C 482.409 1.84041 -5.82728 0
M  V30 4935 C 483.407 1.38978 -6.68711 0
M  V30 4936 O 483.095 1.04144 -7.97126 0
M  V30 4937 H 482.827 0.397668 -0.546659 0
M  V30 4938 H 485.381 0.622507 -1.9574 0
M  V30 4939 H 483.611 3.16318 -2.22441 0
M  V30 4940 H 485.3 3.08642 -2.63619 0
M  V30 4941 H 486.066 1.55744 -4.59313 0
M  V30 4942 H 481.945 2.53376 -3.85125 0
M  V30 4943 H 485.489 0.938303 -6.91261 0
M  V30 4944 H 481.386 1.91938 -6.16304 0
M  V30 4945 H 482.154 1.17387 -8.10039 0
M  V30 4946 N 484.817 1.37938 0.762283 0
M  V30 4947 C 486.065 1.33404 1.51815 0
M  V30 4948 C 486.386 -0.0780975 1.94844 0
M  V30 4949 O 485.656 -1.02405 1.67003 0
M  V30 4950 H 484.236 0.490839 0.563104 0
M  V30 4951 H 486.898 1.72527 0.906669 0
M  V30 4952 H 485.994 1.97926 2.41313 0
M  V30 4953 N 486.295 -0.989507 1.22664 0
M  V30 4954 C 487.243 -2.10148 0.997035 0
M  V30 4955 C 488.237 -1.6929 -0.0609783 0
M  V30 4956 O 489.443 -1.79766 0.0917523 0
M  V30 4957 H 485.818 -0.687256 0.305259 0
M  V30 4958 H 487.789 -2.26685 1.94053 0
M  V30 4959 C 486.538 -3.4257 0.595085 0
M  V30 4960 H 485.861 -3.74453 1.40089 0
M  V30 4961 H 487.301 -4.21344 0.473869 0
M  V30 4962 C 485.76 -3.29638 -0.695725 0
M  V30 4963 O 486.29 -3.61709 -1.74727 0
M  V30 4964 N 484.496 -2.82814 -0.668173 0
M  V30 4965 H 484.043 -2.56914 0.18787 0
M  V30 4966 H 484.001 -2.74544 -1.5321 0
M  V30 4967 N 487.773 -1.03688 -1.18687 0
M  V30 4968 C 488.705 -0.582696 -2.21669 0
M  V30 4969 C 489.718 0.345656 -1.59088 0
M  V30 4970 O 490.907 0.140776 -1.77944 0
M  V30 4971 C 488.007 0.169204 -3.38477 0
M  V30 4972 C 487.18 -0.766079 -4.30639 0
M  V30 4973 C 486.239 -0.0581541 -5.26168 0
M  V30 4974 O 485.265 -0.687346 -5.65035 0
M  V30 4975 N 486.467 1.20981 -5.67753 0
M  V30 4976 H 489.232 -1.46843 -2.61261 0
M  V30 4977 H 486.793 -0.916896 -1.33434 0
M  V30 4978 H 488.785 0.652543 -3.99405 0
M  V30 4979 H 487.355 0.956435 -2.97609 0
M  V30 4980 H 486.575 -1.42935 -3.67373 0
M  V30 4981 H 487.863 -1.40146 -4.89118 0
M  V30 4982 H 487.261 1.74159 -5.38224 0
M  V30 4983 H 485.818 1.6375 -6.30896 0
M  V30 4984 N 489.251 1.34841 -0.815825 0
M  V30 4985 C 490.5 1.97755 -0.396976 0
M  V30 4986 C 490.813 1.65422 1.04379 0
M  V30 4987 O 492.019 2.21771 1.5662 0
M  V30 4988 C 490.475 3.53818 -0.658869 0
M  V30 4989 C 490.083 3.95051 -2.11278 0
M  V30 4990 C 491.827 4.23397 -0.305834 0
M  V30 4991 C 489.734 5.43997 -2.31994 0
M  V30 4992 H 488.664 0.739985 -0.1447 0
M  V30 4993 H 491.315 1.53781 -1.00118 0
M  V30 4994 H 489.697 3.95997 0.0154112 0
M  V30 4995 H 490.871 3.63998 -2.82564 0
M  V30 4996 H 489.186 3.38388 -2.42657 0
M  V30 4997 H 491.783 5.32899 -0.43854 0
M  V30 4998 H 492.126 4.09508 0.748952 0
M  V30 4999 H 492.659 3.8667 -0.934403 0
M  V30 5000 H 489.398 5.62865 -3.35952 0
M  V30 5001 H 488.918 5.76589 -1.65244 0
M  V30 5002 H 490.597 6.10584 -2.14001 0
M  V30 5003 N 490.729 0.570148 1.46925 0
M  V30 5004 C 491.676 -0.170257 2.30171 0
M  V30 5005 C 492.646 -0.896099 1.39855 0
M  V30 5006 O 493.831 -0.889248 1.68811 0
M  V30 5007 C 490.971 -1.18605 3.24079 0
M  V30 5008 C 490.084 -0.464947 4.29491 0
M  V30 5009 C 489.219 -1.46716 5.10537 0
M  V30 5010 C 488.258 -0.731758 6.0771 0
M  V30 5011 N 487.395 -1.68142 6.81669 0
M  V30 5012 H 492.235 0.545713 2.92961 0
M  V30 5013 H 489.772 0.280938 1.44392 0
M  V30 5014 H 491.73 -1.78771 3.76957 0
M  V30 5015 H 490.36 -1.86989 2.63125 0
M  V30 5016 H 489.412 0.251506 3.79568 0
M  V30 5017 H 490.724 0.110548 4.98677 0
M  V30 5018 H 489.878 -2.14199 5.6763 0
M  V30 5019 H 488.617 -2.07658 4.41282 0
M  V30 5020 H 487.622 -0.0430787 5.49783 0
M  V30 5021 H 488.847 -0.127904 6.7898 0
M  V30 5022 H 486.793 -2.27918 6.15134 0
M  V30 5023 H 486.71 -1.15841 7.47072 0
M  V30 5024 H 487.978 -2.347 7.43328 0
M  V30 5025 N 492.207 -1.54576 0.307264 0
M  V30 5026 C 493.618 -1.8579 -0.184121 0
M  V30 5027 C 493.969 -1.22914 -1.52927 0
M  V30 5028 O 493.094 -0.529126 -2.09831 0
M  V30 5029 C 493.689 -3.37081 -0.340862 0
M  V30 5030 C 492.248 -3.68304 -0.776465 0
M  V30 5031 C 491.395 -2.77076 0.111503 0
M  V30 5032 H 494.346 -1.49656 0.528078 0
M  V30 5033 H 494.367 -3.61922 -1.17443 0
M  V30 5034 H 493.879 -3.82815 0.638309 0
M  V30 5035 H 491.98 -3.28092 -1.76596 0
M  V30 5036 H 492.093 -4.75434 -0.591512 0
M  V30 5037 H 490.457 -2.51374 -0.410256 0
M  V30 5038 H 491.24 -3.25632 1.08714 0
M  V30 5039 N 493.685 -0.035106 -1.57561 0
M  V30 5040 C 494.632 0.94474 -2.10578 0
M  V30 5041 C 495.602 1.3192 -1.00927 0
M  V30 5042 O 496.787 1.41147 -1.28382 0
M  V30 5043 C 493.927 2.21982 -2.64231 0
M  V30 5044 C 493.04 1.90128 -3.87911 0
M  V30 5045 C 492.175 3.11975 -4.29936 0
M  V30 5046 C 491.214 2.75968 -5.46359 0
M  V30 5047 N 490.351 3.90459 -5.83512 0
M  V30 5048 H 495.191 0.485717 -2.94015 0
M  V30 5049 H 492.728 0.228143 -1.4532 0
M  V30 5050 H 494.686 2.96572 -2.9343 0
M  V30 5051 H 493.316 2.6549 -1.83616 0
M  V30 5052 H 492.368 1.05755 -3.65404 0
M  V30 5053 H 493.68 1.59613 -4.72573 0
M  V30 5054 H 492.834 3.9488 -4.60603 0
M  V30 5055 H 491.573 3.45657 -3.44053 0
M  V30 5056 H 490.578 1.91478 -5.1538 0
M  V30 5057 H 491.803 2.43497 -6.33945 0
M  V30 5058 H 489.749 4.23971 -5.00584 0
M  V30 5059 H 489.666 3.63588 -6.62827 0
M  V30 5060 H 490.934 4.7405 -6.18787 0
M  V30 5061 N 495.163 1.55791 0.238111 0
M  V30 5062 C 496.096 1.86036 1.32158 0
M  V30 5063 C 497.074 0.716216 1.45976 0
M  V30 5064 O 498.258 0.962882 1.62052 0
M  V30 5065 C 495.385 2.05281 2.69402 0
M  V30 5066 C 494.431 3.27939 2.72687 0
M  V30 5067 S 495.264 4.84342 2.28413 0
M  V30 5068 C 496.42 5.06604 3.67565 0
M  V30 5069 H 496.653 2.77644 1.06306 0
M  V30 5070 H 494.186 1.48012 0.439537 0
M  V30 5071 H 496.144 2.17053 3.48423 0
M  V30 5072 H 494.805 1.14499 2.92487 0
M  V30 5073 H 493.998 3.38398 3.73501 0
M  V30 5074 H 493.6 3.14938 2.01717 0
M  V30 5075 H 495.892 4.94486 4.6313 0
M  V30 5076 H 496.835 6.08554 3.62033 0
M  V30 5077 H 497.243 4.34409 3.60485 0
M  V30 5078 N 496.642 -0.504142 1.49319 0
M  V30 5079 C 497.889 -1.25846 1.58647 0
M  V30 5080 C 498.217 -1.92592 0.27177 0
M  V30 5081 O 497.472 -1.81167 -0.74007 0
M  V30 5082 C 497.771 -2.35021 2.69258 0
M  V30 5083 C 497.437 -1.85755 4.1086 0
M  V30 5084 C 496.099 -1.72038 4.49395 0
M  V30 5085 C 498.451 -1.48844 4.99495 0
M  V30 5086 C 495.779 -1.19783 5.74342 0
M  V30 5087 C 498.131 -0.980422 6.24956 0
M  V30 5088 C 496.795 -0.829622 6.62324 0
M  V30 5089 H 496.065 -0.460505 0.580531 0
M  V30 5090 H 498.712 -0.559716 1.83138 0
M  V30 5091 H 497.017 -3.10672 2.38726 0
M  V30 5092 H 498.714 -2.93083 2.73685 0
M  V30 5093 H 495.304 -1.9739 3.80441 0
M  V30 5094 H 499.488 -1.5829 4.70381 0
M  V30 5095 H 494.744 -1.06817 6.01997 0
M  V30 5096 H 498.918 -0.685608 6.93017 0
M  V30 5097 H 496.545 -0.42253 7.59025 0
M  V30 5098 N 498.12 -1.38341 -0.754957 0
M  V30 5099 C 499.36 -1.35888 -1.52689 0
M  V30 5100 C 499.724 0.0513682 -1.91931 0
M  V30 5101 O 500.925 0.200761 -2.68049 0
M  V30 5102 C 499.196 -2.28666 -2.74676 0
M  V30 5103 S 500.755 -2.4422 -3.64558 0
M  V30 5104 H 497.573 -0.482165 -0.522531 0
M  V30 5105 H 500.175 -1.74253 -0.886358 0
M  V30 5106 H 498.879 -3.30023 -2.43953 0
M  V30 5107 H 498.41 -1.91445 -3.43675 0
M  V30 5108 H 500.425 -1.66525 -4.67423 0
M  V30 5109 N 499.598 0.982988 -1.23187 0
M  V30 5110 C 500.561 2.05649 -1.01198 0
M  V30 5111 C 501.561 1.6078 0.0252464 0
M  V30 5112 O 502.751 1.72878 -0.214243 0
M  V30 5113 C 499.883 3.36744 -0.530656 0
M  V30 5114 H 501.076 2.2659 -1.96461 0
M  V30 5115 H 498.629 1.15602 -1.05195 0
M  V30 5116 H 499.364 3.21492 0.425873 0
M  V30 5117 H 499.149 3.7065 -1.2791 0
M  V30 5118 H 500.639 4.15705 -0.397366 0
M  V30 5119 N 501.076 1.04316 1.18135 0
M  V30 5120 C 502.324 0.746542 1.87806 0
M  V30 5121 C 502.645 -0.728082 1.80898 0
M  V30 5122 O 501.915 -1.52554 1.22899 0
M  V30 5123 H 500.495 0.273157 0.695265 0
M  V30 5124 H 503.157 1.32044 1.43354 0
M  V30 5125 H 502.253 1.05362 2.93778 0
M  V30 5126 N 502.554 -1.34406 0.822964 0
M  V30 5127 C 503.784 -2.02214 0.423424 0
M  V30 5128 C 504.192 -1.62124 -0.975322 0
M  V30 5129 O 503.535 -0.822452 -1.6426 0
M  V30 5130 C 503.597 -3.56721 0.446107 0
M  V30 5131 C 503.261 -4.20136 1.79819 0
M  V30 5132 C 504.258 -4.4065 2.75904 0
M  V30 5133 C 501.943 -4.56906 2.08669 0
M  V30 5134 C 503.937 -4.9706 3.99012 0
M  V30 5135 C 501.624 -5.13026 3.32036 0
M  V30 5136 C 502.622 -5.33047 4.27024 0
M  V30 5137 O 502.31 -5.87979 5.48211 0
M  V30 5138 H 502.042 -0.654748 0.168169 0
M  V30 5139 H 504.596 -1.72659 1.11257 0
M  V30 5140 H 502.826 -3.85537 -0.299734 0
M  V30 5141 H 504.515 -4.05845 0.0666114 0
M  V30 5142 H 505.281 -4.12607 2.54912 0
M  V30 5143 H 501.16 -4.40626 1.35535 0
M  V30 5144 H 504.704 -5.12603 4.73164 0
M  V30 5145 H 500.601 -5.40498 3.52891 0
M  V30 5146 H 501.369 -6.06413 5.49732 0
M  V30 5147 N 504.032 -0.577932 -1.46621 0
M  V30 5148 C 505.443 -0.150071 -1.86096 0
M  V30 5149 C 505.794 1.28563 -1.48209 0
M  V30 5150 O 504.919 1.97036 -0.894754 0
M  V30 5151 C 505.514 -0.265576 -3.37758 0
M  V30 5152 C 504.073 0.10738 -3.76247 0
M  V30 5153 C 503.22 -0.603711 -2.70649 0
M  V30 5154 H 506.171 -0.786438 -1.37844 0
M  V30 5155 H 506.192 0.510352 -3.77062 0
M  V30 5156 H 505.704 -1.3106 -3.65301 0
M  V30 5157 H 503.805 1.15272 -3.54321 0
M  V30 5158 H 503.918 -0.26561 -4.78363 0
M  V30 5159 H 502.282 -0.0444884 -2.54661 0
M  V30 5160 H 503.065 -1.65029 -3.01032 0
M  V30 5161 N 505.51 1.54411 -0.315457 0
M  V30 5162 C 506.42 2.27737 0.56329 0
M  V30 5163 C 507.436 1.31787 1.13614 0
M  V30 5164 O 508.612 1.64791 1.15784 0
M  V30 5165 C 505.677 3.01478 1.71207 0
M  V30 5166 C 504.738 4.12997 1.17185 0
M  V30 5167 C 503.971 4.83212 2.26588 0
M  V30 5168 O 504.194 4.52884 3.46775 0
M  V30 5169 O 503.128 5.70299 1.92463 0
M  V30 5170 H 506.954 3.03683 -0.0319614 0
M  V30 5171 H 504.539 1.49178 -0.0814188 0
M  V30 5172 H 506.421 3.47683 2.38106 0
M  V30 5173 H 505.096 2.28414 2.29366 0
M  V30 5174 H 504.003 3.71159 0.468174 0
M  V30 5175 H 505.336 4.8808 0.635501 0
M  V30 5176 N 506.988 0.0434614 1.5754 0
M  V30 5177 C 508.236 -0.630786 1.92004 0
M  V30 5178 C 508.557 -1.71836 0.921807 0
M  V30 5179 O 507.827 -1.9587 -0.034522 0
M  V30 5180 H 506.407 -0.235988 0.708745 0
M  V30 5181 H 509.069 0.0946462 1.9467 0
M  V30 5182 H 508.165 -1.07434 2.93026 0
M  V30 5183 N 508.466 -1.55915 -0.229846 0
M  V30 5184 C 509.714 -1.7819 -0.953565 0
M  V30 5185 C 510.035 -0.610504 -1.85197 0
M  V30 5186 O 509.305 0.372988 -1.92316 0
M  V30 5187 H 507.885 -0.657208 -0.355087 0
M  V30 5188 H 510.547 -1.9337 -0.243693 0
M  V30 5189 H 509.643 -2.70011 -1.56527 0
M  V30 5190 N 509.944 0.496216 -1.49584 0
M  V30 5191 C 511.193 1.24668 -1.58558 0
M  V30 5192 C 511.506 1.9359 -0.279703 0
M  V30 5193 O 512.712 2.70365 -0.248048 0
M  V30 5194 C 511.168 2.26388 -2.79779 0
M  V30 5195 C 510.776 1.63384 -4.17145 0
M  V30 5196 C 512.52 3.02233 -2.98086 0
M  V30 5197 C 510.427 2.63243 -5.29582 0
M  V30 5198 H 509.357 0.468995 -0.590389 0
M  V30 5199 H 512.008 0.519985 -1.75978 0
M  V30 5200 H 510.39 3.02241 -2.55863 0
M  V30 5201 H 511.564 0.93491 -4.51216 0
M  V30 5202 H 509.879 0.999121 -4.04236 0
M  V30 5203 H 512.476 3.76919 -3.79257 0
M  V30 5204 H 512.819 3.60132 -2.08831 0
M  V30 5205 H 513.352 2.33495 -3.22063 0
M  V30 5206 H 510.091 2.10119 -6.20911 0
M  V30 5207 H 509.611 3.31363 -4.99959 0
M  V30 5208 H 511.29 3.25575 -5.59115 0
M  V30 5209 N 511.423 1.38739 0.74761 0
M  V30 5210 C 512.7 1.25791 1.49786 0
M  V30 5211 C 513.08 -0.138075 2.10648 0
M  V30 5212 O 512.428 -1.14815 1.9756 0
M  V30 5213 C 512.638 2.37265 2.55942 0
M  V30 5214 C 513.986 2.75978 3.22679 0
M  V30 5215 O 515.01 2.36621 2.6625 0
M  V30 5216 O 513.869 3.43867 4.24756 0
M  V30 5217 H 510.963 0.492251 0.664543 0
M  V30 5218 H 513.509 1.50582 0.782511 0
M  V30 5219 H 512.281 3.30644 2.0926 0
M  V30 5220 H 511.904 2.14071 3.35051 0
M  V30 5221 N 512.901 -0.976442 1.23707 0
M  V30 5222 C 513.864 -2.0511 1.02287 0
M  V30 5223 C 514.864 -1.60791 -0.0167195 0
M  V30 5224 O 516.054 -1.72761 0.223408 0
M  V30 5225 C 513.186 -3.36458 0.548507 0
M  V30 5226 H 514.379 -2.25545 1.9766 0
M  V30 5227 H 511.932 -1.15042 1.05806 0
M  V30 5228 H 512.667 -3.21713 -0.408818 0
M  V30 5229 H 512.452 -3.69967 1.29874 0
M  V30 5230 H 513.942 -4.15489 0.419406 0
M  V30 5231 N 514.379 -1.04941 -1.1758 0
M  V30 5232 C 515.619 -0.766996 -1.89464 0
M  V30 5233 C 515.983 0.693123 -1.79053 0
M  V30 5234 O 517.184 1.08953 -2.45729 0
M  V30 5235 C 515.455 -1.23108 -3.35528 0
M  V30 5236 S 517.014 -1.07565 -4.25412 0
M  V30 5237 H 513.832 -0.278616 -0.654136 0
M  V30 5238 H 516.434 -1.34352 -1.4202 0
M  V30 5239 H 515.138 -2.28896 -3.40639 0
M  V30 5240 H 514.669 -0.648724 -3.88014 0
M  V30 5241 H 516.684 0.00169467 -4.962 0
M  V30 5242 N 515.857 1.33968 -0.830081 0
M  V30 5243 C 516.789 2.28194 -0.21448 0
M  V30 5244 C 517.802 1.5135 0.599752 0
M  V30 5245 O 518.991 1.73286 0.42826 0
M  V30 5246 C 516.091 3.31221 0.717356 0
M  V30 5247 C 515.264 4.37365 -0.055613 0
M  V30 5248 C 514.323 5.2011 0.798231 0
M  V30 5249 O 513.349 5.68691 0.240616 0
M  V30 5250 N 514.551 5.40523 2.11695 0
M  V30 5251 H 517.316 2.81662 -1.02405 0
M  V30 5252 H 514.877 1.46568 -0.687713 0
M  V30 5253 H 516.869 3.83477 1.29334 0
M  V30 5254 H 515.439 2.78095 1.42765 0
M  V30 5255 H 514.659 3.85727 -0.812936 0
M  V30 5256 H 515.947 5.05397 -0.587444 0
M  V30 5257 H 515.345 5.0274 2.59363 0
M  V30 5258 H 513.902 5.95871 2.64162 0
M  V30 5259 N 517.335 0.585699 1.46312 0
M  V30 5260 C 518.583 0.072278 2.01971 0
M  V30 5261 C 518.904 -1.29345 1.45928 0
M  V30 5262 O 518.174 -1.84973 0.645109 0
M  V30 5263 H 516.754 0.023729 0.746623 0
M  V30 5264 H 519.416 0.762155 1.7938 0
M  V30 5265 H 518.512 0.00552767 3.121 0
M  V30 5266 N 518.813 -1.54241 0.323641 0
M  V30 5267 C 520.09 -1.92741 -0.333181 0
M  V30 5268 C 520.47 -1.25326 -1.69872 0
M  V30 5269 O 519.818 -0.396991 -2.25025 0
M  V30 5270 C 520.028 -3.46399 -0.425322 0
M  V30 5271 C 521.376 -4.19029 -0.68557 0
M  V30 5272 O 522.4 -3.52555 -0.50824 0
M  V30 5273 O 521.259 -5.36751 -1.02767 0
M  V30 5274 H 518.353 -0.804811 -0.190286 0
M  V30 5275 H 520.899 -1.65542 0.373361 0
M  V30 5276 H 519.671 -3.87643 0.533737 0
M  V30 5277 H 519.294 -3.79704 -1.17944 0
M  V30 5278 N 520.291 -0.0518155 -1.57515 0
M  V30 5279 C 521.516 0.634896 -1.97443 0
M  V30 5280 C 521.941 1.63546 -0.929207 0
M  V30 5281 O 521.299 1.80981 0.107484 0
M  V30 5282 C 521.347 1.29765 -3.36442 0
M  V30 5283 O 520.451 2.41333 -3.34413 0
M  V30 5284 H 519.792 0.164994 -0.643174 0
M  V30 5285 H 522.322 -0.120407 -2.04245 0
M  V30 5286 H 522.332 1.64918 -3.73184 0
M  V30 5287 H 521.007 0.564361 -4.12053 0
M  V30 5288 H 519.584 2.08122 -3.09418 0
M  V30 5289 N 521.769 1.56035 0.221574 0
M  V30 5290 C 523.017 1.78693 0.944102 0
M  V30 5291 C 523.338 0.620317 1.8487 0
M  V30 5292 O 522.608 -0.362784 1.92512 0
M  V30 5293 H 521.188 0.659082 0.351597 0
M  V30 5294 H 523.85 1.93497 0.233435 0
M  V30 5295 H 522.946 2.70837 1.55093 0
M  V30 5296 N 523.247 -0.488276 1.49845 0
M  V30 5297 C 524.495 -1.23911 1.59657 0
M  V30 5298 C 524.816 -1.92816 0.291005 0
M  V30 5299 O 524.086 -1.83328 -0.690485 0
M  V30 5300 H 522.666 -0.460357 0.588286 0
M  V30 5301 H 525.328 -0.564794 1.86537 0
M  V30 5302 H 524.424 -1.99625 2.39909 0
M  V30 5303 N 524.725 -1.39134 -0.740242 0
M  V30 5304 C 526.136 -1.32208 -1.31825 0
M  V30 5305 C 526.487 0.0159919 -1.96193 0
M  V30 5306 O 525.612 0.918111 -1.95958 0
M  V30 5307 C 526.207 -2.39436 -2.39699 0
M  V30 5308 C 524.766 -2.36048 -2.93187 0
M  V30 5309 C 523.913 -2.21599 -1.66701 0
M  V30 5310 H 526.864 -1.49298 -0.538133 0
M  V30 5311 H 526.885 -2.05922 -3.19963 0
M  V30 5312 H 526.397 -3.36811 -1.92821 0
M  V30 5313 H 524.498 -1.42295 -3.44359 0
M  V30 5314 H 524.611 -3.30704 -3.46658 0
M  V30 5315 H 522.975 -1.68681 -1.90837 0
M  V30 5316 H 523.758 -3.20936 -1.21882 0
M  V30 5317 N 526.204 0.969867 -1.24223 0
M  V30 5318 C 527.451 1.71256 -1.08063 0
M  V30 5319 C 527.779 1.90734 0.380872 0
M  V30 5320 O 527.034 1.46469 1.29789 0
M  V30 5321 C 527.333 3.10883 -1.76314 0
M  V30 5322 C 526.999 3.11252 -3.26241 0
M  V30 5323 C 525.661 3.1106 -3.67144 0
M  V30 5324 C 528.013 3.05751 -4.22097 0
M  V30 5325 C 525.341 3.03097 -5.02344 0
M  V30 5326 C 527.693 2.9933 -5.57301 0
M  V30 5327 C 526.357 2.97466 -5.97554 0
M  V30 5328 H 525.627 0.62667 -0.395431 0
M  V30 5329 H 528.274 1.13422 -1.54297 0
M  V30 5330 H 526.579 3.72168 -1.22468 0
M  V30 5331 H 528.276 3.67138 -1.61277 0
M  V30 5332 H 524.866 3.12165 -2.93685 0
M  V30 5333 H 529.05 3.05031 -3.91497 0
M  V30 5334 H 524.306 3.00013 -5.32731 0
M  V30 5335 H 528.48 2.94033 -6.31283 0
M  V30 5336 H 526.107 2.91051 -7.02277 0
M  V30 5337 N 527.682 1.05563 1.17022 0
M  V30 5338 C 528.928 0.769074 1.87652 0
M  V30 5339 C 529.261 -0.702326 1.81055 0
M  V30 5340 O 528.536 -1.5139 1.22112 0
M  V30 5341 C 528.819 1.25492 3.37526 0
M  V30 5342 C 528.672 2.78953 3.52853 0
M  V30 5343 C 529.991 0.856919 4.31677 0
M  V30 5344 H 527.11 0.280854 0.681388 0
M  V30 5345 H 529.752 1.31027 1.37593 0
M  V30 5346 H 527.902 0.794516 3.80289 0
M  V30 5347 H 529.574 3.33146 3.19079 0
M  V30 5348 H 527.817 3.18046 2.95007 0
M  V30 5349 H 528.488 3.08011 4.58076 0
M  V30 5350 H 530.964 1.25334 3.96775 0
M  V30 5351 H 529.84 1.22443 5.35069 0
M  V30 5352 H 530.101 -0.238787 4.41455 0
M  V30 5353 N 529.16 -1.33526 0.837174 0
M  V30 5354 C 530.4 -1.99649 0.438115 0
M  V30 5355 C 530.764 -1.64879 -0.983816 0
M  V30 5356 O 531.965 -2.23956 -1.48651 0
M  V30 5357 C 530.236 -3.51431 0.650461 0
M  V30 5358 S 531.795 -4.37431 0.346371 0
M  V30 5359 H 528.613 -0.69162 0.164872 0
M  V30 5360 H 531.215 -1.62556 1.08609 0
M  V30 5361 H 529.919 -3.74225 1.68475 0
M  V30 5362 H 529.45 -3.93398 -0.0117309 0
M  V30 5363 H 531.465 -4.89132 -0.834504 0
M  V30 5364 N 530.638 -0.59345 -1.46 0
M  V30 5365 C 531.548 0.135817 -2.34207 0
M  V30 5366 C 532.564 0.875008 -1.50398 0
M  V30 5367 O 533.74 0.835778 -1.83239 0
M  V30 5368 C 530.805 1.12977 -3.27776 0
M  V30 5369 C 529.866 0.394081 -4.27487 0
M  V30 5370 C 529.099 1.34068 -5.16586 0
M  V30 5371 O 529.322 2.5778 -5.08828 0
M  V30 5372 O 528.256 0.845426 -5.95933 0
M  V30 5373 H 532.082 -0.588691 -2.9794 0
M  V30 5374 H 529.667 -0.353784 -1.45151 0
M  V30 5375 H 531.549 1.70261 -3.85473 0
M  V30 5376 H 530.224 1.83556 -2.66625 0
M  V30 5377 H 529.131 -0.220869 -3.73447 0
M  V30 5378 H 530.464 -0.270939 -4.91454 0
M  V30 5379 N 532.116 1.54067 -0.331816 0
M  V30 5380 C 533.393 1.92915 0.322955 0
M  V30 5381 C 533.773 1.26225 1.69205 0
M  V30 5382 O 533.121 0.408919 2.24811 0
M  V30 5383 C 533.331 3.46619 0.406946 0
M  V30 5384 C 534.679 4.19386 0.663339 0
M  V30 5385 O 535.703 3.5282 0.489536 0
M  V30 5386 O 534.562 5.37288 0.999193 0
M  V30 5387 H 531.656 0.805808 0.186016 0
M  V30 5388 H 534.202 1.65342 -0.382135 0
M  V30 5389 H 532.974 3.87354 -0.554287 0
M  V30 5390 H 532.597 3.80324 1.15929 0
M  V30 5391 N 533.594 0.0601682 1.57485 0
M  V30 5392 C 534.819 -0.624416 1.97777 0
M  V30 5393 C 535.244 -1.63051 0.937867 0
M  V30 5394 O 534.602 -1.81036 -0.0978845 0
M  V30 5395 C 534.65 -1.27979 3.37126 0
M  V30 5396 O 533.754 -2.39556 3.35688 0
M  V30 5397 H 533.095 -0.161581 0.64404 0
M  V30 5398 H 535.625 0.131237 2.04179 0
M  V30 5399 H 535.635 -1.62937 3.74053 0
M  V30 5400 H 534.31 -0.542501 4.12347 0
M  V30 5401 H 532.887 -2.06478 3.10517 0
M  V30 5402 N 535.072 -1.5615 -0.213296 0
M  V30 5403 C 536.321 -1.78743 -0.93455 0
M  V30 5404 C 536.634 -0.630199 -1.8517 0
M  V30 5405 O 537.84 -0.739966 -2.61222 0
M  V30 5406 C 536.296 -3.16571 -1.71203 0
M  V30 5407 C 535.904 -4.40043 -0.840617 0
M  V30 5408 C 537.648 -3.48485 -2.42401 0
M  V30 5409 C 535.555 -5.68895 -1.61592 0
M  V30 5410 H 534.485 -0.666426 -0.352692 0
M  V30 5411 H 537.136 -1.82532 -0.188227 0
M  V30 5412 H 535.518 -3.06981 -2.50157 0
M  V30 5413 H 536.692 -4.6071 -0.0910326 0
M  V30 5414 H 535.007 -4.15706 -0.240365 0
M  V30 5415 H 537.604 -4.41983 -3.00924 0
M  V30 5416 H 537.947 -2.71371 -3.15695 0
M  V30 5417 H 538.48 -3.59442 -1.7043 0
M  V30 5418 H 535.219 -6.48925 -0.926106 0
M  V30 5419 H 534.739 -5.52275 -2.33991 0
M  V30 5420 H 536.418 -6.09365 -2.17447 0
M  V30 5421 N 536.55 0.480323 -1.50102 0
M  V30 5422 C 537.775 1.26126 -1.64642 0
M  V30 5423 C 538.2 1.85257 -0.325823 0
M  V30 5424 O 537.558 1.66854 0.709194 0
M  V30 5425 C 537.606 2.35243 -2.73301 0
M  V30 5426 O 536.71 3.39646 -2.33911 0
M  V30 5427 H 536.051 0.371463 -0.550374 0
M  V30 5428 H 538.581 0.572696 -1.96421 0
M  V30 5429 H 538.591 2.80695 -2.96098 0
M  V30 5430 H 537.266 1.91574 -3.6915 0
M  V30 5431 H 535.843 2.99969 -2.21525 0
M  V30 5432 N 538.028 1.39524 0.732853 0
M  V30 5433 C 539.444 1.21176 1.03868 0
M  V30 5434 C 539.644 0.0748448 2.01361 0
M  V30 5435 O 538.7 -0.57281 2.45917 0
M  V30 5436 C 540.013 2.54667 1.59892 0
M  V30 5437 C 541.561 2.6153 1.71962 0
M  V30 5438 C 542.036 3.95248 2.31394 0
M  V30 5439 N 543.527 3.96899 2.38801 0
M  V30 5440 C 544.262 4.97138 2.85729 0
M  V30 5441 N 543.758 6.07775 3.32537 0
M  V30 5442 N 545.551 4.84516 2.84957 0
M  V30 5443 H 537.702 2.12225 0.086304 0
M  V30 5444 H 539.965 0.942614 0.100907 0
M  V30 5445 H 539.671 3.38423 0.95721 0
M  V30 5446 H 539.545 2.74538 2.58668 0
M  V30 5447 H 541.932 1.78156 2.35254 0
M  V30 5448 H 542.013 2.45507 0.718327 0
M  V30 5449 H 541.657 4.79054 1.68729 0
M  V30 5450 H 541.587 4.08593 3.32204 0
M  V30 5451 H 544.078 3.16998 2.05719 0
M  V30 5452 H 544.391 6.8017 3.66862 0
M  V30 5453 H 542.736 6.11366 3.30541 0
M  V30 5454 H 545.927 3.97185 2.47713 0
M  V30 5455 H 546.1 5.62783 3.21215 0
M  V30 5456 N 539.506 -0.963266 1.24736 0
M  V30 5457 C 540.734 -1.74166 1.11686 0
M  V30 5458 C 541.149 -1.8589 -0.330187 0
M  V30 5459 O 540.506 -1.35042 -1.2276 0
M  V30 5460 C 540.557 -3.15989 1.75595 0
M  V30 5461 O 540.278 -3.04847 3.14642 0
M  V30 5462 C 541.779 -4.10145 1.68213 0
M  V30 5463 H 538.999 -0.546031 0.389989 0
M  V30 5464 H 541.543 -1.20907 1.64929 0
M  V30 5465 H 539.698 -3.66219 1.26343 0
M  V30 5466 H 540.112 -3.9425 3.4593 0
M  V30 5467 H 541.586 -5.07299 2.17604 0
M  V30 5468 H 542.063 -4.3445 0.644208 0
M  V30 5469 H 542.669 -3.65827 2.16912 0
M  V30 5470 N 540.985 -1.06182 -1.16461 0
M  V30 5471 C 542.396 -0.802426 -1.68576 0
M  V30 5472 C 542.747 0.67412 -1.84255 0
M  V30 5473 O 541.872 1.52303 -1.5373 0
M  V30 5474 C 542.467 -1.45002 -3.06202 0
M  V30 5475 C 541.026 -1.23843 -3.55443 0
M  V30 5476 C 540.173 -1.52724 -2.31454 0
M  V30 5477 H 543.124 -1.22545 -1.00839 0
M  V30 5478 H 543.145 -0.864731 -3.70544 0
M  V30 5479 H 542.657 -2.52466 -2.94759 0
M  V30 5480 H 540.758 -0.183487 -3.72148 0
M  V30 5481 H 540.871 -1.95036 -4.37604 0
M  V30 5482 H 539.235 -0.947726 -2.36411 0
M  V30 5483 H 540.018 -2.61343 -2.22609 0
M  V30 5484 N 542.463 1.3308 -0.844243 0
M  V30 5485 C 543.879 1.50447 -0.532729 0
M  V30 5486 C 544.079 1.78292 0.938837 0
M  V30 5487 O 543.135 1.84635 1.72239 0
M  V30 5488 C 544.448 2.65555 -1.41072 0
M  V30 5489 C 545.996 2.7944 -1.41005 0
M  V30 5490 C 546.471 3.97616 -2.27301 0
M  V30 5491 N 547.962 4.0486 -2.2504 0
M  V30 5492 C 548.697 4.95508 -2.88547 0
M  V30 5493 N 548.193 5.91236 -3.61126 0
M  V30 5494 N 549.986 4.88548 -2.77989 0
M  V30 5495 H 542.137 1.13269 -1.79677 0
M  V30 5496 H 544.4 0.55734 -0.766861 0
M  V30 5497 H 544.106 2.51675 -2.45668 0
M  V30 5498 H 543.98 3.61089 -1.09061 0
M  V30 5499 H 546.367 2.92749 -0.371784 0
M  V30 5500 H 546.448 1.8465 -1.77026 0
M  V30 5501 H 546.092 3.85066 -3.3119 0
M  V30 5502 H 546.022 4.91661 -1.88619 0
M  V30 5503 H 548.513 3.36353 -1.72264 0
M  V30 5504 H 548.826 6.57079 -4.06776 0
M  V30 5505 H 547.171 5.91295 -3.65234 0
M  V30 5506 H 550.362 4.12729 -2.20846 0
M  V30 5507 H 550.535 5.58994 -3.27765 0
M  V30 5508 N 543.941 0.601185 1.45683 0
M  V30 5509 C 545.187 0.102425 2.03142 0
M  V30 5510 C 545.542 -1.25066 1.46207 0
M  V30 5511 O 544.835 -1.81126 0.624806 0
M  V30 5512 C 545.029 -0.00222425 3.574 0
M  V30 5513 C 544.858 1.33917 4.29298 0
M  V30 5514 C 543.628 1.91818 4.67476 0
M  V30 5515 C 545.826 2.26652 4.61664 0
M  V30 5516 N 543.808 3.19504 5.24204 0
M  V30 5517 C 545.179 3.38933 5.19157 0
M  V30 5518 C 547.234 2.26103 4.43601 0
M  V30 5519 C 545.937 4.50823 5.60492 0
M  V30 5520 C 547.963 3.37036 4.85964 0
M  V30 5521 C 547.325 4.48039 5.43545 0
M  V30 5522 H 543.424 0.0806974 0.777825 0
M  V30 5523 H 546.008 0.798134 1.77589 0
M  V30 5524 H 544.179 -0.66714 3.82627 0
M  V30 5525 H 545.911 -0.507058 4.01511 0
M  V30 5526 H 542.666 1.45097 4.50826 0
M  V30 5527 H 543.09 3.84705 5.57073 0
M  V30 5528 H 547.732 1.41547 3.98402 0
M  V30 5529 H 545.45 5.36108 6.0466 0
M  V30 5530 H 549.036 3.37752 4.73725 0
M  V30 5531 H 547.916 5.32459 5.75723 0
M  V30 5532 N 545.419 -1.53889 0.339982 0
M  V30 5533 C 546.835 -1.59595 -0.0120752 0
M  V30 5534 C 547.035 -1.35605 -1.49042 0
M  V30 5535 O 546.091 -1.14856 -2.24865 0
M  V30 5536 C 547.404 -2.9774 0.420898 0
M  V30 5537 C 548.952 -3.1077 0.37294 0
M  V30 5538 C 549.427 -4.51286 0.781327 0
M  V30 5539 N 550.918 -4.57325 0.735374 0
M  V30 5540 C 551.653 -5.64194 1.02336 0
M  V30 5541 N 551.149 -6.7893 1.37933 0
M  V30 5542 N 552.942 -5.54051 0.947838 0
M  V30 5543 H 545.093 -1.67738 1.30299 0
M  V30 5544 H 547.356 -0.785385 0.530918 0
M  V30 5545 H 547.062 -3.20349 1.45152 0
M  V30 5546 H 546.936 -3.76639 -0.205721 0
M  V30 5547 H 549.323 -2.87886 -0.648505 0
M  V30 5548 H 549.404 -2.33939 1.03472 0
M  V30 5549 H 549.048 -4.74905 1.80077 0
M  V30 5550 H 548.978 -5.26511 0.0970679 0
M  V30 5551 H 551.469 -3.74931 0.472773 0
M  V30 5552 H 551.782 -7.56392 1.58402 0
M  V30 5553 H 550.127 -6.80386 1.41774 0
M  V30 5554 H 553.318 -4.63293 0.669115 0
M  V30 5555 H 553.491 -6.37246 1.17563 0
M  V30 5556 N 546.897 -0.0685191 -1.57451 0
M  V30 5557 C 547.827 0.89747 -2.15564 0
M  V30 5558 C 548.808 1.31266 -1.08181 0
M  V30 5559 O 549.993 1.38429 -1.36202 0
M  V30 5560 C 547.123 2.16623 -2.71463 0
M  V30 5561 C 546.077 1.89054 -3.83982 0
M  V30 5562 C 545.403 3.22532 -4.26471 0
M  V30 5563 C 546.703 1.1984 -5.08366 0
M  V30 5564 H 548.397 0.413373 -2.96533 0
M  V30 5565 H 545.943 0.197391 -1.42641 0
M  V30 5566 H 547.896 2.84614 -3.10761 0
M  V30 5567 H 546.62 2.67269 -1.8771 0
M  V30 5568 H 545.279 1.23469 -3.45183 0
M  V30 5569 H 544.927 3.71013 -3.39644 0
M  V30 5570 H 544.627 3.04879 -5.02317 0
M  V30 5571 H 546.151 3.91727 -4.68383 0
M  V30 5572 H 547.565 1.77896 -5.45001 0
M  V30 5573 H 545.962 1.12456 -5.89469 0
M  V30 5574 H 547.032 0.176996 -4.84577 0
M  V30 5575 N 548.375 1.56261 0.205012 0
M  V30 5576 C 549.615 1.81823 0.933806 0
M  V30 5577 C 549.979 0.644534 1.80858 0
M  V30 5578 O 551.18 0.779819 2.5724 0
M  V30 5579 C 549.451 3.12362 1.7368 0
M  V30 5580 S 551.01 3.59296 2.51897 0
M  V30 5581 H 547.828 0.638209 0.313386 0
M  V30 5582 H 550.43 1.94495 0.198001 0
M  V30 5583 H 549.134 3.95809 1.08459 0
M  V30 5584 H 548.665 3.02542 2.5146 0
M  V30 5585 H 550.68 3.23945 3.75864 0
M  V30 5586 N 549.853 -0.472356 1.50355 0
M  V30 5587 C 551.101 -1.22211 1.60962 0
M  V30 5588 C 551.422 -1.92497 0.311439 0
M  V30 5589 O 550.692 -1.8405 -0.671002 0
M  V30 5590 H 549.272 -0.454092 0.593135 0
M  V30 5591 H 551.934 -0.544977 1.87126 0
M  V30 5592 H 551.03 -1.9707 2.42012 0
M  V30 5593 N 551.331 -1.39911 -0.725443 0
M  V30 5594 C 552.58 -1.36963 -1.48068 0
M  V30 5595 C 552.893 0.0284478 -1.95579 0
M  V30 5596 O 554.099 0.180535 -2.70899 0
M  V30 5597 C 552.555 -2.40664 -2.67598 0
M  V30 5598 C 552.163 -3.86234 -2.26997 0
M  V30 5599 C 553.907 -2.46807 -3.45379 0
M  V30 5600 C 551.814 -4.81554 -3.43307 0
M  V30 5601 H 550.744 -0.509223 -0.556065 0
M  V30 5602 H 553.395 -1.65602 -0.790454 0
M  V30 5603 H 551.777 -2.05109 -3.38742 0
M  V30 5604 H 552.951 -4.3088 -1.63337 0
M  V30 5605 H 551.266 -3.83475 -1.62284 0
M  V30 5606 H 553.863 -3.15213 -4.31909 0
M  V30 5607 H 554.206 -1.49552 -3.8851 0
M  V30 5608 H 554.739 -2.81303 -2.81271 0
M  V30 5609 H 551.478 -5.80106 -3.05217 0
M  V30 5610 H 550.998 -4.4158 -4.05915 0
M  V30 5611 H 552.677 -5.0091 -4.0951 0
M  V30 5612 N 552.809 0.956637 -1.25245 0
M  V30 5613 C 554.055 1.70352 -1.10036 0
M  V30 5614 C 554.388 1.90869 0.358156 0
M  V30 5615 O 553.663 1.47819 1.26411 0
M  V30 5616 C 553.946 3.08766 -1.85298 0
M  V30 5617 C 553.799 2.95672 -3.38966 0
M  V30 5618 C 555.118 4.08622 -1.63451 0
M  V30 5619 H 552.237 0.618279 -0.401123 0
M  V30 5620 H 554.879 1.11212 -1.54051 0
M  V30 5621 H 553.029 3.59252 -1.47887 0
M  V30 5622 H 554.701 2.52527 -3.86041 0
M  V30 5623 H 552.944 2.31634 -3.6678 0
M  V30 5624 H 553.615 3.93776 -3.86839 0
M  V30 5625 H 556.091 3.67038 -1.96015 0
M  V30 5626 H 554.967 5.03514 -2.18551 0
M  V30 5627 H 555.228 4.3834 -0.575357 0
M  V30 5628 N 554.287 1.06798 1.15896 0
M  V30 5629 C 555.512 0.808739 1.90982 0
M  V30 5630 C 555.937 -0.6316 1.77179 0
M  V30 5631 O 555.295 -1.4407 1.10061 0
M  V30 5632 C 555.343 1.21468 3.39526 0
M  V30 5633 O 554.447 0.356562 4.10856 0
M  V30 5634 H 553.788 0.29512 0.594811 0
M  V30 5635 H 556.318 1.42513 1.46804 0
M  V30 5636 H 556.328 1.18844 3.90308 0
M  V30 5637 H 555.003 2.26379 3.48891 0
M  V30 5638 H 553.58 0.444808 3.70238 0
M  V30 5639 N 555.766 -1.3263 0.851289 0
M  V30 5640 C 557.012 -1.98061 0.462963 0
M  V30 5641 C 557.367 -1.66162 -0.969948 0
M  V30 5642 O 556.66 -0.937723 -1.67085 0
M  V30 5643 C 556.854 -3.51713 0.635015 0
M  V30 5644 C 556.683 -3.98544 2.0831 0
M  V30 5645 C 555.453 -4.25787 2.72091 0
M  V30 5646 C 557.651 -4.13858 3.0533 0
M  V30 5647 N 555.633 -4.58842 4.07845 0
M  V30 5648 C 557.004 -4.50412 4.26063 0
M  V30 5649 C 559.059 -3.96182 3.0157 0
M  V30 5650 C 557.762 -4.71136 5.43529 0
M  V30 5651 C 559.788 -4.18088 4.18278 0
M  V30 5652 C 559.15 -4.54956 5.37768 0
M  V30 5653 H 555.249 -0.750976 0.218082 0
M  V30 5654 H 557.833 -1.60514 1.10197 0
M  V30 5655 H 556.004 -3.88391 0.0257298 0
M  V30 5656 H 557.736 -4.04118 0.216915 0
M  V30 5657 H 554.491 -4.17734 2.23149 0
M  V30 5658 H 554.915 -4.7956 4.77862 0
M  V30 5659 H 559.557 -3.66783 2.1031 0
M  V30 5660 H 557.275 -4.9939 6.35323 0
M  V30 5661 H 560.861 -4.05918 4.168 0
M  V30 5662 H 559.741 -4.71567 6.26573 0
M  V30 5663 N 557.244 -0.608902 -1.45362 0
M  V30 5664 C 558.492 -0.104401 -2.0183 0
M  V30 5665 C 558.813 1.27007 -1.47967 0
M  V30 5666 O 558.083 1.83924 -0.674455 0
M  V30 5667 H 556.663 -0.0356042 -0.746151 0
M  V30 5668 H 559.325 -0.790596 -1.78145 0
M  V30 5669 H 558.421 -0.0551793 -3.12051 0
M  V30 5670 N 558.722 1.53707 -0.348139 0
M  V30 5671 C 559.95 2.05406 0.248224 0
M  V30 5672 C 560.365 1.22282 1.43849 0
M  V30 5673 O 559.722 0.259244 1.80649 0
M  V30 5674 C 559.773 3.55446 0.658793 0
M  V30 5675 O 559.494 4.35417 -0.484149 0
M  V30 5676 C 560.995 4.23335 1.31539 0
M  V30 5677 H 558.215 0.669344 0.0471075 0
M  V30 5678 H 560.759 1.98257 -0.501456 0
M  V30 5679 H 558.914 3.62803 1.35841 0
M  V30 5680 H 559.328 5.24268 -0.155949 0
M  V30 5681 H 560.802 5.29692 1.55338 0
M  V30 5682 H 561.279 3.75967 2.27036 0
M  V30 5683 H 561.885 4.20184 0.657683 0
M  V30 5684 N 560.2 0.0768682 1.57412 0
M  V30 5685 C 561.448 -0.589918 1.93299 0
M  V30 5686 C 561.769 -1.69842 0.958049 0
M  V30 5687 O 561.039 -1.95899 0.00703261 0
M  V30 5688 H 559.619 -0.220901 0.713591 0
M  V30 5689 H 562.281 0.135917 1.94425 0
M  V30 5690 H 561.377 -1.01195 2.95239 0
M  V30 5691 N 561.678 -1.56367 -0.196722 0
M  V30 5692 C 562.918 -1.82315 -0.92415 0
M  V30 5693 C 563.282 -0.654117 -1.80514 0
M  V30 5694 O 564.483 -0.79345 -2.56823 0
M  V30 5695 C 562.754 -3.13279 -1.72021 0
M  V30 5696 S 564.313 -3.60627 -2.49988 0
M  V30 5697 H 561.131 -0.639862 -0.309997 0
M  V30 5698 H 563.733 -1.94597 -0.187684 0
M  V30 5699 H 562.437 -3.96379 -1.06358 0
M  V30 5700 H 561.968 -3.03871 -2.49852 0
M  V30 5701 H 563.983 -3.25934 -3.74141 0
M  V30 5702 N 563.156 0.464375 -1.50603 0
M  V30 5703 C 564.119 1.54393 -1.69397 0
M  V30 5704 C 565.119 1.50566 -0.564504 0
M  V30 5705 O 566.309 1.53066 -0.831645 0
M  V30 5706 C 563.441 2.9401 -1.72543 0
M  V30 5707 H 564.634 1.39044 -2.65719 0
M  V30 5708 H 562.187 0.69122 -1.40185 0
M  V30 5709 H 562.922 3.14795 -0.77938 0
M  V30 5710 H 562.707 2.98195 -2.54602 0
M  V30 5711 H 564.197 3.72375 -1.89015 0
M  V30 5712 N 564.634 1.40294 0.718013 0
M  V30 5713 C 565.564 1.43118 1.84498 0
M  V30 5714 C 566.545 0.292403 1.67568 0
M  V30 5715 O 567.73 0.500675 1.87635 0
M  V30 5716 C 564.86 1.29065 3.22427 0
M  V30 5717 C 563.814 2.40521 3.54025 0
M  V30 5718 C 563.14 2.11546 4.91073 0
M  V30 5719 C 564.44 3.82859 3.55269 0
M  V30 5720 H 566.134 2.37432 1.82391 0
M  V30 5721 H 563.68 1.14283 0.87609 0
M  V30 5722 H 565.633 1.29658 4.00957 0
M  V30 5723 H 564.357 0.312271 3.25104 0
M  V30 5724 H 563.016 2.39173 2.77834 0
M  V30 5725 H 562.664 1.12104 4.90348 0
M  V30 5726 H 562.364 2.86216 5.1318 0
M  V30 5727 H 563.888 2.13817 5.71939 0
M  V30 5728 H 565.302 3.86044 4.23843 0
M  V30 5729 H 563.699 4.57029 3.88902 0
M  V30 5730 H 564.769 4.12617 2.54706 0
M  V30 5731 N 566.112 -0.949982 1.2575 0
M  V30 5732 C 567.075 -2.02894 1.06615 0
M  V30 5733 C 568.075 -1.60791 0.0173905 0
M  V30 5734 O 569.265 -1.72249 0.260003 0
M  V30 5735 C 566.397 -3.35219 0.619751 0
M  V30 5736 H 567.59 -2.21302 2.02399 0
M  V30 5737 H 565.143 -1.12772 1.08223 0
M  V30 5738 H 565.878 -3.22508 -0.340486 0
M  V30 5739 H 565.663 -3.67129 1.37692 0
M  V30 5740 H 567.153 -4.14505 0.507443 0
M  V30 5741 N 567.59 -1.07411 -1.15328 0
M  V30 5742 C 568.522 -0.652924 -2.19703 0
M  V30 5743 C 569.535 0.294869 -1.60107 0
M  V30 5744 O 570.724 0.0840932 -1.78302 0
M  V30 5745 C 567.824 0.061434 -3.38844 0
M  V30 5746 C 566.997 -0.902696 -4.27984 0
M  V30 5747 C 566.056 -0.225521 -5.25717 0
M  V30 5748 O 565.082 -0.86676 -5.62562 0
M  V30 5749 N 566.284 1.02858 -5.71315 0
M  V30 5750 H 569.049 -1.55081 -2.56457 0
M  V30 5751 H 566.61 -0.958883 -1.30449 0
M  V30 5752 H 568.602 0.525145 -4.01278 0
M  V30 5753 H 567.172 0.861269 -3.00501 0
M  V30 5754 H 566.392 -1.54551 -3.6264 0
M  V30 5755 H 567.68 -1.55636 -4.84412 0
M  V30 5756 H 567.078 1.56948 -5.43492 0
M  V30 5757 H 565.635 1.43596 -6.35786 0
M  V30 5758 N 569.068 1.32177 -0.85831 0
M  V30 5759 C 570.015 2.28794 -0.303607 0
M  V30 5760 C 570.985 1.55213 0.591453 0
M  V30 5761 O 572.17 1.83418 0.525585 0
M  V30 5762 C 569.31 3.41475 0.49889 0
M  V30 5763 C 568.423 4.2993 -0.422373 0
M  V30 5764 C 567.558 5.29743 0.393111 0
M  V30 5765 C 566.597 6.09842 -0.525317 0
M  V30 5766 N 565.734 7.01643 0.253208 0
M  V30 5767 H 570.574 2.75631 -1.13276 0
M  V30 5768 H 568.111 1.35606 -0.570026 0
M  V30 5769 H 570.069 4.05531 0.979826 0
M  V30 5770 H 568.699 2.95779 1.29284 0
M  V30 5771 H 567.751 3.66422 -1.02171 0
M  V30 5772 H 569.063 4.85899 -1.12709 0
M  V30 5773 H 568.217 5.9942 0.937056 0
M  V30 5774 H 566.956 4.744 1.13117 0
M  V30 5775 H 565.961 5.39066 -1.08112 0
M  V30 5776 H 567.186 6.6727 -1.26205 0
M  V30 5777 H 565.132 6.48725 0.974295 0
M  V30 5778 H 565.049 7.54981 -0.392398 0
M  V30 5779 H 566.317 7.756 0.778761 0
M  V30 5780 N 570.547 0.616602 1.45037 0
M  V30 5781 C 571.958 0.199359 1.85633 0
M  V30 5782 C 572.309 -1.24588 1.51566 0
M  V30 5783 O 571.434 -1.94594 0.94668 0
M  V30 5784 C 572.029 0.355033 3.36935 0
M  V30 5785 C 570.588 -0.00758748 3.76399 0
M  V30 5786 C 569.735 0.675256 2.68953 0
M  V30 5787 H 572.686 0.822708 1.3571 0
M  V30 5788 H 572.707 -0.410201 3.78282 0
M  V30 5789 H 572.219 1.40699 3.61698 0
M  V30 5790 H 570.32 -1.05837 3.57252 0
M  V30 5791 H 570.433 0.392346 4.77491 0
M  V30 5792 H 568.797 0.111992 2.54454 0
M  V30 5793 H 569.58 1.72952 2.96551 0
M  V30 5794 N 572.025 -1.5352 0.356285 0
M  V30 5795 C 573.273 -2.00719 -0.235837 0
M  V30 5796 C 573.594 -1.24551 -1.5004 0
M  V30 5797 O 572.864 -0.356185 -1.92635 0
M  V30 5798 H 571.444 -0.741542 -0.0901366 0
M  V30 5799 H 574.106 -1.88887 0.480378 0
M  V30 5800 H 573.202 -3.08551 -0.469357 0
M  V30 5801 N 573.503 -0.0852151 -1.57369 0
M  V30 5802 C 574.749 0.581666 -1.94279 0
M  V30 5803 C 575.082 1.68444 -0.966446 0
M  V30 5804 O 574.357 1.945 0.00215277 0
M  V30 5805 C 574.64 1.14609 -3.41375 0
M  V30 5806 C 574.493 0.0490414 -4.49773 0
M  V30 5807 C 575.812 2.04751 -3.8957 0
M  V30 5808 H 572.931 0.209972 -0.706456 0
M  V30 5809 H 575.573 -0.153915 -1.89376 0
M  V30 5810 H 573.723 1.77297 -3.45685 0
M  V30 5811 H 575.395 -0.584721 -4.57579 0
M  V30 5812 H 573.638 -0.618638 -4.29366 0
M  V30 5813 H 574.309 0.484601 -5.49869 0
M  V30 5814 H 576.785 1.51981 -3.87351 0
M  V30 5815 H 575.661 2.41173 -4.93079 0
M  V30 5816 H 575.922 2.96107 -3.28288 0
M  V30 5817 N 574.981 1.5647 0.188427 0
M  V30 5818 C 576.211 1.84863 0.922463 0
M  V30 5819 C 576.619 0.666413 1.77075 0
M  V30 5820 O 575.962 -0.374044 1.79852 0
M  V30 5821 C 576.024 3.07447 1.86324 0
M  V30 5822 C 575.688 4.41066 1.19625 0
M  V30 5823 C 576.685 5.16767 0.569946 0
M  V30 5824 C 574.37 4.87802 1.19811 0
M  V30 5825 C 576.364 6.37384 -0.045594 0
M  V30 5826 C 574.051 6.08353 0.57874 0
M  V30 5827 C 575.049 6.82987 -0.0420259 0
M  V30 5828 O 574.737 8.01254 -0.651675 0
M  V30 5829 H 574.469 0.61784 0.274316 0
M  V30 5830 H 577.023 2.04437 0.198613 0
M  V30 5831 H 575.253 2.83774 2.62696 0
M  V30 5832 H 576.942 3.2243 2.46564 0
M  V30 5833 H 577.708 4.81749 0.560601 0
M  V30 5834 H 573.587 4.29662 1.67069 0
M  V30 5835 H 577.131 6.95578 -0.530731 0
M  V30 5836 H 573.028 6.42838 0.58561 0
M  V30 5837 H 573.796 8.16655 -0.549236 0
M  V30 5838 N 576.459 -0.456382 1.50847 0
M  V30 5839 C 577.687 -1.23026 1.66349 0
M  V30 5840 C 578.102 -1.85473 0.352868 0
M  V30 5841 O 577.459 -1.69885 -0.666739 0
M  V30 5842 C 577.51 -2.32827 2.76539 0
M  V30 5843 O 577.231 -1.72938 4.02522 0
M  V30 5844 C 578.732 -3.23448 3.03144 0
M  V30 5845 H 575.952 -0.371527 0.558756 0
M  V30 5846 H 578.496 -0.543082 1.97157 0
M  V30 5847 H 576.651 -2.97294 2.48384 0
M  V30 5848 H 577.065 -2.45357 4.63573 0
M  V30 5849 H 578.539 -3.96669 3.83872 0
M  V30 5850 H 579.016 -3.83094 2.14793 0
M  V30 5851 H 579.622 -2.64702 3.32886 0
M  V30 5852 N 577.937 -1.40673 -0.710563 0
M  V30 5853 C 578.884 -1.41336 -1.82463 0
M  V30 5854 C 579.854 -0.269648 -1.63897 0
M  V30 5855 O 581.039 -0.468463 -1.8496 0
M  V30 5856 C 578.179 -1.28665 -3.20218 0
M  V30 5857 C 577.292 -2.52784 -3.5032 0
M  V30 5858 C 576.427 -2.32517 -4.77608 0
M  V30 5859 C 575.466 -3.52187 -5.0063 0
M  V30 5860 N 574.603 -3.31084 -6.19135 0
M  V30 5861 H 579.443 -2.36558 -1.8123 0
M  V30 5862 H 576.98 -1.17483 -0.885226 0
M  V30 5863 H 578.938 -1.19324 -3.99772 0
M  V30 5864 H 577.568 -0.370602 -3.20666 0
M  V30 5865 H 576.62 -2.72634 -2.65283 0
M  V30 5866 H 577.932 -3.41845 -3.63241 0
M  V30 5867 H 577.086 -2.20558 -5.65189 0
M  V30 5868 H 575.825 -1.40889 -4.66906 0
M  V30 5869 H 574.83 -3.64617 -4.11502 0
M  V30 5870 H 576.055 -4.44749 -5.13201 0
M  V30 5871 H 574.001 -2.42143 -6.09674 0
M  V30 5872 H 573.918 -4.13713 -6.32754 0
M  V30 5873 H 575.186 -3.22868 -7.0949 0
M  V30 5874 N 579.415 0.9433 -1.26252 0
M  V30 5875 C 580.661 1.69175 -1.11837 0
M  V30 5876 C 580.994 1.91238 0.337891 0
M  V30 5877 O 580.269 1.49152 1.24836 0
M  V30 5878 C 580.552 3.06783 -1.88563 0
M  V30 5879 C 580.405 2.9206 -3.42083 0
M  V30 5880 C 581.724 4.06865 -1.67776 0
M  V30 5881 H 578.843 0.61399 -0.407658 0
M  V30 5882 H 581.485 1.09572 -1.55222 0
M  V30 5883 H 579.635 3.57663 -1.51689 0
M  V30 5884 H 581.307 2.48419 -3.88698 0
M  V30 5885 H 579.55 2.27731 -3.69217 0
M  V30 5886 H 580.221 3.89651 -3.90994 0
M  V30 5887 H 582.697 3.64939 -1.99897 0
M  V30 5888 H 581.573 5.01168 -2.23879 0
M  V30 5889 H 581.834 4.37705 -0.621816 0
M  V30 5890 N 580.893 1.08022 1.14757 0
M  V30 5891 C 582.118 0.82895 1.90114 0
M  V30 5892 C 582.543 -0.612772 1.77839 0
M  V30 5893 O 581.901 -1.42895 1.11583 0
M  V30 5894 C 581.949 1.25062 3.38219 0
M  V30 5895 O 581.053 0.400119 4.10454 0
M  V30 5896 H 580.394 0.301412 0.591648 0
M  V30 5897 H 582.924 1.44062 1.45284 0
M  V30 5898 H 582.934 1.22977 3.89025 0
M  V30 5899 H 581.609 2.30067 3.46471 0
M  V30 5900 H 580.186 0.484052 3.69745 0
M  V30 5901 N 582.371 -1.3172 0.865308 0
M  V30 5902 C 583.648 -1.91574 0.394789 0
M  V30 5903 C 584.028 -1.78769 -1.12271 0
M  V30 5904 O 583.376 -1.19245 -1.94918 0
M  V30 5905 C 583.586 -3.37957 0.870982 0
M  V30 5906 C 584.934 -4.15073 0.894384 0
M  V30 5907 O 585.958 -3.4672 0.816325 0
M  V30 5908 O 584.817 -5.37151 1.00651 0
M  V30 5909 H 581.911 -0.818649 0.117229 0
M  V30 5910 H 584.457 -1.4042 0.952913 0
M  V30 5911 H 583.229 -3.41269 1.91444 0
M  V30 5912 H 582.852 -3.96534 0.290907 0
M  V30 5913 N 583.85 -0.624285 -1.44708 0
M  V30 5914 C 585.096 -0.126051 -2.02107 0
M  V30 5915 C 585.425 1.2496 -1.49048 0
M  V30 5916 O 584.68 1.84163 -0.662005 0
M  V30 5917 C 584.979 -0.0546353 -3.57358 0
M  V30 5918 C 584.644 -1.36815 -4.29642 0
M  V30 5919 C 583.307 -1.72792 -4.49106 0
M  V30 5920 C 585.659 -2.23549 -4.70824 0
M  V30 5921 C 582.986 -2.95222 -5.07012 0
M  V30 5922 C 585.339 -3.45243 -5.30085 0
M  V30 5923 C 584.003 -3.81452 -5.47769 0
M  V30 5924 H 583.273 -0.0461252 -0.739563 0
M  V30 5925 H 585.92 -0.809236 -1.73562 0
M  V30 5926 H 584.225 0.711891 -3.85278 0
M  V30 5927 H 585.922 0.347282 -3.99493 0
M  V30 5928 H 582.512 -1.07817 -4.14817 0
M  V30 5929 H 586.696 -1.9705 -4.55505 0
M  V30 5930 H 581.952 -3.23361 -5.18891 0
M  V30 5931 H 586.125 -4.12689 -5.60946 0
M  V30 5932 H 583.753 -4.76403 -5.92405 0
M  V30 5933 N 585.328 1.53329 -0.364422 0
M  V30 5934 C 586.744 1.59594 -0.0133165 0
M  V30 5935 C 586.944 1.37959 1.46865 0
M  V30 5936 O 586 1.18418 2.2301 0
M  V30 5937 C 587.313 2.97032 -0.468213 0
M  V30 5938 C 588.861 3.10138 -0.422334 0
M  V30 5939 C 589.336 4.49986 -0.853024 0
M  V30 5940 N 590.827 4.56098 -0.808037 0
M  V30 5941 C 591.562 5.62495 -1.11299 0
M  V30 5942 N 591.058 6.7665 -1.48717 0
M  V30 5943 N 592.851 5.52473 -1.03586 0
M  V30 5944 H 585.002 1.65644 -1.32951 0
M  V30 5945 H 587.265 0.77684 -0.543345 0
M  V30 5946 H 586.971 3.18 -1.5023 0
M  V30 5947 H 586.845 3.76918 0.145775 0
M  V30 5948 H 589.232 2.88881 0.602622 0
M  V30 5949 H 589.313 2.32263 -1.0718 0
M  V30 5950 H 588.957 4.7198 -1.87609 0
M  V30 5951 H 588.887 5.26289 -0.180819 0
M  V30 5952 H 591.378 3.74131 -0.532361 0
M  V30 5953 H 591.691 7.53776 -1.70415 0
M  V30 5954 H 590.036 6.78044 -1.52581 0
M  V30 5955 H 593.227 4.6217 -0.742736 0
M  V30 5956 H 593.4 6.35295 -1.27686 0
M  V30 5957 N 586.806 0.0935595 1.57322 0
M  V30 5958 C 587.716 -0.880192 2.17462 0
M  V30 5959 C 588.732 -1.31135 1.14366 0
M  V30 5960 O 589.908 -1.37958 1.46729 0
M  V30 5961 C 586.973 -2.12184 2.74188 0
M  V30 5962 C 586.034 -1.74503 3.92234 0
M  V30 5963 C 585.267 -2.92748 4.46245 0
M  V30 5964 O 585.49 -4.07427 3.99198 0
M  V30 5965 O 584.424 -2.71303 5.37288 0
M  V30 5966 H 588.25 -0.398516 3.01074 0
M  V30 5967 H 585.835 -0.130707 1.48827 0
M  V30 5968 H 587.717 -2.84953 3.10451 0
M  V30 5969 H 586.392 -2.59407 1.93623 0
M  V30 5970 H 585.299 -0.989186 3.60785 0
M  V30 5971 H 586.632 -1.32044 4.74157 0
M  V30 5972 N 588.284 -1.56567 -0.180126 0
M  V30 5973 C 589.53 -1.82658 -0.894859 0
M  V30 5974 C 589.885 -0.672826 -1.80252 0
M  V30 5975 O 589.178 0.331227 -1.88715 0
M  V30 5976 C 589.372 -3.1252 -1.73395 0
M  V30 5977 C 589.201 -4.40417 -0.909028 0
M  V30 5978 C 587.971 -5.01872 -0.587562 0
M  V30 5979 C 590.169 -5.13669 -0.254698 0
M  V30 5980 N 588.151 -6.13373 0.254428 0
M  V30 5981 C 589.522 -6.18373 0.448837 0
M  V30 5982 C 591.577 -4.97603 -0.171958 0
M  V30 5983 C 590.28 -7.08753 1.22725 0
M  V30 5984 C 592.306 -5.88418 0.593101 0
M  V30 5985 C 591.668 -6.92579 1.28503 0
M  V30 5986 H 587.767 -0.719493 -0.306356 0
M  V30 5987 H 590.351 -1.94021 -0.16247 0
M  V30 5988 H 588.522 -3.02365 -2.43783 0
M  V30 5989 H 590.254 -3.2664 -2.38931 0
M  V30 5990 H 587.009 -4.64666 -0.915557 0
M  V30 5991 H 587.433 -6.73721 0.665474 0
M  V30 5992 H 592.075 -4.17089 -0.692555 0
M  V30 5993 H 589.793 -7.88718 1.75923 0
M  V30 5994 H 593.379 -5.78059 0.658674 0
M  V30 5995 H 592.259 -7.61638 1.86754 0
M  V30 5996 N 589.762 0.448376 -1.51087 0
M  V30 5997 C 591.011 1.19561 -1.62444 0
M  V30 5998 C 591.324 1.92602 -0.341151 0
M  V30 5999 O 592.53 2.69439 -0.333936 0
M  V30 6000 C 590.986 2.17373 -2.8684 0
M  V30 6001 C 590.594 1.5003 -4.22131 0
M  V30 6002 C 592.338 2.92597 -3.0755 0
M  V30 6003 C 590.245 2.46262 -5.37689 0
M  V30 6004 H 589.175 0.449975 -0.605011 0
M  V30 6005 H 591.826 0.463735 -1.77544 0
M  V30 6006 H 590.208 2.93948 -2.65349 0
M  V30 6007 H 591.382 0.790886 -4.53962 0
M  V30 6008 H 589.697 0.870011 -4.0721 0
M  V30 6009 H 592.294 3.64663 -3.91056 0
M  V30 6010 H 592.637 3.53306 -2.20183 0
M  V30 6011 H 593.17 2.23131 -3.29329 0
M  V30 6012 H 589.909 1.90258 -6.27281 0
M  V30 6013 H 589.429 3.15289 -5.10248 0
M  V30 6014 H 591.108 3.07623 -5.6919 0
M  V30 6015 N 591.24 1.41047 0.703093 0
M  V30 6016 C 592.487 1.4 1.46309 0
M  V30 6017 C 592.815 0.00654574 1.94499 0
M  V30 6018 O 592.07 -0.980255 1.6938 0
M  V30 6019 C 592.369 2.34686 2.6955 0
M  V30 6020 C 592.035 3.81684 2.40058 0
M  V30 6021 C 590.697 4.21731 2.31725 0
M  V30 6022 C 593.049 4.74525 2.15581 0
M  V30 6023 C 590.377 5.52637 1.97001 0
M  V30 6024 C 592.729 6.05744 1.82366 0
M  V30 6025 C 591.393 6.44819 1.72524 0
M  V30 6026 H 590.663 0.512295 0.535382 0
M  V30 6027 H 593.31 1.73792 0.804275 0
M  V30 6028 H 591.615 1.94122 3.40329 0
M  V30 6029 H 593.312 2.31152 3.27673 0
M  V30 6030 H 589.902 3.49963 2.47435 0
M  V30 6031 H 594.086 4.44395 2.20968 0
M  V30 6032 H 589.342 5.81802 1.87928 0
M  V30 6033 H 593.516 6.77189 1.62444 0
M  V30 6034 H 591.143 7.46168 1.45385 0
M  V30 6035 N 592.718 -0.936591 1.26751 0
M  V30 6036 C 593.65 -2.03991 1.045 0
M  V30 6037 C 594.663 -1.628 0.00394261 0
M  V30 6038 O 595.852 -1.76817 0.244526 0
M  V30 6039 C 592.952 -3.34218 0.561403 0
M  V30 6040 C 592.125 -4.04151 1.67274 0
M  V30 6041 C 591.184 -5.12651 1.1864 0
M  V30 6042 O 590.21 -5.37104 1.88437 0
M  V30 6043 N 591.412 -5.80488 0.037278 0
M  V30 6044 H 594.177 -2.23644 1.99508 0
M  V30 6045 H 591.738 -1.10638 1.18198 0
M  V30 6046 H 593.73 -4.04101 0.220136 0
M  V30 6047 H 592.3 -3.11203 -0.295211 0
M  V30 6048 H 591.52 -3.28121 2.18472 0
M  V30 6049 H 592.808 -4.47626 2.41885 0
M  V30 6050 H 592.206 -5.63064 -0.545494 0
M  V30 6051 H 590.763 -6.5134 -0.244877 0
M  V30 6052 N 594.196 -1.08629 -1.14182 0
M  V30 6053 C 595.159 -0.722027 -2.1753 0
M  V30 6054 C 596.159 0.244305 -1.58933 0
M  V30 6055 O 597.349 0.0235545 -1.74184 0
M  V30 6056 C 594.481 -0.0663966 -3.40835 0
M  V30 6057 H 595.674 -1.63719 -2.51269 0
M  V30 6058 H 593.227 -0.884442 -1.28869 0
M  V30 6059 H 593.962 0.860389 -3.12678 0
M  V30 6060 H 593.747 -0.761598 -3.84632 0
M  V30 6061 H 595.237 0.173346 -4.1724 0
M  V30 6062 N 595.674 1.31259 -0.872281 0
M  V30 6063 C 596.923 1.95893 -0.480493 0
M  V30 6064 C 597.236 1.697 0.972688 0
M  V30 6065 O 598.442 2.28214 1.47073 0
M  V30 6066 C 596.898 3.50705 -0.808342 0
M  V30 6067 C 596.506 3.85735 -2.27844 0
M  V30 6068 C 598.25 4.21719 -0.485136 0
M  V30 6069 C 596.157 5.33668 -2.54858 0
M  V30 6070 H 595.087 0.733182 -0.175955 0
M  V30 6071 H 597.738 1.49396 -1.0655 0
M  V30 6072 H 596.12 3.95706 -0.152558 0
M  V30 6073 H 597.294 3.51686 -2.97748 0
M  V30 6074 H 595.609 3.27792 -2.56791 0
M  V30 6075 H 598.206 5.30559 -0.664166 0
M  V30 6076 H 598.549 4.12316 0.574592 0
M  V30 6077 H 599.082 3.82359 -1.09756 0
M  V30 6078 H 595.821 5.48109 -3.59523 0
M  V30 6079 H 595.341 5.69061 -1.8955 0
M  V30 6080 H 597.02 6.00958 -2.39706 0
M  V30 6081 N 597.152 0.631951 1.44375 0
M  V30 6082 C 598.099 -0.0724807 2.30686 0
M  V30 6083 C 599.069 -0.835975 1.43529 0
M  V30 6084 O 600.254 -0.816849 1.7243 0
M  V30 6085 C 597.394 -1.04753 3.28817 0
M  V30 6086 C 596.507 -0.282367 4.31076 0
M  V30 6087 C 595.642 -1.2493 5.163 0
M  V30 6088 C 594.681 -0.473349 6.10267 0
M  V30 6089 N 593.818 -1.39079 6.88187 0
M  V30 6090 H 598.658 0.669477 2.90383 0
M  V30 6091 H 596.195 0.341927 1.43071 0
M  V30 6092 H 598.153 -1.62623 3.842 0
M  V30 6093 H 596.783 -1.75661 2.70819 0
M  V30 6094 H 595.835 0.412268 3.78159 0
M  V30 6095 H 597.147 0.321955 4.9776 0
M  V30 6096 H 596.301 -1.89931 5.76204 0
M  V30 6097 H 595.04 -1.88755 4.49692 0
M  V30 6098 H 594.045 0.190142 5.49471 0
M  V30 6099 H 595.27 0.16019 6.78911 0
M  V30 6100 H 593.216 -2.01623 6.24247 0
M  V30 6101 H 593.133 -0.840513 7.51313 0
M  V30 6102 H 594.401 -2.02961 7.52613 0
M  V30 6103 N 598.631 -1.53133 0.372548 0
M  V30 6104 C 599.859 -2.05774 -0.215515 0
M  V30 6105 C 600.274 -1.24555 -1.41886 0
M  V30 6106 O 599.631 -0.287951 -1.80214 0
M  V30 6107 C 599.682 -3.5645 -0.602161 0
M  V30 6108 O 599.403 -4.34591 0.553359 0
M  V30 6109 C 600.904 -4.25374 -1.24787 0
M  V30 6110 H 598.124 -0.670009 -0.0364529 0
M  V30 6111 H 600.668 -1.97434 0.532934 0
M  V30 6112 H 598.823 -3.64918 -1.30052 0
M  V30 6113 H 599.237 -5.23954 0.239336 0
M  V30 6114 H 600.711 -5.32097 -1.46891 0
M  V30 6115 H 601.188 -3.79531 -2.21026 0
M  V30 6116 H 601.794 -4.21177 -0.590752 0
M  V30 6117 N 600.109 -0.101901 -1.5727 0
M  V30 6118 C 601.059 0.865346 -2.1094 0
M  V30 6119 C 602.043 1.2394 -1.02605 0
M  V30 6120 O 603.235 1.21334 -1.28868 0
M  V30 6121 C 600.364 2.12187 -2.69874 0
M  V30 6122 C 599.45 1.77295 -3.85263 0
M  V30 6123 N 599.841 1.12993 -4.93017 0
M  V30 6124 C 598.139 2.06862 -3.95126 0
M  V30 6125 C 598.84 0.968631 -5.73579 0
M  V30 6126 N 597.816 1.48814 -5.22834 0
M  V30 6127 H 601.618 0.364368 -2.91633 0
M  V30 6128 H 599.132 0.101104 -1.62085 0
M  V30 6129 H 601.129 2.82431 -3.06657 0
M  V30 6130 H 599.789 2.62844 -1.90639 0
M  V30 6131 H 600.8 0.795935 -5.11747 0
M  V30 6132 H 597.477 2.59686 -3.26909 0
M  V30 6133 H 598.867 0.465231 -6.70287 0
M  V30 6134 N 601.587 1.56661 0.17182 0
M  V30 6135 C 602.812 1.86459 0.908165 0
M  V30 6136 C 603.237 0.688181 1.75059 0
M  V30 6137 O 602.595 -0.362753 1.77634 0
M  V30 6138 C 602.643 3.14669 1.76112 0
M  V30 6139 O 601.747 2.96858 2.86268 0
M  V30 6140 H 601.088 0.613318 0.254434 0
M  V30 6141 H 603.618 2.03892 0.170113 0
M  V30 6142 H 603.628 3.46061 2.16115 0
M  V30 6143 H 602.303 3.99905 1.14233 0
M  V30 6144 H 600.88 2.76819 2.49852 0
M  V30 6145 N 603.065 -0.440357 1.51323 0
M  V30 6146 C 603.975 -1.55955 1.75258 0
M  V30 6147 C 604.991 -1.61933 0.636687 0
M  V30 6148 O 606.167 -1.79231 0.918593 0
M  V30 6149 C 603.232 -2.9196 1.86977 0
M  V30 6150 C 602.293 -2.96122 3.10822 0
M  V30 6151 C 601.526 -4.2564 3.21973 0
M  V30 6152 O 601.749 -5.17851 2.39137 0
M  V30 6153 O 600.683 -4.36025 4.14929 0
M  V30 6154 H 604.509 -1.38673 2.70191 0
M  V30 6155 H 602.094 -0.623055 1.35788 0
M  V30 6156 H 603.976 -3.72682 1.96688 0
M  V30 6157 H 602.651 -3.09375 0.952307 0
M  V30 6158 H 601.558 -2.14366 3.06591 0
M  V30 6159 H 602.891 -2.83651 4.02247 0
M  V30 6160 N 604.543 -1.41418 -0.695603 0
M  V30 6161 C 605.506 -1.42988 -1.79129 0
M  V30 6162 C 606.506 -0.320514 -1.57573 0
M  V30 6163 O 607.696 -0.58039 -1.64247 0
M  V30 6164 C 604.828 -1.24122 -3.175 0
M  V30 6165 H 606.021 -2.40526 -1.7913 0
M  V30 6166 H 603.574 -1.2756 -0.903225 0
M  V30 6167 H 604.309 -0.274253 -3.23138 0
M  V30 6168 H 604.094 -2.045 -3.34547 0
M  V30 6169 H 605.584 -1.28056 -3.97481 0
M  V30 6170 N 606.021 0.929856 -1.27246 0
M  V30 6171 C 607.246 1.71674 -1.16374 0
M  V30 6172 C 607.671 1.86064 0.276024 0
M  V30 6173 O 607.029 1.3591 1.19992 0
M  V30 6174 C 607.077 3.09526 -1.85003 0
M  V30 6175 O 606.181 3.96142 -1.14653 0
M  V30 6176 H 605.522 0.52629 -0.404863 0
M  V30 6177 H 608.052 1.16381 -1.68276 0
M  V30 6178 H 608.062 3.59852 -1.92276 0
M  V30 6179 H 606.737 2.98369 -2.89739 0
M  V30 6180 H 605.314 3.54584 -1.15433 0
M  V30 6181 N 607.499 1.09233 1.13605 0
M  V30 6182 C 608.747 0.825525 1.84471 0
M  V30 6183 C 609.068 -0.650702 1.83823 0
M  V30 6184 O 608.338 -1.47204 1.29259 0
M  V30 6185 H 606.918 0.3024 0.683054 0
M  V30 6186 H 609.58 1.38006 1.37624 0
M  V30 6187 H 608.676 1.17727 2.89045 0
M  V30 6188 N 608.977 -1.30795 0.87923 0
M  V30 6189 C 609.91 -2.26396 0.286404 0
M  V30 6190 C 610.888 -1.51528 -0.589748 0
M  V30 6191 O 612.072 -1.80566 -0.541119 0
M  V30 6192 C 609.199 -3.33458 -0.593581 0
M  V30 6193 C 608.245 -4.2597 0.21247 0
M  V30 6194 S 609.078 -5.11132 1.59702 0
M  V30 6195 C 610.234 -6.21705 0.723408 0
M  V30 6196 H 610.467 -2.7633 1.09677 0
M  V30 6197 H 608 -1.38703 0.678305 0
M  V30 6198 H 609.958 -3.9561 -1.09557 0
M  V30 6199 H 608.619 -2.82259 -1.37799 0
M  V30 6200 H 607.812 -5.01907 -0.458822 0
M  V30 6201 H 607.414 -3.68363 0.646883 0
M  V30 6202 H 609.706 -6.77472 -0.0620739 0
M  V30 6203 H 610.649 -6.93007 1.4542 0
M  V30 6204 H 611.057 -5.63771 0.286855 0
M  V30 6205 N 610.455 -0.639598 -1.44038 0
M  V30 6206 C 611.701 -0.147698 -2.02261 0
M  V30 6207 C 612.034 1.23031 -1.50256 0
M  V30 6208 O 611.309 1.81847 -0.690068 0
M  V30 6209 C 611.592 -0.14362 -3.59813 0
M  V30 6210 C 611.445 -1.55458 -4.22082 0
M  V30 6211 C 612.764 0.527317 -4.36929 0
M  V30 6212 H 609.883 -0.0551453 -0.734934 0
M  V30 6213 H 612.525 -0.817688 -1.71505 0
M  V30 6214 H 610.675 0.426898 -3.86147 0
M  V30 6215 H 612.347 -2.17464 -4.06826 0
M  V30 6216 H 610.59 -2.10594 -3.79253 0
M  V30 6217 H 611.261 -1.50369 -5.31124 0
M  V30 6218 H 613.737 0.0420504 -4.16079 0
M  V30 6219 H 612.613 0.499389 -5.46624 0
M  V30 6220 H 612.874 1.59914 -4.12165 0
M  V30 6221 N 611.933 1.52934 -0.380664 0
M  V30 6222 C 613.161 2.05886 0.204599 0
M  V30 6223 C 613.576 1.25305 1.41223 0
M  V30 6224 O 612.933 0.297504 1.80059 0
M  V30 6225 C 612.984 3.56764 0.583249 0
M  V30 6226 O 612.705 4.34292 -0.576398 0
M  V30 6227 C 614.206 4.2603 1.2253 0
M  V30 6228 H 611.426 0.670193 0.0328991 0
M  V30 6229 H 613.97 1.97148 -0.543397 0
M  V30 6230 H 612.125 3.65603 1.28115 0
M  V30 6231 H 612.539 5.23819 -0.267119 0
M  V30 6232 H 614.013 5.32868 1.44068 0
M  V30 6233 H 614.49 3.80698 2.19011 0
M  V30 6234 H 615.096 4.21485 0.568407 0
M  V30 6235 N 613.412 0.11024 1.57214 0
M  V30 6236 C 614.344 -0.873497 2.11902 0
M  V30 6237 C 615.357 -1.23588 1.05971 0
M  V30 6238 O 616.546 -1.18636 1.33371 0
M  V30 6239 C 613.646 -2.17805 2.59643 0
M  V30 6240 C 612.819 -1.98869 3.89576 0
M  V30 6241 C 611.878 -3.12974 4.23006 0
M  V30 6242 O 610.904 -2.86272 4.91973 0
M  V30 6243 N 612.106 -4.39167 3.79622 0
M  V30 6244 H 614.871 -0.406317 2.96933 0
M  V30 6245 H 612.432 -0.074437 1.61729 0
M  V30 6246 H 614.424 -2.93117 2.79042 0
M  V30 6247 H 612.994 -2.55899 1.7954 0
M  V30 6248 H 612.214 -1.078 3.79174 0
M  V30 6249 H 613.502 -1.83512 4.74553 0
M  V30 6250 H 612.9 -4.63739 3.2398 0
M  V30 6251 H 611.457 -5.11379 4.04147 0
M  V30 6252 N 614.89 -1.56749 -0.16351 0
M  V30 6253 C 615.82 -2.00042 -1.20438 0
M  V30 6254 C 616.801 -0.877256 -1.45733 0
M  V30 6255 O 617.986 -1.1439 -1.56935 0
M  V30 6256 C 615.116 -2.36697 -2.54149 0
M  V30 6257 C 614.07 -3.52046 -2.43408 0
M  V30 6258 C 613.396 -3.74466 -3.81679 0
M  V30 6259 C 614.696 -4.85247 -1.93216 0
M  V30 6260 H 616.39 -2.87244 -0.844477 0
M  V30 6261 H 613.936 -1.38194 -0.40478 0
M  V30 6262 H 615.889 -2.65582 -3.27176 0
M  V30 6263 H 614.613 -1.46414 -2.91943 0
M  V30 6264 H 613.272 -3.23301 -1.72834 0
M  V30 6265 H 612.92 -2.81461 -4.1688 0
M  V30 6266 H 612.62 -4.52084 -3.75359 0
M  V30 6267 H 614.144 -4.0576 -4.5628 0
M  V30 6268 H 615.558 -5.12957 -2.56023 0
M  V30 6269 H 613.955 -5.66556 -1.97825 0
M  V30 6270 H 615.025 -4.7672 -0.88689 0
M  V30 6271 O 616.407 0.308401 -1.58528 0
M  V30 6272 H 617.098 0.955962 -1.68467 0
M  V30 END ATOM
M  V30 BEGIN BOND
M  V30 END BOND
M  V30 END CTAB
M  END
$$$$
