drugbank_target|Q9ZB17 Aldose 1-epimerase (DB02379; DB03142; DB03389; DB03773)
 OpenBabel12092120253D

  0  0  0     0  0            999 V3000
M  V30 BEGIN CTAB
M  V30 COUNTS 5251 5304 0 0 0
M  V30 BEGIN ATOM
M  V30 1 H -0.908 1.98254 -0.117106 0
M  V30 2 N 0 1.576 0 0
M  V30 3 C 0.933 2.03868 1.02534 0
M  V30 4 C 1.911 0.928543 1.3348 0
M  V30 5 O 3.095 1.19667 1.45644 0
M  V30 6 C 0.222 2.43627 2.35294 0
M  V30 7 C -0.732 3.65373 2.2001 0
M  V30 8 S 0.101 5.13292 1.52614 0
M  V30 9 C 1.257 5.56322 2.86805 0
M  V30 10 H 1.49 2.90518 0.631377 0
M  V30 11 H -0.977 1.52953 0.210867 0
M  V30 12 H 0.981 2.67203 3.11629 0
M  V30 13 H -0.358 1.57376 2.7183 0
M  V30 14 H -1.165 3.90944 3.18086 0
M  V30 15 H -1.563 3.418 1.51819 0
M  V30 16 H 0.729 5.58782 3.83104 0
M  V30 17 H 1.672 6.56266 2.65933 0
M  V30 18 H 2.08 4.83886 2.90714 0
M  V30 19 N 1.4781 -0.272755 1.55222 0
M  V30 20 C 2.3881 -1.35918 1.91216 0
M  V30 21 C 3.4041 -1.54026 0.809436 0
M  V30 22 O 4.5801 -1.68148 1.10852 0
M  V30 23 C 1.6451 -2.69834 2.17693 0
M  V30 24 C 0.7061 -2.6047 3.41253 0
M  V30 25 C -0.0609 -3.88 3.66458 0
M  V30 26 O 0.1621 -4.88693 2.94169 0
M  V30 27 O -0.9039 -3.88189 4.59992 0
M  V30 28 H 2.9221 -1.0839 2.83699 0
M  V30 29 H 0.5071 -0.471301 1.41771 0
M  V30 30 H 2.3891 -3.49017 2.36147 0
M  V30 31 H 1.0641 -2.97148 1.28392 0
M  V30 32 H -0.0289 -1.79663 3.28134 0
M  V30 33 H 1.3041 -2.38106 4.30774 0
M  V30 34 N 2.9562 -1.48159 -0.537278 0
M  V30 35 C 4.2052 -1.5506 -1.28993 0
M  V30 36 C 4.5182 -0.226211 -1.94288 0
M  V30 37 O 5.7242 -0.173395 -2.70946 0
M  V30 38 C 4.1802 -2.73429 -2.34018 0
M  V30 39 C 3.7882 -4.1248 -1.74825 0
M  V30 40 C 5.5322 -2.89638 -3.10339 0
M  V30 41 C 3.4392 -5.22121 -2.77747 0
M  V30 42 H 2.3692 -0.577231 -0.485098 0
M  V30 43 H 5.0202 -1.74478 -0.568317 0
M  V30 44 H 3.4022 -2.47431 -3.09182 0
M  V30 45 H 4.5762 -4.48466 -1.05899 0
M  V30 46 H 2.8912 -4.01327 -1.11022 0
M  V30 47 H 5.4882 -3.68718 -3.87235 0
M  V30 48 H 5.8312 -1.9882 -3.65754 0
M  V30 49 H 6.3642 -3.15502 -2.42288 0
M  V30 50 H 3.1032 -6.1488 -2.27161 0
M  V30 51 H 2.6232 -4.90631 -3.45024 0
M  V30 52 H 4.3022 -5.49924 -3.4087 0
M  V30 53 N 4.4343 0.785586 -1.36625 0
M  V30 54 C 5.3813 1.89838 -1.31264 0
M  V30 55 C 6.3513 1.65115 -0.180633 0
M  V30 56 O 7.5363 1.87222 -0.36777 0
M  V30 57 C 4.6763 3.26706 -1.11163 0
M  V30 58 C 3.7893 3.63476 -2.33472 0
M  V30 59 C 2.9243 4.89481 -2.06353 0
M  V30 60 C 1.9633 5.18941 -3.24602 0
M  V30 61 N 1.1003 6.36131 -2.97123 0
M  V30 62 H 5.9403 1.93756 -2.26413 0
M  V30 63 H 3.4773 0.947454 -1.12524 0
M  V30 64 H 5.4353 4.05639 -0.975337 0
M  V30 65 H 4.0653 3.222 -0.196674 0
M  V30 66 H 3.1173 2.79636 -2.57891 0
M  V30 67 H 4.4293 3.81193 -3.21704 0
M  V30 68 H 3.5833 5.76288 -1.89675 0
M  V30 69 H 2.3223 4.73841 -1.15437 0
M  V30 70 H 1.3273 4.30615 -3.41834 0
M  V30 71 H 2.5523 5.36498 -4.16349 0
M  V30 72 H 0.4983 6.21875 -2.08823 0
M  V30 73 H 0.4153 6.54198 -3.78894 0
M  V30 74 H 1.6833 7.2591 -2.84033 0
M  V30 75 N 5.9124 1.20967 1.01018 0
M  V30 76 C 7.1614 1.01796 1.74128 0
M  V30 77 C 7.4744 -0.449691 1.90361 0
M  V30 78 O 8.6804 -0.76068 2.60626 0
M  V30 79 C 7.1364 1.7727 3.13215 0
M  V30 80 C 6.7444 3.28171 3.04972 0
M  V30 81 C 8.4884 1.66489 3.90489 0
M  V30 82 C 6.3954 3.96156 4.39107 0
M  V30 83 H 5.3254 0.377276 0.652824 0
M  V30 84 H 7.9764 1.44651 1.12909 0
M  V30 85 H 6.3584 1.27205 3.75013 0
M  V30 86 H 7.5324 3.85499 2.52443 0
M  V30 87 H 5.8474 3.39437 2.41188 0
M  V30 88 H 8.4444 2.14617 4.89738 0
M  V30 89 H 8.7874 0.6222 4.11624 0
M  V30 90 H 9.3204 2.14003 3.35332 0
M  V30 91 H 6.0594 5.00604 4.23174 0
M  V30 92 H 5.5794 3.43617 4.91617 0
M  V30 93 H 7.2584 4.00774 5.07926 0
M  V30 94 N 7.3905 -1.2043 1.01659 0
M  V30 95 C 8.8065 -1.41852 0.731442 0
M  V30 96 C 9.0065 -1.89358 -0.688898 0
M  V30 97 O 8.0625 -2.06247 -1.45666 0
M  V30 98 C 9.3755 -2.44019 1.75714 0
M  V30 99 C 10.9235 -2.57785 1.77527 0
M  V30 100 C 11.3985 -3.63194 2.79023 0
M  V30 101 N 12.8895 -3.70678 2.77763 0
M  V30 102 C 13.6245 -4.51897 3.52954 0
M  V30 103 N 13.1205 -5.36921 4.37821 0
M  V30 104 N 14.9135 -4.4643 3.41551 0
M  V30 105 H 7.0645 -0.879093 1.93354 0
M  V30 106 H 9.3275 -0.448425 0.835236 0
M  V30 107 H 9.0335 -2.1611 2.77469 0
M  V30 108 H 8.9075 -3.43007 1.56927 0
M  V30 109 H 11.2945 -2.85023 0.764569 0
M  V30 110 H 11.3755 -1.58992 2.00387 0
M  V30 111 H 11.0195 -3.36699 3.80258 0
M  V30 112 H 10.9495 -4.61609 2.53425 0
M  V30 113 H 13.4405 -3.09944 2.16201 0
M  V30 114 H 13.7535 -5.95981 4.91962 0
M  V30 115 H 12.0985 -5.36424 4.41899 0
M  V30 116 H 15.2895 -3.79042 2.74672 0
M  V30 117 H 15.4625 -5.09491 4.00404 0
M  V30 118 N 8.8686 -0.792821 -1.36206 0
M  V30 119 C 10.1456 -0.290627 -1.93429 0
M  V30 120 C 10.5256 1.21773 -1.72437 0
M  V30 121 O 9.8736 2.0108 -1.08531 0
M  V30 122 C 10.0836 -0.686973 -3.42172 0
M  V30 123 C 11.4316 -0.668643 -4.19302 0
M  V30 124 O 12.4556 -0.627658 -3.50626 0
M  V30 125 O 11.3146 -0.714597 -5.41808 0
M  V30 126 H 8.4086 -0.0727927 -0.82379 0
M  V30 127 H 10.9546 -0.875593 -1.45367 0
M  V30 128 H 9.7266 -1.72711 -3.51122 0
M  V30 129 H 9.3496 -0.0760733 -3.97527 0
M  V30 130 N 10.3467 1.47872 -0.545128 0
M  V30 131 C 11.5937 2.02493 -0.0165858 0
M  V30 132 C 11.9217 1.42073 1.32836 0
M  V30 133 O 11.1767 0.561459 1.87473 0
M  V30 134 C 11.4757 3.57131 0.13867 0
M  V30 135 C 11.1417 4.36411 -1.13384 0
M  V30 136 C 9.8037 4.57792 -1.48256 0
M  V30 137 C 12.1557 4.82223 -1.97764 0
M  V30 138 C 9.4837 5.22233 -2.67376 0
M  V30 139 C 11.8357 5.47977 -3.16076 0
M  V30 140 C 10.4997 5.67593 -3.51275 0
M  V30 141 H 9.7697 0.740975 -0.00606918 0
M  V30 142 H 12.4167 1.77683 -0.714207 0
M  V30 143 H 10.7217 3.80865 0.919172 0
M  V30 144 H 12.4187 3.97031 0.562782 0
M  V30 145 H 9.0087 4.2004 -0.852297 0
M  V30 146 H 13.1927 4.65493 -1.72132 0
M  V30 147 H 8.4487 5.35616 -2.94831 0
M  V30 148 H 12.6227 5.8244 -3.81755 0
M  V30 149 H 10.2497 6.17298 -4.43675 0
M  V30 150 N 11.8248 0.280983 1.55075 0
M  V30 151 C 13.0728 -0.333455 1.9933 0
M  V30 152 C 13.3938 -1.55937 1.17085 0
M  V30 153 O 12.6638 -1.94143 0.261805 0
M  V30 154 H 11.2438 -0.126197 0.736263 0
M  V30 155 H 13.9058 0.387678 1.91005 0
M  V30 156 H 13.0018 -0.619292 3.05894 0
M  V30 157 N 13.3029 -1.57598 0.00835791 0
M  V30 158 C 14.2329 -2.1198 -0.979113 0
M  V30 159 C 15.2139 -1.03091 -1.35301 0
M  V30 160 O 16.3989 -1.30818 -1.43528 0
M  V30 161 C 13.5289 -2.62995 -2.26828 0
M  V30 162 C 12.4829 -3.76485 -2.03576 0
M  V30 163 C 11.8089 -4.13846 -3.38579 0
M  V30 164 C 13.1089 -5.0342 -1.39161 0
M  V30 165 H 14.8029 -2.94738 -0.526281 0
M  V30 166 H 12.3489 -1.41783 -0.251704 0
M  V30 167 H 14.3019 -2.99669 -2.96271 0
M  V30 168 H 13.0259 -1.7737 -2.7424 0
M  V30 169 H 11.6849 -3.40217 -1.36557 0
M  V30 170 H 11.3329 -3.25232 -3.83709 0
M  V30 171 H 11.0329 -4.90312 -3.23834 0
M  V30 172 H 12.5569 -4.53086 -4.09323 0
M  V30 173 H 13.9709 -5.37812 -1.98573 0
M  V30 174 H 12.3679 -5.84746 -1.34878 0
M  V30 175 H 13.4379 -4.83548 -0.361868 0
M  V30 176 N 14.781 0.264519 -1.55364 0
M  V30 177 C 16.029 0.993021 -1.76021 0
M  V30 178 C 16.35 1.86511 -0.569099 0
M  V30 179 O 15.62 1.91438 0.415735 0
M  V30 180 H 14.2 0.369639 -0.649135 0
M  V30 181 H 16.862 0.286707 -1.9278 0
M  V30 182 H 15.958 1.62502 -2.66457 0
M  V30 183 N 16.2591 1.48442 0.529413 0
M  V30 184 C 17.4841 1.60406 1.31471 0
M  V30 185 C 17.9091 0.264738 1.86228 0
M  V30 186 O 17.2671 -0.763668 1.64432 0
M  V30 187 C 17.3151 2.65419 2.44101 0
M  V30 188 O 16.4191 2.22618 3.47153 0
M  V30 189 H 15.7601 0.537863 0.389357 0
M  V30 190 H 18.2901 1.94432 0.636965 0
M  V30 191 H 18.3001 2.86709 2.90279 0
M  V30 192 H 16.9751 3.62652 2.03608 0
M  V30 193 H 15.5521 2.11543 3.0709 0
M  V30 194 N 17.7372 -0.778329 1.37039 0
M  V30 195 C 19.0142 -1.52551 1.22424 0
M  V30 196 C 19.3942 -2.10288 -0.184964 0
M  V30 197 O 18.7422 -1.94953 -1.19187 0
M  V30 198 C 18.9522 -2.61164 2.31504 0
M  V30 199 C 20.3002 -3.28746 2.68721 0
M  V30 200 O 21.3242 -2.71455 2.30631 0
M  V30 201 O 20.1832 -4.3231 3.3432 0
M  V30 202 H 17.2772 -0.675343 0.477326 0
M  V30 203 H 19.8232 -0.815859 1.48801 0
M  V30 204 H 18.5952 -2.16574 3.25901 0
M  V30 205 H 18.2182 -3.39737 2.06554 0
M  V30 206 N 19.2153 -1.21501 -1.00376 0
M  V30 207 C 20.1453 -0.999478 -2.11028 0
M  V30 208 C 21.1263 0.0759671 -1.6993 0
M  V30 209 O 22.3113 -0.0841106 -1.94018 0
M  V30 210 C 19.4413 -0.564709 -3.42678 0
M  V30 211 C 18.3953 -1.58486 -3.97576 0
M  V30 212 C 17.7213 -1.00628 -5.25146 0
M  V30 213 C 19.0213 -2.97204 -4.29496 0
M  V30 214 H 20.7153 -1.92495 -2.29317 0
M  V30 215 H 18.2613 -0.92693 -1.102 0
M  V30 216 H 20.2143 -0.401091 -4.19487 0
M  V30 217 H 18.9383 0.396411 -3.24185 0
M  V30 218 H 17.5973 -1.73606 -3.22888 0
M  V30 219 H 17.2453 -0.0368439 -5.02987 0
M  V30 220 H 16.9453 -1.68771 -5.62841 0
M  V30 221 H 18.4693 -0.854015 -6.04598 0
M  V30 222 H 19.8833 -2.8552 -4.97143 0
M  V30 223 H 18.2803 -3.62372 -4.78338 0
M  V30 224 H 19.3503 -3.47956 -3.3772 0
M  V30 225 N 20.6934 1.19889 -1.02296 0
M  V30 226 C 21.9424 1.88743 -0.711257 0
M  V30 227 C 22.2554 1.80112 0.762817 0
M  V30 228 O 23.4614 2.44161 1.18733 0
M  V30 229 C 21.9174 3.38525 -1.22185 0
M  V30 230 C 21.5254 3.55727 -2.72328 0
M  V30 231 C 23.2694 4.12893 -0.985864 0
M  V30 232 C 21.1764 4.99369 -3.16835 0
M  V30 233 H 20.1064 0.706885 -0.262353 0
M  V30 234 H 22.7574 1.35586 -1.23648 0
M  V30 235 H 21.1394 3.91044 -0.624571 0
M  V30 236 H 22.3134 3.13564 -3.3766 0
M  V30 237 H 20.6284 2.94739 -2.9414 0
M  V30 238 H 23.2254 5.18813 -1.29374 0
M  V30 239 H 23.5684 4.16228 0.0775055 0
M  V30 240 H 24.1014 3.66494 -1.54684 0
M  V30 241 H 20.8404 5.01193 -4.22476 0
M  V30 242 H 20.3604 5.42317 -2.56228 0
M  V30 243 H 22.0394 5.67988 -3.09837 0
M  V30 244 N 22.1715 0.800033 1.35784 0
M  V30 245 C 23.3965 0.388511 2.03729 0
M  V30 246 C 23.8215 -0.990481 1.5991 0
M  V30 247 O 23.1795 -1.64013 0.772612 0
M  V30 248 C 23.2275 0.4726 3.5749 0
M  V30 249 O 22.3315 -0.51646 4.09153 0
M  V30 250 H 21.6725 0.163271 0.643614 0
M  V30 251 H 24.2025 1.0841 1.73518 0
M  V30 252 H 24.2125 0.34003 4.06581 0
M  V30 253 H 22.8875 1.47848 3.88734 0
M  V30 254 H 21.4645 -0.344673 3.71304 0
M  V30 255 N 23.6496 -1.47581 0.552962 0
M  V30 256 C 24.5796 -2.32762 -0.185451 0
M  V30 257 C 25.5606 -1.43527 -0.912905 0
M  V30 258 O 26.7456 -1.72388 -0.894201 0
M  V30 259 C 23.8756 -3.25219 -1.21859 0
M  V30 260 C 22.8296 -4.23661 -0.607864 0
M  V30 261 C 22.1556 -5.05413 -1.74533 0
M  V30 262 C 23.4556 -5.20481 0.435582 0
M  V30 263 H 25.1496 -2.94749 0.525684 0
M  V30 264 H 22.6956 -1.41738 0.254251 0
M  V30 265 H 24.6486 -3.8365 -1.7433 0
M  V30 266 H 23.3726 -2.61279 -1.95961 0
M  V30 267 H 22.0316 -3.66451 -0.104489 0
M  V30 268 H 21.6796 -4.3788 -2.47529 0
M  V30 269 H 21.3796 -5.72059 -1.34249 0
M  V30 270 H 22.9036 -5.66701 -2.27338 0
M  V30 271 H 24.3176 -5.733 -0.00290157 0
M  V30 272 H 22.7146 -5.95305 0.757067 0
M  V30 273 H 23.7846 -4.66217 1.33303 0
M  V30 274 N 25.1277 -0.289203 -1.54924 0
M  V30 275 C 26.3557 0.326463 -2.04308 0
M  V30 276 C 26.7707 1.48413 -1.16701 0
M  V30 277 O 26.1277 1.81507 -0.190087 0
M  V30 278 C 26.1787 0.794014 -3.52672 0
M  V30 279 O 25.8997 -0.317564 -4.36948 0
M  V30 280 C 27.4007 1.47605 -4.18004 0
M  V30 281 H 24.6207 0.0726272 -0.667058 0
M  V30 282 H 27.1647 -0.425401 -2.00026 0
M  V30 283 H 25.3197 1.49593 -3.57352 0
M  V30 284 H 25.7337 0.0443186 -5.24481 0
M  V30 285 H 27.2077 1.75447 -5.23376 0
M  V30 286 H 27.6847 2.41224 -3.67025 0
M  V30 287 H 28.2907 0.81762 -4.17367 0
M  V30 288 N 26.6058 1.57591 -0.0167156 0
M  V30 289 C 27.5538 2.10604 0.987353 0
M  V30 290 C 28.5478 1.02977 1.34507 0
M  V30 291 O 29.7538 1.21425 1.32875 0
M  V30 292 H 26.1288 0.672695 0.336134 0
M  V30 293 H 28.0998 2.93925 0.514817 0
M  V30 294 C 26.8488 2.6382 2.26483 0
M  V30 295 H 26.1718 3.46278 1.99829 0
M  V30 296 H 27.6118 3.04573 2.94977 0
M  V30 297 C 26.0708 1.55992 2.9861 0
M  V30 298 O 26.6008 0.952521 3.90243 0
M  V30 299 N 24.8068 1.28335 2.60727 0
M  V30 300 H 24.3538 1.77914 1.86291 0
M  V30 301 H 24.3118 0.564115 3.09298 0
M  V30 302 N 28.0839 -0.256276 1.55502 0
M  V30 303 C 29.0309 -1.31714 1.89526 0
M  V30 304 C 30.0009 -1.4828 0.748479 0
M  V30 305 O 31.1859 -1.62416 1.00128 0
M  V30 306 C 28.3259 -2.66933 2.18725 0
M  V30 307 C 27.4389 -2.58452 3.4616 0
M  V30 308 C 26.5739 -3.85961 3.64976 0
M  V30 309 C 25.6129 -3.72059 4.86044 0
M  V30 310 N 24.7499 -4.9144 5.01429 0
M  V30 311 H 29.5899 -1.01998 2.80001 0
M  V30 312 H 27.1269 -0.492413 1.38613 0
M  V30 313 H 29.0849 -3.4563 2.33657 0
M  V30 314 H 27.7149 -2.94816 1.31466 0
M  V30 315 H 26.7669 -1.71374 3.3961 0
M  V30 316 H 28.0789 -2.44085 4.34999 0
M  V30 317 H 27.2329 -4.73101 3.79816 0
M  V30 318 H 25.9719 -4.03215 2.74353 0
M  V30 319 H 24.9769 -2.83302 4.7119 0
M  V30 320 H 26.2019 -3.56309 5.78118 0
M  V30 321 H 24.1479 -5.09072 4.13741 0
M  V30 322 H 24.0649 -4.79668 5.84341 0
M  V30 323 H 25.3329 -5.80104 5.20672 0
M  V30 324 N 29.562 -1.4872 -0.521534 0
M  V30 325 C 30.525 -1.63379 -1.60748 0
M  V30 326 C 31.525 -0.50661 -1.52611 0
M  V30 327 O 32.715 -0.772601 -1.5613 0
M  V30 328 C 29.847 -1.61192 -3.00383 0
M  V30 329 H 31.04 -2.60217 -1.49087 0
M  V30 330 H 28.593 -1.37444 -0.744235 0
M  V30 331 H 29.328 -0.65863 -3.17541 0
M  V30 332 H 29.113 -2.43032 -3.07698 0
M  V30 333 H 30.603 -1.7466 -3.7932 0
M  V30 334 N 31.0401 0.771051 -1.3745 0
M  V30 335 C 32.2881 1.52661 -1.32435 0
M  V30 336 C 32.6091 1.9479 0.0905024 0
M  V30 337 O 31.8791 1.66348 1.03466 0
M  V30 338 H 30.4591 0.566218 -0.487244 0
M  V30 339 H 33.1211 0.917636 -1.71946 0
M  V30 340 H 32.2171 2.42568 -1.96385 0
M  V30 341 N 32.5182 1.22032 0.997298 0
M  V30 342 C 33.7642 1.04376 1.73878 0
M  V30 343 C 34.0972 -0.420716 1.89588 0
M  V30 344 O 33.3722 -1.31202 1.43583 0
M  V30 345 C 33.6552 1.75047 3.14691 0
M  V30 346 C 33.5082 3.29062 3.06656 0
M  V30 347 C 34.8272 1.49928 4.13775 0
M  V30 348 H 31.9462 0.380578 0.631133 0
M  V30 349 H 34.5882 1.50312 1.16217 0
M  V30 350 H 32.7382 1.35996 3.63919 0
M  V30 351 H 34.4102 3.7753 2.65083 0
M  V30 352 H 32.6532 3.58967 2.43568 0
M  V30 353 H 33.3242 3.73683 4.06282 0
M  V30 354 H 35.8002 1.83842 3.73285 0
M  V30 355 H 34.6762 2.01878 5.10428 0
M  V30 356 H 34.9372 0.430929 4.39995 0
M  V30 357 N 33.9963 -1.19345 1.0293 0
M  V30 358 C 35.2243 -1.92997 0.745644 0
M  V30 359 C 35.6393 -1.75519 -0.695589 0
M  V30 360 O 34.9963 -1.07737 -1.47306 0
M  V30 361 C 35.0473 -3.44741 1.08792 0
M  V30 362 O 34.7683 -3.61658 2.47256 0
M  V30 363 C 36.2693 -4.35515 0.827129 0
M  V30 364 H 33.4893 -0.613042 0.272801 0
M  V30 365 H 36.0333 -1.51473 1.3739 0
M  V30 366 H 34.1883 -3.84097 0.504832 0
M  V30 367 H 34.6023 -4.55514 2.60015 0
M  V30 368 H 36.0763 -5.40589 1.11658 0
M  V30 369 H 36.5533 -4.38552 -0.238436 0
M  V30 370 H 37.1593 -4.01841 1.39297 0
M  V30 371 N 35.4744 -0.807222 -1.35358 0
M  V30 372 C 36.7234 -0.384376 -1.98004 0
M  V30 373 C 37.0364 1.0543 -1.64754 0
M  V30 374 O 38.2424 1.58029 -2.20769 0
M  V30 375 C 36.6984 -0.636326 -3.5423 0
M  V30 376 C 36.3064 -2.08759 -3.96388 0
M  V30 377 C 38.0504 -0.278869 -4.23583 0
M  V30 378 C 35.9574 -2.28525 -5.45463 0
M  V30 379 H 34.8874 -0.139986 -0.740891 0
M  V30 380 H 37.5384 -0.991369 -1.54415 0
M  V30 381 H 35.9204 0.0406256 -3.95979 0
M  V30 382 H 37.0944 -2.8024 -3.6579 0
M  V30 383 H 35.4094 -2.40497 -3.39926 0
M  V30 384 H 38.0064 -0.404599 -5.33167 0
M  V30 385 H 38.3494 0.775012 -4.09022 0
M  V30 386 H 38.8824 -0.909764 -3.87257 0
M  V30 387 H 35.6214 -3.32361 -5.64992 0
M  V30 388 H 35.1414 -1.61569 -5.77629 0
M  V30 389 H 36.8204 -2.10109 -6.11934 0
M  V30 390 N 36.9525 1.47285 -0.560781 0
M  V30 391 C 38.1775 2.07359 -0.0410566 0
M  V30 392 C 38.6025 1.41017 1.24483 0
M  V30 393 O 37.9605 0.486368 1.74654 0
M  V30 394 C 38.0085 3.6035 0.134123 0
M  V30 395 O 37.1125 3.94681 1.19587 0
M  V30 396 H 36.4535 0.661887 -0.0529291 0
M  V30 397 H 38.9835 1.89252 -0.777482 0
M  V30 398 H 38.9935 4.0652 0.347207 0
M  V30 399 H 37.6685 4.08034 -0.805047 0
M  V30 400 H 36.2455 3.60251 0.962987 0
M  V30 401 N 38.4306 0.297415 1.54768 0
M  V30 402 C 39.6776 -0.312913 2.00068 0
M  V30 403 C 40.0056 -1.54171 1.18582 0
M  V30 404 O 39.2606 -1.94108 0.249133 0
M  V30 405 C 39.5596 -0.717561 3.50123 0
M  V30 406 C 39.2256 0.409095 4.4904 0
M  V30 407 C 37.8876 0.718399 4.75807 0
M  V30 408 C 40.2396 1.16717 5.07963 0
M  V30 409 C 37.5676 1.78896 5.5876 0
M  V30 410 C 39.9196 2.22762 5.92081 0
M  V30 411 C 38.5836 2.54303 6.1716 0
M  V30 412 H 37.8536 -0.114503 0.7321 0
M  V30 413 H 40.5006 0.415767 1.86932 0
M  V30 414 H 38.8056 -1.52627 3.60849 0
M  V30 415 H 40.5026 -1.20091 3.82595 0
M  V30 416 H 37.0926 0.157918 4.28309 0
M  V30 417 H 41.2766 0.941466 4.87289 0
M  V30 418 H 36.5326 2.0381 5.7643 0
M  V30 419 H 40.7066 2.81962 6.36765 0
M  V30 420 H 38.3336 3.3739 6.81229 0
M  V30 421 N 39.9087 -1.5758 0.0250728 0
M  V30 422 C 41.1367 -1.9593 -0.664747 0
M  V30 423 C 41.5517 -0.901352 -1.65895 0
M  V30 424 O 40.9087 0.117255 -1.82123 0
M  V30 425 C 40.9597 -3.34342 -1.37468 0
M  V30 426 O 40.6807 -4.36079 -0.420324 0
M  V30 427 C 42.1817 -3.873 -2.1567 0
M  V30 428 H 39.4017 -0.645405 -0.183557 0
M  V30 429 H 41.9457 -2.04329 0.0836372 0
M  V30 430 H 40.1007 -3.27175 -2.0745 0
M  V30 431 H 40.5147 -5.16297 -0.923991 0
M  V30 432 H 41.9887 -4.86504 -2.60803 0
M  V30 433 H 42.4657 -3.21331 -2.99405 0
M  V30 434 H 43.0717 -3.97723 -1.50654 0
M  V30 435 N 41.3868 0.248026 -1.55636 0
M  V30 436 C 42.3348 1.32683 -1.91045 0
M  V30 437 C 43.3288 1.49883 -0.789401 0
M  V30 438 O 44.5348 1.51371 -0.974007 0
M  V30 439 H 40.9098 0.444272 -0.606734 0
M  V30 440 H 42.8808 1.00085 -2.81115 0
M  V30 441 C 41.6298 2.6755 -2.22064 0
M  V30 442 H 40.9528 2.55114 -3.07826 0
M  V30 443 H 42.3928 3.41912 -2.50743 0
M  V30 444 C 40.8518 3.20556 -1.0366 0
M  V30 445 O 41.3818 4.00695 -0.284016 0
M  V30 446 N 39.5878 2.78568 -0.82753 0
M  V30 447 H 39.1348 2.1351 -1.44123 0
M  V30 448 H 39.0928 3.14378 -0.0369803 0
M  V30 449 N 42.8649 1.48995 0.513639 0
M  V30 450 C 43.7949 1.67636 1.62544 0
M  V30 451 C 44.7759 0.525087 1.61793 0
M  V30 452 O 45.9609 0.759502 1.78732 0
M  V30 453 C 43.0909 1.73114 3.01079 0
M  V30 454 C 42.0449 2.87905 3.16693 0
M  V30 455 C 41.3709 2.78486 4.56453 0
M  V30 456 C 42.6709 4.29005 2.97913 0
M  V30 457 H 44.3649 2.60716 1.47198 0
M  V30 458 H 41.9109 1.25465 0.706714 0
M  V30 459 H 43.8639 1.84742 3.78746 0
M  V30 460 H 42.5879 0.766241 3.17484 0
M  V30 461 H 41.2469 2.75859 2.41448 0
M  V30 462 H 40.8949 1.7993 4.69717 0
M  V30 463 H 40.5949 3.55523 4.67843 0
M  V30 464 H 42.1189 2.92104 5.36197 0
M  V30 465 H 43.5329 4.41798 3.65359 0
M  V30 466 H 41.9299 5.07166 3.20785 0
M  V30 467 H 42.9999 4.44329 1.94165 0
M  V30 468 N 44.343 -0.763751 1.37857 0
M  V30 469 C 45.591 -1.51957 1.33243 0
M  V30 470 C 45.912 -1.94835 -0.0801709 0
M  V30 471 O 45.182 -1.66894 -1.02582 0
M  V30 472 H 43.762 -0.563626 0.49024 0
M  V30 473 H 46.424 -0.908504 1.7243 0
M  V30 474 H 45.52 -2.41523 1.97669 0
M  V30 475 N 45.8211 -1.22559 -0.990812 0
M  V30 476 C 46.7841 -0.998863 -2.0629 0
M  V30 477 C 47.7841 0.0354834 -1.60761 0
M  V30 478 O 48.9741 -0.203231 -1.7301 0
M  V30 479 C 46.1061 -0.509203 -3.37076 0
M  V30 480 H 47.2991 -1.95014 -2.27837 0
M  V30 481 H 44.8521 -1.04456 -1.16269 0
M  V30 482 H 45.5871 0.446335 -3.21214 0
M  V30 483 H 45.3721 -1.25547 -3.71457 0
M  V30 484 H 46.8621 -0.370888 -4.1595 0
M  V30 485 N 47.2992 1.18797 -1.03562 0
M  V30 486 C 48.7152 1.40671 -0.753917 0
M  V30 487 C 48.9152 1.9043 0.658686 0
M  V30 488 O 47.9712 2.08538 1.42366 0
M  V30 489 C 49.2842 2.41192 -1.79574 0
M  V30 490 C 50.8322 2.54928 -1.81606 0
M  V30 491 C 51.3072 3.58709 -2.84766 0
M  V30 492 N 52.7982 3.66212 -2.83625 0
M  V30 493 C 53.5332 4.46225 -3.60098 0
M  V30 494 N 53.0292 5.29888 -4.46308 0
M  V30 495 N 54.8222 4.40939 -3.4861 0
M  V30 496 H 46.9732 0.848221 -1.94728 0
M  V30 497 H 49.2362 0.435081 -0.842264 0
M  V30 498 H 48.9422 2.11669 -2.80872 0
M  V30 499 H 48.8162 3.40467 -1.62365 0
M  V30 500 H 51.2032 2.83771 -0.809817 0
M  V30 501 H 51.2842 1.55784 -2.02891 0
M  V30 502 H 50.9282 3.30607 -3.85566 0
M  V30 503 H 50.8582 4.57519 -2.60737 0
M  V30 504 H 53.3492 3.06466 -2.21105 0
M  V30 505 H 53.6622 5.88078 -5.01382 0
M  V30 506 H 52.0072 5.29326 -4.50377 0
M  V30 507 H 55.1982 3.74624 -2.80668 0
M  V30 508 H 55.3712 5.03056 -4.08459 0
M  V30 509 N 48.7773 0.814389 1.34928 0
M  V30 510 C 50.0263 0.394871 1.97797 0
M  V30 511 C 50.3393 -1.04555 1.65311 0
M  V30 512 O 51.5453 -1.56856 2.21604 0
M  V30 513 C 50.0013 0.655103 3.53888 0
M  V30 514 C 49.6093 2.10858 3.95276 0
M  V30 515 C 51.3533 0.301329 4.23429 0
M  V30 516 C 49.2603 2.31415 5.44244 0
M  V30 517 H 48.1903 0.143913 0.740139 0
M  V30 518 H 50.8413 0.999544 1.53888 0
M  V30 519 H 49.2233 -0.0196253 3.95995 0
M  V30 520 H 50.3973 2.82176 3.64298 0
M  V30 521 H 48.7123 2.42297 3.38646 0
M  V30 522 H 51.3093 0.432869 5.32945 0
M  V30 523 H 51.6523 -0.75331 4.09428 0
M  V30 524 H 52.1853 0.930288 3.86769 0
M  V30 525 H 48.9243 3.35353 5.63222 0
M  V30 526 H 48.4443 1.6463 5.76764 0
M  V30 527 H 50.1233 2.13352 6.10811 0
M  V30 528 N 50.2554 -1.46986 0.568584 0
M  V30 529 C 51.5014 -2.02741 0.0488709 0
M  V30 530 C 51.8344 -1.44077 -1.30214 0
M  V30 531 O 51.1094 -0.600552 -1.84996 0
M  V30 532 C 51.3924 -3.60086 -0.032047 0
M  V30 533 C 51.2454 -4.29162 1.34686 0
M  V30 534 C 52.5644 -4.33838 -0.739798 0
M  V30 535 H 49.6834 -0.736749 0.0192338 0
M  V30 536 H 52.3254 -1.75289 0.733065 0
M  V30 537 H 50.4754 -3.83606 -0.61473 0
M  V30 538 H 52.1474 -4.16948 1.97362 0
M  V30 539 H 50.3904 -3.89073 1.91846 0
M  V30 540 H 51.0614 -5.37826 1.24285 0
M  V30 541 H 53.5374 -4.15378 -0.244939 0
M  V30 542 H 52.4134 -5.43537 -0.765406 0
M  V30 543 H 52.6744 -4.03875 -1.79827 0
M  V30 544 N 51.7335 -0.305618 -1.54608 0
M  V30 545 C 53.0105 0.355652 -1.92339 0
M  V30 546 C 53.3905 1.71324 -1.23335 0
M  V30 547 O 52.7385 2.25473 -0.370702 0
M  V30 548 C 52.9485 0.46572 -3.45879 0
M  V30 549 C 54.2965 0.734426 -4.182 0
M  V30 550 O 55.3205 0.54935 -3.51938 0
M  V30 551 O 54.1795 1.09024 -5.35515 0
M  V30 552 H 51.2735 0.199666 -0.802535 0
M  V30 553 H 53.8195 -0.354017 -1.65966 0
M  V30 554 H 52.5915 -0.488461 -3.88239 0
M  V30 555 H 52.2145 1.22367 -3.78301 0
M  V30 556 N 53.2116 1.57565 -0.0334293 0
M  V30 557 C 54.4576 1.93088 0.639417 0
M  V30 558 C 54.8126 0.910589 1.69488 0
M  V30 559 O 54.1056 -0.0727725 1.91462 0
M  V30 560 C 54.2996 3.33112 1.29504 0
M  V30 561 C 54.1286 4.48667 0.304604 0
M  V30 562 C 52.8986 5.05207 -0.0970777 0
M  V30 563 C 55.0966 5.1239 -0.442845 0
M  V30 564 N 53.0786 6.04286 -1.08223 0
M  V30 565 C 54.4496 6.06609 -1.28161 0
M  V30 566 C 56.5046 4.95352 -0.50308 0
M  V30 567 C 55.2076 6.85622 -2.17519 0
M  V30 568 C 57.2336 5.74978 -1.38401 0
M  V30 569 C 56.5956 6.68816 -2.21054 0
M  V30 570 H 52.6946 0.754335 0.206161 0
M  V30 571 H 55.2786 1.94435 -0.101613 0
M  V30 572 H 53.4496 3.32576 2.00618 0
M  V30 573 H 55.1816 3.55972 1.92525 0
M  V30 574 H 51.9366 4.72782 0.278255 0
M  V30 575 H 52.3606 6.58516 -1.57117 0
M  V30 576 H 57.0026 4.22625 0.121694 0
M  V30 577 H 54.7206 7.57652 -2.81049 0
M  V30 578 H 58.3066 5.63826 -1.43496 0
M  V30 579 H 57.1866 7.29355 -2.88116 0
M  V30 580 N 54.6897 -0.239769 1.55765 0
M  V30 581 C 55.6217 -1.32001 1.87372 0
M  V30 582 C 56.6347 -1.43944 0.760522 0
M  V30 583 O 57.8237 -1.45167 1.0387 0
M  V30 584 C 54.9237 -2.69779 2.05115 0
M  V30 585 C 54.0967 -2.80014 3.36022 0
M  V30 586 C 53.1557 -3.98684 3.4342 0
M  V30 587 O 52.1817 -3.87877 4.16582 0
M  V30 588 N 53.3837 -5.12176 2.73232 0
M  V30 589 H 56.1487 -1.0522 2.80622 0
M  V30 590 H 53.7097 -0.429857 1.56089 0
M  V30 591 H 55.7017 -3.47517 2.07399 0
M  V30 592 H 54.2717 -2.89237 1.18577 0
M  V30 593 H 53.4917 -1.88896 3.45994 0
M  V30 594 H 54.7797 -2.83808 4.22292 0
M  V30 595 H 54.1777 -5.2385 2.13536 0
M  V30 596 H 52.7347 -5.88022 2.81199 0
M  V30 597 N 56.1678 -1.49265 -0.50573 0
M  V30 598 C 57.1148 -1.65585 -1.6078 0
M  V30 599 C 58.0848 -0.497396 -1.58478 0
M  V30 600 O 59.2698 -0.72385 -1.76536 0
M  V30 601 C 56.4098 -1.72408 -2.98948 0
M  V30 602 C 55.5228 -2.99525 -3.11301 0
M  V30 603 C 54.6578 -2.97356 -4.40174 0
M  V30 604 C 53.6968 -4.19074 -4.46143 0
M  V30 605 N 52.8338 -4.14841 -5.66437 0
M  V30 606 H 57.6738 -2.59688 -1.46172 0
M  V30 607 H 55.2108 -1.28761 -0.711261 0
M  V30 608 H 57.1688 -1.74344 -3.79025 0
M  V30 609 H 55.7988 -0.817753 -3.1227 0
M  V30 610 H 54.8508 -3.07222 -2.24318 0
M  V30 611 H 56.1628 -3.89518 -3.11572 0
M  V30 612 H 55.3168 -2.97829 -5.28567 0
M  V30 613 H 54.0558 -2.05133 -4.42461 0
M  V30 614 H 53.0608 -4.1885 -3.56153 0
M  V30 615 H 54.2858 -5.12483 -4.45575 0
M  V30 616 H 52.2318 -3.25453 -5.69575 0
M  V30 617 H 52.1488 -4.98564 -5.68304 0
M  V30 618 H 53.4168 -4.1941 -6.57051 0
M  V30 619 N 57.6459 0.756429 -1.3826 0
M  V30 620 C 58.9229 1.50584 -1.24835 0
M  V30 621 C 59.3029 2.10556 0.151485 0
M  V30 622 O 58.6509 1.96825 1.1607 0
M  V30 623 C 58.8609 2.57448 -2.3563 0
M  V30 624 C 60.2089 3.24429 -2.73917 0
M  V30 625 O 61.2329 2.67751 -2.34921 0
M  V30 626 O 60.0919 4.26937 -3.41156 0
M  V30 627 H 57.1859 0.667664 -0.48801 0
M  V30 628 H 59.7319 0.792083 -1.5008 0
M  V30 629 H 58.5039 2.11362 -3.29305 0
M  V30 630 H 58.1269 3.36408 -2.11933 0
M  V30 631 N 59.124 1.23083 0.984299 0
M  V30 632 C 60.372 1.05848 1.72165 0
M  V30 633 C 60.693 -0.406049 1.90726 0
M  V30 634 O 59.963 -1.29139 1.47309 0
M  V30 635 H 58.543 0.388685 0.637913 0
M  V30 636 H 61.205 1.54736 1.18503 0
M  V30 637 H 60.301 1.54327 2.71274 0
M  V30 638 N 60.6021 -1.18246 1.0419 0
M  V30 639 C 61.5491 -2.2192 0.634037 0
M  V30 640 C 62.5191 -1.62179 -0.358765 0
M  V30 641 O 63.7041 -1.89122 -0.252466 0
M  V30 642 C 60.8441 -3.451 0.00445535 0
M  V30 643 C 59.9571 -4.19174 1.04487 0
M  V30 644 C 59.0921 -5.29813 0.383676 0
M  V30 645 C 58.1311 -5.9566 1.4091 0
M  V30 646 N 57.2681 -6.97834 0.772784 0
M  V30 647 H 62.1081 -2.56164 1.52263 0
M  V30 648 H 59.6451 -1.25843 0.761701 0
M  V30 649 H 61.6031 -4.15485 -0.377919 0
M  V30 650 H 60.2331 -3.11472 -0.847652 0
M  V30 651 H 59.2851 -3.47604 1.54518 0
M  V30 652 H 60.5971 -4.64267 1.82368 0
M  V30 653 H 59.7511 -6.06677 -0.0528366 0
M  V30 654 H 58.4901 -4.85825 -0.427208 0
M  V30 655 H 57.4951 -5.17535 1.85574 0
M  V30 656 H 58.7201 -6.4173 2.22171 0
M  V30 657 H 56.6661 -6.55998 -0.0177708 0
M  V30 658 H 56.5831 -7.41186 1.48928 0
M  V30 659 H 57.8511 -7.78665 0.36071 0
M  V30 660 N 62.0802 -0.821533 -1.34494 0
M  V30 661 C 63.0302 -0.214793 -2.26986 0
M  V30 662 C 64.0142 0.620125 -1.4847 0
M  V30 663 O 65.2062 0.474933 -1.70509 0
M  V30 664 C 62.3352 0.623566 -3.37589 0
M  V30 665 C 61.4212 -0.221904 -4.23519 0
M  V30 666 N 61.8122 -1.29223 -4.89014 0
M  V30 667 C 60.1102 -0.00600922 -4.46 0
M  V30 668 C 60.8112 -1.80965 -5.52835 0
M  V30 669 N 59.7872 -1.11376 -5.32068 0
M  V30 670 H 63.5892 -1.03354 -2.75128 0
M  V30 671 H 61.1032 -0.6642 -1.48196 0
M  V30 672 H 63.1002 1.0744 -4.02818 0
M  V30 673 H 61.7602 1.44049 -2.90998 0
M  V30 674 H 62.7712 -1.67502 -4.90065 0
M  V30 675 H 59.4482 0.77886 -4.10171 0
M  V30 676 H 60.8382 -2.70502 -6.15043 0
M  V30 677 N 63.5583 1.46682 -0.576371 0
M  V30 678 C 64.4883 2.33028 0.148397 0
M  V30 679 C 65.4693 1.44961 0.889956 0
M  V30 680 O 66.6543 1.73789 0.866662 0
M  V30 681 C 63.7843 3.27117 1.1667 0
M  V30 682 C 62.7383 4.24575 0.540386 0
M  V30 683 C 62.0643 5.08126 1.6647 0
M  V30 684 C 63.3643 5.19722 -0.518331 0
M  V30 685 H 65.0583 2.93875 -0.572509 0
M  V30 686 H 62.6043 1.41315 -0.276768 0
M  V30 687 H 64.5573 3.86374 1.68204 0
M  V30 688 H 63.2813 2.64364 1.9178 0
M  V30 689 H 61.9403 3.66571 0.0461769 0
M  V30 690 H 61.5883 4.41762 2.40531 0
M  V30 691 H 61.2883 5.74122 1.25131 0
M  V30 692 H 62.8123 5.70246 2.18293 0
M  V30 693 H 64.2263 5.73232 -0.0883058 0
M  V30 694 H 62.6233 5.94026 -0.851679 0
M  V30 695 H 63.6933 4.64037 -1.40703 0
M  V30 696 N 65.0364 0.313813 1.54444 0
M  V30 697 C 66.2854 -0.292519 1.99568 0
M  V30 698 C 66.5984 -1.54011 1.20582 0
M  V30 699 O 67.8044 -2.22183 1.56035 0
M  V30 700 C 66.2604 -0.571752 3.55329 0
M  V30 701 C 65.8684 0.658229 4.43138 0
M  V30 702 C 67.6124 -1.13857 4.08946 0
M  V30 703 C 65.5194 0.351439 5.90355 0
M  V30 704 H 64.4494 -0.113079 0.745472 0
M  V30 705 H 67.1004 0.424518 1.78522 0
M  V30 706 H 65.4824 -1.34872 3.72325 0
M  V30 707 H 66.6564 1.43403 4.37918 0
M  V30 708 H 64.9714 1.14458 4.0036 0
M  V30 709 H 67.5684 -1.38257 5.16516 0
M  V30 710 H 67.9114 -2.08489 3.6033 0
M  V30 711 H 68.4444 -0.423015 3.95544 0
M  V30 712 H 65.1834 1.26667 6.43145 0
M  V30 713 H 64.7034 -0.386842 5.98551 0
M  V30 714 H 66.3824 -0.0423134 6.46986 0
M  V30 715 N 66.5145 -1.57545 0.0417849 0
M  V30 716 C 67.4445 -2.14009 -0.933929 0
M  V30 717 C 68.4255 -1.05938 -1.33083 0
M  V30 718 O 69.6105 -1.33833 -1.40721 0
M  V30 719 C 66.7405 -2.67747 -2.21199 0
M  V30 720 C 65.6945 -3.80718 -1.95544 0
M  V30 721 C 65.0205 -4.20935 -3.29724 0
M  V30 722 C 66.3205 -5.06258 -1.28452 0
M  V30 723 H 68.0145 -2.95788 -0.463645 0
M  V30 724 H 65.5605 -1.42285 -0.221573 0
M  V30 725 H 67.5135 -3.05886 -2.89848 0
M  V30 726 H 66.2375 -1.83147 -2.70416 0
M  V30 727 H 64.8965 -3.43037 -1.2931 0
M  V30 728 H 64.5445 -3.33298 -3.76724 0
M  V30 729 H 64.2445 -4.9707 -3.13361 0
M  V30 730 H 65.7685 -4.61666 -3.9962 0
M  V30 731 H 67.1825 -5.41903 -1.8712 0
M  V30 732 H 65.5795 -5.87475 -1.22445 0
M  V30 733 H 66.6495 -4.84207 -0.259219 0
M  V30 734 N 67.9926 0.231505 -1.5589 0
M  V30 735 C 69.2406 0.955461 -1.78088 0
M  V30 736 C 69.5616 1.85262 -0.608533 0
M  V30 737 O 68.8316 1.92277 0.375035 0
M  V30 738 H 67.4116 0.355787 -0.656829 0
M  V30 739 H 70.0736 0.245751 -1.93344 0
M  V30 740 H 69.1696 1.56814 -2.69844 0
M  V30 741 N 69.4707 1.49531 0.497807 0
M  V30 742 C 70.7177 1.59179 1.25173 0
M  V30 743 C 71.0457 0.279932 1.92475 0
M  V30 744 O 70.3007 -0.732383 1.81479 0
M  V30 745 C 70.5997 2.70252 2.33878 0
M  V30 746 C 70.2657 4.11644 1.84012 0
M  V30 747 C 68.9277 4.50121 1.70132 0
M  V30 748 C 71.2797 5.00121 1.46725 0
M  V30 749 C 68.6077 5.74845 1.17348 0
M  V30 750 C 70.9597 6.25366 0.95392 0
M  V30 751 C 69.6237 6.6267 0.801538 0
M  V30 752 H 68.8937 0.582478 0.45804 0
M  V30 753 H 71.5407 1.83373 0.551948 0
M  V30 754 H 69.8457 2.40041 3.09657 0
M  V30 755 H 71.5427 2.74925 2.9192 0
M  V30 756 H 68.1327 3.81274 1.95775 0
M  V30 757 H 72.3167 4.71048 1.56294 0
M  V30 758 H 67.5727 6.02444 1.04264 0
M  V30 759 H 71.7467 6.93301 0.656225 0
M  V30 760 H 69.3737 7.59197 0.390351 0
M  V30 761 N 70.9488 -0.749086 1.3866 0
M  V30 762 C 72.2258 -1.4992 1.25632 0
M  V30 763 C 72.6058 -2.10633 -0.140317 0
M  V30 764 O 71.9538 -1.97437 -1.15025 0
M  V30 765 C 72.1638 -2.56195 2.36992 0
M  V30 766 C 73.5118 -3.22972 2.75634 0
M  V30 767 O 74.5358 -2.66502 2.36337 0
M  V30 768 O 73.3948 -4.25122 3.43415 0
M  V30 769 H 70.4888 -0.665067 0.491544 0
M  V30 770 H 73.0348 -0.784113 1.50498 0
M  V30 771 H 71.8068 -2.09612 3.30422 0
M  V30 772 H 71.4298 -3.35279 2.13714 0
M  V30 773 N 72.4269 -1.23603 -0.977757 0
M  V30 774 C 73.6519 -1.09735 -1.75991 0
M  V30 775 C 74.0769 0.346858 -1.84874 0
M  V30 776 O 73.4349 1.25093 -1.3123 0
M  V30 777 C 73.4829 -1.73051 -3.16363 0
M  V30 778 O 72.5869 -0.994452 -4.0023 0
M  V30 779 H 71.9279 -0.384476 -0.541364 0
M  V30 780 H 74.4579 -1.6371 -1.2272 0
M  V30 781 H 74.4679 -1.78398 -3.66931 0
M  V30 782 H 73.1429 -2.78137 -3.09213 0
M  V30 783 H 71.7199 -1.01812 -3.58732 0
M  V30 784 N 73.905 1.17692 -1.04816 0
M  V30 785 C 74.868 2.19787 -0.650117 0
M  V30 786 C 75.868 1.58044 0.296427 0
M  V30 787 O 77.058 1.74012 0.0808097 0
M  V30 788 C 74.19 3.40869 0.0456987 0
M  V30 789 H 75.383 2.56516 -1.5537 0
M  V30 790 H 72.936 1.31708 -0.841594 0
M  V30 791 H 73.671 3.09681 0.962726 0
M  V30 792 H 73.456 3.86928 -0.634727 0
M  V30 793 H 74.946 4.16445 0.310432 0
M  V30 794 N 75.3831 0.828654 1.34056 0
M  V30 795 C 76.3301 0.252567 2.29414 0
M  V30 796 C 77.3001 -0.62588 1.53857 0
M  V30 797 O 78.4851 -0.566312 1.82202 0
M  V30 798 C 75.6251 -0.574831 3.40279 0
M  V30 799 C 74.7381 0.326499 4.30764 0
M  V30 800 C 73.8731 -0.511016 5.28736 0
M  V30 801 C 72.9121 0.389342 6.1086 0
M  V30 802 N 72.0491 -0.409439 7.00905 0
M  V30 803 H 76.8891 1.07108 2.78086 0
M  V30 804 H 74.4261 0.539677 1.36843 0
M  V30 805 H 76.3841 -1.06992 4.03248 0
M  V30 806 H 75.0141 -1.35841 2.92826 0
M  V30 807 H 74.0661 0.939837 3.68607 0
M  V30 808 H 75.3781 1.01857 4.88289 0
M  V30 809 H 74.5321 -1.07035 5.97184 0
M  V30 810 H 73.2711 -1.23657 4.71763 0
M  V30 811 H 72.2761 0.960769 5.4134 0
M  V30 812 H 73.5011 1.1131 6.69916 0
M  V30 813 H 71.4471 -1.11856 6.46393 0
M  V30 814 H 71.3641 0.224126 7.55668 0
M  V30 815 H 72.6321 -0.951336 7.73673 0
M  V30 816 N 76.8612 -1.46375 0.584142 0
M  V30 817 C 77.7712 -2.34115 -0.150728 0
M  V30 818 C 78.7872 -1.49838 -0.884567 0
M  V30 819 O 79.9632 -1.82704 -0.847429 0
M  V30 820 C 77.0282 -3.2705 -1.15062 0
M  V30 821 C 76.0892 -4.27228 -0.421293 0
M  V30 822 C 75.3222 -5.15722 -1.37355 0
M  V30 823 O 75.5452 -5.07176 -2.61014 0
M  V30 824 O 74.4792 -5.95383 -0.883355 0
M  V30 825 H 78.3052 -2.98309 0.569708 0
M  V30 826 H 75.8902 -1.45373 0.344535 0
M  V30 827 H 77.7722 -3.84381 -1.72712 0
M  V30 828 H 76.4472 -2.65451 -1.8525 0
M  V30 829 H 75.3542 -3.7358 0.197085 0
M  V30 830 H 76.6872 -4.91616 0.239641 0
M  V30 831 N 78.3393 -0.321999 -1.54275 0
M  V30 832 C 79.5693 0.282642 -2.04658 0
M  V30 833 C 79.9773 1.46453 -1.19784 0
M  V30 834 O 79.3203 1.82367 -0.220932 0
M  V30 835 C 79.3823 0.781857 -3.50895 0
M  V30 836 C 79.0463 -0.277517 -4.56157 0
M  V30 837 C 80.0433 -1.11307 -5.07845 0
M  V30 838 C 77.7283 -0.425256 -5.00497 0
M  V30 839 C 79.7223 -2.08211 -6.02434 0
M  V30 840 C 77.4093 -1.39771 -5.94901 0
M  V30 841 C 78.4073 -2.2246 -6.45756 0
M  V30 842 O 78.0953 -3.18054 -7.38307 0
M  V30 843 H 77.8273 0.0622636 -0.673126 0
M  V30 844 H 80.3813 -0.465792 -2.00049 0
M  V30 845 H 78.6113 1.58118 -3.52896 0
M  V30 846 H 80.3003 1.30467 -3.84361 0
M  V30 847 H 81.0663 -1.00991 -4.74369 0
M  V30 848 H 76.9453 0.20847 -4.60528 0
M  V30 849 H 80.4893 -2.72791 -6.42052 0
M  V30 850 H 76.3863 -1.50152 -6.27794 0
M  V30 851 H 77.1543 -3.13275 -7.56175 0
M  V30 852 N 79.8174 1.5752 -0.0501392 0
M  V30 853 C 80.7474 2.14502 0.922566 0
M  V30 854 C 81.7284 1.06642 1.3252 0
M  V30 855 O 82.9134 1.34577 1.4001 0
M  V30 856 C 80.0434 2.68916 2.19776 0
M  V30 857 C 78.9974 3.8175 1.93523 0
M  V30 858 C 78.3234 4.22677 3.27487 0
M  V30 859 C 79.6234 5.06932 1.25765 0
M  V30 860 H 81.3174 2.9603 0.447952 0
M  V30 861 H 78.8634 1.42401 0.214024 0
M  V30 862 H 80.8164 3.07419 2.88222 0
M  V30 863 H 79.5404 1.84578 2.69441 0
M  V30 864 H 78.1994 3.43718 1.27489 0
M  V30 865 H 77.8474 3.35291 3.74952 0
M  V30 866 H 77.5474 4.98725 3.1072 0
M  V30 867 H 79.0714 4.63779 3.97166 0
M  V30 868 H 80.4854 5.42888 1.84244 0
M  V30 869 H 78.8824 5.88116 1.19328 0
M  V30 870 H 79.9524 4.84337 0.233536 0
M  V30 871 N 81.2955 -0.223234 1.56011 0
M  V30 872 C 82.2055 -1.29766 1.95443 0
M  V30 873 C 83.2215 -1.51373 0.858028 0
M  V30 874 O 84.3975 -1.64536 1.16146 0
M  V30 875 C 81.4625 -2.62772 2.26167 0
M  V30 876 C 80.5235 -2.49482 3.49367 0
M  V30 877 C 79.7565 -3.76145 3.78616 0
M  V30 878 O 79.9795 -4.79087 3.09568 0
M  V30 879 O 78.9135 -3.73358 4.72109 0
M  V30 880 H 82.7395 -0.99309 2.87004 0
M  V30 881 H 80.3245 -0.425958 1.43199 0
M  V30 882 H 82.2065 -3.41327 2.47131 0
M  V30 883 H 80.8815 -2.92913 1.37781 0
M  V30 884 H 79.7885 -1.69133 3.33684 0
M  V30 885 H 81.1215 -2.2428 4.38131 0
M  V30 886 N 82.7736 -1.49793 -0.48987 0
M  V30 887 C 83.7206 -1.67281 -1.59014 0
M  V30 888 C 84.6906 -0.514177 -1.57941 0
M  V30 889 O 85.8756 -0.742533 -1.75759 0
M  V30 890 C 83.0156 -1.75569 -2.97102 0
M  V30 891 C 82.1286 -3.0281 -3.08107 0
M  V30 892 C 81.2636 -3.02008 -4.36995 0
M  V30 893 C 80.3026 -4.23782 -4.41673 0
M  V30 894 N 79.4396 -4.20826 -5.62005 0
M  V30 895 H 84.2796 -2.61224 -1.43409 0
M  V30 896 H 81.8166 -1.29508 -0.697565 0
M  V30 897 H 83.7746 -1.78354 -3.77155 0
M  V30 898 H 82.4046 -0.850827 -3.11385 0
M  V30 899 H 81.4566 -3.09584 -2.21047 0
M  V30 900 H 82.7686 -3.92801 -3.07423 0
M  V30 901 H 81.9226 -3.03418 -5.25378 0
M  V30 902 H 80.6616 -2.09815 -4.4026 0
M  V30 903 H 79.6666 -4.22604 -3.5169 0
M  V30 904 H 80.8916 -5.17181 -4.40115 0
M  V30 905 H 78.8376 -3.31476 -5.66091 0
M  V30 906 H 78.7546 -5.04564 -5.62984 0
M  V30 907 H 80.0226 -4.26355 -6.52565 0
M  V30 908 N 84.2517 0.741722 -1.39055 0
M  V30 909 C 85.5287 1.49252 -1.26425 0
M  V30 910 C 85.9087 2.10705 0.129144 0
M  V30 911 O 85.2567 1.98045 1.13976 0
M  V30 912 C 85.4667 2.54934 -2.38347 0
M  V30 913 C 86.8147 3.21506 -2.77343 0
M  V30 914 O 87.8387 2.65245 -2.37747 0
M  V30 915 O 86.6977 4.23294 -3.45665 0
M  V30 916 H 83.7917 0.662451 -0.495064 0
M  V30 917 H 86.3377 0.776121 -1.50912 0
M  V30 918 H 85.1097 2.07857 -3.31529 0
M  V30 919 H 84.7327 3.34141 -2.15489 0
M  V30 920 N 85.7298 1.2412 0.971189 0
M  V30 921 C 86.6928 1.03156 2.04674 0
M  V30 922 C 87.6928 -0.00990322 1.60797 0
M  V30 923 O 88.8828 0.230729 1.72665 0
M  V30 924 C 86.0148 0.562765 3.36223 0
M  V30 925 H 87.2078 1.98614 2.24705 0
M  V30 926 H 84.7608 1.06293 1.14593 0
M  V30 927 H 85.4958 -0.395176 3.21883 0
M  V30 928 H 85.2808 1.31441 3.69413 0
M  V30 929 H 86.7708 0.437015 4.15307 0
M  V30 930 N 87.2079 -1.17134 1.05439 0
M  V30 931 C 88.4379 -1.91094 0.785274 0
M  V30 932 C 88.8459 -1.77198 -0.663142 0
M  V30 933 O 88.1889 -1.10835 -1.46497 0
M  V30 934 C 88.2509 -3.42594 1.08949 0
M  V30 935 C 87.9149 -3.80274 2.53458 0
M  V30 936 C 88.9119 -3.82912 3.51673 0
M  V30 937 C 86.5969 -4.11162 2.88532 0
M  V30 938 C 88.5909 -4.15913 4.83006 0
M  V30 939 C 86.2779 -4.43831 4.20068 0
M  V30 940 C 87.2759 -4.46185 5.17115 0
M  V30 941 O 86.9639 -4.78083 6.46291 0
M  V30 942 H 86.6959 -0.613073 0.284811 0
M  V30 943 H 89.2499 -1.49461 1.40893 0
M  V30 944 H 87.4799 -3.84534 0.408741 0
M  V30 945 H 89.1689 -3.97817 0.805991 0
M  V30 946 H 89.9349 -3.5917 3.25917 0
M  V30 947 H 85.8139 -4.085 2.13656 0
M  V30 948 H 89.3579 -4.17665 5.5875 0
M  V30 949 H 85.2549 -4.67037 4.45586 0
M  V30 950 H 86.0229 -4.9593 6.51149 0
M  V30 951 N 88.686 -0.835752 -1.33615 0
M  V30 952 C 90.097 -0.487099 -1.80234 0
M  V30 953 C 90.448 0.993627 -1.69179 0
M  V30 954 O 89.573 1.77403 -1.23924 0
M  V30 955 C 90.168 -0.877385 -3.27242 0
M  V30 956 C 88.727 -0.580915 -3.7189 0
M  V30 957 C 87.874 -1.0874 -2.5509 0
M  V30 958 H 90.825 -1.02474 -1.2118 0
M  V30 959 H 90.846 -0.186195 -3.80044 0
M  V30 960 H 90.358 -1.95512 -3.35256 0
M  V30 961 H 88.459 0.486881 -3.69405 0
M  V30 962 H 88.572 -1.13396 -4.65487 0
M  V30 963 H 86.936 -0.508392 -2.49575 0
M  V30 964 H 87.719 -2.17184 -2.65868 0
M  V30 965 N 90.1641 1.46063 -0.591896 0
M  V30 966 C 91.4121 2.01938 -0.0808391 0
M  V30 967 C 91.7331 1.46475 1.28725 0
M  V30 968 O 91.0031 0.652944 1.84698 0
M  V30 969 H 89.5831 0.746516 -0.0268938 0
M  V30 970 H 92.2451 1.79055 -0.769752 0
M  V30 971 H 91.3411 3.12094 -0.0187578 0
M  V30 972 N 91.6422 0.330177 1.54103 0
M  V30 973 C 92.6052 -0.520144 2.2322 0
M  V30 974 C 93.6052 -1.03828 1.22786 0
M  V30 975 O 94.7952 -0.929652 1.4732 0
M  V30 976 C 91.9272 -1.72317 2.94142 0
M  V30 977 H 93.1202 0.0841605 2.99782 0
M  V30 978 H 90.6732 0.0813433 1.56088 0
M  V30 979 H 91.4082 -2.36653 2.21734 0
M  V30 980 H 91.1932 -1.35898 3.67796 0
M  V30 981 H 92.6832 -2.3266 3.46784 0
M  V30 982 N 93.1203 -1.57491 0.0584922 0
M  V30 983 C 94.3483 -1.97296 -0.623037 0
M  V30 984 C 94.7633 -0.936338 -1.63946 0
M  V30 985 O 94.1203 0.0785981 -1.82331 0
M  V30 986 C 94.1713 -3.37183 -1.30345 0
M  V30 987 O 93.8923 -4.36872 -0.32773 0
M  V30 988 C 95.3933 -3.91788 -2.07406 0
M  V30 989 H 92.6133 -0.649153 -0.169826 0
M  V30 990 H 95.1573 -2.04106 0.12696 0
M  V30 991 H 93.3123 -3.31502 -2.00463 0
M  V30 992 H 93.7263 -5.18141 -0.814269 0
M  V30 993 H 95.2003 -4.91926 -2.50425 0
M  V30 994 H 95.6773 -3.27609 -2.92521 0
M  V30 995 H 96.2833 -4.00829 -1.42184 0
M  V30 996 N 94.5984 0.214957 -1.56127 0
M  V30 997 C 95.8444 0.939762 -1.79712 0
M  V30 998 C 96.1774 1.83723 -0.629247 0
M  V30 999 O 95.4524 1.90925 0.371197 0
M  V30 1000 C 95.7354 1.77306 -3.13424 0
M  V30 1001 C 95.5884 0.90164 -4.40671 0
M  V30 1002 C 96.9074 2.74956 -3.43638 0
M  V30 1003 H 94.0264 0.340214 -0.653776 0
M  V30 1004 H 96.6684 0.20824 -1.88855 0
M  V30 1005 H 94.8184 2.39673 -3.0576 0
M  V30 1006 H 96.4904 0.294206 -4.60361 0
M  V30 1007 H 94.7334 0.207368 -4.33304 0
M  V30 1008 H 95.4044 1.51923 -5.30682 0
M  V30 1009 H 97.8804 2.22724 -3.51473 0
M  V30 1010 H 96.7564 3.30358 -4.38355 0
M  V30 1011 H 97.0174 3.53023 -2.66134 0
M  V30 1012 N 96.0765 1.50051 0.48192 0
M  V30 1013 C 97.3245 1.60181 1.23234 0
M  V30 1014 C 97.6455 0.299176 1.92691 0
M  V30 1015 O 96.9155 -0.682708 1.83619 0
M  V30 1016 H 95.4955 0.590232 0.457859 0
M  V30 1017 H 98.1575 1.86775 0.556881 0
M  V30 1018 H 97.2535 2.40753 1.98607 0
M  V30 1019 N 97.5546 -0.734337 1.39446 0
M  V30 1020 C 98.9656 -1.31264 1.32766 0
M  V30 1021 C 99.3166 -1.96198 -0.00767497 0
M  V30 1022 O 98.4416 -1.96346 -0.909796 0
M  V30 1023 C 99.0366 -2.38682 2.4045 0
M  V30 1024 C 97.5956 -2.92184 2.37288 0
M  V30 1025 C 96.7426 -1.6576 2.22304 0
M  V30 1026 H 99.6936 -0.531799 1.49525 0
M  V30 1027 H 99.7146 -3.19087 2.07276 0
M  V30 1028 H 99.2266 -1.91392 3.37625 0
M  V30 1029 H 97.3276 -3.43752 1.43754 0
M  V30 1030 H 97.4406 -3.45253 3.3217 0
M  V30 1031 H 95.8046 -1.9012 1.69489 0
M  V30 1032 H 96.5876 -1.20521 3.21449 0
M  V30 1033 N 99.0327 -1.24633 -0.964593 0
M  V30 1034 C 100.261 -1.11501 -1.74285 0
M  V30 1035 C 100.676 0.332165 -1.85855 0
M  V30 1036 O 100.033 1.22903 -1.34911 0
M  V30 1037 C 100.084 -1.75258 -3.16175 0
M  V30 1038 O 99.8047 -3.14318 -3.05182 0
M  V30 1039 C 101.306 -1.67776 -4.10324 0
M  V30 1040 H 98.5257 -0.389407 -0.546446 0
M  V30 1041 H 101.07 -1.64801 -1.21083 0
M  V30 1042 H 99.2247 -1.25954 -3.66353 0
M  V30 1043 H 99.6387 -3.4551 -3.94618 0
M  V30 1044 H 101.113 -2.17064 -5.0753 0
M  V30 1045 H 101.59 -0.639584 -4.34518 0
M  V30 1046 H 102.196 -2.16522 -3.66058 0
M  V30 1047 N 100.511 1.16574 -1.06058 0
M  V30 1048 C 101.474 2.19085 -0.673392 0
M  V30 1049 C 102.474 1.5835 0.279648 0
M  V30 1050 O 103.664 1.74088 0.0623488 0
M  V30 1051 C 100.796 3.40899 0.00954234 0
M  V30 1052 H 101.989 2.54853 -1.58081 0
M  V30 1053 H 99.5418 1.30808 -0.855516 0
M  V30 1054 H 100.277 3.10684 0.929826 0
M  V30 1055 H 100.062 3.86233 -0.67573 0
M  V30 1056 H 101.552 4.1675 0.266245 0
M  V30 1057 N 101.989 0.842826 1.3317 0
M  V30 1058 C 103.237 0.439577 1.97262 0
M  V30 1059 C 103.558 -1.00548 1.67078 0
M  V30 1060 O 102.828 -1.70098 0.971779 0
M  V30 1061 H 101.408 0.159558 0.72976 0
M  V30 1062 H 104.07 1.07665 1.62463 0
M  V30 1063 H 103.166 0.574886 3.0676 0
M  V30 1064 N 103.467 -1.45747 0.599634 0
M  V30 1065 C 104.883 -1.57424 0.26264 0
M  V30 1066 C 105.083 -1.59222 -1.23493 0
M  V30 1067 O 104.139 -1.51825 -2.01756 0
M  V30 1068 C 105.452 -2.86061 0.926795 0
M  V30 1069 C 107 -2.99722 0.901967 0
M  V30 1070 C 107.475 -4.31119 1.54598 0
M  V30 1071 N 108.966 -4.37858 1.5111 0
M  V30 1072 C 109.701 -5.3818 1.97863 0
M  V30 1073 N 109.197 -6.45083 2.52666 0
M  V30 1074 N 110.99 -5.29487 1.88679 0
M  V30 1075 H 103.141 -1.42823 1.57211 0
M  V30 1076 H 105.404 -0.68235 0.658105 0
M  V30 1077 H 105.11 -2.90605 1.98095 0
M  V30 1078 H 104.984 -3.74563 0.445238 0
M  V30 1079 H 107.371 -2.9475 -0.143617 0
M  V30 1080 H 107.452 -2.12652 1.42171 0
M  V30 1081 H 107.096 -4.36849 2.59085 0
M  V30 1082 H 107.026 -5.16992 1.00132 0
M  V30 1083 H 109.517 -3.61209 1.11068 0
M  V30 1084 H 109.83 -7.17869 2.86155 0
M  V30 1085 H 108.175 -6.45856 2.56701 0
M  V30 1086 H 111.366 -4.44877 1.4561 0
M  V30 1087 H 111.539 -6.07524 2.25429 0
M  V30 1088 N 104.945 -0.338344 -1.53925 0
M  V30 1089 C 106.194 0.260732 -2.00008 0
M  V30 1090 C 106.507 1.52073 -1.23017 0
M  V30 1091 O 107.713 2.19672 -1.5955 0
M  V30 1092 C 106.169 0.51515 -3.56194 0
M  V30 1093 C 105.777 -0.728645 -4.42035 0
M  V30 1094 C 107.521 1.07337 -4.10706 0
M  V30 1095 C 105.428 -0.445315 -5.89721 0
M  V30 1096 H 104.358 0.101205 -0.747177 0
M  V30 1097 H 107.009 -0.452866 -1.77824 0
M  V30 1098 H 105.391 1.28932 -3.74423 0
M  V30 1099 H 106.565 -1.50352 -4.35581 0
M  V30 1100 H 104.88 -1.20813 -3.98489 0
M  V30 1101 H 107.477 1.30022 -5.18651 0
M  V30 1102 H 107.82 2.0273 -3.63602 0
M  V30 1103 H 108.353 0.360034 -3.96167 0
M  V30 1104 H 105.092 -1.36883 -6.41049 0
M  V30 1105 H 104.612 0.291569 -5.99091 0
M  V30 1106 H 106.291 -0.0606218 -6.46972 0
M  V30 1107 N 106.423 1.57458 -0.0668435 0
M  V30 1108 C 107.37 2.12439 0.902122 0
M  V30 1109 C 108.34 1.03565 1.2986 0
M  V30 1110 O 109.525 1.312 1.38532 0
M  V30 1111 C 106.665 2.6865 2.16614 0
M  V30 1112 C 105.778 3.91663 1.82274 0
M  V30 1113 C 104.913 4.36134 3.0325 0
M  V30 1114 C 103.952 5.51808 2.64904 0
M  V30 1115 N 103.089 5.9126 3.78624 0
M  V30 1116 H 107.929 2.94934 0.426382 0
M  V30 1117 H 105.466 1.4575 0.198819 0
M  V30 1118 H 107.424 2.99346 2.90599 0
M  V30 1119 H 106.054 1.88928 2.61737 0
M  V30 1120 H 105.106 3.6746 0.983719 0
M  V30 1121 H 106.418 4.75693 1.50059 0
M  V30 1122 H 105.572 4.68465 3.85519 0
M  V30 1123 H 104.311 3.50948 3.38655 0
M  V30 1124 H 103.316 5.19133 1.81055 0
M  V30 1125 H 104.541 6.38722 2.30675 0
M  V30 1126 H 102.487 5.09024 4.138 0
M  V30 1127 H 102.404 6.70018 3.5016 0
M  V30 1128 H 103.672 6.28212 4.61486 0
M  V30 1129 N 107.901 -0.206675 1.56239 0
M  V30 1130 C 109.178 -0.954051 1.70755 0
M  V30 1131 C 109.558 -2.01841 0.618353 0
M  V30 1132 O 108.906 -2.25444 -0.372434 0
M  V30 1133 C 109.116 -1.551 3.12642 0
M  V30 1134 C 110.464 -2.03757 3.72516 0
M  V30 1135 O 111.488 -1.64965 3.15698 0
M  V30 1136 O 110.347 -2.75103 4.72208 0
M  V30 1137 H 107.441 -0.446636 0.696021 0
M  V30 1138 H 109.987 -0.197283 1.68549 0
M  V30 1139 H 108.759 -0.783212 3.83382 0
M  V30 1140 H 108.382 -2.37291 3.19028 0
M  V30 1141 N 109.379 -1.50304 -0.473955 0
M  V30 1142 C 110.627 -1.60832 -1.22382 0
M  V30 1143 C 110.948 -0.30939 -1.9253 0
M  V30 1144 O 110.218 0.67296 -1.83978 0
M  V30 1145 H 108.798 -0.592652 -0.454723 0
M  V30 1146 H 111.46 -1.87068 -0.546968 0
M  V30 1147 H 110.556 -2.41803 -1.97327 0
M  V30 1148 N 110.857 0.726932 -1.39834 0
M  V30 1149 C 111.787 1.85405 -1.41941 0
M  V30 1150 C 112.768 1.67751 -0.281728 0
M  V30 1151 O 113.953 1.8795 -0.488717 0
M  V30 1152 C 111.083 3.23243 -1.2701 0
M  V30 1153 C 110.037 3.55549 -2.38262 0
M  V30 1154 C 109.363 4.9241 -2.08415 0
M  V30 1155 C 110.663 3.577 -3.80589 0
M  V30 1156 H 112.357 1.83899 -2.36266 0
M  V30 1157 H 109.903 0.883349 -1.13723 0
M  V30 1158 H 111.856 4.01775 -1.27103 0
M  V30 1159 H 110.58 3.25296 -0.291564 0
M  V30 1160 H 109.239 2.79351 -2.37399 0
M  V30 1161 H 108.887 4.91052 -1.0898 0
M  V30 1162 H 108.587 5.14992 -2.82943 0
M  V30 1163 H 110.111 5.73289 -2.10171 0
M  V30 1164 H 111.525 4.26293 -3.83337 0
M  V30 1165 H 109.922 3.91804 -4.54543 0
M  V30 1166 H 110.992 2.57328 -4.10987 0
M  V30 1167 N 112.336 1.25143 0.95797 0
M  V30 1168 C 113.582 1.09855 1.70469 0
M  V30 1169 C 113.915 -0.360187 1.90831 0
M  V30 1170 O 113.19 -1.26568 1.47685 0
M  V30 1171 C 113.473 1.8497 3.08963 0
M  V30 1172 C 113.326 3.38652 2.96032 0
M  V30 1173 C 114.645 1.63016 4.08795 0
M  V30 1174 H 111.764 0.400465 0.618706 0
M  V30 1175 H 114.406 1.53933 1.11376 0
M  V30 1176 H 112.556 1.47505 3.59409 0
M  V30 1177 H 114.228 3.85772 2.52938 0
M  V30 1178 H 112.471 3.66534 2.32025 0
M  V30 1179 H 113.142 3.8642 3.94187 0
M  V30 1180 H 115.618 1.95625 3.67247 0
M  V30 1181 H 114.494 2.18015 5.03747 0
M  V30 1182 H 114.755 0.570692 4.38401 0
M  V30 1183 N 113.814 -1.1601 1.06675 0
M  V30 1184 C 114.761 -2.20525 0.680967 0
M  V30 1185 C 115.731 -1.62904 -0.324283 0
M  V30 1186 O 116.916 -1.89615 -0.212294 0
M  V30 1187 C 114.056 -3.45013 0.0776551 0
M  V30 1188 C 113.169 -4.16863 1.13355 0
M  V30 1189 C 112.304 -5.2888 0.49597 0
M  V30 1190 C 111.343 -5.92537 1.53513 0
M  V30 1191 N 110.48 -6.96038 0.920631 0
M  V30 1192 H 115.32 -2.52876 1.57663 0
M  V30 1193 H 112.857 -1.24199 0.788223 0
M  V30 1194 H 114.815 -4.16193 -0.289704 0
M  V30 1195 H 113.445 -3.132 -0.781393 0
M  V30 1196 H 112.497 -3.44248 1.61857 0
M  V30 1197 H 113.809 -4.60294 1.92174 0
M  V30 1198 H 112.963 -6.06653 0.0758604 0
M  V30 1199 H 111.702 -4.86622 -0.324062 0
M  V30 1200 H 110.707 -5.13482 1.9651 0
M  V30 1201 H 111.932 -6.36873 2.35733 0
M  V30 1202 H 109.878 -6.55888 0.12138 0
M  V30 1203 H 109.795 -7.3786 1.64616 0
M  V30 1204 H 111.063 -7.77725 0.525795 0
M  V30 1205 N 115.292 -0.849877 -1.32721 0
M  V30 1206 C 116.541 -0.447175 -1.96681 0
M  V30 1207 C 116.854 1.00135 -1.68025 0
M  V30 1208 O 118.06 1.50926 -2.25685 0
M  V30 1209 C 116.516 -0.7487 -3.52026 0
M  V30 1210 C 116.124 -2.21264 -3.89546 0
M  V30 1211 C 117.868 -0.413487 -4.22481 0
M  V30 1212 C 115.775 -2.45763 -5.37917 0
M  V30 1213 H 114.705 -0.163486 -0.736063 0
M  V30 1214 H 117.356 -1.03999 -1.51183 0
M  V30 1215 H 115.738 -0.0853727 -3.95908 0
M  V30 1216 H 116.912 -2.91736 -3.56689 0
M  V30 1217 H 115.227 -2.5119 -3.32103 0
M  V30 1218 H 117.824 -0.574017 -5.3161 0
M  V30 1219 H 118.167 0.644492 -4.11281 0
M  V30 1220 H 118.7 -1.03251 -3.84167 0
M  V30 1221 H 115.439 -3.50168 -5.54132 0
M  V30 1222 H 114.959 -1.79864 -5.72197 0
M  V30 1223 H 116.638 -2.29471 -6.0494 0
M  V30 1224 N 116.77 1.45427 -0.607355 0
M  V30 1225 C 117.995 2.07124 -0.107006 0
M  V30 1226 C 118.42 1.44906 1.19933 0
M  V30 1227 O 117.778 0.541687 1.73019 0
M  V30 1228 C 117.826 3.60595 0.0194119 0
M  V30 1229 O 116.93 3.98285 1.0697 0
M  V30 1230 H 116.271 0.659868 -0.0739597 0
M  V30 1231 H 118.801 1.86683 -0.837297 0
M  V30 1232 H 118.811 4.07419 0.2177 0
M  V30 1233 H 117.486 4.05266 -0.934453 0
M  V30 1234 H 116.063 3.63133 0.847889 0
M  V30 1235 N 118.248 0.346503 1.53744 0
M  V30 1236 C 119.496 -0.248612 2.00565 0
M  V30 1237 C 119.817 -1.5083 1.23593 0
M  V30 1238 O 119.087 -1.92858 0.343912 0
M  V30 1239 H 117.667 -0.0948564 0.740953 0
M  V30 1240 H 120.329 0.468341 1.89189 0
M  V30 1241 H 119.425 -0.488994 3.08245 0
M  V30 1242 N 119.726 -1.57421 0.075193 0
M  V30 1243 C 120.673 -2.12915 -0.890843 0
M  V30 1244 C 121.643 -1.04252 -1.29309 0
M  V30 1245 O 122.828 -1.31933 -1.37834 0
M  V30 1246 C 119.968 -2.69795 -2.15186 0
M  V30 1247 C 119.081 -3.92624 -1.80194 0
M  V30 1248 C 118.216 -4.37736 -3.00933 0
M  V30 1249 C 117.255 -5.53205 -2.61974 0
M  V30 1250 N 116.392 -5.9326 -3.75483 0
M  V30 1251 H 121.232 -2.95156 -0.410735 0
M  V30 1252 H 118.769 -1.45854 -0.191086 0
M  V30 1253 H 120.727 -3.00883 -2.89008 0
M  V30 1254 H 119.357 -1.90313 -2.60731 0
M  V30 1255 H 118.409 -3.67977 -0.964218 0
M  V30 1256 H 119.721 -4.76482 -1.47534 0
M  V30 1257 H 118.875 -4.70503 -3.8303 0
M  V30 1258 H 117.614 -3.52739 -3.36789 0
M  V30 1259 H 116.619 -5.20086 -1.783 0
M  V30 1260 H 117.844 -6.39936 -2.27284 0
M  V30 1261 H 115.79 -5.11212 -4.11094 0
M  V30 1262 H 115.707 -6.71865 -3.46602 0
M  V30 1263 H 116.975 -6.30651 -4.58148 0
M  V30 1264 N 121.204 0.198386 -1.56346 0
M  V30 1265 C 122.481 0.944982 -1.71258 0
M  V30 1266 C 122.861 2.0151 -0.629048 0
M  V30 1267 O 122.209 2.25639 0.360473 0
M  V30 1268 C 122.419 1.5344 -3.1346 0
M  V30 1269 C 123.767 2.01778 -3.73591 0
M  V30 1270 O 124.791 1.63288 -3.16568 0
M  V30 1271 O 123.65 2.72594 -4.73661 0
M  V30 1272 H 120.744 0.442939 -0.69838 0
M  V30 1273 H 123.29 0.188342 -1.68652 0
M  V30 1274 H 122.062 0.762869 -3.83792 0
M  V30 1275 H 121.685 2.35596 -3.20282 0
M  V30 1276 N 122.682 1.50554 0.465978 0
M  V30 1277 C 123.912 1.65323 1.23903 0
M  V30 1278 C 124.32 0.338051 1.86155 0
M  V30 1279 O 123.663 -0.690518 1.70228 0
M  V30 1280 C 123.725 2.69048 2.3844 0
M  V30 1281 C 123.389 4.12462 1.96784 0
M  V30 1282 C 124.386 4.98168 1.48745 0
M  V30 1283 C 122.071 4.58407 2.05349 0
M  V30 1284 C 124.065 6.27868 1.0982 0
M  V30 1285 C 121.752 5.88112 1.66035 0
M  V30 1286 C 122.75 6.72668 1.18349 0
M  V30 1287 O 122.438 7.99951 0.795825 0
M  V30 1288 H 122.17 0.558629 0.38067 0
M  V30 1289 H 124.724 1.97561 0.562022 0
M  V30 1290 H 122.954 2.32062 3.09328 0
M  V30 1291 H 124.643 2.72985 3.0039 0
M  V30 1292 H 125.409 4.63885 1.41546 0
M  V30 1293 H 121.288 3.92735 2.41414 0
M  V30 1294 H 124.832 6.93819 0.725293 0
M  V30 1295 H 120.729 6.21914 1.72895 0
M  V30 1296 H 121.497 8.13265 0.924222 0
M  V30 1297 N 124.16 -0.719506 1.40217 0
M  V30 1298 C 125.409 -1.47486 1.37589 0
M  V30 1299 C 125.722 -1.9559 -0.0201568 0
M  V30 1300 O 126.928 -2.70973 -0.169049 0
M  V30 1301 C 125.384 -2.66575 2.41796 0
M  V30 1302 C 124.992 -2.25358 3.87192 0
M  V30 1303 C 126.736 -3.4433 2.48269 0
M  V30 1304 C 124.643 -3.41262 4.83005 0
M  V30 1305 H 123.573 -0.553901 0.511576 0
M  V30 1306 H 126.224 -0.783427 1.65936 0
M  V30 1307 H 124.606 -3.3787 2.06543 0
M  V30 1308 H 125.78 -1.61509 4.31569 0
M  V30 1309 H 124.095 -1.60657 3.84159 0
M  V30 1310 H 126.692 -4.30569 3.17041 0
M  V30 1311 H 127.035 -3.87872 1.51198 0
M  V30 1312 H 127.568 -2.80076 2.82493 0
M  V30 1313 H 124.307 -3.02755 5.81394 0
M  V30 1314 H 123.827 -4.0404 4.43297 0
M  V30 1315 H 125.506 -4.07383 5.02641 0
M  V30 1316 N 125.638 -1.25649 -0.95132 0
M  V30 1317 C 126.568 -1.08808 -2.06599 0
M  V30 1318 C 127.549 0.00382547 -1.701 0
M  V30 1319 O 128.734 -0.166325 -1.93486 0
M  V30 1320 C 125.864 -0.709542 -3.39975 0
M  V30 1321 C 124.818 -1.75206 -3.90496 0
M  V30 1322 C 124.144 -1.22811 -5.20405 0
M  V30 1323 C 125.444 -3.15153 -4.16504 0
M  V30 1324 H 127.138 -2.02048 -2.20946 0
M  V30 1325 H 124.684 -0.972835 -1.06169 0
M  V30 1326 H 126.637 -0.578649 -4.17408 0
M  V30 1327 H 125.361 0.258556 -3.25575 0
M  V30 1328 H 124.02 -1.87145 -3.15234 0
M  V30 1329 H 123.668 -0.250145 -5.02378 0
M  V30 1330 H 123.368 -1.92492 -5.55176 0
M  V30 1331 H 124.892 -1.10968 -6.00432 0
M  V30 1332 H 126.306 -3.06349 -4.84586 0
M  V30 1333 H 124.703 -3.82333 -4.62538 0
M  V30 1334 H 125.773 -3.61966 -3.22658 0
M  V30 1335 N 127.117 1.15442 -1.07289 0
M  V30 1336 C 128.065 2.22225 -0.686952 0
M  V30 1337 C 129.059 1.66688 0.30193 0
M  V30 1338 O 130.265 1.79236 0.165712 0
M  V30 1339 H 126.64 0.723783 -0.204064 0
M  V30 1340 H 128.611 2.52056 -1.5972 0
M  V30 1341 C 127.36 3.47556 -0.100149 0
M  V30 1342 H 126.683 3.90612 -0.852211 0
M  V30 1343 H 128.123 4.23794 0.132235 0
M  V30 1344 C 126.582 3.16337 1.159 0
M  V30 1345 O 127.112 3.33074 2.24555 0
M  V30 1346 N 125.318 2.70385 1.06491 0
M  V30 1347 H 124.865 2.56966 0.180668 0
M  V30 1348 H 124.823 2.49871 1.90819 0
M  V30 1349 N 128.595 0.856903 1.32268 0
M  V30 1350 C 129.527 0.260412 2.27716 0
M  V30 1351 C 130.54 -0.569137 1.52528 0
M  V30 1352 O 131.729 -0.39326 1.74114 0
M  V30 1353 C 128.829 -0.650477 3.32599 0
M  V30 1354 C 128.002 0.14372 4.37164 0
M  V30 1355 C 127.061 -0.69328 5.21613 0
M  V30 1356 O 126.087 -0.12599 5.69061 0
M  V30 1357 N 127.289 -2.00761 5.44679 0
M  V30 1358 H 130.054 1.08059 2.79541 0
M  V30 1359 H 127.615 0.717103 1.45152 0
M  V30 1360 H 129.607 -1.21581 3.86005 0
M  V30 1361 H 128.177 -1.37133 2.80915 0
M  V30 1362 H 127.397 0.890486 3.8401 0
M  V30 1363 H 128.685 0.68915 5.04111 0
M  V30 1364 H 128.083 -2.49181 5.07863 0
M  V30 1365 H 126.64 -2.52103 6.01072 0
M  V30 1366 N 130.073 -1.45103 0.615059 0
M  V30 1367 C 131.021 -2.32331 -0.111791 0
M  V30 1368 C 132.015 -1.46409 -0.852102 0
M  V30 1369 O 133.221 -1.62849 -0.766821 0
M  V30 1370 H 129.596 -0.749993 -0.0549072 0
M  V30 1371 H 131.567 -2.91407 0.642225 0
M  V30 1372 C 130.316 -3.3015 -1.09071 0
M  V30 1373 H 129.639 -3.96265 -0.530485 0
M  V30 1374 H 131.079 -3.93898 -1.56908 0
M  V30 1375 C 129.538 -2.57875 -2.168 0
M  V30 1376 O 130.068 -2.36567 -3.24652 0
M  V30 1377 N 128.274 -2.17884 -1.92289 0
M  V30 1378 H 127.821 -2.35413 -1.04587 0
M  V30 1379 H 127.779 -1.6985 -2.64572 0
M  V30 1380 N 131.551 -0.354651 -1.53558 0
M  V30 1381 C 132.461 0.50515 -2.29097 0
M  V30 1382 C 133.477 1.10223 -1.34636 0
M  V30 1383 O 134.653 1.11553 -1.67684 0
M  V30 1384 C 131.718 1.63479 -3.05738 0
M  V30 1385 C 130.779 1.06636 -4.15845 0
M  V30 1386 C 130.012 2.14217 -4.88822 0
M  V30 1387 O 130.235 3.35137 -4.61562 0
M  V30 1388 O 129.169 1.77887 -5.75013 0
M  V30 1389 H 132.995 -0.109237 -3.03503 0
M  V30 1390 H 130.58 -0.119357 -1.48922 0
M  V30 1391 H 132.462 2.2918 -3.5363 0
M  V30 1392 H 131.137 2.23478 -2.34178 0
M  V30 1393 H 130.044 0.373565 -3.7223 0
M  V30 1394 H 131.377 0.511081 -4.89539 0
M  V30 1395 N 133.029 1.57378 -0.0835403 0
M  V30 1396 C 134.277 1.93547 0.581718 0
M  V30 1397 C 134.598 0.96524 1.69435 0
M  V30 1398 O 133.868 0.0153369 1.95894 0
M  V30 1399 H 132.448 0.714521 0.217874 0
M  V30 1400 H 135.11 1.94366 -0.144158 0
M  V30 1401 H 134.206 2.95665 0.999423 0
M  V30 1402 N 134.507 -0.190092 1.56449 0
M  V30 1403 C 135.918 -0.754312 1.70784 0
M  V30 1404 C 136.269 -1.83631 0.690951 0
M  V30 1405 O 135.394 -2.15868 -0.151604 0
M  V30 1406 C 135.989 -1.37503 3.09642 0
M  V30 1407 C 134.548 -1.88628 3.25725 0
M  V30 1408 C 133.695 -0.758098 2.66736 0
M  V30 1409 H 136.646 0.0350524 1.58661 0
M  V30 1410 H 136.667 -2.2445 3.0725 0
M  V30 1411 H 136.179 -0.587302 3.83631 0
M  V30 1412 H 134.28 -2.70103 2.56661 0
M  V30 1413 H 134.393 -2.04462 4.3328 0
M  V30 1414 H 132.757 -1.17369 2.26046 0
M  V30 1415 H 133.54 0.0174705 3.43296 0
M  V30 1416 N 135.985 -1.50799 -0.457987 0
M  V30 1417 C 136.917 -1.66786 -1.57211 0
M  V30 1418 C 137.93 -0.548962 -1.53265 0
M  V30 1419 O 139.119 -0.8226 -1.58416 0
M  V30 1420 C 136.219 -1.64834 -2.96113 0
M  V30 1421 C 135.392 -2.92971 -3.24787 0
M  V30 1422 C 134.451 -2.83485 -4.43309 0
M  V30 1423 O 133.477 -3.5744 -4.42973 0
M  V30 1424 N 134.679 -1.97929 -5.45714 0
M  V30 1425 H 137.444 -2.62889 -1.43909 0
M  V30 1426 H 135.005 -1.48427 -0.646617 0
M  V30 1427 H 136.997 -1.56084 -3.7339 0
M  V30 1428 H 135.567 -0.764118 -3.03117 0
M  V30 1429 H 134.787 -3.15749 -2.36 0
M  V30 1430 H 136.075 -3.77834 -3.40762 0
M  V30 1431 H 135.473 -1.37182 -5.48815 0
M  V30 1432 H 134.03 -1.95073 -6.21924 0
M  V30 1433 N 137.463 0.71206 -1.40597 0
M  V30 1434 C 138.691 1.50111 -1.42388 0
M  V30 1435 C 139.106 1.88784 -0.0245395 0
M  V30 1436 O 138.463 1.55681 0.952351 0
M  V30 1437 C 138.514 2.7742 -2.31776 0
M  V30 1438 O 138.235 2.40382 -3.66262 0
M  V30 1439 C 139.736 3.7129 -2.42196 0
M  V30 1440 H 136.956 0.46314 -0.485533 0
M  V30 1441 H 139.5 0.878068 -1.8469 0
M  V30 1442 H 137.655 3.36001 -1.92827 0
M  V30 1443 H 138.069 3.22324 -4.13772 0
M  V30 1444 H 139.543 4.57448 -3.08943 0
M  V30 1445 H 140.02 4.14641 -1.44809 0
M  V30 1446 H 140.626 3.18619 -2.81712 0
M  V30 1447 N 138.941 1.26152 0.944643 0
M  V30 1448 C 139.871 1.09902 2.06019 0
M  V30 1449 C 140.852 0.00519538 1.70099 0
M  V30 1450 O 142.037 0.176583 1.93396 0
M  V30 1451 C 139.167 0.727562 3.39594 0
M  V30 1452 C 138.121 1.77274 3.89561 0
M  V30 1453 C 137.447 1.25569 5.19747 0
M  V30 1454 C 138.747 3.17357 4.14827 0
M  V30 1455 H 140.441 2.03217 2.19871 0
M  V30 1456 H 137.987 0.978452 1.05652 0
M  V30 1457 H 139.94 0.600777 4.17095 0
M  V30 1458 H 138.664 -0.241287 3.25707 0
M  V30 1459 H 137.323 1.88814 3.14237 0
M  V30 1460 H 136.971 0.276783 5.02238 0
M  V30 1461 H 136.671 1.95433 5.54148 0
M  V30 1462 H 138.195 1.1415 5.99835 0
M  V30 1463 H 139.609 3.08914 4.82954 0
M  V30 1464 H 138.006 3.84781 4.60504 0
M  V30 1465 H 139.076 3.63673 3.20734 0
M  V30 1466 N 140.419 -1.14872 1.07899 0
M  V30 1467 C 141.369 -2.17809 0.674027 0
M  V30 1468 C 142.353 -1.58008 -0.303699 0
M  V30 1469 O 143.545 -1.76616 -0.11654 0
M  V30 1470 C 140.674 -3.43208 0.0793318 0
M  V30 1471 C 139.76 -4.10051 1.08253 0
M  V30 1472 N 140.151 -4.52296 2.2641 0
M  V30 1473 C 138.449 -4.36469 0.917124 0
M  V30 1474 C 139.15 -5.04199 2.901 0
M  V30 1475 N 138.126 -4.98088 2.17736 0
M  V30 1476 H 141.928 -2.48207 1.57386 0
M  V30 1477 H 139.442 -1.315 0.952976 0
M  V30 1478 H 141.439 -4.16272 -0.228719 0
M  V30 1479 H 140.099 -3.14291 -0.815551 0
M  V30 1480 H 141.11 -4.45504 2.64096 0
M  V30 1481 H 137.787 -4.17432 0.0756078 0
M  V30 1482 H 139.177 -5.46802 3.90458 0
M  V30 1483 N 141.898 -0.863906 -1.31812 0
M  V30 1484 C 143.146 -0.470904 -1.96537 0
M  V30 1485 C 143.467 0.978771 -1.68657 0
M  V30 1486 O 142.737 1.6853 -0.998717 0
M  V30 1487 H 141.317 -0.171148 -0.72713 0
M  V30 1488 H 143.979 -1.10236 -1.60729 0
M  V30 1489 H 143.075 -0.623616 -3.05806 0
M  V30 1490 N 143.376 1.44774 -0.622745 0
M  V30 1491 C 144.624 2.01721 -0.123655 0
M  V30 1492 C 144.945 1.49172 1.25589 0
M  V30 1493 O 144.215 0.691974 1.83272 0
M  V30 1494 H 142.795 0.745777 -0.0427225 0
M  V30 1495 H 145.457 1.77382 -0.807559 0
M  V30 1496 H 144.553 3.11984 -0.0849534 0
M  V30 1497 N 144.854 0.36279 1.53368 0
M  V30 1498 C 145.764 -0.492994 2.29362 0
M  V30 1499 C 146.78 -1.09507 1.35219 0
M  V30 1500 O 147.956 -1.10662 1.68273 0
M  V30 1501 C 145.021 -1.61855 3.066 0
M  V30 1502 C 144.082 -1.04429 4.16405 0
M  V30 1503 C 143.315 -2.11621 4.89951 0
M  V30 1504 O 143.538 -3.32684 4.63333 0
M  V30 1505 O 142.472 -1.74835 5.75948 0
M  V30 1506 H 146.298 0.125331 3.03441 0
M  V30 1507 H 143.883 0.127253 1.48857 0
M  V30 1508 H 145.765 -2.27302 3.54841 0
M  V30 1509 H 144.44 -2.22233 2.3536 0
M  V30 1510 H 143.347 -0.353819 3.72423 0
M  V30 1511 H 144.68 -0.485113 4.89804 0
M  V30 1512 N 146.332 -1.57332 0.0918853 0
M  V30 1513 C 147.242 -2.17368 -0.882505 0
M  V30 1514 C 148.258 -1.14226 -1.31257 0
M  V30 1515 O 149.434 -1.46582 -1.38115 0
M  V30 1516 C 146.499 -2.73962 -2.12476 0
M  V30 1517 C 145.56 -3.92048 -1.7492 0
M  V30 1518 C 144.793 -4.45933 -2.93223 0
M  V30 1519 O 145.016 -3.98764 -4.07852 0
M  V30 1520 O 143.95 -5.36999 -2.71875 0
M  V30 1521 H 147.776 -3.01031 -0.40172 0
M  V30 1522 H 145.361 -1.48813 -0.132291 0
M  V30 1523 H 147.243 -3.10147 -2.85283 0
M  V30 1524 H 145.918 -1.93347 -2.59613 0
M  V30 1525 H 144.825 -3.6068 -0.993025 0
M  V30 1526 H 146.158 -4.74017 -1.32548 0
M  V30 1527 N 147.81 0.181792 -1.56548 0
M  V30 1528 C 149.035 0.920019 -1.85877 0
M  V30 1529 C 149.46 1.75494 -0.677021 0
M  V30 1530 O 148.818 1.77399 0.374056 0
M  V30 1531 C 148.866 1.78112 -3.13542 0
M  V30 1532 O 147.97 2.88152 -2.95029 0
M  V30 1533 H 147.311 0.258334 -0.611686 0
M  V30 1534 H 149.841 0.183092 -2.03779 0
M  V30 1535 H 149.851 2.18314 -3.44678 0
M  V30 1536 H 148.526 1.16777 -3.99169 0
M  V30 1537 H 147.103 2.51609 -2.75222 0
M  V30 1538 N 149.288 1.51039 0.449983 0
M  V30 1539 C 150.537 1.62317 1.19733 0
M  V30 1540 C 150.85 0.339101 1.92638 0
M  V30 1541 O 152.056 0.331069 2.69474 0
M  V30 1542 C 150.512 2.86608 2.17678 0
M  V30 1543 C 150.12 4.21972 1.50479 0
M  V30 1544 C 151.864 3.07239 2.92924 0
M  V30 1545 C 149.771 5.37426 2.46834 0
M  V30 1546 H 148.701 0.604532 0.450619 0
M  V30 1547 H 151.352 1.77494 0.465625 0
M  V30 1548 H 149.734 2.65037 2.94231 0
M  V30 1549 H 150.908 4.53878 0.795716 0
M  V30 1550 H 149.223 4.07117 0.874344 0
M  V30 1551 H 151.82 3.90668 3.65079 0
M  V30 1552 H 152.163 2.19807 3.5354 0
M  V30 1553 H 152.696 3.29091 2.23481 0
M  V30 1554 H 149.435 6.27079 1.90926 0
M  V30 1555 H 148.955 5.09912 3.15832 0
M  V30 1556 H 150.634 5.68862 3.08228 0
M  V30 1557 N 150.766 -0.704594 1.40972 0
M  V30 1558 C 151.716 -1.81051 1.38581 0
M  V30 1559 C 152.7 -1.58759 0.261585 0
M  V30 1560 O 153.892 -1.69745 0.501556 0
M  V30 1561 C 151.021 -3.19279 1.26157 0
M  V30 1562 C 150.107 -3.47296 2.43405 0
M  V30 1563 N 150.498 -3.46064 3.68881 0
M  V30 1564 C 148.796 -3.77804 2.37023 0
M  V30 1565 C 149.497 -3.72733 4.46592 0
M  V30 1566 N 148.473 -3.9203 3.76581 0
M  V30 1567 H 152.275 -1.78448 2.33525 0
M  V30 1568 H 149.789 -0.904198 1.349 0
M  V30 1569 H 151.786 -3.98488 1.22526 0
M  V30 1570 H 150.446 -3.231 0.321902 0
M  V30 1571 H 151.457 -3.26656 4.01891 0
M  V30 1572 H 148.134 -3.8905 1.51481 0
M  V30 1573 H 149.524 -3.77993 5.55492 0
M  V30 1574 N 152.244 -1.26651 -0.937939 0
M  V30 1575 C 153.472 -1.15173 -1.7188 0
M  V30 1576 C 153.887 0.292668 -1.86518 0
M  V30 1577 O 153.244 1.20014 -1.37488 0
M  V30 1578 C 153.295 -1.81925 -3.12387 0
M  V30 1579 O 153.016 -3.2072 -2.98446 0
M  V30 1580 C 154.517 -1.76442 -4.06673 0
M  V30 1581 H 151.737 -0.400911 -0.538063 0
M  V30 1582 H 154.281 -1.67332 -1.1756 0
M  V30 1583 H 152.436 -1.33696 -3.63599 0
M  V30 1584 H 152.85 -3.53802 -3.872 0
M  V30 1585 H 154.324 -2.27781 -5.02812 0
M  V30 1586 H 154.801 -0.731608 -4.33064 0
M  V30 1587 H 155.407 -2.24238 -3.61382 0
M  V30 1588 N 153.722 1.14298 -1.08507 0
M  V30 1589 C 154.669 2.19414 -0.715965 0
M  V30 1590 C 155.639 1.63399 0.298326 0
M  V30 1591 O 156.824 1.89929 0.182101 0
M  V30 1592 C 153.964 3.44845 -0.132534 0
M  V30 1593 C 153.077 4.15007 -1.19973 0
M  V30 1594 C 152.212 5.28024 -0.580048 0
M  V30 1595 C 151.251 5.9002 -1.62921 0
M  V30 1596 N 150.388 6.94485 -1.03125 0
M  V30 1597 H 155.228 2.50336 -1.61666 0
M  V30 1598 H 152.765 1.2293 -0.807882 0
M  V30 1599 H 154.723 4.16601 0.223454 0
M  V30 1600 H 153.353 3.14403 0.731467 0
M  V30 1601 H 152.405 3.41629 -1.67313 0
M  V30 1602 H 153.717 4.57178 -1.99473 0
M  V30 1603 H 152.871 6.06455 -0.172364 0
M  V30 1604 H 151.61 4.87076 0.246603 0
M  V30 1605 H 150.615 5.10291 -2.04654 0
M  V30 1606 H 151.84 6.33042 -2.45835 0
M  V30 1607 H 149.786 6.55612 -0.225711 0
M  V30 1608 H 149.703 7.35148 -1.76334 0
M  V30 1609 H 150.971 7.7679 -0.649458 0
M  V30 1610 N 155.201 0.870884 1.31352 0
M  V30 1611 C 156.131 0.343096 2.30966 0
M  V30 1612 C 157.112 -0.566507 1.60389 0
M  V30 1613 O 158.297 -0.483336 1.88089 0
M  V30 1614 C 155.427 -0.455487 3.443 0
M  V30 1615 C 154.381 0.361103 4.26474 0
M  V30 1616 C 153.707 -0.563221 5.31725 0
M  V30 1617 C 155.007 1.59566 4.97329 0
M  V30 1618 H 156.701 1.17548 2.75359 0
M  V30 1619 H 154.247 0.566686 1.32381 0
M  V30 1620 H 156.2 -0.83525 4.13039 0
M  V30 1621 H 154.924 -1.32139 2.98675 0
M  V30 1622 H 153.583 0.722825 3.59403 0
M  V30 1623 H 153.231 -1.42643 4.82351 0
M  V30 1624 H 152.931 -0.0207409 5.87596 0
M  V30 1625 H 154.455 -0.939808 6.03324 0
M  V30 1626 H 155.869 1.28728 5.58661 0
M  V30 1627 H 154.266 2.07728 5.63 0
M  V30 1628 H 155.336 2.34798 4.24262 0
M  V30 1629 N 156.679 -1.44442 0.630414 0
M  V30 1630 C 157.925 -2.02894 0.143332 0
M  V30 1631 C 158.28 -1.48697 -1.22094 0
M  V30 1632 O 157.573 -0.661171 -1.79831 0
M  V30 1633 C 157.767 -3.57332 0.0697835 0
M  V30 1634 C 157.596 -4.26512 1.42539 0
M  V30 1635 C 156.366 -4.63516 2.01198 0
M  V30 1636 C 158.564 -4.57004 2.35907 0
M  V30 1637 N 156.546 -5.17661 3.30001 0
M  V30 1638 C 157.917 -5.12223 3.49324 0
M  V30 1639 C 159.972 -4.38955 2.34995 0
M  V30 1640 C 158.675 -5.51295 4.62024 0
M  V30 1641 C 160.701 -4.79075 3.46758 0
M  V30 1642 C 160.063 -5.34407 4.58899 0
M  V30 1643 H 156.162 -0.776041 0.0963523 0
M  V30 1644 H 158.746 -1.75945 0.833752 0
M  V30 1645 H 156.917 -3.83894 -0.589915 0
M  V30 1646 H 158.649 -4.02451 -0.42606 0
M  V30 1647 H 155.404 -4.47811 1.54151 0
M  V30 1648 H 155.828 -5.4921 3.95851 0
M  V30 1649 H 160.47 -3.95469 1.49545 0
M  V30 1650 H 158.188 -5.93736 5.48182 0
M  V30 1651 H 161.774 -4.66824 3.47227 0
M  V30 1652 H 160.654 -5.64878 5.4395 0
M  V30 1653 N 158.157 -0.370918 -1.53173 0
M  V30 1654 C 159.385 0.217704 -2.05751 0
M  V30 1655 C 159.8 1.42018 -1.24404 0
M  V30 1656 O 159.157 1.80245 -0.286033 0
M  V30 1657 C 159.208 0.605954 -3.56385 0
M  V30 1658 O 158.929 -0.548734 -4.3465 0
M  V30 1659 C 160.43 1.2524 -4.25241 0
M  V30 1660 H 157.65 0.0371659 -0.66997 0
M  V30 1661 H 160.194 -0.530832 -1.9749 0
M  V30 1662 H 158.349 1.3044 -3.6478 0
M  V30 1663 H 158.763 -0.23376 -5.23979 0
M  V30 1664 H 160.237 1.47458 -5.3194 0
M  V30 1665 H 160.714 2.2143 -3.79296 0
M  V30 1666 H 161.32 0.595233 -4.21114 0
M  V30 1667 N 159.635 1.57281 -0.100228 0
M  V30 1668 C 160.865 1.98591 0.569681 0
M  V30 1669 C 161.273 0.978315 1.61943 0
M  V30 1670 O 160.616 -0.0396108 1.83657 0
M  V30 1671 C 160.678 3.36282 1.271 0
M  V30 1672 C 160.342 4.55488 0.371409 0
M  V30 1673 C 161.339 5.18491 -0.382504 0
M  V30 1674 C 159.024 5.01474 0.287965 0
M  V30 1675 C 161.018 6.25852 -1.20779 0
M  V30 1676 C 158.705 6.08701 -0.540965 0
M  V30 1677 C 159.703 6.70755 -1.28749 0
M  V30 1678 O 159.391 7.75914 -2.10269 0
M  V30 1679 H 159.123 0.65752 0.156982 0
M  V30 1680 H 161.677 2.0463 -0.177734 0
M  V30 1681 H 159.907 3.26941 2.0651 0
M  V30 1682 H 161.596 3.62005 1.83595 0
M  V30 1683 H 162.362 4.83891 -0.3278 0
M  V30 1684 H 158.241 4.52932 0.858689 0
M  V30 1685 H 161.785 6.74218 -1.79096 0
M  V30 1686 H 157.682 6.42732 -0.597131 0
M  V30 1687 H 158.45 7.92925 -2.03007 0
M  V30 1688 N 161.113 -0.173488 1.56642 0
M  V30 1689 C 162.023 -1.23482 1.99473 0
M  V30 1690 C 163.039 -1.48567 0.905752 0
M  V30 1691 O 164.215 -1.60758 1.21321 0
M  V30 1692 C 161.28 -2.55444 2.34413 0
M  V30 1693 C 160.341 -2.38241 3.57127 0
M  V30 1694 C 159.574 -3.63909 3.90392 0
M  V30 1695 O 159.797 -4.68996 3.24653 0
M  V30 1696 O 158.731 -3.58149 4.83749 0
M  V30 1697 H 162.557 -0.901279 2.90018 0
M  V30 1698 H 160.142 -0.380185 1.44482 0
M  V30 1699 H 162.024 -3.33292 2.57865 0
M  V30 1700 H 160.699 -2.88382 1.4703 0
M  V30 1701 H 159.606 -1.58431 3.38896 0
M  V30 1702 H 160.939 -2.10228 4.45045 0
M  V30 1703 N 162.591 -1.51276 -0.441967 0
M  V30 1704 C 163.837 -1.63958 -1.19355 0
M  V30 1705 C 164.17 -0.352543 -1.90973 0
M  V30 1706 O 163.445 0.647627 -1.83401 0
M  V30 1707 C 163.728 -2.83979 -2.21422 0
M  V30 1708 C 163.581 -4.22646 -1.53918 0
M  V30 1709 C 164.9 -2.99521 -3.22451 0
M  V30 1710 H 162.019 -0.596709 -0.432559 0
M  V30 1711 H 164.661 -1.83748 -0.483398 0
M  V30 1712 H 162.811 -2.67237 -2.81987 0
M  V30 1713 H 164.483 -4.51045 -0.967256 0
M  V30 1714 H 162.726 -4.25558 -0.841615 0
M  V30 1715 H 163.397 -5.02609 -2.28229 0
M  V30 1716 H 165.873 -3.14944 -2.71937 0
M  V30 1717 H 164.749 -3.85072 -3.91166 0
M  V30 1718 H 165.01 -2.11391 -3.88287 0
M  V30 1719 N 164.069 0.697108 -1.41344 0
M  V30 1720 C 165.297 1.48593 -1.43972 0
M  V30 1721 C 165.712 1.88747 -0.0445612 0
M  V30 1722 O 165.069 1.56682 0.935785 0
M  V30 1723 C 165.12 2.74946 -2.34706 0
M  V30 1724 O 164.841 2.36484 -3.68791 0
M  V30 1725 C 166.342 3.687 -2.46121 0
M  V30 1726 H 163.562 0.457964 -0.490418 0
M  V30 1727 H 166.106 0.858429 -1.8561 0
M  V30 1728 H 164.261 3.33937 -1.9638 0
M  V30 1729 H 164.675 3.17918 -4.17167 0
M  V30 1730 H 166.149 4.54145 -3.13777 0
M  V30 1731 H 166.626 4.13081 -1.49199 0
M  V30 1732 H 167.232 3.15613 -2.85076 0
M  V30 1733 N 165.547 1.27147 0.931209 0
M  V30 1734 C 166.824 1.0401 1.65654 0
M  V30 1735 C 167.204 -0.426297 2.06751 0
M  V30 1736 O 166.552 -1.40879 1.79904 0
M  V30 1737 C 166.762 1.99834 2.86125 0
M  V30 1738 C 168.11 2.29007 3.57549 0
M  V30 1739 O 169.134 1.97779 2.96246 0
M  V30 1740 O 167.993 2.82222 4.67989 0
M  V30 1741 H 165.087 0.396239 0.725895 0
M  V30 1742 H 167.633 1.38397 0.982056 0
M  V30 1743 H 166.405 2.98744 2.52721 0
M  V30 1744 H 166.028 1.65987 3.61295 0
M  V30 1745 N 167.025 -1.13721 1.09112 0
M  V30 1746 C 167.955 -2.21148 0.749385 0
M  V30 1747 C 168.936 -1.6792 -0.271475 0
M  V30 1748 O 170.121 -1.93693 -0.140251 0
M  V30 1749 C 167.251 -3.46905 0.165659 0
M  V30 1750 C 166.205 -4.13203 1.11567 0
M  V30 1751 C 165.531 -5.33248 0.393809 0
M  V30 1752 C 166.831 -4.60912 2.45678 0
M  V30 1753 H 168.525 -2.4999 1.64758 0
M  V30 1754 H 166.071 -1.20156 0.793626 0
M  V30 1755 H 168.024 -4.21313 -0.085466 0
M  V30 1756 H 166.748 -3.17449 -0.767714 0
M  V30 1757 H 165.407 -3.40758 1.35202 0
M  V30 1758 H 165.055 -5.00054 -0.543599 0
M  V30 1759 H 164.755 -5.78552 1.02721 0
M  V30 1760 H 166.279 -6.10413 0.150908 0
M  V30 1761 H 167.693 -5.26759 2.26269 0
M  V30 1762 H 166.09 -5.16944 3.04776 0
M  V30 1763 H 167.16 -3.75603 3.06677 0
M  V30 1764 N 168.503 -0.877838 -1.30888 0
M  V30 1765 C 169.751 -0.491723 -1.96027 0
M  V30 1766 C 170.072 0.960827 -1.69685 0
M  V30 1767 O 169.342 1.67462 -1.01654 0
M  V30 1768 H 167.922 -0.17885 -0.725273 0
M  V30 1769 H 170.584 -1.11935 -1.59551 0
M  V30 1770 H 169.68 -0.656016 -3.05128 0
M  V30 1771 N 169.982 1.44106 -0.638065 0
M  V30 1772 C 170.945 2.29138 0.0531013 0
M  V30 1773 C 171.945 1.41409 0.765506 0
M  V30 1774 O 173.135 1.63206 0.609046 0
M  V30 1775 C 170.267 3.23144 1.08584 0
M  V30 1776 H 171.46 2.91739 -0.694883 0
M  V30 1777 H 169.013 1.51134 -0.398538 0
M  V30 1778 H 169.748 2.65408 1.86357 0
M  V30 1779 H 169.533 3.87804 0.578852 0
M  V30 1780 H 171.023 3.87004 1.56899 0
M  V30 1781 N 171.46 0.379036 1.52974 0
M  V30 1782 C 172.37 -0.468639 2.29872 0
M  V30 1783 C 173.386 -1.08067 1.36373 0
M  V30 1784 O 174.562 -1.08871 1.69438 0
M  V30 1785 C 171.627 -1.58594 3.083 0
M  V30 1786 C 170.688 -1.00007 4.17489 0
M  V30 1787 C 169.921 -2.06413 4.92168 0
M  V30 1788 O 170.144 -3.27751 4.66835 0
M  V30 1789 O 169.078 -1.68717 5.7777 0
M  V30 1790 H 172.904 0.157508 3.03291 0
M  V30 1791 H 170.489 0.143035 1.48714 0
M  V30 1792 H 172.371 -2.23525 3.57232 0
M  V30 1793 H 171.046 -2.19724 2.37703 0
M  V30 1794 H 169.953 -0.314299 3.72777 0
M  V30 1795 H 171.286 -0.433135 4.90291 0
M  V30 1796 N 172.938 -1.57226 0.108567 0
M  V30 1797 C 174.184 -1.95121 -0.552761 0
M  V30 1798 C 174.517 -0.991345 -1.66991 0
M  V30 1799 O 173.792 -0.0267211 -1.94482 0
M  V30 1800 C 174.075 -3.43039 -1.09528 0
M  V30 1801 C 173.928 -4.49797 0.0177332 0
M  V30 1802 C 175.247 -3.92567 -1.98945 0
M  V30 1803 H 172.366 -0.709496 -0.199461 0
M  V30 1804 H 175.008 -1.89126 0.182011 0
M  V30 1805 H 173.158 -3.48279 -1.72146 0
M  V30 1806 H 174.83 -4.56661 0.652584 0
M  V30 1807 H 173.073 -4.284 0.682309 0
M  V30 1808 H 173.744 -5.50528 -0.402919 0
M  V30 1809 H 176.22 -3.89565 -1.46214 0
M  V30 1810 H 175.096 -4.96605 -2.33827 0
M  V30 1811 H 175.357 -3.32648 -2.91201 0
M  V30 1812 N 174.416 0.165178 -1.56732 0
M  V30 1813 C 175.348 1.22911 -1.93457 0
M  V30 1814 C 176.361 1.40152 -0.828333 0
M  V30 1815 O 177.55 1.40046 -1.10677 0
M  V30 1816 C 174.65 2.59686 -2.17753 0
M  V30 1817 C 173.823 2.63663 -3.48999 0
M  V30 1818 C 172.882 3.81845 -3.62051 0
M  V30 1819 O 171.908 3.67559 -4.34613 0
M  V30 1820 N 173.11 4.98557 -2.97357 0
M  V30 1821 H 175.875 0.917118 -2.85323 0
M  V30 1822 H 173.436 0.354895 -1.57962 0
M  V30 1823 H 175.428 3.37225 -2.23743 0
M  V30 1824 H 173.998 2.83251 -1.32242 0
M  V30 1825 H 173.218 1.72173 -3.54612 0
M  V30 1826 H 174.506 2.63336 -4.35352 0
M  V30 1827 H 173.904 5.13065 -2.38287 0
M  V30 1828 H 172.461 5.73936 -3.08934 0
M  V30 1829 N 175.894 1.51508 0.433938 0
M  V30 1830 C 177.14 1.64588 1.18484 0
M  V30 1831 C 177.473 0.362666 1.90784 0
M  V30 1832 O 176.748 -0.637892 1.83742 0
M  V30 1833 C 177.031 2.85149 2.19913 0
M  V30 1834 C 176.884 4.23456 1.51674 0
M  V30 1835 C 178.203 3.01227 3.20858 0
M  V30 1836 H 175.322 0.598994 0.429389 0
M  V30 1837 H 177.964 1.84002 0.473647 0
M  V30 1838 H 176.114 2.68729 2.80566 0
M  V30 1839 H 177.786 4.51552 0.943322 0
M  V30 1840 H 176.029 4.25998 0.819035 0
M  V30 1841 H 176.7 5.03812 2.2556 0
M  V30 1842 H 179.176 3.16382 2.70263 0
M  V30 1843 H 178.052 3.87141 3.89118 0
M  V30 1844 H 178.313 2.13447 3.8716 0
M  V30 1845 N 177.372 -0.689602 1.41712 0
M  V30 1846 C 178.319 -1.80345 1.44029 0
M  V30 1847 C 179.289 -1.63478 0.293948 0
M  V30 1848 O 180.474 -1.84244 0.495869 0
M  V30 1849 C 177.614 -3.18272 1.33405 0
M  V30 1850 C 176.727 -3.46529 2.57956 0
M  V30 1851 C 175.862 -4.74103 2.39582 0
M  V30 1852 C 174.901 -4.95347 3.5958 0
M  V30 1853 N 174.038 -6.14151 3.40239 0
M  V30 1854 H 178.878 -1.77698 2.39222 0
M  V30 1855 H 176.415 -0.867688 1.18784 0
M  V30 1856 H 178.373 -3.97956 1.25246 0
M  V30 1857 H 177.003 -3.2008 0.418164 0
M  V30 1858 H 176.055 -2.61207 2.76542 0
M  V30 1859 H 177.367 -3.58126 3.47199 0
M  V30 1860 H 176.521 -5.61853 2.28924 0
M  V30 1861 H 175.26 -4.64763 1.47805 0
M  V30 1862 H 174.265 -4.06044 3.70686 0
M  V30 1863 H 175.49 -5.06542 4.52318 0
M  V30 1864 H 173.436 -6.06013 2.51167 0
M  V30 1865 H 173.353 -6.26543 4.23061 0
M  V30 1866 H 174.621 -7.04619 3.33365 0
M  V30 1867 N 178.85 -1.27639 -0.924453 0
M  V30 1868 C 180.097 -1.14167 -1.67249 0
M  V30 1869 C 180.425 0.311863 -1.91984 0
M  V30 1870 O 179.68 1.24425 -1.51053 0
M  V30 1871 C 179.979 -1.87407 -3.04325 0
M  V30 1872 C 179.645 -3.37249 -2.99289 0
M  V30 1873 C 178.307 -3.7812 -2.97622 0
M  V30 1874 C 180.659 -4.32845 -2.90336 0
M  V30 1875 C 177.987 -5.12944 -2.8479 0
M  V30 1876 C 180.339 -5.6773 -2.79045 0
M  V30 1877 C 179.003 -6.07889 -2.7573 0
M  V30 1878 H 178.273 -0.417766 -0.612007 0
M  V30 1879 H 180.92 -1.58286 -1.07786 0
M  V30 1880 H 179.225 -1.35805 -3.67511 0
M  V30 1881 H 180.922 -1.74408 -3.61086 0
M  V30 1882 H 177.512 -3.04748 -3.01374 0
M  V30 1883 H 181.696 -4.02239 -2.90719 0
M  V30 1884 H 176.952 -5.432 -2.80612 0
M  V30 1885 H 181.126 -6.41472 -2.71083 0
M  V30 1886 H 178.753 -7.12314 -2.65544 0
M  V30 1887 N 180.328 1.1314 -1.09713 0
M  V30 1888 C 181.553 1.88862 -0.857081 0
M  V30 1889 C 181.978 1.78729 0.586304 0
M  V30 1890 O 181.336 1.13692 1.41222 0
M  V30 1891 C 181.384 3.36325 -1.30069 0
M  V30 1892 O 180.488 4.09815 -0.461007 0
M  V30 1893 H 179.829 0.587108 -0.310162 0
M  V30 1894 H 182.359 1.43129 -1.46203 0
M  V30 1895 H 182.369 3.87157 -1.28738 0
M  V30 1896 H 181.044 3.43017 -2.35185 0
M  V30 1897 H 179.621 3.68986 -0.538888 0
M  V30 1898 N 181.806 0.884767 1.30421 0
M  V30 1899 C 182.736 0.367574 2.30589 0
M  V30 1900 C 183.717 -0.549464 1.60981 0
M  V30 1901 O 184.902 -0.46336 1.88591 0
M  V30 1902 C 182.032 -0.418944 3.44764 0
M  V30 1903 C 180.986 0.406316 4.26067 0
M  V30 1904 C 180.312 -0.506793 5.32293 0
M  V30 1905 C 181.612 1.64832 4.95608 0
M  V30 1906 H 183.306 1.20462 2.74097 0
M  V30 1907 H 180.852 0.580695 1.31772 0
M  V30 1908 H 182.805 -0.791395 4.13902 0
M  V30 1909 H 181.529 -1.28964 3.0006 0
M  V30 1910 H 180.188 0.760903 3.58617 0
M  V30 1911 H 179.836 -1.37519 4.83836 0
M  V30 1912 H 179.536 0.0415828 5.87585 0
M  V30 1913 H 181.06 -0.875764 6.04287 0
M  V30 1914 H 182.474 1.34646 5.57264 0
M  V30 1915 H 180.871 2.13688 5.60765 0
M  V30 1916 H 181.941 2.39284 4.21748 0
M  V30 1917 N 183.284 -1.43765 0.645699 0
M  V30 1918 C 184.53 -2.02197 0.156271 0
M  V30 1919 C 184.863 -1.50776 -1.22393 0
M  V30 1920 O 184.138 -0.697771 -1.81553 0
M  V30 1921 C 184.421 -3.59749 0.158872 0
M  V30 1922 C 184.274 -4.21419 1.57245 0
M  V30 1923 C 185.593 -4.37149 -0.50879 0
M  V30 1924 H 182.712 -0.734694 0.0582602 0
M  V30 1925 H 185.354 -1.71157 0.824951 0
M  V30 1926 H 183.504 -3.86325 -0.410525 0
M  V30 1927 H 185.176 -4.059 2.19186 0
M  V30 1928 H 183.419 -3.78356 2.122 0
M  V30 1929 H 184.09 -5.30482 1.52619 0
M  V30 1930 H 186.566 -4.16093 -0.024412 0
M  V30 1931 H 185.442 -5.4683 -0.476213 0
M  V30 1932 H 185.703 -4.12839 -1.58165 0
M  V30 1933 N 184.763 -0.387143 -1.52771 0
M  V30 1934 C 185.991 0.195869 -2.05971 0
M  V30 1935 C 186.406 1.40691 -1.25903 0
M  V30 1936 O 185.763 1.79931 -0.305134 0
M  V30 1937 C 185.814 0.56812 -3.57008 0
M  V30 1938 O 185.535 -0.594803 -4.34043 0
M  V30 1939 C 187.036 1.20723 -4.26545 0
M  V30 1940 H 184.256 0.0300578 -0.670326 0
M  V30 1941 H 186.8 -0.551749 -1.96916 0
M  V30 1942 H 184.955 1.26564 -3.66143 0
M  V30 1943 H 185.369 -0.289322 -5.23701 0
M  V30 1944 H 186.843 1.41807 -5.33474 0
M  V30 1945 H 187.32 2.17395 -3.81623 0
M  V30 1946 H 187.926 0.550535 -4.21722 0
M  V30 1947 N 186.241 1.57166 -0.116904 0
M  V30 1948 C 187.189 2.16457 0.851418 0
M  V30 1949 C 188.183 1.11323 1.27686 0
M  V30 1950 O 189.389 1.2963 1.24884 0
M  V30 1951 H 185.764 0.69271 0.292672 0
M  V30 1952 H 187.735 2.96605 0.32685 0
M  V30 1953 C 186.484 2.77689 2.09246 0
M  V30 1954 H 185.807 3.58285 1.77402 0
M  V30 1955 H 187.247 3.22716 2.7501 0
M  V30 1956 C 185.706 1.74667 2.88085 0
M  V30 1957 O 186.236 1.19877 3.83396 0
M  V30 1958 N 184.442 1.44656 2.52038 0
M  V30 1959 H 183.989 1.89402 1.74599 0
M  V30 1960 H 183.947 0.759675 3.05084 0
M  V30 1961 N 187.719 -0.156864 1.56817 0
M  V30 1962 C 188.996 -0.899244 1.73704 0
M  V30 1963 C 189.376 -1.99771 0.682254 0
M  V30 1964 O 188.724 -2.26515 -0.300522 0
M  V30 1965 C 188.934 -1.45075 3.17418 0
M  V30 1966 C 190.282 -1.91802 3.7881 0
M  V30 1967 O 191.306 -1.54838 3.20786 0
M  V30 1968 O 190.165 -2.5994 4.80722 0
M  V30 1969 H 187.259 -0.424267 0.709878 0
M  V30 1970 H 189.805 -0.143561 1.69092 0
M  V30 1971 H 188.577 -0.660846 3.85679 0
M  V30 1972 H 188.2 -2.27021 3.26416 0
M  V30 1973 N 189.197 -1.51736 -0.425897 0
M  V30 1974 C 190.445 -1.64644 -1.17204 0
M  V30 1975 C 190.766 -0.370486 -1.91448 0
M  V30 1976 O 190.036 0.614088 -1.86026 0
M  V30 1977 H 188.616 -0.606819 -0.435638 0
M  V30 1978 H 191.278 -1.88713 -0.487177 0
M  V30 1979 H 190.374 -2.47958 -1.89534 0
M  V30 1980 N 190.675 0.682077 -1.42076 0
M  V30 1981 C 191.903 1.47057 -1.4554 0
M  V30 1982 C 192.318 1.8869 -0.0645779 0
M  V30 1983 O 191.675 1.57666 0.919115 0
M  V30 1984 C 191.726 2.72442 -2.37609 0
M  V30 1985 O 191.447 2.32559 -3.71279 0
M  V30 1986 C 192.948 3.66069 -2.50017 0
M  V30 1987 H 190.168 0.452737 -0.495248 0
M  V30 1988 H 192.712 0.838695 -1.8651 0
M  V30 1989 H 190.867 3.31835 -1.9991 0
M  V30 1990 H 191.281 3.13475 -4.20516 0
M  V30 1991 H 192.755 4.50792 -3.18576 0
M  V30 1992 H 193.232 4.11476 -1.53572 0
M  V30 1993 H 193.838 3.12572 -2.88407 0
M  V30 1994 N 192.153 1.28127 0.917671 0
M  V30 1995 C 193.101 1.11569 2.04096 0
M  V30 1996 C 194.095 0.0360242 1.69362 0
M  V30 1997 O 195.301 0.194501 1.78946 0
M  V30 1998 H 191.676 0.344097 0.668656 0
M  V30 1999 H 193.647 2.06711 2.15205 0
M  V30 2000 C 192.396 0.790197 3.38602 0
M  V30 2001 H 191.719 1.61293 3.6582 0
M  V30 2002 H 193.159 0.714271 4.1794 0
M  V30 2003 C 191.618 -0.505897 3.3308 0
M  V30 2004 O 192.148 -1.53736 3.71117 0
M  V30 2005 N 190.354 -0.505193 2.86175 0
M  V30 2006 H 189.901 0.334621 2.55417 0
M  V30 2007 H 189.859 -1.37243 2.82863 0
M  V30 2008 N 193.631 -1.12557 1.10312 0
M  V30 2009 C 194.879 -1.83675 0.843091 0
M  V30 2010 C 195.2 -1.84435 -0.633131 0
M  V30 2011 O 194.47 -1.30657 -1.45964 0
M  V30 2012 H 193.05 -0.680138 0.308904 0
M  V30 2013 H 195.712 -1.36301 1.39313 0
M  V30 2014 H 194.808 -2.87908 1.2048 0
M  V30 2015 N 195.109 -0.891671 -1.2995 0
M  V30 2016 C 196.339 -0.527893 -1.99742 0
M  V30 2017 C 196.747 0.88979 -1.66971 0
M  V30 2018 O 196.09 1.59766 -0.906667 0
M  V30 2019 C 196.152 -0.630804 -3.53922 0
M  V30 2020 C 195.816 -2.01401 -4.10228 0
M  V30 2021 C 196.813 -2.98422 -4.25724 0
M  V30 2022 C 194.498 -2.32121 -4.45449 0
M  V30 2023 C 196.492 -4.24293 -4.75662 0
M  V30 2024 C 194.179 -3.58237 -4.95086 0
M  V30 2025 C 195.177 -4.54137 -5.10146 0
M  V30 2026 O 194.865 -5.78014 -5.58708 0
M  V30 2027 H 194.597 -0.201953 -0.645129 0
M  V30 2028 H 197.151 -1.20076 -1.66646 0
M  V30 2029 H 195.381 0.0990616 -3.86573 0
M  V30 2030 H 197.07 -0.277338 -4.04951 0
M  V30 2031 H 197.836 -2.76001 -3.98809 0
M  V30 2032 H 193.715 -1.5824 -4.32991 0
M  V30 2033 H 197.259 -4.99153 -4.87332 0
M  V30 2034 H 193.156 -3.80491 -5.21437 0
M  V30 2035 H 193.924 -5.8049 -5.77039 0
M  V30 2036 N 196.587 1.43421 -0.653314 0
M  V30 2037 C 197.998 1.85065 -0.246537 0
M  V30 2038 C 198.349 1.54688 1.2069 0
M  V30 2039 O 197.474 0.995896 1.92122 0
M  V30 2040 C 198.069 3.35922 -0.440666 0
M  V30 2041 C 196.628 3.76297 -0.0882064 0
M  V30 2042 C 195.775 2.67147 -0.743484 0
M  V30 2043 H 198.726 1.33572 -0.856979 0
M  V30 2044 H 198.747 3.79204 0.313798 0
M  V30 2045 H 198.259 3.58 -1.49858 0
M  V30 2046 H 196.36 3.5983 0.96711 0
M  V30 2047 H 196.473 4.76338 -0.513738 0
M  V30 2048 H 194.837 2.54086 -0.176712 0
M  V30 2049 H 195.62 2.92053 -1.80443 0
M  V30 2050 N 198.065 0.39524 1.52563 0
M  V30 2051 C 199.313 -0.184678 2.01254 0
M  V30 2052 C 199.634 -1.46822 1.28329 0
M  V30 2053 O 198.904 -1.91666 0.405094 0
M  V30 2054 H 197.484 -0.0712355 0.743596 0
M  V30 2055 H 200.146 0.528293 1.87603 0
M  V30 2056 H 199.242 -0.390681 3.09645 0
M  V30 2057 N 199.544 -1.57102 0.125237 0
M  V30 2058 C 200.491 -2.15641 -0.822655 0
M  V30 2059 C 201.461 -1.08313 -1.25927 0
M  V30 2060 O 202.646 -1.36251 -1.33567 0
M  V30 2061 C 199.786 -2.76504 -2.06494 0
M  V30 2062 C 198.899 -3.98158 -1.67612 0
M  V30 2063 C 198.034 -4.47088 -2.86854 0
M  V30 2064 C 197.073 -5.6126 -2.44242 0
M  V30 2065 N 196.21 -6.04905 -3.56419 0
M  V30 2066 H 201.05 -2.96313 -0.316625 0
M  V30 2067 H 198.587 -1.46388 -0.144588 0
M  V30 2068 H 200.545 -3.09925 -2.79289 0
M  V30 2069 H 199.175 -1.98512 -2.54545 0
M  V30 2070 H 198.227 -3.70858 -0.846661 0
M  V30 2071 H 199.539 -4.80934 -1.32301 0
M  V30 2072 H 198.693 -4.82451 -3.67867 0
M  V30 2073 H 197.432 -3.63275 -3.25396 0
M  V30 2074 H 196.437 -5.25495 -1.61663 0
M  V30 2075 H 197.662 -6.46843 -2.0681 0
M  V30 2076 H 195.608 -5.24032 -3.94623 0
M  V30 2077 H 195.525 -6.82552 -3.25051 0
M  V30 2078 H 196.793 -6.44907 -4.37853 0
M  V30 2079 N 201.022 0.148545 -1.56898 0
M  V30 2080 C 202.271 0.85984 -1.82454 0
M  V30 2081 C 202.584 1.82406 -0.706229 0
M  V30 2082 O 203.79 2.57938 -0.847349 0
M  V30 2083 C 202.246 1.57967 -3.2338 0
M  V30 2084 C 201.854 0.65794 -4.43142 0
M  V30 2085 C 203.598 2.27784 -3.58211 0
M  V30 2086 C 201.505 1.3793 -5.75091 0
M  V30 2087 H 200.435 0.324834 -0.68044 0
M  V30 2088 H 203.086 0.112588 -1.83154 0
M  V30 2089 H 201.468 2.37249 -3.17063 0
M  V30 2090 H 202.642 -0.0995497 -4.60692 0
M  V30 2091 H 200.957 0.0682643 -4.16344 0
M  V30 2092 H 203.554 2.8239 -4.54048 0
M  V30 2093 H 203.897 3.04204 -2.84193 0
M  V30 2094 H 204.43 1.55421 -3.66182 0
M  V30 2095 H 201.169 0.656982 -6.52199 0
M  V30 2096 H 200.689 2.10954 -5.61479 0
M  V30 2097 H 202.368 1.92063 -6.17835 0
M  V30 2098 N 202.5 1.5196 0.417844 0
M  V30 2099 C 203.41 1.77554 1.53336 0
M  V30 2100 C 204.426 0.660655 1.6097 0
M  V30 2101 O 205.602 0.945099 1.77848 0
M  V30 2102 C 202.667 1.91291 2.89152 0
M  V30 2103 C 201.728 3.15183 2.91475 0
M  V30 2104 C 200.961 3.28256 4.20813 0
M  V30 2105 O 201.184 2.46798 5.14244 0
M  V30 2106 O 200.118 4.21356 4.29817 0
M  V30 2107 H 203.944 2.7222 1.34647 0
M  V30 2108 H 201.529 1.36698 0.602828 0
M  V30 2109 H 203.411 2.02199 3.69721 0
M  V30 2110 H 202.086 0.998129 3.07927 0
M  V30 2111 H 200.993 3.09739 2.09791 0
M  V30 2112 H 202.326 4.06414 2.77648 0
M  V30 2113 N 203.978 -0.674533 1.42435 0
M  V30 2114 C 204.911 -1.79924 1.40366 0
M  V30 2115 C 205.889 -1.60378 0.267899 0
M  V30 2116 O 207.073 -1.82847 0.458159 0
M  V30 2117 C 204.2 -3.16927 1.19478 0
M  V30 2118 C 203.246 -3.55221 2.36051 0
M  V30 2119 S 204.079 -3.5762 3.98583 0
M  V30 2120 C 205.235 -4.97315 3.80038 0
M  V30 2121 H 205.468 -1.81405 2.35541 0
M  V30 2122 H 203.001 -0.845221 1.29211 0
M  V30 2123 H 204.959 -3.96007 1.08114 0
M  V30 2124 H 203.62 -3.13031 0.258883 0
M  V30 2125 H 202.813 -4.54804 2.17185 0
M  V30 2126 H 202.415 -2.83502 2.43932 0
M  V30 2127 H 204.707 -5.85401 3.41045 0
M  V30 2128 H 205.65 -5.21228 4.79298 0
M  V30 2129 H 206.058 -4.69845 3.12899 0
M  V30 2130 N 205.456 -1.28612 -0.910864 0
M  V30 2131 C 206.681 -1.1891 -1.69927 0
M  V30 2132 C 207.106 0.248372 -1.86453 0
M  V30 2133 O 206.464 1.17961 -1.37676 0
M  V30 2134 C 206.512 -1.89578 -3.06745 0
M  V30 2135 O 205.616 -1.20521 -3.94396 0
M  V30 2136 H 204.957 -0.412632 -0.520222 0
M  V30 2137 H 207.487 -1.69985 -1.1387 0
M  V30 2138 H 207.497 -1.97597 -3.56958 0
M  V30 2139 H 206.172 -2.94136 -2.94035 0
M  V30 2140 H 204.749 -1.20684 -3.52831 0
M  V30 2141 N 206.934 1.1197 -1.10907 0
M  V30 2142 C 208.18 1.8386 -0.855773 0
M  V30 2143 C 208.513 1.84134 0.617103 0
M  V30 2144 O 207.788 1.29041 1.45529 0
M  V30 2145 C 208.071 3.31305 -1.411 0
M  V30 2146 C 207.924 3.39456 -2.9511 0
M  V30 2147 C 209.243 4.2721 -1.05736 0
M  V30 2148 H 206.362 0.667545 -0.312334 0
M  V30 2149 H 209.004 1.31331 -1.37303 0
M  V30 2150 H 207.154 3.76169 -0.97105 0
M  V30 2151 H 208.826 3.03191 -3.47668 0
M  V30 2152 H 207.069 2.79849 -3.31462 0
M  V30 2153 H 207.74 4.43209 -3.29044 0
M  V30 2154 H 210.216 3.90497 -1.43706 0
M  V30 2155 H 209.092 5.28775 -1.47269 0
M  V30 2156 H 209.353 4.42088 0.0325958 0
M  V30 2157 N 208.412 0.89855 1.29475 0
M  V30 2158 C 209.64 0.539261 1.99749 0
M  V30 2159 C 210.055 -0.875716 1.67262 0
M  V30 2160 O 209.412 -1.57786 0.917049 0
M  V30 2161 C 209.463 0.72061 3.54245 0
M  V30 2162 O 209.184 2.07989 3.8558 0
M  V30 2163 C 210.685 0.366118 4.41786 0
M  V30 2164 H 207.905 0.207047 0.638258 0
M  V30 2165 H 210.449 1.20758 1.65039 0
M  V30 2166 H 208.604 0.0994862 3.87272 0
M  V30 2167 H 209.018 2.10841 4.80257 0
M  V30 2168 H 210.492 0.543848 5.49314 0
M  V30 2169 H 210.969 -0.696763 4.33638 0
M  V30 2170 H 211.575 0.964135 4.14228 0
M  V30 2171 N 209.89 -1.43072 0.660911 0
M  V30 2172 C 210.84 -2.27948 -0.04847 0
M  V30 2173 C 211.824 -1.40325 -0.787246 0
M  V30 2174 O 213.016 -1.63893 -0.668446 0
M  V30 2175 C 210.145 -3.28143 -1.00881 0
M  V30 2176 C 209.231 -4.23252 -0.268108 0
M  V30 2177 N 209.622 -5.00656 0.719528 0
M  V30 2178 C 207.92 -4.43092 -0.508493 0
M  V30 2179 C 208.621 -5.70019 1.15988 0
M  V30 2180 N 207.597 -5.41364 0.492584 0
M  V30 2181 H 211.399 -2.85213 0.709279 0
M  V30 2182 H 208.913 -1.54869 0.488822 0
M  V30 2183 H 210.91 -3.87736 -1.53188 0
M  V30 2184 H 209.57 -2.7244 -1.76654 0
M  V30 2185 H 210.581 -5.06115 1.09855 0
M  V30 2186 H 207.258 -3.98449 -1.24679 0
M  V30 2187 H 208.648 -6.4214 1.97751 0
M  V30 2188 N 211.368 -0.403325 -1.52352 0
M  V30 2189 C 212.593 0.176499 -2.06648 0
M  V30 2190 C 213.018 1.38577 -1.27193 0
M  V30 2191 O 212.376 1.7879 -0.300637 0
M  V30 2192 C 212.424 0.511061 -3.5696 0
M  V30 2193 O 211.528 1.60294 -3.79973 0
M  V30 2194 H 210.869 0.0167337 -0.663789 0
M  V30 2195 H 213.399 -0.574848 -1.96359 0
M  V30 2196 H 213.409 0.771362 -4.00642 0
M  V30 2197 H 212.084 -0.37296 -4.14224 0
M  V30 2198 H 210.661 1.33526 -3.48174 0
M  V30 2199 N 212.846 1.57033 -0.133567 0
M  V30 2200 C 214.093 1.95686 0.520877 0
M  V30 2201 C 214.421 1.0177 1.6575 0
M  V30 2202 O 213.676 0.0443195 1.9565 0
M  V30 2203 C 213.975 3.40674 1.08057 0
M  V30 2204 C 213.641 4.50855 0.0637899 0
M  V30 2205 C 212.303 4.80716 -0.215757 0
M  V30 2206 C 214.655 5.17398 -0.62835 0
M  V30 2207 C 211.983 5.74433 -1.19348 0
M  V30 2208 C 214.335 6.12167 -1.5948 0
M  V30 2209 C 212.999 6.40414 -1.88218 0
M  V30 2210 H 212.269 0.716067 0.190602 0
M  V30 2211 H 214.916 1.9026 -0.217556 0
M  V30 2212 H 213.221 3.42865 1.89606 0
M  V30 2213 H 214.918 3.67902 1.59529 0
M  V30 2214 H 211.508 4.27605 0.291855 0
M  V30 2215 H 215.692 4.94472 -0.425562 0
M  V30 2216 H 210.948 5.94616 -1.42272 0
M  V30 2217 H 215.122 6.6281 -2.13671 0
M  V30 2218 H 212.749 7.12838 -2.64133 0
M  V30 2219 N 214.325 -0.140222 1.56975 0
M  V30 2220 C 215.602 -0.880769 1.74648 0
M  V30 2221 C 215.982 -1.99036 0.703404 0
M  V30 2222 O 215.33 -2.26821 -0.27648 0
M  V30 2223 C 215.54 -1.417 3.18939 0
M  V30 2224 C 216.888 -1.87774 3.80823 0
M  V30 2225 O 217.912 -1.51427 3.2241 0
M  V30 2226 O 216.771 -2.54827 4.83452 0
M  V30 2227 H 213.865 -0.416713 0.714338 0
M  V30 2228 H 216.411 -0.125618 1.69234 0
M  V30 2229 H 215.183 -0.619902 3.86359 0
M  V30 2230 H 214.806 -2.23546 3.28805 0
M  V30 2231 N 215.803 -1.52179 -0.40978 0
M  V30 2232 C 217.08 -1.56769 -1.16974 0
M  V30 2233 C 217.46 -0.348322 -2.08206 0
M  V30 2234 O 216.808 0.664862 -2.18613 0
M  V30 2235 C 217.018 -2.89603 -1.9476 0
M  V30 2236 C 218.366 -3.42579 -2.50849 0
M  V30 2237 O 219.39 -2.91338 -2.04941 0
M  V30 2238 O 218.249 -4.32054 -3.34652 0
M  V30 2239 H 215.343 -0.631439 -0.534054 0
M  V30 2240 H 217.889 -1.64507 -0.416613 0
M  V30 2241 H 216.661 -3.698 -1.27921 0
M  V30 2242 H 216.284 -2.85155 -2.77079 0
M  V30 2243 N 217.281 0.66697 -1.42791 0
M  V30 2244 C 218.511 1.45294 -1.46878 0
M  V30 2245 C 218.919 1.89027 -0.0809861 0
M  V30 2246 O 218.262 1.59219 0.916246 0
M  V30 2247 C 218.324 2.72908 -2.34012 0
M  V30 2248 C 217.988 2.51203 -3.81767 0
M  V30 2249 C 218.985 2.15302 -4.73224 0
M  V30 2250 C 216.67 2.65954 -4.26115 0
M  V30 2251 C 218.664 1.94431 -6.07022 0
M  V30 2252 C 216.351 2.44699 -5.59969 0
M  V30 2253 C 217.349 2.08992 -6.5024 0
M  V30 2254 O 217.037 1.87948 -7.81621 0
M  V30 2255 H 216.769 0.453306 -0.501487 0
M  V30 2256 H 219.323 0.826232 -1.88049 0
M  V30 2257 H 217.553 3.38089 -1.87703 0
M  V30 2258 H 219.242 3.34816 -2.29462 0
M  V30 2259 H 220.008 2.03495 -4.40244 0
M  V30 2260 H 215.887 2.92724 -3.56137 0
M  V30 2261 H 219.431 1.66484 -6.77443 0
M  V30 2262 H 215.328 2.56105 -5.9252 0
M  V30 2263 H 216.096 2.02483 -7.93059 0
M  V30 2264 N 218.759 1.29093 0.90403 0
M  V30 2265 C 219.707 1.13727 2.02901 0
M  V30 2266 C 220.701 0.0539853 1.69314 0
M  V30 2267 O 221.907 0.213469 1.7873 0
M  V30 2268 H 218.282 0.35117 0.664969 0
M  V30 2269 H 220.253 2.08982 2.13001 0
M  V30 2270 C 219.002 0.826066 3.37745 0
M  V30 2271 H 218.325 1.65164 3.64089 0
M  V30 2272 H 219.765 0.758559 4.17159 0
M  V30 2273 C 218.224 -0.470541 3.33598 0
M  V30 2274 O 218.754 -1.49792 3.72727 0
M  V30 2275 N 216.96 -0.474812 2.86695 0
M  V30 2276 H 216.507 0.361692 2.55048 0
M  V30 2277 H 216.465 -1.34236 2.84303 0
M  V30 2278 N 220.237 -1.11381 1.11499 0
M  V30 2279 C 221.184 -2.17439 0.773887 0
M  V30 2280 C 222.154 -1.64132 -0.254899 0
M  V30 2281 O 223.339 -1.90345 -0.13168 0
M  V30 2282 C 220.479 -3.44373 0.223917 0
M  V30 2283 C 219.592 -4.1168 1.30934 0
M  V30 2284 C 218.727 -5.263 0.71984 0
M  V30 2285 C 217.766 -5.85493 1.78507 0
M  V30 2286 N 216.903 -6.91507 1.21502 0
M  V30 2287 H 221.743 -2.45962 1.68246 0
M  V30 2288 H 219.28 -1.20744 0.840191 0
M  V30 2289 H 221.238 -4.17047 -0.112921 0
M  V30 2290 H 219.868 -3.16232 -0.647851 0
M  V30 2291 H 218.92 -3.37073 1.76312 0
M  V30 2292 H 220.232 -4.51729 2.11524 0
M  V30 2293 H 219.386 -6.05785 0.333094 0
M  V30 2294 H 218.125 -4.87559 -0.117377 0
M  V30 2295 H 217.13 -5.04686 2.18111 0
M  V30 2296 H 218.355 -6.26301 2.62533 0
M  V30 2297 H 216.301 -6.54783 0.399455 0
M  V30 2298 H 216.218 -7.30214 1.95763 0
M  V30 2299 H 217.486 -7.74795 0.855181 0
M  V30 2300 N 221.715 -0.905404 -1.28997 0
M  V30 2301 C 222.961 -0.544465 -1.95977 0
M  V30 2302 C 223.316 0.90041 -1.70031 0
M  V30 2303 O 222.609 1.63064 -1.00601 0
M  V30 2304 C 222.803 -0.779906 -3.48787 0
M  V30 2305 C 222.632 -2.24612 -3.89589 0
M  V30 2306 C 221.402 -2.89464 -4.14172 0
M  V30 2307 C 223.6 -3.22182 -4.00878 0
M  V30 2308 N 221.582 -4.26469 -4.41585 0
M  V30 2309 C 222.953 -4.44323 -4.32409 0
M  V30 2310 C 225.008 -3.17694 -3.83373 0
M  V30 2311 C 223.711 -5.62546 -4.48258 0
M  V30 2312 C 225.737 -4.35208 -4.00435 0
M  V30 2313 C 225.099 -5.56121 -4.3233 0
M  V30 2314 H 221.198 -0.248948 -0.741316 0
M  V30 2315 H 223.782 -1.1674 -1.5582 0
M  V30 2316 H 221.953 -0.186308 -3.87953 0
M  V30 2317 H 223.685 -0.383833 -4.02876 0
M  V30 2318 H 220.44 -2.40232 -4.08149 0
M  V30 2319 H 220.864 -4.97283 -4.5939 0
M  V30 2320 H 225.506 -2.25297 -3.57773 0
M  V30 2321 H 223.224 -6.55429 -4.72692 0
M  V30 2322 H 226.81 -4.33228 -3.88336 0
M  V30 2323 H 225.69 -6.45537 -4.45255 0
M  V30 2324 N 223.193 1.4272 -0.668489 0
M  V30 2325 C 224.14 2.30796 0.0137489 0
M  V30 2326 C 225.11 1.4561 0.799177 0
M  V30 2327 O 226.295 1.74453 0.772702 0
M  V30 2328 C 223.435 3.31377 0.963507 0
M  V30 2329 C 222.548 4.31655 0.172569 0
M  V30 2330 C 221.683 5.19312 1.1175 0
M  V30 2331 C 220.722 6.11274 0.317886 0
M  V30 2332 N 219.859 6.91504 1.2152 0
M  V30 2333 H 224.699 2.88585 -0.743161 0
M  V30 2334 H 222.236 1.42154 -0.378226 0
M  V30 2335 H 224.194 3.88214 1.52792 0
M  V30 2336 H 222.824 2.75202 1.68712 0
M  V30 2337 H 221.876 3.76988 -0.508374 0
M  V30 2338 H 223.188 4.96779 -0.448527 0
M  V30 2339 H 222.342 5.80851 1.75206 0
M  V30 2340 H 221.081 4.5435 1.77249 0
M  V30 2341 H 220.086 5.48809 -0.329918 0
M  V30 2342 H 221.311 6.78283 -0.332917 0
M  V30 2343 H 219.257 6.29176 1.85671 0
M  V30 2344 H 219.174 7.53209 0.649036 0
M  V30 2345 H 220.442 7.57535 1.83742 0
M  V30 2346 N 224.671 0.411399 1.52136 0
M  V30 2347 C 225.92 -0.165009 2.01024 0
M  V30 2348 C 226.233 -1.4603 1.30133 0
M  V30 2349 O 227.439 -2.1181 1.69849 0
M  V30 2350 C 225.895 -0.344618 3.58246 0
M  V30 2351 C 225.503 0.938716 4.38055 0
M  V30 2352 C 227.247 -0.876195 4.15359 0
M  V30 2353 C 225.154 0.726172 5.86925 0
M  V30 2354 H 224.084 -0.0654407 0.751155 0
M  V30 2355 H 226.735 0.537192 1.75461 0
M  V30 2356 H 225.117 -1.10921 3.80148 0
M  V30 2357 H 226.291 1.70963 4.27912 0
M  V30 2358 H 224.606 1.39688 3.92271 0
M  V30 2359 H 227.203 -1.05128 5.24263 0
M  V30 2360 H 227.546 -1.85152 3.7286 0
M  V30 2361 H 228.079 -0.170607 3.97434 0
M  V30 2362 H 224.818 1.67312 6.33788 0
M  V30 2363 H 224.338 -0.00540283 5.998 0
M  V30 2364 H 226.017 0.369231 6.45946 0
M  V30 2365 N 226.149 -1.5696 0.141893 0
M  V30 2366 C 227.099 -2.13074 -0.811383 0
M  V30 2367 C 228.083 -1.05726 -1.21288 0
M  V30 2368 O 229.275 -1.31914 -1.18015 0
M  V30 2369 C 226.404 -2.75186 -2.0525 0
M  V30 2370 C 225.49 -3.8965 -1.67432 0
M  V30 2371 N 225.881 -4.95733 -1.0041 0
M  V30 2372 C 224.179 -4.00262 -1.96739 0
M  V30 2373 C 224.88 -5.75858 -0.822345 0
M  V30 2374 N 223.856 -5.26452 -1.3546 0
M  V30 2375 H 227.658 -2.92465 -0.290031 0
M  V30 2376 H 225.172 -1.6229 -0.0598218 0
M  V30 2377 H 227.169 -3.13745 -2.74535 0
M  V30 2378 H 225.829 -1.97266 -2.57907 0
M  V30 2379 H 226.84 -5.13607 -0.665441 0
M  V30 2380 H 223.517 -3.33412 -2.51282 0
M  V30 2381 H 224.907 -6.71254 -0.294496 0
M  V30 2382 N 227.627 0.131896 -1.57047 0
M  V30 2383 C 228.857 0.855219 -1.88068 0
M  V30 2384 C 229.265 1.74557 -0.729817 0
M  V30 2385 O 228.608 1.81083 0.308962 0
M  V30 2386 C 228.67 1.75119 -3.13964 0
M  V30 2387 C 228.334 1.03646 -4.45091 0
M  V30 2388 C 229.331 0.383276 -5.18485 0
M  V30 2389 C 227.016 1.02148 -4.91804 0
M  V30 2390 C 229.01 -0.275347 -6.36805 0
M  V30 2391 C 226.697 0.359047 -6.10044 0
M  V30 2392 C 227.695 -0.288222 -6.82392 0
M  V30 2393 O 227.383 -0.94011 -7.98384 0
M  V30 2394 H 227.115 0.251864 -0.627328 0
M  V30 2395 H 229.669 0.124782 -2.05021 0
M  V30 2396 H 227.899 2.52295 -2.9306 0
M  V30 2397 H 229.588 2.3478 -3.31109 0
M  V30 2398 H 230.354 0.386562 -4.83457 0
M  V30 2399 H 226.233 1.5147 -4.35405 0
M  V30 2400 H 229.777 -0.781148 -6.93213 0
M  V30 2401 H 225.674 0.35348 -6.44531 0
M  V30 2402 H 226.442 -0.84329 -8.14144 0
M  V30 2403 N 229.106 1.52395 0.401703 0
M  V30 2404 C 230.016 1.7917 1.51444 0
M  V30 2405 C 231.032 0.677691 1.6026 0
M  V30 2406 O 232.208 0.963909 1.76835 0
M  V30 2407 C 229.273 1.94347 2.87107 0
M  V30 2408 C 228.334 3.18257 2.88116 0
M  V30 2409 C 227.567 3.32701 4.17308 0
M  V30 2410 O 227.79 2.52238 5.11598 0
M  V30 2411 O 226.724 4.25891 4.25324 0
M  V30 2412 H 230.55 2.73633 1.31752 0
M  V30 2413 H 228.135 1.3733 0.588296 0
M  V30 2414 H 230.017 2.06109 3.67555 0
M  V30 2415 H 228.692 1.03073 3.06851 0
M  V30 2416 H 227.599 3.11947 2.06494 0
M  V30 2417 H 228.932 4.09336 2.73322 0
M  V30 2418 N 230.584 -0.659388 1.43143 0
M  V30 2419 C 231.547 -1.75432 1.47501 0
M  V30 2420 C 232.547 -1.56707 0.360512 0
M  V30 2421 O 233.737 -1.62717 0.622002 0
M  V30 2422 C 230.869 -3.14239 1.32162 0
M  V30 2423 H 232.062 -1.7295 2.45006 0
M  V30 2424 H 229.615 -0.870469 1.29817 0
M  V30 2425 H 230.35 -3.22336 0.356401 0
M  V30 2426 H 230.135 -3.29235 2.12948 0
M  V30 2427 H 231.625 -3.94094 1.3813 0
M  V30 2428 N 232.062 -1.29571 -0.897171 0
M  V30 2429 C 233.311 -1.1706 -1.64256 0
M  V30 2430 C 233.624 0.276476 -1.93636 0
M  V30 2431 O 234.83 0.52294 -2.66416 0
M  V30 2432 C 233.286 -2.0475 -2.95982 0
M  V30 2433 C 232.894 -3.54295 -2.74187 0
M  V30 2434 C 234.638 -2.0097 -3.73914 0
M  V30 2435 C 232.545 -4.34081 -4.01656 0
M  V30 2436 H 231.475 -0.43452 -0.616205 0
M  V30 2437 H 234.126 -1.54229 -0.994268 0
M  V30 2438 H 232.508 -1.60452 -3.62038 0
M  V30 2439 H 233.682 -4.06662 -2.1671 0
M  V30 2440 H 231.997 -3.59773 -2.09648 0
M  V30 2441 H 234.594 -2.57838 -4.68427 0
M  V30 2442 H 234.937 -0.990273 -4.0435 0
M  V30 2443 H 235.47 -2.43325 -3.14703 0
M  V30 2444 H 232.209 -5.36671 -3.76384 0
M  V30 2445 H 231.729 -3.86483 -4.58684 0
M  V30 2446 H 233.408 -4.44877 -4.69781 0
M  V30 2447 N 233.54 1.10788 -1.12088 0
M  V30 2448 C 234.765 1.87002 -0.896949 0
M  V30 2449 C 235.19 1.79933 0.548261 0
M  V30 2450 O 234.548 1.16662 1.38779 0
M  V30 2451 C 234.596 3.3349 -1.37174 0
M  V30 2452 O 233.7 4.08745 -0.547831 0
M  V30 2453 H 233.041 0.580397 -0.322545 0
M  V30 2454 H 235.571 1.39996 -1.49206 0
M  V30 2455 H 235.581 3.84339 -1.36922 0
M  V30 2456 H 234.256 3.37951 -2.42408 0
M  V30 2457 H 232.833 3.6776 -0.617034 0
M  V30 2458 N 235.018 0.912232 1.28515 0
M  V30 2459 C 236.295 0.463597 1.90027 0
M  V30 2460 C 236.675 -1.05753 1.82701 0
M  V30 2461 O 236.023 -1.90492 1.26194 0
M  V30 2462 C 236.233 0.992253 3.34597 0
M  V30 2463 C 237.581 1.04344 4.11579 0
M  V30 2464 O 238.605 0.94079 3.43551 0
M  V30 2465 O 237.464 1.1995 5.33174 0
M  V30 2466 H 234.558 0.146666 0.813891 0
M  V30 2467 H 237.104 1.00292 1.36893 0
M  V30 2468 H 235.876 2.03623 3.34146 0
M  V30 2469 H 235.499 0.433672 3.95228 0
M  V30 2470 N 236.496 -1.42363 0.676048 0
M  V30 2471 C 237.443 -2.308 -0.00150904 0
M  V30 2472 C 238.413 -1.46032 -0.791444 0
M  V30 2473 O 239.598 -1.74861 -0.76344 0
M  V30 2474 C 236.738 -3.31883 -0.945919 0
M  V30 2475 C 235.851 -4.31741 -0.149675 0
M  V30 2476 C 234.986 -5.19898 -1.08995 0
M  V30 2477 C 234.025 -6.11434 -0.285465 0
M  V30 2478 N 233.162 -6.92138 -1.17851 0
M  V30 2479 H 238.002 -2.88187 0.758455 0
M  V30 2480 H 235.539 -1.41952 0.38576 0
M  V30 2481 H 237.497 -3.89019 -1.50731 0
M  V30 2482 H 236.127 -2.76093 -1.6725 0
M  V30 2483 H 235.179 -3.76713 0.528359 0
M  V30 2484 H 236.491 -4.96534 0.474866 0
M  V30 2485 H 235.645 -5.81772 -1.72123 0
M  V30 2486 H 234.384 -4.55284 -1.74837 0
M  V30 2487 H 233.389 -5.48627 0.359018 0
M  V30 2488 H 234.614 -6.78097 0.368883 0
M  V30 2489 H 232.56 -6.30152 -1.82332 0
M  V30 2490 H 232.477 -7.53542 -0.609082 0
M  V30 2491 H 233.745 -7.58499 -1.79722 0
M  V30 2492 N 237.974 -0.419461 -1.51915 0
M  V30 2493 C 239.251 0.211999 -1.94448 0
M  V30 2494 C 239.631 1.61703 -1.35703 0
M  V30 2495 O 238.979 2.22102 -0.536931 0
M  V30 2496 C 239.189 0.207872 -3.4838 0
M  V30 2497 C 240.537 0.422192 -4.22496 0
M  V30 2498 O 241.561 0.286778 -3.55044 0
M  V30 2499 O 240.42 0.690009 -5.42126 0
M  V30 2500 H 237.514 0.139586 -0.815135 0
M  V30 2501 H 240.06 -0.476151 -1.62883 0
M  V30 2502 H 238.832 -0.775102 -3.83546 0
M  V30 2503 H 238.455 0.939688 -3.86336 0
M  V30 2504 N 239.452 1.56882 -0.150215 0
M  V30 2505 C 240.68 2.00593 0.506948 0
M  V30 2506 C 241.095 1.03033 1.58208 0
M  V30 2507 O 240.452 0.0278396 1.82479 0
M  V30 2508 C 240.503 3.44209 1.10465 0
M  V30 2509 O 240.224 4.3804 0.0724636 0
M  V30 2510 C 241.725 4.03214 1.84211 0
M  V30 2511 H 238.945 0.65795 0.13169 0
M  V30 2512 H 241.489 2.03018 -0.245743 0
M  V30 2513 H 239.644 3.42625 1.80795 0
M  V30 2514 H 240.058 5.22007 0.510793 0
M  V30 2515 H 241.532 5.0569 2.21318 0
M  V30 2516 H 242.009 3.44107 2.72923 0
M  V30 2517 H 242.615 4.08437 1.18572 0
M  V30 2518 N 240.93 -0.123565 1.57115 0
M  V30 2519 C 242.176 -0.833386 1.84885 0
M  V30 2520 C 242.509 -1.79742 0.735292 0
M  V30 2521 O 241.784 -1.92764 -0.25925 0
M  V30 2522 C 242.067 -1.5873 3.23228 0
M  V30 2523 C 241.92 -0.643183 4.45178 0
M  V30 2524 C 243.239 -2.54453 3.59085 0
M  V30 2525 H 240.358 -0.301518 0.6725 0
M  V30 2526 H 243 -0.097778 1.89748 0
M  V30 2527 H 241.15 -2.21438 3.19214 0
M  V30 2528 H 242.822 -0.0253015 4.61293 0
M  V30 2529 H 241.065 0.0456139 4.33776 0
M  V30 2530 H 241.736 -1.20724 5.38637 0
M  V30 2531 H 244.212 -2.01853 3.63861 0
M  V30 2532 H 243.088 -3.04238 4.5687 0
M  V30 2533 H 243.349 -3.36906 2.86264 0
M  V30 2534 N 242.408 -1.52605 -0.393616 0
M  V30 2535 C 243.655 -1.67424 -1.1391 0
M  V30 2536 C 243.983 -0.411859 -1.90089 0
M  V30 2537 O 243.238 0.605626 -1.86093 0
M  V30 2538 C 243.537 -2.85721 -2.14705 0
M  V30 2539 C 243.203 -4.23342 -1.55218 0
M  V30 2540 C 241.865 -4.60771 -1.3872 0
M  V30 2541 C 244.217 -5.09041 -1.11924 0
M  V30 2542 C 241.545 -5.81563 -0.774689 0
M  V30 2543 C 243.897 -6.30452 -0.520853 0
M  V30 2544 C 242.561 -6.66617 -0.343134 0
M  V30 2545 H 241.831 -0.612648 -0.416826 0
M  V30 2546 H 244.478 -1.8674 -0.424315 0
M  V30 2547 H 242.783 -2.60803 -2.92385 0
M  V30 2548 H 244.48 -2.94382 -2.72288 0
M  V30 2549 H 241.07 -3.93855 -1.69045 0
M  V30 2550 H 245.254 -4.80695 -1.23473 0
M  V30 2551 H 240.51 -6.08196 -0.625154 0
M  V30 2552 H 244.684 -6.96175 -0.177065 0
M  V30 2553 H 242.311 -7.60083 0.133571 0
M  V30 2554 N 243.887 0.651787 -1.4349 0
M  V30 2555 C 244.835 1.78586 -1.49029 0
M  V30 2556 C 245.829 1.65448 -0.363767 0
M  V30 2557 O 247.035 1.71777 -0.537821 0
M  V30 2558 H 243.41 0.589236 -0.467231 0
M  V30 2559 H 245.381 1.71035 -2.44519 0
M  V30 2560 C 244.13 3.16851 -1.43181 0
M  V30 2561 H 243.453 3.27598 -2.29171 0
M  V30 2562 H 244.893 3.96156 -1.51118 0
M  V30 2563 C 243.352 3.36568 -0.149616 0
M  V30 2564 O 243.882 3.93885 0.788509 0
M  V30 2565 N 242.088 2.90539 -0.0593484 0
M  V30 2566 H 241.635 2.4408 -0.823575 0
M  V30 2567 H 241.593 3.04108 0.797853 0
M  V30 2568 N 245.365 1.30045 0.890287 0
M  V30 2569 C 246.776 1.16738 1.45702 0
M  V30 2570 C 247.127 -0.233939 1.948 0
M  V30 2571 O 246.252 -1.13021 1.84541 0
M  V30 2572 C 246.847 2.11313 2.64825 0
M  V30 2573 C 245.406 2.02001 3.17604 0
M  V30 2574 C 244.553 2.01699 1.90296 0
M  V30 2575 H 247.504 1.42392 0.700726 0
M  V30 2576 H 247.525 1.69086 3.40867 0
M  V30 2577 H 247.037 3.13294 2.2906 0
M  V30 2578 H 245.138 1.03142 3.5804 0
M  V30 2579 H 245.251 2.90128 3.81264 0
M  V30 2580 H 243.615 1.46427 2.08402 0
M  V30 2581 H 244.398 3.05402 1.56795 0
M  V30 2582 N 246.843 -1.10192 1.12674 0
M  V30 2583 C 248.071 -1.85983 0.906527 0
M  V30 2584 C 248.486 -1.80783 -0.544333 0
M  V30 2585 O 247.843 -1.19834 -1.37645 0
M  V30 2586 C 247.894 -3.34281 1.37618 0
M  V30 2587 O 247.615 -3.39401 2.77017 0
M  V30 2588 C 249.116 -4.26938 1.19325 0
M  V30 2589 H 246.336 -0.587716 0.323775 0
M  V30 2590 H 248.88 -1.39284 1.49734 0
M  V30 2591 H 247.035 -3.78436 0.828539 0
M  V30 2592 H 247.449 -4.31838 2.97684 0
M  V30 2593 H 248.923 -5.29181 1.57071 0
M  V30 2594 H 249.4 -4.38995 0.134097 0
M  V30 2595 H 250.006 -3.8859 1.72852 0
M  V30 2596 N 248.321 -0.919034 -1.28029 0
M  V30 2597 C 249.569 -0.553838 -1.94363 0
M  V30 2598 C 249.89 0.906357 -1.72656 0
M  V30 2599 O 249.16 1.64143 -1.0693 0
M  V30 2600 H 247.74 -0.201834 -0.719216 0
M  V30 2601 H 250.402 -1.16954 -1.55909 0
M  V30 2602 H 249.498 -0.752758 -3.02886 0
M  V30 2603 N 249.799 1.42003 -0.683588 0
M  V30 2604 C 250.749 2.27997 0.0121992 0
M  V30 2605 C 251.733 1.4156 0.764822 0
M  V30 2606 O 252.925 1.64935 0.642287 0
M  V30 2607 C 250.054 3.29706 0.956482 0
M  V30 2608 C 249.14 4.23625 0.200739 0
M  V30 2609 N 249.531 4.99448 -0.799087 0
M  V30 2610 C 247.829 4.43845 0.437937 0
M  V30 2611 C 248.53 5.68102 -1.25041 0
M  V30 2612 N 247.506 5.40511 -0.578648 0
M  V30 2613 H 251.308 2.84048 -0.754564 0
M  V30 2614 H 248.822 1.54071 -0.513398 0
M  V30 2615 H 250.819 3.90124 1.47 0
M  V30 2616 H 249.479 2.75216 1.72297 0
M  V30 2617 H 250.49 5.04303 -1.17893 0
M  V30 2618 H 247.167 4.00382 1.18325 0
M  V30 2619 H 248.557 6.38913 -2.07942 0
M  V30 2620 N 251.277 0.427512 1.51691 0
M  V30 2621 C 252.523 -0.142439 2.02299 0
M  V30 2622 C 252.856 -1.43214 1.31162 0
M  V30 2623 O 252.131 -1.89833 0.423511 0
M  V30 2624 C 252.414 -0.371301 3.58181 0
M  V30 2625 C 252.267 0.936358 4.39946 0
M  V30 2626 C 253.586 -1.14542 4.24933 0
M  V30 2627 H 250.705 -0.0502937 0.735282 0
M  V30 2628 H 253.347 0.564584 1.81418 0
M  V30 2629 H 251.497 -0.973559 3.76104 0
M  V30 2630 H 253.169 1.57184 4.33694 0
M  V30 2631 H 251.412 1.5432 4.05423 0
M  V30 2632 H 252.083 0.730388 5.47147 0
M  V30 2633 H 254.559 -0.635362 4.11221 0
M  V30 2634 H 253.435 -1.27431 5.33903 0
M  V30 2635 H 253.696 -2.17093 3.85127 0
M  V30 2636 N 252.755 -1.56801 0.158532 0
M  V30 2637 C 253.985 -2.00568 -0.495583 0
M  V30 2638 C 254.393 -1.03774 -1.58201 0
M  V30 2639 O 253.736 -0.0285797 -1.83678 0
M  V30 2640 C 253.798 -3.40768 -1.14532 0
M  V30 2641 C 253.462 -4.56553 -0.202101 0
M  V30 2642 C 254.459 -5.16714 0.574675 0
M  V30 2643 C 252.144 -5.02197 -0.101648 0
M  V30 2644 C 254.138 -6.20939 1.43924 0
M  V30 2645 C 251.825 -6.06274 0.766508 0
M  V30 2646 C 252.823 -6.65515 1.53555 0
M  V30 2647 O 252.511 -7.67575 2.38922 0
M  V30 2648 H 252.243 -0.662893 -0.13247 0
M  V30 2649 H 254.797 -2.03829 0.253559 0
M  V30 2650 H 253.027 -3.34381 -1.94233 0
M  V30 2651 H 254.716 -3.6857 -1.70033 0
M  V30 2652 H 255.482 -4.82341 0.507167 0
M  V30 2653 H 251.361 -4.55807 -0.689994 0
M  V30 2654 H 254.905 -6.67107 2.03996 0
M  V30 2655 H 250.802 -6.40073 0.835266 0
M  V30 2656 H 251.57 -7.84844 2.32296 0
M  V30 2657 N 254.233 0.115231 -1.57178 0
M  V30 2658 C 255.48 0.822351 -1.8505 0
M  V30 2659 C 255.808 1.79701 -0.744168 0
M  V30 2660 O 255.063 1.93909 0.26414 0
M  V30 2661 C 255.362 1.60324 -3.19423 0
M  V30 2662 C 255.028 0.772536 -4.44233 0
M  V30 2663 C 253.69 0.543468 -4.78121 0
M  V30 2664 C 256.042 0.193746 -5.2084 0
M  V30 2665 C 253.37 -0.274583 -5.86057 0
M  V30 2666 C 255.722 -0.611517 -6.29637 0
M  V30 2667 C 254.386 -0.850867 -6.62055 0
M  V30 2668 H 253.656 0.30092 -0.677147 0
M  V30 2669 H 256.303 0.0845802 -1.91313 0
M  V30 2670 H 254.608 2.41203 -3.08753 0
M  V30 2671 H 256.305 2.1544 -3.38211 0
M  V30 2672 H 252.895 0.96117 -4.17683 0
M  V30 2673 H 257.079 0.357926 -4.95008 0
M  V30 2674 H 252.335 -0.469206 -6.09597 0
M  V30 2675 H 256.509 -1.06697 -6.88178 0
M  V30 2676 H 254.136 -1.48657 -7.45523 0
M  V30 2677 N 255.711 1.52812 0.385517 0
M  V30 2678 C 256.659 1.78482 1.49155 0
M  V30 2679 C 257.653 0.652914 1.56312 0
M  V30 2680 O 258.859 0.835464 1.59436 0
M  V30 2681 H 255.234 0.5648 0.496493 0
M  V30 2682 H 257.205 2.71095 1.24699 0
M  V30 2683 C 255.954 1.97378 2.86247 0
M  V30 2684 H 255.277 2.83907 2.81491 0
M  V30 2685 H 256.717 2.19327 3.62866 0
M  V30 2686 C 255.176 0.74728 3.28508 0
M  V30 2687 O 255.706 -0.0736232 4.01633 0
M  V30 2688 N 253.912 0.576396 2.84826 0
M  V30 2689 H 253.459 1.24555 2.25486 0
M  V30 2690 H 253.417 -0.24288 3.1346 0
M  V30 2691 N 257.189 -0.644168 1.43834 0
M  V30 2692 C 258.119 -1.76814 1.52509 0
M  V30 2693 C 259.1 -1.65823 0.379052 0
M  V30 2694 O 260.285 -1.84781 0.597466 0
M  V30 2695 C 257.415 -3.15288 1.4564 0
M  V30 2696 C 256.369 -3.41053 2.58586 0
M  V30 2697 C 255.695 -4.79421 2.36769 0
M  V30 2698 C 256.995 -3.34902 4.00797 0
M  V30 2699 H 258.689 -1.69812 2.46586 0
M  V30 2700 H 256.235 -0.815542 1.1868 0
M  V30 2701 H 258.188 -3.93681 1.50311 0
M  V30 2702 H 256.912 -3.23043 0.480725 0
M  V30 2703 H 255.571 -2.65035 2.53282 0
M  V30 2704 H 255.219 -4.83863 1.37424 0
M  V30 2705 H 254.919 -4.9762 3.12487 0
M  V30 2706 H 256.443 -5.6006 2.43238 0
M  V30 2707 H 257.857 -4.03218 4.07539 0
M  V30 2708 H 256.254 -3.64637 4.76613 0
M  V30 2709 H 257.324 -2.32928 4.25291 0
M  V30 2710 N 258.668 -1.30515 -0.883378 0
M  V30 2711 C 259.616 -1.16941 -2.01066 0
M  V30 2712 C 260.61 -0.0809148 -1.69207 0
M  V30 2713 O 261.816 -0.241877 -1.78367 0
M  V30 2714 H 258.191 -0.361705 -0.659298 0
M  V30 2715 H 260.162 -2.12344 -2.09649 0
M  V30 2716 C 258.911 -0.879694 -3.36388 0
M  V30 2717 H 258.234 -1.70936 -3.61415 0
M  V30 2718 H 259.674 -0.82483 -4.159 0
M  V30 2719 C 258.133 0.417409 -3.34304 0
M  V30 2720 O 258.663 1.43843 -3.75063 0
M  V30 2721 N 256.869 0.429141 -2.87414 0
M  V30 2722 H 256.416 -0.402222 -2.5444 0
M  V30 2723 H 256.374 1.29696 -2.86403 0
M  V30 2724 N 260.146 1.09593 -1.13257 0
M  V30 2725 C 261.394 1.81375 -0.891492 0
M  V30 2726 C 261.715 1.86049 0.584009 0
M  V30 2727 O 260.985 1.34481 1.42449 0
M  V30 2728 H 259.565 0.671708 -0.326828 0
M  V30 2729 H 262.227 1.3256 -1.42877 0
M  V30 2730 H 261.323 2.84612 -1.28071 0
M  V30 2731 N 261.624 0.925811 1.2754 0
M  V30 2732 C 262.901 0.483726 1.89524 0
M  V30 2733 C 263.281 -1.03809 1.83812 0
M  V30 2734 O 262.629 -1.89143 1.28207 0
M  V30 2735 C 262.839 1.02769 3.33526 0
M  V30 2736 C 264.187 1.08703 4.10449 0
M  V30 2737 O 265.211 0.977175 3.42534 0
M  V30 2738 O 264.07 1.25599 5.31871 0
M  V30 2739 H 261.164 0.15529 0.812289 0
M  V30 2740 H 263.71 1.01738 1.35822 0
M  V30 2741 H 262.482 2.07155 3.31967 0
M  V30 2742 H 262.105 0.475567 3.94746 0
M  V30 2743 N 263.102 -1.41638 0.69111 0
M  V30 2744 C 264.065 -2.29178 0.0319786 0
M  V30 2745 C 265.065 -1.44153 -0.712496 0
M  V30 2746 O 266.255 -1.65354 -0.548053 0
M  V30 2747 C 263.387 -3.26952 -0.965161 0
M  V30 2748 H 264.58 -2.88959 0.802681 0
M  V30 2749 H 262.133 -1.4955 0.454356 0
M  V30 2750 H 262.868 -2.72142 -1.76378 0
M  V30 2751 H 262.653 -3.89685 -0.434522 0
M  V30 2752 H 264.143 -3.92561 -1.42428 0
M  V30 2753 N 264.58 -0.43555 -1.51462 0
M  V30 2754 C 265.805 0.132627 -2.06976 0
M  V30 2755 C 266.23 1.35848 -1.30104 0
M  V30 2756 O 265.588 1.78112 -0.338493 0
M  V30 2757 C 265.636 0.43523 -3.57964 0
M  V30 2758 O 264.74 1.52198 -3.83288 0
M  V30 2759 H 264.081 0.00265 -0.663995 0
M  V30 2760 H 266.611 -0.616369 -1.95095 0
M  V30 2761 H 266.621 0.686206 -4.02188 0
M  V30 2762 H 265.296 -0.460739 -4.1334 0
M  V30 2763 H 263.873 1.2611 -3.50928 0
M  V30 2764 N 266.058 1.56714 -0.166846 0
M  V30 2765 C 266.968 2.21331 0.777791 0
M  V30 2766 C 267.984 1.20358 1.25658 0
M  V30 2767 O 269.16 1.53005 1.30964 0
M  V30 2768 C 266.225 2.83787 1.99163 0
M  V30 2769 C 265.286 3.99947 1.56016 0
M  V30 2770 C 264.519 4.59415 2.71613 0
M  V30 2771 O 264.742 4.17769 3.88362 0
M  V30 2772 O 263.676 5.49359 2.45945 0
M  V30 2773 H 267.502 3.02605 0.257636 0
M  V30 2774 H 265.087 1.49275 0.0611393 0
M  V30 2775 H 266.969 3.23405 2.70161 0
M  V30 2776 H 265.644 2.05513 2.50092 0
M  V30 2777 H 264.551 3.65007 0.819809 0
M  V30 2778 H 265.884 4.79801 1.09782 0
M  V30 2779 N 267.536 -0.106894 1.57237 0
M  V30 2780 C 268.761 -0.830287 1.90055 0
M  V30 2781 C 269.186 -1.72064 0.75998 0
M  V30 2782 O 268.544 -1.78982 -0.288991 0
M  V30 2783 C 268.592 -1.6295 3.21683 0
M  V30 2784 O 267.696 -2.73748 3.08441 0
M  V30 2785 H 267.037 -0.228855 0.623315 0
M  V30 2786 H 269.567 -0.085658 2.04421 0
M  V30 2787 H 269.577 -2.01621 3.54701 0
M  V30 2788 H 268.252 -0.975989 4.04286 0
M  V30 2789 H 266.829 -2.38192 2.86913 0
M  V30 2790 N 269.014 -1.53014 -0.377408 0
M  V30 2791 C 270.26 -1.68872 -1.12294 0
M  V30 2792 C 270.593 -0.433224 -1.89306 0
M  V30 2793 O 269.868 0.569258 -1.85983 0
M  V30 2794 C 270.151 -2.93115 -2.09179 0
M  V30 2795 C 270.004 -4.28794 -1.35853 0
M  V30 2796 C 271.323 -3.12928 -3.09458 0
M  V30 2797 H 268.442 -0.614518 -0.406862 0
M  V30 2798 H 271.084 -1.85633 -0.40503 0
M  V30 2799 H 269.234 -2.78956 -2.70399 0
M  V30 2800 H 270.906 -4.54742 -0.775082 0
M  V30 2801 H 269.149 -4.28744 -0.660364 0
M  V30 2802 H 269.82 -5.11837 -2.06706 0
M  V30 2803 H 272.296 -3.26194 -2.58334 0
M  V30 2804 H 271.172 -4.01316 -3.74482 0
M  V30 2805 H 271.433 -2.27669 -3.78971 0
M  V30 2806 N 270.492 0.636531 -1.44174 0
M  V30 2807 C 271.402 1.77754 -1.53103 0
M  V30 2808 C 272.418 1.68928 -0.417034 0
M  V30 2809 O 273.594 1.89801 -0.6736 0
M  V30 2810 C 270.659 3.14115 -1.46741 0
M  V30 2811 C 269.72 3.34612 -2.68948 0
M  V30 2812 C 268.953 4.64467 -2.6288 0
M  V30 2813 O 269.176 5.44919 -1.68581 0
M  V30 2814 O 268.11 4.87049 -3.53648 0
M  V30 2815 H 271.936 1.73174 -2.49489 0
M  V30 2816 H 269.521 0.79709 -1.2636 0
M  V30 2817 H 271.403 3.95412 -1.45696 0
M  V30 2818 H 270.078 3.19249 -0.534975 0
M  V30 2819 H 268.985 2.53014 -2.75562 0
M  V30 2820 H 270.318 3.34336 -3.61221 0
M  V30 2821 N 271.97 1.30982 0.876444 0
M  V30 2822 C 272.918 1.18006 2.00443 0
M  V30 2823 C 273.912 0.0898871 1.69161 0
M  V30 2824 O 275.118 0.251333 1.78237 0
M  V30 2825 H 271.493 0.365196 0.65737 0
M  V30 2826 H 273.464 2.13453 2.0852 0
M  V30 2827 C 272.213 0.897521 3.35916 0
M  V30 2828 H 271.536 1.7285 3.60504 0
M  V30 2829 H 272.976 0.846874 4.15456 0
M  V30 2830 C 271.435 -0.399674 3.34521 0
M  V30 2831 O 271.965 -1.41852 3.7582 0
M  V30 2832 N 270.171 -0.413893 2.87637 0
M  V30 2833 H 269.718 0.41571 2.54224 0
M  V30 2834 H 269.676 -1.28175 2.87086 0
M  V30 2835 N 273.449 -1.08991 1.13837 0
M  V30 2836 C 274.399 -2.1393 0.788535 0
M  V30 2837 C 275.383 -1.59396 -0.219516 0
M  V30 2838 O 276.575 -1.76985 -0.0227557 0
M  V30 2839 C 273.704 -3.42305 0.261147 0
M  V30 2840 C 272.79 -4.03736 1.29837 0
M  V30 2841 N 273.181 -4.39659 2.50067 0
M  V30 2842 C 271.479 -4.30993 1.1472 0
M  V30 2843 C 272.18 -4.88113 3.16419 0
M  V30 2844 N 271.156 -4.85846 2.43832 0
M  V30 2845 H 274.958 -2.39516 1.70322 0
M  V30 2846 H 272.472 -1.26263 1.02134 0
M  V30 2847 H 274.469 -4.16899 -0.0077405 0
M  V30 2848 H 273.129 -3.18172 -0.647805 0
M  V30 2849 H 274.14 -4.30878 2.8734 0
M  V30 2850 H 270.817 -4.16444 0.296773 0
M  V30 2851 H 272.207 -5.25336 4.18894 0
M  V30 2852 N 274.927 -0.932562 -1.27047 0
M  V30 2853 C 276.175 -0.574422 -1.93765 0
M  V30 2854 C 276.496 0.887993 -1.73608 0
M  V30 2855 O 275.766 1.62999 -1.08665 0
M  V30 2856 H 274.346 -0.209451 -0.717035 0
M  V30 2857 H 277.008 -1.18601 -1.5466 0
M  V30 2858 H 276.104 -0.784841 -3.02071 0
M  V30 2859 N 276.405 1.4127 -0.698611 0
M  V30 2860 C 277.335 2.33447 -0.049629 0
M  V30 2861 C 278.316 1.51982 0.763898 0
M  V30 2862 O 279.501 1.80509 0.716257 0
M  V30 2863 C 276.631 3.35828 0.885267 0
M  V30 2864 C 275.585 4.27627 0.178613 0
M  V30 2865 C 274.911 5.20406 1.22807 0
M  V30 2866 C 276.211 5.13459 -0.956933 0
M  V30 2867 H 277.905 2.87966 -0.81951 0
M  V30 2868 H 275.451 1.38461 -0.395538 0
M  V30 2869 H 277.404 3.9924 1.34854 0
M  V30 2870 H 276.128 2.79666 1.68685 0
M  V30 2871 H 274.787 3.65643 -0.26466 0
M  V30 2872 H 274.435 4.60558 2.02226 0
M  V30 2873 H 274.135 5.82661 0.760239 0
M  V30 2874 H 275.659 5.86695 1.69179 0
M  V30 2875 H 277.073 5.70421 -0.573805 0
M  V30 2876 H 275.47 5.8467 -1.35205 0
M  V30 2877 H 276.54 4.50443 -1.79524 0
M  V30 2878 N 277.883 0.443576 1.51229 0
M  V30 2879 C 279.299 0.0962001 1.5931 0
M  V30 2880 C 279.499 -1.39501 1.45402 0
M  V30 2881 O 278.555 -2.16557 1.29843 0
M  V30 2882 C 279.868 0.621875 2.94199 0
M  V30 2883 C 281.416 0.582865 3.07525 0
M  V30 2884 C 281.891 1.08562 4.44948 0
M  V30 2885 N 283.382 1.04387 4.51284 0
M  V30 2886 C 284.117 1.40368 5.55954 0
M  V30 2887 N 283.613 1.83664 6.68011 0
M  V30 2888 N 285.406 1.32145 5.46346 0
M  V30 2889 H 277.557 1.41376 1.58514 0
M  V30 2890 H 279.82 0.582965 0.747567 0
M  V30 2891 H 279.526 1.66546 3.09767 0
M  V30 2892 H 279.4 0.0502125 3.77167 0
M  V30 2893 H 281.787 -0.451749 2.91622 0
M  V30 2894 H 281.868 1.191 2.26382 0
M  V30 2895 H 281.512 2.11873 4.61598 0
M  V30 2896 H 281.442 0.453956 5.2464 0
M  V30 2897 H 283.933 0.725986 3.70861 0
M  V30 2898 H 284.246 2.0934 7.43906 0
M  V30 2899 H 282.591 1.87596 6.69203 0
M  V30 2900 H 285.782 0.981808 4.57688 0
M  V30 2901 H 285.955 1.60514 6.27805 0
M  V30 2902 N 279.361 -1.56624 0.175154 0
M  V30 2903 C 280.291 -2.21155 -0.749195 0
M  V30 2904 C 281.272 -1.16836 -1.23626 0
M  V30 2905 O 282.457 -1.45277 -1.28873 0
M  V30 2906 C 279.587 -2.8553 -1.97711 0
M  V30 2907 C 278.541 -3.95921 -1.62575 0
M  V30 2908 C 277.867 -4.47365 -2.92864 0
M  V30 2909 C 279.167 -5.15323 -0.850838 0
M  V30 2910 H 280.861 -2.98653 -0.211295 0
M  V30 2911 H 278.407 -1.43651 -0.100188 0
M  V30 2912 H 280.36 -3.2935 -2.62881 0
M  V30 2913 H 279.084 -2.05406 -2.53921 0
M  V30 2914 H 277.743 -3.52762 -0.997719 0
M  V30 2915 H 277.391 -3.64027 -3.47122 0
M  V30 2916 H 277.091 -5.21839 -2.70106 0
M  V30 2917 H 278.615 -4.93873 -3.59056 0
M  V30 2918 H 280.029 -5.55812 -1.40521 0
M  V30 2919 H 278.426 -5.95739 -0.722154 0
M  V30 2920 H 279.496 -4.84661 0.152082 0
M  V30 2921 N 280.839 0.0985539 -1.57292 0
M  V30 2922 C 281.802 1.10402 -2.00858 0
M  V30 2923 C 282.802 1.33146 -0.901593 0
M  V30 2924 O 283.992 1.29318 -1.16716 0
M  V30 2925 C 281.124 2.45394 -2.36632 0
M  V30 2926 H 282.317 0.729099 -2.90902 0
M  V30 2927 H 279.87 0.343495 -1.52479 0
M  V30 2928 H 280.605 2.87769 -1.49531 0
M  V30 2929 H 280.39 2.30235 -3.17387 0
M  V30 2930 H 281.88 3.17718 -2.71007 0
M  V30 2931 N 282.317 1.53212 0.369288 0
M  V30 2932 C 283.28 1.7872 1.43498 0
M  V30 2933 C 284.28 0.657554 1.46741 0
M  V30 2934 O 285.47 0.925736 1.47566 0
M  V30 2935 C 282.602 1.90591 2.82645 0
M  V30 2936 H 283.795 2.73894 1.22156 0
M  V30 2937 H 281.348 1.44233 0.602203 0
M  V30 2938 H 282.083 0.974709 3.09306 0
M  V30 2939 H 281.868 2.72751 2.8169 0
M  V30 2940 H 283.358 2.11931 3.59826 0
M  V30 2941 N 283.795 -0.628877 1.44509 0
M  V30 2942 C 285.02 -1.42048 1.5112 0
M  V30 2943 C 285.445 -1.87594 0.137818 0
M  V30 2944 O 284.803 -1.58873 -0.873437 0
M  V30 2945 C 284.851 -2.61541 2.48251 0
M  V30 2946 O 283.955 -3.61453 1.98559 0
M  V30 2947 H 283.296 -0.424942 0.510216 0
M  V30 2948 H 285.826 -0.767374 1.89664 0
M  V30 2949 H 285.836 -3.09057 2.66361 0
M  V30 2950 H 284.511 -2.27736 3.48007 0
M  V30 2951 H 283.088 -3.20731 1.90227 0
M  V30 2952 N 285.273 -1.31445 -0.869486 0
M  V30 2953 C 286.689 -1.10113 -1.15531 0
M  V30 2954 C 286.889 0.128087 -2.01092 0
M  V30 2955 O 285.945 0.817276 -2.38908 0
M  V30 2956 C 287.258 -2.37291 -1.84698 0
M  V30 2957 C 288.806 -2.42906 -1.97397 0
M  V30 2958 C 289.281 -3.69967 -2.69979 0
M  V30 2959 N 290.772 -3.70864 -2.77514 0
M  V30 2960 C 291.507 -4.65875 -3.34287 0
M  V30 2961 N 291.003 -5.71242 -3.91988 0
M  V30 2962 N 292.796 -4.53394 -3.3225 0
M  V30 2963 H 284.947 -2.1028 -0.299347 0
M  V30 2964 H 287.21 -0.927683 -0.195214 0
M  V30 2965 H 286.916 -3.27078 -1.29278 0
M  V30 2966 H 286.79 -2.47125 -2.84972 0
M  V30 2967 H 289.177 -1.53588 -2.51982 0
M  V30 2968 H 289.258 -2.37036 -0.961643 0
M  V30 2969 H 288.902 -4.59652 -2.16062 0
M  V30 2970 H 288.832 -3.73103 -3.7162 0
M  V30 2971 H 291.323 -2.94697 -2.36563 0
M  V30 2972 H 291.636 -6.39817 -4.33421 0
M  V30 2973 H 289.981 -5.75015 -3.90362 0
M  V30 2974 H 293.172 -3.70252 -2.8641 0
M  V30 2975 H 293.345 -5.27617 -3.76197 0
M  V30 2976 N 286.751 1.08385 -1.14413 0
M  V30 2977 C 287.998 1.80776 -0.912482 0
M  V30 2978 C 288.326 1.86236 0.560934 0
M  V30 2979 O 287.581 1.33431 1.43159 0
M  V30 2980 C 287.88 3.26273 -1.45879 0
M  V30 2981 C 287.546 3.4093 -2.95089 0
M  V30 2982 C 286.208 3.44638 -3.35824 0
M  V30 2983 C 288.56 3.44591 -3.91033 0
M  V30 2984 C 285.888 3.49597 -4.71167 0
M  V30 2985 C 288.24 3.51086 -5.26233 0
M  V30 2986 C 286.904 3.53067 -5.6648 0
M  V30 2987 H 286.174 0.661507 -0.333901 0
M  V30 2988 H 288.821 1.27613 -1.42784 0
M  V30 2989 H 287.126 3.82146 -0.864376 0
M  V30 2990 H 288.823 3.80839 -1.2555 0
M  V30 2991 H 285.413 3.38736 -2.62594 0
M  V30 2992 H 289.597 3.40957 -3.60641 0
M  V30 2993 H 284.853 3.49424 -5.0171 0
M  V30 2994 H 289.027 3.52864 -6.00383 0
M  V30 2995 H 286.654 3.56662 -6.71339 0
M  V30 2996 N 288.23 0.939286 1.26551 0
M  V30 2997 C 289.476 0.586715 1.94128 0
M  V30 2998 C 289.809 -0.8717 1.73537 0
M  V30 2999 O 289.084 -1.62339 1.07127 0
M  V30 3000 C 289.367 0.927497 3.4795 0
M  V30 3001 C 289.22 2.44052 3.77834 0
M  V30 3002 C 290.539 0.441569 4.37879 0
M  V30 3003 H 287.658 0.21463 0.705055 0
M  V30 3004 H 290.3 1.17316 1.49455 0
M  V30 3005 H 288.45 0.428431 3.8613 0
M  V30 3006 H 290.122 3.01216 3.4938 0
M  V30 3007 H 288.365 2.8848 3.23978 0
M  V30 3008 H 289.036 2.62947 4.85348 0
M  V30 3009 H 291.512 0.869448 4.06915 0
M  V30 3010 H 290.388 0.708856 5.44304 0
M  V30 3011 H 290.649 -0.658467 4.37169 0
M  V30 3012 N 289.708 -1.40897 0.706093 0
M  V30 3013 C 291.119 -1.84023 0.315052 0
M  V30 3014 C 291.47 -1.5906 -1.14866 0
M  V30 3015 O 290.595 -1.06651 -1.88293 0
M  V30 3016 C 291.19 -3.34055 0.565038 0
M  V30 3017 C 289.749 -3.7571 0.227806 0
M  V30 3018 C 288.896 -2.64204 0.842122 0
M  V30 3019 H 291.847 -1.303 0.905963 0
M  V30 3020 H 291.868 -3.80107 -0.172843 0
M  V30 3021 H 291.38 -3.52192 1.63042 0
M  V30 3022 H 289.481 -3.63172 -0.832895 0
M  V30 3023 H 289.594 -4.74103 0.690174 0
M  V30 3024 H 287.958 -2.53255 0.270893 0
M  V30 3025 H 288.741 -2.85155 1.91158 0
M  V30 3026 N 291.186 -0.45159 -1.50991 0
M  V30 3027 C 292.116 0.342898 -2.30969 0
M  V30 3028 C 293.097 1.00815 -1.37005 0
M  V30 3029 O 294.282 1.00907 -1.65926 0
M  V30 3030 C 291.412 1.43637 -3.16205 0
M  V30 3031 C 290.366 0.893818 -4.18563 0
M  V30 3032 C 289.692 2.08411 -4.92411 0
M  V30 3033 C 290.992 -0.0815568 -5.22236 0
M  V30 3034 H 292.686 -0.324556 -2.97636 0
M  V30 3035 H 290.232 -0.157531 -1.43136 0
M  V30 3036 H 292.185 1.9995 -3.70942 0
M  V30 3037 H 290.909 2.13232 -2.47386 0
M  V30 3038 H 289.568 0.352798 -3.64898 0
M  V30 3039 H 289.216 2.76658 -4.20082 0
M  V30 3040 H 288.916 1.72741 -5.61636 0
M  V30 3041 H 290.44 2.65251 -5.49976 0
M  V30 3042 H 291.854 0.391742 -5.7196 0
M  V30 3043 H 290.251 -0.351551 -5.99069 0
M  V30 3044 H 291.321 -1.01374 -4.74185 0
M  V30 3045 N 292.664 1.56529 -0.183458 0
M  V30 3046 C 293.611 2.18546 0.742055 0
M  V30 3047 C 294.581 1.12912 1.2182 0
M  V30 3048 O 295.766 1.41115 1.28418 0
M  V30 3049 C 292.906 2.83977 1.96089 0
M  V30 3050 C 292.019 4.04105 1.52719 0
M  V30 3051 C 291.154 4.57427 2.70063 0
M  V30 3052 C 290.193 5.69938 2.23243 0
M  V30 3053 N 289.33 6.17717 3.33722 0
M  V30 3054 H 294.17 2.97284 0.206432 0
M  V30 3055 H 291.707 1.46823 0.0901571 0
M  V30 3056 H 293.665 3.20077 2.67594 0
M  V30 3057 H 292.295 2.07822 2.47002 0
M  V30 3058 H 291.347 3.73745 0.708436 0
M  V30 3059 H 292.659 4.85513 1.1436 0
M  V30 3060 H 291.813 4.95772 3.49708 0
M  V30 3061 H 290.552 3.75101 3.11689 0
M  V30 3062 H 289.557 5.31133 1.42048 0
M  V30 3063 H 290.782 6.54073 1.82661 0
M  V30 3064 H 288.728 5.38317 3.74902 0
M  V30 3065 H 288.645 6.94146 2.99495 0
M  V30 3066 H 289.913 6.60713 4.13616 0
M  V30 3067 N 294.142 -0.090211 1.57342 0
M  V30 3068 C 295.419 -0.824761 1.77361 0
M  V30 3069 C 295.799 -1.96698 0.76637 0
M  V30 3070 O 295.147 -2.27586 -0.204179 0
M  V30 3071 C 295.357 -1.31481 3.23286 0
M  V30 3072 C 296.705 -1.75563 3.86604 0
M  V30 3073 O 297.729 -1.41093 3.27065 0
M  V30 3074 O 296.588 -2.39317 4.91314 0
M  V30 3075 H 293.682 -0.393776 0.727234 0
M  V30 3076 H 296.228 -0.0717138 1.69548 0
M  V30 3077 H 295 -0.496671 3.88135 0
M  V30 3078 H 294.623 -2.12973 3.35751 0
M  V30 3079 N 295.62 -1.53406 -0.361157 0
M  V30 3080 C 296.552 -1.76446 -1.46286 0
M  V30 3081 C 297.565 -0.645322 -1.49464 0
M  V30 3082 O 298.754 -0.921681 -1.52864 0
M  V30 3083 C 295.854 -1.83332 -2.85031 0
M  V30 3084 C 295.027 -3.13033 -3.05498 0
M  V30 3085 C 294.086 -3.11104 -4.24383 0
M  V30 3086 O 293.112 -3.84888 -4.19344 0
M  V30 3087 N 294.314 -2.32234 -5.32022 0
M  V30 3088 H 297.079 -2.71508 -1.26899 0
M  V30 3089 H 294.64 -1.52238 -0.550915 0
M  V30 3090 H 296.632 -1.79514 -3.62708 0
M  V30 3091 H 295.202 -0.955342 -2.97644 0
M  V30 3092 H 294.422 -3.30119 -2.15442 0
M  V30 3093 H 295.71 -3.9874 -3.16044 0
M  V30 3094 H 295.108 -1.71807 -5.38979 0
M  V30 3095 H 293.665 -2.3423 -6.08259 0
M  V30 3096 N 297.098 0.621204 -1.44841 0
M  V30 3097 C 298.326 1.40752 -1.51646 0
M  V30 3098 C 298.741 1.88246 -0.144549 0
M  V30 3099 O 298.098 1.61422 0.851416 0
M  V30 3100 C 298.149 2.62119 -2.4895 0
M  V30 3101 O 297.87 2.16602 -3.80808 0
M  V30 3102 C 299.371 3.55135 -2.65319 0
M  V30 3103 H 296.591 0.431325 -0.514004 0
M  V30 3104 H 299.135 0.758835 -1.899 0
M  V30 3105 H 297.29 3.23058 -2.13805 0
M  V30 3106 H 297.704 2.95358 -4.33433 0
M  V30 3107 H 299.178 4.36874 -3.37409 0
M  V30 3108 H 299.655 4.04592 -1.70886 0
M  V30 3109 H 300.261 3.00058 -3.01405 0
M  V30 3110 N 298.576 1.31904 0.862503 0
M  V30 3111 C 299.486 1.22161 2.00285 0
M  V30 3112 C 300.502 0.136785 1.73462 0
M  V30 3113 O 301.678 0.355994 1.98229 0
M  V30 3114 C 298.743 0.937093 3.33796 0
M  V30 3115 C 297.804 2.10957 3.73893 0
M  V30 3116 C 297.037 1.83853 5.01033 0
M  V30 3117 O 297.26 0.777274 5.65079 0
M  V30 3118 O 296.194 2.69741 5.38074 0
M  V30 3119 H 300.02 2.18008 2.11439 0
M  V30 3120 H 297.605 1.11716 0.991957 0
M  V30 3121 H 299.487 0.794583 4.13841 0
M  V30 3122 H 298.162 0.00871894 3.23699 0
M  V30 3123 H 297.069 2.30752 2.94456 0
M  V30 3124 H 298.402 3.02046 3.88625 0
M  V30 3125 N 300.054 -1.07777 1.14986 0
M  V30 3126 C 301.303 -1.79669 0.916617 0
M  V30 3127 C 301.616 -1.87474 -0.557917 0
M  V30 3128 O 302.822 -2.55845 -0.908617 0
M  V30 3129 C 301.278 -3.22848 1.59051 0
M  V30 3130 C 300.886 -3.23257 3.10176 0
M  V30 3131 C 302.63 -3.99379 1.43864 0
M  V30 3132 C 300.537 -4.61063 3.70372 0
M  V30 3133 H 299.467 -0.673349 0.33929 0
M  V30 3134 H 302.118 -1.21003 1.37951 0
M  V30 3135 H 300.5 -3.8168 1.0553 0
M  V30 3136 H 301.674 -2.74095 3.70417 0
M  V30 3137 H 299.989 -2.60222 3.25074 0
M  V30 3138 H 302.586 -5.0122 1.86232 0
M  V30 3139 H 302.929 -4.14511 0.385564 0
M  V30 3140 H 303.462 -3.47032 1.94457 0
M  V30 3141 H 300.201 -4.51135 4.7556 0
M  V30 3142 H 299.721 -5.1048 3.14913 0
M  V30 3143 H 301.4 -5.30034 3.71043 0
M  V30 3144 N 301.532 -0.945985 -1.26051 0
M  V30 3145 C 302.778 -0.597002 -1.93814 0
M  V30 3146 C 303.111 0.862484 -1.73997 0
M  V30 3147 O 302.386 1.61769 -1.07986 0
M  V30 3148 C 302.669 -0.945937 -3.47454 0
M  V30 3149 C 302.522 -2.46052 -3.76535 0
M  V30 3150 C 303.841 -0.464785 -4.37639 0
M  V30 3151 H 300.96 -0.218366 -0.703907 0
M  V30 3152 H 303.602 -1.18107 -1.48831 0
M  V30 3153 H 301.752 -0.448902 -3.85898 0
M  V30 3154 H 303.424 -3.03065 -3.47778 0
M  V30 3155 H 301.667 -2.90194 -3.22444 0
M  V30 3156 H 302.338 -2.65517 -4.83947 0
M  V30 3157 H 304.814 -0.891016 -4.06448 0
M  V30 3158 H 303.69 -0.737712 -5.4392 0
M  V30 3159 H 303.951 0.635274 -4.37512 0
M  V30 3160 N 303.011 1.40521 -0.713556 0
M  V30 3161 C 304.427 1.54839 -0.386907 0
M  V30 3162 C 304.627 1.68532 1.1045 0
M  V30 3163 O 303.683 1.67377 1.89053 0
M  V30 3164 C 304.996 2.77792 -1.15118 0
M  V30 3165 C 306.544 2.91607 -1.13729 0
M  V30 3166 C 307.019 4.1747 -1.88368 0
M  V30 3167 N 308.51 4.24466 -1.85427 0
M  V30 3168 C 309.245 5.20755 -2.40004 0
M  V30 3169 N 308.741 6.22965 -3.03129 0
M  V30 3170 N 310.534 5.1282 -2.30158 0
M  V30 3171 H 302.685 1.29879 -1.68063 0
M  V30 3172 H 304.948 0.627896 -0.710247 0
M  V30 3173 H 304.654 2.73944 -2.20561 0
M  V30 3174 H 304.528 3.6984 -0.741477 0
M  V30 3175 H 306.915 2.94959 -0.0910608 0
M  V30 3176 H 306.996 2.00682 -1.5862 0
M  V30 3177 H 306.64 4.1488 -2.9298 0
M  V30 3178 H 306.57 5.074 -1.40898 0
M  V30 3179 H 309.061 3.51241 -1.3942 0
M  V30 3180 H 309.374 6.92859 -3.42295 0
M  V30 3181 H 307.719 6.23415 -3.07212 0
M  V30 3182 H 310.91 4.31899 -1.80501 0
M  V30 3183 H 311.083 5.87689 -2.72993 0
M  V30 3184 N 304.489 0.459591 1.5075 0
M  V30 3185 C 305.737 -0.0991532 2.01857 0
M  V30 3186 C 306.058 -1.41247 1.34441 0
M  V30 3187 O 305.328 -1.89775 0.486022 0
M  V30 3188 H 303.908 -0.039633 0.745948 0
M  V30 3189 H 306.57 0.607387 1.85194 0
M  V30 3190 H 305.666 -0.258998 3.11023 0
M  V30 3191 N 305.967 -1.56429 0.191757 0
M  V30 3192 C 307.244 -1.89224 -0.495332 0
M  V30 3193 C 307.624 -1.10478 -1.79883 0
M  V30 3194 O 306.972 -0.204852 -2.2758 0
M  V30 3195 C 307.182 -3.41548 -0.717367 0
M  V30 3196 C 308.53 -4.11711 -1.03823 0
M  V30 3197 O 309.554 -3.4698 -0.805204 0
M  V30 3198 O 308.413 -5.2611 -1.47887 0
M  V30 3199 H 305.507 -0.785788 -0.25781 0
M  V30 3200 H 308.053 -1.68111 0.231721 0
M  V30 3201 H 306.825 -3.90772 0.203287 0
M  V30 3202 H 306.448 -3.68342 -1.497 0
M  V30 3203 N 307.445 0.0818655 -1.57387 0
M  V30 3204 C 308.694 0.781681 -1.85937 0
M  V30 3205 C 309.007 1.79246 -0.782957 0
M  V30 3206 O 310.213 2.54112 -0.955987 0
M  V30 3207 C 308.669 1.44109 -3.29789 0
M  V30 3208 C 308.277 0.469396 -4.45534 0
M  V30 3209 C 310.021 2.12386 -3.67549 0
M  V30 3210 C 307.928 1.13415 -5.80423 0
M  V30 3211 H 306.858 0.295682 -0.693605 0
M  V30 3212 H 309.509 0.0348051 -1.83467 0
M  V30 3213 H 307.891 2.23588 -3.2684 0
M  V30 3214 H 309.065 -0.294856 -4.59856 0
M  V30 3215 H 307.38 -0.108383 -4.16259 0
M  V30 3216 H 309.977 2.62878 -4.65617 0
M  V30 3217 H 310.32 2.91877 -2.96839 0
M  V30 3218 H 310.853 1.39751 -3.72444 0
M  V30 3219 H 307.592 0.379771 -6.54399 0
M  V30 3220 H 307.112 1.8695 -5.69921 0
M  V30 3221 H 308.791 1.65686 -6.25426 0
M  V30 3222 N 308.923 1.53595 0.353017 0
M  V30 3223 C 310.169 1.70638 1.09593 0
M  V30 3224 C 310.502 0.463286 1.88593 0
M  V30 3225 O 309.777 -0.539597 1.86865 0
M  V30 3226 C 310.06 2.96406 2.04489 0
M  V30 3227 C 309.913 4.30901 1.29014 0
M  V30 3228 C 311.232 3.17812 3.0444 0
M  V30 3229 H 308.351 0.620913 0.397034 0
M  V30 3230 H 310.993 1.86254 0.375446 0
M  V30 3231 H 309.143 2.83223 2.65927 0
M  V30 3232 H 310.815 4.55917 0.702638 0
M  V30 3233 H 309.058 4.29741 0.592071 0
M  V30 3234 H 309.729 5.1506 1.98537 0
M  V30 3235 H 312.205 3.30263 2.53112 0
M  V30 3236 H 311.081 4.07223 3.6805 0
M  V30 3237 H 311.342 2.33669 3.75301 0
M  V30 3238 N 310.401 -0.613514 1.45168 0
M  V30 3239 C 311.678 -1.37263 1.39349 0
M  V30 3240 C 312.058 -2.11012 0.0610848 0
M  V30 3241 O 311.406 -2.07502 -0.956825 0
M  V30 3242 C 311.616 -2.3244 2.60332 0
M  V30 3243 C 312.964 -2.9523 3.05163 0
M  V30 3244 O 313.988 -2.42762 2.60663 0
M  V30 3245 O 312.847 -3.90454 3.82372 0
M  V30 3246 H 309.941 -0.615188 0.552696 0
M  V30 3247 H 312.487 -0.637097 1.57287 0
M  V30 3248 H 311.259 -1.77164 3.48896 0
M  V30 3249 H 310.882 -3.13383 2.44698 0
M  V30 3250 N 311.879 -1.3236 -0.855495 0
M  V30 3251 C 313.128 -1.22226 -1.60448 0
M  V30 3252 C 313.441 0.214733 -1.94418 0
M  V30 3253 O 314.647 0.437917 -2.67945 0
M  V30 3254 C 313.103 -2.14063 -2.89318 0
M  V30 3255 C 312.711 -3.62839 -2.62777 0
M  V30 3256 C 314.455 -2.12764 -3.67331 0
M  V30 3257 C 312.362 -4.4664 -3.87643 0
M  V30 3258 H 311.292 -0.453904 -0.602069 0
M  V30 3259 H 313.943 -1.57314 -0.944698 0
M  V30 3260 H 312.325 -1.71889 -3.5675 0
M  V30 3261 H 313.499 -4.1335 -2.03662 0
M  V30 3262 H 311.814 -3.66261 -1.98096 0
M  V30 3263 H 314.411 -2.72611 -4.59987 0
M  V30 3264 H 314.754 -1.11841 -4.00995 0
M  V30 3265 H 315.287 -2.53214 -3.06802 0
M  V30 3266 H 312.026 -5.48373 -3.5912 0
M  V30 3267 H 311.546 -4.0088 -4.46156 0
M  V30 3268 H 313.225 -4.59597 -4.55389 0
M  V30 3269 N 313.357 1.07166 -1.15556 0
M  V30 3270 C 314.304 2.14417 -0.854055 0
M  V30 3271 C 315.274 1.64965 0.193806 0
M  V30 3272 O 316.459 1.90703 0.0609443 0
M  V30 3273 C 313.599 3.43304 -0.351574 0
M  V30 3274 C 312.712 4.06537 -1.46123 0
M  V30 3275 C 311.847 5.23266 -0.914677 0
M  V30 3276 C 310.886 5.78464 -2.00114 0
M  V30 3277 N 310.023 6.86521 -1.47083 0
M  V30 3278 H 314.863 2.39548 -1.77259 0
M  V30 3279 H 312.4 1.17543 -0.884425 0
M  V30 3280 H 314.358 4.17179 -0.0419409 0
M  V30 3281 H 312.988 3.18419 0.530037 0
M  V30 3282 H 312.04 3.30297 -1.88701 0
M  V30 3283 H 313.352 4.43567 -2.28144 0
M  V30 3284 H 312.506 6.04131 -0.557698 0
M  V30 3285 H 311.245 4.87658 -0.0636583 0
M  V30 3286 H 310.25 4.96243 -2.36692 0
M  V30 3287 H 311.475 6.16126 -2.85597 0
M  V30 3288 H 309.421 6.52849 -0.642198 0
M  V30 3289 H 309.338 7.22446 -2.22729 0
M  V30 3290 H 310.606 7.71087 -1.14215 0
M  V30 3291 N 314.835 0.952656 1.25548 0
M  V30 3292 C 315.783 0.462354 2.27958 0
M  V30 3293 C 316.777 -0.46634 1.62855 0
M  V30 3294 O 317.983 -0.343287 1.76696 0
M  V30 3295 H 314.358 0.13101 0.7405 0
M  V30 3296 H 316.329 1.33839 2.66702 0
M  V30 3297 C 315.078 -0.24628 3.46827 0
M  V30 3298 H 314.401 0.459192 3.97154 0
M  V30 3299 H 315.841 -0.553393 4.20373 0
M  V30 3300 C 314.3 -1.4681 3.0323 0
M  V30 3301 O 314.83 -2.56591 3.09069 0
M  V30 3302 N 313.036 -1.32874 2.58443 0
M  V30 3303 H 312.583 -0.435536 2.53891 0
M  V30 3304 H 312.541 -2.14742 2.29637 0
M  V30 3305 N 316.313 -1.40141 0.720998 0
M  V30 3306 C 317.541 -2.05096 0.272656 0
M  V30 3307 C 317.956 -1.54334 -1.0875 0
M  V30 3308 O 317.313 -0.702211 -1.6845 0
M  V30 3309 C 317.364 -3.60636 0.249835 0
M  V30 3310 O 317.085 -4.09526 1.55629 0
M  V30 3311 C 318.586 -4.42772 -0.216396 0
M  V30 3312 H 315.806 -0.659897 0.121558 0
M  V30 3313 H 318.35 -1.79449 0.980723 0
M  V30 3314 H 316.505 -3.85232 -0.409237 0
M  V30 3315 H 316.919 -5.03758 1.4604 0
M  V30 3316 H 318.393 -5.51702 -0.181212 0
M  V30 3317 H 318.87 -4.20756 -1.25941 0
M  V30 3318 H 319.476 -4.23294 0.412596 0
M  V30 3319 N 317.792 -0.46758 -1.50504 0
M  V30 3320 C 319.069 0.15003 -1.95024 0
M  V30 3321 C 319.449 1.57304 -1.40779 0
M  V30 3322 O 318.797 2.20281 -0.607319 0
M  V30 3323 C 319.007 0.0969324 -3.48865 0
M  V30 3324 C 320.355 0.287565 -4.23625 0
M  V30 3325 O 321.379 0.173678 -3.55776 0
M  V30 3326 O 320.238 0.517186 -5.44047 0
M  V30 3327 H 317.332 0.113582 -0.819163 0
M  V30 3328 H 319.878 -0.52773 -1.61286 0
M  V30 3329 H 318.65 -0.896732 -3.80886 0
M  V30 3330 H 318.273 0.816303 -3.8913 0
M  V30 3331 N 319.27 1.56325 -0.20005 0
M  V30 3332 C 320.2 2.22318 0.713916 0
M  V30 3333 C 321.181 1.18788 1.21752 0
M  V30 3334 O 322.366 1.47309 1.26545 0
M  V30 3335 C 319.496 2.88639 1.93144 0
M  V30 3336 C 318.45 3.98457 1.56255 0
M  V30 3337 C 317.776 4.51967 2.85709 0
M  V30 3338 C 319.076 5.16612 0.768747 0
M  V30 3339 H 320.77 2.98952 0.163755 0
M  V30 3340 H 318.316 1.43792 0.0773219 0
M  V30 3341 H 320.269 3.33491 2.57608 0
M  V30 3342 H 318.993 2.09419 2.50621 0
M  V30 3343 H 317.652 3.54305 0.941471 0
M  V30 3344 H 317.3 3.69503 3.41287 0
M  V30 3345 H 317 5.26071 2.6177 0
M  V30 3346 H 318.524 4.99523 3.51154 0
M  V30 3347 H 319.938 5.57977 1.3166 0
M  V30 3348 H 318.335 5.96812 0.627286 0
M  V30 3349 H 319.405 4.84358 -0.229168 0
M  V30 3350 N 320.748 -0.0735177 1.57428 0
M  V30 3351 C 322.025 -0.805903 1.78226 0
M  V30 3352 C 322.405 -1.95874 0.787189 0
M  V30 3353 O 321.753 -2.2779 -0.180029 0
M  V30 3354 C 321.963 -1.28045 3.24662 0
M  V30 3355 C 323.311 -1.71453 3.88444 0
M  V30 3356 O 324.335 -1.37616 3.28543 0
M  V30 3357 O 323.194 -2.34093 4.93825 0
M  V30 3358 H 320.288 -0.386041 0.73137 0
M  V30 3359 H 322.834 -0.0537269 1.69615 0
M  V30 3360 H 321.606 -0.455476 3.8864 0
M  V30 3361 H 321.229 -2.094 3.37991 0
M  V30 3362 N 322.226 -1.5378 -0.344866 0
M  V30 3363 C 323.473 -1.70963 -1.08526 0
M  V30 3364 C 323.801 -0.472126 -1.88683 0
M  V30 3365 O 323.056 0.546116 -1.87926 0
M  V30 3366 C 323.355 -2.92407 -2.05506 0
M  V30 3367 C 323.021 -4.28066 -1.41671 0
M  V30 3368 C 321.683 -4.64951 -1.2399 0
M  V30 3369 C 324.035 -5.12344 -0.956726 0
M  V30 3370 C 321.363 -5.83733 -0.589277 0
M  V30 3371 C 323.715 -6.3179 -0.320015 0
M  V30 3372 C 322.379 -6.67372 -0.130881 0
M  V30 3373 H 321.649 -0.625598 -0.397124 0
M  V30 3374 H 324.296 -1.87995 -0.36469 0
M  V30 3375 H 322.601 -2.69973 -2.8394 0
M  V30 3376 H 324.298 -3.02895 -2.62784 0
M  V30 3377 H 320.888 -3.99034 -1.56429 0
M  V30 3378 H 325.072 -4.8438 -1.08118 0
M  V30 3379 H 320.328 -6.09877 -0.431344 0
M  V30 3380 H 324.502 -6.96386 0.0445072 0
M  V30 3381 H 322.129 -7.59273 0.375318 0
M  V30 3382 N 323.704 0.605807 -1.45491 0
M  V30 3383 C 325.12 0.926751 -1.29936 0
M  V30 3384 C 325.32 1.99896 -0.253706 0
M  V30 3385 O 324.376 2.50038 0.351737 0
M  V30 3386 C 325.689 1.36599 -2.67883 0
M  V30 3387 C 327.237 1.4801 -2.75793 0
M  V30 3388 C 327.712 1.95309 -4.14268 0
M  V30 3389 N 329.203 2.0254 -4.16571 0
M  V30 3390 C 329.938 2.40363 -5.20589 0
M  V30 3391 N 329.434 2.77143 -6.34952 0
M  V30 3392 N 331.227 2.40718 -5.07948 0
M  V30 3393 H 323.378 -0.102862 -2.12151 0
M  V30 3394 H 325.641 0.016639 -0.947854 0
M  V30 3395 H 325.347 0.652306 -3.45598 0
M  V30 3396 H 325.221 2.33215 -2.96463 0
M  V30 3397 H 327.608 2.1847 -1.98381 0
M  V30 3398 H 327.689 0.497041 -2.50925 0
M  V30 3399 H 327.333 1.25436 -4.92167 0
M  V30 3400 H 327.263 2.94532 -4.3653 0
M  V30 3401 H 329.754 1.76699 -3.34045 0
M  V30 3402 H 330.067 3.0489 -7.10114 0
M  V30 3403 H 328.412 2.74834 -6.3835 0
M  V30 3404 H 331.603 2.11392 -4.1765 0
M  V30 3405 H 331.776 2.69869 -5.89131 0
M  V30 3406 N 325.182 1.32811 0.848464 0
M  V30 3407 C 326.114 1.18095 1.96433 0
M  V30 3408 C 327.127 0.114354 1.62398 0
M  V30 3409 O 328.316 0.363892 1.74751 0
M  V30 3410 C 325.416 0.786798 3.2964 0
M  V30 3411 C 324.589 1.943 3.91875 0
M  V30 3412 C 323.648 1.53138 5.03423 0
M  V30 3413 O 322.674 2.24432 5.23086 0
M  V30 3414 N 323.876 0.430915 5.78898 0
M  V30 3415 H 326.641 2.14218 2.09597 0
M  V30 3416 H 324.202 1.2543 1.02367 0
M  V30 3417 H 326.194 0.493715 4.01677 0
M  V30 3418 H 324.764 -0.0834541 3.12489 0
M  V30 3419 H 323.984 2.40224 3.12547 0
M  V30 3420 H 325.272 2.71689 4.30189 0
M  V30 3421 H 324.67 -0.162333 5.65467 0
M  V30 3422 H 323.227 0.197466 6.51501 0
M  V30 3423 N 326.66 -1.06551 1.16123 0
M  V30 3424 C 327.57 -2.17484 0.879662 0
M  V30 3425 C 328.586 -1.73377 -0.147104 0
M  V30 3426 O 329.762 -2.01379 0.0289128 0
M  V30 3427 C 326.827 -3.44591 0.381829 0
M  V30 3428 C 325.888 -4.0322 1.4735 0
M  V30 3429 C 325.121 -5.24261 0.999324 0
M  V30 3430 O 325.344 -5.70198 -0.151957 0
M  V30 3431 O 324.278 -5.74775 1.78653 0
M  V30 3432 H 328.104 -2.44075 1.80724 0
M  V30 3433 H 325.689 -1.16042 0.940992 0
M  V30 3434 H 327.571 -4.21254 0.111053 0
M  V30 3435 H 326.246 -3.19532 -0.51777 0
M  V30 3436 H 325.153 -3.2806 1.79798 0
M  V30 3437 H 326.486 -4.32568 2.34831 0
M  V30 3438 N 328.138 -0.959301 -1.25041 0
M  V30 3439 C 329.085 -0.482057 -2.2571 0
M  V30 3440 C 330.055 0.467939 -1.59372 0
M  V30 3441 O 331.24 0.380159 -1.86974 0
M  V30 3442 C 328.38 0.229623 -3.44335 0
M  V30 3443 C 327.493 -0.758156 -4.25295 0
M  V30 3444 C 326.628 -0.0234403 -5.31195 0
M  V30 3445 C 325.667 -1.00184 -6.03846 0
M  V30 3446 N 324.804 -0.29769 -7.01469 0
M  V30 3447 H 329.644 -1.34538 -2.65901 0
M  V30 3448 H 327.181 -0.674592 -1.3072 0
M  V30 3449 H 329.139 0.658856 -4.11965 0
M  V30 3450 H 327.769 1.05696 -3.05005 0
M  V30 3451 H 326.821 -1.30586 -3.57284 0
M  V30 3452 H 328.133 -1.50458 -4.75567 0
M  V30 3453 H 327.287 0.464201 -6.04922 0
M  V30 3454 H 326.026 0.755741 -4.81809 0
M  V30 3455 H 325.031 -1.50044 -5.2893 0
M  V30 3456 H 326.256 -1.78133 -6.55321 0
M  V30 3457 H 324.202 0.462668 -6.54366 0
M  V30 3458 H 324.119 -0.983128 -7.4958 0
M  V30 3459 H 325.387 0.16826 -7.79318 0
M  V30 3460 N 329.616 1.39756 -0.72842 0
M  V30 3461 C 330.548 2.29157 -0.0446202 0
M  V30 3462 C 331.561 1.46484 0.710367 0
M  V30 3463 O 332.75 1.69632 0.55562 0
M  V30 3464 C 329.85 3.24987 0.961071 0
M  V30 3465 C 329.023 4.36572 0.268967 0
M  V30 3466 C 328.082 5.12756 1.18184 0
M  V30 3467 O 327.108 5.6534 0.661794 0
M  V30 3468 N 328.31 5.23331 2.51206 0
M  V30 3469 H 331.075 2.88482 -0.812295 0
M  V30 3470 H 328.636 1.51265 -0.577098 0
M  V30 3471 H 330.628 3.72827 1.57423 0
M  V30 3472 H 329.198 2.66739 1.63 0
M  V30 3473 H 328.418 3.90694 -0.524574 0
M  V30 3474 H 329.706 5.08363 -0.210934 0
M  V30 3475 H 329.104 4.82116 2.9594 0
M  V30 3476 H 327.661 5.74634 3.07634 0
M  V30 3477 N 331.094 0.475555 1.50254 0
M  V30 3478 C 332.024 -0.30611 2.31485 0
M  V30 3479 C 333.005 -0.986228 1.38591 0
M  V30 3480 O 334.19 -0.982541 1.67511 0
M  V30 3481 C 331.32 -1.38588 3.1845 0
M  V30 3482 C 330.274 -0.827115 4.19932 0
M  V30 3483 C 329.6 -2.00551 4.95665 0
M  V30 3484 C 330.9 0.16463 5.2204 0
M  V30 3485 H 332.594 0.371866 2.97082 0
M  V30 3486 H 330.14 0.180282 1.42867 0
M  V30 3487 H 332.093 -1.94023 3.74076 0
M  V30 3488 H 330.817 -2.09269 2.50747 0
M  V30 3489 H 329.476 -0.294702 3.65414 0
M  V30 3490 H 329.124 -2.6994 4.2443 0
M  V30 3491 H 328.824 -1.63784 5.64313 0
M  V30 3492 H 330.348 -2.56468 5.54127 0
M  V30 3493 H 331.762 -0.300699 5.72511 0
M  V30 3494 H 330.159 0.446813 5.98434 0
M  V30 3495 H 331.229 1.08905 4.72512 0
M  V30 3496 N 332.573 -1.56217 0.208337 0
M  V30 3497 C 333.798 -2.02782 -0.435222 0
M  V30 3498 C 334.223 -1.08738 -1.53485 0
M  V30 3499 O 333.581 -0.0731855 -1.81152 0
M  V30 3500 C 333.629 -3.47687 -0.956335 0
M  V30 3501 O 332.733 -3.56773 -2.06849 0
M  V30 3502 H 332.074 -0.656403 -0.100158 0
M  V30 3503 H 334.604 -2.02033 0.3231 0
M  V30 3504 H 334.614 -3.87745 -1.26955 0
M  V30 3505 H 333.289 -4.15624 -0.15143 0
M  V30 3506 H 331.866 -3.28597 -1.76292 0
M  V30 3507 N 334.051 0.0651679 -1.57465 0
M  V30 3508 C 334.999 1.09542 -2.05191 0
M  V30 3509 C 335.993 1.39675 -0.958509 0
M  V30 3510 O 337.199 1.39003 -1.14359 0
M  V30 3511 H 333.574 0.370623 -0.654326 0
M  V30 3512 H 335.545 0.666802 -2.90854 0
M  V30 3513 C 334.294 2.39881 -2.51699 0
M  V30 3514 H 333.617 2.17547 -3.3543 0
M  V30 3515 H 335.057 3.104 -2.88839 0
M  V30 3516 C 333.516 3.0631 -1.40271 0
M  V30 3517 O 334.046 3.94664 -0.748523 0
M  V30 3518 N 332.252 2.67041 -1.14618 0
M  V30 3519 H 331.799 1.95281 -1.67997 0
M  V30 3520 H 331.757 3.1181 -0.402688 0
M  V30 3521 N 335.529 1.53961 0.336706 0
M  V30 3522 C 336.492 1.81724 1.39675 0
M  V30 3523 C 337.492 0.688532 1.45313 0
M  V30 3524 O 338.682 0.956829 1.45569 0
M  V30 3525 C 335.814 1.96543 2.78538 0
M  V30 3526 H 337.007 2.76424 1.16318 0
M  V30 3527 H 334.56 1.45478 0.571474 0
M  V30 3528 H 335.295 1.0401 3.07168 0
M  V30 3529 H 335.08 2.78665 2.75841 0
M  V30 3530 H 336.57 2.19516 3.5525 0
M  V30 3531 N 337.007 -0.598083 1.45811 0
M  V30 3532 C 338.254 -1.35681 1.50323 0
M  V30 3533 C 338.582 -1.9393 0.148739 0
M  V30 3534 O 337.837 -1.76094 -0.853787 0
M  V30 3535 C 338.136 -2.51669 2.53766 0
M  V30 3536 C 337.802 -2.11508 3.98215 0
M  V30 3537 C 336.464 -2.0027 4.37545 0
M  V30 3538 C 338.816 -1.80308 4.89018 0
M  V30 3539 C 336.144 -1.56067 5.65562 0
M  V30 3540 C 338.496 -1.37589 6.17456 0
M  V30 3541 C 337.16 -1.24916 6.55708 0
M  V30 3542 H 336.43 -0.496492 0.550069 0
M  V30 3543 H 339.077 -0.675052 1.79207 0
M  V30 3544 H 337.382 -3.25225 2.18486 0
M  V30 3545 H 339.079 -3.09895 2.54492 0
M  V30 3546 H 335.669 -2.21185 3.67117 0
M  V30 3547 H 339.853 -1.87884 4.59362 0
M  V30 3548 H 335.109 -1.44886 5.93985 0
M  V30 3549 H 339.283 -1.12495 6.87254 0
M  V30 3550 H 336.91 -0.904386 7.54801 0
M  V30 3551 N 338.485 -1.33259 -0.841409 0
M  V30 3552 C 339.433 -1.23279 -1.97244 0
M  V30 3553 C 340.427 -0.134706 -1.68864 0
M  V30 3554 O 341.633 -0.298501 -1.77508 0
M  V30 3555 H 338.008 -0.382497 -0.647457 0
M  V30 3556 H 339.979 -2.18906 -2.02787 0
M  V30 3557 C 338.728 -0.986268 -3.33419 0
M  V30 3558 H 338.051 -1.82347 -3.55794 0
M  V30 3559 H 339.491 -0.956728 -4.13065 0
M  V30 3560 C 337.95 0.310842 -3.35463 0
M  V30 3561 O 338.48 1.31838 -3.79449 0
M  V30 3562 N 336.686 0.337485 -2.88634 0
M  V30 3563 H 336.233 -0.482967 -2.53032 0
M  V30 3564 H 336.191 1.20518 -2.90384 0
M  V30 3565 N 339.963 1.05934 -1.16686 0
M  V30 3566 C 341.188 1.83029 -0.975455 0
M  V30 3567 C 341.613 1.82096 0.471452 0
M  V30 3568 O 340.971 1.22443 1.33706 0
M  V30 3569 C 341.019 3.27372 -1.51195 0
M  V30 3570 O 340.123 4.06054 -0.720701 0
M  V30 3571 H 339.464 0.566194 -0.346872 0
M  V30 3572 H 341.994 1.33541 -1.55009 0
M  V30 3573 H 342.004 3.78186 -1.53099 0
M  V30 3574 H 340.679 3.27366 -2.56523 0
M  V30 3575 H 339.256 3.64812 -0.772458 0
M  V30 3576 N 341.441 0.965919 1.2453 0
M  V30 3577 C 342.389 0.486506 2.27455 0
M  V30 3578 C 343.383 -0.449041 1.6334 0
M  V30 3579 O 344.589 -0.324527 1.7705 0
M  V30 3580 H 340.964 0.138857 0.739069 0
M  V30 3581 H 342.935 1.3666 2.65267 0
M  V30 3582 C 341.684 -0.209481 3.47068 0
M  V30 3583 H 341.007 0.50129 3.96645 0
M  V30 3584 H 342.447 -0.508775 4.20936 0
M  V30 3585 C 340.906 -1.43586 3.0477 0
M  V30 3586 O 341.436 -2.53299 3.11773 0
M  V30 3587 N 339.642 -1.30126 2.59838 0
M  V30 3588 H 339.189 -0.408583 2.54339 0
M  V30 3589 H 339.147 -2.12294 2.31902 0
M  V30 3590 N 342.919 -1.39368 0.735821 0
M  V30 3591 C 343.852 -2.28155 0.0451175 0
M  V30 3592 C 344.83 -1.44433 -0.746852 0
M  V30 3593 O 346.014 -1.73823 -0.729237 0
M  V30 3594 C 343.141 -3.253 -0.943266 0
M  V30 3595 C 342.187 -4.25826 -0.239685 0
M  V30 3596 S 343.02 -5.25166 1.04693 0
M  V30 3597 C 344.176 -6.2587 0.0611639 0
M  V30 3598 H 344.409 -2.86388 0.79807 0
M  V30 3599 H 341.942 -1.45104 0.527653 0
M  V30 3600 H 343.9 -3.81789 -1.50824 0
M  V30 3601 H 342.561 -2.66085 -1.66906 0
M  V30 3602 H 341.754 -4.94229 -0.987596 0
M  V30 3603 H 341.356 -3.73141 0.253274 0
M  V30 3604 H 343.648 -6.73007 -0.778941 0
M  V30 3605 H 344.591 -7.04508 0.712362 0
M  V30 3606 H 344.999 -5.63639 -0.311602 0
M  V30 3607 N 344.397 -0.483516 -1.5 0
M  V30 3608 C 345.307 0.309172 -2.32554 0
M  V30 3609 C 346.323 0.984159 -1.43493 0
M  V30 3610 O 347.499 0.969399 -1.76535 0
M  V30 3611 C 344.564 1.36979 -3.18493 0
M  V30 3612 C 343.625 0.710095 -4.23387 0
M  V30 3613 C 342.858 1.72018 -5.05218 0
M  V30 3614 O 343.081 2.94813 -4.88305 0
M  V30 3615 O 342.015 1.28515 -5.8802 0
M  V30 3616 H 345.841 -0.366064 -3.01486 0
M  V30 3617 H 343.426 -0.24514 -1.47375 0
M  V30 3618 H 345.308 1.98385 -3.71781 0
M  V30 3619 H 343.983 2.02828 -2.52275 0
M  V30 3620 H 342.89 0.0567539 -3.74057 0
M  V30 3621 H 344.223 0.0943557 -4.9211 0
M  V30 3622 N 345.875 1.56104 -0.216619 0
M  V30 3623 C 346.807 2.17339 0.72776 0
M  V30 3624 C 347.82 1.14109 1.16116 0
M  V30 3625 O 349.009 1.4111 1.09317 0
M  V30 3626 C 346.109 2.73818 1.99693 0
M  V30 3627 C 345.282 4.02168 1.71988 0
M  V30 3628 C 344.341 4.43259 2.83562 0
M  V30 3629 O 343.367 5.10257 2.52244 0
M  V30 3630 N 344.569 4.08535 4.12407 0
M  V30 3631 H 347.334 2.99005 0.203983 0
M  V30 3632 H 344.895 1.61861 -0.0354289 0
M  V30 3633 H 346.887 2.9828 2.73516 0
M  V30 3634 H 345.457 1.96483 2.43132 0
M  V30 3635 H 344.677 3.85612 0.818337 0
M  V30 3636 H 345.965 4.85907 1.50903 0
M  V30 3637 H 345.363 3.54687 4.40696 0
M  V30 3638 H 343.92 4.37901 4.8279 0
M  V30 3639 N 347.353 -0.0568162 1.57498 0
M  V30 3640 C 348.599 -0.75422 1.88253 0
M  V30 3641 C 348.932 -1.76461 0.810865 0
M  V30 3642 O 348.207 -1.93691 -0.177259 0
M  V30 3643 C 348.49 -1.44878 3.2967 0
M  V30 3644 C 348.343 -0.453789 4.47505 0
M  V30 3645 C 349.662 -2.38994 3.69554 0
M  V30 3646 H 346.781 -0.272724 0.684683 0
M  V30 3647 H 349.423 -0.0172113 1.89992 0
M  V30 3648 H 347.573 -2.077 3.28318 0
M  V30 3649 H 349.245 0.170371 4.60985 0
M  V30 3650 H 347.488 0.229552 4.33192 0
M  V30 3651 H 348.159 -0.977699 5.43273 0
M  V30 3652 H 350.635 -1.86239 3.72095 0
M  V30 3653 H 349.511 -2.84587 4.69363 0
M  V30 3654 H 349.772 -3.24461 3.00296 0
M  V30 3655 N 348.832 -1.54138 -0.328536 0
M  V30 3656 C 349.764 -1.79509 -1.4251 0
M  V30 3657 C 350.777 -0.67688 -1.48061 0
M  V30 3658 O 351.966 -0.953898 -1.50874 0
M  V30 3659 C 349.066 -1.89337 -2.81078 0
M  V30 3660 C 348.239 -3.19443 -2.98789 0
M  V30 3661 C 347.298 -3.20036 -4.17688 0
M  V30 3662 O 346.324 -3.93697 -4.11086 0
M  V30 3663 N 347.526 -2.43467 -5.26976 0
M  V30 3664 H 350.291 -2.74139 -1.21111 0
M  V30 3665 H 347.852 -1.53373 -0.518499 0
M  V30 3666 H 349.844 -1.87167 -3.58818 0
M  V30 3667 H 348.414 -1.01826 -2.95551 0
M  V30 3668 H 347.634 -3.34614 -2.08391 0
M  V30 3669 H 348.922 -4.05354 -3.07515 0
M  V30 3670 H 348.32 -1.83201 -5.35214 0
M  V30 3671 H 346.877 -2.4708 -6.03154 0
M  V30 3672 N 350.31 0.590341 -1.46126 0
M  V30 3673 C 351.24 1.71032 -1.58966 0
M  V30 3674 C 352.221 1.64302 -0.440335 0
M  V30 3675 O 353.406 1.82436 -0.665634 0
M  V30 3676 C 350.536 3.09665 -1.57241 0
M  V30 3677 C 349.49 3.31221 -2.71066 0
M  V30 3678 C 348.816 4.70303 -2.54399 0
M  V30 3679 C 350.116 3.19796 -4.1295 0
M  V30 3680 H 351.81 1.60543 -2.52718 0
M  V30 3681 H 349.356 0.770933 -1.21625 0
M  V30 3682 H 351.309 3.87831 -1.64819 0
M  V30 3683 H 350.033 3.21036 -0.600289 0
M  V30 3684 H 348.692 2.55452 -2.62944 0
M  V30 3685 H 348.34 4.78429 -1.55288 0
M  V30 3686 H 348.04 4.85679 -3.30741 0
M  V30 3687 H 349.564 5.50647 -2.63857 0
M  V30 3688 H 350.978 3.87815 -4.22223 0
M  V30 3689 H 349.375 3.46696 -4.89818 0
M  V30 3690 H 350.445 2.16983 -4.33643 0
M  V30 3691 N 351.788 1.33704 0.83433 0
M  V30 3692 C 353.034 1.25603 1.59222 0
M  V30 3693 C 353.367 -0.176659 1.93395 0
M  V30 3694 O 352.642 -1.11915 1.59076 0
M  V30 3695 C 352.925 2.13576 2.89926 0
M  V30 3696 C 352.778 3.65326 2.62406 0
M  V30 3697 C 354.097 2.01238 3.91397 0
M  V30 3698 H 351.216 0.457613 0.577719 0
M  V30 3699 H 353.858 1.63848 0.961972 0
M  V30 3700 H 352.008 1.8109 3.43713 0
M  V30 3701 H 353.68 4.08124 2.15017 0
M  V30 3702 H 351.923 3.8698 1.96033 0
M  V30 3703 H 352.594 4.22232 3.55562 0
M  V30 3704 H 355.07 2.29738 3.46929 0
M  V30 3705 H 353.946 2.65036 4.80673 0
M  V30 3706 H 354.207 0.985951 4.30966 0
M  V30 3707 N 353.266 -1.05314 1.17247 0
M  V30 3708 C 354.213 -2.13031 0.888058 0
M  V30 3709 C 355.183 -1.65253 -0.167537 0
M  V30 3710 O 356.368 -1.90775 -0.0305974 0
M  V30 3711 C 353.508 -3.42702 0.406147 0
M  V30 3712 C 352.621 -4.04161 1.52572 0
M  V30 3713 C 351.756 -5.21744 0.997808 0
M  V30 3714 C 350.795 -5.75207 2.09291 0
M  V30 3715 N 349.932 -6.84094 1.57986 0
M  V30 3716 H 354.772 -2.36698 1.81048 0
M  V30 3717 H 352.309 -1.16121 0.903013 0
M  V30 3718 H 354.267 -4.17059 0.108305 0
M  V30 3719 H 352.897 -3.19222 -0.479313 0
M  V30 3720 H 351.949 -3.27253 1.93931 0
M  V30 3721 H 353.261 -4.39881 2.35172 0
M  V30 3722 H 352.415 -6.03168 0.653739 0
M  V30 3723 H 351.154 -4.87495 0.141232 0
M  V30 3724 H 350.159 -4.92414 2.44557 0
M  V30 3725 H 351.384 -6.11505 2.95362 0
M  V30 3726 H 349.33 -6.51745 0.74598 0
M  V30 3727 H 349.247 -7.18811 2.34195 0
M  V30 3728 H 350.515 -7.69172 1.26468 0
M  V30 3729 N 354.744 -0.972509 -1.24016 0
M  V30 3730 C 355.992 -0.635776 -1.91839 0
M  V30 3731 C 356.313 0.832312 -1.76345 0
M  V30 3732 O 355.583 1.5946 -1.13795 0
M  V30 3733 H 354.163 -0.232157 -0.710009 0
M  V30 3734 H 356.825 -1.23462 -1.50809 0
M  V30 3735 H 355.921 -0.880545 -2.99421 0
M  V30 3736 N 356.222 1.38976 -0.743202 0
M  V30 3737 C 357.471 1.99581 -0.291592 0
M  V30 3738 C 357.784 1.59656 1.13001 0
M  V30 3739 O 358.99 2.13157 1.68156 0
M  V30 3740 C 357.446 3.56813 -0.470391 0
M  V30 3741 C 357.054 4.05695 -1.90041 0
M  V30 3742 C 358.798 4.24423 -0.0809709 0
M  V30 3743 C 356.705 5.5553 -2.02832 0
M  V30 3744 H 355.635 0.746615 -0.105272 0
M  V30 3745 H 358.286 1.58872 -0.918258 0
M  V30 3746 H 356.668 3.95359 0.225299 0
M  V30 3747 H 357.842 3.78464 -2.62872 0
M  V30 3748 H 356.157 3.50775 -2.24379 0
M  V30 3749 H 358.754 5.34474 -0.155445 0
M  V30 3750 H 359.097 4.04962 0.96497 0
M  V30 3751 H 359.63 3.9108 -0.728124 0
M  V30 3752 H 356.369 5.79881 -3.05643 0
M  V30 3753 H 355.889 5.84537 -1.34448 0
M  V30 3754 H 357.568 6.21069 -1.81335 0
M  V30 3755 N 357.7 0.491464 1.49741 0
M  V30 3756 C 358.977 -0.118984 1.95238 0
M  V30 3757 C 359.357 -1.55044 1.43264 0
M  V30 3758 O 358.705 -2.19287 0.642287 0
M  V30 3759 C 358.915 -0.0414187 3.48975 0
M  V30 3760 C 360.263 -0.220133 4.24029 0
M  V30 3761 O 361.287 -0.117055 3.56008 0
M  V30 3762 O 360.146 -0.430567 5.44801 0
M  V30 3763 H 357.24 -0.100536 0.820866 0
M  V30 3764 H 359.786 0.553322 1.60426 0
M  V30 3765 H 358.558 0.957214 3.79412 0
M  V30 3766 H 358.181 -0.754292 3.9038 0
M  V30 3767 N 359.178 -1.55987 0.224894 0
M  V30 3768 C 360.128 -2.17076 -0.697296 0
M  V30 3769 C 361.112 -1.12006 -1.15514 0
M  V30 3770 O 362.304 -1.37985 -1.10857 0
M  V30 3771 C 359.433 -2.85679 -1.90374 0
M  V30 3772 C 358.519 -3.97977 -1.46543 0
M  V30 3773 N 358.91 -5.00359 -0.739909 0
M  V30 3774 C 357.208 -4.10128 -1.75245 0
M  V30 3775 C 357.909 -5.79407 -0.515939 0
M  V30 3776 N 356.885 -5.32892 -1.07364 0
M  V30 3777 H 360.687 -2.93592 -0.134594 0
M  V30 3778 H 358.201 -1.62379 0.0262885 0
M  V30 3779 H 360.198 -3.27857 -2.57518 0
M  V30 3780 H 358.858 -2.1066 -2.47088 0
M  V30 3781 H 359.869 -5.16412 -0.392253 0
M  V30 3782 H 356.546 -3.46263 -2.33255 0
M  V30 3783 H 357.936 -6.71872 0.0617349 0
M  V30 3784 N 360.656 0.0484629 -1.57525 0
M  V30 3785 C 362.067 0.597486 -1.76881 0
M  V30 3786 C 362.418 1.76664 -0.853475 0
M  V30 3787 O 361.543 2.16357 -0.0433656 0
M  V30 3788 C 362.138 1.09066 -3.20765 0
M  V30 3789 C 360.697 1.58535 -3.41385 0
M  V30 3790 C 359.844 0.514868 -2.72478 0
M  V30 3791 H 362.795 -0.177758 -1.57701 0
M  V30 3792 H 362.816 1.95875 -3.2621 0
M  V30 3793 H 362.328 0.239521 -3.8736 0
M  V30 3794 H 360.429 2.45898 -2.79937 0
M  V30 3795 H 360.542 1.64622 -4.49929 0
M  V30 3796 H 358.906 0.965407 -2.35695 0
M  V30 3797 H 359.689 -0.32648 -3.41744 0
M  V30 3798 N 362.134 1.5431 0.320358 0
M  V30 3799 C 363.381 1.72668 1.05792 0
M  V30 3800 C 363.709 0.502084 1.87908 0
M  V30 3801 O 362.964 -0.516149 1.88771 0
M  V30 3802 C 363.263 2.95639 2.00828 0
M  V30 3803 C 362.929 4.30265 1.34843 0
M  V30 3804 C 361.591 4.66865 1.16578 0
M  V30 3805 C 363.943 5.13801 0.875095 0
M  V30 3806 C 361.271 5.84597 0.496336 0
M  V30 3807 C 363.623 6.32219 0.219463 0
M  V30 3808 C 362.287 6.67495 0.0246915 0
M  V30 3809 H 361.557 0.631837 0.387121 0
M  V30 3810 H 364.204 1.88552 0.334735 0
M  V30 3811 H 362.509 2.74456 2.79609 0
M  V30 3812 H 364.206 3.07038 2.57932 0
M  V30 3813 H 360.796 4.01472 1.50061 0
M  V30 3814 H 364.98 4.86039 1.00398 0
M  V30 3815 H 360.236 6.10486 0.334264 0
M  V30 3816 H 364.41 6.96227 -0.155291 0
M  V30 3817 H 362.037 7.5858 -0.496065 0
M  V30 3818 N 363.613 -0.582584 1.46437 0
M  V30 3819 C 364.543 -1.70187 1.59871 0
M  V30 3820 C 365.524 -1.64066 0.449042 0
M  V30 3821 O 366.709 -1.82081 0.6753 0
M  V30 3822 C 363.839 -3.08827 1.58881 0
M  V30 3823 C 362.793 -3.29779 2.72819 0
M  V30 3824 C 362.119 -4.68947 2.5689 0
M  V30 3825 C 363.419 -3.17601 4.1464 0
M  V30 3826 H 365.113 -1.592 2.53566 0
M  V30 3827 H 362.659 -0.764472 1.22032 0
M  V30 3828 H 364.612 -3.86951 1.66873 0
M  V30 3829 H 363.336 -3.20713 0.617306 0
M  V30 3830 H 361.995 -2.54054 2.64296 0
M  V30 3831 H 361.643 -4.77599 1.57823 0
M  V30 3832 H 361.343 -4.83919 3.33312 0
M  V30 3833 H 362.867 -5.4924 2.66773 0
M  V30 3834 H 364.281 -3.8557 4.24274 0
M  V30 3835 H 362.678 -3.44094 4.9165 0
M  V30 3836 H 363.748 -2.14681 4.34788 0
M  V30 3837 N 365.091 -1.34144 -0.827227 0
M  V30 3838 C 366.021 -1.28005 -1.95287 0
M  V30 3839 C 367.002 -0.158321 -1.69362 0
M  V30 3840 O 368.187 -0.349987 -1.9102 0
M  V30 3841 C 365.317 -1.03036 -3.31664 0
M  V30 3842 C 364.271 -2.11628 -3.72019 0
M  V30 3843 C 363.597 -1.71854 -5.0633 0
M  V30 3844 C 364.897 -3.53417 -3.8457 0
M  V30 3845 H 366.591 -2.22187 -2.00682 0
M  V30 3846 H 364.137 -1.0696 -0.964135 0
M  V30 3847 H 366.09 -0.973863 -4.09993 0
M  V30 3848 H 364.814 -0.0529391 -3.26557 0
M  V30 3849 H 363.473 -2.16339 -2.95961 0
M  V30 3850 H 363.121 -0.727841 -4.97706 0
M  V30 3851 H 362.821 -2.44531 -5.34302 0
M  V30 3852 H 364.345 -1.67692 -5.87122 0
M  V30 3853 H 365.759 -3.51142 -4.5318 0
M  V30 3854 H 364.156 -4.24679 -4.2399 0
M  V30 3855 H 365.226 -3.91072 -2.86689 0
M  V30 3856 N 366.569 1.04691 -1.17803 0
M  V30 3857 C 367.846 1.7472 -0.879328 0
M  V30 3858 C 368.226 2.01812 0.619271 0
M  V30 3859 O 367.574 1.65824 1.57209 0
M  V30 3860 C 367.784 3.03686 -1.71976 0
M  V30 3861 C 369.132 3.77542 -1.94286 0
M  V30 3862 O 370.156 3.13569 -1.68976 0
M  V30 3863 O 369.015 4.92506 -2.36855 0
M  V30 3864 H 366.109 0.760011 -0.326056 0
M  V30 3865 H 368.655 1.10813 -1.28525 0
M  V30 3866 H 367.427 2.79754 -2.73594 0
M  V30 3867 H 367.05 3.75332 -1.31194 0
M  V30 3868 N 368.047 0.979072 1.23499 0
M  V30 3869 C 368.979 0.476271 2.24197 0
M  V30 3870 C 369.992 -0.421166 1.57258 0
M  V30 3871 O 371.181 -0.225515 1.7707 0
M  V30 3872 C 368.281 -0.330503 3.37285 0
M  V30 3873 C 367.454 0.559744 4.33804 0
M  V30 3874 C 366.513 -0.192954 5.25846 0
M  V30 3875 O 365.539 0.416978 5.67671 0
M  V30 3876 N 366.741 -1.47932 5.61334 0
M  V30 3877 H 369.506 1.34211 2.67969 0
M  V30 3878 H 367.067 0.852189 1.37657 0
M  V30 3879 H 369.059 -0.842361 3.95836 0
M  V30 3880 H 367.629 -1.09734 2.92707 0
M  V30 3881 H 366.849 1.25245 3.73775 0
M  V30 3882 H 368.137 1.1665 4.95248 0
M  V30 3883 H 367.535 -1.9964 5.29302 0
M  V30 3884 H 366.092 -1.93664 6.22364 0
M  V30 3885 N 369.525 -1.3858 0.750561 0
M  V30 3886 C 370.455 -2.33102 0.136237 0
M  V30 3887 C 371.436 -1.54713 -0.706965 0
M  V30 3888 O 372.621 -1.83043 -0.648769 0
M  V30 3889 C 369.751 -3.38882 -0.760017 0
M  V30 3890 C 368.705 -4.27995 -0.0197785 0
M  V30 3891 C 368.031 -5.24605 -1.03408 0
M  V30 3892 C 369.331 -5.09554 1.14684 0
M  V30 3893 H 371.025 -2.84726 0.925822 0
M  V30 3894 H 368.571 -1.36898 0.446654 0
M  V30 3895 H 370.524 -4.0397 -1.19943 0
M  V30 3896 H 369.248 -2.85734 -1.58189 0
M  V30 3897 H 367.907 -3.64409 0.400184 0
M  V30 3898 H 367.555 -4.67746 -1.84994 0
M  V30 3899 H 367.255 -5.85081 -0.543464 0
M  V30 3900 H 368.779 -5.9257 -1.47288 0
M  V30 3901 H 370.193 -5.67899 0.785118 0
M  V30 3902 H 368.59 -5.7925 1.56812 0
M  V30 3903 H 369.66 -4.4347 1.96118 0
M  V30 3904 N 371.003 -0.499398 -1.49478 0
M  V30 3905 C 372.251 0.0455996 -2.02049 0
M  V30 3906 C 372.572 1.37633 -1.38138 0
M  V30 3907 O 371.842 1.8842 -0.536166 0
M  V30 3908 H 370.422 0.0198416 -0.746736 0
M  V30 3909 H 373.084 -0.656274 -1.83519 0
M  V30 3910 H 372.18 0.176445 -3.11601 0
M  V30 3911 N 372.481 1.55866 -0.233164 0
M  V30 3912 C 373.411 2.23783 0.666599 0
M  V30 3913 C 374.392 1.21343 1.19205 0
M  V30 3914 O 375.577 1.4996 1.23392 0
M  V30 3915 C 372.707 2.92671 1.86978 0
M  V30 3916 C 371.661 4.01682 1.47768 0
M  V30 3917 C 370.987 4.57926 2.76058 0
M  V30 3918 C 372.287 5.18126 0.658993 0
M  V30 3919 H 373.981 2.99232 0.100306 0
M  V30 3920 H 371.527 1.43924 0.046804 0
M  V30 3921 H 373.48 3.3888 2.50476 0
M  V30 3922 H 372.204 2.14688 2.46123 0
M  V30 3923 H 370.863 3.56222 0.866106 0
M  V30 3924 H 370.511 3.76659 3.33372 0
M  V30 3925 H 370.211 5.31505 2.50552 0
M  V30 3926 H 371.735 5.06859 3.40479 0
M  V30 3927 H 373.149 5.60644 1.19795 0
M  V30 3928 H 371.546 5.98009 0.500552 0
M  V30 3929 H 372.616 4.83763 -0.331856 0
M  V30 3930 N 373.959 -0.0401083 1.57549 0
M  V30 3931 C 375.236 -0.767917 1.79896 0
M  V30 3932 C 375.616 -1.9416 0.82856 0
M  V30 3933 O 374.964 -2.2812 -0.131671 0
M  V30 3934 C 375.174 -1.2113 3.27305 0
M  V30 3935 C 376.522 -1.63175 3.91994 0
M  V30 3936 O 377.546 -1.30616 3.31388 0
M  V30 3937 O 376.405 -2.23565 4.98679 0
M  V30 3938 H 373.499 -0.370441 0.739393 0
M  V30 3939 H 376.045 -0.017737 1.69691 0
M  V30 3940 H 374.817 -0.372937 3.89519 0
M  V30 3941 H 374.44 -2.02183 3.42356 0
M  V30 3942 N 375.437 -1.54477 -0.31217 0
M  V30 3943 C 376.384 -1.84655 -1.38461 0
M  V30 3944 C 377.354 -0.694536 -1.50882 0
M  V30 3945 O 378.539 -0.942081 -1.6592 0
M  V30 3946 C 375.679 -2.0896 -2.74645 0
M  V30 3947 C 374.792 -3.36618 -2.70763 0
M  V30 3948 C 373.927 -3.50824 -3.98868 0
M  V30 3949 C 372.966 -4.72315 -3.89339 0
M  V30 3950 N 372.103 -4.83387 -5.09197 0
M  V30 3951 H 376.943 -2.76142 -1.12026 0
M  V30 3952 H 374.48 -1.36748 -0.542065 0
M  V30 3953 H 376.438 -2.21045 -3.53829 0
M  V30 3954 H 375.068 -1.20752 -2.99364 0
M  V30 3955 H 374.12 -3.33211 -1.83506 0
M  V30 3956 H 375.432 -4.25917 -2.59608 0
M  V30 3957 H 374.586 -3.62513 -4.86486 0
M  V30 3958 H 373.325 -2.59638 -4.12843 0
M  V30 3959 H 372.33 -4.6067 -3.00105 0
M  V30 3960 H 373.555 -5.64897 -3.76919 0
M  V30 3961 H 371.501 -3.9512 -5.23657 0
M  V30 3962 H 371.418 -5.66669 -5.00422 0
M  V30 3963 H 372.686 -4.9942 -5.98498 0
M  V30 3964 N 376.915 0.57481 -1.46744 0
M  V30 3965 C 377.825 1.711 -1.60505 0
M  V30 3966 C 378.841 1.67008 -0.488307 0
M  V30 3967 O 380.017 1.86774 -0.753495 0
M  V30 3968 C 377.082 3.07608 -1.59932 0
M  V30 3969 C 376.143 3.22904 -2.82898 0
M  V30 3970 C 375.376 4.529 -2.82343 0
M  V30 3971 O 375.599 5.37278 -1.91542 0
M  V30 3972 O 374.533 4.71611 -3.73987 0
M  V30 3973 H 378.359 1.62436 -2.56609 0
M  V30 3974 H 375.944 0.742779 -1.29627 0
M  V30 3975 H 377.826 3.88877 -1.62336 0
M  V30 3976 H 376.501 3.16692 -0.669898 0
M  V30 3977 H 375.408 2.41099 -2.86046 0
M  V30 3978 H 376.741 3.18715 -3.75076 0
M  V30 3979 N 378.394 1.34581 0.820102 0
M  V30 3980 C 379.326 1.22236 1.93884 0
M  V30 3981 C 380.339 0.148776 1.62119 0
M  V30 3982 O 381.528 0.400877 1.7394 0
M  V30 3983 C 378.628 0.856542 3.27897 0
M  V30 3984 C 377.801 2.02569 3.87666 0
M  V30 3985 C 376.86 1.63782 5.00062 0
M  V30 3986 O 375.886 2.35477 5.18208 0
M  V30 3987 N 377.088 0.553611 5.77854 0
M  V30 3988 H 379.853 2.18615 2.05006 0
M  V30 3989 H 377.414 1.27573 0.99683 0
M  V30 3990 H 379.406 0.578806 4.0054 0
M  V30 3991 H 377.976 -0.0171518 3.12595 0
M  V30 3992 H 377.196 2.468 3.07382 0
M  V30 3993 H 378.484 2.80752 4.24329 0
M  V30 3994 H 377.882 -0.0423528 5.65684 0
M  V30 3995 H 376.439 0.335614 6.50935 0
M  V30 3996 N 379.872 -1.04064 1.18357 0
M  V30 3997 C 380.835 -2.10243 0.912707 0
M  V30 3998 C 381.835 -1.60477 -0.101928 0
M  V30 3999 O 383.025 -1.73703 0.131517 0
M  V30 4000 C 380.157 -3.38893 0.369387 0
M  V30 4001 H 381.35 -2.35706 1.85426 0
M  V30 4002 H 378.903 -1.20489 0.995594 0
M  V30 4003 H 379.638 -3.19094 -0.578776 0
M  V30 4004 H 379.423 -3.76331 1.1008 0
M  V30 4005 H 380.913 -4.17128 0.198575 0
M  V30 4006 N 381.35 -0.985608 -1.22978 0
M  V30 4007 C 382.766 -0.695104 -1.43668 0
M  V30 4008 C 382.966 0.736866 -1.87543 0
M  V30 4009 O 382.022 1.50868 -2.02473 0
M  V30 4010 C 383.335 -1.69447 -2.48412 0
M  V30 4011 C 384.883 -1.70909 -2.62219 0
M  V30 4012 C 385.358 -2.6969 -3.70178 0
M  V30 4013 N 386.849 -2.6824 -3.77626 0
M  V30 4014 C 387.584 -3.41339 -4.60733 0
M  V30 4015 N 387.08 -4.24015 -5.4789 0
M  V30 4016 N 388.873 -3.30079 -4.54977 0
M  V30 4017 H 381.024 -1.91054 -0.928016 0
M  V30 4018 H 383.287 -0.823553 -0.469536 0
M  V30 4019 H 382.993 -2.7188 -2.23102 0
M  V30 4020 H 382.867 -1.48147 -3.46889 0
M  V30 4021 H 385.254 -0.691785 -2.86877 0
M  V30 4022 H 385.335 -1.96276 -1.6404 0
M  V30 4023 H 384.979 -3.71566 -3.46268 0
M  V30 4024 H 384.909 -2.41595 -4.67909 0
M  V30 4025 H 387.4 -2.08243 -3.15346 0
M  V30 4026 H 387.713 -4.76636 -6.08308 0
M  V30 4027 H 386.058 -4.28104 -5.47496 0
M  V30 4028 H 389.249 -2.64937 -3.85909 0
M  V30 4029 H 389.422 -3.87308 -5.19516 0
M  V30 4030 N 382.828 1.3818 -0.7579 0
M  V30 4031 C 383.758 2.33027 -0.148597 0
M  V30 4032 C 384.739 1.55085 0.69875 0
M  V30 4033 O 385.924 1.83384 0.639053 0
M  V30 4034 C 383.054 3.3928 0.742034 0
M  V30 4035 C 382.008 4.28 -0.00291946 0
M  V30 4036 C 381.334 5.25146 1.00625 0
M  V30 4037 C 382.634 5.08938 -1.17385 0
M  V30 4038 H 384.328 2.84231 -0.940909 0
M  V30 4039 H 381.874 1.36659 -0.453908 0
M  V30 4040 H 383.827 4.046 1.17799 0
M  V30 4041 H 382.551 2.86569 1.56671 0
M  V30 4042 H 381.21 3.64192 -0.419504 0
M  V30 4043 H 380.858 4.68721 1.8251 0
M  V30 4044 H 380.558 5.85361 0.512428 0
M  V30 4045 H 382.082 5.93342 1.44143 0
M  V30 4046 H 383.496 5.67474 -0.815224 0
M  V30 4047 H 381.893 5.7841 -1.59882 0
M  V30 4048 H 382.963 4.42424 -1.98468 0
M  V30 4049 N 384.306 0.507319 1.49211 0
M  V30 4050 C 385.534 -0.0315749 2.06876 0
M  V30 4051 C 385.949 -1.30241 1.36685 0
M  V30 4052 O 385.306 -1.76937 0.447152 0
M  V30 4053 C 385.357 -0.282627 3.60393 0
M  V30 4054 O 385.078 0.937835 4.27944 0
M  V30 4055 C 386.579 -0.864453 4.3479 0
M  V30 4056 H 383.799 0.0233048 0.670595 0
M  V30 4057 H 386.343 0.706484 1.91909 0
M  V30 4058 H 384.498 -0.97068 3.75042 0
M  V30 4059 H 384.912 0.704567 5.19746 0
M  V30 4060 H 386.386 -0.989664 5.43056 0
M  V30 4061 H 386.863 -1.86382 3.97692 0
M  V30 4062 H 387.469 -0.213672 4.24763 0
M  V30 4063 N 385.784 -1.5574 0.241426 0
M  V30 4064 C 386.714 -2.24133 -0.654722 0
M  V30 4065 C 387.695 -1.21974 -1.1856 0
M  V30 4066 O 388.88 -1.50612 -1.22595 0
M  V30 4067 C 386.01 -2.93659 -1.85423 0
M  V30 4068 C 384.964 -4.0246 -1.45636 0
M  V30 4069 C 384.29 -4.59383 -2.73626 0
M  V30 4070 C 385.59 -5.18468 -0.631506 0
M  V30 4071 H 387.284 -2.99281 -0.0844353 0
M  V30 4072 H 384.83 -1.43947 -0.0391707 0
M  V30 4073 H 386.783 -3.40203 -2.48676 0
M  V30 4074 H 385.507 -2.15991 -2.44981 0
M  V30 4075 H 384.166 -3.56676 -0.847202 0
M  V30 4076 H 383.814 -3.78422 -3.3137 0
M  V30 4077 H 383.514 -5.32826 -2.4773 0
M  V30 4078 H 385.038 -5.08658 -3.37786 0
M  V30 4079 H 386.452 -5.61272 -1.1682 0
M  V30 4080 H 384.849 -5.98266 -0.468831 0
M  V30 4081 H 385.919 -4.8358 0.357506 0
M  V30 4082 N 387.262 0.0317525 -1.57568 0
M  V30 4083 C 388.539 0.758366 -1.803 0
M  V30 4084 C 388.919 1.93718 -0.838845 0
M  V30 4085 O 388.267 2.28187 0.119571 0
M  V30 4086 C 388.477 1.19392 -3.27943 0
M  V30 4087 C 389.825 1.61094 -3.92854 0
M  V30 4088 O 390.849 1.28857 -3.32076 0
M  V30 4089 O 389.708 2.20918 -4.99858 0
M  V30 4090 H 386.802 0.366514 -0.741348 0
M  V30 4091 H 389.348 0.00873765 -1.69698 0
M  V30 4092 H 388.12 0.352275 -3.89711 0
M  V30 4093 H 387.743 2.00365 -3.43424 0
M  V30 4094 N 388.74 1.54641 0.303973 0
M  V30 4095 C 390.017 1.64455 1.05896 0
M  V30 4096 C 390.397 0.490923 2.05312 0
M  V30 4097 O 389.745 -0.512685 2.22674 0
M  V30 4098 C 389.955 3.02331 1.74347 0
M  V30 4099 C 391.303 3.59045 2.26653 0
M  V30 4100 O 392.327 3.04764 1.84384 0
M  V30 4101 O 391.186 4.54081 3.04093 0
M  V30 4102 H 388.28 0.666729 0.489287 0
M  V30 4103 H 390.826 1.66986 0.302298 0
M  V30 4104 H 389.598 3.77734 1.02142 0
M  V30 4105 H 389.221 3.03565 2.56777 0
M  V30 4106 N 390.218 -0.567019 1.47046 0
M  V30 4107 C 391.446 -1.35027 1.56765 0
M  V30 4108 C 391.861 -1.8758 0.214316 0
M  V30 4109 O 391.218 -1.64471 -0.790919 0
M  V30 4110 C 391.269 -2.52698 2.58507 0
M  V30 4111 O 390.99 -2.0232 3.88585 0
M  V30 4112 C 392.491 -3.45043 2.78316 0
M  V30 4113 H 389.711 -0.41195 0.529658 0
M  V30 4114 H 392.255 -0.687832 1.92585 0
M  V30 4115 H 390.41 -3.149 2.25648 0
M  V30 4116 H 390.824 -2.79068 4.44096 0
M  V30 4117 H 392.298 -4.2405 3.53391 0
M  V30 4118 H 392.775 -3.97971 1.85784 0
M  V30 4119 H 393.381 -2.88665 3.12334 0
M  V30 4120 N 391.696 -1.35014 -0.812953 0
M  V30 4121 C 392.921 -1.31187 -1.60639 0
M  V30 4122 C 393.346 0.109382 -1.87782 0
M  V30 4123 O 392.704 1.07424 -1.46047 0
M  V30 4124 C 392.752 -2.11809 -2.91838 0
M  V30 4125 O 391.856 -1.49444 -3.8437 0
M  V30 4126 H 391.197 -0.450084 -0.488181 0
M  V30 4127 H 393.727 -1.77963 -1.00947 0
M  V30 4128 H 393.737 -2.23531 -3.41318 0
M  V30 4129 H 392.412 -3.15137 -2.71407 0
M  V30 4130 H 390.989 -1.46524 -3.42907 0
M  V30 4131 N 393.175 1.03435 -1.18907 0
M  V30 4132 C 394.424 1.76143 -0.982669 0
M  V30 4133 C 394.737 1.89416 0.487953 0
M  V30 4134 O 395.943 2.59041 0.813036 0
M  V30 4135 C 394.399 3.16722 -1.70924 0
M  V30 4136 C 394.007 3.11522 -3.21959 0
M  V30 4137 C 395.751 3.93764 -1.58588 0
M  V30 4138 C 393.658 4.46999 -3.87228 0
M  V30 4139 H 392.588 0.660292 -0.364047 0
M  V30 4140 H 395.239 1.158 -1.42347 0
M  V30 4141 H 393.621 3.775 -1.19623 0
M  V30 4142 H 394.795 2.60158 -3.80335 0
M  V30 4143 H 393.11 2.47978 -3.34508 0
M  V30 4144 H 395.707 4.93963 -2.04707 0
M  V30 4145 H 396.05 4.12794 -0.539142 0
M  V30 4146 H 396.583 3.39576 -2.07203 0
M  V30 4147 H 393.322 4.33174 -4.91976 0
M  V30 4148 H 392.842 4.98441 -3.33642 0
M  V30 4149 H 394.521 5.15898 -3.90459 0
M  V30 4150 N 394.653 0.992116 1.22453 0
M  V30 4151 C 395.878 0.685644 1.95739 0
M  V30 4152 C 396.303 -0.743 1.72804 0
M  V30 4153 O 395.661 -1.50778 1.00676 0
M  V30 4154 C 395.709 0.996293 3.46564 0
M  V30 4155 O 394.813 0.0945512 4.12292 0
M  V30 4156 H 394.154 0.256694 0.612376 0
M  V30 4157 H 396.684 1.32888 1.5557 0
M  V30 4158 H 396.694 0.93781 3.97076 0
M  V30 4159 H 395.369 2.03733 3.62582 0
M  V30 4160 H 393.946 0.208451 3.72317 0
M  V30 4161 N 396.131 -1.37776 0.765217 0
M  V30 4162 C 397.377 -2.00145 0.327072 0
M  V30 4163 C 397.71 -1.60607 -1.09175 0
M  V30 4164 O 396.985 -0.849127 -1.74986 0
M  V30 4165 C 397.268 -3.57109 0.46319 0
M  V30 4166 C 397.121 -4.06576 1.92395 0
M  V30 4167 C 398.44 -4.39888 -0.136473 0
M  V30 4168 H 395.559 -0.727113 0.120316 0
M  V30 4169 H 398.201 -1.63549 0.967039 0
M  V30 4170 H 396.351 -3.88414 -0.0816358 0
M  V30 4171 H 398.023 -3.85864 2.52798 0
M  V30 4172 H 396.266 -3.59011 2.43503 0
M  V30 4173 H 396.937 -5.15639 1.97028 0
M  V30 4174 H 399.413 -4.14803 0.328317 0
M  V30 4175 H 398.289 -5.48899 -0.0110582 0
M  V30 4176 H 398.55 -4.24758 -1.22608 0
M  V30 4177 N 397.609 -0.515225 -1.4894 0
M  V30 4178 C 398.856 0.024215 -2.02486 0
M  V30 4179 C 399.184 1.35671 -1.39368 0
M  V30 4180 O 398.439 1.88566 -0.523574 0
M  V30 4181 C 398.738 0.210595 -3.56779 0
M  V30 4182 C 398.404 -1.04569 -4.38607 0
M  V30 4183 C 397.066 -1.39002 -4.60686 0
M  V30 4184 C 399.418 -1.88008 -4.86109 0
M  V30 4185 C 396.746 -2.568 -5.27514 0
M  V30 4186 C 399.098 -3.04972 -5.54234 0
M  V30 4187 C 397.762 -3.39768 -5.74555 0
M  V30 4188 H 397.032 0.00886088 -0.740947 0
M  V30 4189 H 399.679 -0.678263 -1.79086 0
M  V30 4190 H 397.984 0.99572 -3.78936 0
M  V30 4191 H 399.681 0.642659 -3.95817 0
M  V30 4192 H 396.271 -0.767497 -4.21672 0
M  V30 4193 H 400.455 -1.62719 -4.68867 0
M  V30 4194 H 395.711 -2.8398 -5.41447 0
M  V30 4195 H 399.885 -3.69943 -5.90013 0
M  V30 4196 H 397.512 -4.31148 -6.26112 0
M  V30 4197 N 399.087 1.5561 -0.249682 0
M  V30 4198 C 400.315 2.03411 0.378352 0
M  V30 4199 C 400.73 1.12886 1.51335 0
M  V30 4200 O 400.087 0.143833 1.81932 0
M  V30 4201 C 400.138 3.50537 0.88351 0
M  V30 4202 O 399.859 4.37614 -0.20626 0
M  V30 4203 C 401.36 4.14113 1.58195 0
M  V30 4204 H 398.58 0.664994 0.08958 0
M  V30 4205 H 401.124 2.01044 -0.374357 0
M  V30 4206 H 399.279 3.5343 1.58639 0
M  V30 4207 H 399.693 5.24199 0.177782 0
M  V30 4208 H 401.167 5.18741 1.8871 0
M  V30 4209 H 401.644 3.60767 2.50487 0
M  V30 4210 H 402.25 4.15151 0.923573 0
M  V30 4211 N 400.565 -0.0233959 1.57583 0
M  V30 4212 C 401.842 -0.748794 1.807 0
M  V30 4213 C 402.222 -1.9327 0.849106 0
M  V30 4214 O 401.57 -2.28247 -0.107468 0
M  V30 4215 C 401.78 -1.17651 3.28571 0
M  V30 4216 C 403.128 -1.59008 3.93702 0
M  V30 4217 O 404.152 -1.27094 3.32755 0
M  V30 4218 O 403.011 -2.18264 5.01022 0
M  V30 4219 H 400.105 -0.362578 0.743281 0
M  V30 4220 H 402.651 0.000261958 1.697 0
M  V30 4221 H 401.423 -0.331603 3.89892 0
M  V30 4222 H 401.046 -1.98541 3.44481 0
M  V30 4223 N 402.043 -1.548 -0.295768 0
M  V30 4224 C 402.975 -1.82492 -1.3867 0
M  V30 4225 C 403.988 -0.708134 -1.46592 0
M  V30 4226 O 405.177 -0.985686 -1.48817 0
M  V30 4227 C 402.277 -1.95256 -2.76999 0
M  V30 4228 C 401.45 -3.25709 -2.91946 0
M  V30 4229 C 400.509 -3.28824 -4.10806 0
M  V30 4230 O 399.535 -4.02328 -4.02643 0
M  V30 4231 N 400.737 -2.5459 -5.21694 0
M  V30 4232 H 403.502 -2.76646 -1.15269 0
M  V30 4233 H 401.063 -1.54438 -0.485849 0
M  V30 4234 H 403.055 -1.94736 -3.54768 0
M  V30 4235 H 401.625 -1.08072 -2.93324 0
M  V30 4236 H 400.845 -3.38959 -2.01247 0
M  V30 4237 H 402.133 -4.11786 -2.98847 0
M  V30 4238 H 401.531 -1.94512 -5.31208 0
M  V30 4239 H 400.088 -2.59818 -5.97778 0
M  V30 4240 N 403.521 0.559213 -1.47345 0
M  V30 4241 C 404.932 1.14134 -1.47751 0
M  V30 4242 C 405.283 1.94834 -0.231103 0
M  V30 4243 O 404.408 2.05957 0.664137 0
M  V30 4244 C 405.003 2.07653 -2.67705 0
M  V30 4245 C 403.562 2.61141 -2.71076 0
M  V30 4246 C 402.709 1.3748 -2.40821 0
M  V30 4247 H 405.66 0.345917 -1.54884 0
M  V30 4248 H 405.681 2.91497 -2.44561 0
M  V30 4249 H 405.193 1.4889 -3.58404 0
M  V30 4250 H 403.294 3.23707 -1.84511 0
M  V30 4251 H 403.407 3.02272 -3.7171 0
M  V30 4252 H 401.771 1.68086 -1.91362 0
M  V30 4253 H 402.554 0.805135 -3.33725 0
M  V30 4254 N 404.999 1.35443 0.805782 0
M  V30 4255 C 406.224 1.32037 1.59941 0
M  V30 4256 C 406.649 -0.0994215 1.87837 0
M  V30 4257 O 406.007 -1.06648 1.46615 0
M  V30 4258 C 406.055 2.13354 2.90711 0
M  V30 4259 O 405.159 1.5148 3.83572 0
M  V30 4260 H 404.5 0.452666 0.485787 0
M  V30 4261 H 407.03 1.78496 1.00002 0
M  V30 4262 H 407.04 2.25338 3.40128 0
M  V30 4263 H 405.715 3.16572 2.69732 0
M  V30 4264 H 404.292 1.4834 3.42125 0
M  V30 4265 N 406.477 -1.02803 1.19454 0
M  V30 4266 C 407.726 -1.7562 0.991996 0
M  V30 4267 C 408.039 -1.89672 -0.477901 0
M  V30 4268 O 409.245 -2.59468 -0.799287 0
M  V30 4269 C 407.701 -3.15812 1.72601 0
M  V30 4270 C 407.309 -3.0981 3.23607 0
M  V30 4271 C 409.053 -3.92918 1.60674 0
M  V30 4272 C 406.96 -4.44939 3.89594 0
M  V30 4273 H 405.89 -0.658352 0.367543 0
M  V30 4274 H 408.541 -1.15044 1.42959 0
M  V30 4275 H 406.923 -3.7686 1.21624 0
M  V30 4276 H 408.097 -2.58138 3.81709 0
M  V30 4277 H 406.412 -2.46201 3.35819 0
M  V30 4278 H 409.009 -4.9287 2.07323 0
M  V30 4279 H 409.352 -4.12502 0.561025 0
M  V30 4280 H 409.885 -3.38472 2.09001 0
M  V30 4281 H 406.624 -4.30559 4.94267 0
M  V30 4282 H 406.144 -4.96664 3.36281 0
M  V30 4283 H 407.823 -5.1382 3.93189 0
M  V30 4284 N 407.956 -0.998596 -1.21925 0
M  V30 4285 C 409.202 -0.678667 -1.91107 0
M  V30 4286 C 409.535 0.78791 -1.77498 0
M  V30 4287 O 408.81 1.57043 -1.1475 0
M  V30 4288 C 409.093 -1.09245 -3.43129 0
M  V30 4289 C 408.946 -2.61801 -3.6576 0
M  V30 4290 C 410.265 -0.649984 -4.35274 0
M  V30 4291 H 407.384 -0.248025 -0.694012 0
M  V30 4292 H 410.026 -1.24314 -1.43688 0
M  V30 4293 H 408.176 -0.612171 -3.83647 0
M  V30 4294 H 409.848 -3.17543 -3.34611 0
M  V30 4295 H 408.091 -3.03609 -3.09845 0
M  V30 4296 H 408.762 -2.85804 -4.7225 0
M  V30 4297 H 411.238 -1.0626 -4.02303 0
M  V30 4298 H 410.114 -0.967743 -5.40302 0
M  V30 4299 H 410.375 0.449139 -4.39813 0
M  V30 4300 N 409.434 1.37368 -0.772513 0
M  V30 4301 C 410.683 1.98918 -0.333861 0
M  V30 4302 C 410.996 1.62017 1.09589 0
M  V30 4303 O 412.202 2.16676 1.63596 0
M  V30 4304 C 410.658 3.55735 -0.545971 0
M  V30 4305 C 410.266 4.01573 -1.98603 0
M  V30 4306 C 412.01 4.24156 -0.170979 0
M  V30 4307 C 409.917 5.51102 -2.1457 0
M  V30 4308 H 408.847 0.744214 -0.121085 0
M  V30 4309 H 411.498 1.56888 -0.95175 0
M  V30 4310 H 409.88 3.95748 0.141387 0
M  V30 4311 H 411.054 3.72803 -2.7084 0
M  V30 4312 H 409.369 3.45937 -2.31769 0
M  V30 4313 H 411.966 5.34024 -0.26878 0
M  V30 4314 H 412.309 4.06917 0.878855 0
M  V30 4315 H 412.842 3.89447 -0.810914 0
M  V30 4316 H 409.581 5.73268 -3.17875 0
M  V30 4317 H 409.101 5.81554 -1.46817 0
M  V30 4318 H 410.78 6.17083 -1.94468 0
M  V30 4319 N 410.912 0.523116 1.48665 0
M  V30 4320 C 412.159 -0.0134763 2.02496 0
M  V30 4321 C 412.487 -1.3493 1.40086 0
M  V30 4322 O 411.742 -1.88286 0.533567 0
M  V30 4323 C 412.041 -0.191671 3.56886 0
M  V30 4324 C 411.707 1.06893 4.38046 0
M  V30 4325 C 410.369 1.41443 4.59943 0
M  V30 4326 C 412.721 1.90584 4.85106 0
M  V30 4327 C 410.049 2.59594 5.26144 0
M  V30 4328 C 412.401 3.07907 5.52609 0
M  V30 4329 C 411.065 3.42811 5.72745 0
M  V30 4330 H 410.335 -0.00493133 0.740984 0
M  V30 4331 H 412.982 0.687751 1.78724 0
M  V30 4332 H 411.287 -0.97561 3.79459 0
M  V30 4333 H 412.984 -0.621659 3.96152 0
M  V30 4334 H 409.574 0.789848 4.21259 0
M  V30 4335 H 413.758 1.65203 4.67997 0
M  V30 4336 H 409.014 2.86847 5.39934 0
M  V30 4337 H 413.188 3.73066 5.88043 0
M  V30 4338 H 410.815 4.34462 6.23816 0
M  V30 4339 N 412.39 -1.55475 0.257931 0
M  V30 4340 C 413.618 -2.03609 -0.367559 0
M  V30 4341 C 414.033 -1.13687 -1.50734 0
M  V30 4342 O 413.39 -0.153479 -1.81853 0
M  V30 4343 C 413.441 -3.51001 -0.864908 0
M  V30 4344 O 413.162 -4.37499 0.229465 0
M  V30 4345 C 414.663 -4.14946 -1.55997 0
M  V30 4346 H 411.883 -0.665459 -0.0860521 0
M  V30 4347 H 414.427 -2.00843 0.385014 0
M  V30 4348 H 412.582 -3.54266 -1.56762 0
M  V30 4349 H 412.996 -5.24286 -0.14998 0
M  V30 4350 H 414.47 -5.19735 -1.85956 0
M  V30 4351 H 414.947 -3.6209 -2.4857 0
M  V30 4352 H 415.553 -4.15635 -0.901543 0
M  V30 4353 N 413.868 0.0150385 -1.57593 0
M  V30 4354 C 414.831 0.995996 -2.06428 0
M  V30 4355 C 415.831 1.2818 -0.970903 0
M  V30 4356 O 417.021 1.22949 -1.23406 0
M  V30 4357 C 414.153 2.32506 -2.49307 0
M  V30 4358 H 415.346 0.573873 -2.94358 0
M  V30 4359 H 412.899 0.262186 -1.54085 0
M  V30 4360 H 413.634 2.79438 -1.64575 0
M  V30 4361 H 413.419 2.13087 -3.29145 0
M  V30 4362 H 414.909 3.02906 -2.87468 0
M  V30 4363 N 415.346 1.54954 0.287554 0
M  V30 4364 C 416.294 1.87606 1.37502 0
M  V30 4365 C 417.288 0.751001 1.51843 0
M  V30 4366 O 418.494 0.935169 1.53801 0
M  V30 4367 H 414.869 0.595231 0.459569 0
M  V30 4368 H 416.84 2.78477 1.07206 0
M  V30 4369 C 415.589 2.15183 2.73115 0
M  V30 4370 H 414.912 3.01234 2.62866 0
M  V30 4371 H 416.352 2.4196 3.48183 0
M  V30 4372 C 414.811 0.954686 3.2309 0
M  V30 4373 O 415.341 0.181949 4.01288 0
M  V30 4374 N 413.547 0.756368 2.80584 0
M  V30 4375 H 413.094 1.38643 2.17108 0
M  V30 4376 H 413.052 -0.0430391 3.14371 0
M  V30 4377 N 416.824 -0.551391 1.4764 0
M  V30 4378 C 418.071 -1.3083 1.54563 0
M  V30 4379 C 418.399 -1.93359 0.210361 0
M  V30 4380 O 417.654 -1.78721 -0.797332 0
M  V30 4381 C 417.953 -2.43469 2.61644 0
M  V30 4382 C 417.619 -1.98732 4.04742 0
M  V30 4383 C 416.281 -1.86248 4.43695 0
M  V30 4384 C 418.633 -1.64659 4.94507 0
M  V30 4385 C 415.961 -1.37995 5.70241 0
M  V30 4386 C 418.313 -1.17875 6.21521 0
M  V30 4387 C 416.977 -1.03992 6.5935 0
M  V30 4388 H 416.247 -0.478741 0.565587 0
M  V30 4389 H 418.894 -0.617697 1.81264 0
M  V30 4390 H 417.199 -3.18109 2.28722 0
M  V30 4391 H 418.896 -3.01642 2.64222 0
M  V30 4392 H 415.486 -2.09393 3.73968 0
M  V30 4393 H 419.67 -1.73174 4.65107 0
M  V30 4394 H 414.926 -1.25915 5.98294 0
M  V30 4395 H 419.1 -0.905739 6.90485 0
M  V30 4396 H 416.727 -0.663794 7.57296 0
M  V30 4397 N 418.302 -1.35869 -0.798587 0
M  V30 4398 C 419.55 -1.29332 -1.55298 0
M  V30 4399 C 419.871 0.129729 -1.94568 0
M  V30 4400 O 419.141 1.06796 -1.6423 0
M  V30 4401 H 417.721 -0.475737 -0.57592 0
M  V30 4402 H 420.383 -1.70062 -0.952093 0
M  V30 4403 H 419.479 -1.91458 -2.46476 0
M  V30 4404 N 419.78 1.02168 -1.19998 0
M  V30 4405 C 421.057 1.72816 -0.916191 0
M  V30 4406 C 421.437 2.03081 0.576325 0
M  V30 4407 O 420.785 1.69122 1.53656 0
M  V30 4408 C 420.995 2.9997 -1.78378 0
M  V30 4409 C 422.343 3.73336 -2.02251 0
M  V30 4410 O 423.367 3.09914 -1.75589 0
M  V30 4411 O 422.226 4.87371 -2.47249 0
M  V30 4412 H 419.32 0.752924 -0.342103 0
M  V30 4413 H 421.866 1.08062 -1.30846 0
M  V30 4414 H 420.638 2.73888 -2.79466 0
M  V30 4415 H 420.261 3.72464 -1.39126 0
M  V30 4416 N 421.258 1.00505 1.21394 0
M  V30 4417 C 422.188 0.585684 2.26035 0
M  V30 4418 C 423.169 -0.393525 1.65485 0
M  V30 4419 O 424.354 -0.281497 1.92149 0
M  V30 4420 C 421.484 -0.0884283 3.47187 0
M  V30 4421 C 420.438 0.810567 4.20254 0
M  V30 4422 C 419.764 0.00286382 5.347 0
M  V30 4423 C 421.064 2.1132 4.77641 0
M  V30 4424 H 422.758 1.46039 2.61368 0
M  V30 4425 H 420.304 0.703648 1.25638 0
M  V30 4426 H 422.257 -0.393286 4.19561 0
M  V30 4427 H 420.981 -0.997766 3.10986 0
M  V30 4428 H 419.64 1.09925 3.49731 0
M  V30 4429 H 419.288 -0.907765 4.94741 0
M  V30 4430 H 418.988 0.601444 5.84514 0
M  V30 4431 H 420.512 -0.295808 6.09883 0
M  V30 4432 H 421.926 1.87148 5.41893 0
M  V30 4433 H 420.323 2.66164 5.37845 0
M  V30 4434 H 421.393 2.78393 3.9702 0
M  V30 4435 N 422.737 -1.36956 0.779787 0
M  V30 4436 C 423.985 -1.99097 0.347079 0
M  V30 4437 C 424.306 -1.62206 -1.08232 0
M  V30 4438 O 423.576 -0.891373 -1.74446 0
M  V30 4439 H 422.156 -0.736409 0.125342 0
M  V30 4440 H 424.818 -1.67308 0.999696 0
M  V30 4441 H 423.914 -3.09107 0.431162 0
M  V30 4442 N 424.215 -0.530993 -1.48385 0
M  V30 4443 C 425.443 -0.00134122 -2.069 0
M  V30 4444 C 425.858 1.2805 -1.3874 0
M  V30 4445 O 425.215 1.76204 -0.475244 0
M  V30 4446 C 425.266 0.225256 -3.60798 0
M  V30 4447 O 424.987 -1.0058 -4.26398 0
M  V30 4448 C 426.488 0.795172 -4.3611 0
M  V30 4449 H 423.708 -0.0339704 -0.67014 0
M  V30 4450 H 426.252 -0.736926 -1.90761 0
M  V30 4451 H 424.407 0.910891 -3.76539 0
M  V30 4452 H 424.821 -0.787165 -5.1856 0
M  V30 4453 H 426.295 0.903143 -5.44562 0
M  V30 4454 H 426.772 1.80031 -4.00606 0
M  V30 4455 H 427.378 0.146069 -4.25049 0
M  V30 4456 N 425.693 1.55336 -0.266172 0
M  V30 4457 C 426.623 2.25146 0.618981 0
M  V30 4458 C 427.604 1.23845 1.16604 0
M  V30 4459 O 428.789 1.52544 1.20183 0
M  V30 4460 C 425.919 2.96572 1.80728 0
M  V30 4461 C 424.873 4.04726 1.39215 0
M  V30 4462 C 424.199 4.63678 2.66283 0
M  V30 4463 C 425.499 5.19407 0.548942 0
M  V30 4464 H 427.193 2.99377 0.0368116 0
M  V30 4465 H 424.739 1.43991 0.0162651 0
M  V30 4466 H 426.692 3.44116 2.43232 0
M  V30 4467 H 425.416 2.19861 2.41514 0
M  V30 4468 H 424.075 3.57979 0.790351 0
M  V30 4469 H 423.723 3.83646 3.25308 0
M  V30 4470 H 423.423 5.367 2.39222 0
M  V30 4471 H 424.947 5.13967 3.29651 0
M  V30 4472 H 426.361 5.63059 1.07876 0
M  V30 4473 H 424.758 5.98936 0.373593 0
M  V30 4474 H 425.828 4.8295 -0.434394 0
M  V30 4475 N 427.171 -0.0066808 1.57599 0
M  V30 4476 C 428.401 -0.703066 1.94269 0
M  V30 4477 C 428.809 -1.68206 0.866222 0
M  V30 4478 O 428.152 -1.82966 -0.164087 0
M  V30 4479 C 428.214 -1.49616 3.26887 0
M  V30 4480 C 427.878 -0.679494 4.5192 0
M  V30 4481 C 428.875 0.0299508 5.19891 0
M  V30 4482 C 426.56 -0.627433 4.98366 0
M  V30 4483 C 428.554 0.780514 6.32603 0
M  V30 4484 C 426.241 0.126861 6.10968 0
M  V30 4485 C 427.239 0.829574 6.77943 0
M  V30 4486 O 426.927 1.57157 7.88389 0
M  V30 4487 H 426.659 -0.201217 0.645359 0
M  V30 4488 H 429.213 0.0385326 2.05364 0
M  V30 4489 H 427.443 -2.28209 3.12182 0
M  V30 4490 H 429.132 -2.07726 3.48719 0
M  V30 4491 H 429.898 -0.00115963 4.85 0
M  V30 4492 H 425.777 -1.16392 4.46065 0
M  V30 4493 H 429.321 1.32954 6.84813 0
M  V30 4494 H 425.218 0.159815 6.45302 0
M  V30 4495 H 425.986 1.48758 8.04868 0
M  V30 4496 N 428.649 -1.55105 -0.279332 0
M  V30 4497 C 429.599 -1.83937 -1.34727 0
M  V30 4498 C 430.583 -0.69785 -1.44979 0
M  V30 4499 O 431.775 -0.95904 -1.48766 0
M  V30 4500 C 428.904 -2.1092 -2.70864 0
M  V30 4501 C 427.99 -3.31314 -2.64748 0
M  V30 4502 N 428.381 -4.51371 -2.2825 0
M  V30 4503 C 426.679 -3.33777 -2.95819 0
M  V30 4504 C 427.38 -5.33447 -2.31969 0
M  V30 4505 N 426.356 -4.71697 -2.7019 0
M  V30 4506 H 430.158 -2.74309 -1.05506 0
M  V30 4507 H 427.672 -1.54896 -0.487959 0
M  V30 4508 H 429.669 -2.2973 -3.47893 0
M  V30 4509 H 428.329 -1.21828 -3.00979 0
M  V30 4510 H 429.34 -4.77584 -2.00335 0
M  V30 4511 H 426.017 -2.54858 -3.30687 0
M  V30 4512 H 427.407 -6.39424 -2.06365 0
M  V30 4513 N 430.127 0.543554 -1.4793 0
M  V30 4514 C 431.037 1.67657 -1.64098 0
M  V30 4515 C 432.053 1.65934 -0.523622 0
M  V30 4516 O 433.229 1.85133 -0.792943 0
M  V30 4517 C 430.294 3.04146 -1.66421 0
M  V30 4518 C 429.355 3.16831 -2.89684 0
M  V30 4519 C 428.588 4.46809 -2.91886 0
M  V30 4520 O 428.811 5.33095 -2.02895 0
M  V30 4521 O 427.745 4.63573 -3.83906 0
M  V30 4522 H 431.571 1.56957 -2.59997 0
M  V30 4523 H 429.156 0.715116 -1.31173 0
M  V30 4524 H 431.038 3.85346 -1.70548 0
M  V30 4525 H 429.713 3.152 -0.736923 0
M  V30 4526 H 428.62 2.34977 -2.91095 0
M  V30 4527 H 429.953 3.10687 -3.81752 0
M  V30 4528 N 431.605 1.3629 0.791371 0
M  V30 4529 C 432.552 1.30458 1.90393 0
M  V30 4530 C 433.522 0.173632 1.6519 0
M  V30 4531 O 434.707 0.35983 1.87376 0
M  V30 4532 C 431.847 1.09777 3.27174 0
M  V30 4533 C 430.96 2.31929 3.64462 0
M  V30 4534 C 430.095 2.04276 4.90352 0
M  V30 4535 C 429.134 3.224 5.20312 0
M  V30 4536 N 428.271 2.94424 6.37385 0
M  V30 4537 H 433.111 2.25589 1.94714 0
M  V30 4538 H 430.648 1.12122 0.952216 0
M  V30 4539 H 432.606 0.958133 4.06049 0
M  V30 4540 H 431.236 0.183014 3.22281 0
M  V30 4541 H 430.288 2.56703 2.80727 0
M  V30 4542 H 431.6 3.20085 3.82553 0
M  V30 4543 H 430.754 1.87231 5.77087 0
M  V30 4544 H 429.493 1.13428 4.74326 0
M  V30 4545 H 428.498 3.40005 4.32061 0
M  V30 4546 H 429.723 4.14071 5.38258 0
M  V30 4547 H 427.669 2.06185 6.22755 0
M  V30 4548 H 427.586 3.76118 6.55798 0
M  V30 4549 H 428.854 2.80953 7.27108 0
M  V30 4550 N 433.083 -1.0153 1.20538 0
M  V30 4551 C 434.03 -2.10098 0.955383 0
M  V30 4552 C 435 -1.65702 -0.114878 0
M  V30 4553 O 436.185 -1.90776 0.0301118 0
M  V30 4554 C 433.325 -3.41236 0.514969 0
M  V30 4555 C 432.438 -3.99102 1.65353 0
M  V30 4556 C 431.573 -5.18306 1.16329 0
M  V30 4557 C 430.612 -5.68258 2.27485 0
M  V30 4558 N 429.749 -6.78722 1.7967 0
M  V30 4559 H 434.589 -2.30818 1.88486 0
M  V30 4560 H 432.126 -1.13189 0.939499 0
M  V30 4561 H 434.084 -4.16504 0.240935 0
M  V30 4562 H 432.714 -3.20585 -0.377512 0
M  V30 4563 H 431.766 -3.20918 2.04245 0
M  V30 4564 H 433.078 -4.32177 2.49047 0
M  V30 4565 H 432.232 -6.00782 0.845302 0
M  V30 4566 H 430.971 -4.86799 0.296254 0
M  V30 4567 H 429.976 -4.84385 2.60099 0
M  V30 4568 H 431.201 -6.01798 3.14667 0
M  V30 4569 H 429.147 -6.49042 0.95295 0
M  V30 4570 H 429.064 -7.10996 2.56944 0
M  V30 4571 H 430.332 -7.64759 1.50875 0
M  V30 4572 N 434.561 -1.01147 -1.20859 0
M  V30 4573 C 435.493 -0.535546 -2.22855 0
M  V30 4574 C 436.506 0.379323 -1.58319 0
M  V30 4575 O 437.695 0.178489 -1.77605 0
M  V30 4576 C 434.795 0.240962 -3.38042 0
M  V30 4577 C 433.968 -0.674562 -4.32167 0
M  V30 4578 C 433.027 0.053467 -5.26173 0
M  V30 4579 O 432.053 -0.567339 -5.66366 0
M  V30 4580 N 433.255 1.32997 -5.65059 0
M  V30 4581 H 436.02 -1.41268 -2.64317 0
M  V30 4582 H 433.581 -0.888386 -1.35349 0
M  V30 4583 H 435.573 0.737115 -3.97931 0
M  V30 4584 H 434.143 1.01935 -2.95513 0
M  V30 4585 H 433.363 -1.35111 -3.70322 0
M  V30 4586 H 434.651 -1.2974 -4.91981 0
M  V30 4587 H 434.049 1.85536 -5.34409 0
M  V30 4588 H 432.606 1.77095 -6.2728 0
M  V30 4589 N 436.039 1.36541 -0.78704 0
M  V30 4590 C 437.285 1.99599 -0.358872 0
M  V30 4591 C 437.618 1.62323 1.06606 0
M  V30 4592 O 436.893 0.876858 1.73613 0
M  V30 4593 C 437.176 3.56327 -0.519944 0
M  V30 4594 C 437.029 4.03464 -1.98839 0
M  V30 4595 C 438.348 4.4005 0.0664737 0
M  V30 4596 H 435.467 0.725107 -0.131869 0
M  V30 4597 H 438.109 1.6199 -0.992936 0
M  V30 4598 H 436.259 3.88495 0.0198321 0
M  V30 4599 H 437.931 3.81793 -2.58905 0
M  V30 4600 H 436.174 3.55092 -2.49183 0
M  V30 4601 H 436.845 5.12439 -2.05207 0
M  V30 4602 H 439.321 4.14228 -0.394267 0
M  V30 4603 H 438.197 5.48847 -0.0762682 0
M  V30 4604 H 438.458 4.26655 1.15835 0
M  V30 4605 N 437.518 0.538854 1.48102 0
M  V30 4606 C 438.468 -0.23907 2.26743 0
M  V30 4607 C 439.452 -0.901923 1.33245 0
M  V30 4608 O 440.644 -0.803263 1.57723 0
M  V30 4609 C 437.773 -1.2799 3.18549 0
M  V30 4610 C 436.859 -0.621388 4.19523 0
M  V30 4611 N 437.25 0.298004 5.04921 0
M  V30 4612 C 435.548 -0.877533 4.37282 0
M  V30 4613 C 436.249 0.678757 5.77726 0
M  V30 4614 N 435.225 0.0377881 5.43587 0
M  V30 4615 H 439.027 0.468096 2.90148 0
M  V30 4616 H 436.541 0.357497 1.58416 0
M  V30 4617 H 438.538 -1.851 3.73555 0
M  V30 4618 H 437.198 -1.98835 2.567 0
M  V30 4619 H 438.209 0.671126 5.13533 0
M  V30 4620 H 434.886 -1.57588 3.86616 0
M  V30 4621 H 436.276 1.43316 6.56437 0
M  V30 4622 N 438.996 -1.55193 0.274407 0
M  V30 4623 C 439.946 -2.19184 -0.627882 0
M  V30 4624 C 440.93 -1.15625 -1.11892 0
M  V30 4625 O 442.122 -1.41441 -1.06411 0
M  V30 4626 C 439.251 -2.91591 -1.81189 0
M  V30 4627 C 438.337 -4.02438 -1.33807 0
M  V30 4628 N 438.728 -5.0246 -0.580349 0
M  V30 4629 C 437.026 -4.15496 -1.62109 0
M  V30 4630 C 437.727 -5.80756 -0.331344 0
M  V30 4631 N 436.703 -5.36038 -0.903556 0
M  V30 4632 H 440.505 -2.93871 -0.0411216 0
M  V30 4633 H 438.019 -1.62213 0.0779348 0
M  V30 4634 H 440.016 -3.35883 -2.46957 0
M  V30 4635 H 438.676 -2.18414 -2.40261 0
M  V30 4636 H 439.687 -5.17399 -0.227762 0
M  V30 4637 H 436.364 -3.53509 -2.22121 0
M  V30 4638 H 437.754 -6.71335 0.275454 0
M  V30 4639 N 440.474 -0.00167713 -1.576 0
M  V30 4640 C 441.722 0.681471 -1.90264 0
M  V30 4641 C 442.043 1.7422 -0.875924 0
M  V30 4642 O 441.313 1.95709 0.0864412 0
M  V30 4643 H 439.893 0.254696 -0.702239 0
M  V30 4644 H 442.555 -0.0429996 -1.94853 0
M  V30 4645 H 441.651 1.15166 -2.90075 0
M  V30 4646 N 441.952 1.55251 0.271103 0
M  V30 4647 C 443.2 1.75599 1.00047 0
M  V30 4648 C 443.521 0.561188 1.8675 0
M  V30 4649 O 442.791 -0.423846 1.9126 0
M  V30 4650 H 441.371 0.647562 0.372387 0
M  V30 4651 H 444.033 1.92656 0.294876 0
M  V30 4652 H 443.129 2.65766 1.6363 0
M  V30 4653 N 443.43 -0.535701 1.48216 0
M  V30 4654 C 444.679 -1.28828 1.55197 0
M  V30 4655 C 444.992 -1.94263 0.228278 0
M  V30 4656 O 446.198 -2.70927 0.176278 0
M  V30 4657 C 444.654 -2.33727 2.73678 0
M  V30 4658 C 444.262 -1.74386 4.12666 0
M  V30 4659 C 446.006 -3.1003 2.89968 0
M  V30 4660 C 443.913 -2.77192 5.22416 0
M  V30 4661 H 442.843 -0.484484 0.577747 0
M  V30 4662 H 445.494 -0.56646 1.74538 0
M  V30 4663 H 443.876 -3.08919 2.4776 0
M  V30 4664 H 445.05 -1.05421 4.48579 0
M  V30 4665 H 443.365 -1.10595 4.01445 0
M  V30 4666 H 445.962 -3.86842 3.6913 0
M  V30 4667 H 446.305 -3.65542 1.9921 0
M  V30 4668 H 446.838 -2.41952 3.15759 0
M  V30 4669 H 443.577 -2.26507 6.15122 0
M  V30 4670 H 443.097 -3.44502 4.90998 0
M  V30 4671 H 444.776 -3.40285 5.50286 0
M  V30 4672 N 444.908 -1.36708 -0.784132 0
M  V30 4673 C 446.136 -1.34398 -1.57305 0
M  V30 4674 C 446.551 0.0735577 -1.88657 0
M  V30 4675 O 445.908 1.03193 -1.50524 0
M  V30 4676 C 445.959 -2.17053 -2.89085 0
M  V30 4677 O 445.68 -3.53281 -2.59083 0
M  V30 4678 C 447.181 -2.22583 -3.83369 0
M  V30 4679 H 444.401 -0.460819 -0.487736 0
M  V30 4680 H 446.945 -1.79879 -0.972819 0
M  V30 4681 H 445.1 -1.75113 -3.45564 0
M  V30 4682 H 445.514 -3.9647 -3.43383 0
M  V30 4683 H 446.988 -2.84763 -4.72878 0
M  V30 4684 H 447.465 -1.23075 -4.21603 0
M  V30 4685 H 448.071 -2.64781 -3.32823 0
M  V30 4686 N 446.386 1.0089 -1.21074 0
M  V30 4687 C 447.633 1.74607 -1.0256 0
M  V30 4688 C 447.961 1.89426 0.44136 0
M  V30 4689 O 447.216 1.42266 1.34384 0
M  V30 4690 C 447.515 3.16335 -1.66334 0
M  V30 4691 C 447.181 3.21474 -3.16173 0
M  V30 4692 C 445.843 3.22583 -3.57062 0
M  V30 4693 C 448.195 3.19025 -4.12156 0
M  V30 4694 C 445.523 3.18925 -4.92446 0
M  V30 4695 C 447.875 3.16909 -5.47496 0
M  V30 4696 C 446.539 3.16326 -5.87787 0
M  V30 4697 H 445.809 0.638933 -0.375294 0
M  V30 4698 H 448.456 1.18274 -1.50611 0
M  V30 4699 H 446.761 3.75876 -1.10566 0
M  V30 4700 H 448.458 3.72083 -1.49516 0
M  V30 4701 H 445.048 3.2135 -2.83605 0
M  V30 4702 H 449.232 3.17332 -3.81595 0
M  V30 4703 H 444.488 3.16809 -5.22917 0
M  V30 4704 H 448.662 3.13968 -6.21609 0
M  V30 4705 H 446.289 3.13246 -6.92662 0
M  V30 4706 N 447.864 1.01787 1.20321 0
M  V30 4707 C 448.774 0.598898 2.26827 0
M  V30 4708 C 449.79 -0.36418 1.70146 0
M  V30 4709 O 450.966 -0.224812 2.00141 0
M  V30 4710 C 448.031 -0.0549769 3.46656 0
M  V30 4711 C 447.092 0.954205 4.18561 0
M  V30 4712 C 446.325 0.331439 5.3267 0
M  V30 4713 O 446.548 -0.86851 5.63749 0
M  V30 4714 O 445.482 1.0488 5.92692 0
M  V30 4715 H 449.308 1.48562 2.64883 0
M  V30 4716 H 446.893 0.787434 1.26964 0
M  V30 4717 H 448.775 -0.420102 4.19301 0
M  V30 4718 H 447.45 -0.915876 3.10473 0
M  V30 4719 H 446.357 1.37072 3.48083 0
M  V30 4720 H 447.69 1.78511 4.58688 0
M  V30 4721 N 449.342 -1.36122 0.79427 0
M  V30 4722 C 450.582 -2.00942 0.374376 0
M  V30 4723 C 450.946 -1.61666 -1.03577 0
M  V30 4724 O 452.147 -2.19113 -1.55701 0
M  V30 4725 C 450.418 -3.53323 0.538327 0
M  V30 4726 S 451.977 -4.38311 0.20703 0
M  V30 4727 H 448.795 -0.696515 0.142785 0
M  V30 4728 H 451.397 -1.65929 1.03382 0
M  V30 4729 H 450.101 -3.79395 1.56484 0
M  V30 4730 H 449.632 -3.93162 -0.136882 0
M  V30 4731 H 451.647 -4.8623 -0.989695 0
M  V30 4732 N 450.82 -0.546701 -1.47814 0
M  V30 4733 C 451.752 0.244196 -2.27895 0
M  V30 4734 C 452.765 0.88911 -1.36377 0
M  V30 4735 O 453.954 0.764733 -1.61289 0
M  V30 4736 C 451.054 1.36252 -3.10304 0
M  V30 4737 C 450.227 0.816382 -4.29714 0
M  V30 4738 C 449.286 1.81789 -4.93801 0
M  V30 4739 O 448.312 1.36818 -5.52512 0
M  V30 4740 N 449.514 3.15085 -4.87547 0
M  V30 4741 H 452.279 -0.442694 -2.96412 0
M  V30 4742 H 449.84 -0.382095 -1.57327 0
M  V30 4743 H 451.832 2.03102 -3.50045 0
M  V30 4744 H 450.402 1.95281 -2.44099 0
M  V30 4745 H 449.622 -0.0285981 -3.9419 0
M  V30 4746 H 450.91 0.430668 -5.06974 0
M  V30 4747 H 450.308 3.54275 -4.41028 0
M  V30 4748 H 448.865 3.77522 -5.31339 0
M  V30 4749 N 452.299 1.55045 -0.282633 0
M  V30 4750 C 453.545 2.00056 0.332481 0
M  V30 4751 C 453.878 1.1708 1.54939 0
M  V30 4752 O 453.153 0.2427 1.9298 0
M  V30 4753 C 453.436 3.53086 0.70725 0
M  V30 4754 C 453.289 4.46813 -0.517521 0
M  V30 4755 C 454.608 4.12245 1.54084 0
M  V30 4756 H 451.727 0.727268 0.119373 0
M  V30 4757 H 454.369 1.85932 -0.391076 0
M  V30 4758 H 452.519 3.65253 1.32372 0
M  V30 4759 H 454.191 4.46579 -1.15607 0
M  V30 4760 H 452.434 4.18163 -1.1542 0
M  V30 4761 H 453.105 5.51595 -0.211426 0
M  V30 4762 H 455.581 4.03401 1.02013 0
M  V30 4763 H 454.457 5.19515 1.77186 0
M  V30 4764 H 454.718 3.62951 2.52427 0
M  V30 4765 N 453.777 0.010035 1.57597 0
M  V30 4766 C 455.002 -0.687021 1.95691 0
M  V30 4767 C 455.427 -1.65952 0.885519 0
M  V30 4768 O 454.785 -1.80633 -0.15543 0
M  V30 4769 C 454.833 -1.3864 3.32884 0
M  V30 4770 O 453.937 -2.50115 3.27897 0
M  V30 4771 H 453.278 -0.181989 0.638573 0
M  V30 4772 H 455.808 0.0662122 2.04493 0
M  V30 4773 H 455.818 -1.74754 3.6868 0
M  V30 4774 H 454.493 -0.673411 4.10412 0
M  V30 4775 H 453.07 -2.16253 3.03791 0
M  V30 4776 N 455.255 -1.55392 -0.262866 0
M  V30 4777 C 456.666 -1.67079 -0.833158 0
M  V30 4778 C 457.017 -0.604539 -1.86654 0
M  V30 4779 O 456.142 0.252138 -2.14926 0
M  V30 4780 C 456.737 -3.02891 -1.51797 0
M  V30 4781 C 455.296 -3.16571 -2.03617 0
M  V30 4782 C 454.443 -2.62909 -0.881701 0
M  V30 4783 H 457.394 -1.58652 -0.0389986 0
M  V30 4784 H 457.415 -2.96445 -2.38538 0
M  V30 4785 H 456.927 -3.80473 -0.765619 0
M  V30 4786 H 455.028 -2.43782 -2.81782 0
M  V30 4787 H 455.141 -4.23271 -2.24452 0
M  V30 4788 H 453.505 -2.20324 -1.27786 0
M  V30 4789 H 454.288 -3.43003 -0.14269 0
M  V30 4790 N 456.733 0.527833 -1.48498 0
M  V30 4791 C 457.981 1.28101 -1.56316 0
M  V30 4792 C 458.302 1.9352 -0.239781 0
M  V30 4793 O 457.572 1.81433 0.738849 0
M  V30 4794 H 456.152 0.475793 -0.575873 0
M  V30 4795 H 458.814 0.614052 -1.84974 0
M  V30 4796 H 457.91 2.05916 -2.34532 0
M  V30 4797 N 458.211 1.37122 0.776871 0
M  V30 4798 C 459.436 1.354 1.57104 0
M  V30 4799 C 459.861 -0.0595562 1.88006 0
M  V30 4800 O 459.219 -1.03514 1.48844 0
M  V30 4801 C 459.267 2.19472 2.8612 0
M  V30 4802 O 458.371 1.59582 3.80273 0
M  V30 4803 H 457.712 0.462869 0.476076 0
M  V30 4804 H 460.242 1.80577 0.961932 0
M  V30 4805 H 460.252 2.32502 3.35271 0
M  V30 4806 H 458.927 3.22222 2.62956 0
M  V30 4807 H 457.504 1.55564 3.38902 0
M  V30 4808 N 459.689 -1.00246 1.21608 0
M  V30 4809 C 460.599 -2.12515 0.993709 0
M  V30 4810 C 461.615 -1.73913 -0.0549939 0
M  V30 4811 O 462.791 -2.00943 0.135619 0
M  V30 4812 C 459.856 -3.42083 0.563953 0
M  V30 4813 C 458.917 -3.94843 1.68516 0
M  V30 4814 C 458.15 -5.18226 1.27582 0
M  V30 4815 O 458.373 -5.70201 0.150506 0
M  V30 4816 O 457.307 -5.64497 2.0887 0
M  V30 4817 H 461.133 -2.34152 1.93407 0
M  V30 4818 H 458.718 -1.10891 1.00118 0
M  V30 4819 H 460.6 -4.20073 0.334194 0
M  V30 4820 H 459.275 -3.21828 -0.347665 0
M  V30 4821 H 458.182 -3.18068 1.96935 0
M  V30 4822 H 459.515 -4.19512 2.5743 0
M  V30 4823 N 461.167 -1.02423 -1.1978 0
M  V30 4824 C 462.099 -0.559152 -2.22275 0
M  V30 4825 C 463.112 0.36251 -1.58713 0
M  V30 4826 O 464.301 0.159641 -1.77785 0
M  V30 4827 C 461.401 0.205094 -3.38279 0
M  V30 4828 C 460.574 -0.720361 -4.31427 0
M  V30 4829 C 459.633 -0.00234368 -5.262 0
M  V30 4830 O 458.659 -0.627378 -5.65732 0
M  V30 4831 N 459.861 1.26996 -5.66438 0
M  V30 4832 H 462.626 -1.44064 -2.62804 0
M  V30 4833 H 460.187 -0.902692 -1.34399 0
M  V30 4834 H 462.179 0.694868 -3.9869 0
M  V30 4835 H 460.749 0.987947 -2.96578 0
M  V30 4836 H 459.969 -1.39031 -3.68869 0
M  V30 4837 H 461.257 -1.3495 -4.90577 0
M  V30 4838 H 460.655 1.79858 -5.36347 0
M  V30 4839 H 459.212 1.70432 -6.29123 0
M  V30 4840 N 462.645 1.35699 -0.801477 0
M  V30 4841 C 463.894 1.98165 -0.375979 0
M  V30 4842 C 464.207 1.64306 1.06127 0
M  V30 4843 O 465.413 2.20097 1.58964 0
M  V30 4844 C 463.869 3.54497 -0.621305 0
M  V30 4845 C 463.477 3.9727 -2.07076 0
M  V30 4846 C 465.221 4.23697 -0.26091 0
M  V30 4847 C 463.128 5.46427 -2.26211 0
M  V30 4848 H 462.058 0.741478 -0.136844 0
M  V30 4849 H 464.709 1.54834 -0.984814 0
M  V30 4850 H 463.091 3.95958 0.0574112 0
M  V30 4851 H 464.265 3.66974 -2.78687 0
M  V30 4852 H 462.58 3.40943 -2.39054 0
M  V30 4853 H 465.177 5.33334 -0.381994 0
M  V30 4854 H 465.52 4.0869 0.792344 0
M  V30 4855 H 466.053 3.87639 -0.893339 0
M  V30 4856 H 462.792 5.66396 -3.29963 0
M  V30 4857 H 462.312 5.78309 -1.59119 0
M  V30 4858 H 463.991 6.12819 -2.07513 0
M  V30 4859 N 464.123 0.554532 1.47522 0
M  V30 4860 C 465.534 0.120446 1.86311 0
M  V30 4861 C 465.885 -1.30904 1.46145 0
M  V30 4862 O 465.01 -1.98434 0.863294 0
M  V30 4863 C 465.605 0.211808 3.38137 0
M  V30 4864 C 464.164 -0.167224 3.76028 0
M  V30 4865 C 463.311 0.560576 2.71575 0
M  V30 4866 H 466.262 0.764408 1.39077 0
M  V30 4867 H 466.283 -0.570275 3.76202 0
M  V30 4868 H 465.795 1.25232 3.6734 0
M  V30 4869 H 463.896 -1.20894 3.52442 0
M  V30 4870 H 464.009 0.189473 4.78725 0
M  V30 4871 H 462.373 0.00396836 2.547 0
M  V30 4872 H 463.156 1.60219 3.0362 0
M  V30 4873 N 465.601 -1.54893 0.290851 0
M  V30 4874 C 466.511 -2.26812 -0.59945 0
M  V30 4875 C 467.527 -1.29963 -1.15696 0
M  V30 4876 O 468.703 -1.62928 -1.18391 0
M  V30 4877 C 465.768 -2.98716 -1.75982 0
M  V30 4878 C 464.829 -4.1108 -1.2374 0
M  V30 4879 C 464.062 -4.79546 -2.34246 0
M  V30 4880 O 464.285 -4.47309 -3.53936 0
M  V30 4881 O 463.219 -5.67165 -2.01512 0
M  V30 4882 H 467.045 -3.03696 -0.0163561 0
M  V30 4883 H 464.63 -1.49289 0.0576755 0
M  V30 4884 H 466.512 -3.43851 -2.43607 0
M  V30 4885 H 465.187 -2.24737 -2.3297 0
M  V30 4886 H 464.094 -3.70367 -0.527163 0
M  V30 4887 H 465.427 -4.87007 -0.71307 0
M  V30 4888 N 467.08 -0.0183926 -1.57589 0
M  V30 4889 C 468.01 0.965596 -2.12599 0
M  V30 4890 C 468.991 1.34641 -1.0395 0
M  V30 4891 O 470.176 1.42693 -1.31729 0
M  V30 4892 C 467.306 2.25149 -2.64434 0
M  V30 4893 C 466.26 2.01175 -3.77773 0
M  V30 4894 C 465.586 3.35937 -4.15994 0
M  V30 4895 C 466.886 1.35953 -5.04296 0
M  V30 4896 H 468.58 0.507504 -2.95067 0
M  V30 4897 H 466.126 0.242671 -1.41941 0
M  V30 4898 H 468.079 2.94357 -3.01549 0
M  V30 4899 H 466.803 2.73105 -1.79112 0
M  V30 4900 H 465.462 1.34388 -3.4108 0
M  V30 4901 H 465.11 3.81631 -3.27669 0
M  V30 4902 H 464.81 3.20705 -4.92364 0
M  V30 4903 H 466.334 4.0643 -4.55683 0
M  V30 4904 H 467.748 1.95144 -5.39065 0
M  V30 4905 H 466.145 1.31152 -5.85593 0
M  V30 4906 H 467.215 0.331071 -4.83768 0
M  V30 4907 N 468.558 1.5553 0.254621 0
M  V30 4908 C 469.806 1.7665 0.981793 0
M  V30 4909 C 470.127 0.580963 1.86145 0
M  V30 4910 O 469.397 -0.403537 1.91699 0
M  V30 4911 H 467.977 0.651475 0.365498 0
M  V30 4912 H 470.639 1.92958 0.274426 0
M  V30 4913 H 469.735 2.67486 1.60802 0
M  V30 4914 N 470.036 -0.519951 1.48776 0
M  V30 4915 C 471.313 -1.28123 1.47797 0
M  V30 4916 C 471.693 -2.10196 0.195157 0
M  V30 4917 O 471.041 -2.13167 -0.822925 0
M  V30 4918 C 471.251 -2.15413 2.74587 0
M  V30 4919 C 472.599 -2.75225 3.23321 0
M  V30 4920 O 473.623 -2.25694 2.75574 0
M  V30 4921 O 472.482 -3.65346 4.06429 0
M  V30 4922 H 469.576 -0.578793 0.590701 0
M  V30 4923 H 472.122 -0.535779 1.6102 0
M  V30 4924 H 470.894 -1.54617 3.59457 0
M  V30 4925 H 470.517 -2.97186 2.64132 0
M  V30 4926 N 471.514 -1.37532 -0.769588 0
M  V30 4927 C 472.763 -1.32183 -1.5235 0
M  V30 4928 C 473.076 0.0906555 -1.9539 0
M  V30 4929 O 474.282 0.266628 -2.70188 0
M  V30 4930 C 472.738 -2.32029 -2.75119 0
M  V30 4931 C 472.346 -3.78816 -2.3917 0
M  V30 4932 C 474.09 -2.35694 -3.53056 0
M  V30 4933 C 471.997 -4.70388 -3.58453 0
M  V30 4934 H 470.927 -0.491275 -0.571984 0
M  V30 4935 H 473.578 -1.63004 -0.842739 0
M  V30 4936 H 471.96 -1.94229 -3.45096 0
M  V30 4937 H 473.134 -4.25466 -1.76962 0
M  V30 4938 H 471.449 -3.78117 -1.74402 0
M  V30 4939 H 474.046 -3.01312 -4.41718 0
M  V30 4940 H 474.389 -1.37117 -3.93071 0
M  V30 4941 H 474.922 -2.72212 -2.90078 0
M  V30 4942 H 471.661 -5.70102 -3.23518 0
M  V30 4943 H 471.181 -4.28442 -4.19758 0
M  V30 4944 H 472.86 -4.87628 -4.25239 0
M  V30 4945 N 472.992 0.995999 -1.22138 0
M  V30 4946 C 474.217 1.77601 -1.0711 0
M  V30 4947 C 474.642 1.84339 0.374264 0
M  V30 4948 O 474 1.29359 1.27028 0
M  V30 4949 C 474.048 3.18897 -1.68336 0
M  V30 4950 O 473.152 4.01663 -0.934928 0
M  V30 4951 H 472.493 0.547011 -0.376397 0
M  V30 4952 H 475.023 1.25137 -1.6187 0
M  V30 4953 H 475.033 3.69539 -1.72931 0
M  V30 4954 H 473.708 3.13308 -2.73516 0
M  V30 4955 H 472.285 3.60204 -0.964751 0
M  V30 4956 N 474.47 1.03057 1.19235 0
M  V30 4957 C 475.4 0.633497 2.24742 0
M  V30 4958 C 476.381 -0.358335 1.66283 0
M  V30 4959 O 477.566 -0.240676 1.92703 0
M  V30 4960 C 474.696 -0.0147648 3.47297 0
M  V30 4961 C 473.65 0.899527 4.18441 0
M  V30 4962 C 472.976 0.116281 5.34574 0
M  V30 4963 C 474.276 2.21404 4.73051 0
M  V30 4964 H 475.97 1.5155 2.58211 0
M  V30 4965 H 473.516 0.73014 1.24117 0
M  V30 4966 H 475.469 -0.304202 4.20301 0
M  V30 4967 H 474.193 -0.931577 3.13032 0
M  V30 4968 H 472.852 1.17319 3.47321 0
M  V30 4969 H 472.5 -0.802619 4.96555 0
M  V30 4970 H 472.2 0.725293 5.83107 0
M  V30 4971 H 473.724 -0.166376 6.10373 0
M  V30 4972 H 475.138 1.98601 5.37802 0
M  V30 4973 H 473.535 2.77512 5.32078 0
M  V30 4974 H 474.605 2.86752 3.91026 0
M  V30 4975 N 475.948 -1.35272 0.808662 0
M  V30 4976 C 476.895 -2.29764 0.218482 0
M  V30 4977 C 477.865 -1.52911 -0.648652 0
M  V30 4978 O 479.05 -1.81341 -0.593297 0
M  V30 4979 C 476.19 -3.39388 -0.625282 0
M  V30 4980 C 475.303 -4.31202 0.262516 0
M  V30 4981 C 474.438 -5.27919 -0.589451 0
M  V30 4982 C 473.477 -6.11371 0.298617 0
M  V30 4983 N 472.614 -7.0022 -0.513443 0
M  V30 4984 H 477.454 -2.79645 1.02968 0
M  V30 4985 H 474.991 -1.37629 0.519303 0
M  V30 4986 H 476.949 -4.01615 -1.12966 0
M  V30 4987 H 475.579 -2.90777 -1.40173 0
M  V30 4988 H 474.631 -3.69962 0.885013 0
M  V30 4989 H 475.943 -4.89748 0.945971 0
M  V30 4990 H 475.097 -5.95529 -1.15888 0
M  V30 4991 H 473.836 -4.69875 -1.30647 0
M  V30 4992 H 472.841 -5.42707 0.880301 0
M  V30 4993 H 474.066 -6.71494 1.01352 0
M  V30 4994 H 472.012 -6.44662 -1.21439 0
M  V30 4995 H 471.929 -7.55917 0.111922 0
M  V30 4996 H 473.197 -7.72175 -1.06608 0
M  V30 4997 N 477.426 -0.562348 -1.47226 0
M  V30 4998 C 478.389 0.172056 -2.28553 0
M  V30 4999 C 479.389 0.837928 -1.37242 0
M  V30 5000 O 480.579 0.693001 -1.59822 0
M  V30 5001 C 477.711 1.25223 -3.17068 0
M  V30 5002 H 478.904 -0.542401 -2.94954 0
M  V30 5003 H 476.457 -0.319493 -1.53 0
M  V30 5004 H 477.192 1.99892 -2.55369 0
M  V30 5005 H 476.977 0.779515 -3.84273 0
M  V30 5006 H 478.467 1.76791 -3.78332 0
M  V30 5007 N 478.904 1.54736 -0.299062 0
M  V30 5008 C 480.152 1.99706 0.31017 0
M  V30 5009 C 480.473 1.18896 1.54559 0
M  V30 5010 O 479.743 0.284445 1.93824 0
M  V30 5011 H 478.323 0.737686 0.117596 0
M  V30 5012 H 480.985 1.9054 -0.409943 0
M  V30 5013 H 480.081 3.06596 0.58355 0
M  V30 5014 N 480.382 0.0267497 1.57577 0
M  V30 5015 C 481.292 -0.971633 2.13533 0
M  V30 5016 C 482.308 -1.35868 1.08701 0
M  V30 5017 O 483.484 -1.44058 1.40746 0
M  V30 5018 C 480.549 -2.23622 2.64941 0
M  V30 5019 C 479.61 -1.90982 3.8448 0
M  V30 5020 C 478.843 -3.11411 4.33427 0
M  V30 5021 O 479.066 -4.23992 3.81558 0
M  V30 5022 O 478 -2.93848 5.25297 0
M  V30 5023 H 481.826 -0.525853 2.99113 0
M  V30 5024 H 479.411 -0.193712 1.48139 0
M  V30 5025 H 481.293 -2.97864 2.98086 0
M  V30 5026 H 479.968 -2.67386 1.82446 0
M  V30 5027 H 478.875 -1.14132 3.56265 0
M  V30 5028 H 480.208 -1.52036 4.6813 0
M  V30 5029 N 481.861 -1.55662 -0.24637 0
M  V30 5030 C 482.808 -1.90361 -1.30504 0
M  V30 5031 C 483.778 -0.757905 -1.47801 0
M  V30 5032 O 484.963 -1.01161 -1.61775 0
M  V30 5033 C 482.103 -2.2042 -2.65535 0
M  V30 5034 C 481.216 -3.47799 -2.56242 0
M  V30 5035 C 480.351 -3.67426 -3.8363 0
M  V30 5036 C 479.39 -4.88403 -3.68956 0
M  V30 5037 N 478.527 -5.04548 -4.88237 0
M  V30 5038 H 483.367 -2.80645 -1.00213 0
M  V30 5039 H 480.904 -1.38924 -0.483577 0
M  V30 5040 H 482.862 -2.35853 -3.44135 0
M  V30 5041 H 481.492 -1.3334 -2.93973 0
M  V30 5042 H 480.544 -3.40694 -1.69208 0
M  V30 5043 H 481.856 -4.36544 -2.4131 0
M  V30 5044 H 481.01 -3.82821 -4.70673 0
M  V30 5045 H 479.749 -2.76914 -4.01459 0
M  V30 5046 H 478.754 -4.72984 -2.80296 0
M  V30 5047 H 479.979 -5.80375 -3.52621 0
M  V30 5048 H 477.925 -4.16974 -5.06427 0
M  V30 5049 H 477.842 -5.87384 -4.75937 0
M  V30 5050 H 479.11 -5.24355 -5.76777 0
M  V30 5051 N 483.339 0.512053 -1.4905 0
M  V30 5052 C 484.569 1.28928 -1.61434 0
M  V30 5053 C 484.977 1.87107 -0.280647 0
M  V30 5054 O 484.32 1.68024 0.742537 0
M  V30 5055 C 484.382 2.466 -2.61588 0
M  V30 5056 C 484.046 2.09375 -4.06216 0
M  V30 5057 C 485.043 1.63994 -4.93358 0
M  V30 5058 C 482.728 2.19348 -4.51876 0
M  V30 5059 C 484.722 1.29076 -6.24194 0
M  V30 5060 C 482.409 1.84041 -5.82728 0
M  V30 5061 C 483.407 1.38978 -6.68711 0
M  V30 5062 O 483.095 1.04144 -7.97126 0
M  V30 5063 H 482.827 0.397668 -0.546659 0
M  V30 5064 H 485.381 0.622507 -1.9574 0
M  V30 5065 H 483.611 3.16318 -2.22441 0
M  V30 5066 H 485.3 3.08642 -2.63619 0
M  V30 5067 H 486.066 1.55744 -4.59313 0
M  V30 5068 H 481.945 2.53376 -3.85125 0
M  V30 5069 H 485.489 0.938303 -6.91261 0
M  V30 5070 H 481.386 1.91938 -6.16304 0
M  V30 5071 H 482.154 1.17387 -8.10039 0
M  V30 5072 N 484.817 1.37938 0.762283 0
M  V30 5073 C 485.749 1.30349 1.88525 0
M  V30 5074 C 486.762 0.217402 1.61342 0
M  V30 5075 O 487.951 0.474291 1.72084 0
M  V30 5076 C 485.051 0.994844 3.23969 0
M  V30 5077 C 484.224 2.18829 3.78725 0
M  V30 5078 C 483.283 1.84844 4.92665 0
M  V30 5079 O 482.309 2.57244 5.07754 0
M  V30 5080 N 483.511 0.798201 5.74986 0
M  V30 5081 H 486.276 2.27114 1.95549 0
M  V30 5082 H 483.837 1.31686 0.941825 0
M  V30 5083 H 485.829 0.748168 3.97724 0
M  V30 5084 H 484.399 0.115446 3.12387 0
M  V30 5085 H 483.619 2.59615 2.96637 0
M  V30 5086 H 484.907 2.98497 4.1204 0
M  V30 5087 H 484.305 0.197611 5.65355 0
M  V30 5088 H 482.862 0.611396 6.48926 0
M  V30 5089 N 486.295 -0.989507 1.22664 0
M  V30 5090 C 487.258 -2.06183 1.00106 0
M  V30 5091 C 488.258 -1.60765 -0.0337726 0
M  V30 5092 O 489.448 -1.72989 0.205072 0
M  V30 5093 C 486.58 -3.37021 0.51279 0
M  V30 5094 H 487.773 -2.27629 1.95256 0
M  V30 5095 H 485.326 -1.16158 1.0458 0
M  V30 5096 H 486.061 -3.21261 -0.442917 0
M  V30 5097 H 485.846 -3.71323 1.25942 0
M  V30 5098 H 487.336 -4.1591 0.375315 0
M  V30 5099 N 487.773 -1.03688 -1.18687 0
M  V30 5100 C 489.001 -0.757918 -1.92518 0
M  V30 5101 C 489.416 0.684398 -1.75959 0
M  V30 5102 O 488.773 1.46617 -1.08673 0
M  V30 5103 C 488.824 -1.10985 -3.44042 0
M  V30 5104 O 488.545 -2.49554 -3.60076 0
M  V30 5105 C 490.046 -0.854844 -4.3498 0
M  V30 5106 H 487.266 -0.276699 -0.611293 0
M  V30 5107 H 489.81 -1.38352 -1.50595 0
M  V30 5108 H 487.965 -0.529279 -3.83767 0
M  V30 5109 H 488.379 -2.6291 -4.53849 0
M  V30 5110 H 489.853 -1.15098 -5.39867 0
M  V30 5111 H 490.33 0.210507 -4.38695 0
M  V30 5112 H 490.936 -1.41853 -4.00946 0
M  V30 5113 N 489.251 1.34841 -0.815825 0
M  V30 5114 C 490.479 2.0273 -0.413294 0
M  V30 5115 C 490.894 1.61459 0.978599 0
M  V30 5116 O 490.251 0.816584 1.63212 0
M  V30 5117 C 490.302 3.58058 -0.497676 0
M  V30 5118 O 490.023 3.97832 -1.8347 0
M  V30 5119 C 491.524 4.4321 -0.0891339 0
M  V30 5120 H 488.744 0.649956 -0.166728 0
M  V30 5121 H 491.288 1.72267 -1.10201 0
M  V30 5122 H 489.443 3.87136 0.142886 0
M  V30 5123 H 489.857 4.92501 -1.80396 0
M  V30 5124 H 491.331 5.5164 -0.199274 0
M  V30 5125 H 491.808 4.28432 0.966571 0
M  V30 5126 H 492.414 4.19446 -0.703214 0
M  V30 5127 N 490.729 0.570148 1.46925 0
M  V30 5128 C 491.978 0.0487352 2.01641 0
M  V30 5129 C 492.291 -1.31433 1.44861 0
M  V30 5130 O 493.497 -1.92638 1.91318 0
M  V30 5131 C 491.953 0.0365817 3.59881 0
M  V30 5132 C 491.561 1.39719 4.25655 0
M  V30 5133 C 493.305 -0.431545 4.22301 0
M  V30 5134 C 491.212 1.34345 5.75939 0
M  V30 5135 H 490.142 0.0144492 0.753862 0
M  V30 5136 H 492.793 0.719928 1.68788 0
M  V30 5137 H 491.175 -0.700522 3.89755 0
M  V30 5138 H 492.349 2.15303 4.07408 0
M  V30 5139 H 490.664 1.80431 3.75278 0
M  V30 5140 H 493.261 -0.490354 5.32447 0
M  V30 5141 H 493.604 -1.44638 3.90366 0
M  V30 5142 H 494.137 0.251102 3.97007 0
M  V30 5143 H 490.876 2.33469 6.12513 0
M  V30 5144 H 490.396 0.629615 5.96486 0
M  V30 5145 H 492.075 1.051 6.38407 0
M  V30 5146 N 492.207 -1.54576 0.307264 0
M  V30 5147 C 493.437 -2.04378 -0.302158 0
M  V30 5148 C 493.845 -1.18381 -1.47589 0
M  V30 5149 O 493.188 -0.20352 -1.82569 0
M  V30 5150 C 493.25 -3.50133 -0.815305 0
M  V30 5151 C 492.914 -4.56401 0.233977 0
M  V30 5152 C 493.911 -5.08884 1.06456 0
M  V30 5153 C 491.596 -5.0088 0.377478 0
M  V30 5154 C 493.59 -6.04394 2.02452 0
M  V30 5155 C 491.277 -5.96208 1.34088 0
M  V30 5156 C 492.275 -6.47849 2.16288 0
M  V30 5157 O 491.963 -7.41308 3.10994 0
M  V30 5158 H 491.695 -0.672502 -0.0686839 0
M  V30 5159 H 494.249 -2.00484 0.446682 0
M  V30 5160 H 492.479 -3.51371 -1.61478 0
M  V30 5161 H 494.168 -3.83098 -1.34129 0
M  V30 5162 H 494.934 -4.75311 0.964596 0
M  V30 5163 H 490.813 -4.60309 -0.252405 0
M  V30 5164 H 494.357 -6.44626 2.66652 0
M  V30 5165 H 490.254 -6.29198 1.44154 0
M  V30 5166 H 491.022 -7.5913 3.06045 0
M  V30 5167 N 493.685 -0.035106 -1.57561 0
M  V30 5168 C 494.91 0.655802 -1.96759 0
M  V30 5169 C 495.335 1.64523 -0.911809 0
M  V30 5170 O 494.693 1.80857 0.126673 0
M  V30 5171 C 494.741 1.33326 -3.35047 0
M  V30 5172 O 493.845 2.44866 -3.31835 0
M  V30 5173 H 493.186 0.171807 -0.641388 0
M  V30 5174 H 495.716 -0.0987369 -2.04362 0
M  V30 5175 H 495.726 1.68867 -3.71413 0
M  V30 5176 H 494.401 0.608033 -4.11431 0
M  V30 5177 H 492.978 2.11392 -3.07193 0
M  V30 5178 N 495.163 1.55791 0.238111 0
M  V30 5179 C 496.093 1.94068 1.29846 0
M  V30 5180 C 497.074 0.806726 1.49753 0
M  V30 5181 O 498.259 1.06772 1.62214 0
M  V30 5182 C 495.389 2.24302 2.65153 0
M  V30 5183 C 494.343 3.40032 2.59927 0
M  V30 5184 C 493.669 3.55829 3.99111 0
M  V30 5185 C 494.969 4.75476 2.16148 0
M  V30 5186 H 496.663 2.82887 0.980563 0
M  V30 5187 H 494.209 1.36105 0.470253 0
M  V30 5188 H 496.162 2.4967 3.39475 0
M  V30 5189 H 494.886 1.32318 2.98596 0
M  V30 5190 H 493.545 3.14687 1.88063 0
M  V30 5191 H 493.193 2.6125 4.29834 0
M  V30 5192 H 492.893 4.3366 3.96501 0
M  V30 5193 H 494.417 3.83528 4.7512 0
M  V30 5194 H 495.831 5.00158 2.80205 0
M  V30 5195 H 494.228 5.56472 2.24631 0
M  V30 5196 H 495.298 4.71946 1.11333 0
M  V30 5197 N 496.642 -0.504142 1.49319 0
M  V30 5198 C 497.592 -1.60284 1.62151 0
M  V30 5199 C 498.576 -1.53657 0.477315 0
M  V30 5200 O 499.768 -1.6124 0.730108 0
M  V30 5201 C 496.897 -2.98909 1.68844 0
M  V30 5202 C 495.983 -3.10544 2.8883 0
M  V30 5203 N 496.374 -2.92078 4.12946 0
M  V30 5204 C 494.672 -3.4164 2.86702 0
M  V30 5205 C 495.373 -3.07812 4.93585 0
M  V30 5206 N 494.349 -3.36549 4.26891 0
M  V30 5207 H 498.151 -1.44656 2.55835 0
M  V30 5208 H 495.665 -0.710198 1.46048 0
M  V30 5209 H 497.662 -3.77865 1.76134 0
M  V30 5210 H 496.322 -3.15609 0.762943 0
M  V30 5211 H 497.333 -2.68316 4.42975 0
M  V30 5212 H 494.01 -3.64537 2.03517 0
M  V30 5213 H 495.4 -2.98054 6.02174 0
M  V30 5214 N 498.12 -1.38341 -0.754957 0
M  V30 5215 C 499.348 -1.37704 -1.54419 0
M  V30 5216 C 499.763 0.0335243 -1.8877 0
M  V30 5217 O 499.12 0.999773 -1.52679 0
M  V30 5218 C 499.171 -2.23136 -2.84416 0
M  V30 5219 O 498.892 -3.58697 -2.51531 0
M  V30 5220 C 500.393 -2.30664 -3.78562 0
M  V30 5221 H 497.613 -0.471061 -0.477852 0
M  V30 5222 H 500.157 -1.81902 -0.934446 0
M  V30 5223 H 498.312 -1.82403 -3.41772 0
M  V30 5224 H 498.726 -4.03665 -3.34896 0
M  V30 5225 H 500.2 -2.9473 -4.66732 0
M  V30 5226 H 500.677 -1.3199 -4.18898 0
M  V30 5227 H 501.283 -2.71781 -3.27131 0
M  V30 5228 N 499.598 0.982988 -1.23187 0
M  V30 5229 C 500.545 2.07491 -1.01075 0
M  V30 5230 C 501.515 1.65949 0.070905 0
M  V30 5231 O 502.7 1.90629 -0.0806822 0
M  V30 5232 C 499.84 3.39751 -0.605261 0
M  V30 5233 C 498.953 3.94578 -1.75876 0
M  V30 5234 C 498.088 5.15039 -1.3003 0
M  V30 5235 C 497.127 5.62027 -2.42472 0
M  V30 5236 N 496.264 6.73719 -1.97602 0
M  V30 5237 H 501.104 2.25739 -1.9454 0
M  V30 5238 H 498.641 1.10659 -0.969179 0
M  V30 5239 H 500.599 4.15719 -0.351279 0
M  V30 5240 H 499.229 3.21473 0.292382 0
M  V30 5241 H 498.281 3.1539 -2.12681 0
M  V30 5242 H 499.593 4.25422 -2.60418 0
M  V30 5243 H 498.747 5.9833 -1.00429 0
M  V30 5244 H 497.486 4.85843 -0.425216 0
M  V30 5245 H 496.491 4.77318 -2.7285 0
M  V30 5246 H 497.716 5.93244 -3.30512 0
M  V30 5247 H 495.662 6.46287 -1.1247 0
M  V30 5248 H 495.579 7.03934 -2.75705 0
M  V30 5249 H 496.847 7.6049 -1.71098 0
M  V30 5250 O 501.115 1.16872 1.1146 0
M  V30 5251 H 501.806 0.903209 1.71353 0
M  V30 END ATOM
M  V30 BEGIN BOND
M  V30 END BOND
M  V30 END CTAB
M  END
$$$$
