drugbank_target|Q96NR8 Retinol dehydrogenase 12 (DB00162)
 OpenBabel12092119383D

  0  0  0     0  0            999 V3000
M  V30 BEGIN CTAB
M  V30 COUNTS 5007 5057 0 0 0
M  V30 BEGIN ATOM
M  V30 1 H -0.908 1.98254 -0.117106 0
M  V30 2 N 0 1.576 0 0
M  V30 3 C 0.933 2.03868 1.02534 0
M  V30 4 C 1.911 0.928543 1.3348 0
M  V30 5 O 3.095 1.19667 1.45644 0
M  V30 6 C 0.222 2.43627 2.35294 0
M  V30 7 C -0.732 3.65373 2.2001 0
M  V30 8 S 0.101 5.13292 1.52614 0
M  V30 9 C 1.257 5.56322 2.86805 0
M  V30 10 H 1.49 2.90518 0.631377 0
M  V30 11 H -0.977 1.52953 0.210867 0
M  V30 12 H 0.981 2.67203 3.11629 0
M  V30 13 H -0.358 1.57376 2.7183 0
M  V30 14 H -1.165 3.90944 3.18086 0
M  V30 15 H -1.563 3.418 1.51819 0
M  V30 16 H 0.729 5.58782 3.83104 0
M  V30 17 H 1.672 6.56266 2.65933 0
M  V30 18 H 2.08 4.83886 2.90714 0
M  V30 19 N 1.4781 -0.272755 1.55222 0
M  V30 20 C 2.4081 -1.34136 1.91127 0
M  V30 21 C 3.3891 -1.51513 0.773168 0
M  V30 22 O 4.5741 -1.64552 1.03132 0
M  V30 23 C 1.7041 -2.70083 2.1834 0
M  V30 24 C 0.6581 -2.67437 3.34158 0
M  V30 25 C -0.0159 -4.06938 3.46851 0
M  V30 26 C 1.2841 -2.26686 4.70543 0
M  V30 27 H 2.9781 -1.04333 2.80633 0
M  V30 28 H 0.5241 -0.500454 1.35024 0
M  V30 29 H 2.4771 -3.44952 2.42046 0
M  V30 30 H 1.2011 -3.01469 1.25634 0
M  V30 31 H -0.1399 -1.95026 3.1042 0
M  V30 32 H -0.4919 -4.35547 2.51611 0
M  V30 33 H -0.7919 -4.06062 4.2472 0
M  V30 34 H 0.7321 -4.83545 3.72849 0
M  V30 35 H 2.1461 -2.91277 4.93792 0
M  V30 36 H 0.5431 -2.36971 5.5133 0
M  V30 37 H 1.6131 -1.21818 4.69349 0
M  V30 38 N 2.9562 -1.48159 -0.537278 0
M  V30 39 C 4.2022 -1.56035 -1.29541 0
M  V30 40 C 4.5352 -0.230377 -1.92829 0
M  V30 41 O 3.8102 0.762952 -1.78911 0
M  V30 42 C 4.0932 -2.69323 -2.39034 0
M  V30 43 C 3.9462 -4.12002 -1.80485 0
M  V30 44 C 5.2652 -2.78408 -3.40847 0
M  V30 45 H 2.3842 -0.567992 -0.469632 0
M  V30 46 H 5.0262 -1.80302 -0.599277 0
M  V30 47 H 3.1762 -2.48763 -2.98412 0
M  V30 48 H 4.8482 -4.43981 -1.25215 0
M  V30 49 H 3.0912 -4.19344 -1.11055 0
M  V30 50 H 3.7622 -4.87077 -2.59731 0
M  V30 51 H 6.2382 -2.97012 -2.91416 0
M  V30 52 H 5.1142 -3.59416 -4.14863 0
M  V30 53 H 5.3752 -1.86269 -4.00944 0
M  V30 54 N 4.4343 0.785586 -1.36625 0
M  V30 55 C 5.6623 1.57448 -1.3423 0
M  V30 56 C 6.0773 1.88649 0.0755653 0
M  V30 57 O 5.4343 1.50414 1.03354 0
M  V30 58 C 5.4853 2.89316 -2.16745 0
M  V30 59 O 5.2063 2.59459 -3.53005 0
M  V30 60 C 6.7073 3.83606 -2.22174 0
M  V30 61 H 3.9273 0.488226 -0.4603 0
M  V30 62 H 6.4713 0.974733 -1.79775 0
M  V30 63 H 4.6263 3.4575 -1.74745 0
M  V30 64 H 5.0403 3.43804 -3.96105 0
M  V30 65 H 6.5143 4.73181 -2.8426 0
M  V30 66 H 6.9913 4.21734 -1.22627 0
M  V30 67 H 7.5973 3.33104 -2.64427 0
M  V30 68 N 5.9124 1.20967 1.01018 0
M  V30 69 C 6.8424 0.988272 2.11555 0
M  V30 70 C 7.8234 -0.0849778 1.69888 0
M  V30 71 O 9.0084 0.0738202 1.9406 0
M  V30 72 C 6.1384 0.546528 3.42973 0
M  V30 73 C 5.0924 1.56375 3.9841 0
M  V30 74 C 4.4184 0.97842 5.25672 0
M  V30 75 C 5.7184 2.94922 4.31066 0
M  V30 76 H 7.4124 1.91276 2.30334 0
M  V30 77 H 4.9584 0.921073 1.1069 0
M  V30 78 H 6.9114 0.378839 4.19694 0
M  V30 79 H 5.6354 -0.413598 3.23971 0
M  V30 80 H 4.2944 1.71891 3.23804 0
M  V30 81 H 3.9424 0.0101688 5.02999 0
M  V30 82 H 3.6424 1.65784 5.63728 0
M  V30 83 H 5.1664 0.821939 6.05043 0
M  V30 84 H 6.5804 2.8288 4.9865 0
M  V30 85 H 4.9774 3.5983 4.80253 0
M  V30 86 H 6.0474 3.4616 3.39561 0
M  V30 87 N 7.3905 -1.2043 1.01659 0
M  V30 88 C 8.6385 -1.89423 0.704522 0
M  V30 89 C 8.9595 -1.79231 -0.768197 0
M  V30 90 O 8.2295 -1.1947 -1.55254 0
M  V30 91 H 6.8095 -0.701178 0.257602 0
M  V30 92 H 9.4715 -1.4626 1.28818 0
M  V30 93 H 8.5675 -2.96052 0.987916 0
M  V30 94 N 8.8686 -0.792821 -1.36206 0
M  V30 95 C 9.7986 -0.207853 -2.32573 0
M  V30 96 C 10.7796 0.659055 -1.56813 0
M  V30 97 O 11.9646 0.592176 -1.84951 0
M  V30 98 C 9.0946 0.655449 -3.41059 0
M  V30 99 C 8.0486 -0.111842 -4.27854 0
M  V30 100 C 7.3746 0.872274 -5.27537 0
M  V30 101 C 8.6746 -1.30299 -5.05786 0
M  V30 102 H 10.3686 -1.01294 -2.81744 0
M  V30 103 H 7.9146 -0.48854 -1.3546 0
M  V30 104 H 9.8676 1.07464 -4.07467 0
M  V30 105 H 8.5916 1.49328 -2.90463 0
M  V30 106 H 7.2506 -0.512053 -3.63006 0
M  V30 107 H 6.8986 1.70523 -4.73214 0
M  V30 108 H 6.5986 0.363291 -5.86476 0
M  V30 109 H 8.1226 1.28996 -5.96818 0
M  V30 110 H 9.5366 -0.959379 -5.65216 0
M  V30 111 H 7.9336 -1.7455 -5.74154 0
M  V30 112 H 9.0036 -2.09663 -4.37229 0
M  V30 113 N 10.3467 1.47872 -0.545128 0
M  V30 114 C 11.2767 2.32661 0.197793 0
M  V30 115 C 12.2577 1.43041 0.920504 0
M  V30 116 O 13.4427 1.71912 0.90333 0
M  V30 117 C 10.5727 3.24569 1.23582 0
M  V30 118 C 9.5267 4.23333 0.630323 0
M  V30 119 C 8.8527 5.0448 1.77211 0
M  V30 120 C 10.1527 5.20704 -0.407974 0
M  V30 121 H 11.8467 2.95024 -0.510045 0
M  V30 122 H 9.3927 1.4187 -0.246731 0
M  V30 123 H 11.3457 3.8272 1.76362 0
M  V30 124 H 10.0697 2.60236 1.97344 0
M  V30 125 H 8.7287 3.6639 0.123922 0
M  V30 126 H 8.3767 4.36561 2.49847 0
M  V30 127 H 8.0767 5.71339 1.37281 0
M  V30 128 H 9.6007 5.65487 2.3034 0
M  V30 129 H 11.0147 5.7329 0.033305 0
M  V30 130 H 9.4117 5.95699 -0.725486 0
M  V30 131 H 10.4817 4.66917 -1.30828 0
M  V30 132 N 11.8248 0.280983 1.55075 0
M  V30 133 C 13.0528 -0.337293 2.04132 0
M  V30 134 C 13.4678 -1.4903 1.15912 0
M  V30 135 O 12.8248 -1.81606 0.180459 0
M  V30 136 C 12.8758 -0.812706 3.52246 0
M  V30 137 O 12.5968 0.294387 4.3711 0
M  V30 138 C 14.0978 -1.4982 4.17216 0
M  V30 139 H 11.3178 -0.0761638 0.666663 0
M  V30 140 H 13.8618 0.414787 2.00249 0
M  V30 141 H 12.0168 -1.51486 3.56554 0
M  V30 142 H 12.4308 -0.0721325 5.2445 0
M  V30 143 H 13.9048 -1.7822 5.22438 0
M  V30 144 H 14.3818 -2.43168 3.65741 0
M  V30 145 H 14.9878 -0.839742 4.16927 0
M  V30 146 N 13.3029 -1.57598 0.00835791 0
M  V30 147 C 14.5279 -1.95617 -0.689103 0
M  V30 148 C 14.9529 -0.883753 -1.66046 0
M  V30 149 O 14.3109 0.157352 -1.80616 0
M  V30 150 C 14.3589 -3.32736 -1.38994 0
M  V30 151 O 13.4629 -3.27631 -2.50463 0
M  V30 152 H 12.8039 -0.638379 -0.182668 0
M  V30 153 H 15.3339 -2.045 0.064036 0
M  V30 154 H 15.3439 -3.68494 -1.75147 0
M  V30 155 H 14.0189 -4.1034 -0.677778 0
M  V30 156 H 12.5959 -3.03561 -2.16576 0
M  V30 157 N 14.781 0.264519 -1.55364 0
M  V30 158 C 16.028 0.994986 -1.7637 0
M  V30 159 C 16.356 1.85976 -0.5695 0
M  V30 160 O 15.611 1.90509 0.44776 0
M  V30 161 C 15.91 1.9004 -3.02687 0
M  V30 162 C 15.576 1.19243 -4.34847 0
M  V30 163 C 14.238 0.996709 -4.70764 0
M  V30 164 C 16.59 0.689296 -5.16622 0
M  V30 165 C 13.918 0.285261 -5.86006 0
M  V30 166 C 16.27 -0.00860079 -6.32599 0
M  V30 167 C 14.934 -0.215963 -6.67151 0
M  V30 168 H 14.204 0.364091 -0.645383 0
M  V30 169 H 16.851 0.266543 -1.89636 0
M  V30 170 H 15.156 2.69533 -2.84357 0
M  V30 171 H 16.853 2.46695 -3.16137 0
M  V30 172 H 13.443 1.3549 -4.06621 0
M  V30 173 H 17.627 0.828108 -4.89342 0
M  V30 174 H 12.883 0.113961 -6.11294 0
M  V30 175 H 17.057 -0.406186 -6.95214 0
M  V30 176 H 14.684 -0.769217 -7.56298 0
M  V30 177 N 16.2591 1.48442 0.529413 0
M  V30 178 C 17.5061 1.56488 1.28521 0
M  V30 179 C 17.8341 0.239042 1.93025 0
M  V30 180 O 17.0891 -0.770713 1.79885 0
M  V30 181 C 17.3881 2.6523 2.39558 0
M  V30 182 C 17.0541 4.07648 1.92702 0
M  V30 183 C 15.7161 4.46411 1.79641 0
M  V30 184 C 18.0681 4.96896 1.573 0
M  V30 185 C 15.3961 5.72226 1.29514 0
M  V30 186 C 17.7481 6.23202 1.08636 0
M  V30 187 C 16.4121 6.60821 0.941919 0
M  V30 188 H 15.6821 0.572631 0.470292 0
M  V30 189 H 18.3291 1.82161 0.59072 0
M  V30 190 H 16.6341 2.33419 3.14679 0
M  V30 191 H 18.3311 2.68671 2.97686 0
M  V30 192 H 14.9211 3.77036 2.03819 0
M  V30 193 H 19.1051 4.67626 1.66251 0
M  V30 194 H 14.3611 6.00097 1.17019 0
M  V30 195 H 18.5351 6.91753 0.803136 0
M  V30 196 H 16.1621 7.58198 0.5513 0
M  V30 197 N 17.7372 -0.778329 1.37039 0
M  V30 198 C 18.9622 -1.57248 1.35233 0
M  V30 199 C 19.3872 -1.87999 -0.0615568 0
M  V30 200 O 18.7452 -1.48734 -1.03672 0
M  V30 201 C 18.7932 -2.86353 2.19167 0
M  V30 202 O 17.8972 -3.80442 1.59178 0
M  V30 203 H 17.2382 -0.476569 0.462362 0
M  V30 204 H 19.7682 -0.963853 1.80474 0
M  V30 205 H 19.7782 -3.35519 2.32145 0
M  V30 206 H 18.4532 -2.63299 3.21942 0
M  V30 207 H 17.0302 -3.39067 1.55203 0
M  V30 208 N 19.2153 -1.21501 -1.00376 0
M  V30 209 C 20.4623 -1.03299 -1.74171 0
M  V30 210 C 20.7903 0.433326 -1.89612 0
M  V30 211 O 20.0453 1.33779 -1.42834 0
M  V30 212 C 20.3443 -1.67673 -3.15627 0
M  V30 213 C 20.0103 -3.17533 -3.2013 0
M  V30 214 C 18.6723 -3.58427 -3.21067 0
M  V30 215 C 21.0243 -4.13504 -3.17275 0
M  V30 216 C 18.3523 -4.93794 -3.16835 0
M  V30 217 C 20.7043 -5.48834 -3.14585 0
M  V30 218 C 19.3683 -5.89123 -3.13831 0
M  V30 219 H 18.6383 -0.377999 -0.637336 0
M  V30 220 H 21.2853 -1.51111 -1.17634 0
M  V30 221 H 19.5903 -1.12158 -3.75404 0
M  V30 222 H 21.2873 -1.51091 -3.71446 0
M  V30 223 H 17.8773 -2.84965 -3.20145 0
M  V30 224 H 22.0613 -3.82936 -3.15711 0
M  V30 225 H 17.3173 -5.24255 -3.1459 0
M  V30 226 H 21.4913 -6.22934 -3.1133 0
M  V30 227 H 19.1183 -6.93984 -3.10307 0
M  V30 228 N 20.6934 1.19889 -1.02296 0
M  V30 229 C 21.6234 2.25141 -0.619174 0
M  V30 230 C 22.6044 1.66051 0.368915 0
M  V30 231 O 23.7894 1.92546 0.252941 0
M  V30 232 C 20.9194 3.4728 0.0368783 0
M  V30 233 C 19.8734 4.19005 -0.872865 0
M  V30 234 C 19.1994 5.34637 -0.0822402 0
M  V30 235 C 20.4994 4.74452 -2.18387 0
M  V30 236 H 22.1934 2.59171 -1.49903 0
M  V30 237 H 19.7394 1.24579 -0.722222 0
M  V30 238 H 21.6924 4.20098 0.330958 0
M  V30 239 H 20.4164 3.12433 0.95149 0
M  V30 240 H 19.0754 3.48061 -1.15105 0
M  V30 241 H 18.7234 4.96034 0.83422 0
M  V30 242 H 18.4234 5.83557 -0.688149 0
M  V30 243 H 19.9474 6.10255 0.205238 0
M  V30 244 H 21.3614 5.39055 -1.95172 0
M  V30 245 H 19.7584 5.33834 -2.74119 0
M  V30 246 H 20.8284 3.92844 -2.84257 0
M  V30 247 N 22.1715 0.800033 1.35784 0
M  V30 248 C 23.4015 0.389041 2.02904 0
M  V30 249 C 23.8095 -1.0027 1.60445 0
M  V30 250 O 23.1525 -1.65633 0.794453 0
M  V30 251 C 23.2145 0.385495 3.57427 0
M  V30 252 C 22.8785 1.72662 4.23127 0
M  V30 253 C 23.8755 2.68385 4.4527 0
M  V30 254 C 21.5605 2.00883 4.60381 0
M  V30 255 C 23.5545 3.90517 5.03761 0
M  V30 256 C 21.2415 3.2328 5.18588 0
M  V30 257 C 22.2395 4.17915 5.40218 0
M  V30 258 O 21.9275 5.38153 5.97199 0
M  V30 259 H 21.6595 0.157032 0.657508 0
M  V30 260 H 24.2135 1.08311 1.74522 0
M  V30 261 H 22.4435 -0.365128 3.84972 0
M  V30 262 H 24.1325 -0.00228296 4.059 0
M  V30 263 H 24.8985 2.47872 4.16874 0
M  V30 264 H 20.7775 1.28037 4.42863 0
M  V30 265 H 24.3215 4.64395 5.2056 0
M  V30 266 H 20.2185 3.43667 5.4641 0
M  V30 267 H 20.9865 5.3936 6.15656 0
M  V30 268 N 23.6496 -1.47581 0.552962 0
M  V30 269 C 24.5826 -2.26883 -0.244857 0
M  V30 270 C 25.5606 -1.33784 -0.924147 0
M  V30 271 O 26.7446 -1.6316 -0.943981 0
M  V30 272 C 23.8716 -3.10695 -1.34856 0
M  V30 273 C 22.9176 -4.19339 -0.778268 0
M  V30 274 S 23.7506 -5.34207 0.37184 0
M  V30 275 C 24.9066 -6.21584 -0.733779 0
M  V30 276 H 25.1396 -2.94202 0.428087 0
M  V30 277 H 22.6726 -1.50628 0.339197 0
M  V30 278 H 24.6306 -3.59555 -1.98066 0
M  V30 279 H 23.2916 -2.42746 -1.99332 0
M  V30 280 H 22.4846 -4.77695 -1.60696 0
M  V30 281 H 22.0866 -3.73338 -0.222422 0
M  V30 282 H 24.3786 -6.57676 -1.62692 0
M  V30 283 H 25.3216 -7.07851 -0.187668 0
M  V30 284 H 25.7296 -5.55125 -1.02454 0
M  V30 285 N 25.1277 -0.289203 -1.54924 0
M  V30 286 C 26.3737 0.323998 -2.00195 0
M  V30 287 C 26.7067 1.54441 -1.17735 0
M  V30 288 O 25.9817 1.92875 -0.250878 0
M  V30 289 C 26.2647 0.692276 -3.53383 0
M  V30 290 C 26.1177 -0.536457 -4.46589 0
M  V30 291 C 27.4367 1.52335 -4.12895 0
M  V30 292 H 24.5557 0.116289 -0.727768 0
M  V30 293 H 27.1977 -0.398954 -1.85764 0
M  V30 294 H 25.3477 1.30822 -3.65811 0
M  V30 295 H 27.0197 -1.17499 -4.46085 0
M  V30 296 H 25.2627 -1.17192 -4.1767 0
M  V30 297 H 25.9337 -0.234806 -5.515 0
M  V30 298 H 28.4097 1.00302 -4.0383 0
M  V30 299 H 27.2857 1.74982 -5.20262 0
M  V30 300 H 27.5467 2.50886 -3.64018 0
M  V30 301 N 26.6058 1.57591 -0.0167156 0
M  V30 302 C 27.5688 2.08393 0.954204 0
M  V30 303 C 28.5688 0.996531 1.26198 0
M  V30 304 O 29.7588 1.25858 1.20438 0
M  V30 305 C 26.8908 2.5394 2.27436 0
M  V30 306 H 28.0838 2.95455 0.514451 0
M  V30 307 H 25.6368 1.54582 0.231089 0
M  V30 308 H 26.3718 1.70171 2.76066 0
M  V30 309 H 26.1568 3.33371 2.06412 0
M  V30 310 H 27.6468 2.93512 2.97053 0
M  V30 311 N 28.0839 -0.256276 1.55502 0
M  V30 312 C 29.4949 -0.826068 1.67431 0
M  V30 313 C 29.8459 -1.86396 0.612446 0
M  V30 314 O 28.9709 -2.15031 -0.243025 0
M  V30 315 C 29.5659 -1.50512 3.03532 0
M  V30 316 C 28.1249 -2.02273 3.17431 0
M  V30 317 C 27.2719 -0.870548 2.63281 0
M  V30 318 H 30.2229 -0.0322728 1.58667 0
M  V30 319 H 30.2439 -2.37279 2.97454 0
M  V30 320 H 29.7559 -0.749484 3.80794 0
M  V30 321 H 27.8569 -2.80746 2.44974 0
M  V30 322 H 27.9699 -2.22655 4.24219 0
M  V30 323 H 26.3339 -1.26851 2.20864 0
M  V30 324 H 27.1169 -0.128149 3.43061 0
M  V30 325 N 29.562 -1.4872 -0.521534 0
M  V30 326 C 30.787 -1.61101 -1.30618 0
M  V30 327 C 31.212 -0.274611 -1.86085 0
M  V30 328 O 30.57 0.754937 -1.64834 0
M  V30 329 C 30.618 -2.66709 -2.4269 0
M  V30 330 O 29.722 -2.24456 -3.45967 0
M  V30 331 H 29.063 -0.539921 -0.386499 0
M  V30 332 H 31.593 -1.94767 -0.626645 0
M  V30 333 H 31.603 -2.88245 -2.88754 0
M  V30 334 H 30.278 -3.63727 -2.01682 0
M  V30 335 H 28.855 -2.13168 -3.05964 0
M  V30 336 N 31.0401 0.771051 -1.3745 0
M  V30 337 C 32.2891 1.52491 -1.3202 0
M  V30 338 C 32.6021 1.9538 0.0927347 0
M  V30 339 O 33.8081 2.70159 0.269503 0
M  V30 340 C 32.2641 2.75366 -2.31736 0
M  V30 341 C 31.8721 2.39573 -3.78562 0
M  V30 342 C 33.6161 3.53307 -2.35318 0
M  V30 343 C 31.5231 3.58954 -4.70007 0
M  V30 344 H 30.4531 0.572506 -0.490666 0
M  V30 345 H 33.1041 0.844474 -1.62914 0
M  V30 346 H 31.4861 3.45303 -1.93861 0
M  V30 347 H 32.6601 1.77415 -4.25277 0
M  V30 348 H 30.9751 1.74805 -3.77932 0
M  V30 349 H 33.5721 4.42039 -3.00842 0
M  V30 350 H 33.9151 3.93217 -1.36698 0
M  V30 351 H 34.4481 2.90367 -2.71904 0
M  V30 352 H 31.1871 3.24125 -5.69757 0
M  V30 353 H 30.7071 4.20214 -4.27996 0
M  V30 354 H 32.3861 4.25758 -4.87175 0
M  V30 355 N 32.5182 1.22032 0.997298 0
M  V30 356 C 33.9342 0.979326 1.26021 0
M  V30 357 C 34.1342 -0.32972 1.98784 0
M  V30 358 O 33.1902 -1.05345 2.29475 0
M  V30 359 C 34.5032 2.17509 2.07631 0
M  V30 360 C 36.0512 2.21817 2.2083 0
M  V30 361 C 36.5262 3.40933 3.05825 0
M  V30 362 N 38.0172 3.41067 3.13412 0
M  V30 363 C 38.7522 4.29885 3.79455 0
M  V30 364 N 38.2482 5.28914 4.47462 0
M  V30 365 N 40.0412 4.17673 3.76173 0
M  V30 366 H 32.1922 2.06202 0.509352 0
M  V30 367 H 34.4552 0.90334 0.287541 0
M  V30 368 H 34.1612 3.12415 1.61524 0
M  V30 369 H 34.0352 2.17206 3.08385 0
M  V30 370 H 36.4222 1.27462 2.66153 0
M  V30 371 H 36.5032 2.2616 1.1952 0
M  V30 372 H 36.1472 4.35586 2.61203 0
M  V30 373 H 36.0772 3.33829 4.07266 0
M  V30 374 H 38.5682 2.69406 2.65007 0
M  V30 375 H 38.8812 5.92973 4.95583 0
M  V30 376 H 37.2262 5.32831 4.46224 0
M  V30 377 H 40.4172 3.39564 3.22202 0
M  V30 378 H 40.5902 4.87098 4.27363 0
M  V30 379 N 33.9963 -1.19345 1.0293 0
M  V30 380 C 34.9433 -2.2258 0.610464 0
M  V30 381 C 35.9133 -1.6179 -0.375946 0
M  V30 382 O 37.0983 -1.88844 -0.272511 0
M  V30 383 C 34.2383 -3.45085 -0.0321473 0
M  V30 384 C 33.3513 -4.20258 1.00035 0
M  V30 385 C 32.4863 -5.3019 0.32746 0
M  V30 386 C 31.5253 -5.97121 1.34584 0
M  V30 387 N 30.6623 -6.98615 0.698726 0
M  V30 388 H 35.5023 -2.57764 1.49538 0
M  V30 389 H 33.0393 -1.26644 0.748311 0
M  V30 390 H 34.9973 -4.15061 -0.421966 0
M  V30 391 H 33.6273 -3.10555 -0.88064 0
M  V30 392 H 32.6793 -3.49223 1.50823 0
M  V30 393 H 33.9913 -4.66175 1.77433 0
M  V30 394 H 33.1453 -6.06587 -0.11718 0
M  V30 395 H 31.8843 -4.85345 -0.478713 0
M  V30 396 H 30.8893 -5.19474 1.80074 0
M  V30 397 H 32.1143 -6.4405 2.15352 0
M  V30 398 H 30.0603 -6.55942 -0.0873471 0
M  V30 399 H 29.9773 -7.42724 1.41058 0
M  V30 400 H 31.2453 -7.79004 0.278102 0
M  V30 401 N 35.4744 -0.807222 -1.35358 0
M  V30 402 C 36.7214 -0.387888 -1.9875 0
M  V30 403 C 37.0494 1.04509 -1.64037 0
M  V30 404 O 36.3044 1.73986 -0.895946 0
M  V30 405 C 36.6034 -0.519036 -3.53611 0
M  V30 406 C 36.2694 -1.91542 -4.08194 0
M  V30 407 C 34.9314 -2.29745 -4.22813 0
M  V30 408 C 37.2834 -2.82896 -4.37744 0
M  V30 409 C 34.6114 -3.58668 -4.643 0
M  V30 410 C 36.9634 -4.11265 -4.8067 0
M  V30 411 C 35.6274 -4.49466 -4.93494 0
M  V30 412 H 34.8974 -0.141938 -0.727279 0
M  V30 413 H 37.5444 -1.02814 -1.6156 0
M  V30 414 H 35.8494 0.204658 -3.91265 0
M  V30 415 H 37.5464 -0.175345 -4.00616 0
M  V30 416 H 34.1364 -1.60862 -3.97268 0
M  V30 417 H 38.3204 -2.54629 -4.26002 0
M  V30 418 H 33.5764 -3.88113 -4.72418 0
M  V30 419 H 37.7504 -4.82153 -5.02496 0
M  V30 420 H 35.3774 -5.49418 -5.25399 0
M  V30 421 N 36.9525 1.47285 -0.560781 0
M  V30 422 C 38.1995 2.02464 -0.038062 0
M  V30 423 C 38.5275 1.43474 1.31322 0
M  V30 424 O 37.7825 0.581311 1.86867 0
M  V30 425 C 38.0815 3.57258 0.100784 0
M  V30 426 C 37.7475 4.35184 -1.18007 0
M  V30 427 C 36.4095 4.56194 -1.53103 0
M  V30 428 C 38.7615 4.80098 -2.02867 0
M  V30 429 C 36.0895 5.19367 -2.729 0
M  V30 430 C 38.4415 5.44593 -3.21871 0
M  V30 431 C 37.1055 5.63835 -3.57276 0
M  V30 432 H 36.3755 0.740869 -0.0139279 0
M  V30 433 H 39.0225 1.76916 -0.733012 0
M  V30 434 H 37.3275 3.81819 0.878724 0
M  V30 435 H 39.0245 3.97606 0.520639 0
M  V30 436 H 35.6145 4.19113 -0.8968 0
M  V30 437 H 39.7985 4.63642 -1.7706 0
M  V30 438 H 35.0545 5.32459 -3.00496 0
M  V30 439 H 39.2285 5.78358 -3.87911 0
M  V30 440 H 36.8555 6.12557 -4.50197 0
M  V30 441 N 38.4306 0.297415 1.54768 0
M  V30 442 C 39.3936 -0.567375 2.22066 0
M  V30 443 C 40.3936 -1.06409 1.20556 0
M  V30 444 O 41.5836 -0.960691 1.45315 0
M  V30 445 C 38.7156 -1.78517 2.90421 0
M  V30 446 H 39.9086 0.0205534 2.99893 0
M  V30 447 H 37.4616 0.0482163 1.56226 0
M  V30 448 H 38.1966 -2.41303 2.16664 0
M  V30 449 H 37.9816 -1.43669 3.64831 0
M  V30 450 H 39.4716 -2.39964 3.41771 0
M  V30 451 N 39.9087 -1.5758 0.0250728 0
M  V30 452 C 41.1567 -1.91255 -0.653151 0
M  V30 453 C 41.4777 -0.901691 -1.729 0
M  V30 454 O 40.7477 0.0573785 -1.95816 0
M  V30 455 H 39.3277 -0.705942 -0.244243 0
M  V30 456 H 41.9897 -1.94767 0.0719209 0
M  V30 457 H 41.0857 -2.91752 -1.10847 0
M  V30 458 N 41.3868 0.248026 -1.55636 0
M  V30 459 C 42.6348 0.974295 -1.77065 0
M  V30 460 C 42.9558 1.85897 -0.588849 0
M  V30 461 O 42.2258 1.91868 0.395407 0
M  V30 462 H 40.8058 0.362733 -0.653019 0
M  V30 463 H 43.4678 0.266244 -1.93073 0
M  V30 464 H 42.5638 1.59667 -2.68166 0
M  V30 465 N 42.8649 1.48995 0.513639 0
M  V30 466 C 44.1109 1.58076 1.27042 0
M  V30 467 C 44.4439 0.261026 1.92438 0
M  V30 468 O 43.7189 -0.734393 1.80103 0
M  V30 469 C 44.0019 2.73091 2.34719 0
M  V30 470 C 43.8549 4.14821 1.73907 0
M  V30 471 C 45.1739 2.83796 3.36375 0
M  V30 472 H 42.2929 0.575391 0.460536 0
M  V30 473 H 44.9349 1.81232 0.570516 0
M  V30 474 H 43.0849 2.53479 2.94416 0
M  V30 475 H 44.7569 4.45917 1.18135 0
M  V30 476 H 42.9999 4.21058 1.0437 0
M  V30 477 H 43.6709 4.91147 2.51949 0
M  V30 478 H 46.1469 3.01611 2.86653 0
M  V30 479 H 45.0229 3.65971 4.09093 0
M  V30 480 H 45.2839 1.92624 3.9793 0
M  V30 481 N 44.343 -0.763751 1.37857 0
M  V30 482 C 45.583 -1.53551 1.34913 0
M  V30 483 C 45.947 -1.91895 -0.0635882 0
M  V30 484 O 47.148 -2.67916 -0.217825 0
M  V30 485 C 45.419 -2.76126 2.26912 0
M  V30 486 S 46.978 -3.66105 2.41893 0
M  V30 487 H 43.796 -0.52559 0.478828 0
M  V30 488 H 46.398 -0.897435 1.73685 0
M  V30 489 H 45.102 -2.4605 3.28463 0
M  V30 490 H 44.633 -3.44887 1.89253 0
M  V30 491 H 46.648 -4.68473 1.63545 0
M  V30 492 N 45.8211 -1.22559 -0.990812 0
M  V30 493 C 47.2371 -0.985996 -1.255 0
M  V30 494 C 47.4371 0.319173 -1.98956 0
M  V30 495 O 46.4931 1.04127 -2.3003 0
M  V30 496 C 47.8061 -2.18607 -2.06474 0
M  V30 497 C 49.3541 -2.22985 -2.19651 0
M  V30 498 C 49.8291 -3.4255 -3.04012 0
M  V30 499 N 51.3201 -3.42725 -3.11599 0
M  V30 500 C 52.0551 -4.31892 -3.7717 0
M  V30 501 N 51.5511 -5.31279 -4.44651 0
M  V30 502 N 53.3441 -4.19662 -3.73952 0
M  V30 503 H 45.4951 -2.06469 -0.49841 0
M  V30 504 H 47.7581 -0.904853 -0.282747 0
M  V30 505 H 47.4641 -3.13267 -1.59865 0
M  V30 506 H 47.3381 -2.18838 -3.07229 0
M  V30 507 H 49.7251 -1.28871 -2.65474 0
M  V30 508 H 49.8061 -2.26791 -1.18319 0
M  V30 509 H 49.4501 -4.36965 -2.58889 0
M  V30 510 H 49.3801 -3.35984 -4.0549 0
M  V30 511 H 51.8711 -2.70807 -2.63575 0
M  V30 512 H 52.1841 -5.95593 -4.92431 0
M  V30 513 H 50.5291 -5.3519 -4.43392 0
M  V30 514 H 53.7201 -3.41268 -3.20396 0
M  V30 515 H 53.8931 -4.89358 -4.24774 0
M  V30 516 N 47.2992 1.18797 -1.03562 0
M  V30 517 C 48.5272 1.92599 -0.755869 0
M  V30 518 C 48.9422 1.75886 0.686271 0
M  V30 519 O 48.2992 1.08517 1.46732 0
M  V30 520 C 48.3502 3.44159 -1.10619 0
M  V30 521 O 48.0712 3.60341 -2.4917 0
M  V30 522 C 49.5722 4.3507 -0.850214 0
M  V30 523 H 46.7922 0.611587 -0.276048 0
M  V30 524 H 49.3362 1.50742 -1.38192 0
M  V30 525 H 47.4912 3.83823 -0.525194 0
M  V30 526 H 47.9052 4.54128 -2.62427 0
M  V30 527 H 49.3792 5.39989 -1.14523 0
M  V30 528 H 49.8562 4.38673 0.215176 0
M  V30 529 H 50.4622 4.01097 -1.41426 0
M  V30 530 N 48.7773 0.814389 1.34928 0
M  V30 531 C 49.7253 0.218424 2.31572 0
M  V30 532 C 50.7193 -0.636128 1.57002 0
M  V30 533 O 51.9253 -0.52842 1.72069 0
M  V30 534 H 48.3003 0.0518799 0.750208 0
M  V30 535 H 50.2713 1.04852 2.79372 0
M  V30 536 C 49.0203 -0.61207 3.4227 0
M  V30 537 H 48.3433 0.0361578 3.99784 0
M  V30 538 H 49.7833 -0.995317 4.12152 0
M  V30 539 C 48.2423 -1.78087 2.85984 0
M  V30 540 O 48.7723 -2.8787 2.80168 0
M  V30 541 N 46.9783 -1.59488 2.42924 0
M  V30 542 H 46.5253 -0.701874 2.47854 0
M  V30 543 H 46.4833 -2.37846 2.05613 0
M  V30 544 N 50.2554 -1.46986 0.568584 0
M  V30 545 C 51.5014 -2.02741 0.0488709 0
M  V30 546 C 51.8344 -1.44077 -1.30214 0
M  V30 547 O 51.1094 -0.600552 -1.84996 0
M  V30 548 C 51.3924 -3.60086 -0.032047 0
M  V30 549 C 51.2454 -4.29162 1.34686 0
M  V30 550 C 52.5644 -4.33838 -0.739798 0
M  V30 551 H 49.6834 -0.736749 0.0192338 0
M  V30 552 H 52.3254 -1.75289 0.733065 0
M  V30 553 H 50.4754 -3.83606 -0.61473 0
M  V30 554 H 52.1474 -4.16948 1.97362 0
M  V30 555 H 50.3904 -3.89073 1.91846 0
M  V30 556 H 51.0614 -5.37826 1.24285 0
M  V30 557 H 53.5374 -4.15378 -0.244939 0
M  V30 558 H 52.4134 -5.43537 -0.765406 0
M  V30 559 H 52.6744 -4.03875 -1.79827 0
M  V30 560 N 51.7335 -0.305618 -1.54608 0
M  V30 561 C 52.6655 0.602161 -2.21149 0
M  V30 562 C 53.6785 1.09394 -1.20569 0
M  V30 563 O 54.8675 1.0106 -1.47136 0
M  V30 564 C 51.9675 1.83692 -2.84799 0
M  V30 565 C 51.1405 1.48686 -4.11353 0
M  V30 566 C 50.1995 2.57725 -4.58764 0
M  V30 567 O 49.2255 2.22623 -5.23858 0
M  V30 568 N 50.4275 3.88346 -4.31471 0
M  V30 569 H 53.1925 0.0324966 -2.99682 0
M  V30 570 H 50.7535 -0.128021 -1.61393 0
M  V30 571 H 52.7455 2.55994 -3.13448 0
M  V30 572 H 51.3155 2.31486 -2.10078 0
M  V30 573 H 50.5355 0.596269 -3.89664 0
M  V30 574 H 51.8235 1.22842 -4.93748 0
M  V30 575 H 51.2215 4.19671 -3.79331 0
M  V30 576 H 49.7785 4.56932 -4.64818 0
M  V30 577 N 53.2116 1.57565 -0.0334293 0
M  V30 578 C 54.1416 2.13511 0.945265 0
M  V30 579 C 55.1226 1.05231 1.33643 0
M  V30 580 O 56.3076 1.33084 1.41429 0
M  V30 581 C 53.4376 2.6657 2.22616 0
M  V30 582 C 52.3916 3.79676 1.97561 0
M  V30 583 C 51.7176 4.1918 3.31952 0
M  V30 584 C 53.0176 5.0557 1.31135 0
M  V30 585 H 54.7116 2.95538 0.479325 0
M  V30 586 H 52.2576 1.42166 0.229115 0
M  V30 587 H 54.2106 3.04344 2.91466 0
M  V30 588 H 52.9346 1.8171 2.71384 0
M  V30 589 H 51.5936 3.42347 1.31127 0
M  V30 590 H 51.2416 3.31296 3.78487 0
M  V30 591 H 50.9416 4.95402 3.15992 0
M  V30 592 H 52.4656 4.59541 4.02063 0
M  V30 593 H 53.8796 5.40903 1.89992 0
M  V30 594 H 52.2766 5.86818 1.25559 0
M  V30 595 H 53.3466 4.84062 0.284894 0
M  V30 596 N 54.6897 -0.239769 1.55765 0
M  V30 597 C 56.1007 -0.808263 1.68297 0
M  V30 598 C 56.4517 -1.85736 0.632181 0
M  V30 599 O 55.5767 -2.15277 -0.220204 0
M  V30 600 C 56.1717 -1.47284 3.05111 0
M  V30 601 C 54.7307 -1.98895 3.19559 0
M  V30 602 C 53.8777 -0.842575 2.64189 0
M  V30 603 H 56.8287 -0.0154422 1.58692 0
M  V30 604 H 56.8497 -2.34111 2.99954 0
M  V30 605 H 56.3617 -0.709053 3.81568 0
M  V30 606 H 54.4627 -2.78132 2.47938 0
M  V30 607 H 54.5757 -2.18143 4.26556 0
M  V30 608 H 52.9397 -1.24501 2.22197 0
M  V30 609 H 53.7227 -0.0917552 3.43177 0
M  V30 610 N 56.1678 -1.49265 -0.50573 0
M  V30 611 C 57.4158 -1.582 -1.25766 0
M  V30 612 C 57.7368 -0.268482 -1.93143 0
M  V30 613 O 57.0068 0.711833 -1.8251 0
M  V30 614 H 55.5868 -0.582873 -0.467191 0
M  V30 615 H 58.2488 -1.85865 -0.586525 0
M  V30 616 H 57.3448 -2.37563 -2.02412 0
M  V30 617 N 57.6459 0.756429 -1.3826 0
M  V30 618 C 58.5929 1.87011 -1.35261 0
M  V30 619 C 59.5629 1.64695 -0.215616 0
M  V30 620 O 60.7479 1.864 -0.407399 0
M  V30 621 C 57.8879 3.24275 -1.18068 0
M  V30 622 C 57.0009 3.58442 -2.41129 0
M  V30 623 C 56.1359 4.84994 -2.16689 0
M  V30 624 C 55.1749 5.11939 -3.35537 0
M  V30 625 N 54.3119 6.29685 -3.10549 0
M  V30 626 H 59.1519 1.8891 -2.30472 0
M  V30 627 H 56.6889 0.923373 -1.14509 0
M  V30 628 H 58.6469 4.03479 -1.06116 0
M  V30 629 H 57.2769 3.21711 -0.264973 0
M  V30 630 H 56.3289 2.74103 -2.63764 0
M  V30 631 H 57.6409 3.74283 -3.29717 0
M  V30 632 H 56.7949 5.72135 -2.01857 0
M  V30 633 H 55.5339 4.71286 -1.25462 0
M  V30 634 H 54.5389 4.23268 -3.50891 0
M  V30 635 H 55.7639 5.27546 -4.27635 0
M  V30 636 H 53.7099 6.17306 -2.21967 0
M  V30 637 H 53.6269 6.46014 -3.92686 0
M  V30 638 H 54.8949 7.19722 -2.99367 0
M  V30 639 N 59.124 1.23083 0.984299 0
M  V30 640 C 60.37 1.06214 1.72761 0
M  V30 641 C 60.703 -0.400584 1.90024 0
M  V30 642 O 59.978 -1.29672 1.44967 0
M  V30 643 C 60.261 1.78375 3.12817 0
M  V30 644 C 60.114 3.32296 3.03149 0
M  V30 645 C 61.433 1.54309 4.12161 0
M  V30 646 H 58.552 0.387251 0.627061 0
M  V30 647 H 61.194 1.51536 1.14616 0
M  V30 648 H 59.344 1.39848 3.62457 0
M  V30 649 H 61.016 3.8032 2.61064 0
M  V30 650 H 59.259 3.6153 2.39747 0
M  V30 651 H 59.93 3.77972 4.02295 0
M  V30 652 H 62.406 1.87791 3.71314 0
M  V30 653 H 61.282 2.07281 5.08258 0
M  V30 654 H 61.543 0.477572 4.39513 0
M  V30 655 N 60.6021 -1.18246 1.0419 0
M  V30 656 C 61.8481 -1.88536 0.747122 0
M  V30 657 C 62.1811 -1.80223 -0.723409 0
M  V30 658 O 61.4561 -1.20337 -1.52804 0
M  V30 659 C 61.7391 -3.38968 1.21544 0
M  V30 660 C 61.5921 -3.56084 2.74816 0
M  V30 661 C 62.9111 -4.32648 0.806482 0
M  V30 662 H 60.0301 -0.684619 0.272883 0
M  V30 663 H 62.6721 -1.39113 1.29413 0
M  V30 664 H 60.8221 -3.8119 0.750081 0
M  V30 665 H 62.4941 -3.22946 3.29399 0
M  V30 666 H 60.7371 -2.98699 3.14582 0
M  V30 667 H 61.4081 -4.61639 3.02644 0
M  V30 668 H 63.8841 -3.98211 1.20695 0
M  V30 669 H 62.7601 -5.36462 1.1619 0
M  V30 670 H 63.0211 -4.41146 -0.29029 0
M  V30 671 N 62.0802 -0.821533 -1.34494 0
M  V30 672 C 63.3262 -0.409552 -1.98622 0
M  V30 673 C 63.6592 1.0244 -1.64984 0
M  V30 674 O 62.9342 1.71325 -0.920758 0
M  V30 675 C 63.2172 -0.610458 -3.54888 0
M  V30 676 C 63.0702 -2.09043 -3.98273 0
M  V30 677 C 64.3892 -0.0455379 -4.40076 0
M  V30 678 H 61.5082 -0.15028 -0.721516 0
M  V30 679 H 64.1502 -1.03384 -1.59411 0
M  V30 680 H 62.3002 -0.079044 -3.8842 0
M  V30 681 H 63.9722 -2.68537 -3.75081 0
M  V30 682 H 62.2152 -2.58139 -3.48635 0
M  V30 683 H 62.8862 -2.18182 -5.07051 0
M  V30 684 H 65.3622 -0.499557 -4.1309 0
M  V30 685 H 64.2382 -0.215922 -5.48475 0
M  V30 686 H 64.4992 1.04939 -4.29465 0
M  V30 687 N 63.5583 1.46682 -0.576371 0
M  V30 688 C 64.8073 2.01619 -0.0572825 0
M  V30 689 C 65.1203 1.45417 1.30818 0
M  V30 690 O 66.3263 1.92133 1.91825 0
M  V30 691 C 64.7823 3.59863 -0.0518371 0
M  V30 692 C 64.3903 4.25059 -1.41523 0
M  V30 693 C 66.1343 4.2248 0.413639 0
M  V30 694 C 64.0413 5.75364 -1.36785 0
M  V30 695 H 62.9713 0.753794 -0.0176448 0
M  V30 696 H 65.6223 1.68481 -0.727076 0
M  V30 697 H 64.0043 3.90048 0.683994 0
M  V30 698 H 65.1783 4.06491 -2.17029 0
M  V30 699 H 63.4933 3.7451 -1.8202 0
M  V30 700 H 66.0903 5.3265 0.467779 0
M  V30 701 H 66.4333 3.90976 1.42982 0
M  V30 702 H 66.9663 3.96897 -0.267929 0
M  V30 703 H 63.7053 6.11518 -2.36063 0
M  V30 704 H 63.2253 5.96214 -0.654895 0
M  V30 705 H 64.9043 6.37955 -1.07805 0
M  V30 706 N 65.0364 0.313813 1.54444 0
M  V30 707 C 66.2644 -0.293918 2.04802 0
M  V30 708 C 66.6794 -1.46537 1.19047 0
M  V30 709 O 66.0364 -1.81182 0.218939 0
M  V30 710 C 66.0874 -0.737806 3.53891 0
M  V30 711 O 65.8084 0.387038 4.36387 0
M  V30 712 C 67.3094 -1.40936 4.203 0
M  V30 713 H 64.5294 -0.0620057 0.668129 0
M  V30 714 H 67.0734 0.457169 1.99324 0
M  V30 715 H 65.2284 -1.43889 3.59687 0
M  V30 716 H 65.6424 0.0391274 5.24485 0
M  V30 717 H 67.1164 -1.67099 5.26101 0
M  V30 718 H 67.5934 -2.35355 3.70816 0
M  V30 719 H 68.1994 -0.751117 4.18615 0
M  V30 720 N 66.5145 -1.57545 0.0417849 0
M  V30 721 C 67.7625 -1.91937 -0.632829 0
M  V30 722 C 68.0835 -0.919978 -1.71934 0
M  V30 723 O 67.3535 0.0366064 -1.95866 0
M  V30 724 H 65.9335 -0.708493 -0.236742 0
M  V30 725 H 68.5955 -1.9468 0.0925745 0
M  V30 726 H 67.6915 -2.92912 -1.07746 0
M  V30 727 N 67.9926 0.231505 -1.5589 0
M  V30 728 C 68.9556 1.27028 -1.90779 0
M  V30 729 C 69.9556 1.40308 -0.785507 0
M  V30 730 O 71.1456 1.38744 -1.05336 0
M  V30 731 C 68.2776 2.64566 -2.14983 0
M  V30 732 H 69.4706 0.973017 -2.83677 0
M  V30 733 H 67.0236 0.471486 -1.49019 0
M  V30 734 H 67.7586 2.99406 -1.24604 0
M  V30 735 H 67.5436 2.56305 -2.96732 0
M  V30 736 H 69.0336 3.39543 -2.43105 0
M  V30 737 N 69.4707 1.49531 0.497807 0
M  V30 738 C 70.4187 1.66926 1.61983 0
M  V30 739 C 71.4127 0.535167 1.60724 0
M  V30 740 O 72.6187 0.714896 1.65195 0
M  V30 741 H 68.9937 0.526415 0.537021 0
M  V30 742 H 70.9647 2.61098 1.44465 0
M  V30 743 C 69.7137 1.75602 3.00099 0
M  V30 744 H 69.0367 2.62244 3.01775 0
M  V30 745 H 70.4767 1.91807 3.78135 0
M  V30 746 C 68.9357 0.501543 3.33146 0
M  V30 747 O 69.4657 -0.371342 3.9998 0
M  V30 748 N 67.6717 0.363531 2.88317 0
M  V30 749 H 67.2187 1.07485 2.34104 0
M  V30 750 H 67.1767 -0.474728 3.10795 0
M  V30 751 N 70.9488 -0.749086 1.3866 0
M  V30 752 C 72.1768 -1.53834 1.38358 0
M  V30 753 C 72.5918 -1.88783 -0.0255219 0
M  V30 754 O 71.9488 -1.53101 -0.993292 0
M  V30 755 C 71.9998 -2.83468 2.2434 0
M  V30 756 O 71.7208 -2.50008 3.5976 0
M  V30 757 C 73.2218 -3.7758 2.32267 0
M  V30 758 H 70.4418 -0.47585 0.473083 0
M  V30 759 H 72.9858 -0.926726 1.82297 0
M  V30 760 H 71.1408 -3.40995 1.83851 0
M  V30 761 H 71.5548 -3.33182 4.05081 0
M  V30 762 H 73.0288 -4.65478 2.96706 0
M  V30 763 H 73.5058 -4.18334 1.33765 0
M  V30 764 H 74.1118 -3.25976 2.73166 0
M  V30 765 N 72.4269 -1.23603 -0.977757 0
M  V30 766 C 73.6749 -1.06759 -1.71601 0
M  V30 767 C 73.9959 0.395929 -1.90938 0
M  V30 768 O 73.2659 1.28356 -1.47992 0
M  V30 769 H 71.8459 -0.392062 -0.635843 0
M  V30 770 H 74.5079 -1.55362 -1.1768 0
M  V30 771 H 73.6039 -1.55763 -2.70452 0
M  V30 772 N 73.905 1.17692 -1.04816 0
M  V30 773 C 75.154 1.87192 -0.751132 0
M  V30 774 C 75.467 1.8169 0.724441 0
M  V30 775 O 76.673 2.46625 1.13527 0
M  V30 776 C 75.129 3.35857 -1.29338 0
M  V30 777 C 74.737 3.4987 -2.79812 0
M  V30 778 C 76.481 4.10709 -1.07322 0
M  V30 779 C 74.388 4.92536 -3.27356 0
M  V30 780 H 73.318 0.701162 -0.277288 0
M  V30 781 H 75.969 1.32932 -1.26496 0
M  V30 782 H 74.351 3.89631 -0.707376 0
M  V30 783 H 75.525 3.06332 -3.44235 0
M  V30 784 H 73.84 2.88433 -3.00325 0
M  V30 785 H 76.437 5.15952 -1.4035 0
M  V30 786 H 76.78 4.16299 -0.0108001 0
M  V30 787 H 77.313 3.6313 -1.62423 0
M  V30 788 H 74.052 4.92119 -4.33012 0
M  V30 789 H 73.572 5.3676 -2.67673 0
M  V30 790 H 75.251 5.61288 -3.21815 0
M  V30 791 N 75.3831 0.828654 1.34056 0
M  V30 792 C 76.6311 0.41863 1.97717 0
M  V30 793 C 76.9521 -1.02314 1.66002 0
M  V30 794 O 76.2221 -1.71119 0.953683 0
M  V30 795 H 74.8021 0.151809 0.731412 0
M  V30 796 H 77.4641 1.05936 1.63596 0
M  V30 797 H 76.5601 0.542318 3.07352 0
M  V30 798 N 76.8612 -1.46375 0.584142 0
M  V30 799 C 77.8082 -2.30323 -0.148286 0
M  V30 800 C 78.7782 -1.40703 -0.882713 0
M  V30 801 O 79.9632 -1.69651 -0.873099 0
M  V30 802 C 77.1032 -3.25196 -1.15507 0
M  V30 803 C 76.2162 -4.29915 -0.423943 0
M  V30 804 C 75.3512 -5.11914 -1.41838 0
M  V30 805 C 74.3902 -6.08381 -0.673736 0
M  V30 806 N 73.5272 -6.83242 -1.6163 0
M  V30 807 H 78.3672 -2.92427 0.573644 0
M  V30 808 H 75.9042 -1.44118 0.294703 0
M  V30 809 H 77.8622 -3.78646 -1.75166 0
M  V30 810 H 76.4922 -2.64898 -1.8447 0
M  V30 811 H 75.5442 -3.7931 0.287714 0
M  V30 812 H 76.8562 -4.98549 0.158128 0
M  V30 813 H 76.0102 -5.69648 -2.08773 0
M  V30 814 H 74.7492 -4.43243 -2.03438 0
M  V30 815 H 73.7542 -5.49799 0.00938483 0
M  V30 816 H 74.9792 -6.79071 -0.0631082 0
M  V30 817 H 72.9252 -6.1728 -2.22038 0
M  V30 818 H 72.8422 -7.48144 -1.08707 0
M  V30 819 H 74.1102 -7.45534 -2.27596 0
M  V30 820 N 78.3393 -0.321999 -1.54275 0
M  V30 821 C 79.2493 0.553631 -2.27974 0
M  V30 822 C 80.2653 1.13054 -1.32268 0
M  V30 823 O 81.4413 1.15084 -1.6528 0
M  V30 824 C 78.5063 1.69927 -3.02201 0
M  V30 825 C 77.5673 1.15433 -4.1349 0
M  V30 826 C 76.8003 2.24537 -4.84168 0
M  V30 827 O 77.0233 3.44852 -4.5435 0
M  V30 828 O 75.9573 1.90044 -5.7111 0
M  V30 829 H 79.7833 -0.0448345 -3.03667 0
M  V30 830 H 77.3683 -0.0877418 -1.49142 0
M  V30 831 H 79.2503 2.3663 -3.48689 0
M  V30 832 H 77.9253 2.28395 -2.29385 0
M  V30 833 H 76.8323 0.452436 -3.71354 0
M  V30 834 H 78.1653 0.614805 -4.88345 0
M  V30 835 N 79.8174 1.5752 -0.0501392 0
M  V30 836 C 81.0454 1.96963 0.633492 0
M  V30 837 C 81.4604 0.927631 1.6444 0
M  V30 838 O 80.8174 -0.0882665 1.82286 0
M  V30 839 C 80.8684 3.36487 1.32132 0
M  V30 840 O 80.5894 4.36693 0.350894 0
M  V30 841 C 82.0904 3.90682 2.09481 0
M  V30 842 H 79.3104 0.648244 0.173266 0
M  V30 843 H 81.8544 2.0417 -0.116134 0
M  V30 844 H 80.0094 3.30434 2.02218 0
M  V30 845 H 80.4234 5.17702 0.841735 0
M  V30 846 H 81.8974 4.90591 2.5303 0
M  V30 847 H 82.3744 3.26053 2.94255 0
M  V30 848 H 82.9804 4.00069 1.44307 0
M  V30 849 N 81.2955 -0.223234 1.56011 0
M  V30 850 C 82.2585 -1.26014 1.9145 0
M  V30 851 C 83.2585 -1.3989 0.792937 0
M  V30 852 O 84.4485 -1.38184 1.0607 0
M  V30 853 C 81.5805 -2.63422 2.16383 0
M  V30 854 H 82.7735 -0.95796 2.84189 0
M  V30 855 H 80.3265 -0.463576 1.49267 0
M  V30 856 H 81.0615 -2.98741 1.2619 0
M  V30 857 H 80.8465 -2.54728 2.98088 0
M  V30 858 H 82.3365 -3.38249 2.44903 0
M  V30 859 N 82.7736 -1.49793 -0.48987 0
M  V30 860 C 84.1896 -1.36803 -0.822022 0
M  V30 861 C 84.3896 -0.409652 -1.97292 0
M  V30 862 O 83.4456 0.154614 -2.52026 0
M  V30 863 C 84.7586 -2.77768 -1.15175 0
M  V30 864 C 86.3066 -2.86549 -1.25931 0
M  V30 865 C 86.7816 -4.28306 -1.62228 0
M  V30 866 N 88.2726 -4.31169 -1.69256 0
M  V30 867 C 89.0076 -5.37832 -1.98807 0
M  V30 868 N 88.5036 -6.54726 -2.26507 0
M  V30 869 N 90.2966 -5.25258 -2.00152 0
M  V30 870 H 82.4476 -2.10691 0.268881 0
M  V30 871 H 84.7106 -0.946241 0.057728 0
M  V30 872 H 84.4166 -3.49648 -0.379335 0
M  V30 873 H 84.2906 -3.13836 -2.09253 0
M  V30 874 H 86.6776 -2.14899 -2.02243 0
M  V30 875 H 86.7586 -2.54049 -0.298776 0
M  V30 876 H 86.4026 -5.00486 -0.864622 0
M  V30 877 H 86.3326 -4.58279 -2.594 0
M  V30 878 H 88.8236 -3.4687 -1.49965 0
M  V30 879 H 89.1366 -7.31833 -2.48276 0
M  V30 880 H 87.4816 -6.57933 -2.23939 0
M  V30 881 H 90.6726 -4.32938 -1.77996 0
M  V30 882 H 90.8456 -6.08476 -2.22848 0
M  V30 883 N 84.2517 0.741722 -1.39055 0
M  V30 884 C 85.1617 1.88621 -1.39496 0
M  V30 885 C 86.1777 1.71557 -0.290578 0
M  V30 886 O 87.3537 1.94275 -0.530954 0
M  V30 887 C 84.4187 3.24134 -1.23037 0
M  V30 888 C 83.4797 3.5364 -2.43387 0
M  V30 889 C 82.7127 4.82687 -2.27703 0
M  V30 890 O 82.9357 5.55922 -1.27696 0
M  V30 891 O 81.8697 5.1194 -3.16545 0
M  V30 892 H 85.6957 1.91203 -2.35956 0
M  V30 893 H 83.2807 0.888625 -1.20099 0
M  V30 894 H 85.1627 4.0513 -1.15964 0
M  V30 895 H 83.8377 3.22337 -0.296691 0
M  V30 896 H 82.7447 2.72758 -2.56035 0
M  V30 897 H 84.0777 3.60209 -3.35425 0
M  V30 898 N 85.7298 1.2412 0.971189 0
M  V30 899 C 86.6598 1.05508 2.08304 0
M  V30 900 C 87.6408 -0.0308864 1.70072 0
M  V30 901 O 88.8258 0.135521 1.93727 0
M  V30 902 C 85.9558 0.655365 3.4106 0
M  V30 903 C 84.9098 1.68971 3.93234 0
M  V30 904 C 84.2358 1.14516 5.22293 0
M  V30 905 C 85.5358 3.08487 4.21465 0
M  V30 906 H 87.2298 1.98507 2.24132 0
M  V30 907 H 84.7758 0.955821 1.07704 0
M  V30 908 H 86.7288 0.51217 4.18276 0
M  V30 909 H 85.4528 -0.31032 3.25122 0
M  V30 910 H 84.1118 1.82106 3.18171 0
M  V30 911 H 83.7598 0.170189 5.02712 0
M  V30 912 H 83.4598 1.83635 5.58168 0
M  V30 913 H 84.9838 1.01401 6.02121 0
M  V30 914 H 86.3978 2.98601 4.89398 0
M  V30 915 H 84.7948 3.74926 4.68562 0
M  V30 916 H 85.8648 3.56787 3.28376 0
M  V30 917 N 87.2079 -1.17134 1.05439 0
M  V30 918 C 88.1709 -2.19439 0.661764 0
M  V30 919 C 89.1709 -1.58199 -0.288042 0
M  V30 920 O 90.3609 -1.74053 -0.0715803 0
M  V30 921 C 87.4929 -3.40889 -0.0276209 0
M  V30 922 H 88.6859 -2.55688 1.56728 0
M  V30 923 H 86.2389 -1.31259 0.848567 0
M  V30 924 H 86.9739 -3.10187 -0.94629 0
M  V30 925 H 86.7589 -3.86586 0.655238 0
M  V30 926 H 88.2489 -4.16603 -0.288342 0
M  V30 927 N 88.686 -0.835752 -1.33615 0
M  V30 928 C 89.911 -0.442389 -2.02627 0
M  V30 929 C 90.336 0.947735 -1.62479 0
M  V30 930 O 89.694 1.61907 -0.815826 0
M  V30 931 C 89.742 -0.567216 -3.56111 0
M  V30 932 O 88.846 0.407799 -4.10379 0
M  V30 933 H 88.187 -0.180278 -0.639059 0
M  V30 934 H 90.717 -1.12972 -1.70583 0
M  V30 935 H 90.727 -0.447708 -4.05536 0
M  V30 936 H 89.402 -1.58103 -3.84677 0
M  V30 937 H 87.979 0.246107 -3.72087 0
M  V30 938 N 90.1641 1.46063 -0.591896 0
M  V30 939 C 91.5801 1.57561 -0.254288 0
M  V30 940 C 91.7801 1.58565 1.24336 0
M  V30 941 O 90.8361 1.50753 2.02558 0
M  V30 942 C 92.1491 2.86549 -0.911611 0
M  V30 943 C 93.6971 3.00197 -0.886059 0
M  V30 944 C 94.1721 4.31933 -1.5231 0
M  V30 945 N 95.6631 4.38654 -1.48786 0
M  V30 946 C 96.3981 5.39222 -1.95006 0
M  V30 947 N 95.8941 6.46414 -2.49241 0
M  V30 948 N 97.6871 5.3048 -1.85868 0
M  V30 949 H 89.8381 1.43655 -1.56451 0
M  V30 950 H 92.1011 0.68583 -0.654478 0
M  V30 951 H 91.8071 2.91651 -1.96551 0
M  V30 952 H 91.6811 3.74794 -0.425368 0
M  V30 953 H 94.0681 2.9467 0.159246 0
M  V30 954 H 94.1491 2.13403 -1.41041 0
M  V30 955 H 93.7931 4.38217 -2.56765 0
M  V30 956 H 93.7231 5.17516 -0.973891 0
M  V30 957 H 96.2141 3.61793 -1.09151 0
M  V30 958 H 96.5271 7.19376 -2.82344 0
M  V30 959 H 94.8721 6.47208 -2.53272 0
M  V30 960 H 98.0631 4.45643 -1.43248 0
M  V30 961 H 98.2361 6.08711 -2.22204 0
M  V30 962 N 91.6422 0.330177 1.54103 0
M  V30 963 C 92.8902 -0.269871 2.0029 0
M  V30 964 C 93.2112 -1.52133 1.21986 0
M  V30 965 O 92.4812 -1.93212 0.323438 0
M  V30 966 H 91.0612 -0.10271 0.739905 0
M  V30 967 H 93.7232 0.448249 1.89675 0
M  V30 968 H 92.8192 -0.52166 3.07709 0
M  V30 969 N 93.1203 -1.57491 0.0584922 0
M  V30 970 C 94.0833 -2.1085 -0.898617 0
M  V30 971 C 95.0833 -1.02964 -1.23511 0
M  V30 972 O 96.2733 -1.29007 -1.17059 0
M  V30 973 C 93.4053 -2.59881 -2.20623 0
M  V30 974 H 94.5983 -2.96715 -0.435936 0
M  V30 975 H 92.1513 -1.55141 -0.190023 0
M  V30 976 H 92.8863 -1.77431 -2.71457 0
M  V30 977 H 92.6713 -3.38727 -1.97501 0
M  V30 978 H 94.1613 -3.01285 -2.89166 0
M  V30 979 N 94.5984 0.214957 -1.56127 0
M  V30 980 C 96.0144 0.564948 -1.49267 0
M  V30 981 C 96.2144 1.86827 -0.754838 0
M  V30 982 O 95.2704 2.50745 -0.297198 0
M  V30 983 C 96.5834 0.638071 -2.93852 0
M  V30 984 C 98.1314 0.728253 -3.0441 0
M  V30 985 C 98.6064 0.832663 -4.50367 0
M  V30 986 N 100.097 0.896712 -4.54437 0
M  V30 987 C 100.832 0.997324 -5.6466 0
M  V30 988 N 100.328 1.06147 -6.8462 0
M  V30 989 N 102.121 1.03297 -5.52527 0
M  V30 990 H 94.2724 -0.640211 -2.02522 0
M  V30 991 H 96.5354 -0.225507 -0.920788 0
M  V30 992 H 96.2414 -0.250126 -3.50809 0
M  V30 993 H 96.1154 1.49947 -3.46115 0
M  V30 994 H 98.5024 1.60689 -2.47514 0
M  V30 995 H 98.5834 -0.158952 -2.55306 0
M  V30 996 H 98.2274 -0.0415417 -5.07883 0
M  V30 997 H 98.1574 1.73538 -4.97184 0
M  V30 998 H 100.648 0.857188 -3.6805 0
M  V30 999 H 100.961 1.1382 -7.64372 0
M  V30 1000 H 99.3064 1.03049 -6.87318 0
M  V30 1001 H 102.497 0.979558 -4.57736 0
M  V30 1002 H 102.67 1.10793 -6.38458 0
M  V30 1003 N 96.0765 1.50051 0.48192 0
M  V30 1004 C 97.3225 1.60736 1.2366 0
M  V30 1005 C 97.6555 0.301786 1.91841 0
M  V30 1006 O 96.9305 -0.696025 1.8162 0
M  V30 1007 C 97.2135 2.78009 2.28874 0
M  V30 1008 C 97.0665 4.18416 1.65069 0
M  V30 1009 C 98.3855 2.90867 3.30279 0
M  V30 1010 H 95.5045 0.585031 0.448228 0
M  V30 1011 H 98.1465 1.82402 0.531946 0
M  V30 1012 H 96.2965 2.59667 2.88973 0
M  V30 1013 H 97.9685 4.48322 1.0865 0
M  V30 1014 H 96.2115 4.23177 0.954148 0
M  V30 1015 H 96.8825 4.96381 2.41474 0
M  V30 1016 H 99.3585 3.07623 2.80191 0
M  V30 1017 H 98.2345 3.74566 4.01238 0
M  V30 1018 H 98.4955 2.01021 3.93755 0
M  V30 1019 N 97.5546 -0.734337 1.39446 0
M  V30 1020 C 98.7846 -1.52137 1.39778 0
M  V30 1021 C 99.1926 -1.89198 -0.00929312 0
M  V30 1022 O 98.5356 -1.54666 -0.991168 0
M  V30 1023 C 98.5976 -2.83762 2.20724 0
M  V30 1024 C 98.2616 -2.69131 3.69347 0
M  V30 1025 C 99.2586 -2.37635 4.62413 0
M  V30 1026 C 96.9436 -2.85982 4.1294 0
M  V30 1027 C 98.9376 -2.23172 5.97054 0
M  V30 1028 C 96.6246 -2.71137 5.47657 0
M  V30 1029 C 97.6226 -2.39777 6.39528 0
M  V30 1030 O 97.3106 -2.25026 7.71763 0
M  V30 1031 H 97.0426 -0.476717 0.479288 0
M  V30 1032 H 99.5966 -0.915012 1.83893 0
M  V30 1033 H 97.8266 -3.4666 1.71359 0
M  V30 1034 H 99.5156 -3.45383 2.13226 0
M  V30 1035 H 100.282 -2.24267 4.30034 0
M  V30 1036 H 96.1606 -3.09383 3.41765 0
M  V30 1037 H 99.7046 -1.98617 6.68728 0
M  V30 1038 H 95.6016 -2.84083 5.79626 0
M  V30 1039 H 96.3696 -2.40091 7.82495 0
M  V30 1040 N 99.0327 -1.24633 -0.964593 0
M  V30 1041 C 100.282 -1.08188 -1.7023 0
M  V30 1042 C 100.595 0.37873 -1.91898 0
M  V30 1043 O 101.801 0.663427 -2.6327 0
M  V30 1044 C 100.257 -1.88773 -3.06419 0
M  V30 1045 C 99.8647 -3.39263 -2.92582 0
M  V30 1046 C 101.609 -1.80867 -3.84041 0
M  V30 1047 C 99.5157 -4.1218 -4.24101 0
M  V30 1048 H 98.4457 -0.401245 -0.638372 0
M  V30 1049 H 101.097 -1.48742 -1.07462 0
M  V30 1050 H 99.4787 -1.41035 -3.70034 0
M  V30 1051 H 100.653 -3.94603 -2.37961 0
M  V30 1052 H 98.9677 -3.48154 -2.28424 0
M  V30 1053 H 101.565 -2.32646 -4.81435 0
M  V30 1054 H 101.908 -0.774543 -4.09031 0
M  V30 1055 H 102.441 -2.26301 -3.27159 0
M  V30 1056 H 99.1797 -5.15965 -4.04303 0
M  V30 1057 H 98.6997 -3.61626 -4.78526 0
M  V30 1058 H 100.379 -4.19349 -4.92702 0
M  V30 1059 N 100.511 1.16574 -1.06058 0
M  V30 1060 C 101.474 2.19085 -0.673392 0
M  V30 1061 C 102.474 1.5835 0.279648 0
M  V30 1062 O 103.664 1.74088 0.0623488 0
M  V30 1063 C 100.796 3.40899 0.00954234 0
M  V30 1064 H 101.989 2.54853 -1.58081 0
M  V30 1065 H 99.5418 1.30808 -0.855516 0
M  V30 1066 H 100.277 3.10684 0.929826 0
M  V30 1067 H 100.062 3.86233 -0.67573 0
M  V30 1068 H 101.552 4.1675 0.266245 0
M  V30 1069 N 101.989 0.842826 1.3317 0
M  V30 1070 C 103.229 0.446574 1.99462 0
M  V30 1071 C 103.593 -0.976818 1.65295 0
M  V30 1072 O 104.794 -1.477 2.24584 0
M  V30 1073 C 103.065 0.665353 3.51152 0
M  V30 1074 S 104.624 0.364911 4.3728 0
M  V30 1075 H 101.442 0.167803 0.690915 0
M  V30 1076 H 104.044 1.09297 1.62094 0
M  V30 1077 H 102.748 1.7006 3.73507 0
M  V30 1078 H 102.279 0.00494568 3.934 0
M  V30 1079 H 104.294 -0.813761 4.89482 0
M  V30 1080 N 103.467 -1.45747 0.599634 0
M  V30 1081 C 104.883 -1.57424 0.26264 0
M  V30 1082 C 105.083 -1.59222 -1.23493 0
M  V30 1083 O 104.139 -1.51825 -2.01756 0
M  V30 1084 C 105.452 -2.86061 0.926795 0
M  V30 1085 C 107 -2.99722 0.901967 0
M  V30 1086 C 107.475 -4.31119 1.54598 0
M  V30 1087 N 108.966 -4.37858 1.5111 0
M  V30 1088 C 109.701 -5.3818 1.97863 0
M  V30 1089 N 109.197 -6.45083 2.52666 0
M  V30 1090 N 110.99 -5.29487 1.88679 0
M  V30 1091 H 103.141 -1.42823 1.57211 0
M  V30 1092 H 105.404 -0.68235 0.658105 0
M  V30 1093 H 105.11 -2.90605 1.98095 0
M  V30 1094 H 104.984 -3.74563 0.445238 0
M  V30 1095 H 107.371 -2.9475 -0.143617 0
M  V30 1096 H 107.452 -2.12652 1.42171 0
M  V30 1097 H 107.096 -4.36849 2.59085 0
M  V30 1098 H 107.026 -5.16992 1.00132 0
M  V30 1099 H 109.517 -3.61209 1.11068 0
M  V30 1100 H 109.83 -7.17869 2.86155 0
M  V30 1101 H 108.175 -6.45856 2.56701 0
M  V30 1102 H 111.366 -4.44877 1.4561 0
M  V30 1103 H 111.539 -6.07524 2.25429 0
M  V30 1104 N 104.945 -0.338344 -1.53925 0
M  V30 1105 C 106.222 0.314774 -1.93051 0
M  V30 1106 C 106.602 1.68669 -1.26941 0
M  V30 1107 O 105.95 2.24636 -0.418445 0
M  V30 1108 C 106.16 0.392249 -3.46789 0
M  V30 1109 C 107.508 0.645554 -4.19664 0
M  V30 1110 O 108.532 0.474575 -3.53024 0
M  V30 1111 O 107.391 0.976408 -5.37707 0
M  V30 1112 H 104.485 0.182598 -0.80659 0
M  V30 1113 H 107.031 -0.389141 -1.65178 0
M  V30 1114 H 105.803 -0.570702 -3.87116 0
M  V30 1115 H 105.426 1.14316 -3.80812 0
M  V30 1116 N 106.423 1.57458 -0.0668435 0
M  V30 1117 C 107.669 1.93587 0.6043 0
M  V30 1118 C 108.002 0.946722 1.69561 0
M  V30 1119 O 107.277 -0.0248516 1.94484 0
M  V30 1120 C 107.56 3.40014 1.18585 0
M  V30 1121 C 107.413 4.49685 0.101529 0
M  V30 1122 C 108.732 3.87154 2.09284 0
M  V30 1123 H 105.851 0.703958 0.218202 0
M  V30 1124 H 108.493 1.89542 -0.131804 0
M  V30 1125 H 106.643 3.43592 1.81319 0
M  V30 1126 H 108.315 4.5823 -0.531279 0
M  V30 1127 H 106.558 4.30059 -0.568487 0
M  V30 1128 H 107.229 5.49266 0.54874 0
M  V30 1129 H 109.705 3.85551 1.56491 0
M  V30 1130 H 108.581 4.90231 2.46911 0
M  V30 1131 H 108.842 3.2481 2.99918 0
M  V30 1132 N 107.901 -0.206675 1.56239 0
M  V30 1133 C 108.831 -1.25909 1.96645 0
M  V30 1134 C 109.812 -1.48097 0.836734 0
M  V30 1135 O 110.997 -1.6003 1.10019 0
M  V30 1136 C 108.127 -2.6058 2.29599 0
M  V30 1137 C 107.081 -2.53024 3.452 0
M  V30 1138 C 106.407 -3.91861 3.63798 0
M  V30 1139 C 107.707 -2.06524 4.79734 0
M  V30 1140 H 109.401 -0.923369 2.84806 0
M  V30 1141 H 106.947 -0.442735 1.37025 0
M  V30 1142 H 108.9 -3.34375 2.56459 0
M  V30 1143 H 107.624 -2.95869 1.38307 0
M  V30 1144 H 106.283 -1.81684 3.18412 0
M  V30 1145 H 105.931 -4.24483 2.69857 0
M  V30 1146 H 105.631 -3.87683 4.4156 0
M  V30 1147 H 107.155 -4.67296 3.93022 0
M  V30 1148 H 108.569 -2.70072 5.05702 0
M  V30 1149 H 106.966 -2.13374 5.60885 0
M  V30 1150 H 108.036 -1.01802 4.74093 0
M  V30 1151 N 109.379 -1.50304 -0.473955 0
M  V30 1152 C 110.326 -1.68959 -1.57231 0
M  V30 1153 C 111.296 -0.530899 -1.57387 0
M  V30 1154 O 112.481 -0.761133 -1.74961 0
M  V30 1155 C 109.621 -1.7871 -2.95223 0
M  V30 1156 C 108.734 -3.06061 -3.04878 0
M  V30 1157 C 107.869 -3.06626 -4.33767 0
M  V30 1158 C 106.908 -4.28443 -4.37154 0
M  V30 1159 N 106.045 -4.26763 -5.5751 0
M  V30 1160 H 110.885 -2.6273 -1.40631 0
M  V30 1161 H 108.422 -1.30241 -0.683789 0
M  V30 1162 H 110.38 -1.82344 -3.75242 0
M  V30 1163 H 109.01 -0.883806 -3.10465 0
M  V30 1164 H 108.062 -3.11911 -2.17751 0
M  V30 1165 H 109.374 -3.96039 -3.0324 0
M  V30 1166 H 108.528 -3.08973 -5.22131 0
M  V30 1167 H 107.267 -2.14473 -4.3801 0
M  V30 1168 H 106.272 -4.2631 -3.47188 0
M  V30 1169 H 107.497 -5.2182 -4.34605 0
M  V30 1170 H 105.443 -3.37462 -5.62544 0
M  V30 1171 H 105.36 -5.10507 -5.57601 0
M  V30 1172 H 106.628 -4.33253 -6.48006 0
M  V30 1173 N 110.857 0.726932 -1.39834 0
M  V30 1174 C 112.105 1.4837 -1.37225 0
M  V30 1175 C 112.426 1.94979 0.0284857 0
M  V30 1176 O 111.696 1.69555 0.981213 0
M  V30 1177 H 110.276 0.55043 -0.505011 0
M  V30 1178 H 112.938 0.862468 -1.74778 0
M  V30 1179 H 112.034 2.36198 -2.04003 0
M  V30 1180 N 112.336 1.25143 0.95797 0
M  V30 1181 C 113.246 1.06968 2.08794 0
M  V30 1182 C 114.262 0.00773911 1.73998 0
M  V30 1183 O 115.438 0.207972 2.00323 0
M  V30 1184 C 112.503 0.68691 3.39827 0
M  V30 1185 C 111.564 1.82641 3.88511 0
M  V30 1186 C 110.797 1.46181 5.1329 0
M  V30 1187 O 111.02 0.355971 5.69288 0
M  V30 1188 O 109.954 2.29085 5.566 0
M  V30 1189 H 113.78 2.01723 2.27027 0
M  V30 1190 H 111.365 1.04051 1.07209 0
M  V30 1191 H 113.247 0.485417 4.18595 0
M  V30 1192 H 111.922 -0.231417 3.22872 0
M  V30 1193 H 110.829 2.08274 3.10762 0
M  V30 1194 H 112.162 2.72386 4.09959 0
M  V30 1195 N 113.814 -1.1601 1.06675 0
M  V30 1196 C 115.039 -1.91068 0.806706 0
M  V30 1197 C 115.464 -1.77112 -0.633485 0
M  V30 1198 O 114.822 -1.09908 -1.44187 0
M  V30 1199 C 114.87 -3.39655 1.21106 0
M  V30 1200 O 113.974 -4.10893 0.352189 0
M  V30 1201 H 113.315 -0.595125 0.294486 0
M  V30 1202 H 115.845 -1.46955 1.42356 0
M  V30 1203 H 115.855 -3.90434 1.18428 0
M  V30 1204 H 114.53 -3.49132 2.26008 0
M  V30 1205 H 113.107 -3.70285 0.440868 0
M  V30 1206 N 115.292 -0.849877 -1.32721 0
M  V30 1207 C 116.255 -0.296122 -2.27279 0
M  V30 1208 C 117.255 0.541458 -1.5141 0
M  V30 1209 O 118.445 0.353658 -1.70572 0
M  V30 1210 C 115.577 0.581579 -3.35902 0
M  V30 1211 H 116.77 -1.13064 -2.77771 0
M  V30 1212 H 114.323 -0.62383 -1.43311 0
M  V30 1213 H 115.058 1.43809 -2.9067 0
M  V30 1214 H 114.843 -0.0178814 -3.92096 0
M  V30 1215 H 116.333 0.961951 -4.0637 0
M  V30 1216 N 116.77 1.45427 -0.607355 0
M  V30 1217 C 117.733 2.28974 0.101693 0
M  V30 1218 C 118.733 1.39754 0.795329 0
M  V30 1219 O 119.923 1.61878 0.643527 0
M  V30 1220 C 117.055 3.20768 1.15414 0
M  V30 1221 H 118.248 2.93147 -0.632844 0
M  V30 1222 H 115.801 1.51945 -0.366391 0
M  V30 1223 H 116.536 2.61395 1.91945 0
M  V30 1224 H 116.321 3.86489 0.66098 0
M  V30 1225 H 117.811 3.83589 1.65073 0
M  V30 1226 N 118.248 0.346503 1.53744 0
M  V30 1227 C 119.473 -0.253074 2.0585 0
M  V30 1228 C 119.898 -1.43202 1.21962 0
M  V30 1229 O 119.256 -1.79783 0.234073 0
M  V30 1230 C 119.304 -0.643193 3.54817 0
M  V30 1231 O 118.408 -1.74286 3.73762 0
M  V30 1232 H 117.749 -0.0413583 0.662711 0
M  V30 1233 H 120.279 0.501574 1.98357 0
M  V30 1234 H 120.289 -0.919526 3.97503 0
M  V30 1235 H 118.964 0.218966 4.15323 0
M  V30 1236 H 117.541 -1.46356 3.42979 0
M  V30 1237 N 119.726 -1.57421 0.075193 0
M  V30 1238 C 120.636 -2.1642 -0.905511 0
M  V30 1239 C 121.652 -1.12828 -1.32461 0
M  V30 1240 O 122.828 -1.45109 -1.39661 0
M  V30 1241 C 119.893 -2.71693 -2.15369 0
M  V30 1242 C 118.954 -3.90171 -1.79068 0
M  V30 1243 C 118.187 -4.42798 -2.97936 0
M  V30 1244 O 118.41 -3.94416 -4.12058 0
M  V30 1245 O 117.344 -5.34085 -2.77555 0
M  V30 1246 H 121.17 -3.00588 -0.433626 0
M  V30 1247 H 118.755 -1.48664 -0.148067 0
M  V30 1248 H 120.637 -3.07104 -2.88557 0
M  V30 1249 H 119.312 -1.90582 -2.61649 0
M  V30 1250 H 118.219 -3.59606 -1.03122 0
M  V30 1251 H 119.552 -4.72584 -1.37569 0
M  V30 1252 N 121.204 0.198386 -1.56346 0
M  V30 1253 C 122.453 0.917451 -1.79627 0
M  V30 1254 C 122.766 1.8456 -0.64784 0
M  V30 1255 O 123.972 2.60504 -0.764859 0
M  V30 1256 C 122.428 1.68175 -3.18191 0
M  V30 1257 C 122.036 0.798589 -4.40825 0
M  V30 1258 C 123.78 2.39065 -3.50782 0
M  V30 1259 C 121.687 1.56157 -5.70411 0
M  V30 1260 H 120.617 0.346317 -0.669762 0
M  V30 1261 H 123.268 0.170801 -1.82703 0
M  V30 1262 H 121.65 2.47216 -3.09354 0
M  V30 1263 H 122.824 0.0470665 -4.60776 0
M  V30 1264 H 121.139 0.200686 -4.15916 0
M  V30 1265 H 123.736 2.96692 -4.44835 0
M  V30 1266 H 124.079 3.13091 -2.74371 0
M  V30 1267 H 124.612 1.66993 -3.61052 0
M  V30 1268 H 121.351 0.864142 -6.49779 0
M  V30 1269 H 120.871 2.2871 -5.54483 0
M  V30 1270 H 122.55 2.11622 -6.11412 0
M  V30 1271 N 122.682 1.50554 0.465978 0
M  V30 1272 C 124.098 1.38093 0.800154 0
M  V30 1273 C 124.298 0.440988 1.96615 0
M  V30 1274 O 123.354 -0.114499 2.5224 0
M  V30 1275 C 124.667 2.79565 1.10742 0
M  V30 1276 C 126.215 2.88516 1.21357 0
M  V30 1277 C 126.69 4.30833 1.55393 0
M  V30 1278 N 128.181 4.33807 1.62375 0
M  V30 1279 C 128.916 5.40927 1.90225 0
M  V30 1280 N 128.412 6.58247 2.16062 0
M  V30 1281 N 130.205 5.28376 1.9177 0
M  V30 1282 H 122.356 2.10237 -0.302366 0
M  V30 1283 H 124.619 0.945203 -0.0727746 0
M  V30 1284 H 124.325 3.50208 0.323661 0
M  V30 1285 H 124.199 3.17125 2.04234 0
M  V30 1286 H 126.586 2.1809 1.98799 0
M  V30 1287 H 126.667 2.54492 0.258321 0
M  V30 1288 H 126.311 5.01799 0.784889 0
M  V30 1289 H 126.241 4.62347 2.52076 0
M  V30 1290 H 128.732 3.49212 1.44427 0
M  V30 1291 H 129.045 7.3569 2.36601 0
M  V30 1292 H 127.39 6.61413 2.13444 0
M  V30 1293 H 130.581 4.35715 1.71085 0
M  V30 1294 H 130.754 6.11944 2.13139 0
M  V30 1295 N 124.16 -0.719506 1.40217 0
M  V30 1296 C 125.406 -1.48152 1.38488 0
M  V30 1297 C 125.739 -1.94195 -0.0141867 0
M  V30 1298 O 125.014 -1.67884 -0.982096 0
M  V30 1299 C 125.297 -2.71035 2.37091 0
M  V30 1300 C 125.15 -2.30912 3.86005 0
M  V30 1301 C 126.469 -3.73182 2.33288 0
M  V30 1302 H 123.588 -0.537395 0.504357 0
M  V30 1303 H 126.23 -0.821472 1.71324 0
M  V30 1304 H 124.38 -3.27352 2.0922 0
M  V30 1305 H 126.052 -1.80107 4.24687 0
M  V30 1306 H 124.295 -1.62958 4.02029 0
M  V30 1307 H 124.966 -3.18978 4.50508 0
M  V30 1308 H 127.442 -3.26485 2.57966 0
M  V30 1309 H 126.318 -4.56806 3.04334 0
M  V30 1310 H 126.579 -4.21202 1.34317 0
M  V30 1311 N 125.638 -1.25649 -0.95132 0
M  V30 1312 C 126.915 -1.01361 -1.67288 0
M  V30 1313 C 127.295 0.459135 -2.06046 0
M  V30 1314 O 126.643 1.43723 -1.7764 0
M  V30 1315 C 126.853 -1.95256 -2.89268 0
M  V30 1316 C 128.201 -2.23289 -3.61147 0
M  V30 1317 O 129.225 -1.93041 -2.99355 0
M  V30 1318 O 128.084 -2.74741 -4.72419 0
M  V30 1319 H 125.178 -0.38464 -0.732107 0
M  V30 1320 H 127.724 -1.36817 -1.00395 0
M  V30 1321 H 126.496 -2.94685 -2.57442 0
M  V30 1322 H 126.119 -1.60218 -3.6389 0
M  V30 1323 N 127.117 1.15442 -1.07289 0
M  V30 1324 C 128.345 1.90096 -0.81676 0
M  V30 1325 C 128.76 1.7798 0.629966 0
M  V30 1326 O 128.117 1.1313 1.43206 0
M  V30 1327 C 128.168 3.40466 -1.21512 0
M  V30 1328 O 127.889 3.52232 -2.60508 0
M  V30 1329 C 129.39 4.32145 -0.988198 0
M  V30 1330 H 126.61 0.602495 -0.295366 0
M  V30 1331 H 129.154 1.4627 -1.42918 0
M  V30 1332 H 127.309 3.81958 -0.647039 0
M  V30 1333 H 127.723 4.45549 -2.76742 0
M  V30 1334 H 129.197 5.36072 -1.31645 0
M  V30 1335 H 129.674 4.39135 0.0755063 0
M  V30 1336 H 130.28 3.96395 -1.54115 0
M  V30 1337 N 128.595 0.856903 1.32268 0
M  V30 1338 C 129.542 0.301172 2.28827 0
M  V30 1339 C 130.512 -0.593104 1.5515 0
M  V30 1340 O 131.697 -0.527537 1.83362 0
M  V30 1341 C 128.837 -0.502523 3.41422 0
M  V30 1342 C 127.95 0.417797 4.29975 0
M  V30 1343 C 127.085 -0.398749 5.29701 0
M  V30 1344 C 126.124 0.518827 6.09897 0
M  V30 1345 N 125.261 -0.260674 7.01616 0
M  V30 1346 H 130.101 1.12983 2.75751 0
M  V30 1347 H 127.638 0.568582 1.35667 0
M  V30 1348 H 129.596 -0.984141 4.05426 0
M  V30 1349 H 128.226 -1.29599 2.95642 0
M  V30 1350 H 127.278 1.01781 3.66531 0
M  V30 1351 H 128.59 1.12191 4.86019 0
M  V30 1352 H 127.744 -0.943435 5.9932 0
M  V30 1353 H 126.483 -1.13622 4.7428 0
M  V30 1354 H 125.488 1.07538 5.39181 0
M  V30 1355 H 126.713 1.25495 6.67404 0
M  V30 1356 H 124.659 -0.981198 6.4862 0
M  V30 1357 H 124.576 0.384364 7.55022 0
M  V30 1358 H 125.844 -0.787014 7.75517 0
M  V30 1359 N 130.073 -1.45103 0.615059 0
M  V30 1360 C 131.021 -2.32331 -0.111791 0
M  V30 1361 C 132.015 -1.46409 -0.852102 0
M  V30 1362 O 133.221 -1.62849 -0.766821 0
M  V30 1363 H 129.596 -0.749993 -0.0549072 0
M  V30 1364 H 131.567 -2.91407 0.642225 0
M  V30 1365 C 130.316 -3.3015 -1.09071 0
M  V30 1366 H 129.639 -3.96265 -0.530485 0
M  V30 1367 H 131.079 -3.93898 -1.56908 0
M  V30 1368 C 129.538 -2.57875 -2.168 0
M  V30 1369 O 130.068 -2.36567 -3.24652 0
M  V30 1370 N 128.274 -2.17884 -1.92289 0
M  V30 1371 H 127.821 -2.35413 -1.04587 0
M  V30 1372 H 127.779 -1.6985 -2.64572 0
M  V30 1373 N 131.551 -0.354651 -1.53558 0
M  V30 1374 C 132.776 0.242153 -2.05981 0
M  V30 1375 C 133.201 1.42553 -1.2272 0
M  V30 1376 O 132.559 1.79656 -0.243604 0
M  V30 1377 C 132.607 0.624367 -3.55154 0
M  V30 1378 O 131.711 1.72301 -3.74681 0
M  V30 1379 H 131.052 0.0378432 -0.662921 0
M  V30 1380 H 133.582 -0.512087 -1.98088 0
M  V30 1381 H 133.592 0.898433 -3.97985 0
M  V30 1382 H 132.267 -0.240989 -4.15201 0
M  V30 1383 H 130.844 1.44535 -3.4375 0
M  V30 1384 N 133.029 1.57378 -0.0835403 0
M  V30 1385 C 133.961 2.10389 0.909338 0
M  V30 1386 C 134.974 1.03858 1.25369 0
M  V30 1387 O 136.163 1.31338 1.20882 0
M  V30 1388 C 133.263 2.55908 2.2218 0
M  V30 1389 C 132.436 3.86145 2.05453 0
M  V30 1390 C 131.495 4.17633 3.20108 0
M  V30 1391 O 130.521 4.87043 2.94581 0
M  V30 1392 N 131.723 3.72113 4.45547 0
M  V30 1393 H 134.488 2.962 0.456657 0
M  V30 1394 H 132.049 1.61579 0.101877 0
M  V30 1395 H 134.041 2.74027 2.97811 0
M  V30 1396 H 132.611 1.75171 2.58909 0
M  V30 1397 H 131.831 3.7729 1.1422 0
M  V30 1398 H 133.119 4.7137 1.91541 0
M  V30 1399 H 132.517 3.16062 4.69171 0
M  V30 1400 H 131.074 3.95409 5.18165 0
M  V30 1401 N 134.507 -0.190092 1.56449 0
M  V30 1402 C 135.753 -0.911052 1.81184 0
M  V30 1403 C 136.086 -1.82699 0.658396 0
M  V30 1404 O 135.361 -1.91491 -0.340775 0
M  V30 1405 C 135.644 -1.72297 3.16205 0
M  V30 1406 C 135.497 -0.831419 4.42049 0
M  V30 1407 C 136.816 -2.69454 3.47969 0
M  V30 1408 H 133.935 -0.32977 0.659106 0
M  V30 1409 H 136.577 -0.178169 1.89163 0
M  V30 1410 H 134.727 -2.34778 3.09534 0
M  V30 1411 H 136.399 -0.220929 4.60771 0
M  V30 1412 H 134.642 -0.138406 4.33579 0
M  V30 1413 H 135.313 -1.43461 5.33032 0
M  V30 1414 H 137.789 -2.17104 3.54972 0
M  V30 1415 H 136.665 -3.23342 4.43555 0
M  V30 1416 H 136.926 -3.48744 2.71717 0
M  V30 1417 N 135.985 -1.50799 -0.457987 0
M  V30 1418 C 136.915 -1.73553 -1.5621 0
M  V30 1419 C 137.896 -0.584774 -1.59732 0
M  V30 1420 O 139.081 -0.825314 -1.7579 0
M  V30 1421 C 136.211 -1.84169 -2.94447 0
M  V30 1422 C 135.165 -2.99461 -3.0579 0
M  V30 1423 C 134.491 -2.95235 -4.45803 0
M  V30 1424 C 135.791 -4.39766 -2.81786 0
M  V30 1425 H 137.485 -2.66 -1.37421 0
M  V30 1426 H 135.031 -1.28002 -0.659662 0
M  V30 1427 H 136.984 -1.98672 -3.71628 0
M  V30 1428 H 135.708 -0.883545 -3.14422 0
M  V30 1429 H 134.367 -2.8463 -2.31044 0
M  V30 1430 H 134.015 -1.97239 -4.62715 0
M  V30 1431 H 133.715 -3.72642 -4.54326 0
M  V30 1432 H 135.239 -3.11803 -5.24987 0
M  V30 1433 H 136.653 -4.55054 -3.4871 0
M  V30 1434 H 135.05 -5.18722 -3.0174 0
M  V30 1435 H 136.12 -4.51229 -1.7754 0
M  V30 1436 N 137.463 0.71206 -1.40597 0
M  V30 1437 C 138.709 1.47416 -1.39271 0
M  V30 1438 C 139.042 1.942 0.00388791 0
M  V30 1439 O 138.317 1.68403 0.973179 0
M  V30 1440 C 138.6 2.69774 -2.38525 0
M  V30 1441 C 138.453 2.28861 -3.87224 0
M  V30 1442 C 139.772 3.71939 -2.35264 0
M  V30 1443 H 136.891 0.534713 -0.5072 0
M  V30 1444 H 139.533 0.812375 -1.71757 0
M  V30 1445 H 137.683 3.26238 -2.10953 0
M  V30 1446 H 139.355 1.77852 -4.25636 0
M  V30 1447 H 137.598 1.60824 -4.02887 0
M  V30 1448 H 138.269 3.16584 -4.52193 0
M  V30 1449 H 140.745 3.25113 -2.59694 0
M  V30 1450 H 139.621 4.55186 -3.06753 0
M  V30 1451 H 139.882 4.20484 -1.36549 0
M  V30 1452 N 138.941 1.26152 0.944643 0
M  V30 1453 C 140.357 1.03189 1.21754 0
M  V30 1454 C 140.557 -0.245112 2.00004 0
M  V30 1455 O 139.613 -0.955176 2.33736 0
M  V30 1456 C 140.926 2.26119 1.98219 0
M  V30 1457 C 142.474 2.30984 2.11224 0
M  V30 1458 C 142.949 3.53597 2.91089 0
M  V30 1459 N 144.44 3.54053 2.98664 0
M  V30 1460 C 145.175 4.45593 3.60881 0
M  V30 1461 N 144.671 5.47416 4.24626 0
M  V30 1462 N 146.464 4.33252 3.58119 0
M  V30 1463 H 138.615 2.08177 0.421437 0
M  V30 1464 H 140.878 0.914723 0.248969 0
M  V30 1465 H 140.584 3.18984 1.48128 0
M  V30 1466 H 140.458 2.3009 2.98895 0
M  V30 1467 H 142.845 1.38635 2.60508 0
M  V30 1468 H 142.926 2.31026 1.09821 0
M  V30 1469 H 142.57 4.46273 2.42493 0
M  V30 1470 H 142.5 3.50802 3.92741 0
M  V30 1471 H 144.991 2.80403 2.53343 0
M  V30 1472 H 145.304 6.13459 4.69987 0
M  V30 1473 H 143.649 5.51278 4.23223 0
M  V30 1474 H 146.84 3.52924 3.0751 0
M  V30 1475 H 147.013 5.04786 4.06319 0
M  V30 1476 N 140.419 -1.14872 1.07899 0
M  V30 1477 C 141.366 -2.19791 0.704319 0
M  V30 1478 C 142.336 -1.63238 -0.306987 0
M  V30 1479 O 143.521 -1.8983 -0.192171 0
M  V30 1480 C 140.661 -3.44911 0.114244 0
M  V30 1481 C 139.774 -4.15637 1.1777 0
M  V30 1482 C 138.909 -5.28324 0.552037 0
M  V30 1483 C 137.948 -5.90875 1.59789 0
M  V30 1484 N 137.085 -6.95022 0.994404 0
M  V30 1485 H 141.925 -2.5119 1.60336 0
M  V30 1486 H 139.462 -1.23356 0.801352 0
M  V30 1487 H 141.42 -4.16477 -0.245544 0
M  V30 1488 H 140.05 -3.14011 -0.74813 0
M  V30 1489 H 139.102 -3.42512 1.65499 0
M  V30 1490 H 140.414 -4.5823 1.97046 0
M  V30 1491 H 139.568 -6.06538 0.1402 0
M  V30 1492 H 138.307 -4.86939 -0.272431 0
M  V30 1493 H 137.312 -5.11369 2.01945 0
M  V30 1494 H 138.537 -6.34337 2.42474 0
M  V30 1495 H 136.483 -6.55722 0.190939 0
M  V30 1496 H 136.4 -7.36073 1.72432 0
M  V30 1497 H 137.668 -7.77123 0.608253 0
M  V30 1498 N 141.898 -0.863906 -1.31812 0
M  V30 1499 C 142.828 -0.330843 -2.31144 0
M  V30 1500 C 143.809 0.575005 -1.60087 0
M  V30 1501 O 144.994 0.493304 -1.8783 0
M  V30 1502 C 142.124 0.47374 -3.44054 0
M  V30 1503 C 141.078 -0.338481 -4.26659 0
M  V30 1504 C 140.404 0.591412 -5.31419 0
M  V30 1505 C 141.704 -1.56926 -4.98168 0
M  V30 1506 H 143.398 -1.16086 -2.75979 0
M  V30 1507 H 140.944 -0.559657 -1.32679 0
M  V30 1508 H 142.897 0.857143 -4.12591 0
M  V30 1509 H 141.621 1.33721 -2.9797 0
M  V30 1510 H 140.28 -0.703754 -3.59782 0
M  V30 1511 H 139.928 1.45199 -4.81587 0
M  V30 1512 H 139.628 0.0519022 -5.87577 0
M  V30 1513 H 141.152 0.97179 -6.02817 0
M  V30 1514 H 142.566 -1.25764 -5.59336 0
M  V30 1515 H 140.963 -2.04739 -5.64094 0
M  V30 1516 H 142.033 -2.32544 -4.25501 0
M  V30 1517 N 143.376 1.44774 -0.622745 0
M  V30 1518 C 144.653 1.95522 -0.0551974 0
M  V30 1519 C 145.033 1.5649 1.41683 0
M  V30 1520 O 144.381 0.834848 2.12703 0
M  V30 1521 C 144.591 3.4796 -0.269242 0
M  V30 1522 C 145.939 4.24306 -0.158014 0
M  V30 1523 O 146.963 3.55637 -0.200162 0
M  V30 1524 O 145.822 5.46471 -0.0558693 0
M  V30 1525 H 142.916 0.826556 0.0271015 0
M  V30 1526 H 145.462 1.54866 -0.693864 0
M  V30 1527 H 144.234 3.6939 -1.29099 0
M  V30 1528 H 143.857 3.95543 0.403966 0
M  V30 1529 N 144.854 0.36279 1.53368 0
M  V30 1530 C 145.784 -0.476976 2.28576 0
M  V30 1531 C 146.765 -1.08631 1.30894 0
M  V30 1532 O 147.95 -1.10409 1.59761 0
M  V30 1533 C 145.08 -1.61828 3.07293 0
M  V30 1534 C 144.034 -1.13633 4.1264 0
M  V30 1535 C 143.36 -2.36766 4.79423 0
M  V30 1536 C 144.66 -0.223061 5.21823 0
M  V30 1537 H 146.354 0.150474 2.99022 0
M  V30 1538 H 143.9 0.0738103 1.43811 0
M  V30 1539 H 145.853 -2.21237 3.58653 0
M  V30 1540 H 144.577 -2.27292 2.34533 0
M  V30 1541 H 143.236 -0.564945 3.62221 0
M  V30 1542 H 142.884 -3.0068 4.03238 0
M  V30 1543 H 142.584 -2.05192 5.50609 0
M  V30 1544 H 144.108 -2.96865 5.33576 0
M  V30 1545 H 145.522 -0.724545 5.68703 0
M  V30 1546 H 143.919 0.001678 6.001 0
M  V30 1547 H 144.989 0.735553 4.79289 0
M  V30 1548 N 146.332 -1.57332 0.0918853 0
M  V30 1549 C 147.557 -1.98995 -0.584442 0
M  V30 1550 C 147.982 -0.970528 -1.61128 0
M  V30 1551 O 147.34 0.0613904 -1.81196 0
M  V30 1552 C 147.388 -3.39636 -1.21161 0
M  V30 1553 O 146.492 -3.40447 -2.32744 0
M  V30 1554 H 145.833 -0.647165 -0.148572 0
M  V30 1555 H 148.363 -2.03873 0.172347 0
M  V30 1556 H 148.373 -3.7726 -1.55367 0
M  V30 1557 H 147.048 -4.13356 -0.459313 0
M  V30 1558 H 145.625 -3.14614 -2.0018 0
M  V30 1559 N 147.81 0.181792 -1.56548 0
M  V30 1560 C 149.087 0.926765 -1.72251 0
M  V30 1561 C 149.467 2.00831 -0.650386 0
M  V30 1562 O 148.815 2.26008 0.336521 0
M  V30 1563 C 149.025 1.50106 -3.1507 0
M  V30 1564 C 150.373 1.97805 -3.75711 0
M  V30 1565 O 151.397 1.59922 -3.18282 0
M  V30 1566 O 150.256 2.67555 -4.76525 0
M  V30 1567 H 147.35 0.435506 -0.703039 0
M  V30 1568 H 149.896 0.170443 -1.68842 0
M  V30 1569 H 148.668 0.72212 -3.84579 0
M  V30 1570 H 148.291 2.32186 -3.22763 0
M  V30 1571 N 149.288 1.51039 0.449983 0
M  V30 1572 C 150.516 1.66869 1.2232 0
M  V30 1573 C 150.931 0.360727 1.85322 0
M  V30 1574 O 150.288 -0.659531 1.70166 0
M  V30 1575 C 150.339 2.77524 2.31652 0
M  V30 1576 O 150.06 4.03252 1.7123 0
M  V30 1577 C 151.561 3.04512 3.2216 0
M  V30 1578 H 148.781 0.560326 0.369155 0
M  V30 1579 H 151.325 1.97385 0.534719 0
M  V30 1580 H 149.48 2.49642 2.96239 0
M  V30 1581 H 149.894 4.64609 2.43389 0
M  V30 1582 H 151.368 3.85551 3.95038 0
M  V30 1583 H 151.845 2.16415 3.8218 0
M  V30 1584 H 152.451 3.34005 2.63288 0
M  V30 1585 N 150.766 -0.704594 1.40972 0
M  V30 1586 C 151.713 -1.81862 1.42109 0
M  V30 1587 C 152.683 -1.63781 0.276593 0
M  V30 1588 O 153.868 -1.84759 0.4763 0
M  V30 1589 C 151.008 -3.19669 1.30022 0
M  V30 1590 C 150.121 -3.49246 2.54267 0
M  V30 1591 C 149.256 -4.76618 2.3454 0
M  V30 1592 C 148.295 -4.99133 3.54306 0
M  V30 1593 N 147.432 -6.17726 3.33706 0
M  V30 1594 H 152.272 -1.80226 2.37324 0
M  V30 1595 H 149.809 -0.880238 1.17857 0
M  V30 1596 H 151.767 -3.99263 1.21018 0
M  V30 1597 H 150.397 -3.20506 0.384192 0
M  V30 1598 H 149.449 -2.64125 2.73756 0
M  V30 1599 H 150.761 -3.61788 3.43381 0
M  V30 1600 H 149.915 -5.64249 2.22952 0
M  V30 1601 H 148.654 -4.66305 1.42867 0
M  V30 1602 H 147.659 -4.09953 3.66359 0
M  V30 1603 H 148.884 -5.11311 4.4692 0
M  V30 1604 H 146.83 -6.08642 2.44725 0
M  V30 1605 H 146.747 -6.30995 4.16391 0
M  V30 1606 H 148.015 -7.08115 3.25873 0
M  V30 1607 N 152.244 -1.26651 -0.937939 0
M  V30 1608 C 153.469 -1.15279 -1.72411 0
M  V30 1609 C 153.894 0.287866 -1.85884 0
M  V30 1610 O 153.252 1.20855 -1.35143 0
M  V30 1611 C 153.3 -1.83028 -3.10698 0
M  V30 1612 O 152.404 -1.12128 -3.96864 0
M  V30 1613 H 151.745 -0.401504 -0.528858 0
M  V30 1614 H 154.275 -1.67531 -1.1745 0
M  V30 1615 H 154.285 -1.89981 -3.6107 0
M  V30 1616 H 152.96 -2.87833 -3.00208 0
M  V30 1617 H 151.537 -1.13173 -3.55312 0
M  V30 1618 N 153.722 1.14298 -1.08507 0
M  V30 1619 C 154.971 1.84708 -0.810305 0
M  V30 1620 C 155.284 1.83903 0.666271 0
M  V30 1621 O 156.49 2.50112 1.05624 0
M  V30 1622 C 154.946 3.31572 -1.39957 0
M  V30 1623 C 154.554 3.40791 -2.90801 0
M  V30 1624 C 156.298 4.07087 -1.20334 0
M  V30 1625 C 154.205 4.81872 -3.4286 0
M  V30 1626 H 153.135 0.691985 -0.299454 0
M  V30 1627 H 155.786 1.28841 -1.30661 0
M  V30 1628 H 154.168 3.87183 -0.830976 0
M  V30 1629 H 155.342 2.95225 -3.53806 0
M  V30 1630 H 153.657 2.78732 -3.0935 0
M  V30 1631 H 156.254 5.11225 -1.56693 0
M  V30 1632 H 156.597 4.16054 -0.143237 0
M  V30 1633 H 157.13 3.57779 -1.73893 0
M  V30 1634 H 153.869 4.78094 -4.48449 0
M  V30 1635 H 153.389 5.27972 -2.84615 0
M  V30 1636 H 155.068 5.50765 -3.39509 0
M  V30 1637 N 155.201 0.870884 1.31352 0
M  V30 1638 C 156.617 0.562932 1.49343 0
M  V30 1639 C 156.817 -0.902725 1.80148 0
M  V30 1640 O 155.873 -1.68484 1.88067 0
M  V30 1641 C 157.186 1.46393 2.62659 0
M  V30 1642 C 158.734 1.46607 2.76542 0
M  V30 1643 C 159.209 2.35266 3.92955 0
M  V30 1644 N 160.7 2.33151 4.00243 0
M  V30 1645 C 161.435 2.98471 4.89594 0
M  V30 1646 N 160.931 3.72964 5.8384 0
M  V30 1647 N 162.724 2.87775 4.82848 0
M  V30 1648 H 154.875 1.81923 1.09626 0
M  V30 1649 H 157.138 0.777934 0.541777 0
M  V30 1650 H 156.844 2.50689 2.46674 0
M  V30 1651 H 156.718 1.16314 3.58819 0
M  V30 1652 H 159.105 0.43069 2.9194 0
M  V30 1653 H 159.186 1.8071 1.81046 0
M  V30 1654 H 158.83 3.38881 3.78315 0
M  V30 1655 H 158.76 1.98487 4.87761 0
M  V30 1656 H 161.251 1.79006 3.32814 0
M  V30 1657 H 161.564 4.19932 6.4875 0
M  V30 1658 H 159.909 3.77073 5.83816 0
M  V30 1659 H 163.1 2.29116 4.08195 0
M  V30 1660 H 163.273 3.38961 5.52277 0
M  V30 1661 N 156.679 -1.44442 0.630414 0
M  V30 1662 C 157.642 -2.29107 -0.0652523 0
M  V30 1663 C 158.642 -1.41002 -0.772995 0
M  V30 1664 O 159.832 -1.62881 -0.617692 0
M  V30 1665 C 156.964 -3.22564 -1.10296 0
M  V30 1666 H 158.157 -2.92103 0.679401 0
M  V30 1667 H 155.71 -1.51343 0.390517 0
M  V30 1668 H 156.445 -2.64416 -1.87762 0
M  V30 1669 H 156.23 -3.87491 -0.59941 0
M  V30 1670 H 157.72 -3.86167 -1.5895 0
M  V30 1671 N 158.157 -0.370918 -1.53173 0
M  V30 1672 C 159.404 0.217102 -2.01333 0
M  V30 1673 C 159.732 1.48338 -1.25802 0
M  V30 1674 O 158.987 1.92698 -0.34146 0
M  V30 1675 C 159.286 0.549696 -3.53147 0
M  V30 1676 C 158.952 -0.622872 -4.46577 0
M  V30 1677 C 157.614 -0.944595 -4.71838 0
M  V30 1678 C 159.966 -1.40819 -5.01816 0
M  V30 1679 C 157.294 -2.05351 -5.49589 0
M  V30 1680 C 159.646 -2.50757 -5.80778 0
M  V30 1681 C 158.31 -2.83458 -6.04324 0
M  V30 1682 H 157.58 0.0794431 -0.736729 0
M  V30 1683 H 160.227 -0.504481 -1.84736 0
M  V30 1684 H 158.532 1.35237 -3.6772 0
M  V30 1685 H 160.229 1.017 -3.87889 0
M  V30 1686 H 156.819 -0.36209 -4.27068 0
M  V30 1687 H 161.003 -1.17289 -4.82242 0
M  V30 1688 H 156.259 -2.3108 -5.6605 0
M  V30 1689 H 160.433 -3.12022 -6.22588 0
M  V30 1690 H 158.06 -3.69508 -6.64355 0
M  V30 1691 N 159.635 1.57281 -0.100228 0
M  V30 1692 C 160.598 2.13158 0.842398 0
M  V30 1693 C 161.598 1.06202 1.20738 0
M  V30 1694 O 162.788 1.32066 1.13597 0
M  V30 1695 C 159.92 2.65639 2.13655 0
M  V30 1696 H 161.113 2.97766 0.357114 0
M  V30 1697 H 158.666 1.5559 0.148823 0
M  V30 1698 H 159.401 1.84566 2.66657 0
M  V30 1699 H 159.186 3.43844 1.88451 0
M  V30 1700 H 160.676 3.08846 2.81077 0
M  V30 1701 N 161.113 -0.173488 1.56642 0
M  V30 1702 C 162.023 -1.23482 1.99473 0
M  V30 1703 C 163.039 -1.48567 0.905752 0
M  V30 1704 O 164.215 -1.60758 1.21321 0
M  V30 1705 C 161.28 -2.55444 2.34413 0
M  V30 1706 C 160.341 -2.38241 3.57127 0
M  V30 1707 C 159.574 -3.63909 3.90392 0
M  V30 1708 O 159.797 -4.68996 3.24653 0
M  V30 1709 O 158.731 -3.58149 4.83749 0
M  V30 1710 H 162.557 -0.901279 2.90018 0
M  V30 1711 H 160.142 -0.380185 1.44482 0
M  V30 1712 H 162.024 -3.33292 2.57865 0
M  V30 1713 H 160.699 -2.88382 1.4703 0
M  V30 1714 H 159.606 -1.58431 3.38896 0
M  V30 1715 H 160.939 -2.10228 4.45045 0
M  V30 1716 N 162.591 -1.51276 -0.441967 0
M  V30 1717 C 163.839 -1.63392 -1.18943 0
M  V30 1718 C 164.16 -0.350159 -1.9183 0
M  V30 1719 O 163.43 0.633784 -1.85364 0
M  V30 1720 H 162.01 -0.602164 -0.442049 0
M  V30 1721 H 164.672 -1.88186 -0.507165 0
M  V30 1722 H 163.768 -2.45934 -1.92154 0
M  V30 1723 N 164.069 0.697108 -1.41344 0
M  V30 1724 C 165.316 1.45714 -1.40619 0
M  V30 1725 C 165.644 1.94494 -0.0147907 0
M  V30 1726 O 164.899 1.69794 0.973066 0
M  V30 1727 C 165.198 2.68553 -2.35826 0
M  V30 1728 C 164.864 2.38438 -3.82698 0
M  V30 1729 C 163.526 2.29936 -4.22709 0
M  V30 1730 C 165.878 2.13567 -4.75435 0
M  V30 1731 C 163.206 1.94656 -5.53467 0
M  V30 1732 C 165.558 1.79797 -6.06511 0
M  V30 1733 C 164.222 1.69789 -6.45545 0
M  V30 1734 H 163.492 0.533206 -0.51456 0
M  V30 1735 H 166.139 0.796901 -1.74131 0
M  V30 1736 H 164.444 3.39503 -1.95563 0
M  V30 1737 H 166.141 3.2669 -2.32539 0
M  V30 1738 H 162.731 2.4595 -3.51008 0
M  V30 1739 H 166.915 2.19082 -4.45328 0
M  V30 1740 H 162.171 1.8546 -5.82593 0
M  V30 1741 H 166.345 1.59572 -6.77872 0
M  V30 1742 H 163.972 1.4222 -7.46778 0
M  V30 1743 N 165.547 1.27147 0.931209 0
M  V30 1744 C 166.477 1.12081 2.04842 0
M  V30 1745 C 167.458 0.0232364 1.70084 0
M  V30 1746 O 168.643 0.197085 1.93197 0
M  V30 1747 C 165.773 0.76354 3.38803 0
M  V30 1748 C 164.727 1.81396 3.87659 0
M  V30 1749 C 164.053 1.31075 5.18385 0
M  V30 1750 C 165.353 3.21739 4.11438 0
M  V30 1751 H 167.047 2.05537 2.17703 0
M  V30 1752 H 164.593 0.989603 1.04608 0
M  V30 1753 H 166.546 0.644982 4.16435 0
M  V30 1754 H 165.27 -0.206727 3.25945 0
M  V30 1755 H 163.929 1.92136 3.12217 0
M  V30 1756 H 163.577 0.330037 5.01916 0
M  V30 1757 H 163.277 2.013 5.52044 0
M  V30 1758 H 164.801 1.20506 5.98591 0
M  V30 1759 H 166.215 3.14019 4.79651 0
M  V30 1760 H 164.612 3.89644 4.56397 0
M  V30 1761 H 165.682 3.67054 3.16859 0
M  V30 1762 N 167.025 -1.13721 1.09112 0
M  V30 1763 C 167.988 -2.17222 0.731241 0
M  V30 1764 C 168.988 -1.59035 -0.237566 0
M  V30 1765 O 170.178 -1.74192 -0.0161704 0
M  V30 1766 C 167.31 -3.40804 0.0808443 0
M  V30 1767 H 168.503 -2.50573 1.64783 0
M  V30 1768 H 166.056 -1.28493 0.889897 0
M  V30 1769 H 166.791 -3.1304 -0.847127 0
M  V30 1770 H 166.576 -3.84306 0.777896 0
M  V30 1771 H 168.066 -4.1731 -0.155657 0
M  V30 1772 N 168.503 -0.877838 -1.30888 0
M  V30 1773 C 169.413 -0.343096 -2.32078 0
M  V30 1774 C 170.429 0.551022 -1.65045 0
M  V30 1775 O 171.605 0.445854 -1.96403 0
M  V30 1776 C 168.67 0.439905 -3.43898 0
M  V30 1777 C 167.731 -0.483111 -4.26573 0
M  V30 1778 C 166.964 0.262616 -5.33053 0
M  V30 1779 O 167.187 1.48967 -5.50604 0
M  V30 1780 O 166.121 -0.383593 -6.00676 0
M  V30 1781 H 169.947 -1.18203 -2.79753 0
M  V30 1782 H 167.532 -0.64145 -1.34929 0
M  V30 1783 H 169.414 0.883504 -4.12034 0
M  V30 1784 H 168.089 1.25526 -2.98371 0
M  V30 1785 H 166.996 -0.975374 -3.61161 0
M  V30 1786 H 168.329 -1.26427 -4.75686 0
M  V30 1787 N 169.982 1.44106 -0.638065 0
M  V30 1788 C 170.892 2.34513 0.0637334 0
M  V30 1789 C 171.908 1.53018 0.828346 0
M  V30 1790 O 173.084 1.85723 0.779036 0
M  V30 1791 C 170.149 3.31095 1.02844 0
M  V30 1792 C 169.21 4.28497 0.26244 0
M  V30 1793 C 168.443 5.20465 1.1812 0
M  V30 1794 O 168.666 5.16514 2.42011 0
M  V30 1795 O 167.6 5.98251 0.661774 0
M  V30 1796 H 171.426 2.95989 -0.68003 0
M  V30 1797 H 169.011 1.43994 -0.398252 0
M  V30 1798 H 170.893 3.90526 1.58327 0
M  V30 1799 H 169.568 2.72144 1.7527 0
M  V30 1800 H 168.475 3.72592 -0.335602 0
M  V30 1801 H 169.808 4.90388 -0.421936 0
M  V30 1802 N 171.46 0.379036 1.52974 0
M  V30 1803 C 172.407 -0.461048 2.26148 0
M  V30 1804 C 173.377 -1.06637 1.27349 0
M  V30 1805 O 174.562 -1.09633 1.56157 0
M  V30 1806 C 171.702 -1.58782 3.06402 0
M  V30 1807 C 170.815 -1.00636 4.20115 0
M  V30 1808 C 169.95 -2.10334 4.87784 0
M  V30 1809 C 168.989 -1.49724 5.93506 0
M  V30 1810 N 168.126 -2.5331 6.54812 0
M  V30 1811 H 172.966 0.169429 2.97518 0
M  V30 1812 H 170.503 0.0953806 1.4679 0
M  V30 1813 H 172.461 -2.25174 3.51215 0
M  V30 1814 H 171.091 -2.18876 2.37261 0
M  V30 1815 H 170.143 -0.232332 3.7969 0
M  V30 1816 H 171.455 -0.523343 4.96047 0
M  V30 1817 H 170.609 -2.84519 5.35849 0
M  V30 1818 H 169.348 -2.61992 4.11353 0
M  V30 1819 H 168.353 -0.740598 5.44789 0
M  V30 1820 H 169.578 -0.988732 6.71864 0
M  V30 1821 H 167.524 -3.04156 5.81227 0
M  V30 1822 H 167.441 -2.09734 7.26325 0
M  V30 1823 H 168.709 -3.27155 7.07524 0
M  V30 1824 N 172.938 -1.57226 0.108567 0
M  V30 1825 C 173.87 -2.11809 -0.875752 0
M  V30 1826 C 174.883 -1.05839 -1.23701 0
M  V30 1827 O 176.072 -1.33245 -1.18778 0
M  V30 1828 C 173.172 -2.59411 -2.18081 0
M  V30 1829 C 172.345 -3.89364 -1.99284 0
M  V30 1830 C 171.404 -4.22672 -3.13424 0
M  V30 1831 O 170.43 -4.91668 -2.86795 0
M  V30 1832 N 171.632 -3.79154 -4.3957 0
M  V30 1833 H 174.397 -2.9689 -0.409477 0
M  V30 1834 H 171.958 -1.61721 -0.076158 0
M  V30 1835 H 173.95 -2.7873 -2.93414 0
M  V30 1836 H 172.52 -1.79268 -2.5609 0
M  V30 1837 H 171.74 -3.79059 -1.08203 0
M  V30 1838 H 173.028 -4.74358 -1.84017 0
M  V30 1839 H 172.426 -3.23486 -4.64083 0
M  V30 1840 H 170.983 -4.03602 -5.11809 0
M  V30 1841 N 174.416 0.165178 -1.56732 0
M  V30 1842 C 175.346 1.20651 -1.99914 0
M  V30 1843 C 176.327 1.45827 -0.875705 0
M  V30 1844 O 177.512 1.57057 -1.14223 0
M  V30 1845 C 174.642 2.54401 -2.36427 0
M  V30 1846 C 173.596 2.43782 -3.51787 0
M  V30 1847 C 172.922 3.82078 -3.7406 0
M  V30 1848 C 174.222 1.93732 -4.85041 0
M  V30 1849 H 175.916 0.847534 -2.87154 0
M  V30 1850 H 173.462 0.40625 -1.38151 0
M  V30 1851 H 175.415 3.27458 -2.65234 0
M  V30 1852 H 174.139 2.92098 -1.46103 0
M  V30 1853 H 172.798 1.73178 -3.23117 0
M  V30 1854 H 172.446 4.17179 -2.81017 0
M  V30 1855 H 172.146 3.7584 -4.51684 0
M  V30 1856 H 173.67 4.56712 -4.05274 0
M  V30 1857 H 175.084 2.56569 -5.12684 0
M  V30 1858 H 173.481 1.98428 -5.66345 0
M  V30 1859 H 174.551 0.891962 -4.76626 0
M  V30 1860 N 175.894 1.51508 0.433938 0
M  V30 1861 C 176.844 1.69451 1.52546 0
M  V30 1862 C 177.828 0.548474 1.51263 0
M  V30 1863 O 179.02 0.804529 1.57659 0
M  V30 1864 C 176.149 1.82604 2.90707 0
M  V30 1865 C 175.235 3.03002 2.96733 0
M  V30 1866 N 175.626 4.26121 2.72496 0
M  V30 1867 C 173.924 3.02327 3.27894 0
M  V30 1868 C 174.625 5.07407 2.84452 0
M  V30 1869 N 173.601 4.42126 3.16269 0
M  V30 1870 H 177.403 2.62305 1.32564 0
M  V30 1871 H 174.917 1.49202 0.641297 0
M  V30 1872 H 176.914 1.93569 3.69238 0
M  V30 1873 H 175.574 0.909339 3.11707 0
M  V30 1874 H 176.585 4.55009 2.4736 0
M  V30 1875 H 173.262 2.20301 3.54646 0
M  V30 1876 H 174.652 6.15422 2.69639 0
M  V30 1877 N 177.372 -0.689602 1.41712 0
M  V30 1878 C 178.621 -1.44534 1.40686 0
M  V30 1879 C 178.934 -1.95588 0.0213352 0
M  V30 1880 O 180.14 -2.71271 -0.111534 0
M  V30 1881 C 178.596 -2.61387 2.47396 0
M  V30 1882 C 178.204 -2.17094 3.91885 0
M  V30 1883 C 179.948 -3.38986 2.55517 0
M  V30 1884 C 177.855 -3.3094 4.90135 0
M  V30 1885 H 176.785 -0.542925 0.52321 0
M  V30 1886 H 179.436 -0.748054 1.6756 0
M  V30 1887 H 177.818 -3.33412 2.13664 0
M  V30 1888 H 178.992 -1.52318 4.34897 0
M  V30 1889 H 177.307 -1.52473 3.8748 0
M  V30 1890 H 179.904 -4.23747 3.26102 0
M  V30 1891 H 180.247 -3.84578 1.59391 0
M  V30 1892 H 180.78 -2.74021 2.8837 0
M  V30 1893 H 177.519 -2.90355 5.87685 0
M  V30 1894 H 177.039 -3.94546 4.51767 0
M  V30 1895 H 178.718 -3.9663 5.11169 0
M  V30 1896 N 178.85 -1.27639 -0.924453 0
M  V30 1897 C 179.78 -1.13166 -2.04244 0
M  V30 1898 C 180.761 -0.032256 -1.70069 0
M  V30 1899 O 181.946 -0.207328 -1.9309 0
M  V30 1900 C 179.076 -0.781496 -3.38393 0
M  V30 1901 C 178.03 -1.83449 -3.86692 0
M  V30 1902 C 177.356 -1.33822 -5.17683 0
M  V30 1903 C 178.656 -3.23917 -4.09726 0
M  V30 1904 H 180.35 -2.06689 -2.1661 0
M  V30 1905 H 177.896 -0.995136 -1.04082 0
M  V30 1906 H 179.849 -0.667057 -4.16087 0
M  V30 1907 H 178.573 0.189439 -3.2605 0
M  V30 1908 H 177.232 -1.93789 -3.11193 0
M  V30 1909 H 176.88 -0.35665 -5.01734 0
M  V30 1910 H 176.58 -2.04224 -5.50968 0
M  V30 1911 H 178.104 -1.23679 -5.97943 0
M  V30 1912 H 179.518 -3.16559 -4.77978 0
M  V30 1913 H 177.915 -3.92059 -4.54324 0
M  V30 1914 H 178.985 -3.68729 -3.14908 0
M  V30 1915 N 180.328 1.1314 -1.09713 0
M  V30 1916 C 181.577 1.83838 -0.829851 0
M  V30 1917 C 181.89 1.84599 0.646728 0
M  V30 1918 O 183.096 2.51218 1.02965 0
M  V30 1919 C 181.552 3.30069 -1.43466 0
M  V30 1920 C 181.16 3.37688 -2.94399 0
M  V30 1921 C 182.904 4.05788 -1.24645 0
M  V30 1922 C 180.811 4.78209 -3.47952 0
M  V30 1923 H 179.741 0.68877 -0.306777 0
M  V30 1924 H 182.392 1.27448 -1.3202 0
M  V30 1925 H 180.774 3.8628 -0.871996 0
M  V30 1926 H 181.948 2.91456 -3.56918 0
M  V30 1927 H 180.263 2.75436 -3.12289 0
M  V30 1928 H 182.86 5.09535 -1.62107 0
M  V30 1929 H 183.203 4.15878 -0.187357 0
M  V30 1930 H 183.736 3.55915 -1.77678 0
M  V30 1931 H 180.475 4.73311 -4.53495 0
M  V30 1932 H 179.995 5.24924 -2.90198 0
M  V30 1933 H 181.674 5.47133 -3.45332 0
M  V30 1934 N 181.806 0.884767 1.30421 0
M  V30 1935 C 182.754 0.340869 2.30089 0
M  V30 1936 C 183.748 -0.55201 1.60154 0
M  V30 1937 O 184.954 -0.436467 1.74628 0
M  V30 1938 H 181.329 0.0915739 0.746404 0
M  V30 1939 H 183.3 1.19513 2.73421 0
M  V30 1940 C 182.049 -0.429779 3.45034 0
M  V30 1941 H 181.372 0.248024 3.9903 0
M  V30 1942 H 182.812 -0.775445 4.16849 0
M  V30 1943 C 181.271 -1.62677 2.95022 0
M  V30 1944 O 181.801 -2.72614 2.95033 0
M  V30 1945 N 180.007 -1.46387 2.51036 0
M  V30 1946 H 179.554 -0.569506 2.51226 0
M  V30 1947 H 179.512 -2.26612 2.17932 0
M  V30 1948 N 183.284 -1.43765 0.645699 0
M  V30 1949 C 184.232 -2.32516 -0.0624849 0
M  V30 1950 C 185.226 -1.48183 -0.820855 0
M  V30 1951 O 186.432 -1.64439 -0.732106 0
M  V30 1952 H 182.807 -0.750989 -0.0389864 0
M  V30 1953 H 184.778 -2.89979 0.703892 0
M  V30 1954 C 183.527 -3.32389 -1.02044 0
M  V30 1955 H 182.85 -3.97301 -0.446312 0
M  V30 1956 H 184.29 -3.97138 -1.48517 0
M  V30 1957 C 182.749 -2.62416 -2.11281 0
M  V30 1958 O 183.279 -2.434 -3.19561 0
M  V30 1959 N 181.485 -2.21913 -1.87624 0
M  V30 1960 H 181.032 -2.37578 -0.995703 0
M  V30 1961 H 180.99 -1.75424 -2.6091 0
M  V30 1962 N 184.763 -0.387143 -1.52771 0
M  V30 1963 C 185.726 0.436939 -2.24997 0
M  V30 1964 C 186.726 0.991991 -1.26555 0
M  V30 1965 O 187.916 0.874335 -1.50669 0
M  V30 1966 C 185.048 1.61281 -3.00335 0
M  V30 1967 H 186.241 -0.195365 -2.99263 0
M  V30 1968 H 183.794 -0.139218 -1.55679 0
M  V30 1969 H 184.529 2.2826 -2.30364 0
M  V30 1970 H 184.314 1.22154 -3.72587 0
M  V30 1971 H 185.804 2.19629 -3.5518 0
M  V30 1972 N 186.241 1.57166 -0.116904 0
M  V30 1973 C 187.489 1.94737 0.540533 0
M  V30 1974 C 187.81 1.00096 1.67349 0
M  V30 1975 O 187.08 0.0568854 1.95817 0
M  V30 1976 H 185.66 0.718981 0.202669 0
M  V30 1977 H 188.322 1.94017 -0.185353 0
M  V30 1978 H 187.418 2.97719 0.936483 0
M  V30 1979 N 187.719 -0.156864 1.56817 0
M  V30 1980 C 188.965 -0.872416 1.83076 0
M  V30 1981 C 189.298 -1.81261 0.697001 0
M  V30 1982 O 188.573 -1.92171 -0.30008 0
M  V30 1983 C 188.856 -1.65551 3.19789 0
M  V30 1984 C 188.709 -0.737467 4.43713 0
M  V30 1985 C 190.028 -2.62012 3.53606 0
M  V30 1986 H 187.147 -0.315715 0.665953 0
M  V30 1987 H 189.789 -0.138004 1.89498 0
M  V30 1988 H 187.939 -2.28159 3.14445 0
M  V30 1989 H 189.611 -0.123143 4.61136 0
M  V30 1990 H 187.854 -0.0464067 4.33775 0
M  V30 1991 H 188.525 -1.32122 5.35955 0
M  V30 1992 H 191.001 -2.09525 3.59497 0
M  V30 1993 H 189.877 -3.13861 4.50314 0
M  V30 1994 H 190.138 -3.42902 2.79053 0
M  V30 1995 N 189.197 -1.51736 -0.425897 0
M  V30 1996 C 190.13 -1.68574 -1.53812 0
M  V30 1997 C 191.108 -0.53328 -1.53606 0
M  V30 1998 O 192.292 -0.758555 -1.72564 0
M  V30 1999 C 189.419 -1.70977 -2.92377 0
M  V30 2000 C 188.465 -2.92324 -3.10563 0
M  V30 2001 S 189.298 -4.52952 -2.85648 0
M  V30 2002 C 190.454 -4.58117 -4.26474 0
M  V30 2003 H 190.687 -2.62647 -1.39298 0
M  V30 2004 H 188.22 -1.41564 -0.616361 0
M  V30 2005 H 190.178 -1.73047 -3.72243 0
M  V30 2006 H 188.839 -0.78061 -3.04245 0
M  V30 2007 H 188.032 -2.90439 -4.11899 0
M  V30 2008 H 187.634 -2.88055 -2.38538 0
M  V30 2009 H 189.926 -4.34462 -5.19855 0
M  V30 2010 H 190.869 -5.59983 -4.33388 0
M  V30 2011 H 191.277 -3.8732 -4.10662 0
M  V30 2012 N 190.675 0.682077 -1.42076 0
M  V30 2013 C 191.608 1.80666 -1.3941 0
M  V30 2014 C 192.586 1.60518 -0.25939 0
M  V30 2015 O 193.77 1.83088 -0.448456 0
M  V30 2016 C 190.897 3.17556 -1.17796 0
M  V30 2017 C 189.943 3.56468 -2.34164 0
M  V30 2018 S 190.776 3.59729 -3.96681 0
M  V30 2019 C 191.932 4.99323 -3.77395 0
M  V30 2020 H 192.165 1.82652 -2.34575 0
M  V30 2021 H 189.698 0.852062 -1.2876 0
M  V30 2022 H 191.656 3.96575 -1.06012 0
M  V30 2023 H 190.317 3.13164 -0.242279 0
M  V30 2024 H 189.51 4.5595 -2.1477 0
M  V30 2025 H 189.112 2.84792 -2.42425 0
M  V30 2026 H 191.404 5.87202 -3.37935 0
M  V30 2027 H 192.347 5.23763 -4.76527 0
M  V30 2028 H 192.755 4.71498 -3.10403 0
M  V30 2029 N 192.153 1.28127 0.917671 0
M  V30 2030 C 193.393 1.163 1.68088 0
M  V30 2031 C 193.757 -0.284515 1.8988 0
M  V30 2032 O 194.958 -0.525413 2.63615 0
M  V30 2033 C 193.229 1.93546 3.00457 0
M  V30 2034 S 194.788 1.98048 3.91564 0
M  V30 2035 H 191.606 0.415005 0.577315 0
M  V30 2036 H 194.208 1.62173 1.09179 0
M  V30 2037 H 192.912 2.97888 2.82295 0
M  V30 2038 H 192.443 1.48207 3.64415 0
M  V30 2039 H 194.458 1.08415 4.84211 0
M  V30 2040 N 193.631 -1.12557 1.10312 0
M  V30 2041 C 195.042 -1.65574 0.862678 0
M  V30 2042 C 195.393 -1.86566 -0.607256 0
M  V30 2043 O 194.518 -1.59121 -1.46662 0
M  V30 2044 C 195.113 -3.00776 1.55947 0
M  V30 2045 C 193.672 -3.50748 1.36576 0
M  V30 2046 C 192.819 -2.25797 1.60968 0
M  V30 2047 H 195.77 -0.963552 1.26101 0
M  V30 2048 H 195.791 -3.67185 0.997753 0
M  V30 2049 H 195.303 -2.85465 2.62928 0
M  V30 2050 H 193.404 -3.71245 0.317531 0
M  V30 2051 H 193.517 -4.30289 2.10686 0
M  V30 2052 H 191.881 -2.32841 1.03234 0
M  V30 2053 H 192.664 -2.13043 2.69198 0
M  V30 2054 N 195.109 -0.891671 -1.2995 0
M  V30 2055 C 196.339 -0.527893 -1.99742 0
M  V30 2056 C 196.747 0.88979 -1.66971 0
M  V30 2057 O 196.09 1.59766 -0.906667 0
M  V30 2058 C 196.152 -0.630804 -3.53922 0
M  V30 2059 C 195.816 -2.01401 -4.10228 0
M  V30 2060 C 196.813 -2.98422 -4.25724 0
M  V30 2061 C 194.498 -2.32121 -4.45449 0
M  V30 2062 C 196.492 -4.24293 -4.75662 0
M  V30 2063 C 194.179 -3.58237 -4.95086 0
M  V30 2064 C 195.177 -4.54137 -5.10146 0
M  V30 2065 O 194.865 -5.78014 -5.58708 0
M  V30 2066 H 194.597 -0.201953 -0.645129 0
M  V30 2067 H 197.151 -1.20076 -1.66646 0
M  V30 2068 H 195.381 0.0990616 -3.86573 0
M  V30 2069 H 197.07 -0.277338 -4.04951 0
M  V30 2070 H 197.836 -2.76001 -3.98809 0
M  V30 2071 H 193.715 -1.5824 -4.32991 0
M  V30 2072 H 197.259 -4.99153 -4.87332 0
M  V30 2073 H 193.156 -3.80491 -5.21437 0
M  V30 2074 H 193.924 -5.8049 -5.77039 0
M  V30 2075 N 196.587 1.43421 -0.653314 0
M  V30 2076 C 197.812 2.06678 -0.172846 0
M  V30 2077 C 198.237 1.48648 1.15262 0
M  V30 2078 O 197.595 0.596457 1.71208 0
M  V30 2079 C 197.643 3.60474 -0.0953184 0
M  V30 2080 O 196.747 4.01487 0.942442 0
M  V30 2081 H 196.088 0.657181 -0.0949155 0
M  V30 2082 H 198.618 1.83925 -0.896265 0
M  V30 2083 H 198.628 4.07905 0.0879728 0
M  V30 2084 H 197.303 4.02088 -1.06291 0
M  V30 2085 H 195.88 3.65646 0.731932 0
M  V30 2086 N 198.065 0.39524 1.52563 0
M  V30 2087 C 199.012 -0.437036 2.26624 0
M  V30 2088 C 199.982 -1.05281 1.28472 0
M  V30 2089 O 201.167 -1.07971 1.57311 0
M  V30 2090 C 198.307 -1.55524 3.08069 0
M  V30 2091 C 197.42 -0.961745 4.21158 0
M  V30 2092 C 196.555 -2.05149 4.89987 0
M  V30 2093 C 195.594 -1.4342 5.95061 0
M  V30 2094 N 194.731 -2.46351 6.57462 0
M  V30 2095 H 199.571 0.200976 2.97322 0
M  V30 2096 H 197.108 0.110944 1.46681 0
M  V30 2097 H 199.066 -2.21437 3.53584 0
M  V30 2098 H 197.696 -2.16348 2.3957 0
M  V30 2099 H 196.748 -0.192048 3.79915 0
M  V30 2100 H 198.06 -0.470701 4.96574 0
M  V30 2101 H 197.214 -2.78819 5.38837 0
M  V30 2102 H 195.953 -2.57615 4.14109 0
M  V30 2103 H 194.958 -0.682774 5.45544 0
M  V30 2104 H 196.183 -0.917416 6.72875 0
M  V30 2105 H 194.129 -2.97975 5.8442 0
M  V30 2106 H 194.046 -2.02019 7.28508 0
M  V30 2107 H 195.314 -3.19633 7.10954 0
M  V30 2108 N 199.544 -1.57102 0.125237 0
M  V30 2109 C 200.772 -1.99761 -0.538797 0
M  V30 2110 C 201.187 -1.00503 -1.59827 0
M  V30 2111 O 200.544 0.00119474 -1.825 0
M  V30 2112 C 200.595 -3.42408 -1.15927 0
M  V30 2113 O 200.316 -4.37869 -0.142143 0
M  V30 2114 C 201.817 -4.00232 -1.90602 0
M  V30 2115 H 199.037 -0.655772 -0.14214 0
M  V30 2116 H 201.581 -2.03383 0.213413 0
M  V30 2117 H 199.736 -3.39706 -1.86223 0
M  V30 2118 H 200.15 -5.21128 -0.593775 0
M  V30 2119 H 201.624 -5.02105 -2.29335 0
M  V30 2120 H 202.101 -3.39721 -2.78363 0
M  V30 2121 H 202.707 -4.06499 -1.25055 0
M  V30 2122 N 201.022 0.148545 -1.56898 0
M  V30 2123 C 201.985 1.16736 -1.97244 0
M  V30 2124 C 202.985 1.35947 -0.858777 0
M  V30 2125 O 204.175 1.32966 -1.12542 0
M  V30 2126 C 201.307 2.52798 -2.28705 0
M  V30 2127 H 202.5 0.821279 -2.88435 0
M  V30 2128 H 200.053 0.391831 -1.51309 0
M  V30 2129 H 200.788 2.92381 -1.403 0
M  V30 2130 H 200.573 2.40216 -3.09901 0
M  V30 2131 H 202.063 3.26179 -2.60762 0
M  V30 2132 N 202.5 1.5196 0.417844 0
M  V30 2133 C 203.777 1.56146 1.17803 0
M  V30 2134 C 204.157 0.337275 2.08388 0
M  V30 2135 O 203.505 -0.676447 2.18258 0
M  V30 2136 C 203.715 2.88566 1.96293 0
M  V30 2137 C 205.063 3.41244 2.52662 0
M  V30 2138 O 206.087 2.90247 2.06483 0
M  V30 2139 O 204.946 4.30273 3.36938 0
M  V30 2140 H 202.04 0.628598 0.537395 0
M  V30 2141 H 204.586 1.64283 0.425331 0
M  V30 2142 H 203.358 3.69116 1.2988 0
M  V30 2143 H 202.981 2.83681 2.78587 0
M  V30 2144 N 203.978 -0.674533 1.42435 0
M  V30 2145 C 205.226 -1.43175 1.42637 0
M  V30 2146 C 205.547 -1.94951 0.0438992 0
M  V30 2147 O 204.817 -1.7308 -0.917607 0
M  V30 2148 H 203.397 -0.531307 0.525092 0
M  V30 2149 H 206.059 -0.797006 1.77859 0
M  V30 2150 H 205.155 -2.28463 2.12629 0
M  V30 2151 N 205.456 -1.28612 -0.910864 0
M  V30 2152 C 206.703 -1.15934 -1.66029 0
M  V30 2153 C 207.031 0.291483 -1.92303 0
M  V30 2154 O 206.286 1.22816 -1.52364 0
M  V30 2155 C 206.585 -1.90624 -3.0232 0
M  V30 2156 C 206.251 -3.40405 -2.95695 0
M  V30 2157 C 204.913 -3.81255 -2.93595 0
M  V30 2158 C 207.265 -4.359 -2.85728 0
M  V30 2159 C 204.593 -5.15936 -2.79334 0
M  V30 2160 C 206.945 -5.70657 -2.73007 0
M  V30 2161 C 205.609 -6.10779 -2.69267 0
M  V30 2162 H 204.879 -0.424234 -0.607541 0
M  V30 2163 H 207.526 -1.5942 -1.06101 0
M  V30 2164 H 205.831 -1.39696 -3.6605 0
M  V30 2165 H 207.528 -1.78228 -3.59215 0
M  V30 2166 H 204.118 -3.07927 -2.98125 0
M  V30 2167 H 208.302 -4.053 -2.86436 0
M  V30 2168 H 203.558 -5.46146 -2.74835 0
M  V30 2169 H 207.732 -6.44311 -2.64264 0
M  V30 2170 H 205.359 -7.1509 -2.57974 0
M  V30 2171 N 206.934 1.1197 -1.10907 0
M  V30 2172 C 207.844 2.21433 -0.774896 0
M  V30 2173 C 208.86 1.72478 0.229657 0
M  V30 2174 O 210.036 2.01288 0.0672008 0
M  V30 2175 C 207.101 3.4602 -0.216986 0
M  V30 2176 C 206.162 4.09791 -1.27944 0
M  V30 2177 C 205.395 5.28431 -0.748055 0
M  V30 2178 O 205.618 5.68823 0.423833 0
M  V30 2179 O 204.552 5.82644 -1.51027 0
M  V30 2180 H 208.378 2.5242 -1.68873 0
M  V30 2181 H 205.963 1.20399 -0.884555 0
M  V30 2182 H 207.845 4.21304 0.090059 0
M  V30 2183 H 206.52 3.16698 0.669633 0
M  V30 2184 H 205.427 3.36265 -1.63941 0
M  V30 2185 H 206.76 4.4328 -2.13925 0
M  V30 2186 N 208.412 0.89855 1.29475 0
M  V30 2187 C 209.64 0.539261 1.99749 0
M  V30 2188 C 210.055 -0.875716 1.67262 0
M  V30 2189 O 209.412 -1.57786 0.917049 0
M  V30 2190 C 209.463 0.72061 3.54245 0
M  V30 2191 O 209.184 2.07989 3.8558 0
M  V30 2192 C 210.685 0.366118 4.41786 0
M  V30 2193 H 207.905 0.207047 0.638258 0
M  V30 2194 H 210.449 1.20758 1.65039 0
M  V30 2195 H 208.604 0.0994862 3.87272 0
M  V30 2196 H 209.018 2.10841 4.80257 0
M  V30 2197 H 210.492 0.543848 5.49314 0
M  V30 2198 H 210.969 -0.696763 4.33638 0
M  V30 2199 H 211.575 0.964135 4.14228 0
M  V30 2200 N 209.89 -1.43072 0.660911 0
M  V30 2201 C 210.84 -2.27948 -0.04847 0
M  V30 2202 C 211.824 -1.40325 -0.787246 0
M  V30 2203 O 213.016 -1.63893 -0.668446 0
M  V30 2204 C 210.145 -3.28143 -1.00881 0
M  V30 2205 C 209.231 -4.23252 -0.268108 0
M  V30 2206 N 209.622 -5.00656 0.719528 0
M  V30 2207 C 207.92 -4.43092 -0.508493 0
M  V30 2208 C 208.621 -5.70019 1.15988 0
M  V30 2209 N 207.597 -5.41364 0.492584 0
M  V30 2210 H 211.399 -2.85213 0.709279 0
M  V30 2211 H 208.913 -1.54869 0.488822 0
M  V30 2212 H 210.91 -3.87736 -1.53188 0
M  V30 2213 H 209.57 -2.7244 -1.76654 0
M  V30 2214 H 210.581 -5.06115 1.09855 0
M  V30 2215 H 207.258 -3.98449 -1.24679 0
M  V30 2216 H 208.648 -6.4214 1.97751 0
M  V30 2217 N 211.368 -0.403325 -1.52352 0
M  V30 2218 C 212.298 0.416205 -2.29761 0
M  V30 2219 C 213.279 1.05123 -1.33728 0
M  V30 2220 O 214.464 1.06134 -1.62632 0
M  V30 2221 C 211.594 1.53624 -3.11475 0
M  V30 2222 C 210.548 1.02653 -4.15507 0
M  V30 2223 C 209.874 2.23971 -4.85532 0
M  V30 2224 C 211.174 0.08463 -5.22231 0
M  V30 2225 H 212.868 -0.229701 -2.98518 0
M  V30 2226 H 210.414 -0.111913 -1.43564 0
M  V30 2227 H 212.367 2.1165 -3.64393 0
M  V30 2228 H 211.091 2.20994 -2.40477 0
M  V30 2229 H 209.75 0.46871 -3.63591 0
M  V30 2230 H 209.398 2.89883 -4.11068 0
M  V30 2231 H 209.098 1.90521 -5.55856 0
M  V30 2232 H 210.622 2.82614 -5.41259 0
M  V30 2233 H 212.036 0.573509 -5.70424 0
M  V30 2234 H 210.433 -0.160783 -5.99885 0
M  V30 2235 H 211.503 -0.86237 -4.7717 0
M  V30 2236 N 212.846 1.57033 -0.133567 0
M  V30 2237 C 214.094 1.953 0.519848 0
M  V30 2238 C 214.415 1.01866 1.66278 0
M  V30 2239 O 213.685 0.0776513 1.95746 0
M  V30 2240 H 212.265 0.721091 0.195032 0
M  V30 2241 H 214.927 1.93809 -0.205921 0
M  V30 2242 H 214.023 2.98695 0.904854 0
M  V30 2243 N 214.325 -0.140222 1.56975 0
M  V30 2244 C 215.571 -0.852949 1.83991 0
M  V30 2245 C 215.904 -1.80512 0.716187 0
M  V30 2246 O 215.179 -1.92479 -0.279681 0
M  V30 2247 C 215.462 -1.6215 3.21527 0
M  V30 2248 C 215.315 -0.690363 4.4447 0
M  V30 2249 C 216.634 -2.58247 3.56366 0
M  V30 2250 H 213.753 -0.308634 0.669264 0
M  V30 2251 H 216.395 -0.117898 1.89634 0
M  V30 2252 H 214.545 -2.24812 3.16847 0
M  V30 2253 H 216.217 -0.0742264 4.6124 0
M  V30 2254 H 214.46 -0.000396433 4.338 0
M  V30 2255 H 215.131 -1.2643 5.37326 0
M  V30 2256 H 217.607 -2.05701 3.61699 0
M  V30 2257 H 216.483 -3.09067 4.53617 0
M  V30 2258 H 216.744 -3.39923 2.82674 0
M  V30 2259 N 215.803 -1.52179 -0.40978 0
M  V30 2260 C 216.751 -1.76086 -1.51975 0
M  V30 2261 C 217.745 -0.627964 -1.57331 0
M  V30 2262 O 218.951 -0.809993 -1.60745 0
M  V30 2263 H 215.326 -0.556829 -0.505416 0
M  V30 2264 H 217.297 -2.69077 -1.28996 0
M  V30 2265 C 216.046 -1.92799 -2.8935 0
M  V30 2266 H 215.369 -2.79392 -2.85972 0
M  V30 2267 H 216.809 -2.13527 -3.66309 0
M  V30 2268 C 215.268 -0.694923 -3.29655 0
M  V30 2269 O 215.798 0.13751 -4.01465 0
M  V30 2270 N 214.004 -0.53101 -2.85707 0
M  V30 2271 H 213.551 -1.20952 -2.27439 0
M  V30 2272 H 213.509 0.292718 -3.13034 0
M  V30 2273 N 217.281 0.66697 -1.42791 0
M  V30 2274 C 218.231 1.77313 -1.43332 0
M  V30 2275 C 219.215 1.5801 -0.303586 0
M  V30 2276 O 220.407 1.68356 -0.546385 0
M  V30 2277 C 217.536 3.15822 -1.34578 0
M  V30 2278 C 216.622 3.40721 -2.52528 0
M  V30 2279 N 217.013 3.36162 -3.77927 0
M  V30 2280 C 215.311 3.71387 -2.46956 0
M  V30 2281 C 216.012 3.60762 -4.56318 0
M  V30 2282 N 214.988 3.81908 -3.86843 0
M  V30 2283 H 218.79 1.72193 -2.38174 0
M  V30 2284 H 216.304 0.868114 -1.3725 0
M  V30 2285 H 218.301 3.951 -1.33048 0
M  V30 2286 H 216.961 3.22133 -0.407453 0
M  V30 2287 H 217.972 3.15885 -4.10411 0
M  V30 2288 H 214.649 3.84897 -1.61743 0
M  V30 2289 H 216.039 3.63132 -5.65318 0
M  V30 2290 N 218.759 1.29093 0.90403 0
M  V30 2291 C 219.689 1.16401 2.02418 0
M  V30 2292 C 220.67 0.0593085 1.69997 0
M  V30 2293 O 221.855 0.238021 1.92736 0
M  V30 2294 C 218.985 0.835233 3.37107 0
M  V30 2295 C 217.939 1.89578 3.83724 0
M  V30 2296 C 217.265 1.42041 5.15489 0
M  V30 2297 C 218.565 3.30394 4.04521 0
M  V30 2298 H 220.259 2.10109 2.13295 0
M  V30 2299 H 217.805 1.01157 1.02486 0
M  V30 2300 H 219.758 0.733169 4.14973 0
M  V30 2301 H 218.482 -0.137543 3.2631 0
M  V30 2302 H 217.141 1.98715 3.08071 0
M  V30 2303 H 216.789 0.436426 5.01103 0
M  V30 2304 H 216.489 2.12964 5.4765 0
M  V30 2305 H 218.013 1.33176 5.959 0
M  V30 2306 H 219.427 3.24123 4.72882 0
M  V30 2307 H 217.824 3.99237 4.48029 0
M  V30 2308 H 218.894 3.73692 3.09002 0
M  V30 2309 N 220.237 -1.11381 1.11499 0
M  V30 2310 C 221.485 -1.8277 0.862524 0
M  V30 2311 C 221.806 -1.85097 -0.613534 0
M  V30 2312 O 221.076 -1.32198 -1.4457 0
M  V30 2313 H 219.656 -0.676823 0.316101 0
M  V30 2314 H 222.318 -1.34816 1.4075 0
M  V30 2315 H 221.414 -2.86614 1.23527 0
M  V30 2316 N 221.715 -0.905404 -1.28997 0
M  V30 2317 C 222.665 -0.358713 -2.25161 0
M  V30 2318 C 223.649 0.524449 -1.52113 0
M  V30 2319 O 224.841 0.365534 -1.73184 0
M  V30 2320 C 221.97 0.407609 -3.40872 0
M  V30 2321 C 221.056 -0.490797 -4.21251 0
M  V30 2322 N 221.447 -1.60061 -4.79806 0
M  V30 2323 C 219.745 -0.289636 -4.45059 0
M  V30 2324 C 220.446 -2.15757 -5.40207 0
M  V30 2325 N 219.422 -1.44988 -5.23908 0
M  V30 2326 H 223.224 -1.20642 -2.67998 0
M  V30 2327 H 220.738 -0.757103 -1.43672 0
M  V30 2328 H 222.735 0.816046 -4.08835 0
M  V30 2329 H 221.395 1.25251 -2.9957 0
M  V30 2330 H 222.406 -1.98329 -4.7842 0
M  V30 2331 H 219.083 0.51643 -4.14294 0
M  V30 2332 H 220.473 -3.09069 -5.96595 0
M  V30 2333 N 223.193 1.4272 -0.668489 0
M  V30 2334 C 224.44 2.01624 -0.18814 0
M  V30 2335 C 224.768 1.5282 1.20317 0
M  V30 2336 O 224.023 0.718323 1.8204 0
M  V30 2337 C 224.322 3.57021 -0.164499 0
M  V30 2338 C 223.988 4.25232 -1.49962 0
M  V30 2339 C 222.65 4.4358 -1.8652 0
M  V30 2340 C 225.002 4.63727 -2.37921 0
M  V30 2341 C 222.33 4.97694 -3.10674 0
M  V30 2342 C 224.682 5.19218 -3.6138 0
M  V30 2343 C 223.346 5.3578 -3.98115 0
M  V30 2344 H 222.616 0.737795 -0.0688454 0
M  V30 2345 H 225.263 1.70991 -0.862225 0
M  V30 2346 H 223.568 3.87285 0.593079 0
M  V30 2347 H 225.265 4.00372 0.224271 0
M  V30 2348 H 221.855 4.11306 -1.20522 0
M  V30 2349 H 226.039 4.4923 -2.10964 0
M  V30 2350 H 221.295 5.08702 -3.39164 0
M  V30 2351 H 225.469 5.4799 -4.29743 0
M  V30 2352 H 223.096 5.77475 -4.94395 0
M  V30 2353 N 224.671 0.411399 1.52136 0
M  V30 2354 C 225.601 -0.404015 2.29978 0
M  V30 2355 C 226.582 -1.04412 1.34284 0
M  V30 2356 O 227.767 -1.0527 1.63192 0
M  V30 2357 C 224.897 -1.5197 3.12286 0
M  V30 2358 C 223.851 -1.00448 4.16046 0
M  V30 2359 C 223.177 -2.21393 4.86712 0
M  V30 2360 C 224.477 -0.0569336 5.22269 0
M  V30 2361 H 226.171 0.245529 2.98392 0
M  V30 2362 H 223.717 0.119525 1.43503 0
M  V30 2363 H 225.67 -2.09715 3.6551 0
M  V30 2364 H 224.394 -2.19716 2.41646 0
M  V30 2365 H 223.053 -0.449421 3.63835 0
M  V30 2366 H 222.701 -2.87699 4.12599 0
M  V30 2367 H 222.401 -1.87571 5.56858 0
M  V30 2368 H 223.925 -2.7974 5.4275 0
M  V30 2369 H 225.339 -0.54325 5.7072 0
M  V30 2370 H 223.736 0.192594 5.99791 0
M  V30 2371 H 224.806 0.887663 4.76706 0
M  V30 2372 N 226.149 -1.5696 0.141893 0
M  V30 2373 C 227.079 -2.19516 -0.795936 0
M  V30 2374 C 228.06 -1.14187 -1.26077 0
M  V30 2375 O 229.245 -1.42511 -1.31925 0
M  V30 2376 C 226.375 -2.81272 -2.03723 0
M  V30 2377 C 225.329 -3.92384 -1.70936 0
M  V30 2378 C 224.655 -4.41052 -3.02287 0
M  V30 2379 C 225.955 -5.13403 -0.959954 0
M  V30 2380 H 227.649 -2.98138 -0.274596 0
M  V30 2381 H 225.195 -1.43406 -0.130636 0
M  V30 2382 H 227.148 -3.237 -2.69808 0
M  V30 2383 H 225.872 -1.99973 -2.58221 0
M  V30 2384 H 224.531 -3.50566 -1.07232 0
M  V30 2385 H 224.179 -3.56582 -3.54765 0
M  V30 2386 H 223.879 -5.15993 -2.81114 0
M  V30 2387 H 225.403 -4.86146 -3.69451 0
M  V30 2388 H 226.817 -5.52706 -1.52279 0
M  V30 2389 H 225.214 -5.94073 -0.848357 0
M  V30 2390 H 226.284 -4.84875 0.0492434 0
M  V30 2391 N 227.627 0.131896 -1.57047 0
M  V30 2392 C 228.855 0.856461 -1.88341 0
M  V30 2393 C 229.27 1.74042 -0.731757 0
M  V30 2394 O 228.627 1.80051 0.297945 0
M  V30 2395 C 228.678 1.70064 -3.18999 0
M  V30 2396 O 228.399 0.852278 -4.2973 0
M  V30 2397 C 229.9 2.53148 -3.63911 0
M  V30 2398 H 227.12 0.246885 -0.62393 0
M  V30 2399 H 229.664 0.120152 -2.04147 0
M  V30 2400 H 227.819 2.38984 -3.04902 0
M  V30 2401 H 228.233 1.43329 -5.04537 0
M  V30 2402 H 229.707 3.07931 -4.58129 0
M  V30 2403 H 230.184 3.29901 -2.89935 0
M  V30 2404 H 230.79 1.89492 -3.80753 0
M  V30 2405 N 229.106 1.52395 0.401703 0
M  V30 2406 C 230.336 1.70429 1.1678 0
M  V30 2407 C 230.744 0.416702 1.84554 0
M  V30 2408 O 230.087 -0.617697 1.73003 0
M  V30 2409 C 230.149 2.78919 2.26814 0
M  V30 2410 C 229.813 4.20437 1.79113 0
M  V30 2411 C 230.81 5.04028 1.27482 0
M  V30 2412 C 228.495 4.66704 1.85722 0
M  V30 2413 C 230.489 6.31961 0.830913 0
M  V30 2414 C 228.176 5.94625 1.40942 0
M  V30 2415 C 229.174 6.77082 0.897128 0
M  V30 2416 O 228.862 8.02607 0.455822 0
M  V30 2417 H 228.594 0.574272 0.356634 0
M  V30 2418 H 231.148 1.99767 0.477724 0
M  V30 2419 H 229.378 2.44973 2.99207 0
M  V30 2420 H 231.067 2.8548 2.88541 0
M  V30 2421 H 231.833 4.69471 1.21744 0
M  V30 2422 H 227.712 4.0262 2.24539 0
M  V30 2423 H 231.256 6.96271 0.430368 0
M  V30 2424 H 227.153 6.28688 1.46362 0
M  V30 2425 H 227.921 8.16453 0.578457 0
M  V30 2426 N 230.584 -0.659388 1.43143 0
M  V30 2427 C 231.514 -1.78422 1.50625 0
M  V30 2428 C 232.495 -1.66216 0.361443 0
M  V30 2429 O 233.68 -1.85404 0.577834 0
M  V30 2430 C 230.81 -3.16815 1.42287 0
M  V30 2431 C 229.764 -3.43777 2.54954 0
M  V30 2432 C 229.09 -4.81905 2.31671 0
M  V30 2433 C 230.39 -3.39134 3.97222 0
M  V30 2434 H 232.084 -1.72417 2.44771 0
M  V30 2435 H 229.63 -0.828084 1.17808 0
M  V30 2436 H 231.583 -3.95253 1.46127 0
M  V30 2437 H 230.307 -3.23534 0.446435 0
M  V30 2438 H 228.966 -2.67707 2.50457 0
M  V30 2439 H 228.614 -4.85294 1.32284 0
M  V30 2440 H 228.314 -5.00906 3.07192 0
M  V30 2441 H 229.838 -5.62609 2.37284 0
M  V30 2442 H 231.252 -4.07518 4.03239 0
M  V30 2443 H 229.649 -3.69671 4.72719 0
M  V30 2444 H 230.719 -2.37426 4.22797 0
M  V30 2445 N 232.062 -1.29571 -0.897171 0
M  V30 2446 C 232.992 -1.17473 -2.01798 0
M  V30 2447 C 233.973 -0.068323 -1.69963 0
M  V30 2448 O 235.158 -0.248239 -1.92607 0
M  V30 2449 C 232.288 -0.853099 -3.36659 0
M  V30 2450 C 231.242 -1.9161 -3.82713 0
M  V30 2451 C 230.568 -1.44773 -5.14728 0
M  V30 2452 C 231.868 -3.32535 -4.02763 0
M  V30 2453 H 233.562 -2.11237 -2.12177 0
M  V30 2454 H 231.108 -1.01699 -1.01948 0
M  V30 2455 H 233.061 -0.755165 -4.14578 0
M  V30 2456 H 231.785 0.120236 -3.26379 0
M  V30 2457 H 230.444 -2.00346 -3.07013 0
M  V30 2458 H 230.092 -0.462995 -5.00865 0
M  V30 2459 H 229.792 -2.15865 -5.46513 0
M  V30 2460 H 231.316 -1.36334 -5.95185 0
M  V30 2461 H 232.73 -3.26626 -4.71156 0
M  V30 2462 H 231.127 -4.01607 -4.45905 0
M  V30 2463 H 232.197 -3.75326 -3.07016 0
M  V30 2464 N 233.54 1.10788 -1.12088 0
M  V30 2465 C 234.47 2.19083 -0.807755 0
M  V30 2466 C 235.451 1.6858 0.226859 0
M  V30 2467 O 236.636 1.93997 0.0888475 0
M  V30 2468 C 233.766 3.46344 -0.257576 0
M  V30 2469 C 232.72 4.101 -1.22483 0
M  V30 2470 C 232.046 5.32016 -0.535052 0
M  V30 2471 C 233.346 4.54236 -2.57811 0
M  V30 2472 H 235.04 2.45534 -1.71328 0
M  V30 2473 H 232.586 1.1801 -0.825205 0
M  V30 2474 H 234.539 4.21392 -0.0262679 0
M  V30 2475 H 233.263 3.19373 0.683278 0
M  V30 2476 H 231.922 3.37054 -1.44189 0
M  V30 2477 H 231.57 5.01319 0.410827 0
M  V30 2478 H 231.27 5.75625 -1.18024 0
M  V30 2479 H 232.794 6.09799 -0.312695 0
M  V30 2480 H 234.208 5.20575 -2.40155 0
M  V30 2481 H 232.605 5.08682 -3.18375 0
M  V30 2482 H 233.675 3.6734 -3.16528 0
M  V30 2483 N 235.018 0.912232 1.28515 0
M  V30 2484 C 235.928 0.404506 2.31086 0
M  V30 2485 C 236.944 -0.50707 1.66448 0
M  V30 2486 O 238.12 -0.393624 1.97516 0
M  V30 2487 C 235.185 -0.348572 3.44943 0
M  V30 2488 C 234.246 0.59604 4.25142 0
M  V30 2489 C 233.479 -0.121194 5.33562 0
M  V30 2490 O 233.702 -1.34317 5.5436 0
M  V30 2491 O 232.636 0.542716 5.99448 0
M  V30 2492 H 236.462 1.25579 2.76521 0
M  V30 2493 H 234.047 0.676998 1.33181 0
M  V30 2494 H 235.929 -0.77395 4.14232 0
M  V30 2495 H 234.604 -1.17571 3.01594 0
M  V30 2496 H 233.511 1.07079 3.58448 0
M  V30 2497 H 234.844 1.38995 4.72167 0
M  V30 2498 N 236.496 -1.42363 0.676048 0
M  V30 2499 C 237.912 -1.55811 0.345718 0
M  V30 2500 C 238.112 -1.65544 -1.14879 0
M  V30 2501 O 237.168 -1.62306 -1.93424 0
M  V30 2502 C 238.481 -2.80746 1.07713 0
M  V30 2503 C 240.029 -2.9452 1.05958 0
M  V30 2504 C 240.504 -4.22318 1.77233 0
M  V30 2505 N 241.995 -4.29233 1.74108 0
M  V30 2506 C 242.73 -5.26935 2.26113 0
M  V30 2507 N 242.226 -6.30783 2.86505 0
M  V30 2508 N 244.019 -5.18741 2.1648 0
M  V30 2509 H 236.17 -1.34289 1.6456 0
M  V30 2510 H 238.433 -0.646506 0.69335 0
M  V30 2511 H 238.139 -2.79696 2.13221 0
M  V30 2512 H 238.013 -3.71676 0.64316 0
M  V30 2513 H 240.4 -2.95097 0.0128255 0
M  V30 2514 H 240.481 -2.04817 1.53244 0
M  V30 2515 H 240.125 -4.22502 2.81877 0
M  V30 2516 H 240.055 -5.10958 1.27396 0
M  V30 2517 H 242.546 -3.54814 1.30059 0
M  V30 2518 H 242.859 -7.01691 3.23805 0
M  V30 2519 H 241.204 -6.31341 2.90575 0
M  V30 2520 H 244.395 -4.36533 1.68987 0
M  V30 2521 H 244.568 -5.94721 2.57316 0
M  V30 2522 N 237.974 -0.419461 -1.51915 0
M  V30 2523 C 238.904 0.391813 -2.30189 0
M  V30 2524 C 239.885 1.03699 -1.34836 0
M  V30 2525 O 241.07 1.04403 -1.63748 0
M  V30 2526 C 238.2 1.50312 -3.13087 0
M  V30 2527 C 237.154 0.9824 -4.16573 0
M  V30 2528 C 236.48 2.18809 -4.8788 0
M  V30 2529 C 237.78 0.0292356 -5.22292 0
M  V30 2530 H 239.474 -0.26135 -2.98257 0
M  V30 2531 H 237.02 -0.127134 -1.43438 0
M  V30 2532 H 238.973 2.07773 -3.66617 0
M  V30 2533 H 237.697 2.18431 -2.42807 0
M  V30 2534 H 236.356 0.430119 -3.64068 0
M  V30 2535 H 236.004 2.85507 -4.14119 0
M  V30 2536 H 235.704 1.84615 -5.57845 0
M  V30 2537 H 237.228 2.76858 -5.44226 0
M  V30 2538 H 238.642 0.512976 -5.71 0
M  V30 2539 H 237.039 -0.2244 -5.9968 0
M  V30 2540 H 238.109 -0.912931 -4.76228 0
M  V30 2541 N 239.452 1.56882 -0.150215 0
M  V30 2542 C 240.399 2.16922 0.788244 0
M  V30 2543 C 241.369 1.10303 1.24187 0
M  V30 2544 O 242.554 1.38359 1.31383 0
M  V30 2545 C 239.694 2.79754 2.02068 0
M  V30 2546 C 238.807 4.00775 1.61257 0
M  V30 2547 C 237.942 4.51595 2.79705 0
M  V30 2548 C 236.981 5.65074 2.35282 0
M  V30 2549 N 236.118 6.10499 3.4675 0
M  V30 2550 H 240.958 2.96779 0.269444 0
M  V30 2551 H 238.495 1.46599 0.12128 0
M  V30 2552 H 240.453 3.14329 2.74323 0
M  V30 2553 H 239.083 2.02536 2.51354 0
M  V30 2554 H 238.135 3.72158 0.787553 0
M  V30 2555 H 239.447 4.82978 1.24633 0
M  V30 2556 H 238.601 4.88242 3.60145 0
M  V30 2557 H 237.34 3.68406 3.19576 0
M  V30 2558 H 236.345 5.28 1.53283 0
M  V30 2559 H 237.57 6.50052 1.96493 0
M  V30 2560 H 235.516 5.30243 3.86236 0
M  V30 2561 H 235.433 6.87637 3.14152 0
M  V30 2562 H 236.701 6.51791 4.27537 0
M  V30 2563 N 240.93 -0.123565 1.57115 0
M  V30 2564 C 242.176 -0.833386 1.84885 0
M  V30 2565 C 242.509 -1.79742 0.735292 0
M  V30 2566 O 241.784 -1.92764 -0.25925 0
M  V30 2567 C 242.067 -1.5873 3.23228 0
M  V30 2568 C 241.92 -0.643183 4.45178 0
M  V30 2569 C 243.239 -2.54453 3.59085 0
M  V30 2570 H 240.358 -0.301518 0.6725 0
M  V30 2571 H 243 -0.097778 1.89748 0
M  V30 2572 H 241.15 -2.21438 3.19214 0
M  V30 2573 H 242.822 -0.0253015 4.61293 0
M  V30 2574 H 241.065 0.0456139 4.33776 0
M  V30 2575 H 241.736 -1.20724 5.38637 0
M  V30 2576 H 244.212 -2.01853 3.63861 0
M  V30 2577 H 243.088 -3.04238 4.5687 0
M  V30 2578 H 243.349 -3.36906 2.86264 0
M  V30 2579 N 242.408 -1.52605 -0.393616 0
M  V30 2580 C 243.633 -1.71592 -1.16495 0
M  V30 2581 C 244.058 -0.43133 -1.83088 0
M  V30 2582 O 243.416 0.612523 -1.7064 0
M  V30 2583 C 243.464 -2.86318 -2.19213 0
M  V30 2584 O 242.568 -2.52969 -3.257 0
M  V30 2585 H 241.909 -0.570734 -0.33935 0
M  V30 2586 H 244.439 -1.99377 -0.459324 0
M  V30 2587 H 244.449 -3.1168 -2.63286 0
M  V30 2588 H 243.124 -3.79511 -1.7013 0
M  V30 2589 H 241.701 -2.38332 -2.86797 0
M  V30 2590 N 243.887 0.651787 -1.4349 0
M  V30 2591 C 244.85 1.74647 -1.48429 0
M  V30 2592 C 245.85 1.56513 -0.368817 0
M  V30 2593 O 247.04 1.62385 -0.630623 0
M  V30 2594 C 244.172 3.13533 -1.33827 0
M  V30 2595 H 245.365 1.71649 -2.4592 0
M  V30 2596 H 242.918 0.863573 -1.30277 0
M  V30 2597 H 243.653 3.22142 -0.37349 0
M  V30 2598 H 243.438 3.28101 -2.14691 0
M  V30 2599 H 244.928 3.93356 -1.40218 0
M  V30 2600 N 245.365 1.30045 0.890287 0
M  V30 2601 C 246.776 1.16738 1.45702 0
M  V30 2602 C 247.127 -0.233939 1.948 0
M  V30 2603 O 246.252 -1.13021 1.84541 0
M  V30 2604 C 246.847 2.11313 2.64825 0
M  V30 2605 C 245.406 2.02001 3.17604 0
M  V30 2606 C 244.553 2.01699 1.90296 0
M  V30 2607 H 247.504 1.42392 0.700726 0
M  V30 2608 H 247.525 1.69086 3.40867 0
M  V30 2609 H 247.037 3.13294 2.2906 0
M  V30 2610 H 245.138 1.03142 3.5804 0
M  V30 2611 H 245.251 2.90128 3.81264 0
M  V30 2612 H 243.615 1.46427 2.08402 0
M  V30 2613 H 244.398 3.05402 1.56795 0
M  V30 2614 N 246.843 -1.10192 1.12674 0
M  V30 2615 C 247.806 -2.14786 0.799979 0
M  V30 2616 C 248.806 -1.59711 -0.18685 0
M  V30 2617 O 249.996 -1.74156 0.0392558 0
M  V30 2618 C 247.128 -3.40374 0.189228 0
M  V30 2619 H 248.321 -2.45203 1.72671 0
M  V30 2620 H 245.874 -1.25597 0.930326 0
M  V30 2621 H 246.609 -3.15577 -0.747107 0
M  V30 2622 H 246.394 -3.81637 0.899766 0
M  V30 2623 H 247.884 -4.17594 -0.0228143 0
M  V30 2624 N 248.321 -0.919034 -1.28029 0
M  V30 2625 C 249.737 -0.617972 -1.4715 0
M  V30 2626 C 249.937 0.835242 -1.83374 0
M  V30 2627 O 248.993 1.61388 -1.94191 0
M  V30 2628 C 250.306 -1.56041 -2.57044 0
M  V30 2629 C 251.854 -1.56769 -2.7091 0
M  V30 2630 C 252.329 -2.49688 -3.83953 0
M  V30 2631 N 253.82 -2.47845 -3.91314 0
M  V30 2632 C 254.555 -3.16437 -4.78179 0
M  V30 2633 N 254.051 -3.94376 -5.69596 0
M  V30 2634 N 255.844 -3.05498 -4.71834 0
M  V30 2635 H 247.995 -1.85866 -1.02798 0
M  V30 2636 H 250.258 -0.797506 -0.512531 0
M  V30 2637 H 249.964 -2.59671 -2.372 0
M  V30 2638 H 249.838 -1.29551 -3.54255 0
M  V30 2639 H 252.225 -0.538745 -2.90141 0
M  V30 2640 H 252.306 -1.87305 -1.74214 0
M  V30 2641 H 251.95 -3.52688 -3.65477 0
M  V30 2642 H 251.88 -2.16453 -4.80058 0
M  V30 2643 H 254.371 -1.91234 -3.25941 0
M  V30 2644 H 254.684 -4.43721 -6.32718 0
M  V30 2645 H 253.029 -3.98481 -5.69419 0
M  V30 2646 H 256.22 -2.44108 -3.99411 0
M  V30 2647 H 256.393 -3.59225 -5.39316 0
M  V30 2648 N 249.799 1.42003 -0.683588 0
M  V30 2649 C 251.045 2.01712 -0.209825 0
M  V30 2650 C 251.378 1.53968 1.18353 0
M  V30 2651 O 250.653 0.745661 1.79639 0
M  V30 2652 C 250.936 3.59202 -0.254197 0
M  V30 2653 C 250.789 4.17102 -1.68363 0
M  V30 2654 C 252.108 4.38344 0.392709 0
M  V30 2655 H 249.227 0.732891 -0.0777189 0
M  V30 2656 H 251.869 1.68909 -0.87004 0
M  V30 2657 H 250.019 3.87278 0.307954 0
M  V30 2658 H 251.691 3.99946 -2.29871 0
M  V30 2659 H 249.934 3.72597 -2.22157 0
M  V30 2660 H 250.605 5.26249 -1.6663 0
M  V30 2661 H 253.081 4.16011 -0.0859162 0
M  V30 2662 H 251.957 5.47901 0.331063 0
M  V30 2663 H 252.218 4.16887 1.47164 0
M  V30 2664 N 251.277 0.427512 1.51691 0
M  V30 2665 C 252.523 -0.142439 2.02299 0
M  V30 2666 C 252.856 -1.43214 1.31162 0
M  V30 2667 O 252.131 -1.89833 0.423511 0
M  V30 2668 C 252.414 -0.371301 3.58181 0
M  V30 2669 C 252.267 0.936358 4.39946 0
M  V30 2670 C 253.586 -1.14542 4.24933 0
M  V30 2671 H 250.705 -0.0502937 0.735282 0
M  V30 2672 H 253.347 0.564584 1.81418 0
M  V30 2673 H 251.497 -0.973559 3.76104 0
M  V30 2674 H 253.169 1.57184 4.33694 0
M  V30 2675 H 251.412 1.5432 4.05423 0
M  V30 2676 H 252.083 0.730388 5.47147 0
M  V30 2677 H 254.559 -0.635362 4.11221 0
M  V30 2678 H 253.435 -1.27431 5.33903 0
M  V30 2679 H 253.696 -2.17093 3.85127 0
M  V30 2680 N 252.755 -1.56801 0.158532 0
M  V30 2681 C 253.703 -2.18638 -0.793729 0
M  V30 2682 C 254.697 -1.14669 -1.24689 0
M  V30 2683 O 255.903 -1.32895 -1.21403 0
M  V30 2684 H 252.278 -0.700226 -0.274204 0
M  V30 2685 H 254.249 -2.97367 -0.248095 0
M  V30 2686 C 252.998 -2.83139 -2.0181 0
M  V30 2687 H 252.321 -3.62863 -1.67841 0
M  V30 2688 H 253.761 -3.29894 -2.66357 0
M  V30 2689 C 252.22 -1.82244 -2.83353 0
M  V30 2690 O 252.75 -1.3 -3.80083 0
M  V30 2691 N 250.956 -1.51288 -2.48114 0
M  V30 2692 H 250.503 -1.93964 -1.69516 0
M  V30 2693 H 250.461 -0.840296 -3.02963 0
M  V30 2694 N 254.233 0.115231 -1.57178 0
M  V30 2695 C 255.479 0.82357 -1.85325 0
M  V30 2696 C 255.812 1.79349 -0.744814 0
M  V30 2697 O 255.087 1.92899 0.249024 0
M  V30 2698 C 255.37 1.57014 -3.24066 0
M  V30 2699 C 255.223 0.619565 -4.45513 0
M  V30 2700 C 256.542 2.52545 -3.60429 0
M  V30 2701 H 253.661 0.297948 -0.674089 0
M  V30 2702 H 256.303 0.0877138 -1.89797 0
M  V30 2703 H 254.453 2.19742 -3.20383 0
M  V30 2704 H 256.125 0.000837639 -4.613 0
M  V30 2705 H 254.368 -0.0686174 -4.33746 0
M  V30 2706 H 255.039 1.17866 -5.3927 0
M  V30 2707 H 257.515 1.9992 -3.64926 0
M  V30 2708 H 256.391 3.01811 -4.58477 0
M  V30 2709 H 256.652 3.35383 -2.88047 0
M  V30 2710 N 255.711 1.52812 0.385517 0
M  V30 2711 C 256.936 1.72207 1.15583 0
M  V30 2712 C 257.361 0.441034 1.82857 0
M  V30 2713 O 256.719 -0.603465 1.70962 0
M  V30 2714 C 256.767 2.87476 2.17692 0
M  V30 2715 O 255.871 2.54693 3.24354 0
M  V30 2716 H 255.212 0.572526 0.336319 0
M  V30 2717 H 257.742 1.99618 0.448744 0
M  V30 2718 H 257.752 3.13072 2.6163 0
M  V30 2719 H 256.427 3.80408 1.68115 0
M  V30 2720 H 255.004 2.3985 2.85529 0
M  V30 2721 N 257.189 -0.644168 1.43834 0
M  V30 2722 C 258.414 -1.43642 1.49605 0
M  V30 2723 C 258.839 -1.8773 0.117913 0
M  V30 2724 O 258.197 -1.57938 -0.890239 0
M  V30 2725 C 258.245 -2.6416 2.45463 0
M  V30 2726 O 257.349 -3.63538 1.94714 0
M  V30 2727 H 256.69 -0.430329 0.50568 0
M  V30 2728 H 259.22 -0.787448 1.8884 0
M  V30 2729 H 259.23 -3.11864 2.63068 0
M  V30 2730 H 257.905 -2.31414 3.45572 0
M  V30 2731 H 256.482 -3.2273 1.86814 0
M  V30 2732 N 258.668 -1.30515 -0.883378 0
M  V30 2733 C 259.914 -1.19607 -1.63774 0
M  V30 2734 C 260.247 0.248314 -1.92606 0
M  V30 2735 O 259.522 1.17742 -1.54813 0
M  V30 2736 C 259.805 -2.02669 -2.97653 0
M  V30 2737 C 259.658 -3.55335 -2.75784 0
M  V30 2738 C 260.977 -1.86573 -3.98596 0
M  V30 2739 H 258.096 -0.435856 -0.594305 0
M  V30 2740 H 260.738 -1.60165 -1.02212 0
M  V30 2741 H 258.888 -1.68208 -3.50197 0
M  V30 2742 H 260.56 -3.99863 -2.30016 0
M  V30 2743 H 258.803 -3.79438 -2.1026 0
M  V30 2744 H 259.474 -4.08745 -3.70988 0
M  V30 2745 H 261.95 -2.16703 -3.55217 0
M  V30 2746 H 260.826 -2.47014 -4.90179 0
M  V30 2747 H 261.087 -0.825321 -4.34328 0
M  V30 2748 N 260.146 1.09593 -1.13257 0
M  V30 2749 C 261.109 2.14359 -0.811358 0
M  V30 2750 C 262.109 1.59808 0.178377 0
M  V30 2751 O 263.299 1.74132 -0.0484911 0
M  V30 2752 C 260.431 3.40269 -0.207276 0
M  V30 2753 H 261.624 2.44284 -1.73969 0
M  V30 2754 H 259.177 1.25102 -0.936973 0
M  V30 2755 H 259.912 3.15969 0.73036 0
M  V30 2756 H 259.697 3.81154 -0.919992 0
M  V30 2757 H 261.187 4.176 0.000667944 0
M  V30 2758 N 261.624 0.925811 1.2754 0
M  V30 2759 C 262.574 0.394488 2.24561 0
M  V30 2760 C 263.558 -0.500183 1.52928 0
M  V30 2761 O 264.75 -0.337936 1.73744 0
M  V30 2762 C 261.879 -0.353328 3.41477 0
M  V30 2763 C 260.965 0.557752 4.20416 0
M  V30 2764 N 261.356 1.67674 4.77199 0
M  V30 2765 C 259.654 0.360404 4.44541 0
M  V30 2766 C 260.355 2.24324 5.36706 0
M  V30 2767 N 259.331 1.53305 5.21535 0
M  V30 2768 H 263.133 1.2489 2.66045 0
M  V30 2769 H 260.647 0.779864 1.4245 0
M  V30 2770 H 262.644 -0.7509 4.10082 0
M  V30 2771 H 261.304 -1.20469 3.01525 0
M  V30 2772 H 262.315 2.05915 4.75204 0
M  V30 2773 H 258.992 -0.450454 4.15063 0
M  V30 2774 H 260.382 3.18521 5.91603 0
M  V30 2775 N 263.102 -1.41638 0.69111 0
M  V30 2776 C 264.052 -2.28 -0.000107832 0
M  V30 2777 C 265.036 -1.41964 -0.757304 0
M  V30 2778 O 266.228 -1.65274 -0.633532 0
M  V30 2779 C 263.357 -3.30209 -0.938983 0
M  V30 2780 C 262.443 -4.23725 -0.17827 0
M  V30 2781 N 262.834 -4.99017 0.825563 0
M  V30 2782 C 261.132 -4.44071 -0.414392 0
M  V30 2783 C 261.833 -5.67431 1.28052 0
M  V30 2784 N 260.809 -5.40197 0.607304 0
M  V30 2785 H 264.611 -2.83644 0.769617 0
M  V30 2786 H 262.125 -1.53797 0.521562 0
M  V30 2787 H 264.122 -3.90898 -1.44929 0
M  V30 2788 H 262.782 -2.76126 -1.70836 0
M  V30 2789 H 263.793 -5.03671 1.20566 0
M  V30 2790 H 260.47 -4.01004 -1.162 0
M  V30 2791 H 261.86 -6.37801 2.11327 0
M  V30 2792 N 264.58 -0.43555 -1.51462 0
M  V30 2793 C 265.829 0.133007 -2.01261 0
M  V30 2794 C 266.142 1.43942 -1.32439 0
M  V30 2795 O 267.348 2.09081 -1.73198 0
M  V30 2796 C 265.804 0.287581 -3.58749 0
M  V30 2797 C 265.412 -1.00829 -4.36506 0
M  V30 2798 C 267.156 0.810004 -4.167 0
M  V30 2799 C 265.063 -0.819454 -5.85695 0
M  V30 2800 H 263.993 0.0534822 -0.752101 0
M  V30 2801 H 266.644 -0.565038 -1.74584 0
M  V30 2802 H 265.026 1.04859 -3.81865 0
M  V30 2803 H 266.2 -1.77749 -4.25138 0
M  V30 2804 H 264.515 -1.45911 -3.89999 0
M  V30 2805 H 267.112 0.967743 -5.2587 0
M  V30 2806 H 267.455 1.79196 -3.75758 0
M  V30 2807 H 267.988 0.107357 -3.97655 0
M  V30 2808 H 264.727 -1.77374 -6.31046 0
M  V30 2809 H 264.247 -0.0900208 -5.99732 0
M  V30 2810 H 265.926 -0.471949 -6.45276 0
M  V30 2811 N 266.058 1.56714 -0.166846 0
M  V30 2812 C 267.306 1.96358 0.478305 0
M  V30 2813 C 267.627 1.0537 1.6408 0
M  V30 2814 O 266.897 0.119154 1.95537 0
M  V30 2815 H 265.477 0.725065 0.179692 0
M  V30 2816 H 268.139 1.93329 -0.246985 0
M  V30 2817 H 267.235 3.00547 0.841292 0
M  V30 2818 N 267.536 -0.106894 1.57237 0
M  V30 2819 C 268.483 -1.13049 2.01217 0
M  V30 2820 C 269.453 -1.40471 0.886403 0
M  V30 2821 O 270.638 -1.52133 1.15153 0
M  V30 2822 C 267.778 -2.4487 2.43172 0
M  V30 2823 C 266.891 -2.24281 3.69218 0
M  V30 2824 C 266.026 -3.49417 4.00101 0
M  V30 2825 C 265.065 -3.24038 5.19294 0
M  V30 2826 N 264.202 -4.41409 5.45988 0
M  V30 2827 H 269.042 -0.748456 2.88448 0
M  V30 2828 H 266.579 -0.358054 1.42676 0
M  V30 2829 H 268.537 -3.21786 2.65537 0
M  V30 2830 H 267.167 -2.80944 1.58967 0
M  V30 2831 H 266.219 -1.38224 3.54398 0
M  V30 2832 H 267.531 -2.01512 4.56283 0
M  V30 2833 H 266.685 -4.34746 4.2318 0
M  V30 2834 H 265.424 -3.75229 3.11535 0
M  V30 2835 H 264.429 -2.37102 4.96047 0
M  V30 2836 H 265.654 -2.99584 6.09447 0
M  V30 2837 H 263.6 -4.67319 4.60379 0
M  V30 2838 H 263.517 -4.21788 6.274 0
M  V30 2839 H 264.785 -5.27836 5.73593 0
M  V30 2840 N 269.014 -1.53014 -0.377408 0
M  V30 2841 C 270.263 -1.67845 -1.11853 0
M  V30 2842 C 270.576 -0.430625 -1.90801 0
M  V30 2843 O 271.782 -0.459261 -2.67587 0
M  V30 2844 C 270.238 -2.96668 -2.03756 0
M  V30 2845 C 269.846 -4.28671 -1.30175 0
M  V30 2846 C 271.59 -3.20865 -2.77932 0
M  V30 2847 C 269.497 -5.48591 -2.20911 0
M  V30 2848 H 268.427 -0.625343 -0.421263 0
M  V30 2849 H 271.078 -1.79514 -0.380409 0
M  V30 2850 H 269.46 -2.78773 -2.8125 0
M  V30 2851 H 270.634 -4.57157 -0.578259 0
M  V30 2852 H 268.949 -4.10825 -0.679108 0
M  V30 2853 H 271.546 -4.07642 -3.46024 0
M  V30 2854 H 271.889 -2.36424 -3.4265 0
M  V30 2855 H 272.422 -3.39379 -2.07525 0
M  V30 2856 H 269.161 -6.35474 -1.6079 0
M  V30 2857 H 268.681 -5.244 -2.91144 0
M  V30 2858 H 270.36 -5.8292 -2.80736 0
M  V30 2859 N 270.492 0.636531 -1.44174 0
M  V30 2860 C 271.903 1.21806 -1.41493 0
M  V30 2861 C 272.254 1.95785 -0.1275 0
M  V30 2862 O 271.379 2.02147 0.772376 0
M  V30 2863 C 271.974 2.21551 -2.56321 0
M  V30 2864 C 270.533 2.75143 -2.56853 0
M  V30 2865 C 269.68 1.50052 -2.33195 0
M  V30 2866 H 272.631 0.427531 -1.52833 0
M  V30 2867 H 272.652 3.0405 -2.28765 0
M  V30 2868 H 272.164 1.67679 -3.50008 0
M  V30 2869 H 270.265 3.33033 -1.67093 0
M  V30 2870 H 270.378 3.2155 -3.55165 0
M  V30 2871 H 268.742 1.77993 -1.82183 0
M  V30 2872 H 269.525 0.980903 -3.28988 0
M  V30 2873 N 271.97 1.30982 0.876444 0
M  V30 2874 C 273.217 1.20296 1.62896 0
M  V30 2875 C 273.545 -0.240395 1.93009 0
M  V30 2876 O 272.8 -1.18733 1.55567 0
M  V30 2877 C 273.099 1.98572 2.9716 0
M  V30 2878 C 272.765 3.48125 2.86566 0
M  V30 2879 C 271.427 3.88905 2.83383 0
M  V30 2880 C 273.779 4.43322 2.74071 0
M  V30 2881 C 271.107 5.2316 2.65556 0
M  V30 2882 C 273.459 5.77695 2.57781 0
M  V30 2883 C 272.123 6.17704 2.52979 0
M  V30 2884 H 271.393 0.440193 0.59608 0
M  V30 2885 H 274.04 1.62177 1.01837 0
M  V30 2886 H 272.345 1.49352 3.62217 0
M  V30 2887 H 274.042 1.8769 3.54364 0
M  V30 2888 H 270.632 3.15723 2.89856 0
M  V30 2889 H 274.816 4.12752 2.75589 0
M  V30 2890 H 270.072 5.53241 2.60259 0
M  V30 2891 H 274.246 6.51091 2.47089 0
M  V30 2892 H 271.873 7.21678 2.38924 0
M  V30 2893 N 273.449 -1.08991 1.13837 0
M  V30 2894 C 274.399 -2.1393 0.788535 0
M  V30 2895 C 275.383 -1.59396 -0.219516 0
M  V30 2896 O 276.575 -1.76985 -0.0227557 0
M  V30 2897 C 273.704 -3.42305 0.261147 0
M  V30 2898 C 272.79 -4.03736 1.29837 0
M  V30 2899 N 273.181 -4.39659 2.50067 0
M  V30 2900 C 271.479 -4.30993 1.1472 0
M  V30 2901 C 272.18 -4.88113 3.16419 0
M  V30 2902 N 271.156 -4.85846 2.43832 0
M  V30 2903 H 274.958 -2.39516 1.70322 0
M  V30 2904 H 272.472 -1.26263 1.02134 0
M  V30 2905 H 274.469 -4.16899 -0.0077405 0
M  V30 2906 H 273.129 -3.18172 -0.647805 0
M  V30 2907 H 274.14 -4.30878 2.8734 0
M  V30 2908 H 270.817 -4.16444 0.296773 0
M  V30 2909 H 272.207 -5.25336 4.18894 0
M  V30 2910 N 274.927 -0.932562 -1.27047 0
M  V30 2911 C 276.204 -0.49377 -1.89265 0
M  V30 2912 C 276.584 1.02833 -1.8436 0
M  V30 2913 O 275.932 1.88461 -1.29209 0
M  V30 2914 C 276.142 -1.04536 -3.32976 0
M  V30 2915 C 277.49 -1.10879 -4.09867 0
M  V30 2916 O 278.514 -0.995327 -3.42011 0
M  V30 2917 O 277.373 -1.28417 -5.31198 0
M  V30 2918 H 274.467 -0.159596 -0.811454 0
M  V30 2919 H 277.013 -1.02457 -1.3528 0
M  V30 2920 H 275.785 -2.08913 -3.30864 0
M  V30 2921 H 275.408 -0.496494 -3.94488 0
M  V30 2922 N 276.405 1.4127 -0.698611 0
M  V30 2923 C 277.335 2.33447 -0.049629 0
M  V30 2924 C 278.316 1.51982 0.763898 0
M  V30 2925 O 279.501 1.80509 0.716257 0
M  V30 2926 C 276.631 3.35828 0.885267 0
M  V30 2927 C 275.585 4.27627 0.178613 0
M  V30 2928 C 274.911 5.20406 1.22807 0
M  V30 2929 C 276.211 5.13459 -0.956933 0
M  V30 2930 H 277.905 2.87966 -0.81951 0
M  V30 2931 H 275.451 1.38461 -0.395538 0
M  V30 2932 H 277.404 3.9924 1.34854 0
M  V30 2933 H 276.128 2.79666 1.68685 0
M  V30 2934 H 274.787 3.65643 -0.26466 0
M  V30 2935 H 274.435 4.60558 2.02226 0
M  V30 2936 H 274.135 5.82661 0.760239 0
M  V30 2937 H 275.659 5.86695 1.69179 0
M  V30 2938 H 277.073 5.70421 -0.573805 0
M  V30 2939 H 275.47 5.8467 -1.35205 0
M  V30 2940 H 276.54 4.50443 -1.79524 0
M  V30 2941 N 277.883 0.443576 1.51229 0
M  V30 2942 C 278.815 -0.400608 2.25672 0
M  V30 2943 C 279.828 -0.980945 1.29928 0
M  V30 2944 O 281.017 -0.874024 1.55638 0
M  V30 2945 C 278.117 -1.57304 3.00181 0
M  V30 2946 C 277.29 -1.11046 4.23069 0
M  V30 2947 C 276.349 -2.15374 4.80105 0
M  V30 2948 O 275.375 -1.74554 5.41774 0
M  V30 2949 N 276.577 -3.47922 4.64683 0
M  V30 2950 H 279.342 0.23745 2.98758 0
M  V30 2951 H 276.903 0.272809 1.59585 0
M  V30 2952 H 278.895 -2.26733 3.35223 0
M  V30 2953 H 277.465 -2.11632 2.30066 0
M  V30 2954 H 276.685 -0.243019 3.9345 0
M  V30 2955 H 277.973 -0.778888 5.02803 0
M  V30 2956 H 277.371 -3.83815 4.15575 0
M  V30 2957 H 275.928 -4.13228 5.0407 0
M  V30 2958 N 279.361 -1.56624 0.175154 0
M  V30 2959 C 280.586 -2.01813 -0.478137 0
M  V30 2960 C 281.011 -1.05457 -1.55757 0
M  V30 2961 O 280.369 -0.0347439 -1.81267 0
M  V30 2962 C 280.417 -3.45581 -1.02987 0
M  V30 2963 O 279.521 -3.52305 -2.14371 0
M  V30 2964 H 278.862 -0.65413 -0.114059 0
M  V30 2965 H 281.392 -2.02673 0.280173 0
M  V30 2966 H 281.402 -3.84965 -1.35151 0
M  V30 2967 H 280.077 -4.1521 -0.239556 0
M  V30 2968 H 278.654 -3.24783 -1.83222 0
M  V30 2969 N 280.839 0.0985539 -1.57292 0
M  V30 2970 C 281.749 1.13824 -2.05137 0
M  V30 2971 C 282.765 1.44076 -0.975604 0
M  V30 2972 O 283.941 1.54786 -1.28853 0
M  V30 2973 C 281.006 2.43969 -2.46333 0
M  V30 2974 C 280.067 2.2093 -3.68087 0
M  V30 2975 C 279.3 3.44869 -4.0731 0
M  V30 2976 O 279.523 4.52972 -3.46659 0
M  V30 2977 O 278.457 3.34661 -5.00285 0
M  V30 2978 H 282.283 0.761881 -2.93988 0
M  V30 2979 H 279.868 0.310818 -1.46131 0
M  V30 2980 H 281.75 3.20609 -2.73473 0
M  V30 2981 H 280.425 2.81038 -1.60621 0
M  V30 2982 H 279.332 1.42081 -3.46069 0
M  V30 2983 H 280.665 1.88755 -4.54568 0
M  V30 2984 N 282.317 1.53212 0.369288 0
M  V30 2985 C 283.264 1.79388 1.45219 0
M  V30 2986 C 284.234 0.638059 1.53356 0
M  V30 2987 O 285.419 0.879852 1.69302 0
M  V30 2988 C 282.559 1.98623 2.82211 0
M  V30 2989 C 281.672 3.26337 2.8307 0
M  V30 2990 C 280.807 3.35779 4.11614 0
M  V30 2991 C 279.846 4.5754 4.06601 0
M  V30 2992 N 278.983 4.64155 5.26787 0
M  V30 2993 H 283.823 2.71794 1.22198 0
M  V30 2994 H 281.36 1.34642 0.592444 0
M  V30 2995 H 283.318 2.07761 3.61789 0
M  V30 2996 H 281.948 1.09558 3.03639 0
M  V30 2997 H 281 3.26171 1.95747 0
M  V30 2998 H 282.312 4.15988 2.75237 0
M  V30 2999 H 281.466 3.44208 4.99606 0
M  V30 3000 H 280.205 2.44137 4.22195 0
M  V30 3001 H 279.21 4.49215 3.16996 0
M  V30 3002 H 280.435 5.50519 3.97625 0
M  V30 3003 H 278.381 3.75413 5.3796 0
M  V30 3004 H 278.298 5.47706 5.21109 0
M  V30 3005 H 279.566 4.76863 6.16621 0
M  V30 3006 N 283.795 -0.628877 1.44509 0
M  V30 3007 C 285.211 -0.947305 1.28446 0
M  V30 3008 C 285.411 -2.00275 0.221872 0
M  V30 3009 O 284.467 -2.49447 -0.391471 0
M  V30 3010 C 285.78 -1.40843 2.65676 0
M  V30 3011 C 287.328 -1.52379 2.73404 0
M  V30 3012 C 287.803 -2.01875 4.11109 0
M  V30 3013 N 289.294 -2.09142 4.13296 0
M  V30 3014 C 290.029 -2.48615 5.16699 0
M  V30 3015 N 289.525 -2.87209 6.30462 0
M  V30 3016 N 291.318 -2.48768 5.04054 0
M  V30 3017 H 283.469 0.0690977 2.12288 0
M  V30 3018 H 285.732 -0.0317164 0.947469 0
M  V30 3019 H 285.438 -0.707206 3.44516 0
M  V30 3020 H 285.312 -2.37902 2.92716 0
M  V30 3021 H 287.699 -2.21598 1.9488 0
M  V30 3022 H 287.78 -0.536898 2.50102 0
M  V30 3023 H 287.424 -1.3325 4.90109 0
M  V30 3024 H 287.354 -3.0144 4.31789 0
M  V30 3025 H 289.845 -1.81991 3.31191 0
M  V30 3026 H 290.158 -3.16149 7.05174 0
M  V30 3027 H 288.503 -2.84955 6.33897 0
M  V30 3028 H 291.694 -2.18009 4.14234 0
M  V30 3029 H 291.867 -2.79207 5.84763 0
M  V30 3030 N 285.273 -1.31445 -0.869486 0
M  V30 3031 C 286.503 -1.23942 -1.65294 0
M  V30 3032 C 286.911 0.197561 -1.88166 0
M  V30 3033 O 286.254 1.14019 -1.44033 0
M  V30 3034 C 286.316 -1.91385 -3.04322 0
M  V30 3035 C 285.98 -3.40726 -3.04557 0
M  V30 3036 C 286.977 -4.36464 -2.82481 0
M  V30 3037 C 284.662 -3.82425 -3.25663 0
M  V30 3038 C 286.656 -5.71876 -2.8149 0
M  V30 3039 C 284.343 -5.1795 -3.243 0
M  V30 3040 C 285.341 -6.12486 -3.02241 0
M  V30 3041 O 285.029 -7.45534 -3.00724 0
M  V30 3042 H 284.761 -0.429459 -0.522054 0
M  V30 3043 H 287.315 -1.73873 -1.0935 0
M  V30 3044 H 285.545 -1.36004 -3.61994 0
M  V30 3045 H 287.234 -1.77791 -3.64891 0
M  V30 3046 H 288 -4.05576 -2.65956 0
M  V30 3047 H 283.879 -3.09274 -3.41863 0
M  V30 3048 H 287.423 -6.45638 -2.64191 0
M  V30 3049 H 283.32 -5.48473 -3.40365 0
M  V30 3050 H 284.088 -7.54713 -3.16782 0
M  V30 3051 N 286.751 1.08385 -1.14413 0
M  V30 3052 C 287.976 1.85057 -0.936413 0
M  V30 3053 C 288.401 1.81055 0.509971 0
M  V30 3054 O 287.759 1.1958 1.36273 0
M  V30 3055 C 287.807 3.30505 -1.44217 0
M  V30 3056 O 286.911 4.07491 -0.634409 0
M  V30 3057 H 286.252 0.573425 -0.334784 0
M  V30 3058 H 288.782 1.36799 -1.52142 0
M  V30 3059 H 288.792 3.81348 -1.45043 0
M  V30 3060 H 287.467 3.32734 -2.49522 0
M  V30 3061 H 286.044 3.66368 -0.694902 0
M  V30 3062 N 288.23 0.939286 1.26551 0
M  V30 3063 C 289.646 0.641304 1.46149 0
M  V30 3064 C 289.846 -0.805964 1.84679 0
M  V30 3065 O 288.902 -1.58278 1.96734 0
M  V30 3066 C 290.215 1.6011 2.54529 0
M  V30 3067 C 291.763 1.6106 2.68382 0
M  V30 3068 C 292.238 2.55765 3.79932 0
M  V30 3069 N 293.729 2.5404 3.87322 0
M  V30 3070 C 294.464 3.24004 4.73085 0
M  V30 3071 N 293.96 4.03388 5.63249 0
M  V30 3072 N 295.753 3.12965 4.66914 0
M  V30 3073 H 287.904 1.87478 0.998285 0
M  V30 3074 H 290.167 0.805559 0.499779 0
M  V30 3075 H 289.873 2.63412 2.33039 0
M  V30 3076 H 289.747 1.35171 3.52149 0
M  V30 3077 H 292.134 0.584835 2.89247 0
M  V30 3078 H 292.215 1.90053 1.71212 0
M  V30 3079 H 291.859 3.58458 3.5982 0
M  V30 3080 H 291.789 2.24063 4.76554 0
M  V30 3081 H 294.28 1.96396 3.22858 0
M  V30 3082 H 294.593 4.5373 6.25579 0
M  V30 3083 H 292.938 4.07489 5.63008 0
M  V30 3084 H 296.129 2.50432 3.95476 0
M  V30 3085 H 296.302 3.67759 5.33533 0
M  V30 3086 N 289.708 -1.40897 0.706093 0
M  V30 3087 C 290.956 -2.00657 0.241054 0
M  V30 3088 C 291.277 -1.56241 -1.16678 0
M  V30 3089 O 290.547 -0.79765 -1.78926 0
M  V30 3090 H 289.127 -0.742018 0.0861308 0
M  V30 3091 H 291.789 -1.72372 0.909604 0
M  V30 3092 H 290.885 -3.10958 0.266705 0
M  V30 3093 N 291.186 -0.45159 -1.50991 0
M  V30 3094 C 292.433 0.110074 -2.02201 0
M  V30 3095 C 292.761 1.4146 -1.33489 0
M  V30 3096 O 292.016 1.90617 -0.443125 0
M  V30 3097 C 292.315 0.361728 -3.55565 0
M  V30 3098 C 291.981 -0.858717 -4.42648 0
M  V30 3099 C 290.643 -1.19338 -4.66167 0
M  V30 3100 C 292.995 -1.67221 -4.93646 0
M  V30 3101 C 290.323 -2.34195 -5.37931 0
M  V30 3102 C 292.675 -2.8119 -5.6667 0
M  V30 3103 C 291.339 -3.15094 -5.88449 0
M  V30 3104 H 290.609 0.040279 -0.739904 0
M  V30 3105 H 293.256 -0.601696 -1.81802 0
M  V30 3106 H 291.561 1.15554 -3.74372 0
M  V30 3107 H 293.258 0.80996 -3.92735 0
M  V30 3108 H 289.848 -0.58796 -4.24548 0
M  V30 3109 H 294.032 -1.42686 -4.75347 0
M  V30 3110 H 289.288 -2.6076 -5.53005 0
M  V30 3111 H 293.462 -3.44585 -6.05173 0
M  V30 3112 H 291.089 -4.04204 -6.43835 0
M  V30 3113 N 292.664 1.56529 -0.183458 0
M  V30 3114 C 293.627 2.17324 0.728223 0
M  V30 3115 C 294.627 1.12453 1.14939 0
M  V30 3116 O 295.817 1.37902 1.06437 0
M  V30 3117 C 292.949 2.76591 1.99274 0
M  V30 3118 H 294.142 2.99241 0.198772 0
M  V30 3119 H 291.695 1.5616 0.0661391 0
M  V30 3120 H 292.43 1.98441 2.56499 0
M  V30 3121 H 292.215 3.5335 1.69959 0
M  V30 3122 H 293.705 3.23311 2.6431 0
M  V30 3123 N 294.142 -0.090211 1.57342 0
M  V30 3124 C 295.372 -0.805055 1.90269 0
M  V30 3125 C 295.78 -1.72561 0.775842 0
M  V30 3126 O 295.123 -1.81839 -0.260843 0
M  V30 3127 C 295.185 -1.66734 3.18497 0
M  V30 3128 C 294.849 -0.918092 4.47683 0
M  V30 3129 C 295.846 -0.245674 5.19319 0
M  V30 3130 C 293.531 -0.890724 4.94339 0
M  V30 3131 C 295.525 0.444088 6.35851 0
M  V30 3132 C 293.212 -0.197179 6.10782 0
M  V30 3133 C 294.21 0.469044 6.81388 0
M  V30 3134 O 293.898 1.15146 7.95611 0
M  V30 3135 H 293.63 -0.235143 0.633785 0
M  V30 3136 H 296.184 -0.0703805 2.05279 0
M  V30 3137 H 294.414 -2.44437 2.99646 0
M  V30 3138 H 296.103 -2.25919 3.37217 0
M  V30 3139 H 296.869 -0.258246 4.84312 0
M  V30 3140 H 292.748 -1.39873 4.39268 0
M  V30 3141 H 296.292 0.964667 6.90898 0
M  V30 3142 H 292.189 -0.18247 6.45242 0
M  V30 3143 H 292.957 1.05885 8.11622 0
M  V30 3144 N 295.62 -1.53406 -0.361157 0
M  V30 3145 C 296.86 -1.71507 -1.11197 0
M  V30 3146 C 297.224 -0.459337 -1.86425 0
M  V30 3147 O 298.425 -0.517102 -2.63779 0
M  V30 3148 C 296.696 -2.93307 -2.0422 0
M  V30 3149 S 298.255 -3.32135 -2.86761 0
M  V30 3150 H 295.073 -0.603448 -0.375995 0
M  V30 3151 H 297.675 -1.91516 -0.392642 0
M  V30 3152 H 296.379 -3.82891 -1.47724 0
M  V30 3153 H 295.91 -2.75712 -2.80618 0
M  V30 3154 H 297.925 -2.84493 -4.06544 0
M  V30 3155 N 297.098 0.621204 -1.44841 0
M  V30 3156 C 298.048 1.72663 -1.48901 0
M  V30 3157 C 299.032 1.56964 -0.353702 0
M  V30 3158 O 300.224 1.66532 -0.599669 0
M  V30 3159 C 297.353 3.11381 -1.44557 0
M  V30 3160 C 296.439 3.32514 -2.6324 0
M  V30 3161 N 296.83 3.23969 -3.8843 0
M  V30 3162 C 295.128 3.63343 -2.58647 0
M  V30 3163 C 295.829 3.46062 -4.67564 0
M  V30 3164 N 294.805 3.69407 -3.98797 0
M  V30 3165 H 298.607 1.64529 -2.43531 0
M  V30 3166 H 296.121 0.82401 -1.39942 0
M  V30 3167 H 298.118 3.90667 -1.4555 0
M  V30 3168 H 296.778 3.20674 -0.509731 0
M  V30 3169 H 297.789 3.02669 -4.20252 0
M  V30 3170 H 294.466 3.79556 -1.73906 0
M  V30 3171 H 295.856 3.44963 -5.76585 0
M  V30 3172 N 298.576 1.31904 0.862503 0
M  V30 3173 C 299.801 1.25135 1.65397 0
M  V30 3174 C 300.226 -0.179 1.87246 0
M  V30 3175 O 299.584 -1.1277 1.4196 0
M  V30 3176 C 299.632 2.00832 2.99498 0
M  V30 3177 O 298.736 1.35075 3.89652 0
M  V30 3178 H 298.077 0.431655 0.504549 0
M  V30 3179 H 300.607 1.74094 1.07483 0
M  V30 3180 H 300.617 2.10709 3.49379 0
M  V30 3181 H 299.292 3.04847 2.82916 0
M  V30 3182 H 297.869 1.33696 3.48109 0
M  V30 3183 N 300.054 -1.07777 1.14986 0
M  V30 3184 C 301.001 -2.14867 0.842672 0
M  V30 3185 C 301.971 -1.6486 -0.202552 0
M  V30 3186 O 303.156 -1.90668 -0.0710568 0
M  V30 3187 C 300.296 -3.43486 0.333363 0
M  V30 3188 C 299.409 -4.07306 1.43965 0
M  V30 3189 C 298.544 -5.23744 0.886914 0
M  V30 3190 C 297.583 -5.79517 1.97043 0
M  V30 3191 N 296.72 -6.87291 1.4344 0
M  V30 3192 H 301.56 -2.40485 1.75986 0
M  V30 3193 H 299.097 -1.1801 0.878179 0
M  V30 3194 H 301.055 -4.17195 0.0198163 0
M  V30 3195 H 299.685 -3.18133 -0.546916 0
M  V30 3196 H 298.737 -3.31293 1.86946 0
M  V30 3197 H 300.049 -4.44771 2.25788 0
M  V30 3198 H 299.203 -6.04419 0.525651 0
M  V30 3199 H 297.942 -4.87685 0.0377957 0
M  V30 3200 H 296.947 -4.97491 2.34057 0
M  V30 3201 H 298.172 -6.17632 2.82325 0
M  V30 3202 H 296.118 -6.5318 0.607567 0
M  V30 3203 H 296.035 -7.23617 2.18895 0
M  V30 3204 H 297.303 -7.71682 1.10124 0
M  V30 3205 N 301.532 -0.945985 -1.26051 0
M  V30 3206 C 302.462 -0.477172 -2.28572 0
M  V30 3207 C 303.443 0.472032 -1.63419 0
M  V30 3208 O 304.628 0.372853 -1.90587 0
M  V30 3209 C 301.758 0.253975 -3.4637 0
M  V30 3210 C 300.712 -0.609135 -4.23643 0
M  V30 3211 C 300.038 0.252252 -5.34105 0
M  V30 3212 C 301.338 -1.8829 -4.8718 0
M  V30 3213 H 303.032 -1.33402 -2.68038 0
M  V30 3214 H 300.578 -0.642904 -1.28852 0
M  V30 3215 H 302.531 0.593016 -4.17207 0
M  V30 3216 H 301.255 1.145 -3.05871 0
M  V30 3217 H 299.914 -0.931138 -3.54578 0
M  V30 3218 H 299.562 1.14278 -4.89846 0
M  V30 3219 H 299.262 -0.32188 -5.86718 0
M  V30 3220 H 300.786 0.586454 -6.07777 0
M  V30 3221 H 302.2 -1.61081 -5.50205 0
M  V30 3222 H 300.597 -2.40199 -5.49931 0
M  V30 3223 H 301.667 -2.59134 -4.09851 0
M  V30 3224 N 303.011 1.40521 -0.713556 0
M  V30 3225 C 303.974 2.29098 -0.0684347 0
M  V30 3226 C 304.974 1.45268 0.689472 0
M  V30 3227 O 306.164 1.66205 0.521677 0
M  V30 3228 C 303.296 3.28446 0.913024 0
M  V30 3229 H 304.489 2.87645 -0.84855 0
M  V30 3230 H 302.042 1.48809 -0.47809 0
M  V30 3231 H 302.777 2.74913 1.72027 0
M  V30 3232 H 302.562 3.90327 0.372472 0
M  V30 3233 H 304.052 3.94777 1.36165 0
M  V30 3234 N 304.489 0.459591 1.5075 0
M  V30 3235 C 305.437 -0.354678 2.2988 0
M  V30 3236 C 306.431 -1.00086 1.36672 0
M  V30 3237 O 307.637 -0.933277 1.53915 0
M  V30 3238 H 304.012 -0.13321 0.740107 0
M  V30 3239 H 305.983 0.333269 2.96533 0
M  V30 3240 C 304.732 -1.43073 3.169 0
M  V30 3241 H 304.055 -0.942882 3.88523 0
M  V30 3242 H 305.495 -1.97328 3.75284 0
M  V30 3243 C 303.954 -2.42633 2.33732 0
M  V30 3244 O 304.484 -3.47658 2.01238 0
M  V30 3245 N 302.69 -2.14066 1.9653 0
M  V30 3246 H 302.237 -1.28685 2.23155 0
M  V30 3247 H 302.195 -2.80917 1.41185 0
M  V30 3248 N 305.967 -1.56429 0.191757 0
M  V30 3249 C 307.213 -1.97777 -0.448554 0
M  V30 3250 C 307.546 -1.07847 -1.61501 0
M  V30 3251 O 306.821 -0.129774 -1.94067 0
M  V30 3252 C 307.104 -3.48362 -0.911906 0
M  V30 3253 C 306.957 -4.4907 0.256136 0
M  V30 3254 C 308.276 -4.02561 -1.77857 0
M  V30 3255 H 305.395 -0.719071 -0.161572 0
M  V30 3256 H 308.037 -1.87896 0.282007 0
M  V30 3257 H 306.187 -3.56914 -1.53442 0
M  V30 3258 H 307.859 -4.5256 0.893733 0
M  V30 3259 H 306.102 -4.24181 0.908436 0
M  V30 3260 H 306.773 -5.51889 -0.11053 0
M  V30 3261 H 309.249 -3.96767 -1.25359 0
M  V30 3262 H 308.125 -5.08301 -2.07174 0
M  V30 3263 H 308.386 -3.47616 -2.73158 0
M  V30 3264 N 307.445 0.0818655 -1.57387 0
M  V30 3265 C 308.375 1.09885 -2.06028 0
M  V30 3266 C 309.356 1.4098 -0.951774 0
M  V30 3267 O 310.541 1.50781 -1.22387 0
M  V30 3268 C 307.671 2.4151 -2.4958 0
M  V30 3269 C 306.625 2.24792 -3.64215 0
M  V30 3270 C 305.951 3.61712 -3.93787 0
M  V30 3271 C 307.251 1.67749 -4.94629 0
M  V30 3272 H 308.945 0.694128 -2.91243 0
M  V30 3273 H 306.491 0.332448 -1.4011 0
M  V30 3274 H 308.444 3.12939 -2.82219 0
M  V30 3275 H 307.168 2.83943 -1.61381 0
M  V30 3276 H 305.827 1.55807 -3.31843 0
M  V30 3277 H 305.475 4.01697 -3.02735 0
M  V30 3278 H 305.175 3.51368 -4.70971 0
M  V30 3279 H 306.699 4.34587 -4.28913 0
M  V30 3280 H 308.113 2.29032 -5.25564 0
M  V30 3281 H 306.51 1.68128 -5.76067 0
M  V30 3282 H 307.58 0.638059 -4.80684 0
M  V30 3283 N 308.923 1.53595 0.353017 0
M  V30 3284 C 310.17 1.70385 1.09431 0
M  V30 3285 C 310.498 0.462113 1.88931 0
M  V30 3286 O 309.753 -0.556074 1.87633 0
M  V30 3287 C 310.052 2.91313 2.07054 0
M  V30 3288 C 309.718 4.27308 1.43939 0
M  V30 3289 C 308.38 4.64287 1.26454 0
M  V30 3290 C 310.732 5.11829 0.983883 0
M  V30 3291 C 308.06 5.83412 0.620226 0
M  V30 3292 C 310.412 6.31611 0.353516 0
M  V30 3293 C 309.076 6.67293 0.166272 0
M  V30 3294 H 308.346 0.623484 0.400436 0
M  V30 3295 H 310.993 1.87799 0.374655 0
M  V30 3296 H 309.298 2.68463 2.85368 0
M  V30 3297 H 310.995 3.01497 2.64387 0
M  V30 3298 H 307.585 3.98198 1.58543 0
M  V30 3299 H 311.769 4.838 1.10685 0
M  V30 3300 H 307.025 6.09639 0.463681 0
M  V30 3301 H 311.199 6.964 -0.00757555 0
M  V30 3302 H 308.826 7.59461 -0.335047 0
M  V30 3303 N 310.401 -0.613514 1.45168 0
M  V30 3304 C 311.629 -1.39946 1.5239 0
M  V30 3305 C 312.044 -1.88167 0.154531 0
M  V30 3306 O 311.401 -1.61872 -0.842843 0
M  V30 3307 C 311.452 -2.60795 2.50337 0
M  V30 3308 O 311.173 -2.1458 3.81952 0
M  V30 3309 C 312.674 -3.53723 2.67198 0
M  V30 3310 H 309.894 -0.428593 0.516284 0
M  V30 3311 H 312.438 -0.748753 1.903 0
M  V30 3312 H 310.593 -3.21919 2.15515 0
M  V30 3313 H 311.007 -2.93055 4.34993 0
M  V30 3314 H 312.481 -4.35079 3.39721 0
M  V30 3315 H 312.958 -4.0368 1.73029 0
M  V30 3316 H 313.564 -2.98456 3.02992 0
M  V30 3317 N 311.879 -1.3236 -0.855495 0
M  V30 3318 C 313.295 -1.11332 -1.14356 0
M  V30 3319 C 313.495 0.106751 -2.01217 0
M  V30 3320 O 312.551 0.791891 -2.39761 0
M  V30 3321 C 313.864 -2.39237 -1.82171 0
M  V30 3322 C 315.412 -2.44986 -1.9481 0
M  V30 3323 C 315.887 -3.7281 -2.66039 0
M  V30 3324 N 317.378 -3.73787 -2.73565 0
M  V30 3325 C 318.113 -4.69394 -3.29327 0
M  V30 3326 N 317.609 -5.75367 -3.85907 0
M  V30 3327 N 319.402 -4.56893 -3.27423 0
M  V30 3328 H 311.553 -2.10586 -0.277027 0
M  V30 3329 H 313.816 -0.929701 -0.185364 0
M  V30 3330 H 313.522 -3.28431 -1.25802 0
M  V30 3331 H 313.396 -2.50134 -2.82335 0
M  V30 3332 H 315.783 -1.56252 -2.50338 0
M  V30 3333 H 315.864 -2.38043 -0.936448 0
M  V30 3334 H 315.508 -4.61918 -2.11174 0
M  V30 3335 H 315.438 -3.77024 -3.67642 0
M  V30 3336 H 317.929 -2.97189 -2.33424 0
M  V30 3337 H 318.242 -6.44378 -4.26611 0
M  V30 3338 H 316.587 -5.79123 -3.84242 0
M  V30 3339 H 319.778 -3.73269 -2.82467 0
M  V30 3340 H 319.951 -5.31577 -3.7058 0
M  V30 3341 N 313.357 1.07166 -1.15556 0
M  V30 3342 C 314.267 2.17947 -0.868116 0
M  V30 3343 C 315.283 1.73297 0.156297 0
M  V30 3344 O 316.459 2.01392 -0.0182327 0
M  V30 3345 C 313.524 3.44789 -0.36355 0
M  V30 3346 C 312.585 4.03996 -1.45209 0
M  V30 3347 C 311.818 5.24783 -0.971508 0
M  V30 3348 O 312.041 5.70109 0.182194 0
M  V30 3349 O 310.975 5.75715 -1.75603 0
M  V30 3350 H 314.801 2.4503 -1.79427 0
M  V30 3351 H 312.386 1.16539 -0.934824 0
M  V30 3352 H 314.268 4.21307 -0.0887113 0
M  V30 3353 H 312.943 3.19253 0.534708 0
M  V30 3354 H 311.85 3.29009 -1.78056 0
M  V30 3355 H 313.183 4.33808 -2.32533 0
M  V30 3356 N 314.835 0.952656 1.25548 0
M  V30 3357 C 315.765 0.489287 2.28316 0
M  V30 3358 C 316.746 -0.463359 1.63667 0
M  V30 3359 O 317.931 -0.36274 1.90782 0
M  V30 3360 C 315.061 -0.235603 3.465 0
M  V30 3361 C 314.015 0.631593 4.23314 0
M  V30 3362 C 313.341 -0.223923 5.34231 0
M  V30 3363 C 314.641 1.90871 4.86174 0
M  V30 3364 H 316.335 1.34822 2.67326 0
M  V30 3365 H 313.881 0.649728 1.28509 0
M  V30 3366 H 315.834 -0.570882 4.17515 0
M  V30 3367 H 314.558 -1.12877 3.06474 0
M  V30 3368 H 313.217 0.949929 3.54079 0
M  V30 3369 H 312.865 -1.11678 4.90446 0
M  V30 3370 H 312.565 0.35299 5.86539 0
M  V30 3371 H 314.089 -0.554214 6.0808 0
M  V30 3372 H 315.503 1.63997 5.49343 0
M  V30 3373 H 313.9 2.43112 5.4865 0
M  V30 3374 H 314.97 2.61304 4.08471 0
M  V30 3375 N 316.313 -1.40141 0.720998 0
M  V30 3376 C 317.276 -2.29058 0.0805834 0
M  V30 3377 C 318.276 -1.45632 -0.681758 0
M  V30 3378 O 319.466 -1.6648 -0.512856 0
M  V30 3379 C 316.598 -3.28925 -0.895593 0
M  V30 3380 H 317.791 -2.87191 0.863793 0
M  V30 3381 H 315.344 -1.48553 0.485975 0
M  V30 3382 H 316.079 -2.75822 -1.70566 0
M  V30 3383 H 315.864 -3.90519 -0.351766 0
M  V30 3384 H 317.354 -3.95494 -1.34069 0
M  V30 3385 N 317.792 -0.46758 -1.50504 0
M  V30 3386 C 318.739 0.328413 -2.28452 0
M  V30 3387 C 319.709 0.990313 -1.33349 0
M  V30 3388 O 320.894 1.00343 -1.62284 0
M  V30 3389 C 318.034 1.40648 -3.15138 0
M  V30 3390 C 317.147 0.759709 -4.25267 0
M  V30 3391 C 316.282 1.81537 -4.99217 0
M  V30 3392 C 315.321 1.14866 -6.01226 0
M  V30 3393 N 314.458 2.14702 -6.68467 0
M  V30 3394 H 319.298 -0.342603 -2.96024 0
M  V30 3395 H 316.835 -0.180801 -1.45985 0
M  V30 3396 H 318.793 2.04315 -3.63746 0
M  V30 3397 H 317.423 2.04671 -2.49619 0
M  V30 3398 H 316.475 0.0105671 -3.80399 0
M  V30 3399 H 317.787 0.233243 -4.98254 0
M  V30 3400 H 316.941 2.52793 -5.51526 0
M  V30 3401 H 315.68 2.37564 -4.25928 0
M  V30 3402 H 314.685 0.42171 -5.4818 0
M  V30 3403 H 315.91 0.595334 -6.76485 0
M  V30 3404 H 313.856 2.69752 -5.97972 0
M  V30 3405 H 313.773 1.6703 -7.37317 0
M  V30 3406 H 315.041 2.85348 -7.25394 0
M  V30 3407 N 319.27 1.56325 -0.20005 0
M  V30 3408 C 320.686 1.58839 0.155716 0
M  V30 3409 C 320.886 1.21636 1.60645 0
M  V30 3410 O 319.942 0.941437 2.34293 0
M  V30 3411 C 321.255 3.0032 -0.151124 0
M  V30 3412 C 322.803 3.12866 -0.0916284 0
M  V30 3413 C 323.278 4.56488 -0.371845 0
M  V30 3414 N 324.769 4.62089 -0.320641 0
M  V30 3415 C 325.504 5.71116 -0.511243 0
M  V30 3416 N 325 6.88592 -0.762461 0
M  V30 3417 N 326.793 5.60335 -0.445157 0
M  V30 3418 H 318.944 1.78788 -1.14668 0
M  V30 3419 H 321.207 0.829996 -0.458051 0
M  V30 3420 H 320.913 3.32117 -1.15721 0
M  V30 3421 H 320.787 3.73257 0.543986 0
M  V30 3422 H 323.174 2.80878 0.905065 0
M  V30 3423 H 323.255 2.42304 -0.81989 0
M  V30 3424 H 322.899 4.89189 -1.36588 0
M  V30 3425 H 322.829 5.25246 0.377362 0
M  V30 3426 H 325.32 3.77665 -0.13329 0
M  V30 3427 H 325.633 7.67581 -0.896576 0
M  V30 3428 H 323.978 6.90387 -0.799412 0
M  V30 3429 H 327.169 4.67436 -0.249278 0
M  V30 3430 H 327.342 6.45243 -0.597116 0
M  V30 3431 N 320.748 -0.0735177 1.57428 0
M  V30 3432 C 321.678 -1.0879 2.06608 0
M  V30 3433 C 322.659 -1.40473 0.959237 0
M  V30 3434 O 323.844 -1.5013 1.23185 0
M  V30 3435 C 320.974 -2.40183 2.50857 0
M  V30 3436 C 319.928 -2.22858 3.65402 0
M  V30 3437 C 319.254 -3.59619 3.957 0
M  V30 3438 C 320.554 -1.65123 4.95511 0
M  V30 3439 H 322.248 -0.678673 2.91607 0
M  V30 3440 H 319.794 -0.325013 1.40284 0
M  V30 3441 H 321.747 -3.11437 2.83874 0
M  V30 3442 H 320.471 -2.83083 1.62885 0
M  V30 3443 H 319.13 -1.54045 3.32664 0
M  V30 3444 H 318.778 -4.00086 3.04861 0
M  V30 3445 H 318.478 -3.48866 4.72828 0
M  V30 3446 H 320.002 -4.32306 4.31212 0
M  V30 3447 H 321.416 -2.26241 5.26771 0
M  V30 3448 H 319.813 -1.65071 5.7695 0
M  V30 3449 H 320.883 -0.612559 4.81015 0
M  V30 3450 N 322.226 -1.5378 -0.344866 0
M  V30 3451 C 323.158 -1.77988 -1.44406 0
M  V30 3452 C 324.171 -0.661138 -1.48771 0
M  V30 3453 O 325.36 -0.937842 -1.51877 0
M  V30 3454 C 322.46 -1.86345 -2.8307 0
M  V30 3455 C 321.633 -3.16256 -3.0216 0
M  V30 3456 C 320.692 -3.15588 -4.21059 0
M  V30 3457 O 319.718 -3.89314 -4.15239 0
M  V30 3458 N 320.92 -2.37864 -5.29529 0
M  V30 3459 H 323.685 -2.72839 -1.24012 0
M  V30 3460 H 321.246 -1.52814 -0.534737 0
M  V30 3461 H 323.238 -1.83351 -3.60783 0
M  V30 3462 H 321.808 -0.986858 -2.96614 0
M  V30 3463 H 321.028 -3.32385 -2.11929 0
M  V30 3464 H 322.316 -4.0207 -3.11797 0
M  V30 3465 H 321.714 -1.77514 -5.37127 0
M  V30 3466 H 320.271 -2.40668 -6.05741 0
M  V30 3467 N 323.704 0.605807 -1.45491 0
M  V30 3468 C 324.952 1.36207 -1.49305 0
M  V30 3469 C 325.273 1.94519 -0.136863 0
M  V30 3470 O 324.543 1.77261 0.833983 0
M  V30 3471 H 323.123 0.50565 -0.549843 0
M  V30 3472 H 325.785 0.711239 -1.81459 0
M  V30 3473 H 324.881 2.18058 -2.23287 0
M  V30 3474 N 325.182 1.32811 0.848464 0
M  V30 3475 C 326.41 1.26739 1.63538 0
M  V30 3476 C 326.825 -0.163484 1.88091 0
M  V30 3477 O 326.182 -1.10258 1.45429 0
M  V30 3478 C 326.233 2.03013 2.99112 0
M  V30 3479 O 325.954 3.40518 2.75643 0
M  V30 3480 C 327.455 2.04038 3.93552 0
M  V30 3481 H 324.675 0.437024 0.509167 0
M  V30 3482 H 327.219 1.75033 1.05753 0
M  V30 3483 H 325.374 1.58426 3.53525 0
M  V30 3484 H 325.788 3.79635 3.61908 0
M  V30 3485 H 327.262 2.61877 4.85926 0
M  V30 3486 H 327.739 1.0282 4.26995 0
M  V30 3487 H 328.345 2.486 3.45077 0
M  V30 3488 N 326.66 -1.06551 1.16123 0
M  V30 3489 C 327.908 -1.78947 0.939267 0
M  V30 3490 C 328.229 -1.87532 -0.534476 0
M  V30 3491 O 327.499 -1.38211 -1.38833 0
M  V30 3492 H 326.079 -0.662807 0.344523 0
M  V30 3493 H 328.741 -1.28725 1.46342 0
M  V30 3494 H 327.837 -2.81117 1.35572 0
M  V30 3495 N 328.138 -0.959301 -1.25041 0
M  V30 3496 C 329.384 -0.617525 -1.9317 0
M  V30 3497 C 329.717 0.843981 -1.74902 0
M  V30 3498 O 328.992 1.60615 -1.09696 0
M  V30 3499 C 329.275 -0.982736 -3.46431 0
M  V30 3500 C 329.128 -2.50032 -3.73904 0
M  V30 3501 C 330.447 -0.511176 -4.37121 0
M  V30 3502 H 327.566 -0.22582 -0.701552 0
M  V30 3503 H 330.208 -1.19679 -1.4757 0
M  V30 3504 H 328.358 -0.489806 -3.854 0
M  V30 3505 H 330.03 -3.06737 -3.44544 0
M  V30 3506 H 328.273 -2.93598 -3.19348 0
M  V30 3507 H 328.944 -2.70635 -4.81103 0
M  V30 3508 H 331.42 -0.934075 -4.0548 0
M  V30 3509 H 330.296 -0.795361 -5.43107 0
M  V30 3510 H 330.557 0.588834 -4.38161 0
M  V30 3511 N 329.616 1.39756 -0.72842 0
M  V30 3512 C 330.844 2.04948 -0.283528 0
M  V30 3513 C 331.259 1.54908 1.0793 0
M  V30 3514 O 330.616 0.711135 1.68075 0
M  V30 3515 C 330.667 3.60498 -0.268957 0
M  V30 3516 O 330.388 4.08695 -1.57798 0
M  V30 3517 C 331.889 4.4288 0.192912 0
M  V30 3518 H 329.109 0.659243 -0.125056 0
M  V30 3519 H 331.653 1.78927 -0.990226 0
M  V30 3520 H 329.808 3.85444 0.388801 0
M  V30 3521 H 330.222 5.02977 -1.48709 0
M  V30 3522 H 331.696 5.51791 0.151952 0
M  V30 3523 H 332.173 4.21418 1.23708 0
M  V30 3524 H 332.779 4.23069 -0.435039 0
M  V30 3525 N 331.094 0.475555 1.50254 0
M  V30 3526 C 332.322 -0.0754493 2.06762 0
M  V30 3527 C 332.737 -1.33111 1.33891 0
M  V30 3528 O 332.094 -1.77846 0.40952 0
M  V30 3529 C 332.145 -0.359008 3.59713 0
M  V30 3530 O 331.866 0.846851 4.29837 0
M  V30 3531 C 333.367 -0.956484 4.32858 0
M  V30 3532 H 330.587 0.00907525 0.670939 0
M  V30 3533 H 333.131 0.665618 1.93364 0
M  V30 3534 H 331.286 -1.05001 3.72899 0
M  V30 3535 H 331.7 0.594162 5.21124 0
M  V30 3536 H 333.174 -1.10463 5.40834 0
M  V30 3537 H 333.651 -1.94775 3.93649 0
M  V30 3538 H 334.257 -0.303723 4.24214 0
M  V30 3539 N 332.573 -1.56217 0.208337 0
M  V30 3540 C 333.803 -2.02043 -0.431523 0
M  V30 3541 C 334.211 -1.08755 -1.54819 0
M  V30 3542 O 333.554 -0.0870009 -1.83494 0
M  V30 3543 C 333.616 -3.44239 -1.03633 0
M  V30 3544 C 333.28 -4.56965 -0.0567502 0
M  V30 3545 C 334.277 -5.14624 0.738773 0
M  V30 3546 C 331.962 -5.02266 0.0581736 0
M  V30 3547 C 333.956 -6.16045 1.63605 0
M  V30 3548 C 331.643 -6.03528 0.959001 0
M  V30 3549 C 332.641 -6.60293 1.7465 0
M  V30 3550 O 332.329 -7.59586 2.6322 0
M  V30 3551 H 332.061 -0.666772 -0.111313 0
M  V30 3552 H 334.615 -2.02919 0.318277 0
M  V30 3553 H 332.845 -3.40391 -1.83497 0
M  V30 3554 H 334.534 -3.73793 -1.58221 0
M  V30 3555 H 335.3 -4.80483 0.660364 0
M  V30 3556 H 331.179 -4.57771 -0.544633 0
M  V30 3557 H 334.723 -6.60279 2.25116 0
M  V30 3558 H 330.62 -6.37092 1.03848 0
M  V30 3559 H 331.388 -7.77057 2.57148 0
M  V30 3560 N 334.051 0.0651679 -1.57465 0
M  V30 3561 C 335.014 1.06117 -2.03155 0
M  V30 3562 C 336.014 1.31204 -0.929632 0
M  V30 3563 O 337.204 1.26813 -1.19432 0
M  V30 3564 C 334.336 2.4032 -2.41783 0
M  V30 3565 H 335.529 0.667231 -2.92383 0
M  V30 3566 H 333.082 0.311075 -1.53173 0
M  V30 3567 H 333.817 2.84532 -1.55601 0
M  V30 3568 H 333.602 2.23451 -3.22199 0
M  V30 3569 H 335.092 3.11898 -2.77685 0
M  V30 3570 N 335.529 1.53961 0.336706 0
M  V30 3571 C 336.775 1.7179 1.07777 0
M  V30 3572 C 337.108 0.483263 1.88091 0
M  V30 3573 O 336.383 -0.519747 1.87427 0
M  V30 3574 C 336.666 2.98558 2.01334 0
M  V30 3575 C 336.519 4.32245 1.24437 0
M  V30 3576 C 337.838 3.21023 3.01052 0
M  V30 3577 H 334.957 0.625089 0.390426 0
M  V30 3578 H 337.599 1.86641 0.35567 0
M  V30 3579 H 335.749 2.86028 2.62908 0
M  V30 3580 H 337.421 4.56637 0.654243 0
M  V30 3581 H 335.664 4.30344 0.546458 0
M  V30 3582 H 336.335 5.17137 1.93063 0
M  V30 3583 H 338.811 3.32929 2.49595 0
M  V30 3584 H 337.687 4.11104 3.6371 0
M  V30 3585 H 337.948 2.37637 3.72802 0
M  V30 3586 N 337.007 -0.598083 1.45811 0
M  V30 3587 C 337.957 -1.70272 1.51629 0
M  V30 3588 C 338.941 -1.56382 0.378629 0
M  V30 3589 O 340.133 -1.65557 0.626087 0
M  V30 3590 C 337.262 -3.09042 1.49493 0
M  V30 3591 C 336.348 -3.28284 2.68496 0
M  V30 3592 N 336.739 -3.17748 3.93535 0
M  V30 3593 C 335.037 -3.59182 2.64394 0
M  V30 3594 C 335.738 -3.38579 4.7301 0
M  V30 3595 N 334.714 -3.63016 4.04624 0
M  V30 3596 H 338.516 -1.60634 2.46118 0
M  V30 3597 H 336.03 -0.801642 1.41235 0
M  V30 3598 H 338.027 -3.88302 1.51747 0
M  V30 3599 H 336.687 -3.19823 0.560683 0
M  V30 3600 H 337.698 -2.95944 4.25014 0
M  V30 3601 H 334.375 -3.76742 1.79922 0
M  V30 3602 H 335.765 -3.35747 5.82 0
M  V30 3603 N 338.485 -1.33259 -0.841409 0
M  V30 3604 C 339.896 -1.22066 -1.41269 0
M  V30 3605 C 340.247 0.161479 -1.95534 0
M  V30 3606 O 339.372 1.06094 -1.88608 0
M  V30 3607 C 339.967 -2.20996 -2.568 0
M  V30 3608 C 338.526 -2.13649 -3.09888 0
M  V30 3609 C 337.673 -2.08623 -1.82679 0
M  V30 3610 H 340.624 -1.44895 -0.647395 0
M  V30 3611 H 340.645 -1.81621 -3.34356 0
M  V30 3612 H 340.157 -3.2158 -2.17274 0
M  V30 3613 H 338.258 -1.16359 -3.53965 0
M  V30 3614 H 338.371 -3.04079 -3.70234 0
M  V30 3615 H 336.735 -1.54061 -2.02824 0
M  V30 3616 H 337.518 -3.1101 -1.45353 0
M  V30 3617 N 339.963 1.05934 -1.16686 0
M  V30 3618 C 341.211 1.78447 -0.948744 0
M  V30 3619 C 341.532 1.87813 0.524523 0
M  V30 3620 O 340.802 1.38945 1.38098 0
M  V30 3621 H 339.382 0.660971 -0.348033 0
M  V30 3622 H 342.044 1.27947 -1.47022 0
M  V30 3623 H 341.14 2.80394 -1.37061 0
M  V30 3624 N 341.441 0.965919 1.2453 0
M  V30 3625 C 342.687 0.62776 1.92839 0
M  V30 3626 C 343.02 -0.834694 1.75347 0
M  V30 3627 O 342.295 -1.60031 1.10546 0
M  V30 3628 C 342.578 1.00109 3.45905 0
M  V30 3629 C 342.431 2.52011 3.72573 0
M  V30 3630 C 343.75 0.53435 4.36844 0
M  V30 3631 H 340.869 0.229537 0.700344 0
M  V30 3632 H 343.511 1.2046 1.46933 0
M  V30 3633 H 341.661 0.510238 3.85135 0
M  V30 3634 H 343.333 3.08559 3.42912 0
M  V30 3635 H 341.576 2.95287 3.17786 0
M  V30 3636 H 342.247 2.73183 4.79661 0
M  V30 3637 H 344.723 0.955565 4.04979 0
M  V30 3638 H 343.599 0.824152 5.42678 0
M  V30 3639 H 343.86 -0.565589 4.38467 0
M  V30 3640 N 342.919 -1.39368 0.735821 0
M  V30 3641 C 344.165 -2.00794 0.284544 0
M  V30 3642 C 344.498 -1.58255 -1.12557 0
M  V30 3643 O 343.773 -0.811819 -1.76748 0
M  V30 3644 C 344.056 -3.58011 0.387337 0
M  V30 3645 C 343.909 -4.10566 1.83728 0
M  V30 3646 C 345.228 -4.395 -0.22975 0
M  V30 3647 H 342.347 -0.729501 0.104866 0
M  V30 3648 H 344.989 -1.65564 0.93213 0
M  V30 3649 H 343.139 -3.88154 -0.164006 0
M  V30 3650 H 344.811 -3.91139 2.44556 0
M  V30 3651 H 343.054 -3.64095 2.35833 0
M  V30 3652 H 343.725 -5.19702 1.86047 0
M  V30 3653 H 346.201 -4.15406 0.240257 0
M  V30 3654 H 345.077 -5.48752 -0.127485 0
M  V30 3655 H 345.338 -4.22062 -1.3159 0
M  V30 3656 N 344.397 -0.483516 -1.5 0
M  V30 3657 C 345.813 -0.138404 -1.58999 0
M  V30 3658 C 346.013 1.35597 -1.4905 0
M  V30 3659 O 345.069 2.13039 -1.35539 0
M  V30 3660 C 346.382 -0.699658 -2.92447 0
M  V30 3661 C 347.93 -0.664195 -3.05872 0
M  V30 3662 C 348.405 -1.20321 -4.41913 0
M  V30 3663 N 349.896 -1.16315 -4.48358 0
M  V30 3664 C 350.631 -1.55058 -5.52037 0
M  V30 3665 N 350.127 -2.01311 -6.62907 0
M  V30 3666 N 351.92 -1.46584 -5.42651 0
M  V30 3667 H 344.071 -1.45529 -1.5471 0
M  V30 3668 H 346.334 -0.60258 -0.731848 0
M  V30 3669 H 346.04 -1.747 -3.05242 0
M  V30 3670 H 345.914 -0.150194 -3.76901 0
M  V30 3671 H 348.301 0.374272 -2.92717 0
M  V30 3672 H 348.382 -1.25061 -2.23144 0
M  V30 3673 H 348.026 -2.24037 -4.55818 0
M  V30 3674 H 347.956 -0.592896 -5.23252 0
M  V30 3675 H 350.447 -0.824058 -3.68806 0
M  V30 3676 H 350.76 -2.2899 -7.38095 0
M  V30 3677 H 349.105 -2.05273 -6.63994 0
M  V30 3678 H 352.296 -1.10281 -4.54924 0
M  V30 3679 H 352.469 -1.77103 -6.23329 0
M  V30 3680 N 345.875 1.56104 -0.216619 0
M  V30 3681 C 347.1 2.0301 0.424462 0
M  V30 3682 C 347.525 1.0955 1.52907 0
M  V30 3683 O 346.883 0.0827914 1.81111 0
M  V30 3684 C 346.931 3.4819 0.937883 0
M  V30 3685 O 346.035 3.57865 2.04955 0
M  V30 3686 H 345.376 0.656925 0.0966755 0
M  V30 3687 H 347.906 2.01859 -0.33381 0
M  V30 3688 H 347.916 3.88413 1.24897 0
M  V30 3689 H 346.591 4.15699 0.129387 0
M  V30 3690 H 345.168 3.29527 1.74546 0
M  V30 3691 N 347.353 -0.0568162 1.57498 0
M  V30 3692 C 348.263 -1.08346 2.08083 0
M  V30 3693 C 349.279 -1.41439 1.01346 0
M  V30 3694 O 350.455 -1.51316 1.32912 0
M  V30 3695 C 347.52 -2.37352 2.52715 0
M  V30 3696 C 346.581 -2.11093 3.73816 0
M  V30 3697 C 345.814 -3.33949 4.1631 0
M  V30 3698 O 346.037 -4.43622 3.58547 0
M  V30 3699 O 344.971 -3.21279 5.08983 0
M  V30 3700 H 348.797 -0.683667 2.95905 0
M  V30 3701 H 346.382 -0.271965 1.46904 0
M  V30 3702 H 348.264 -3.13246 2.81877 0
M  V30 3703 H 346.939 -2.76681 1.68016 0
M  V30 3704 H 345.846 -1.32856 3.49714 0
M  V30 3705 H 347.179 -1.76637 4.59413 0
M  V30 3706 N 348.832 -1.54138 -0.328536 0
M  V30 3707 C 349.762 -1.86167 -1.40939 0
M  V30 3708 C 350.743 -0.718044 -1.54202 0
M  V30 3709 O 351.928 -0.971328 -1.68163 0
M  V30 3710 C 349.058 -2.08461 -2.77779 0
M  V30 3711 C 348.012 -3.24299 -2.7931 0
M  V30 3712 C 347.338 -3.31955 -4.19178 0
M  V30 3713 C 348.638 -4.62065 -2.43502 0
M  V30 3714 H 350.332 -2.76689 -1.14383 0
M  V30 3715 H 347.878 -1.33132 -0.548806 0
M  V30 3716 H 349.831 -2.29453 -3.53454 0
M  V30 3717 H 348.555 -1.14684 -3.05802 0
M  V30 3718 H 347.214 -3.03187 -2.0609 0
M  V30 3719 H 346.862 -2.35745 -4.44335 0
M  V30 3720 H 346.562 -4.09805 -4.2111 0
M  V30 3721 H 348.086 -3.55175 -4.96672 0
M  V30 3722 H 349.5 -4.8297 -3.08889 0
M  V30 3723 H 347.897 -5.42429 -2.56693 0
M  V30 3724 H 348.967 -4.64652 -1.38659 0
M  V30 3725 N 350.31 0.590341 -1.46126 0
M  V30 3726 C 351.556 1.35082 -1.51264 0
M  V30 3727 C 351.889 1.93534 -0.160711 0
M  V30 3728 O 351.164 1.76045 0.826956 0
M  V30 3729 C 351.447 2.48588 -2.6053 0
M  V30 3730 C 351.3 1.95221 -4.05227 0
M  V30 3731 C 352.619 3.50662 -2.6594 0
M  V30 3732 H 349.738 0.489803 -0.550692 0
M  V30 3733 H 352.38 0.663887 -1.78024 0
M  V30 3734 H 350.53 3.07186 -2.37843 0
M  V30 3735 H 352.202 1.41139 -4.39178 0
M  V30 3736 H 350.445 1.26101 -4.15068 0
M  V30 3737 H 351.116 2.77121 -4.77397 0
M  V30 3738 H 353.592 3.01934 -2.86313 0
M  V30 3739 H 352.468 4.27551 -3.44226 0
M  V30 3740 H 352.729 4.07399 -1.71694 0
M  V30 3741 N 351.788 1.33704 0.83433 0
M  V30 3742 C 353.204 1.13137 1.12571 0
M  V30 3743 C 353.404 -0.0747261 2.01361 0
M  V30 3744 O 352.46 -0.753647 2.4099 0
M  V30 3745 C 353.773 2.42105 1.78342 0
M  V30 3746 C 355.321 2.48054 1.90888 0
M  V30 3747 C 355.796 3.76995 2.60075 0
M  V30 3748 N 357.287 3.78092 2.67584 0
M  V30 3749 C 358.022 4.74574 3.21818 0
M  V30 3750 N 357.518 5.81434 3.76705 0
M  V30 3751 N 359.311 4.62044 3.20112 0
M  V30 3752 H 351.462 2.11 0.243489 0
M  V30 3753 H 353.725 0.932532 0.17055 0
M  V30 3754 H 353.431 3.30391 1.20561 0
M  V30 3755 H 353.305 2.54594 2.7832 0
M  V30 3756 H 355.692 1.60215 2.47821 0
M  V30 3757 H 355.773 2.39502 0.898459 0
M  V30 3758 H 355.417 4.65219 2.03799 0
M  V30 3759 H 355.347 3.82825 3.61597 0
M  V30 3760 H 357.838 3.00865 2.28667 0
M  V30 3761 H 358.151 6.51084 4.16305 0
M  V30 3762 H 356.496 5.85163 3.7498 0
M  V30 3763 H 359.687 3.77716 2.76493 0
M  V30 3764 H 359.86 5.37406 3.62076 0
M  V30 3765 N 353.266 -1.05314 1.17247 0
M  V30 3766 C 354.216 -2.11313 0.856196 0
M  V30 3767 C 355.2 -1.60013 -0.168694 0
M  V30 3768 O 356.392 -1.76968 0.0335624 0
M  V30 3769 C 353.521 -3.41301 0.369917 0
M  V30 3770 C 352.607 -3.99401 1.42616 0
M  V30 3771 N 352.998 -4.31481 2.63928 0
M  V30 3772 C 351.296 -4.27126 1.28373 0
M  V30 3773 C 351.997 -4.77799 3.31787 0
M  V30 3774 N 350.973 -4.77843 2.59166 0
M  V30 3775 H 354.775 -2.33976 1.77856 0
M  V30 3776 H 352.289 -1.2295 1.06099 0
M  V30 3777 H 354.286 -4.16713 0.124897 0
M  V30 3778 H 352.946 -3.20072 -0.546253 0
M  V30 3779 H 353.957 -4.21519 3.00902 0
M  V30 3780 H 350.634 -4.15289 0.429111 0
M  V30 3781 H 352.024 -5.11743 4.35395 0
M  V30 3782 N 354.744 -0.972509 -1.24016 0
M  V30 3783 C 355.969 -0.654417 -1.96805 0
M  V30 3784 C 356.394 0.770398 -1.716 0
M  V30 3785 O 355.752 1.52361 -0.982647 0
M  V30 3786 C 355.8 -0.941031 -3.48105 0
M  V30 3787 O 354.904 -0.0289472 -4.1239 0
M  V30 3788 H 354.245 -0.24692 -0.616382 0
M  V30 3789 H 356.775 -1.30396 -1.57664 0
M  V30 3790 H 356.785 -0.87452 -3.98517 0
M  V30 3791 H 355.46 -1.97939 -3.65777 0
M  V30 3792 H 354.037 -0.149192 -3.72601 0
M  V30 3793 N 356.222 1.38976 -0.743202 0
M  V30 3794 C 357.447 2.05161 -0.303936 0
M  V30 3795 C 357.872 1.55677 1.05576 0
M  V30 3796 O 357.23 0.704131 1.67068 0
M  V30 3797 C 357.278 3.59138 -0.324373 0
M  V30 3798 O 356.382 4.06668 0.685204 0
M  V30 3799 H 355.723 0.649815 -0.136518 0
M  V30 3800 H 358.253 1.77852 -1.01142 0
M  V30 3801 H 358.263 4.07639 -0.171618 0
M  V30 3802 H 356.938 3.94515 -1.31647 0
M  V30 3803 H 355.515 3.69561 0.497913 0
M  V30 3804 N 357.7 0.491464 1.49741 0
M  V30 3805 C 358.63 -0.28154 2.31796 0
M  V30 3806 C 359.611 -0.971473 1.3963 0
M  V30 3807 O 360.796 -0.964719 1.68543 0
M  V30 3808 C 357.926 -1.35203 3.19902 0
M  V30 3809 C 356.88 -0.782529 4.20786 0
M  V30 3810 C 356.206 -1.95283 4.97764 0
M  V30 3811 C 357.506 0.21999 5.21837 0
M  V30 3812 H 359.2 0.403355 2.96671 0
M  V30 3813 H 356.746 0.195425 1.42668 0
M  V30 3814 H 358.699 -1.90045 3.76113 0
M  V30 3815 H 357.423 -2.06598 2.52953 0
M  V30 3816 H 356.082 -0.255928 3.65706 0
M  V30 3817 H 355.73 -2.65423 4.2727 0
M  V30 3818 H 355.43 -1.57789 5.66018 0
M  V30 3819 H 356.954 -2.50577 5.56816 0
M  V30 3820 H 358.368 -0.23996 5.72798 0
M  V30 3821 H 356.765 0.51026 5.97927 0
M  V30 3822 H 357.835 1.13911 4.7133 0
M  V30 3823 N 359.178 -1.55987 0.224894 0
M  V30 3824 C 360.108 -2.23426 -0.678457 0
M  V30 3825 C 361.089 -1.20709 -1.19847 0
M  V30 3826 O 362.274 -1.49304 -1.24186 0
M  V30 3827 C 359.404 -2.91676 -1.88527 0
M  V30 3828 C 358.358 -4.00893 -1.49896 0
M  V30 3829 C 357.684 -4.56455 -2.78483 0
M  V30 3830 C 358.984 -5.17769 -0.686461 0
M  V30 3831 H 360.678 -2.99175 -0.116173 0
M  V30 3832 H 358.224 -1.43897 -0.054436 0
M  V30 3833 H 360.177 -3.37547 -2.5227 0
M  V30 3834 H 358.901 -2.1338 -2.47258 0
M  V30 3835 H 357.56 -3.55758 -0.884985 0
M  V30 3836 H 357.208 -3.74886 -3.35365 0
M  V30 3837 H 356.908 -5.30169 -2.53368 0
M  V30 3838 H 358.432 -5.05047 -3.43162 0
M  V30 3839 H 359.846 -5.60001 -1.22767 0
M  V30 3840 H 358.243 -5.97735 -0.532259 0
M  V30 3841 H 359.313 -4.83932 0.306196 0
M  V30 3842 N 360.656 0.0484629 -1.57525 0
M  V30 3843 C 361.896 0.748196 -1.90214 0
M  V30 3844 C 362.26 1.73545 -0.821347 0
M  V30 3845 O 363.461 2.48201 -1.03198 0
M  V30 3846 C 361.732 1.41727 -3.28098 0
M  V30 3847 S 363.291 2.14884 -3.82584 0
M  V30 3848 H 360.109 0.248307 -0.666232 0
M  V30 3849 H 362.711 0.00343188 -1.955 0
M  V30 3850 H 361.415 0.685244 -4.04639 0
M  V30 3851 H 360.946 2.20099 -3.26068 0
M  V30 3852 H 362.961 3.41755 -3.59747 0
M  V30 3853 N 362.134 1.5431 0.320358 0
M  V30 3854 C 363.064 1.86912 1.3995 0
M  V30 3855 C 364.045 0.726211 1.53819 0
M  V30 3856 O 365.23 0.980233 1.67646 0
M  V30 3857 C 362.36 2.09932 2.7667 0
M  V30 3858 C 361.314 3.25776 2.77586 0
M  V30 3859 C 360.64 3.34173 4.17412 0
M  V30 3860 C 361.94 4.6335 2.41048 0
M  V30 3861 H 363.634 2.77292 1.12914 0
M  V30 3862 H 361.18 1.33421 0.541738 0
M  V30 3863 H 363.133 2.31324 3.52232 0
M  V30 3864 H 361.857 1.16304 3.0519 0
M  V30 3865 H 360.516 3.04276 2.04479 0
M  V30 3866 H 360.164 2.38098 4.43078 0
M  V30 3867 H 359.864 4.12033 4.18931 0
M  V30 3868 H 361.388 3.57803 4.94782 0
M  V30 3869 H 362.802 4.84602 3.06324 0
M  V30 3870 H 361.199 5.43782 2.53813 0
M  V30 3871 H 362.269 4.65381 1.36193 0
M  V30 3872 N 363.613 -0.582584 1.46437 0
M  V30 3873 C 364.543 -1.70187 1.59871 0
M  V30 3874 C 365.524 -1.64066 0.449042 0
M  V30 3875 O 366.709 -1.82081 0.6753 0
M  V30 3876 C 363.839 -3.08827 1.58881 0
M  V30 3877 C 362.793 -3.29779 2.72819 0
M  V30 3878 C 362.119 -4.68947 2.5689 0
M  V30 3879 C 363.419 -3.17601 4.1464 0
M  V30 3880 H 365.113 -1.592 2.53566 0
M  V30 3881 H 362.659 -0.764472 1.22032 0
M  V30 3882 H 364.612 -3.86951 1.66873 0
M  V30 3883 H 363.336 -3.20713 0.617306 0
M  V30 3884 H 361.995 -2.54054 2.64296 0
M  V30 3885 H 361.643 -4.77599 1.57823 0
M  V30 3886 H 361.343 -4.83919 3.33312 0
M  V30 3887 H 362.867 -5.4924 2.66773 0
M  V30 3888 H 364.281 -3.8557 4.24274 0
M  V30 3889 H 362.678 -3.44094 4.9165 0
M  V30 3890 H 363.748 -2.14681 4.34788 0
M  V30 3891 N 365.091 -1.34144 -0.827227 0
M  V30 3892 C 366.337 -1.27455 -1.58515 0
M  V30 3893 C 366.692 0.155271 -1.91772 0
M  V30 3894 O 365.985 1.10042 -1.56848 0
M  V30 3895 C 366.179 -2.09464 -2.89585 0
M  V30 3896 C 366.008 -3.60276 -2.69131 0
M  V30 3897 C 364.778 -4.29565 -2.66087 0
M  V30 3898 C 366.976 -4.54367 -2.40947 0
M  V30 3899 N 364.958 -5.66252 -2.37132 0
M  V30 3900 C 366.329 -5.79027 -2.21648 0
M  V30 3901 C 368.384 -4.43327 -2.26639 0
M  V30 3902 C 367.087 -6.93891 -1.89492 0
M  V30 3903 C 369.113 -5.58019 -1.95878 0
M  V30 3904 C 368.475 -6.81695 -1.774 0
M  V30 3905 H 364.574 -0.521614 -0.582617 0
M  V30 3906 H 367.158 -1.68811 -0.970105 0
M  V30 3907 H 365.329 -1.70411 -3.49019 0
M  V30 3908 H 367.061 -1.94453 -3.54923 0
M  V30 3909 H 363.816 -3.81959 -2.80008 0
M  V30 3910 H 364.24 -6.38338 -2.25507 0
M  V30 3911 H 368.882 -3.48333 -2.39633 0
M  V30 3912 H 366.6 -7.88871 -1.75236 0
M  V30 3913 H 370.186 -5.5142 -1.85546 0
M  V30 3914 H 369.066 -7.68942 -1.53941 0
M  V30 3915 N 366.569 1.04691 -1.17803 0
M  V30 3916 C 367.985 1.29963 -0.926379 0
M  V30 3917 C 368.185 1.97251 0.411635 0
M  V30 3918 O 367.241 2.24922 1.14744 0
M  V30 3919 C 368.554 2.16447 -2.08737 0
M  V30 3920 C 370.102 2.29814 -2.12496 0
M  V30 3921 C 370.577 3.19661 -3.27995 0
M  V30 3922 N 372.068 3.27247 -3.27816 0
M  V30 3923 C 372.803 3.96906 -4.13827 0
M  V30 3924 N 372.299 4.6895 -5.09959 0
M  V30 3925 N 374.092 3.93122 -4.01761 0
M  V30 3926 H 366.243 0.594182 -2.0392 0
M  V30 3927 H 368.506 0.324649 -0.890678 0
M  V30 3928 H 368.212 1.74304 -3.05469 0
M  V30 3929 H 368.086 3.17103 -2.04268 0
M  V30 3930 H 370.473 2.71196 -1.16347 0
M  V30 3931 H 370.554 1.2877 -2.21025 0
M  V30 3932 H 370.198 2.78991 -4.24413 0
M  V30 3933 H 370.128 4.20722 -3.16703 0
M  V30 3934 H 372.619 2.75921 -2.58217 0
M  V30 3935 H 372.932 5.19679 -5.71974 0
M  V30 3936 H 371.277 4.67875 -5.13924 0
M  V30 3937 H 374.468 3.35967 -3.2595 0
M  V30 3938 H 374.641 4.47139 -4.6901 0
M  V30 3939 N 368.047 0.979072 1.23499 0
M  V30 3940 C 368.977 0.537606 2.27227 0
M  V30 3941 C 369.958 -0.428539 1.64613 0
M  V30 3942 O 371.143 -0.322191 1.91509 0
M  V30 3943 C 368.273 -0.162052 3.46922 0
M  V30 3944 C 367.227 0.721242 4.21879 0
M  V30 3945 C 366.553 -0.110555 5.34586 0
M  V30 3946 C 367.853 2.01141 4.82016 0
M  V30 3947 H 369.547 1.40462 2.64406 0
M  V30 3948 H 367.093 0.67684 1.27102 0
M  V30 3949 H 369.046 -0.482192 4.18632 0
M  V30 3950 H 367.77 -1.06351 3.08799 0
M  V30 3951 H 366.429 1.02482 3.51984 0
M  V30 3952 H 366.077 -1.0125 4.92704 0
M  V30 3953 H 365.777 0.477325 5.85658 0
M  V30 3954 H 367.301 -0.425107 6.09118 0
M  V30 3955 H 368.715 1.75612 5.45741 0
M  V30 3956 H 367.112 2.54695 5.43369 0
M  V30 3957 H 368.182 2.69909 4.02836 0
M  V30 3958 N 369.525 -1.3858 0.750561 0
M  V30 3959 C 370.772 -2.00184 0.305373 0
M  V30 3960 C 371.1 -1.59575 -1.11203 0
M  V30 3961 O 370.355 -0.823236 -1.77542 0
M  V30 3962 C 370.654 -3.55455 0.372373 0
M  V30 3963 C 370.32 -4.15765 1.745 0
M  V30 3964 C 368.982 -4.31951 2.12065 0
M  V30 3965 C 371.334 -4.49067 2.64553 0
M  V30 3966 C 368.662 -4.78734 3.39162 0
M  V30 3967 C 371.014 -4.97265 3.91038 0
M  V30 3968 C 369.678 -5.11658 4.28676 0
M  V30 3969 H 368.948 -0.732526 0.111744 0
M  V30 3970 H 371.595 -1.65673 0.960451 0
M  V30 3971 H 369.9 -3.90084 -0.366272 0
M  V30 3972 H 371.597 -4.00999 0.00953918 0
M  V30 3973 H 368.187 -4.03579 1.44297 0
M  V30 3974 H 372.371 -4.36166 2.36796 0
M  V30 3975 H 367.627 -4.88062 3.68246 0
M  V30 3976 H 371.801 -5.22003 4.60962 0
M  V30 3977 H 369.428 -5.47668 5.27222 0
M  V30 3978 N 371.003 -0.499398 -1.49478 0
M  V30 3979 C 372.228 0.044722 -2.07352 0
M  V30 3980 C 372.653 1.30207 -1.35749 0
M  V30 3981 O 372.011 1.76516 -0.413732 0
M  V30 3982 C 372.059 0.283013 -3.59488 0
M  V30 3983 O 371.163 1.35804 -3.89398 0
M  V30 3984 H 370.504 -0.0255147 -0.66351 0
M  V30 3985 H 373.034 -0.698561 -1.92305 0
M  V30 3986 H 373.044 0.515007 -4.04737 0
M  V30 3987 H 371.719 -0.635636 -4.11014 0
M  V30 3988 H 370.296 1.11113 -3.55961 0
M  V30 3989 N 372.481 1.55866 -0.233164 0
M  V30 3990 C 373.892 1.847 0.272554 0
M  V30 3991 C 374.243 1.15477 1.58617 0
M  V30 3992 O 373.368 0.42841 2.12117 0
M  V30 3993 C 373.963 3.35071 0.501299 0
M  V30 3994 C 372.522 3.6418 0.951304 0
M  V30 3995 C 371.669 2.77292 0.0208209 0
M  V30 3996 H 374.62 1.52005 -0.456074 0
M  V30 3997 H 374.641 3.55906 1.34577 0
M  V30 3998 H 374.153 3.85424 -0.454936 0
M  V30 3999 H 372.254 3.19293 1.92049 0
M  V30 4000 H 372.367 4.72071 0.817675 0
M  V30 4001 H 370.731 2.49131 0.529723 0
M  V30 4002 H 371.514 3.30448 -0.93054 0
M  V30 4003 N 373.959 -0.0401083 1.57549 0
M  V30 4004 C 375.206 -0.733125 1.88763 0
M  V30 4005 C 375.534 -1.75946 0.829058 0
M  V30 4006 O 374.789 -1.94949 -0.171323 0
M  V30 4007 C 375.088 -1.44902 3.26708 0
M  V30 4008 C 374.754 -0.559707 4.47413 0
M  V30 4009 C 373.416 -0.314731 4.8017 0
M  V30 4010 C 375.768 0.0549743 5.21171 0
M  V30 4011 C 373.096 0.553886 5.8408 0
M  V30 4012 C 375.448 0.911229 6.26003 0
M  V30 4013 C 374.112 1.16577 6.57241 0
M  V30 4014 H 373.382 -0.268269 0.690733 0
M  V30 4015 H 376.029 0.00679408 1.91499 0
M  V30 4016 H 374.334 -2.26197 3.1991 0
M  V30 4017 H 376.031 -1.99058 3.48105 0
M  V30 4018 H 372.621 -0.760793 4.21794 0
M  V30 4019 H 376.805 -0.121344 4.96152 0
M  V30 4020 H 372.061 0.759518 6.06664 0
M  V30 4021 H 376.235 1.3941 6.82303 0
M  V30 4022 H 373.862 1.84058 7.37582 0
M  V30 4023 N 375.437 -1.54477 -0.31217 0
M  V30 4024 C 376.683 -1.73483 -1.0503 0
M  V30 4025 C 377.016 -0.513125 -1.87298 0
M  V30 4026 O 376.291 0.489864 -1.8823 0
M  V30 4027 C 376.574 -3.01723 -1.96558 0
M  V30 4028 C 376.427 -4.3417 -1.17545 0
M  V30 4029 C 377.746 -3.25772 -2.95907 0
M  V30 4030 H 374.865 -0.631222 -0.380432 0
M  V30 4031 H 377.507 -1.87184 -0.325932 0
M  V30 4032 H 375.657 -2.90174 -2.58324 0
M  V30 4033 H 377.329 -4.5762 -0.581513 0
M  V30 4034 H 375.572 -4.31159 -0.477925 0
M  V30 4035 H 376.243 -5.20143 -1.84811 0
M  V30 4036 H 378.719 -3.36857 -2.44267 0
M  V30 4037 H 377.595 -4.16838 -3.57123 0
M  V30 4038 H 377.856 -2.43537 -3.68974 0
M  V30 4039 N 376.915 0.57481 -1.46744 0
M  V30 4040 C 377.862 1.68329 -1.57905 0
M  V30 4041 C 378.832 1.60625 -0.422927 0
M  V30 4042 O 380.017 1.79721 -0.640711 0
M  V30 4043 C 377.157 3.06665 -1.58274 0
M  V30 4044 C 376.27 3.24935 -2.84678 0
M  V30 4045 C 375.405 4.53566 -2.76499 0
M  V30 4046 C 374.444 4.65207 -3.97806 0
M  V30 4047 N 373.581 5.85172 -3.87967 0
M  V30 4048 H 378.421 1.58127 -2.52587 0
M  V30 4049 H 375.958 0.770552 -1.25303 0
M  V30 4050 H 377.916 3.86745 -1.56473 0
M  V30 4051 H 376.546 3.15745 -0.671194 0
M  V30 4052 H 375.598 2.38405 -2.96424 0
M  V30 4053 H 376.91 3.29403 -3.7456 0
M  V30 4054 H 376.064 5.41885 -2.72848 0
M  V30 4055 H 374.803 4.51548 -1.8427 0
M  V30 4056 H 373.808 3.75304 -4.0178 0
M  V30 4057 H 375.033 4.68997 -4.9114 0
M  V30 4058 H 372.979 5.84137 -2.98529 0
M  V30 4059 H 372.896 5.90943 -4.71511 0
M  V30 4060 H 374.164 6.759 -3.88303 0
M  V30 4061 N 378.394 1.34581 0.820102 0
M  V30 4062 C 379.622 1.3018 1.60813 0
M  V30 4063 C 380.037 -0.123551 1.88395 0
M  V30 4064 O 379.394 -1.07148 1.47735 0
M  V30 4065 C 379.445 2.09312 2.94739 0
M  V30 4066 O 379.166 3.46288 2.68358 0
M  V30 4067 C 380.667 2.1234 3.89136 0
M  V30 4068 H 377.887 0.447726 0.499782 0
M  V30 4069 H 380.431 1.77237 1.02017 0
M  V30 4070 H 378.586 1.65889 3.50085 0
M  V30 4071 H 379 3.87227 3.53774 0
M  V30 4072 H 380.474 2.72126 4.80262 0
M  V30 4073 H 380.951 1.11854 4.24718 0
M  V30 4074 H 381.557 2.55864 3.39726 0
M  V30 4075 N 379.872 -1.04064 1.18357 0
M  V30 4076 C 380.835 -2.10243 0.912707 0
M  V30 4077 C 381.835 -1.60477 -0.101928 0
M  V30 4078 O 383.025 -1.73703 0.131517 0
M  V30 4079 C 380.157 -3.38893 0.369387 0
M  V30 4080 H 381.35 -2.35706 1.85426 0
M  V30 4081 H 378.903 -1.20489 0.995594 0
M  V30 4082 H 379.638 -3.19094 -0.578776 0
M  V30 4083 H 379.423 -3.76331 1.1008 0
M  V30 4084 H 380.913 -4.17128 0.198575 0
M  V30 4085 N 381.35 -0.985608 -1.22978 0
M  V30 4086 C 382.766 -0.695104 -1.43668 0
M  V30 4087 C 382.966 0.736866 -1.87543 0
M  V30 4088 O 382.022 1.50868 -2.02473 0
M  V30 4089 C 383.335 -1.69447 -2.48412 0
M  V30 4090 C 384.883 -1.70909 -2.62219 0
M  V30 4091 C 385.358 -2.6969 -3.70178 0
M  V30 4092 N 386.849 -2.6824 -3.77626 0
M  V30 4093 C 387.584 -3.41339 -4.60733 0
M  V30 4094 N 387.08 -4.24015 -5.4789 0
M  V30 4095 N 388.873 -3.30079 -4.54977 0
M  V30 4096 H 381.024 -1.91054 -0.928016 0
M  V30 4097 H 383.287 -0.823553 -0.469536 0
M  V30 4098 H 382.993 -2.7188 -2.23102 0
M  V30 4099 H 382.867 -1.48147 -3.46889 0
M  V30 4100 H 385.254 -0.691785 -2.86877 0
M  V30 4101 H 385.335 -1.96276 -1.6404 0
M  V30 4102 H 384.979 -3.71566 -3.46268 0
M  V30 4103 H 384.909 -2.41595 -4.67909 0
M  V30 4104 H 387.4 -2.08243 -3.15346 0
M  V30 4105 H 387.713 -4.76636 -6.08308 0
M  V30 4106 H 386.058 -4.28104 -5.47496 0
M  V30 4107 H 389.249 -2.64937 -3.85909 0
M  V30 4108 H 389.422 -3.87308 -5.19516 0
M  V30 4109 N 382.828 1.3818 -0.7579 0
M  V30 4110 C 383.738 2.3421 -0.135247 0
M  V30 4111 C 384.754 1.59487 0.695683 0
M  V30 4112 O 385.93 1.91657 0.618832 0
M  V30 4113 C 382.995 3.3862 0.744139 0
M  V30 4114 C 382.056 4.2918 -0.101658 0
M  V30 4115 C 381.289 5.28603 0.735851 0
M  V30 4116 O 381.512 5.35166 1.97366 0
M  V30 4117 O 380.446 6.01707 0.152372 0
M  V30 4118 H 384.272 2.8916 -0.928436 0
M  V30 4119 H 381.857 1.40101 -0.518855 0
M  V30 4120 H 383.739 4.02539 1.2466 0
M  V30 4121 H 382.414 2.86019 1.51575 0
M  V30 4122 H 381.321 3.68407 -0.650167 0
M  V30 4123 H 382.654 4.85048 -0.836024 0
M  V30 4124 N 384.306 0.507319 1.49211 0
M  V30 4125 C 385.554 -0.0348839 2.0207 0
M  V30 4126 C 385.875 -1.36898 1.38866 0
M  V30 4127 O 385.145 -1.88133 0.546151 0
M  V30 4128 H 383.725 -0.0158812 0.746831 0
M  V30 4129 H 386.387 0.665998 1.83168 0
M  V30 4130 H 385.483 -0.159917 3.1169 0
M  V30 4131 N 385.784 -1.5574 0.241426 0
M  V30 4132 C 386.747 -2.19877 -0.647063 0
M  V30 4133 C 387.747 -1.16642 -1.10686 0
M  V30 4134 O 388.937 -1.41757 -1.01245 0
M  V30 4135 C 386.069 -2.83797 -1.88871 0
M  V30 4136 H 387.262 -2.99772 -0.087574 0
M  V30 4137 H 384.815 -1.56298 -0.00813574 0
M  V30 4138 H 385.55 -2.07824 -2.48957 0
M  V30 4139 H 385.335 -3.59414 -1.56728 0
M  V30 4140 H 386.825 -3.32898 -2.52129 0
M  V30 4141 N 387.262 0.0317525 -1.57568 0
M  V30 4142 C 388.194 1.06073 -2.03178 0
M  V30 4143 C 389.207 1.32627 -0.944132 0
M  V30 4144 O 390.396 1.30162 -1.22148 0
M  V30 4145 C 387.496 2.40297 -2.38978 0
M  V30 4146 C 386.669 2.33137 -3.70089 0
M  V30 4147 C 385.728 3.49787 -3.9311 0
M  V30 4148 O 384.754 3.29403 -4.64201 0
M  V30 4149 N 385.956 4.71562 -3.38541 0
M  V30 4150 H 388.721 0.672006 -2.92069 0
M  V30 4151 H 386.282 0.219745 -1.60402 0
M  V30 4152 H 388.274 3.1705 -2.51518 0
M  V30 4153 H 386.844 2.71024 -1.55771 0
M  V30 4154 H 386.064 1.415 -3.67928 0
M  V30 4155 H 387.352 2.25493 -4.56104 0
M  V30 4156 H 386.75 4.91024 -2.80912 0
M  V30 4157 H 385.307 5.45689 -3.56464 0
M  V30 4158 N 388.74 1.54641 0.303973 0
M  V30 4159 C 389.968 1.77768 1.05858 0
M  V30 4160 C 390.383 0.535722 1.8104 0
M  V30 4161 O 389.74 -0.494337 1.75677 0
M  V30 4162 C 389.791 2.9834 2.04146 0
M  V30 4163 O 389.512 4.17736 1.32015 0
M  V30 4164 C 391.013 3.33832 2.91669 0
M  V30 4165 H 388.233 0.592961 0.314067 0
M  V30 4166 H 390.777 2.01583 0.344149 0
M  V30 4167 H 388.932 2.76742 2.71096 0
M  V30 4168 H 389.346 4.85693 1.97998 0
M  V30 4169 H 390.82 4.21448 3.56491 0
M  V30 4170 H 391.297 2.51857 3.59812 0
M  V30 4171 H 391.903 3.57579 2.30254 0
M  V30 4172 N 390.218 -0.567019 1.47046 0
M  V30 4173 C 391.443 -1.3551 1.57009 0
M  V30 4174 C 391.868 -1.86841 0.217259 0
M  V30 4175 O 391.226 -1.62435 -0.805268 0
M  V30 4176 C 391.274 -2.50777 2.5912 0
M  V30 4177 O 390.378 -3.52706 2.13711 0
M  V30 4178 H 389.719 -0.402919 0.52778 0
M  V30 4179 H 392.249 -0.686241 1.92748 0
M  V30 4180 H 392.259 -2.97481 2.79229 0
M  V30 4181 H 390.934 -2.12771 3.57353 0
M  V30 4182 H 389.511 -3.12374 2.03659 0
M  V30 4183 N 391.696 -1.35014 -0.812953 0
M  V30 4184 C 392.626 -1.30069 -1.93919 0
M  V30 4185 C 393.607 -0.176275 -1.69184 0
M  V30 4186 O 394.792 -0.370227 -1.90638 0
M  V30 4187 C 391.922 -1.06547 -3.30552 0
M  V30 4188 C 390.876 -2.15561 -3.69753 0
M  V30 4189 C 390.202 -1.77214 -5.04479 0
M  V30 4190 C 391.502 -3.57476 -3.808 0
M  V30 4191 H 393.196 -2.24303 -1.98314 0
M  V30 4192 H 390.742 -1.07977 -0.952736 0
M  V30 4193 H 392.695 -1.01729 -4.08937 0
M  V30 4194 H 391.419 -0.0875719 -3.26483 0
M  V30 4195 H 390.078 -2.19466 -2.9365 0
M  V30 4196 H 389.726 -0.780589 -4.96906 0
M  V30 4197 H 389.426 -2.50184 -5.31678 0
M  V30 4198 H 390.95 -1.7391 -5.8531 0
M  V30 4199 H 392.364 -3.55929 -4.4943 0
M  V30 4200 H 390.761 -4.29152 -4.19462 0
M  V30 4201 H 391.831 -3.94091 -2.82525 0
M  V30 4202 N 393.175 1.03435 -1.18907 0
M  V30 4203 C 394.125 2.09924 -0.889706 0
M  V30 4204 C 395.109 1.60261 0.143216 0
M  V30 4205 O 396.301 1.76892 -0.0617122 0
M  V30 4206 C 393.43 3.40669 -0.424168 0
M  V30 4207 C 392.516 3.97082 -1.48952 0
M  V30 4208 N 392.907 4.27227 -2.70759 0
M  V30 4209 C 391.205 4.25029 -1.35152 0
M  V30 4210 C 391.906 4.7246 -3.39347 0
M  V30 4211 N 390.882 4.7366 -2.66735 0
M  V30 4212 H 394.684 2.31116 -1.81555 0
M  V30 4213 H 392.198 1.21246 -1.08042 0
M  V30 4214 H 394.195 4.16461 -0.191176 0
M  V30 4215 H 392.855 3.20901 0.495263 0
M  V30 4216 H 393.866 4.16678 -3.0757 0
M  V30 4217 H 390.543 4.14554 -0.495126 0
M  V30 4218 H 391.933 5.04751 -4.43481 0
M  V30 4219 N 394.653 0.992116 1.22453 0
M  V30 4220 C 395.893 0.675727 1.92907 0
M  V30 4221 C 396.257 -0.777762 1.75542 0
M  V30 4222 O 397.458 -1.20553 2.40251 0
M  V30 4223 C 395.729 1.0696 3.4102 0
M  V30 4224 S 397.288 0.871456 4.30059 0
M  V30 4225 H 394.106 0.247089 0.666684 0
M  V30 4226 H 396.708 1.27423 1.48269 0
M  V30 4227 H 395.412 2.12383 3.51172 0
M  V30 4228 H 394.943 0.462858 3.90668 0
M  V30 4229 H 396.958 -0.238436 4.95627 0
M  V30 4230 N 396.131 -1.37776 0.765217 0
M  V30 4231 C 397.094 -2.28686 0.153416 0
M  V30 4232 C 398.094 -1.47727 -0.635081 0
M  V30 4233 O 399.284 -1.68027 -0.459632 0
M  V30 4234 C 396.416 -3.31608 -0.790495 0
M  V30 4235 H 397.609 -2.84297 0.954723 0
M  V30 4236 H 395.162 -1.46932 0.53299 0
M  V30 4237 H 395.897 -2.81109 -1.61705 0
M  V30 4238 H 395.682 -3.9144 -0.227348 0
M  V30 4239 H 397.172 -3.99559 -1.21419 0
M  V30 4240 N 397.609 -0.515225 -1.4894 0
M  V30 4241 C 398.539 0.244628 -2.32215 0
M  V30 4242 C 399.52 0.949136 -1.41157 0
M  V30 4243 O 400.705 0.937783 -1.70057 0
M  V30 4244 C 397.835 1.30096 -3.22013 0
M  V30 4245 C 396.789 0.715486 -4.21977 0
M  V30 4246 C 396.115 1.87339 -5.00808 0
M  V30 4247 C 397.415 -0.302982 -5.2142 0
M  V30 4248 H 399.109 -0.450501 -2.95991 0
M  V30 4249 H 396.655 -0.218098 -1.42339 0
M  V30 4250 H 398.608 1.84037 -3.79089 0
M  V30 4251 H 397.332 2.02547 -2.56207 0
M  V30 4252 H 395.991 0.197715 -3.66066 0
M  V30 4253 H 395.639 2.58592 -4.31438 0
M  V30 4254 H 395.339 1.48764 -5.68457 0
M  V30 4255 H 396.863 2.41686 -5.60732 0
M  V30 4256 H 398.277 0.148802 -5.73107 0
M  V30 4257 H 396.674 -0.60532 -5.97039 0
M  V30 4258 H 397.744 -1.21395 -4.69459 0
M  V30 4259 N 399.087 1.5561 -0.249682 0
M  V30 4260 C 400.05 2.20217 0.635394 0
M  V30 4261 C 401.05 1.17227 1.10066 0
M  V30 4262 O 402.24 1.42292 1.00492 0
M  V30 4263 C 399.372 2.84794 1.87363 0
M  V30 4264 H 400.565 2.99814 0.0716752 0
M  V30 4265 H 398.118 1.563 -0.000153234 0
M  V30 4266 H 398.853 2.09142 2.47851 0
M  V30 4267 H 398.638 3.60241 1.5482 0
M  V30 4268 H 400.128 3.3423 2.5036 0
M  V30 4269 N 400.565 -0.0233959 1.57583 0
M  V30 4270 C 401.475 -1.03907 2.10334 0
M  V30 4271 C 402.491 -1.39257 1.04323 0
M  V30 4272 O 403.667 -1.48462 1.36091 0
M  V30 4273 C 400.732 -2.31938 2.57693 0
M  V30 4274 C 399.793 -2.03117 3.78209 0
M  V30 4275 C 399.026 -3.25043 4.233 0
M  V30 4276 O 399.249 -4.35916 3.67876 0
M  V30 4277 O 398.183 -3.10411 5.15683 0
M  V30 4278 H 402.009 -0.620748 2.97288 0
M  V30 4279 H 399.594 -0.240743 1.47448 0
M  V30 4280 H 401.476 -3.07196 2.88458 0
M  V30 4281 H 400.151 -2.73055 1.73847 0
M  V30 4282 H 399.058 -1.25408 3.52454 0
M  V30 4283 H 400.391 -1.66852 4.63056 0
M  V30 4284 N 402.043 -1.548 -0.295768 0
M  V30 4285 C 403.291 -1.73985 -1.02828 0
M  V30 4286 C 403.612 -0.531406 -1.87619 0
M  V30 4287 O 402.882 0.454221 -1.90561 0
M  V30 4288 H 401.462 -0.641556 -0.382642 0
M  V30 4289 H 404.124 -1.92163 -0.325489 0
M  V30 4290 H 403.22 -2.63129 -1.67838 0
M  V30 4291 N 403.521 0.559213 -1.47345 0
M  V30 4292 C 404.451 1.67622 -1.62558 0
M  V30 4293 C 405.432 1.63331 -0.475087 0
M  V30 4294 O 406.617 1.80983 -0.704182 0
M  V30 4295 C 403.747 3.0626 -1.63774 0
M  V30 4296 C 402.701 3.25397 -2.7803 0
M  V30 4297 C 402.027 4.64801 -2.64318 0
M  V30 4298 C 403.327 3.10965 -4.19641 0
M  V30 4299 H 405.021 1.55146 -2.56067 0
M  V30 4300 H 402.567 0.744961 -1.23233 0
M  V30 4301 H 404.52 3.84247 -1.73008 0
M  V30 4302 H 403.244 3.1969 -0.66825 0
M  V30 4303 H 401.903 2.49817 -2.68304 0
M  V30 4304 H 401.551 4.75028 -1.65401 0
M  V30 4305 H 401.251 4.78555 -3.40968 0
M  V30 4306 H 402.775 5.44926 -2.75478 0
M  V30 4307 H 404.189 3.78772 -4.30354 0
M  V30 4308 H 402.586 3.36229 -4.97062 0
M  V30 4309 H 403.656 2.07736 -4.38148 0
M  V30 4310 N 404.999 1.35443 0.805782 0
M  V30 4311 C 405.909 1.30546 1.94923 0
M  V30 4312 C 406.925 0.210233 1.72725 0
M  V30 4313 O 408.101 0.43975 1.9654 0
M  V30 4314 C 405.166 1.07782 3.29521 0
M  V30 4315 C 404.227 2.26625 3.64609 0
M  V30 4316 C 403.46 2.04938 4.92784 0
M  V30 4317 O 403.683 1.01624 5.61274 0
M  V30 4318 O 402.617 2.9232 5.26149 0
M  V30 4319 H 406.443 2.26779 2.02002 0
M  V30 4320 H 404.028 1.15823 0.943682 0
M  V30 4321 H 405.91 0.969392 4.10098 0
M  V30 4322 H 404.585 0.146003 3.23371 0
M  V30 4323 H 403.492 2.43033 2.84404 0
M  V30 4324 H 404.825 3.18257 3.75464 0
M  V30 4325 N 406.477 -1.02803 1.19454 0
M  V30 4326 C 407.888 -1.57667 0.999899 0
M  V30 4327 C 408.239 -1.91041 -0.446956 0
M  V30 4328 O 407.364 -1.70978 -1.32648 0
M  V30 4329 C 407.959 -2.86477 1.80877 0
M  V30 4330 C 406.518 -3.37911 1.65811 0
M  V30 4331 C 405.665 -2.11343 1.79526 0
M  V30 4332 H 408.616 -0.853214 1.33813 0
M  V30 4333 H 408.637 -3.57408 1.30536 0
M  V30 4334 H 408.149 -2.62155 2.86175 0
M  V30 4335 H 406.25 -3.67218 0.63102 0
M  V30 4336 H 406.363 -4.10885 2.46395 0
M  V30 4337 H 404.727 -2.23254 1.22596 0
M  V30 4338 H 405.51 -1.89461 2.86285 0
M  V30 4339 N 407.956 -0.998596 -1.21925 0
M  V30 4340 C 408.886 -0.573688 -2.26343 0
M  V30 4341 C 409.867 0.402296 -1.65274 0
M  V30 4342 O 411.052 0.291683 -1.91997 0
M  V30 4343 C 408.182 0.106839 -3.47136 0
M  V30 4344 C 407.136 -0.788269 -4.20678 0
M  V30 4345 C 406.462 0.0254927 -5.34694 0
M  V30 4346 C 407.762 -2.08784 -4.78755 0
M  V30 4347 H 409.456 -1.44651 -2.62138 0
M  V30 4348 H 407.002 -0.696975 -1.26009 0
M  V30 4349 H 408.955 0.415531 -4.19346 0
M  V30 4350 H 407.679 1.01424 -3.10452 0
M  V30 4351 H 406.338 -1.08069 -3.50309 0
M  V30 4352 H 405.986 0.933989 -4.94253 0
M  V30 4353 H 405.686 -0.570437 -5.84825 0
M  V30 4354 H 407.21 0.328147 -6.09718 0
M  V30 4355 H 408.624 -1.84272 -5.42878 0
M  V30 4356 H 407.021 -2.63307 -5.39249 0
M  V30 4357 H 408.091 -2.76284 -3.98491 0
M  V30 4358 N 409.434 1.37368 -0.772513 0
M  V30 4359 C 410.659 2.0447 -0.347386 0
M  V30 4360 C 411.084 1.57882 1.0225 0
M  V30 4361 O 410.442 0.73941 1.65537 0
M  V30 4362 C 410.49 3.58369 -0.400479 0
M  V30 4363 O 409.594 4.0803 0.598789 0
M  V30 4364 H 408.935 0.646773 -0.15027 0
M  V30 4365 H 411.465 1.75667 -1.04892 0
M  V30 4366 H 411.475 4.07183 -0.258045 0
M  V30 4367 H 410.15 3.91633 -1.39986 0
M  V30 4368 H 408.727 3.70534 0.419411 0
M  V30 4369 N 410.912 0.523116 1.48665 0
M  V30 4370 C 412.16 -0.0134497 2.02096 0
M  V30 4371 C 412.481 -1.35418 1.40311 0
M  V30 4372 O 411.751 -1.87543 0.566074 0
M  V30 4373 H 410.331 -0.00795915 0.746958 0
M  V30 4374 H 412.993 0.685388 1.82451 0
M  V30 4375 H 412.089 -0.126849 3.11842 0
M  V30 4376 N 412.39 -1.55475 0.257931 0
M  V30 4377 C 413.337 -2.21837 -0.636939 0
M  V30 4378 C 414.307 -1.18596 -1.16294 0
M  V30 4379 O 415.492 -1.47081 -1.21539 0
M  V30 4380 C 412.632 -2.9301 -1.82317 0
M  V30 4381 C 411.745 -4.10931 -1.33265 0
M  V30 4382 C 410.88 -4.69791 -2.47931 0
M  V30 4383 C 409.919 -5.7994 -1.95796 0
M  V30 4384 N 409.056 -6.32935 -3.0387 0
M  V30 4385 H 413.896 -2.9793 -0.0643591 0
M  V30 4386 H 411.433 -1.47086 -0.0200031 0
M  V30 4387 H 413.391 -3.3248 -2.52018 0
M  V30 4388 H 412.021 -2.1937 -2.36805 0
M  V30 4389 H 411.073 -3.76699 -0.52931 0
M  V30 4390 H 412.385 -4.90417 -0.910654 0
M  V30 4391 H 411.539 -5.11892 -3.25656 0
M  V30 4392 H 410.278 -3.89545 -2.93438 0
M  V30 4393 H 409.283 -5.37305 -1.16546 0
M  V30 4394 H 410.508 -6.62043 -1.51246 0
M  V30 4395 H 408.454 -5.55591 -3.48791 0
M  V30 4396 H 408.371 -7.07645 -2.66035 0
M  V30 4397 H 409.639 -6.79695 -3.81621 0
M  V30 4398 N 413.868 0.0150385 -1.57593 0
M  V30 4399 C 415.098 0.713359 -1.93894 0
M  V30 4400 C 415.506 1.68663 -0.857289 0
M  V30 4401 O 414.849 1.82876 0.173788 0
M  V30 4402 C 414.911 1.51348 -3.26089 0
M  V30 4403 C 414.575 0.703451 -4.51554 0
M  V30 4404 C 415.572 -0.00237924 -5.199 0
M  V30 4405 C 413.257 0.653854 -4.98026 0
M  V30 4406 C 415.251 -0.746955 -6.33008 0
M  V30 4407 C 412.938 -0.0944578 -6.11027 0
M  V30 4408 C 413.936 -0.793609 -6.78374 0
M  V30 4409 O 413.624 -1.52974 -7.89211 0
M  V30 4410 H 413.356 0.204637 -0.644282 0
M  V30 4411 H 415.91 -0.0276411 -2.05381 0
M  V30 4412 H 414.14 2.29862 -3.10967 0
M  V30 4413 H 415.829 2.09572 -3.47612 0
M  V30 4414 H 416.595 0.0268803 -4.84993 0
M  V30 4415 H 412.474 1.18756 -4.45441 0
M  V30 4416 H 416.018 -1.2932 -6.85509 0
M  V30 4417 H 411.915 -0.125591 -6.45378 0
M  V30 4418 H 412.683 -1.44488 -8.05646 0
M  V30 4419 N 415.346 1.54954 0.287554 0
M  V30 4420 C 416.593 1.74873 1.02106 0
M  V30 4421 C 416.921 0.541829 1.86801 0
M  V30 4422 O 416.176 -0.475992 1.89823 0
M  V30 4423 C 416.475 2.99833 1.94512 0
M  V30 4424 C 416.141 4.33029 1.25686 0
M  V30 4425 C 414.803 4.69233 1.06649 0
M  V30 4426 C 417.155 5.15542 0.765913 0
M  V30 4427 C 414.483 5.85518 0.372222 0
M  V30 4428 C 416.835 6.32542 0.0853101 0
M  V30 4429 C 415.499 6.67398 -0.1169 0
M  V30 4430 H 414.769 0.639906 0.373632 0
M  V30 4431 H 417.416 1.89219 0.294665 0
M  V30 4432 H 415.721 2.80325 2.73725 0
M  V30 4433 H 417.418 3.1244 2.51361 0
M  V30 4434 H 414.008 4.04564 1.41512 0
M  V30 4435 H 418.192 4.88059 0.90066 0
M  V30 4436 H 413.448 6.11057 0.204695 0
M  V30 4437 H 417.622 6.95741 -0.302936 0
M  V30 4438 H 415.249 7.57357 -0.656859 0
M  V30 4439 N 416.824 -0.551391 1.4764 0
M  V30 4440 C 418.049 -1.33837 1.58437 0
M  V30 4441 C 418.474 -1.866 0.237063 0
M  V30 4442 O 417.832 -1.6328 -0.787994 0
M  V30 4443 C 417.88 -2.48014 2.61766 0
M  V30 4444 O 416.984 -3.50419 2.1744 0
M  V30 4445 H 416.325 -0.397299 0.532024 0
M  V30 4446 H 418.855 -0.665759 1.93465 0
M  V30 4447 H 418.865 -2.94503 2.82369 0
M  V30 4448 H 417.54 -2.08969 3.5959 0
M  V30 4449 H 416.117 -3.10196 2.06961 0
M  V30 4450 N 418.302 -1.35869 -0.798587 0
M  V30 4451 C 419.579 -1.20145 -1.54352 0
M  V30 4452 C 419.959 0.216161 -2.0999 0
M  V30 4453 O 419.307 1.22068 -1.93162 0
M  V30 4454 C 419.517 -2.27602 -2.64572 0
M  V30 4455 C 420.865 -2.63811 -3.32699 0
M  V30 4456 O 421.889 -2.26576 -2.74849 0
M  V30 4457 O 420.748 -3.27866 -4.37226 0
M  V30 4458 H 417.842 -0.467248 -0.682355 0
M  V30 4459 H 420.388 -1.47574 -0.837859 0
M  V30 4460 H 419.16 -3.2265 -2.21388 0
M  V30 4461 H 418.783 -2.01488 -3.42766 0
M  V30 4462 N 419.78 1.02168 -1.19998 0
M  V30 4463 C 421.02 1.77232 -1.01825 0
M  V30 4464 C 421.384 1.86833 0.442428 0
M  V30 4465 O 422.585 2.58293 0.744189 0
M  V30 4466 C 420.856 3.15601 -1.67722 0
M  V30 4467 S 422.415 4.06765 -1.64584 0
M  V30 4468 H 419.233 0.610021 -0.365233 0
M  V30 4469 H 421.835 1.22368 -1.52467 0
M  V30 4470 H 420.539 3.06235 -2.73218 0
M  V30 4471 H 420.07 3.7554 -1.17189 0
M  V30 4472 H 422.085 4.91586 -0.67511 0
M  V30 4473 N 421.258 1.00505 1.21394 0
M  V30 4474 C 422.205 0.565496 2.23765 0
M  V30 4475 C 423.175 -0.408466 1.60999 0
M  V30 4476 O 424.36 -0.310503 1.88257 0
M  V30 4477 C 421.5 -0.101667 3.4495 0
M  V30 4478 C 420.613 0.915479 4.22188 0
M  V30 4479 C 419.748 0.220574 5.30742 0
M  V30 4480 C 418.787 1.22527 5.99711 0
M  V30 4481 N 417.924 0.557831 6.9988 0
M  V30 4482 H 422.764 1.44314 2.60725 0
M  V30 4483 H 420.301 0.722643 1.28126 0
M  V30 4484 H 422.259 -0.505504 4.14126 0
M  V30 4485 H 420.889 -0.94303 3.08718 0
M  V30 4486 H 419.941 1.43756 3.52191 0
M  V30 4487 H 421.253 1.68005 4.69655 0
M  V30 4488 H 420.407 -0.239368 6.06228 0
M  V30 4489 H 419.146 -0.576401 4.84282 0
M  V30 4490 H 418.151 1.69571 5.22997 0
M  V30 4491 H 419.376 2.02332 6.48258 0
M  V30 4492 H 417.322 -0.219486 6.55633 0
M  V30 4493 H 417.239 1.26065 7.45415 0
M  V30 4494 H 418.507 0.121095 7.79406 0
M  V30 4495 N 422.737 -1.36956 0.779787 0
M  V30 4496 C 424.153 -1.52817 0.460342 0
M  V30 4497 C 424.353 -1.7361 -1.02283 0
M  V30 4498 O 423.409 -1.76207 -1.80852 0
M  V30 4499 C 424.722 -2.71983 1.28241 0
M  V30 4500 C 426.27 -2.85849 1.27512 0
M  V30 4501 C 426.745 -4.08008 2.08072 0
M  V30 4502 N 428.236 -4.15135 2.05467 0
M  V30 4503 C 428.971 -5.08711 2.64577 0
M  V30 4504 N 428.467 -6.07792 3.32506 0
M  V30 4505 N 430.26 -5.01254 2.54363 0
M  V30 4506 H 422.411 -1.21713 1.74068 0
M  V30 4507 H 424.674 -0.593294 0.739396 0
M  V30 4508 H 424.38 -2.63109 2.33381 0
M  V30 4509 H 424.254 -3.65882 0.917088 0
M  V30 4510 H 426.641 -2.94189 0.231686 0
M  V30 4511 H 426.722 -1.92886 1.68014 0
M  V30 4512 H 426.366 -4.00429 3.12441 0
M  V30 4513 H 426.296 -5.001 1.64947 0
M  V30 4514 H 428.787 -3.44189 1.5602 0
M  V30 4515 H 429.1 -6.75739 3.74963 0
M  V30 4516 H 427.445 -6.08047 3.36606 0
M  V30 4517 H 430.636 -4.22795 2.00902 0
M  V30 4518 H 430.809 -5.73995 3.00722 0
M  V30 4519 N 424.215 -0.530993 -1.48385 0
M  V30 4520 C 425.443 -0.00134122 -2.069 0
M  V30 4521 C 425.858 1.2805 -1.3874 0
M  V30 4522 O 425.215 1.76204 -0.475244 0
M  V30 4523 C 425.266 0.225256 -3.60798 0
M  V30 4524 O 424.987 -1.0058 -4.26398 0
M  V30 4525 C 426.488 0.795172 -4.3611 0
M  V30 4526 H 423.708 -0.0339704 -0.67014 0
M  V30 4527 H 426.252 -0.736926 -1.90761 0
M  V30 4528 H 424.407 0.910891 -3.76539 0
M  V30 4529 H 424.821 -0.787165 -5.1856 0
M  V30 4530 H 426.295 0.903143 -5.44562 0
M  V30 4531 H 426.772 1.80031 -4.00606 0
M  V30 4532 H 427.378 0.146069 -4.25049 0
M  V30 4533 N 425.693 1.55336 -0.266172 0
M  V30 4534 C 426.939 2.00423 0.346714 0
M  V30 4535 C 427.294 1.15132 1.54151 0
M  V30 4536 O 426.587 0.211289 1.90431 0
M  V30 4537 C 426.781 3.48606 0.787957 0
M  V30 4538 C 426.61 4.48236 -0.362535 0
M  V30 4539 C 425.38 4.98211 -0.843445 0
M  V30 4540 C 427.578 5.00199 -1.19603 0
M  V30 4541 N 425.56 5.81625 -1.96434 0
M  V30 4542 C 426.931 5.80973 -2.16497 0
M  V30 4543 C 428.986 4.82458 -1.2304 0
M  V30 4544 C 427.689 6.45896 -3.1656 0
M  V30 4545 C 429.715 5.48174 -2.21944 0
M  V30 4546 C 429.077 6.28751 -3.17571 0
M  V30 4547 H 425.176 0.776535 0.0922914 0
M  V30 4548 H 427.76 1.90792 -0.388154 0
M  V30 4549 H 425.931 3.58597 1.49207 0
M  V30 4550 H 427.663 3.80538 1.37742 0
M  V30 4551 H 424.418 4.71696 -0.424271 0
M  V30 4552 H 424.842 6.28025 -2.52813 0
M  V30 4553 H 429.484 4.19774 -0.504903 0
M  V30 4554 H 427.202 7.07734 -3.90048 0
M  V30 4555 H 430.788 5.36392 -2.25333 0
M  V30 4556 H 429.668 6.78703 -3.92851 0
M  V30 4557 N 427.171 -0.0066808 1.57599 0
M  V30 4558 C 428.417 -0.693947 1.90558 0
M  V30 4559 C 428.75 -1.73792 0.866594 0
M  V30 4560 O 428.025 -1.94156 -0.115548 0
M  V30 4561 C 428.308 -1.34317 3.34112 0
M  V30 4562 C 428.161 -0.311189 4.48722 0
M  V30 4563 C 429.48 -2.27116 3.7697 0
M  V30 4564 H 426.599 -0.250803 0.693013 0
M  V30 4565 H 429.241 0.043242 1.89951 0
M  V30 4566 H 427.391 -1.9715 3.3476 0
M  V30 4567 H 429.063 0.316944 4.6021 0
M  V30 4568 H 427.306 0.367253 4.32243 0
M  V30 4569 H 427.977 -0.804366 5.46108 0
M  V30 4570 H 430.453 -1.74306 3.77831 0
M  V30 4571 H 429.329 -2.69511 4.78179 0
M  V30 4572 H 429.59 -3.14743 3.10466 0
M  V30 4573 N 428.649 -1.55105 -0.279332 0
M  V30 4574 C 429.874 -1.7976 -1.03446 0
M  V30 4575 C 430.299 -0.565952 -1.79384 0
M  V30 4576 O 429.657 0.484259 -1.74713 0
M  V30 4577 C 429.705 -3.0179 -1.97371 0
M  V30 4578 O 428.809 -2.76432 -3.06038 0
M  V30 4579 H 428.15 -0.594334 -0.29608 0
M  V30 4580 H 430.68 -2.02235 -0.310165 0
M  V30 4581 H 430.69 -3.30351 -2.39441 0
M  V30 4582 H 429.365 -3.91085 -1.4151 0
M  V30 4583 H 427.942 -2.58949 -2.68328 0
M  V30 4584 N 430.127 0.543554 -1.4793 0
M  V30 4585 C 431.538 1.12561 -1.48953 0
M  V30 4586 C 431.889 1.94578 -0.251754 0
M  V30 4587 O 431.014 2.0665 0.642255 0
M  V30 4588 C 431.609 2.04801 -2.69892 0
M  V30 4589 C 430.168 2.58251 -2.73831 0
M  V30 4590 C 429.315 1.34918 -2.42265 0
M  V30 4591 H 432.266 0.32947 -1.55242 0
M  V30 4592 H 432.287 2.88886 -2.47639 0
M  V30 4593 H 431.799 1.4508 -3.59963 0
M  V30 4594 H 429.9 3.21732 -1.87934 0
M  V30 4595 H 430.013 2.98312 -3.74895 0
M  V30 4596 H 428.377 1.66046 -1.93134 0
M  V30 4597 H 429.16 0.769693 -3.3456 0
M  V30 4598 N 431.605 1.3629 0.791371 0
M  V30 4599 C 433.021 1.16661 1.08914 0
M  V30 4600 C 433.221 -0.0106266 2.01497 0
M  V30 4601 O 432.277 -0.676596 2.43266 0
M  V30 4602 C 433.59 2.47656 1.70549 0
M  V30 4603 C 435.138 2.54002 1.82899 0
M  V30 4604 C 435.613 3.85078 2.47949 0
M  V30 4605 N 437.104 3.86413 2.5542 0
M  V30 4606 C 437.839 4.84572 3.06557 0
M  V30 4607 N 437.335 5.93124 3.58016 0
M  V30 4608 N 439.128 4.71994 3.05251 0
M  V30 4609 H 431.279 2.11668 0.176238 0
M  V30 4610 H 433.542 0.937486 0.140796 0
M  V30 4611 H 433.248 3.34059 1.09989 0
M  V30 4612 H 433.122 2.63319 2.70079 0
M  V30 4613 H 435.509 1.68018 2.42598 0
M  V30 4614 H 435.59 2.42239 0.821808 0
M  V30 4615 H 435.234 4.71467 1.88895 0
M  V30 4616 H 435.164 3.94135 3.49235 0
M  V30 4617 H 437.655 3.07988 2.18979 0
M  V30 4618 H 437.968 6.63999 3.95381 0
M  V30 4619 H 436.313 5.96796 3.56173 0
M  V30 4620 H 439.504 3.86321 2.64336 0
M  V30 4621 H 439.677 5.48653 3.44796 0
M  V30 4622 N 433.083 -1.0153 1.20538 0
M  V30 4623 C 434.046 -2.0826 0.957098 0
M  V30 4624 C 435.046 -1.60657 -0.0678655 0
M  V30 4625 O 436.236 -1.73385 0.168332 0
M  V30 4626 C 433.368 -3.38033 0.441188 0
M  V30 4627 H 434.561 -2.31719 1.90384 0
M  V30 4628 H 432.114 -1.1835 1.02093 0
M  V30 4629 H 432.849 -3.20249 -0.510961 0
M  V30 4630 H 432.634 -3.73911 1.18038 0
M  V30 4631 H 434.124 -4.16613 0.287009 0
M  V30 4632 N 434.561 -1.01147 -1.20859 0
M  V30 4633 C 435.977 -0.725422 -1.42161 0
M  V30 4634 C 436.177 0.696919 -1.89064 0
M  V30 4635 O 435.233 1.46539 -2.05627 0
M  V30 4636 C 436.546 -1.74678 -2.44761 0
M  V30 4637 C 438.094 -1.76433 -2.58535 0
M  V30 4638 C 438.569 -2.77481 -3.64374 0
M  V30 4639 N 440.06 -2.76189 -3.71852 0
M  V30 4640 C 440.795 -3.51035 -4.53389 0
M  V30 4641 N 440.291 -4.35541 -5.38773 0
M  V30 4642 N 442.084 -3.39655 -4.47873 0
M  V30 4643 H 434.235 -1.92979 -0.887282 0
M  V30 4644 H 436.498 -0.833327 -0.451962 0
M  V30 4645 H 436.204 -2.76551 -2.17285 0
M  V30 4646 H 436.078 -1.55472 -3.43669 0
M  V30 4647 H 438.465 -0.75248 -2.85345 0
M  V30 4648 H 438.546 -1.99712 -1.5984 0
M  V30 4649 H 438.19 -3.78827 -3.38308 0
M  V30 4650 H 438.12 -2.51466 -4.6268 0
M  V30 4651 H 440.611 -2.14885 -3.10858 0
M  V30 4652 H 440.924 -4.89432 -5.98061 0
M  V30 4653 H 439.269 -4.39621 -5.38292 0
M  V30 4654 H 442.46 -2.73063 -3.80203 0
M  V30 4655 H 442.633 -3.9824 -5.11184 0
M  V30 4656 N 436.039 1.36541 -0.78704 0
M  V30 4657 C 436.987 2.31965 -0.171724 0
M  V30 4658 C 437.981 1.55689 0.667631 0
M  V30 4659 O 439.187 1.70969 0.562981 0
M  V30 4660 H 435.562 0.751101 -0.0367545 0
M  V30 4661 H 437.533 2.81428 -0.992017 0
M  V30 4662 C 436.282 3.40968 0.680904 0
M  V30 4663 H 435.605 3.99775 0.0443961 0
M  V30 4664 H 437.045 4.10063 1.07815 0
M  V30 4665 C 435.504 2.82338 1.83813 0
M  V30 4666 O 436.034 2.74311 2.93456 0
M  V30 4667 N 434.24 2.39661 1.6435 0
M  V30 4668 H 433.787 2.46389 0.751668 0
M  V30 4669 H 433.745 2.00779 2.4194 0
M  V30 4670 N 437.518 0.538854 1.48102 0
M  V30 4671 C 438.466 -0.232325 2.31437 0
M  V30 4672 C 439.46 -0.927004 1.41785 0
M  V30 4673 O 440.666 -0.850378 1.58646 0
M  V30 4674 H 437.041 -0.0937916 0.746128 0
M  V30 4675 H 439.012 0.489986 2.9435 0
M  V30 4676 C 437.761 -1.26074 3.24038 0
M  V30 4677 H 437.084 -0.735609 3.92974 0
M  V30 4678 H 438.524 -1.77157 3.85216 0
M  V30 4679 C 436.983 -2.29902 2.46265 0
M  V30 4680 O 437.513 -3.36502 2.19384 0
M  V30 4681 N 435.719 -2.03348 2.07601 0
M  V30 4682 H 435.266 -1.16675 2.29662 0
M  V30 4683 H 435.224 -2.73038 1.55877 0
M  V30 4684 N 438.996 -1.55193 0.274407 0
M  V30 4685 C 439.943 -2.225 -0.613374 0
M  V30 4686 C 440.913 -1.19823 -1.15029 0
M  V30 4687 O 442.098 -1.48362 -1.19973 0
M  V30 4688 C 439.238 -2.94927 -1.79199 0
M  V30 4689 C 438.351 -4.12322 -1.28899 0
M  V30 4690 C 437.486 -4.72394 -2.42934 0
M  V30 4691 C 436.525 -5.81984 -1.89634 0
M  V30 4692 N 435.662 -6.36123 -2.9714 0
M  V30 4693 H 440.502 -2.97982 -0.032756 0
M  V30 4694 H 438.039 -1.47099 -0.00440146 0
M  V30 4695 H 439.997 -3.35134 -2.48478 0
M  V30 4696 H 438.627 -2.2187 -2.34465 0
M  V30 4697 H 437.679 -3.7724 -0.489327 0
M  V30 4698 H 438.991 -4.91355 -0.858587 0
M  V30 4699 H 438.145 -5.15317 -3.20208 0
M  V30 4700 H 436.884 -3.92636 -2.8929 0
M  V30 4701 H 435.889 -5.38511 -1.1084 0
M  V30 4702 H 437.114 -6.6361 -1.44215 0
M  V30 4703 H 435.06 -5.59259 -3.42878 0
M  V30 4704 H 434.977 -7.10427 -2.58515 0
M  V30 4705 H 436.245 -6.83704 -3.74391 0
M  V30 4706 N 440.474 -0.00167713 -1.576 0
M  V30 4707 C 441.702 0.693759 -1.94922 0
M  V30 4708 C 442.117 1.67215 -0.876626 0
M  V30 4709 O 441.474 1.81929 0.144279 0
M  V30 4710 C 441.525 1.42416 -3.32265 0
M  V30 4711 O 441.246 0.485014 -4.35407 0
M  V30 4712 C 442.747 2.21395 -3.84056 0
M  V30 4713 H 439.967 0.193118 -0.642609 0
M  V30 4714 H 442.511 -0.0532952 -2.04431 0
M  V30 4715 H 440.666 2.12284 -3.24059 0
M  V30 4716 H 441.08 1.00053 -5.14868 0
M  V30 4717 H 442.554 2.67996 -4.82578 0
M  V30 4718 H 443.031 3.04142 -3.16851 0
M  V30 4719 H 443.637 1.56542 -3.95443 0
M  V30 4720 N 441.952 1.55251 0.271103 0
M  V30 4721 C 442.915 1.87484 1.31842 0
M  V30 4722 C 443.915 0.749545 1.42262 0
M  V30 4723 O 445.105 1.01771 1.4138 0
M  V30 4724 C 442.237 2.0818 2.69951 0
M  V30 4725 H 443.43 2.81108 1.0449 0
M  V30 4726 H 440.983 1.47771 0.509258 0
M  V30 4727 H 441.718 1.16944 3.02481 0
M  V30 4728 H 441.503 2.90114 2.63774 0
M  V30 4729 H 442.993 2.34385 3.4562 0
M  V30 4730 N 443.43 -0.535701 1.48216 0
M  V30 4731 C 444.34 -1.66785 1.64985 0
M  V30 4732 C 445.356 -1.65654 0.532414 0
M  V30 4733 O 446.532 -1.8471 0.80275 0
M  V30 4734 C 443.597 -3.0326 1.68031 0
M  V30 4735 C 442.658 -3.1529 2.9136 0
M  V30 4736 C 441.891 -4.45255 2.94252 0
M  V30 4737 O 442.114 -5.32011 2.05719 0
M  V30 4738 O 441.048 -4.6153 3.86359 0
M  V30 4739 H 444.874 -1.55576 2.60825 0
M  V30 4740 H 442.459 -0.70815 1.31551 0
M  V30 4741 H 444.341 -3.84436 1.72589 0
M  V30 4742 H 443.016 -3.14805 0.753628 0
M  V30 4743 H 441.923 -2.3343 2.92337 0
M  V30 4744 H 443.256 -3.08658 3.83394 0
M  V30 4745 N 444.908 -1.36708 -0.784132 0
M  V30 4746 C 446.324 -1.17237 -1.08294 0
M  V30 4747 C 446.524 -5.93947e-05 -2.015 0
M  V30 4748 O 445.58 0.663686 -2.43622 0
M  V30 4749 C 446.893 -2.48557 -1.69233 0
M  V30 4750 C 448.441 -2.54968 -1.8155 0
M  V30 4751 C 448.916 -3.86388 -2.45904 0
M  V30 4752 N 450.407 -3.87762 -2.53367 0
M  V30 4753 C 451.142 -4.86191 -3.03983 0
M  V30 4754 N 450.638 -5.95015 -3.54866 0
M  V30 4755 N 452.431 -4.73606 -3.02743 0
M  V30 4756 H 444.582 -2.11758 -0.16501 0
M  V30 4757 H 446.845 -0.93822 -0.135822 0
M  V30 4758 H 446.551 -3.34638 -1.08215 0
M  V30 4759 H 446.425 -2.64748 -2.68679 0
M  V30 4760 H 448.812 -1.69302 -2.41704 0
M  V30 4761 H 448.893 -2.42672 -0.80895 0
M  V30 4762 H 448.537 -4.72462 -1.86392 0
M  V30 4763 H 448.467 -3.95982 -3.4714 0
M  V30 4764 H 450.958 -3.09145 -2.17343 0
M  V30 4765 H 451.271 -6.66086 -3.91854 0
M  V30 4766 H 449.616 -5.98676 -3.53003 0
M  V30 4767 H 452.807 -3.87717 -2.62284 0
M  V30 4768 H 452.98 -5.50473 -3.41881 0
M  V30 4769 N 446.386 1.0089 -1.21074 0
M  V30 4770 C 447.316 2.1145 -0.990523 0
M  V30 4771 C 448.297 1.69897 0.0831699 0
M  V30 4772 O 449.482 1.94052 -0.0758853 0
M  V30 4773 C 446.612 3.42914 -0.550177 0
M  V30 4774 C 445.566 3.98244 -1.56799 0
M  V30 4775 C 444.892 5.25568 -0.984013 0
M  V30 4776 C 446.192 4.30752 -2.95381 0
M  V30 4777 H 447.886 2.3013 -1.91521 0
M  V30 4778 H 445.432 1.10592 -0.92225 0
M  V30 4779 H 447.385 4.19653 -0.383305 0
M  V30 4780 H 446.109 3.24014 0.41015 0
M  V30 4781 H 444.768 3.23621 -1.72236 0
M  V30 4782 H 444.416 5.02998 -0.0155216 0
M  V30 4783 H 444.116 5.63551 -1.66384 0
M  V30 4784 H 445.64 6.04955 -0.828378 0
M  V30 4785 H 447.054 4.98349 -2.8341 0
M  V30 4786 H 445.451 4.79869 -3.60341 0
M  V30 4787 H 446.521 3.39192 -3.46521 0
M  V30 4788 N 447.864 1.01787 1.20321 0
M  V30 4789 C 449.11 0.718699 1.90279 0
M  V30 4790 C 449.465 -0.743669 1.77447 0
M  V30 4791 O 448.758 -1.53345 1.14874 0
M  V30 4792 C 448.952 1.09076 3.40349 0
M  V30 4793 C 448.781 2.58775 3.67784 0
M  V30 4794 C 447.551 3.25578 3.86428 0
M  V30 4795 C 449.749 3.56966 3.70243 0
M  V30 4796 N 447.731 4.64495 4.01395 0
M  V30 4797 C 449.102 4.8145 3.90649 0
M  V30 4798 C 451.157 3.5092 3.53213 0
M  V30 4799 C 449.86 6.00619 3.95789 0
M  V30 4800 C 451.886 4.69493 3.59625 0
M  V30 4801 C 451.248 5.92786 3.80505 0
M  V30 4802 H 447.347 0.31468 0.715891 0
M  V30 4803 H 449.931 1.30295 1.44677 0
M  V30 4804 H 448.102 0.534839 3.847 0
M  V30 4805 H 449.834 0.744997 3.97784 0
M  V30 4806 H 446.589 2.76003 3.84862 0
M  V30 4807 H 447.013 5.36624 4.12752 0
M  V30 4808 H 451.655 2.56593 3.36035 0
M  V30 4809 H 449.373 6.95326 4.11762 0
M  V30 4810 H 452.959 4.66432 3.47754 0
M  V30 4811 H 451.839 6.83003 3.85327 0
M  V30 4812 N 449.342 -1.36122 0.79427 0
M  V30 4813 C 450.29 -2.31871 0.184023 0
M  V30 4814 C 451.284 -1.56041 -0.659365 0
M  V30 4815 O 452.49 -1.71266 -0.553906 0
M  V30 4816 H 448.865 -0.750896 0.0407373 0
M  V30 4817 H 450.836 -2.80898 1.00693 0
M  V30 4818 C 449.585 -3.41324 -0.662813 0
M  V30 4819 H 448.908 -3.99793 -0.0231944 0
M  V30 4820 H 450.348 -4.10629 -1.05639 0
M  V30 4821 C 448.807 -2.83308 -1.82313 0
M  V30 4822 O 449.337 -2.75863 -2.91997 0
M  V30 4823 N 447.543 -2.40529 -1.63077 0
M  V30 4824 H 447.09 -2.46785 -0.738591 0
M  V30 4825 H 447.048 -2.02059 -2.40872 0
M  V30 4826 N 450.82 -0.546701 -1.47814 0
M  V30 4827 C 452.066 -0.0187684 -2.02791 0
M  V30 4828 C 452.399 1.32338 -1.42128 0
M  V30 4829 O 451.674 1.85867 -0.573023 0
M  V30 4830 C 451.957 0.0854985 -3.59998 0
M  V30 4831 C 451.81 -1.283 -4.31114 0
M  V30 4832 C 453.129 0.80412 -4.32691 0
M  V30 4833 H 450.248 -0.0082946 -0.736953 0
M  V30 4834 H 452.89 -0.706962 -1.76358 0
M  V30 4835 H 451.04 0.671609 -3.82651 0
M  V30 4836 H 452.712 -1.91151 -4.19832 0
M  V30 4837 H 450.955 -1.86049 -3.91878 0
M  V30 4838 H 451.626 -1.16287 -5.39612 0
M  V30 4839 H 454.102 0.306576 -4.14969 0
M  V30 4840 H 452.978 0.846011 -5.42341 0
M  V30 4841 H 453.239 1.85802 -4.01161 0
M  V30 4842 N 452.299 1.55045 -0.282633 0
M  V30 4843 C 453.524 2.04628 0.337977 0
M  V30 4844 C 453.949 1.15937 1.48123 0
M  V30 4845 O 453.307 0.159532 1.80597 0
M  V30 4846 C 453.355 3.51854 0.78936 0
M  V30 4847 O 452.459 3.66236 1.89592 0
M  V30 4848 H 451.8 0.660434 0.0687261 0
M  V30 4849 H 454.33 2.00261 -0.419124 0
M  V30 4850 H 454.34 3.93361 1.08311 0
M  V30 4851 H 453.015 4.15873 -0.0470419 0
M  V30 4852 H 451.592 3.36633 1.60413 0
M  V30 4853 N 453.777 0.010035 1.57597 0
M  V30 4854 C 455.017 -0.677084 1.9286 0
M  V30 4855 C 455.381 -1.70377 0.885192 0
M  V30 4856 O 456.582 -2.44199 1.12339 0
M  V30 4857 C 454.853 -1.29452 3.33132 0
M  V30 4858 S 456.412 -2.00537 3.90295 0
M  V30 4859 H 453.23 -0.223409 0.674989 0
M  V30 4860 H 455.832 0.0691289 1.95378 0
M  V30 4861 H 454.536 -0.534593 4.06903 0
M  V30 4862 H 454.067 -2.07845 3.34012 0
M  V30 4863 H 456.082 -3.28168 3.72183 0
M  V30 4864 N 455.255 -1.55392 -0.262866 0
M  V30 4865 C 456.165 -1.92077 -1.34698 0
M  V30 4866 C 457.181 -0.819227 -1.53508 0
M  V30 4867 O 458.357 -1.11921 -1.67439 0
M  V30 4868 C 455.422 -2.19407 -2.68443 0
M  V30 4869 C 454.483 -3.42905 -2.58292 0
M  V30 4870 C 453.716 -3.68921 -3.85659 0
M  V30 4871 O 453.939 -2.97275 -4.8681 0
M  V30 4872 O 452.873 -4.62455 -3.85252 0
M  V30 4873 H 456.699 -2.84384 -1.06581 0
M  V30 4874 H 454.284 -1.42069 -0.462264 0
M  V30 4875 H 456.166 -2.38365 -3.47506 0
M  V30 4876 H 454.841 -1.30282 -2.96325 0
M  V30 4877 H 453.748 -3.29272 -1.7757 0
M  V30 4878 H 455.081 -4.32282 -2.35358 0
M  V30 4879 N 456.733 0.527833 -1.48498 0
M  V30 4880 C 457.663 1.64136 -1.66077 0
M  V30 4881 C 458.644 1.62286 -0.509625 0
M  V30 4882 O 459.829 1.79449 -0.742413 0
M  V30 4883 C 456.959 3.02717 -1.70234 0
M  V30 4884 C 455.913 3.19426 -2.8487 0
M  V30 4885 C 455.239 4.5909 -2.74118 0
M  V30 4886 C 456.539 3.01993 -4.26142 0
M  V30 4887 H 458.233 1.4968 -2.593 0
M  V30 4888 H 455.779 0.718654 -1.24785 0
M  V30 4889 H 457.732 3.80491 -1.8112 0
M  V30 4890 H 456.456 3.18201 -0.735911 0
M  V30 4891 H 455.115 2.4407 -2.73542 0
M  V30 4892 H 454.763 4.71413 -1.7544 0
M  V30 4893 H 454.463 4.71214 -3.51042 0
M  V30 4894 H 455.987 5.3896 -2.86974 0
M  V30 4895 H 457.401 3.69558 -4.38292 0
M  V30 4896 H 455.798 3.2561 -5.04082 0
M  V30 4897 H 456.868 1.98396 -4.42456 0
M  V30 4898 N 458.211 1.37122 0.776871 0
M  V30 4899 C 459.141 1.35164 1.90402 0
M  V30 4900 C 460.122 0.221069 1.68657 0
M  V30 4901 O 461.307 0.420642 1.8959 0
M  V30 4902 C 458.437 1.15274 3.27611 0
M  V30 4903 C 457.391 2.25289 3.63908 0
M  V30 4904 C 456.717 1.90527 4.99603 0
M  V30 4905 C 458.017 3.67446 3.71188 0
M  V30 4906 H 459.711 2.29482 1.92297 0
M  V30 4907 H 457.257 1.10465 0.923773 0
M  V30 4908 H 459.21 1.12536 4.06096 0
M  V30 4909 H 457.934 0.174102 3.26136 0
M  V30 4910 H 456.593 2.27174 2.87728 0
M  V30 4911 H 456.241 0.91206 4.94662 0
M  V30 4912 H 455.941 2.64193 5.24858 0
M  V30 4913 H 457.465 1.89367 5.80493 0
M  V30 4914 H 458.879 3.67719 4.39836 0
M  V30 4915 H 457.276 4.40123 4.07936 0
M  V30 4916 H 458.346 4.01443 2.71977 0
M  V30 4917 N 459.689 -1.00246 1.21608 0
M  V30 4918 C 460.937 -1.73717 1.0328 0
M  V30 4919 C 461.258 -1.90102 -0.434318 0
M  V30 4920 O 460.528 -1.45376 -1.31311 0
M  V30 4921 H 459.108 -0.643613 0.379172 0
M  V30 4922 H 461.77 -1.20787 1.52959 0
M  V30 4923 H 460.866 -2.73535 1.50283 0
M  V30 4924 N 461.167 -1.02423 -1.1978 0
M  V30 4925 C 462.416 -0.713265 -1.88667 0
M  V30 4926 C 462.729 0.7609 -1.80193 0
M  V30 4927 O 463.935 1.18473 -2.44288 0
M  V30 4928 C 462.391 -1.22545 -3.38394 0
M  V30 4929 C 461.999 -2.72706 -3.55437 0
M  V30 4930 C 463.743 -0.990257 -4.12788 0
M  V30 4931 C 461.65 -3.17367 -4.99031 0
M  V30 4932 H 460.58 -0.263105 -0.706606 0
M  V30 4933 H 463.231 -1.23792 -1.35454 0
M  V30 4934 H 461.613 -0.628732 -3.90977 0
M  V30 4935 H 462.787 -3.37993 -3.13205 0
M  V30 4936 H 461.102 -2.94453 -2.94425 0
M  V30 4937 H 463.699 -1.29926 -5.18675 0
M  V30 4938 H 464.042 0.0730761 -4.16236 0
M  V30 4939 H 464.575 -1.55074 -3.66329 0
M  V30 4940 H 461.314 -4.23009 -5.00743 0
M  V30 4941 H 460.834 -2.56805 -5.42044 0
M  V30 4942 H 462.513 -3.10441 -5.67658 0
M  V30 4943 N 462.645 1.35699 -0.801477 0
M  V30 4944 C 464.061 1.52065 -0.484596 0
M  V30 4945 C 464.261 1.75215 0.995084 0
M  V30 4946 O 463.317 1.79061 1.78026 0
M  V30 4947 C 464.63 2.69908 -1.32552 0
M  V30 4948 C 466.178 2.83784 -1.32044 0
M  V30 4949 C 466.653 4.04646 -2.14536 0
M  V30 4950 N 468.144 4.11814 -2.12046 0
M  V30 4951 C 468.879 5.04437 -2.72636 0
M  V30 4952 N 468.375 6.02426 -3.42133 0
M  V30 4953 N 470.168 4.97144 -2.62305 0
M  V30 4954 H 462.319 1.18928 -1.75983 0
M  V30 4955 H 464.582 0.581455 -0.748741 0
M  V30 4956 H 464.288 2.59363 -2.37537 0
M  V30 4957 H 464.162 3.64376 -0.975181 0
M  V30 4958 H 466.549 2.93783 -0.27846 0
M  V30 4959 H 466.63 1.90188 -1.71062 0
M  V30 4960 H 466.274 3.95407 -3.18772 0
M  V30 4961 H 466.204 4.97413 -1.72882 0
M  V30 4962 H 468.695 3.41664 -1.61476 0
M  V30 4963 H 469.008 6.69688 -3.85666 0
M  V30 4964 H 467.353 6.02615 -3.46237 0
M  V30 4965 H 470.544 4.19546 -2.07603 0
M  V30 4966 H 470.717 5.69138 -3.09815 0
M  V30 4967 N 464.123 0.554532 1.47522 0
M  V30 4968 C 465.369 0.0377449 2.03365 0
M  V30 4969 C 465.724 -1.29654 1.42154 0
M  V30 4970 O 465.017 -1.83022 0.566865 0
M  V30 4971 C 465.211 -0.115927 3.57212 0
M  V30 4972 C 465.04 1.20191 4.33341 0
M  V30 4973 C 463.81 1.76849 4.73342 0
M  V30 4974 C 466.008 2.11849 4.68641 0
M  V30 4975 N 463.99 3.02665 5.34104 0
M  V30 4976 C 465.361 3.22245 5.29677 0
M  V30 4977 C 467.416 2.11876 4.5057 0
M  V30 4978 C 466.119 4.32763 5.74551 0
M  V30 4979 C 468.145 3.21405 4.9644 0
M  V30 4980 C 467.507 4.30519 5.57523 0
M  V30 4981 H 463.606 0.0559107 0.779999 0
M  V30 4982 H 466.19 0.741232 1.80038 0
M  V30 4983 H 464.361 -0.788533 3.80311 0
M  V30 4984 H 466.093 -0.634538 3.99695 0
M  V30 4985 H 462.848 1.30681 4.55214 0
M  V30 4986 H 463.272 3.66788 5.69031 0
M  V30 4987 H 467.914 1.28801 4.02704 0
M  V30 4988 H 465.632 5.166 6.2141 0
M  V30 4989 H 469.218 3.22509 4.8423 0
M  V30 4990 H 468.098 5.13873 5.92371 0
M  V30 4991 N 465.601 -1.54893 0.290851 0
M  V30 4992 C 466.511 -2.26812 -0.59945 0
M  V30 4993 C 467.527 -1.29963 -1.15696 0
M  V30 4994 O 468.703 -1.62928 -1.18391 0
M  V30 4995 C 465.768 -2.98716 -1.75982 0
M  V30 4996 C 464.829 -4.1108 -1.2374 0
M  V30 4997 C 464.062 -4.79546 -2.34246 0
M  V30 4998 O 464.285 -4.47309 -3.53936 0
M  V30 4999 O 463.219 -5.67165 -2.01512 0
M  V30 5000 H 467.045 -3.03696 -0.0163561 0
M  V30 5001 H 464.63 -1.49289 0.0576755 0
M  V30 5002 H 466.512 -3.43851 -2.43607 0
M  V30 5003 H 465.187 -2.24737 -2.3297 0
M  V30 5004 H 464.094 -3.70367 -0.527163 0
M  V30 5005 H 465.427 -4.87007 -0.71307 0
M  V30 5006 O 467.118 -0.15707 -1.60734 0
M  V30 5007 H 467.809 0.435157 -1.88749 0
M  V30 END ATOM
M  V30 BEGIN BOND
M  V30 END BOND
M  V30 END CTAB
M  END
$$$$
