drugbank_target|P35398 Nuclear receptor ROR-alpha (DB01990; DB04540)
 OpenBabel12092120553D

  0  0  0     0  0            999 V3000
M  V30 BEGIN CTAB
M  V30 COUNTS 8188 8273 0 0 0
M  V30 BEGIN ATOM
M  V30 1 H -0.908 1.98254 -0.117106 0
M  V30 2 N 0 1.576 0 0
M  V30 3 C 0.933 2.03868 1.02534 0
M  V30 4 C 1.911 0.928543 1.3348 0
M  V30 5 O 3.095 1.19667 1.45644 0
M  V30 6 C 0.222 2.43627 2.35294 0
M  V30 7 C -0.732 3.65373 2.2001 0
M  V30 8 S 0.101 5.13292 1.52614 0
M  V30 9 C 1.257 5.56322 2.86805 0
M  V30 10 H 1.49 2.90518 0.631377 0
M  V30 11 H -0.977 1.52953 0.210867 0
M  V30 12 H 0.981 2.67203 3.11629 0
M  V30 13 H -0.358 1.57376 2.7183 0
M  V30 14 H -1.165 3.90944 3.18086 0
M  V30 15 H -1.563 3.418 1.51819 0
M  V30 16 H 0.729 5.58782 3.83104 0
M  V30 17 H 1.672 6.56266 2.65933 0
M  V30 18 H 2.08 4.83886 2.90714 0
M  V30 19 N 1.4781 -0.272755 1.55222 0
M  V30 20 C 2.3881 -1.35918 1.91216 0
M  V30 21 C 3.4041 -1.54026 0.809436 0
M  V30 22 O 4.5801 -1.68148 1.10852 0
M  V30 23 C 1.6451 -2.69834 2.17693 0
M  V30 24 C 0.7061 -2.6047 3.41253 0
M  V30 25 C -0.0609 -3.88 3.66458 0
M  V30 26 O 0.1621 -4.88693 2.94169 0
M  V30 27 O -0.9039 -3.88189 4.59992 0
M  V30 28 H 2.9221 -1.0839 2.83699 0
M  V30 29 H 0.5071 -0.471301 1.41771 0
M  V30 30 H 2.3891 -3.49017 2.36147 0
M  V30 31 H 1.0641 -2.97148 1.28392 0
M  V30 32 H -0.0289 -1.79663 3.28134 0
M  V30 33 H 1.3041 -2.38106 4.30774 0
M  V30 34 N 2.9562 -1.48159 -0.537278 0
M  V30 35 C 4.1812 -1.59707 -1.32319 0
M  V30 36 C 4.6062 -0.254859 -1.86365 0
M  V30 37 O 3.9642 0.772378 -1.64024 0
M  V30 38 C 4.0122 -2.6412 -2.45505 0
M  V30 39 O 3.1162 -2.20774 -3.48328 0
M  V30 40 H 2.4572 -0.535791 -0.392204 0
M  V30 41 H 4.9872 -1.94092 -0.647268 0
M  V30 42 H 4.9972 -2.85166 -2.91795 0
M  V30 43 H 3.6722 -3.61567 -2.05528 0
M  V30 44 H 2.2492 -2.09911 -3.08207 0
M  V30 45 N 4.4343 0.785586 -1.36625 0
M  V30 46 C 5.3973 1.87999 -1.31107 0
M  V30 47 C 6.3973 1.59316 -0.217959 0
M  V30 48 O 7.5873 1.67656 -0.472977 0
M  V30 49 C 4.7193 3.24861 -1.03334 0
M  V30 50 H 5.9123 1.94307 -2.2844 0
M  V30 51 H 3.4653 0.983813 -1.21453 0
M  V30 52 H 4.2003 3.24235 -0.0647432 0
M  V30 53 H 3.9853 3.4707 -1.82441 0
M  V30 54 H 5.4753 4.04929 -1.02088 0
M  V30 55 N 5.9124 1.20967 1.01018 0
M  V30 56 C 7.3234 1.02319 1.56165 0
M  V30 57 C 7.6744 -0.418546 1.91684 0
M  V30 58 O 6.7994 -1.30096 1.72928 0
M  V30 59 C 7.3944 1.85109 2.8376 0
M  V30 60 C 5.9534 1.70809 3.35412 0
M  V30 61 C 5.1004 1.82643 2.08655 0
M  V30 62 H 8.0514 1.35065 0.833255 0
M  V30 63 H 8.0724 1.35827 3.55431 0
M  V30 64 H 7.5844 2.90035 2.57878 0
M  V30 65 H 5.6854 0.685464 3.66241 0
M  V30 66 H 5.7984 2.52467 4.07182 0
M  V30 67 H 4.1624 1.25896 2.21409 0
M  V30 68 H 4.9454 2.89066 1.85191 0
M  V30 69 N 7.3905 -1.2043 1.01659 0
M  V30 70 C 8.3535 -2.21433 0.591616 0
M  V30 71 C 9.3535 -1.57203 -0.338226 0
M  V30 72 O 10.5435 -1.73737 -0.126918 0
M  V30 73 C 7.6755 -3.40628 -0.136058 0
M  V30 74 H 8.8685 -2.60545 1.48514 0
M  V30 75 H 6.4215 -1.33893 0.806379 0
M  V30 76 H 7.1565 -3.07019 -1.04449 0
M  V30 77 H 6.9415 -3.88475 0.531917 0
M  V30 78 H 8.4315 -4.15475 -0.420735 0
M  V30 79 N 8.8686 -0.792821 -1.36206 0
M  V30 80 C 9.8316 -0.199459 -2.2833 0
M  V30 81 C 10.8316 0.605189 -1.48977 0
M  V30 82 O 12.0216 0.425685 -1.68919 0
M  V30 83 C 9.1536 0.723523 -3.33134 0
M  V30 84 H 10.3466 -1.01181 -2.82316 0
M  V30 85 H 7.8996 -0.562485 -1.45828 0
M  V30 86 H 8.6346 1.56008 -2.84309 0
M  V30 87 H 8.4196 0.148436 -3.91819 0
M  V30 88 H 9.9096 1.13344 -4.01924 0
M  V30 89 N 10.3467 1.47872 -0.545128 0
M  V30 90 C 11.7577 1.86384 -0.108581 0
M  V30 91 C 12.1087 1.45309 1.31832 0
M  V30 92 O 11.2337 0.850641 1.9898 0
M  V30 93 C 11.8287 3.38265 -0.190274 0
M  V30 94 C 10.3877 3.75914 0.191164 0
M  V30 95 C 9.5347 2.71926 -0.543273 0
M  V30 96 H 12.4857 1.39561 -0.755537 0
M  V30 97 H 12.5067 3.75831 0.594217 0
M  V30 98 H 12.0187 3.6813 -1.2289 0
M  V30 99 H 10.1197 3.51665 1.23136 0
M  V30 100 H 10.2327 4.78836 -0.158987 0
M  V30 101 H 8.5967 2.54697 0.0122495 0
M  V30 102 H 9.3797 3.04634 -1.58282 0
M  V30 103 N 11.8248 0.280983 1.55075 0
M  V30 104 C 13.1018 -0.386207 1.91749 0
M  V30 105 C 13.4818 -1.73264 1.20594 0
M  V30 106 O 12.8298 -2.26034 0.334784 0
M  V30 107 C 13.0398 -0.520687 3.45094 0
M  V30 108 C 14.3878 -0.800865 4.16979 0
M  V30 109 O 15.4118 -0.605271 3.5102 0
M  V30 110 O 14.2708 -1.1753 5.33712 0
M  V30 111 H 11.3648 -0.212408 0.799257 0
M  V30 112 H 13.9108 0.327568 1.66509 0
M  V30 113 H 12.6828 0.426633 3.88967 0
M  V30 114 H 12.3058 -1.2837 3.76307 0
M  V30 115 N 13.3029 -1.57598 0.00835791 0
M  V30 116 C 14.7139 -1.7892 -0.53333 0
M  V30 117 C 15.0649 -0.916609 -1.73473 0
M  V30 118 O 14.1899 -0.121336 -2.1606 0
M  V30 119 C 14.7849 -3.24488 -0.974313 0
M  V30 120 C 13.3439 -3.46878 -1.46125 0
M  V30 121 C 12.4909 -2.74157 -0.416302 0
M  V30 122 H 15.4419 -1.56958 0.234495 0
M  V30 123 H 15.4629 -3.3306 -1.83988 0
M  V30 124 H 14.9749 -3.87972 -0.099718 0
M  V30 125 H 13.0759 -2.8862 -2.35646 0
M  V30 126 H 13.1889 -4.55572 -1.48295 0
M  V30 127 H 11.5529 -2.39022 -0.87981 0
M  V30 128 H 12.3359 -3.40345 0.44947 0
M  V30 129 N 14.781 0.264519 -1.55364 0
M  V30 130 C 15.744 1.31046 -1.88042 0
M  V30 131 C 16.744 1.41943 -0.755569 0
M  V30 132 O 17.934 1.40947 -1.02369 0
M  V30 133 C 15.066 2.69067 -2.09323 0
M  V30 134 H 16.259 1.03297 -2.81549 0
M  V30 135 H 13.812 0.502989 -1.47986 0
M  V30 136 H 14.547 3.01982 -1.18226 0
M  V30 137 H 14.332 2.62542 -2.91229 0
M  V30 138 H 15.822 3.44623 -2.35848 0
M  V30 139 N 16.2591 1.48442 0.529413 0
M  V30 140 C 17.2221 1.62524 1.61612 0
M  V30 141 C 18.2221 0.498509 1.52877 0
M  V30 142 O 19.4121 0.76431 1.56537 0
M  V30 143 C 16.5441 1.59597 3.01233 0
M  V30 144 H 17.7371 2.59423 1.50465 0
M  V30 145 H 15.2901 1.37047 0.751514 0
M  V30 146 H 16.0251 0.641781 3.17886 0
M  V30 147 H 15.8101 2.41397 3.08982 0
M  V30 148 H 17.3001 1.72646 3.80241 0
M  V30 149 N 17.7372 -0.778329 1.37039 0
M  V30 150 C 18.9622 -1.57248 1.35233 0
M  V30 151 C 19.3872 -1.87999 -0.0615568 0
M  V30 152 O 18.7452 -1.48734 -1.03672 0
M  V30 153 C 18.7932 -2.86353 2.19167 0
M  V30 154 O 17.8972 -3.80442 1.59178 0
M  V30 155 H 17.2382 -0.476569 0.462362 0
M  V30 156 H 19.7682 -0.963853 1.80474 0
M  V30 157 H 19.7782 -3.35519 2.32145 0
M  V30 158 H 18.4532 -2.63299 3.21942 0
M  V30 159 H 17.0302 -3.39067 1.55203 0
M  V30 160 N 19.2153 -1.21501 -1.00376 0
M  V30 161 C 20.1253 -0.991447 -2.12621 0
M  V30 162 C 21.1413 0.0568446 -1.73907 0
M  V30 163 O 22.3173 -0.13348 -2.00957 0
M  V30 164 C 19.3823 -0.560312 -3.42142 0
M  V30 165 C 18.4433 -1.68096 -3.95022 0
M  V30 166 C 17.6763 -1.2703 -5.18362 0
M  V30 167 O 17.8993 -0.144438 -5.70217 0
M  V30 168 O 16.8333 -2.08269 -5.64719 0
M  V30 169 H 20.6593 -1.93158 -2.34358 0
M  V30 170 H 18.2443 -0.999999 -1.10997 0
M  V30 171 H 20.1263 -0.329724 -4.20108 0
M  V30 172 H 18.8013 0.351089 -3.2179 0
M  V30 173 H 17.7083 -1.96597 -3.18278 0
M  V30 174 H 19.0413 -2.56983 -4.19786 0
M  V30 175 N 20.6934 1.19889 -1.02296 0
M  V30 176 C 22.1044 1.71124 -0.746568 0
M  V30 177 C 22.4554 1.81939 0.734335 0
M  V30 178 O 21.5804 1.48639 1.57275 0
M  V30 179 C 22.1754 3.10804 -1.34857 0
M  V30 180 C 20.7344 3.59323 -1.1209 0
M  V30 181 C 19.8814 2.3635 -1.45031 0
M  V30 182 H 22.8324 1.04813 -1.19163 0
M  V30 183 H 22.8534 3.73186 -0.742437 0
M  V30 184 H 22.3654 3.029 -2.42638 0
M  V30 185 H 20.4664 3.7255 -0.0610337 0
M  V30 186 H 20.5794 4.4378 -1.80544 0
M  V30 187 H 18.9434 2.39399 -0.869487 0
M  V30 188 H 19.7264 2.31081 -2.53883 0
M  V30 189 N 22.1715 0.800033 1.35784 0
M  V30 190 C 23.4195 0.376597 1.9856 0
M  V30 191 C 23.7405 -1.05812 1.63795 0
M  V30 192 O 23.0105 -1.73103 0.917171 0
M  V30 193 H 21.5905 0.136261 0.734467 0
M  V30 194 H 24.2525 1.02442 1.65806 0
M  V30 195 H 23.3485 0.477002 3.08433 0
M  V30 196 N 23.6496 -1.47581 0.552962 0
M  V30 197 C 24.8746 -2.07378 0.0300593 0
M  V30 198 C 25.2996 -1.40355 -1.25229 0
M  V30 199 O 24.6576 -0.477099 -1.7491 0
M  V30 200 C 24.7056 -3.60274 -0.153231 0
M  V30 201 O 23.8096 -3.94041 -1.21678 0
M  V30 202 H 23.1506 -0.662158 0.0494182 0
M  V30 203 H 25.6806 -1.89662 0.767434 0
M  V30 204 H 25.6906 -4.0633 -0.368761 0
M  V30 205 H 24.3656 -4.08455 0.783397 0
M  V30 206 H 22.9426 -3.59735 -0.982079 0
M  V30 207 N 25.1277 -0.289203 -1.54924 0
M  V30 208 C 26.3527 0.329299 -2.04769 0
M  V30 209 C 26.7777 1.4763 -1.16564 0
M  V30 210 O 26.1357 1.80527 -0.167186 0
M  V30 211 C 26.1837 0.774438 -3.52186 0
M  V30 212 O 25.2877 1.88038 -3.67036 0
M  V30 213 H 24.6287 0.0659259 -0.660719 0
M  V30 214 H 27.1587 -0.42761 -2.00082 0
M  V30 215 H 27.1687 1.06642 -3.93816 0
M  V30 216 H 25.8437 -0.0646707 -4.1585 0
M  V30 217 H 24.4207 1.58985 -3.3731 0
M  V30 218 N 26.6058 1.57591 -0.0167156 0
M  V30 219 C 27.8538 1.90906 0.663285 0
M  V30 220 C 28.1748 0.892509 1.73376 0
M  V30 221 O 27.4448 -0.0677623 1.95783 0
M  V30 222 H 26.0248 0.704637 0.247983 0
M  V30 223 H 28.6868 1.94803 -0.0615909 0
M  V30 224 H 27.7828 2.9116 1.12393 0
M  V30 225 N 28.0839 -0.256276 1.55502 0
M  V30 226 C 29.0469 -1.30047 1.88734 0
M  V30 227 C 30.0469 -1.4154 0.763086 0
M  V30 228 O 31.2369 -1.40403 1.03115 0
M  V30 229 C 28.3689 -2.67953 2.10747 0
M  V30 230 H 29.5619 -1.01802 2.82093 0
M  V30 231 H 27.1149 -0.495134 1.4825 0
M  V30 232 H 27.8499 -3.01351 1.19825 0
M  V30 233 H 27.6349 -2.60993 2.92617 0
M  V30 234 H 29.1249 -3.43368 2.37673 0
M  V30 235 N 29.562 -1.4872 -0.521534 0
M  V30 236 C 30.839 -1.4766 -1.2828 0
M  V30 237 C 31.219 -0.19292 -2.10217 0
M  V30 238 O 30.567 0.825193 -2.13079 0
M  V30 239 C 30.777 -2.74358 -2.15705 0
M  V30 240 C 32.125 -3.23028 -2.75569 0
M  V30 241 O 33.149 -2.75333 -2.25987 0
M  V30 242 O 32.008 -4.0604 -3.65778 0
M  V30 243 H 29.102 -0.590085 -0.579421 0
M  V30 244 H 31.648 -1.60963 -0.537492 0
M  V30 245 H 30.42 -3.59292 -1.54999 0
M  V30 246 H 30.043 -2.63816 -2.97467 0
M  V30 247 N 31.0401 0.771051 -1.3745 0
M  V30 248 C 32.0031 1.86598 -1.33093 0
M  V30 249 C 33.0031 1.59076 -0.234845 0
M  V30 250 O 34.1931 1.67145 -0.490732 0
M  V30 251 C 31.3251 3.23747 -1.06773 0
M  V30 252 H 32.5181 1.91873 -2.30488 0
M  V30 253 H 30.0711 0.970876 -1.2249 0
M  V30 254 H 30.8061 3.24148 -0.099129 0
M  V30 255 H 30.5911 3.45115 -1.86112 0
M  V30 256 H 32.0811 4.03824 -1.06377 0
M  V30 257 N 32.5182 1.22032 0.997298 0
M  V30 258 C 33.4812 0.987909 2.06816 0
M  V30 259 C 34.4812 -0.0440084 1.6074 0
M  V30 260 O 35.6712 0.194053 1.73116 0
M  V30 261 C 32.8032 0.49132 3.37341 0
M  V30 262 H 33.9962 1.93803 2.28868 0
M  V30 263 H 31.5492 1.03838 1.16822 0
M  V30 264 H 32.2842 -0.463364 3.20973 0
M  V30 265 H 32.0692 1.23575 3.72118 0
M  V30 266 H 33.5592 0.348824 4.16141 0
M  V30 267 N 33.9963 -1.19345 1.0293 0
M  V30 268 C 34.9593 -2.20793 0.615069 0
M  V30 269 C 35.9593 -1.57553 -0.321533 0
M  V30 270 O 37.1493 -1.73862 -0.108483 0
M  V30 271 C 34.2813 -3.40754 -0.0999222 0
M  V30 272 H 35.4743 -2.58955 1.51269 0
M  V30 273 H 33.0273 -1.3303 0.820534 0
M  V30 274 H 33.7623 -3.0811 -1.01187 0
M  V30 275 H 33.5473 -3.87889 0.57309 0
M  V30 276 H 35.0373 -4.15898 -0.376645 0
M  V30 277 N 35.4744 -0.807222 -1.35358 0
M  V30 278 C 36.7224 -0.387122 -1.98358 0
M  V30 279 C 37.0434 1.04942 -1.64354 0
M  V30 280 O 36.3134 1.72615 -0.926339 0
M  V30 281 H 34.8934 -0.140154 -0.733734 0
M  V30 282 H 37.5554 -1.0332 -1.6526 0
M  V30 283 H 36.6514 -0.493352 -3.08176 0
M  V30 284 N 36.9525 1.47285 -0.560781 0
M  V30 285 C 38.1775 2.07359 -0.0410566 0
M  V30 286 C 38.6025 1.41017 1.24483 0
M  V30 287 O 37.9605 0.486368 1.74654 0
M  V30 288 C 38.0085 3.6035 0.134123 0
M  V30 289 O 37.1125 3.94681 1.19587 0
M  V30 290 H 36.4535 0.661887 -0.0529291 0
M  V30 291 H 38.9835 1.89252 -0.777482 0
M  V30 292 H 38.9935 4.0652 0.347207 0
M  V30 293 H 37.6685 4.08034 -0.805047 0
M  V30 294 H 36.2455 3.60251 0.962987 0
M  V30 295 N 38.4306 0.297415 1.54768 0
M  V30 296 C 39.8466 -0.0560823 1.59501 0
M  V30 297 C 40.0466 -1.52725 1.31444 0
M  V30 298 O 39.1026 -2.27947 1.08611 0
M  V30 299 C 40.4156 0.338631 2.98787 0
M  V30 300 C 41.9636 0.287097 3.11681 0
M  V30 301 C 42.4386 0.656579 4.53269 0
M  V30 302 N 43.9296 0.608977 4.59179 0
M  V30 303 C 44.6646 0.867385 5.66802 0
M  V30 304 N 44.1606 1.19157 6.82476 0
M  V30 305 N 45.9536 0.794687 5.56454 0
M  V30 306 H 38.1046 1.25624 1.71267 0
M  V30 307 H 40.3676 0.509057 0.799728 0
M  V30 308 H 40.0736 1.36263 3.2423 0
M  V30 309 H 39.9476 -0.309508 3.75928 0
M  V30 310 H 42.3346 -0.727649 2.85988 0
M  V30 311 H 42.4156 0.969809 2.36703 0
M  V30 312 H 42.0596 1.66912 4.7969 0
M  V30 313 H 41.9896 -0.0481649 5.26578 0
M  V30 314 H 44.4806 0.369198 3.76092 0
M  V30 315 H 44.7936 1.37482 7.60473 0
M  V30 316 H 43.1386 1.22958 6.84037 0
M  V30 317 H 46.3296 0.541098 4.64962 0
M  V30 318 H 46.5026 0.999445 6.40246 0
M  V30 319 N 39.9087 -1.5758 0.0250728 0
M  V30 320 C 40.8187 -2.1343 -0.973905 0
M  V30 321 C 41.8347 -1.08556 -1.35984 0
M  V30 322 O 43.0107 -1.40592 -1.44207 0
M  V30 323 C 40.0757 -2.64703 -2.23904 0
M  V30 324 C 39.1367 -3.84276 -1.91391 0
M  V30 325 C 38.3697 -4.33095 -3.11873 0
M  V30 326 O 38.5927 -3.81107 -4.24398 0
M  V30 327 O 37.5267 -5.24984 -2.94406 0
M  V30 328 H 41.3527 -2.99057 -0.529036 0
M  V30 329 H 38.9377 -1.48118 -0.195288 0
M  V30 330 H 40.8197 -2.97769 -2.98181 0
M  V30 331 H 39.4947 -1.82161 -2.6758 0
M  V30 332 H 38.4017 -3.56143 -1.14511 0
M  V30 333 H 39.7347 -4.67968 -1.52534 0
M  V30 334 N 41.3868 0.248026 -1.55636 0
M  V30 335 C 42.6148 0.993808 -1.81469 0
M  V30 336 C 43.0298 1.78991 -0.60064 0
M  V30 337 O 42.3868 1.77345 0.430682 0
M  V30 338 C 42.4378 1.93258 -3.05506 0
M  V30 339 O 42.1588 1.16869 -4.22224 0
M  V30 340 C 43.6598 2.79444 -3.4413 0
M  V30 341 H 40.8798 0.292486 -0.603898 0
M  V30 342 H 43.4238 0.271253 -2.02693 0
M  V30 343 H 41.5788 2.60943 -2.86335 0
M  V30 344 H 41.9928 1.80359 -4.92515 0
M  V30 345 H 43.4668 3.41066 -4.34026 0
M  V30 346 H 43.9438 3.50499 -2.64665 0
M  V30 347 H 44.5498 2.17214 -3.65648 0
M  V30 348 N 42.8649 1.48995 0.513639 0
M  V30 349 C 44.2759 1.5119 1.09537 0
M  V30 350 C 44.6269 0.290906 1.94031 0
M  V30 351 O 43.7519 -0.60049 2.07902 0
M  V30 352 C 44.3469 2.73964 1.99322 0
M  V30 353 C 42.9059 2.78978 2.52682 0
M  V30 354 C 42.0529 2.44934 1.30009 0
M  V30 355 H 45.0039 1.55875 0.298125 0
M  V30 356 H 45.0249 2.53409 2.83838 0
M  V30 357 H 44.5369 3.62813 1.37799 0
M  V30 358 H 42.6379 1.94378 3.1788 0
M  V30 359 H 42.7509 3.8083 2.90698 0
M  V30 360 H 41.1149 1.9644 1.62122 0
M  V30 361 H 41.8979 3.36043 0.702131 0
M  V30 362 N 44.343 -0.763751 1.37857 0
M  V30 363 C 45.273 -1.89103 1.36975 0
M  V30 364 C 46.254 -1.68439 0.237152 0
M  V30 365 O 47.439 -1.8918 0.438713 0
M  V30 366 C 44.569 -3.26496 1.18395 0
M  V30 367 C 43.523 -3.61741 2.28751 0
M  V30 368 C 42.849 -4.97762 1.95286 0
M  V30 369 C 44.149 -3.67665 3.70972 0
M  V30 370 H 45.843 -1.90099 2.31307 0
M  V30 371 H 43.389 -0.91319 1.11341 0
M  V30 372 H 45.342 -4.05003 1.16406 0
M  V30 373 H 44.066 -3.25955 0.205215 0
M  V30 374 H 42.725 -2.85547 2.29909 0
M  V30 375 H 42.373 -4.93769 0.959221 0
M  V30 376 H 42.073 -5.22313 2.69189 0
M  V30 377 H 43.597 -5.7866 1.94898 0
M  V30 378 H 45.011 -4.36307 3.719 0
M  V30 379 H 43.408 -4.03718 4.43995 0
M  V30 380 H 44.478 -2.68134 4.0402 0
M  V30 381 N 45.8211 -1.22559 -0.990812 0
M  V30 382 C 46.7691 -0.994798 -2.10253 0
M  V30 383 C 47.7631 0.0627798 -1.69284 0
M  V30 384 O 48.9691 -0.0898392 -1.79776 0
M  V30 385 H 45.3441 -0.304527 -0.687581 0
M  V30 386 H 47.3151 -1.93812 -2.26891 0
M  V30 387 C 46.0641 -0.591439 -3.42633 0
M  V30 388 H 45.3871 -1.3969 -3.74602 0
M  V30 389 H 46.8271 -0.469385 -4.21394 0
M  V30 390 C 45.2861 0.699232 -3.29564 0
M  V30 391 O 45.8161 1.75112 -3.61523 0
M  V30 392 N 44.0221 0.671182 -2.82743 0
M  V30 393 H 43.5691 -0.185136 -2.56934 0
M  V30 394 H 43.5271 1.53502 -2.7438 0
M  V30 395 N 47.2992 1.18797 -1.03562 0
M  V30 396 C 48.2312 2.21731 -0.580337 0
M  V30 397 C 49.2442 1.59051 0.347349 0
M  V30 398 O 50.4332 1.77929 0.142669 0
M  V30 399 C 47.5332 3.38459 0.172805 0
M  V30 400 C 46.7062 4.3072 -0.761496 0
M  V30 401 C 45.7652 5.26174 -0.0525547 0
M  V30 402 O 44.7912 5.65108 -0.681333 0
M  V30 403 N 45.9932 5.67624 1.21586 0
M  V30 404 H 48.7582 2.61417 -1.46565 0
M  V30 405 H 46.3192 1.33531 -0.915476 0
M  V30 406 H 48.3112 3.99335 0.656793 0
M  V30 407 H 46.8812 2.97507 0.959602 0
M  V30 408 H 46.1012 3.67525 -1.42544 0
M  V30 409 H 47.3892 4.89267 -1.39626 0
M  V30 410 H 46.7872 5.38038 1.74732 0
M  V30 411 H 45.3442 6.30721 1.64421 0
M  V30 412 N 48.7773 0.814389 1.34928 0
M  V30 413 C 49.6873 0.231978 2.3345 0
M  V30 414 C 50.7033 -0.629139 1.62228 0
M  V30 415 O 51.8793 -0.539052 1.94052 0
M  V30 416 C 48.9443 -0.603482 3.41407 0
M  V30 417 C 48.0053 0.279037 4.28392 0
M  V30 418 C 47.2383 -0.516643 5.31193 0
M  V30 419 O 47.4613 -1.75068 5.4287 0
M  V30 420 O 46.3953 0.0965652 6.01823 0
M  V30 421 H 50.2213 1.04721 2.85074 0
M  V30 422 H 47.8063 0.576343 1.37836 0
M  V30 423 H 49.6883 -1.07908 4.0735 0
M  V30 424 H 48.3633 -1.39618 2.92042 0
M  V30 425 H 47.2703 0.801948 3.65403 0
M  V30 426 H 48.6033 1.03588 4.81176 0
M  V30 427 N 50.2554 -1.46986 0.568584 0
M  V30 428 C 51.4804 -2.07335 0.0520528 0
M  V30 429 C 51.9054 -1.41675 -1.23733 0
M  V30 430 O 51.2634 -0.495623 -1.74394 0
M  V30 431 C 51.3114 -3.60417 -0.11501 0
M  V30 432 O 50.4154 -3.95309 -1.17492 0
M  V30 433 H 49.7564 -0.661597 0.0564385 0
M  V30 434 H 52.2864 -1.88837 0.787507 0
M  V30 435 H 52.2964 -4.06698 -0.325644 0
M  V30 436 H 50.9714 -4.07601 0.826675 0
M  V30 437 H 49.5484 -3.60757 -0.943869 0
M  V30 438 N 51.7335 -0.305618 -1.54608 0
M  V30 439 C 52.6965 0.555591 -2.22364 0
M  V30 440 C 53.6965 1.05768 -1.21119 0
M  V30 441 O 54.8865 0.952972 -1.45822 0
M  V30 442 C 52.0185 1.76974 -2.91364 0
M  V30 443 H 53.2115 -0.0364572 -2.99878 0
M  V30 444 H 50.7645 -0.0565007 -1.56198 0
M  V30 445 H 51.4995 2.40151 -2.17941 0
M  V30 446 H 51.2845 1.41732 -3.65588 0
M  V30 447 H 52.7745 2.38148 -3.43038 0
M  V30 448 N 53.2116 1.57565 -0.0334293 0
M  V30 449 C 54.6276 1.56297 0.322997 0
M  V30 450 C 54.8276 1.03945 1.7262 0
M  V30 451 O 53.8836 0.688109 2.42943 0
M  V30 452 C 55.1966 3.00232 0.167664 0
M  V30 453 C 56.7446 3.12078 0.240107 0
M  V30 454 C 57.2196 4.57859 0.113513 0
M  V30 455 N 58.7106 4.62887 0.170359 0
M  V30 456 C 59.4456 5.73319 0.0962517 0
M  V30 457 N 58.9416 6.92794 -0.0291881 0
M  V30 458 N 60.7346 5.61898 0.150551 0
M  V30 459 H 52.8856 1.89923 -0.950956 0
M  V30 460 H 55.1486 0.873824 -0.367608 0
M  V30 461 H 54.8546 3.42501 -0.799102 0
M  V30 462 H 54.7286 3.654 0.936083 0
M  V30 463 H 57.1156 2.69718 1.19733 0
M  V30 464 H 57.1966 2.49623 -0.558763 0
M  V30 465 H 56.8406 5.009 -0.840314 0
M  V30 466 H 56.7706 5.18299 0.931302 0
M  V30 467 H 59.2616 3.76954 0.26728 0
M  V30 468 H 59.5746 7.7276 -0.0789252 0
M  V30 469 H 57.9196 6.94971 -0.0640299 0
M  V30 470 H 61.1106 4.67448 0.246981 0
M  V30 471 H 61.2836 6.47938 0.0893365 0
M  V30 472 N 54.6897 -0.239769 1.55765 0
M  V30 473 C 55.6367 -1.29696 1.90913 0
M  V30 474 C 56.6067 -1.47478 0.764164 0
M  V30 475 O 57.7917 -1.61345 1.01845 0
M  V30 476 C 54.9317 -2.64598 2.21544 0
M  V30 477 C 54.0447 -2.54765 3.48882 0
M  V30 478 C 53.1797 -3.82069 3.69049 0
M  V30 479 C 52.2187 -3.66883 4.89963 0
M  V30 480 N 51.3557 -4.86094 5.06614 0
M  V30 481 H 56.1957 -0.990224 2.81067 0
M  V30 482 H 53.7327 -0.477684 1.39128 0
M  V30 483 H 55.6907 -3.43132 2.3731 0
M  V30 484 H 54.3207 -2.93405 1.34585 0
M  V30 485 H 53.3727 -1.67763 3.41409 0
M  V30 486 H 54.6847 -2.39457 4.37563 0
M  V30 487 H 53.8387 -4.69046 3.84812 0
M  V30 488 H 52.5777 -4.00282 2.78614 0
M  V30 489 H 51.5827 -2.78289 4.74168 0
M  V30 490 H 52.8077 -3.50157 5.81865 0
M  V30 491 H 50.7537 -5.04655 4.19117 0
M  V30 492 H 50.6707 -4.73443 5.89396 0
M  V30 493 H 51.9387 -5.74549 5.26795 0
M  V30 494 N 56.1678 -1.49265 -0.50573 0
M  V30 495 C 57.3928 -1.62478 -1.28902 0
M  V30 496 C 57.8178 -0.294332 -1.85783 0
M  V30 497 O 57.1758 0.737412 -1.65626 0
M  V30 498 C 57.2238 -2.69268 -2.39848 0
M  V30 499 O 56.3278 -2.28113 -3.43567 0
M  V30 500 H 55.6688 -0.54399 -0.380751 0
M  V30 501 H 58.1988 -1.95421 -0.605952 0
M  V30 502 H 58.2088 -2.91291 -2.85681 0
M  V30 503 H 56.8838 -3.65846 -1.97812 0
M  V30 504 H 55.4608 -2.16401 -3.03685 0
M  V30 505 N 57.6459 0.756429 -1.3826 0
M  V30 506 C 58.5559 1.9009 -1.37488 0
M  V30 507 C 59.5719 1.71855 -0.272366 0
M  V30 508 O 60.7479 1.94827 -0.510318 0
M  V30 509 C 57.8129 3.25421 -1.19592 0
M  V30 510 C 56.8739 3.56202 -2.39622 0
M  V30 511 C 56.1069 4.85075 -2.2257 0
M  V30 512 O 56.3299 5.57246 -1.21793 0
M  V30 513 O 55.2639 5.15269 -3.11098 0
M  V30 514 H 59.0899 1.93695 -2.33914 0
M  V30 515 H 56.6749 0.901313 -1.1915 0
M  V30 516 H 58.5569 4.06337 -1.11661 0
M  V30 517 H 57.2319 3.22634 -0.262486 0
M  V30 518 H 56.1389 2.75458 -2.53128 0
M  V30 519 H 57.4719 3.63747 -3.31586 0
M  V30 520 N 59.124 1.23083 0.984299 0
M  V30 521 C 60.535 1.05609 1.5396 0
M  V30 522 C 60.886 -0.377793 1.92528 0
M  V30 523 O 60.011 -1.26398 1.75649 0
M  V30 524 C 60.606 1.91087 2.7977 0
M  V30 525 C 59.165 1.77885 3.31713 0
M  V30 526 C 58.312 1.87028 2.04733 0
M  V30 527 H 61.263 1.36802 0.804419 0
M  V30 528 H 61.284 1.43336 3.5247 0
M  V30 529 H 60.796 2.9544 2.51668 0
M  V30 530 H 58.897 0.762995 3.64704 0
M  V30 531 H 59.01 2.61047 4.01735 0
M  V30 532 H 57.374 1.30565 2.18689 0
M  V30 533 H 58.157 2.92929 1.79017 0
M  V30 534 N 60.6021 -1.18246 1.0419 0
M  V30 535 C 62.0131 -1.69914 0.773698 0
M  V30 536 C 62.3641 -1.83085 -0.705297 0
M  V30 537 O 61.4891 -1.51123 -1.5489 0
M  V30 538 C 62.0841 -3.08619 1.39784 0
M  V30 539 C 60.6431 -3.57494 1.17792 0
M  V30 540 C 59.7901 -2.34013 1.48773 0
M  V30 541 H 62.7411 -1.02904 1.20816 0
M  V30 542 H 62.7621 -3.71958 0.801714 0
M  V30 543 H 62.2741 -2.99001 2.47426 0
M  V30 544 H 60.3751 -3.72406 0.120295 0
M  V30 545 H 60.4881 -4.40852 1.87581 0
M  V30 546 H 58.8521 -2.37986 0.907463 0
M  V30 547 H 59.6351 -2.27013 2.57527 0
M  V30 548 N 62.0802 -0.821533 -1.34494 0
M  V30 549 C 63.0432 -0.247847 -2.27856 0
M  V30 550 C 64.0432 0.573453 -1.50227 0
M  V30 551 O 65.2332 0.389759 -1.69784 0
M  V30 552 C 62.3652 0.652698 -3.34593 0
M  V30 553 H 63.5582 -1.07146 -2.80107 0
M  V30 554 H 61.1112 -0.593291 -1.44602 0
M  V30 555 H 61.8462 1.49943 -2.87555 0
M  V30 556 H 61.6312 0.065292 -3.92046 0
M  V30 557 H 63.1212 1.04793 -4.04238 0
M  V30 558 N 63.5583 1.46682 -0.576371 0
M  V30 559 C 64.9693 1.86112 -0.148091 0
M  V30 560 C 65.3203 1.48073 1.2872 0
M  V30 561 O 64.4453 0.892656 1.97131 0
M  V30 562 C 65.0403 3.37786 -0.261982 0
M  V30 563 C 63.5993 3.76235 0.111384 0
M  V30 564 C 62.7463 2.70713 -0.60083 0
M  V30 565 H 65.6973 1.37927 -0.78497 0
M  V30 566 H 65.7183 3.77007 0.514364 0
M  V30 567 H 65.2303 3.6544 -1.30671 0
M  V30 568 H 63.3313 3.54198 1.15649 0
M  V30 569 H 63.4443 4.78391 -0.26052 0
M  V30 570 H 61.8083 2.54666 -0.0417783 0
M  V30 571 H 62.5913 3.01208 -1.64708 0
M  V30 572 N 65.0364 0.313813 1.54444 0
M  V30 573 C 66.2824 -0.292108 2.00685 0
M  V30 574 C 66.6154 -1.52548 1.20177 0
M  V30 575 O 65.8904 -1.92452 0.281531 0
M  V30 576 C 66.1734 -0.635968 3.5444 0
M  V30 577 C 66.0264 0.607437 4.4568 0
M  V30 578 C 67.3454 -1.45747 4.15266 0
M  V30 579 H 64.4644 -0.104697 0.729526 0
M  V30 580 H 67.1064 0.428457 1.85106 0
M  V30 581 H 65.2564 -1.24986 3.67846 0
M  V30 582 H 66.9284 1.24581 4.44159 0
M  V30 583 H 65.1714 1.23822 4.15753 0
M  V30 584 H 65.8424 0.322515 5.51057 0
M  V30 585 H 68.3184 -0.938645 4.05375 0
M  V30 586 H 67.1944 -1.66683 5.2298 0
M  V30 587 H 67.4554 -2.45063 3.67963 0
M  V30 588 N 66.5145 -1.57545 0.0417849 0
M  V30 589 C 67.9305 -1.56467 -0.314704 0
M  V30 590 C 68.1305 -1.04859 -1.72066 0
M  V30 591 O 67.1865 -0.700983 -2.42575 0
M  V30 592 C 68.4995 -3.00317 -0.15174 0
M  V30 593 C 70.0475 -3.12201 -0.223553 0
M  V30 594 C 70.5225 -4.57913 -0.0892295 0
M  V30 595 N 72.0135 -4.6297 -0.145808 0
M  V30 596 C 72.7485 -5.73362 -0.0658459 0
M  V30 597 N 72.2445 -6.92769 0.0659282 0
M  V30 598 N 74.0375 -5.6197 -0.12075 0
M  V30 599 H 66.1885 -1.89416 0.961014 0
M  V30 600 H 68.4515 -0.871862 0.372237 0
M  V30 601 H 68.1575 -3.42073 0.817254 0
M  V30 602 H 68.0315 -3.65892 -0.916692 0
M  V30 603 H 70.4185 -2.70349 -1.18301 0
M  V30 604 H 70.4995 -2.49323 0.571994 0
M  V30 605 H 70.1435 -5.00448 0.866867 0
M  V30 606 H 70.0735 -5.18786 -0.903802 0
M  V30 607 H 72.5645 -3.7709 -0.247286 0
M  V30 608 H 72.8775 -7.72707 0.119905 0
M  V30 609 H 71.2225 -6.94927 0.100885 0
M  V30 610 H 74.4135 -4.67572 -0.222187 0
M  V30 611 H 74.5865 -6.47977 -0.0549735 0
M  V30 612 N 67.9926 0.231505 -1.5589 0
M  V30 613 C 69.4086 0.580748 -1.48659 0
M  V30 614 C 69.6086 1.87617 -0.73498 0
M  V30 615 O 68.6646 2.51046 -0.270586 0
M  V30 616 C 69.9776 0.669202 -2.93159 0
M  V30 617 C 71.5256 0.760499 -3.03621 0
M  V30 618 C 72.0006 0.880383 -4.49459 0
M  V30 619 N 73.4916 0.944861 -4.53461 0
M  V30 620 C 74.2266 1.05716 -5.63571 0
M  V30 621 N 73.7226 1.13403 -6.83456 0
M  V30 622 N 75.5156 1.09152 -5.514 0
M  V30 623 H 67.6666 -0.618695 -2.03189 0
M  V30 624 H 69.9296 -0.215728 -0.923128 0
M  V30 625 H 69.6356 -0.212904 -3.51055 0
M  V30 626 H 69.5096 1.5361 -3.44505 0
M  V30 627 H 71.8966 1.63305 -2.45796 0
M  V30 628 H 71.9776 -0.131864 -2.5546 0
M  V30 629 H 71.6216 0.0123284 -5.07899 0
M  V30 630 H 71.5516 1.78802 -4.95316 0
M  V30 631 H 74.0426 0.896176 -3.6712 0
M  V30 632 H 74.3556 1.21921 -7.63122 0
M  V30 633 H 72.7006 1.10333 -6.86186 0
M  V30 634 H 75.8916 1.02805 -4.56671 0
M  V30 635 H 76.0646 1.17558 -6.37247 0
M  V30 636 N 69.4707 1.49531 0.497807 0
M  V30 637 C 70.4027 1.62559 1.61578 0
M  V30 638 C 71.4157 0.508134 1.54667 0
M  V30 639 O 72.6047 0.780309 1.60541 0
M  V30 640 C 69.7047 1.56925 3.00379 0
M  V30 641 C 68.8777 2.84257 3.3244 0
M  V30 642 C 67.9367 2.71632 4.50669 0
M  V30 643 O 66.9627 3.4557 4.52294 0
M  V30 644 N 68.1647 1.83391 5.5077 0
M  V30 645 H 70.9297 2.58981 1.50828 0
M  V30 646 H 68.4907 1.4666 0.685743 0
M  V30 647 H 70.4827 1.46129 3.77397 0
M  V30 648 H 69.0527 0.683483 3.05037 0
M  V30 649 H 68.2727 3.09381 2.44289 0
M  V30 650 H 69.5607 3.68666 3.5066 0
M  V30 651 H 68.9587 1.22583 5.52259 0
M  V30 652 H 67.5157 1.78515 6.26878 0
M  V30 653 N 70.9488 -0.749086 1.3866 0
M  V30 654 C 72.1738 -1.54344 1.38538 0
M  V30 655 C 72.5988 -1.88088 -0.0216655 0
M  V30 656 O 71.9568 -1.50899 -1.00494 0
M  V30 657 C 72.0048 -2.8164 2.25192 0
M  V30 658 O 71.1088 -3.7698 1.67212 0
M  V30 659 H 70.4498 -0.466654 0.472367 0
M  V30 660 H 72.9798 -0.925355 1.82478 0
M  V30 661 H 72.9898 -3.30519 2.3921 0
M  V30 662 H 71.6648 -2.56411 3.27454 0
M  V30 663 H 70.2418 -3.35699 1.6236 0
M  V30 664 N 72.4269 -1.23603 -0.977757 0
M  V30 665 C 73.6569 -1.09487 -1.75203 0
M  V30 666 C 74.0649 0.356321 -1.85814 0
M  V30 667 O 73.4079 1.25816 -1.33851 0
M  V30 668 C 73.4699 -1.64905 -3.19447 0
M  V30 669 C 73.1339 -3.13688 -3.32338 0
M  V30 670 C 74.1309 -4.10953 -3.18455 0
M  V30 671 C 71.8159 -3.53449 -3.56902 0
M  V30 672 C 73.8099 -5.45962 -3.28944 0
M  V30 673 C 71.4969 -4.88602 -3.6703 0
M  V30 674 C 72.4949 -5.84668 -3.53062 0
M  V30 675 O 72.1829 -7.17365 -3.62826 0
M  V30 676 H 71.9149 -0.38367 -0.556573 0
M  V30 677 H 74.4689 -1.6398 -1.23693 0
M  V30 678 H 72.6989 -1.04835 -3.72218 0
M  V30 679 H 74.3879 -1.46226 -3.78646 0
M  V30 680 H 75.1539 -3.81577 -2.99372 0
M  V30 681 H 71.0329 -2.79188 -3.66844 0
M  V30 682 H 74.5769 -6.20925 -3.17958 0
M  V30 683 H 70.4739 -5.17653 -3.85623 0
M  V30 684 H 71.2419 -7.2515 -3.79605 0
M  V30 685 N 73.905 1.17692 -1.04816 0
M  V30 686 C 75.13 1.92327 -0.776207 0
M  V30 687 C 75.555 1.76082 0.661581 0
M  V30 688 O 74.913 1.076 1.45917 0
M  V30 689 C 74.961 3.41539 -1.15687 0
M  V30 690 O 74.065 4.11402 -0.286775 0
M  V30 691 H 73.406 0.599735 -0.284981 0
M  V30 692 H 75.936 1.49201 -1.4 0
M  V30 693 H 75.946 3.92269 -1.12202 0
M  V30 694 H 74.621 3.52684 -2.20425 0
M  V30 695 H 73.198 3.70939 -0.381903 0
M  V30 696 N 75.3831 0.828654 1.34056 0
M  V30 697 C 76.6081 0.431637 2.02859 0
M  V30 698 C 77.0331 -0.956339 1.61975 0
M  V30 699 O 76.3911 -1.62338 0.807228 0
M  V30 700 C 76.4391 0.548323 3.56407 0
M  V30 701 O 75.5431 -0.429556 4.10157 0
M  V30 702 H 74.8841 0.176886 0.640006 0
M  V30 703 H 77.4141 1.12066 1.71179 0
M  V30 704 H 77.4241 0.426196 4.05768 0
M  V30 705 H 76.0991 1.5606 3.8551 0
M  V30 706 H 74.6761 -0.265836 3.71951 0
M  V30 707 N 76.8612 -1.46375 0.584142 0
M  V30 708 C 78.0892 -2.06761 0.0759296 0
M  V30 709 C 78.5042 -1.43266 -1.22965 0
M  V30 710 O 77.8612 -0.538458 -1.74376 0
M  V30 711 C 77.9122 -3.61375 -0.0950384 0
M  V30 712 O 77.6332 -4.22495 1.15887 0
M  V30 713 C 79.1342 -4.38693 -0.637434 0
M  V30 714 H 76.3542 -0.668479 0.0581075 0
M  V30 715 H 78.8982 -1.8798 0.805218 0
M  V30 716 H 77.0532 -3.79578 -0.774554 0
M  V30 717 H 77.4672 -5.15385 0.973598 0
M  V30 718 H 78.9412 -5.47464 -0.706237 0
M  V30 719 H 79.4182 -4.06836 -1.65472 0
M  V30 720 H 80.0242 -4.25299 0.00725967 0
M  V30 721 N 78.3393 -0.321999 -1.54275 0
M  V30 722 C 79.5643 0.285791 -2.05422 0
M  V30 723 C 79.9893 1.45124 -1.19669 0
M  V30 724 O 79.3473 1.80132 -0.205441 0
M  V30 725 C 79.3953 0.69956 -3.53749 0
M  V30 726 O 78.4993 1.8021 -3.70942 0
M  V30 727 H 77.8403 0.0518962 -0.661969 0
M  V30 728 H 80.3703 -0.469954 -1.9913 0
M  V30 729 H 80.3803 0.982649 -3.9599 0
M  V30 730 H 79.0553 -0.152864 -4.15619 0
M  V30 731 H 77.6323 1.51794 -3.40607 0
M  V30 732 N 79.8174 1.5752 -0.0501392 0
M  V30 733 C 81.2334 1.56631 0.306402 0
M  V30 734 C 81.4334 1.0577 1.71508 0
M  V30 735 O 80.4894 0.713837 2.422 0
M  V30 736 C 81.8024 3.00393 0.135811 0
M  V30 737 C 83.3504 3.12315 0.206993 0
M  V30 738 C 83.8254 4.57954 0.064944 0
M  V30 739 N 85.3164 4.63041 0.121254 0
M  V30 740 C 86.0514 5.73389 0.0354381 0
M  V30 741 N 85.5474 6.92724 -0.102666 0
M  V30 742 N 87.3404 5.62026 0.090946 0
M  V30 743 H 79.4914 1.88903 -0.971046 0
M  V30 744 H 81.7544 0.869876 -0.376855 0
M  V30 745 H 81.4604 3.41635 -0.835384 0
M  V30 746 H 81.3344 3.66373 0.897275 0
M  V30 747 H 83.7214 2.70973 1.16866 0
M  V30 748 H 83.8024 2.49016 -0.585208 0
M  V30 749 H 83.4464 4.99981 -0.893394 0
M  V30 750 H 83.3764 5.19258 0.876277 0
M  V30 751 H 85.8674 3.77216 0.227284 0
M  V30 752 H 86.1804 7.72633 -0.160882 0
M  V30 753 H 84.5254 6.94864 -0.137737 0
M  V30 754 H 87.7164 4.67684 0.197388 0
M  V30 755 H 87.8894 6.47997 0.0206089 0
M  V30 756 N 81.2955 -0.223234 1.56011 0
M  V30 757 C 82.5435 -0.946003 1.78592 0
M  V30 758 C 82.8645 -1.84936 0.618349 0
M  V30 759 O 82.1345 -1.92473 -0.364833 0
M  V30 760 H 80.7145 -0.352298 0.658707 0
M  V30 761 H 83.3765 -0.235494 1.93472 0
M  V30 762 H 82.4725 -1.55381 2.70672 0
M  V30 763 N 82.7736 -1.49793 -0.48987 0
M  V30 764 C 84.0226 -1.59085 -1.23995 0
M  V30 765 C 84.3356 -0.287907 -1.9347 0
M  V30 766 O 85.5416 -0.259506 -2.70257 0
M  V30 767 C 83.9976 -2.80736 -2.252 0
M  V30 768 C 83.6056 -4.17833 -1.61614 0
M  V30 769 C 85.3496 -2.99364 -3.00967 0
M  V30 770 C 83.2566 -5.30693 -2.60996 0
M  V30 771 H 82.1866 -0.592372 -0.466488 0
M  V30 772 H 84.8376 -1.76197 -0.51252 0
M  V30 773 H 83.2196 -2.57142 -3.01154 0
M  V30 774 H 84.3936 -4.51608 -0.915774 0
M  V30 775 H 82.7086 -4.04656 -0.981977 0
M  V30 776 H 85.3056 -3.80851 -3.75308 0
M  V30 777 H 85.6486 -2.10356 -3.59244 0
M  V30 778 H 86.1816 -3.2305 -2.32128 0
M  V30 779 H 82.9206 -6.21796 -2.07485 0
M  V30 780 H 82.4406 -5.01359 -3.2924 0
M  V30 781 H 84.1196 -5.6049 -3.23202 0
M  V30 782 N 84.2517 0.741722 -1.39055 0
M  V30 783 C 85.4767 1.53607 -1.39354 0
M  V30 784 C 85.9017 1.88096 0.0116905 0
M  V30 785 O 85.2597 1.5143 0.996924 0
M  V30 786 C 85.3077 2.80441 -2.26682 0
M  V30 787 O 84.4117 3.76088 -1.69208 0
M  V30 788 H 83.7527 0.464142 -0.474835 0
M  V30 789 H 86.2827 0.915665 -1.82967 0
M  V30 790 H 86.2927 3.29246 -2.40959 0
M  V30 791 H 84.9677 2.5467 -3.2881 0
M  V30 792 H 83.5447 3.34833 -1.64138 0
M  V30 793 N 85.7298 1.2412 0.971189 0
M  V30 794 C 86.9758 1.08041 1.71625 0
M  V30 795 C 87.3088 -0.380407 1.90438 0
M  V30 796 O 86.5838 -1.28127 1.46334 0
M  V30 797 C 86.8668 1.81682 3.10908 0
M  V30 798 C 86.7198 3.35493 2.99608 0
M  V30 799 C 88.0388 1.58671 4.10501 0
M  V30 800 H 85.1578 0.39388 0.622919 0
M  V30 801 H 87.7998 1.52743 1.13003 0
M  V30 802 H 85.9498 1.43684 3.60953 0
M  V30 803 H 87.6218 3.83068 2.57015 0
M  V30 804 H 85.8648 3.64052 2.35899 0
M  V30 805 H 86.5358 3.82217 3.98264 0
M  V30 806 H 89.0118 1.91719 3.69301 0
M  V30 807 H 87.8878 2.1266 5.06031 0
M  V30 808 H 88.1488 0.524161 4.38982 0
M  V30 809 N 87.2079 -1.17134 1.05439 0
M  V30 810 C 88.4359 -1.91372 0.786414 0
M  V30 811 C 88.8509 -1.76955 -0.658202 0
M  V30 812 O 88.2079 -1.10838 -1.44987 0
M  V30 813 C 88.2589 -3.42356 1.1608 0
M  V30 814 O 87.9799 -3.56332 2.54871 0
M  V30 815 C 89.4809 -4.33663 0.919322 0
M  V30 816 H 86.7009 -0.607118 0.285743 0
M  V30 817 H 89.2449 -1.48525 1.40572 0
M  V30 818 H 87.3999 -3.82939 0.586191 0
M  V30 819 H 87.8139 -4.49896 2.69618 0
M  V30 820 H 89.2879 -5.38099 1.231 0
M  V30 821 H 89.7649 -4.38959 -0.145359 0
M  V30 822 H 90.3709 -3.98796 1.47789 0
M  V30 823 N 88.686 -0.835752 -1.33615 0
M  V30 824 C 89.633 -0.26473 -2.29277 0
M  V30 825 C 90.603 0.617712 -1.54187 0
M  V30 826 O 91.788 0.556641 -1.825 0
M  V30 827 C 88.928 0.556777 -3.40579 0
M  V30 828 C 88.041 -0.349339 -4.30585 0
M  V30 829 C 87.176 0.482969 -5.29 0
M  V30 830 C 86.215 -0.421732 -6.10645 0
M  V30 831 N 85.352 0.372262 -7.01112 0
M  V30 832 H 90.192 -1.08582 -2.77514 0
M  V30 833 H 87.729 -0.546927 -1.36554 0
M  V30 834 H 89.687 1.04852 -4.03809 0
M  V30 835 H 88.317 1.34286 -2.93542 0
M  V30 836 H 87.369 -0.959372 -3.68104 0
M  V30 837 H 88.681 -1.04445 -4.87742 0
M  V30 838 H 87.835 1.03866 -5.97743 0
M  V30 839 H 86.574 1.21153 -4.72412 0
M  V30 840 H 85.579 -0.989464 -5.40823 0
M  V30 841 H 86.804 -1.14861 -6.69316 0
M  V30 842 H 84.75 1.08426 -6.46977 0
M  V30 843 H 84.667 -0.264198 -7.55538 0
M  V30 844 H 85.935 0.910293 -7.74167 0
M  V30 845 N 90.1641 1.46063 -0.591896 0
M  V30 846 C 91.1111 2.30399 0.136069 0
M  V30 847 C 92.0811 1.41169 0.875238 0
M  V30 848 O 93.2661 1.70112 0.86409 0
M  V30 849 C 90.4061 3.25804 1.13781 0
M  V30 850 C 89.5191 4.30134 0.401137 0
M  V30 851 C 88.6541 5.12659 1.39121 0
M  V30 852 C 87.6931 6.0873 0.641462 0
M  V30 853 N 86.8301 6.8409 1.58004 0
M  V30 854 H 91.6701 2.92118 -0.589144 0
M  V30 855 H 89.2071 1.43959 -0.302342 0
M  V30 856 H 91.1651 3.79569 1.73156 0
M  V30 857 H 89.7951 2.65872 1.83062 0
M  V30 858 H 88.8471 3.79152 -0.307826 0
M  V30 859 H 90.1591 4.98458 -0.184565 0
M  V30 860 H 89.3131 5.70747 2.05749 0
M  V30 861 H 88.0521 4.44316 2.01084 0
M  V30 862 H 87.0571 5.49786 -0.0385419 0
M  V30 863 H 88.2821 6.79095 0.0270945 0
M  V30 864 H 86.2281 6.18449 2.18761 0
M  V30 865 H 86.1451 7.48709 1.04738 0
M  V30 866 H 87.4131 7.4673 2.23639 0
M  V30 867 N 91.6422 0.330177 1.54103 0
M  V30 868 C 92.8702 -0.272179 2.05102 0
M  V30 869 C 93.2852 -1.45267 1.20595 0
M  V30 870 O 92.6422 -1.8094 0.238144 0
M  V30 871 C 92.6932 -0.70023 3.54653 0
M  V30 872 O 92.4142 0.433301 4.35952 0
M  V30 873 C 93.9152 -1.3647 4.21771 0
M  V30 874 H 91.1352 -0.0549159 0.668749 0
M  V30 875 H 93.6792 0.478285 1.98828 0
M  V30 876 H 91.8342 -1.40066 3.61193 0
M  V30 877 H 92.2482 0.0947539 5.24414 0
M  V30 878 H 93.7222 -1.61509 5.27843 0
M  V30 879 H 94.1992 -2.31409 3.73292 0
M  V30 880 H 94.8052 -0.706675 4.19388 0
M  V30 881 N 93.1203 -1.57491 0.0584922 0
M  V30 882 C 94.0703 -2.08474 -0.923188 0
M  V30 883 C 95.0543 -0.991479 -1.26722 0
M  V30 884 O 96.2463 -1.25473 -1.24842 0
M  V30 885 C 93.3753 -2.6392 -2.19548 0
M  V30 886 C 92.4613 -3.80227 -1.87852 0
M  V30 887 N 92.8523 -4.89714 -1.26546 0
M  V30 888 C 91.1503 -3.89271 -2.17679 0
M  V30 889 C 91.8513 -5.70689 -1.12644 0
M  V30 890 N 90.8273 -5.18531 -1.63176 0
M  V30 891 H 94.6293 -2.90517 -0.444653 0
M  V30 892 H 92.1433 -1.61745 -0.145764 0
M  V30 893 H 94.1403 -2.98752 -2.9078 0
M  V30 894 H 92.8003 -1.83318 -2.68001 0
M  V30 895 H 93.8113 -5.09358 -0.936757 0
M  V30 896 H 90.4883 -3.19623 -2.68602 0
M  V30 897 H 91.8783 -6.6875 -0.6499 0
M  V30 898 N 94.5984 0.214957 -1.56127 0
M  V30 899 C 95.8264 0.955092 -1.83536 0
M  V30 900 C 96.2414 1.77677 -0.638472 0
M  V30 901 O 95.5984 1.78219 0.392968 0
M  V30 902 C 95.6494 1.86734 -3.09536 0
M  V30 903 O 95.3704 1.07887 -4.24608 0
M  V30 904 C 96.8714 2.72082 -3.4998 0
M  V30 905 H 94.0914 0.279611 -0.609966 0
M  V30 906 H 96.6354 0.228197 -2.03223 0
M  V30 907 H 94.7904 2.5481 -2.91806 0
M  V30 908 H 95.2044 1.69872 -4.9623 0
M  V30 909 H 96.6784 3.31782 -4.41163 0
M  V30 910 H 97.1554 3.44806 -2.7204 0
M  V30 911 H 97.7614 2.09409 -3.70173 0
M  V30 912 N 96.0765 1.50051 0.48192 0
M  V30 913 C 97.3015 1.64508 1.26301 0
M  V30 914 C 97.7265 0.323851 1.85291 0
M  V30 915 O 97.0845 -0.710969 1.66778 0
M  V30 916 C 97.1325 2.7305 2.35533 0
M  V30 917 O 96.2365 2.3355 3.39895 0
M  V30 918 H 95.5775 0.549978 0.372048 0
M  V30 919 H 98.1075 1.9636 0.574786 0
M  V30 920 H 98.1175 2.95799 2.8101 0
M  V30 921 H 96.7925 3.68946 1.91967 0
M  V30 922 H 95.3695 2.21205 3.00204 0
M  V30 923 N 97.5546 -0.734337 1.39446 0
M  V30 924 C 98.4866 -1.85861 1.34121 0
M  V30 925 C 99.4996 -1.60871 0.249864 0
M  V30 926 O 100.689 -1.71093 0.508865 0
M  V30 927 C 97.7886 -3.21899 1.05991 0
M  V30 928 C 96.9616 -3.74239 2.26415 0
M  V30 929 C 96.0206 -4.88841 1.94733 0
M  V30 930 O 95.0466 -5.02468 2.67422 0
M  V30 931 N 96.2486 -5.73261 0.913884 0
M  V30 932 H 99.0136 -1.90934 2.31007 0
M  V30 933 H 96.5746 -0.915102 1.33557 0
M  V30 934 H 98.5666 -3.96136 0.828147 0
M  V30 935 H 97.1366 -3.12091 0.178361 0
M  V30 936 H 96.3566 -2.91347 2.65539 0
M  V30 937 H 97.6446 -4.05942 3.06738 0
M  V30 938 H 97.0426 -5.64842 0.311476 0
M  V30 939 H 95.5996 -6.47563 0.742015 0
M  V30 940 N 99.0327 -1.24633 -0.964593 0
M  V30 941 C 100.282 -1.08188 -1.7023 0
M  V30 942 C 100.595 0.37873 -1.91898 0
M  V30 943 O 101.801 0.663427 -2.6327 0
M  V30 944 C 100.257 -1.88773 -3.06419 0
M  V30 945 C 99.8647 -3.39263 -2.92582 0
M  V30 946 C 101.609 -1.80867 -3.84041 0
M  V30 947 C 99.5157 -4.1218 -4.24101 0
M  V30 948 H 98.4457 -0.401245 -0.638372 0
M  V30 949 H 101.097 -1.48742 -1.07462 0
M  V30 950 H 99.4787 -1.41035 -3.70034 0
M  V30 951 H 100.653 -3.94603 -2.37961 0
M  V30 952 H 98.9677 -3.48154 -2.28424 0
M  V30 953 H 101.565 -2.32646 -4.81435 0
M  V30 954 H 101.908 -0.774543 -4.09031 0
M  V30 955 H 102.441 -2.26301 -3.27159 0
M  V30 956 H 99.1797 -5.15965 -4.04303 0
M  V30 957 H 98.6997 -3.61626 -4.78526 0
M  V30 958 H 100.379 -4.19349 -4.92702 0
M  V30 959 N 100.511 1.16574 -1.06058 0
M  V30 960 C 101.421 2.2452 -0.680282 0
M  V30 961 C 102.437 1.71348 0.302604 0
M  V30 962 O 103.613 2.00822 0.152513 0
M  V30 963 C 100.678 3.46629 -0.0700315 0
M  V30 964 C 99.7388 4.14849 -1.10448 0
M  V30 965 C 98.9718 5.31129 -0.523256 0
M  V30 966 O 99.1948 5.66514 0.664709 0
M  V30 967 O 98.1288 5.88526 -1.26179 0
M  V30 968 H 101.955 2.59355 -1.58015 0
M  V30 969 H 99.5398 1.24043 -0.832694 0
M  V30 970 H 101.422 4.20543 0.268667 0
M  V30 971 H 100.097 3.13573 0.803353 0
M  V30 972 H 99.0038 3.42916 -1.49532 0
M  V30 973 H 100.337 4.51954 -1.94931 0
M  V30 974 N 101.989 0.842826 1.3317 0
M  V30 975 C 103.238 0.436738 1.96915 0
M  V30 976 C 103.551 -1.01025 1.67491 0
M  V30 977 O 104.757 -1.5212 2.24881 0
M  V30 978 C 103.213 0.730021 3.52418 0
M  V30 979 C 102.821 2.19195 3.90714 0
M  V30 980 C 104.565 0.391076 4.22695 0
M  V30 981 C 102.472 2.42907 5.39212 0
M  V30 982 H 101.402 0.15958 0.736919 0
M  V30 983 H 104.053 1.03196 1.51733 0
M  V30 984 H 102.435 0.0643755 3.95948 0
M  V30 985 H 103.609 2.8984 3.58231 0
M  V30 986 H 101.924 2.49425 3.33431 0
M  V30 987 H 104.521 0.545817 5.31907 0
M  V30 988 H 104.864 -0.666294 4.10933 0
M  V30 989 H 105.397 1.01212 3.84709 0
M  V30 990 H 102.136 3.47224 5.55982 0
M  V30 991 H 101.656 1.76827 5.73142 0
M  V30 992 H 103.335 2.2626 6.06148 0
M  V30 993 N 103.467 -1.45747 0.599634 0
M  V30 994 C 104.716 -2.01502 0.0893511 0
M  V30 995 C 105.029 -1.4748 -1.28488 0
M  V30 996 O 106.235 -1.95161 -1.88745 0
M  V30 997 C 104.691 -3.59735 0.109082 0
M  V30 998 C 104.299 -4.22754 1.48267 0
M  V30 999 C 106.043 -4.23085 -0.346374 0
M  V30 1000 C 103.95 -5.73115 1.45921 0
M  V30 1001 H 102.88 -0.753417 0.0296347 0
M  V30 1002 H 105.531 -1.67303 0.753788 0
M  V30 1003 H 103.913 -3.91087 -0.621854 0
M  V30 1004 H 105.087 -4.02987 2.23468 0
M  V30 1005 H 103.402 -3.71567 1.87955 0
M  V30 1006 H 105.999 -5.33327 -0.38298 0
M  V30 1007 H 106.342 -3.93201 -1.36743 0
M  V30 1008 H 106.875 -3.9642 0.331038 0
M  V30 1009 H 103.614 -6.07685 2.45762 0
M  V30 1010 H 103.134 -5.95097 0.749665 0
M  V30 1011 H 104.813 -6.3616 1.17941 0
M  V30 1012 N 104.945 -0.338344 -1.53925 0
M  V30 1013 C 106.356 0.146651 -1.86123 0
M  V30 1014 C 106.707 1.5042 -1.2597 0
M  V30 1015 O 105.832 2.08723 -0.571294 0
M  V30 1016 C 106.427 0.272879 -3.37699 0
M  V30 1017 C 104.986 0.702103 -3.69794 0
M  V30 1018 C 104.133 -0.167304 -2.76795 0
M  V30 1019 H 107.084 -0.558123 -1.48562 0
M  V30 1020 H 107.105 1.10128 -3.64214 0
M  V30 1021 H 106.617 -0.715307 -3.81451 0
M  V30 1022 H 104.718 1.6995 -3.31584 0
M  V30 1023 H 104.831 0.495604 -4.7653 0
M  V30 1024 H 103.195 0.359527 -2.5215 0
M  V30 1025 H 103.978 -1.15253 -3.23375 0
M  V30 1026 N 106.423 1.57458 -0.0668435 0
M  V30 1027 C 107.663 1.95175 0.607116 0
M  V30 1028 C 108.027 0.946039 1.67075 0
M  V30 1029 O 109.228 1.2107 2.39991 0
M  V30 1030 C 107.499 3.37582 1.17358 0
M  V30 1031 S 109.058 3.97271 1.86336 0
M  V30 1032 H 105.876 0.682604 0.19893 0
M  V30 1033 H 108.478 1.95002 -0.139519 0
M  V30 1034 H 107.182 4.08566 0.387553 0
M  V30 1035 H 106.713 3.41288 1.95669 0
M  V30 1036 H 108.728 3.83772 3.14537 0
M  V30 1037 N 107.901 -0.206675 1.56239 0
M  V30 1038 C 108.848 -1.25617 1.93621 0
M  V30 1039 C 109.818 -1.45824 0.795274 0
M  V30 1040 O 111.003 -1.59148 1.05245 0
M  V30 1041 C 108.143 -2.59839 2.27107 0
M  V30 1042 C 107.256 -2.47308 3.54207 0
M  V30 1043 C 106.391 -3.74155 3.7707 0
M  V30 1044 C 105.43 -3.56407 4.97635 0
M  V30 1045 N 104.567 -4.75238 5.1681 0
M  V30 1046 H 109.407 -0.930383 2.83104 0
M  V30 1047 H 106.944 -0.448065 1.4011 0
M  V30 1048 H 108.902 -3.38021 2.44535 0
M  V30 1049 H 107.532 -2.90485 1.40778 0
M  V30 1050 H 106.584 -1.60483 3.4489 0
M  V30 1051 H 107.896 -2.30122 4.42544 0
M  V30 1052 H 107.05 -4.60778 3.94675 0
M  V30 1053 H 105.789 -3.94282 2.87042 0
M  V30 1054 H 104.794 -2.68168 4.79964 0
M  V30 1055 H 106.019 -3.37736 5.89161 0
M  V30 1056 H 103.965 -4.95651 4.29728 0
M  V30 1057 H 103.882 -4.60835 5.99306 0
M  V30 1058 H 105.15 -5.63246 5.38864 0
M  V30 1059 N 109.379 -1.50304 -0.473955 0
M  V30 1060 C 110.628 -1.60392 -1.22301 0
M  V30 1061 C 110.941 -0.308411 -1.93153 0
M  V30 1062 O 112.147 -0.288156 -2.69966 0
M  V30 1063 C 110.603 -2.83109 -2.2221 0
M  V30 1064 C 110.211 -4.19524 -1.57173 0
M  V30 1065 C 111.955 -3.0254 -2.97775 0
M  V30 1066 C 109.862 -5.33431 -2.55353 0
M  V30 1067 H 108.792 -0.597286 -0.460179 0
M  V30 1068 H 111.443 -1.76731 -0.493803 0
M  V30 1069 H 109.825 -2.60322 -2.9841 0
M  V30 1070 H 110.999 -4.52554 -0.867824 0
M  V30 1071 H 109.314 -4.05674 -0.939002 0
M  V30 1072 H 111.911 -3.84811 -3.71248 0
M  V30 1073 H 112.254 -2.14154 -3.56992 0
M  V30 1074 H 112.787 -3.25494 -2.28688 0
M  V30 1075 H 109.526 -6.23962 -2.00878 0
M  V30 1076 H 109.046 -5.04823 -3.23904 0
M  V30 1077 H 110.725 -5.63887 -3.17239 0
M  V30 1078 N 110.857 0.726932 -1.39834 0
M  V30 1079 C 112.097 1.4992 -1.38936 0
M  V30 1080 C 112.461 1.91996 0.0126883 0
M  V30 1081 O 113.662 2.68399 0.146715 0
M  V30 1082 C 111.933 2.70013 -2.34153 0
M  V30 1083 S 113.492 3.59563 -2.51515 0
M  V30 1084 H 110.31 0.51271 -0.492595 0
M  V30 1085 H 112.912 0.85107 -1.76003 0
M  V30 1086 H 111.616 2.37254 -3.34871 0
M  V30 1087 H 111.147 3.39748 -1.98331 0
M  V30 1088 H 113.162 4.63973 -1.75909 0
M  V30 1089 N 112.336 1.25143 0.95797 0
M  V30 1090 C 113.584 1.09476 1.69881 0
M  V30 1091 C 113.905 -0.365502 1.91544 0
M  V30 1092 O 113.175 -1.25985 1.50015 0
M  V30 1093 H 111.755 0.402128 0.629525 0
M  V30 1094 H 114.417 1.57214 1.15194 0
M  V30 1095 H 113.513 1.60046 2.6794 0
M  V30 1096 N 113.814 -1.1601 1.06675 0
M  V30 1097 C 115.091 -1.82679 0.699114 0
M  V30 1098 C 115.471 -1.94559 -0.819137 0
M  V30 1099 O 114.819 -1.49169 -1.73092 0
M  V30 1100 C 115.029 -3.19445 1.40555 0
M  V30 1101 C 116.377 -3.95171 1.55323 0
M  V30 1102 O 117.401 -3.28976 1.36577 0
M  V30 1103 O 116.26 -5.13833 1.86112 0
M  V30 1104 H 113.354 -0.788954 0.247951 0
M  V30 1105 H 115.9 -1.23179 1.16726 0
M  V30 1106 H 114.672 -3.05856 2.44065 0
M  V30 1107 H 114.295 -3.86625 0.927733 0
M  V30 1108 N 115.292 -0.849877 -1.32721 0
M  V30 1109 C 116.239 -0.289033 -2.28983 0
M  V30 1110 C 117.209 0.601324 -1.54833 0
M  V30 1111 O 118.394 0.537253 -1.8308 0
M  V30 1112 C 115.534 0.520623 -3.4115 0
M  V30 1113 C 114.647 -0.394989 -4.3019 0
M  V30 1114 C 113.782 0.426834 -5.29482 0
M  V30 1115 C 112.821 -0.486476 -6.10164 0
M  V30 1116 N 111.958 0.297879 -7.01468 0
M  V30 1117 H 116.798 -1.11519 -2.76347 0
M  V30 1118 H 114.335 -0.56138 -1.35967 0
M  V30 1119 H 116.293 1.00563 -4.04899 0
M  V30 1120 H 114.923 1.31165 -2.9495 0
M  V30 1121 H 113.975 -0.99836 -3.67065 0
M  V30 1122 H 115.287 -1.09612 -4.86607 0
M  V30 1123 H 114.441 0.975205 -5.98811 0
M  V30 1124 H 113.18 1.16136 -4.73671 0
M  V30 1125 H 112.185 -1.04677 -5.39743 0
M  V30 1126 H 113.41 -1.21953 -6.6806 0
M  V30 1127 H 111.356 1.01558 -6.48091 0
M  V30 1128 H 111.273 -0.344318 -7.55216 0
M  V30 1129 H 112.541 0.828131 -7.75089 0
M  V30 1130 N 116.77 1.45427 -0.607355 0
M  V30 1131 C 117.995 2.07124 -0.107006 0
M  V30 1132 C 118.42 1.44906 1.19933 0
M  V30 1133 O 117.778 0.541687 1.73019 0
M  V30 1134 C 117.826 3.60595 0.0194119 0
M  V30 1135 O 116.93 3.98285 1.0697 0
M  V30 1136 H 116.271 0.659868 -0.0739597 0
M  V30 1137 H 118.801 1.86683 -0.837297 0
M  V30 1138 H 118.811 4.07419 0.2177 0
M  V30 1139 H 117.486 4.05266 -0.934453 0
M  V30 1140 H 116.063 3.63133 0.847889 0
M  V30 1141 N 118.248 0.346503 1.53744 0
M  V30 1142 C 119.473 -0.253074 2.0585 0
M  V30 1143 C 119.898 -1.43202 1.21962 0
M  V30 1144 O 119.256 -1.79783 0.234073 0
M  V30 1145 C 119.304 -0.643193 3.54817 0
M  V30 1146 O 118.408 -1.74286 3.73762 0
M  V30 1147 H 117.749 -0.0413583 0.662711 0
M  V30 1148 H 120.279 0.501574 1.98357 0
M  V30 1149 H 120.289 -0.919526 3.97503 0
M  V30 1150 H 118.964 0.218966 4.15323 0
M  V30 1151 H 117.541 -1.46356 3.42979 0
M  V30 1152 N 119.726 -1.57421 0.075193 0
M  V30 1153 C 120.974 -1.93236 -0.591974 0
M  V30 1154 C 121.295 -0.956241 -1.69944 0
M  V30 1155 O 120.565 -0.00494792 -1.95899 0
M  V30 1156 H 119.145 -0.713355 -0.22166 0
M  V30 1157 H 121.807 -1.9444 0.133848 0
M  V30 1158 H 120.903 -2.95131 -1.01509 0
M  V30 1159 N 121.204 0.198386 -1.56346 0
M  V30 1160 C 122.453 0.917451 -1.79627 0
M  V30 1161 C 122.766 1.8456 -0.64784 0
M  V30 1162 O 123.972 2.60504 -0.764859 0
M  V30 1163 C 122.428 1.68175 -3.18191 0
M  V30 1164 C 122.036 0.798589 -4.40825 0
M  V30 1165 C 123.78 2.39065 -3.50782 0
M  V30 1166 C 121.687 1.56157 -5.70411 0
M  V30 1167 H 120.617 0.346317 -0.669762 0
M  V30 1168 H 123.268 0.170801 -1.82703 0
M  V30 1169 H 121.65 2.47216 -3.09354 0
M  V30 1170 H 122.824 0.0470665 -4.60776 0
M  V30 1171 H 121.139 0.200686 -4.15916 0
M  V30 1172 H 123.736 2.96692 -4.44835 0
M  V30 1173 H 124.079 3.13091 -2.74371 0
M  V30 1174 H 124.612 1.66993 -3.61052 0
M  V30 1175 H 121.351 0.864142 -6.49779 0
M  V30 1176 H 120.871 2.2871 -5.54483 0
M  V30 1177 H 122.55 2.11622 -6.11412 0
M  V30 1178 N 122.682 1.50554 0.465978 0
M  V30 1179 C 123.632 1.66177 1.56106 0
M  V30 1180 C 124.616 0.516265 1.52393 0
M  V30 1181 O 125.808 0.770906 1.5933 0
M  V30 1182 C 122.937 1.76396 2.94515 0
M  V30 1183 C 122.023 2.9664 3.03093 0
M  V30 1184 N 122.414 4.20245 2.81474 0
M  V30 1185 C 120.712 2.95304 3.34233 0
M  V30 1186 C 121.413 5.01259 2.95151 0
M  V30 1187 N 120.389 4.35318 3.25576 0
M  V30 1188 H 124.191 2.59434 1.38099 0
M  V30 1189 H 121.705 1.47808 0.6728 0
M  V30 1190 H 123.702 1.85694 3.73261 0
M  V30 1191 H 122.362 0.843017 3.13565 0
M  V30 1192 H 123.373 4.4966 2.56956 0
M  V30 1193 H 120.05 2.12729 3.59239 0
M  V30 1194 H 121.44 6.09564 2.82632 0
M  V30 1195 N 124.16 -0.719506 1.40217 0
M  V30 1196 C 125.39 -1.50646 1.41384 0
M  V30 1197 C 125.798 -1.89197 0.0107743 0
M  V30 1198 O 125.141 -1.55709 -0.974708 0
M  V30 1199 C 125.203 -2.81405 2.23722 0
M  V30 1200 C 124.867 -2.65199 3.72181 0
M  V30 1201 C 125.864 -2.32717 4.64907 0
M  V30 1202 C 123.549 -2.81586 4.1595 0
M  V30 1203 C 125.543 -2.16827 5.99387 0
M  V30 1204 C 123.23 -2.65313 5.50502 0
M  V30 1205 C 124.228 -2.32981 6.42035 0
M  V30 1206 O 123.916 -2.16827 7.74107 0
M  V30 1207 H 123.648 -0.471606 0.484318 0
M  V30 1208 H 126.202 -0.895456 1.84853 0
M  V30 1209 H 124.432 -3.44823 1.75026 0
M  V30 1210 H 126.121 -3.43102 2.16878 0
M  V30 1211 H 126.887 -2.19694 4.32388 0
M  V30 1212 H 122.766 -3.0574 3.45027 0
M  V30 1213 H 126.31 -1.91513 6.70797 0
M  V30 1214 H 122.207 -2.7792 5.82607 0
M  V30 1215 H 122.975 -2.31778 7.84998 0
M  V30 1216 N 125.638 -1.25649 -0.95132 0
M  V30 1217 C 126.886 -1.10375 -1.69298 0
M  V30 1218 C 127.207 0.355339 -1.91735 0
M  V30 1219 O 126.477 1.25188 -1.50681 0
M  V30 1220 H 125.057 -0.405461 -0.627384 0
M  V30 1221 H 127.719 -1.57823 -1.14358 0
M  V30 1222 H 126.815 -1.61465 -2.67087 0
M  V30 1223 N 127.117 1.15442 -1.07289 0
M  V30 1224 C 128.363 1.86489 -0.796846 0
M  V30 1225 C 128.696 1.82078 0.675371 0
M  V30 1226 O 127.971 1.24346 1.4956 0
M  V30 1227 C 128.254 3.35626 -1.30489 0
M  V30 1228 C 128.107 3.48673 -2.84161 0
M  V30 1229 C 129.426 4.30357 -0.920907 0
M  V30 1230 H 126.545 0.677144 -0.290939 0
M  V30 1231 H 129.187 1.35633 -1.33056 0
M  V30 1232 H 127.337 3.79068 -0.850883 0
M  V30 1233 H 129.009 3.14099 -3.37846 0
M  V30 1234 H 127.252 2.90253 -3.22391 0
M  V30 1235 H 127.923 4.53453 -3.14777 0
M  V30 1236 H 130.399 3.94871 -1.3121 0
M  V30 1237 H 129.275 5.33193 -1.30372 0
M  V30 1238 H 129.536 4.4176 0.173226 0
M  V30 1239 N 128.595 0.856903 1.32268 0
M  V30 1240 C 129.844 0.457599 1.96441 0
M  V30 1241 C 130.157 -0.992426 1.68553 0
M  V30 1242 O 131.363 -1.49727 2.26482 0
M  V30 1243 C 129.819 0.767358 3.51624 0
M  V30 1244 C 129.427 2.23326 3.88367 0
M  V30 1245 C 131.171 0.435887 4.22256 0
M  V30 1246 C 129.078 2.48613 5.36606 0
M  V30 1247 H 128.008 0.167387 0.735185 0
M  V30 1248 H 130.659 1.048 1.5063 0
M  V30 1249 H 129.041 0.106367 3.95857 0
M  V30 1250 H 130.215 2.93623 3.55137 0
M  V30 1251 H 128.53 2.52948 3.30766 0
M  V30 1252 H 131.127 0.602202 5.31298 0
M  V30 1253 H 131.47 -0.622672 4.11617 0
M  V30 1254 H 132.003 1.05286 3.83614 0
M  V30 1255 H 128.742 3.53101 5.52268 0
M  V30 1256 H 128.262 1.82896 5.71235 0
M  V30 1257 H 129.941 2.32676 6.03714 0
M  V30 1258 N 130.073 -1.45103 0.615059 0
M  V30 1259 C 131.301 -2.06553 0.11977 0
M  V30 1260 C 131.716 -1.45842 -1.19898 0
M  V30 1261 O 131.073 -0.575325 -1.73194 0
M  V30 1262 C 131.124 -3.61495 -0.018364 0
M  V30 1263 O 130.845 -4.19942 1.24822 0
M  V30 1264 C 132.346 -4.39947 -0.544237 0
M  V30 1265 H 129.566 -0.667096 0.0722739 0
M  V30 1266 H 132.11 -1.8623 0.84491 0
M  V30 1267 H 130.265 -3.81135 -0.693865 0
M  V30 1268 H 130.679 -5.13204 1.0827 0
M  V30 1269 H 132.153 -5.48838 -0.589953 0
M  V30 1270 H 132.63 -4.10255 -1.56805 0
M  V30 1271 H 133.236 -4.25188 0.0974703 0
M  V30 1272 N 131.551 -0.354651 -1.53558 0
M  V30 1273 C 132.791 0.238651 -2.03002 0
M  V30 1274 C 133.155 1.46878 -1.23656 0
M  V30 1275 O 134.356 2.13699 -1.63053 0
M  V30 1276 C 132.627 0.534175 -3.53386 0
M  V30 1277 S 134.186 1.10271 -4.24719 0
M  V30 1278 H 131.004 0.0702908 -0.707517 0
M  V30 1279 H 133.606 -0.494987 -1.8913 0
M  V30 1280 H 132.31 -0.368765 -4.0874 0
M  V30 1281 H 131.841 1.29718 -3.71398 0
M  V30 1282 H 133.856 2.38772 -4.34974 0
M  V30 1283 N 133.029 1.57378 -0.0835403 0
M  V30 1284 C 133.939 2.16897 0.894021 0
M  V30 1285 C 134.955 1.13528 1.31861 0
M  V30 1286 O 136.131 1.45848 1.3889 0
M  V30 1287 C 133.196 2.72831 2.13925 0
M  V30 1288 C 132.257 3.91115 1.76997 0
M  V30 1289 C 131.49 4.44371 2.95584 0
M  V30 1290 O 131.713 3.96596 4.09961 0
M  V30 1291 O 130.647 5.35549 2.74719 0
M  V30 1292 H 134.473 3.00814 0.417679 0
M  V30 1293 H 132.058 1.48741 0.140181 0
M  V30 1294 H 133.94 3.0863 2.86924 0
M  V30 1295 H 132.615 1.91967 2.60635 0
M  V30 1296 H 131.522 3.60148 1.01214 0
M  V30 1297 H 132.855 4.73307 1.3506 0
M  V30 1298 N 134.507 -0.190092 1.56449 0
M  V30 1299 C 135.755 -0.907908 1.80559 0
M  V30 1300 C 136.076 -1.83583 0.657438 0
M  V30 1301 O 135.346 -1.93203 -0.323924 0
M  V30 1302 H 133.926 -0.338247 0.666032 0
M  V30 1303 H 136.588 -0.194403 1.93928 0
M  V30 1304 H 135.684 -1.49604 2.73907 0
M  V30 1305 N 135.985 -1.50799 -0.457987 0
M  V30 1306 C 137.225 -1.64088 -1.21879 0
M  V30 1307 C 137.589 -0.339848 -1.88968 0
M  V30 1308 O 138.79 -0.348301 -2.66534 0
M  V30 1309 C 137.061 -2.79726 -2.2246 0
M  V30 1310 S 138.62 -3.13225 -3.07303 0
M  V30 1311 H 135.438 -0.578314 -0.41361 0
M  V30 1312 H 138.04 -1.88632 -0.513645 0
M  V30 1313 H 136.744 -3.72722 -1.71775 0
M  V30 1314 H 136.275 -2.57308 -2.97584 0
M  V30 1315 H 138.29 -2.58062 -4.23814 0
M  V30 1316 N 137.463 0.71206 -1.40597 0
M  V30 1317 C 138.41 1.82613 -1.41142 0
M  V30 1318 C 139.38 1.63925 -0.267903 0
M  V30 1319 O 140.565 1.85009 -0.466495 0
M  V30 1320 C 137.705 3.20354 -1.28324 0
M  V30 1321 C 136.818 3.50589 -2.52411 0
M  V30 1322 C 135.953 4.77855 -2.32009 0
M  V30 1323 C 134.992 5.01005 -3.51654 0
M  V30 1324 N 134.129 6.19487 -3.30425 0
M  V30 1325 H 138.969 1.81482 -2.36365 0
M  V30 1326 H 136.506 0.886475 -1.17388 0
M  V30 1327 H 138.464 3.99899 -1.18899 0
M  V30 1328 H 137.094 3.20705 -0.367189 0
M  V30 1329 H 136.146 2.65573 -2.72351 0
M  V30 1330 H 137.458 3.63604 -3.41458 0
M  V30 1331 H 136.612 5.65424 -2.19956 0
M  V30 1332 H 135.351 4.67056 -1.40392 0
M  V30 1333 H 134.356 4.1189 -3.64179 0
M  V30 1334 H 135.581 5.13674 -4.44202 0
M  V30 1335 H 133.527 6.09932 -2.41494 0
M  V30 1336 H 133.444 6.33194 -4.13039 0
M  V30 1337 H 134.712 7.09834 -3.22113 0
M  V30 1338 N 138.941 1.26152 0.944643 0
M  V30 1339 C 140.189 1.11271 1.6871 0
M  V30 1340 C 140.51 -0.345166 1.91921 0
M  V30 1341 O 139.78 -1.24387 1.51343 0
M  V30 1342 H 138.36 0.408783 0.625224 0
M  V30 1343 H 141.022 1.58427 1.1352 0
M  V30 1344 H 140.118 1.62879 2.66227 0
M  V30 1345 N 140.419 -1.14872 1.07899 0
M  V30 1346 C 141.666 -1.85789 0.805532 0
M  V30 1347 C 141.994 -1.82649 -0.668561 0
M  V30 1348 O 141.249 -1.24858 -1.50695 0
M  V30 1349 C 141.548 -3.34223 1.26609 0
M  V30 1350 C 141.214 -3.57555 2.74709 0
M  V30 1351 C 139.876 -3.63631 3.1516 0
M  V30 1352 C 142.228 -3.66803 3.70277 0
M  V30 1353 C 139.556 -3.76473 4.49983 0
M  V30 1354 C 141.908 -3.8117 5.04869 0
M  V30 1355 C 140.572 -3.85494 5.44932 0
M  V30 1356 H 139.842 -0.679849 0.294765 0
M  V30 1357 H 142.489 -1.3572 1.35101 0
M  V30 1358 H 140.794 -3.86536 0.640103 0
M  V30 1359 H 142.491 -3.87511 1.03132 0
M  V30 1360 H 139.081 -3.5347 2.42398 0
M  V30 1361 H 143.265 -3.61404 3.40149 0
M  V30 1362 H 138.521 -3.7808 4.80484 0
M  V30 1363 H 142.695 -3.87268 5.78789 0
M  V30 1364 H 140.322 -3.95197 6.49403 0
M  V30 1365 N 141.898 -0.863906 -1.31812 0
M  V30 1366 C 143.145 -0.471836 -1.96926 0
M  V30 1367 C 143.473 0.974578 -1.68322 0
M  V30 1368 O 142.728 1.7003 -0.968933 0
M  V30 1369 C 143.027 -0.668547 -3.51091 0
M  V30 1370 C 142.693 -2.08683 -3.99703 0
M  V30 1371 C 141.355 -2.47471 -4.12688 0
M  V30 1372 C 143.707 -3.01207 -4.25351 0
M  V30 1373 C 141.035 -3.78037 -4.4867 0
M  V30 1374 C 143.387 -4.31282 -4.62794 0
M  V30 1375 C 142.051 -4.69992 -4.73987 0
M  V30 1376 H 141.321 -0.172657 -0.720604 0
M  V30 1377 H 143.968 -1.09573 -1.57054 0
M  V30 1378 H 142.273 0.0385252 -3.91781 0
M  V30 1379 H 143.97 -0.345102 -3.99512 0
M  V30 1380 H 140.56 -1.77566 -3.90087 0
M  V30 1381 H 144.744 -2.72469 -4.14819 0
M  V30 1382 H 140 -4.078 -4.55532 0
M  V30 1383 H 144.174 -5.03031 -4.81594 0
M  V30 1384 H 141.801 -5.71207 -5.01624 0
M  V30 1385 N 143.376 1.44774 -0.622745 0
M  V30 1386 C 144.792 1.56986 -0.287652 0
M  V30 1387 C 144.992 1.61167 1.20944 0
M  V30 1388 O 144.048 1.55015 1.99315 0
M  V30 1389 C 145.361 2.84551 -0.972188 0
M  V30 1390 C 146.909 2.9825 -0.949536 0
M  V30 1391 C 147.384 4.28605 -1.61437 0
M  V30 1392 N 148.875 4.35399 -1.58057 0
M  V30 1393 C 149.61 5.34964 -2.064 0
M  V30 1394 N 149.106 6.40981 -2.62897 0
M  V30 1395 N 150.899 5.26419 -1.97078 0
M  V30 1396 H 143.05 1.40304 -1.59463 0
M  V30 1397 H 145.313 0.671794 -0.668878 0
M  V30 1398 H 145.019 2.87417 -2.02693 0
M  V30 1399 H 144.893 3.73807 -0.504771 0
M  V30 1400 H 147.28 2.94941 0.0967067 0
M  V30 1401 H 147.361 2.10364 -1.45536 0
M  V30 1402 H 147.005 4.32672 -2.66002 0
M  V30 1403 H 146.935 5.15334 -1.08344 0
M  V30 1404 H 149.426 3.59397 -1.16801 0
M  V30 1405 H 149.739 7.13225 -2.97539 0
M  V30 1406 H 148.084 6.4169 -2.66943 0
M  V30 1407 H 151.275 4.42504 -1.52669 0
M  V30 1408 H 151.448 6.03861 -2.35066 0
M  V30 1409 N 144.854 0.36279 1.53368 0
M  V30 1410 C 146.27 0.0116182 1.59596 0
M  V30 1411 C 146.47 -1.47012 1.37803 0
M  V30 1412 O 145.526 -2.23136 1.18181 0
M  V30 1413 C 146.839 0.465052 2.97082 0
M  V30 1414 C 148.387 0.419033 3.10182 0
M  V30 1415 C 148.862 0.848235 4.50077 0
M  V30 1416 N 150.353 0.803183 4.56183 0
M  V30 1417 C 151.088 1.107 5.62613 0
M  V30 1418 N 150.584 1.47996 6.76808 0
M  V30 1419 N 152.377 1.02998 5.52583 0
M  V30 1420 H 144.528 1.32775 1.65785 0
M  V30 1421 H 146.791 0.542518 0.777417 0
M  V30 1422 H 146.497 1.49892 3.18159 0
M  V30 1423 H 146.371 -0.149786 3.76902 0
M  V30 1424 H 148.758 -0.605696 2.88817 0
M  V30 1425 H 148.839 1.06933 2.32377 0
M  V30 1426 H 148.483 1.87107 4.7218 0
M  V30 1427 H 148.413 0.175218 5.26308 0
M  V30 1428 H 150.904 0.52838 3.74188 0
M  V30 1429 H 151.217 1.69613 7.53957 0
M  V30 1430 H 149.562 1.51859 6.78206 0
M  V30 1431 H 152.753 0.737817 4.62249 0
M  V30 1432 H 152.926 1.2701 6.35431 0
M  V30 1433 N 146.332 -1.57332 0.0918853 0
M  V30 1434 C 147.557 -1.98995 -0.584442 0
M  V30 1435 C 147.982 -0.970528 -1.61128 0
M  V30 1436 O 147.34 0.0613904 -1.81196 0
M  V30 1437 C 147.388 -3.39636 -1.21161 0
M  V30 1438 O 146.492 -3.40447 -2.32744 0
M  V30 1439 H 145.833 -0.647165 -0.148572 0
M  V30 1440 H 148.363 -2.03873 0.172347 0
M  V30 1441 H 148.373 -3.7726 -1.55367 0
M  V30 1442 H 147.048 -4.13356 -0.459313 0
M  V30 1443 H 145.625 -3.14614 -2.0018 0
M  V30 1444 N 147.81 0.181792 -1.56548 0
M  V30 1445 C 148.742 1.24956 -1.92142 0
M  V30 1446 C 149.755 1.41022 -0.813422 0
M  V30 1447 O 150.944 1.41212 -1.09186 0
M  V30 1448 C 148.044 2.61981 -2.14987 0
M  V30 1449 C 147.217 2.6735 -3.46183 0
M  V30 1450 C 146.276 3.85664 -3.5798 0
M  V30 1451 O 145.302 3.72148 -4.30691 0
M  V30 1452 N 146.504 5.01683 -2.92053 0
M  V30 1453 H 149.269 0.947329 -2.84334 0
M  V30 1454 H 146.83 0.371629 -1.57577 0
M  V30 1455 H 148.822 3.3958 -2.20154 0
M  V30 1456 H 147.392 2.84637 -1.2923 0
M  V30 1457 H 146.612 1.75925 -3.52766 0
M  V30 1458 H 147.9 2.67939 -4.32534 0
M  V30 1459 H 147.298 5.15564 -2.32832 0
M  V30 1460 H 145.855 5.77181 -3.0283 0
M  V30 1461 N 149.288 1.51039 0.449983 0
M  V30 1462 C 150.22 1.67617 1.56324 0
M  V30 1463 C 151.233 0.557083 1.52972 0
M  V30 1464 O 152.422 0.830989 1.57977 0
M  V30 1465 C 149.522 1.66402 2.95235 0
M  V30 1466 C 148.695 2.9469 3.23229 0
M  V30 1467 C 147.754 2.85832 4.41799 0
M  V30 1468 O 146.78 3.59785 4.41071 0
M  V30 1469 N 147.982 2.00821 5.44657 0
M  V30 1470 H 150.747 2.63648 1.42512 0
M  V30 1471 H 148.308 1.48767 0.638737 0
M  V30 1472 H 150.3 1.58062 3.72557 0
M  V30 1473 H 148.87 0.780182 3.02708 0
M  V30 1474 H 148.09 3.16996 2.34323 0
M  V30 1475 H 149.378 3.79636 3.38754 0
M  V30 1476 H 148.776 1.40091 5.48079 0
M  V30 1477 H 147.333 1.98368 6.20881 0
M  V30 1478 N 150.766 -0.704594 1.40972 0
M  V30 1479 C 151.991 -1.49858 1.43378 0
M  V30 1480 C 152.416 -1.88061 0.038184 0
M  V30 1481 O 151.774 -1.5402 -0.956425 0
M  V30 1482 C 151.822 -2.74333 2.34038 0
M  V30 1483 O 150.926 -3.7147 1.7912 0
M  V30 1484 H 150.267 -0.45139 0.486974 0
M  V30 1485 H 152.797 -0.866832 1.8533 0
M  V30 1486 H 152.807 -3.22741 2.49604 0
M  V30 1487 H 151.482 -2.45863 3.35446 0
M  V30 1488 H 150.059 -3.30363 1.72958 0
M  V30 1489 N 152.244 -1.26651 -0.937939 0
M  V30 1490 C 153.192 -1.08308 -2.05845 0
M  V30 1491 C 154.186 -0.0090757 -1.69398 0
M  V30 1492 O 155.392 -0.166007 -1.79233 0
M  V30 1493 H 151.767 -0.333416 -0.674046 0
M  V30 1494 H 153.738 -2.03261 -2.18467 0
M  V30 1495 C 152.487 -0.736229 -3.39816 0
M  V30 1496 H 151.81 -1.55453 -3.6834 0
M  V30 1497 H 153.25 -0.64769 -4.19024 0
M  V30 1498 C 151.709 0.558824 -3.32233 0
M  V30 1499 O 152.239 1.59621 -3.68624 0
M  V30 1500 N 150.445 0.550657 -2.85335 0
M  V30 1501 H 149.992 -0.293943 -2.55917 0
M  V30 1502 H 149.95 1.41726 -2.80644 0
M  V30 1503 N 153.722 1.14298 -1.08507 0
M  V30 1504 C 154.685 2.17607 -0.719711 0
M  V30 1505 C 155.685 1.58907 0.245997 0
M  V30 1506 O 156.875 1.74181 0.0254081 0
M  V30 1507 C 154.007 3.40842 -0.0627695 0
M  V30 1508 H 155.2 2.51443 -1.63452 0
M  V30 1509 H 152.753 1.28963 -0.88307 0
M  V30 1510 H 153.488 3.12587 0.863716 0
M  V30 1511 H 153.273 3.84713 -0.757504 0
M  V30 1512 H 154.763 4.17221 0.177786 0
M  V30 1513 N 155.201 0.870884 1.31352 0
M  V30 1514 C 156.429 0.49677 2.00848 0
M  V30 1515 C 156.844 -0.910998 1.65367 0
M  V30 1516 O 156.201 -1.59696 0.883374 0
M  V30 1517 C 156.252 0.645308 3.55694 0
M  V30 1518 O 155.973 1.99764 3.89905 0
M  V30 1519 C 157.474 0.272326 4.42463 0
M  V30 1520 H 154.694 0.193462 0.642506 0
M  V30 1521 H 157.238 1.1723 1.67563 0
M  V30 1522 H 155.393 0.0173176 3.87396 0
M  V30 1523 H 155.807 2.00607 4.84621 0
M  V30 1524 H 157.281 0.427208 5.50344 0
M  V30 1525 H 157.758 -0.788587 4.32062 0
M  V30 1526 H 158.364 0.876054 4.1618 0
M  V30 1527 N 156.679 -1.44442 0.630414 0
M  V30 1528 C 157.909 -2.06115 0.141465 0
M  V30 1529 C 158.317 -1.47179 -1.1889 0
M  V30 1530 O 157.66 -0.588873 -1.74006 0
M  V30 1531 C 157.722 -3.59467 -0.0484355 0
M  V30 1532 C 157.386 -4.40864 1.20366 0
M  V30 1533 C 158.383 -4.74391 2.12719 0
M  V30 1534 C 156.068 -4.8125 1.43887 0
M  V30 1535 C 158.062 -5.47186 3.26904 0
M  V30 1536 C 155.749 -5.53795 2.5837 0
M  V30 1537 C 156.747 -5.86682 3.49705 0
M  V30 1538 O 156.435 -6.57749 4.62191 0
M  V30 1539 H 156.167 -0.671648 0.0765792 0
M  V30 1540 H 158.721 -1.86312 0.864695 0
M  V30 1541 H 156.951 -3.77758 -0.826803 0
M  V30 1542 H 158.64 -4.02909 -0.491849 0
M  V30 1543 H 159.406 -4.43728 1.95781 0
M  V30 1544 H 155.285 -4.55073 0.736853 0
M  V30 1545 H 158.829 -5.72773 3.98217 0
M  V30 1546 H 154.726 -5.83872 2.75251 0
M  V30 1547 H 155.494 -6.76217 4.61164 0
M  V30 1548 N 158.157 -0.370918 -1.53173 0
M  V30 1549 C 159.382 0.220293 -2.06227 0
M  V30 1550 C 159.807 1.41243 -1.24225 0
M  V30 1551 O 159.165 1.79387 -0.262645 0
M  V30 1552 C 159.213 0.586663 -3.55796 0
M  V30 1553 O 158.317 1.68317 -3.76488 0
M  V30 1554 H 157.658 0.0308099 -0.663285 0
M  V30 1555 H 160.188 -0.533068 -1.97534 0
M  V30 1556 H 160.198 0.85617 -3.98916 0
M  V30 1557 H 158.873 -0.285013 -4.14922 0
M  V30 1558 H 157.45 1.40881 -3.45264 0
M  V30 1559 N 159.635 1.57281 -0.100228 0
M  V30 1560 C 160.875 1.96419 0.56558 0
M  V30 1561 C 161.239 0.981265 1.65031 0
M  V30 1562 O 162.44 1.26133 2.37369 0
M  V30 1563 C 160.711 3.39996 1.10171 0
M  V30 1564 S 162.27 4.01134 1.77867 0
M  V30 1565 H 159.088 0.68667 0.184406 0
M  V30 1566 H 161.69 1.94662 -0.180851 0
M  V30 1567 H 160.394 4.09296 0.300803 0
M  V30 1568 H 159.925 3.45361 1.88385 0
M  V30 1569 H 161.94 3.90358 3.06326 0
M  V30 1570 N 161.113 -0.173488 1.56642 0
M  V30 1571 C 162.524 -0.736155 1.71574 0
M  V30 1572 C 162.875 -1.82888 0.710389 0
M  V30 1573 O 162 -2.16017 -0.1287 0
M  V30 1574 C 162.595 -1.34211 3.11083 0
M  V30 1575 C 161.154 -1.85162 3.27707 0
M  V30 1576 C 160.301 -0.729765 2.67525 0
M  V30 1577 H 163.252 0.0518786 1.58615 0
M  V30 1578 H 163.273 -2.21178 3.09613 0
M  V30 1579 H 162.785 -0.546579 3.84232 0
M  V30 1580 H 160.886 -2.67366 2.59512 0
M  V30 1581 H 160.999 -1.99855 4.35425 0
M  V30 1582 H 159.363 -1.14965 2.27278 0
M  V30 1583 H 160.146 0.0538806 3.43258 0
M  V30 1584 N 162.591 -1.51276 -0.441967 0
M  V30 1585 C 164.007 -1.39349 -0.778083 0
M  V30 1586 C 164.207 -0.472212 -1.95889 0
M  V30 1587 O 163.263 0.0743551 -2.5239 0
M  V30 1588 C 164.576 -2.81292 -1.0628 0
M  V30 1589 C 166.124 -2.9041 -1.16751 0
M  V30 1590 C 166.599 -4.33251 -1.48519 0
M  V30 1591 N 168.09 -4.36336 -1.55453 0
M  V30 1592 C 168.825 -5.43885 -1.81596 0
M  V30 1593 N 168.321 -6.61601 -2.05562 0
M  V30 1594 N 170.114 -5.3136 -1.8334 0
M  V30 1595 H 162.265 -2.09729 0.335774 0
M  V30 1596 H 164.528 -0.943925 0.0878028 0
M  V30 1597 H 164.234 -3.50678 -0.267905 0
M  V30 1598 H 164.108 -3.20334 -1.99163 0
M  V30 1599 H 166.495 -2.21225 -1.95304 0
M  V30 1600 H 166.576 -2.54871 -0.217801 0
M  V30 1601 H 166.22 -5.02984 -0.704958 0
M  V30 1602 H 166.15 -4.66299 -2.44689 0
M  V30 1603 H 168.641 -3.51466 -1.38853 0
M  V30 1604 H 168.954 -7.39361 -2.24867 0
M  V30 1605 H 167.299 -6.64725 -2.02894 0
M  V30 1606 H 170.49 -4.38382 -1.64132 0
M  V30 1607 H 170.663 -6.15258 -2.03377 0
M  V30 1608 N 164.069 0.697108 -1.41344 0
M  V30 1609 C 165.001 1.8224 -1.39001 0
M  V30 1610 C 166.014 1.60152 -0.292428 0
M  V30 1611 O 167.203 1.69684 -0.554048 0
M  V30 1612 C 164.303 3.18976 -1.14489 0
M  V30 1613 C 163.476 3.68105 -2.36258 0
M  V30 1614 C 162.535 4.83506 -2.07625 0
M  V30 1615 O 161.561 4.95201 -2.8065 0
M  V30 1616 N 162.763 5.70637 -1.06555 0
M  V30 1617 H 165.528 1.84742 -2.35988 0
M  V30 1618 H 163.089 0.87937 -1.35936 0
M  V30 1619 H 165.081 3.93801 -0.932885 0
M  V30 1620 H 163.651 3.11508 -0.261043 0
M  V30 1621 H 162.871 2.84204 -2.7317 0
M  V30 1622 H 164.159 3.97667 -3.17393 0
M  V30 1623 H 163.557 5.63817 -0.461125 0
M  V30 1624 H 162.114 6.45368 -0.913444 0
M  V30 1625 N 165.547 1.27147 0.931209 0
M  V30 1626 C 166.494 1.09568 2.03134 0
M  V30 1627 C 167.464 -0.00222433 1.661 0
M  V30 1628 O 168.649 0.159439 1.90133 0
M  V30 1629 C 165.789 0.745231 3.36957 0
M  V30 1630 C 164.902 1.92041 3.86968 0
M  V30 1631 C 164.037 1.51216 5.09222 0
M  V30 1632 C 163.076 2.65504 5.5152 0
M  V30 1633 N 162.213 2.25291 6.64972 0
M  V30 1634 H 167.053 2.03708 2.17502 0
M  V30 1635 H 164.59 1.01411 1.06556 0
M  V30 1636 H 166.548 0.522878 4.1391 0
M  V30 1637 H 165.178 -0.159202 3.22407 0
M  V30 1638 H 164.23 2.25541 3.06326 0
M  V30 1639 H 165.542 2.77787 4.1429 0
M  V30 1640 H 164.696 1.25084 5.93666 0
M  V30 1641 H 163.435 0.625749 4.83669 0
M  V30 1642 H 162.44 2.92354 4.65628 0
M  V30 1643 H 163.665 3.54761 5.7907 0
M  V30 1644 H 161.611 1.39098 6.41083 0
M  V30 1645 H 161.528 3.04577 6.91931 0
M  V30 1646 H 162.796 2.02398 7.52765 0
M  V30 1647 N 167.025 -1.13721 1.09112 0
M  V30 1648 C 167.973 -2.21103 0.722219 0
M  V30 1649 C 168.967 -1.67147 -0.275374 0
M  V30 1650 O 170.173 -1.79477 -0.137176 0
M  V30 1651 H 166.548 -0.720445 0.215553 0
M  V30 1652 H 168.519 -2.49483 1.63709 0
M  V30 1653 C 167.268 -3.47352 0.15543 0
M  V30 1654 H 166.591 -3.89206 0.914246 0
M  V30 1655 H 168.031 -4.2395 -0.0647967 0
M  V30 1656 C 166.49 -3.1814 -1.10852 0
M  V30 1657 O 167.02 -3.36604 -2.19227 0
M  V30 1658 N 165.226 -2.72045 -1.02176 0
M  V30 1659 H 164.773 -2.57221 -0.139764 0
M  V30 1660 H 164.731 -2.52875 -1.8682 0
M  V30 1661 N 168.503 -0.877838 -1.30888 0
M  V30 1662 C 169.743 -0.499301 -1.98208 0
M  V30 1663 C 170.107 0.932649 -1.67826 0
M  V30 1664 O 171.308 1.41694 -2.28421 0
M  V30 1665 C 169.579 -0.758221 -3.49265 0
M  V30 1666 S 171.138 -0.480719 -4.36159 0
M  V30 1667 H 167.956 -0.186062 -0.686223 0
M  V30 1668 H 170.558 -1.13556 -1.59139 0
M  V30 1669 H 169.262 -1.79903 -3.68867 0
M  V30 1670 H 168.793 -0.109247 -3.93248 0
M  V30 1671 H 170.808 0.683698 -4.91467 0
M  V30 1672 N 169.982 1.44106 -0.638065 0
M  V30 1673 C 170.912 2.33448 0.0494287 0
M  V30 1674 C 171.893 1.48606 0.827672 0
M  V30 1675 O 173.078 1.77308 0.792173 0
M  V30 1676 C 170.208 3.31771 1.02691 0
M  V30 1677 C 169.162 4.26485 0.359823 0
M  V30 1678 C 168.488 5.14729 1.44769 0
M  V30 1679 C 169.788 5.17056 -0.738296 0
M  V30 1680 H 171.482 2.91183 -0.696636 0
M  V30 1681 H 169.028 1.40014 -0.336456 0
M  V30 1682 H 170.981 3.93161 1.51666 0
M  V30 1683 H 169.705 2.7226 1.80395 0
M  V30 1684 H 168.364 3.66437 -0.10934 0
M  V30 1685 H 168.012 4.51566 2.21578 0
M  V30 1686 H 167.712 5.78913 1.00668 0
M  V30 1687 H 169.236 5.78991 1.93911 0
M  V30 1688 H 170.65 5.72342 -0.331354 0
M  V30 1689 H 169.047 5.89879 -1.10286 0
M  V30 1690 H 170.117 4.57652 -1.60258 0
M  V30 1691 N 171.46 0.379036 1.52974 0
M  V30 1692 C 172.709 -0.207612 2.00629 0
M  V30 1693 C 173.022 -1.48758 1.27006 0
M  V30 1694 O 174.228 -2.15365 1.65318 0
M  V30 1695 C 172.684 -0.42053 3.57435 0
M  V30 1696 C 172.292 0.845587 4.39948 0
M  V30 1697 C 174.036 -0.964102 4.13407 0
M  V30 1698 C 171.943 0.601513 5.88333 0
M  V30 1699 H 170.873 -0.0813591 0.749598 0
M  V30 1700 H 173.524 0.499853 1.76561 0
M  V30 1701 H 171.906 -1.18959 3.7771 0
M  V30 1702 H 173.08 1.61848 4.31442 0
M  V30 1703 H 171.395 1.31336 3.95145 0
M  V30 1704 H 173.992 -1.16225 5.21916 0
M  V30 1705 H 174.335 -1.93019 3.68849 0
M  V30 1706 H 174.868 -0.25487 3.96983 0
M  V30 1707 H 171.607 1.53831 6.37194 0
M  V30 1708 H 171.127 -0.132628 5.99653 0
M  V30 1709 H 172.806 0.232134 6.46583 0
M  V30 1710 N 172.938 -1.57226 0.108567 0
M  V30 1711 C 174.215 -1.86333 -0.594939 0
M  V30 1712 C 174.595 -1.00788 -1.85486 0
M  V30 1713 O 173.943 -0.0839293 -2.28346 0
M  V30 1714 C 174.153 -3.37265 -0.897405 0
M  V30 1715 C 175.501 -4.05629 -1.25501 0
M  V30 1716 O 176.525 -3.42224 -0.987998 0
M  V30 1717 O 175.384 -5.17531 -1.75567 0
M  V30 1718 H 172.478 -0.771018 -0.2991 0
M  V30 1719 H 175.024 -1.69102 0.142283 0
M  V30 1720 H 173.796 -3.913 -0.00413806 0
M  V30 1721 H 173.419 -3.59889 -1.69014 0
M  V30 1722 N 174.416 0.165178 -1.56732 0
M  V30 1723 C 175.832 0.517174 -1.50988 0
M  V30 1724 C 176.032 1.84331 -0.813894 0
M  V30 1725 O 175.088 2.49672 -0.37682 0
M  V30 1726 C 176.401 0.544261 -2.95733 0
M  V30 1727 C 177.949 0.631039 -3.06573 0
M  V30 1728 C 178.424 0.68896 -4.52788 0
M  V30 1729 N 179.915 0.751683 -4.5706 0
M  V30 1730 C 180.65 0.817177 -5.67547 0
M  V30 1731 N 180.146 0.843129 -6.8765 0
M  V30 1732 N 181.939 0.856668 -5.55534 0
M  V30 1733 H 174.09 -0.704318 -2.00382 0
M  V30 1734 H 176.353 -0.254687 -0.913148 0
M  V30 1735 H 176.059 -0.361607 -3.49836 0
M  V30 1736 H 175.933 1.3886 -3.5071 0
M  V30 1737 H 178.32 1.52733 -2.52501 0
M  V30 1738 H 178.401 -0.240095 -2.54671 0
M  V30 1739 H 178.045 -0.2031 -5.07494 0
M  V30 1740 H 177.975 1.57633 -5.02454 0
M  V30 1741 H 180.466 0.739661 -3.70591 0
M  V30 1742 H 180.779 0.894448 -7.67606 0
M  V30 1743 H 179.124 0.811304 -6.90248 0
M  V30 1744 H 182.315 0.833437 -4.60621 0
M  V30 1745 H 182.488 0.904247 -6.4166 0
M  V30 1746 N 175.894 1.51508 0.433938 0
M  V30 1747 C 177.122 1.68157 1.20543 0
M  V30 1748 C 177.537 0.380362 1.84929 0
M  V30 1749 O 176.894 -0.641446 1.70856 0
M  V30 1750 C 176.945 2.79965 2.28696 0
M  V30 1751 O 176.666 4.05045 1.66943 0
M  V30 1752 C 178.167 3.07912 3.18912 0
M  V30 1753 H 175.387 0.56421 0.363191 0
M  V30 1754 H 177.931 1.97941 0.513754 0
M  V30 1755 H 176.086 2.5277 2.93574 0
M  V30 1756 H 176.5 4.67165 2.38448 0
M  V30 1757 H 177.974 3.89719 3.90926 0
M  V30 1758 H 178.451 2.20456 3.79863 0
M  V30 1759 H 179.057 3.36779 2.59731 0
M  V30 1760 N 177.372 -0.689602 1.41712 0
M  V30 1761 C 178.597 -1.48329 1.44959 0
M  V30 1762 C 179.022 -1.8801 0.0581283 0
M  V30 1763 O 178.38 -1.55026 -0.940035 0
M  V30 1764 C 178.428 -2.71835 2.36935 0
M  V30 1765 O 177.532 -3.69549 1.8305 0
M  V30 1766 H 176.873 -0.446199 0.491734 0
M  V30 1767 H 179.403 -0.847127 1.86239 0
M  V30 1768 H 179.413 -3.20076 2.53013 0
M  V30 1769 H 178.088 -2.42291 3.38035 0
M  V30 1770 H 176.665 -3.2851 1.76452 0
M  V30 1771 N 178.85 -1.27639 -0.924453 0
M  V30 1772 C 180.266 -1.05113 -1.20097 0
M  V30 1773 C 180.466 0.213262 -2.00368 0
M  V30 1774 O 179.522 0.91787 -2.35226 0
M  V30 1775 C 180.835 -2.29244 -1.94596 0
M  V30 1776 C 182.383 -2.34315 -2.07522 0
M  V30 1777 C 182.858 -3.58183 -2.85427 0
M  V30 1778 N 184.349 -3.5876 -2.92994 0
M  V30 1779 C 185.084 -4.51277 -3.53746 0
M  V30 1780 N 184.58 -5.54102 -4.15863 0
M  V30 1781 N 186.373 -4.38894 -3.51181 0
M  V30 1782 H 178.524 -2.08821 -0.388264 0
M  V30 1783 H 180.787 -0.918568 -0.234385 0
M  V30 1784 H 180.493 -3.21301 -1.43034 0
M  V30 1785 H 180.367 -2.34816 -2.95197 0
M  V30 1786 H 182.754 -1.42762 -2.58269 0
M  V30 1787 H 182.835 -2.32744 -1.06131 0
M  V30 1788 H 182.479 -4.50074 -2.35363 0
M  V30 1789 H 182.409 -3.57006 -3.8711 0
M  V30 1790 H 184.9 -2.84398 -2.4885 0
M  V30 1791 H 185.213 -6.20859 -4.60168 0
M  V30 1792 H 183.558 -5.57941 -4.144 0
M  V30 1793 H 186.749 -3.57772 -3.01856 0
M  V30 1794 H 186.922 -5.11186 -3.98237 0
M  V30 1795 N 180.328 1.1314 -1.09713 0
M  V30 1796 C 181.276 2.20717 -0.733934 0
M  V30 1797 C 182.27 1.6729 0.266506 0
M  V30 1798 O 183.476 1.79547 0.127656 0
M  V30 1799 H 179.851 0.719292 -0.21937 0
M  V30 1800 H 181.822 2.48611 -1.6503 0
M  V30 1801 C 180.571 3.47265 -0.173849 0
M  V30 1802 H 179.894 3.88716 -0.934873 0
M  V30 1803 H 181.334 4.23979 0.0423126 0
M  V30 1804 C 179.793 3.18724 1.09164 0
M  V30 1805 O 180.323 3.37762 2.17439 0
M  V30 1806 N 178.529 2.72583 1.00732 0
M  V30 1807 H 178.076 2.57291 0.126121 0
M  V30 1808 H 178.034 2.53862 1.85476 0
M  V30 1809 N 181.806 0.884767 1.30421 0
M  V30 1810 C 183.222 0.57874 1.48737 0
M  V30 1811 C 183.422 -0.883567 1.81095 0
M  V30 1812 O 182.478 -1.6648 1.89844 0
M  V30 1813 C 183.791 1.49171 2.61091 0
M  V30 1814 C 185.339 1.49532 2.74971 0
M  V30 1815 C 185.814 2.39421 3.90438 0
M  V30 1816 N 187.305 2.37383 3.97748 0
M  V30 1817 C 188.04 3.03647 4.86401 0
M  V30 1818 N 187.536 3.79136 5.79852 0
M  V30 1819 N 189.329 2.9288 4.79768 0
M  V30 1820 H 181.48 1.83075 1.0769 0
M  V30 1821 H 183.743 0.783637 0.533495 0
M  V30 1822 H 183.449 2.53291 2.44001 0
M  V30 1823 H 183.323 1.20113 3.57565 0
M  V30 1824 H 185.71 0.46163 2.91467 0
M  V30 1825 H 185.791 1.8262 1.79119 0
M  V30 1826 H 185.435 3.42874 3.74699 0
M  V30 1827 H 185.365 2.03649 4.85628 0
M  V30 1828 H 187.856 1.82525 3.30897 0
M  V30 1829 H 188.169 4.26789 6.4426 0
M  V30 1830 H 186.514 3.83243 5.79784 0
M  V30 1831 H 189.705 2.33433 4.05742 0
M  V30 1832 H 189.878 3.448 5.4865 0
M  V30 1833 N 183.284 -1.43765 0.645699 0
M  V30 1834 C 184.524 -2.03776 0.159542 0
M  V30 1835 C 184.888 -1.49792 -1.2011 0
M  V30 1836 O 186.089 -2.01398 -1.78023 0
M  V30 1837 C 184.36 -3.57036 0.161251 0
M  V30 1838 S 185.919 -4.3804 -0.258159 0
M  V30 1839 H 182.737 -0.707717 0.0682454 0
M  V30 1840 H 185.339 -1.75941 0.852352 0
M  V30 1841 H 184.043 -3.9383 1.15439 0
M  V30 1842 H 183.574 -3.89503 -0.552339 0
M  V30 1843 H 185.589 -4.7302 -1.49889 0
M  V30 1844 N 184.763 -0.387143 -1.52771 0
M  V30 1845 C 185.695 0.484089 -2.2403 0
M  V30 1846 C 186.708 1.02849 -1.26198 0
M  V30 1847 O 187.897 0.931186 -1.52286 0
M  V30 1848 C 184.997 1.68337 -2.94136 0
M  V30 1849 C 184.17 1.26672 -4.18656 0
M  V30 1850 C 183.229 2.33045 -4.7178 0
M  V30 1851 O 182.255 1.94541 -5.34923 0
M  V30 1852 N 183.457 3.64929 -4.5145 0
M  V30 1853 H 186.222 -0.126404 -2.99433 0
M  V30 1854 H 183.783 -0.213392 -1.60488 0
M  V30 1855 H 185.775 2.39019 -3.26577 0
M  V30 1856 H 184.345 2.20025 -2.22053 0
M  V30 1857 H 183.565 0.388878 -3.92277 0
M  V30 1858 H 184.853 0.964964 -4.99566 0
M  V30 1859 H 184.251 3.98974 -4.01044 0
M  V30 1860 H 182.808 4.31651 -4.88386 0
M  V30 1861 N 186.241 1.57166 -0.116904 0
M  V30 1862 C 187.191 2.11756 0.845178 0
M  V30 1863 C 188.175 1.03783 1.22955 0
M  V30 1864 O 189.367 1.3002 1.20099 0
M  V30 1865 C 186.496 2.71886 2.09602 0
M  V30 1866 C 185.582 3.86937 1.7361 0
M  V30 1867 N 185.973 4.94073 1.08284 0
M  V30 1868 C 184.271 3.97082 2.03082 0
M  V30 1869 C 184.972 5.74477 0.913855 0
M  V30 1870 N 183.948 5.2423 1.43818 0
M  V30 1871 H 187.75 2.91967 0.336523 0
M  V30 1872 H 185.264 1.62174 0.0856332 0
M  V30 1873 H 187.261 3.09338 2.79492 0
M  V30 1874 H 185.921 1.93138 2.61013 0
M  V30 1875 H 186.932 5.12483 0.747067 0
M  V30 1876 H 183.609 3.29372 2.56554 0
M  V30 1877 H 184.999 6.70701 0.40125 0
M  V30 1878 N 187.719 -0.156864 1.56817 0
M  V30 1879 C 188.959 -0.877453 1.84608 0
M  V30 1880 C 189.323 -1.78791 0.699845 0
M  V30 1881 O 190.524 -2.5472 0.858553 0
M  V30 1882 C 188.795 -1.63992 3.17555 0
M  V30 1883 S 190.354 -2.40729 3.66872 0
M  V30 1884 H 187.172 -0.293612 0.647544 0
M  V30 1885 H 189.774 -0.138099 1.95012 0
M  V30 1886 H 188.478 -0.962363 3.98957 0
M  V30 1887 H 188.009 -2.42038 3.10131 0
M  V30 1888 H 190.024 -3.65725 3.3535 0
M  V30 1889 N 189.197 -1.51736 -0.425897 0
M  V30 1890 C 190.613 -1.40166 -0.76326 0
M  V30 1891 C 190.813 -0.492962 -1.95377 0
M  V30 1892 O 189.869 0.0475815 -2.52455 0
M  V30 1893 C 191.182 -2.82403 -1.03291 0
M  V30 1894 C 192.73 -2.91632 -1.13665 0
M  V30 1895 C 193.205 -4.34801 -1.43916 0
M  V30 1896 N 194.696 -4.3796 -1.50816 0
M  V30 1897 C 195.431 -5.4578 -1.75817 0
M  V30 1898 N 194.927 -6.63744 -1.98534 0
M  V30 1899 N 196.72 -5.33274 -1.77694 0
M  V30 1900 H 188.871 -2.09361 0.358 0
M  V30 1901 H 191.134 -0.942941 0.0978094 0
M  V30 1902 H 190.84 -3.50943 -0.230696 0
M  V30 1903 H 190.714 -3.22428 -1.95754 0
M  V30 1904 H 193.101 -2.23284 -1.92947 0
M  V30 1905 H 193.182 -2.55088 -0.190756 0
M  V30 1906 H 192.826 -5.03703 -0.65157 0
M  V30 1907 H 192.756 -4.68868 -2.39729 0
M  V30 1908 H 195.247 -3.52919 -1.35118 0
M  V30 1909 H 195.56 -7.41704 -2.17013 0
M  V30 1910 H 193.905 -6.66839 -1.95832 0
M  V30 1911 H 197.096 -4.40098 -1.59473 0
M  V30 1912 H 197.269 -6.1738 -1.9684 0
M  V30 1913 N 190.675 0.682077 -1.42076 0
M  V30 1914 C 191.605 1.80796 -1.47767 0
M  V30 1915 C 192.586 1.6677 -0.334954 0
M  V30 1916 O 193.771 1.863 -0.548264 0
M  V30 1917 C 190.901 3.19038 -1.37229 0
M  V30 1918 C 189.855 3.47789 -2.49453 0
M  V30 1919 C 189.181 4.8553 -2.23975 0
M  V30 1920 C 190.481 3.45411 -3.91776 0
M  V30 1921 H 192.175 1.7629 -2.41997 0
M  V30 1922 H 189.721 0.846721 -1.16476 0
M  V30 1923 H 191.674 3.97528 -1.39821 0
M  V30 1924 H 190.398 3.24204 -0.394907 0
M  V30 1925 H 189.057 2.71657 -2.46166 0
M  V30 1926 H 188.705 4.87337 -1.24547 0
M  V30 1927 H 188.405 5.0573 -2.99184 0
M  V30 1928 H 189.929 5.66312 -2.28304 0
M  V30 1929 H 191.343 4.13882 -3.96705 0
M  V30 1930 H 189.74 3.77145 -4.66778 0
M  V30 1931 H 190.81 2.44122 -4.18966 0
M  V30 1932 N 192.153 1.28127 0.917671 0
M  V30 1933 C 193.085 1.07517 2.02417 0
M  V30 1934 C 194.098 0.0281099 1.62776 0
M  V30 1935 O 195.287 0.270748 1.76435 0
M  V30 1936 C 192.387 0.610957 3.33347 0
M  V30 1937 C 191.56 1.73255 4.01624 0
M  V30 1938 C 190.619 1.26238 5.10833 0
M  V30 1939 O 189.645 1.96389 5.34247 0
M  V30 1940 N 190.847 0.123448 5.80369 0
M  V30 1941 H 193.612 2.02806 2.20658 0
M  V30 1942 H 191.173 1.19827 1.08871 0
M  V30 1943 H 193.165 0.280101 4.0373 0
M  V30 1944 H 191.735 -0.24898 3.11607 0
M  V30 1945 H 190.955 2.23319 3.24842 0
M  V30 1946 H 192.243 2.48503 4.43986 0
M  V30 1947 H 191.641 -0.461847 5.63812 0
M  V30 1948 H 190.198 -0.148158 6.51632 0
M  V30 1949 N 193.631 -1.12557 1.10312 0
M  V30 1950 C 194.578 -2.18247 0.750781 0
M  V30 1951 C 195.548 -1.63853 -0.272293 0
M  V30 1952 O 196.733 -1.90195 -0.151862 0
M  V30 1953 C 193.873 -3.44591 0.187379 0
M  V30 1954 C 192.986 -4.13046 1.2656 0
M  V30 1955 C 192.121 -5.27034 0.663978 0
M  V30 1956 C 191.16 -5.87353 1.72287 0
M  V30 1957 N 190.297 -6.92757 1.1416 0
M  V30 1958 H 195.137 -2.47732 1.65628 0
M  V30 1959 H 192.674 -1.21629 0.827337 0
M  V30 1960 H 194.632 -4.16904 -0.157148 0
M  V30 1961 H 193.262 -3.15527 -0.681355 0
M  V30 1962 H 192.314 -3.38924 1.72727 0
M  V30 1963 H 193.626 -4.53947 2.06721 0
M  V30 1964 H 192.78 -6.06104 0.268824 0
M  V30 1965 H 191.519 -4.87407 -0.169082 0
M  V30 1966 H 190.524 -5.06971 2.12746 0
M  V30 1967 H 191.749 -6.29051 2.55875 0
M  V30 1968 H 189.695 -6.5517 0.329984 0
M  V30 1969 H 189.612 -7.3225 1.88007 0
M  V30 1970 H 190.88 -7.75658 0.772956 0
M  V30 1971 N 195.109 -0.891671 -1.2995 0
M  V30 1972 C 196.349 -0.520296 -1.97667 0
M  V30 1973 C 196.713 0.914797 -1.68806 0
M  V30 1974 O 197.914 1.39263 -2.29911 0
M  V30 1975 C 196.185 -0.795222 -3.48441 0
M  V30 1976 S 197.744 -0.526953 -4.35624 0
M  V30 1977 H 194.562 -0.19333 -0.684211 0
M  V30 1978 H 197.164 -1.15238 -1.57926 0
M  V30 1979 H 195.868 -1.83805 -3.66938 0
M  V30 1980 H 195.399 -0.15095 -3.9311 0
M  V30 1981 H 197.414 0.631533 -4.92165 0
M  V30 1982 N 196.587 1.43421 -0.653314 0
M  V30 1983 C 197.517 2.33487 0.0246656 0
M  V30 1984 C 198.498 1.49475 0.811863 0
M  V30 1985 O 199.683 1.78139 0.773322 0
M  V30 1986 C 196.813 3.32841 0.99166 0
M  V30 1987 C 195.767 4.26842 0.314568 0
M  V30 1988 C 195.093 5.16236 1.39302 0
M  V30 1989 C 196.393 5.16243 -0.793095 0
M  V30 1990 H 198.087 2.90427 -0.727481 0
M  V30 1991 H 195.633 1.39649 -0.351287 0
M  V30 1992 H 197.586 3.94747 1.47487 0
M  V30 1993 H 196.31 2.74158 1.77497 0
M  V30 1994 H 194.969 3.663 -0.148199 0
M  V30 1995 H 194.617 4.53891 2.16776 0
M  V30 1996 H 194.317 5.79948 0.945223 0
M  V30 1997 H 195.841 5.81015 1.87759 0
M  V30 1998 H 197.255 5.71958 -0.392039 0
M  V30 1999 H 195.652 5.88676 -1.16536 0
M  V30 2000 H 196.722 4.55927 -1.65103 0
M  V30 2001 N 198.065 0.39524 1.52563 0
M  V30 2002 C 199.028 -0.425001 2.25225 0
M  V30 2003 C 200.028 -0.985266 1.27079 0
M  V30 2004 O 201.218 -0.866332 1.5113 0
M  V30 2005 C 198.35 -1.59686 3.01186 0
M  V30 2006 H 199.543 0.211233 2.99155 0
M  V30 2007 H 197.096 0.147472 1.55603 0
M  V30 2008 H 197.831 -2.27035 2.31572 0
M  V30 2009 H 197.616 -1.20176 3.73229 0
M  V30 2010 H 199.106 -2.17743 3.5634 0
M  V30 2011 N 199.544 -1.57102 0.125237 0
M  V30 2012 C 200.79 -1.95697 -0.532035 0
M  V30 2013 C 201.123 -1.009 -1.6593 0
M  V30 2014 O 200.398 -0.047347 -1.94442 0
M  V30 2015 C 200.681 -3.44181 -1.05884 0
M  V30 2016 C 200.534 -4.49752 0.0654392 0
M  V30 2017 C 201.853 -3.94655 -1.9477 0
M  V30 2018 H 198.972 -0.711571 -0.191925 0
M  V30 2019 H 201.614 -1.88923 0.20206 0
M  V30 2020 H 199.764 -3.50085 -1.68442 0
M  V30 2021 H 201.436 -4.55943 0.700982 0
M  V30 2022 H 199.679 -4.27653 0.727709 0
M  V30 2023 H 200.35 -5.50924 -0.344505 0
M  V30 2024 H 202.826 -3.91094 -1.42074 0
M  V30 2025 H 201.702 -4.99057 -2.28546 0
M  V30 2026 H 201.963 -3.35718 -2.87656 0
M  V30 2027 N 201.022 0.148545 -1.56898 0
M  V30 2028 C 202.27 0.859717 -1.82902 0
M  V30 2029 C 202.591 1.81775 -0.70588 0
M  V30 2030 O 201.861 1.93994 0.272586 0
M  V30 2031 H 200.441 0.320469 -0.674766 0
M  V30 2032 H 203.103 0.142918 -1.94375 0
M  V30 2033 H 202.199 1.4229 -2.77777 0
M  V30 2034 N 202.5 1.5196 0.417844 0
M  V30 2035 C 203.433 1.69387 1.52916 0
M  V30 2036 C 204.411 0.541419 1.53321 0
M  V30 2037 O 205.595 0.767695 1.72159 0
M  V30 2038 C 202.722 1.72525 2.91467 0
M  V30 2039 C 201.768 2.93967 3.09008 0
M  V30 2040 S 202.601 4.54461 2.83242 0
M  V30 2041 C 203.757 4.60372 4.24038 0
M  V30 2042 H 203.99 2.63382 1.37903 0
M  V30 2043 H 201.523 1.41889 0.608845 0
M  V30 2044 H 203.481 1.75018 3.7132 0
M  V30 2045 H 202.142 0.796733 3.03827 0
M  V30 2046 H 201.335 2.92619 4.10353 0
M  V30 2047 H 200.937 2.89316 2.37007 0
M  V30 2048 H 203.229 4.37213 5.17544 0
M  V30 2049 H 204.172 5.62273 4.30412 0
M  V30 2050 H 204.58 3.89492 4.08602 0
M  V30 2051 N 203.978 -0.674533 1.42435 0
M  V30 2052 C 205.203 -1.46784 1.46524 0
M  V30 2053 C 205.628 -1.87938 0.078066 0
M  V30 2054 O 204.986 -1.56014 -0.92354 0
M  V30 2055 C 205.034 -2.69307 2.39805 0
M  V30 2056 O 204.138 -3.67587 1.86959 0
M  V30 2057 H 203.479 -0.440959 0.496439 0
M  V30 2058 H 206.009 -0.827326 1.87127 0
M  V30 2059 H 206.019 -3.17374 2.56393 0
M  V30 2060 H 204.694 -2.38692 3.40586 0
M  V30 2061 H 203.271 -3.2662 1.79927 0
M  V30 2062 N 205.456 -1.28612 -0.910864 0
M  V30 2063 C 206.872 -1.06381 -1.18976 0
M  V30 2064 C 207.072 0.191998 -2.00583 0
M  V30 2065 O 206.128 0.892869 -2.36187 0
M  V30 2066 C 207.441 -2.31295 -1.92154 0
M  V30 2067 C 208.989 -2.36503 -2.05025 0
M  V30 2068 C 209.464 -3.61191 -2.81612 0
M  V30 2069 N 210.955 -3.61847 -2.89172 0
M  V30 2070 C 211.69 -4.55004 -3.4894 0
M  V30 2071 N 211.186 -5.58482 -4.09963 0
M  V30 2072 N 212.979 -4.42594 -3.46506 0
M  V30 2073 H 205.13 -2.09221 -0.366094 0
M  V30 2074 H 207.393 -0.921003 -0.224629 0
M  V30 2075 H 207.099 -3.228 -1.39618 0
M  V30 2076 H 206.973 -2.37934 -2.9269 0
M  V30 2077 H 209.36 -1.45494 -2.5674 0
M  V30 2078 H 209.441 -2.33857 -1.03657 0
M  V30 2079 H 209.085 -4.52545 -2.30576 0
M  V30 2080 H 209.015 -3.61092 -3.83302 0
M  V30 2081 H 211.506 -2.87022 -2.45819 0
M  V30 2082 H 211.819 -6.25704 -4.53557 0
M  V30 2083 H 210.164 -5.62305 -4.08459 0
M  V30 2084 H 213.355 -3.60953 -2.98045 0
M  V30 2085 H 213.528 -5.15381 -3.92793 0
M  V30 2086 N 206.934 1.1197 -1.10907 0
M  V30 2087 C 208.211 1.79959 -0.766432 0
M  V30 2088 C 208.591 1.97466 0.746363 0
M  V30 2089 O 207.939 1.55491 1.67436 0
M  V30 2090 C 208.149 3.14009 -1.52314 0
M  V30 2091 C 209.497 3.89134 -1.69883 0
M  V30 2092 O 210.521 3.2368 -1.48692 0
M  V30 2093 O 209.38 5.06572 -2.05054 0
M  V30 2094 H 206.474 0.779208 -0.277062 0
M  V30 2095 H 209.02 1.18762 -1.21217 0
M  V30 2096 H 207.792 2.96587 -2.55249 0
M  V30 2097 H 207.415 3.82915 -1.07059 0
M  V30 2098 N 208.412 0.89855 1.29475 0
M  V30 2099 C 209.375 0.380272 2.26023 0
M  V30 2100 C 210.375 -0.484891 1.53315 0
M  V30 2101 O 211.565 -0.290108 1.71767 0
M  V30 2102 C 208.697 -0.45651 3.3783 0
M  V30 2103 H 209.89 1.23295 2.73383 0
M  V30 2104 H 207.443 0.676589 1.40897 0
M  V30 2105 H 208.178 -1.32922 2.95808 0
M  V30 2106 H 207.963 0.163393 3.91759 0
M  V30 2107 H 209.453 -0.810466 4.0966 0
M  V30 2108 N 209.89 -1.43072 0.660911 0
M  V30 2109 C 211.136 -2.0202 0.177708 0
M  V30 2110 C 211.469 -1.52066 -1.20787 0
M  V30 2111 O 210.744 -0.716987 -1.80802 0
M  V30 2112 C 211.027 -3.59561 0.197019 0
M  V30 2113 C 210.88 -4.19727 1.61706 0
M  V30 2114 C 212.199 -4.37664 -0.462396 0
M  V30 2115 H 209.318 -0.734034 0.0660494 0
M  V30 2116 H 211.96 -1.70272 0.843058 0
M  V30 2117 H 210.11 -3.86739 -0.369527 0
M  V30 2118 H 211.782 -4.03553 2.23479 0
M  V30 2119 H 210.025 -3.76084 2.16201 0
M  V30 2120 H 210.696 -5.28834 1.58237 0
M  V30 2121 H 213.172 -4.16095 0.0197215 0
M  V30 2122 H 212.048 -5.47305 -0.418188 0
M  V30 2123 H 212.309 -4.14493 -1.53778 0
M  V30 2124 N 211.368 -0.403325 -1.52352 0
M  V30 2125 C 212.315 0.425011 -2.26853 0
M  V30 2126 C 213.285 1.04598 -1.29029 0
M  V30 2127 O 214.47 1.07135 -1.57882 0
M  V30 2128 C 211.61 1.53888 -3.08889 0
M  V30 2129 C 210.723 0.939396 -4.21663 0
M  V30 2130 C 209.858 2.02547 -4.91068 0
M  V30 2131 C 208.897 1.40263 -5.95813 0
M  V30 2132 N 208.034 2.4286 -6.58759 0
M  V30 2133 H 212.874 -0.21674 -2.97211 0
M  V30 2134 H 210.411 -0.118722 -1.4662 0
M  V30 2135 H 212.369 2.19558 -3.54753 0
M  V30 2136 H 210.999 2.15074 -2.40714 0
M  V30 2137 H 210.051 0.171898 -3.80011 0
M  V30 2138 H 211.363 0.44436 -4.96817 0
M  V30 2139 H 210.517 2.75958 -5.40308 0
M  V30 2140 H 209.256 2.55415 -4.15469 0
M  V30 2141 H 208.261 0.653833 -5.45898 0
M  V30 2142 H 209.486 0.881719 -6.73352 0
M  V30 2143 H 207.432 2.94871 -5.85992 0
M  V30 2144 H 207.349 1.98152 -7.2957 0
M  V30 2145 H 208.617 3.15858 -7.12639 0
M  V30 2146 N 212.846 1.57033 -0.133567 0
M  V30 2147 C 214.093 1.95686 0.520877 0
M  V30 2148 C 214.421 1.0177 1.6575 0
M  V30 2149 O 213.676 0.0443195 1.9565 0
M  V30 2150 C 213.975 3.40674 1.08057 0
M  V30 2151 C 213.641 4.50855 0.0637899 0
M  V30 2152 C 212.303 4.80716 -0.215757 0
M  V30 2153 C 214.655 5.17398 -0.62835 0
M  V30 2154 C 211.983 5.74433 -1.19348 0
M  V30 2155 C 214.335 6.12167 -1.5948 0
M  V30 2156 C 212.999 6.40414 -1.88218 0
M  V30 2157 H 212.269 0.716067 0.190602 0
M  V30 2158 H 214.916 1.9026 -0.217556 0
M  V30 2159 H 213.221 3.42865 1.89606 0
M  V30 2160 H 214.918 3.67902 1.59529 0
M  V30 2161 H 211.508 4.27605 0.291855 0
M  V30 2162 H 215.692 4.94472 -0.425562 0
M  V30 2163 H 210.948 5.94616 -1.42272 0
M  V30 2164 H 215.122 6.6281 -2.13671 0
M  V30 2165 H 212.749 7.12838 -2.64133 0
M  V30 2166 N 214.325 -0.140222 1.56975 0
M  V30 2167 C 215.573 -0.850005 1.83356 0
M  V30 2168 C 215.894 -1.81399 0.71551 0
M  V30 2169 O 215.164 -1.94136 -0.262294 0
M  V30 2170 H 213.744 -0.316886 0.676456 0
M  V30 2171 H 216.406 -0.132608 1.94448 0
M  V30 2172 H 215.502 -1.40814 2.78528 0
M  V30 2173 N 215.803 -1.52179 -0.40978 0
M  V30 2174 C 217.219 -1.40968 -0.74835 0
M  V30 2175 C 217.419 -0.513657 -1.94843 0
M  V30 2176 O 216.475 0.0208026 -2.52491 0
M  V30 2177 C 217.788 -2.83483 -1.0029 0
M  V30 2178 C 219.336 -2.92821 -1.10565 0
M  V30 2179 C 219.811 -4.36303 -1.39296 0
M  V30 2180 N 221.302 -4.39535 -1.46162 0
M  V30 2181 C 222.037 -5.47614 -1.70018 0
M  V30 2182 N 221.533 -6.65812 -1.91483 0
M  V30 2183 N 223.326 -5.35129 -1.72027 0
M  V30 2184 H 215.477 -2.0897 0.380186 0
M  V30 2185 H 217.74 -0.94185 0.107805 0
M  V30 2186 H 217.446 -3.51168 -0.193461 0
M  V30 2187 H 217.32 -3.24487 -1.92323 0
M  V30 2188 H 219.707 -2.25318 -1.90568 0
M  V30 2189 H 219.788 -2.55276 -0.16369 0
M  V30 2190 H 219.432 -5.04366 -0.598109 0
M  V30 2191 H 219.362 -4.71385 -2.34743 0
M  V30 2192 H 221.853 -3.54332 -1.31367 0
M  V30 2193 H 222.166 -7.43964 -2.09134 0
M  V30 2194 H 220.511 -6.68879 -1.88749 0
M  V30 2195 H 223.702 -4.41764 -1.54796 0
M  V30 2196 H 223.875 -6.19433 -1.9028 0
M  V30 2197 N 217.281 0.66697 -1.42791 0
M  V30 2198 C 218.214 1.79177 -1.41318 0
M  V30 2199 C 219.192 1.60234 -0.276401 0
M  V30 2200 O 220.376 1.82602 -0.46785 0
M  V30 2201 C 217.503 3.16289 -1.21157 0
M  V30 2202 C 216.549 3.53964 -2.37932 0
M  V30 2203 S 217.382 3.55501 -4.00474 0
M  V30 2204 C 218.538 4.95292 -3.8267 0
M  V30 2205 H 218.771 1.80153 -2.365 0
M  V30 2206 H 216.304 0.838357 -1.29657 0
M  V30 2207 H 218.262 3.95428 -1.10212 0
M  V30 2208 H 216.923 3.1289 -0.275481 0
M  V30 2209 H 216.116 4.53646 -2.19594 0
M  V30 2210 H 215.718 2.82204 -2.45432 0
M  V30 2211 H 218.01 5.83584 -3.44145 0
M  V30 2212 H 218.953 5.18679 -4.82055 0
M  V30 2213 H 219.361 4.68179 -3.15386 0
M  V30 2214 N 218.759 1.29093 0.90403 0
M  V30 2215 C 219.984 1.19809 1.69294 0
M  V30 2216 C 220.409 -0.238481 1.86582 0
M  V30 2217 O 219.767 -1.1723 1.383 0
M  V30 2218 C 219.815 1.91202 3.05736 0
M  V30 2219 O 218.919 1.22611 3.93752 0
M  V30 2220 H 218.26 0.415385 0.518027 0
M  V30 2221 H 220.79 1.70586 1.12967 0
M  V30 2222 H 220.8 1.99487 3.55906 0
M  V30 2223 H 219.475 2.95692 2.92471 0
M  V30 2224 H 218.052 1.22554 3.52186 0
M  V30 2225 N 220.237 -1.11381 1.11499 0
M  V30 2226 C 221.184 -2.17439 0.773887 0
M  V30 2227 C 222.154 -1.64132 -0.254899 0
M  V30 2228 O 223.339 -1.90345 -0.13168 0
M  V30 2229 C 220.479 -3.44373 0.223917 0
M  V30 2230 C 219.592 -4.1168 1.30934 0
M  V30 2231 C 218.727 -5.263 0.71984 0
M  V30 2232 C 217.766 -5.85493 1.78507 0
M  V30 2233 N 216.903 -6.91507 1.21502 0
M  V30 2234 H 221.743 -2.45962 1.68246 0
M  V30 2235 H 219.28 -1.20744 0.840191 0
M  V30 2236 H 221.238 -4.17047 -0.112921 0
M  V30 2237 H 219.868 -3.16232 -0.647851 0
M  V30 2238 H 218.92 -3.37073 1.76312 0
M  V30 2239 H 220.232 -4.51729 2.11524 0
M  V30 2240 H 219.386 -6.05785 0.333094 0
M  V30 2241 H 218.125 -4.87559 -0.117377 0
M  V30 2242 H 217.13 -5.04686 2.18111 0
M  V30 2243 H 218.355 -6.26301 2.62533 0
M  V30 2244 H 216.301 -6.54783 0.399455 0
M  V30 2245 H 216.218 -7.30214 1.95763 0
M  V30 2246 H 217.486 -7.74795 0.855181 0
M  V30 2247 N 221.715 -0.905404 -1.28997 0
M  V30 2248 C 222.662 -0.385892 -2.27551 0
M  V30 2249 C 223.632 0.535113 -1.57244 0
M  V30 2250 O 224.817 0.459119 -1.85194 0
M  V30 2251 C 221.957 0.375461 -3.43051 0
M  V30 2252 C 221.07 -0.577092 -4.28128 0
M  V30 2253 C 220.205 0.201879 -5.30816 0
M  V30 2254 C 219.244 -0.744829 -6.07551 0
M  V30 2255 N 218.381 9.42587e-05 -7.021 0
M  V30 2256 H 223.221 -1.23139 -2.71368 0
M  V30 2257 H 220.758 -0.618542 -1.33463 0
M  V30 2258 H 222.716 0.832992 -4.088 0
M  V30 2259 H 221.346 1.18537 -3.00248 0
M  V30 2260 H 220.398 -1.15315 -3.62501 0
M  V30 2261 H 221.71 -1.30152 -4.8152 0
M  V30 2262 H 220.864 0.720351 -6.02408 0
M  V30 2263 H 219.603 0.959413 -4.7817 0
M  V30 2264 H 218.608 -1.27475 -5.34818 0
M  V30 2265 H 219.833 -1.50178 -6.62286 0
M  V30 2266 H 217.779 0.739791 -6.51815 0
M  V30 2267 H 217.696 -0.664321 -7.53076 0
M  V30 2268 H 218.964 0.498644 -7.77903 0
M  V30 2269 N 223.193 1.4272 -0.668489 0
M  V30 2270 C 224.125 2.2914 0.052613 0
M  V30 2271 C 225.138 1.43339 0.771857 0
M  V30 2272 O 226.327 1.67123 0.627067 0
M  V30 2273 C 223.427 3.20618 1.09804 0
M  V30 2274 C 222.6 4.35039 0.45389 0
M  V30 2275 C 221.659 5.07282 1.39825 0
M  V30 2276 O 220.685 5.62024 0.900978 0
M  V30 2277 N 221.887 5.12206 2.73176 0
M  V30 2278 H 224.652 2.91668 -0.689209 0
M  V30 2279 H 222.213 1.53577 -0.512422 0
M  V30 2280 H 224.205 3.65815 1.73094 0
M  V30 2281 H 222.775 2.59585 1.74167 0
M  V30 2282 H 221.995 3.92567 -0.358396 0
M  V30 2283 H 223.283 5.088 0.00486972 0
M  V30 2284 H 222.681 4.6913 3.16122 0
M  V30 2285 H 221.238 5.61069 3.31729 0
M  V30 2286 N 224.671 0.411399 1.52136 0
M  V30 2287 C 226.087 0.0623865 1.59478 0
M  V30 2288 C 226.287 -1.42554 1.4241 0
M  V30 2289 O 225.343 -2.19263 1.2522 0
M  V30 2290 C 226.656 0.559331 2.95452 0
M  V30 2291 C 228.204 0.517503 3.08692 0
M  V30 2292 C 228.679 0.990994 4.4715 0
M  V30 2293 N 230.17 0.947908 4.53397 0
M  V30 2294 C 230.905 1.28544 5.58806 0
M  V30 2295 N 230.401 1.69454 6.71757 0
M  V30 2296 N 232.194 1.20526 5.49026 0
M  V30 2297 H 224.345 1.37982 1.61477 0
M  V30 2298 H 226.608 0.566977 0.759764 0
M  V30 2299 H 226.314 1.59938 3.1323 0
M  V30 2300 H 226.188 -0.0298014 3.77188 0
M  V30 2301 H 228.575 -0.513505 2.90598 0
M  V30 2302 H 228.656 1.14272 2.28857 0
M  V30 2303 H 228.3 2.02034 4.65988 0
M  V30 2304 H 228.23 0.34257 5.25485 0
M  V30 2305 H 230.721 0.647157 3.72317 0
M  V30 2306 H 231.034 1.93513 7.48179 0
M  V30 2307 H 229.379 1.73359 6.73032 0
M  V30 2308 H 232.57 0.884505 4.59667 0
M  V30 2309 H 232.743 1.47161 6.31069 0
M  V30 2310 N 226.149 -1.5696 0.141893 0
M  V30 2311 C 227.426 -1.87553 -0.555281 0
M  V30 2312 C 227.806 -1.04699 -1.83306 0
M  V30 2313 O 227.154 -0.132346 -2.28116 0
M  V30 2314 C 227.364 -3.39093 -0.825664 0
M  V30 2315 C 228.712 -4.08199 -1.16869 0
M  V30 2316 O 229.736 -3.44242 -0.915185 0
M  V30 2317 O 228.595 -5.21139 -1.6455 0
M  V30 2318 H 225.689 -0.777188 -0.282679 0
M  V30 2319 H 228.235 -1.68763 0.17812 0
M  V30 2320 H 227.007 -3.91221 0.0788633 0
M  V30 2321 H 226.63 -3.63393 -1.61343 0
M  V30 2322 N 227.627 0.131896 -1.57047 0
M  V30 2323 C 228.852 0.860418 -1.8871 0
M  V30 2324 C 229.277 1.73251 -0.73251 0
M  V30 2325 O 228.635 1.785 0.317429 0
M  V30 2326 C 228.683 1.68047 -3.19049 0
M  V30 2327 O 227.787 2.7862 -3.04047 0
M  V30 2328 H 227.128 0.238743 -0.619595 0
M  V30 2329 H 229.658 0.118169 -2.04258 0
M  V30 2330 H 229.668 2.07238 -3.51449 0
M  V30 2331 H 228.343 1.04018 -4.02682 0
M  V30 2332 H 226.92 2.42726 -2.83088 0
M  V30 2333 N 229.106 1.52395 0.401703 0
M  V30 2334 C 230.036 1.79231 1.49661 0
M  V30 2335 C 231.017 0.643654 1.57452 0
M  V30 2336 O 232.202 0.889989 1.72606 0
M  V30 2337 C 229.332 1.94971 2.87409 0
M  V30 2338 C 228.286 3.10604 2.94465 0
M  V30 2339 C 227.612 3.11577 4.34538 0
M  V30 2340 C 228.912 4.49921 2.6527 0
M  V30 2341 H 230.606 2.70917 1.27454 0
M  V30 2342 H 228.152 1.30362 0.6117 0
M  V30 2343 H 230.105 2.12328 3.63999 0
M  V30 2344 H 228.829 0.999632 3.10926 0
M  V30 2345 H 227.488 2.93009 2.20321 0
M  V30 2346 H 227.136 2.14277 4.55076 0
M  V30 2347 H 226.836 3.89247 4.40183 0
M  V30 2348 H 228.36 3.31073 5.13053 0
M  V30 2349 H 229.774 4.67683 3.31581 0
M  V30 2350 H 228.171 5.29564 2.82281 0
M  V30 2351 H 229.241 4.57507 1.60671 0
M  V30 2352 N 230.584 -0.659388 1.43143 0
M  V30 2353 C 231.814 -1.44513 1.47646 0
M  V30 2354 C 232.222 -1.88981 0.0910095 0
M  V30 2355 O 231.565 -1.59702 -0.907789 0
M  V30 2356 C 231.627 -2.71663 2.35456 0
M  V30 2357 C 231.291 -2.49175 3.83094 0
M  V30 2358 C 232.288 -2.1279 4.74359 0
M  V30 2359 C 229.973 -2.63691 4.27519 0
M  V30 2360 C 231.967 -1.9121 6.08044 0
M  V30 2361 C 229.654 -2.41726 5.61259 0
M  V30 2362 C 230.652 -2.0554 6.51339 0
M  V30 2363 O 230.34 -1.838 7.82606 0
M  V30 2364 H 230.072 -0.45064 0.503884 0
M  V30 2365 H 232.626 -0.816248 1.88485 0
M  V30 2366 H 230.856 -3.37089 1.89493 0
M  V30 2367 H 232.545 -3.33595 2.31235 0
M  V30 2368 H 233.311 -2.01157 4.41317 0
M  V30 2369 H 229.19 -2.90832 3.57684 0
M  V30 2370 H 232.734 -1.62889 6.78316 0
M  V30 2371 H 228.631 -2.52959 5.9387 0
M  V30 2372 H 229.399 -1.98275 7.94122 0
M  V30 2373 N 232.062 -1.29571 -0.897171 0
M  V30 2374 C 233.025 -1.14913 -1.98312 0
M  V30 2375 C 234.025 -0.0838629 -1.60581 0
M  V30 2376 O 235.215 -0.331006 -1.71026 0
M  V30 2377 C 232.347 -0.757835 -3.3237 0
M  V30 2378 H 233.54 -2.11377 -2.12743 0
M  V30 2379 H 231.093 -1.12793 -1.08201 0
M  V30 2380 H 231.828 0.206837 -3.2364 0
M  V30 2381 H 231.613 -1.52755 -3.61121 0
M  V30 2382 H 233.103 -0.678408 -4.12053 0
M  V30 2383 N 233.54 1.10788 -1.12088 0
M  V30 2384 C 234.45 2.20599 -0.798338 0
M  V30 2385 C 235.466 1.72712 0.21135 0
M  V30 2386 O 236.642 2.01348 0.0458477 0
M  V30 2387 C 233.707 3.45771 -0.253674 0
M  V30 2388 C 232.768 4.08411 -1.32283 0
M  V30 2389 C 232.001 5.27608 -0.80406 0
M  V30 2390 O 232.224 5.69241 0.363478 0
M  V30 2391 O 231.158 5.8101 -1.57198 0
M  V30 2392 H 234.984 2.50614 -1.7154 0
M  V30 2393 H 232.569 1.19454 -0.897275 0
M  V30 2394 H 234.451 4.21376 0.0453691 0
M  V30 2395 H 233.126 3.1739 0.636005 0
M  V30 2396 H 232.033 3.34507 -1.67499 0
M  V30 2397 H 233.366 4.40986 -2.18614 0
M  V30 2398 N 235.018 0.912232 1.28515 0
M  V30 2399 C 236.264 0.545405 1.95328 0
M  V30 2400 C 236.597 -0.908313 1.71649 0
M  V30 2401 O 235.872 -1.64575 1.03659 0
M  V30 2402 C 236.155 0.853483 3.4984 0
M  V30 2403 C 236.008 2.35982 3.82926 0
M  V30 2404 C 237.327 0.348589 4.38717 0
M  V30 2405 H 234.446 0.199626 0.709449 0
M  V30 2406 H 237.088 1.1412 1.5191 0
M  V30 2407 H 235.238 0.34643 3.86952 0
M  V30 2408 H 236.91 2.93738 3.55691 0
M  V30 2409 H 235.153 2.81543 3.30024 0
M  V30 2410 H 235.824 2.52593 4.90816 0
M  V30 2411 H 238.3 0.78294 4.08668 0
M  V30 2412 H 237.176 0.593242 5.45685 0
M  V30 2413 H 237.437 -0.751049 4.35674 0
M  V30 2414 N 236.496 -1.42363 0.676048 0
M  V30 2415 C 237.428 -2.29164 -0.0404605 0
M  V30 2416 C 238.441 -1.43747 -0.764245 0
M  V30 2417 O 239.63 -1.67453 -0.618195 0
M  V30 2418 C 236.73 -3.21196 -1.08103 0
M  V30 2419 C 235.903 -4.35273 -0.430812 0
M  V30 2420 C 234.962 -5.08017 -1.37133 0
M  V30 2421 O 233.988 -5.62494 -0.87116 0
M  V30 2422 N 235.19 -5.13647 -2.70456 0
M  V30 2423 H 237.955 -2.91298 0.704667 0
M  V30 2424 H 235.516 -1.53303 0.520559 0
M  V30 2425 H 237.508 -3.66728 -1.71152 0
M  V30 2426 H 236.078 -2.60505 -1.72788 0
M  V30 2427 H 235.298 -3.92372 0.379209 0
M  V30 2428 H 236.586 -5.08795 0.0221132 0
M  V30 2429 H 235.984 -4.708 -3.1363 0
M  V30 2430 H 234.541 -5.62821 -3.28749 0
M  V30 2431 N 237.974 -0.419461 -1.51915 0
M  V30 2432 C 238.921 0.400927 -2.27291 0
M  V30 2433 C 239.891 1.03224 -1.30131 0
M  V30 2434 O 241.076 1.05455 -1.59009 0
M  V30 2435 C 238.216 1.50603 -3.10504 0
M  V30 2436 C 237.329 0.89462 -4.22635 0
M  V30 2437 C 236.464 1.97328 -4.93189 0
M  V30 2438 C 235.503 1.33935 -5.97267 0
M  V30 2439 N 234.64 2.3586 -6.61298 0
M  V30 2440 H 239.48 -0.248251 -2.96964 0
M  V30 2441 H 237.017 -0.134266 -1.46486 0
M  V30 2442 H 238.975 2.15783 -3.57062 0
M  V30 2443 H 237.605 2.12509 -2.42981 0
M  V30 2444 H 236.657 0.131583 -3.80172 0
M  V30 2445 H 237.969 0.391641 -4.9726 0
M  V30 2446 H 237.123 2.70211 -5.43204 0
M  V30 2447 H 235.862 2.50994 -4.18155 0
M  V30 2448 H 234.867 0.595896 -5.46561 0
M  V30 2449 H 236.092 0.810252 -6.74249 0
M  V30 2450 H 234.038 2.88639 -5.89087 0
M  V30 2451 H 233.955 1.90403 -7.3163 0
M  V30 2452 H 235.223 3.08282 -7.15949 0
M  V30 2453 N 239.452 1.56882 -0.150215 0
M  V30 2454 C 240.402 2.13501 0.800071 0
M  V30 2455 C 241.386 1.06368 1.20726 0
M  V30 2456 O 242.578 1.32538 1.17314 0
M  V30 2457 C 239.707 2.76271 2.03787 0
M  V30 2458 C 238.793 3.90533 1.65364 0
M  V30 2459 N 239.184 4.96259 0.977794 0
M  V30 2460 C 237.482 4.013 1.94613 0
M  V30 2461 C 238.183 5.76286 0.791794 0
M  V30 2462 N 237.159 5.27163 1.32666 0
M  V30 2463 H 240.961 2.92615 0.274517 0
M  V30 2464 H 238.475 1.62319 0.0512144 0
M  V30 2465 H 240.472 3.15197 2.72867 0
M  V30 2466 H 239.132 1.98631 2.56857 0
M  V30 2467 H 240.143 5.13953 0.638193 0
M  V30 2468 H 236.82 3.3474 2.4951 0
M  V30 2469 H 238.21 6.71401 0.258894 0
M  V30 2470 N 240.93 -0.123565 1.57115 0
M  V30 2471 C 242.346 -0.476961 1.52306 0
M  V30 2472 C 242.546 -1.82109 0.86248 0
M  V30 2473 O 241.602 -2.48586 0.442884 0
M  V30 2474 C 242.915 -0.465661 2.97073 0
M  V30 2475 C 244.463 -0.549534 3.08138 0
M  V30 2476 C 244.938 -0.568669 4.54456 0
M  V30 2477 N 246.429 -0.630237 4.58892 0
M  V30 2478 C 247.164 -0.666415 5.69514 0
M  V30 2479 N 246.66 -0.660514 6.89644 0
M  V30 2480 N 248.453 -0.709077 5.5761 0
M  V30 2481 H 240.604 0.757198 1.98445 0
M  V30 2482 H 242.867 0.278808 0.906074 0
M  V30 2483 H 242.573 0.454232 3.48754 0
M  V30 2484 H 242.447 -1.29513 3.54269 0
M  V30 2485 H 244.834 -1.45985 2.56461 0
M  V30 2486 H 244.915 0.307532 2.53945 0
M  V30 2487 H 244.559 0.337581 5.06777 0
M  V30 2488 H 244.489 -1.44256 5.06456 0
M  V30 2489 H 246.98 -0.641146 3.72421 0
M  V30 2490 H 247.293 -0.690616 7.69708 0
M  V30 2491 H 245.638 -0.628012 6.92157 0
M  V30 2492 H 248.829 -0.711019 4.62668 0
M  V30 2493 H 249.002 -0.733804 6.43832 0
M  V30 2494 N 242.408 -1.52605 -0.393616 0
M  V30 2495 C 243.341 -1.71798 -1.50202 0
M  V30 2496 C 244.319 -0.565743 -1.52441 0
M  V30 2497 O 245.503 -0.794987 -1.70916 0
M  V30 2498 C 242.63 -1.7714 -2.88685 0
M  V30 2499 C 241.676 -2.98845 -3.04292 0
M  V30 2500 S 242.509 -4.58909 -2.75976 0
M  V30 2501 C 243.665 -4.6706 -4.1666 0
M  V30 2502 H 243.898 -2.65542 -1.33696 0
M  V30 2503 H 241.431 -1.42839 -0.586195 0
M  V30 2504 H 243.389 -1.80903 -3.68489 0
M  V30 2505 H 242.05 -0.844969 -3.02521 0
M  V30 2506 H 241.243 -2.99111 -4.05646 0
M  V30 2507 H 240.845 -2.9305 -2.32374 0
M  V30 2508 H 243.137 -4.45391 -5.10523 0
M  V30 2509 H 244.08 -5.6905 -4.21412 0
M  V30 2510 H 244.488 -3.95944 -4.02354 0
M  V30 2511 N 243.887 0.651787 -1.4349 0
M  V30 2512 C 244.819 1.77725 -1.44729 0
M  V30 2513 C 245.832 1.59141 -0.343231 0
M  V30 2514 O 247.021 1.67835 -0.607751 0
M  V30 2515 C 244.121 3.15172 -1.24579 0
M  V30 2516 C 243.294 3.60402 -2.47849 0
M  V30 2517 C 242.353 4.76656 -2.22902 0
M  V30 2518 O 241.379 4.86022 -2.96263 0
M  V30 2519 N 242.581 5.66958 -1.24656 0
M  V30 2520 H 245.346 1.77141 -2.41746 0
M  V30 2521 H 242.907 0.835678 -1.38665 0
M  V30 2522 H 244.899 3.90634 -1.0577 0
M  V30 2523 H 243.469 3.1052 -0.360015 0
M  V30 2524 H 242.689 2.75369 -2.82073 0
M  V30 2525 H 243.977 3.87368 -3.29884 0
M  V30 2526 H 243.375 5.62065 -0.640265 0
M  V30 2527 H 241.932 6.42135 -1.1183 0
M  V30 2528 N 245.365 1.30045 0.890287 0
M  V30 2529 C 246.297 1.11786 2.00091 0
M  V30 2530 C 247.31 0.0626307 1.62679 0
M  V30 2531 O 248.499 0.308112 1.75821 0
M  V30 2532 C 245.599 0.681527 3.31977 0
M  V30 2533 C 244.772 1.81735 3.97858 0
M  V30 2534 C 243.831 1.37045 5.08041 0
M  V30 2535 O 242.857 2.07677 5.29961 0
M  V30 2536 N 244.059 0.246525 5.79976 0
M  V30 2537 H 246.824 2.07441 2.16306 0
M  V30 2538 H 244.385 1.2211 1.06305 0
M  V30 2539 H 246.377 0.365675 4.03045 0
M  V30 2540 H 244.947 -0.182828 3.12065 0
M  V30 2541 H 244.167 2.30159 3.20032 0
M  V30 2542 H 245.455 2.57865 4.38615 0
M  V30 2543 H 244.853 -0.34215 5.64664 0
M  V30 2544 H 243.41 -0.00990438 6.51799 0
M  V30 2545 N 246.843 -1.10192 1.12674 0
M  V30 2546 C 247.775 -2.16418 0.754701 0
M  V30 2547 C 248.788 -1.61309 -0.21986 0
M  V30 2548 O 249.977 -1.785 -0.000826841 0
M  V30 2549 C 247.077 -3.38762 0.096698 0
M  V30 2550 C 246.25 -4.23307 1.10136 0
M  V30 2551 C 245.309 -5.24092 0.470513 0
M  V30 2552 O 244.335 -5.57906 1.12824 0
M  V30 2553 N 245.537 -5.75491 -0.760948 0
M  V30 2554 H 248.302 -2.48943 1.66875 0
M  V30 2555 H 245.863 -1.25834 1.01869 0
M  V30 2556 H 247.855 -4.03291 -0.337384 0
M  V30 2557 H 246.425 -3.04192 -0.720153 0
M  V30 2558 H 245.645 -3.55036 1.71299 0
M  V30 2559 H 246.933 -4.76624 1.78064 0
M  V30 2560 H 246.331 -5.50222 -1.31424 0
M  V30 2561 H 244.888 -6.41792 -1.13781 0
M  V30 2562 N 248.321 -0.919034 -1.28029 0
M  V30 2563 C 249.253 -0.368762 -2.26214 0
M  V30 2564 C 250.266 0.495716 -1.55069 0
M  V30 2565 O 251.455 0.30974 -1.75792 0
M  V30 2566 C 248.555 0.491049 -3.35324 0
M  V30 2567 C 247.728 -0.352133 -4.3598 0
M  V30 2568 C 246.787 0.443622 -5.24327 0
M  V30 2569 O 245.813 -0.14566 -5.69014 0
M  V30 2570 N 247.015 1.74545 -5.53637 0
M  V30 2571 H 249.78 -1.21273 -2.74068 0
M  V30 2572 H 247.341 -0.785541 -1.41566 0
M  V30 2573 H 249.333 1.03026 -3.91366 0
M  V30 2574 H 247.903 1.23574 -2.87138 0
M  V30 2575 H 247.123 -1.07269 -3.79324 0
M  V30 2576 H 248.411 -0.928883 -5.00249 0
M  V30 2577 H 247.809 2.24666 -5.19174 0
M  V30 2578 H 246.366 2.23138 -6.12416 0
M  V30 2579 N 249.799 1.42003 -0.683588 0
M  V30 2580 C 251.215 1.55625 -0.353976 0
M  V30 2581 C 251.415 1.66151 1.14 0
M  V30 2582 O 250.471 1.63329 1.92561 0
M  V30 2583 C 251.784 2.80171 -1.092 0
M  V30 2584 C 253.332 2.93954 -1.07518 0
M  V30 2585 C 253.807 4.21372 -1.79471 0
M  V30 2586 N 255.298 4.28303 -1.76381 0
M  V30 2587 C 256.033 5.25729 -2.28904 0
M  V30 2588 N 255.529 6.29254 -2.89846 0
M  V30 2589 N 257.322 5.17586 -2.19228 0
M  V30 2590 H 249.473 1.33415 -1.6527 0
M  V30 2591 H 251.736 0.64282 -0.696769 0
M  V30 2592 H 251.442 2.78561 -2.14701 0
M  V30 2593 H 251.316 3.7133 -0.662862 0
M  V30 2594 H 253.703 2.95086 -0.028475 0
M  V30 2595 H 253.784 2.04002 -1.54328 0
M  V30 2596 H 253.428 4.21001 -2.84114 0
M  V30 2597 H 253.358 5.10275 -1.30104 0
M  V30 2598 H 255.849 3.54119 -1.31939 0
M  V30 2599 H 256.162 6.99964 -3.27522 0
M  V30 2600 H 254.507 6.29791 -2.93919 0
M  V30 2601 H 257.698 4.35631 -1.71299 0
M  V30 2602 H 257.871 5.93348 -2.60466 0
M  V30 2603 N 251.277 0.427512 1.51691 0
M  V30 2604 C 252.554 -0.201684 1.94557 0
M  V30 2605 C 252.934 -1.60981 1.36559 0
M  V30 2606 O 252.282 -2.21814 0.548702 0
M  V30 2607 C 252.492 -0.189394 3.48486 0
M  V30 2608 C 253.84 -0.39978 4.22714 0
M  V30 2609 O 254.864 -0.267945 3.55191 0
M  V30 2610 O 253.723 -0.661249 5.42485 0
M  V30 2611 H 250.817 -0.135261 0.815864 0
M  V30 2612 H 253.363 0.484782 1.62628 0
M  V30 2613 H 252.135 0.795431 3.8313 0
M  V30 2614 H 251.758 -0.919187 3.86829 0
M  V30 2615 N 252.755 -1.56801 0.158532 0
M  V30 2616 C 253.705 -2.13923 -0.788738 0
M  V30 2617 C 254.689 -1.07006 -1.2016 0
M  V30 2618 O 255.881 -1.33159 -1.1661 0
M  V30 2619 C 253.01 -2.77348 -2.02319 0
M  V30 2620 C 252.096 -3.91404 -1.6329 0
M  V30 2621 N 252.487 -4.9677 -0.951463 0
M  V30 2622 C 250.785 -4.02326 -1.92482 0
M  V30 2623 C 251.486 -5.76698 -0.761221 0
M  V30 2624 N 250.462 -5.27859 -1.29869 0
M  V30 2625 H 254.264 -2.92757 -0.258995 0
M  V30 2626 H 251.778 -1.62344 -0.0426055 0
M  V30 2627 H 253.775 -3.16639 -2.71192 0
M  V30 2628 H 252.435 -1.99991 -2.558 0
M  V30 2629 H 253.446 -5.14284 -0.610928 0
M  V30 2630 H 250.123 -3.36059 -2.47732 0
M  V30 2631 H 251.513 -6.71529 -0.223284 0
M  V30 2632 N 254.233 0.115231 -1.57178 0
M  V30 2633 C 255.165 1.16694 -1.97269 0
M  V30 2634 C 256.178 1.37445 -0.872502 0
M  V30 2635 O 257.367 1.36454 -1.15077 0
M  V30 2636 C 254.467 2.52627 -2.25905 0
M  V30 2637 C 253.64 2.52427 -3.57211 0
M  V30 2638 C 252.699 3.70134 -3.74016 0
M  V30 2639 O 251.725 3.53546 -4.46087 0
M  V30 2640 N 252.927 4.88844 -3.13068 0
M  V30 2641 H 255.692 0.82588 -2.88096 0
M  V30 2642 H 253.253 0.304461 -1.59011 0
M  V30 2643 H 255.245 3.29937 -2.34359 0
M  V30 2644 H 253.815 2.789 -1.41186 0
M  V30 2645 H 253.035 1.60805 -3.5991 0
M  V30 2646 H 254.323 2.49353 -4.43509 0
M  V30 2647 H 253.721 5.05225 -2.54489 0
M  V30 2648 H 252.278 5.63817 -3.27037 0
M  V30 2649 N 255.711 1.52812 0.385517 0
M  V30 2650 C 256.643 1.74096 1.49074 0
M  V30 2651 C 257.656 0.621462 1.50472 0
M  V30 2652 O 258.845 0.897245 1.54311 0
M  V30 2653 C 255.945 1.78774 2.87911 0
M  V30 2654 C 255.118 3.08134 3.10439 0
M  V30 2655 C 254.177 3.04313 4.29278 0
M  V30 2656 O 253.203 3.78168 4.25415 0
M  V30 2657 N 254.405 2.23741 5.35649 0
M  V30 2658 H 257.17 2.69455 1.31202 0
M  V30 2659 H 254.731 1.51343 0.575065 0
M  V30 2660 H 256.723 1.73721 3.65518 0
M  V30 2661 H 255.293 0.907869 2.99126 0
M  V30 2662 H 254.513 3.26649 2.20667 0
M  V30 2663 H 255.801 3.93662 3.22347 0
M  V30 2664 H 255.199 1.63211 5.41645 0
M  V30 2665 H 253.756 2.24524 6.11909 0
M  V30 2666 N 257.189 -0.644168 1.43834 0
M  V30 2667 C 258.121 -1.76955 1.45669 0
M  V30 2668 C 259.134 -1.58956 0.351666 0
M  V30 2669 O 260.323 -1.6751 0.616644 0
M  V30 2670 C 257.423 -3.14507 1.26248 0
M  V30 2671 C 256.596 -3.59083 2.49757 0
M  V30 2672 C 255.655 -4.75467 2.25427 0
M  V30 2673 O 254.681 -4.84444 2.98836 0
M  V30 2674 N 255.883 -5.66289 1.27661 0
M  V30 2675 H 258.648 -1.75856 2.42682 0
M  V30 2676 H 256.209 -0.828312 1.39106 0
M  V30 2677 H 258.201 -3.90067 1.0784 0
M  V30 2678 H 256.771 -3.10325 0.376478 0
M  V30 2679 H 255.991 -2.7387 2.8353 0
M  V30 2680 H 257.279 -3.85613 3.31934 0
M  V30 2681 H 256.677 -5.61718 0.670064 0
M  V30 2682 H 255.234 -6.41533 1.15234 0
M  V30 2683 N 258.668 -1.30515 -0.883378 0
M  V30 2684 C 260.079 -1.17509 -1.45081 0
M  V30 2685 C 260.43 0.223605 -1.94922 0
M  V30 2686 O 259.555 1.12041 -1.85137 0
M  V30 2687 C 260.15 -2.12715 -2.63701 0
M  V30 2688 C 258.709 -2.03682 -3.16529 0
M  V30 2689 C 257.856 -2.02706 -1.89224 0
M  V30 2690 H 260.807 -1.42762 -0.693165 0
M  V30 2691 H 260.828 -1.70891 -3.39965 0
M  V30 2692 H 260.34 -3.14505 -2.27395 0
M  V30 2693 H 258.441 -1.05039 -3.57488 0
M  V30 2694 H 258.554 -2.92146 -3.7972 0
M  V30 2695 H 256.918 -1.4753 -2.07622 0
M  V30 2696 H 257.701 -3.06229 -1.55174 0
M  V30 2697 N 260.146 1.09593 -1.13257 0
M  V30 2698 C 261.394 1.81375 -0.891492 0
M  V30 2699 C 261.715 1.86049 0.584009 0
M  V30 2700 O 260.985 1.34481 1.42449 0
M  V30 2701 H 259.565 0.671708 -0.326828 0
M  V30 2702 H 262.227 1.3256 -1.42877 0
M  V30 2703 H 261.323 2.84612 -1.28071 0
M  V30 2704 N 261.624 0.925811 1.2754 0
M  V30 2705 C 262.534 0.428993 2.30644 0
M  V30 2706 C 263.55 -0.489387 1.66976 0
M  V30 2707 O 264.726 -0.372653 1.97922 0
M  V30 2708 C 261.791 -0.311967 3.45294 0
M  V30 2709 C 260.852 0.641098 4.24486 0
M  V30 2710 C 260.085 -0.0645955 5.33661 0
M  V30 2711 O 260.308 -1.28429 5.55754 0
M  V30 2712 O 259.242 0.606265 5.98839 0
M  V30 2713 H 263.068 1.28504 2.75173 0
M  V30 2714 H 260.653 0.691086 1.32455 0
M  V30 2715 H 262.535 -0.729972 4.15029 0
M  V30 2716 H 261.21 -1.14365 3.02824 0
M  V30 2717 H 260.117 1.10874 3.57292 0
M  V30 2718 H 261.45 1.43995 4.70666 0
M  V30 2719 N 263.102 -1.41638 0.69111 0
M  V30 2720 C 264.065 -2.29178 0.0319786 0
M  V30 2721 C 265.065 -1.44153 -0.712496 0
M  V30 2722 O 266.255 -1.65354 -0.548053 0
M  V30 2723 C 263.387 -3.26952 -0.965161 0
M  V30 2724 H 264.58 -2.88959 0.802681 0
M  V30 2725 H 262.133 -1.4955 0.454356 0
M  V30 2726 H 262.868 -2.72142 -1.76378 0
M  V30 2727 H 262.653 -3.89685 -0.434522 0
M  V30 2728 H 264.143 -3.92561 -1.42428 0
M  V30 2729 N 264.58 -0.43555 -1.51462 0
M  V30 2730 C 265.49 0.383001 -2.31453 0
M  V30 2731 C 266.506 1.02931 -1.4029 0
M  V30 2732 O 267.682 1.02507 -1.73362 0
M  V30 2733 C 264.747 1.47043 -3.13973 0
M  V30 2734 C 263.808 0.844433 -4.20913 0
M  V30 2735 C 263.041 1.88004 -4.9949 0
M  V30 2736 O 263.264 3.10199 -4.78678 0
M  V30 2737 O 262.198 1.47157 -5.83634 0
M  V30 2738 H 266.024 -0.269964 -3.02498 0
M  V30 2739 H 263.609 -0.19813 -1.4808 0
M  V30 2740 H 265.491 2.10113 -3.65281 0
M  V30 2741 H 264.166 2.10751 -2.45695 0
M  V30 2742 H 263.073 0.175729 -3.73687 0
M  V30 2743 H 264.406 0.250869 -4.9156 0
M  V30 2744 N 266.058 1.56714 -0.166846 0
M  V30 2745 C 267.469 1.83378 0.350646 0
M  V30 2746 C 267.82 1.08646 1.63372 0
M  V30 2747 O 266.945 0.338058 2.13743 0
M  V30 2748 C 267.54 3.32643 0.642963 0
M  V30 2749 C 266.099 3.59818 1.10491 0
M  V30 2750 C 265.246 2.76954 0.138411 0
M  V30 2751 H 268.197 1.53803 -0.391193 0
M  V30 2752 H 268.218 3.49878 1.49551 0
M  V30 2753 H 267.73 3.87007 -0.291055 0
M  V30 2754 H 265.831 3.1086 2.05418 0
M  V30 2755 H 265.944 4.68178 1.01716 0
M  V30 2756 H 264.308 2.4666 0.634911 0
M  V30 2757 H 265.091 3.34097 -0.789549 0
M  V30 2758 N 267.536 -0.106894 1.57237 0
M  V30 2759 C 268.466 -1.13148 2.04254 0
M  V30 2760 C 269.447 -1.42476 0.929224 0
M  V30 2761 O 270.632 -1.52709 1.19973 0
M  V30 2762 C 267.762 -2.4545 2.45706 0
M  V30 2763 C 266.716 -2.30558 3.60592 0
M  V30 2764 C 266.042 -3.67931 3.87983 0
M  V30 2765 C 267.342 -1.75597 4.91897 0
M  V30 2766 H 269.036 -0.740374 2.90101 0
M  V30 2767 H 266.582 -0.354696 1.39563 0
M  V30 2768 H 268.535 -3.17389 2.77205 0
M  V30 2769 H 267.259 -2.86475 1.56843 0
M  V30 2770 H 265.918 -1.61067 3.29322 0
M  V30 2771 H 265.566 -4.06462 2.96306 0
M  V30 2772 H 265.266 -3.58817 4.65322 0
M  V30 2773 H 266.79 -4.41356 4.21945 0
M  V30 2774 H 268.204 -2.37364 5.21854 0
M  V30 2775 H 266.601 -1.77272 5.73319 0
M  V30 2776 H 267.671 -0.714451 4.79608 0
M  V30 2777 N 269.014 -1.53014 -0.377408 0
M  V30 2778 C 270.242 -1.72515 -1.14219 0
M  V30 2779 C 270.657 -0.448735 -1.8339 0
M  V30 2780 O 270.014 0.577592 -1.73119 0
M  V30 2781 C 270.065 -2.8826 -2.18148 0
M  V30 2782 O 269.786 -4.10962 -1.51795 0
M  V30 2783 C 271.287 -3.19536 -3.07264 0
M  V30 2784 H 268.507 -0.577301 -0.342001 0
M  V30 2785 H 271.051 -1.99712 -0.439935 0
M  V30 2786 H 269.206 -2.63492 -2.83991 0
M  V30 2787 H 269.62 -4.75693 -2.20945 0
M  V30 2788 H 271.094 -4.03959 -3.76193 0
M  V30 2789 H 271.571 -2.34403 -3.71419 0
M  V30 2790 H 272.177 -3.46186 -2.47053 0
M  V30 2791 N 270.492 0.636531 -1.44174 0
M  V30 2792 C 271.903 1.21806 -1.41493 0
M  V30 2793 C 272.254 1.95785 -0.1275 0
M  V30 2794 O 271.379 2.02147 0.772376 0
M  V30 2795 C 271.974 2.21551 -2.56321 0
M  V30 2796 C 270.533 2.75143 -2.56853 0
M  V30 2797 C 269.68 1.50052 -2.33195 0
M  V30 2798 H 272.631 0.427531 -1.52833 0
M  V30 2799 H 272.652 3.0405 -2.28765 0
M  V30 2800 H 272.164 1.67679 -3.50008 0
M  V30 2801 H 270.265 3.33033 -1.67093 0
M  V30 2802 H 270.378 3.2155 -3.55165 0
M  V30 2803 H 268.742 1.77993 -1.82183 0
M  V30 2804 H 269.525 0.980903 -3.28988 0
M  V30 2805 N 271.97 1.30982 0.876444 0
M  V30 2806 C 273.198 1.23242 1.6619 0
M  V30 2807 C 273.613 -0.203345 1.87702 0
M  V30 2808 O 272.97 -1.13317 1.43057 0
M  V30 2809 C 273.021 1.96623 3.03351 0
M  V30 2810 O 272.742 3.34594 2.82804 0
M  V30 2811 C 274.243 1.95644 3.97792 0
M  V30 2812 H 271.463 0.426126 0.518322 0
M  V30 2813 H 274.007 1.7275 1.09442 0
M  V30 2814 H 272.162 1.50892 3.56806 0
M  V30 2815 H 272.576 3.71873 3.69879 0
M  V30 2816 H 274.05 2.51511 4.91372 0
M  V30 2817 H 274.527 0.937395 4.2908 0
M  V30 2818 H 275.133 2.41225 3.50272 0
M  V30 2819 N 273.449 -1.08991 1.13837 0
M  V30 2820 C 274.679 -1.84743 0.924859 0
M  V30 2821 C 275.087 -1.81629 -0.529874 0
M  V30 2822 O 274.43 -1.21397 -1.37872 0
M  V30 2823 C 274.492 -3.33568 1.34061 0
M  V30 2824 C 274.156 -3.60425 2.80968 0
M  V30 2825 C 275.153 -3.55771 3.79108 0
M  V30 2826 C 272.838 -3.88627 3.18236 0
M  V30 2827 C 274.832 -3.78939 5.12527 0
M  V30 2828 C 272.519 -4.11449 4.51833 0
M  V30 2829 C 273.517 -4.06598 5.48787 0
M  V30 2830 O 273.205 -4.28826 6.79973 0
M  V30 2831 H 272.937 -0.590258 0.329502 0
M  V30 2832 H 275.491 -1.38598 1.51591 0
M  V30 2833 H 273.721 -3.80442 0.692853 0
M  V30 2834 H 275.41 -3.90743 1.09886 0
M  V30 2835 H 276.176 -3.34005 3.51661 0
M  V30 2836 H 272.055 -3.91526 2.43369 0
M  V30 2837 H 275.599 -3.75068 5.88192 0
M  V30 2838 H 271.496 -4.32698 4.79002 0
M  V30 2839 H 272.264 -4.46264 6.86142 0
M  V30 2840 N 274.927 -0.932562 -1.27047 0
M  V30 2841 C 275.875 -0.42603 -2.28665 0
M  V30 2842 C 276.869 0.49219 -1.62092 0
M  V30 2843 O 278.075 0.371355 -1.76128 0
M  V30 2844 H 274.45 -0.119213 -0.742491 0
M  V30 2845 H 276.421 -1.29579 -2.68797 0
M  V30 2846 C 275.17 0.301426 -3.46391 0
M  V30 2847 H 274.493 -0.39595 -3.97834 0
M  V30 2848 H 275.933 0.6202 -4.1944 0
M  V30 2849 C 274.392 1.51616 -3.00856 0
M  V30 2850 O 274.922 2.61476 -3.04948 0
M  V30 2851 N 273.128 1.36969 -2.56296 0
M  V30 2852 H 272.675 0.475873 -2.53166 0
M  V30 2853 H 272.633 2.18368 -2.26192 0
M  V30 2854 N 276.405 1.4127 -0.698611 0
M  V30 2855 C 277.654 2.00408 -0.227949 0
M  V30 2856 C 277.967 1.55981 1.18023 0
M  V30 2857 O 279.173 2.07699 1.74852 0
M  V30 2858 C 277.629 3.58129 -0.356636 0
M  V30 2859 C 277.237 4.11536 -1.77037 0
M  V30 2860 C 278.981 4.24466 0.0540969 0
M  V30 2861 C 276.888 5.61701 -1.85055 0
M  V30 2862 H 275.818 0.749586 -0.0814657 0
M  V30 2863 H 278.469 1.61713 -0.867249 0
M  V30 2864 H 276.851 3.94442 0.350965 0
M  V30 2865 H 278.025 3.86636 -2.50698 0
M  V30 2866 H 276.34 3.57736 -2.13105 0
M  V30 2867 H 278.937 5.34698 0.0146723 0
M  V30 2868 H 279.28 4.01687 1.09332 0
M  V30 2869 H 279.813 3.93198 -0.603337 0
M  V30 2870 H 276.552 5.89312 -2.8704 0
M  V30 2871 H 276.072 5.88519 -1.15783 0
M  V30 2872 H 277.751 6.26524 -1.61484 0
M  V30 2873 N 277.883 0.443576 1.51229 0
M  V30 2874 C 279.108 -0.121648 2.07043 0
M  V30 2875 C 279.533 -1.35156 1.30823 0
M  V30 2876 O 278.891 -1.7793 0.347934 0
M  V30 2877 C 278.939 -0.41624 3.5819 0
M  V30 2878 O 278.043 -1.50163 3.8409 0
M  V30 2879 H 277.384 0.000871367 0.663999 0
M  V30 2880 H 279.914 0.626706 1.94765 0
M  V30 2881 H 279.924 -0.664867 4.02546 0
M  V30 2882 H 278.599 0.482653 4.1309 0
M  V30 2883 H 277.176 -1.24248 3.51592 0
M  V30 2884 N 279.361 -1.56624 0.175154 0
M  V30 2885 C 280.324 -2.16934 -0.739738 0
M  V30 2886 C 281.324 -1.11842 -1.15533 0
M  V30 2887 O 282.514 -1.37335 -1.07167 0
M  V30 2888 C 279.646 -2.75531 -2.00738 0
M  V30 2889 H 280.839 -2.99131 -0.214639 0
M  V30 2890 H 278.392 -1.56123 -0.0744197 0
M  V30 2891 H 279.127 -1.97078 -2.57548 0
M  V30 2892 H 278.912 -3.52444 -1.71831 0
M  V30 2893 H 280.402 -3.21904 -2.66021 0
M  V30 2894 N 280.839 0.0985539 -1.57292 0
M  V30 2895 C 281.787 1.1387 -2.02821 0
M  V30 2896 C 282.781 1.41676 -0.928666 0
M  V30 2897 O 283.987 1.41398 -1.11385 0
M  V30 2898 H 280.362 0.384419 -0.646317 0
M  V30 2899 H 282.333 0.728347 -2.89375 0
M  V30 2900 C 281.082 2.45166 -2.46554 0
M  V30 2901 H 280.405 2.24613 -3.3074 0
M  V30 2902 H 281.845 3.16456 -2.8219 0
M  V30 2903 C 280.304 3.09216 -1.33742 0
M  V30 2904 O 280.834 3.96163 -0.66464 0
M  V30 2905 N 279.04 2.69413 -1.08928 0
M  V30 2906 H 278.587 1.98801 -1.63817 0
M  V30 2907 H 278.545 3.12594 -0.336458 0
M  V30 2908 N 282.317 1.53212 0.369288 0
M  V30 2909 C 283.565 1.68881 1.11012 0
M  V30 2910 C 283.886 0.441285 1.89941 0
M  V30 2911 O 283.156 -0.544623 1.88177 0
M  V30 2912 H 281.736 0.622569 0.412816 0
M  V30 2913 H 284.398 1.90391 0.416802 0
M  V30 2914 H 283.494 2.54822 1.80201 0
M  V30 2915 N 283.795 -0.628877 1.44509 0
M  V30 2916 C 284.725 -1.75187 1.54376 0
M  V30 2917 C 285.706 -1.65411 0.396618 0
M  V30 2918 O 286.891 -1.84137 0.617031 0
M  V30 2919 C 284.021 -3.13725 1.48976 0
M  V30 2920 C 282.975 -3.38291 2.62189 0
M  V30 2921 C 282.301 -4.76883 2.41841 0
M  V30 2922 C 283.601 -3.30632 4.04326 0
M  V30 2923 H 285.295 -1.67187 2.48373 0
M  V30 2924 H 282.841 -0.802909 1.19538 0
M  V30 2925 H 284.794 -3.92064 1.54478 0
M  V30 2926 H 283.518 -3.22515 0.514961 0
M  V30 2927 H 282.177 -2.62334 2.56079 0
M  V30 2928 H 281.825 -4.82378 1.42548 0
M  V30 2929 H 281.525 -4.94278 3.17747 0
M  V30 2930 H 283.049 -5.57449 2.49165 0
M  V30 2931 H 284.463 -3.98873 4.11793 0
M  V30 2932 H 282.86 -3.59561 4.80454 0
M  V30 2933 H 283.93 -2.28404 4.27738 0
M  V30 2934 N 285.273 -1.31445 -0.869486 0
M  V30 2935 C 286.501 -1.24122 -1.65534 0
M  V30 2936 C 286.916 0.193387 -1.87807 0
M  V30 2937 O 286.273 1.12557 -1.43656 0
M  V30 2938 C 286.324 -1.98229 -3.02304 0
M  V30 2939 O 286.045 -3.3609 -2.81026 0
M  V30 2940 C 287.546 -1.97751 -3.96749 0
M  V30 2941 H 284.766 -0.428868 -0.516055 0
M  V30 2942 H 287.31 -1.73328 -1.08525 0
M  V30 2943 H 285.465 -1.52782 -3.56001 0
M  V30 2944 H 285.879 -3.7383 -3.67902 0
M  V30 2945 H 287.353 -2.54114 -4.90031 0
M  V30 2946 H 287.83 -0.960137 -4.28577 0
M  V30 2947 H 288.436 -2.43079 -3.48988 0
M  V30 2948 N 286.751 1.08385 -1.14413 0
M  V30 2949 C 287.661 2.18856 -0.844951 0
M  V30 2950 C 288.677 1.73121 0.174668 0
M  V30 2951 O 289.853 2.014 0.00312857 0
M  V30 2952 C 286.918 3.45155 -0.32696 0
M  V30 2953 C 285.979 4.05513 -1.40916 0
M  V30 2954 C 285.212 5.25784 -0.915793 0
M  V30 2955 O 285.435 5.69884 0.242651 0
M  V30 2956 O 284.369 5.77545 -1.69487 0
M  V30 2957 H 288.195 2.46919 -1.76818 0
M  V30 2958 H 285.78 1.17524 -0.922411 0
M  V30 2959 H 287.662 4.21377 -0.0440211 0
M  V30 2960 H 286.337 3.18668 0.568539 0
M  V30 2961 H 285.244 3.30879 -1.74556 0
M  V30 2962 H 286.577 4.3625 -2.27919 0
M  V30 2963 N 288.23 0.939286 1.26551 0
M  V30 2964 C 289.16 0.465044 2.28822 0
M  V30 2965 C 290.141 -0.480692 1.63167 0
M  V30 2966 O 291.326 -0.382955 1.90387 0
M  V30 2967 C 288.456 -0.27234 3.46231 0
M  V30 2968 C 287.41 0.58666 4.2396 0
M  V30 2969 C 286.736 -0.280573 5.33963 0
M  V30 2970 C 288.036 1.85704 4.88171 0
M  V30 2971 H 289.73 1.31979 2.68741 0
M  V30 2972 H 287.276 0.636061 1.29191 0
M  V30 2973 H 289.229 -0.615133 4.16886 0
M  V30 2974 H 287.953 -1.16121 3.0526 0
M  V30 2975 H 286.612 0.91232 3.55067 0
M  V30 2976 H 286.26 -1.16874 4.89234 0
M  V30 2977 H 285.96 0.29076 5.8688 0
M  V30 2978 H 287.484 -0.618678 6.07458 0
M  V30 2979 H 288.898 1.58161 5.51052 0
M  V30 2980 H 287.295 2.37279 5.51197 0
M  V30 2981 H 288.365 2.56957 4.11219 0
M  V30 2982 N 289.708 -1.40897 0.706093 0
M  V30 2983 C 290.658 -2.27987 0.0240746 0
M  V30 2984 C 291.642 -1.42759 -0.742204 0
M  V30 2985 O 292.834 -1.65936 -0.615966 0
M  V30 2986 C 289.963 -3.31186 -0.903907 0
M  V30 2987 C 289.049 -4.2389 -0.133318 0
M  V30 2988 N 289.44 -4.98113 0.878444 0
M  V30 2989 C 287.738 -4.44485 -0.367269 0
M  V30 2990 C 288.439 -5.6604 1.34064 0
M  V30 2991 N 287.415 -5.39522 0.664565 0
M  V30 2992 H 291.217 -2.82812 0.799658 0
M  V30 2993 H 288.731 -1.53235 0.537845 0
M  V30 2994 H 290.728 -3.92413 -1.40775 0
M  V30 2995 H 289.388 -2.77922 -1.67897 0
M  V30 2996 H 290.399 -5.02364 1.25901 0
M  V30 2997 H 287.076 -4.02213 -1.1194 0
M  V30 2998 H 288.466 -6.35524 2.1808 0
M  V30 2999 N 291.186 -0.45159 -1.50991 0
M  V30 3000 C 292.463 0.170707 -1.94854 0
M  V30 3001 C 292.843 1.58788 -1.39103 0
M  V30 3002 O 292.191 2.20913 -0.583921 0
M  V30 3003 C 292.401 0.133929 -3.48743 0
M  V30 3004 C 293.749 0.33248 -4.23296 0
M  V30 3005 O 294.773 0.211403 -3.55572 0
M  V30 3006 O 293.632 0.57486 -5.43468 0
M  V30 3007 H 290.726 0.122264 -0.817912 0
M  V30 3008 H 293.272 -0.510594 -1.61836 0
M  V30 3009 H 292.044 -0.856283 -3.81816 0
M  V30 3010 H 291.667 0.857529 -3.88242 0
M  V30 3011 N 292.664 1.56529 -0.183458 0
M  V30 3012 C 293.941 1.88959 0.50536 0
M  V30 3013 C 294.321 1.09523 1.80466 0
M  V30 3014 O 293.669 0.19278 2.27685 0
M  V30 3015 C 293.879 3.41162 0.73547 0
M  V30 3016 C 295.227 4.11155 1.06005 0
M  V30 3017 O 296.251 3.46548 0.823594 0
M  V30 3018 O 295.11 5.25318 1.50675 0
M  V30 3019 H 292.204 0.78441 0.261973 0
M  V30 3020 H 294.75 1.68231 -0.222802 0
M  V30 3021 H 293.522 3.90874 -0.182561 0
M  V30 3022 H 293.145 3.67543 1.51651 0
M  V30 3023 N 294.142 -0.090211 1.57342 0
M  V30 3024 C 295.072 -1.10976 2.05443 0
M  V30 3025 C 296.053 -1.41482 0.944284 0
M  V30 3026 O 297.238 -1.51428 1.21586 0
M  V30 3027 C 294.368 -2.42831 2.48295 0
M  V30 3028 C 293.322 -2.26721 3.63018 0
M  V30 3029 C 292.648 -3.63796 3.91863 0
M  V30 3030 C 293.948 -1.7037 4.93732 0
M  V30 3031 H 295.642 -0.709564 2.9087 0
M  V30 3032 H 293.188 -0.339874 1.39932 0
M  V30 3033 H 295.141 -3.14431 2.80555 0
M  V30 3034 H 293.865 -2.84795 1.59873 0
M  V30 3035 H 292.524 -1.57565 3.31012 0
M  V30 3036 H 292.172 -4.03297 3.00601 0
M  V30 3037 H 291.872 -3.53861 4.69101 0
M  V30 3038 H 293.396 -4.36855 4.26603 0
M  V30 3039 H 294.81 -2.31816 5.24342 0
M  V30 3040 H 293.207 -1.71181 5.75167 0
M  V30 3041 H 294.277 -0.663542 4.80339 0
M  V30 3042 N 295.62 -1.53406 -0.361157 0
M  V30 3043 C 296.845 -1.74024 -1.12829 0
M  V30 3044 C 297.27 -0.470069 -1.82132 0
M  V30 3045 O 296.628 0.57619 -1.719 0
M  V30 3046 C 296.676 -2.90903 -2.13091 0
M  V30 3047 O 295.78 -2.59821 -3.20261 0
M  V30 3048 H 295.121 -0.577804 -0.327168 0
M  V30 3049 H 297.651 -2.00307 -0.41693 0
M  V30 3050 H 297.661 -3.17194 -2.56616 0
M  V30 3051 H 296.336 -3.83034 -1.62042 0
M  V30 3052 H 294.913 -2.44362 -2.81677 0
M  V30 3053 N 297.098 0.621204 -1.44841 0
M  V30 3054 C 298.046 1.75385 -1.52784 0
M  V30 3055 C 299.04 1.64639 -0.398779 0
M  V30 3056 O 300.246 1.70598 -0.574137 0
M  V30 3057 H 296.621 0.579193 -0.479625 0
M  V30 3058 H 298.592 1.6581 -2.48092 0
M  V30 3059 C 297.341 3.13742 -1.4987 0
M  V30 3060 H 296.664 3.22663 -2.36069 0
M  V30 3061 H 298.104 3.92861 -1.59487 0
M  V30 3062 C 296.563 3.36175 -0.220973 0
M  V30 3063 O 297.093 3.95469 0.704782 0
M  V30 3064 N 295.299 2.90348 -0.120963 0
M  V30 3065 H 294.846 2.42278 -0.875162 0
M  V30 3066 H 294.804 3.05732 0.733168 0
M  V30 3067 N 298.576 1.31904 0.862503 0
M  V30 3068 C 299.806 1.24817 1.64634 0
M  V30 3069 C 300.214 -0.187579 1.88268 0
M  V30 3070 O 299.557 -1.13253 1.44635 0
M  V30 3071 C 299.619 1.92996 3.03303 0
M  V30 3072 C 299.283 3.42336 3.02746 0
M  V30 3073 C 300.28 4.37956 2.80162 0
M  V30 3074 C 297.965 3.84147 3.2363 0
M  V30 3075 C 299.959 5.73361 2.78453 0
M  V30 3076 C 297.646 5.19663 3.21549 0
M  V30 3077 C 298.644 6.14081 2.98988 0
M  V30 3078 O 298.332 7.47118 2.96766 0
M  V30 3079 H 298.064 0.432222 0.519769 0
M  V30 3080 H 300.618 1.7445 1.08427 0
M  V30 3081 H 298.848 1.37922 3.61268 0
M  V30 3082 H 300.537 1.79723 3.63943 0
M  V30 3083 H 301.303 4.06981 2.63802 0
M  V30 3084 H 297.182 3.11083 3.40218 0
M  V30 3085 H 300.726 6.4703 2.60763 0
M  V30 3086 H 296.623 5.5027 3.37451 0
M  V30 3087 H 297.391 7.56382 3.12775 0
M  V30 3088 N 300.054 -1.07777 1.14986 0
M  V30 3089 C 301.303 -1.79669 0.916617 0
M  V30 3090 C 301.616 -1.87474 -0.557917 0
M  V30 3091 O 302.822 -2.55845 -0.908617 0
M  V30 3092 C 301.278 -3.22848 1.59051 0
M  V30 3093 C 300.886 -3.23257 3.10176 0
M  V30 3094 C 302.63 -3.99379 1.43864 0
M  V30 3095 C 300.537 -4.61063 3.70372 0
M  V30 3096 H 299.467 -0.673349 0.33929 0
M  V30 3097 H 302.118 -1.21003 1.37951 0
M  V30 3098 H 300.5 -3.8168 1.0553 0
M  V30 3099 H 301.674 -2.74095 3.70417 0
M  V30 3100 H 299.989 -2.60222 3.25074 0
M  V30 3101 H 302.586 -5.0122 1.86232 0
M  V30 3102 H 302.929 -4.14511 0.385564 0
M  V30 3103 H 303.462 -3.47032 1.94457 0
M  V30 3104 H 300.201 -4.51135 4.7556 0
M  V30 3105 H 299.721 -5.1048 3.14913 0
M  V30 3106 H 301.4 -5.30034 3.71043 0
M  V30 3107 N 301.532 -0.945985 -1.26051 0
M  V30 3108 C 302.809 -0.513816 -1.88731 0
M  V30 3109 C 303.189 1.00872 -1.8544 0
M  V30 3110 O 302.537 1.8708 -1.312 0
M  V30 3111 C 302.747 -1.08062 -3.31849 0
M  V30 3112 C 304.095 -1.1522 -4.08668 0
M  V30 3113 O 305.119 -1.03155 -3.40936 0
M  V30 3114 O 303.978 -1.34044 -5.29806 0
M  V30 3115 H 301.072 -0.168193 -0.809716 0
M  V30 3116 H 303.618 -1.03886 -1.34186 0
M  V30 3117 H 302.39 -2.1241 -3.2863 0
M  V30 3118 H 302.013 -0.538307 -3.93939 0
M  V30 3119 N 303.011 1.40521 -0.713556 0
M  V30 3120 C 304.259 2.00527 -0.251692 0
M  V30 3121 C 304.58 1.56857 1.15848 0
M  V30 3122 O 303.85 0.807127 1.785 0
M  V30 3123 H 302.43 0.741551 -0.0900646 0
M  V30 3124 H 305.092 1.71887 -0.918733 0
M  V30 3125 H 304.188 3.10813 -0.283192 0
M  V30 3126 N 304.489 0.459591 1.5075 0
M  V30 3127 C 305.439 -0.358926 2.25157 0
M  V30 3128 C 306.423 -0.971285 1.28276 0
M  V30 3129 O 307.615 -0.885739 1.53244 0
M  V30 3130 C 304.744 -1.44695 3.11317 0
M  V30 3131 C 303.83 -0.842894 4.15639 0
M  V30 3132 N 304.221 0.0299373 5.05791 0
M  V30 3133 C 302.519 -1.10809 4.32015 0
M  V30 3134 C 303.22 0.371563 5.80512 0
M  V30 3135 N 302.196 -0.250409 5.43023 0
M  V30 3136 H 305.998 0.313636 2.92222 0
M  V30 3137 H 303.512 0.273021 1.60089 0
M  V30 3138 H 305.509 -2.04641 3.63218 0
M  V30 3139 H 304.169 -2.12162 2.45799 0
M  V30 3140 H 305.18 0.39797 5.16369 0
M  V30 3141 H 301.857 -1.7786 3.77719 0
M  V30 3142 H 303.247 1.08319 6.63111 0
M  V30 3143 N 305.967 -1.56429 0.191757 0
M  V30 3144 C 307.195 -2.01867 -0.453586 0
M  V30 3145 C 307.61 -1.07191 -1.5542 0
M  V30 3146 O 306.967 -0.0762108 -1.82341 0
M  V30 3147 C 307.018 -3.47017 -1.013 0
M  V30 3148 O 306.739 -4.38078 0.0437005 0
M  V30 3149 C 308.24 -4.07956 -1.73456 0
M  V30 3150 H 305.46 -0.661211 -0.114199 0
M  V30 3151 H 308.004 -2.02295 0.299483 0
M  V30 3152 H 306.159 -3.47298 -1.71647 0
M  V30 3153 H 306.573 -5.23178 -0.372212 0
M  V30 3154 H 308.047 -5.1138 -2.07833 0
M  V30 3155 H 308.524 -3.51222 -2.63704 0
M  V30 3156 H 309.13 -4.11437 -1.07702 0
M  V30 3157 N 307.445 0.0818655 -1.57387 0
M  V30 3158 C 308.856 0.634871 -1.75574 0
M  V30 3159 C 309.207 1.78435 -0.815809 0
M  V30 3160 O 308.332 2.164 0.0025366 0
M  V30 3161 C 308.927 1.15845 -3.18379 0
M  V30 3162 C 307.486 1.65741 -3.37945 0
M  V30 3163 C 306.633 0.572549 -2.71325 0
M  V30 3164 H 309.584 -0.144268 -1.58043 0
M  V30 3165 H 309.605 2.02751 -3.21982 0
M  V30 3166 H 309.117 0.321631 -3.86765 0
M  V30 3167 H 307.218 2.51781 -2.74658 0
M  V30 3168 H 307.331 1.74129 -4.46336 0
M  V30 3169 H 305.695 1.01518 -2.33594 0
M  V30 3170 H 306.478 -0.253918 -3.4236 0
M  V30 3171 N 308.923 1.53595 0.353017 0
M  V30 3172 C 309.833 1.83897 1.45667 0
M  V30 3173 C 310.849 0.728334 1.58023 0
M  V30 3174 O 312.025 1.01968 1.73679 0
M  V30 3175 C 309.09 2.03383 2.80778 0
M  V30 3176 C 308.151 3.27262 2.77845 0
M  V30 3177 C 307.384 3.45809 4.06512 0
M  V30 3178 O 307.607 2.68387 5.03314 0
M  V30 3179 O 306.541 4.39207 4.11559 0
M  V30 3180 H 310.367 2.77686 1.2298 0
M  V30 3181 H 307.952 1.39132 0.544308 0
M  V30 3182 H 309.834 2.17698 3.60812 0
M  V30 3183 H 308.509 1.12783 3.03417 0
M  V30 3184 H 307.416 3.18359 1.96465 0
M  V30 3185 H 308.749 4.17824 2.60161 0
M  V30 3186 N 310.401 -0.613514 1.45168 0
M  V30 3187 C 311.649 -1.36997 1.48581 0
M  V30 3188 C 311.97 -1.94589 0.126545 0
M  V30 3189 O 311.24 -1.76816 -0.843372 0
M  V30 3190 H 309.82 -0.508558 0.547154 0
M  V30 3191 H 312.482 -0.720853 1.81079 0
M  V30 3192 H 311.578 -2.1924 2.22127 0
M  V30 3193 N 311.879 -1.3236 -0.855495 0
M  V30 3194 C 313.104 -1.2601 -1.64731 0
M  V30 3195 C 313.529 0.169068 -1.87339 0
M  V30 3196 O 312.887 1.12016 -1.42556 0
M  V30 3197 C 312.935 -2.02417 -2.98429 0
M  V30 3198 O 312.039 -1.3714 -3.8893 0
M  V30 3199 H 311.38 -0.434325 -0.502253 0
M  V30 3200 H 313.91 -1.74661 -1.06558 0
M  V30 3201 H 313.92 -2.12559 -3.48257 0
M  V30 3202 H 312.595 -3.06343 -2.81295 0
M  V30 3203 H 311.172 -1.3554 -3.47395 0
M  V30 3204 N 313.357 1.07166 -1.15556 0
M  V30 3205 C 314.304 2.14417 -0.854055 0
M  V30 3206 C 315.274 1.64965 0.193806 0
M  V30 3207 O 316.459 1.90703 0.0609443 0
M  V30 3208 C 313.599 3.43304 -0.351574 0
M  V30 3209 C 312.712 4.06537 -1.46123 0
M  V30 3210 C 311.847 5.23266 -0.914677 0
M  V30 3211 C 310.886 5.78464 -2.00114 0
M  V30 3212 N 310.023 6.86521 -1.47083 0
M  V30 3213 H 314.863 2.39548 -1.77259 0
M  V30 3214 H 312.4 1.17543 -0.884425 0
M  V30 3215 H 314.358 4.17179 -0.0419409 0
M  V30 3216 H 312.988 3.18419 0.530037 0
M  V30 3217 H 312.04 3.30297 -1.88701 0
M  V30 3218 H 313.352 4.43567 -2.28144 0
M  V30 3219 H 312.506 6.04131 -0.557698 0
M  V30 3220 H 311.245 4.87658 -0.0636583 0
M  V30 3221 H 310.25 4.96243 -2.36692 0
M  V30 3222 H 311.475 6.16126 -2.85597 0
M  V30 3223 H 309.421 6.52849 -0.642198 0
M  V30 3224 H 309.338 7.22446 -2.22729 0
M  V30 3225 H 310.606 7.71087 -1.14215 0
M  V30 3226 N 314.835 0.952656 1.25548 0
M  V30 3227 C 315.798 0.475794 2.24207 0
M  V30 3228 C 316.798 -0.419428 1.55234 0
M  V30 3229 O 317.988 -0.216994 1.72843 0
M  V30 3230 C 315.12 -0.312814 3.39462 0
M  V30 3231 H 316.313 1.34779 2.67908 0
M  V30 3232 H 313.866 0.735739 1.37901 0
M  V30 3233 H 314.601 -1.20257 3.01179 0
M  V30 3234 H 314.386 0.329404 3.90714 0
M  V30 3235 H 315.876 -0.635986 4.12729 0
M  V30 3236 N 316.313 -1.40141 0.720998 0
M  V30 3237 C 317.59 -1.94677 0.189757 0
M  V30 3238 C 317.97 -1.65879 -1.30566 0
M  V30 3239 O 317.318 -0.979391 -2.06447 0
M  V30 3240 C 317.528 -3.45279 0.508304 0
M  V30 3241 C 318.876 -4.22209 0.449934 0
M  V30 3242 O 319.9 -3.53413 0.444677 0
M  V30 3243 O 318.759 -5.44788 0.432189 0
M  V30 3244 H 315.853 -0.826459 0.0299026 0
M  V30 3245 H 318.399 -1.49719 0.7989 0
M  V30 3246 H 317.171 -3.59619 1.54239 0
M  V30 3247 H 316.794 -3.97386 -0.130525 0
M  V30 3248 N 317.792 -0.46758 -1.50504 0
M  V30 3249 C 319.017 0.0886943 -2.0721 0
M  V30 3250 C 319.442 1.33057 -1.32956 0
M  V30 3251 O 318.8 1.77354 -0.376197 0
M  V30 3252 C 318.848 0.359202 -3.58806 0
M  V30 3253 O 317.952 1.44034 -3.8643 0
M  V30 3254 H 317.293 -0.0114349 -0.663902 0
M  V30 3255 H 319.823 -0.657613 -1.93744 0
M  V30 3256 H 319.833 0.600742 -4.03553 0
M  V30 3257 H 318.508 -0.548311 -4.1227 0
M  V30 3258 H 317.085 1.18638 -3.53524 0
M  V30 3259 N 319.27 1.56325 -0.20005 0
M  V30 3260 C 320.233 2.18084 0.705132 0
M  V30 3261 C 321.233 1.13666 1.1374 0
M  V30 3262 O 322.423 1.39023 1.04968 0
M  V30 3263 C 319.555 2.78689 1.96329 0
M  V30 3264 H 320.748 2.99435 0.167023 0
M  V30 3265 H 318.301 1.56221 0.0495725 0
M  V30 3266 H 319.036 2.0115 2.5438 0
M  V30 3267 H 318.821 3.55133 1.66202 0
M  V30 3268 H 320.311 3.26096 2.60866 0
M  V30 3269 N 320.748 -0.0735177 1.57428 0
M  V30 3270 C 321.994 -0.774145 1.87443 0
M  V30 3271 C 322.327 -1.77311 0.792103 0
M  V30 3272 O 321.602 -1.93492 -0.197793 0
M  V30 3273 C 321.885 -1.48367 3.28115 0
M  V30 3274 C 321.738 -0.501227 4.46999 0
M  V30 3275 C 323.057 -2.429 3.66998 0
M  V30 3276 H 320.176 -0.279971 0.681752 0
M  V30 3277 H 322.818 -0.0373616 1.89963 0
M  V30 3278 H 320.968 -2.11171 3.26097 0
M  V30 3279 H 322.64 0.121468 4.6114 0
M  V30 3280 H 320.883 0.183593 4.33411 0
M  V30 3281 H 321.554 -1.03526 5.42205 0
M  V30 3282 H 324.03 -1.90175 3.70098 0
M  V30 3283 H 322.906 -2.89549 4.66318 0
M  V30 3284 H 323.167 -3.27628 2.96837 0
M  V30 3285 N 322.226 -1.5378 -0.344866 0
M  V30 3286 C 323.451 -1.75211 -1.10977 0
M  V30 3287 C 323.876 -0.48936 -1.81623 0
M  V30 3288 O 323.234 0.557925 -1.72502 0
M  V30 3289 C 323.282 -2.93147 -2.09993 0
M  V30 3290 O 322.386 -2.63203 -3.17487 0
M  V30 3291 H 321.727 -0.581241 -0.321021 0
M  V30 3292 H 324.257 -2.00738 -0.395661 0
M  V30 3293 H 324.267 -3.19898 -2.53237 0
M  V30 3294 H 322.942 -3.84731 -1.5797 0
M  V30 3295 H 321.519 -2.47336 -2.79069 0
M  V30 3296 N 323.704 0.605807 -1.45491 0
M  V30 3297 C 324.929 1.39625 -1.53361 0
M  V30 3298 C 325.354 1.87351 -0.167645 0
M  V30 3299 O 324.712 1.60243 0.848051 0
M  V30 3300 C 324.76 2.57559 -2.5238 0
M  V30 3301 O 323.864 3.58248 -2.04285 0
M  V30 3302 H 323.205 0.416771 -0.516912 0
M  V30 3303 H 325.735 0.737103 -1.90861 0
M  V30 3304 H 325.745 3.0478 -2.71244 0
M  V30 3305 H 324.42 2.22171 -3.51586 0
M  V30 3306 H 322.997 3.17664 -1.95305 0
M  V30 3307 N 325.182 1.32811 0.848464 0
M  V30 3308 C 326.429 1.23724 1.60308 0
M  V30 3309 C 326.757 -0.1994 1.93475 0
M  V30 3310 O 326.012 -1.15406 1.5805 0
M  V30 3311 C 326.311 2.04831 2.92881 0
M  V30 3312 C 325.977 3.54125 2.79117 0
M  V30 3313 C 324.639 3.94829 2.7507 0
M  V30 3314 C 326.991 4.49036 2.64606 0
M  V30 3315 C 324.319 5.28675 2.544 0
M  V30 3316 C 326.671 5.83033 2.4547 0
M  V30 3317 C 325.335 6.22931 2.39819 0
M  V30 3318 H 324.605 0.452737 0.586609 0
M  V30 3319 H 327.252 1.64301 0.983743 0
M  V30 3320 H 325.557 1.57001 3.58968 0
M  V30 3321 H 327.254 1.95164 3.50303 0
M  V30 3322 H 323.844 3.21801 2.83094 0
M  V30 3323 H 328.028 4.18505 2.66772 0
M  V30 3324 H 323.284 5.58637 2.48465 0
M  V30 3325 H 327.458 6.56186 2.33222 0
M  V30 3326 H 325.085 7.26584 2.23562 0
M  V30 3327 N 326.66 -1.06551 1.16123 0
M  V30 3328 C 327.89 -1.8274 0.963838 0
M  V30 3329 C 328.298 -1.82712 -0.491228 0
M  V30 3330 O 327.641 -1.24294 -1.35265 0
M  V30 3331 C 327.703 -3.3065 1.41106 0
M  V30 3332 C 327.367 -3.54384 2.88549 0
M  V30 3333 C 328.364 -3.4765 3.86569 0
M  V30 3334 C 326.049 -3.81789 3.26408 0
M  V30 3335 C 328.043 -3.67982 5.2045 0
M  V30 3336 C 325.73 -4.01772 4.60459 0
M  V30 3337 C 326.728 -3.94866 5.57288 0
M  V30 3338 O 326.416 -4.14306 6.88916 0
M  V30 3339 H 326.148 -0.583136 0.341948 0
M  V30 3340 H 328.702 -1.35351 1.54497 0
M  V30 3341 H 326.932 -3.78887 0.773394 0
M  V30 3342 H 328.621 -3.88324 1.1815 0
M  V30 3343 H 329.387 -3.2647 3.58667 0
M  V30 3344 H 325.266 -3.86276 2.51619 0
M  V30 3345 H 328.81 -3.62507 5.96015 0
M  V30 3346 H 324.707 -4.2244 4.88072 0
M  V30 3347 H 325.475 -4.31609 6.95454 0
M  V30 3348 N 328.138 -0.959301 -1.25041 0
M  V30 3349 C 329.068 -0.501388 -2.28053 0
M  V30 3350 C 330.049 0.454673 -1.63911 0
M  V30 3351 O 331.234 0.352618 -1.90972 0
M  V30 3352 C 328.364 0.217224 -3.4662 0
M  V30 3353 C 327.318 -0.654034 -4.22973 0
M  V30 3354 C 326.644 0.195589 -5.34342 0
M  V30 3355 C 327.944 -1.93447 -4.85155 0
M  V30 3356 H 329.638 -1.36238 -2.66608 0
M  V30 3357 H 327.184 -0.656534 -1.28163 0
M  V30 3358 H 329.137 0.548732 -4.17812 0
M  V30 3359 H 327.861 1.1125 -3.07068 0
M  V30 3360 H 326.52 -0.968693 -3.5357 0
M  V30 3361 H 326.168 1.09076 -4.91031 0
M  V30 3362 H 325.868 -0.384091 -5.86343 0
M  V30 3363 H 327.392 0.521958 -6.08365 0
M  V30 3364 H 328.806 -1.66908 -5.48466 0
M  V30 3365 H 327.203 -2.46018 -5.47353 0
M  V30 3366 H 328.273 -2.63466 -4.07079 0
M  V30 3367 N 329.616 1.39756 -0.72842 0
M  V30 3368 C 330.893 1.94574 -0.200079 0
M  V30 3369 C 331.273 1.66569 1.29684 0
M  V30 3370 O 330.621 0.990326 2.05924 0
M  V30 3371 C 330.831 3.45004 -0.526608 0
M  V30 3372 C 332.179 4.21965 -0.472318 0
M  V30 3373 O 333.203 3.53173 -0.463413 0
M  V30 3374 O 332.062 5.44552 -0.461075 0
M  V30 3375 H 329.156 0.826289 -0.0342851 0
M  V30 3376 H 331.702 1.49293 -0.806829 0
M  V30 3377 H 330.474 3.58796 -1.56144 0
M  V30 3378 H 330.097 3.97449 0.109449 0
M  V30 3379 N 331.094 0.475555 1.50254 0
M  V30 3380 C 332.343 -0.0795996 2.01543 0
M  V30 3381 C 332.656 -1.4038 1.36209 0
M  V30 3382 O 333.862 -2.04415 1.7868 0
M  V30 3383 C 332.318 -0.192363 3.59386 0
M  V30 3384 C 331.926 1.12367 4.33679 0
M  V30 3385 C 333.67 -0.699238 4.18701 0
M  V30 3386 C 331.577 0.974453 5.83317 0
M  V30 3387 H 330.507 -0.0335228 0.753254 0
M  V30 3388 H 333.158 0.611128 1.73025 0
M  V30 3389 H 331.54 -0.946974 3.84511 0
M  V30 3390 H 332.714 1.88958 4.20276 0
M  V30 3391 H 331.029 1.562 3.85993 0
M  V30 3392 H 333.626 -0.827978 5.28251 0
M  V30 3393 H 333.969 -1.69171 3.80377 0
M  V30 3394 H 334.502 -0.00188807 3.978 0
M  V30 3395 H 331.241 1.94042 6.26121 0
M  V30 3396 H 330.761 0.248998 5.99283 0
M  V30 3397 H 332.44 0.642867 6.43798 0
M  V30 3398 N 332.573 -1.56217 0.208337 0
M  V30 3399 C 333.505 -2.1695 -0.739276 0
M  V30 3400 C 334.518 -1.13492 -1.1672 0
M  V30 3401 O 335.707 -1.40529 -1.10063 0
M  V30 3402 C 332.807 -2.72755 -2.01142 0
M  V30 3403 C 331.98 -4.0125 -1.74118 0
M  V30 3404 C 331.039 -4.41749 -2.85909 0
M  V30 3405 O 330.065 -5.08912 -2.54946 0
M  V30 3406 N 331.267 -4.06342 -4.14568 0
M  V30 3407 H 334.032 -2.98893 -0.219837 0
M  V30 3408 H 331.593 -1.61878 0.0268445 0
M  V30 3409 H 333.585 -2.96826 -2.75094 0
M  V30 3410 H 332.155 -1.95191 -2.4417 0
M  V30 3411 H 331.375 -3.85173 -0.838775 0
M  V30 3412 H 332.663 -4.851 -1.53477 0
M  V30 3413 H 332.061 -3.52345 -4.42571 0
M  V30 3414 H 330.618 -4.35335 -4.85105 0
M  V30 3415 N 334.051 0.0651679 -1.57465 0
M  V30 3416 C 335.462 0.616213 -1.76238 0
M  V30 3417 C 335.813 1.7756 -0.834689 0
M  V30 3418 O 334.938 2.1639 -0.0204156 0
M  V30 3419 C 335.533 1.12462 -3.1959 0
M  V30 3420 C 334.092 1.62147 -3.39684 0
M  V30 3421 C 333.239 0.543739 -2.71917 0
M  V30 3422 H 336.19 -0.161022 -1.57881 0
M  V30 3423 H 336.211 1.99324 -3.24114 0
M  V30 3424 H 335.723 0.280592 -3.87084 0
M  V30 3425 H 333.824 2.48854 -2.77313 0
M  V30 3426 H 333.937 1.69385 -4.48158 0
M  V30 3427 H 332.301 0.990352 -2.34657 0
M  V30 3428 H 333.084 -0.290216 -3.42071 0
M  V30 3429 N 335.529 1.53961 0.336706 0
M  V30 3430 C 336.754 1.75797 1.10046 0
M  V30 3431 C 337.179 0.498985 1.81361 0
M  V30 3432 O 336.537 -0.548769 1.72795 0
M  V30 3433 C 336.585 2.94257 2.08436 0
M  V30 3434 O 335.689 2.64883 3.16087 0
M  V30 3435 H 335.03 0.582936 0.317934 0
M  V30 3436 H 337.56 2.00945 0.38501 0
M  V30 3437 H 337.57 3.21237 2.51537 0
M  V30 3438 H 336.245 3.85564 1.55927 0
M  V30 3439 H 334.822 2.48812 2.77753 0
M  V30 3440 N 337.007 -0.598083 1.45811 0
M  V30 3441 C 338.418 -1.18011 1.44673 0
M  V30 3442 C 338.769 -1.95378 0.179364 0
M  V30 3443 O 337.894 -2.04124 -0.718509 0
M  V30 3444 C 338.489 -2.14677 2.62105 0
M  V30 3445 C 337.048 -2.68236 2.64057 0
M  V30 3446 C 336.195 -1.43816 2.37091 0
M  V30 3447 H 339.146 -0.38686 1.53913 0
M  V30 3448 H 339.167 -2.97878 2.36746 0
M  V30 3449 H 338.679 -1.5834 3.5433 0
M  V30 3450 H 336.78 -3.28486 1.75864 0
M  V30 3451 H 336.893 -3.12021 3.63566 0
M  V30 3452 H 335.257 -1.731 1.86838 0
M  V30 3453 H 336.04 -0.893333 3.31473 0
M  V30 3454 N 338.485 -1.33259 -0.841409 0
M  V30 3455 C 339.762 -1.15174 -1.58096 0
M  V30 3456 C 340.142 0.282858 -2.09196 0
M  V30 3457 O 339.49 1.28151 -1.89181 0
M  V30 3458 C 339.7 -2.1907 -2.71679 0
M  V30 3459 C 341.048 -2.53093 -3.40924 0
M  V30 3460 O 342.072 -2.17717 -2.81918 0
M  V30 3461 O 340.931 -3.1379 -4.47435 0
M  V30 3462 H 338.025 -0.445303 -0.696875 0
M  V30 3463 H 340.571 -1.44833 -0.884385 0
M  V30 3464 H 339.343 -3.15443 -2.31541 0
M  V30 3465 H 338.966 -1.90481 -3.49002 0
M  V30 3466 N 339.963 1.05934 -1.16686 0
M  V30 3467 C 340.895 2.13468 -0.834503 0
M  V30 3468 C 341.908 1.62013 0.15984 0
M  V30 3469 O 343.097 1.7838 -0.0654228 0
M  V30 3470 C 340.197 3.3817 -0.222361 0
M  V30 3471 C 339.37 4.18928 -1.25771 0
M  V30 3472 C 338.429 5.21985 -0.664703 0
M  V30 3473 O 337.455 5.53334 -1.33453 0
M  V30 3474 N 338.657 5.77919 0.546834 0
M  V30 3475 H 341.422 2.42578 -1.75999 0
M  V30 3476 H 338.983 1.21967 -1.06469 0
M  V30 3477 H 340.975 4.04266 0.187472 0
M  V30 3478 H 339.545 3.06655 0.606758 0
M  V30 3479 H 338.765 3.48433 -1.84358 0
M  V30 3480 H 340.053 4.69687 -1.95631 0
M  V30 3481 H 339.451 5.54721 1.10912 0
M  V30 3482 H 338.008 6.45573 0.898829 0
M  V30 3483 N 341.441 0.965919 1.2453 0
M  V30 3484 C 342.666 0.643971 1.97149 0
M  V30 3485 C 343.091 -0.779487 1.71189 0
M  V30 3486 O 342.449 -1.5288 0.974553 0
M  V30 3487 C 342.497 0.922557 3.48599 0
M  V30 3488 O 341.601 0.00707672 4.12399 0
M  V30 3489 H 340.942 0.243647 0.617683 0
M  V30 3490 H 343.472 1.29558 1.58353 0
M  V30 3491 H 343.482 0.853373 3.98976 0
M  V30 3492 H 342.157 1.95996 3.66822 0
M  V30 3493 H 340.734 0.12943 3.72675 0
M  V30 3494 N 342.919 -1.39368 0.735821 0
M  V30 3495 C 344.167 -2.00101 0.283562 0
M  V30 3496 C 344.488 -1.5868 -1.13338 0
M  V30 3497 O 343.758 -0.835423 -1.77193 0
M  V30 3498 H 342.338 -0.740024 0.101851 0
M  V30 3499 H 345 -1.70404 0.945962 0
M  V30 3500 H 344.096 -3.10323 0.332604 0
M  V30 3501 N 344.397 -0.483516 -1.5 0
M  V30 3502 C 345.327 0.293829 -2.31644 0
M  V30 3503 C 346.308 0.978864 -1.39112 0
M  V30 3504 O 347.493 0.973644 -1.68029 0
M  V30 3505 C 344.623 1.36897 -3.19181 0
M  V30 3506 C 343.577 0.804833 -4.20365 0
M  V30 3507 C 342.903 1.9792 -4.96721 0
M  V30 3508 C 344.203 -0.192313 -5.21946 0
M  V30 3509 H 345.897 -0.387616 -2.9688 0
M  V30 3510 H 343.443 -0.187856 -1.42769 0
M  V30 3511 H 345.396 1.92037 -3.751 0
M  V30 3512 H 344.12 2.07936 -2.51853 0
M  V30 3513 H 342.779 0.275319 -3.65565 0
M  V30 3514 H 342.427 2.67686 -4.25856 0
M  V30 3515 H 342.127 1.60789 -5.65173 0
M  V30 3516 H 343.651 2.53526 -5.55479 0
M  V30 3517 H 345.065 0.270333 -5.72662 0
M  V30 3518 H 343.462 -0.478543 -5.98189 0
M  V30 3519 H 344.532 -1.11409 -4.71928 0
M  V30 3520 N 345.875 1.56104 -0.216619 0
M  V30 3521 C 347.152 1.89988 0.465165 0
M  V30 3522 C 347.532 1.13326 1.78102 0
M  V30 3523 O 346.88 0.241033 2.27225 0
M  V30 3524 C 347.09 3.42646 0.662939 0
M  V30 3525 C 348.438 4.13311 0.972602 0
M  V30 3526 O 349.462 3.48217 0.749901 0
M  V30 3527 O 348.321 5.28396 1.39499 0
M  V30 3528 H 345.415 0.78979 0.245276 0
M  V30 3529 H 347.961 1.67721 -0.258436 0
M  V30 3530 H 346.733 3.90399 -0.26543 0
M  V30 3531 H 346.356 3.70677 1.43821 0
M  V30 3532 N 347.353 -0.0568162 1.57498 0
M  V30 3533 C 348.602 -0.752001 1.87157 0
M  V30 3534 C 348.915 -1.77978 0.811375 0
M  V30 3535 O 350.121 -2.52559 0.996293 0
M  V30 3536 C 348.577 -1.38844 3.3204 0
M  V30 3537 C 348.185 -0.398456 4.46225 0
M  V30 3538 C 349.929 -2.06512 3.70882 0
M  V30 3539 C 347.836 -1.04166 5.82154 0
M  V30 3540 H 346.766 -0.28461 0.698222 0
M  V30 3541 H 349.417 -0.00561272 1.83499 0
M  V30 3542 H 347.799 -2.1836 3.30356 0
M  V30 3543 H 348.973 0.367977 4.59328 0
M  V30 3544 H 347.288 0.174592 4.16034 0
M  V30 3545 H 349.885 -2.55437 4.6974 0
M  V30 3546 H 350.228 -2.87117 3.01445 0
M  V30 3547 H 350.761 -1.33808 3.7462 0
M  V30 3548 H 347.5 -0.275614 6.5492 0
M  V30 3549 H 347.02 -1.7786 5.72823 0
M  V30 3550 H 348.699 -1.55715 6.27982 0
M  V30 3551 N 348.832 -1.54138 -0.328536 0
M  V30 3552 C 349.78 -1.83894 -1.42428 0
M  V30 3553 C 350.774 -0.710478 -1.53781 0
M  V30 3554 O 351.98 -0.894062 -1.56226 0
M  V30 3555 H 348.355 -0.582837 -0.475189 0
M  V30 3556 H 350.326 -2.75537 -1.14552 0
M  V30 3557 C 349.075 -2.07866 -2.78724 0
M  V30 3558 H 348.398 -2.94158 -2.7076 0
M  V30 3559 H 349.838 -2.32644 -3.54476 0
M  V30 3560 C 348.297 -0.868689 -3.25508 0
M  V30 3561 O 348.827 -0.0754908 -4.01629 0
M  V30 3562 N 347.033 -0.681711 -2.82491 0
M  V30 3563 H 346.58 -1.32838 -2.20708 0
M  V30 3564 H 346.538 0.126374 -3.14146 0
M  V30 3565 N 350.31 0.590341 -1.46126 0
M  V30 3566 C 351.558 1.34616 -1.50742 0
M  V30 3567 C 351.879 1.94363 -0.157486 0
M  V30 3568 O 351.149 1.78136 0.815136 0
M  V30 3569 H 349.729 0.499789 -0.555175 0
M  V30 3570 H 352.391 0.691953 -1.82203 0
M  V30 3571 H 351.487 2.15678 -2.25587 0
M  V30 3572 N 351.788 1.33704 0.83433 0
M  V30 3573 C 353.037 1.24763 1.58484 0
M  V30 3574 C 353.35 -0.183775 1.94735 0
M  V30 3575 O 354.556 -0.395234 2.68608 0
M  V30 3576 C 353.012 2.18638 2.85876 0
M  V30 3577 C 352.62 3.66974 2.56971 0
M  V30 3578 C 354.364 2.18581 3.63899 0
M  V30 3579 C 352.271 4.5275 3.80488 0
M  V30 3580 H 351.201 0.463425 0.594772 0
M  V30 3581 H 353.852 1.58797 0.919551 0
M  V30 3582 H 352.234 1.77542 3.5397 0
M  V30 3583 H 353.408 4.16538 1.9706 0
M  V30 3584 H 351.723 3.69366 1.92244 0
M  V30 3585 H 354.32 2.79894 4.55591 0
M  V30 3586 H 354.663 1.18207 3.99165 0
M  V30 3587 H 355.196 2.58062 3.02735 0
M  V30 3588 H 351.935 5.54017 3.5035 0
M  V30 3589 H 351.455 4.07927 4.39722 0
M  V30 3590 H 353.134 4.66784 4.4802 0
M  V30 3591 N 353.266 -1.05314 1.17247 0
M  V30 3592 C 354.213 -2.13031 0.888058 0
M  V30 3593 C 355.183 -1.65253 -0.167537 0
M  V30 3594 O 356.368 -1.90775 -0.0305974 0
M  V30 3595 C 353.508 -3.42702 0.406147 0
M  V30 3596 C 352.621 -4.04161 1.52572 0
M  V30 3597 C 351.756 -5.21744 0.997808 0
M  V30 3598 C 350.795 -5.75207 2.09291 0
M  V30 3599 N 349.932 -6.84094 1.57986 0
M  V30 3600 H 354.772 -2.36698 1.81048 0
M  V30 3601 H 352.309 -1.16121 0.903013 0
M  V30 3602 H 354.267 -4.17059 0.108305 0
M  V30 3603 H 352.897 -3.19222 -0.479313 0
M  V30 3604 H 351.949 -3.27253 1.93931 0
M  V30 3605 H 353.261 -4.39881 2.35172 0
M  V30 3606 H 352.415 -6.03168 0.653739 0
M  V30 3607 H 351.154 -4.87495 0.141232 0
M  V30 3608 H 350.159 -4.92414 2.44557 0
M  V30 3609 H 351.384 -6.11505 2.95362 0
M  V30 3610 H 349.33 -6.51745 0.74598 0
M  V30 3611 H 349.247 -7.18811 2.34195 0
M  V30 3612 H 350.515 -7.69172 1.26468 0
M  V30 3613 N 354.744 -0.972509 -1.24016 0
M  V30 3614 C 356.155 -0.67517 -1.74064 0
M  V30 3615 C 356.506 0.808939 -1.78747 0
M  V30 3616 O 355.631 1.63286 -1.42009 0
M  V30 3617 C 356.226 -1.21889 -3.16115 0
M  V30 3618 C 354.785 -0.971358 -3.6365 0
M  V30 3619 C 353.932 -1.35134 -2.42145 0
M  V30 3620 H 356.883 -1.14727 -1.09651 0
M  V30 3621 H 356.904 -0.587489 -3.75937 0
M  V30 3622 H 356.416 -2.29906 -3.12674 0
M  V30 3623 H 354.517 0.0930686 -3.72484 0
M  V30 3624 H 354.63 -1.62039 -4.50866 0
M  V30 3625 H 352.994 -0.769751 -2.4279 0
M  V30 3626 H 353.777 -2.4411 -2.41381 0
M  V30 3627 N 356.222 1.38976 -0.743202 0
M  V30 3628 C 357.132 2.3434 -0.110399 0
M  V30 3629 C 358.148 1.58741 0.712559 0
M  V30 3630 O 359.324 1.9099 0.639125 0
M  V30 3631 C 356.389 3.37812 0.780012 0
M  V30 3632 C 355.45 4.29263 -0.0561319 0
M  V30 3633 C 354.683 5.27793 0.791875 0
M  V30 3634 O 354.906 5.33043 2.03031 0
M  V30 3635 O 353.84 6.01512 0.216183 0
M  V30 3636 H 357.666 2.90129 -0.897714 0
M  V30 3637 H 355.251 1.40643 -0.503966 0
M  V30 3638 H 357.133 4.01194 1.28923 0
M  V30 3639 H 355.808 2.84395 1.546 0
M  V30 3640 H 354.715 3.69076 -0.611056 0
M  V30 3641 H 356.048 4.85907 -0.784531 0
M  V30 3642 N 357.7 0.491464 1.49741 0
M  V30 3643 C 359.111 0.0413169 1.86654 0
M  V30 3644 C 359.462 -1.36985 1.40462 0
M  V30 3645 O 358.587 -2.01917 0.778354 0
M  V30 3646 C 359.182 0.0682023 3.38731 0
M  V30 3647 C 357.741 -0.32656 3.74981 0
M  V30 3648 C 356.888 0.444888 2.73708 0
M  V30 3649 H 359.839 0.704733 1.42194 0
M  V30 3650 H 359.86 -0.729322 3.73445 0
M  V30 3651 H 359.372 1.09539 3.72321 0
M  V30 3652 H 357.473 -1.35734 3.46997 0
M  V30 3653 H 357.586 -0.013741 4.79098 0
M  V30 3654 H 355.95 -0.104062 2.54487 0
M  V30 3655 H 356.733 1.47197 3.10142 0
M  V30 3656 N 359.178 -1.55987 0.224894 0
M  V30 3657 C 360.427 -1.97566 -0.406273 0
M  V30 3658 C 360.74 -1.11569 -1.6066 0
M  V30 3659 O 361.946 -1.43062 -2.3075 0
M  V30 3660 C 360.402 -3.51474 -0.774207 0
M  V30 3661 C 360.01 -4.46179 0.403496 0
M  V30 3662 C 361.754 -4.01758 -1.37079 0
M  V30 3663 C 359.661 -5.91399 0.0129412 0
M  V30 3664 H 358.591 -0.737777 -0.155565 0
M  V30 3665 H 361.242 -1.80659 0.321635 0
M  V30 3666 H 359.624 -3.63994 -1.55963 0
M  V30 3667 H 360.798 -4.45409 1.18101 0
M  V30 3668 H 359.113 -4.06255 0.913536 0
M  V30 3669 H 361.71 -5.07756 -1.67596 0
M  V30 3670 H 362.053 -3.47805 -2.28773 0
M  V30 3671 H 362.586 -3.92475 -0.648733 0
M  V30 3672 H 359.325 -6.49341 0.896451 0
M  V30 3673 H 358.845 -5.95356 -0.728821 0
M  V30 3674 H 360.524 -6.45683 -0.412582 0
M  V30 3675 N 360.656 0.0484629 -1.57525 0
M  V30 3676 C 361.896 0.748196 -1.90214 0
M  V30 3677 C 362.26 1.73545 -0.821347 0
M  V30 3678 O 363.461 2.48201 -1.03198 0
M  V30 3679 C 361.732 1.41727 -3.28098 0
M  V30 3680 S 363.291 2.14884 -3.82584 0
M  V30 3681 H 360.109 0.248307 -0.666232 0
M  V30 3682 H 362.711 0.00343188 -1.955 0
M  V30 3683 H 361.415 0.685244 -4.04639 0
M  V30 3684 H 360.946 2.20099 -3.26068 0
M  V30 3685 H 362.961 3.41755 -3.59747 0
M  V30 3686 N 362.134 1.5431 0.320358 0
M  V30 3687 C 363.411 1.63322 1.07635 0
M  V30 3688 C 363.791 0.46912 2.05821 0
M  V30 3689 O 363.139 -0.536274 2.22118 0
M  V30 3690 C 363.349 3.00465 1.77544 0
M  V30 3691 C 364.697 3.56621 2.30449 0
M  V30 3692 O 365.721 3.02791 1.87606 0
M  V30 3693 O 364.58 4.5083 3.08892 0
M  V30 3694 H 361.674 0.661502 0.496331 0
M  V30 3695 H 364.22 1.66656 0.319992 0
M  V30 3696 H 362.992 3.76629 1.06143 0
M  V30 3697 H 362.615 3.00824 2.59982 0
M  V30 3698 N 363.613 -0.582584 1.46437 0
M  V30 3699 C 364.843 -1.36484 1.55099 0
M  V30 3700 C 365.251 -1.88233 0.191056 0
M  V30 3701 O 364.594 -1.6429 -0.821858 0
M  V30 3702 C 364.656 -2.588 2.49525 0
M  V30 3703 C 364.32 -2.28517 3.95764 0
M  V30 3704 C 365.317 -1.87346 4.84972 0
M  V30 3705 C 363.002 -2.40658 4.40896 0
M  V30 3706 C 364.996 -1.5871 6.17325 0
M  V30 3707 C 362.683 -2.11635 5.73284 0
M  V30 3708 C 363.681 -1.70725 6.61318 0
M  V30 3709 O 363.369 -1.42057 7.91249 0
M  V30 3710 H 363.101 -0.423297 0.527063 0
M  V30 3711 H 365.655 -0.715188 1.92547 0
M  V30 3712 H 363.885 -3.26571 2.07095 0
M  V30 3713 H 365.574 -3.20868 2.48593 0
M  V30 3714 H 366.34 -1.77481 4.5136 0
M  V30 3715 H 362.219 -2.71463 3.72598 0
M  V30 3716 H 365.763 -1.26704 6.85997 0
M  V30 3717 H 361.66 -2.21124 6.06444 0
M  V30 3718 H 362.428 -1.55901 8.03515 0
M  V30 3719 N 365.091 -1.34144 -0.827227 0
M  V30 3720 C 366.319 -1.29325 -1.61501 0
M  V30 3721 C 366.734 0.13354 -1.88327 0
M  V30 3722 O 366.091 1.0793 -1.47164 0
M  V30 3723 C 366.142 -2.07746 -2.95844 0
M  V30 3724 O 365.863 -3.4486 -2.70191 0
M  V30 3725 C 367.364 -2.10273 -3.90256 0
M  V30 3726 H 364.584 -0.445069 -0.50215 0
M  V30 3727 H 367.128 -1.76693 -1.02955 0
M  V30 3728 H 365.283 -1.6403 -3.5096 0
M  V30 3729 H 365.697 -3.85345 -3.55822 0
M  V30 3730 H 367.171 -2.69575 -4.81698 0
M  V30 3731 H 367.648 -1.096 -4.25305 0
M  V30 3732 H 368.254 -2.54059 -3.41078 0
M  V30 3733 N 366.569 1.04691 -1.17803 0
M  V30 3734 C 367.98 1.59238 -0.974689 0
M  V30 3735 C 368.331 1.90306 0.477292 0
M  V30 3736 O 367.456 1.68846 1.35352 0
M  V30 3737 C 368.051 2.89318 -1.76296 0
M  V30 3738 C 366.61 3.40506 -1.60414 0
M  V30 3739 C 365.757 2.14172 -1.76141 0
M  V30 3740 H 368.708 0.874395 -1.32439 0
M  V30 3741 H 368.729 3.5944 -1.24833 0
M  V30 3742 H 368.241 2.66675 -2.81968 0
M  V30 3743 H 366.342 3.68175 -0.572519 0
M  V30 3744 H 366.455 4.14753 -2.39827 0
M  V30 3745 H 364.819 2.25176 -1.19028 0
M  V30 3746 H 365.602 1.93992 -2.83235 0
M  V30 3747 N 368.047 0.979072 1.23499 0
M  V30 3748 C 369.01 0.523244 2.23147 0
M  V30 3749 C 370.01 -0.386406 1.56088 0
M  V30 3750 O 371.2 -0.180283 1.73265 0
M  V30 3751 C 368.332 -0.240739 3.40049 0
M  V30 3752 H 369.525 1.40432 2.64989 0
M  V30 3753 H 367.078 0.764824 1.36309 0
M  V30 3754 H 367.813 -1.13841 3.03662 0
M  V30 3755 H 367.598 0.412207 3.89927 0
M  V30 3756 H 369.088 -0.548297 4.13985 0
M  V30 3757 N 369.525 -1.3858 0.750561 0
M  V30 3758 C 370.75 -2.04997 0.314812 0
M  V30 3759 C 371.175 -1.56235 -1.04749 0
M  V30 3760 O 370.533 -0.712981 -1.66692 0
M  V30 3761 C 370.581 -3.58961 0.343415 0
M  V30 3762 O 369.685 -4.07025 -0.663628 0
M  V30 3763 H 369.026 -0.649081 0.139962 0
M  V30 3764 H 371.556 -1.77313 1.02084 0
M  V30 3765 H 371.566 -4.07542 0.193233 0
M  V30 3766 H 370.241 -3.93811 1.33738 0
M  V30 3767 H 368.818 -3.6982 -0.478307 0
M  V30 3768 N 371.003 -0.499398 -1.49478 0
M  V30 3769 C 372.251 0.0455996 -2.02049 0
M  V30 3770 C 372.572 1.37633 -1.38138 0
M  V30 3771 O 371.842 1.8842 -0.536166 0
M  V30 3772 H 370.422 0.0198416 -0.746736 0
M  V30 3773 H 373.084 -0.656274 -1.83519 0
M  V30 3774 H 372.18 0.176445 -3.11601 0
M  V30 3775 N 372.481 1.55866 -0.233164 0
M  V30 3776 C 373.728 1.98603 0.395374 0
M  V30 3777 C 374.056 1.12105 1.58942 0
M  V30 3778 O 373.311 0.168656 1.94972 0
M  V30 3779 C 373.61 3.46856 0.861724 0
M  V30 3780 C 373.276 4.50348 -0.223066 0
M  V30 3781 C 371.938 4.78371 -0.521038 0
M  V30 3782 C 374.29 5.12355 -0.956124 0
M  V30 3783 C 371.618 5.6568 -1.55638 0
M  V30 3784 C 373.97 6.00786 -1.98089 0
M  V30 3785 C 372.634 6.27148 -2.28565 0
M  V30 3786 H 371.904 0.726739 0.144677 0
M  V30 3787 H 374.551 1.88491 -0.338114 0
M  V30 3788 H 372.856 3.5423 1.67418 0
M  V30 3789 H 374.553 3.77302 1.35809 0
M  V30 3790 H 371.143 4.28596 0.0193234 0
M  V30 3791 H 375.327 4.90765 -0.739166 0
M  V30 3792 H 370.583 5.84365 -1.798 0
M  V30 3793 H 374.757 6.4788 -2.55391 0
M  V30 3794 H 372.384 6.94597 -3.08932 0
M  V30 3795 N 373.959 -0.0401083 1.57549 0
M  V30 3796 C 375.206 -0.733125 1.88763 0
M  V30 3797 C 375.534 -1.75946 0.829058 0
M  V30 3798 O 374.789 -1.94949 -0.171323 0
M  V30 3799 C 375.088 -1.44902 3.26708 0
M  V30 3800 C 374.754 -0.559707 4.47413 0
M  V30 3801 C 373.416 -0.314731 4.8017 0
M  V30 3802 C 375.768 0.0549743 5.21171 0
M  V30 3803 C 373.096 0.553886 5.8408 0
M  V30 3804 C 375.448 0.911229 6.26003 0
M  V30 3805 C 374.112 1.16577 6.57241 0
M  V30 3806 H 373.382 -0.268269 0.690733 0
M  V30 3807 H 376.029 0.00679408 1.91499 0
M  V30 3808 H 374.334 -2.26197 3.1991 0
M  V30 3809 H 376.031 -1.99058 3.48105 0
M  V30 3810 H 372.621 -0.760793 4.21794 0
M  V30 3811 H 376.805 -0.121344 4.96152 0
M  V30 3812 H 372.061 0.759518 6.06664 0
M  V30 3813 H 376.235 1.3941 6.82303 0
M  V30 3814 H 373.862 1.84058 7.37582 0
M  V30 3815 N 375.437 -1.54477 -0.31217 0
M  V30 3816 C 376.848 -1.64344 -0.885891 0
M  V30 3817 C 377.199 -0.54485 -1.88483 0
M  V30 3818 O 376.324 0.320387 -2.14015 0
M  V30 3819 C 376.919 -2.97908 -1.61357 0
M  V30 3820 C 375.478 -3.09933 -2.13585 0
M  V30 3821 C 374.625 -2.59971 -0.964897 0
M  V30 3822 H 377.576 -1.58448 -0.0894528 0
M  V30 3823 H 377.597 -2.88706 -2.47848 0
M  V30 3824 H 377.109 -3.77845 -0.886277 0
M  V30 3825 H 375.21 -2.34694 -2.89395 0
M  V30 3826 H 375.323 -4.15916 -2.37804 0
M  V30 3827 H 373.687 -2.16147 -1.34731 0
M  V30 3828 H 374.47 -3.42376 -0.251742 0
M  V30 3829 N 376.915 0.57481 -1.46744 0
M  V30 3830 C 378.145 1.35659 -1.55821 0
M  V30 3831 C 378.553 1.88129 -0.201036 0
M  V30 3832 O 377.896 1.64723 0.813134 0
M  V30 3833 C 377.958 2.57473 -2.50894 0
M  V30 3834 C 377.622 2.26415 -3.9697 0
M  V30 3835 C 378.619 1.84771 -4.85958 0
M  V30 3836 C 376.304 2.38316 -4.42166 0
M  V30 3837 C 378.298 1.55434 -6.18158 0
M  V30 3838 C 375.985 2.08591 -5.74398 0
M  V30 3839 C 376.983 1.67216 -6.62214 0
M  V30 3840 O 376.671 1.37859 -7.91991 0
M  V30 3841 H 376.403 0.420496 -0.529301 0
M  V30 3842 H 378.957 0.704967 -1.92923 0
M  V30 3843 H 377.187 3.25468 -2.08824 0
M  V30 3844 H 378.876 3.19546 -2.50291 0
M  V30 3845 H 379.642 1.75085 -4.52295 0
M  V30 3846 H 375.521 2.69483 -3.74032 0
M  V30 3847 H 379.065 1.23065 -6.86659 0
M  V30 3848 H 374.962 2.17905 -6.07608 0
M  V30 3849 H 375.73 1.51638 -8.04331 0
M  V30 3850 N 378.394 1.34581 0.820102 0
M  V30 3851 C 379.634 1.28448 1.58998 0
M  V30 3852 C 379.998 -0.142883 1.91468 0
M  V30 3853 O 381.199 -0.328422 2.66786 0
M  V30 3854 C 379.47 2.153 2.85273 0
M  V30 3855 S 381.029 2.26548 3.75794 0
M  V30 3856 H 377.847 0.456685 0.54494 0
M  V30 3857 H 380.449 1.69825 0.968487 0
M  V30 3858 H 379.153 3.18008 2.59421 0
M  V30 3859 H 378.684 1.7483 3.52417 0
M  V30 3860 H 380.699 1.44034 4.74835 0
M  V30 3861 N 379.872 -1.04064 1.18357 0
M  V30 3862 C 381.097 -1.81454 1.00445 0
M  V30 3863 C 381.522 -1.82823 -0.442423 0
M  V30 3864 O 380.88 -1.24555 -1.31741 0
M  V30 3865 C 380.928 -3.24925 1.56384 0
M  V30 3866 O 380.032 -4.04856 0.785209 0
M  V30 3867 H 379.373 -0.560604 0.355835 0
M  V30 3868 H 381.903 -1.31059 1.57114 0
M  V30 3869 H 381.913 -3.75702 1.59097 0
M  V30 3870 H 380.588 -3.23244 2.61699 0
M  V30 3871 H 379.165 -3.63537 0.830399 0
M  V30 3872 N 381.35 -0.985608 -1.22978 0
M  V30 3873 C 382.597 -0.657386 -1.91532 0
M  V30 3874 C 382.925 0.809707 -1.76845 0
M  V30 3875 O 382.18 1.60021 -1.12658 0
M  V30 3876 C 382.479 -1.00014 -3.43121 0
M  V30 3877 C 382.145 -2.4583 -3.77993 0
M  V30 3878 C 380.807 -2.85679 -3.87222 0
M  V30 3879 C 383.159 -3.40378 -3.94705 0
M  V30 3880 C 380.487 -4.19081 -4.10595 0
M  V30 3881 C 382.839 -4.73429 -4.1958 0
M  V30 3882 C 381.503 -5.1303 -4.27032 0
M  V30 3883 H 380.773 -0.240555 -0.700867 0
M  V30 3884 H 383.42 -1.24044 -1.45895 0
M  V30 3885 H 381.725 -0.335072 -3.90365 0
M  V30 3886 H 383.422 -0.724322 -3.94404 0
M  V30 3887 H 380.012 -2.13939 -3.71387 0
M  V30 3888 H 384.196 -3.10766 -3.8696 0
M  V30 3889 H 379.452 -4.49362 -4.14589 0
M  V30 3890 H 383.626 -5.46644 -4.31455 0
M  V30 3891 H 381.253 -6.16418 -4.44896 0
M  V30 3892 N 382.828 1.3818 -0.7579 0
M  V30 3893 C 384.056 2.04301 -0.326937 0
M  V30 3894 C 384.471 1.57163 1.0462 0
M  V30 3895 O 383.828 0.746626 1.66529 0
M  V30 3896 C 383.879 3.59846 -0.345363 0
M  V30 3897 O 383.6 4.05256 -1.66432 0
M  V30 3898 C 385.101 4.4319 0.098927 0
M  V30 3899 H 382.321 0.656443 -0.139012 0
M  V30 3900 H 384.865 1.76786 -1.02796 0
M  V30 3901 H 383.02 3.86182 0.306955 0
M  V30 3902 H 383.434 4.99709 -1.59345 0
M  V30 3903 H 384.908 5.51989 0.0348745 0
M  V30 3904 H 385.385 4.23947 1.14741 0
M  V30 3905 H 385.991 4.22051 -0.52468 0
M  V30 3906 N 384.306 0.507319 1.49211 0
M  V30 3907 C 385.254 -0.281364 2.30892 0
M  V30 3908 C 386.248 -0.95687 1.39787 0
M  V30 3909 O 387.454 -0.883838 1.56807 0
M  V30 3910 H 383.829 -0.109597 0.743971 0
M  V30 3911 H 385.8 0.42744 2.95323 0
M  V30 3912 C 384.549 -1.32918 3.21291 0
M  V30 3913 H 383.872 -0.818799 3.91326 0
M  V30 3914 H 385.312 -1.85288 3.81372 0
M  V30 3915 C 383.771 -2.35074 2.41333 0
M  V30 3916 O 384.301 -3.4108 2.12197 0
M  V30 3917 N 382.507 -2.07705 2.03241 0
M  V30 3918 H 382.054 -1.2152 2.27136 0
M  V30 3919 H 382.012 -2.76283 1.50051 0
M  V30 3920 N 385.784 -1.5574 0.241426 0
M  V30 3921 C 387.032 -1.98417 -0.384075 0
M  V30 3922 C 387.353 -1.13078 -1.58866 0
M  V30 3923 O 386.623 -0.212312 -1.94746 0
M  V30 3924 H 385.203 -0.732813 -0.144894 0
M  V30 3925 H 387.865 -1.9193 0.338943 0
M  V30 3926 H 386.961 -3.04219 -0.696939 0
M  V30 3927 N 387.262 0.0317525 -1.57568 0
M  V30 3928 C 388.172 1.05021 -2.0978 0
M  V30 3929 C 389.188 1.39809 -1.03583 0
M  V30 3930 O 390.364 1.49182 -1.35302 0
M  V30 3931 C 387.429 2.33301 -2.56459 0
M  V30 3932 C 386.49 2.0512 -3.77127 0
M  V30 3933 C 385.723 3.27283 -4.2157 0
M  V30 3934 O 385.946 4.37861 -3.65559 0
M  V30 3935 O 384.88 3.13141 -5.14029 0
M  V30 3936 H 388.706 0.636505 -2.96955 0
M  V30 3937 H 386.291 0.248559 -1.47318 0
M  V30 3938 H 388.173 3.08722 -2.86825 0
M  V30 3939 H 386.848 2.73973 -1.72397 0
M  V30 3940 H 385.755 1.27276 -3.51784 0
M  V30 3941 H 387.088 1.69305 -4.62165 0
M  V30 3942 N 388.74 1.54641 0.303973 0
M  V30 3943 C 389.968 1.77768 1.05858 0
M  V30 3944 C 390.383 0.535722 1.8104 0
M  V30 3945 O 389.74 -0.494337 1.75677 0
M  V30 3946 C 389.791 2.9834 2.04146 0
M  V30 3947 O 389.512 4.17736 1.32015 0
M  V30 3948 C 391.013 3.33832 2.91669 0
M  V30 3949 H 388.233 0.592961 0.314067 0
M  V30 3950 H 390.777 2.01583 0.344149 0
M  V30 3951 H 388.932 2.76742 2.71096 0
M  V30 3952 H 389.346 4.85693 1.97998 0
M  V30 3953 H 390.82 4.21448 3.56491 0
M  V30 3954 H 391.297 2.51857 3.59812 0
M  V30 3955 H 391.903 3.57579 2.30254 0
M  V30 3956 N 390.218 -0.567019 1.47046 0
M  V30 3957 C 391.443 -1.3551 1.57009 0
M  V30 3958 C 391.868 -1.86841 0.217259 0
M  V30 3959 O 391.226 -1.62435 -0.805268 0
M  V30 3960 C 391.274 -2.50777 2.5912 0
M  V30 3961 O 390.378 -3.52706 2.13711 0
M  V30 3962 H 389.719 -0.402919 0.52778 0
M  V30 3963 H 392.249 -0.686241 1.92748 0
M  V30 3964 H 392.259 -2.97481 2.79229 0
M  V30 3965 H 390.934 -2.12771 3.57353 0
M  V30 3966 H 389.511 -3.12374 2.03659 0
M  V30 3967 N 391.696 -1.35014 -0.812953 0
M  V30 3968 C 393.107 -1.25035 -1.38648 0
M  V30 3969 C 393.458 0.119967 -1.95833 0
M  V30 3970 O 392.583 1.02069 -1.90816 0
M  V30 3971 C 393.178 -2.26394 -2.52054 0
M  V30 3972 C 391.737 -2.20175 -3.05287 0
M  V30 3973 C 390.884 -2.12451 -1.78213 0
M  V30 3974 H 393.835 -1.46235 -0.616516 0
M  V30 3975 H 393.856 -1.88672 -3.30429 0
M  V30 3976 H 393.368 -3.26116 -2.10404 0
M  V30 3977 H 391.469 -1.23841 -3.51417 0
M  V30 3978 H 391.582 -3.11863 -3.63701 0
M  V30 3979 H 389.946 -1.58328 -1.9951 0
M  V30 3980 H 390.729 -3.14024 -1.38723 0
M  V30 3981 N 393.175 1.03435 -1.18907 0
M  V30 3982 C 394.403 1.80381 -1.01342 0
M  V30 3983 C 394.818 1.83649 0.438005 0
M  V30 3984 O 394.175 1.27655 1.30424 0
M  V30 3985 C 394.226 3.25689 -1.56873 0
M  V30 3986 O 393.947 3.22673 -2.96334 0
M  V30 3987 C 395.448 4.19255 -1.44014 0
M  V30 3988 H 392.668 0.56784 -0.35749 0
M  V30 3989 H 395.212 1.30317 -1.576 0
M  V30 3990 H 393.367 3.72962 -1.04777 0
M  V30 3991 H 393.781 4.13748 -3.22355 0
M  V30 3992 H 395.255 5.19123 -1.87657 0
M  V30 3993 H 395.732 4.37467 -0.389815 0
M  V30 3994 H 396.338 3.77851 -1.95214 0
M  V30 3995 N 394.653 0.992116 1.22453 0
M  V30 3996 C 395.899 0.668523 1.91464 0
M  V30 3997 C 396.232 -0.797313 1.77078 0
M  V30 3998 O 395.507 -1.5765 1.13916 0
M  V30 3999 C 395.79 1.07424 3.43703 0
M  V30 4000 C 395.643 2.59857 3.67143 0
M  V30 4001 C 396.962 0.626891 4.35612 0
M  V30 4002 H 394.081 0.244341 0.695318 0
M  V30 4003 H 396.723 1.2355 1.44345 0
M  V30 4004 H 394.873 0.591816 3.83966 0
M  V30 4005 H 396.545 3.15764 3.3629 0
M  V30 4006 H 394.788 3.01961 3.11451 0
M  V30 4007 H 395.459 2.83296 4.73759 0
M  V30 4008 H 397.935 1.04125 4.02861 0
M  V30 4009 H 396.811 0.939076 5.40807 0
M  V30 4010 H 397.072 -0.472457 4.39568 0
M  V30 4011 N 396.131 -1.37776 0.765217 0
M  V30 4012 C 397.356 -2.04651 0.336537 0
M  V30 4013 C 397.781 -1.57337 -1.03086 0
M  V30 4014 O 397.139 -0.730621 -1.65927 0
M  V30 4015 C 397.187 -3.58577 0.381468 0
M  V30 4016 O 396.291 -4.07706 -0.62042 0
M  V30 4017 H 395.632 -0.64756 0.146838 0
M  V30 4018 H 398.162 -1.76221 1.03959 0
M  V30 4019 H 398.172 -4.07314 0.236448 0
M  V30 4020 H 396.847 -3.9237 1.37907 0
M  V30 4021 H 395.424 -3.70306 -0.439056 0
M  V30 4022 N 397.609 -0.515225 -1.4894 0
M  V30 4023 C 398.542 0.302518 -2.26186 0
M  V30 4024 C 399.52 0.957895 -1.31389 0
M  V30 4025 O 400.704 0.985198 -1.60705 0
M  V30 4026 C 397.831 1.42719 -3.07163 0
M  V30 4027 C 396.877 0.884736 -4.17223 0
M  V30 4028 S 397.71 -0.235767 -5.34981 0
M  V30 4029 C 398.866 0.891731 -6.19515 0
M  V30 4030 H 399.099 -0.353076 -2.95196 0
M  V30 4031 H 396.632 -0.300753 -1.51443 0
M  V30 4032 H 398.59 2.07152 -3.54398 0
M  V30 4033 H 397.251 2.05445 -2.37595 0
M  V30 4034 H 396.444 1.72801 -4.73451 0
M  V30 4035 H 396.046 0.317362 -3.72651 0
M  V30 4036 H 398.338 1.79377 -6.53322 0
M  V30 4037 H 399.281 0.367751 -7.07144 0
M  V30 4038 H 399.689 1.16548 -5.52338 0
M  V30 4039 N 399.087 1.5561 -0.249682 0
M  V30 4040 C 400.05 2.20217 0.635394 0
M  V30 4041 C 401.05 1.17227 1.10066 0
M  V30 4042 O 402.24 1.42292 1.00492 0
M  V30 4043 C 399.372 2.84794 1.87363 0
M  V30 4044 H 400.565 2.99814 0.0716752 0
M  V30 4045 H 398.118 1.563 -0.000153234 0
M  V30 4046 H 398.853 2.09142 2.47851 0
M  V30 4047 H 398.638 3.60241 1.5482 0
M  V30 4048 H 400.128 3.3423 2.5036 0
M  V30 4049 N 400.565 -0.0233959 1.57583 0
M  V30 4050 C 401.475 -1.03907 2.10334 0
M  V30 4051 C 402.491 -1.39257 1.04323 0
M  V30 4052 O 403.667 -1.48462 1.36091 0
M  V30 4053 C 400.732 -2.31938 2.57693 0
M  V30 4054 C 399.793 -2.03117 3.78209 0
M  V30 4055 C 399.026 -3.25043 4.233 0
M  V30 4056 O 399.249 -4.35916 3.67876 0
M  V30 4057 O 398.183 -3.10411 5.15683 0
M  V30 4058 H 402.009 -0.620748 2.97288 0
M  V30 4059 H 399.594 -0.240743 1.47448 0
M  V30 4060 H 401.476 -3.07196 2.88458 0
M  V30 4061 H 400.151 -2.73055 1.73847 0
M  V30 4062 H 399.058 -1.25408 3.52454 0
M  V30 4063 H 400.391 -1.66852 4.63056 0
M  V30 4064 N 402.043 -1.548 -0.295768 0
M  V30 4065 C 402.973 -1.89115 -1.36959 0
M  V30 4066 C 403.954 -0.75059 -1.52644 0
M  V30 4067 O 405.139 -1.00678 -1.66065 0
M  V30 4068 C 402.269 -2.14307 -2.73295 0
M  V30 4069 C 401.223 -3.30151 -2.72368 0
M  V30 4070 C 400.549 -3.40772 -4.12042 0
M  V30 4071 C 401.849 -4.67126 -2.33646 0
M  V30 4072 H 403.543 -2.79053 -1.08488 0
M  V30 4073 H 401.089 -1.34266 -0.520443 0
M  V30 4074 H 403.042 -2.36898 -3.48507 0
M  V30 4075 H 401.766 -1.21145 -3.03301 0
M  V30 4076 H 400.425 -3.0749 -1.99613 0
M  V30 4077 H 400.073 -2.45117 -4.39234 0
M  V30 4078 H 399.773 -4.18645 -4.12322 0
M  V30 4079 H 401.297 -3.6563 -4.89027 0
M  V30 4080 H 402.711 -4.89414 -2.98575 0
M  V30 4081 H 401.108 -5.47751 -2.45129 0
M  V30 4082 H 402.178 -4.67489 -1.28772 0
M  V30 4083 N 403.521 0.559213 -1.47345 0
M  V30 4084 C 404.431 1.69388 -1.62311 0
M  V30 4085 C 405.447 1.6648 -0.505993 0
M  V30 4086 O 406.623 1.85964 -0.773262 0
M  V30 4087 C 403.688 3.05894 -1.63185 0
M  V30 4088 C 402.749 3.19885 -2.86307 0
M  V30 4089 C 401.982 4.49879 -2.87131 0
M  V30 4090 O 402.205 5.35217 -1.97229 0
M  V30 4091 O 401.139 4.67618 -3.78968 0
M  V30 4092 H 404.965 1.59706 -2.58317 0
M  V30 4093 H 402.55 0.728989 -1.30407 0
M  V30 4094 H 404.432 3.87133 -1.66451 0
M  V30 4095 H 403.107 3.15964 -0.70345 0
M  V30 4096 H 402.014 2.38052 -2.88587 0
M  V30 4097 H 403.347 3.14718 -3.78435 0
M  V30 4098 N 404.999 1.35443 0.805782 0
M  V30 4099 C 405.949 1.24972 1.90699 0
M  V30 4100 C 406.933 0.144806 1.60247 0
M  V30 4101 O 408.125 0.376102 1.72958 0
M  V30 4102 C 405.254 1.02475 3.27649 0
M  V30 4103 C 404.34 2.17361 3.64164 0
M  V30 4104 N 404.731 3.42591 3.72109 0
M  V30 4105 C 403.029 2.08765 3.94123 0
M  V30 4106 C 403.73 4.18144 4.04389 0
M  V30 4107 N 402.706 3.4691 4.18515 0
M  V30 4108 H 406.508 2.19852 1.95044 0
M  V30 4109 H 404.022 1.27928 1.00041 0
M  V30 4110 H 406.019 0.930617 4.06381 0
M  V30 4111 H 404.679 0.0848009 3.24589 0
M  V30 4112 H 405.69 3.76932 3.55166 0
M  V30 4113 H 402.367 1.22629 3.99084 0
M  V30 4114 H 403.757 5.26367 4.17597 0
M  V30 4115 N 406.477 -1.02803 1.19454 0
M  V30 4116 C 407.407 -2.12999 0.956758 0
M  V30 4117 C 408.388 -1.69743 -0.110188 0
M  V30 4118 O 409.573 -1.94148 0.0450038 0
M  V30 4119 C 406.703 -3.43746 0.495553 0
M  V30 4120 C 405.657 -4.00688 1.50443 0
M  V30 4121 C 404.983 -5.27067 0.900275 0
M  V30 4122 C 406.283 -4.35397 2.8849 0
M  V30 4123 H 407.977 -2.33148 1.87836 0
M  V30 4124 H 405.523 -1.12045 0.904539 0
M  V30 4125 H 407.476 -4.2021 0.316493 0
M  V30 4126 H 406.2 -3.23321 -0.461646 0
M  V30 4127 H 404.859 -3.2632 1.67065 0
M  V30 4128 H 404.507 -5.02959 -0.064503 0
M  V30 4129 H 404.207 -5.66127 1.57397 0
M  V30 4130 H 405.731 -6.06196 0.73203 0
M  V30 4131 H 407.145 -5.02795 2.75446 0
M  V30 4132 H 405.542 -4.85541 3.52661 0
M  V30 4133 H 406.612 -3.44662 3.41081 0
M  V30 4134 N 407.956 -0.998596 -1.21925 0
M  V30 4135 C 408.919 -0.558679 -2.22287 0
M  V30 4136 C 409.919 0.361525 -1.56683 0
M  V30 4137 O 411.109 0.152695 -1.73529 0
M  V30 4138 C 408.241 0.18661 -3.40389 0
M  V30 4139 H 409.434 -1.4463 -2.62721 0
M  V30 4140 H 406.987 -0.786413 -1.35075 0
M  V30 4141 H 407.722 1.08996 -3.05435 0
M  V30 4142 H 407.507 -0.474188 -3.89222 0
M  V30 4143 H 408.997 0.482367 -4.14805 0
M  V30 4144 N 409.434 1.37368 -0.772513 0
M  V30 4145 C 410.366 2.28899 -0.117502 0
M  V30 4146 C 411.379 1.4867 0.663405 0
M  V30 4147 O 412.568 1.71314 0.501372 0
M  V30 4148 C 409.668 3.2788 0.857192 0
M  V30 4149 C 408.841 4.37207 0.129938 0
M  V30 4150 C 407.9 5.16257 1.01811 0
M  V30 4151 O 406.926 5.67159 0.481601 0
M  V30 4152 N 408.128 5.31058 2.3443 0
M  V30 4153 H 410.893 2.85752 -0.903662 0
M  V30 4154 H 408.454 1.49353 -0.62493 0
M  V30 4155 H 410.446 3.77647 1.45482 0
M  V30 4156 H 409.016 2.7179 1.54432 0
M  V30 4157 H 408.236 3.88827 -0.648605 0
M  V30 4158 H 409.524 5.07434 -0.372559 0
M  V30 4159 H 408.922 4.91287 2.80452 0
M  V30 4160 H 407.479 5.84131 2.89197 0
M  V30 4161 N 410.912 0.523116 1.48665 0
M  V30 4162 C 411.86 -0.256859 2.31177 0
M  V30 4163 C 412.854 -0.94199 1.40794 0
M  V30 4164 O 414.06 -0.867157 1.57735 0
M  V30 4165 H 410.435 -0.1017 0.745091 0
M  V30 4166 H 412.406 0.458739 2.94853 0
M  V30 4167 C 411.155 -1.29503 3.22683 0
M  V30 4168 H 410.478 -0.777248 3.92172 0
M  V30 4169 H 411.918 -1.81233 3.83315 0
M  V30 4170 C 410.377 -2.32501 2.43813 0
M  V30 4171 O 410.907 -3.3881 2.15803 0
M  V30 4172 N 409.113 -2.05538 2.05432 0
M  V30 4173 H 408.66 -1.19104 2.28412 0
M  V30 4174 H 408.618 -2.74676 1.52973 0
M  V30 4175 N 412.39 -1.55475 0.257931 0
M  V30 4176 C 413.639 -1.98383 -0.364275 0
M  V30 4177 C 413.952 -1.14952 -1.58258 0
M  V30 4178 O 415.158 -1.47924 -2.27664 0
M  V30 4179 C 413.614 -3.53037 -0.699479 0
M  V30 4180 C 413.222 -4.45223 0.498046 0
M  V30 4181 C 414.966 -4.04575 -1.28526 0
M  V30 4182 C 412.873 -5.91238 0.138383 0
M  V30 4183 H 411.803 -0.740911 -0.13988 0
M  V30 4184 H 414.454 -1.79936 0.359883 0
M  V30 4185 H 412.836 -3.6722 -1.48207 0
M  V30 4186 H 414.01 -4.42803 1.27522 0
M  V30 4187 H 412.325 -4.04226 0.999503 0
M  V30 4188 H 414.922 -5.11196 -1.56788 0
M  V30 4189 H 415.265 -3.5258 -2.21344 0
M  V30 4190 H 415.798 -3.93762 -0.565337 0
M  V30 4191 H 412.537 -6.47294 1.03398 0
M  V30 4192 H 412.057 -5.96768 -0.602374 0
M  V30 4193 H 413.736 -6.46413 -0.27553 0
M  V30 4194 N 413.868 0.0150385 -1.57593 0
M  V30 4195 C 415.093 0.718067 -1.94573 0
M  V30 4196 C 415.518 1.6734 -0.859005 0
M  V30 4197 O 414.876 1.80362 0.184147 0
M  V30 4198 C 414.924 1.43918 -3.30636 0
M  V30 4199 O 414.028 2.55299 -3.23876 0
M  V30 4200 H 413.369 0.192125 -0.635597 0
M  V30 4201 H 415.899 -0.0336708 -2.04572 0
M  V30 4202 H 415.909 1.80598 -3.65853 0
M  V30 4203 H 414.584 0.738619 -4.09289 0
M  V30 4204 H 413.161 2.21058 -3.00312 0
M  V30 4205 N 415.346 1.54954 0.287554 0
M  V30 4206 C 416.293 1.86834 1.35505 0
M  V30 4207 C 417.263 0.718452 1.49758 0
M  V30 4208 O 418.448 0.968358 1.644 0
M  V30 4209 C 415.588 2.13303 2.71286 0
M  V30 4210 C 414.701 3.40883 2.65373 0
M  V30 4211 C 413.836 3.57125 3.93236 0
M  V30 4212 C 412.875 4.78449 3.81776 0
M  V30 4213 N 412.012 4.91426 5.01443 0
M  V30 4214 H 416.852 2.77889 1.07619 0
M  V30 4215 H 414.389 1.37593 0.520241 0
M  V30 4216 H 416.347 2.26646 3.50267 0
M  V30 4217 H 414.977 1.25499 2.97405 0
M  V30 4218 H 414.029 3.36088 1.78182 0
M  V30 4219 H 415.341 4.29993 2.52799 0
M  V30 4220 H 414.495 3.70207 4.80658 0
M  V30 4221 H 413.234 2.66173 4.0866 0
M  V30 4222 H 412.239 4.65386 2.92738 0
M  V30 4223 H 413.464 5.70822 3.67884 0
M  V30 4224 H 411.41 4.03401 5.17304 0
M  V30 4225 H 411.327 5.74559 4.91343 0
M  V30 4226 H 412.595 5.08879 5.90477 0
M  V30 4227 N 416.824 -0.551391 1.4764 0
M  V30 4228 C 418.049 -1.33837 1.58437 0
M  V30 4229 C 418.474 -1.866 0.237063 0
M  V30 4230 O 417.832 -1.6328 -0.787994 0
M  V30 4231 C 417.88 -2.48014 2.61766 0
M  V30 4232 O 416.984 -3.50419 2.1744 0
M  V30 4233 H 416.325 -0.397299 0.532024 0
M  V30 4234 H 418.855 -0.665759 1.93465 0
M  V30 4235 H 418.865 -2.94503 2.82369 0
M  V30 4236 H 417.54 -2.08969 3.5959 0
M  V30 4237 H 416.117 -3.10196 2.06961 0
M  V30 4238 N 418.302 -1.35869 -0.798587 0
M  V30 4239 C 419.252 -1.25982 -1.90033 0
M  V30 4240 C 420.236 -0.153303 -1.60168 0
M  V30 4241 O 421.428 -0.38527 -1.72756 0
M  V30 4242 C 418.557 -1.04211 -3.27101 0
M  V30 4243 C 417.643 -2.19289 -3.63006 0
M  V30 4244 N 418.034 -3.44559 -3.70287 0
M  V30 4245 C 416.332 -2.10852 -3.93011 0
M  V30 4246 C 417.033 -4.20283 -4.02166 0
M  V30 4247 N 416.009 -3.49124 -4.16669 0
M  V30 4248 H 419.811 -2.20883 -1.93876 0
M  V30 4249 H 417.325 -1.28457 -0.993614 0
M  V30 4250 H 419.322 -0.952155 -4.05881 0
M  V30 4251 H 417.982 -0.102013 -3.2454 0
M  V30 4252 H 418.993 -3.7881 -3.53162 0
M  V30 4253 H 415.67 -1.24744 -3.98428 0
M  V30 4254 H 417.06 -5.28575 -4.14799 0
M  V30 4255 N 419.78 1.02168 -1.19998 0
M  V30 4256 C 420.71 2.12488 -0.96804 0
M  V30 4257 C 421.691 1.69799 0.101185 0
M  V30 4258 O 422.876 1.94121 -0.0552993 0
M  V30 4259 C 420.006 3.43479 -0.513776 0
M  V30 4260 C 418.96 3.99884 -1.52566 0
M  V30 4261 C 418.286 5.26582 -0.928214 0
M  V30 4262 C 419.586 4.33861 -2.90795 0
M  V30 4263 H 421.28 2.32149 -1.89069 0
M  V30 4264 H 418.826 1.11564 -0.910468 0
M  V30 4265 H 420.779 4.20036 -0.338774 0
M  V30 4266 H 419.503 3.23561 0.444493 0
M  V30 4267 H 418.162 3.25429 -1.68794 0
M  V30 4268 H 417.81 5.02986 0.0378289 0
M  V30 4269 H 417.51 5.65284 -1.60397 0
M  V30 4270 H 419.034 6.05799 -0.764167 0
M  V30 4271 H 420.448 5.01327 -2.78109 0
M  V30 4272 H 418.845 4.83664 -3.55231 0
M  V30 4273 H 419.915 3.42848 -3.42904 0
M  V30 4274 N 421.258 1.00505 1.21394 0
M  V30 4275 C 422.168 0.574806 2.27449 0
M  V30 4276 C 423.184 -0.382206 1.6975 0
M  V30 4277 O 424.36 -0.246027 1.99892 0
M  V30 4278 C 421.425 -0.0917414 3.46579 0
M  V30 4279 C 420.486 0.909758 4.1955 0
M  V30 4280 C 419.719 0.274924 5.32991 0
M  V30 4281 O 419.942 -0.928254 5.62796 0
M  V30 4282 O 418.876 0.985877 5.93771 0
M  V30 4283 H 422.702 1.45744 2.66444 0
M  V30 4284 H 420.287 0.773923 1.27792 0
M  V30 4285 H 422.169 -0.464551 4.18832 0
M  V30 4286 H 420.844 -0.948755 3.09484 0
M  V30 4287 H 419.751 1.33372 3.49518 0
M  V30 4288 H 421.084 1.73636 4.60555 0
M  V30 4289 N 422.737 -1.36956 0.779787 0
M  V30 4290 C 423.965 -2.03755 0.359398 0
M  V30 4291 C 424.38 -1.58807 -1.02106 0
M  V30 4292 O 423.737 -0.773024 -1.6532 0
M  V30 4293 C 423.788 -3.59251 0.402568 0
M  V30 4294 O 423.509 -4.02557 1.72858 0
M  V30 4295 C 425.01 -4.43291 -0.0284068 0
M  V30 4296 H 422.23 -0.654148 0.149437 0
M  V30 4297 H 424.774 -1.75128 1.05595 0
M  V30 4298 H 422.929 -3.86621 -0.245478 0
M  V30 4299 H 423.343 -4.97111 1.67275 0
M  V30 4300 H 424.817 -5.51975 0.0529466 0
M  V30 4301 H 425.294 -4.25719 -1.07982 0
M  V30 4302 H 425.9 -4.21163 0.591758 0
M  V30 4303 N 424.215 -0.530993 -1.48385 0
M  V30 4304 C 425.455 0.000718982 -2.044 0
M  V30 4305 C 425.819 1.31485 -1.39913 0
M  V30 4306 O 427.02 1.93265 -1.86821 0
M  V30 4307 C 425.291 0.119177 -3.57201 0
M  V30 4308 S 426.85 0.600806 -4.34667 0
M  V30 4309 H 423.668 -0.0125473 -0.710889 0
M  V30 4310 H 426.27 -0.711783 -1.82082 0
M  V30 4311 H 424.974 -0.842061 -4.01668 0
M  V30 4312 H 424.505 0.856026 -3.83974 0
M  V30 4313 H 426.52 1.86514 -4.59812 0
M  V30 4314 N 425.693 1.55336 -0.266172 0
M  V30 4315 C 426.625 2.19544 0.658247 0
M  V30 4316 C 427.638 1.17746 1.12427 0
M  V30 4317 O 428.827 1.44517 1.04772 0
M  V30 4318 C 425.927 2.80032 1.9088 0
M  V30 4319 C 425.1 4.07436 1.59106 0
M  V30 4320 C 424.159 4.52056 2.69317 0
M  V30 4321 O 423.185 5.18023 2.35883 0
M  V30 4322 N 424.387 4.21448 3.99201 0
M  V30 4323 H 427.152 2.99503 0.108754 0
M  V30 4324 H 424.713 1.61667 -0.0869059 0
M  V30 4325 H 426.705 3.06831 2.63888 0
M  V30 4326 H 425.275 2.04119 2.36758 0
M  V30 4327 H 424.495 3.88021 0.695243 0
M  V30 4328 H 425.783 4.90462 1.35367 0
M  V30 4329 H 425.181 3.68528 4.29189 0
M  V30 4330 H 423.738 4.53039 4.68614 0
M  V30 4331 N 427.171 -0.0066808 1.57599 0
M  V30 4332 C 428.401 -0.703066 1.94269 0
M  V30 4333 C 428.809 -1.68206 0.866222 0
M  V30 4334 O 428.152 -1.82966 -0.164087 0
M  V30 4335 C 428.214 -1.49616 3.26887 0
M  V30 4336 C 427.878 -0.679494 4.5192 0
M  V30 4337 C 428.875 0.0299508 5.19891 0
M  V30 4338 C 426.56 -0.627433 4.98366 0
M  V30 4339 C 428.554 0.780514 6.32603 0
M  V30 4340 C 426.241 0.126861 6.10968 0
M  V30 4341 C 427.239 0.829574 6.77943 0
M  V30 4342 O 426.927 1.57157 7.88389 0
M  V30 4343 H 426.659 -0.201217 0.645359 0
M  V30 4344 H 429.213 0.0385326 2.05364 0
M  V30 4345 H 427.443 -2.28209 3.12182 0
M  V30 4346 H 429.132 -2.07726 3.48719 0
M  V30 4347 H 429.898 -0.00115963 4.85 0
M  V30 4348 H 425.777 -1.16392 4.46065 0
M  V30 4349 H 429.321 1.32954 6.84813 0
M  V30 4350 H 425.218 0.159815 6.45302 0
M  V30 4351 H 425.986 1.48758 8.04868 0
M  V30 4352 N 428.649 -1.55105 -0.279332 0
M  V30 4353 C 429.579 -1.90557 -1.34945 0
M  V30 4354 C 430.56 -0.766738 -1.51839 0
M  V30 4355 O 431.745 -1.02434 -1.64988 0
M  V30 4356 C 428.875 -2.17193 -2.71006 0
M  V30 4357 C 427.829 -3.33021 -2.68851 0
M  V30 4358 C 427.155 -3.45123 -4.08405 0
M  V30 4359 C 428.455 -4.69578 -2.28678 0
M  V30 4360 H 430.149 -2.80188 -1.05522 0
M  V30 4361 H 427.695 -1.34811 -0.506173 0
M  V30 4362 H 429.648 -2.40581 -3.45975 0
M  V30 4363 H 428.372 -1.24355 -3.01999 0
M  V30 4364 H 427.031 -3.0959 -1.9634 0
M  V30 4365 H 426.679 -2.49762 -4.3661 0
M  V30 4366 H 426.379 -4.22995 -4.07859 0
M  V30 4367 H 427.903 -3.70796 -4.85121 0
M  V30 4368 H 429.317 -4.92553 -2.93368 0
M  V30 4369 H 427.714 -5.5032 -2.39306 0
M  V30 4370 H 428.784 -4.68828 -1.23807 0
M  V30 4371 N 430.127 0.543554 -1.4793 0
M  V30 4372 C 431.543 0.870806 -1.3375 0
M  V30 4373 C 431.743 1.9864 -0.338261 0
M  V30 4374 O 430.799 2.51305 0.245371 0
M  V30 4375 C 432.112 1.25114 -2.73435 0
M  V30 4376 C 433.66 1.3618 -2.81823 0
M  V30 4377 C 434.135 1.77563 -4.22179 0
M  V30 4378 N 435.626 1.8469 -4.24787 0
M  V30 4379 C 436.361 2.18067 -5.30315 0
M  V30 4380 N 435.857 2.49963 -6.46135 0
M  V30 4381 N 437.65 2.18958 -5.17701 0
M  V30 4382 H 429.801 -0.19275 -2.11524 0
M  V30 4383 H 432.064 -0.0235777 -0.947707 0
M  V30 4384 H 431.77 0.50514 -3.48053 0
M  V30 4385 H 431.644 2.20431 -3.06088 0
M  V30 4386 H 434.031 2.09859 -2.07468 0
M  V30 4387 H 434.112 0.390169 -2.52807 0
M  V30 4388 H 433.756 1.04449 -4.97044 0
M  V30 4389 H 433.686 2.75753 -4.48629 0
M  V30 4390 H 436.177 1.62372 -3.41239 0
M  V30 4391 H 436.49 2.74497 -7.22406 0
M  V30 4392 H 434.835 2.47513 -6.49432 0
M  V30 4393 H 438.026 1.93488 -4.2624 0
M  V30 4394 H 438.199 2.44639 -6.00047 0
M  V30 4395 N 431.605 1.3629 0.791371 0
M  V30 4396 C 432.515 1.32606 1.93527 0
M  V30 4397 C 433.531 0.228541 1.72493 0
M  V30 4398 O 434.707 0.460571 1.96063 0
M  V30 4399 C 431.772 1.11271 3.28359 0
M  V30 4400 C 430.833 2.3048 3.62185 0
M  V30 4401 C 430.066 2.10154 4.90583 0
M  V30 4402 O 430.289 1.07572 5.60165 0
M  V30 4403 O 429.223 2.97884 5.23019 0
M  V30 4404 H 433.049 2.28909 1.99585 0
M  V30 4405 H 430.634 1.16818 0.931344 0
M  V30 4406 H 432.516 1.01283 4.09047 0
M  V30 4407 H 431.191 0.180292 3.23198 0
M  V30 4408 H 430.098 2.46036 2.81811 0
M  V30 4409 H 431.431 3.22221 3.72068 0
M  V30 4410 N 433.083 -1.0153 1.20538 0
M  V30 4411 C 433.993 -2.13557 0.971113 0
M  V30 4412 C 435.009 -1.73845 -0.0734366 0
M  V30 4413 O 436.185 -2.01075 0.114299 0
M  V30 4414 C 433.25 -3.42661 0.527639 0
M  V30 4415 C 432.311 -3.96608 1.64319 0
M  V30 4416 C 431.544 -5.1955 1.22078 0
M  V30 4417 O 431.767 -5.70329 0.0900198 0
M  V30 4418 O 430.701 -5.66681 2.02871 0
M  V30 4419 H 434.527 -2.3619 1.90913 0
M  V30 4420 H 432.112 -1.11946 0.989362 0
M  V30 4421 H 433.994 -4.20404 0.289621 0
M  V30 4422 H 432.669 -3.21441 -0.381779 0
M  V30 4423 H 431.576 -3.20139 1.93551 0
M  V30 4424 H 432.909 -4.22219 2.52966 0
M  V30 4425 N 434.561 -1.01147 -1.20859 0
M  V30 4426 C 435.491 -0.597663 -2.25722 0
M  V30 4427 C 436.472 0.384744 -1.65692 0
M  V30 4428 O 437.657 0.271303 -1.92296 0
M  V30 4429 C 434.787 0.0700149 -3.47229 0
M  V30 4430 C 433.741 -0.832843 -4.19819 0
M  V30 4431 C 433.067 -0.0312202 -5.34691 0
M  V30 4432 C 434.367 -2.1385 -4.76514 0
M  V30 4433 H 436.061 -1.47423 -2.60589 0
M  V30 4434 H 433.607 -0.710301 -1.25263 0
M  V30 4435 H 435.56 0.37103 -4.19763 0
M  V30 4436 H 434.284 0.981259 -3.11511 0
M  V30 4437 H 432.943 -1.11778 -3.49144 0
M  V30 4438 H 432.591 0.881515 -4.95215 0
M  V30 4439 H 432.291 -0.632434 -5.84187 0
M  V30 4440 H 433.815 0.26346 -6.10031 0
M  V30 4441 H 435.229 -1.9002 -5.40893 0
M  V30 4442 H 433.626 -2.69012 -5.36426 0
M  V30 4443 H 434.696 -2.80495 -3.95538 0
M  V30 4444 N 436.039 1.36541 -0.78704 0
M  V30 4445 C 436.971 2.28761 -0.141773 0
M  V30 4446 C 437.984 1.49365 0.647599 0
M  V30 4447 O 439.173 1.71836 0.483173 0
M  V30 4448 C 436.273 3.28771 0.822368 0
M  V30 4449 C 435.446 4.3732 0.0835594 0
M  V30 4450 C 434.505 5.17307 0.963296 0
M  V30 4451 O 433.531 5.67638 0.421419 0
M  V30 4452 N 434.733 5.33515 2.28784 0
M  V30 4453 H 437.498 2.84777 -0.933919 0
M  V30 4454 H 435.059 1.48682 -0.640735 0
M  V30 4455 H 437.051 3.79169 1.41468 0
M  V30 4456 H 435.621 2.73412 1.5154 0
M  V30 4457 H 434.841 3.88118 -0.689809 0
M  V30 4458 H 436.129 5.0701 -0.426358 0
M  V30 4459 H 435.527 4.94234 2.75226 0
M  V30 4460 H 434.084 5.87165 2.82985 0
M  V30 4461 N 437.518 0.538854 1.48102 0
M  V30 4462 C 438.45 -0.256278 2.27763 0
M  V30 4463 C 439.463 -0.89633 1.35904 0
M  V30 4464 O 440.652 -0.773275 1.60881 0
M  V30 4465 C 437.752 -1.37896 3.09577 0
M  V30 4466 C 436.925 -0.839159 4.29275 0
M  V30 4467 C 435.984 -1.84405 4.9283 0
M  V30 4468 O 435.01 -1.39746 5.51779 0
M  V30 4469 N 436.212 -3.17666 4.85869 0
M  V30 4470 H 438.977 0.426968 2.96643 0
M  V30 4471 H 436.538 0.373747 1.57527 0
M  V30 4472 H 438.53 -2.04955 3.48963 0
M  V30 4473 H 437.1 -1.96572 2.4306 0
M  V30 4474 H 436.32 0.00769287 3.94199 0
M  V30 4475 H 437.608 -0.457548 5.06739 0
M  V30 4476 H 437.006 -3.56609 4.39143 0
M  V30 4477 H 435.563 -3.80334 5.29329 0
M  V30 4478 N 438.996 -1.55193 0.274407 0
M  V30 4479 C 440.245 -1.98758 -0.343213 0
M  V30 4480 C 440.558 -1.16624 -1.5703 0
M  V30 4481 O 441.764 -1.5033 -2.26082 0
M  V30 4482 C 440.22 -3.53759 -0.661996 0
M  V30 4483 C 439.828 -4.4467 0.54524 0
M  V30 4484 C 441.572 -4.05916 -1.24228 0
M  V30 4485 C 439.479 -5.91058 0.201084 0
M  V30 4486 H 438.409 -0.742353 -0.132014 0
M  V30 4487 H 441.06 -1.79545 0.378948 0
M  V30 4488 H 439.442 -3.68772 -1.44304 0
M  V30 4489 H 440.616 -4.41426 1.32212 0
M  V30 4490 H 438.931 -4.03143 1.04232 0
M  V30 4491 H 441.528 -5.12831 -1.51357 0
M  V30 4492 H 441.871 -3.54908 -2.17592 0
M  V30 4493 H 442.404 -3.9434 -0.523542 0
M  V30 4494 H 439.143 -6.46161 1.10258 0
M  V30 4495 H 438.663 -5.97373 -0.539045 0
M  V30 4496 H 440.342 -6.46669 -0.206954 0
M  V30 4497 N 440.474 -0.00167713 -1.576 0
M  V30 4498 C 441.702 0.693759 -1.94922 0
M  V30 4499 C 442.117 1.67215 -0.876626 0
M  V30 4500 O 441.474 1.81929 0.144279 0
M  V30 4501 C 441.525 1.42416 -3.32265 0
M  V30 4502 O 441.246 0.485014 -4.35407 0
M  V30 4503 C 442.747 2.21395 -3.84056 0
M  V30 4504 H 439.967 0.193118 -0.642609 0
M  V30 4505 H 442.511 -0.0532952 -2.04431 0
M  V30 4506 H 440.666 2.12284 -3.24059 0
M  V30 4507 H 441.08 1.00053 -5.14868 0
M  V30 4508 H 442.554 2.67996 -4.82578 0
M  V30 4509 H 443.031 3.04142 -3.16851 0
M  V30 4510 H 443.637 1.56542 -3.95443 0
M  V30 4511 N 441.952 1.55251 0.271103 0
M  V30 4512 C 443.198 1.7713 0.999832 0
M  V30 4513 C 443.553 0.56659 1.83868 0
M  V30 4514 O 442.846 -0.44069 1.86463 0
M  V30 4515 C 443.04 3.01879 1.91321 0
M  V30 4516 C 442.869 4.34368 1.16426 0
M  V30 4517 C 441.639 4.97593 0.879169 0
M  V30 4518 C 443.837 5.1131 0.553749 0
M  V30 4519 N 441.819 6.13813 0.103618 0
M  V30 4520 C 443.19 6.19938 -0.0875442 0
M  V30 4521 C 445.245 4.95754 0.461782 0
M  V30 4522 C 443.948 7.14703 -0.811942 0
M  V30 4523 C 445.974 5.90875 -0.249027 0
M  V30 4524 C 445.336 6.98893 -0.879051 0
M  V30 4525 H 441.435 0.700407 0.347784 0
M  V30 4526 H 444.019 1.92744 0.275314 0
M  V30 4527 H 442.19 2.87637 2.60997 0
M  V30 4528 H 443.922 3.12154 2.57569 0
M  V30 4529 H 440.677 4.58538 1.18491 0
M  V30 4530 H 441.101 6.76455 -0.271543 0
M  V30 4531 H 445.743 4.12342 0.934552 0
M  V30 4532 H 443.461 7.97634 -1.29639 0
M  V30 4533 H 447.047 5.80916 -0.320529 0
M  V30 4534 H 445.927 7.71231 -1.42031 0
M  V30 4535 N 443.43 -0.535701 1.48216 0
M  V30 4536 C 444.362 -1.65662 1.58394 0
M  V30 4537 C 445.375 -1.5591 0.468607 0
M  V30 4538 O 446.564 -1.62475 0.7392 0
M  V30 4539 C 443.664 -3.04276 1.4923 0
M  V30 4540 C 442.837 -3.39567 2.75705 0
M  V30 4541 C 441.896 -4.57436 2.60075 0
M  V30 4542 O 440.922 -4.60942 3.33948 0
M  V30 4543 N 442.124 -5.55259 1.69315 0
M  V30 4544 H 444.889 -1.5737 2.55058 0
M  V30 4545 H 442.45 -0.722845 1.44867 0
M  V30 4546 H 444.442 -3.80994 1.36477 0
M  V30 4547 H 443.012 -3.06677 0.605632 0
M  V30 4548 H 442.232 -2.52083 3.03064 0
M  V30 4549 H 443.52 -3.59929 3.59623 0
M  V30 4550 H 442.918 -5.552 1.08489 0
M  V30 4551 H 441.475 -6.31218 1.62504 0
M  V30 4552 N 444.908 -1.36708 -0.784132 0
M  V30 4553 C 446.136 -1.34398 -1.57305 0
M  V30 4554 C 446.551 0.0735577 -1.88657 0
M  V30 4555 O 445.908 1.03193 -1.50524 0
M  V30 4556 C 445.959 -2.17053 -2.89085 0
M  V30 4557 O 445.68 -3.53281 -2.59083 0
M  V30 4558 C 447.181 -2.22583 -3.83369 0
M  V30 4559 H 444.401 -0.460819 -0.487736 0
M  V30 4560 H 446.945 -1.79879 -0.972819 0
M  V30 4561 H 445.1 -1.75113 -3.45564 0
M  V30 4562 H 445.514 -3.9647 -3.43383 0
M  V30 4563 H 446.988 -2.84763 -4.72878 0
M  V30 4564 H 447.465 -1.23075 -4.21603 0
M  V30 4565 H 448.071 -2.64781 -3.32823 0
M  V30 4566 N 446.386 1.0089 -1.21074 0
M  V30 4567 C 447.633 1.74607 -1.0256 0
M  V30 4568 C 447.961 1.89426 0.44136 0
M  V30 4569 O 447.216 1.42266 1.34384 0
M  V30 4570 C 447.515 3.16335 -1.66334 0
M  V30 4571 C 447.181 3.21474 -3.16173 0
M  V30 4572 C 445.843 3.22583 -3.57062 0
M  V30 4573 C 448.195 3.19025 -4.12156 0
M  V30 4574 C 445.523 3.18925 -4.92446 0
M  V30 4575 C 447.875 3.16909 -5.47496 0
M  V30 4576 C 446.539 3.16326 -5.87787 0
M  V30 4577 H 445.809 0.638933 -0.375294 0
M  V30 4578 H 448.456 1.18274 -1.50611 0
M  V30 4579 H 446.761 3.75876 -1.10566 0
M  V30 4580 H 448.458 3.72083 -1.49516 0
M  V30 4581 H 445.048 3.2135 -2.83605 0
M  V30 4582 H 449.232 3.17332 -3.81595 0
M  V30 4583 H 444.488 3.16809 -5.22917 0
M  V30 4584 H 448.662 3.13968 -6.21609 0
M  V30 4585 H 446.289 3.13246 -6.92662 0
M  V30 4586 N 447.864 1.01787 1.20321 0
M  V30 4587 C 448.794 0.609625 2.25401 0
M  V30 4588 C 449.775 -0.375951 1.65893 0
M  V30 4589 O 450.96 -0.261101 1.92437 0
M  V30 4590 C 448.09 -0.0515995 3.47262 0
M  V30 4591 C 447.044 0.855095 4.19371 0
M  V30 4592 C 446.37 0.0595757 5.34667 0
M  V30 4593 C 447.67 2.16374 4.75373 0
M  V30 4594 H 449.364 1.48803 2.59804 0
M  V30 4595 H 446.91 0.716934 1.24884 0
M  V30 4596 H 448.863 -0.348764 4.19954 0
M  V30 4597 H 447.587 -0.964726 3.12027 0
M  V30 4598 H 446.246 1.13628 3.48546 0
M  V30 4599 H 445.894 -0.85524 4.95676 0
M  V30 4600 H 445.594 0.663406 5.83843 0
M  V30 4601 H 447.118 -0.231105 6.10162 0
M  V30 4602 H 448.532 1.92885 5.39878 0
M  V30 4603 H 446.929 2.71853 5.34991 0
M  V30 4604 H 447.999 2.82589 3.94045 0
M  V30 4605 N 449.342 -1.36122 0.79427 0
M  V30 4606 C 450.274 -2.28683 0.153903 0
M  V30 4607 C 451.287 -1.49707 -0.639669 0
M  V30 4608 O 452.476 -1.7209 -0.474054 0
M  V30 4609 C 449.576 -3.29202 -0.804921 0
M  V30 4610 C 448.749 -4.37358 -0.060366 0
M  V30 4611 C 447.808 -5.17811 -0.935849 0
M  V30 4612 O 446.834 -5.67853 -0.391309 0
M  V30 4613 N 448.036 -5.34721 -2.25951 0
M  V30 4614 H 450.801 -2.84278 0.949008 0
M  V30 4615 H 448.362 -1.4834 0.648611 0
M  V30 4616 H 450.354 -3.79914 -1.39455 0
M  V30 4617 H 448.924 -2.74212 -1.50088 0
M  V30 4618 H 448.144 -3.87746 0.710382 0
M  V30 4619 H 449.432 -5.06777 0.45324 0
M  V30 4620 H 448.83 -4.95687 -2.72601 0
M  V30 4621 H 447.387 -5.88657 -2.79867 0
M  V30 4622 N 450.82 -0.546701 -1.47814 0
M  V30 4623 C 451.73 0.21026 -2.33656 0
M  V30 4624 C 452.746 0.922413 -1.47538 0
M  V30 4625 O 453.922 0.893652 -1.80488 0
M  V30 4626 C 450.987 1.23348 -3.24016 0
M  V30 4627 C 450.048 0.529883 -4.26017 0
M  V30 4628 C 449.281 1.50435 -5.12059 0
M  V30 4629 O 449.504 2.73837 -5.00369 0
M  V30 4630 O 448.438 1.03459 -5.92942 0
M  V30 4631 H 452.264 -0.493605 -2.99662 0
M  V30 4632 H 449.849 -0.307427 -1.46203 0
M  V30 4633 H 451.731 1.82438 -3.79861 0
M  V30 4634 H 450.406 1.91945 -2.60651 0
M  V30 4635 H 449.313 -0.101948 -3.73961 0
M  V30 4636 H 450.646 -0.11445 -4.92067 0
M  V30 4637 N 452.299 1.55045 -0.282633 0
M  V30 4638 C 453.209 2.26491 0.61147 0
M  V30 4639 C 454.225 1.29348 1.16384 0
M  V30 4640 O 455.401 1.62298 1.19253 0
M  V30 4641 C 452.466 2.97779 1.77563 0
M  V30 4642 C 451.527 4.10418 1.25919 0
M  V30 4643 C 450.76 4.78297 2.36786 0
M  V30 4644 O 450.983 4.45426 3.56303 0
M  V30 4645 O 449.917 5.66089 2.04517 0
M  V30 4646 H 453.743 3.03683 0.0324615 0
M  V30 4647 H 451.328 1.49317 -0.0497576 0
M  V30 4648 H 453.21 3.42554 2.45427 0
M  V30 4649 H 451.885 2.23498 2.34159 0
M  V30 4650 H 450.792 3.70082 0.546797 0
M  V30 4651 H 452.125 4.86622 0.738887 0
M  V30 4652 N 453.777 0.010035 1.57597 0
M  V30 4653 C 455.026 -0.671945 1.90178 0
M  V30 4654 C 455.339 -1.74376 0.886131 0
M  V30 4655 O 456.545 -2.48107 1.10252 0
M  V30 4656 C 455.001 -1.24636 3.3763 0
M  V30 4657 C 454.609 -0.208838 4.47513 0
M  V30 4658 C 456.353 -1.90595 3.79307 0
M  V30 4659 C 454.26 -0.793814 5.86048 0
M  V30 4660 H 453.19 -0.25474 0.709665 0
M  V30 4661 H 455.841 0.0722206 1.83358 0
M  V30 4662 H 454.223 -2.04152 3.3932 0
M  V30 4663 H 455.397 0.562463 4.57354 0
M  V30 4664 H 453.712 0.350889 4.14919 0
M  V30 4665 H 456.309 -2.35284 4.80151 0
M  V30 4666 H 456.652 -2.74074 3.13352 0
M  V30 4667 H 457.185 -1.17798 3.79958 0
M  V30 4668 H 453.924 0.00240855 6.555 0
M  V30 4669 H 453.444 -1.53404 5.79851 0
M  V30 4670 H 455.123 -1.2894 6.34022 0
M  V30 4671 N 455.255 -1.55392 -0.262866 0
M  V30 4672 C 456.165 -1.92077 -1.34698 0
M  V30 4673 C 457.181 -0.819227 -1.53508 0
M  V30 4674 O 458.357 -1.11921 -1.67439 0
M  V30 4675 C 455.422 -2.19407 -2.68443 0
M  V30 4676 C 454.483 -3.42905 -2.58292 0
M  V30 4677 C 453.716 -3.68921 -3.85659 0
M  V30 4678 O 453.939 -2.97275 -4.8681 0
M  V30 4679 O 452.873 -4.62455 -3.85252 0
M  V30 4680 H 456.699 -2.84384 -1.06581 0
M  V30 4681 H 454.284 -1.42069 -0.462264 0
M  V30 4682 H 456.166 -2.38365 -3.47506 0
M  V30 4683 H 454.841 -1.30282 -2.96325 0
M  V30 4684 H 453.748 -3.29272 -1.7757 0
M  V30 4685 H 455.081 -4.32282 -2.35358 0
M  V30 4686 N 456.733 0.527833 -1.48498 0
M  V30 4687 C 457.681 1.65313 -1.63628 0
M  V30 4688 C 458.675 1.6177 -0.502676 0
M  V30 4689 O 459.881 1.66601 -0.681469 0
M  V30 4690 H 456.256 0.547518 -0.515488 0
M  V30 4691 H 458.227 1.49696 -2.58135 0
M  V30 4692 C 456.976 3.03576 -1.6952 0
M  V30 4693 H 456.299 3.06997 -2.56111 0
M  V30 4694 H 457.739 3.81923 -1.84149 0
M  V30 4695 C 456.198 3.34089 -0.43432 0
M  V30 4696 O 456.728 3.99151 0.451852 0
M  V30 4697 N 454.934 2.88991 -0.305368 0
M  V30 4698 H 454.481 2.36222 -1.02747 0
M  V30 4699 H 454.439 3.09776 0.537249 0
M  V30 4700 N 458.211 1.37122 0.776871 0
M  V30 4701 C 459.441 1.35034 1.56363 0
M  V30 4702 C 459.849 -0.0674681 1.8908 0
M  V30 4703 O 459.192 -1.03826 1.51545 0
M  V30 4704 C 459.254 2.11894 2.90415 0
M  V30 4705 C 458.918 3.60897 2.80362 0
M  V30 4706 C 459.915 4.54887 2.51742 0
M  V30 4707 C 457.6 4.03951 2.98545 0
M  V30 4708 C 459.594 5.89909 2.41426 0
M  V30 4709 C 457.281 5.3906 2.87849 0
M  V30 4710 C 458.279 6.31852 2.5933 0
M  V30 4711 O 457.967 7.64479 2.48651 0
M  V30 4712 H 457.699 0.464402 0.49123 0
M  V30 4713 H 460.253 1.80992 0.971127 0
M  V30 4714 H 458.483 1.60618 3.51765 0
M  V30 4715 H 460.172 2.02505 3.51776 0
M  V30 4716 H 460.938 4.22934 2.37385 0
M  V30 4717 H 456.817 3.3209 3.19746 0
M  V30 4718 H 460.361 6.62304 2.19086 0
M  V30 4719 H 456.258 5.70617 3.01773 0
M  V30 4720 H 457.026 7.74742 2.64039 0
M  V30 4721 N 459.689 -1.00246 1.21608 0
M  V30 4722 C 460.621 -2.09244 0.935401 0
M  V30 4723 C 461.634 -1.62592 -0.0823594 0
M  V30 4724 O 462.823 -1.77865 0.150456 0
M  V30 4725 C 459.923 -3.36724 0.383453 0
M  V30 4726 C 459.096 -4.1245 1.45615 0
M  V30 4727 C 458.155 -5.18219 0.912991 0
M  V30 4728 O 457.181 -5.46337 1.59701 0
M  V30 4729 N 458.383 -5.7987 -0.270478 0
M  V30 4730 H 461.148 -2.33905 1.87373 0
M  V30 4731 H 458.709 -1.16748 1.12167 0
M  V30 4732 H 460.701 -4.047 0.00562157 0
M  V30 4733 H 459.271 -3.09201 -0.459758 0
M  V30 4734 H 458.491 -3.39241 2.00772 0
M  V30 4735 H 459.779 -4.59819 2.17817 0
M  V30 4736 H 459.177 -5.59381 -0.843195 0
M  V30 4737 H 457.734 -6.49126 -0.589794 0
M  V30 4738 N 461.167 -1.02423 -1.1978 0
M  V30 4739 C 462.115 -0.594474 -2.24875 0
M  V30 4740 C 463.109 0.370598 -1.65296 0
M  V30 4741 O 464.315 0.239684 -1.78397 0
M  V30 4742 H 460.69 -0.173961 -0.731602 0
M  V30 4743 H 462.661 -1.4916 -2.58445 0
M  V30 4744 C 461.41 0.0436512 -3.47673 0
M  V30 4745 H 460.733 -0.689963 -3.93801 0
M  V30 4746 H 462.173 0.307362 -4.22884 0
M  V30 4747 C 460.632 1.28881 -3.11274 0
M  V30 4748 O 461.162 2.38135 -3.23503 0
M  V30 4749 N 459.368 1.1758 -2.6575 0
M  V30 4750 H 458.915 0.286769 -2.55999 0
M  V30 4751 H 458.873 2.00988 -2.41767 0
M  V30 4752 N 462.645 1.35699 -0.801477 0
M  V30 4753 C 463.592 2.29876 -0.206294 0
M  V30 4754 C 464.562 1.52565 0.656752 0
M  V30 4755 O 465.747 1.81024 0.602906 0
M  V30 4756 C 462.887 3.39052 0.643272 0
M  V30 4757 C 462 4.31335 -0.239644 0
M  V30 4758 C 461.135 5.27599 0.61744 0
M  V30 4759 C 460.174 6.11521 -0.26619 0
M  V30 4760 N 459.311 6.99938 0.550571 0
M  V30 4761 H 464.151 2.80187 -1.01484 0
M  V30 4762 H 461.688 1.37902 -0.511997 0
M  V30 4763 H 463.646 4.0101 1.15094 0
M  V30 4764 H 462.276 2.9003 1.41713 0
M  V30 4765 H 461.328 3.70426 -0.865381 0
M  V30 4766 H 462.64 4.90243 -0.919985 0
M  V30 4767 H 461.794 5.94906 1.19045 0
M  V30 4768 H 460.533 4.69176 1.33137 0
M  V30 4769 H 459.538 5.43166 -0.851507 0
M  V30 4770 H 460.763 6.72022 -0.9779 0
M  V30 4771 H 458.709 6.44008 1.24856 0
M  V30 4772 H 458.626 7.55966 -0.071832 0
M  V30 4773 H 459.894 7.71599 1.10702 0
M  V30 4774 N 464.123 0.554532 1.47522 0
M  V30 4775 C 465.055 -0.232106 2.28022 0
M  V30 4776 C 466.068 -0.881865 1.36847 0
M  V30 4777 O 467.257 -0.756168 1.61692 0
M  V30 4778 C 464.357 -1.34604 3.11022 0
M  V30 4779 C 463.53 -0.793582 4.30141 0
M  V30 4780 C 462.589 -1.79168 4.94758 0
M  V30 4781 O 461.615 -1.33886 5.5323 0
M  V30 4782 N 462.817 -3.12495 4.89211 0
M  V30 4783 H 465.582 0.458407 2.96173 0
M  V30 4784 H 463.143 0.390433 1.57122 0
M  V30 4785 H 465.135 -2.01243 3.51118 0
M  V30 4786 H 463.705 -1.93983 2.45131 0
M  V30 4787 H 462.925 0.0495025 3.94169 0
M  V30 4788 H 464.213 -0.403776 5.07195 0
M  V30 4789 H 463.611 -3.51931 4.42901 0
M  V30 4790 H 462.168 -3.74698 5.33333 0
M  V30 4791 N 465.601 -1.54893 0.290851 0
M  V30 4792 C 467.017 -1.59476 -0.0628432 0
M  V30 4793 C 467.217 -1.30795 -1.5328 0
M  V30 4794 O 466.273 -1.07644 -2.28406 0
M  V30 4795 C 467.586 -2.98928 0.325962 0
M  V30 4796 C 469.134 -3.11799 0.273882 0
M  V30 4797 C 469.609 -4.53544 0.637359 0
M  V30 4798 N 471.1 -4.59433 0.589507 0
M  V30 4799 C 471.835 -5.67164 0.84335 0
M  V30 4800 N 471.331 -6.82975 1.16263 0
M  V30 4801 N 473.124 -5.56786 0.771091 0
M  V30 4802 H 465.275 -1.71798 1.24896 0
M  V30 4803 H 467.538 -0.801879 0.505663 0
M  V30 4804 H 467.244 -3.24805 1.34887 0
M  V30 4805 H 467.118 -3.75793 -0.325441 0
M  V30 4806 H 469.505 -2.85677 -0.739765 0
M  V30 4807 H 469.586 -2.37112 0.959766 0
M  V30 4808 H 469.23 -4.80394 1.64877 0
M  V30 4809 H 469.16 -5.26553 -0.0704866 0
M  V30 4810 H 471.651 -3.76245 0.353252 0
M  V30 4811 H 471.964 -7.61048 1.34257 0
M  V30 4812 H 470.309 -6.84552 1.20057 0
M  V30 4813 H 473.5 -4.65187 0.521383 0
M  V30 4814 H 473.673 -6.40664 0.972295 0
M  V30 4815 N 467.08 -0.0183926 -1.57589 0
M  V30 4816 C 467.99 0.982943 -2.13015 0
M  V30 4817 C 469.006 1.36443 -1.07979 0
M  V30 4818 O 470.182 1.44802 -1.3998 0
M  V30 4819 C 467.247 2.25024 -2.63752 0
M  V30 4820 C 466.308 1.93018 -3.83461 0
M  V30 4821 C 465.541 3.13706 -4.31769 0
M  V30 4822 O 465.764 4.2601 -3.79305 0
M  V30 4823 O 464.698 2.96629 -5.23732 0
M  V30 4824 H 468.524 0.541709 -2.9883 0
M  V30 4825 H 466.109 0.201565 -1.48034 0
M  V30 4826 H 467.991 2.99441 -2.96502 0
M  V30 4827 H 466.666 2.68349 -1.81026 0
M  V30 4828 H 465.573 1.16019 -3.55655 0
M  V30 4829 H 466.906 1.54516 -4.67317 0
M  V30 4830 N 468.558 1.5553 0.254621 0
M  V30 4831 C 469.804 1.77262 0.985193 0
M  V30 4832 C 470.137 0.582286 1.85265 0
M  V30 4833 O 469.412 -0.419666 1.89919 0
M  V30 4834 C 469.695 3.0881 1.85225 0
M  V30 4835 C 469.548 4.38233 1.0135 0
M  V30 4836 C 470.867 3.3653 2.83612 0
M  V30 4837 H 467.986 0.644906 0.356742 0
M  V30 4838 H 470.628 1.88264 0.256236 0
M  V30 4839 H 468.778 2.99562 2.47376 0
M  V30 4840 H 470.45 4.59463 0.411269 0
M  V30 4841 H 468.693 4.32636 0.317574 0
M  V30 4842 H 469.364 5.26644 1.65379 0
M  V30 4843 H 471.84 3.45691 2.31596 0
M  V30 4844 H 470.716 4.29805 3.41407 0
M  V30 4845 H 470.977 2.57064 3.59681 0
M  V30 4846 N 470.036 -0.519951 1.48776 0
M  V30 4847 C 470.969 -1.64053 1.58625 0
M  V30 4848 C 471.947 -1.5664 0.43618 0
M  V30 4849 O 473.131 -1.76969 0.649159 0
M  V30 4850 C 470.258 -3.02497 1.52359 0
M  V30 4851 C 469.304 -3.28235 2.72331 0
M  V30 4852 S 470.137 -3.13414 4.34203 0
M  V30 4853 C 471.293 -4.54287 4.30551 0
M  V30 4854 H 471.526 -1.5545 2.53422 0
M  V30 4855 H 469.059 -0.703681 1.37433 0
M  V30 4856 H 471.017 -3.82336 1.4943 0
M  V30 4857 H 469.678 -3.08531 0.588824 0
M  V30 4858 H 468.871 -4.29256 2.64113 0
M  V30 4859 H 468.473 -2.56085 2.72574 0
M  V30 4860 H 470.765 -5.46006 4.01103 0
M  V30 4861 H 471.708 -4.67558 5.31785 0
M  V30 4862 H 472.116 -4.34079 3.60881 0
M  V30 4863 N 471.514 -1.37532 -0.769588 0
M  V30 4864 C 472.76 -1.34063 -1.52966 0
M  V30 4865 C 473.115 0.0737942 -1.92258 0
M  V30 4866 O 472.408 1.03291 -1.61374 0
M  V30 4867 C 472.602 -2.21558 -2.8044 0
M  V30 4868 C 472.431 -3.71367 -2.53608 0
M  V30 4869 C 471.201 -4.40464 -2.47628 0
M  V30 4870 C 473.399 -4.64177 -2.21459 0
M  V30 4871 N 471.381 -5.758 -2.12902 0
M  V30 4872 C 472.752 -5.87907 -1.9689 0
M  V30 4873 C 474.807 -4.52541 -2.07633 0
M  V30 4874 C 473.51 -7.01304 -1.59892 0
M  V30 4875 C 475.536 -5.65825 -1.72034 0
M  V30 4876 C 474.898 -6.88606 -1.48327 0
M  V30 4877 H 470.997 -0.545856 -0.559969 0
M  V30 4878 H 473.581 -1.72773 -0.897634 0
M  V30 4879 H 471.752 -1.85061 -3.41478 0
M  V30 4880 H 473.484 -2.09332 -3.46356 0
M  V30 4881 H 470.239 -3.93491 -2.63556 0
M  V30 4882 H 470.663 -6.47328 -1.9823 0
M  V30 4883 H 475.305 -3.58183 -2.24643 0
M  V30 4884 H 473.023 -7.95594 -1.4162 0
M  V30 4885 H 476.609 -5.58793 -1.61991 0
M  V30 4886 H 475.489 -7.74779 -1.21189 0
M  V30 4887 N 472.992 0.995999 -1.22138 0
M  V30 4888 C 473.924 2.08745 -0.946485 0
M  V30 4889 C 474.937 1.62633 0.0737356 0
M  V30 4890 O 476.126 1.77782 -0.159886 0
M  V30 4891 C 473.226 3.36516 -0.401305 0
M  V30 4892 C 472.399 4.11672 -1.47801 0
M  V30 4893 C 471.458 5.17728 -0.940461 0
M  V30 4894 O 470.484 5.45482 -1.62596 0
M  V30 4895 N 471.686 5.80005 0.239723 0
M  V30 4896 H 474.451 2.32908 -1.88611 0
M  V30 4897 H 472.012 1.16152 -1.12785 0
M  V30 4898 H 474.004 4.04691 -0.0270837 0
M  V30 4899 H 472.574 3.0944 0.443354 0
M  V30 4900 H 471.794 3.38171 -2.02568 0
M  V30 4901 H 473.082 4.58657 -2.20253 0
M  V30 4902 H 472.48 5.5982 0.813518 0
M  V30 4903 H 471.037 6.4943 0.555361 0
M  V30 4904 N 474.47 1.03057 1.19235 0
M  V30 4905 C 475.4 0.633497 2.24742 0
M  V30 4906 C 476.381 -0.358335 1.66283 0
M  V30 4907 O 477.566 -0.240676 1.92703 0
M  V30 4908 C 474.696 -0.0147648 3.47297 0
M  V30 4909 C 473.65 0.899527 4.18441 0
M  V30 4910 C 472.976 0.116281 5.34574 0
M  V30 4911 C 474.276 2.21404 4.73051 0
M  V30 4912 H 475.97 1.5155 2.58211 0
M  V30 4913 H 473.516 0.73014 1.24117 0
M  V30 4914 H 475.469 -0.304202 4.20301 0
M  V30 4915 H 474.193 -0.931577 3.13032 0
M  V30 4916 H 472.852 1.17319 3.47321 0
M  V30 4917 H 472.5 -0.802619 4.96555 0
M  V30 4918 H 472.2 0.725293 5.83107 0
M  V30 4919 H 473.724 -0.166376 6.10373 0
M  V30 4920 H 475.138 1.98601 5.37802 0
M  V30 4921 H 473.535 2.77512 5.32078 0
M  V30 4922 H 474.605 2.86752 3.91026 0
M  V30 4923 N 475.948 -1.35272 0.808662 0
M  V30 4924 C 477.188 -2.00534 0.395668 0
M  V30 4925 C 477.552 -1.62755 -1.01857 0
M  V30 4926 O 478.753 -2.20752 -1.53368 0
M  V30 4927 C 477.024 -3.52732 0.575771 0
M  V30 4928 S 478.583 -4.38067 0.253507 0
M  V30 4929 H 475.401 -0.694962 0.150165 0
M  V30 4930 H 478.003 -1.64823 1.05137 0
M  V30 4931 H 476.707 -3.77714 1.60499 0
M  V30 4932 H 476.238 -3.93285 -0.0951739 0
M  V30 4933 H 478.253 -4.87252 -0.938068 0
M  V30 4934 N 477.426 -0.562348 -1.47226 0
M  V30 4935 C 478.389 0.172056 -2.28553 0
M  V30 4936 C 479.389 0.837928 -1.37242 0
M  V30 4937 O 480.579 0.693001 -1.59822 0
M  V30 4938 C 477.711 1.25223 -3.17068 0
M  V30 4939 H 478.904 -0.542401 -2.94954 0
M  V30 4940 H 476.457 -0.319493 -1.53 0
M  V30 4941 H 477.192 1.99892 -2.55369 0
M  V30 4942 H 476.977 0.779515 -3.84273 0
M  V30 4943 H 478.467 1.76791 -3.78332 0
M  V30 4944 N 478.904 1.54736 -0.299062 0
M  V30 4945 C 480.153 1.99279 0.311549 0
M  V30 4946 C 480.466 1.19107 1.55154 0
M  V30 4947 O 481.672 1.53908 2.23662 0
M  V30 4948 C 480.128 3.54768 0.605632 0
M  V30 4949 C 479.736 4.43746 -0.615914 0
M  V30 4950 C 481.48 4.07841 1.17754 0
M  V30 4951 C 479.387 5.90663 -0.29509 0
M  V30 4952 H 478.317 0.744359 0.120187 0
M  V30 4953 H 480.968 1.78919 -0.407464 0
M  V30 4954 H 479.35 3.71021 1.38419 0
M  V30 4955 H 480.524 4.39267 -1.39218 0
M  V30 4956 H 478.839 4.01434 -1.10633 0
M  V30 4957 H 481.436 5.15174 1.43179 0
M  V30 4958 H 481.779 3.58324 2.11918 0
M  V30 4959 H 482.312 3.95123 0.460739 0
M  V30 4960 H 479.051 6.44325 -1.20524 0
M  V30 4961 H 478.571 5.98155 0.44394 0
M  V30 4962 H 480.25 6.46916 0.104048 0
M  V30 4963 N 480.382 0.0267497 1.57577 0
M  V30 4964 C 481.329 -0.955894 2.10075 0
M  V30 4965 C 482.299 -1.32453 1.00226 0
M  V30 4966 O 483.484 -1.41826 1.27632 0
M  V30 4967 C 480.624 -2.2338 2.6305 0
M  V30 4968 C 479.737 -1.92183 3.86898 0
M  V30 4969 C 478.872 -3.14251 4.28275 0
M  V30 4970 C 477.911 -2.78862 5.44888 0
M  V30 4971 N 477.048 -3.93548 5.81433 0
M  V30 4972 H 481.888 -0.501303 2.93753 0
M  V30 4973 H 479.425 -0.235847 1.45197 0
M  V30 4974 H 481.383 -2.98124 2.91853 0
M  V30 4975 H 480.013 -2.6646 1.82205 0
M  V30 4976 H 479.065 -1.07692 3.64838 0
M  V30 4977 H 480.377 -1.62117 4.7172 0
M  V30 4978 H 479.531 -3.97317 4.58502 0
M  V30 4979 H 478.27 -3.47476 3.42215 0
M  V30 4980 H 477.275 -1.94208 5.14357 0
M  V30 4981 H 478.5 -2.46855 6.32645 0
M  V30 4982 H 476.446 -4.2662 4.98328 0
M  V30 4983 H 476.363 -3.67098 6.6089 0
M  V30 4984 H 477.631 -4.77325 6.16264 0
M  V30 4985 N 481.861 -1.55662 -0.24637 0
M  V30 4986 C 483.11 -1.7672 -0.972254 0
M  V30 4987 C 483.423 -0.59078 -1.86465 0
M  V30 4988 O 484.629 -0.684391 -2.62732 0
M  V30 4989 C 483.085 -3.12869 -1.7788 0
M  V30 4990 C 482.693 -4.38161 -0.933768 0
M  V30 4991 C 484.437 -3.43265 -2.49738 0
M  V30 4992 C 482.344 -5.6534 -1.73623 0
M  V30 4993 H 481.274 -0.658795 -0.366749 0
M  V30 4994 H 483.925 -1.82092 -0.226902 0
M  V30 4995 H 482.307 -3.01606 -2.56612 0
M  V30 4996 H 483.481 -4.60413 -0.188736 0
M  V30 4997 H 481.796 -4.15102 -0.328488 0
M  V30 4998 H 484.393 -4.35501 -3.10231 0
M  V30 4999 H 484.736 -2.64614 -3.2138 0
M  V30 5000 H 485.269 -3.55746 -1.78016 0
M  V30 5001 H 482.008 -6.46814 -1.06354 0
M  V30 5002 H 481.528 -5.47188 -2.45653 0
M  V30 5003 H 483.207 -6.04616 -2.30323 0
M  V30 5004 N 483.339 0.512053 -1.4905 0
M  V30 5005 C 484.567 1.29116 -1.61669 0
M  V30 5006 C 484.982 1.86655 -0.283787 0
M  V30 5007 O 484.339 1.67293 0.729331 0
M  V30 5008 C 484.39 2.4293 -2.67707 0
M  V30 5009 O 484.111 1.87758 -3.95826 0
M  V30 5010 C 485.612 3.34476 -2.90931 0
M  V30 5011 H 482.832 0.392009 -0.544583 0
M  V30 5012 H 485.376 0.615881 -1.95006 0
M  V30 5013 H 483.531 3.06308 -2.37179 0
M  V30 5014 H 483.945 2.62393 -4.54148 0
M  V30 5015 H 485.419 4.10642 -3.68886 0
M  V30 5016 H 485.896 3.90801 -2.00427 0
M  V30 5017 H 486.502 2.76874 -3.22832 0
M  V30 5018 N 484.817 1.37938 0.762283 0
M  V30 5019 C 485.727 1.36681 1.90671 0
M  V30 5020 C 486.743 0.265078 1.71969 0
M  V30 5021 O 487.919 0.502055 1.95042 0
M  V30 5022 C 484.984 1.18211 3.25925 0
M  V30 5023 C 484.045 2.3811 3.57214 0
M  V30 5024 C 483.278 2.20512 4.86014 0
M  V30 5025 O 483.501 1.19429 5.57757 0
M  V30 5026 O 482.435 3.08911 5.16583 0
M  V30 5027 H 486.261 2.33091 1.94685 0
M  V30 5028 H 483.846 1.18767 0.906356 0
M  V30 5029 H 485.728 1.09937 4.06807 0
M  V30 5030 H 484.403 0.248807 3.22742 0
M  V30 5031 H 483.31 2.51958 2.76529 0
M  V30 5032 H 484.643 3.30041 3.65149 0
M  V30 5033 N 486.295 -0.989507 1.22664 0
M  V30 5034 C 487.258 -2.06183 1.00106 0
M  V30 5035 C 488.258 -1.60765 -0.0337726 0
M  V30 5036 O 489.448 -1.72989 0.205072 0
M  V30 5037 C 486.58 -3.37021 0.51279 0
M  V30 5038 H 487.773 -2.27629 1.95256 0
M  V30 5039 H 485.326 -1.16158 1.0458 0
M  V30 5040 H 486.061 -3.21261 -0.442917 0
M  V30 5041 H 485.846 -3.71323 1.25942 0
M  V30 5042 H 487.336 -4.1591 0.375315 0
M  V30 5043 N 487.773 -1.03688 -1.18687 0
M  V30 5044 C 489.022 -0.733235 -1.879 0
M  V30 5045 C 489.335 0.741745 -1.8099 0
M  V30 5046 O 490.541 1.15875 -2.4553 0
M  V30 5047 C 488.997 -1.26127 -3.37076 0
M  V30 5048 C 488.605 -2.76461 -3.52524 0
M  V30 5049 C 490.349 -1.03398 -4.11715 0
M  V30 5050 C 488.256 -3.22642 -4.95637 0
M  V30 5051 H 487.186 -0.270584 -0.703776 0
M  V30 5052 H 489.837 -1.25222 -1.34133 0
M  V30 5053 H 488.219 -0.670165 -3.90288 0
M  V30 5054 H 489.393 -3.41296 -3.09602 0
M  V30 5055 H 487.708 -2.97559 -2.91286 0
M  V30 5056 H 490.305 -1.3542 -5.17267 0
M  V30 5057 H 490.648 0.0289246 -4.1629 0
M  V30 5058 H 491.181 -1.5895 -3.64664 0
M  V30 5059 H 487.92 -4.28296 -4.96228 0
M  V30 5060 H 487.44 -2.62539 -5.39289 0
M  V30 5061 H 489.119 -3.16444 -5.64333 0
M  V30 5062 N 489.251 1.34841 -0.815825 0
M  V30 5063 C 490.183 2.28409 -0.190265 0
M  V30 5064 C 491.196 1.50705 0.615771 0
M  V30 5065 O 492.385 1.72822 0.446616 0
M  V30 5066 C 489.485 3.30441 0.752446 0
M  V30 5067 C 488.658 4.37399 -0.00922152 0
M  V30 5068 C 487.717 5.19234 0.853351 0
M  V30 5069 O 486.743 5.68404 0.300919 0
M  V30 5070 N 487.945 5.38248 2.17416 0
M  V30 5071 H 490.71 2.82732 -0.994114 0
M  V30 5072 H 488.271 1.47289 -0.672129 0
M  V30 5073 H 490.263 3.82084 1.33394 0
M  V30 5074 H 488.833 2.76565 1.45707 0
M  V30 5075 H 488.053 3.86567 -0.771979 0
M  V30 5076 H 489.341 5.05992 -0.533807 0
M  V30 5077 H 488.739 4.99961 2.6468 0
M  V30 5078 H 487.296 5.93035 2.70467 0
M  V30 5079 N 490.729 0.570148 1.46925 0
M  V30 5080 C 491.959 0.0561151 2.06524 0
M  V30 5081 C 492.367 -1.24874 1.42137 0
M  V30 5082 O 491.71 -1.76292 0.516417 0
M  V30 5083 C 491.772 -0.197035 3.5896 0
M  V30 5084 C 491.436 1.02033 4.45464 0
M  V30 5085 C 492.433 1.92921 4.82781 0
M  V30 5086 C 490.118 1.23864 4.86788 0
M  V30 5087 C 492.112 3.03999 5.60235 0
M  V30 5088 C 489.799 2.35249 5.64004 0
M  V30 5089 C 490.797 3.25146 6.0064 0
M  V30 5090 O 490.485 4.34598 6.76299 0
M  V30 5091 H 490.217 0.0487409 0.674241 0
M  V30 5092 H 492.771 0.786915 1.89728 0
M  V30 5093 H 491.001 -0.982299 3.74016 0
M  V30 5094 H 492.69 -0.658032 4.00531 0
M  V30 5095 H 493.456 1.77265 4.51444 0
M  V30 5096 H 489.335 0.54805 4.57731 0
M  V30 5097 H 492.879 3.74192 5.8875 0
M  V30 5098 H 488.776 2.50873 5.94755 0
M  V30 5099 H 489.544 4.32808 6.94708 0
M  V30 5100 N 492.207 -1.54576 0.307264 0
M  V30 5101 C 493.453 -2.0056 -0.300612 0
M  V30 5102 C 493.786 -1.1953 -1.53057 0
M  V30 5103 O 493.061 -0.27337 -1.92569 0
M  V30 5104 C 493.344 -3.54167 -0.650987 0
M  V30 5105 C 493.197 -4.45933 0.588539 0
M  V30 5106 C 494.516 -4.14645 -1.47506 0
M  V30 5107 H 491.635 -0.729075 -0.107788 0
M  V30 5108 H 494.277 -1.85286 0.420606 0
M  V30 5109 H 492.427 -3.67313 -1.26544 0
M  V30 5110 H 494.099 -4.44683 1.22697 0
M  V30 5111 H 492.342 -4.16274 1.22058 0
M  V30 5112 H 493.013 -5.51189 0.299153 0
M  V30 5113 H 495.489 -4.04973 -0.955821 0
M  V30 5114 H 494.365 -5.22269 -1.68899 0
M  V30 5115 H 494.626 -3.66921 -2.4662 0
M  V30 5116 N 493.685 -0.035106 -1.57561 0
M  V30 5117 C 494.931 0.64318 -1.92331 0
M  V30 5118 C 495.264 1.71434 -0.912368 0
M  V30 5119 O 494.539 1.94395 0.0640303 0
M  V30 5120 C 494.822 1.25411 -3.37556 0
M  V30 5121 C 494.675 0.192109 -4.4939 0
M  V30 5122 C 495.994 2.17041 -3.82859 0
M  V30 5123 H 493.113 0.232341 -0.699419 0
M  V30 5124 H 495.755 -0.0935889 -1.89769 0
M  V30 5125 H 493.905 1.88205 -3.39869 0
M  V30 5126 H 495.577 -0.438849 -4.59208 0
M  V30 5127 H 493.82 -0.481725 -4.31117 0
M  V30 5128 H 494.491 0.659292 -5.48049 0
M  V30 5129 H 496.967 1.64228 -3.8232 0
M  V30 5130 H 495.843 2.56738 -4.85157 0
M  V30 5131 H 496.104 3.06401 -3.18702 0
M  V30 5132 N 495.163 1.55791 0.238111 0
M  V30 5133 C 496.073 1.94196 1.31625 0
M  V30 5134 C 497.089 0.843545 1.52185 0
M  V30 5135 O 498.265 1.1457 1.65637 0
M  V30 5136 C 495.33 2.2365 2.64918 0
M  V30 5137 C 494.391 3.46971 2.52804 0
M  V30 5138 C 493.624 3.7501 3.79741 0
M  V30 5139 O 493.847 3.04982 4.82019 0
M  V30 5140 O 492.781 4.68525 3.77846 0
M  V30 5141 H 496.607 2.86044 1.02043 0
M  V30 5142 H 494.192 1.42786 0.439603 0
M  V30 5143 H 496.074 2.43863 3.4367 0
M  V30 5144 H 494.749 1.34979 2.94215 0
M  V30 5145 H 493.656 3.32055 1.72309 0
M  V30 5146 H 494.989 4.35971 2.28451 0
M  V30 5147 N 496.642 -0.504142 1.49319 0
M  V30 5148 C 497.889 -1.25846 1.58647 0
M  V30 5149 C 498.217 -1.92592 0.27177 0
M  V30 5150 O 497.472 -1.81167 -0.74007 0
M  V30 5151 C 497.771 -2.35021 2.69258 0
M  V30 5152 C 497.437 -1.85755 4.1086 0
M  V30 5153 C 496.099 -1.72038 4.49395 0
M  V30 5154 C 498.451 -1.48844 4.99495 0
M  V30 5155 C 495.779 -1.19783 5.74342 0
M  V30 5156 C 498.131 -0.980422 6.24956 0
M  V30 5157 C 496.795 -0.829622 6.62324 0
M  V30 5158 H 496.065 -0.460505 0.580531 0
M  V30 5159 H 498.712 -0.559716 1.83138 0
M  V30 5160 H 497.017 -3.10672 2.38726 0
M  V30 5161 H 498.714 -2.93083 2.73685 0
M  V30 5162 H 495.304 -1.9739 3.80441 0
M  V30 5163 H 499.488 -1.5829 4.70381 0
M  V30 5164 H 494.744 -1.06817 6.01997 0
M  V30 5165 H 498.918 -0.685608 6.93017 0
M  V30 5166 H 496.545 -0.42253 7.59025 0
M  V30 5167 N 498.12 -1.38341 -0.754957 0
M  V30 5168 C 499.083 -1.35262 -1.85032 0
M  V30 5169 C 500.083 -0.253393 -1.58791 0
M  V30 5170 O 501.273 -0.510205 -1.66561 0
M  V30 5171 C 498.405 -1.10544 -3.22479 0
M  V30 5172 H 499.598 -2.32712 -1.8917 0
M  V30 5173 H 497.151 -1.23614 -0.956515 0
M  V30 5174 H 497.886 -0.136952 -3.24011 0
M  V30 5175 H 497.671 -1.90127 -3.4292 0
M  V30 5176 H 499.161 -1.11082 -4.02555 0
M  V30 5177 N 499.598 0.982988 -1.23187 0
M  V30 5178 C 500.545 2.07491 -1.01075 0
M  V30 5179 C 501.515 1.65949 0.070905 0
M  V30 5180 O 502.7 1.90629 -0.0806822 0
M  V30 5181 C 499.84 3.39751 -0.605261 0
M  V30 5182 C 498.953 3.94578 -1.75876 0
M  V30 5183 C 498.088 5.15039 -1.3003 0
M  V30 5184 C 497.127 5.62027 -2.42472 0
M  V30 5185 N 496.264 6.73719 -1.97602 0
M  V30 5186 H 501.104 2.25739 -1.9454 0
M  V30 5187 H 498.641 1.10659 -0.969179 0
M  V30 5188 H 500.599 4.15719 -0.351279 0
M  V30 5189 H 499.229 3.21473 0.292382 0
M  V30 5190 H 498.281 3.1539 -2.12681 0
M  V30 5191 H 499.593 4.25422 -2.60418 0
M  V30 5192 H 498.747 5.9833 -1.00429 0
M  V30 5193 H 497.486 4.85843 -0.425216 0
M  V30 5194 H 496.491 4.77318 -2.7285 0
M  V30 5195 H 497.716 5.93244 -3.30512 0
M  V30 5196 H 495.662 6.46287 -1.1247 0
M  V30 5197 H 495.579 7.03934 -2.75705 0
M  V30 5198 H 496.847 7.6049 -1.71098 0
M  V30 5199 N 501.076 1.04316 1.18135 0
M  V30 5200 C 502.492 0.762858 1.40188 0
M  V30 5201 C 502.692 -0.646547 1.90846 0
M  V30 5202 O 501.748 -1.41036 2.0944 0
M  V30 5203 C 503.061 1.81106 2.40044 0
M  V30 5204 C 504.609 1.83226 2.53766 0
M  V30 5205 C 505.084 2.87044 3.56889 0
M  V30 5206 N 506.575 2.85951 3.64398 0
M  V30 5207 C 507.31 3.62932 4.43923 0
M  V30 5208 N 506.806 4.49672 5.27036 0
M  V30 5209 N 508.599 3.51411 4.38711 0
M  V30 5210 H 500.75 1.95264 0.835805 0
M  V30 5211 H 503.013 0.845017 0.429709 0
M  V30 5212 H 502.719 2.82214 2.09876 0
M  V30 5213 H 502.593 1.64529 3.39426 0
M  V30 5214 H 504.98 0.827869 2.8325 0
M  V30 5215 H 505.061 2.03879 1.54489 0
M  V30 5216 H 504.705 3.87663 3.28145 0
M  V30 5217 H 504.635 2.63645 4.5585 0
M  V30 5218 H 507.126 2.23051 3.05052 0
M  V30 5219 H 507.439 5.05116 5.84874 0
M  V30 5220 H 505.784 4.53738 5.26447 0
M  V30 5221 H 508.975 2.83047 3.72829 0
M  V30 5222 H 509.148 4.11654 5.00445 0
M  V30 5223 N 502.554 -1.34406 0.822964 0
M  V30 5224 C 503.803 -1.97542 0.407458 0
M  V30 5225 C 504.116 -1.65973 -1.035 0
M  V30 5226 O 505.322 -2.22598 -1.55442 0
M  V30 5227 C 503.778 -3.53463 0.677623 0
M  V30 5228 C 503.386 -3.93925 2.1337 0
M  V30 5229 C 505.13 -4.23229 0.328284 0
M  V30 5230 C 503.037 -5.42759 2.34876 0
M  V30 5231 H 501.967 -0.739207 0.148623 0
M  V30 5232 H 504.618 -1.53248 1.00932 0
M  V30 5233 H 503 -3.96 0.00558965 0
M  V30 5234 H 504.174 -3.62494 2.8449 0
M  V30 5235 H 502.489 -3.37097 2.44448 0
M  V30 5236 H 505.086 -5.32659 0.466794 0
M  V30 5237 H 505.429 -4.09899 -0.727224 0
M  V30 5238 H 505.962 -3.86169 0.954896 0
M  V30 5239 H 502.701 -5.61075 3.38932 0
M  V30 5240 H 502.221 -5.75704 1.68299 0
M  V30 5241 H 503.9 -6.0944 2.17236 0
M  V30 5242 N 504.032 -0.577932 -1.46621 0
M  V30 5243 C 505.309 0.00495287 -1.95599 0
M  V30 5244 C 505.689 1.46428 -1.5206 0
M  V30 5245 O 505.037 2.1517 -0.769046 0
M  V30 5246 C 505.247 -0.162114 -3.48623 0
M  V30 5247 C 506.595 -0.0274623 -4.24591 0
M  V30 5248 O 507.619 -0.0907067 -3.56084 0
M  V30 5249 O 506.478 0.1122 -5.46385 0
M  V30 5250 H 503.572 0.0525057 -0.825332 0
M  V30 5251 H 506.118 -0.645914 -1.56927 0
M  V30 5252 H 504.89 -1.17679 -3.73185 0
M  V30 5253 H 504.513 0.525407 -3.94113 0
M  V30 5254 N 505.51 1.54411 -0.315457 0
M  V30 5255 C 506.758 2.00023 0.288971 0
M  V30 5256 C 507.079 1.20529 1.5329 0
M  V30 5257 O 506.349 0.304986 1.93511 0
M  V30 5258 H 504.929 0.738891 0.109766 0
M  V30 5259 H 507.591 1.90094 -0.430129 0
M  V30 5260 H 506.687 3.07198 0.550999 0
M  V30 5261 N 506.988 0.0434614 1.5754 0
M  V30 5262 C 508.235 -0.632035 1.92384 0
M  V30 5263 C 508.563 -1.71304 0.921157 0
M  V30 5264 O 507.818 -1.95583 -0.067744 0
M  V30 5265 C 508.117 -1.2738 3.3393 0
M  V30 5266 C 507.783 -0.321757 4.49751 0
M  V30 5267 C 506.445 -0.0597611 4.81163 0
M  V30 5268 C 508.797 0.331158 5.20147 0
M  V30 5269 C 506.125 0.862715 5.80322 0
M  V30 5270 C 508.477 1.24178 6.20292 0
M  V30 5271 C 507.141 1.51252 6.50138 0
M  V30 5272 H 506.411 -0.231278 0.703983 0
M  V30 5273 H 509.058 0.108294 1.91194 0
M  V30 5274 H 507.363 -2.08921 3.3145 0
M  V30 5275 H 509.06 -1.80326 3.58167 0
M  V30 5276 H 505.65 -0.53614 4.25233 0
M  V30 5277 H 509.834 0.141826 4.96097 0
M  V30 5278 H 505.09 1.08003 6.01785 0
M  V30 5279 H 509.264 1.75381 6.73954 0
M  V30 5280 H 506.891 2.22897 7.26788 0
M  V30 5281 N 508.466 -1.55915 -0.229846 0
M  V30 5282 C 509.399 -1.86734 -1.3117 0
M  V30 5283 C 510.377 -0.723947 -1.45595 0
M  V30 5284 O 511.561 -0.971462 -1.61539 0
M  V30 5285 C 508.688 -2.06707 -2.68309 0
M  V30 5286 C 507.734 -3.2938 -2.70944 0
M  V30 5287 S 508.567 -4.85547 -2.25842 0
M  V30 5288 C 509.723 -5.08546 -3.64873 0
M  V30 5289 H 509.956 -2.78204 -1.04832 0
M  V30 5290 H 507.489 -1.48243 -0.431681 0
M  V30 5291 H 509.447 -2.18898 -3.47267 0
M  V30 5292 H 508.108 -1.16049 -2.91876 0
M  V30 5293 H 507.301 -3.40374 -3.71701 0
M  V30 5294 H 506.903 -3.16004 -2.00044 0
M  V30 5295 H 509.195 -4.96935 -4.60502 0
M  V30 5296 H 510.138 -6.10465 -3.58801 0
M  V30 5297 H 510.546 -4.36314 -3.58176 0
M  V30 5298 N 509.944 0.496216 -1.49584 0
M  V30 5299 C 510.854 1.62352 -1.69349 0
M  V30 5300 C 511.87 1.64184 -0.576147 0
M  V30 5301 O 513.046 1.82517 -0.85144 0
M  V30 5302 C 510.111 2.98698 -1.76013 0
M  V30 5303 C 509.172 3.07454 -2.99617 0
M  V30 5304 C 508.405 4.37296 -3.05953 0
M  V30 5305 O 508.628 5.2637 -2.19752 0
M  V30 5306 O 507.562 4.51124 -3.9846 0
M  V30 5307 H 511.388 1.48606 -2.64859 0
M  V30 5308 H 508.973 0.673022 -1.33382 0
M  V30 5309 H 510.855 3.79725 -1.82721 0
M  V30 5310 H 509.53 3.12696 -0.836828 0
M  V30 5311 H 508.437 2.25597 -2.98424 0
M  V30 5312 H 509.77 2.98385 -3.91443 0
M  V30 5313 N 511.423 1.38739 0.74761 0
M  V30 5314 C 512.353 1.39173 1.87492 0
M  V30 5315 C 513.334 0.256794 1.6815 0
M  V30 5316 O 514.519 0.460762 1.88655 0
M  V30 5317 C 511.649 1.22197 3.25093 0
M  V30 5318 C 510.603 2.32957 3.59047 0
M  V30 5319 C 509.929 2.01082 4.95449 0
M  V30 5320 C 511.229 3.75237 3.6331 0
M  V30 5321 H 512.923 2.3351 1.87386 0
M  V30 5322 H 510.469 1.12399 0.900134 0
M  V30 5323 H 512.422 1.21124 4.03617 0
M  V30 5324 H 511.146 0.243241 3.25693 0
M  V30 5325 H 509.805 2.33226 2.82845 0
M  V30 5326 H 509.453 1.01678 4.92616 0
M  V30 5327 H 509.153 2.75267 5.19136 0
M  V30 5328 H 510.677 2.01638 5.76346 0
M  V30 5329 H 512.091 3.76966 4.31937 0
M  V30 5330 H 510.488 4.48677 3.98509 0
M  V30 5331 H 511.558 4.07122 2.634 0
M  V30 5332 N 512.901 -0.976442 1.23707 0
M  V30 5333 C 514.141 -1.73331 1.08332 0
M  V30 5334 C 514.505 -1.88346 -0.372781 0
M  V30 5335 O 515.706 -2.60877 -0.647813 0
M  V30 5336 C 513.977 -3.09159 1.7932 0
M  V30 5337 S 515.536 -4.00376 1.79567 0
M  V30 5338 H 512.354 -0.596045 0.387622 0
M  V30 5339 H 514.956 -1.16625 1.56904 0
M  V30 5340 H 513.66 -2.95884 2.84395 0
M  V30 5341 H 513.191 -3.70932 1.31046 0
M  V30 5342 H 515.206 -4.88742 0.857094 0
M  V30 5343 N 514.379 -1.04941 -1.1758 0
M  V30 5344 C 515.311 -0.606174 -2.21039 0
M  V30 5345 C 516.324 0.328763 -1.59446 0
M  V30 5346 O 517.513 0.121895 -1.78083 0
M  V30 5347 C 514.613 0.133294 -3.38638 0
M  V30 5348 C 513.786 -0.811711 -4.29802 0
M  V30 5349 C 512.845 -0.113958 -5.26077 0
M  V30 5350 O 511.871 -0.747237 -5.64274 0
M  V30 5351 N 513.073 1.14953 -5.69004 0
M  V30 5352 H 515.838 -1.49606 -2.59689 0
M  V30 5353 H 513.399 -0.930997 -1.32454 0
M  V30 5354 H 515.391 0.610144 -4.00074 0
M  V30 5355 H 513.961 0.924816 -2.98607 0
M  V30 5356 H 513.181 -1.46824 -3.65837 0
M  V30 5357 H 514.469 -1.45326 -4.87604 0
M  V30 5358 H 513.867 1.68441 -5.40041 0
M  V30 5359 H 512.424 1.57049 -6.32597 0
M  V30 5360 N 515.857 1.33968 -0.830081 0
M  V30 5361 C 516.805 2.31301 -0.245435 0
M  V30 5362 C 517.799 1.57734 0.617762 0
M  V30 5363 O 519.005 1.72674 0.508303 0
M  V30 5364 H 515.38 0.749552 -0.0606316 0
M  V30 5365 H 517.351 2.78129 -1.08105 0
M  V30 5366 C 516.1 3.42961 0.572084 0
M  V30 5367 H 515.423 3.99714 -0.0828118 0
M  V30 5368 H 516.863 4.13286 0.94715 0
M  V30 5369 C 515.322 2.88043 1.74737 0
M  V30 5370 O 515.852 2.83508 2.8458 0
M  V30 5371 N 514.058 2.44768 1.56642 0
M  V30 5372 H 513.605 2.48656 0.672901 0
M  V30 5373 H 513.563 2.08375 2.3543 0
M  V30 5374 N 517.335 0.585699 1.46312 0
M  V30 5375 C 518.612 0.00542031 1.95599 0
M  V30 5376 C 518.992 -1.45619 1.52834 0
M  V30 5377 O 518.34 -2.14759 0.780446 0
M  V30 5378 C 518.55 0.180601 3.48532 0
M  V30 5379 C 519.898 0.049979 4.24571 0
M  V30 5380 O 520.922 0.109589 3.56031 0
M  V30 5381 O 519.781 -0.0832226 5.46437 0
M  V30 5382 H 516.875 -0.0481281 0.825598 0
M  V30 5383 H 519.421 0.654227 1.56582 0
M  V30 5384 H 518.193 1.19657 3.72556 0
M  V30 5385 H 517.816 -0.504498 3.94386 0
M  V30 5386 N 518.813 -1.54241 0.323641 0
M  V30 5387 C 519.745 -2.21836 -0.576311 0
M  V30 5388 C 520.758 -1.21837 -1.07979 0
M  V30 5389 O 521.947 -1.48306 -0.99336 0
M  V30 5390 C 519.047 -2.86923 -1.80356 0
M  V30 5391 C 518.22 -4.1306 -1.43875 0
M  V30 5392 C 517.279 -4.6174 -2.52353 0
M  V30 5393 O 516.305 -5.26421 -2.16494 0
M  V30 5394 N 517.507 -4.35974 -3.83284 0
M  V30 5395 H 520.272 -2.997 0.00247987 0
M  V30 5396 H 517.833 -1.61233 0.146848 0
M  V30 5397 H 519.825 -3.16414 -2.52318 0
M  V30 5398 H 518.395 -2.12765 -2.29019 0
M  V30 5399 H 517.615 -3.90334 -0.550752 0
M  V30 5400 H 518.903 -4.95148 -1.17071 0
M  V30 5401 H 518.301 -3.84203 -4.15216 0
M  V30 5402 H 516.858 -4.70119 -4.51477 0
M  V30 5403 N 520.291 -0.0518155 -1.57515 0
M  V30 5404 C 521.54 0.621286 -1.91893 0
M  V30 5405 C 521.853 1.71966 -0.932052 0
M  V30 5406 O 523.059 2.45096 -1.16791 0
M  V30 5407 C 521.515 1.15641 -3.40816 0
M  V30 5408 C 521.123 0.0901146 -4.47909 0
M  V30 5409 C 522.867 1.80472 -3.84227 0
M  V30 5410 C 520.774 0.638154 -5.87947 0
M  V30 5411 H 519.704 0.235835 -0.716169 0
M  V30 5412 H 522.355 -0.120809 -1.83102 0
M  V30 5413 H 520.737 1.95084 -3.44613 0
M  V30 5414 H 521.911 -0.683525 -4.55702 0
M  V30 5415 H 520.226 -0.460774 -4.13843 0
M  V30 5416 H 522.823 2.22471 -4.86221 0
M  V30 5417 H 523.166 2.65669 -3.20508 0
M  V30 5418 H 523.699 1.07683 -3.82948 0
M  V30 5419 H 520.438 -0.176202 -6.55263 0
M  V30 5420 H 519.958 1.37976 -5.83714 0
M  V30 5421 H 521.637 1.12085 -6.37217 0
M  V30 5422 N 521.769 1.56035 0.221574 0
M  V30 5423 C 523.015 1.79312 0.947372 0
M  V30 5424 C 523.348 0.621453 1.83988 0
M  V30 5425 O 522.623 -0.379287 1.90766 0
M  V30 5426 C 522.906 3.1267 1.78633 0
M  V30 5427 C 522.759 4.40284 0.920312 0
M  V30 5428 C 524.078 3.4247 2.7641 0
M  V30 5429 H 521.197 0.652328 0.342982 0
M  V30 5430 H 523.839 1.88765 0.216244 0
M  V30 5431 H 521.989 3.04741 2.40967 0
M  V30 5432 H 523.661 4.60232 0.313718 0
M  V30 5433 H 521.904 4.33212 0.225734 0
M  V30 5434 H 522.575 5.30033 1.54171 0
M  V30 5435 H 525.051 3.50526 2.24211 0
M  V30 5436 H 523.927 4.3695 3.32213 0
M  V30 5437 H 524.188 2.64635 3.54148 0
M  V30 5438 N 523.247 -0.488276 1.49845 0
M  V30 5439 C 524.177 -1.59675 1.70371 0
M  V30 5440 C 525.158 -1.60878 0.552473 0
M  V30 5441 O 526.343 -1.77417 0.78973 0
M  V30 5442 C 523.473 -2.98098 1.782 0
M  V30 5443 C 522.427 -3.11761 2.93239 0
M  V30 5444 C 521.753 -4.51661 2.86193 0
M  V30 5445 C 523.053 -2.90589 4.33999 0
M  V30 5446 H 524.747 -1.42752 2.63177 0
M  V30 5447 H 522.293 -0.685317 1.26647 0
M  V30 5448 H 524.246 -3.75555 1.91144 0
M  V30 5449 H 522.97 -3.16138 0.820018 0
M  V30 5450 H 521.629 -2.36732 2.79917 0
M  V30 5451 H 521.277 -4.66595 1.87877 0
M  V30 5452 H 520.977 -4.61742 3.63412 0
M  V30 5453 H 522.501 -5.31162 3.01163 0
M  V30 5454 H 523.915 -3.57807 4.47936 0
M  V30 5455 H 522.312 -3.1213 5.12538 0
M  V30 5456 H 523.382 -1.86595 4.4756 0
M  V30 5457 N 524.725 -1.39134 -0.740242 0
M  V30 5458 C 525.655 -1.40165 -1.86751 0
M  V30 5459 C 526.636 -0.265708 -1.68012 0
M  V30 5460 O 527.821 -0.47076 -1.88408 0
M  V30 5461 C 524.951 -1.2392 -3.2444 0
M  V30 5462 C 523.905 -2.34858 -3.57807 0
M  V30 5463 C 523.231 -2.03707 -4.94376 0
M  V30 5464 C 524.531 -3.77159 -3.61315 0
M  V30 5465 H 526.225 -2.345 -1.86145 0
M  V30 5466 H 523.771 -1.12875 -0.89416 0
M  V30 5467 H 525.724 -1.23263 -4.02969 0
M  V30 5468 H 524.448 -0.26051 -3.25559 0
M  V30 5469 H 523.107 -2.34723 -2.81604 0
M  V30 5470 H 522.755 -1.04289 -4.9207 0
M  V30 5471 H 522.455 -2.78016 -5.17669 0
M  V30 5472 H 523.979 -2.04691 -5.75268 0
M  V30 5473 H 525.393 -3.79252 -4.29931 0
M  V30 5474 H 523.79 -4.50784 -3.96124 0
M  V30 5475 H 524.86 -4.08513 -2.61238 0
M  V30 5476 N 526.204 0.969867 -1.24223 0
M  V30 5477 C 527.151 2.06407 -1.0327 0
M  V30 5478 C 528.121 1.66014 0.0533 0
M  V30 5479 O 529.306 1.90533 -0.100896 0
M  V30 5480 C 526.446 3.3909 -0.641262 0
M  V30 5481 C 525.559 3.9269 -1.80051 0
M  V30 5482 C 524.694 5.13631 -1.35486 0
M  V30 5483 C 523.733 5.59423 -2.48419 0
M  V30 5484 N 522.87 6.71586 -2.04737 0
M  V30 5485 H 527.71 2.23663 -1.96923 0
M  V30 5486 H 525.247 1.09624 -0.980862 0
M  V30 5487 H 527.205 4.15323 -0.395351 0
M  V30 5488 H 525.835 3.21765 0.258269 0
M  V30 5489 H 524.887 3.13116 -2.16014 0
M  V30 5490 H 526.199 4.22636 -2.64916 0
M  V30 5491 H 525.353 5.97231 -1.0677 0
M  V30 5492 H 524.092 4.85364 -0.476722 0
M  V30 5493 H 523.097 4.74398 -2.77897 0
M  V30 5494 H 524.322 5.89705 -3.36786 0
M  V30 5495 H 522.268 6.45058 -1.19318 0
M  V30 5496 H 522.185 7.0097 -2.83156 0
M  V30 5497 H 523.453 7.58633 -1.79154 0
M  V30 5498 N 527.682 1.05563 1.17022 0
M  V30 5499 C 528.645 0.664098 2.19368 0
M  V30 5500 C 529.645 -0.286358 1.5823 0
M  V30 5501 O 530.835 -0.069728 1.7406 0
M  V30 5502 C 527.967 -0.0239932 3.40892 0
M  V30 5503 H 529.16 1.57 2.55521 0
M  V30 5504 H 526.713 0.849964 1.31169 0
M  V30 5505 H 527.448 -0.942988 3.10287 0
M  V30 5506 H 527.233 0.659351 3.86516 0
M  V30 5507 H 528.723 -0.283909 4.16634 0
M  V30 5508 N 529.16 -1.33526 0.837174 0
M  V30 5509 C 530.408 -1.97446 0.431211 0
M  V30 5510 C 530.729 -1.6665 -1.01255 0
M  V30 5511 O 529.999 -0.964559 -1.70508 0
M  V30 5512 H 528.579 -0.73043 0.156463 0
M  V30 5513 H 531.241 -1.62918 1.06976 0
M  V30 5514 H 530.337 -3.07001 0.561877 0
M  V30 5515 N 530.638 -0.59345 -1.46 0
M  V30 5516 C 531.863 -0.0872365 -2.07216 0
M  V30 5517 C 532.288 1.2131 -1.43755 0
M  V30 5518 O 531.646 1.73528 -0.525152 0
M  V30 5519 C 531.694 0.0538197 -3.6056 0
M  V30 5520 O 530.798 1.10765 -3.97247 0
M  V30 5521 H 530.139 -0.0676598 -0.660544 0
M  V30 5522 H 532.669 -0.819445 -1.87473 0
M  V30 5523 H 532.679 0.256567 -4.07193 0
M  V30 5524 H 531.354 -0.895739 -4.0614 0
M  V30 5525 H 529.931 0.882501 -3.62307 0
M  V30 5526 N 532.116 1.54067 -0.331816 0
M  V30 5527 C 533.046 2.27569 0.522932 0
M  V30 5528 C 534.027 1.28679 1.11247 0
M  V30 5529 O 535.212 1.57504 1.13605 0
M  V30 5530 C 532.342 3.0397 1.67987 0
M  V30 5531 C 531.296 4.10267 1.21924 0
M  V30 5532 C 530.622 4.74555 2.46377 0
M  V30 5533 C 531.922 5.21268 0.32815 0
M  V30 5534 H 533.616 2.99264 -0.0901977 0
M  V30 5535 H 531.162 1.4393 -0.044821 0
M  V30 5536 H 533.115 3.54123 2.28418 0
M  V30 5537 H 531.839 2.29906 2.31971 0
M  V30 5538 H 530.498 3.61009 0.637809 0
M  V30 5539 H 530.146 3.97098 3.08743 0
M  V30 5540 H 529.846 5.46363 2.16243 0
M  V30 5541 H 531.37 5.27487 3.07555 0
M  V30 5542 H 532.784 5.67128 0.838978 0
M  V30 5543 H 531.181 5.99982 0.119228 0
M  V30 5544 H 532.251 4.80673 -0.638839 0
M  V30 5545 N 533.594 0.0601682 1.57485 0
M  V30 5546 C 534.504 -0.926121 2.15546 0
M  V30 5547 C 535.52 -1.33532 1.11558 0
M  V30 5548 O 536.696 -1.4104 1.4377 0
M  V30 5549 C 533.761 -2.17952 2.69625 0
M  V30 5550 C 532.822 -1.82783 3.88444 0
M  V30 5551 C 532.055 -3.02148 4.39935 0
M  V30 5552 O 532.278 -4.15803 3.90466 0
M  V30 5553 O 531.212 -2.82639 5.31412 0
M  V30 5554 H 535.038 -0.462289 3.00161 0
M  V30 5555 H 532.623 -0.162246 1.48516 0
M  V30 5556 H 534.505 -2.91474 3.04337 0
M  V30 5557 H 533.18 -2.63456 1.88077 0
M  V30 5558 H 532.087 -1.06549 3.58606 0
M  V30 5559 H 533.42 -1.42072 4.7125 0
M  V30 5560 N 535.072 -1.5615 -0.213296 0
M  V30 5561 C 536.318 -1.79812 -0.937849 0
M  V30 5562 C 536.651 -0.631201 -1.83656 0
M  V30 5563 O 535.926 0.369165 -1.90964 0
M  V30 5564 C 536.209 -3.13613 -1.76972 0
M  V30 5565 C 536.062 -4.40766 -0.89695 0
M  V30 5566 C 537.381 -3.43931 -2.7459 0
M  V30 5567 H 534.5 -0.654138 -0.339518 0
M  V30 5568 H 537.142 -1.88877 -0.20623 0
M  V30 5569 H 535.292 -3.06015 -2.39347 0
M  V30 5570 H 536.964 -4.60392 -0.289306 0
M  V30 5571 H 535.207 -4.33326 -0.202756 0
M  V30 5572 H 535.878 -5.30843 -1.51358 0
M  V30 5573 H 538.354 -3.5171 -2.22349 0
M  V30 5574 H 537.23 -4.38706 -3.29891 0
M  V30 5575 H 537.491 -2.6651 -3.52739 0
M  V30 5576 N 536.55 0.480323 -1.50102 0
M  V30 5577 C 537.796 1.23489 -1.60867 0
M  V30 5578 C 538.129 1.91809 -0.303827 0
M  V30 5579 O 537.404 1.81694 0.694092 0
M  V30 5580 C 537.687 2.28578 -2.78252 0
M  V30 5581 C 537.54 1.64624 -4.18592 0
M  V30 5582 C 538.859 3.2997 -2.91218 0
M  V30 5583 H 535.978 0.447605 -0.585507 0
M  V30 5584 H 538.62 0.530005 -1.82458 0
M  V30 5585 H 536.77 2.88697 -2.59974 0
M  V30 5586 H 538.442 1.08173 -4.48438 0
M  V30 5587 H 536.685 0.949645 -4.23278 0
M  V30 5588 H 537.356 2.40946 -4.96638 0
M  V30 5589 H 539.832 2.79864 -3.07921 0
M  V30 5590 H 538.708 4.00839 -3.74993 0
M  V30 5591 H 538.969 3.93541 -2.0144 0
M  V30 5592 N 538.028 1.39524 0.732853 0
M  V30 5593 C 539.275 1.36865 1.49246 0
M  V30 5594 C 539.603 -0.0347118 1.94469 0
M  V30 5595 O 538.858 -1.01596 1.67262 0
M  V30 5596 C 539.157 2.28916 2.74468 0
M  V30 5597 C 538.823 3.76506 2.481 0
M  V30 5598 C 537.485 4.16721 2.40619 0
M  V30 5599 C 539.837 4.69846 2.25598 0
M  V30 5600 C 537.165 5.48334 2.08679 0
M  V30 5601 C 539.517 6.01739 1.95174 0
M  V30 5602 C 538.181 6.41015 1.86163 0
M  V30 5603 H 537.451 0.500824 0.546129 0
M  V30 5604 H 540.098 1.72047 0.840958 0
M  V30 5605 H 538.403 1.86859 3.4437 0
M  V30 5606 H 540.1 2.2415 3.32502 0
M  V30 5607 H 536.69 3.44635 2.54803 0
M  V30 5608 H 540.874 4.39608 2.30344 0
M  V30 5609 H 536.13 5.77685 2.00226 0
M  V30 5610 H 540.304 6.73591 1.76771 0
M  V30 5611 H 537.931 7.42917 1.61179 0
M  V30 5612 N 539.506 -0.963266 1.24736 0
M  V30 5613 C 540.755 -1.70115 1.08369 0
M  V30 5614 C 541.068 -1.91939 -0.376688 0
M  V30 5615 O 542.274 -2.6334 -0.660624 0
M  V30 5616 C 540.73 -3.06218 1.89099 0
M  V30 5617 C 540.338 -2.92221 3.39574 0
M  V30 5618 C 542.082 -3.83848 1.81275 0
M  V30 5619 C 539.989 -4.23662 4.12631 0
M  V30 5620 H 538.919 -0.637944 0.401924 0
M  V30 5621 H 541.57 -1.07304 1.48856 0
M  V30 5622 H 539.952 -3.69884 1.41429 0
M  V30 5623 H 541.126 -2.37541 3.94856 0
M  V30 5624 H 539.441 -2.28054 3.48397 0
M  V30 5625 H 542.038 -4.81188 2.33158 0
M  V30 5626 H 542.381 -4.08949 0.778895 0
M  V30 5627 H 542.914 -3.26918 2.26649 0
M  V30 5628 H 539.653 -4.03753 5.16395 0
M  V30 5629 H 539.173 -4.78141 3.62135 0
M  V30 5630 H 540.852 -4.92256 4.19873 0
M  V30 5631 N 540.985 -1.06182 -1.16461 0
M  V30 5632 C 542.401 -0.785065 -1.38956 0
M  V30 5633 C 542.601 0.616103 -1.9185 0
M  V30 5634 O 541.657 1.37686 -2.11657 0
M  V30 5635 C 542.97 -1.84902 -2.37132 0
M  V30 5636 C 544.518 -1.8724 -2.50819 0
M  V30 5637 C 544.993 -2.92686 -3.52277 0
M  V30 5638 N 546.484 -2.91712 -3.59803 0
M  V30 5639 C 547.219 -3.69949 -4.38093 0
M  V30 5640 N 546.715 -4.58 -5.19815 0
M  V30 5641 N 548.508 -3.58346 -4.33064 0
M  V30 5642 H 540.659 -1.96569 -0.804634 0
M  V30 5643 H 542.922 -0.851747 -0.416211 0
M  V30 5644 H 542.628 -2.85518 -2.0536 0
M  V30 5645 H 542.502 -1.69908 -3.36766 0
M  V30 5646 H 544.889 -0.872827 -2.81897 0
M  V30 5647 H 544.97 -2.06311 -1.51226 0
M  V30 5648 H 544.614 -3.92835 -3.21937 0
M  V30 5649 H 544.544 -2.70864 -4.51598 0
M  V30 5650 H 547.035 -2.27876 -3.01464 0
M  V30 5651 H 547.348 -5.14357 -5.76764 0
M  V30 5652 H 545.693 -4.62056 -5.19162 0
M  V30 5653 H 548.884 -2.88943 -3.68279 0
M  V30 5654 H 549.057 -4.19563 -4.93833 0
M  V30 5655 N 542.463 1.3308 -0.844243 0
M  V30 5656 C 543.396 2.27075 -0.226279 0
M  V30 5657 C 544.374 1.49911 0.629716 0
M  V30 5658 O 545.558 1.79068 0.588803 0
M  V30 5659 C 542.685 3.31767 0.681782 0
M  V30 5660 C 541.731 4.26384 -0.0994565 0
M  V30 5661 S 542.564 5.15186 -1.46094 0
M  V30 5662 C 543.72 6.23405 -0.558319 0
M  V30 5663 H 543.953 2.79141 -1.02312 0
M  V30 5664 H 541.486 1.40452 -0.641292 0
M  V30 5665 H 543.444 3.92566 1.20008 0
M  V30 5666 H 542.105 2.78507 1.45234 0
M  V30 5667 H 541.298 5.00514 0.591733 0
M  V30 5668 H 540.9 3.69949 -0.548991 0
M  V30 5669 H 543.192 6.77069 0.241672 0
M  V30 5670 H 544.135 6.96619 -1.26995 0
M  V30 5671 H 544.543 5.64333 -0.13728 0
M  V30 5672 N 543.941 0.601185 1.45683 0
M  V30 5673 C 545.181 0.0968037 2.04171 0
M  V30 5674 C 545.545 -1.2466 1.46027 0
M  V30 5675 O 546.746 -1.84132 1.95829 0
M  V30 5676 C 545.017 0.051384 3.57363 0
M  V30 5677 S 546.576 -0.392737 4.37039 0
M  V30 5678 H 543.394 0.0464504 0.709481 0
M  V30 5679 H 545.996 0.797846 1.78479 0
M  V30 5680 H 544.7 1.03274 3.97193 0
M  V30 5681 H 544.231 -0.671853 3.87621 0
M  V30 5682 H 546.246 -1.64364 4.68187 0
M  V30 5683 N 545.419 -1.53889 0.339982 0
M  V30 5684 C 546.835 -1.59595 -0.0120752 0
M  V30 5685 C 547.035 -1.35605 -1.49042 0
M  V30 5686 O 546.091 -1.14856 -2.24865 0
M  V30 5687 C 547.404 -2.9774 0.420898 0
M  V30 5688 C 548.952 -3.1077 0.37294 0
M  V30 5689 C 549.427 -4.51286 0.781327 0
M  V30 5690 N 550.918 -4.57325 0.735374 0
M  V30 5691 C 551.653 -5.64194 1.02336 0
M  V30 5692 N 551.149 -6.7893 1.37933 0
M  V30 5693 N 552.942 -5.54051 0.947838 0
M  V30 5694 H 545.093 -1.67738 1.30299 0
M  V30 5695 H 547.356 -0.785385 0.530918 0
M  V30 5696 H 547.062 -3.20349 1.45152 0
M  V30 5697 H 546.936 -3.76639 -0.205721 0
M  V30 5698 H 549.323 -2.87886 -0.648505 0
M  V30 5699 H 549.404 -2.33939 1.03472 0
M  V30 5700 H 549.048 -4.74905 1.80077 0
M  V30 5701 H 548.978 -5.26511 0.0970679 0
M  V30 5702 H 551.469 -3.74931 0.472773 0
M  V30 5703 H 551.782 -7.56392 1.58402 0
M  V30 5704 H 550.127 -6.80386 1.41774 0
M  V30 5705 H 553.318 -4.63293 0.669115 0
M  V30 5706 H 553.491 -6.37246 1.17563 0
M  V30 5707 N 546.897 -0.0685191 -1.57451 0
M  V30 5708 C 547.86 0.885173 -2.11417 0
M  V30 5709 C 548.86 1.22853 -1.03748 0
M  V30 5710 O 550.05 1.16235 -1.2975 0
M  V30 5711 C 547.182 2.18964 -2.61281 0
M  V30 5712 H 548.375 0.417034 -2.96986 0
M  V30 5713 H 545.928 0.18014 -1.55258 0
M  V30 5714 H 546.663 2.70321 -1.79156 0
M  V30 5715 H 546.448 1.9534 -3.39977 0
M  V30 5716 H 547.938 2.87242 -3.0312 0
M  V30 5717 N 548.375 1.56261 0.205012 0
M  V30 5718 C 549.622 1.8004 0.926927 0
M  V30 5719 C 549.95 0.640086 1.83666 0
M  V30 5720 O 549.205 -0.374702 1.92079 0
M  V30 5721 C 549.504 3.09722 1.78345 0
M  V30 5722 C 549.17 4.39082 1.02555 0
M  V30 5723 C 547.832 4.74226 0.816256 0
M  V30 5724 C 550.184 5.18877 0.491559 0
M  V30 5725 C 547.512 5.86668 0.0613287 0
M  V30 5726 C 549.864 6.32105 -0.250107 0
M  V30 5727 C 548.528 6.6584 -0.470508 0
M  V30 5728 H 547.798 0.658812 0.339187 0
M  V30 5729 H 550.445 1.90515 0.19395 0
M  V30 5730 H 548.75 2.9444 2.5848 0
M  V30 5731 H 550.447 3.25324 2.34446 0
M  V30 5732 H 547.037 4.11497 1.19868 0
M  V30 5733 H 551.221 4.92147 0.640684 0
M  V30 5734 H 546.477 6.11283 -0.119501 0
M  V30 5735 H 550.651 6.93157 -0.671307 0
M  V30 5736 H 548.278 7.5281 -1.05739 0
M  V30 5737 N 549.853 -0.472356 1.50355 0
M  V30 5738 C 551.13 -1.23356 1.51798 0
M  V30 5739 C 551.51 -2.09469 0.26193 0
M  V30 5740 O 550.858 -2.15677 -0.754691 0
M  V30 5741 C 551.068 -2.06568 2.81302 0
M  V30 5742 C 552.416 -2.648 3.31913 0
M  V30 5743 O 553.44 -2.16812 2.82614 0
M  V30 5744 O 552.299 -3.52231 4.17846 0
M  V30 5745 H 549.393 -0.559707 0.608816 0
M  V30 5746 H 551.939 -0.48428 1.62643 0
M  V30 5747 H 550.711 -1.43103 3.64194 0
M  V30 5748 H 550.334 -2.88633 2.73454 0
M  V30 5749 N 551.331 -1.39911 -0.725443 0
M  V30 5750 C 552.556 -1.41137 -1.5197 0
M  V30 5751 C 552.981 -0.010262 -1.88097 0
M  V30 5752 O 552.339 0.979184 -1.52583 0
M  V30 5753 C 552.387 -2.2994 -2.77777 0
M  V30 5754 O 551.491 -1.73586 -3.74088 0
M  V30 5755 H 550.832 -0.480219 -0.458569 0
M  V30 5756 H 553.362 -1.84023 -0.894249 0
M  V30 5757 H 553.372 -2.44785 -3.26411 0
M  V30 5758 H 552.047 -3.31759 -2.50816 0
M  V30 5759 H 550.624 -1.68035 -3.32894 0
M  V30 5760 N 552.809 0.956637 -1.25245 0
M  V30 5761 C 553.741 2.05628 -1.01242 0
M  V30 5762 C 554.754 1.62785 0.0219579 0
M  V30 5763 O 555.943 1.77184 -0.216365 0
M  V30 5764 C 553.043 3.35069 -0.508161 0
M  V30 5765 C 552.216 4.06761 -1.60823 0
M  V30 5766 C 551.275 5.14473 -1.1047 0
M  V30 5767 O 550.301 5.40033 -1.79868 0
M  V30 5768 N 551.503 5.80474 0.0550773 0
M  V30 5769 H 554.268 2.2679 -1.95925 0
M  V30 5770 H 551.829 1.12505 -1.16423 0
M  V30 5771 H 553.821 4.044 -0.155819 0
M  V30 5772 H 552.391 3.10694 0.344683 0
M  V30 5773 H 551.611 3.31555 -2.13224 0
M  V30 5774 H 552.899 4.51418 -2.34733 0
M  V30 5775 H 552.297 5.62125 0.635004 0
M  V30 5776 H 550.854 6.50868 0.348469 0
M  V30 5777 N 554.287 1.06798 1.15896 0
M  V30 5778 C 555.235 0.677525 2.22514 0
M  V30 5779 C 556.229 -0.308994 1.66558 0
M  V30 5780 O 557.435 -0.173308 1.79164 0
M  V30 5781 H 553.81 0.200994 0.724642 0
M  V30 5782 H 555.781 1.5865 2.52731 0
M  V30 5783 C 554.53 0.0854153 3.47595 0
M  V30 5784 H 553.853 0.835645 3.90969 0
M  V30 5785 H 555.293 -0.150199 4.23734 0
M  V30 5786 C 553.752 -1.1724 3.15843 0
M  V30 5787 O 554.282 -2.25965 3.32119 0
M  V30 5788 N 552.488 -1.07636 2.69931 0
M  V30 5789 H 552.035 -0.191559 2.56887 0
M  V30 5790 H 551.993 -1.91876 2.4906 0
M  V30 5791 N 555.766 -1.3263 0.851289 0
M  V30 5792 C 556.714 -2.30882 0.282202 0
M  V30 5793 C 557.708 -1.58697 -0.592589 0
M  V30 5794 O 558.914 -1.73461 -0.480768 0
M  V30 5795 H 555.289 -0.748492 0.0725487 0
M  V30 5796 H 557.26 -2.76374 1.12516 0
M  V30 5797 C 556.009 -3.43828 -0.517449 0
M  V30 5798 H 555.332 -3.99532 0.146392 0
M  V30 5799 H 556.772 -4.1474 -0.88128 0
M  V30 5800 C 555.231 -2.90786 -1.70133 0
M  V30 5801 O 555.761 -2.88 -2.80034 0
M  V30 5802 N 553.967 -2.4723 -1.52728 0
M  V30 5803 H 553.514 -2.49695 -0.633257 0
M  V30 5804 H 553.472 -2.12094 -2.32085 0
M  V30 5805 N 557.244 -0.608902 -1.45362 0
M  V30 5806 C 558.472 -0.111013 -2.06602 0
M  V30 5807 C 558.887 1.20516 -1.45332 0
M  V30 5808 O 558.244 1.73437 -0.567978 0
M  V30 5809 C 558.295 0.033688 -3.61484 0
M  V30 5810 O 558.016 -1.23041 -4.20467 0
M  V30 5811 C 559.517 0.562882 -4.39712 0
M  V30 5812 H 556.737 -0.0694453 -0.667397 0
M  V30 5813 H 559.281 -0.837008 -1.86586 0
M  V30 5814 H 557.436 0.710016 -3.80838 0
M  V30 5815 H 557.85 -1.06094 -5.13658 0
M  V30 5816 H 559.324 0.613213 -5.48583 0
M  V30 5817 H 559.801 1.58543 -4.09586 0
M  V30 5818 H 560.407 -0.0794454 -4.25226 0
M  V30 5819 N 558.722 1.53707 -0.348139 0
M  V30 5820 C 559.968 2.01286 0.247332 0
M  V30 5821 C 560.301 1.23546 1.49834 0
M  V30 5822 O 559.576 0.324331 1.91777 0
M  V30 5823 C 559.859 3.55768 0.556858 0
M  V30 5824 C 559.712 4.44216 -0.706564 0
M  V30 5825 C 561.031 4.1841 1.3646 0
M  V30 5826 H 558.15 0.731677 0.0884201 0
M  V30 5827 H 560.792 1.84106 -0.469584 0
M  V30 5828 H 558.942 3.70539 1.16761 0
M  V30 5829 H 560.614 4.41274 -1.34444 0
M  V30 5830 H 558.857 4.12892 -1.33052 0
M  V30 5831 H 559.528 5.50202 -0.445186 0
M  V30 5832 H 562.004 4.07365 0.848113 0
M  V30 5833 H 560.88 5.26563 1.54992 0
M  V30 5834 H 561.141 3.7333 2.36805 0
M  V30 5835 N 560.2 0.0768682 1.57412 0
M  V30 5836 C 561.43 -0.5991 1.97723 0
M  V30 5837 C 561.838 -1.63378 0.954166 0
M  V30 5838 O 561.181 -1.83578 -0.0668706 0
M  V30 5839 C 561.243 -1.32078 3.34358 0
M  V30 5840 C 560.907 -0.438985 4.54887 0
M  V30 5841 C 561.904 0.305492 5.19002 0
M  V30 5842 C 559.589 -0.362378 5.00991 0
M  V30 5843 C 561.583 1.11475 6.27576 0
M  V30 5844 C 559.27 0.450543 6.09437 0
M  V30 5845 C 560.268 1.18777 6.72593 0
M  V30 5846 O 559.956 1.98727 7.7895 0
M  V30 5847 H 559.688 -0.166725 0.655117 0
M  V30 5848 H 562.242 0.147337 2.04871 0
M  V30 5849 H 560.472 -2.1134 3.2384 0
M  V30 5850 H 562.161 -1.88949 3.5924 0
M  V30 5851 H 562.927 0.25593 4.84324 0
M  V30 5852 H 558.806 -0.925832 4.51608 0
M  V30 5853 H 562.35 1.69068 6.76803 0
M  V30 5854 H 558.247 0.501651 6.43548 0
M  V30 5855 H 559.015 1.91214 7.95851 0
M  V30 5856 N 561.678 -1.56367 -0.196722 0
M  V30 5857 C 562.925 -1.80529 -0.917366 0
M  V30 5858 C 563.253 -0.649817 -1.83324 0
M  V30 5859 O 562.508 0.36451 -1.92275 0
M  V30 5860 C 562.807 -3.10663 -1.767 0
M  V30 5861 C 562.473 -4.3962 -1.00225 0
M  V30 5862 C 561.135 -4.74653 -0.791095 0
M  V30 5863 C 563.487 -5.1913 -0.464035 0
M  V30 5864 C 560.815 -5.86692 -0.0302155 0
M  V30 5865 C 563.167 -6.31964 0.283625 0
M  V30 5866 C 561.831 -6.65581 0.505813 0
M  V30 5867 H 561.101 -0.660602 -0.335688 0
M  V30 5868 H 563.748 -1.90615 -0.183844 0
M  V30 5869 H 562.053 -2.95807 -2.56915 0
M  V30 5870 H 563.75 -3.26563 -2.32718 0
M  V30 5871 H 560.34 -4.12127 -1.17684 0
M  V30 5872 H 564.524 -4.9248 -0.614575 0
M  V30 5873 H 559.78 -6.11211 0.151917 0
M  V30 5874 H 563.954 -6.92791 0.708057 0
M  V30 5875 H 561.581 -7.52239 1.0973 0
M  V30 5876 N 563.156 0.464375 -1.50603 0
M  V30 5877 C 564.433 1.22549 -1.5245 0
M  V30 5878 C 564.813 2.09327 -0.273035 0
M  V30 5879 O 564.161 2.16074 0.743242 0
M  V30 5880 C 564.371 2.05074 -2.82393 0
M  V30 5881 C 565.719 2.63036 -3.33313 0
M  V30 5882 O 566.743 2.1531 -2.8376 0
M  V30 5883 O 565.602 3.5001 -4.19709 0
M  V30 5884 H 562.696 0.556471 -0.611775 0
M  V30 5885 H 565.242 0.475648 -1.62898 0
M  V30 5886 H 564.014 1.41169 -3.64948 0
M  V30 5887 H 563.637 2.87179 -2.7498 0
M  V30 5888 N 564.634 1.40294 0.718013 0
M  V30 5889 C 565.882 1.38167 1.47494 0
M  V30 5890 C 566.203 -0.01607 1.94993 0
M  V30 5891 O 565.473 -0.970396 1.70177 0
M  V30 5892 H 564.053 0.508505 0.547203 0
M  V30 5893 H 566.715 1.75324 0.851322 0
M  V30 5894 H 565.811 2.05503 2.34894 0
M  V30 5895 N 566.112 -0.949982 1.2575 0
M  V30 5896 C 567.059 -2.04738 1.06541 0
M  V30 5897 C 568.029 -1.66078 -0.0268818 0
M  V30 5898 O 569.214 -1.90348 0.131196 0
M  V30 5899 C 566.354 -3.38027 0.695127 0
M  V30 5900 C 565.467 -3.89776 1.86276 0
M  V30 5901 C 564.602 -5.11411 1.4364 0
M  V30 5902 C 563.641 -5.554 2.57287 0
M  V30 5903 N 562.778 -6.68244 2.15395 0
M  V30 5904 H 567.618 -2.20502 2.00457 0
M  V30 5905 H 565.155 -1.0805 0.998178 0
M  V30 5906 H 567.113 -4.14641 0.461375 0
M  V30 5907 H 565.743 -3.22135 -0.207046 0
M  V30 5908 H 564.795 -3.0964 2.20969 0
M  V30 5909 H 566.107 -4.18368 2.71606 0
M  V30 5910 H 565.261 -5.95457 1.16257 0
M  V30 5911 H 564 -4.84545 0.553879 0
M  V30 5912 H 563.005 -4.69916 2.85409 0
M  V30 5913 H 564.23 -5.84272 3.46125 0
M  V30 5914 H 562.176 -6.43078 1.29565 0
M  V30 5915 H 562.093 -6.96377 2.94272 0
M  V30 5916 H 563.361 -7.55687 1.91201 0
M  V30 5917 N 567.59 -1.07411 -1.15328 0
M  V30 5918 C 568.82 -0.817595 -1.89734 0
M  V30 5919 C 569.228 0.63297 -1.78298 0
M  V30 5920 O 568.571 1.44594 -1.13306 0
M  V30 5921 C 568.633 -1.14748 -3.40695 0
M  V30 5922 C 568.297 -2.59876 -3.75917 0
M  V30 5923 C 569.294 -3.58122 -3.76888 0
M  V30 5924 C 566.979 -2.95469 -4.06206 0
M  V30 5925 C 568.973 -4.89996 -4.07655 0
M  V30 5926 C 566.66 -4.2754 -4.36638 0
M  V30 5927 C 567.658 -5.24614 -4.37344 0
M  V30 5928 O 567.346 -6.54312 -4.67045 0
M  V30 5929 H 567.078 -0.295175 -0.608151 0
M  V30 5930 H 569.632 -1.43409 -1.47048 0
M  V30 5931 H 567.862 -0.47395 -3.83785 0
M  V30 5932 H 569.551 -0.873397 -3.96392 0
M  V30 5933 H 570.317 -3.31966 -3.53587 0
M  V30 5934 H 566.196 -2.20558 -4.04815 0
M  V30 5935 H 569.74 -5.65759 -4.08121 0
M  V30 5936 H 565.637 -4.53449 -4.59407 0
M  V30 5937 H 566.405 -6.59473 -4.84807 0
M  V30 5938 N 569.068 1.32177 -0.85831 0
M  V30 5939 C 570.031 2.27086 -0.310588 0
M  V30 5940 C 571.031 1.51751 0.531806 0
M  V30 5941 O 572.221 1.70794 0.34279 0
M  V30 5942 C 569.353 3.36266 0.560179 0
M  V30 5943 H 570.546 2.77045 -1.1483 0
M  V30 5944 H 568.099 1.42911 -0.632942 0
M  V30 5945 H 568.834 2.9158 1.41956 0
M  V30 5946 H 568.619 3.92077 -0.0428473 0
M  V30 5947 H 570.109 4.06974 0.936056 0
M  V30 5948 N 570.547 0.616602 1.45037 0
M  V30 5949 C 571.772 0.120192 2.07051 0
M  V30 5950 C 572.197 -1.19008 1.45666 0
M  V30 5951 O 571.555 -1.7267 0.552692 0
M  V30 5952 C 571.603 0.00354901 3.606 0
M  V30 5953 O 570.707 -1.04431 3.98958 0
M  V30 5954 H 570.048 0.0781599 0.659384 0
M  V30 5955 H 572.578 0.849167 1.86146 0
M  V30 5956 H 572.588 -0.191754 4.07549 0
M  V30 5957 H 571.263 0.960239 4.04663 0
M  V30 5958 H 569.84 -0.824749 3.63665 0
M  V30 5959 N 572.025 -1.5352 0.356285 0
M  V30 5960 C 573.436 -1.86282 -0.12492 0
M  V30 5961 C 573.787 -1.27717 -1.48939 0
M  V30 5962 O 572.912 -0.595614 -2.08042 0
M  V30 5963 C 573.507 -3.37995 -0.23345 0
M  V30 5964 C 572.066 -3.70588 -0.658899 0
M  V30 5965 C 571.213 -2.76581 0.199596 0
M  V30 5966 H 574.164 -1.47901 0.575423 0
M  V30 5967 H 574.185 -3.65475 -1.0587 0
M  V30 5968 H 573.697 -3.8059 0.759776 0
M  V30 5969 H 571.798 -3.33544 -1.66069 0
M  V30 5970 H 571.911 -4.77076 -0.439957 0
M  V30 5971 H 570.275 -2.52552 -0.330076 0
M  V30 5972 H 571.058 -3.22008 1.19019 0
M  V30 5973 N 573.503 -0.0852151 -1.57369 0
M  V30 5974 C 574.78 0.622534 -1.85429 0
M  V30 5975 C 575.16 1.86962 -0.980229 0
M  V30 5976 O 574.508 2.28445 -0.0500219 0
M  V30 5977 C 574.718 0.947374 -3.35896 0
M  V30 5978 C 576.066 1.31509 -4.03721 0
M  V30 5979 O 577.09 1.03869 -3.40719 0
M  V30 5980 O 575.949 1.83231 -5.14868 0
M  V30 5981 H 573.043 0.310513 -0.766492 0
M  V30 5982 H 575.589 -0.117164 -1.69295 0
M  V30 5983 H 574.361 0.0622264 -3.91251 0
M  V30 5984 H 573.984 1.74338 -3.5734 0
M  V30 5985 N 574.981 1.5647 0.188427 0
M  V30 5986 C 576.227 1.81281 0.909124 0
M  V30 5987 C 576.56 0.66034 1.82628 0
M  V30 5988 O 575.835 -0.338737 1.91528 0
M  V30 5989 C 576.118 3.16388 1.7196 0
M  V30 5990 C 575.971 4.42137 0.826714 0
M  V30 5991 C 577.29 3.48256 2.69083 0
M  V30 5992 H 574.409 0.659457 0.329068 0
M  V30 5993 H 577.051 1.89182 0.176156 0
M  V30 5994 H 575.201 3.09784 2.34448 0
M  V30 5995 H 576.873 4.60794 0.216025 0
M  V30 5996 H 575.116 4.33594 0.133792 0
M  V30 5997 H 575.787 5.33184 1.42893 0
M  V30 5998 H 578.263 3.55203 2.16726 0
M  V30 5999 H 577.139 4.43899 3.2287 0
M  V30 6000 H 577.4 2.72088 3.48455 0
M  V30 6001 N 576.459 -0.456382 1.50847 0
M  V30 6002 C 577.706 -1.20736 1.62571 0
M  V30 6003 C 578.034 -1.9163 0.332904 0
M  V30 6004 O 577.289 -1.8343 -0.682058 0
M  V30 6005 C 577.588 -2.26336 2.76599 0
M  V30 6006 C 577.254 -1.7259 4.16562 0
M  V30 6007 C 575.916 -1.57654 4.54641 0
M  V30 6008 C 578.268 -1.32877 5.03977 0
M  V30 6009 C 575.596 -1.0145 5.77862 0
M  V30 6010 C 577.948 -0.7811 6.27759 0
M  V30 6011 C 576.612 -0.618488 6.64628 0
M  V30 6012 H 575.882 -0.441803 0.594888 0
M  V30 6013 H 578.529 -0.501169 1.84826 0
M  V30 6014 H 576.834 -3.0292 2.48489 0
M  V30 6015 H 578.531 -2.84227 2.82871 0
M  V30 6016 H 575.121 -1.85187 3.86528 0
M  V30 6017 H 579.305 -1.43245 4.75179 0
M  V30 6018 H 574.561 -0.876109 6.0509 0
M  V30 6019 H 578.735 -0.464783 6.94847 0
M  V30 6020 H 576.362 -0.180838 7.59985 0
M  V30 6021 N 577.937 -1.40673 -0.710563 0
M  V30 6022 C 578.884 -1.41336 -1.82463 0
M  V30 6023 C 579.854 -0.269648 -1.63897 0
M  V30 6024 O 581.039 -0.468463 -1.8496 0
M  V30 6025 C 578.179 -1.28665 -3.20218 0
M  V30 6026 C 577.292 -2.52784 -3.5032 0
M  V30 6027 C 576.427 -2.32517 -4.77608 0
M  V30 6028 C 575.466 -3.52187 -5.0063 0
M  V30 6029 N 574.603 -3.31084 -6.19135 0
M  V30 6030 H 579.443 -2.36558 -1.8123 0
M  V30 6031 H 576.98 -1.17483 -0.885226 0
M  V30 6032 H 578.938 -1.19324 -3.99772 0
M  V30 6033 H 577.568 -0.370602 -3.20666 0
M  V30 6034 H 576.62 -2.72634 -2.65283 0
M  V30 6035 H 577.932 -3.41845 -3.63241 0
M  V30 6036 H 577.086 -2.20558 -5.65189 0
M  V30 6037 H 575.825 -1.40889 -4.66906 0
M  V30 6038 H 574.83 -3.64617 -4.11502 0
M  V30 6039 H 576.055 -4.44749 -5.13201 0
M  V30 6040 H 574.001 -2.42143 -6.09674 0
M  V30 6041 H 573.918 -4.13713 -6.32754 0
M  V30 6042 H 575.186 -3.22868 -7.0949 0
M  V30 6043 N 579.415 0.9433 -1.26252 0
M  V30 6044 C 580.64 1.72898 -1.14547 0
M  V30 6045 C 581.065 1.85761 0.295743 0
M  V30 6046 O 580.423 1.3463 1.21427 0
M  V30 6047 C 580.471 3.11471 -1.8171 0
M  V30 6048 O 579.575 3.97336 -1.10445 0
M  V30 6049 H 578.916 0.530555 -0.399259 0
M  V30 6050 H 581.446 1.18159 -1.67032 0
M  V30 6051 H 581.456 3.61872 -1.88449 0
M  V30 6052 H 580.131 3.01425 -2.86558 0
M  V30 6053 H 578.708 3.55788 -1.11666 0
M  V30 6054 N 580.893 1.08022 1.14757 0
M  V30 6055 C 581.823 0.728248 2.21853 0
M  V30 6056 C 582.804 -0.287486 1.67653 0
M  V30 6057 O 583.989 -0.158727 1.9355 0
M  V30 6058 C 581.119 0.132549 3.47047 0
M  V30 6059 C 580.073 1.07619 4.14249 0
M  V30 6060 C 579.399 0.342907 5.33599 0
M  V30 6061 C 580.699 2.41268 4.63235 0
M  V30 6062 H 582.393 1.62365 2.51551 0
M  V30 6063 H 579.939 0.782125 1.20908 0
M  V30 6064 H 581.892 -0.125665 4.21213 0
M  V30 6065 H 580.616 -0.797971 3.16702 0
M  V30 6066 H 579.275 1.31944 3.42033 0
M  V30 6067 H 578.923 -0.59129 4.99513 0
M  V30 6068 H 578.623 0.971955 5.79506 0
M  V30 6069 H 580.147 0.0926538 6.1053 0
M  V30 6070 H 581.561 2.21232 5.28894 0
M  V30 6071 H 579.958 2.9983 5.19829 0
M  V30 6072 H 581.028 3.03079 3.78512 0
M  V30 6073 N 582.371 -1.3172 0.865308 0
M  V30 6074 C 583.619 -1.96487 0.472995 0
M  V30 6075 C 583.94 -1.68761 -0.976975 0
M  V30 6076 O 583.21 -1.00051 -1.68424 0
M  V30 6077 H 581.79 -0.726947 0.171922 0
M  V30 6078 H 584.452 -1.60612 1.10407 0
M  V30 6079 H 583.548 -3.0574 0.62687 0
M  V30 6080 N 583.85 -0.624285 -1.44708 0
M  V30 6081 C 585.09 -0.129273 -2.03991 0
M  V30 6082 C 585.454 1.22321 -1.47992 0
M  V30 6083 O 586.654 1.80993 -1.98734 0
M  V30 6084 C 584.926 -0.108231 -3.57236 0
M  V30 6085 S 586.485 0.323158 -4.37608 0
M  V30 6086 H 583.303 -0.0577318 -0.708652 0
M  V30 6087 H 585.904 -0.826139 -1.77187 0
M  V30 6088 H 584.609 -1.0958 -3.955 0
M  V30 6089 H 584.139 0.610101 -3.8864 0
M  V30 6090 H 586.154 1.56894 -4.70743 0
M  V30 6091 N 585.328 1.53329 -0.364422 0
M  V30 6092 C 586.238 2.29414 0.490552 0
M  V30 6093 C 587.254 1.35335 1.09363 0
M  V30 6094 O 588.43 1.68391 1.10483 0
M  V30 6095 C 585.495 3.06772 1.61529 0
M  V30 6096 C 584.556 4.16516 1.03986 0
M  V30 6097 C 583.789 4.90176 2.111 0
M  V30 6098 O 584.012 4.63687 3.32191 0
M  V30 6099 O 582.946 5.76134 1.74222 0
M  V30 6100 H 586.772 3.03428 -0.12856 0
M  V30 6101 H 584.357 1.48843 -0.128837 0
M  V30 6102 H 586.239 3.55082 2.26924 0
M  V30 6103 H 584.914 2.35596 2.21983 0
M  V30 6104 H 583.821 3.7246 0.349856 0
M  V30 6105 H 585.154 4.89855 0.4799 0
M  V30 6106 N 586.806 0.0935595 1.57322 0
M  V30 6107 C 588.083 -0.612692 1.85756 0
M  V30 6108 C 588.463 -1.86439 0.99013 0
M  V30 6109 O 587.811 -2.28416 0.0621362 0
M  V30 6110 C 588.021 -0.929547 3.36393 0
M  V30 6111 C 589.369 -1.29366 4.04413 0
M  V30 6112 O 590.393 -1.02061 3.41265 0
M  V30 6113 O 589.252 -1.80498 5.15832 0
M  V30 6114 H 586.346 -0.306444 0.768128 0
M  V30 6115 H 588.892 0.126141 1.69231 0
M  V30 6116 H 587.664 -0.0414766 3.91278 0
M  V30 6117 H 587.287 -1.72441 3.5826 0
M  V30 6118 N 588.284 -1.56567 -0.180126 0
M  V30 6119 C 589.531 -1.81492 -0.898167 0
M  V30 6120 C 589.859 -0.669225 -1.82624 0
M  V30 6121 O 589.114 0.344096 -1.92651 0
M  V30 6122 C 589.413 -3.1252 -1.73395 0
M  V30 6123 C 589.079 -4.40658 -0.955567 0
M  V30 6124 C 587.741 -4.75465 -0.740707 0
M  V30 6125 C 590.093 -5.19593 -0.408948 0
M  V30 6126 C 587.421 -5.86691 0.0320128 0
M  V30 6127 C 589.773 -6.31627 0.350638 0
M  V30 6128 C 588.437 -6.65007 0.576378 0
M  V30 6129 H 587.707 -0.664125 -0.328662 0
M  V30 6130 H 590.354 -1.908 -0.163616 0
M  V30 6131 H 588.659 -2.98515 -2.53763 0
M  V30 6132 H 590.356 -3.29013 -2.29241 0
M  V30 6133 H 586.946 -4.13352 -1.13306 0
M  V30 6134 H 591.13 -4.93104 -0.562307 0
M  V30 6135 H 586.386 -6.11016 0.216735 0
M  V30 6136 H 590.56 -6.92001 0.781497 0
M  V30 6137 H 588.187 -7.51033 1.17703 0
M  V30 6138 N 589.762 0.448376 -1.51087 0
M  V30 6139 C 591.011 1.19561 -1.62444 0
M  V30 6140 C 591.324 1.92602 -0.341151 0
M  V30 6141 O 592.53 2.69439 -0.333936 0
M  V30 6142 C 590.986 2.17373 -2.8684 0
M  V30 6143 C 590.594 1.5003 -4.22131 0
M  V30 6144 C 592.338 2.92597 -3.0755 0
M  V30 6145 C 590.245 2.46262 -5.37689 0
M  V30 6146 H 589.175 0.449975 -0.605011 0
M  V30 6147 H 591.826 0.463735 -1.77544 0
M  V30 6148 H 590.208 2.93948 -2.65349 0
M  V30 6149 H 591.382 0.790886 -4.53962 0
M  V30 6150 H 589.697 0.870011 -4.0721 0
M  V30 6151 H 592.294 3.64663 -3.91056 0
M  V30 6152 H 592.637 3.53306 -2.20183 0
M  V30 6153 H 593.17 2.23131 -3.29329 0
M  V30 6154 H 589.909 1.90258 -6.27281 0
M  V30 6155 H 589.429 3.15289 -5.10248 0
M  V30 6156 H 591.108 3.07623 -5.6919 0
M  V30 6157 N 591.24 1.41047 0.703093 0
M  V30 6158 C 592.465 1.43537 1.49706 0
M  V30 6159 C 592.89 0.0401853 1.88057 0
M  V30 6160 O 592.248 -0.954785 1.54122 0
M  V30 6161 C 592.296 2.3433 2.74084 0
M  V30 6162 O 591.4 1.79515 3.71279 0
M  V30 6163 H 590.741 0.487454 0.450871 0
M  V30 6164 H 593.271 1.85422 0.86486 0
M  V30 6165 H 593.281 2.49947 3.22476 0
M  V30 6166 H 591.956 3.35708 2.45506 0
M  V30 6167 H 590.533 1.7331 3.30179 0
M  V30 6168 N 592.718 -0.936591 1.26751 0
M  V30 6169 C 593.965 -1.68331 1.12566 0
M  V30 6170 C 594.293 -1.91677 -0.330168 0
M  V30 6171 O 593.548 -1.49859 -1.2586 0
M  V30 6172 C 593.847 -3.06099 1.84494 0
M  V30 6173 C 593.513 -3.02493 3.34378 0
M  V30 6174 C 592.175 -3.01217 3.75262 0
M  V30 6175 C 594.527 -2.94453 4.30055 0
M  V30 6176 C 591.855 -2.89672 5.10203 0
M  V30 6177 C 594.207 -2.84449 5.65041 0
M  V30 6178 C 592.871 -2.81518 6.0523 0
M  V30 6179 H 592.141 -0.615965 0.411907 0
M  V30 6180 H 594.788 -1.09292 1.5725 0
M  V30 6181 H 593.093 -3.6879 1.32292 0
M  V30 6182 H 594.79 -3.62733 1.70955 0
M  V30 6183 H 591.38 -3.04269 3.01858 0
M  V30 6184 H 595.564 -2.94544 3.99447 0
M  V30 6185 H 590.82 -2.85783 5.40498 0
M  V30 6186 H 594.994 -2.77192 6.38856 0
M  V30 6187 H 592.621 -2.72329 7.09747 0
M  V30 6188 N 594.196 -1.08629 -1.14182 0
M  V30 6189 C 595.442 -0.818556 -1.85546 0
M  V30 6190 C 595.775 0.654076 -1.82854 0
M  V30 6191 O 595.05 1.48099 -1.26083 0
M  V30 6192 C 595.333 -1.34397 -3.3408 0
M  V30 6193 C 595.186 -2.8821 -3.45333 0
M  V30 6194 C 596.505 -0.971069 -4.29253 0
M  V30 6195 H 593.624 -0.298821 -0.673702 0
M  V30 6196 H 596.266 -1.34629 -1.34071 0
M  V30 6197 H 594.416 -0.895064 -3.78049 0
M  V30 6198 H 596.088 -3.41488 -3.10134 0
M  V30 6199 H 594.331 -3.25756 -2.86471 0
M  V30 6200 H 595.002 -3.20047 -4.49749 0
M  V30 6201 H 597.478 -1.35809 -3.93313 0
M  V30 6202 H 596.354 -1.36586 -5.31635 0
M  V30 6203 H 596.615 0.121659 -4.41933 0
M  V30 6204 N 595.674 1.31259 -0.872281 0
M  V30 6205 C 596.921 1.96622 -0.484365 0
M  V30 6206 C 597.249 1.68939 0.963841 0
M  V30 6207 O 596.504 0.97974 1.6941 0
M  V30 6208 C 596.803 3.50659 -0.690889 0
M  V30 6209 C 596.469 3.98366 -2.11224 0
M  V30 6210 C 595.131 4.11104 -2.50094 0
M  V30 6211 C 597.483 4.23425 -3.0391 0
M  V30 6212 C 594.811 4.46254 -3.80887 0
M  V30 6213 C 597.163 4.60039 -4.3422 0
M  V30 6214 C 595.827 4.70984 -4.73001 0
M  V30 6215 H 595.097 0.71949 -0.177242 0
M  V30 6216 H 597.744 1.56353 -1.10571 0
M  V30 6217 H 596.049 3.91798 0.0135782 0
M  V30 6218 H 597.746 3.99284 -0.370534 0
M  V30 6219 H 594.336 3.88949 -1.80047 0
M  V30 6220 H 598.52 4.13075 -2.75104 0
M  V30 6221 H 593.776 4.52926 -4.10692 0
M  V30 6222 H 597.95 4.78381 -5.06088 0
M  V30 6223 H 595.577 4.97977 -5.7439 0
M  V30 6224 N 597.152 0.631951 1.44375 0
M  V30 6225 C 598.062 -0.073674 2.34484 0
M  V30 6226 C 599.078 -0.834825 1.52665 0
M  V30 6227 O 600.254 -0.786902 1.85391 0
M  V30 6228 C 597.319 -1.04247 3.30656 0
M  V30 6229 C 596.38 -0.280602 4.28382 0
M  V30 6230 C 595.613 -1.20325 5.19959 0
M  V30 6231 O 595.836 -2.44199 5.15484 0
M  V30 6232 O 594.77 -0.687128 5.97965 0
M  V30 6233 H 598.596 0.667477 2.96274 0
M  V30 6234 H 596.181 0.392144 1.44162 0
M  V30 6235 H 598.063 -1.59981 3.89851 0
M  V30 6236 H 596.738 -1.76422 2.71398 0
M  V30 6237 H 595.645 0.319804 3.72731 0
M  V30 6238 H 596.978 0.401144 4.90563 0
M  V30 6239 N 598.631 -1.53133 0.372548 0
M  V30 6240 C 599.878 -2.01356 -0.214959 0
M  V30 6241 C 600.206 -1.2596 -1.48204 0
M  V30 6242 O 599.461 -0.343511 -1.92662 0
M  V30 6243 C 599.76 -3.53206 -0.545938 0
M  V30 6244 C 599.426 -4.46511 0.627624 0
M  V30 6245 C 598.088 -4.71737 0.949615 0
M  V30 6246 C 600.44 -5.01666 1.41353 0
M  V30 6247 C 597.768 -5.4937 2.05936 0
M  V30 6248 C 600.12 -5.80511 2.51375 0
M  V30 6249 C 598.784 -6.04022 2.84101 0
M  V30 6250 H 598.054 -0.736813 -0.078659 0
M  V30 6251 H 600.701 -1.84682 0.506447 0
M  V30 6252 H 599.006 -3.67864 -1.34845 0
M  V30 6253 H 600.703 -3.87997 -1.01287 0
M  V30 6254 H 597.293 -4.27029 0.366635 0
M  V30 6255 H 601.477 -4.82117 1.17802 0
M  V30 6256 H 596.733 -5.65803 2.31682 0
M  V30 6257 H 600.907 -6.22255 3.12684 0
M  V30 6258 H 598.534 -6.63962 3.70214 0
M  V30 6259 N 600.109 -0.101901 -1.5727 0
M  V30 6260 C 601.357 0.559091 -1.94213 0
M  V30 6261 C 601.678 1.68297 -0.984948 0
M  V30 6262 O 600.948 1.95863 -0.0381975 0
M  V30 6263 H 599.528 0.20952 -0.717015 0
M  V30 6264 H 602.19 -0.166831 -1.94185 0
M  V30 6265 H 601.286 0.96485 -2.96811 0
M  V30 6266 N 601.587 1.56661 0.17182 0
M  V30 6267 C 602.534 1.96371 1.21273 0
M  V30 6268 C 603.504 0.82756 1.44016 0
M  V30 6269 O 604.689 1.08764 1.56764 0
M  V30 6270 C 601.829 2.32838 2.54716 0
M  V30 6271 C 600.942 3.59628 2.39356 0
M  V30 6272 C 600.077 3.85311 3.65662 0
M  V30 6273 C 599.116 5.0545 3.45234 0
M  V30 6274 N 598.253 5.27268 4.63608 0
M  V30 6275 H 603.093 2.85106 0.86709 0
M  V30 6276 H 600.63 1.41073 0.416744 0
M  V30 6277 H 602.588 2.52004 3.3249 0
M  V30 6278 H 601.218 1.47214 2.87277 0
M  V30 6279 H 600.27 3.4838 1.52761 0
M  V30 6280 H 601.582 4.4756 2.20207 0
M  V30 6281 H 600.736 4.04841 4.51872 0
M  V30 6282 H 599.475 2.95753 3.8779 0
M  V30 6283 H 598.48 4.85819 2.5741 0
M  V30 6284 H 599.705 5.96538 3.24529 0
M  V30 6285 H 597.651 4.40662 4.85956 0
M  V30 6286 H 597.568 6.09422 4.4737 0
M  V30 6287 H 598.836 5.51277 5.51103 0
M  V30 6288 N 603.065 -0.440357 1.51323 0
M  V30 6289 C 604.29 -1.21716 1.67928 0
M  V30 6290 C 604.715 -1.84328 0.374826 0
M  V30 6291 O 604.073 -1.68675 -0.664706 0
M  V30 6292 C 604.121 -2.27914 2.79442 0
M  V30 6293 O 603.225 -3.33325 2.42834 0
M  V30 6294 H 602.566 -0.35674 0.560029 0
M  V30 6295 H 605.096 -0.520417 1.97871 0
M  V30 6296 H 605.106 -2.72746 3.03436 0
M  V30 6297 H 603.781 -1.8172 3.741 0
M  V30 6298 H 602.358 -2.9399 2.294 0
M  V30 6299 N 604.543 -1.41418 -0.695603 0
M  V30 6300 C 605.473 -1.46035 -1.82197 0
M  V30 6301 C 606.454 -0.319025 -1.67082 0
M  V30 6302 O 607.639 -0.530462 -1.86815 0
M  V30 6303 C 604.769 -1.34179 -3.20333 0
M  V30 6304 C 603.723 -2.46123 -3.50154 0
M  V30 6305 C 603.049 -2.19332 -4.87645 0
M  V30 6306 C 604.349 -3.88463 -3.49133 0
M  V30 6307 H 606.043 -2.40303 -1.78591 0
M  V30 6308 H 603.589 -1.15663 -0.857797 0
M  V30 6309 H 605.542 -1.36021 -3.98844 0
M  V30 6310 H 604.266 -0.363952 -3.24566 0
M  V30 6311 H 602.925 -2.43563 -2.73994 0
M  V30 6312 H 602.573 -1.19891 -4.88503 0
M  V30 6313 H 602.273 -2.94344 -5.08562 0
M  V30 6314 H 603.797 -2.22889 -5.68465 0
M  V30 6315 H 605.211 -3.92738 -4.17648 0
M  V30 6316 H 603.608 -4.63158 -3.81582 0
M  V30 6317 H 604.678 -4.16617 -2.48109 0
M  V30 6318 N 606.021 0.929856 -1.27246 0
M  V30 6319 C 607.261 1.6919 -1.14691 0
M  V30 6320 C 607.625 1.896 0.302621 0
M  V30 6321 O 608.826 2.63102 0.550543 0
M  V30 6322 C 607.097 3.02291 -1.9067 0
M  V30 6323 S 608.656 3.93436 -1.94303 0
M  V30 6324 H 605.474 0.581248 -0.409477 0
M  V30 6325 H 608.076 1.10722 -1.61124 0
M  V30 6326 H 606.78 2.85125 -2.95181 0
M  V30 6327 H 606.311 3.65813 -1.44723 0
M  V30 6328 H 608.326 4.85224 -1.0379 0
M  V30 6329 N 607.499 1.09233 1.13605 0
M  V30 6330 C 608.724 0.849067 1.89224 0
M  V30 6331 C 609.149 -0.593875 1.78479 0
M  V30 6332 O 608.507 -1.41703 1.13092 0
M  V30 6333 C 608.555 1.28642 3.36873 0
M  V30 6334 O 607.659 0.44363 4.10007 0
M  V30 6335 H 607 0.30767 0.588417 0
M  V30 6336 H 609.53 1.45595 1.43748 0
M  V30 6337 H 609.54 1.27096 3.87699 0
M  V30 6338 H 608.215 2.33729 3.44011 0
M  V30 6339 H 606.792 0.523241 3.69211 0
M  V30 6340 N 608.977 -1.30795 0.87923 0
M  V30 6341 C 609.91 -2.26396 0.286404 0
M  V30 6342 C 610.888 -1.51528 -0.589748 0
M  V30 6343 O 612.072 -1.80566 -0.541119 0
M  V30 6344 C 609.199 -3.33458 -0.593581 0
M  V30 6345 C 608.245 -4.2597 0.21247 0
M  V30 6346 S 609.078 -5.11132 1.59702 0
M  V30 6347 C 610.234 -6.21705 0.723408 0
M  V30 6348 H 610.467 -2.7633 1.09677 0
M  V30 6349 H 608 -1.38703 0.678305 0
M  V30 6350 H 609.958 -3.9561 -1.09557 0
M  V30 6351 H 608.619 -2.82259 -1.37799 0
M  V30 6352 H 607.812 -5.01907 -0.458822 0
M  V30 6353 H 607.414 -3.68363 0.646883 0
M  V30 6354 H 609.706 -6.77472 -0.0620739 0
M  V30 6355 H 610.649 -6.93007 1.4542 0
M  V30 6356 H 611.057 -5.63771 0.286855 0
M  V30 6357 N 610.455 -0.639598 -1.44038 0
M  V30 6358 C 611.405 0.0823038 -2.27851 0
M  V30 6359 C 612.389 0.807991 -1.39141 0
M  V30 6360 O 613.581 0.692702 -1.62882 0
M  V30 6361 C 610.71 1.05742 -3.26609 0
M  V30 6362 C 609.796 0.330911 -4.22807 0
M  V30 6363 N 610.187 -0.645126 -5.01669 0
M  V30 6364 C 608.485 0.574214 -4.42288 0
M  V30 6365 C 609.186 -1.07513 -5.71678 0
M  V30 6366 N 608.162 -0.412164 -5.42035 0
M  V30 6367 H 611.964 -0.666861 -2.86234 0
M  V30 6368 H 609.478 -0.465777 -1.55577 0
M  V30 6369 H 611.475 1.58927 -3.85419 0
M  V30 6370 H 610.135 1.80679 -2.69787 0
M  V30 6371 H 611.146 -1.02329 -5.0769 0
M  V30 6372 H 607.823 1.30581 -3.96554 0
M  V30 6373 H 609.213 -1.88196 -6.45005 0
M  V30 6374 N 611.933 1.52934 -0.380664 0
M  V30 6375 C 612.863 2.29118 0.450268 0
M  V30 6376 C 613.844 1.32153 1.07096 0
M  V30 6377 O 615.029 1.61038 1.08537 0
M  V30 6378 C 612.159 3.09161 1.58231 0
M  V30 6379 C 611.113 4.13938 1.0881 0
M  V30 6380 C 610.439 4.82153 2.31155 0
M  V30 6381 C 611.739 5.22048 0.162146 0
M  V30 6382 H 613.433 2.98826 -0.185361 0
M  V30 6383 H 610.979 1.43715 -0.0905886 0
M  V30 6384 H 612.932 3.61211 2.17036 0
M  V30 6385 H 611.656 2.3717 2.2454 0
M  V30 6386 H 610.315 3.62855 0.522633 0
M  V30 6387 H 609.963 4.06719 2.95953 0
M  V30 6388 H 609.663 5.52966 1.98752 0
M  V30 6389 H 611.187 5.37004 2.90618 0
M  V30 6390 H 612.601 5.6951 0.658126 0
M  V30 6391 H 610.998 6.00057 -0.0717122 0
M  V30 6392 H 612.068 4.78398 -0.791438 0
M  V30 6393 N 613.412 0.11024 1.57214 0
M  V30 6394 C 614.64 -0.557834 1.99238 0
M  V30 6395 C 615.055 -1.60778 0.989734 0
M  V30 6396 O 614.412 -1.82491 -0.0186092 0
M  V30 6397 C 614.463 -1.19189 3.41286 0
M  V30 6398 O 614.184 -0.183919 4.37714 0
M  V30 6399 C 615.685 -1.94413 3.98395 0
M  V30 6400 H 612.905 -0.148392 0.654386 0
M  V30 6401 H 615.449 0.193996 2.03578 0
M  V30 6402 H 613.604 -1.89456 3.37913 0
M  V30 6403 H 614.018 -0.643475 5.20538 0
M  V30 6404 H 615.492 -2.34116 4.99894 0
M  V30 6405 H 615.969 -2.81592 3.3705 0
M  V30 6406 H 616.575 -1.28928 4.05287 0
M  V30 6407 N 614.89 -1.56749 -0.16351 0
M  V30 6408 C 615.8 -2.00255 -1.2221 0
M  V30 6409 C 616.816 -0.915194 -1.47987 0
M  V30 6410 O 617.992 -1.22342 -1.59982 0
M  V30 6411 C 615.057 -2.36035 -2.53946 0
M  V30 6412 C 614.118 -3.58637 -2.35962 0
M  V30 6413 C 613.351 -3.92701 -3.61416 0
M  V30 6414 O 613.574 -3.27632 -4.66919 0
M  V30 6415 O 612.508 -4.86019 -3.55062 0
M  V30 6416 H 616.334 -2.90586 -0.882794 0
M  V30 6417 H 613.919 -1.44721 -0.370978 0
M  V30 6418 H 615.801 -2.59982 -3.31643 0
M  V30 6419 H 614.476 -1.48863 -2.8744 0
M  V30 6420 H 613.383 -3.39898 -1.5627 0
M  V30 6421 H 614.716 -4.46374 -2.0739 0
M  V30 6422 N 616.368 0.432326 -1.51554 0
M  V30 6423 C 617.645 1.19288 -1.55015 0
M  V30 6424 C 618.025 2.08701 -0.317375 0
M  V30 6425 O 617.373 2.17602 0.697243 0
M  V30 6426 C 617.583 1.99037 -2.86679 0
M  V30 6427 C 618.931 2.55907 -3.38817 0
M  V30 6428 O 619.955 2.09243 -2.88263 0
M  V30 6429 O 618.814 3.41029 -4.27038 0
M  V30 6430 H 615.908 0.543369 -0.623441 0
M  V30 6431 H 618.454 0.440988 -1.6387 0
M  V30 6432 H 617.226 1.33397 -3.6786 0
M  V30 6433 H 616.849 2.81281 -2.8101 0
M  V30 6434 N 617.846 1.41785 0.688094 0
M  V30 6435 C 618.756 1.46596 1.83158 0
M  V30 6436 C 619.772 0.355862 1.70322 0
M  V30 6437 O 620.948 0.604737 1.92106 0
M  V30 6438 C 618.013 1.35322 3.192 0
M  V30 6439 C 617.074 2.56711 3.4409 0
M  V30 6440 C 616.307 2.45965 4.73642 0
M  V30 6441 O 616.53 1.48827 5.50642 0
M  V30 6442 O 615.464 3.35859 4.99482 0
M  V30 6443 H 619.29 2.43083 1.82056 0
M  V30 6444 H 616.875 1.23404 0.842126 0
M  V30 6445 H 618.757 1.31347 4.00407 0
M  V30 6446 H 617.432 0.419536 3.2097 0
M  V30 6447 H 616.339 2.66262 2.62784 0
M  V30 6448 H 617.672 3.48933 3.47141 0
M  V30 6449 N 619.324 -0.923095 1.27737 0
M  V30 6450 C 620.573 -1.66581 1.13727 0
M  V30 6451 C 620.886 -1.9304 -0.315433 0
M  V30 6452 O 622.092 -2.65309 -0.57651 0
M  V30 6453 C 620.548 -3.00047 1.98745 0
M  V30 6454 C 620.156 -2.8127 3.48699 0
M  V30 6455 C 621.9 -3.77887 1.93395 0
M  V30 6456 C 619.807 -4.1032 4.25901 0
M  V30 6457 H 618.737 -0.624834 0.422017 0
M  V30 6458 H 621.388 -1.02514 1.52194 0
M  V30 6459 H 619.77 -3.65197 1.53125 0
M  V30 6460 H 620.944 -2.24859 4.02213 0
M  V30 6461 H 619.259 -2.16854 3.55476 0
M  V30 6462 H 621.856 -4.73526 2.48348 0
M  V30 6463 H 622.199 -4.06264 0.908605 0
M  V30 6464 H 622.732 -3.19541 2.36935 0
M  V30 6465 H 619.471 -3.8712 5.28978 0
M  V30 6466 H 618.991 -4.66377 3.77163 0
M  V30 6467 H 620.67 -4.78648 4.35321 0
M  V30 6468 N 620.802 -1.09834 -1.13024 0
M  V30 6469 C 621.765 -0.745058 -2.16752 0
M  V30 6470 C 622.765 0.227435 -1.59183 0
M  V30 6471 O 623.955 0.0050786 -1.74199 0
M  V30 6472 C 621.087 -0.102543 -3.40746 0
M  V30 6473 H 622.28 -1.66375 -2.49518 0
M  V30 6474 H 619.833 -0.898061 -1.27924 0
M  V30 6475 H 620.568 0.827177 -3.13573 0
M  V30 6476 H 620.353 -0.80235 -3.83803 0
M  V30 6477 H 621.843 0.129082 -4.174 0
M  V30 6478 N 622.28 1.30327 -0.886154 0
M  V30 6479 C 623.21 2.30549 -0.370028 0
M  V30 6480 C 624.191 1.61039 0.547751 0
M  V30 6481 O 625.376 1.8864 0.461353 0
M  V30 6482 C 622.506 3.44808 0.415275 0
M  V30 6483 C 621.46 4.26024 -0.41085 0
M  V30 6484 C 620.786 5.32347 0.501128 0
M  V30 6485 C 622.086 4.95433 -1.65359 0
M  V30 6486 H 623.78 2.73969 -1.20754 0
M  V30 6487 H 621.326 1.3171 -0.582097 0
M  V30 6488 H 623.279 4.13986 0.78699 0
M  V30 6489 H 622.003 3.00197 1.28644 0
M  V30 6490 H 620.662 3.58535 -0.764719 0
M  V30 6491 H 620.31 4.83982 1.37004 0
M  V30 6492 H 620.01 5.87581 -0.0478356 0
M  V30 6493 H 621.534 6.0438 0.869333 0
M  V30 6494 H 622.948 5.5712 -1.35239 0
M  V30 6495 H 621.345 5.60537 -2.14284 0
M  V30 6496 H 622.415 4.21493 -2.39733 0
M  V30 6497 N 623.758 0.647228 1.43697 0
M  V30 6498 C 625.005 0.158188 2.01881 0
M  V30 6499 C 625.333 -1.22573 1.51017 0
M  V30 6500 O 624.588 -1.83086 0.69122 0
M  V30 6501 C 624.887 0.111481 3.57226 0
M  V30 6502 C 624.553 1.43633 4.27411 0
M  V30 6503 C 623.215 1.79915 4.463 0
M  V30 6504 C 625.567 2.31011 4.67208 0
M  V30 6505 C 622.895 3.03251 5.02251 0
M  V30 6506 C 625.247 3.53633 5.24525 0
M  V30 6507 C 623.911 3.90118 5.41631 0
M  V30 6508 H 623.181 0.0578851 0.738736 0
M  V30 6509 H 625.828 0.836746 1.72252 0
M  V30 6510 H 624.133 -0.650507 3.86362 0
M  V30 6511 H 625.83 -0.283682 3.99995 0
M  V30 6512 H 622.42 1.14403 4.1305 0
M  V30 6513 H 626.604 2.04272 4.52313 0
M  V30 6514 H 621.86 3.31575 5.13681 0
M  V30 6515 H 626.034 4.21561 5.5431 0
M  V30 6516 H 623.661 4.85768 5.84751 0
M  V30 6517 N 625.236 -1.5273 0.388769 0
M  V30 6518 C 626.461 -2.0647 -0.19621 0
M  V30 6519 C 626.886 -1.25865 -1.39784 0
M  V30 6520 O 626.244 -0.283562 -1.79069 0
M  V30 6521 C 626.292 -3.56456 -0.5451 0
M  V30 6522 O 625.396 -3.78426 -1.63912 0
M  V30 6523 H 624.737 -0.663599 -0.023067 0
M  V30 6524 H 627.267 -1.96898 0.556084 0
M  V30 6525 H 627.277 -3.99888 -0.809557 0
M  V30 6526 H 625.952 -4.14561 0.333417 0
M  V30 6527 H 624.529 -3.46884 -1.36842 0
M  V30 6528 N 626.714 -0.118576 -1.57153 0
M  V30 6529 C 627.677 0.817464 -2.14127 0
M  V30 6530 C 628.677 1.1949 -1.07604 0
M  V30 6531 O 629.867 1.12048 -1.33382 0
M  V30 6532 C 626.999 2.10541 -2.68115 0
M  V30 6533 H 628.192 0.322339 -2.98163 0
M  V30 6534 H 625.745 0.130655 -1.55753 0
M  V30 6535 H 626.48 2.64485 -1.87665 0
M  V30 6536 H 626.265 1.84425 -3.4602 0
M  V30 6537 H 627.755 2.77453 -3.12105 0
M  V30 6538 N 628.193 1.56834 0.155195 0
M  V30 6539 C 629.44 1.82898 0.869179 0
M  V30 6540 C 629.768 0.698194 1.81537 0
M  V30 6541 O 629.023 -0.313404 1.93174 0
M  V30 6542 C 629.322 3.15239 1.68402 0
M  V30 6543 C 628.988 4.42123 0.885341 0
M  V30 6544 C 627.65 4.76583 0.664971 0
M  V30 6545 C 630.002 5.20178 0.326234 0
M  V30 6546 C 627.33 5.86566 -0.125346 0
M  V30 6547 C 629.682 6.3099 -0.45108 0
M  V30 6548 C 628.346 6.64006 -0.682102 0
M  V30 6549 H 627.616 0.66927 0.318055 0
M  V30 6550 H 630.263 1.91036 0.133241 0
M  V30 6551 H 628.568 3.02515 2.48982 0
M  V30 6552 H 630.265 3.32618 2.23978 0
M  V30 6553 H 626.855 4.15102 1.06716 0
M  V30 6554 H 631.039 4.93936 0.483787 0
M  V30 6555 H 626.295 6.10594 -0.313915 0
M  V30 6556 H 630.469 6.9067 -0.89149 0
M  V30 6557 H 628.096 7.49065 -1.29636 0
M  V30 6558 N 629.671 -0.424282 1.51781 0
M  V30 6559 C 630.917 -1.17434 1.6534 0
M  V30 6560 C 631.25 -1.90549 0.374806 0
M  V30 6561 O 630.525 -1.84145 -0.626179 0
M  V30 6562 C 630.808 -2.18093 2.86544 0
M  V30 6563 C 630.661 -1.48975 4.24413 0
M  V30 6564 C 631.98 -3.18934 3.03264 0
M  V30 6565 H 629.099 -0.425566 0.601716 0
M  V30 6566 H 631.741 -0.461921 1.84299 0
M  V30 6567 H 629.891 -2.78849 2.7051 0
M  V30 6568 H 631.563 -0.914551 4.52143 0
M  V30 6569 H 629.806 -0.791893 4.26511 0
M  V30 6570 H 630.477 -2.22347 5.05238 0
M  V30 6571 H 632.953 -2.68243 3.18096 0
M  V30 6572 H 631.829 -3.86645 3.89611 0
M  V30 6573 H 632.09 -3.85793 2.15908 0
M  V30 6574 N 631.149 -1.42148 -0.680565 0
M  V30 6575 C 632.079 -1.4796 -1.80638 0
M  V30 6576 C 633.06 -0.336728 -1.66734 0
M  V30 6577 O 634.245 -0.550247 -1.86242 0
M  V30 6578 C 631.375 -1.37569 -3.18892 0
M  V30 6579 C 630.329 -2.49823 -3.47524 0
M  V30 6580 C 629.655 -2.24491 -4.85291 0
M  V30 6581 C 630.955 -3.92144 -3.44994 0
M  V30 6582 H 632.649 -2.42184 -1.76032 0
M  V30 6583 H 630.195 -1.16566 -0.845481 0
M  V30 6584 H 632.148 -1.40243 -3.97379 0
M  V30 6585 H 630.872 -0.398357 -3.24162 0
M  V30 6586 H 629.531 -2.46455 -2.71395 0
M  V30 6587 H 629.179 -1.25066 -4.87204 0
M  V30 6588 H 628.879 -2.99722 -5.05411 0
M  V30 6589 H 630.403 -2.28906 -5.66069 0
M  V30 6590 H 631.817 -3.97145 -4.13459 0
M  V30 6591 H 630.214 -4.67179 -3.76648 0
M  V30 6592 H 631.284 -4.19225 -2.43676 0
M  V30 6593 N 632.627 0.916307 -1.28225 0
M  V30 6594 C 633.56 2.01954 -1.06254 0
M  V30 6595 C 634.538 1.62587 0.0205983 0
M  V30 6596 O 635.722 1.88073 -0.126824 0
M  V30 6597 C 632.849 3.33086 -0.614141 0
M  V30 6598 C 631.895 3.91435 -1.69354 0
M  V30 6599 S 632.728 4.22603 -3.28887 0
M  V30 6600 C 633.884 5.568 -2.85876 0
M  V30 6601 H 634.117 2.20281 -1.99659 0
M  V30 6602 H 631.65 1.06085 -1.12184 0
M  V30 6603 H 633.608 4.089 -0.36213 0
M  V30 6604 H 632.269 3.12664 0.300036 0
M  V30 6605 H 631.462 4.86098 -1.33136 0
M  V30 6606 H 631.064 3.22248 -1.89821 0
M  V30 6607 H 633.356 6.3658 -2.31888 0
M  V30 6608 H 634.299 5.97927 -3.79326 0
M  V30 6609 H 634.707 5.17865 -2.24669 0
M  V30 6610 N 634.105 1.10431 1.1244 0
M  V30 6611 C 635.33 0.869089 1.88313 0
M  V30 6612 C 635.755 -0.574912 1.79099 0
M  V30 6613 O 635.113 -1.40496 1.14589 0
M  V30 6614 C 635.161 1.32208 3.3549 0
M  V30 6615 O 634.265 0.487092 4.09513 0
M  V30 6616 H 633.606 0.313894 0.585121 0
M  V30 6617 H 636.136 1.47111 1.42195 0
M  V30 6618 H 636.146 1.31201 3.86329 0
M  V30 6619 H 634.821 2.37364 3.41513 0
M  V30 6620 H 633.398 0.562372 3.68635 0
M  V30 6621 N 635.583 -1.29855 0.893053 0
M  V30 6622 C 636.546 -2.26183 0.370687 0
M  V30 6623 C 637.546 -1.53108 -0.491385 0
M  V30 6624 O 638.736 -1.71643 -0.297386 0
M  V30 6625 C 635.868 -3.37633 -0.470827 0
M  V30 6626 H 637.061 -2.73903 1.22135 0
M  V30 6627 H 634.614 -1.41183 0.67061 0
M  V30 6628 H 635.349 -2.95241 -1.34175 0
M  V30 6629 H 635.134 -3.91825 0.146784 0
M  V30 6630 H 636.624 -4.09313 -0.827825 0
M  V30 6631 N 637.061 -0.65484 -1.43351 0
M  V30 6632 C 638.338 -0.0987371 -1.95351 0
M  V30 6633 C 638.718 1.38161 -1.59608 0
M  V30 6634 O 638.066 2.10791 -0.882021 0
M  V30 6635 C 638.276 -0.346684 -3.47274 0
M  V30 6636 C 639.624 -0.25249 -4.23849 0
M  V30 6637 O 640.648 -0.279332 -3.55103 0
M  V30 6638 O 639.507 -0.177584 -5.46211 0
M  V30 6639 H 636.601 0.0086829 -0.826954 0
M  V30 6640 H 639.147 -0.728189 -1.53282 0
M  V30 6641 H 637.919 -1.37296 -3.66423 0
M  V30 6642 H 637.542 0.315757 -3.96344 0
M  V30 6643 N 638.539 1.52521 -0.396863 0
M  V30 6644 C 639.955 1.5953 -0.0471659 0
M  V30 6645 C 640.155 1.41044 1.43906 0
M  V30 6646 O 639.211 1.23122 2.20448 0
M  V30 6647 C 640.524 2.95972 -0.531113 0
M  V30 6648 C 642.072 3.09172 -0.488024 0
M  V30 6649 C 642.547 4.48075 -0.948281 0
M  V30 6650 N 644.038 4.54281 -0.9046 0
M  V30 6651 C 644.773 5.60007 -1.23205 0
M  V30 6652 N 644.269 6.73343 -1.63036 0
M  V30 6653 N 646.062 5.50151 -1.15282 0
M  V30 6654 H 638.213 1.62786 -1.36435 0
M  V30 6655 H 640.476 0.76514 -0.559701 0
M  V30 6656 H 640.182 3.14741 -1.56942 0
M  V30 6657 H 640.056 3.77143 0.0657922 0
M  V30 6658 H 642.443 2.90095 0.541211 0
M  V30 6659 H 642.524 2.29937 -1.12083 0
M  V30 6660 H 642.168 4.67894 -1.97578 0
M  V30 6661 H 642.098 5.25788 -0.292412 0
M  V30 6662 H 644.589 3.72918 -0.6116 0
M  V30 6663 H 644.902 7.49992 -1.86365 0
M  V30 6664 H 643.247 6.74655 -1.66929 0
M  V30 6665 H 646.438 4.6049 -0.840602 0
M  V30 6666 H 646.611 6.32444 -1.41133 0
M  V30 6667 N 640.017 0.126909 1.57088 0
M  V30 6668 C 641.242 -0.53997 2.00248 0
M  V30 6669 C 641.667 -1.58927 1.00618 0
M  V30 6670 O 641.025 -1.81288 -0.0210131 0
M  V30 6671 C 641.073 -1.13565 3.4225 0
M  V30 6672 O 640.177 -2.25103 3.45547 0
M  V30 6673 H 639.518 -0.13412 0.650314 0
M  V30 6674 H 642.048 0.217718 2.03438 0
M  V30 6675 H 642.058 -1.46925 3.80627 0
M  V30 6676 H 640.733 -0.367122 4.14277 0
M  V30 6677 H 639.31 -1.93123 3.18995 0
M  V30 6678 N 641.495 -1.56914 -0.146875 0
M  V30 6679 C 642.741 -1.84515 -0.855914 0
M  V30 6680 C 643.096 -0.710909 -1.78784 0
M  V30 6681 O 642.389 0.291123 -1.89375 0
M  V30 6682 C 642.583 -3.16128 -1.66727 0
M  V30 6683 C 642.412 -4.42246 -0.815405 0
M  V30 6684 C 641.182 -5.03006 -0.480976 0
M  V30 6685 C 643.38 -5.14094 -0.145684 0
M  V30 6686 N 641.362 -6.12695 0.384476 0
M  V30 6687 C 642.733 -6.17282 0.579902 0
M  V30 6688 C 644.788 -4.97856 -0.0663705 0
M  V30 6689 C 643.491 -7.0599 1.37731 0
M  V30 6690 C 645.517 -5.87028 0.71778 0
M  V30 6691 C 644.879 -6.89698 1.43165 0
M  V30 6692 H 640.978 -0.725829 -0.291026 0
M  V30 6693 H 643.562 -1.94322 -0.121279 0
M  V30 6694 H 641.733 -3.07468 -2.37315 0
M  V30 6695 H 643.465 -3.31635 -2.31949 0
M  V30 6696 H 640.22 -4.66504 -0.816789 0
M  V30 6697 H 640.644 -6.72158 0.80823 0
M  V30 6698 H 645.286 -4.18465 -0.603929 0
M  V30 6699 H 643.004 -7.84809 1.92613 0
M  V30 6700 H 646.59 -5.76532 0.781141 0
M  V30 6701 H 645.47 -7.57505 2.02868 0
M  V30 6702 N 642.974 0.416227 -1.52004 0
M  V30 6703 C 643.904 1.51365 -1.77795 0
M  V30 6704 C 644.885 1.58059 -0.628601 0
M  V30 6705 O 646.07 1.73447 -0.873478 0
M  V30 6706 C 643.2 2.89256 -1.92219 0
M  V30 6707 C 642.154 2.97415 -3.0778 0
M  V30 6708 C 641.48 4.37492 -3.07417 0
M  V30 6709 C 642.78 2.69551 -4.47369 0
M  V30 6710 H 644.474 1.30033 -2.69688 0
M  V30 6711 H 642.02 0.624112 -1.29772 0
M  V30 6712 H 643.973 3.66008 -2.08845 0
M  V30 6713 H 642.697 3.11866 -0.969917 0
M  V30 6714 H 641.356 2.23107 -2.90893 0
M  V30 6715 H 641.004 4.571 -2.09925 0
M  V30 6716 H 640.704 4.43877 -3.85029 0
M  V30 6717 H 642.228 5.16188 -3.26162 0
M  V30 6718 H 643.642 3.36028 -4.64497 0
M  V30 6719 H 642.039 2.87321 -5.26846 0
M  V30 6720 H 643.109 1.65029 -4.55953 0
M  V30 6721 N 644.452 1.42507 0.673017 0
M  V30 6722 C 645.384 1.42074 1.79854 0
M  V30 6723 C 646.397 0.319569 1.59633 0
M  V30 6724 O 647.586 0.582769 1.68719 0
M  V30 6725 C 644.686 1.19886 3.16987 0
M  V30 6726 C 643.859 2.42471 3.64042 0
M  V30 6727 C 642.918 2.15802 4.79913 0
M  V30 6728 O 641.944 2.89015 4.90366 0
M  V30 6729 N 643.146 1.16225 5.68746 0
M  V30 6730 H 645.911 2.3909 1.8071 0
M  V30 6731 H 643.472 1.37409 0.856171 0
M  V30 6732 H 645.464 0.999591 3.92161 0
M  V30 6733 H 644.034 0.313879 3.1102 0
M  V30 6734 H 643.254 2.77954 2.79526 0
M  V30 6735 H 644.542 3.24097 3.92223 0
M  V30 6736 H 643.94 0.556756 5.62954 0
M  V30 6737 H 642.497 1.02285 6.43724 0
M  V30 6738 N 645.93 -0.909495 1.28709 0
M  V30 6739 C 646.84 -2.04558 1.14861 0
M  V30 6740 C 647.856 -1.73842 0.0741621 0
M  V30 6741 O 649.032 -1.99383 0.2843 0
M  V30 6742 C 646.097 -3.36957 0.816148 0
M  V30 6743 C 645.158 -3.81255 1.97341 0
M  V30 6744 C 644.391 -5.07335 1.65671 0
M  V30 6745 O 644.614 -5.67514 0.573053 0
M  V30 6746 O 643.548 -5.47449 2.50167 0
M  V30 6747 H 647.374 -2.19161 2.10243 0
M  V30 6748 H 644.959 -1.03159 1.08068 0
M  V30 6749 H 646.841 -4.16436 0.644873 0
M  V30 6750 H 645.516 -3.2352 -0.107983 0
M  V30 6751 H 644.423 -3.02584 2.19986 0
M  V30 6752 H 645.756 -3.99261 2.87839 0
M  V30 6753 N 647.408 -1.11026 -1.11852 0
M  V30 6754 C 648.355 -0.764662 -2.17765 0
M  V30 6755 C 649.325 0.261854 -1.64023 0
M  V30 6756 O 650.51 0.139748 -1.90288 0
M  V30 6757 C 647.65 -0.209317 -3.44465 0
M  V30 6758 C 646.763 -1.29187 -4.12231 0
M  V30 6759 C 645.898 -0.697523 -5.266 0
M  V30 6760 C 644.937 -1.76023 -5.86244 0
M  V30 6761 N 644.074 -1.18569 -6.92016 0
M  V30 6762 H 648.914 -1.67202 -2.46673 0
M  V30 6763 H 646.451 -0.835065 -1.21099 0
M  V30 6764 H 648.409 0.130599 -4.16996 0
M  V30 6765 H 647.039 0.661251 -3.15955 0
M  V30 6766 H 646.091 -1.74881 -3.37818 0
M  V30 6767 H 647.403 -2.09607 -4.52622 0
M  V30 6768 H 646.557 -0.307412 -6.05921 0
M  V30 6769 H 645.296 0.138044 -4.87505 0
M  V30 6770 H 644.301 -2.1597 -5.05606 0
M  V30 6771 H 645.526 -2.59875 -6.27409 0
M  V30 6772 H 643.472 -0.371695 -6.54946 0
M  V30 6773 H 643.389 -1.92666 -7.31038 0
M  V30 6774 H 644.657 -0.82233 -7.7515 0
M  V30 6775 N 648.886 1.2938 -0.899927 0
M  V30 6776 C 650.132 1.9584 -0.526742 0
M  V30 6777 C 650.465 1.70774 0.924651 0
M  V30 6778 O 649.74 1.02084 1.65557 0
M  V30 6779 C 650.023 3.50638 -0.820062 0
M  V30 6780 C 649.876 3.85161 -2.32317 0
M  V30 6781 C 651.195 4.3903 -0.30671 0
M  V30 6782 H 648.314 0.711322 -0.192848 0
M  V30 6783 H 650.956 1.52992 -1.12665 0
M  V30 6784 H 649.106 3.87265 -0.309491 0
M  V30 6785 H 650.778 3.58477 -2.9033 0
M  V30 6786 H 649.021 3.32696 -2.78381 0
M  V30 6787 H 649.692 4.93204 -2.47898 0
M  V30 6788 H 652.168 4.09396 -0.743908 0
M  V30 6789 H 651.044 5.46226 -0.541144 0
M  V30 6790 H 651.305 4.34937 0.792588 0
M  V30 6791 N 650.364 0.662433 1.43002 0
M  V30 6792 C 651.311 -0.0235324 2.30788 0
M  V30 6793 C 652.281 -0.805342 1.4527 0
M  V30 6794 O 653.466 -0.78009 1.74124 0
M  V30 6795 C 650.606 -0.977545 3.30965 0
M  V30 6796 C 649.719 -0.190865 4.31578 0
M  V30 6797 C 648.854 -1.13951 5.18834 0
M  V30 6798 C 647.893 -0.343796 6.11134 0
M  V30 6799 N 647.03 -1.2445 6.90982 0
M  V30 6800 H 651.87 0.730921 2.88897 0
M  V30 6801 H 649.407 0.372197 1.42313 0
M  V30 6802 H 651.365 -1.54437 3.87563 0
M  V30 6803 H 649.995 -1.69877 2.74484 0
M  V30 6804 H 649.047 0.492388 3.772 0
M  V30 6805 H 650.359 0.427464 4.96965 0
M  V30 6806 H 649.513 -1.77666 5.80103 0
M  V30 6807 H 648.252 -1.79174 4.53595 0
M  V30 6808 H 647.257 0.30665 5.48944 0
M  V30 6809 H 648.482 0.304161 6.78419 0
M  V30 6810 H 646.428 -1.88336 6.28383 0
M  V30 6811 H 646.345 -0.680959 7.52927 0
M  V30 6812 H 647.613 -1.86952 7.56749 0
M  V30 6813 N 651.842 -1.52309 0.404946 0
M  V30 6814 C 653.091 -2.00952 -0.173529 0
M  V30 6815 C 653.404 -1.29512 -1.46581 0
M  V30 6816 O 654.61 -1.6895 -2.12528 0
M  V30 6817 C 653.066 -3.58097 -0.359801 0
M  V30 6818 C 652.674 -4.38449 0.920138 0
M  V30 6819 C 654.418 -4.14984 -0.893794 0
M  V30 6820 C 652.325 -5.87227 0.701285 0
M  V30 6821 H 651.255 -0.750871 -0.0686244 0
M  V30 6822 H 653.906 -1.75687 0.529749 0
M  V30 6823 H 652.288 -3.79675 -1.12531 0
M  V30 6824 H 653.462 -4.28633 1.69147 0
M  V30 6825 H 651.777 -3.92859 1.38024 0
M  V30 6826 H 654.374 -5.23813 -1.0735 0
M  V30 6827 H 654.717 -3.72072 -1.8673 0
M  V30 6828 H 655.25 -3.97358 -0.187453 0
M  V30 6829 H 651.989 -6.34491 1.64624 0
M  V30 6830 H 651.509 -5.99792 -0.0308288 0
M  V30 6831 H 653.188 -6.46096 0.341846 0
M  V30 6832 N 653.32 -0.135238 -1.57019 0
M  V30 6833 C 654.23 0.822226 -2.19719 0
M  V30 6834 C 655.246 1.28057 -1.17802 0
M  V30 6835 O 656.422 1.3402 -1.50335 0
M  V30 6836 C 653.487 2.0484 -2.79717 0
M  V30 6837 C 652.548 1.64042 -3.96723 0
M  V30 6838 C 651.781 2.80814 -4.53849 0
M  V30 6839 O 652.004 3.967 -4.0986 0
M  V30 6840 O 650.938 2.56963 -5.44292 0
M  V30 6841 H 654.764 0.318552 -3.02025 0
M  V30 6842 H 652.349 0.0912021 -1.49121 0
M  V30 6843 H 654.231 2.76622 -3.17897 0
M  V30 6844 H 652.906 2.54182 -2.00432 0
M  V30 6845 H 651.813 0.893182 -3.63281 0
M  V30 6846 H 653.146 1.19426 -4.77492 0
M  V30 6847 N 654.798 1.5699 0.138552 0
M  V30 6848 C 655.745 1.98899 1.17081 0
M  V30 6849 C 656.715 0.857922 1.42228 0
M  V30 6850 O 657.9 1.12065 1.54422 0
M  V30 6851 C 655.04 2.38189 2.4972 0
M  V30 6852 C 654.153 3.64624 2.31674 0
M  V30 6853 C 653.288 3.9298 3.57407 0
M  V30 6854 C 652.327 5.1266 3.34435 0
M  V30 6855 N 651.464 5.36983 4.5232 0
M  V30 6856 H 656.304 2.86881 0.80642 0
M  V30 6857 H 653.841 1.41925 0.386727 0
M  V30 6858 H 655.799 2.59 3.2707 0
M  V30 6859 H 654.429 1.53275 2.84089 0
M  V30 6860 H 653.481 3.51542 1.45337 0
M  V30 6861 H 654.793 4.52131 2.10664 0
M  V30 6862 H 653.947 4.14335 4.43183 0
M  V30 6863 H 652.686 3.03912 3.8143 0
M  V30 6864 H 651.691 4.9117 2.47048 0
M  V30 6865 H 652.916 6.03288 3.11802 0
M  V30 6866 H 650.862 4.50871 4.76499 0
M  V30 6867 H 650.779 6.18775 4.34343 0
M  V30 6868 H 652.047 5.62842 5.39285 0
M  V30 6869 N 656.276 -0.40816 1.52223 0
M  V30 6870 C 657.206 -1.5042 1.78595 0
M  V30 6871 C 658.187 -1.57723 0.636974 0
M  V30 6872 O 659.372 -1.72982 0.882664 0
M  V30 6873 C 656.502 -2.88232 1.93751 0
M  V30 6874 C 655.456 -2.95779 3.09352 0
M  V30 6875 C 654.782 -4.35855 3.09732 0
M  V30 6876 C 656.082 -2.67175 4.48793 0
M  V30 6877 H 657.776 -1.28601 2.70374 0
M  V30 6878 H 655.322 -0.617221 1.30101 0
M  V30 6879 H 657.275 -3.64895 2.10783 0
M  V30 6880 H 655.999 -3.11347 0.986443 0
M  V30 6881 H 654.658 -2.21561 2.92072 0
M  V30 6882 H 654.306 -4.55981 2.12346 0
M  V30 6883 H 654.006 -4.41829 3.87377 0
M  V30 6884 H 655.53 -5.14451 3.28895 0
M  V30 6885 H 656.944 -3.3356 4.66273 0
M  V30 6886 H 655.341 -2.84523 5.28362 0
M  V30 6887 H 656.411 -1.62609 4.56822 0
M  V30 6888 N 657.755 -1.42862 -0.66545 0
M  V30 6889 C 658.687 -1.43026 -1.79098 0
M  V30 6890 C 659.7 -0.32803 -1.59461 0
M  V30 6891 O 660.889 -0.591709 -1.68407 0
M  V30 6892 C 657.989 -1.21566 -3.16346 0
M  V30 6893 C 657.162 -2.44399 -3.62751 0
M  V30 6894 C 656.221 -2.18344 -4.78761 0
M  V30 6895 O 655.247 -2.91611 -4.88827 0
M  V30 6896 N 656.449 -1.1924 -5.68122 0
M  V30 6897 H 659.214 -2.40045 -1.79439 0
M  V30 6898 H 656.775 -1.37861 -0.848872 0
M  V30 6899 H 658.767 -1.02037 -3.91625 0
M  V30 6900 H 657.337 -0.330368 -3.10849 0
M  V30 6901 H 656.557 -2.79433 -2.78048 0
M  V30 6902 H 657.845 -3.26173 -3.90498 0
M  V30 6903 H 657.243 -0.586603 -5.6265 0
M  V30 6904 H 655.8 -1.05698 -6.43173 0
M  V30 6905 N 659.233 0.902656 -1.29189 0
M  V30 6906 C 660.165 2.01149 -1.09872 0
M  V30 6907 C 661.178 1.62732 -0.0471046 0
M  V30 6908 O 662.367 1.76107 -0.29132 0
M  V30 6909 C 659.467 3.32612 -0.649818 0
M  V30 6910 C 658.64 3.99574 -1.7793 0
M  V30 6911 C 657.699 5.09325 -1.32191 0
M  V30 6912 O 656.725 5.31919 -2.02611 0
M  V30 6913 N 657.927 5.80185 -0.191171 0
M  V30 6914 H 660.692 2.18276 -2.05368 0
M  V30 6915 H 658.253 1.07466 -1.2109 0
M  V30 6916 H 660.245 4.03375 -0.327199 0
M  V30 6917 H 658.815 3.11876 0.212597 0
M  V30 6918 H 658.035 3.22213 -2.27095 0
M  V30 6919 H 659.323 4.41056 -2.53668 0
M  V30 6920 H 658.721 5.64312 0.396016 0
M  V30 6921 H 657.278 6.5176 0.0721001 0
M  V30 6922 N 660.711 1.11618 1.11262 0
M  V30 6923 C 661.658 0.7762 2.17356 0
M  V30 6924 C 662.628 -0.253152 1.6416 0
M  V30 6925 O 663.813 -0.129655 1.90359 0
M  V30 6926 C 660.953 0.227581 3.44349 0
M  V30 6927 C 660.066 1.31372 4.1154 0
M  V30 6928 C 659.201 0.72544 5.26223 0
M  V30 6929 C 658.24 1.7913 5.85302 0
M  V30 6930 N 657.377 1.22237 6.91377 0
M  V30 6931 H 662.217 1.68508 2.45783 0
M  V30 6932 H 659.754 0.841475 1.20655 0
M  V30 6933 H 661.712 -0.108483 4.17059 0
M  V30 6934 H 660.342 -0.644486 3.16301 0
M  V30 6935 H 659.394 1.7667 3.36885 0
M  V30 6936 H 660.706 2.12005 4.51504 0
M  V30 6937 H 659.86 0.339541 6.05749 0
M  V30 6938 H 658.599 -0.112188 4.87571 0
M  V30 6939 H 657.604 2.18648 5.04453 0
M  V30 6940 H 658.829 2.63199 6.26022 0
M  V30 6941 H 656.775 0.406423 6.5474 0
M  V30 6942 H 656.692 1.9654 7.30006 0
M  V30 6943 H 657.96 0.863426 7.74703 0
M  V30 6944 N 662.189 -1.289 0.906776 0
M  V30 6945 C 663.438 -1.9455 0.532262 0
M  V30 6946 C 663.751 -1.72219 -0.927353 0
M  V30 6947 O 664.957 -2.32033 -1.40971 0
M  V30 6948 C 663.413 -3.48438 0.901041 0
M  V30 6949 C 663.021 -3.79558 2.37991 0
M  V30 6950 C 664.765 -4.20284 0.596777 0
M  V30 6951 C 662.672 -5.26723 2.68918 0
M  V30 6952 H 661.602 -0.728259 0.195333 0
M  V30 6953 H 664.253 -1.46519 1.10474 0
M  V30 6954 H 662.635 -3.95162 0.257419 0
M  V30 6955 H 663.809 -3.43668 3.06967 0
M  V30 6956 H 662.124 -3.20868 2.65391 0
M  V30 6957 H 664.721 -5.28612 0.8046 0
M  V30 6958 H 665.064 -4.13694 -0.465072 0
M  V30 6959 H 665.597 -3.79315 1.19855 0
M  V30 6960 H 662.336 -5.38384 3.73928 0
M  V30 6961 H 661.856 -5.63836 2.04571 0
M  V30 6962 H 663.535 -5.94391 2.55555 0
M  V30 6963 N 663.667 -0.670007 -1.42649 0
M  V30 6964 C 664.599 0.0501746 -2.29145 0
M  V30 6965 C 665.612 0.770331 -1.43422 0
M  V30 6966 O 666.801 0.625288 -1.6719 0
M  V30 6967 C 663.901 1.09463 -3.20735 0
M  V30 6968 C 663.074 0.44926 -4.35087 0
M  V30 6969 C 662.133 1.39285 -5.07431 0
M  V30 6970 O 661.159 0.894997 -5.6212 0
M  V30 6971 N 662.361 2.72631 -5.12496 0
M  V30 6972 H 665.126 -0.692312 -2.91594 0
M  V30 6973 H 662.687 -0.514056 -1.53522 0
M  V30 6974 H 664.679 1.72705 -3.65999 0
M  V30 6975 H 663.249 1.73891 -2.59771 0
M  V30 6976 H 662.469 -0.362573 -3.92529 0
M  V30 6977 H 663.757 -0.000544776 -5.088 0
M  V30 6978 H 663.155 3.15623 -4.69467 0
M  V30 6979 H 661.712 3.31132 -5.61422 0
M  V30 6980 N 665.145 1.52092 -0.413018 0
M  V30 6981 C 666.075 2.30021 0.401567 0
M  V30 6982 C 667.056 1.34395 1.04269 0
M  V30 6983 O 668.241 1.63304 1.05097 0
M  V30 6984 C 665.371 3.12447 1.51638 0
M  V30 6985 C 664.325 4.16153 1.00005 0
M  V30 6986 C 663.651 4.86948 2.20875 0
M  V30 6987 C 664.951 5.22275 0.0513757 0
M  V30 6988 H 666.645 2.98365 -0.248704 0
M  V30 6989 H 664.191 1.4349 -0.121052 0
M  V30 6990 H 666.144 3.65733 2.09326 0
M  V30 6991 H 664.868 2.41879 2.19458 0
M  V30 6992 H 663.527 3.63882 0.445549 0
M  V30 6993 H 663.175 4.12905 2.8726 0
M  V30 6994 H 662.875 5.57057 1.86978 0
M  V30 6995 H 664.399 5.43048 2.79162 0
M  V30 6996 H 665.813 5.70778 0.537176 0
M  V30 6997 H 664.21 5.9977 -0.198977 0
M  V30 6998 H 665.28 4.76611 -0.892736 0
M  V30 6999 N 666.623 0.143563 1.56945 0
M  V30 7000 C 667.586 -0.783295 2.154 0
M  V30 7001 C 668.586 -1.17763 1.09492 0
M  V30 7002 O 669.776 -1.09912 1.35148 0
M  V30 7003 C 666.908 -2.06248 2.7143 0
M  V30 7004 H 668.101 -0.274863 2.98638 0
M  V30 7005 H 665.654 -0.105859 1.55941 0
M  V30 7006 H 666.389 -2.61466 1.91849 0
M  V30 7007 H 666.174 -1.78897 3.4891 0
M  V30 7008 H 667.664 -2.72453 3.16479 0
M  V30 7009 N 668.101 -1.57061 -0.130224 0
M  V30 7010 C 669.031 -2.02552 -1.16168 0
M  V30 7011 C 670.012 -0.907971 -1.4384 0
M  V30 7012 O 671.197 -1.17693 -1.54473 0
M  V30 7013 C 668.327 -2.42035 -2.49071 0
M  V30 7014 C 667.281 -3.5713 -2.35886 0
M  V30 7015 C 666.607 -3.82478 -3.7365 0
M  V30 7016 C 667.907 -4.89236 -1.8288 0
M  V30 7017 H 669.601 -2.8897 -0.783359 0
M  V30 7018 H 667.147 -1.39021 -0.375376 0
M  V30 7019 H 669.1 -2.72462 -3.21469 0
M  V30 7020 H 667.824 -1.52573 -2.88771 0
M  V30 7021 H 666.483 -3.26895 -1.65938 0
M  V30 7022 H 666.131 -2.9024 -4.10816 0
M  V30 7023 H 665.831 -4.59944 -3.65685 0
M  V30 7024 H 667.355 -4.15347 -4.47571 0
M  V30 7025 H 668.769 -5.18272 -2.45085 0
M  V30 7026 H 667.166 -5.70624 -1.85763 0
M  V30 7027 H 668.236 -4.78494 -0.785571 0
M  V30 7028 N 669.579 0.400081 -1.52437 0
M  V30 7029 C 670.511 1.50729 -1.72666 0
M  V30 7030 C 671.524 1.51058 -0.607075 0
M  V30 7031 O 672.713 1.5516 -0.88248 0
M  V30 7032 C 669.813 2.89604 -1.76019 0
M  V30 7033 C 668.986 3.13365 -3.05157 0
M  V30 7034 C 668.045 4.32163 -3.00203 0
M  V30 7035 O 667.071 4.29004 -3.74092 0
M  V30 7036 N 668.273 5.3776 -2.18619 0
M  V30 7037 H 671.038 1.33767 -2.68191 0
M  V30 7038 H 668.599 0.58948 -1.50787 0
M  V30 7039 H 670.591 3.67159 -1.70225 0
M  V30 7040 H 669.161 2.99979 -0.879284 0
M  V30 7041 H 668.381 2.23774 -3.24529 0
M  V30 7042 H 669.669 3.26089 -3.90568 0
M  V30 7043 H 669.067 5.43177 -1.58035 0
M  V30 7044 H 667.624 6.14023 -2.18674 0
M  V30 7045 N 671.057 1.43213 0.657864 0
M  V30 7046 C 672.007 1.44459 1.76396 0
M  V30 7047 C 672.991 0.313641 1.57814 0
M  V30 7048 O 674.183 0.557094 1.68004 0
M  V30 7049 C 671.312 1.36586 3.14959 0
M  V30 7050 C 670.398 2.54692 3.39106 0
M  V30 7051 N 670.789 3.80059 3.33749 0
M  V30 7052 C 669.087 2.49316 3.69807 0
M  V30 7053 C 669.788 4.58606 3.57849 0
M  V30 7054 N 668.764 3.89267 3.79437 0
M  V30 7055 H 672.566 2.39265 1.70673 0
M  V30 7056 H 670.08 1.378 0.859357 0
M  V30 7057 H 672.077 1.35561 3.94245 0
M  V30 7058 H 670.737 0.427956 3.21867 0
M  V30 7059 H 671.748 4.12414 3.13266 0
M  V30 7060 H 668.425 1.6419 3.83859 0
M  V30 7061 H 669.815 5.67619 3.59525 0
M  V30 7062 N 672.536 -0.895792 1.29666 0
M  V30 7063 C 673.782 -1.64908 1.18039 0
M  V30 7064 C 674.115 -1.9236 -0.266682 0
M  V30 7065 O 673.39 -1.53682 -1.19214 0
M  V30 7066 C 673.673 -2.99574 1.99819 0
M  V30 7067 C 673.526 -2.79163 3.52687 0
M  V30 7068 C 674.845 -4.00358 1.82761 0
M  V30 7069 H 671.964 -0.598437 0.430165 0
M  V30 7070 H 674.606 -1.03736 1.59182 0
M  V30 7071 H 672.756 -3.51786 1.64859 0
M  V30 7072 H 674.428 -2.33821 3.9765 0
M  V30 7073 H 672.671 -2.13871 3.77414 0
M  V30 7074 H 673.342 -3.74871 4.05186 0
M  V30 7075 H 675.818 -3.57268 2.13304 0
M  V30 7076 H 674.694 -4.92514 2.42325 0
M  V30 7077 H 674.955 -4.35096 0.783839 0
M  V30 7078 N 674.014 -1.12206 -1.10668 0
M  V30 7079 C 674.944 -0.810086 -2.18997 0
M  V30 7080 C 675.925 0.225065 -1.68604 0
M  V30 7081 O 677.11 0.086783 -1.94006 0
M  V30 7082 C 674.24 -0.261262 -3.46316 0
M  V30 7083 C 673.194 -1.2292 -4.09969 0
M  V30 7084 C 672.52 -0.540713 -5.31959 0
M  V30 7085 C 673.82 -2.58295 -4.53962 0
M  V30 7086 H 675.514 -1.7159 -2.45352 0
M  V30 7087 H 673.06 -0.82646 -1.17922 0
M  V30 7088 H 675.013 -0.0307522 -4.21389 0
M  V30 7089 H 673.737 0.679879 -3.19445 0
M  V30 7090 H 672.396 -1.44548 -3.369 0
M  V30 7091 H 672.044 0.405492 -5.01363 0
M  V30 7092 H 671.744 -1.18637 -5.75499 0
M  V30 7093 H 673.268 -0.319184 -6.09765 0
M  V30 7094 H 674.682 -2.40709 -5.20319 0
M  V30 7095 H 673.079 -3.18916 -5.08343 0
M  V30 7096 H 674.149 -3.16918 -3.67002 0
M  V30 7097 N 675.492 1.28418 -0.913599 0
M  V30 7098 C 676.424 2.26368 -0.359169 0
M  V30 7099 C 677.437 1.54858 0.502285 0
M  V30 7100 O 678.626 1.75659 0.31719 0
M  V30 7101 C 675.726 3.35112 0.50526 0
M  V30 7102 C 674.899 4.36126 -0.333648 0
M  V30 7103 C 673.958 5.24134 0.465845 0
M  V30 7104 O 672.984 5.6907 -0.121538 0
M  V30 7105 N 674.186 5.52892 1.76891 0
M  V30 7106 H 676.951 2.74579 -1.2011 0
M  V30 7107 H 674.512 1.41898 -0.779532 0
M  V30 7108 H 676.504 3.90926 1.04684 0
M  V30 7109 H 675.074 2.86611 1.2479 0
M  V30 7110 H 674.294 3.79776 -1.0566 0
M  V30 7111 H 675.582 5.00638 -0.907669 0
M  V30 7112 H 674.98 5.18217 2.26865 0
M  V30 7113 H 673.537 6.11464 2.25732 0
M  V30 7114 N 676.97 0.677563 1.42291 0
M  V30 7115 C 677.917 0.000947061 2.308 0
M  V30 7116 C 678.887 -0.789889 1.46116 0
M  V30 7117 O 680.072 -0.761578 1.74942 0
M  V30 7118 C 677.212 -0.942387 3.31984 0
M  V30 7119 C 676.325 -0.14508 4.31756 0
M  V30 7120 C 675.46 -1.08442 5.20013 0
M  V30 7121 C 674.499 -0.278958 6.11464 0
M  V30 7122 N 673.636 -1.17115 6.92263 0
M  V30 7123 H 678.476 0.761521 2.88106 0
M  V30 7124 H 676.013 0.38727 1.41911 0
M  V30 7125 H 677.971 -1.50317 3.89179 0
M  V30 7126 H 676.601 -1.66956 2.76271 0
M  V30 7127 H 675.653 0.532368 3.76656 0
M  V30 7128 H 676.965 0.48015 4.96484 0
M  V30 7129 H 676.119 -1.71504 5.81955 0
M  V30 7130 H 674.858 -1.74353 4.55469 0
M  V30 7131 H 673.863 0.364856 5.48588 0
M  V30 7132 H 675.088 0.376099 6.78058 0
M  V30 7133 H 673.034 -1.81661 6.30345 0
M  V30 7134 H 672.951 -0.601063 7.53607 0
M  V30 7135 H 674.219 -1.78915 7.58689 0
M  V30 7136 N 678.448 -1.51871 0.421078 0
M  V30 7137 C 679.396 -2.28903 -0.413066 0
M  V30 7138 C 680.39 -1.3408 -1.03532 0
M  V30 7139 O 681.596 -1.5149 -0.972146 0
M  V30 7140 H 677.971 -0.736478 -0.152003 0
M  V30 7141 H 679.942 -2.97285 0.257695 0
M  V30 7142 C 678.691 -3.13156 -1.51091 0
M  V30 7143 H 678.014 -3.85997 -1.04145 0
M  V30 7144 H 679.454 -3.7014 -2.06814 0
M  V30 7145 C 677.913 -2.27482 -2.48503 0
M  V30 7146 O 678.443 -1.92325 -3.52667 0
M  V30 7147 N 676.649 -1.91019 -2.18998 0
M  V30 7148 H 676.196 -2.19808 -1.34322 0
M  V30 7149 H 676.154 -1.3399 -2.84419 0
M  V30 7150 N 679.926 -0.151884 -1.56866 0
M  V30 7151 C 680.876 0.797799 -2.13586 0
M  V30 7152 C 681.86 1.20613 -1.06496 0
M  V30 7153 O 683.052 1.17173 -1.32663 0
M  V30 7154 C 680.181 2.03493 -2.76488 0
M  V30 7155 C 679.267 1.64948 -3.90708 0
M  V30 7156 N 679.658 0.972513 -4.96363 0
M  V30 7157 C 677.956 1.94186 -4.01507 0
M  V30 7158 C 678.657 0.785661 -5.7637 0
M  V30 7159 N 677.633 1.32105 -5.27304 0
M  V30 7160 H 681.435 0.271403 -2.92644 0
M  V30 7161 H 678.949 0.049487 -1.62325 0
M  V30 7162 H 680.946 2.72532 -3.15487 0
M  V30 7163 H 679.606 2.56646 -1.98904 0
M  V30 7164 H 680.617 0.632724 -5.1402 0
M  V30 7165 H 677.294 2.49154 -3.35005 0
M  V30 7166 H 678.684 0.251749 -6.71428 0
M  V30 7167 N 681.404 1.57128 0.121893 0
M  V30 7168 C 682.82 1.52357 0.47534 0
M  V30 7169 C 683.02 0.864417 1.82017 0
M  V30 7170 O 682.076 0.445529 2.48538 0
M  V30 7171 C 683.389 2.97122 0.4625 0
M  V30 7172 C 684.937 3.08196 0.546255 0
M  V30 7173 C 685.412 4.54516 0.563833 0
M  V30 7174 N 686.903 4.58959 0.625353 0
M  V30 7175 C 687.638 5.69585 0.660354 0
M  V30 7176 N 687.134 6.89714 0.653175 0
M  V30 7177 N 688.927 5.57685 0.703143 0
M  V30 7178 H 681.078 1.98364 -0.75931 0
M  V30 7179 H 683.341 0.905777 -0.279772 0
M  V30 7180 H 683.047 3.48706 -0.457943 0
M  V30 7181 H 682.921 3.54406 1.29136 0
M  V30 7182 H 685.308 2.56617 1.45712 0
M  V30 7183 H 685.389 2.53912 -0.310234 0
M  V30 7184 H 685.033 5.06741 -0.342974 0
M  V30 7185 H 684.963 5.06609 1.43716 0
M  V30 7186 H 687.454 3.72489 0.637182 0
M  V30 7187 H 687.767 7.69781 0.682425 0
M  V30 7188 H 686.112 6.92223 0.620646 0
M  V30 7189 H 689.303 4.62744 0.706095 0
M  V30 7190 H 689.476 6.43909 0.726952 0
M  V30 7191 N 682.882 -0.391992 1.52647 0
M  V30 7192 C 683.792 -1.503 1.80131 0
M  V30 7193 C 684.808 -1.59825 0.687882 0
M  V30 7194 O 685.984 -1.76218 0.975149 0
M  V30 7195 C 683.049 -2.85863 1.96171 0
M  V30 7196 C 682.11 -2.86084 3.20085 0
M  V30 7197 C 681.343 -4.15181 3.35351 0
M  V30 7198 O 681.566 -5.09981 2.55491 0
M  V30 7199 O 680.5 -4.22603 4.28591 0
M  V30 7200 H 684.326 -1.30007 2.74466 0
M  V30 7201 H 681.911 -0.579539 1.37701 0
M  V30 7202 H 683.793 -3.66236 2.08445 0
M  V30 7203 H 682.468 -3.06189 1.05025 0
M  V30 7204 H 681.375 -2.04504 3.13256 0
M  V30 7205 H 682.708 -2.7071 4.11068 0
M  V30 7206 N 684.36 -1.4356 -0.65026 0
M  V30 7207 C 685.637 -1.35811 -1.40765 0
M  V30 7208 C 686.017 -0.00736379 -2.11099 0
M  V30 7209 O 685.365 1.00932 -2.05 0
M  V30 7210 C 685.575 -2.54332 -2.3899 0
M  V30 7211 C 686.923 -2.97551 -3.02901 0
M  V30 7212 O 687.947 -2.544 -2.49317 0
M  V30 7213 O 686.806 -3.72311 -4.00059 0
M  V30 7214 H 683.9 -0.536861 -0.629054 0
M  V30 7215 H 686.446 -1.55615 -0.676919 0
M  V30 7216 H 685.218 -3.44274 -1.85986 0
M  V30 7217 H 684.841 -2.36643 -3.19509 0
M  V30 7218 N 685.838 0.888903 -1.30139 0
M  V30 7219 C 687.086 1.63713 -1.18501 0
M  V30 7220 C 687.407 1.9324 0.261399 0
M  V30 7221 O 686.677 1.56608 1.17689 0
M  V30 7222 H 685.257 0.606861 -0.435579 0
M  V30 7223 H 687.919 1.06525 -1.63213 0
M  V30 7224 H 687.015 2.58894 -1.743 0
M  V30 7225 N 687.317 1.12792 1.10072 0
M  V30 7226 C 688.566 0.880232 1.81479 0
M  V30 7227 C 688.879 -0.595575 1.86312 0
M  V30 7228 O 690.085 -0.959979 2.53962 0
M  V30 7229 C 688.541 1.52514 3.25987 0
M  V30 7230 C 688.149 3.036 3.29441 0
M  V30 7231 C 689.893 1.35788 4.02196 0
M  V30 7232 C 687.8 3.61007 4.68431 0
M  V30 7233 H 686.73 0.325654 0.680048 0
M  V30 7234 H 689.381 1.35485 1.23758 0
M  V30 7235 H 687.763 0.978188 3.83728 0
M  V30 7236 H 688.937 3.64819 2.81502 0
M  V30 7237 H 687.252 3.19765 2.66719 0
M  V30 7238 H 689.849 1.76096 5.0487 0
M  V30 7239 H 690.192 0.301972 4.15203 0
M  V30 7240 H 690.725 1.87426 3.50879 0
M  V30 7241 H 687.464 4.66375 4.60625 0
M  V30 7242 H 686.984 3.04564 5.16721 0
M  V30 7243 H 688.663 3.60289 5.37402 0
M  V30 7244 N 688.795 -1.27931 0.920396 0
M  V30 7245 C 689.725 -2.29487 0.431024 0
M  V30 7246 C 690.706 -1.62435 -0.504861 0
M  V30 7247 O 691.891 -1.89797 -0.411176 0
M  V30 7248 C 689.021 -3.45788 -0.323709 0
M  V30 7249 C 687.975 -4.24784 0.523658 0
M  V30 7250 C 687.301 -5.33488 -0.359809 0
M  V30 7251 C 688.601 -4.90874 1.78437 0
M  V30 7252 H 690.295 -2.70671 1.27975 0
M  V30 7253 H 687.841 -1.30121 0.616813 0
M  V30 7254 H 689.794 -4.15927 -0.676952 0
M  V30 7255 H 688.518 -3.03502 -1.2064 0
M  V30 7256 H 687.177 -3.56382 0.85951 0
M  V30 7257 H 686.825 -4.87445 -1.24124 0
M  V30 7258 H 686.525 -5.87247 0.203605 0
M  V30 7259 H 688.049 -6.06472 -0.708787 0
M  V30 7260 H 689.463 -5.53339 1.49963 0
M  V30 7261 H 687.86 -5.54659 2.29071 0
M  V30 7262 H 688.93 -4.14988 2.50824 0
M  V30 7263 N 690.273 -0.685099 -1.4193 0
M  V30 7264 C 691.501 -0.220372 -2.05723 0
M  V30 7265 C 691.916 1.12642 -1.51516 0
M  V30 7266 O 691.273 1.70182 -0.659114 0
M  V30 7267 C 691.324 -0.157974 -3.61155 0
M  V30 7268 O 691.045 -1.45156 -4.13354 0
M  V30 7269 C 692.546 0.329009 -4.42077 0
M  V30 7270 H 689.766 -0.104725 -0.662777 0
M  V30 7271 H 692.31 -0.934736 -1.81887 0
M  V30 7272 H 690.465 0.507144 -3.84066 0
M  V30 7273 H 690.879 -1.33172 -5.07312 0
M  V30 7274 H 692.353 0.321559 -5.51063 0
M  V30 7275 H 692.83 1.36608 -4.17414 0
M  V30 7276 H 693.436 -0.304737 -4.24207 0
M  V30 7277 N 691.751 1.51645 -0.429126 0
M  V30 7278 C 692.698 2.27542 0.386446 0
M  V30 7279 C 693.668 1.30786 1.02393 0
M  V30 7280 O 694.853 1.59678 1.0444 0
M  V30 7281 C 691.993 3.11457 1.48623 0
M  V30 7282 C 691.106 4.23196 0.867691 0
M  V30 7283 C 690.241 4.94435 1.94183 0
M  V30 7284 C 689.28 5.98108 1.30129 0
M  V30 7285 N 688.417 6.62786 2.31644 0
M  V30 7286 H 693.257 2.968 -0.267155 0
M  V30 7287 H 690.794 1.46397 -0.143591 0
M  V30 7288 H 692.752 3.58429 2.13506 0
M  V30 7289 H 691.382 2.44329 2.10957 0
M  V30 7290 H 690.434 3.80248 0.107373 0
M  V30 7291 H 691.746 4.97499 0.35997 0
M  V30 7292 H 690.9 5.44914 2.66747 0
M  V30 7293 H 689.639 4.19744 2.48326 0
M  V30 7294 H 688.644 5.4693 0.561082 0
M  V30 7295 H 689.869 6.74751 0.767303 0
M  V30 7296 H 687.815 5.90913 2.84883 0
M  V30 7297 H 687.732 7.32828 1.85741 0
M  V30 7298 H 689 7.17897 3.03717 0
M  V30 7299 N 693.229 0.160201 1.56784 0
M  V30 7300 C 694.159 -0.770264 2.2043 0
M  V30 7301 C 695.14 -1.24736 1.15651 0
M  V30 7302 O 696.325 -1.30253 1.44041 0
M  V30 7303 C 693.455 -2.00427 2.83631 0
M  V30 7304 C 692.409 -1.66345 3.94352 0
M  V30 7305 C 691.735 -2.97119 4.4455 0
M  V30 7306 C 693.035 -0.899972 5.14488 0
M  V30 7307 H 694.729 -0.239783 2.98438 0
M  V30 7308 H 692.275 -0.113891 1.43549 0
M  V30 7309 H 694.228 -2.66012 3.26827 0
M  V30 7310 H 692.952 -2.5587 2.02973 0
M  V30 7311 H 691.611 -1.03133 3.51794 0
M  V30 7312 H 691.259 -3.5058 3.60698 0
M  V30 7313 H 690.959 -2.75073 5.19238 0
M  V30 7314 H 692.483 -3.63753 4.90425 0
M  V30 7315 H 693.897 -1.45818 5.54446 0
M  V30 7316 H 692.294 -0.778968 5.95023 0
M  V30 7317 H 693.364 0.105827 4.84785 0
M  V30 7318 N 694.707 -1.5719 -0.113559 0
M  V30 7319 C 695.956 -1.84325 -0.818984 0
M  V30 7320 C 696.269 -0.746685 -1.80787 0
M  V30 7321 O 697.475 -0.904596 -2.55987 0
M  V30 7322 C 695.931 -3.26818 -1.50724 0
M  V30 7323 C 695.539 -4.44498 -0.559065 0
M  V30 7324 C 697.283 -3.63196 -2.19748 0
M  V30 7325 C 695.19 -5.7802 -1.25086 0
M  V30 7326 H 694.12 -0.687507 -0.309596 0
M  V30 7327 H 696.771 -1.8336 -0.0717621 0
M  V30 7328 H 695.153 -3.22269 -2.30128 0
M  V30 7329 H 696.327 -4.60356 0.202146 0
M  V30 7330 H 694.642 -4.16393 0.024495 0
M  V30 7331 H 697.239 -4.60226 -2.72206 0
M  V30 7332 H 697.582 -2.90899 -2.97798 0
M  V30 7333 H 698.115 -3.69553 -1.47226 0
M  V30 7334 H 694.854 -6.53501 -0.511539 0
M  V30 7335 H 694.374 -5.66038 -1.98395 0
M  V30 7336 H 696.053 -6.2196 -1.78253 0
M  V30 7337 N 696.185 0.383891 -1.52853 0
M  V30 7338 C 697.425 1.13731 -1.69837 0
M  V30 7339 C 697.789 1.87086 -0.431611 0
M  V30 7340 O 698.99 2.64518 -0.477886 0
M  V30 7341 C 697.261 2.08551 -2.90243 0
M  V30 7342 S 698.82 2.9166 -3.27841 0
M  V30 7343 H 695.638 0.384911 -0.5978 0
M  V30 7344 H 698.24 0.42103 -1.90913 0
M  V30 7345 H 696.944 1.53392 -3.80656 0
M  V30 7346 H 696.475 2.8468 -2.71516 0
M  V30 7347 H 698.49 4.10723 -2.78426 0
M  V30 7348 N 697.663 1.43903 0.642637 0
M  V30 7349 C 698.61 1.49881 1.75512 0
M  V30 7350 C 699.58 0.347538 1.62423 0
M  V30 7351 O 700.765 0.556177 1.82514 0
M  V30 7352 C 697.905 1.43797 3.13714 0
M  V30 7353 C 697.018 2.6921 3.37861 0
M  V30 7354 C 696.153 2.5504 4.6597 0
M  V30 7355 C 695.192 3.75671 4.83257 0
M  V30 7356 N 694.329 3.60247 6.02633 0
M  V30 7357 H 699.169 2.44935 1.69737 0
M  V30 7358 H 696.706 1.21572 0.828165 0
M  V30 7359 H 698.664 1.38262 3.93624 0
M  V30 7360 H 697.294 0.523173 3.18532 0
M  V30 7361 H 696.346 2.8498 2.51973 0
M  V30 7362 H 697.658 3.58786 3.46517 0
M  V30 7363 H 696.812 2.47273 5.54023 0
M  V30 7364 H 695.551 1.63006 4.59653 0
M  V30 7365 H 694.556 3.83836 3.93637 0
M  V30 7366 H 695.781 4.68728 4.91397 0
M  V30 7367 H 693.727 2.70955 5.97427 0
M  V30 7368 H 693.644 4.43431 6.12295 0
M  V30 7369 H 694.912 3.56351 6.93278 0
M  V30 7370 N 699.141 -0.881989 1.30609 0
M  V30 7371 C 700.387 -1.63647 1.19781 0
M  V30 7372 C 700.72 -1.92632 -0.246265 0
M  V30 7373 O 699.995 -1.54938 -1.17577 0
M  V30 7374 C 700.278 -2.97437 2.02985 0
M  V30 7375 C 700.131 -2.75406 3.55628 0
M  V30 7376 C 701.45 -3.98397 1.86997 0
M  V30 7377 H 698.569 -0.593841 0.436488 0
M  V30 7378 H 701.211 -1.02041 1.60273 0
M  V30 7379 H 699.361 -3.50018 1.68581 0
M  V30 7380 H 701.033 -2.2959 4.00107 0
M  V30 7381 H 699.276 -2.09856 3.79662 0
M  V30 7382 H 699.947 -3.70552 4.09139 0
M  V30 7383 H 702.423 -3.54986 2.17081 0
M  V30 7384 H 701.299 -4.89916 2.47536 0
M  V30 7385 H 701.56 -4.3424 0.829943 0
M  V30 7386 N 700.619 -1.13374 -1.09472 0
M  V30 7387 C 701.844 -0.918711 -1.85942 0
M  V30 7388 C 702.269 0.527225 -1.8056 0
M  V30 7389 O 701.627 1.37408 -1.18274 0
M  V30 7390 C 701.675 -1.41056 -3.31867 0
M  V30 7391 O 700.779 -0.595496 -4.08078 0
M  V30 7392 H 700.12 -0.329297 -0.576593 0
M  V30 7393 H 702.65 -1.50829 -1.38245 0
M  V30 7394 H 702.66 -1.41398 -3.82715 0
M  V30 7395 H 701.335 -2.46335 -3.35099 0
M  V30 7396 H 699.912 -0.659911 -3.67014 0
M  V30 7397 N 702.098 1.27442 -0.927168 0
M  V30 7398 C 703.326 1.98498 -0.583622 0
M  V30 7399 C 703.741 1.69171 0.838241 0
M  V30 7400 O 703.098 0.951969 1.55704 0
M  V30 7401 C 703.149 3.52552 -0.799341 0
M  V30 7402 O 702.87 3.80851 -2.16527 0
M  V30 7403 C 704.371 4.4086 -0.464436 0
M  V30 7404 H 701.591 0.633487 -0.221213 0
M  V30 7405 H 704.135 1.62308 -1.24404 0
M  V30 7406 H 702.29 3.86955 -0.185728 0
M  V30 7407 H 702.704 4.75441 -2.21487 0
M  V30 7408 H 704.178 5.47967 -0.666075 0
M  V30 7409 H 704.655 4.35082 0.599995 0
M  V30 7410 H 705.261 4.11977 -1.05617 0
M  V30 7411 N 703.576 0.692616 1.41565 0
M  V30 7412 C 704.506 0.0397325 2.33466 0
M  V30 7413 C 705.487 -0.770334 1.51657 0
M  V30 7414 O 706.672 -0.723903 1.80203 0
M  V30 7415 C 703.802 -0.899495 3.3545 0
M  V30 7416 C 702.756 -0.196738 4.27548 0
M  V30 7417 C 702.082 -1.25012 5.19881 0
M  V30 7418 C 703.382 0.935158 5.1386 0
M  V30 7419 H 705.076 0.807296 2.88311 0
M  V30 7420 H 702.622 0.389665 1.38628 0
M  V30 7421 H 704.575 -1.36545 3.98665 0
M  V30 7422 H 703.299 -1.69869 2.78948 0
M  V30 7423 H 701.958 0.249158 3.65752 0
M  V30 7424 H 701.606 -2.04177 4.59696 0
M  V30 7425 H 701.306 -0.784931 5.82334 0
M  V30 7426 H 702.83 -1.71665 5.85972 0
M  V30 7427 H 704.244 0.549619 5.70659 0
M  V30 7428 H 702.641 1.32726 5.85238 0
M  V30 7429 H 703.711 1.77613 4.512 0
M  V30 7430 N 705.054 -1.51416 0.437162 0
M  V30 7431 C 706.47 -1.59349 0.0894459 0
M  V30 7432 C 706.67 -1.44809 -1.40116 0
M  V30 7433 O 705.726 -1.28924 -2.17106 0
M  V30 7434 C 707.039 -2.9446 0.609398 0
M  V30 7435 C 708.587 -3.07769 0.569824 0
M  V30 7436 C 709.062 -4.45404 1.06675 0
M  V30 7437 N 710.553 -4.51723 1.02473 0
M  V30 7438 C 711.288 -5.56544 1.3801 0
M  V30 7439 N 710.784 -6.68784 1.80831 0
M  V30 7440 N 712.577 -5.46901 1.29828 0
M  V30 7441 H 704.728 -1.59112 1.40703 0
M  V30 7442 H 706.991 -0.750031 0.579791 0
M  V30 7443 H 706.697 -3.1047 1.65231 0
M  V30 7444 H 706.571 -3.77184 0.0342236 0
M  V30 7445 H 708.958 -2.91428 -0.464107 0
M  V30 7446 H 709.039 -2.26885 1.1814 0
M  V30 7447 H 708.683 -4.62492 2.09914 0
M  V30 7448 H 708.613 -5.24827 0.431712 0
M  V30 7449 H 711.104 -3.71165 0.710258 0
M  V30 7450 H 711.417 -7.44787 2.06185 0
M  V30 7451 H 709.762 -6.69992 1.84757 0
M  V30 7452 H 712.953 -4.581 0.962397 0
M  V30 7453 H 713.126 -6.2848 1.57851 0
M  V30 7454 N 706.532 -0.168513 -1.56696 0
M  V30 7455 C 707.495 0.748928 -2.16619 0
M  V30 7456 C 708.495 1.16007 -1.11351 0
M  V30 7457 O 709.685 1.07748 -1.3688 0
M  V30 7458 C 706.817 2.01904 -2.74677 0
M  V30 7459 H 708.01 0.227317 -2.99037 0
M  V30 7460 H 705.563 0.0810372 -1.5609 0
M  V30 7461 H 706.298 2.58381 -1.95985 0
M  V30 7462 H 706.083 1.73323 -3.51712 0
M  V30 7463 H 707.573 2.67383 -3.20774 0
M  V30 7464 N 708.01 1.57248 0.105221 0
M  V30 7465 C 708.94 2.04374 1.12931 0
M  V30 7466 C 709.921 0.93074 1.42377 0
M  V30 7467 O 711.106 1.20136 1.52581 0
M  V30 7468 C 708.236 2.45967 2.45189 0
M  V30 7469 C 707.19 3.60838 2.30174 0
M  V30 7470 C 706.516 3.88374 3.67518 0
M  V30 7471 C 707.816 4.92084 1.75073 0
M  V30 7472 H 709.51 2.9018 0.737287 0
M  V30 7473 H 707.056 1.39601 0.353211 0
M  V30 7474 H 709.009 2.77542 3.17094 0
M  V30 7475 H 707.733 1.57148 2.86308 0
M  V30 7476 H 706.392 3.29493 1.60716 0
M  V30 7477 H 706.04 2.96739 4.06147 0
M  V30 7478 H 705.74 4.65703 3.58321 0
M  V30 7479 H 707.264 4.22415 4.40906 0
M  V30 7480 H 708.678 5.22106 2.36809 0
M  V30 7481 H 707.075 5.73507 1.76662 0
M  V30 7482 H 708.145 4.79684 0.709347 0
M  V30 7483 N 709.488 -0.375779 1.53054 0
M  V30 7484 C 710.728 -1.12828 1.70438 0
M  V30 7485 C 711.092 -1.86854 0.441527 0
M  V30 7486 O 712.293 -2.64261 0.491908 0
M  V30 7487 C 710.564 -2.07009 2.91345 0
M  V30 7488 S 712.123 -2.89917 3.29383 0
M  V30 7489 H 708.941 -0.381736 0.599832 0
M  V30 7490 H 711.543 -0.4109 1.91133 0
M  V30 7491 H 710.247 -1.51371 3.81464 0
M  V30 7492 H 709.778 -2.83236 2.73022 0
M  V30 7493 H 711.793 -4.0924 2.80601 0
M  V30 7494 N 710.966 -1.44241 -0.634997 0
M  V30 7495 C 712.214 -1.46531 -1.39187 0
M  V30 7496 C 712.535 -0.0976441 -1.94755 0
M  V30 7497 O 711.805 0.869528 -1.75545 0
M  V30 7498 H 710.385 -0.539544 -0.516625 0
M  V30 7499 H 713.047 -1.79989 -0.747655 0
M  V30 7500 H 712.143 -2.18848 -2.22513 0
M  V30 7501 N 712.444 0.87505 -1.31075 0
M  V30 7502 C 713.86 1.15997 -1.09622 0
M  V30 7503 C 714.06 2.01036 0.136611 0
M  V30 7504 O 713.116 2.38559 0.827397 0
M  V30 7505 C 714.429 1.85702 -2.36506 0
M  V30 7506 C 715.977 1.98425 -2.42067 0
M  V30 7507 C 716.452 2.71544 -3.68819 0
M  V30 7508 N 717.943 2.79084 -3.69684 0
M  V30 7509 C 718.678 3.36259 -4.64454 0
M  V30 7510 N 718.174 3.94406 -5.69575 0
M  V30 7511 N 719.967 3.34169 -4.51982 0
M  V30 7512 H 712.118 0.308258 -2.10151 0
M  V30 7513 H 714.381 0.199145 -0.926847 0
M  V30 7514 H 714.087 1.30663 -3.26527 0
M  V30 7515 H 713.961 2.86017 -2.45915 0
M  V30 7516 H 716.348 2.5263 -1.52518 0
M  V30 7517 H 716.429 0.971682 -2.36626 0
M  V30 7518 H 716.073 2.18008 -4.58732 0
M  V30 7519 H 716.003 3.73198 -3.71525 0
M  V30 7520 H 718.494 2.3781 -2.93691 0
M  V30 7521 H 718.807 4.36129 -6.37974 0
M  V30 7522 H 717.152 3.92797 -5.73355 0
M  V30 7523 H 720.343 2.87977 -3.69035 0
M  V30 7524 H 720.516 3.78431 -5.26017 0
M  V30 7525 N 713.922 1.13953 1.08869 0
M  V30 7526 C 714.872 0.790812 2.13846 0
M  V30 7527 C 715.856 -0.217819 1.59419 0
M  V30 7528 O 717.048 -0.0208723 1.76988 0
M  V30 7529 C 714.177 0.26479 3.42277 0
M  V30 7530 C 713.263 1.30267 4.03598 0
M  V30 7531 N 713.654 2.50535 4.39393 0
M  V30 7532 C 711.952 1.15178 4.30871 0
M  V30 7533 C 712.653 3.16938 4.87776 0
M  V30 7534 N 711.629 2.44349 4.85587 0
M  V30 7535 H 715.431 1.70577 2.39334 0
M  V30 7536 H 712.945 1.02268 1.26154 0
M  V30 7537 H 714.942 -0.00330398 4.169 0
M  V30 7538 H 713.602 -0.644419 3.18241 0
M  V30 7539 H 714.613 2.87798 4.30572 0
M  V30 7540 H 711.29 0.301204 4.16412 0
M  V30 7541 H 712.68 4.19453 5.2489 0
M  V30 7542 N 715.4 -1.26948 0.933913 0
M  V30 7543 C 716.628 -1.98186 0.59414 0
M  V30 7544 C 717.043 -1.69614 -0.829257 0
M  V30 7545 O 716.4 -0.960213 -1.55197 0
M  V30 7546 C 716.451 -3.52123 0.818026 0
M  V30 7547 O 716.172 -3.79698 2.18543 0
M  V30 7548 C 717.673 -4.40608 0.48781 0
M  V30 7549 H 714.893 -0.632305 0.224569 0
M  V30 7550 H 717.437 -1.61646 1.25263 0
M  V30 7551 H 715.592 -3.86851 0.206246 0
M  V30 7552 H 716.006 -4.7426 2.24005 0
M  V30 7553 H 717.48 -5.47606 0.695126 0
M  V30 7554 H 717.957 -4.35394 -0.576913 0
M  V30 7555 H 718.563 -4.11411 1.078 0
M  V30 7556 N 716.879 -0.700114 -1.41195 0
M  V30 7557 C 717.789 -0.0382854 -2.34569 0
M  V30 7558 C 718.805 0.761036 -1.56474 0
M  V30 7559 O 719.981 0.697553 -1.88934 0
M  V30 7560 C 717.046 0.883522 -3.35253 0
M  V30 7561 C 716.107 0.0758957 -4.29233 0
M  V30 7562 C 715.34 0.9538 -5.25108 0
M  V30 7563 O 715.563 2.19326 -5.26547 0
M  V30 7564 O 714.497 0.401049 -6.00562 0
M  V30 7565 H 718.323 -0.808073 -2.92752 0
M  V30 7566 H 715.908 -0.460479 -1.42127 0
M  V30 7567 H 717.79 1.41199 -3.9704 0
M  V30 7568 H 716.465 1.63272 -2.79506 0
M  V30 7569 H 715.372 -0.497274 -3.7078 0
M  V30 7570 H 716.705 -0.634741 -4.8809 0
M  V30 7571 N 718.357 1.51182 -0.445186 0
M  V30 7572 C 719.304 2.27939 0.362291 0
M  V30 7573 C 720.274 1.31864 1.01 0
M  V30 7574 O 721.459 1.60776 1.02741 0
M  V30 7575 C 718.599 3.13016 1.45311 0
M  V30 7576 C 717.712 4.24093 0.822757 0
M  V30 7577 C 716.847 4.96467 1.88928 0
M  V30 7578 C 715.886 5.99454 1.23778 0
M  V30 7579 N 715.023 6.65206 2.24602 0
M  V30 7580 H 719.863 2.965 -0.29862 0
M  V30 7581 H 717.4 1.46237 -0.15911 0
M  V30 7582 H 719.358 3.60673 2.09692 0
M  V30 7583 H 717.988 2.46553 2.08354 0
M  V30 7584 H 717.04 3.80341 0.0670364 0
M  V30 7585 H 718.352 4.97853 0.307184 0
M  V30 7586 H 717.506 5.47712 2.60953 0
M  V30 7587 H 716.245 4.22355 2.4386 0
M  V30 7588 H 715.25 5.47494 0.503042 0
M  V30 7589 H 716.475 6.75527 0.695694 0
M  V30 7590 H 714.421 5.93901 2.78599 0
M  V30 7591 H 714.338 7.34756 1.77958 0
M  V30 7592 H 715.606 7.21078 2.96085 0
M  V30 7593 N 719.835 0.176821 1.56605 0
M  V30 7594 C 720.765 -0.746841 2.21234 0
M  V30 7595 C 721.746 -1.23502 1.16967 0
M  V30 7596 O 722.931 -1.28718 1.45414 0
M  V30 7597 C 720.061 -1.97407 2.8574 0
M  V30 7598 C 719.015 -1.62153 3.96094 0
M  V30 7599 C 718.341 -2.92387 4.47676 0
M  V30 7600 C 719.641 -0.845353 5.15413 0
M  V30 7601 H 721.335 -0.208116 2.98676 0
M  V30 7602 H 718.881 -0.0986594 1.43662 0
M  V30 7603 H 720.834 -2.62531 3.2963 0
M  V30 7604 H 719.558 -2.53703 2.05676 0
M  V30 7605 H 718.217 -0.993964 3.52868 0
M  V30 7606 H 717.865 -3.46734 3.64396 0
M  V30 7607 H 717.565 -2.69551 5.22127 0
M  V30 7608 H 719.089 -3.5853 4.94255 0
M  V30 7609 H 720.503 -1.39929 5.55961 0
M  V30 7610 H 718.9 -0.715814 5.95815 0
M  V30 7611 H 719.97 0.157239 4.84645 0
M  V30 7612 N 721.313 -1.57302 -0.09688 0
M  V30 7613 C 722.246 -1.97179 -1.14872 0
M  V30 7614 C 723.224 -0.844734 -1.38935 0
M  V30 7615 O 724.408 -1.10487 -1.52725 0
M  V30 7616 C 721.535 -2.28703 -2.49826 0
M  V30 7617 C 720.581 -3.51158 -2.42054 0
M  V30 7618 S 721.414 -5.0294 -1.83879 0
M  V30 7619 C 722.57 -5.37639 -3.2046 0
M  V30 7620 H 722.803 -2.86088 -0.808771 0
M  V30 7621 H 720.336 -1.51368 -0.304492 0
M  V30 7622 H 722.294 -2.47541 -3.27466 0
M  V30 7623 H 720.955 -1.40368 -2.8099 0
M  V30 7624 H 720.148 -3.70651 -3.41517 0
M  V30 7625 H 719.75 -3.31821 -1.72543 0
M  V30 7626 H 722.042 -5.34175 -4.16729 0
M  V30 7627 H 722.985 -6.38677 -3.05773 0
M  V30 7628 H 723.393 -4.651 -3.19909 0
M  V30 7629 N 722.791 0.367657 -1.53252 0
M  V30 7630 C 723.754 1.43308 -1.78873 0
M  V30 7631 C 724.754 1.46671 -0.659115 0
M  V30 7632 O 725.944 1.47468 -0.927306 0
M  V30 7633 C 723.076 2.82442 -1.90892 0
M  V30 7634 H 724.269 1.21864 -2.74024 0
M  V30 7635 H 721.822 0.600668 -1.44297 0
M  V30 7636 H 722.557 3.09202 -0.978 0
M  V30 7637 H 722.342 2.81399 -2.73051 0
M  V30 7638 H 723.832 3.59601 -2.12314 0
M  V30 7639 N 724.269 1.44576 0.627338 0
M  V30 7640 C 725.516 1.47558 1.38682 0
M  V30 7641 C 725.844 0.109636 1.94191 0
M  V30 7642 O 725.099 -0.889092 1.74338 0
M  V30 7643 C 725.398 2.48644 2.56731 0
M  V30 7644 C 725.064 3.93873 2.19489 0
M  V30 7645 C 723.726 4.33421 2.09045 0
M  V30 7646 C 726.078 4.85286 1.90124 0
M  V30 7647 C 723.406 5.62303 1.6743 0
M  V30 7648 C 725.758 6.14559 1.50001 0
M  V30 7649 C 724.422 6.53058 1.38101 0
M  V30 7650 H 723.692 0.539955 0.507474 0
M  V30 7651 H 726.339 1.77811 0.711021 0
M  V30 7652 H 724.644 2.11889 3.29561 0
M  V30 7653 H 726.341 2.48197 3.14959 0
M  V30 7654 H 722.931 3.62587 2.28537 0
M  V30 7655 H 727.115 4.55483 1.971 0
M  V30 7656 H 722.371 5.90945 1.56823 0
M  V30 7657 H 726.545 6.84848 1.26319 0
M  V30 7658 H 724.172 7.52826 1.05628 0
M  V30 7659 N 725.747 -0.868086 1.31537 0
M  V30 7660 C 726.694 -1.97548 1.19346 0
M  V30 7661 C 727.664 -1.65913 0.0787922 0
M  V30 7662 O 728.849 -1.89129 0.251985 0
M  V30 7663 C 725.989 -3.32922 0.908692 0
M  V30 7664 C 725.102 -3.77141 2.10687 0
M  V30 7665 C 724.237 -5.01241 1.75873 0
M  V30 7666 C 723.276 -5.37914 2.92088 0
M  V30 7667 N 722.413 -6.53192 2.57457 0
M  V30 7668 H 727.253 -2.07307 2.14074 0
M  V30 7669 H 724.79 -1.01483 1.06487 0
M  V30 7670 H 726.748 -4.10867 0.724138 0
M  V30 7671 H 725.378 -3.228 -0.0017611 0
M  V30 7672 H 724.43 -2.94961 2.40213 0
M  V30 7673 H 725.742 -4.00248 2.97663 0
M  V30 7674 H 724.896 -5.86858 1.53891 0
M  V30 7675 H 723.635 -4.80041 0.86091 0
M  V30 7676 H 722.64 -4.50814 3.14717 0
M  V30 7677 H 723.865 -5.61077 3.82582 0
M  V30 7678 H 721.811 -6.33536 1.702 0
M  V30 7679 H 721.728 -6.76252 3.37963 0
M  V30 7680 H 722.996 -7.41997 2.38873 0
M  V30 7681 N 727.225 -1.14528 -1.08264 0
M  V30 7682 C 728.188 -0.83632 -2.13397 0
M  V30 7683 C 729.188 0.159715 -1.60005 0
M  V30 7684 O 730.378 -0.0688098 -1.74064 0
M  V30 7685 C 727.51 -0.246973 -3.40004 0
M  V30 7686 H 728.703 -1.76808 -2.42237 0
M  V30 7687 H 726.256 -0.951509 -1.24 0
M  V30 7688 H 726.991 0.693436 -3.168 0
M  V30 7689 H 726.776 -0.964412 -3.80055 0
M  V30 7690 H 728.266 -0.0480679 -4.17572 0
M  V30 7691 N 728.703 1.26451 -0.940633 0
M  V30 7692 C 729.952 1.93071 -0.583656 0
M  V30 7693 C 730.265 1.74618 0.881366 0
M  V30 7694 O 731.471 2.35689 1.34769 0
M  V30 7695 C 729.927 3.45927 -0.993106 0
M  V30 7696 C 729.535 3.73115 -2.4797 0
M  V30 7697 C 731.279 4.18554 -0.707998 0
M  V30 7698 C 729.186 5.19408 -2.82788 0
M  V30 7699 H 728.116 0.722824 -0.214572 0
M  V30 7700 H 730.767 1.43538 -1.1432 0
M  V30 7701 H 729.149 3.94341 -0.362099 0
M  V30 7702 H 730.323 3.35408 -3.15971 0
M  V30 7703 H 728.638 3.13719 -2.73805 0
M  V30 7704 H 731.235 5.26293 -0.94447 0
M  V30 7705 H 731.578 4.14782 0.355225 0
M  V30 7706 H 732.111 3.76003 -1.2987 0
M  V30 7707 H 728.85 5.28281 -3.88071 0
M  V30 7708 H 728.37 5.58214 -2.19449 0
M  V30 7709 H 730.049 5.87407 -2.71224 0
M  V30 7710 N 730.181 0.707592 1.40822 0
M  V30 7711 C 731.411 0.252706 2.05049 0
M  V30 7712 C 731.819 -1.10758 1.53393 0
M  V30 7713 O 731.162 -1.70567 0.682097 0
M  V30 7714 C 731.224 0.146001 3.59203 0
M  V30 7715 C 730.888 1.44027 4.33711 0
M  V30 7716 C 731.885 2.38058 4.62195 0
M  V30 7717 C 729.57 1.69698 4.72766 0
M  V30 7718 C 731.564 3.56013 5.28709 0
M  V30 7719 C 729.251 2.87936 5.39014 0
M  V30 7720 C 730.249 3.80915 5.66915 0
M  V30 7721 O 729.937 4.9708 6.31796 0
M  V30 7722 H 729.669 0.112784 0.666525 0
M  V30 7723 H 732.223 0.96417 1.81364 0
M  V30 7724 H 730.453 -0.621338 3.81676 0
M  V30 7725 H 732.142 -0.273275 4.04979 0
M  V30 7726 H 732.908 2.19487 4.32493 0
M  V30 7727 H 728.787 0.981835 4.50423 0
M  V30 7728 H 732.331 4.28604 5.50404 0
M  V30 7729 H 728.228 3.06419 5.68135 0
M  V30 7730 H 728.996 4.97053 6.50293 0
M  V30 7731 N 731.66 -1.50943 0.453197 0
M  V30 7732 C 733.071 -1.86699 -0.00619892 0
M  V30 7733 C 733.422 -1.3693 -1.40515 0
M  V30 7734 O 732.547 -0.726715 -2.03833 0
M  V30 7735 C 733.142 -3.38795 -0.018025 0
M  V30 7736 C 731.701 -3.74028 -0.421885 0
M  V30 7737 C 730.848 -2.74752 0.375087 0
M  V30 7738 H 733.799 -1.43942 0.668317 0
M  V30 7739 H 733.82 -3.71468 -0.824125 0
M  V30 7740 H 733.332 -3.74988 1.00028 0
M  V30 7741 H 731.433 -3.43431 -1.44521 0
M  V30 7742 H 731.546 -4.78908 -0.135664 0
M  V30 7743 H 729.91 -2.5414 -0.168794 0
M  V30 7744 H 730.693 -3.13787 1.39256 0
M  V30 7745 N 733.138 -0.185124 -1.56509 0
M  V30 7746 C 734.415 0.503348 -1.89013 0
M  V30 7747 C 734.795 1.80349 -1.09715 0
M  V30 7748 O 734.143 2.27665 -0.195203 0
M  V30 7749 C 734.353 0.731839 -3.41241 0
M  V30 7750 C 735.701 1.05568 -4.11267 0
M  V30 7751 O 736.725 0.819906 -3.46635 0
M  V30 7752 O 735.584 1.50116 -5.25478 0
M  V30 7753 H 732.678 0.261139 -0.784688 0
M  V30 7754 H 735.224 -0.224592 -1.68207 0
M  V30 7755 H 733.996 -0.18672 -3.90854 0
M  V30 7756 H 733.619 1.5126 -3.67704 0
M  V30 7757 N 734.616 1.57351 0.0885366 0
M  V30 7758 C 735.865 1.85604 0.789556 0
M  V30 7759 C 736.178 0.775352 1.79576 0
M  V30 7760 O 737.384 0.945206 2.54515 0
M  V30 7761 C 735.84 3.29175 1.45506 0
M  V30 7762 C 735.448 4.45331 0.488278 0
M  V30 7763 C 737.192 3.66646 2.13942 0
M  V30 7764 C 735.099 5.79937 1.15874 0
M  V30 7765 H 734.029 0.692346 0.298619 0
M  V30 7766 H 736.68 1.83451 0.0425821 0
M  V30 7767 H 735.062 3.25889 2.24972 0
M  V30 7768 H 736.236 4.59977 -0.275359 0
M  V30 7769 H 734.551 4.16301 -0.0907363 0
M  V30 7770 H 737.148 4.64498 2.6485 0
M  V30 7771 H 737.491 2.956 2.93132 0
M  V30 7772 H 738.024 3.71848 1.41328 0
M  V30 7773 H 734.763 6.54232 0.407508 0
M  V30 7774 H 734.283 5.69123 1.89364 0
M  V30 7775 H 735.962 6.24718 1.68336 0
M  V30 7776 N 736.094 -0.359525 1.53444 0
M  V30 7777 C 737.34 -1.10315 1.70172 0
M  V30 7778 C 737.673 -1.88788 0.455287 0
M  V30 7779 O 736.948 -1.86635 -0.547514 0
M  V30 7780 C 737.231 -2.05744 2.95536 0
M  V30 7781 C 737.084 -1.3084 4.3035 0
M  V30 7782 C 738.403 -3.05784 3.16518 0
M  V30 7783 H 735.522 -0.399662 0.619225 0
M  V30 7784 H 738.164 -0.383338 1.86093 0
M  V30 7785 H 736.314 -2.67125 2.82093 0
M  V30 7786 H 737.986 -0.721959 4.55615 0
M  V30 7787 H 736.229 -0.610283 4.29486 0
M  V30 7788 H 736.9 -2.00718 5.14214 0
M  V30 7789 H 739.376 -2.5451 3.29187 0
M  V30 7790 H 738.252 -3.69772 4.05659 0
M  V30 7791 H 738.513 -3.76289 2.32076 0
M  V30 7792 N 737.572 -1.44907 -0.619662 0
M  V30 7793 C 738.988 -1.29046 -0.939107 0
M  V30 7794 C 739.188 -0.23462 -2.00129 0
M  V30 7795 O 738.244 0.37558 -2.49691 0
M  V30 7796 C 739.557 -2.66567 -1.39149 0
M  V30 7797 C 741.105 -2.74368 -1.50635 0
M  V30 7798 C 741.58 -4.12386 -1.99253 0
M  V30 7799 N 743.071 -4.1462 -2.06506 0
M  V30 7800 C 743.806 -5.18272 -2.4532 0
M  V30 7801 N 743.302 -6.32278 -2.83189 0
M  V30 7802 N 745.095 -5.05628 -2.45554 0
M  V30 7803 H 737.246 -2.12239 0.0826135 0
M  V30 7804 H 739.509 -0.947652 -0.0256829 0
M  V30 7805 H 739.215 -3.4496 -0.685254 0
M  V30 7806 H 739.089 -2.94224 -2.36034 0
M  V30 7807 H 741.476 -1.96287 -2.20353 0
M  V30 7808 H 741.557 -2.50439 -0.520963 0
M  V30 7809 H 741.201 -4.90947 -1.30127 0
M  V30 7810 H 741.131 -4.33699 -2.98684 0
M  V30 7811 H 743.622 -3.32343 -1.79878 0
M  V30 7812 H 743.935 -7.07172 -3.11652 0
M  V30 7813 H 742.28 -6.35699 -2.80913 0
M  V30 7814 H 745.471 -4.15613 -2.15367 0
M  V30 7815 H 745.644 -5.86529 -2.75478 0
M  V30 7816 N 739.05 0.861098 -1.31996 0
M  V30 7817 C 739.98 1.98482 -1.22993 0
M  V30 7818 C 740.961 1.6971 -0.115168 0
M  V30 7819 O 742.146 1.91849 -0.30126 0
M  V30 7820 C 739.276 3.34179 -0.945615 0
M  V30 7821 C 738.23 3.77284 -2.02091 0
M  V30 7822 C 737.556 5.1054 -1.58912 0
M  V30 7823 C 738.856 3.93439 -3.43515 0
M  V30 7824 H 740.55 2.06271 -2.17008 0
M  V30 7825 H 738.096 0.991043 -1.04472 0
M  V30 7826 H 740.049 4.12338 -0.869206 0
M  V30 7827 H 738.773 3.26586 0.0301849 0
M  V30 7828 H 737.432 3.01371 -2.08737 0
M  V30 7829 H 737.08 4.99397 -0.600942 0
M  V30 7830 H 736.78 5.40352 -2.30854 0
M  V30 7831 H 738.304 5.91199 -1.52696 0
M  V30 7832 H 739.718 4.6197 -3.39495 0
M  V30 7833 H 738.115 4.34661 -4.13751 0
M  V30 7834 H 739.185 2.96548 -3.8365 0
M  V30 7835 N 740.528 1.15101 1.07655 0
M  V30 7836 C 741.478 0.813448 2.12995 0
M  V30 7837 C 742.462 -0.200899 1.59641 0
M  V30 7838 O 743.654 -0.00209918 1.77 0
M  V30 7839 C 740.783 0.301078 3.41977 0
M  V30 7840 C 739.869 1.3454 4.02194 0
M  V30 7841 N 740.26 2.55181 4.36711 0
M  V30 7842 C 738.558 1.19742 4.29625 0
M  V30 7843 C 739.259 3.22094 4.84387 0
M  V30 7844 N 738.235 2.49486 4.82968 0
M  V30 7845 H 742.037 1.73105 2.37511 0
M  V30 7846 H 739.551 1.03601 1.25063 0
M  V30 7847 H 741.548 0.040914 4.1688 0
M  V30 7848 H 740.208 -0.610629 3.18907 0
M  V30 7849 H 741.219 2.92349 4.27496 0
M  V30 7850 H 737.896 0.345353 4.16069 0
M  V30 7851 H 739.286 4.24996 5.20411 0
M  V30 7852 N 742.006 -1.2595 0.947325 0
M  V30 7853 C 743.253 -1.93463 0.598178 0
M  V30 7854 C 743.581 -1.74271 -0.863705 0
M  V30 7855 O 742.836 -1.07684 -1.63409 0
M  V30 7856 C 743.135 -3.46034 0.894158 0
M  V30 7857 C 742.801 -3.85373 2.3409 0
M  V30 7858 C 741.463 -3.95823 2.73637 0
M  V30 7859 C 743.815 -4.04986 3.2808 0
M  V30 7860 C 741.143 -4.23288 4.06257 0
M  V30 7861 C 743.495 -4.3394 4.60303 0
M  V30 7862 C 742.159 -4.42606 4.99656 0
M  V30 7863 H 741.429 -0.707933 0.218889 0
M  V30 7864 H 744.076 -1.4964 1.19499 0
M  V30 7865 H 742.381 -3.9121 0.214874 0
M  V30 7866 H 744.078 -3.96445 0.602698 0
M  V30 7867 H 740.668 -3.7779 2.02417 0
M  V30 7868 H 744.852 -3.96333 2.9872 0
M  V30 7869 H 740.108 -4.28211 4.36401 0
M  V30 7870 H 744.282 -4.48061 5.33118 0
M  V30 7871 H 741.909 -4.63641 6.02446 0
M  V30 7872 N 743.484 -0.715051 -1.40445 0
M  V30 7873 C 744.895 -0.326763 -1.83818 0
M  V30 7874 C 745.246 1.13851 -1.59789 0
M  V30 7875 O 744.371 1.87611 -1.07848 0
M  V30 7876 C 744.966 -0.586297 -3.33688 0
M  V30 7877 C 743.525 -0.251724 -3.75557 0
M  V30 7878 C 742.672 -0.858928 -2.63662 0
M  V30 7879 H 745.623 -0.914241 -1.2972 0
M  V30 7880 H 745.644 0.148636 -3.8021 0
M  V30 7881 H 745.156 -1.65281 -3.51146 0
M  V30 7882 H 743.257 0.809754 -3.63695 0
M  V30 7883 H 743.37 -0.720348 -4.73654 0
M  V30 7884 H 741.734 -0.287013 -2.53078 0
M  V30 7885 H 742.517 -1.9297 -2.83932 0
M  V30 7886 N 744.962 1.50701 -0.461195 0
M  V30 7887 C 746.373 1.867 -0.00370227 0
M  V30 7888 C 746.724 1.37673 1.39787 0
M  V30 7889 O 745.849 0.737515 2.03445 0
M  V30 7890 C 746.444 3.388 5.75786e-05 0
M  V30 7891 C 745.003 3.74247 0.402044 0
M  V30 7892 C 744.15 2.74549 -0.389652 0
M  V30 7893 H 747.101 1.43585 -0.675942 0
M  V30 7894 H 747.122 3.719 0.804414 0
M  V30 7895 H 746.634 3.74452 -1.02015 0
M  V30 7896 H 744.735 3.44192 1.42697 0
M  V30 7897 H 744.848 4.78973 0.110265 0
M  V30 7898 H 743.212 2.54226 0.155314 0
M  V30 7899 H 743.995 3.13044 -1.40919 0
M  V30 7900 N 746.441 0.193421 1.56409 0
M  V30 7901 C 747.371 -0.723334 2.22014 0
M  V30 7902 C 748.352 -1.22254 1.1827 0
M  V30 7903 O 749.537 -1.27168 1.46771 0
M  V30 7904 C 746.667 -1.94366 2.87818 0
M  V30 7905 C 745.621 -1.57943 3.97791 0
M  V30 7906 C 744.947 -2.87623 4.50752 0
M  V30 7907 C 746.247 -0.790639 5.16281 0
M  V30 7908 H 747.941 -0.176426 2.9888 0
M  V30 7909 H 745.487 -0.0834166 1.43758 0
M  V30 7910 H 747.44 -2.5902 3.32396 0
M  V30 7911 H 746.164 -2.51507 2.08355 0
M  V30 7912 H 744.823 -0.956482 3.53903 0
M  V30 7913 H 744.471 -3.4285 3.68053 0
M  V30 7914 H 744.171 -2.63998 5.24956 0
M  V30 7915 H 745.695 -3.53268 4.9803 0
M  V30 7916 H 747.109 -1.34024 5.57414 0
M  V30 7917 H 745.506 -0.65258 5.96541 0
M  V30 7918 H 746.576 0.208633 4.84451 0
M  V30 7919 N 747.919 -1.57396 -0.0801906 0
M  V30 7920 C 749.149 -1.90778 -0.792924 0
M  V30 7921 C 749.557 -0.786814 -1.72064 0
M  V30 7922 O 748.9 0.249259 -1.82001 0
M  V30 7923 C 748.962 -3.19552 -1.64702 0
M  V30 7924 C 748.626 -4.48259 -0.889567 0
M  V30 7925 C 749.623 -5.19465 -0.212602 0
M  V30 7926 C 747.308 -4.94896 -0.859229 0
M  V30 7927 C 749.302 -6.35555 0.484566 0
M  V30 7928 C 746.989 -6.10895 -0.158284 0
M  V30 7929 C 747.987 -6.81075 0.512421 0
M  V30 7930 O 747.675 -7.94862 1.20209 0
M  V30 7931 H 747.407 -0.63527 -0.231103 0
M  V30 7932 H 749.961 -2.0532 -0.0573081 0
M  V30 7933 H 748.191 -3.01196 -2.42524 0
M  V30 7934 H 749.88 -3.38649 -2.23767 0
M  V30 7935 H 750.646 -4.84467 -0.227403 0
M  V30 7936 H 746.525 -4.4015 -1.37073 0
M  V30 7937 H 750.069 -6.9027 1.00864 0
M  V30 7938 H 745.966 -6.45345 -0.141381 0
M  V30 7939 H 746.734 -8.10932 1.11051 0
M  V30 7940 N 749.397 0.351382 -1.53633 0
M  V30 7941 C 750.344 1.43115 -1.81071 0
M  V30 7942 C 751.314 1.52601 -0.655913 0
M  V30 7943 O 752.499 1.68264 -0.89955 0
M  V30 7944 C 749.639 2.79874 -2.01903 0
M  V30 7945 C 748.752 2.79242 -3.29618 0
M  V30 7946 C 747.887 4.07667 -3.40559 0
M  V30 7947 C 746.926 4.01233 -4.62254 0
M  V30 7948 N 746.063 5.21334 -4.70271 0
M  V30 7949 H 750.903 1.19017 -2.73201 0
M  V30 7950 H 748.44 0.576691 -1.35324 0
M  V30 7951 H 750.398 3.5934 -2.11969 0
M  V30 7952 H 749.028 3.0234 -1.13094 0
M  V30 7953 H 748.08 1.91927 -3.28433 0
M  V30 7954 H 749.392 2.70363 -4.19172 0
M  V30 7955 H 748.546 4.95555 -3.50015 0
M  V30 7956 H 747.285 4.19317 -2.49047 0
M  V30 7957 H 746.29 3.11732 -4.52884 0
M  V30 7958 H 747.515 3.91173 -5.55122 0
M  V30 7959 H 745.461 5.33543 -3.81665 0
M  V30 7960 H 745.378 5.14681 -5.5375 0
M  V30 7961 H 746.646 6.11014 -4.84027 0
M  V30 7962 N 750.875 1.45233 0.611969 0
M  V30 7963 C 751.785 1.56098 1.7513 0
M  V30 7964 C 752.801 0.445646 1.68196 0
M  V30 7965 O 753.977 0.705718 1.88631 0
M  V30 7966 C 751.042 1.52052 3.11579 0
M  V30 7967 C 750.103 2.74589 3.29999 0
M  V30 7968 C 749.336 2.70726 4.59938 0
M  V30 7969 O 749.559 1.77806 5.41979 0
M  V30 7970 O 748.493 3.61864 4.80976 0
M  V30 7971 H 752.319 2.52392 1.68914 0
M  V30 7972 H 749.904 1.27695 0.775528 0
M  V30 7973 H 751.786 1.52387 3.92882 0
M  V30 7974 H 750.461 0.589085 3.18295 0
M  V30 7975 H 749.368 2.79817 2.48301 0
M  V30 7976 H 750.701 3.66843 3.28157 0
M  V30 7977 N 752.353 -0.854086 1.3245 0
M  V30 7978 C 753.283 -1.97827 1.24044 0
M  V30 7979 C 754.264 -1.69646 0.124166 0
M  V30 7980 O 755.449 -1.91687 0.31143 0
M  V30 7981 C 752.579 -3.33673 0.963324 0
M  V30 7982 C 751.533 -3.76207 2.04089 0
M  V30 7983 C 750.859 -5.0969 1.61618 0
M  V30 7984 C 752.159 -3.91612 3.45597 0
M  V30 7985 H 753.853 -2.05118 2.18099 0
M  V30 7986 H 751.399 -0.985489 1.04996 0
M  V30 7987 H 753.352 -4.11871 0.891061 0
M  V30 7988 H 752.076 -3.26597 -0.0128649 0
M  V30 7989 H 750.735 -3.0026 2.10332 0
M  V30 7990 H 750.383 -4.99072 0.627418 0
M  V30 7991 H 750.083 -5.3912 2.33717 0
M  V30 7992 H 751.607 -5.90381 1.55829 0
M  V30 7993 H 753.021 -4.60163 3.4194 0
M  V30 7994 H 751.418 -4.3246 4.16051 0
M  V30 7995 H 752.488 -2.9451 3.85217 0
M  V30 7996 N 753.831 -1.1567 -1.07043 0
M  V30 7997 C 755.078 -0.933517 -1.79699 0
M  V30 7998 C 755.406 0.539162 -1.86878 0
M  V30 7999 O 754.661 1.41592 -1.35093 0
M  V30 8000 C 754.96 -1.49677 -3.24548 0
M  V30 8001 C 754.626 -2.99047 -3.37463 0
M  V30 8002 C 753.288 -3.39824 -3.40695 0
M  V30 8003 C 755.64 -3.95027 -3.40004 0
M  V30 8004 C 752.968 -4.75215 -3.44075 0
M  V30 8005 C 755.32 -5.30295 -3.44921 0
M  V30 8006 C 753.984 -5.70562 -3.46432 0
M  V30 8007 H 753.254 -0.341598 -0.657565 0
M  V30 8008 H 755.901 -1.44263 -1.25938 0
M  V30 8009 H 754.206 -0.908915 -3.81111 0
M  V30 8010 H 755.903 -1.29986 -3.79348 0
M  V30 8011 H 752.493 -2.6653 -3.35648 0
M  V30 8012 H 756.677 -3.64596 -3.36725 0
M  V30 8013 H 751.933 -5.05754 -3.43545 0
M  V30 8014 H 756.107 -6.0446 -3.45833 0
M  V30 8015 H 753.734 -6.75456 -3.48803 0
M  V30 8016 N 755.309 1.25446 -0.953992 0
M  V30 8017 C 756.537 1.97215 -0.625595 0
M  V30 8018 C 756.952 1.70911 0.802168 0
M  V30 8019 O 756.309 0.984782 1.5365 0
M  V30 8020 C 756.36 3.50777 -0.873943 0
M  V30 8021 O 756.081 3.76173 -2.24556 0
M  V30 8022 C 757.582 4.39776 -0.557845 0
M  V30 8023 H 754.802 0.628652 -0.2346 0
M  V30 8024 H 757.346 1.59632 -1.27819 0
M  V30 8025 H 755.501 3.86474 -0.267765 0
M  V30 8026 H 755.915 4.70636 -2.31522 0
M  V30 8027 H 757.389 5.46431 -0.782157 0
M  V30 8028 H 757.866 4.36257 0.507573 0
M  V30 8029 H 758.472 4.09644 -1.14332 0
M  V30 8030 N 756.787 0.722489 1.40064 0
M  V30 8031 C 758.012 0.273446 2.05589 0
M  V30 8032 C 758.437 -1.07875 1.54093 0
M  V30 8033 O 757.795 -1.68095 0.679252 0
M  V30 8034 C 757.843 0.271023 3.5958 0
M  V30 8035 O 756.947 -0.745499 4.05606 0
M  V30 8036 H 756.288 0.126856 0.65177 0
M  V30 8037 H 758.818 0.984906 1.79334 0
M  V30 8038 H 758.828 0.111084 4.07849 0
M  V30 8039 H 757.503 1.25776 3.96425 0
M  V30 8040 H 756.08 -0.552719 3.68781 0
M  V30 8041 N 758.265 -1.50454 0.469181 0
M  V30 8042 C 759.175 -2.32248 -0.331349 0
M  V30 8043 C 760.191 -1.42548 -0.997807 0
M  V30 8044 O 761.367 -1.75602 -0.9862 0
M  V30 8045 C 758.432 -3.17171 -1.40012 0
M  V30 8046 C 757.493 -4.2269 -0.750463 0
M  V30 8047 C 756.726 -5.03554 -1.76831 0
M  V30 8048 O 756.949 -4.85469 -2.99459 0
M  V30 8049 O 755.883 -5.86767 -1.3412 0
M  V30 8050 H 759.709 -3.01821 0.337279 0
M  V30 8051 H 757.294 -1.47602 0.231066 0
M  V30 8052 H 759.176 -3.69871 -2.01924 0
M  V30 8053 H 757.851 -2.50328 -2.05226 0
M  V30 8054 H 756.758 -3.73986 -0.0924446 0
M  V30 8055 H 758.091 -4.91997 -0.14131 0
M  V30 8056 N 759.743 -0.201713 -1.56304 0
M  V30 8057 C 760.99 0.435307 -1.97766 0
M  V30 8058 C 761.318 1.61169 -1.0888 0
M  V30 8059 O 760.573 1.95272 -0.12934 0
M  V30 8060 C 760.872 0.931432 -3.45049 0
M  V30 8061 C 760.538 -0.132287 -4.50706 0
M  V30 8062 C 759.2 -0.424552 -4.79323 0
M  V30 8063 C 761.552 -0.852703 -5.14177 0
M  V30 8064 C 758.88 -1.4421 -5.68701 0
M  V30 8065 C 761.232 -1.85944 -6.04655 0
M  V30 8066 C 759.896 -2.15884 -6.31625 0
M  V30 8067 H 759.166 0.15929 -0.723676 0
M  V30 8068 H 761.813 -0.300069 -1.89134 0
M  V30 8069 H 760.118 1.7452 -3.50785 0
M  V30 8070 H 761.815 1.43383 -3.74489 0
M  V30 8071 H 758.405 0.105671 -4.2847 0
M  V30 8072 H 762.589 -0.640139 -4.92154 0
M  V30 8073 H 757.845 -1.6799 -5.87869 0
M  V30 8074 H 762.019 -2.42286 -6.52894 0
M  V30 8075 H 759.646 -2.94875 -7.0068 0
M  V30 8076 N 761.222 1.57436 0.0718424 0
M  V30 8077 C 762.132 2.07039 1.10326 0
M  V30 8078 C 763.148 0.999918 1.424 0
M  V30 8079 O 764.324 1.31462 1.52577 0
M  V30 8080 C 761.389 2.50439 2.39752 0
M  V30 8081 C 760.45 3.71784 2.14651 0
M  V30 8082 C 759.683 4.13104 3.37906 0
M  V30 8083 O 759.906 3.54298 4.47023 0
M  V30 8084 O 758.84 5.05894 3.26121 0
M  V30 8085 H 762.666 2.95239 0.711872 0
M  V30 8086 H 760.251 1.46638 0.28597 0
M  V30 8087 H 762.133 2.78876 3.15921 0
M  V30 8088 H 760.808 1.65368 2.78271 0
M  V30 8089 H 759.715 3.48431 1.36187 0
M  V30 8090 H 761.048 4.57707 1.81012 0
M  V30 8091 N 762.7 -0.34323 1.53817 0
M  V30 8092 C 764.111 -0.918823 1.62525 0
M  V30 8093 C 764.462 -1.89542 0.506765 0
M  V30 8094 O 763.587 -2.13326 -0.363441 0
M  V30 8095 C 764.182 -1.67326 2.94597 0
M  V30 8096 C 762.741 -2.19786 3.05567 0
M  V30 8097 C 761.888 -1.01708 2.57974 0
M  V30 8098 H 764.839 -0.121358 1.58235 0
M  V30 8099 H 764.86 -2.53615 2.83654 0
M  V30 8100 H 764.372 -0.962223 3.75983 0
M  V30 8101 H 762.473 -2.94065 2.28816 0
M  V30 8102 H 762.586 -2.46135 4.1104 0
M  V30 8103 H 760.95 -1.39058 2.13389 0
M  V30 8104 H 761.733 -0.320671 3.41799 0
M  V30 8105 N 764.178 -1.45556 -0.604258 0
M  V30 8106 C 765.141 -1.54091 -1.69672 0
M  V30 8107 C 766.141 -0.420076 -1.55216 0
M  V30 8108 O 767.331 -0.683671 -1.60224 0
M  V30 8109 C 764.463 -1.44063 -3.08964 0
M  V30 8110 H 765.656 -2.51431 -1.6347 0
M  V30 8111 H 763.209 -1.33046 -0.820273 0
M  V30 8112 H 763.944 -0.479201 -3.2074 0
M  V30 8113 H 763.729 -2.25362 -3.20865 0
M  V30 8114 H 765.219 -1.53075 -3.88533 0
M  V30 8115 N 765.656 0.84705 -1.32902 0
M  V30 8116 C 766.589 1.96038 -1.1681 0
M  V30 8117 C 767.567 1.62468 -0.0656144 0
M  V30 8118 O 768.751 1.87136 -0.226339 0
M  V30 8119 C 765.878 3.29362 -0.789839 0
M  V30 8120 C 764.924 3.81908 -1.89865 0
M  V30 8121 S 765.757 4.04576 -3.50826 0
M  V30 8122 C 766.913 5.40863 -3.14989 0
M  V30 8123 H 767.146 2.09387 -2.11055 0
M  V30 8124 H 764.679 0.999896 -1.1765 0
M  V30 8125 H 766.637 4.06405 -0.578369 0
M  V30 8126 H 765.298 3.13815 0.133878 0
M  V30 8127 H 764.491 4.78357 -1.58716 0
M  V30 8128 H 764.093 3.11733 -2.06636 0
M  V30 8129 H 766.385 6.23393 -2.65306 0
M  V30 8130 H 767.328 5.7698 -4.10488 0
M  V30 8131 H 767.736 5.05228 -2.51804 0
M  V30 8132 N 767.134 1.16236 1.06428 0
M  V30 8133 C 768.066 0.825446 2.1382 0
M  V30 8134 C 769.079 -0.166707 1.61944 0
M  V30 8135 O 770.268 0.0578606 1.78406 0
M  V30 8136 C 767.368 0.208023 3.38261 0
M  V30 8137 C 766.541 1.23994 4.19457 0
M  V30 8138 C 765.6 0.642569 5.22262 0
M  V30 8139 O 764.626 1.31106 5.53895 0
M  V30 8140 N 765.828 -0.571327 5.77682 0
M  V30 8141 H 768.593 1.7497 2.43322 0
M  V30 8142 H 766.154 1.05951 1.22417 0
M  V30 8143 H 768.146 -0.204608 4.04182 0
M  V30 8144 H 766.716 -0.619752 3.06395 0
M  V30 8145 H 765.936 1.82879 3.49212 0
M  V30 8146 H 767.224 1.93638 4.70512 0
M  V30 8147 H 766.622 -1.13263 5.54245 0
M  V30 8148 H 765.179 -0.926187 6.45186 0
M  V30 8149 N 768.612 -1.24939 0.960631 0
M  V30 8150 C 769.861 -1.92118 0.614298 0
M  V30 8151 C 770.174 -1.75998 -0.853474 0
M  V30 8152 O 771.38 -2.37804 -1.31003 0
M  V30 8153 C 769.836 -3.44303 1.04801 0
M  V30 8154 C 769.444 -3.69123 2.53875 0
M  V30 8155 C 771.188 -4.17375 0.774497 0
M  V30 8156 C 769.095 -5.14843 2.91016 0
M  V30 8157 H 768.025 -0.719319 0.226045 0
M  V30 8158 H 770.676 -1.41701 1.16589 0
M  V30 8159 H 769.058 -3.93715 0.42479 0
M  V30 8160 H 770.232 -3.30339 3.21267 0
M  V30 8161 H 768.547 -3.09323 2.78762 0
M  V30 8162 H 771.144 -5.24723 1.02808 0
M  V30 8163 H 771.487 -4.15294 -0.289192 0
M  V30 8164 H 772.02 -3.7389 1.35835 0
M  V30 8165 H 768.759 -5.2204 3.96427 0
M  V30 8166 H 768.279 -5.54652 2.28302 0
M  V30 8167 H 769.958 -5.83017 2.80535 0
M  V30 8168 N 770.09 -0.729906 -1.39679 0
M  V30 8169 C 771.367 -0.202149 -1.94553 0
M  V30 8170 C 771.747 1.29507 -1.66707 0
M  V30 8171 O 771.095 2.05819 -0.992517 0
M  V30 8172 C 771.305 -0.530279 -3.44948 0
M  V30 8173 C 772.653 -0.476808 -4.21914 0
M  V30 8174 O 773.677 -0.467171 -3.53123 0
M  V30 8175 O 772.536 -0.466869 -5.44502 0
M  V30 8176 H 769.63 -0.0351644 -0.826252 0
M  V30 8177 H 772.176 -0.808417 -1.49207 0
M  V30 8178 H 770.948 -1.56526 -3.5863 0
M  V30 8179 H 770.571 0.10522 -3.97461 0
M  V30 8180 N 771.568 1.50203 -0.477153 0
M  V30 8181 C 772.816 2.01959 0.0755889 0
M  V30 8182 C 773.137 1.3608 1.39668 0
M  V30 8183 O 772.407 0.508136 1.89195 0
M  V30 8184 H 770.987 0.74636 0.0309248 0
M  V30 8185 H 773.649 1.84473 -0.628959 0
M  V30 8186 H 772.745 3.11305 0.222683 0
M  V30 8187 O 773.085 0.351473 1.57629 0
M  V30 8188 H 773.776 -0.202268 1.92641 0
M  V30 END ATOM
M  V30 BEGIN BOND
M  V30 END BOND
M  V30 END CTAB
M  END
$$$$
