drugbank_target|P29723 47 kDa membrane antigen (DB02879)
 OpenBabel12092120013D

  0  0  0     0  0            999 V3000
M  V30 BEGIN CTAB
M  V30 COUNTS 6597 6666 0 0 0
M  V30 BEGIN ATOM
M  V30 1 H -0.908 1.98254 -0.117106 0
M  V30 2 N 0 1.576 0 0
M  V30 3 C 0.933 2.03868 1.02534 0
M  V30 4 C 1.911 0.928543 1.3348 0
M  V30 5 O 3.095 1.19667 1.45644 0
M  V30 6 C 0.222 2.43627 2.35294 0
M  V30 7 C -0.732 3.65373 2.2001 0
M  V30 8 S 0.101 5.13292 1.52614 0
M  V30 9 C 1.257 5.56322 2.86805 0
M  V30 10 H 1.49 2.90518 0.631377 0
M  V30 11 H -0.977 1.52953 0.210867 0
M  V30 12 H 0.981 2.67203 3.11629 0
M  V30 13 H -0.358 1.57376 2.7183 0
M  V30 14 H -1.165 3.90944 3.18086 0
M  V30 15 H -1.563 3.418 1.51819 0
M  V30 16 H 0.729 5.58782 3.83104 0
M  V30 17 H 1.672 6.56266 2.65933 0
M  V30 18 H 2.08 4.83886 2.90714 0
M  V30 19 N 1.4781 -0.272755 1.55222 0
M  V30 20 C 2.4251 -1.33716 1.88119 0
M  V30 21 C 3.3951 -1.49066 0.73271 0
M  V30 22 O 4.5801 -1.63469 0.984002 0
M  V30 23 C 1.7201 -2.69238 2.15882 0
M  V30 24 C 0.8331 -2.62108 3.43399 0
M  V30 25 C -0.0319 -3.89811 3.60861 0
M  V30 26 C -0.9929 -3.77193 4.8207 0
M  V30 27 N -1.8559 -4.9673 4.96189 0
M  V30 28 H 2.9841 -1.04962 2.78903 0
M  V30 29 H 0.5211 -0.507088 1.38083 0
M  V30 30 H 2.4791 -3.48089 2.29978 0
M  V30 31 H 1.1091 -2.96194 1.28331 0
M  V30 32 H 0.1611 -1.74967 3.37773 0
M  V30 33 H 1.4731 -2.48685 4.32386 0
M  V30 34 H 0.6271 -4.77103 3.74777 0
M  V30 35 H -0.6339 -4.06102 2.7006 0
M  V30 36 H -1.6289 -2.88284 4.68159 0
M  V30 37 H -0.4039 -3.62421 5.74307 0
M  V30 38 H -2.4579 -5.13431 4.08319 0
M  V30 39 H -2.5409 -4.85839 5.79221 0
M  V30 40 H -1.2729 -5.85594 5.1449 0
M  V30 41 N 2.9562 -1.48159 -0.537278 0
M  V30 42 C 4.2022 -1.56035 -1.29541 0
M  V30 43 C 4.5352 -0.230377 -1.92829 0
M  V30 44 O 3.8102 0.762952 -1.78911 0
M  V30 45 C 4.0932 -2.69323 -2.39034 0
M  V30 46 C 3.9462 -4.12002 -1.80485 0
M  V30 47 C 5.2652 -2.78408 -3.40847 0
M  V30 48 H 2.3842 -0.567992 -0.469632 0
M  V30 49 H 5.0262 -1.80302 -0.599277 0
M  V30 50 H 3.1762 -2.48763 -2.98412 0
M  V30 51 H 4.8482 -4.43981 -1.25215 0
M  V30 52 H 3.0912 -4.19344 -1.11055 0
M  V30 53 H 3.7622 -4.87077 -2.59731 0
M  V30 54 H 6.2382 -2.97012 -2.91416 0
M  V30 55 H 5.1142 -3.59416 -4.14863 0
M  V30 56 H 5.3752 -1.86269 -4.00944 0
M  V30 57 N 4.4343 0.785586 -1.36625 0
M  V30 58 C 5.3813 1.89838 -1.31264 0
M  V30 59 C 6.3513 1.65115 -0.180633 0
M  V30 60 O 7.5363 1.87222 -0.36777 0
M  V30 61 C 4.6763 3.26706 -1.11163 0
M  V30 62 C 3.7893 3.63476 -2.33472 0
M  V30 63 C 2.9243 4.89481 -2.06353 0
M  V30 64 C 1.9633 5.18941 -3.24602 0
M  V30 65 N 1.1003 6.36131 -2.97123 0
M  V30 66 H 5.9403 1.93756 -2.26413 0
M  V30 67 H 3.4773 0.947454 -1.12524 0
M  V30 68 H 5.4353 4.05639 -0.975337 0
M  V30 69 H 4.0653 3.222 -0.196674 0
M  V30 70 H 3.1173 2.79636 -2.57891 0
M  V30 71 H 4.4293 3.81193 -3.21704 0
M  V30 72 H 3.5833 5.76288 -1.89675 0
M  V30 73 H 2.3223 4.73841 -1.15437 0
M  V30 74 H 1.3273 4.30615 -3.41834 0
M  V30 75 H 2.5523 5.36498 -4.16349 0
M  V30 76 H 0.4983 6.21875 -2.08823 0
M  V30 77 H 0.4153 6.54198 -3.78894 0
M  V30 78 H 1.6833 7.2591 -2.84033 0
M  V30 79 N 5.9124 1.20967 1.01018 0
M  V30 80 C 7.1424 1.04803 1.78044 0
M  V30 81 C 7.5504 -0.405462 1.84804 0
M  V30 82 O 6.8934 -1.2932 1.30468 0
M  V30 83 C 6.9554 1.56377 3.23707 0
M  V30 84 C 6.6194 3.04767 3.40538 0
M  V30 85 C 7.6164 4.02366 3.29239 0
M  V30 86 C 5.3014 3.43862 3.66147 0
M  V30 87 C 7.2954 5.37049 3.43304 0
M  V30 88 C 4.9824 4.78699 3.79855 0
M  V30 89 C 5.9804 5.75101 3.68439 0
M  V30 90 O 5.6684 7.07493 3.81719 0
M  V30 91 H 5.4004 0.368778 0.56655 0
M  V30 92 H 7.9544 1.60642 1.27997 0
M  V30 93 H 6.1844 0.949297 3.74867 0
M  V30 94 H 7.8734 1.36136 3.8239 0
M  V30 95 H 8.6394 3.73506 3.09384 0
M  V30 96 H 4.5184 2.69364 3.74118 0
M  V30 97 H 8.0624 6.12277 3.34309 0
M  V30 98 H 3.9594 5.07247 3.99213 0
M  V30 99 H 4.7274 7.1483 3.98697 0
M  V30 100 N 7.3905 -1.2043 1.01659 0
M  V30 101 C 8.3535 -2.21433 0.591616 0
M  V30 102 C 9.3535 -1.57203 -0.338226 0
M  V30 103 O 10.5435 -1.73737 -0.126918 0
M  V30 104 C 7.6755 -3.40628 -0.136058 0
M  V30 105 H 8.8685 -2.60545 1.48514 0
M  V30 106 H 6.4215 -1.33893 0.806379 0
M  V30 107 H 7.1565 -3.07019 -1.04449 0
M  V30 108 H 6.9415 -3.88475 0.531917 0
M  V30 109 H 8.4315 -4.15475 -0.420735 0
M  V30 110 N 8.8686 -0.792821 -1.36206 0
M  V30 111 C 9.7986 -0.207853 -2.32573 0
M  V30 112 C 10.7796 0.659055 -1.56813 0
M  V30 113 O 11.9646 0.592176 -1.84951 0
M  V30 114 C 9.0946 0.655449 -3.41059 0
M  V30 115 C 8.0486 -0.111842 -4.27854 0
M  V30 116 C 7.3746 0.872274 -5.27537 0
M  V30 117 C 8.6746 -1.30299 -5.05786 0
M  V30 118 H 10.3686 -1.01294 -2.81744 0
M  V30 119 H 7.9146 -0.48854 -1.3546 0
M  V30 120 H 9.8676 1.07464 -4.07467 0
M  V30 121 H 8.5916 1.49328 -2.90463 0
M  V30 122 H 7.2506 -0.512053 -3.63006 0
M  V30 123 H 6.8986 1.70523 -4.73214 0
M  V30 124 H 6.5986 0.363291 -5.86476 0
M  V30 125 H 8.1226 1.28996 -5.96818 0
M  V30 126 H 9.5366 -0.959379 -5.65216 0
M  V30 127 H 7.9336 -1.7455 -5.74154 0
M  V30 128 H 9.0036 -2.09663 -4.37229 0
M  V30 129 N 10.3467 1.47872 -0.545128 0
M  V30 130 C 11.2767 2.32661 0.197793 0
M  V30 131 C 12.2577 1.43041 0.920504 0
M  V30 132 O 13.4427 1.71912 0.90333 0
M  V30 133 C 10.5727 3.24569 1.23582 0
M  V30 134 C 9.5267 4.23333 0.630323 0
M  V30 135 C 8.8527 5.0448 1.77211 0
M  V30 136 C 10.1527 5.20704 -0.407974 0
M  V30 137 H 11.8467 2.95024 -0.510045 0
M  V30 138 H 9.3927 1.4187 -0.246731 0
M  V30 139 H 11.3457 3.8272 1.76362 0
M  V30 140 H 10.0697 2.60236 1.97344 0
M  V30 141 H 8.7287 3.6639 0.123922 0
M  V30 142 H 8.3767 4.36561 2.49847 0
M  V30 143 H 8.0767 5.71339 1.37281 0
M  V30 144 H 9.6007 5.65487 2.3034 0
M  V30 145 H 11.0147 5.7329 0.033305 0
M  V30 146 H 9.4117 5.95699 -0.725486 0
M  V30 147 H 10.4817 4.66917 -1.30828 0
M  V30 148 N 11.8248 0.280983 1.55075 0
M  V30 149 C 13.0498 -0.340154 2.04592 0
M  V30 150 C 13.4748 -1.48246 1.15779 0
M  V30 151 O 12.8328 -1.80614 0.15761 0
M  V30 152 C 12.8808 -0.793104 3.5177 0
M  V30 153 O 11.9848 -1.89981 3.66034 0
M  V30 154 H 11.3258 -0.0694289 0.66036 0
M  V30 155 H 13.8558 0.416993 2.00306 0
M  V30 156 H 13.8658 -1.08729 3.93245 0
M  V30 157 H 12.5408 0.0426163 4.15878 0
M  V30 158 H 11.1178 -1.60771 3.36463 0
M  V30 159 N 13.3029 -1.57598 0.00835791 0
M  V30 160 C 14.2659 -2.07884 -0.965242 0
M  V30 161 C 15.2659 -0.989825 -1.26725 0
M  V30 162 O 16.4559 -1.25218 -1.21104 0
M  V30 163 C 13.5879 -2.52731 -2.28779 0
M  V30 164 H 14.7809 -2.95178 -0.530112 0
M  V30 165 H 12.3339 -1.54458 -0.239283 0
M  V30 166 H 13.0689 -1.68705 -2.76964 0
M  V30 167 H 12.8539 -3.32272 -2.08177 0
M  V30 168 H 14.3439 -2.91933 -2.98605 0
M  V30 169 N 14.781 0.264519 -1.55364 0
M  V30 170 C 16.029 0.993021 -1.76021 0
M  V30 171 C 16.35 1.86511 -0.569099 0
M  V30 172 O 15.62 1.91438 0.415735 0
M  V30 173 H 14.2 0.369639 -0.649135 0
M  V30 174 H 16.862 0.286707 -1.9278 0
M  V30 175 H 15.958 1.62502 -2.66457 0
M  V30 176 N 16.2591 1.48442 0.529413 0
M  V30 177 C 17.2221 1.62524 1.61612 0
M  V30 178 C 18.2221 0.498509 1.52877 0
M  V30 179 O 19.4121 0.76431 1.56537 0
M  V30 180 C 16.5441 1.59597 3.01233 0
M  V30 181 H 17.7371 2.59423 1.50465 0
M  V30 182 H 15.2901 1.37047 0.751514 0
M  V30 183 H 16.0251 0.641781 3.17886 0
M  V30 184 H 15.8101 2.41397 3.08982 0
M  V30 185 H 17.3001 1.72646 3.80241 0
M  V30 186 N 17.7372 -0.778329 1.37039 0
M  V30 187 C 18.6672 -1.90546 1.34962 0
M  V30 188 C 19.6482 -1.68681 0.219274 0
M  V30 189 O 20.8332 -1.89634 0.418624 0
M  V30 190 C 17.9632 -3.27734 1.14925 0
M  V30 191 C 16.9172 -3.64147 2.24902 0
M  V30 192 C 16.2432 -4.99806 1.89996 0
M  V30 193 C 17.5432 -3.71579 3.67051 0
M  V30 194 H 19.2372 -1.92541 2.29277 0
M  V30 195 H 16.7832 -0.924948 1.10366 0
M  V30 196 H 18.7362 -4.06215 1.12104 0
M  V30 197 H 17.4602 -3.26154 0.170631 0
M  V30 198 H 16.1192 -2.8797 2.26868 0
M  V30 199 H 15.7672 -4.94759 0.906796 0
M  V30 200 H 15.4672 -5.25139 2.63634 0
M  V30 201 H 16.9912 -5.80694 1.88749 0
M  V30 202 H 18.4052 -4.40227 3.67251 0
M  V30 203 H 16.8022 -4.08405 4.39688 0
M  V30 204 H 17.8722 -2.72404 4.01154 0
M  V30 205 N 19.2153 -1.21501 -1.00376 0
M  V30 206 C 20.1473 -0.933174 -2.09343 0
M  V30 207 C 21.1603 0.0840896 -1.62583 0
M  V30 208 O 22.3493 -0.148563 -1.77881 0
M  V30 209 C 19.4493 -0.379869 -3.36764 0
M  V30 210 C 18.6223 -1.45176 -4.12605 0
M  V30 211 C 17.6813 -0.907476 -5.18316 0
M  V30 212 O 16.7073 -1.5912 -5.46507 0
M  V30 213 N 17.9093 0.276649 -5.7984 0
M  V30 214 H 20.6743 -1.87124 -2.34104 0
M  V30 215 H 18.2353 -1.12043 -1.16867 0
M  V30 216 H 20.2273 -0.00131488 -4.047 0
M  V30 217 H 18.7973 0.463048 -3.09151 0
M  V30 218 H 18.0173 -2.00411 -3.39454 0
M  V30 219 H 19.3053 -2.17328 -4.6005 0
M  V30 220 H 18.7033 0.849147 -5.59291 0
M  V30 221 H 17.2603 0.596702 -6.49063 0
M  V30 222 N 20.6934 1.19889 -1.02296 0
M  V30 223 C 21.6234 2.25141 -0.619174 0
M  V30 224 C 22.6044 1.66051 0.368915 0
M  V30 225 O 23.7894 1.92546 0.252941 0
M  V30 226 C 20.9194 3.4728 0.0368783 0
M  V30 227 C 19.8734 4.19005 -0.872865 0
M  V30 228 C 19.1994 5.34637 -0.0822402 0
M  V30 229 C 20.4994 4.74452 -2.18387 0
M  V30 230 H 22.1934 2.59171 -1.49903 0
M  V30 231 H 19.7394 1.24579 -0.722222 0
M  V30 232 H 21.6924 4.20098 0.330958 0
M  V30 233 H 20.4164 3.12433 0.95149 0
M  V30 234 H 19.0754 3.48061 -1.15105 0
M  V30 235 H 18.7234 4.96034 0.83422 0
M  V30 236 H 18.4234 5.83557 -0.688149 0
M  V30 237 H 19.9474 6.10255 0.205238 0
M  V30 238 H 21.3614 5.39055 -1.95172 0
M  V30 239 H 19.7584 5.33834 -2.74119 0
M  V30 240 H 20.8284 3.92844 -2.84257 0
M  V30 241 N 22.1715 0.800033 1.35784 0
M  V30 242 C 23.1015 0.220184 2.3246 0
M  V30 243 C 24.0825 -0.65073 1.57161 0
M  V30 244 O 25.2675 -0.582359 1.85263 0
M  V30 245 C 22.3975 -0.637353 3.41402 0
M  V30 246 C 21.3515 0.134531 4.27789 0
M  V30 247 C 20.6775 -0.844285 5.27992 0
M  V30 248 C 21.9775 1.32979 5.05088 0
M  V30 249 H 23.6715 1.02787 2.81203 0
M  V30 250 H 21.2175 0.495717 1.35199 0
M  V30 251 H 23.1705 -1.05302 4.08031 0
M  V30 252 H 21.8945 -1.47785 2.91251 0
M  V30 253 H 20.5535 0.531296 3.6273 0
M  V30 254 H 20.2015 -1.68011 4.74111 0
M  V30 255 H 19.9015 -0.332184 5.8666 0
M  V30 256 H 21.4255 -1.2583 5.97494 0
M  V30 257 H 22.8395 0.98934 5.64699 0
M  V30 258 H 21.2365 1.77593 5.7322 0
M  V30 259 H 22.3065 2.11978 4.36111 0
M  V30 260 N 23.6496 -1.47581 0.552962 0
M  V30 261 C 24.8956 -2.02782 0.0273648 0
M  V30 262 C 25.2286 -1.42687 -1.31734 0
M  V30 263 O 24.5036 -0.580897 -1.85623 0
M  V30 264 C 24.7866 -3.60031 -0.0702371 0
M  V30 265 C 24.6396 -4.30566 1.30126 0
M  V30 266 C 25.9586 -4.33028 -0.785771 0
M  V30 267 H 23.0776 -0.736912 0.0114185 0
M  V30 268 H 25.7196 -1.76056 0.714432 0
M  V30 269 H 23.8696 -3.82932 -0.655382 0
M  V30 270 H 25.5416 -4.19018 1.92929 0
M  V30 271 H 23.7846 -3.91086 1.87709 0
M  V30 272 H 24.4556 -5.39114 1.18573 0
M  V30 273 H 26.9316 -4.15095 -0.288982 0
M  V30 274 H 25.8076 -5.42695 -0.823013 0
M  V30 275 H 26.0686 -4.01945 -1.841 0
M  V30 276 N 25.1277 -0.289203 -1.54924 0
M  V30 277 C 26.3737 0.323998 -2.00195 0
M  V30 278 C 26.7067 1.54441 -1.17735 0
M  V30 279 O 25.9817 1.92875 -0.250878 0
M  V30 280 C 26.2647 0.692276 -3.53383 0
M  V30 281 C 26.1177 -0.536457 -4.46589 0
M  V30 282 C 27.4367 1.52335 -4.12895 0
M  V30 283 H 24.5557 0.116289 -0.727768 0
M  V30 284 H 27.1977 -0.398954 -1.85764 0
M  V30 285 H 25.3477 1.30822 -3.65811 0
M  V30 286 H 27.0197 -1.17499 -4.46085 0
M  V30 287 H 25.2627 -1.17192 -4.1767 0
M  V30 288 H 25.9337 -0.234806 -5.515 0
M  V30 289 H 28.4097 1.00302 -4.0383 0
M  V30 290 H 27.2857 1.74982 -5.20262 0
M  V30 291 H 27.5467 2.50886 -3.64018 0
M  V30 292 N 26.6058 1.57591 -0.0167156 0
M  V30 293 C 27.8538 1.90906 0.663285 0
M  V30 294 C 28.1748 0.892509 1.73376 0
M  V30 295 O 27.4448 -0.0677623 1.95783 0
M  V30 296 H 26.0248 0.704637 0.247983 0
M  V30 297 H 28.6868 1.94803 -0.0615909 0
M  V30 298 H 27.7828 2.9116 1.12393 0
M  V30 299 N 28.0839 -0.256276 1.55502 0
M  V30 300 C 29.3239 -0.993081 1.78654 0
M  V30 301 C 29.6879 -1.8288 0.584724 0
M  V30 302 O 30.8889 -2.59665 0.694822 0
M  V30 303 C 29.1599 -1.83856 3.06483 0
M  V30 304 S 30.7189 -2.63573 3.5082 0
M  V30 305 H 27.5369 -0.334199 0.62756 0
M  V30 306 H 30.1389 -0.26184 1.93739 0
M  V30 307 H 28.8429 -1.21414 3.92029 0
M  V30 308 H 28.3739 -2.61271 2.94111 0
M  V30 309 H 30.3889 -3.86312 3.11412 0
M  V30 310 N 29.562 -1.4872 -0.521534 0
M  V30 311 C 30.81 -1.56857 -1.27437 0
M  V30 312 C 31.131 -0.247982 -1.93417 0
M  V30 313 O 30.401 0.731151 -1.81744 0
M  V30 314 H 28.981 -0.577885 -0.473347 0
M  V30 315 H 31.643 -1.85233 -0.606205 0
M  V30 316 H 30.739 -2.35402 -2.0492 0
M  V30 317 N 31.0401 0.771051 -1.3745 0
M  V30 318 C 32.2651 1.56529 -1.36065 0
M  V30 319 C 32.6901 1.88029 0.0515859 0
M  V30 320 O 32.0481 1.49282 1.02882 0
M  V30 321 C 32.0961 2.85187 -2.20683 0
M  V30 322 O 31.2001 3.79593 -1.61193 0
M  V30 323 H 30.5411 0.47411 -0.464883 0
M  V30 324 H 33.0711 0.954269 -1.80983 0
M  V30 325 H 33.0811 3.34283 -2.33921 0
M  V30 326 H 31.7561 2.61588 -3.23334 0
M  V30 327 H 30.3331 3.38239 -1.56999 0
M  V30 328 N 32.5182 1.22032 0.997298 0
M  V30 329 C 33.7432 1.06921 1.77715 0
M  V30 330 C 34.1682 -0.376226 1.84299 0
M  V30 331 O 33.5262 -1.27165 1.29223 0
M  V30 332 C 33.5742 1.67996 3.19076 0
M  V30 333 O 32.6782 0.930653 4.01762 0
M  V30 334 H 32.0192 0.375814 0.547412 0
M  V30 335 H 34.5492 1.61737 1.25309 0
M  V30 336 H 34.5592 1.72538 3.69723 0
M  V30 337 H 33.2342 2.73182 3.13599 0
M  V30 338 H 31.8112 0.960917 3.60307 0
M  V30 339 N 33.9963 -1.19345 1.0293 0
M  V30 340 C 34.9463 -2.20472 0.58104 0
M  V30 341 C 35.9303 -1.56578 -0.370442 0
M  V30 342 O 37.1223 -1.75963 -0.191344 0
M  V30 343 C 34.2513 -3.43236 -0.066306 0
M  V30 344 C 33.3373 -4.14274 0.907642 0
M  V30 345 N 33.7283 -4.61492 2.07023 0
M  V30 346 C 32.0263 -4.39966 0.731177 0
M  V30 347 C 32.7273 -5.1605 2.68454 0
M  V30 348 N 31.7033 -5.06875 1.96414 0
M  V30 349 H 35.5053 -2.54659 1.46717 0
M  V30 350 H 33.0193 -1.35423 0.896345 0
M  V30 351 H 35.0163 -4.14927 -0.405068 0
M  V30 352 H 33.6763 -3.10549 -0.948118 0
M  V30 353 H 34.6873 -4.56304 2.44963 0
M  V30 354 H 31.3643 -4.17377 -0.101507 0
M  V30 355 H 32.7543 -5.6287 3.66915 0
M  V30 356 N 35.4744 -0.807222 -1.35358 0
M  V30 357 C 36.4244 -0.190706 -2.27201 0
M  V30 358 C 37.4084 0.635838 -1.47804 0
M  V30 359 O 38.6004 0.492991 -1.69996 0
M  V30 360 C 35.7294 0.659337 -3.36909 0
M  V30 361 C 34.8154 -0.176971 -4.23731 0
M  V30 362 N 35.2064 -1.24029 -4.90357 0
M  V30 363 C 33.5044 0.0412953 -4.45981 0
M  V30 364 C 34.2054 -1.75092 -5.54723 0
M  V30 365 N 33.1814 -1.05727 -5.33219 0
M  V30 366 H 36.9834 -1.0043 -2.76208 0
M  V30 367 H 34.4974 -0.648445 -1.48892 0
M  V30 368 H 36.4944 1.11706 -4.01656 0
M  V30 369 H 35.1544 1.47127 -2.89454 0
M  V30 370 H 36.1654 -1.62295 -4.91814 0
M  V30 371 H 32.8424 0.82232 -4.09322 0
M  V30 372 H 34.2324 -2.63963 -6.17878 0
M  V30 373 N 36.9525 1.47285 -0.560781 0
M  V30 374 C 37.8625 2.33846 0.187954 0
M  V30 375 C 38.8785 1.48412 0.908293 0
M  V30 376 O 40.0545 1.81332 0.876388 0
M  V30 377 C 37.1195 3.25178 1.2025 0
M  V30 378 C 36.1805 4.26504 0.489208 0
M  V30 379 C 35.4135 5.13472 1.45542 0
M  V30 380 O 35.6365 5.02959 2.6905 0
M  V30 381 O 34.5705 5.93902 0.977963 0
M  V30 382 H 38.3965 2.99177 -0.522177 0
M  V30 383 H 35.9815 1.45903 -0.321364 0
M  V30 384 H 37.8635 3.81584 1.78805 0
M  V30 385 H 36.5385 2.6247 1.89449 0
M  V30 386 H 35.4455 3.73847 -0.137627 0
M  V30 387 H 36.7785 4.91935 -0.161399 0
M  V30 388 N 38.4306 0.297415 1.54768 0
M  V30 389 C 39.6586 -0.315623 2.04478 0
M  V30 390 C 40.0736 -1.47792 1.17486 0
M  V30 391 O 39.4306 -1.81404 0.19971 0
M  V30 392 C 39.4816 -0.7753 3.53088 0
M  V30 393 O 39.2026 0.340732 4.36773 0
M  V30 394 C 40.7036 -1.45386 4.18781 0
M  V30 395 H 37.9236 -0.0690887 0.667434 0
M  V30 396 H 40.4676 0.436003 1.99798 0
M  V30 397 H 38.6226 -1.47696 3.58141 0
M  V30 398 H 39.0366 -0.0165035 5.24497 0
M  V30 399 H 40.5106 -1.72669 5.24299 0
M  V30 400 H 40.9876 -2.39275 3.68299 0
M  V30 401 H 41.5936 -0.795475 4.17795 0
M  V30 402 N 39.9087 -1.5758 0.0250728 0
M  V30 403 C 40.8587 -2.06468 -0.967201 0
M  V30 404 C 41.8427 -0.964376 -1.28797 0
M  V30 405 O 43.0347 -1.22797 -1.27475 0
M  V30 406 C 40.1637 -2.59203 -2.25097 0
M  V30 407 C 39.2497 -3.76157 -1.95874 0
M  V30 408 N 39.6407 -4.86919 -1.36905 0
M  V30 409 C 37.9387 -3.84566 -2.25887 0
M  V30 410 C 38.6397 -5.68172 -1.24724 0
M  V30 411 N 37.6157 -5.14953 -1.74138 0
M  V30 412 H 41.4177 -2.89508 -0.506176 0
M  V30 413 H 38.9317 -1.61399 -0.18004 0
M  V30 414 H 40.9287 -2.92517 -2.97052 0
M  V30 415 H 39.5887 -1.77592 -2.71829 0
M  V30 416 H 40.5997 -5.07256 -1.04459 0
M  V30 417 H 37.2767 -3.13854 -2.75321 0
M  V30 418 H 38.6667 -6.67221 -0.791605 0
M  V30 419 N 41.3868 0.248026 -1.55636 0
M  V30 420 C 42.6168 0.992367 -1.81206 0
M  V30 421 C 43.0248 1.7949 -0.598324 0
M  V30 422 O 42.3678 1.78292 0.442434 0
M  V30 423 C 42.4298 1.97926 -3.00109 0
M  V30 424 C 42.0938 1.36377 -4.36177 0
M  V30 425 C 43.0908 0.76682 -5.14214 0
M  V30 426 C 40.7758 1.38347 -4.82872 0
M  V30 427 C 42.7698 0.197778 -6.37093 0
M  V30 428 C 40.4568 0.810574 -6.057 0
M  V30 429 C 41.4548 0.218754 -6.8265 0
M  V30 430 O 41.1428 -0.345298 -8.03158 0
M  V30 431 H 40.8748 0.297704 -0.606917 0
M  V30 432 H 43.4288 0.276517 -2.0353 0
M  V30 433 H 41.6588 2.73339 -2.73538 0
M  V30 434 H 43.3478 2.58694 -3.12781 0
M  V30 435 H 44.1138 0.744114 -4.79258 0
M  V30 436 H 39.9928 1.8335 -4.2297 0
M  V30 437 H 43.5368 -0.264788 -6.97097 0
M  V30 438 H 39.4338 0.830604 -6.40134 0
M  V30 439 H 40.2018 -0.237055 -8.18157 0
M  V30 440 N 42.8649 1.48995 0.513639 0
M  V30 441 C 44.1129 1.57531 1.26604 0
M  V30 442 C 44.4339 0.258236 1.93283 0
M  V30 443 O 43.7039 -0.721502 1.8213 0
M  V30 444 H 42.2839 0.580387 0.470276 0
M  V30 445 H 44.9459 1.85552 0.596373 0
M  V30 446 H 44.0419 2.36486 2.03669 0
M  V30 447 N 44.343 -0.763751 1.37857 0
M  V30 448 C 45.573 -1.55067 1.3652 0
M  V30 449 C 45.981 -1.89135 -0.0494227 0
M  V30 450 O 45.324 -1.52529 -1.02375 0
M  V30 451 C 45.386 -2.8838 2.14656 0
M  V30 452 C 45.05 -2.76905 3.63555 0
M  V30 453 C 46.047 -2.4739 4.57268 0
M  V30 454 C 43.732 -2.94676 4.06781 0
M  V30 455 C 45.726 -2.35786 5.92186 0
M  V30 456 C 43.413 -2.82692 5.41782 0
M  V30 457 C 44.411 -2.53289 6.34298 0
M  V30 458 O 44.099 -2.41345 7.66817 0
M  V30 459 H 43.831 -0.486776 0.469069 0
M  V30 460 H 46.385 -0.953812 1.81911 0
M  V30 461 H 44.615 -3.50217 1.63967 0
M  V30 462 H 46.304 -3.49828 2.05852 0
M  V30 463 H 47.07 -2.33339 4.2518 0
M  V30 464 H 42.949 -3.16563 3.35126 0
M  V30 465 H 46.493 -2.12757 6.64365 0
M  V30 466 H 42.39 -2.96314 5.7347 0
M  V30 467 H 43.158 -2.56634 7.77226 0
M  V30 468 N 45.8211 -1.22559 -0.990812 0
M  V30 469 C 46.7841 -0.998863 -2.0629 0
M  V30 470 C 47.7841 0.0354834 -1.60761 0
M  V30 471 O 48.9741 -0.203231 -1.7301 0
M  V30 472 C 46.1061 -0.509203 -3.37076 0
M  V30 473 H 47.2991 -1.95014 -2.27837 0
M  V30 474 H 44.8521 -1.04456 -1.16269 0
M  V30 475 H 45.5871 0.446335 -3.21214 0
M  V30 476 H 45.3721 -1.25547 -3.71457 0
M  V30 477 H 46.8621 -0.370888 -4.1595 0
M  V30 478 N 47.2992 1.18797 -1.03562 0
M  V30 479 C 48.5272 1.92599 -0.755869 0
M  V30 480 C 48.9422 1.75886 0.686271 0
M  V30 481 O 48.2992 1.08517 1.46732 0
M  V30 482 C 48.3502 3.44159 -1.10619 0
M  V30 483 O 48.0712 3.60341 -2.4917 0
M  V30 484 C 49.5722 4.3507 -0.850214 0
M  V30 485 H 46.7922 0.611587 -0.276048 0
M  V30 486 H 49.3362 1.50742 -1.38192 0
M  V30 487 H 47.4912 3.83823 -0.525194 0
M  V30 488 H 47.9052 4.54128 -2.62427 0
M  V30 489 H 49.3792 5.39989 -1.14523 0
M  V30 490 H 49.8562 4.38673 0.215176 0
M  V30 491 H 50.4622 4.01097 -1.41426 0
M  V30 492 N 48.7773 0.814389 1.34928 0
M  V30 493 C 49.7073 0.244827 2.32213 0
M  V30 494 C 50.6883 -0.634024 1.57842 0
M  V30 495 O 51.8733 -0.562676 1.8587 0
M  V30 496 C 49.0033 -0.601106 3.42058 0
M  V30 497 C 47.9573 0.179896 4.27622 0
M  V30 498 C 47.2833 -0.788237 5.28858 0
M  V30 499 C 48.5833 1.38329 5.03649 0
M  V30 500 H 50.2773 1.05763 2.80097 0
M  V30 501 H 47.8233 0.510029 1.34665 0
M  V30 502 H 49.7763 -1.00968 4.09125 0
M  V30 503 H 48.5003 -1.44688 2.92802 0
M  V30 504 H 47.1593 0.569739 3.62146 0
M  V30 505 H 46.8073 -1.62973 4.75866 0
M  V30 506 H 46.5073 -0.269942 5.8698 0
M  V30 507 H 48.0313 -1.19485 5.98795 0
M  V30 508 H 49.4453 1.04918 5.63618 0
M  V30 509 H 47.8423 1.83662 5.71304 0
M  V30 510 H 48.9123 2.16592 4.33839 0
M  V30 511 N 50.2554 -1.46986 0.568584 0
M  V30 512 C 51.4804 -2.07335 0.0520528 0
M  V30 513 C 51.9054 -1.41675 -1.23733 0
M  V30 514 O 51.2634 -0.495623 -1.74394 0
M  V30 515 C 51.3114 -3.60417 -0.11501 0
M  V30 516 O 50.4154 -3.95309 -1.17492 0
M  V30 517 H 49.7564 -0.661597 0.0564385 0
M  V30 518 H 52.2864 -1.88837 0.787507 0
M  V30 519 H 52.2964 -4.06698 -0.325644 0
M  V30 520 H 50.9714 -4.07601 0.826675 0
M  V30 521 H 49.5484 -3.60757 -0.943869 0
M  V30 522 N 51.7335 -0.305618 -1.54608 0
M  V30 523 C 52.9635 0.304333 -2.04346 0
M  V30 524 C 53.3715 1.47715 -1.18224 0
M  V30 525 O 52.7145 1.82591 -0.201577 0
M  V30 526 C 52.7765 0.819031 -3.50046 0
M  V30 527 C 52.4405 -0.22912 -4.56425 0
M  V30 528 C 53.4375 -1.05914 -5.08997 0
M  V30 529 C 51.1225 -0.372148 -5.0092 0
M  V30 530 C 53.1165 -2.01809 -6.04609 0
M  V30 531 C 50.8035 -1.33454 -5.9635 0
M  V30 532 C 51.8015 -2.15599 -6.48079 0
M  V30 533 O 51.4895 -3.10205 -7.41639 0
M  V30 534 H 51.2215 0.0693996 -0.672428 0
M  V30 535 H 53.7755 -0.444548 -2.00532 0
M  V30 536 H 52.0055 1.61852 -3.51199 0
M  V30 537 H 53.6945 1.34537 -3.82955 0
M  V30 538 H 54.4605 -0.959538 -4.75413 0
M  V30 539 H 50.3395 0.257304 -4.60281 0
M  V30 540 H 53.8835 -2.65966 -6.44909 0
M  V30 541 H 49.7805 -1.43485 -6.29351 0
M  V30 542 H 50.5485 -3.05237 -7.59455 0
M  V30 543 N 53.2116 1.57565 -0.0334293 0
M  V30 544 C 54.1746 2.09393 0.932048 0
M  V30 545 C 55.1746 1.00986 1.25134 0
M  V30 546 O 56.3646 1.27129 1.19096 0
M  V30 547 C 53.4966 2.56338 2.2473 0
M  V30 548 H 54.6896 2.95984 0.483085 0
M  V30 549 H 52.2426 1.54819 0.21468 0
M  V30 550 H 52.9776 1.7309 2.74245 0
M  V30 551 H 52.7626 3.35542 2.02865 0
M  V30 552 H 54.2526 2.96646 2.93923 0
M  V30 553 N 54.6897 -0.239769 1.55765 0
M  V30 554 C 55.9667 -0.990056 1.68693 0
M  V30 555 C 56.3467 -2.03107 0.5754 0
M  V30 556 O 55.6947 -2.24604 -0.42017 0
M  V30 557 C 55.9047 -1.61696 3.09282 0
M  V30 558 C 57.2527 -2.11613 3.6811 0
M  V30 559 O 58.2767 -1.71624 3.12127 0
M  V30 560 O 57.1357 -2.85057 4.66267 0
M  V30 561 H 54.2297 -0.461299 0.686391 0
M  V30 562 H 56.7757 -0.232991 1.68093 0
M  V30 563 H 55.5477 -0.864357 3.81634 0
M  V30 564 H 55.1707 -2.44005 3.13923 0
M  V30 565 N 56.1678 -1.49265 -0.50573 0
M  V30 566 C 57.3978 -1.61979 -1.28243 0
M  V30 567 C 57.8058 -0.288576 -1.86986 0
M  V30 568 O 57.1488 0.735408 -1.68337 0
M  V30 569 C 57.2108 -2.62632 -2.45489 0
M  V30 570 C 56.8748 -4.071 -2.07651 0
M  V30 571 C 57.8718 -4.94049 -1.61901 0
M  V30 572 C 55.5568 -4.52801 -2.17431 0
M  V30 573 C 57.5508 -6.24736 -1.26428 0
M  V30 574 C 55.2378 -5.83503 -1.8157 0
M  V30 575 C 56.2358 -6.69294 -1.36142 0
M  V30 576 O 55.9238 -7.9756 -1.00764 0
M  V30 577 H 55.6558 -0.54834 -0.395347 0
M  V30 578 H 58.2098 -1.96002 -0.614204 0
M  V30 579 H 56.4398 -2.2378 -3.15372 0
M  V30 580 H 58.1288 -2.64925 -3.07522 0
M  V30 581 H 58.8948 -4.5997 -1.53795 0
M  V30 582 H 54.7738 -3.86196 -2.51742 0
M  V30 583 H 58.3178 -6.91652 -0.908992 0
M  V30 584 H 54.2148 -6.17112 -1.89324 0
M  V30 585 H 54.9828 -8.10529 -1.13952 0
M  V30 586 N 57.6459 0.756429 -1.3826 0
M  V30 587 C 58.8919 1.5168 -1.35517 0
M  V30 588 C 59.2469 1.9232 0.0554451 0
M  V30 589 O 58.5399 1.62352 1.01746 0
M  V30 590 C 58.7339 2.78313 -2.24224 0
M  V30 591 C 58.5629 2.50053 -3.7377 0
M  V30 592 C 57.3329 2.43414 -4.42807 0
M  V30 593 C 59.5309 2.1702 -4.66269 0
M  V30 594 N 57.5129 2.07398 -5.77805 0
M  V30 595 C 58.8839 1.91271 -5.89759 0
M  V30 596 C 60.9389 2.03305 -4.54501 0
M  V30 597 C 59.6419 1.53192 -7.02798 0
M  V30 598 C 61.6679 1.66627 -5.67441 0
M  V30 599 C 61.0299 1.4175 -6.8999 0
M  V30 600 H 57.1289 0.554735 -0.551174 0
M  V30 601 H 59.7129 0.881106 -1.73622 0
M  V30 602 H 57.8839 3.39696 -1.88311 0
M  V30 603 H 59.6159 3.44343 -2.12627 0
M  V30 604 H 56.3709 2.59789 -3.95988 0
M  V30 605 H 56.7949 1.92044 -6.4919 0
M  V30 606 H 61.4369 2.21215 -3.60311 0
M  V30 607 H 59.1549 1.34022 -7.96909 0
M  V30 608 H 62.7409 1.56652 -5.60314 0
M  V30 609 H 61.6209 1.1379 -7.759 0
M  V30 610 N 59.124 1.23083 0.984299 0
M  V30 611 C 60.087 1.00979 2.05757 0
M  V30 612 C 61.087 -0.0269573 1.60777 0
M  V30 613 O 62.277 0.212403 1.729 0
M  V30 614 C 59.409 0.527072 3.36801 0
M  V30 615 H 60.602 1.9622 2.26799 0
M  V30 616 H 58.155 1.05072 1.15714 0
M  V30 617 H 58.89 -0.429294 3.21446 0
M  V30 618 H 58.675 1.27515 3.70786 0
M  V30 619 H 60.165 0.392942 4.15747 0
M  V30 620 N 60.6021 -1.18246 1.0419 0
M  V30 621 C 61.8501 -1.87886 0.744543 0
M  V30 622 C 62.1711 -1.8082 -0.730006 0
M  V30 623 O 61.4411 -1.22736 -1.52685 0
M  V30 624 H 60.0211 -0.695556 0.272417 0
M  V30 625 H 62.6831 -1.43494 1.31892 0
M  V30 626 H 61.7791 -2.9389 1.05049 0
M  V30 627 N 62.0802 -0.821533 -1.34494 0
M  V30 628 C 62.9902 -0.244355 -2.33324 0
M  V30 629 C 64.0062 0.620527 -1.62559 0
M  V30 630 O 65.1822 0.528754 -1.94335 0
M  V30 631 C 62.2472 0.585368 -3.41723 0
M  V30 632 C 61.3082 -0.301752 -4.28238 0
M  V30 633 C 60.5412 0.488466 -5.3146 0
M  V30 634 O 60.7642 1.72186 -5.4379 0
M  V30 635 O 59.6982 -0.12848 -6.01763 0
M  V30 636 H 63.5242 -1.06231 -2.84515 0
M  V30 637 H 61.1092 -0.583645 -1.37528 0
M  V30 638 H 62.9912 1.05747 -4.07916 0
M  V30 639 H 61.6662 1.38068 -2.92778 0
M  V30 640 H 60.5732 -0.821315 -3.64973 0
M  V30 641 H 61.9062 -1.06138 -4.8062 0
M  V30 642 N 63.5583 1.46682 -0.576371 0
M  V30 643 C 64.4883 2.33028 0.148397 0
M  V30 644 C 65.4693 1.44961 0.889956 0
M  V30 645 O 66.6543 1.73789 0.866662 0
M  V30 646 C 63.7843 3.27117 1.1667 0
M  V30 647 C 62.7383 4.24575 0.540386 0
M  V30 648 C 62.0643 5.08126 1.6647 0
M  V30 649 C 63.3643 5.19722 -0.518331 0
M  V30 650 H 65.0583 2.93875 -0.572509 0
M  V30 651 H 62.6043 1.41315 -0.276768 0
M  V30 652 H 64.5573 3.86374 1.68204 0
M  V30 653 H 63.2813 2.64364 1.9178 0
M  V30 654 H 61.9403 3.66571 0.0461769 0
M  V30 655 H 61.5883 4.41762 2.40531 0
M  V30 656 H 61.2883 5.74122 1.25131 0
M  V30 657 H 62.8123 5.70246 2.18293 0
M  V30 658 H 64.2263 5.73232 -0.0883058 0
M  V30 659 H 62.6233 5.94026 -0.851679 0
M  V30 660 H 63.6933 4.64037 -1.40703 0
M  V30 661 N 65.0364 0.313813 1.54444 0
M  V30 662 C 66.2844 -0.291099 1.99993 0
M  V30 663 C 66.6054 -1.53418 1.20366 0
M  V30 664 O 65.8754 -1.93544 0.302927 0
M  V30 665 H 64.4554 -0.110552 0.738774 0
M  V30 666 H 67.1174 0.428106 1.9014 0
M  V30 667 H 66.2134 -0.554268 3.07139 0
M  V30 668 N 66.5145 -1.57545 0.0417849 0
M  V30 669 C 67.4465 -2.07904 -0.964799 0
M  V30 670 C 68.4595 -1.00497 -1.28079 0
M  V30 671 O 69.6485 -1.28087 -1.24322 0
M  V30 672 C 66.7485 -2.49928 -2.28887 0
M  V30 673 C 65.9215 -3.80562 -2.15619 0
M  V30 674 C 64.9805 -4.08999 -3.31069 0
M  V30 675 O 64.0065 -4.79061 -3.0739 0
M  V30 676 N 65.2085 -3.6017 -4.55256 0
M  V30 677 H 67.9735 -2.94886 -0.535029 0
M  V30 678 H 65.5345 -1.61252 -0.144681 0
M  V30 679 H 67.5265 -2.66034 -3.04972 0
M  V30 680 H 66.0965 -1.68245 -2.63463 0
M  V30 681 H 65.3165 -3.74129 -1.24183 0
M  V30 682 H 66.6045 -4.66126 -2.03971 0
M  V30 683 H 66.0025 -3.03512 -4.77386 0
M  V30 684 H 64.5595 -3.81532 -5.28466 0
M  V30 685 N 67.9926 0.231505 -1.5589 0
M  V30 686 C 69.2176 0.978689 -1.82856 0
M  V30 687 C 69.6426 1.77559 -0.620846 0
M  V30 688 O 69.0006 1.76119 0.430305 0
M  V30 689 C 69.0486 1.87997 -3.07716 0
M  V30 690 O 68.1526 2.97393 -2.85712 0
M  V30 691 H 67.4936 0.277663 -0.603158 0
M  V30 692 H 70.0236 0.24783 -2.03093 0
M  V30 693 H 70.0336 2.2917 -3.37558 0
M  V30 694 H 68.7086 1.29417 -3.95252 0
M  V30 695 H 67.2856 2.60238 -2.67078 0
M  V30 696 N 69.4707 1.49531 0.497807 0
M  V30 697 C 70.8867 1.36365 0.829266 0
M  V30 698 C 71.0867 0.399184 1.97506 0
M  V30 699 O 70.1427 -0.167977 2.51941 0
M  V30 700 C 71.4557 2.77153 1.16647 0
M  V30 701 C 73.0037 2.85877 1.27449 0
M  V30 702 C 73.4787 4.2744 1.64497 0
M  V30 703 N 74.9697 4.30265 1.7154 0
M  V30 704 C 75.7047 5.3677 2.01656 0
M  V30 705 N 75.2007 6.53516 2.29976 0
M  V30 706 N 76.9937 5.24189 2.02934 0
M  V30 707 H 69.1447 2.10831 -0.257703 0
M  V30 708 H 71.4077 0.946534 -0.0527091 0
M  V30 709 H 71.1137 3.49442 0.397872 0
M  V30 710 H 70.9877 3.12722 2.10915 0
M  V30 711 H 73.3747 2.13824 2.0338 0
M  V30 712 H 73.4557 2.53887 0.312244 0
M  V30 713 H 73.0997 5.00021 0.891151 0
M  V30 714 H 73.0297 4.56896 2.61827 0
M  V30 715 H 75.5207 3.4607 1.51802 0
M  V30 716 H 75.8337 7.30506 2.52153 0
M  V30 717 H 74.1787 6.56737 2.27425 0
M  V30 718 H 77.3697 4.31988 1.80289 0
M  V30 719 H 77.5427 6.07286 2.26071 0
M  V30 720 N 70.9488 -0.749086 1.3866 0
M  V30 721 C 72.2258 -1.4992 1.25632 0
M  V30 722 C 72.6058 -2.10633 -0.140317 0
M  V30 723 O 71.9538 -1.97437 -1.15025 0
M  V30 724 C 72.1638 -2.56195 2.36992 0
M  V30 725 C 73.5118 -3.22972 2.75634 0
M  V30 726 O 74.5358 -2.66502 2.36337 0
M  V30 727 O 73.3948 -4.25122 3.43415 0
M  V30 728 H 70.4888 -0.665067 0.491544 0
M  V30 729 H 73.0348 -0.784113 1.50498 0
M  V30 730 H 71.8068 -2.09612 3.30422 0
M  V30 731 H 71.4298 -3.35279 2.13714 0
M  V30 732 N 72.4269 -1.23603 -0.977757 0
M  V30 733 C 73.6729 -1.07129 -1.72195 0
M  V30 734 C 74.0059 0.390501 -1.90233 0
M  V30 735 O 73.2809 1.28902 -1.45653 0
M  V30 736 C 73.5639 -1.80031 -3.11867 0
M  V30 737 C 73.4169 -3.33899 -3.01383 0
M  V30 738 C 74.7359 -1.56492 -4.11337 0
M  V30 739 H 71.8549 -0.390571 -0.624999 0
M  V30 740 H 74.4969 -1.52142 -1.13811 0
M  V30 741 H 72.6469 -1.41768 -3.6171 0
M  V30 742 H 74.3189 -3.81699 -2.59043 0
M  V30 743 H 72.5619 -3.62796 -2.37827 0
M  V30 744 H 73.2329 -3.801 -4.00285 0
M  V30 745 H 75.7089 -1.89757 -3.70313 0
M  V30 746 H 74.5849 -2.09973 -5.07151 0
M  V30 747 H 74.8459 -0.500874 -4.39254 0
M  V30 748 N 73.905 1.17692 -1.04816 0
M  V30 749 C 74.835 2.23777 -0.666791 0
M  V30 750 C 75.816 1.66796 0.33361 0
M  V30 751 O 77.001 1.93039 0.212042 0
M  V30 752 C 74.131 3.47281 -0.0367933 0
M  V30 753 C 73.085 4.17059 -0.961546 0
M  V30 754 C 72.411 5.34342 -0.195626 0
M  V30 755 C 73.711 4.69713 -2.28402 0
M  V30 756 H 75.405 2.55933 -1.55367 0
M  V30 757 H 72.951 1.23019 -0.748484 0
M  V30 758 H 74.904 4.20706 0.241775 0
M  V30 759 H 73.628 3.14381 0.885004 0
M  V30 760 H 72.287 3.45541 -1.22462 0
M  V30 761 H 71.935 4.97692 0.728816 0
M  V30 762 H 71.635 5.81966 -0.811775 0
M  V30 763 H 73.159 6.10553 0.0757473 0
M  V30 764 H 74.573 5.34794 -2.06563 0
M  V30 765 H 72.97 5.279 -2.8538 0
M  V30 766 H 74.04 3.86726 -2.92525 0
M  V30 767 N 75.3831 0.828654 1.34056 0
M  V30 768 C 76.3131 0.269443 2.3194 0
M  V30 769 C 77.2941 -0.617247 1.58506 0
M  V30 770 O 78.4791 -0.542931 1.86456 0
M  V30 771 C 75.6091 -0.564793 3.42677 0
M  V30 772 C 74.5631 0.225241 4.27407 0
M  V30 773 C 73.8891 -0.7321 5.29664 0
M  V30 774 C 75.1891 1.43663 5.02154 0
M  V30 775 H 76.8831 1.08728 2.7896 0
M  V30 776 H 74.4291 0.524283 1.34117 0
M  V30 777 H 76.3821 -0.966233 4.10173 0
M  V30 778 H 75.1061 -1.41574 2.9432 0
M  V30 779 H 73.7651 0.608117 3.61521 0
M  V30 780 H 73.4131 -1.57916 4.77568 0
M  V30 781 H 73.1131 -0.20767 5.87233 0
M  V30 782 H 74.6371 -1.13128 6.00029 0
M  V30 783 H 76.0511 1.1089 5.62473 0
M  V30 784 H 74.4481 1.89711 5.69324 0
M  V30 785 H 75.5181 2.21181 4.31517 0
M  V30 786 N 76.8612 -1.46375 0.584142 0
M  V30 787 C 77.8242 -2.28784 -0.138108 0
M  V30 788 C 78.8242 -1.38471 -0.817462 0
M  V30 789 O 80.0142 -1.60833 -0.669199 0
M  V30 790 C 77.1462 -3.18892 -1.20503 0
M  V30 791 H 78.3392 -2.94117 0.586127 0
M  V30 792 H 75.8922 -1.52509 0.342171 0
M  V30 793 H 76.6272 -2.58309 -1.96079 0
M  V30 794 H 76.4122 -3.85388 -0.722384 0
M  V30 795 H 77.9022 -3.80914 -1.71155 0
M  V30 796 N 78.3393 -0.321999 -1.54275 0
M  V30 797 C 79.5873 0.280489 -2.00144 0
M  V30 798 C 79.9083 1.52777 -1.21178 0
M  V30 799 O 79.1783 1.9338 -0.313187 0
M  V30 800 H 77.7583 0.106632 -0.73935 0
M  V30 801 H 80.4203 -0.438184 -1.8991 0
M  V30 802 H 79.5163 0.537972 -3.07428 0
M  V30 803 N 79.8174 1.5752 -0.0501392 0
M  V30 804 C 80.7654 2.12651 0.942459 0
M  V30 805 C 81.7594 1.05807 1.32292 0
M  V30 806 O 82.9654 1.24217 1.3027 0
M  V30 807 H 79.3404 0.679673 0.321789 0
M  V30 808 H 81.3114 2.94951 0.452356 0
M  V30 809 C 80.0604 2.68565 2.20836 0
M  V30 810 H 79.3834 3.50439 1.92439 0
M  V30 811 H 80.8234 3.10761 2.8845 0
M  V30 812 C 79.2824 1.62291 2.95234 0
M  V30 813 O 79.8124 1.03508 3.88135 0
M  V30 814 N 78.0184 1.33836 2.57946 0
M  V30 815 H 77.5654 1.81826 1.82475 0
M  V30 816 H 77.5234 0.629595 3.08032 0
M  V30 817 N 81.2955 -0.223234 1.56011 0
M  V30 818 C 82.2585 -1.26014 1.9145 0
M  V30 819 C 83.2585 -1.3989 0.792937 0
M  V30 820 O 84.4485 -1.38184 1.0607 0
M  V30 821 C 81.5805 -2.63422 2.16383 0
M  V30 822 H 82.7735 -0.95796 2.84189 0
M  V30 823 H 80.3265 -0.463576 1.49267 0
M  V30 824 H 81.0615 -2.98741 1.2619 0
M  V30 825 H 80.8465 -2.54728 2.98088 0
M  V30 826 H 82.3365 -3.38249 2.44903 0
M  V30 827 N 82.7736 -1.49793 -0.48987 0
M  V30 828 C 83.6836 -1.70036 -1.61632 0
M  V30 829 C 84.6996 -0.583102 -1.63939 0
M  V30 830 O 85.8756 -0.859169 -1.82154 0
M  V30 831 C 82.9406 -1.77277 -2.97949 0
M  V30 832 C 82.0016 -3.00918 -3.06181 0
M  V30 833 C 81.2346 -3.07804 -4.35996 0
M  V30 834 O 81.4576 -2.21982 -5.25433 0
M  V30 835 O 80.3916 -4.00369 -4.49431 0
M  V30 836 H 84.2176 -2.65486 -1.47482 0
M  V30 837 H 81.8026 -1.33666 -0.667362 0
M  V30 838 H 83.6846 -1.84329 -3.78947 0
M  V30 839 H 82.3596 -0.850076 -3.12339 0
M  V30 840 H 81.2666 -2.99377 -2.2433 0
M  V30 841 H 82.5996 -3.92704 -2.96723 0
M  V30 842 N 84.2517 0.741722 -1.39055 0
M  V30 843 C 85.2147 1.83733 -1.37021 0
M  V30 844 C 86.2147 1.58542 -0.268534 0
M  V30 845 O 87.4047 1.66067 -0.526076 0
M  V30 846 C 84.5367 3.2141 -1.13617 0
M  V30 847 H 85.7297 1.86941 -2.34506 0
M  V30 848 H 83.2827 0.944676 -1.24521 0
M  V30 849 H 84.0177 3.23865 -0.167863 0
M  V30 850 H 83.8027 3.4109 -1.93391 0
M  V30 851 H 85.2927 4.01477 -1.14918 0
M  V30 852 N 85.7298 1.2412 0.971189 0
M  V30 853 C 87.0068 0.986867 1.6888 0
M  V30 854 C 87.3868 -0.491857 2.0529 0
M  V30 855 O 86.7348 -1.46531 1.75331 0
M  V30 856 C 86.9448 1.9063 2.92338 0
M  V30 857 C 88.2928 2.17515 3.64654 0
M  V30 858 O 89.3168 1.88254 3.02388 0
M  V30 859 O 88.1758 2.6719 4.7673 0
M  V30 860 H 85.2698 0.372944 0.738134 0
M  V30 861 H 87.8158 1.35203 1.02559 0
M  V30 862 H 86.5878 2.90552 2.62097 0
M  V30 863 H 86.2108 1.54408 3.66393 0
M  V30 864 N 87.2079 -1.17134 1.05439 0
M  V30 865 C 88.6239 -1.39454 0.776201 0
M  V30 866 C 88.8239 -1.91454 -0.628307 0
M  V30 867 O 87.8799 -2.10777 -1.39031 0
M  V30 868 C 89.1929 -2.38305 1.83388 0
M  V30 869 C 90.7409 -2.52006 1.85639 0
M  V30 870 C 91.2159 -3.54133 2.90437 0
M  V30 871 N 92.7069 -3.61653 2.89415 0
M  V30 872 C 93.4419 -4.4044 3.67152 0
M  V30 873 N 92.9379 -5.22721 4.54681 0
M  V30 874 N 94.7309 -4.35337 3.55581 0
M  V30 875 H 86.8819 -0.817134 1.96053 0
M  V30 876 H 89.1449 -0.421626 0.849079 0
M  V30 877 H 88.8509 -2.07173 2.84204 0
M  V30 878 H 88.7249 -3.37841 1.67761 0
M  V30 879 H 91.1119 -2.82447 0.85486 0
M  V30 880 H 91.1929 -1.52537 2.05344 0
M  V30 881 H 90.8369 -3.24431 3.90777 0
M  V30 882 H 90.7669 -4.53313 2.67983 0
M  V30 883 H 93.2579 -3.02909 2.25952 0
M  V30 884 H 93.5709 -5.80027 5.10674 0
M  V30 885 H 91.9159 -5.22093 4.58741 0
M  V30 886 H 95.1069 -3.70112 2.86592 0
M  V30 887 H 95.2799 -4.96494 4.1641 0
M  V30 888 N 88.686 -0.835752 -1.33615 0
M  V30 889 C 89.649 -0.272 -2.2758 0
M  V30 890 C 90.649 0.557487 -1.50827 0
M  V30 891 O 91.839 0.37173 -1.70188 0
M  V30 892 C 88.971 0.617173 -3.35267 0
M  V30 893 H 90.164 -1.10111 -2.78954 0
M  V30 894 H 87.717 -0.608594 -1.43965 0
M  V30 895 H 88.452 1.46884 -2.89129 0
M  V30 896 H 88.237 0.0237066 -3.92093 0
M  V30 897 H 89.727 1.005 -4.05326 0
M  V30 898 N 90.1641 1.46063 -0.591896 0
M  V30 899 C 91.4121 2.01938 -0.0808391 0
M  V30 900 C 91.7331 1.46475 1.28725 0
M  V30 901 O 91.0031 0.652944 1.84698 0
M  V30 902 H 89.5831 0.746516 -0.0268938 0
M  V30 903 H 92.2451 1.79055 -0.769752 0
M  V30 904 H 91.3411 3.12094 -0.0187578 0
M  V30 905 N 91.6422 0.330177 1.54103 0
M  V30 906 C 92.9192 -0.325007 1.92881 0
M  V30 907 C 93.2992 -1.6934 1.26045 0
M  V30 908 O 92.6472 -2.24855 0.406526 0
M  V30 909 C 92.8572 -0.410634 3.46576 0
M  V30 910 C 94.2052 -0.667801 4.19316 0
M  V30 911 O 95.2292 -0.49329 3.52768 0
M  V30 912 O 94.0882 -1.00491 5.37181 0
M  V30 913 H 91.1822 -0.186873 0.80561 0
M  V30 914 H 93.7282 0.380376 1.65382 0
M  V30 915 H 92.5002 0.550164 3.87413 0
M  V30 916 H 92.1232 -1.16333 3.802 0
M  V30 917 N 93.1203 -1.57491 0.0584922 0
M  V30 918 C 94.0503 -2.14988 -0.911178 0
M  V30 919 C 95.0313 -1.07343 -1.31952 0
M  V30 920 O 96.2163 -1.35318 -1.39294 0
M  V30 921 C 93.3463 -2.70078 -2.18347 0
M  V30 922 C 92.3003 -3.82771 -1.91495 0
M  V30 923 C 91.6263 -4.24408 -3.25241 0
M  V30 924 C 92.9263 -5.07592 -1.23075 0
M  V30 925 H 94.6203 -2.96263 -0.432246 0
M  V30 926 H 92.1663 -1.42512 -0.206469 0
M  V30 927 H 94.1193 -3.08943 -2.86587 0
M  V30 928 H 92.8433 -1.86005 -2.68458 0
M  V30 929 H 91.5023 -3.44389 -1.25664 0
M  V30 930 H 91.1503 -3.37275 -3.73168 0
M  V30 931 H 90.8503 -5.00366 -3.08071 0
M  V30 932 H 92.3743 -4.65879 -3.94701 0
M  V30 933 H 93.7883 -5.43857 -1.81362 0
M  V30 934 H 92.1853 -5.88741 -1.16207 0
M  V30 935 H 93.2553 -4.84454 -0.207847 0
M  V30 936 N 94.5984 0.214957 -1.56127 0
M  V30 937 C 95.8754 0.963093 -1.70247 0
M  V30 938 C 96.2554 2.02166 -0.60764 0
M  V30 939 O 95.6034 2.25244 0.384385 0
M  V30 940 C 95.8134 1.56756 -3.11815 0
M  V30 941 C 97.1614 2.0573 -3.7143 0
M  V30 942 O 98.1854 1.66637 -3.14818 0
M  V30 943 O 97.0444 2.77603 -4.70743 0
M  V30 944 H 94.1384 0.450321 -0.693643 0
M  V30 945 H 96.6844 0.206219 -1.68442 0
M  V30 946 H 95.4564 0.803533 -3.82961 0
M  V30 947 H 95.0794 2.3898 -3.17765 0
M  V30 948 N 96.0765 1.50051 0.48192 0
M  V30 949 C 97.0395 1.67584 1.5636 0
M  V30 950 C 98.0395 0.546894 1.51214 0
M  V30 951 O 99.2295 0.813725 1.54026 0
M  V30 952 C 96.3615 1.691 2.96003 0
M  V30 953 H 97.5545 2.64078 1.42136 0
M  V30 954 H 95.1075 1.39369 0.707533 0
M  V30 955 H 95.8425 0.742589 3.15684 0
M  V30 956 H 95.6275 2.51105 3.01146 0
M  V30 957 H 97.1175 1.84656 3.74556 0
M  V30 958 N 97.5546 -0.734337 1.39446 0
M  V30 959 C 98.8026 -1.49096 1.36436 0
M  V30 960 C 99.1236 -1.94961 -0.0388255 0
M  V30 961 O 98.3936 -1.69033 -0.990191 0
M  V30 962 H 96.9736 -0.5531 0.502085 0
M  V30 963 H 99.6356 -0.871725 1.74319 0
M  V30 964 H 98.7316 -2.37276 2.02747 0
M  V30 965 N 99.0327 -1.24633 -0.964593 0
M  V30 966 C 99.9657 -0.984662 -2.05863 0
M  V30 967 C 100.944 0.0826554 -1.6239 0
M  V30 968 O 102.128 -0.0549296 -1.8842 0
M  V30 969 C 99.2547 -0.486529 -3.35187 0
M  V30 970 C 98.3007 -1.54286 -3.97615 0
M  V30 971 S 99.1337 -3.12513 -4.34851 0
M  V30 972 C 100.29 -2.6441 -5.67308 0
M  V30 973 H 100.523 -1.91104 -2.27743 0
M  V30 974 H 98.0557 -1.08052 -1.10291 0
M  V30 975 H 100.014 -0.205757 -4.09984 0
M  V30 976 H 98.6747 0.419186 -3.1129 0
M  V30 977 H 97.8677 -1.14481 -4.90826 0
M  V30 978 H 97.4697 -1.7738 -3.2926 0
M  V30 979 H 99.7617 -2.07416 -6.44969 0
M  V30 980 H 100.705 -3.56222 -6.11973 0
M  V30 981 H 101.113 -2.04734 -5.26065 0
M  V30 982 N 100.511 1.16574 -1.06058 0
M  V30 983 C 101.758 1.87047 -0.775873 0
M  V30 984 C 102.086 1.81562 0.697534 0
M  V30 985 O 101.341 1.22445 1.52662 0
M  V30 986 C 101.64 3.36195 -1.21275 0
M  V30 987 C 101.306 3.6188 -2.68986 0
M  V30 988 C 99.9678 3.68599 -3.09335 0
M  V30 989 C 102.32 3.72648 -3.64394 0
M  V30 990 C 99.6478 3.83584 -4.43937 0
M  V30 991 C 102 3.89154 -4.98741 0
M  V30 992 C 100.664 3.94114 -5.3873 0
M  V30 993 H 99.9338 0.684452 -0.283912 0
M  V30 994 H 102.581 1.37853 -1.32925 0
M  V30 995 H 100.886 3.87505 -0.578528 0
M  V30 996 H 102.583 3.89103 -0.969542 0
M  V30 997 H 99.1728 3.57281 -2.36744 0
M  V30 998 H 103.357 3.66769 -3.34356 0
M  V30 999 H 98.6128 3.85677 -4.74409 0
M  V30 1000 H 102.787 3.96427 -5.72554 0
M  V30 1001 H 100.414 4.05478 -6.43033 0
M  V30 1002 N 101.989 0.842826 1.3317 0
M  V30 1003 C 103.266 0.362216 1.92217 0
M  V30 1004 C 103.646 -1.15289 1.76838 0
M  V30 1005 O 102.994 -1.96914 1.15919 0
M  V30 1006 C 103.204 0.813495 3.39387 0
M  V30 1007 C 104.552 0.823804 4.16532 0
M  V30 1008 O 105.576 0.757358 3.48055 0
M  V30 1009 O 104.435 0.915193 5.38782 0
M  V30 1010 H 101.529 0.103317 0.820521 0
M  V30 1011 H 104.075 0.928942 1.42017 0
M  V30 1012 H 102.847 1.85624 3.4447 0
M  V30 1013 H 102.47 0.223561 3.96971 0
M  V30 1014 N 103.467 -1.45747 0.599634 0
M  V30 1015 C 104.43 -2.28917 -0.113835 0
M  V30 1016 C 105.43 -1.3933 -0.802729 0
M  V30 1017 O 106.62 -1.61534 -0.652103 0
M  V30 1018 C 103.752 -3.20152 -1.17114 0
M  V30 1019 H 104.945 -2.93478 0.617289 0
M  V30 1020 H 102.498 -1.52137 0.358327 0
M  V30 1021 H 103.233 -2.60374 -1.93329 0
M  V30 1022 H 103.018 -3.86133 -0.681468 0
M  V30 1023 H 104.508 -3.82708 -1.67105 0
M  V30 1024 N 104.945 -0.338344 -1.53925 0
M  V30 1025 C 106.191 0.260143 -2.01125 0
M  V30 1026 C 106.524 1.50617 -1.22589 0
M  V30 1027 O 105.799 1.91979 -0.312113 0
M  V30 1028 C 106.082 0.579499 -3.55407 0
M  V30 1029 C 105.935 -0.678264 -4.44657 0
M  V30 1030 C 107.254 1.39122 -4.17532 0
M  V30 1031 H 104.373 0.0930772 -0.731099 0
M  V30 1032 H 107.015 -0.457852 -1.84401 0
M  V30 1033 H 105.165 1.19118 -3.69788 0
M  V30 1034 H 106.837 -1.31631 -4.42121 0
M  V30 1035 H 105.08 -1.3042 -4.13731 0
M  V30 1036 H 105.751 -0.410143 -5.50474 0
M  V30 1037 H 108.227 0.874035 -4.06817 0
M  V30 1038 H 107.103 1.58342 -5.25565 0
M  V30 1039 H 107.364 2.39178 -3.71815 0
M  V30 1040 N 106.423 1.57458 -0.0668435 0
M  V30 1041 C 107.648 1.9804 0.616027 0
M  V30 1042 C 108.073 0.944771 1.62652 0
M  V30 1043 O 107.431 -0.0902094 1.81075 0
M  V30 1044 C 107.479 3.37665 1.26549 0
M  V30 1045 O 106.583 3.36701 2.38131 0
M  V30 1046 H 105.924 0.644719 0.158849 0
M  V30 1047 H 108.454 2.04121 -0.139891 0
M  V30 1048 H 108.464 3.7474 1.6135 0
M  V30 1049 H 107.139 4.12573 0.525016 0
M  V30 1050 H 105.716 3.1139 2.0516 0
M  V30 1051 N 107.901 -0.206675 1.56239 0
M  V30 1052 C 109.317 -0.557025 1.49564 0
M  V30 1053 C 109.517 -1.86424 0.764735 0
M  V30 1054 O 108.573 -2.50584 0.310491 0
M  V30 1055 C 109.886 -0.622478 2.94186 0
M  V30 1056 C 111.434 -0.712099 3.04792 0
M  V30 1057 C 111.909 -0.808767 4.50803 0
M  V30 1058 N 113.4 -0.8726 4.54907 0
M  V30 1059 C 114.135 -0.967365 5.65181 0
M  V30 1060 N 113.631 -1.02515 6.85173 0
M  V30 1061 N 115.424 -1.00366 5.53067 0
M  V30 1062 H 107.575 0.650943 2.02179 0
M  V30 1063 H 109.838 0.230387 0.919579 0
M  V30 1064 H 109.544 0.268727 3.50672 0
M  V30 1065 H 109.418 -1.4811 3.46905 0
M  V30 1066 H 111.805 -1.59374 2.48363 0
M  V30 1067 H 111.886 0.172489 2.55218 0
M  V30 1068 H 111.53 0.0684754 5.07854 0
M  V30 1069 H 111.46 -1.70899 4.98098 0
M  V30 1070 H 113.951 -0.837657 3.68499 0
M  V30 1071 H 114.264 -1.09765 7.64965 0
M  V30 1072 H 112.609 -0.994026 6.87855 0
M  V30 1073 H 115.8 -0.95527 4.58249 0
M  V30 1074 H 115.973 -1.07405 6.39037 0
M  V30 1075 N 109.379 -1.50304 -0.473955 0
M  V30 1076 C 110.342 -1.6841 -1.55469 0
M  V30 1077 C 111.342 -0.554905 -1.50922 0
M  V30 1078 O 112.532 -0.821882 -1.53593 0
M  V30 1079 C 109.664 -1.70667 -2.95102 0
M  V30 1080 H 110.857 -2.64828 -1.40733 0
M  V30 1081 H 108.41 -1.39742 -0.700132 0
M  V30 1082 H 109.145 -0.75932 -3.15285 0
M  V30 1083 H 108.93 -2.52698 -2.9981 0
M  V30 1084 H 110.42 -1.8664 -3.73571 0
M  V30 1085 N 110.857 0.726932 -1.39834 0
M  V30 1086 C 112.085 1.51613 -1.40787 0
M  V30 1087 C 112.5 1.88799 -0.00451505 0
M  V30 1088 O 111.857 1.54662 0.968809 0
M  V30 1089 C 111.908 2.79863 -2.28821 0
M  V30 1090 O 111.629 2.44253 -3.63692 0
M  V30 1091 C 113.13 3.73837 -2.38245 0
M  V30 1092 H 110.35 0.468264 -0.480593 0
M  V30 1093 H 112.894 0.897607 -1.83748 0
M  V30 1094 H 111.049 3.38027 -1.89252 0
M  V30 1095 H 111.463 3.26695 -4.1033 0
M  V30 1096 H 112.937 4.60699 -3.04073 0
M  V30 1097 H 113.414 4.16153 -1.40403 0
M  V30 1098 H 114.02 3.21589 -2.78317 0
M  V30 1099 N 112.336 1.25143 0.95797 0
M  V30 1100 C 113.286 1.01924 2.0395 0
M  V30 1101 C 114.27 -0.0427175 1.60843 0
M  V30 1102 O 115.462 0.17221 1.7616 0
M  V30 1103 C 112.591 0.636373 3.3735 0
M  V30 1104 C 111.677 1.73492 3.8699 0
M  V30 1105 N 112.068 2.96945 4.0946 0
M  V30 1106 C 110.366 1.61467 4.15746 0
M  V30 1107 C 111.067 3.68228 4.50315 0
M  V30 1108 N 110.043 2.95833 4.56053 0
M  V30 1109 H 113.845 1.95653 2.19311 0
M  V30 1110 H 111.359 1.15413 1.14253 0
M  V30 1111 H 113.356 0.451233 4.14451 0
M  V30 1112 H 112.016 -0.293621 3.2337 0
M  V30 1113 H 113.027 3.33025 3.96629 0
M  V30 1114 H 109.704 0.753394 4.10646 0
M  V30 1115 H 111.094 4.74178 4.76031 0
M  V30 1116 N 113.814 -1.1601 1.06675 0
M  V30 1117 C 115.062 -1.86264 0.784229 0
M  V30 1118 C 115.383 -1.82328 -0.691488 0
M  V30 1119 O 114.653 -1.25947 -1.50047 0
M  V30 1120 H 113.233 -0.689621 0.28711 0
M  V30 1121 H 115.895 -1.40664 1.34906 0
M  V30 1122 H 114.991 -2.91595 1.11259 0
M  V30 1123 N 115.292 -0.849877 -1.32721 0
M  V30 1124 C 116.242 -0.262892 -2.26479 0
M  V30 1125 C 117.226 0.588493 -1.49752 0
M  V30 1126 O 118.418 0.438659 -1.71478 0
M  V30 1127 C 115.547 0.551818 -3.38836 0
M  V30 1128 C 114.633 -0.311689 -4.22953 0
M  V30 1129 N 115.024 -1.39567 -4.86163 0
M  V30 1130 C 113.322 -0.100611 -4.45887 0
M  V30 1131 C 114.023 -1.92651 -5.48872 0
M  V30 1132 N 112.999 -1.22637 -5.29586 0
M  V30 1133 H 116.801 -1.09166 -2.72873 0
M  V30 1134 H 114.315 -0.695486 -1.46754 0
M  V30 1135 H 116.312 0.988713 -4.05006 0
M  V30 1136 H 114.972 1.37844 -2.93988 0
M  V30 1137 H 115.983 -1.77859 -4.86402 0
M  V30 1138 H 112.66 0.691681 -4.11731 0
M  V30 1139 H 114.05 -2.83487 -6.09167 0
M  V30 1140 N 116.77 1.45427 -0.607355 0
M  V30 1141 C 118.018 2.01841 -0.102253 0
M  V30 1142 C 118.339 1.47832 1.27164 0
M  V30 1143 O 117.609 0.672497 1.83995 0
M  V30 1144 H 116.189 0.746188 -0.0348101 0
M  V30 1145 H 118.851 1.78229 -0.7887 0
M  V30 1146 H 117.947 3.12057 -0.0518585 0
M  V30 1147 N 118.248 0.346503 1.53744 0
M  V30 1148 C 119.211 -0.496439 2.23759 0
M  V30 1149 C 120.211 -1.0252 1.2388 0
M  V30 1150 O 121.401 -0.913974 1.48297 0
M  V30 1151 C 118.533 -1.69187 2.95954 0
M  V30 1152 H 119.726 0.115952 2.99676 0
M  V30 1153 H 117.279 0.0978939 1.55993 0
M  V30 1154 H 118.014 -2.34288 2.24231 0
M  V30 1155 H 117.799 -1.31989 3.69217 0
M  V30 1156 H 119.289 -2.28969 3.49232 0
M  V30 1157 N 119.726 -1.57421 0.075193 0
M  V30 1158 C 120.973 -1.93618 -0.593146 0
M  V30 1159 C 121.301 -0.955484 -1.69413 0
M  V30 1160 O 120.556 0.0283251 -1.9568 0
M  V30 1161 C 120.855 -3.36428 -1.20626 0
M  V30 1162 C 120.521 -4.50307 -0.231078 0
M  V30 1163 C 119.183 -4.81186 0.0371936 0
M  V30 1164 C 121.535 -5.19374 0.435888 0
M  V30 1165 C 118.863 -5.78466 0.979461 0
M  V30 1166 C 121.215 -6.17665 1.3665 0
M  V30 1167 C 119.879 -6.46958 1.6432 0
M  V30 1168 H 119.149 -0.708499 -0.217047 0
M  V30 1169 H 121.796 -1.90937 0.146793 0
M  V30 1170 H 120.101 -3.35592 -2.02201 0
M  V30 1171 H 121.798 -3.61727 -1.73073 0
M  V30 1172 H 118.388 -4.26227 -0.450357 0
M  V30 1173 H 122.572 -4.95711 0.241748 0
M  V30 1174 H 117.828 -5.99487 1.20106 0
M  V30 1175 H 122.002 -6.70284 1.88924 0
M  V30 1176 H 119.629 -7.2215 2.37494 0
M  V30 1177 N 121.204 0.198386 -1.56346 0
M  V30 1178 C 122.62 0.549085 -1.49857 0
M  V30 1179 C 122.82 1.86016 -0.774611 0
M  V30 1180 O 121.876 2.50416 -0.323776 0
M  V30 1181 C 123.189 0.606868 -2.94512 0
M  V30 1182 C 124.737 0.695925 -3.05165 0
M  V30 1183 C 125.212 0.784848 -4.51225 0
M  V30 1184 N 126.703 0.848463 -4.55363 0
M  V30 1185 C 127.438 0.937378 -5.65686 0
M  V30 1186 N 126.934 0.9888 -6.85707 0
M  V30 1187 N 128.727 0.974312 -5.53592 0
M  V30 1188 H 120.878 -0.661655 -2.01831 0
M  V30 1189 H 123.141 -0.235261 -0.918344 0
M  V30 1190 H 122.847 -0.28732 -3.50524 0
M  V30 1191 H 122.721 1.46268 -3.47686 0
M  V30 1192 H 125.108 1.58055 -2.49204 0
M  V30 1193 H 125.189 -0.186022 -2.55123 0
M  V30 1194 H 124.833 -0.0954072 -5.0781 0
M  V30 1195 H 124.763 1.68255 -4.98997 0
M  V30 1196 H 127.254 0.818103 -3.68938 0
M  V30 1197 H 127.567 1.05707 -7.65536 0
M  V30 1198 H 125.912 0.957534 -6.88372 0
M  V30 1199 H 129.103 0.930954 -4.58749 0
M  V30 1200 H 129.276 1.04015 -6.39597 0
M  V30 1201 N 122.682 1.50554 0.465978 0
M  V30 1202 C 123.614 1.65949 1.58093 0
M  V30 1203 C 124.627 0.540827 1.53554 0
M  V30 1204 O 125.816 0.814187 1.5885 0
M  V30 1205 C 122.916 1.63261 2.96983 0
M  V30 1206 C 122.089 2.91245 3.26336 0
M  V30 1207 C 121.148 2.8113 4.44806 0
M  V30 1208 O 120.174 3.55086 4.44862 0
M  V30 1209 N 121.376 1.95032 5.46756 0
M  V30 1210 H 124.141 2.62122 1.45301 0
M  V30 1211 H 121.702 1.48082 0.65448 0
M  V30 1212 H 123.694 1.54101 3.74212 0
M  V30 1213 H 122.264 0.748032 3.03518 0
M  V30 1214 H 121.484 3.14493 2.37672 0
M  V30 1215 H 122.772 3.76022 3.42761 0
M  V30 1216 H 122.17 1.3427 5.49534 0
M  V30 1217 H 120.727 1.91772 6.2295 0
M  V30 1218 N 124.16 -0.719506 1.40217 0
M  V30 1219 C 125.092 -1.84428 1.36084 0
M  V30 1220 C 126.105 -1.60597 0.266913 0
M  V30 1221 O 127.294 -1.70544 0.526983 0
M  V30 1222 C 124.394 -3.20757 1.094 0
M  V30 1223 C 123.567 -3.71817 2.30372 0
M  V30 1224 C 122.626 -4.86748 1.99907 0
M  V30 1225 O 121.652 -4.99603 2.72737 0
M  V30 1226 N 122.854 -5.7226 0.974635 0
M  V30 1227 H 125.619 -1.88473 2.33019 0
M  V30 1228 H 123.18 -0.900885 1.3452 0
M  V30 1229 H 125.172 -3.95235 0.870116 0
M  V30 1230 H 123.742 -3.11884 0.211452 0
M  V30 1231 H 122.962 -2.88514 2.68614 0
M  V30 1232 H 124.25 -4.02666 3.11026 0
M  V30 1233 H 123.648 -5.6448 0.371368 0
M  V30 1234 H 122.205 -6.46739 0.810656 0
M  V30 1235 N 125.638 -1.25649 -0.95132 0
M  V30 1236 C 126.885 -1.10594 -1.69633 0
M  V30 1237 C 127.213 0.352515 -1.91279 0
M  V30 1238 O 126.468 1.27601 -1.4838 0
M  V30 1239 C 126.767 -1.80909 -3.08231 0
M  V30 1240 C 126.433 -3.30825 -3.06375 0
M  V30 1241 C 125.095 -3.71722 -3.05576 0
M  V30 1242 C 127.447 -4.26589 -2.99452 0
M  V30 1243 C 124.775 -5.06788 -2.95606 0
M  V30 1244 C 127.127 -5.61683 -2.91024 0
M  V30 1245 C 125.791 -6.01904 -2.88562 0
M  V30 1246 H 125.061 -0.404691 -0.620731 0
M  V30 1247 H 127.708 -1.55964 -1.11119 0
M  V30 1248 H 126.013 -1.27979 -3.70309 0
M  V30 1249 H 127.71 -1.6671 -3.64704 0
M  V30 1250 H 124.3 -2.98287 -3.07771 0
M  V30 1251 H 128.484 -3.95982 -2.99185 0
M  V30 1252 H 123.74 -5.37126 -2.92071 0
M  V30 1253 H 127.914 -6.35578 -2.84629 0
M  V30 1254 H 125.541 -7.06521 -2.80593 0
M  V30 1255 N 127.117 1.15442 -1.07289 0
M  V30 1256 C 128.049 2.19773 -0.650585 0
M  V30 1257 C 129.062 1.60076 0.296572 0
M  V30 1258 O 130.251 1.78293 0.0859905 0
M  V30 1259 C 127.351 3.38838 0.0650398 0
M  V30 1260 C 126.524 4.2808 -0.898141 0
M  V30 1261 C 125.583 5.2574 -0.219926 0
M  V30 1262 O 124.609 5.62654 -0.860773 0
M  V30 1263 N 125.811 5.71205 1.03466 0
M  V30 1264 H 128.576 2.56622 -1.54808 0
M  V30 1265 H 126.137 1.30551 -0.957494 0
M  V30 1266 H 128.129 4.01222 0.529415 0
M  V30 1267 H 126.699 3.00409 0.864466 0
M  V30 1268 H 125.919 3.62804 -1.54165 0
M  V30 1269 H 127.207 4.84577 -1.5512 0
M  V30 1270 H 126.605 5.43325 1.57526 0
M  V30 1271 H 125.162 6.35633 1.44272 0
M  V30 1272 N 128.595 0.856903 1.32268 0
M  V30 1273 C 129.825 0.47475 2.01071 0
M  V30 1274 C 130.233 -0.933746 1.64553 0
M  V30 1275 O 129.576 -1.62114 0.863989 0
M  V30 1276 C 129.638 0.536746 3.55471 0
M  V30 1277 C 129.302 1.90453 4.15423 0
M  V30 1278 C 130.299 2.87029 4.33486 0
M  V30 1279 C 127.984 2.20229 4.51447 0
M  V30 1280 C 129.978 4.11532 4.86744 0
M  V30 1281 C 127.665 3.44984 5.0441 0
M  V30 1282 C 128.663 4.40452 5.22007 0
M  V30 1283 O 128.351 5.62998 5.73837 0
M  V30 1284 H 128.083 0.184778 0.650256 0
M  V30 1285 H 130.637 1.15615 1.69771 0
M  V30 1286 H 128.867 -0.20152 3.86175 0
M  V30 1287 H 130.556 0.169875 4.05544 0
M  V30 1288 H 131.322 2.6533 4.05986 0
M  V30 1289 H 127.201 1.46705 4.37034 0
M  V30 1290 H 130.745 4.86056 5.00395 0
M  V30 1291 H 126.642 3.66532 5.31342 0
M  V30 1292 H 127.41 5.64987 5.92226 0
M  V30 1293 N 130.073 -1.45103 0.615059 0
M  V30 1294 C 131.036 -2.29025 -0.0895485 0
M  V30 1295 C 132.036 -1.40174 -0.787906 0
M  V30 1296 O 133.226 -1.62217 -0.634933 0
M  V30 1297 C 130.358 -3.21376 -1.13711 0
M  V30 1298 H 131.551 -2.92807 0.648382 0
M  V30 1299 H 129.104 -1.51749 0.374444 0
M  V30 1300 H 129.839 -2.6241 -1.90556 0
M  V30 1301 H 129.624 -3.86834 -0.640475 0
M  V30 1302 H 131.114 -3.84459 -1.63036 0
M  V30 1303 N 131.551 -0.354651 -1.53558 0
M  V30 1304 C 132.797 0.238797 -2.01389 0
M  V30 1305 C 133.13 1.49309 -1.2418 0
M  V30 1306 O 132.405 1.91638 -0.332457 0
M  V30 1307 C 132.688 0.541771 -3.56001 0
M  V30 1308 C 132.541 -0.725388 -4.43912 0
M  V30 1309 C 133.86 1.34685 -4.18984 0
M  V30 1310 H 130.979 0.0853177 -0.732045 0
M  V30 1311 H 133.621 -0.477384 -1.83905 0
M  V30 1312 H 131.771 1.15189 -3.71031 0
M  V30 1313 H 133.443 -1.36313 -4.407 0
M  V30 1314 H 131.686 -1.34801 -4.12324 0
M  V30 1315 H 132.357 -0.468505 -5.50008 0
M  V30 1316 H 134.833 0.830837 -4.07721 0
M  V30 1317 H 133.709 1.52759 -5.27215 0
M  V30 1318 H 133.97 2.35221 -3.74331 0
M  V30 1319 N 133.029 1.57378 -0.0835403 0
M  V30 1320 C 133.939 2.16897 0.894021 0
M  V30 1321 C 134.955 1.13528 1.31861 0
M  V30 1322 O 136.131 1.45848 1.3889 0
M  V30 1323 C 133.196 2.72831 2.13925 0
M  V30 1324 C 132.257 3.91115 1.76997 0
M  V30 1325 C 131.49 4.44371 2.95584 0
M  V30 1326 O 131.713 3.96596 4.09961 0
M  V30 1327 O 130.647 5.35549 2.74719 0
M  V30 1328 H 134.473 3.00814 0.417679 0
M  V30 1329 H 132.058 1.48741 0.140181 0
M  V30 1330 H 133.94 3.0863 2.86924 0
M  V30 1331 H 132.615 1.91967 2.60635 0
M  V30 1332 H 131.522 3.60148 1.01214 0
M  V30 1333 H 132.855 4.73307 1.3506 0
M  V30 1334 N 134.507 -0.190092 1.56449 0
M  V30 1335 C 135.753 -0.911052 1.81184 0
M  V30 1336 C 136.086 -1.82699 0.658396 0
M  V30 1337 O 135.361 -1.91491 -0.340775 0
M  V30 1338 C 135.644 -1.72297 3.16205 0
M  V30 1339 C 135.497 -0.831419 4.42049 0
M  V30 1340 C 136.816 -2.69454 3.47969 0
M  V30 1341 H 133.935 -0.32977 0.659106 0
M  V30 1342 H 136.577 -0.178169 1.89163 0
M  V30 1343 H 134.727 -2.34778 3.09534 0
M  V30 1344 H 136.399 -0.220929 4.60771 0
M  V30 1345 H 134.642 -0.138406 4.33579 0
M  V30 1346 H 135.313 -1.43461 5.33032 0
M  V30 1347 H 137.789 -2.17104 3.54972 0
M  V30 1348 H 136.665 -3.23342 4.43555 0
M  V30 1349 H 136.926 -3.48744 2.71717 0
M  V30 1350 N 135.985 -1.50799 -0.457987 0
M  V30 1351 C 136.915 -1.73553 -1.5621 0
M  V30 1352 C 137.896 -0.584774 -1.59732 0
M  V30 1353 O 139.081 -0.825314 -1.7579 0
M  V30 1354 C 136.211 -1.84169 -2.94447 0
M  V30 1355 C 135.165 -2.99461 -3.0579 0
M  V30 1356 C 134.491 -2.95235 -4.45803 0
M  V30 1357 C 135.791 -4.39766 -2.81786 0
M  V30 1358 H 137.485 -2.66 -1.37421 0
M  V30 1359 H 135.031 -1.28002 -0.659662 0
M  V30 1360 H 136.984 -1.98672 -3.71628 0
M  V30 1361 H 135.708 -0.883545 -3.14422 0
M  V30 1362 H 134.367 -2.8463 -2.31044 0
M  V30 1363 H 134.015 -1.97239 -4.62715 0
M  V30 1364 H 133.715 -3.72642 -4.54326 0
M  V30 1365 H 135.239 -3.11803 -5.24987 0
M  V30 1366 H 136.653 -4.55054 -3.4871 0
M  V30 1367 H 135.05 -5.18722 -3.0174 0
M  V30 1368 H 136.12 -4.51229 -1.7754 0
M  V30 1369 N 137.463 0.71206 -1.40597 0
M  V30 1370 C 138.711 1.46907 -1.38791 0
M  V30 1371 C 139.032 1.94998 0.00780391 0
M  V30 1372 O 138.302 1.70587 0.963174 0
M  V30 1373 H 136.882 0.545043 -0.51082 0
M  V30 1374 H 139.544 0.843882 -1.75683 0
M  V30 1375 H 138.64 2.34021 -2.06496 0
M  V30 1376 N 138.941 1.26152 0.944643 0
M  V30 1377 C 139.851 1.09176 2.07648 0
M  V30 1378 C 140.867 0.0261935 1.7398 0
M  V30 1379 O 142.043 0.229208 2.00091 0
M  V30 1380 C 139.108 0.722915 3.39079 0
M  V30 1381 C 138.169 1.86752 3.86552 0
M  V30 1382 C 137.402 1.51617 5.11711 0
M  V30 1383 O 137.625 0.416331 5.68879 0
M  V30 1384 O 136.559 2.34975 5.54139 0
M  V30 1385 H 140.385 2.0412 2.24875 0
M  V30 1386 H 137.97 1.05182 1.061 0
M  V30 1387 H 139.852 0.529787 4.18056 0
M  V30 1388 H 138.527 -0.197159 3.23099 0
M  V30 1389 H 137.434 2.11558 3.08535 0
M  V30 1390 H 138.767 2.76719 4.07047 0
M  V30 1391 N 140.419 -1.14872 1.07899 0
M  V30 1392 C 141.366 -2.19791 0.704319 0
M  V30 1393 C 142.336 -1.63238 -0.306987 0
M  V30 1394 O 143.521 -1.8983 -0.192171 0
M  V30 1395 C 140.661 -3.44911 0.114244 0
M  V30 1396 C 139.774 -4.15637 1.1777 0
M  V30 1397 C 138.909 -5.28324 0.552037 0
M  V30 1398 C 137.948 -5.90875 1.59789 0
M  V30 1399 N 137.085 -6.95022 0.994404 0
M  V30 1400 H 141.925 -2.5119 1.60336 0
M  V30 1401 H 139.462 -1.23356 0.801352 0
M  V30 1402 H 141.42 -4.16477 -0.245544 0
M  V30 1403 H 140.05 -3.14011 -0.74813 0
M  V30 1404 H 139.102 -3.42512 1.65499 0
M  V30 1405 H 140.414 -4.5823 1.97046 0
M  V30 1406 H 139.568 -6.06538 0.1402 0
M  V30 1407 H 138.307 -4.86939 -0.272431 0
M  V30 1408 H 137.312 -5.11369 2.01945 0
M  V30 1409 H 138.537 -6.34337 2.42474 0
M  V30 1410 H 136.483 -6.55722 0.190939 0
M  V30 1411 H 136.4 -7.36073 1.72432 0
M  V30 1412 H 137.668 -7.77123 0.608253 0
M  V30 1413 N 141.898 -0.863906 -1.31812 0
M  V30 1414 C 143.144 -0.472535 -1.97218 0
M  V30 1415 C 143.477 0.971394 -1.68159 0
M  V30 1416 O 142.752 1.68309 -0.974798 0
M  V30 1417 C 143.035 -0.723054 -3.52766 0
M  V30 1418 C 142.888 -2.21608 -3.91421 0
M  V30 1419 C 144.207 -0.185522 -4.39709 0
M  V30 1420 H 141.326 -0.173158 -0.71637 0
M  V30 1421 H 143.968 -1.08403 -1.56041 0
M  V30 1422 H 142.118 -0.202577 -3.87971 0
M  V30 1423 H 143.79 -2.80334 -3.66347 0
M  V30 1424 H 142.033 -2.691 -3.40246 0
M  V30 1425 H 142.704 -2.34203 -4.99853 0
M  V30 1426 H 145.18 -0.630726 -4.11292 0
M  V30 1427 H 144.056 -0.390306 -5.47511 0
M  V30 1428 H 144.317 0.912229 -4.32586 0
M  V30 1429 N 143.376 1.44774 -0.622745 0
M  V30 1430 C 144.306 2.33382 0.0741861 0
M  V30 1431 C 145.287 1.47719 0.843387 0
M  V30 1432 O 146.472 1.76458 0.810934 0
M  V30 1433 C 143.602 3.30663 1.06204 0
M  V30 1434 C 142.556 4.26079 0.405037 0
M  V30 1435 C 141.882 5.13165 1.5022 0
M  V30 1436 C 143.182 5.1781 -0.683414 0
M  V30 1437 H 144.876 2.91905 -0.665713 0
M  V30 1438 H 142.422 1.40363 -0.321587 0
M  V30 1439 H 144.375 3.9153 1.55827 0
M  V30 1440 H 143.099 2.70331 1.83272 0
M  V30 1441 H 141.758 3.66532 -0.0704683 0
M  V30 1442 H 141.406 4.49191 2.26355 0
M  V30 1443 H 141.106 5.77812 1.06803 0
M  V30 1444 H 142.63 5.76902 2.00041 0
M  V30 1445 H 144.044 5.72661 -0.270631 0
M  V30 1446 H 142.441 5.91015 -1.04023 0
M  V30 1447 H 143.511 4.59326 -1.55395 0
M  V30 1448 N 144.854 0.36279 1.53368 0
M  V30 1449 C 146.079 -0.231226 2.06107 0
M  V30 1450 C 146.504 -1.419 1.23474 0
M  V30 1451 O 145.862 -1.79524 0.253128 0
M  V30 1452 C 145.91 -0.605523 3.5548 0
M  V30 1453 O 145.014 -1.70312 3.7559 0
M  V30 1454 H 144.355 -0.034327 0.663112 0
M  V30 1455 H 146.885 0.522584 1.97814 0
M  V30 1456 H 146.895 -0.877314 3.98456 0
M  V30 1457 H 145.57 0.263004 4.15068 0
M  V30 1458 H 144.147 -1.4271 3.44512 0
M  V30 1459 N 146.332 -1.57332 0.0918853 0
M  V30 1460 C 147.279 -2.13847 -0.868211 0
M  V30 1461 C 148.249 -1.05618 -1.28196 0
M  V30 1462 O 149.434 -1.33387 -1.36427 0
M  V30 1463 C 146.574 -2.72062 -2.12312 0
M  V30 1464 C 145.687 -3.94514 -1.7602 0
M  V30 1465 C 144.822 -4.40903 -2.96273 0
M  V30 1466 C 143.861 -5.55953 -2.56092 0
M  V30 1467 N 142.998 -5.97209 -3.69169 0
M  V30 1468 H 147.838 -2.95575 -0.379406 0
M  V30 1469 H 145.375 -1.46048 -0.175606 0
M  V30 1470 H 147.333 -3.03931 -2.858 0
M  V30 1471 H 145.963 -1.93068 -2.58698 0
M  V30 1472 H 145.015 -3.68979 -0.925135 0
M  V30 1473 H 146.327 -4.7802 -1.42472 0
M  V30 1474 H 145.481 -4.74539 -3.78018 0
M  V30 1475 H 144.22 -3.56291 -3.33029 0
M  V30 1476 H 143.225 -5.21948 -1.72773 0
M  V30 1477 H 144.45 -6.42311 -2.20484 0
M  V30 1478 H 142.396 -5.15543 -4.05649 0
M  V30 1479 H 142.313 -6.75504 -3.39456 0
M  V30 1480 H 143.581 -6.35475 -4.51434 0
M  V30 1481 N 147.81 0.181792 -1.56548 0
M  V30 1482 C 148.742 1.24956 -1.92142 0
M  V30 1483 C 149.755 1.41022 -0.813422 0
M  V30 1484 O 150.944 1.41212 -1.09186 0
M  V30 1485 C 148.044 2.61981 -2.14987 0
M  V30 1486 C 147.217 2.6735 -3.46183 0
M  V30 1487 C 146.276 3.85664 -3.5798 0
M  V30 1488 O 145.302 3.72148 -4.30691 0
M  V30 1489 N 146.504 5.01683 -2.92053 0
M  V30 1490 H 149.269 0.947329 -2.84334 0
M  V30 1491 H 146.83 0.371629 -1.57577 0
M  V30 1492 H 148.822 3.3958 -2.20154 0
M  V30 1493 H 147.392 2.84637 -1.2923 0
M  V30 1494 H 146.612 1.75925 -3.52766 0
M  V30 1495 H 147.9 2.67939 -4.32534 0
M  V30 1496 H 147.298 5.15564 -2.32832 0
M  V30 1497 H 145.855 5.77181 -3.0283 0
M  V30 1498 N 149.288 1.51039 0.449983 0
M  V30 1499 C 150.198 1.74261 1.57067 0
M  V30 1500 C 151.214 0.626363 1.62335 0
M  V30 1501 O 152.39 0.907162 1.79812 0
M  V30 1502 C 149.455 1.85114 2.93144 0
M  V30 1503 C 148.516 3.0893 2.98095 0
M  V30 1504 C 147.749 3.19256 4.27681 0
M  V30 1505 O 147.972 2.35835 5.19363 0
M  V30 1506 O 146.906 4.12144 4.38658 0
M  V30 1507 H 150.732 2.69303 1.40391 0
M  V30 1508 H 148.317 1.35389 0.631688 0
M  V30 1509 H 150.199 1.94311 3.73926 0
M  V30 1510 H 148.874 0.932588 3.09975 0
M  V30 1511 H 147.781 3.0522 2.16314 0
M  V30 1512 H 149.114 4.00433 2.86206 0
M  V30 1513 N 150.766 -0.704594 1.40972 0
M  V30 1514 C 151.994 -1.49354 1.43182 0
M  V30 1515 C 152.409 -1.88768 0.0345508 0
M  V30 1516 O 151.766 -1.56184 -0.944081 0
M  V30 1517 C 151.817 -2.76187 2.33244 0
M  V30 1518 O 151.538 -2.38436 3.67532 0
M  V30 1519 C 153.039 -3.7 2.44162 0
M  V30 1520 H 150.259 -0.460559 0.487982 0
M  V30 1521 H 152.803 -0.868261 1.85153 0
M  V30 1522 H 150.958 -3.34974 1.94606 0
M  V30 1523 H 151.372 -3.20126 4.15475 0
M  V30 1524 H 152.846 -4.55803 3.11364 0
M  V30 1525 H 153.323 -4.13867 1.47006 0
M  V30 1526 H 153.929 -3.17121 2.83398 0
M  V30 1527 N 152.244 -1.26651 -0.937939 0
M  V30 1528 C 153.154 -1.10276 -2.07066 0
M  V30 1529 C 154.17 -0.0354197 -1.73964 0
M  V30 1530 O 155.346 -0.239816 -1.99967 0
M  V30 1531 C 152.411 -0.740887 -3.38691 0
M  V30 1532 C 151.472 -1.88799 -3.85556 0
M  V30 1533 C 150.705 -1.54329 -5.10899 0
M  V30 1534 O 150.928 -0.446494 -5.6865 0
M  V30 1535 O 149.862 -2.37911 -5.52885 0
M  V30 1536 H 153.688 -2.05309 -2.23789 0
M  V30 1537 H 151.273 -1.05743 -1.0554 0
M  V30 1538 H 153.155 -0.55195 -4.1777 0
M  V30 1539 H 151.83 0.180022 -3.23199 0
M  V30 1540 H 150.737 -2.13191 -3.07409 0
M  V30 1541 H 152.07 -2.78874 -4.05574 0
M  V30 1542 N 153.722 1.14298 -1.08507 0
M  V30 1543 C 154.999 1.81544 -0.728088 0
M  V30 1544 C 155.379 1.95838 0.78808 0
M  V30 1545 O 154.727 1.51904 1.70697 0
M  V30 1546 C 154.937 3.17169 -1.45619 0
M  V30 1547 C 156.285 3.9265 -1.61591 0
M  V30 1548 O 157.309 3.26762 -1.41793 0
M  V30 1549 O 156.168 5.10807 -1.94263 0
M  V30 1550 H 153.262 0.78491 -0.260471 0
M  V30 1551 H 155.808 1.21307 -1.18671 0
M  V30 1552 H 154.58 3.01934 -2.489 0
M  V30 1553 H 154.203 3.851 -0.989124 0
M  V30 1554 N 155.201 0.870884 1.31352 0
M  V30 1555 C 156.426 0.495957 2.01383 0
M  V30 1556 C 156.851 -0.904324 1.64935 0
M  V30 1557 O 156.209 -1.59687 0.858466 0
M  V30 1558 C 156.257 0.661433 3.54482 0
M  V30 1559 O 155.361 -0.298851 4.11316 0
M  V30 1560 H 154.702 0.197158 0.634054 0
M  V30 1561 H 157.232 1.17455 1.67527 0
M  V30 1562 H 157.242 0.555072 4.04207 0
M  V30 1563 H 155.917 1.68246 3.8035 0
M  V30 1564 H 154.494 -0.147368 3.72609 0
M  V30 1565 N 156.679 -1.44442 0.630414 0
M  V30 1566 C 158.095 -1.56832 0.295973 0
M  V30 1567 C 158.295 -1.61806 -1.20088 0
M  V30 1568 O 157.351 -1.5607 -1.9849 0
M  V30 1569 C 158.664 -2.84031 0.987264 0
M  V30 1570 C 160.212 -2.97742 0.96534 0
M  V30 1571 C 160.687 -4.27743 1.63708 0
M  V30 1572 N 162.178 -4.34555 1.60364 0
M  V30 1573 C 162.913 -5.33862 2.09234 0
M  V30 1574 N 162.409 -6.39578 2.66292 0
M  V30 1575 N 164.202 -5.25366 1.99867 0
M  V30 1576 H 156.353 -1.39457 1.60205 0
M  V30 1577 H 158.616 -0.668237 0.672431 0
M  V30 1578 H 158.322 -2.86338 2.04215 0
M  V30 1579 H 158.196 -3.73534 0.524588 0
M  V30 1580 H 160.583 -2.94989 -0.0810639 0
M  V30 1581 H 160.664 -2.09589 1.4665 0
M  V30 1582 H 160.308 -4.31255 2.68293 0
M  V30 1583 H 160.238 -5.14752 1.11076 0
M  V30 1584 H 162.729 -3.58772 1.18705 0
M  V30 1585 H 163.042 -7.11637 3.01317 0
M  V30 1586 H 161.387 -6.40265 2.70343 0
M  V30 1587 H 164.578 -4.41688 1.55013 0
M  V30 1588 H 164.751 -6.02606 2.38265 0
M  V30 1589 N 158.157 -0.370918 -1.53173 0
M  V30 1590 C 159.405 0.216673 -2.00935 0
M  V30 1591 C 159.726 1.48845 -1.25977 0
M  V30 1592 O 158.996 1.92286 -0.374551 0
M  V30 1593 H 157.576 0.0830565 -0.742368 0
M  V30 1594 H 160.238 -0.49838 -1.8842 0
M  V30 1595 H 159.334 0.439893 -3.08984 0
M  V30 1596 N 159.635 1.57281 -0.100228 0
M  V30 1597 C 161.051 1.57527 0.256416 0
M  V30 1598 C 161.251 1.11173 1.68056 0
M  V30 1599 O 160.307 0.79053 2.39806 0
M  V30 1600 C 161.62 3.00673 0.0401747 0
M  V30 1601 C 163.168 3.12815 0.107528 0
M  V30 1602 C 163.643 4.57929 -0.0807834 0
M  V30 1603 N 165.134 4.63193 -0.0261207 0
M  V30 1604 C 165.869 5.73212 -0.146999 0
M  V30 1605 N 165.365 6.92047 -0.322999 0
M  V30 1606 N 167.158 5.62031 -0.0879044 0
M  V30 1607 H 159.309 1.85718 -1.03065 0
M  V30 1608 H 161.572 0.857446 -0.404339 0
M  V30 1609 H 161.278 3.38804 -0.943649 0
M  V30 1610 H 161.152 3.69042 0.780262 0
M  V30 1611 H 163.539 2.74554 1.08186 0
M  V30 1612 H 163.62 2.47028 -0.664134 0
M  V30 1613 H 163.264 4.96886 -1.05201 0
M  V30 1614 H 163.194 5.21783 0.710635 0
M  V30 1615 H 165.685 3.77748 0.107161 0
M  V30 1616 H 165.998 7.7173 -0.406608 0
M  V30 1617 H 164.343 6.94074 -0.358733 0
M  V30 1618 H 167.534 4.68075 0.048498 0
M  V30 1619 H 167.707 6.47734 -0.185557 0
M  V30 1620 N 161.113 -0.173488 1.56642 0
M  V30 1621 C 162.06 -1.21482 1.96242 0
M  V30 1622 C 163.03 -1.44104 0.826027 0
M  V30 1623 O 164.215 -1.5688 1.08597 0
M  V30 1624 C 161.355 -2.54964 2.32567 0
M  V30 1625 C 160.468 -2.39739 3.59373 0
M  V30 1626 C 159.603 -3.66072 3.84921 0
M  V30 1627 C 158.642 -3.45771 5.05083 0
M  V30 1628 N 157.779 -4.64169 5.26775 0
M  V30 1629 H 162.619 -0.870123 2.85014 0
M  V30 1630 H 160.156 -0.418245 1.41029 0
M  V30 1631 H 162.114 -3.32758 2.5165 0
M  V30 1632 H 160.744 -2.87433 1.46908 0
M  V30 1633 H 159.796 -1.53131 3.48217 0
M  V30 1634 H 161.108 -2.20683 4.47326 0
M  V30 1635 H 160.262 -4.52303 4.0436 0
M  V30 1636 H 159.001 -3.88105 2.9534 0
M  V30 1637 H 158.006 -2.57927 4.85545 0
M  V30 1638 H 159.231 -3.25163 5.96193 0
M  V30 1639 H 157.177 -4.86425 4.40144 0
M  V30 1640 H 157.094 -4.48019 6.08946 0
M  V30 1641 H 158.362 -5.51689 5.5069 0
M  V30 1642 N 162.591 -1.51276 -0.441967 0
M  V30 1643 C 163.538 -1.72256 -1.53612 0
M  V30 1644 C 164.508 -0.564164 -1.56225 0
M  V30 1645 O 165.693 -0.798074 -1.73307 0
M  V30 1646 C 162.833 -1.84932 -2.91366 0
M  V30 1647 C 161.946 -3.12459 -2.98317 0
M  V30 1648 C 161.081 -3.15758 -4.27166 0
M  V30 1649 C 160.12 -4.37619 -4.27967 0
M  V30 1650 N 159.257 -4.38493 -5.48333 0
M  V30 1651 H 164.097 -2.65654 -1.35026 0
M  V30 1652 H 161.634 -1.31662 -0.656009 0
M  V30 1653 H 163.592 -1.90263 -3.7129 0
M  V30 1654 H 162.222 -0.949461 -3.08521 0
M  V30 1655 H 161.274 -3.1646 -2.11086 0
M  V30 1656 H 162.586 -4.02382 -2.94771 0
M  V30 1657 H 161.74 -3.19979 -5.15459 0
M  V30 1658 H 160.479 -2.23715 -4.33362 0
M  V30 1659 H 159.484 -4.33579 -3.38067 0
M  V30 1660 H 160.709 -5.30921 -4.23438 0
M  V30 1661 H 158.655 -3.49318 -5.55259 0
M  V30 1662 H 158.572 -5.22219 -5.46647 0
M  V30 1663 H 159.84 -4.469 -6.38671 0
M  V30 1664 N 164.069 0.697108 -1.41344 0
M  V30 1665 C 165.315 1.45796 -1.41828 0
M  V30 1666 C 165.67 1.92382 -0.0261743 0
M  V30 1667 O 164.963 1.66522 0.947688 0
M  V30 1668 C 165.157 2.68553 -2.35826 0
M  V30 1669 C 164.986 2.33975 -3.84039 0
M  V30 1670 C 163.756 2.24414 -4.52732 0
M  V30 1671 C 165.954 1.97048 -4.75054 0
M  V30 1672 N 163.936 1.82705 -5.86082 0
M  V30 1673 C 165.307 1.66086 -5.9734 0
M  V30 1674 C 167.362 1.83845 -4.62715 0
M  V30 1675 C 166.065 1.23246 -7.08663 0
M  V30 1676 C 168.091 1.4241 -5.73998 0
M  V30 1677 C 167.453 1.12357 -6.95381 0
M  V30 1678 H 163.552 0.530859 -0.574206 0
M  V30 1679 H 166.136 0.806674 -1.77203 0
M  V30 1680 H 164.307 3.31404 -2.02549 0
M  V30 1681 H 166.039 3.35015 -2.2704 0
M  V30 1682 H 162.794 2.4276 -4.0665 0
M  V30 1683 H 163.218 1.64337 -6.56751 0
M  V30 1684 H 167.86 2.05734 -3.69369 0
M  V30 1685 H 165.578 1.00102 -8.01876 0
M  V30 1686 H 169.164 1.32746 -5.66454 0
M  V30 1687 H 168.044 0.807795 -7.80028 0
M  V30 1688 N 165.547 1.27147 0.931209 0
M  V30 1689 C 166.457 1.11372 2.06478 0
M  V30 1690 C 167.473 0.044645 1.73943 0
M  V30 1691 O 168.649 0.250417 1.99837 0
M  V30 1692 C 165.714 0.758838 3.38294 0
M  V30 1693 C 164.775 1.90841 3.84549 0
M  V30 1694 C 164.008 1.57036 5.10074 0
M  V30 1695 O 164.231 0.476645 5.68405 0
M  V30 1696 O 163.165 2.40839 5.51616 0
M  V30 1697 H 166.991 2.06493 2.22698 0
M  V30 1698 H 164.576 1.06301 1.04978 0
M  V30 1699 H 166.458 0.574098 4.17471 0
M  V30 1700 H 165.133 -0.162879 3.2329 0
M  V30 1701 H 164.04 2.14819 3.06274 0
M  V30 1702 H 165.373 2.81021 4.04089 0
M  V30 1703 N 167.025 -1.13721 1.09112 0
M  V30 1704 C 168.255 -1.88499 0.845671 0
M  V30 1705 C 168.663 -1.79218 -0.606432 0
M  V30 1706 O 168.006 -1.1544 -1.42896 0
M  V30 1707 C 168.068 -3.38954 1.19793 0
M  V30 1708 C 167.732 -3.72018 2.65428 0
M  V30 1709 C 168.729 -3.7153 3.63677 0
M  V30 1710 C 166.414 -4.01775 3.01467 0
M  V30 1711 C 168.408 -4.00336 4.95994 0
M  V30 1712 C 166.095 -4.30243 4.33975 0
M  V30 1713 C 167.093 -4.29508 5.31048 0
M  V30 1714 O 166.781 -4.5728 6.61173 0
M  V30 1715 H 166.513 -0.603702 0.304171 0
M  V30 1716 H 169.067 -1.44903 1.45576 0
M  V30 1717 H 167.297 -3.83039 0.530871 0
M  V30 1718 H 168.986 -3.95052 0.932146 0
M  V30 1719 H 169.752 -3.4862 3.37179 0
M  V30 1720 H 165.631 -4.01496 2.26544 0
M  V30 1721 H 169.175 -3.99678 5.71755 0
M  V30 1722 H 165.072 -4.52625 4.60219 0
M  V30 1723 H 165.84 -4.74964 6.66597 0
M  V30 1724 N 168.503 -0.877838 -1.30888 0
M  V30 1725 C 169.413 -0.343096 -2.32078 0
M  V30 1726 C 170.429 0.551022 -1.65045 0
M  V30 1727 O 171.605 0.445854 -1.96403 0
M  V30 1728 C 168.67 0.439905 -3.43898 0
M  V30 1729 C 167.731 -0.483111 -4.26573 0
M  V30 1730 C 166.964 0.262616 -5.33053 0
M  V30 1731 O 167.187 1.48967 -5.50604 0
M  V30 1732 O 166.121 -0.383593 -6.00676 0
M  V30 1733 H 169.947 -1.18203 -2.79753 0
M  V30 1734 H 167.532 -0.64145 -1.34929 0
M  V30 1735 H 169.414 0.883504 -4.12034 0
M  V30 1736 H 168.089 1.25526 -2.98371 0
M  V30 1737 H 166.996 -0.975374 -3.61161 0
M  V30 1738 H 168.329 -1.26427 -4.75686 0
M  V30 1739 N 169.982 1.44106 -0.638065 0
M  V30 1740 C 171.21 2.06336 -0.152615 0
M  V30 1741 C 171.625 1.47731 1.17563 0
M  V30 1742 O 170.982 0.602806 1.72257 0
M  V30 1743 C 171.033 3.61479 -0.0391491 0
M  V30 1744 O 170.754 4.17903 -1.31487 0
M  V30 1745 C 172.255 4.40757 0.474176 0
M  V30 1746 H 169.475 0.665862 -0.0828776 0
M  V30 1747 H 172.019 1.84862 -0.87443 0
M  V30 1748 H 170.174 3.82191 0.633142 0
M  V30 1749 H 170.588 5.11416 -1.16421 0
M  V30 1750 H 172.062 5.49707 0.502562 0
M  V30 1751 H 172.539 4.12697 1.50258 0
M  V30 1752 H 173.145 4.24979 -0.165102 0
M  V30 1753 N 171.46 0.379036 1.52974 0
M  V30 1754 C 172.737 -0.263479 1.93817 0
M  V30 1755 C 173.117 -1.65244 1.31368 0
M  V30 1756 O 172.465 -2.23448 0.477856 0
M  V30 1757 C 172.675 -0.300166 3.47707 0
M  V30 1758 C 174.023 -0.534061 4.21228 0
M  V30 1759 O 175.047 -0.38081 3.54159 0
M  V30 1760 O 173.906 -0.833501 5.40106 0
M  V30 1761 H 171 -0.161149 0.811147 0
M  V30 1762 H 173.546 0.432798 1.64088 0
M  V30 1763 H 172.318 0.673138 3.85467 0
M  V30 1764 H 171.941 -1.04179 3.83709 0
M  V30 1765 N 172.938 -1.57226 0.108567 0
M  V30 1766 C 174.349 -1.8195 -0.418464 0
M  V30 1767 C 174.7 -1.02508 -1.67292 0
M  V30 1768 O 173.825 -0.258496 -2.14851 0
M  V30 1769 C 174.42 -3.30028 -0.765979 0
M  V30 1770 C 172.979 -3.55469 -1.23769 0
M  V30 1771 C 172.126 -2.7625 -0.241106 0
M  V30 1772 H 175.077 -1.55149 0.33384 0
M  V30 1773 H 175.098 -3.44086 -1.62434 0
M  V30 1774 H 174.61 -3.87821 0.147219 0
M  V30 1775 H 172.711 -3.03022 -2.16814 0
M  V30 1776 H 172.824 -4.6408 -1.19022 0
M  V30 1777 H 171.188 -2.44133 -0.72602 0
M  V30 1778 H 171.971 -3.36797 0.665007 0
M  V30 1779 N 174.416 0.165178 -1.56732 0
M  V30 1780 C 175.641 0.900253 -1.86843 0
M  V30 1781 C 176.066 1.74766 -0.695596 0
M  V30 1782 O 175.424 1.77786 0.35522 0
M  V30 1783 C 175.472 1.74777 -3.15413 0
M  V30 1784 O 174.576 2.85007 -2.98068 0
M  V30 1785 H 173.917 0.251832 -0.614391 0
M  V30 1786 H 176.447 0.161468 -2.03962 0
M  V30 1787 H 176.457 2.14646 -3.46974 0
M  V30 1788 H 175.132 1.12537 -4.00385 0
M  V30 1789 H 173.709 2.48676 -2.77875 0
M  V30 1790 N 175.894 1.51508 0.433938 0
M  V30 1791 C 177.14 1.64588 1.18484 0
M  V30 1792 C 177.473 0.362666 1.90784 0
M  V30 1793 O 176.748 -0.637892 1.83742 0
M  V30 1794 C 177.031 2.85149 2.19913 0
M  V30 1795 C 176.884 4.23456 1.51674 0
M  V30 1796 C 178.203 3.01227 3.20858 0
M  V30 1797 H 175.322 0.598994 0.429389 0
M  V30 1798 H 177.964 1.84002 0.473647 0
M  V30 1799 H 176.114 2.68729 2.80566 0
M  V30 1800 H 177.786 4.51552 0.943322 0
M  V30 1801 H 176.029 4.25998 0.819035 0
M  V30 1802 H 176.7 5.03812 2.2556 0
M  V30 1803 H 179.176 3.16382 2.70263 0
M  V30 1804 H 178.052 3.87141 3.89118 0
M  V30 1805 H 178.313 2.13447 3.8716 0
M  V30 1806 N 177.372 -0.689602 1.41712 0
M  V30 1807 C 178.6 -1.47827 1.44758 0
M  V30 1808 C 179.015 -1.88721 0.0545703 0
M  V30 1809 O 178.372 -1.57176 -0.927463 0
M  V30 1810 C 178.423 -2.73698 2.3616 0
M  V30 1811 O 178.144 -2.34524 3.7004 0
M  V30 1812 C 179.645 -3.67389 2.48072 0
M  V30 1813 H 176.865 -0.455357 0.49284 0
M  V30 1814 H 179.409 -0.848574 1.86063 0
M  V30 1815 H 177.564 -3.32891 1.98148 0
M  V30 1816 H 177.978 -3.15701 4.18847 0
M  V30 1817 H 179.452 -4.52475 3.16181 0
M  V30 1818 H 179.929 -4.12284 1.51388 0
M  V30 1819 H 180.535 -3.14097 2.86746 0
M  V30 1820 N 178.85 -1.27639 -0.924453 0
M  V30 1821 C 179.797 -1.10644 -2.0255 0
M  V30 1822 C 180.767 -0.00658438 -1.66099 0
M  V30 1823 O 181.952 -0.16952 -1.90045 0
M  V30 1824 C 179.092 -0.76309 -3.36557 0
M  V30 1825 C 178.205 -1.94091 -3.85944 0
M  V30 1826 C 177.34 -1.53914 -5.08413 0
M  V30 1827 C 176.379 -2.68425 -5.50104 0
M  V30 1828 N 175.516 -2.28815 -6.63768 0
M  V30 1829 H 180.356 -2.04858 -2.16419 0
M  V30 1830 H 177.893 -1.01974 -1.06017 0
M  V30 1831 H 179.851 -0.544822 -4.13627 0
M  V30 1832 H 178.481 0.142102 -3.22487 0
M  V30 1833 H 177.533 -2.27162 -3.05125 0
M  V30 1834 H 178.845 -2.7998 -4.12811 0
M  V30 1835 H 177.999 -1.28231 -5.92994 0
M  V30 1836 H 176.738 -0.651391 -4.8333 0
M  V30 1837 H 175.743 -2.94819 -4.64071 0
M  V30 1838 H 176.968 -3.57826 -5.7718 0
M  V30 1839 H 174.914 -1.42495 -6.40337 0
M  V30 1840 H 174.831 -3.08242 -6.90306 0
M  V30 1841 H 176.099 -2.06387 -7.51681 0
M  V30 1842 N 180.328 1.1314 -1.09713 0
M  V30 1843 C 181.261 2.17735 -0.683137 0
M  V30 1844 C 182.239 1.59582 0.311841 0
M  V30 1845 O 183.423 1.87298 0.212514 0
M  V30 1846 C 180.55 3.38699 -0.00684324 0
M  V30 1847 C 179.596 4.1546 -0.964102 0
M  V30 1848 S 180.429 4.74733 -2.47767 0
M  V30 1849 C 181.585 5.9904 -1.81387 0
M  V30 1850 H 181.818 2.52515 -1.56918 0
M  V30 1851 H 179.351 1.24484 -0.913404 0
M  V30 1852 H 181.309 4.08765 0.377044 0
M  V30 1853 H 179.97 3.02214 0.85589 0
M  V30 1854 H 179.163 5.02093 -0.43803 0
M  V30 1855 H 178.765 3.51066 -1.28953 0
M  V30 1856 H 181.057 6.67846 -1.13967 0
M  V30 1857 H 182 6.56261 -2.65947 0
M  V30 1858 H 182.408 5.4976 -1.28155 0
M  V30 1859 N 181.806 0.884767 1.30421 0
M  V30 1860 C 183.052 0.503851 1.96441 0
M  V30 1861 C 183.385 -0.944518 1.69684 0
M  V30 1862 O 182.66 -1.66737 1.00145 0
M  V30 1863 C 182.943 0.779085 3.51571 0
M  V30 1864 C 182.796 2.27807 3.87846 0
M  V30 1865 C 184.115 0.255452 4.39358 0
M  V30 1866 H 181.234 0.184533 0.713524 0
M  V30 1867 H 183.876 1.10872 1.54297 0
M  V30 1868 H 182.026 0.264274 3.876 0
M  V30 1869 H 183.698 2.86127 3.61841 0
M  V30 1870 H 181.941 2.74479 3.35922 0
M  V30 1871 H 182.612 2.42125 4.96064 0
M  V30 1872 H 185.088 0.696079 4.10236 0
M  V30 1873 H 183.964 0.477361 5.4682 0
M  V30 1874 H 184.225 -0.843293 4.33983 0
M  V30 1875 N 183.284 -1.43765 0.645699 0
M  V30 1876 C 184.7 -1.56509 0.312591 0
M  V30 1877 C 184.9 -1.6307 -1.18365 0
M  V30 1878 O 183.956 -1.58167 -1.96824 0
M  V30 1879 C 185.269 -2.82968 1.01733 0
M  V30 1880 C 186.817 -2.96701 0.996865 0
M  V30 1881 C 187.292 -4.25982 1.68236 0
M  V30 1882 N 188.783 -4.32829 1.64964 0
M  V30 1883 C 189.518 -5.31613 2.14885 0
M  V30 1884 N 189.014 -6.36718 2.73061 0
M  V30 1885 N 190.807 -5.23217 2.05428 0
M  V30 1886 H 182.958 -1.3775 1.61675 0
M  V30 1887 H 185.221 -0.661067 0.679481 0
M  V30 1888 H 184.927 -2.84156 2.0724 0
M  V30 1889 H 184.801 -3.72957 0.564177 0
M  V30 1890 H 187.188 -2.95058 -0.0497719 0
M  V30 1891 H 187.269 -2.08022 1.48865 0
M  V30 1892 H 186.913 -4.28386 2.72852 0
M  V30 1893 H 186.843 -5.13545 1.16529 0
M  V30 1894 H 189.334 -3.57493 1.22503 0
M  V30 1895 H 189.647 -7.08401 3.08848 0
M  V30 1896 H 187.992 -6.37362 2.77118 0
M  V30 1897 H 191.183 -4.40019 1.59689 0
M  V30 1898 H 191.356 -6.00045 2.44643 0
M  V30 1899 N 184.763 -0.387143 -1.52771 0
M  V30 1900 C 185.726 0.436939 -2.24997 0
M  V30 1901 C 186.726 0.991991 -1.26555 0
M  V30 1902 O 187.916 0.874335 -1.50669 0
M  V30 1903 C 185.048 1.61281 -3.00335 0
M  V30 1904 H 186.241 -0.195365 -2.99263 0
M  V30 1905 H 183.794 -0.139218 -1.55679 0
M  V30 1906 H 184.529 2.2826 -2.30364 0
M  V30 1907 H 184.314 1.22154 -3.72587 0
M  V30 1908 H 185.804 2.19629 -3.5518 0
M  V30 1909 N 186.241 1.57166 -0.116904 0
M  V30 1910 C 187.466 1.999 0.55271 0
M  V30 1911 C 187.891 0.996039 1.59564 0
M  V30 1912 O 187.249 -0.032556 1.81271 0
M  V30 1913 C 187.297 3.4152 1.15742 0
M  V30 1914 O 186.401 3.44106 2.27299 0
M  V30 1915 H 185.742 0.649447 0.138258 0
M  V30 1916 H 188.272 2.03573 -0.204759 0
M  V30 1917 H 188.282 3.79684 1.49346 0
M  V30 1918 H 186.957 4.14034 0.393493 0
M  V30 1919 H 185.534 3.17759 1.9515 0
M  V30 1920 N 187.719 -0.156864 1.56817 0
M  V30 1921 C 188.682 -1.17781 1.96622 0
M  V30 1922 C 189.682 -1.36401 0.851555 0
M  V30 1923 O 190.872 -1.33561 1.11836 0
M  V30 1924 C 188.004 -2.54008 2.27361 0
M  V30 1925 H 189.197 -0.836564 2.87996 0
M  V30 1926 H 186.75 -0.39985 1.51099 0
M  V30 1927 H 187.485 -2.9312 1.38748 0
M  V30 1928 H 187.27 -2.41856 3.08623 0
M  V30 1929 H 188.76 -3.27558 2.59029 0
M  V30 1930 N 189.197 -1.51736 -0.425897 0
M  V30 1931 C 190.422 -1.69082 -1.20108 0
M  V30 1932 C 190.847 -0.392398 -1.83962 0
M  V30 1933 O 190.205 0.64858 -1.69302 0
M  V30 1934 C 190.253 -2.81604 -2.25237 0
M  V30 1935 O 189.357 -2.46004 -3.30992 0
M  V30 1936 H 188.698 -0.563408 -0.35138 0
M  V30 1937 H 191.228 -1.98358 -0.501512 0
M  V30 1938 H 191.238 -3.06025 -2.69838 0
M  V30 1939 H 189.913 -3.75817 -1.78142 0
M  V30 1940 H 188.49 -2.32195 -2.91787 0
M  V30 1941 N 190.675 0.682077 -1.42076 0
M  V30 1942 C 191.922 1.44215 -1.42156 0
M  V30 1943 C 192.25 1.94468 -0.0354186 0
M  V30 1944 O 191.505 1.70816 0.955002 0
M  V30 1945 C 191.804 2.66036 -2.38662 0
M  V30 1946 C 191.47 2.34366 -3.85206 0
M  V30 1947 C 190.132 2.25439 -4.25124 0
M  V30 1948 C 192.484 2.08513 -4.77673 0
M  V30 1949 C 189.812 1.88775 -5.55501 0
M  V30 1950 C 192.164 1.73354 -6.08384 0
M  V30 1951 C 190.828 1.62933 -6.47309 0
M  V30 1952 H 190.098 0.527718 -0.520187 0
M  V30 1953 H 192.745 0.778387 -1.74967 0
M  V30 1954 H 191.05 3.3741 -1.99152 0
M  V30 1955 H 192.747 3.24205 -2.35991 0
M  V30 1956 H 189.337 2.42213 -3.53597 0
M  V30 1957 H 193.521 2.14346 -4.47626 0
M  V30 1958 H 188.777 1.7927 -5.84527 0
M  V30 1959 H 192.951 1.52373 -6.79526 0
M  V30 1960 H 190.578 1.34292 -7.48244 0
M  V30 1961 N 192.153 1.28127 0.917671 0
M  V30 1962 C 193.085 1.07517 2.02417 0
M  V30 1963 C 194.098 0.0281099 1.62776 0
M  V30 1964 O 195.287 0.270748 1.76435 0
M  V30 1965 C 192.387 0.610957 3.33347 0
M  V30 1966 C 191.56 1.73255 4.01624 0
M  V30 1967 C 190.619 1.26238 5.10833 0
M  V30 1968 O 189.645 1.96389 5.34247 0
M  V30 1969 N 190.847 0.123448 5.80369 0
M  V30 1970 H 193.612 2.02806 2.20658 0
M  V30 1971 H 191.173 1.19827 1.08871 0
M  V30 1972 H 193.165 0.280101 4.0373 0
M  V30 1973 H 191.735 -0.24898 3.11607 0
M  V30 1974 H 190.955 2.23319 3.24842 0
M  V30 1975 H 192.243 2.48503 4.43986 0
M  V30 1976 H 191.641 -0.461847 5.63812 0
M  V30 1977 H 190.198 -0.148158 6.51632 0
M  V30 1978 N 193.631 -1.12557 1.10312 0
M  V30 1979 C 194.908 -1.80363 0.756878 0
M  V30 1980 C 195.288 -1.97067 -0.756824 0
M  V30 1981 O 194.636 -1.54601 -1.68259 0
M  V30 1982 C 194.846 -3.14812 1.50647 0
M  V30 1983 C 196.194 -3.90029 1.67817 0
M  V30 1984 O 197.218 -3.24464 1.46974 0
M  V30 1985 O 196.077 -5.07652 2.02365 0
M  V30 1986 H 193.171 -0.780667 0.272926 0
M  V30 1987 H 195.717 -1.19404 1.20586 0
M  V30 1988 H 194.489 -2.97936 2.53672 0
M  V30 1989 H 194.112 -3.83478 1.05026 0
M  V30 1990 N 195.109 -0.891671 -1.2995 0
M  V30 1991 C 196.039 -0.379797 -2.30391 0
M  V30 1992 C 197.02 0.540919 -1.6127 0
M  V30 1993 O 198.205 0.453352 -1.88834 0
M  V30 1994 C 195.335 0.400654 -3.44981 0
M  V30 1995 C 194.289 -0.428905 -4.25846 0
M  V30 1996 C 193.615 0.478557 -5.32554 0
M  V30 1997 C 194.915 -1.67458 -4.94727 0
M  V30 1998 H 196.609 -1.21914 -2.73454 0
M  V30 1999 H 194.155 -0.587675 -1.31462 0
M  V30 2000 H 196.108 0.769434 -4.14316 0
M  V30 2001 H 194.832 1.27371 -3.0074 0
M  V30 2002 H 193.491 -0.779911 -3.58208 0
M  V30 2003 H 193.139 1.34951 -4.84559 0
M  V30 2004 H 192.839 -0.0727433 -5.87555 0
M  V30 2005 H 194.363 0.843705 -6.04743 0
M  V30 2006 H 195.777 -1.376 -5.56542 0
M  V30 2007 H 194.174 -2.16659 -5.59624 0
M  V30 2008 H 195.244 -2.41518 -4.20473 0
M  V30 2009 N 196.587 1.43421 -0.653314 0
M  V30 2010 C 197.835 2.01414 -0.166415 0
M  V30 2011 C 198.156 1.51803 1.22397 0
M  V30 2012 O 197.426 0.730693 1.81763 0
M  V30 2013 H 196.006 0.744703 -0.0585319 0
M  V30 2014 H 198.668 1.75629 -0.845003 0
M  V30 2015 H 197.764 3.11734 -0.151111 0
M  V30 2016 N 198.065 0.39524 1.52563 0
M  V30 2017 C 198.975 -0.444232 2.30356 0
M  V30 2018 C 199.991 -1.06615 1.37511 0
M  V30 2019 O 201.167 -1.07067 1.70583 0
M  V30 2020 C 198.232 -1.55315 3.09964 0
M  V30 2021 C 197.293 -0.955734 4.18526 0
M  V30 2022 C 196.526 -2.01181 4.9433 0
M  V30 2023 O 196.749 -3.22781 4.70285 0
M  V30 2024 O 195.683 -1.62579 5.79527 0
M  V30 2025 H 199.509 0.189667 3.03107 0
M  V30 2026 H 197.094 0.1588 1.48554 0
M  V30 2027 H 198.976 -2.19724 3.59582 0
M  V30 2028 H 197.651 -2.17191 2.4002 0
M  V30 2029 H 196.558 -0.274743 3.7309 0
M  V30 2030 H 197.891 -0.381109 4.90722 0
M  V30 2031 N 199.544 -1.57102 0.125237 0
M  V30 2032 C 200.821 -1.86953 -0.575142 0
M  V30 2033 C 201.201 -1.02749 -1.84407 0
M  V30 2034 O 200.549 -0.108144 -2.28244 0
M  V30 2035 C 200.759 -3.38198 -0.861583 0
M  V30 2036 C 202.107 -4.06937 -1.21192 0
M  V30 2037 O 203.131 -3.43252 -0.951645 0
M  V30 2038 O 201.99 -5.19364 -1.70068 0
M  V30 2039 H 199.084 -0.774147 -0.290906 0
M  V30 2040 H 201.63 -1.68942 0.160211 0
M  V30 2041 H 200.402 -3.91282 0.0373647 0
M  V30 2042 H 200.025 -3.61661 -1.65188 0
M  V30 2043 N 201.022 0.148545 -1.56898 0
M  V30 2044 C 202.27 0.859717 -1.82902 0
M  V30 2045 C 202.591 1.81775 -0.70588 0
M  V30 2046 O 201.861 1.93994 0.272586 0
M  V30 2047 H 200.441 0.320469 -0.674766 0
M  V30 2048 H 203.103 0.142918 -1.94375 0
M  V30 2049 H 202.199 1.4229 -2.77777 0
M  V30 2050 N 202.5 1.5196 0.417844 0
M  V30 2051 C 203.41 1.77554 1.53336 0
M  V30 2052 C 204.426 0.660655 1.6097 0
M  V30 2053 O 205.602 0.945099 1.77848 0
M  V30 2054 C 202.667 1.91291 2.89152 0
M  V30 2055 C 201.728 3.15183 2.91475 0
M  V30 2056 C 200.961 3.28256 4.20813 0
M  V30 2057 O 201.184 2.46798 5.14244 0
M  V30 2058 O 200.118 4.21356 4.29817 0
M  V30 2059 H 203.944 2.7222 1.34647 0
M  V30 2060 H 201.529 1.36698 0.602828 0
M  V30 2061 H 203.411 2.02199 3.69721 0
M  V30 2062 H 202.086 0.998129 3.07927 0
M  V30 2063 H 200.993 3.09739 2.09791 0
M  V30 2064 H 202.326 4.06414 2.77648 0
M  V30 2065 N 203.978 -0.674533 1.42435 0
M  V30 2066 C 205.227 -1.43034 1.42212 0
M  V30 2067 C 205.54 -1.95555 0.0420788 0
M  V30 2068 O 206.746 -2.71374 -0.0827558 0
M  V30 2069 C 205.202 -2.58748 2.50155 0
M  V30 2070 C 204.81 -2.12925 3.94166 0
M  V30 2071 C 206.554 -3.36257 2.59098 0
M  V30 2072 C 204.461 -3.25723 4.93618 0
M  V30 2073 H 203.391 -0.537345 0.528939 0
M  V30 2074 H 206.042 -0.73024 1.68344 0
M  V30 2075 H 204.424 -3.31128 2.17188 0
M  V30 2076 H 205.598 -1.47697 4.36488 0
M  V30 2077 H 203.913 -1.48354 3.89076 0
M  V30 2078 H 206.51 -4.20264 3.30578 0
M  V30 2079 H 206.853 -3.82866 1.63461 0
M  V30 2080 H 207.386 -2.70947 2.9126 0
M  V30 2081 H 204.125 -2.84105 5.90732 0
M  V30 2082 H 203.645 -3.89732 4.55926 0
M  V30 2083 H 205.324 -3.91186 5.15347 0
M  V30 2084 N 205.456 -1.28612 -0.910864 0
M  V30 2085 C 206.403 -1.12786 -2.01365 0
M  V30 2086 C 207.373 -0.024201 -1.66082 0
M  V30 2087 O 208.558 -0.189667 -1.89855 0
M  V30 2088 C 205.698 -0.798743 -3.35729 0
M  V30 2089 C 204.811 -1.98173 -3.83864 0
M  V30 2090 C 203.946 -1.59298 -5.06752 0
M  V30 2091 C 202.985 -2.74245 -5.47226 0
M  V30 2092 N 202.122 -2.35842 -6.61304 0
M  V30 2093 H 206.962 -2.07142 -2.14234 0
M  V30 2094 H 204.499 -1.03093 -1.0493 0
M  V30 2095 H 206.457 -0.588662 -4.13026 0
M  V30 2096 H 205.087 0.10789 -3.2262 0
M  V30 2097 H 204.139 -2.30386 -3.02699 0
M  V30 2098 H 205.451 -2.84343 -4.09818 0
M  V30 2099 H 204.605 -1.34513 -5.916 0
M  V30 2100 H 203.344 -0.702618 -4.82612 0
M  V30 2101 H 202.349 -2.99725 -4.60918 0
M  V30 2102 H 203.574 -3.63928 -5.73353 0
M  V30 2103 H 201.52 -1.49279 -6.38789 0
M  V30 2104 H 201.437 -3.15546 -6.86998 0
M  V30 2105 H 202.705 -2.14348 -7.4945 0
M  V30 2106 N 206.934 1.1197 -1.10907 0
M  V30 2107 C 208.181 1.83588 -0.854507 0
M  V30 2108 C 208.509 1.84357 0.6199 0
M  V30 2109 O 207.764 1.28809 1.47332 0
M  V30 2110 C 208.063 3.30749 -1.35425 0
M  V30 2111 C 207.729 3.50146 -2.84093 0
M  V30 2112 C 206.391 3.55148 -3.2469 0
M  V30 2113 C 208.743 3.56857 -3.79872 0
M  V30 2114 C 206.071 3.6441 -4.59806 0
M  V30 2115 C 208.423 3.6765 -5.14797 0
M  V30 2116 C 207.087 3.7091 -5.54961 0
M  V30 2117 H 206.357 0.671795 -0.312686 0
M  V30 2118 H 209.004 1.32091 -1.38652 0
M  V30 2119 H 207.309 3.84703 -0.742361 0
M  V30 2120 H 209.006 3.8464 -1.1337 0
M  V30 2121 H 205.596 3.46919 -2.51685 0
M  V30 2122 H 209.78 3.52258 -3.49611 0
M  V30 2123 H 205.036 3.65208 -4.9034 0
M  V30 2124 H 209.21 3.71786 -5.88853 0
M  V30 2125 H 206.837 3.7784 -6.59652 0
M  V30 2126 N 208.412 0.89855 1.29475 0
M  V30 2127 C 209.322 0.379974 2.31502 0
M  V30 2128 C 210.338 -0.524695 1.659 0
M  V30 2129 O 211.514 -0.414551 1.97087 0
M  V30 2130 C 208.579 -0.385138 3.44554 0
M  V30 2131 C 207.64 0.550914 4.2575 0
M  V30 2132 C 206.873 -0.177778 5.33404 0
M  V30 2133 O 207.096 -1.40189 5.52904 0
M  V30 2134 O 206.03 0.479106 5.9999 0
M  V30 2135 H 209.856 1.22639 2.77837 0
M  V30 2136 H 207.441 0.662834 1.33891 0
M  V30 2137 H 209.323 -0.817841 4.13388 0
M  V30 2138 H 207.998 -1.20763 3.0033 0
M  V30 2139 H 206.905 1.03271 3.59564 0
M  V30 2140 H 208.238 1.33979 4.73614 0
M  V30 2141 N 209.89 -1.43072 0.660911 0
M  V30 2142 C 210.853 -2.29194 -0.0166406 0
M  V30 2143 C 211.853 -1.42609 -0.742912 0
M  V30 2144 O 213.043 -1.64155 -0.583004 0
M  V30 2145 C 210.175 -3.24831 -1.0343 0
M  V30 2146 H 211.368 -2.90596 0.741208 0
M  V30 2147 H 208.921 -1.5048 0.422532 0
M  V30 2148 H 209.656 -2.68339 -1.82111 0
M  V30 2149 H 209.441 -3.88676 -0.517082 0
M  V30 2150 H 210.931 -3.89451 -1.50723 0
M  V30 2151 N 211.368 -0.403325 -1.52352 0
M  V30 2152 C 212.614 0.174605 -2.02047 0
M  V30 2153 C 212.947 1.45282 -1.28867 0
M  V30 2154 O 212.222 1.90483 -0.393257 0
M  V30 2155 C 212.505 0.428238 -3.57545 0
M  V30 2156 C 212.358 -0.866248 -4.4138 0
M  V30 2157 C 213.677 1.21287 -4.23057 0
M  V30 2158 H 210.796 0.0619851 -0.734389 0
M  V30 2159 H 213.438 -0.53565 -1.82293 0
M  V30 2160 H 211.588 1.03327 -3.74507 0
M  V30 2161 H 213.26 -1.50265 -4.3614 0
M  V30 2162 H 211.503 -1.47851 -4.07827 0
M  V30 2163 H 212.174 -0.643249 -5.48239 0
M  V30 2164 H 214.65 0.700703 -4.10158 0
M  V30 2165 H 213.526 1.35909 -5.31808 0
M  V30 2166 H 213.787 2.23193 -3.81625 0
M  V30 2167 N 212.846 1.57033 -0.133567 0
M  V30 2168 C 213.756 2.19632 0.824564 0
M  V30 2169 C 214.772 1.17666 1.28182 0
M  V30 2170 O 215.948 1.50193 1.3418 0
M  V30 2171 C 213.013 2.79499 2.05137 0
M  V30 2172 C 212.074 3.96548 1.64464 0
M  V30 2173 C 211.307 4.5355 2.81297 0
M  V30 2174 O 211.53 4.09438 3.97136 0
M  V30 2175 O 210.464 5.44018 2.57542 0
M  V30 2176 H 214.29 3.01991 0.321766 0
M  V30 2177 H 211.875 1.49112 0.0927889 0
M  V30 2178 H 213.757 3.17602 2.7696 0
M  V30 2179 H 212.432 2.00162 2.54395 0
M  V30 2180 H 211.339 3.63186 0.897048 0
M  V30 2181 H 212.672 4.77364 1.19934 0
M  V30 2182 N 214.325 -0.140222 1.56975 0
M  V30 2183 C 215.573 -0.850005 1.83356 0
M  V30 2184 C 215.894 -1.81399 0.71551 0
M  V30 2185 O 215.164 -1.94136 -0.262294 0
M  V30 2186 H 213.744 -0.316886 0.676456 0
M  V30 2187 H 216.406 -0.132608 1.94448 0
M  V30 2188 H 215.502 -1.40814 2.78528 0
M  V30 2189 N 215.803 -1.52179 -0.40978 0
M  V30 2190 C 216.766 -1.74853 -1.48186 0
M  V30 2191 C 217.766 -0.618417 -1.48433 0
M  V30 2192 O 218.956 -0.886286 -1.49969 0
M  V30 2193 C 216.088 -1.8303 -2.87598 0
M  V30 2194 H 217.281 -2.70559 -1.29374 0
M  V30 2195 H 214.834 -1.42586 -0.640233 0
M  V30 2196 H 215.569 -0.89236 -3.11781 0
M  V30 2197 H 215.354 -2.65187 -2.88822 0
M  V30 2198 H 216.844 -2.02316 -3.65319 0
M  V30 2199 N 217.281 0.66697 -1.42791 0
M  V30 2200 C 218.527 1.4291 -1.43891 0
M  V30 2201 C 218.86 1.94114 -0.0578972 0
M  V30 2202 O 218.135 1.71414 0.91911 0
M  V30 2203 C 218.418 2.62049 -2.46987 0
M  V30 2204 C 218.271 2.16426 -3.94309 0
M  V30 2205 C 219.59 3.64266 -2.46978 0
M  V30 2206 H 216.709 0.518306 -0.523954 0
M  V30 2207 H 219.351 0.757321 -1.74255 0
M  V30 2208 H 217.501 3.19361 -2.21225 0
M  V30 2209 H 219.173 1.64221 -4.31079 0
M  V30 2210 H 217.416 1.47925 -4.078 0
M  V30 2211 H 218.087 3.02038 -4.62036 0
M  V30 2212 H 220.563 3.16686 -2.69906 0
M  V30 2213 H 219.439 4.45196 -3.21079 0
M  V30 2214 H 219.7 4.15927 -1.49857 0
M  V30 2215 N 218.759 1.29093 0.90403 0
M  V30 2216 C 219.722 1.1386 1.98919 0
M  V30 2217 C 220.722 0.0753457 1.60623 0
M  V30 2218 O 221.912 0.321931 1.71199 0
M  V30 2219 C 219.044 0.740198 3.32767 0
M  V30 2220 H 220.237 2.10246 2.13861 0
M  V30 2221 H 217.79 1.12218 1.08797 0
M  V30 2222 H 218.525 -0.223997 3.23525 0
M  V30 2223 H 218.31 1.50838 3.61926 0
M  V30 2224 H 219.8 0.656546 4.12407 0
M  V30 2225 N 220.237 -1.11381 1.11499 0
M  V30 2226 C 221.167 -2.19509 0.796125 0
M  V30 2227 C 222.148 -1.68458 -0.235796 0
M  V30 2228 O 223.333 -1.93947 -0.0991344 0
M  V30 2229 C 220.463 -3.46475 0.239205 0
M  V30 2230 C 219.417 -4.10744 1.20307 0
M  V30 2231 C 218.743 -5.32293 0.50683 0
M  V30 2232 C 220.043 -4.55597 2.55399 0
M  V30 2233 H 221.737 -2.46439 1.70024 0
M  V30 2234 H 219.283 -1.18446 0.818935 0
M  V30 2235 H 221.236 -4.214 0.00392006 0
M  V30 2236 H 219.96 -3.19006 -0.700206 0
M  V30 2237 H 218.619 -3.37813 1.42399 0
M  V30 2238 H 218.267 -5.01095 -0.437408 0
M  V30 2239 H 217.967 -5.76243 1.1497 0
M  V30 2240 H 219.491 -6.09956 0.280351 0
M  V30 2241 H 220.905 -5.21841 2.37391 0
M  V30 2242 H 219.302 -5.10363 3.15673 0
M  V30 2243 H 220.372 -3.69013 3.14575 0
M  V30 2244 N 221.715 -0.905404 -1.28997 0
M  V30 2245 C 222.678 -0.392253 -2.25819 0
M  V30 2246 C 223.678 0.476753 -1.5357 0
M  V30 2247 O 224.868 0.280994 -1.71919 0
M  V30 2248 C 222 0.438588 -3.38067 0
M  V30 2249 H 223.193 -1.24743 -2.72725 0
M  V30 2250 H 220.746 -0.684051 -1.40536 0
M  V30 2251 H 221.481 1.31352 -2.96508 0
M  V30 2252 H 221.266 -0.184167 -3.91667 0
M  V30 2253 H 222.756 0.78873 -4.10084 0
M  V30 2254 N 223.193 1.4272 -0.668489 0
M  V30 2255 C 224.47 1.95248 -0.117373 0
M  V30 2256 C 224.85 1.60919 1.36632 0
M  V30 2257 O 224.198 0.902095 2.09939 0
M  V30 2258 C 224.408 3.46927 -0.379806 0
M  V30 2259 C 225.756 4.23588 -0.292923 0
M  V30 2260 O 226.78 3.5482 -0.313204 0
M  V30 2261 O 225.639 5.46017 -0.229697 0
M  V30 2262 H 222.733 0.827 0.00079152 0
M  V30 2263 H 225.279 1.52581 -0.742783 0
M  V30 2264 H 224.051 3.65096 -1.40786 0
M  V30 2265 H 223.674 3.96627 0.277923 0
M  V30 2266 N 224.671 0.411399 1.52136 0
M  V30 2267 C 226.087 0.0623865 1.59478 0
M  V30 2268 C 226.287 -1.42554 1.4241 0
M  V30 2269 O 225.343 -2.19263 1.2522 0
M  V30 2270 C 226.656 0.559331 2.95452 0
M  V30 2271 C 228.204 0.517503 3.08692 0
M  V30 2272 C 228.679 0.990994 4.4715 0
M  V30 2273 N 230.17 0.947908 4.53397 0
M  V30 2274 C 230.905 1.28544 5.58806 0
M  V30 2275 N 230.401 1.69454 6.71757 0
M  V30 2276 N 232.194 1.20526 5.49026 0
M  V30 2277 H 224.345 1.37982 1.61477 0
M  V30 2278 H 226.608 0.566977 0.759764 0
M  V30 2279 H 226.314 1.59938 3.1323 0
M  V30 2280 H 226.188 -0.0298014 3.77188 0
M  V30 2281 H 228.575 -0.513505 2.90598 0
M  V30 2282 H 228.656 1.14272 2.28857 0
M  V30 2283 H 228.3 2.02034 4.65988 0
M  V30 2284 H 228.23 0.34257 5.25485 0
M  V30 2285 H 230.721 0.647157 3.72317 0
M  V30 2286 H 231.034 1.93513 7.48179 0
M  V30 2287 H 229.379 1.73359 6.73032 0
M  V30 2288 H 232.57 0.884505 4.59667 0
M  V30 2289 H 232.743 1.47161 6.31069 0
M  V30 2290 N 226.149 -1.5696 0.141893 0
M  V30 2291 C 227.112 -2.15316 -0.785587 0
M  V30 2292 C 228.112 -1.09366 -1.1788 0
M  V30 2293 O 229.302 -1.35031 -1.10056 0
M  V30 2294 C 226.434 -2.71211 -2.06537 0
M  V30 2295 H 227.627 -2.98608 -0.278041 0
M  V30 2296 H 225.18 -1.5593 -0.107519 0
M  V30 2297 H 225.915 -1.91571 -2.6167 0
M  V30 2298 H 225.7 -3.4872 -1.79268 0
M  V30 2299 H 227.19 -3.16189 -2.72789 0
M  V30 2300 N 227.627 0.131896 -1.57047 0
M  V30 2301 C 228.852 0.860418 -1.8871 0
M  V30 2302 C 229.277 1.73251 -0.73251 0
M  V30 2303 O 228.635 1.785 0.317429 0
M  V30 2304 C 228.683 1.68047 -3.19049 0
M  V30 2305 O 227.787 2.7862 -3.04047 0
M  V30 2306 H 227.128 0.238743 -0.619595 0
M  V30 2307 H 229.658 0.118169 -2.04258 0
M  V30 2308 H 229.668 2.07238 -3.51449 0
M  V30 2309 H 228.343 1.04018 -4.02682 0
M  V30 2310 H 226.92 2.42726 -2.83088 0
M  V30 2311 N 229.106 1.52395 0.401703 0
M  V30 2312 C 230.331 1.70972 1.17403 0
M  V30 2313 C 230.756 0.421615 1.83314 0
M  V30 2314 O 230.114 -0.621564 1.70312 0
M  V30 2315 C 230.162 2.85151 2.20728 0
M  V30 2316 O 229.266 2.51238 3.27037 0
M  V30 2317 H 228.607 0.568927 0.342372 0
M  V30 2318 H 231.137 1.99131 0.469891 0
M  V30 2319 H 231.147 3.10279 2.64936 0
M  V30 2320 H 229.822 3.78603 1.7214 0
M  V30 2321 H 228.399 2.36808 2.88057 0
M  V30 2322 N 230.584 -0.659388 1.43143 0
M  V30 2323 C 231.831 -1.41935 1.44433 0
M  V30 2324 C 232.159 -1.94387 0.0663522 0
M  V30 2325 O 231.414 -1.72314 -0.927706 0
M  V30 2326 C 231.713 -2.62206 2.42864 0
M  V30 2327 C 231.379 -2.28208 3.88886 0
M  V30 2328 C 230.041 -2.18647 4.28657 0
M  V30 2329 C 232.393 -2.00887 4.8093 0
M  V30 2330 C 229.721 -1.79914 5.58433 0
M  V30 2331 C 232.073 -1.63653 6.11065 0
M  V30 2332 C 230.737 -1.52614 6.49819 0
M  V30 2333 H 230.007 -0.519376 0.528517 0
M  V30 2334 H 232.654 -0.750453 1.76183 0
M  V30 2335 H 230.959 -3.34199 2.04495 0
M  V30 2336 H 232.656 -3.2041 2.41119 0
M  V30 2337 H 229.246 -2.36557 3.57406 0
M  V30 2338 H 233.43 -2.07198 4.5098 0
M  V30 2339 H 228.686 -1.69948 5.87305 0
M  V30 2340 H 232.86 -1.41543 6.81864 0
M  V30 2341 H 230.487 -1.22371 7.50286 0
M  V30 2342 N 232.062 -1.29571 -0.897171 0
M  V30 2343 C 232.995 -1.0924 -2.00354 0
M  V30 2344 C 233.973 -0.00354011 -1.626 0
M  V30 2345 O 235.157 -0.15473 -1.87864 0
M  V30 2346 C 232.284 -0.66352 -3.32137 0
M  V30 2347 C 231.33 -1.75146 -3.88878 0
M  V30 2348 S 232.163 -3.35124 -4.17674 0
M  V30 2349 C 233.319 -2.9411 -5.52494 0
M  V30 2350 H 233.552 -2.02907 -2.17292 0
M  V30 2351 H 231.085 -1.13746 -1.04408 0
M  V30 2352 H 233.043 -0.422791 -4.08317 0
M  V30 2353 H 231.704 0.253588 -3.13075 0
M  V30 2354 H 230.897 -1.40337 -4.84068 0
M  V30 2355 H 230.499 -1.94584 -3.19395 0
M  V30 2356 H 232.791 -2.41312 -6.33068 0
M  V30 2357 H 233.734 -3.88161 -5.9223 0
M  V30 2358 H 234.142 -2.32332 -5.14473 0
M  V30 2359 N 233.54 1.10788 -1.12088 0
M  V30 2360 C 234.786 1.82942 -0.875226 0
M  V30 2361 C 235.119 1.84779 0.597538 0
M  V30 2362 O 234.394 1.30578 1.44152 0
M  V30 2363 C 234.677 3.29789 -1.44606 0
M  V30 2364 C 234.53 3.36307 -2.98693 0
M  V30 2365 C 235.849 4.26064 -1.10261 0
M  V30 2366 H 232.968 0.664195 -0.319397 0
M  V30 2367 H 235.61 1.29867 -1.38689 0
M  V30 2368 H 233.76 3.75118 -1.01089 0
M  V30 2369 H 235.432 2.99487 -3.50864 0
M  V30 2370 H 233.675 2.76318 -3.34411 0
M  V30 2371 H 234.346 4.39694 -3.33726 0
M  V30 2372 H 236.822 3.88951 -1.4784 0
M  V30 2373 H 235.698 5.27183 -1.52869 0
M  V30 2374 H 235.959 4.42098 -0.0142953 0
M  V30 2375 N 235.018 0.912232 1.28515 0
M  V30 2376 C 236.295 0.463597 1.90027 0
M  V30 2377 C 236.675 -1.05753 1.82701 0
M  V30 2378 O 236.023 -1.90492 1.26194 0
M  V30 2379 C 236.233 0.992253 3.34597 0
M  V30 2380 C 237.581 1.04344 4.11579 0
M  V30 2381 O 238.605 0.94079 3.43551 0
M  V30 2382 O 237.464 1.1995 5.33174 0
M  V30 2383 H 234.558 0.146666 0.813891 0
M  V30 2384 H 237.104 1.00292 1.36893 0
M  V30 2385 H 235.876 2.03623 3.34146 0
M  V30 2386 H 235.499 0.433672 3.95228 0
M  V30 2387 N 236.496 -1.42363 0.676048 0
M  V30 2388 C 237.721 -2.06377 0.205705 0
M  V30 2389 C 238.146 -1.50463 -1.12883 0
M  V30 2390 O 237.504 -0.623619 -1.70237 0
M  V30 2391 C 237.552 -3.60277 0.152655 0
M  V30 2392 O 236.656 -4.02935 -0.87845 0
M  V30 2393 H 235.997 -0.655588 0.105359 0
M  V30 2394 H 238.527 -1.82475 0.925412 0
M  V30 2395 H 238.537 -4.07993 -0.0230675 0
M  V30 2396 H 237.212 -4.00346 1.12675 0
M  V30 2397 H 235.789 -3.66764 -0.673668 0
M  V30 2398 N 237.974 -0.419461 -1.51915 0
M  V30 2399 C 238.884 0.407528 -2.31033 0
M  V30 2400 C 239.9 1.04413 -1.3919 0
M  V30 2401 O 241.076 1.0434 -1.72265 0
M  V30 2402 C 238.141 1.50365 -3.12396 0
M  V30 2403 C 237.202 0.889029 -4.19994 0
M  V30 2404 C 236.435 1.93291 -4.97468 0
M  V30 2405 O 236.658 3.15259 -4.75361 0
M  V30 2406 O 235.592 1.53339 -5.8204 0
M  V30 2407 H 239.418 -0.237865 -3.02767 0
M  V30 2408 H 237.003 -0.182413 -1.48282 0
M  V30 2409 H 238.885 2.13975 -3.63032 0
M  V30 2410 H 237.56 2.13345 -2.43445 0
M  V30 2411 H 236.467 0.215353 -3.7348 0
M  V30 2412 H 237.8 0.302991 -4.91267 0
M  V30 2413 N 239.452 1.56882 -0.150215 0
M  V30 2414 C 240.362 2.20494 0.801222 0
M  V30 2415 C 241.378 1.19019 1.26927 0
M  V30 2416 O 242.554 1.51607 1.32579 0
M  V30 2417 C 239.619 2.81659 2.02161 0
M  V30 2418 C 238.68 3.9827 1.60249 0
M  V30 2419 C 237.913 4.56508 2.7647 0
M  V30 2420 O 238.136 4.13627 3.92771 0
M  V30 2421 O 237.07 5.46719 2.51757 0
M  V30 2422 H 240.896 3.02315 0.289717 0
M  V30 2423 H 238.481 1.49202 0.0769684 0
M  V30 2424 H 240.363 3.20522 2.73576 0
M  V30 2425 H 239.038 2.02849 2.52258 0
M  V30 2426 H 237.945 3.64117 0.858477 0
M  V30 2427 H 239.278 4.78609 1.14864 0
M  V30 2428 N 240.93 -0.123565 1.57115 0
M  V30 2429 C 242.16 -0.845233 1.88519 0
M  V30 2430 C 242.568 -1.74168 0.739064 0
M  V30 2431 O 241.911 -1.81244 -0.299355 0
M  V30 2432 C 241.973 -1.73452 3.14888 0
M  V30 2433 C 241.637 -1.01285 4.45635 0
M  V30 2434 C 242.634 -0.355774 5.18681 0
M  V30 2435 C 240.319 -0.99538 4.92339 0
M  V30 2436 C 242.313 0.309114 6.3665 0
M  V30 2437 C 240 -0.32669 6.10226 0
M  V30 2438 C 240.998 0.324406 6.82229 0
M  V30 2439 O 240.686 0.982437 7.97874 0
M  V30 2440 H 240.418 -0.248534 0.628655 0
M  V30 2441 H 242.972 -0.113907 2.05084 0
M  V30 2442 H 241.202 -2.50737 2.94394 0
M  V30 2443 H 242.891 -2.33021 3.32349 0
M  V30 2444 H 243.657 -0.360918 4.83655 0
M  V30 2445 H 239.536 -1.49159 4.36202 0
M  V30 2446 H 243.08 0.8179 6.92789 0
M  V30 2447 H 238.977 -0.319294 6.4471 0
M  V30 2448 H 239.745 0.886454 8.13686 0
M  V30 2449 N 242.408 -1.52605 -0.393616 0
M  V30 2450 C 243.355 -1.77055 -1.48054 0
M  V30 2451 C 244.325 -0.61358 -1.54352 0
M  V30 2452 O 245.51 -0.852806 -1.70681 0
M  V30 2453 C 242.65 -1.94108 -2.85335 0
M  V30 2454 C 241.763 -3.21792 -2.88226 0
M  V30 2455 C 240.898 -3.29188 -4.16904 0
M  V30 2456 C 239.937 -4.51013 -4.13828 0
M  V30 2457 N 239.074 -4.55716 -5.34105 0
M  V30 2458 H 243.914 -2.69815 -1.26506 0
M  V30 2459 H 241.451 -1.33683 -0.61379 0
M  V30 2460 H 243.409 -2.01979 -3.65049 0
M  V30 2461 H 242.039 -1.04713 -3.05344 0
M  V30 2462 H 241.091 -3.23015 -2.00911 0
M  V30 2463 H 242.403 -4.11557 -2.8182 0
M  V30 2464 H 241.557 -3.36216 -5.05018 0
M  V30 2465 H 240.296 -2.37389 -4.26026 0
M  V30 2466 H 239.301 -4.44115 -3.24102 0
M  V30 2467 H 240.526 -5.44123 -4.06333 0
M  V30 2468 H 238.472 -3.66807 -5.43865 0
M  V30 2469 H 238.389 -5.39346 -5.29756 0
M  V30 2470 H 239.657 -4.66993 -6.2413 0
M  V30 2471 N 243.887 0.651787 -1.4349 0
M  V30 2472 C 245.136 1.40754 -1.44469 0
M  V30 2473 C 245.449 1.95463 -0.0731845 0
M  V30 2474 O 246.655 2.71471 0.0395721 0
M  V30 2475 C 245.111 2.54735 -2.5424 0
M  V30 2476 C 244.719 2.06628 -3.97504 0
M  V30 2477 C 246.463 3.32092 -2.64414 0
M  V30 2478 C 244.37 3.17829 -4.98737 0
M  V30 2479 H 243.3 0.528862 -0.53742 0
M  V30 2480 H 245.951 0.703365 -1.69485 0
M  V30 2481 H 244.333 3.2763 -2.22428 0
M  V30 2482 H 245.507 1.40734 -4.38783 0
M  V30 2483 H 243.822 1.42146 -3.91387 0
M  V30 2484 H 246.419 4.14952 -3.37223 0
M  V30 2485 H 246.762 3.80217 -1.69532 0
M  V30 2486 H 247.295 2.66279 -2.95534 0
M  V30 2487 H 244.034 2.74671 -5.95177 0
M  V30 2488 H 243.554 3.82429 -4.62069 0
M  V30 2489 H 245.233 3.82937 -5.21505 0
M  V30 2490 N 245.365 1.30045 0.890287 0
M  V30 2491 C 246.593 1.21472 1.67487 0
M  V30 2492 C 247.008 -0.223241 1.87476 0
M  V30 2493 O 246.365 -1.14828 1.41847 0
M  V30 2494 C 246.416 1.93394 3.05419 0
M  V30 2495 O 246.137 3.31576 2.86337 0
M  V30 2496 C 247.638 1.91414 3.99844 0
M  V30 2497 H 244.858 0.420604 0.522813 0
M  V30 2498 H 247.402 1.7158 1.11268 0
M  V30 2499 H 245.557 1.47099 3.58386 0
M  V30 2500 H 245.971 3.67929 3.73802 0
M  V30 2501 H 247.445 2.46285 4.94012 0
M  V30 2502 H 247.922 0.891833 4.3005 0
M  V30 2503 H 248.528 2.37496 3.52811 0
M  V30 2504 N 246.843 -1.10192 1.12674 0
M  V30 2505 C 247.791 -2.18694 0.792196 0
M  V30 2506 C 248.785 -1.67938 -0.222058 0
M  V30 2507 O 249.991 -1.79822 -0.0800074 0
M  V30 2508 H 246.366 -0.713223 0.238364 0
M  V30 2509 H 248.337 -2.44149 1.71564 0
M  V30 2510 C 247.086 -3.46682 0.265859 0
M  V30 2511 H 246.409 -3.86101 1.03761 0
M  V30 2512 H 247.849 -4.23942 0.0701128 0
M  V30 2513 C 246.308 -3.21506 -1.00675 0
M  V30 2514 O 246.838 -3.43408 -2.08408 0
M  V30 2515 N 245.044 -2.75158 -0.934692 0
M  V30 2516 H 244.591 -2.57535 -0.0578604 0
M  V30 2517 H 244.549 -2.58691 -1.7868 0
M  V30 2518 N 248.321 -0.919034 -1.28029 0
M  V30 2519 C 249.567 -0.555757 -1.95036 0
M  V30 2520 C 249.9 0.899198 -1.72128 0
M  V30 2521 O 249.175 1.64023 -1.04531 0
M  V30 2522 C 249.458 -0.872024 -3.49382 0
M  V30 2523 C 249.311 -2.3801 -3.81669 0
M  V30 2524 C 250.63 -0.37185 -4.38526 0
M  V30 2525 H 247.749 -0.203386 -0.708381 0
M  V30 2526 H 250.391 -1.14924 -1.51303 0
M  V30 2527 H 248.541 -0.366946 -3.86763 0
M  V30 2528 H 250.213 -2.9562 -3.54128 0
M  V30 2529 H 248.456 -2.83289 -3.28526 0
M  V30 2530 H 249.127 -2.55192 -4.8947 0
M  V30 2531 H 251.603 -0.804602 -4.08247 0
M  V30 2532 H 250.479 -0.622173 -5.45362 0
M  V30 2533 H 250.74 0.727934 -4.36066 0
M  V30 2534 N 249.799 1.42003 -0.683588 0
M  V30 2535 C 250.746 2.30798 -0.0107309 0
M  V30 2536 C 251.716 1.4645 0.783688 0
M  V30 2537 O 252.901 1.75263 0.754156 0
M  V30 2538 C 250.041 3.3238 0.928306 0
M  V30 2539 C 249.154 4.31814 0.126776 0
M  V30 2540 C 248.289 5.20468 1.06236 0
M  V30 2541 C 247.328 6.11577 0.253035 0
M  V30 2542 N 246.465 6.92754 1.14179 0
M  V30 2543 H 251.305 2.8778 -0.773727 0
M  V30 2544 H 248.842 1.41745 -0.393283 0
M  V30 2545 H 250.8 3.89813 1.48666 0
M  V30 2546 H 249.43 2.76976 1.65783 0
M  V30 2547 H 248.482 3.76427 -0.54833 0
M  V30 2548 H 249.794 4.96276 -0.501192 0
M  V30 2549 H 248.948 5.82677 1.69035 0
M  V30 2550 H 247.687 4.56204 1.7242 0
M  V30 2551 H 246.692 5.48428 -0.388108 0
M  V30 2552 H 247.917 6.77892 -0.404839 0
M  V30 2553 H 245.863 6.3111 1.78987 0
M  V30 2554 H 245.78 7.53855 0.569111 0
M  V30 2555 H 247.048 7.59441 1.75697 0
M  V30 2556 N 251.277 0.427512 1.51691 0
M  V30 2557 C 252.523 -0.142439 2.02299 0
M  V30 2558 C 252.856 -1.43214 1.31162 0
M  V30 2559 O 252.131 -1.89833 0.423511 0
M  V30 2560 C 252.414 -0.371301 3.58181 0
M  V30 2561 C 252.267 0.936358 4.39946 0
M  V30 2562 C 253.586 -1.14542 4.24933 0
M  V30 2563 H 250.705 -0.0502937 0.735282 0
M  V30 2564 H 253.347 0.564584 1.81418 0
M  V30 2565 H 251.497 -0.973559 3.76104 0
M  V30 2566 H 253.169 1.57184 4.33694 0
M  V30 2567 H 251.412 1.5432 4.05423 0
M  V30 2568 H 252.083 0.730388 5.47147 0
M  V30 2569 H 254.559 -0.635362 4.11221 0
M  V30 2570 H 253.435 -1.27431 5.33903 0
M  V30 2571 H 253.696 -2.17093 3.85127 0
M  V30 2572 N 252.755 -1.56801 0.158532 0
M  V30 2573 C 253.705 -2.13923 -0.788738 0
M  V30 2574 C 254.689 -1.07006 -1.2016 0
M  V30 2575 O 255.881 -1.33159 -1.1661 0
M  V30 2576 C 253.01 -2.77348 -2.02319 0
M  V30 2577 C 252.096 -3.91404 -1.6329 0
M  V30 2578 N 252.487 -4.9677 -0.951463 0
M  V30 2579 C 250.785 -4.02326 -1.92482 0
M  V30 2580 C 251.486 -5.76698 -0.761221 0
M  V30 2581 N 250.462 -5.27859 -1.29869 0
M  V30 2582 H 254.264 -2.92757 -0.258995 0
M  V30 2583 H 251.778 -1.62344 -0.0426055 0
M  V30 2584 H 253.775 -3.16639 -2.71192 0
M  V30 2585 H 252.435 -1.99991 -2.558 0
M  V30 2586 H 253.446 -5.14284 -0.610928 0
M  V30 2587 H 250.123 -3.36059 -2.47732 0
M  V30 2588 H 251.513 -6.71529 -0.223284 0
M  V30 2589 N 254.233 0.115231 -1.57178 0
M  V30 2590 C 255.481 0.820727 -1.84685 0
M  V30 2591 C 255.802 1.80237 -0.744279 0
M  V30 2592 O 255.072 1.94529 0.231375 0
M  V30 2593 H 253.652 0.306084 -0.681411 0
M  V30 2594 H 256.314 0.101656 -1.94635 0
M  V30 2595 H 255.41 1.36366 -2.80733 0
M  V30 2596 N 255.711 1.52812 0.385517 0
M  V30 2597 C 256.644 1.72592 1.49289 0
M  V30 2598 C 257.622 0.573819 1.52138 0
M  V30 2599 O 258.806 0.80404 1.70492 0
M  V30 2600 C 255.933 1.78669 2.87741 0
M  V30 2601 C 254.979 3.00455 3.02703 0
M  V30 2602 S 255.812 4.60366 2.73538 0
M  V30 2603 C 256.968 4.69263 4.14177 0
M  V30 2604 H 257.201 2.66248 1.32285 0
M  V30 2605 H 254.734 1.43148 0.578611 0
M  V30 2606 H 256.692 1.82855 3.67524 0
M  V30 2607 H 255.353 0.861 3.02069 0
M  V30 2608 H 254.546 3.01258 4.04054 0
M  V30 2609 H 254.148 2.94278 2.30817 0
M  V30 2610 H 256.44 4.48092 5.08153 0
M  V30 2611 H 257.383 5.71276 4.18388 0
M  V30 2612 H 257.791 3.98072 4.00249 0
M  V30 2613 N 257.189 -0.644168 1.43834 0
M  V30 2614 C 258.136 -1.75671 1.49694 0
M  V30 2615 C 259.106 -1.6246 0.345809 0
M  V30 2616 O 260.291 -1.82573 0.554234 0
M  V30 2617 C 257.431 -3.13867 1.43463 0
M  V30 2618 C 256.544 -3.38147 2.6885 0
M  V30 2619 C 255.679 -4.66241 2.54544 0
M  V30 2620 C 254.718 -4.83657 3.75157 0
M  V30 2621 N 253.855 -6.03016 3.59605 0
M  V30 2622 H 258.695 -1.69998 2.44754 0
M  V30 2623 H 256.232 -0.829458 1.21484 0
M  V30 2624 H 258.19 -3.9377 1.37843 0
M  V30 2625 H 256.82 -3.18588 0.519783 0
M  V30 2626 H 255.872 -2.52276 2.84712 0
M  V30 2627 H 257.184 -3.46899 3.58417 0
M  V30 2628 H 256.338 -5.54285 2.46683 0
M  V30 2629 H 255.077 -4.59826 1.62516 0
M  V30 2630 H 254.082 -3.94046 3.83416 0
M  V30 2631 H 255.307 -4.91896 4.68204 0
M  V30 2632 H 253.253 -5.97715 2.7032 0
M  V30 2633 H 253.17 -6.12766 4.42779 0
M  V30 2634 H 254.438 -6.93657 3.55613 0
M  V30 2635 N 258.668 -1.30515 -0.883378 0
M  V30 2636 C 259.915 -1.1943 -1.63532 0
M  V30 2637 C 260.243 0.250627 -1.92878 0
M  V30 2638 O 259.498 1.19556 -1.54935 0
M  V30 2639 C 259.797 -1.96994 -2.98209 0
M  V30 2640 C 259.463 -3.466 -2.88408 0
M  V30 2641 C 258.125 -3.87397 -2.85442 0
M  V30 2642 C 260.477 -4.41863 -2.76418 0
M  V30 2643 C 257.805 -5.21745 -2.68327 0
M  V30 2644 C 260.157 -5.7632 -2.60841 0
M  V30 2645 C 258.821 -6.16354 -2.56251 0
M  V30 2646 H 258.091 -0.437025 -0.598406 0
M  V30 2647 H 260.738 -1.61635 -1.02696 0
M  V30 2648 H 259.043 -1.47429 -3.63004 0
M  V30 2649 H 260.74 -1.85808 -3.55354 0
M  V30 2650 H 257.33 -3.14182 -2.91527 0
M  V30 2651 H 261.514 -4.11285 -2.77775 0
M  V30 2652 H 256.77 -5.51853 -2.63189 0
M  V30 2653 H 260.944 -6.49772 -2.50538 0
M  V30 2654 H 258.571 -7.20401 -2.42748 0
M  V30 2655 N 260.146 1.09593 -1.13257 0
M  V30 2656 C 261.392 1.82003 -0.89458 0
M  V30 2657 C 261.725 1.85402 0.577906 0
M  V30 2658 O 261 1.32099 1.42759 0
M  V30 2659 C 261.283 3.28237 -1.48096 0
M  V30 2660 C 261.136 3.3312 -3.02244 0
M  V30 2661 C 262.455 4.24871 -1.14774 0
M  V30 2662 H 259.574 0.66077 -0.326424 0
M  V30 2663 H 262.216 1.28389 -1.40058 0
M  V30 2664 H 260.366 3.74024 -1.05062 0
M  V30 2665 H 262.038 2.95748 -3.54021 0
M  V30 2666 H 260.281 2.72756 -3.37323 0
M  V30 2667 H 260.952 4.3613 -3.38371 0
M  V30 2668 H 263.428 3.87361 -1.51957 0
M  V30 2669 H 262.304 5.25532 -1.58452 0
M  V30 2670 H 262.565 4.42058 -0.0611849 0
M  V30 2671 N 261.624 0.925811 1.2754 0
M  V30 2672 C 263.035 0.610102 1.7645 0
M  V30 2673 C 263.386 -0.874723 1.75622 0
M  V30 2674 O 262.511 -1.68444 1.35851 0
M  V30 2675 C 263.106 1.10073 3.20421 0
M  V30 2676 C 261.665 0.835723 3.67005 0
M  V30 2677 C 260.812 1.26054 2.46993 0
M  V30 2678 H 263.763 1.10579 1.13833 0
M  V30 2679 H 263.784 0.447557 3.77859 0
M  V30 2680 H 263.296 2.18143 3.20991 0
M  V30 2681 H 261.397 -0.231249 3.71882 0
M  V30 2682 H 261.51 1.45193 4.56569 0
M  V30 2683 H 259.874 0.679111 2.45479 0
M  V30 2684 H 260.657 2.34984 2.50275 0
M  V30 2685 N 263.102 -1.41638 0.69111 0
M  V30 2686 C 264.348 -2.01598 0.220519 0
M  V30 2687 C 264.681 -1.54594 -1.17535 0
M  V30 2688 O 263.956 -0.755177 -1.79241 0
M  V30 2689 C 264.239 -3.59062 0.273243 0
M  V30 2690 C 264.092 -4.16203 1.70573 0
M  V30 2691 C 265.411 -4.38546 -0.369457 0
M  V30 2692 H 262.53 -0.732468 0.0816045 0
M  V30 2693 H 265.172 -1.68445 0.878986 0
M  V30 2694 H 263.322 -3.87435 -0.287411 0
M  V30 2695 H 264.994 -3.98722 2.31989 0
M  V30 2696 H 263.237 -3.71414 2.2413 0
M  V30 2697 H 263.908 -5.25358 1.69419 0
M  V30 2698 H 266.384 -4.1596 0.107977 0
M  V30 2699 H 265.26 -5.48069 -0.302002 0
M  V30 2700 H 265.521 -4.17662 -1.44951 0
M  V30 2701 N 264.58 -0.43555 -1.51462 0
M  V30 2702 C 265.543 0.365137 -2.26273 0
M  V30 2703 C 266.543 0.951227 -1.29647 0
M  V30 2704 O 267.733 0.825958 -1.53374 0
M  V30 2705 C 264.865 1.51645 -3.05314 0
M  V30 2706 H 266.058 -0.290474 -2.9849 0
M  V30 2707 H 263.611 -0.188676 -1.55157 0
M  V30 2708 H 264.346 2.20816 -2.3751 0
M  V30 2709 H 264.131 1.10238 -3.76284 0
M  V30 2710 H 265.621 2.08218 -3.61987 0
M  V30 2711 N 266.058 1.56714 -0.166846 0
M  V30 2712 C 267.304 1.97039 0.479962 0
M  V30 2713 C 267.637 1.05264 1.63197 0
M  V30 2714 O 266.912 0.0988833 1.94248 0
M  V30 2715 C 267.195 3.46867 0.967212 0
M  V30 2716 C 267.048 4.49421 -0.18466 0
M  V30 2717 C 268.367 3.9968 1.84238 0
M  V30 2718 H 265.486 0.71641 0.172992 0
M  V30 2719 H 268.128 1.8832 -0.252079 0
M  V30 2720 H 266.278 3.54428 1.59101 0
M  V30 2721 H 267.95 4.53924 -0.821621 0
M  V30 2722 H 266.193 4.25573 -0.840837 0
M  V30 2723 H 266.864 5.51644 0.198317 0
M  V30 2724 H 269.34 3.94723 1.31655 0
M  V30 2725 H 268.216 5.04941 2.15234 0
M  V30 2726 H 268.477 3.43226 2.78654 0
M  V30 2727 N 267.536 -0.106894 1.57237 0
M  V30 2728 C 268.947 -0.662723 1.74542 0
M  V30 2729 C 269.298 -1.7971 0.787319 0
M  V30 2730 O 268.423 -2.16368 -0.0369636 0
M  V30 2731 C 269.018 -1.20896 3.16496 0
M  V30 2732 C 267.577 -1.71096 3.35266 0
M  V30 2733 C 266.724 -0.615642 2.7038 0
M  V30 2734 H 269.675 0.119106 1.58252 0
M  V30 2735 H 269.696 -2.07847 3.18716 0
M  V30 2736 H 269.208 -0.383122 3.86204 0
M  V30 2737 H 267.309 -2.56119 2.70618 0
M  V30 2738 H 267.422 -1.81208 4.43509 0
M  V30 2739 H 265.786 -1.05222 2.31949 0
M  V30 2740 H 266.569 0.199419 3.4272 0
M  V30 2741 N 269.014 -1.53014 -0.377408 0
M  V30 2742 C 269.964 -1.74996 -1.46152 0
M  V30 2743 C 270.948 -0.604236 -1.49123 0
M  V30 2744 O 272.14 -0.862489 -1.54564 0
M  V30 2745 C 269.269 -1.93267 -2.8373 0
M  V30 2746 C 268.355 -3.13807 -2.85283 0
M  V30 2747 N 268.746 -4.35941 -2.56493 0
M  V30 2748 C 267.044 -3.14288 -3.16448 0
M  V30 2749 C 267.745 -5.17615 -2.65424 0
M  V30 2750 N 266.721 -4.53559 -2.99641 0
M  V30 2751 H 270.523 -2.67044 -1.22738 0
M  V30 2752 H 268.037 -1.51479 -0.585479 0
M  V30 2753 H 270.034 -2.0714 -3.61799 0
M  V30 2754 H 268.694 -1.0244 -3.08117 0
M  V30 2755 H 269.705 -4.63876 -2.30302 0
M  V30 2756 H 266.382 -2.33312 -3.46225 0
M  V30 2757 H 267.772 -6.25006 -2.46612 0
M  V30 2758 N 270.492 0.636531 -1.44174 0
M  V30 2759 C 271.402 1.77754 -1.53103 0
M  V30 2760 C 272.418 1.68928 -0.417034 0
M  V30 2761 O 273.594 1.89801 -0.6736 0
M  V30 2762 C 270.659 3.14115 -1.46741 0
M  V30 2763 C 269.72 3.34612 -2.68948 0
M  V30 2764 C 268.953 4.64467 -2.6288 0
M  V30 2765 O 269.176 5.44919 -1.68581 0
M  V30 2766 O 268.11 4.87049 -3.53648 0
M  V30 2767 H 271.936 1.73174 -2.49489 0
M  V30 2768 H 269.521 0.79709 -1.2636 0
M  V30 2769 H 271.403 3.95412 -1.45696 0
M  V30 2770 H 270.078 3.19249 -0.534975 0
M  V30 2771 H 268.985 2.53014 -2.75562 0
M  V30 2772 H 270.318 3.34336 -3.61221 0
M  V30 2773 N 271.97 1.30982 0.876444 0
M  V30 2774 C 272.9 1.20668 1.99903 0
M  V30 2775 C 273.881 0.095354 1.69833 0
M  V30 2776 O 275.066 0.27885 1.92188 0
M  V30 2777 C 272.196 0.90655 3.3526 0
M  V30 2778 C 271.15 1.97675 3.79617 0
M  V30 2779 C 270.476 1.52943 5.1236 0
M  V30 2780 C 271.776 3.389 3.97422 0
M  V30 2781 H 273.47 2.14586 2.0879 0
M  V30 2782 H 271.016 1.03308 1.00317 0
M  V30 2783 H 272.969 0.821025 4.13324 0
M  V30 2784 H 271.693 -0.0682969 3.26529 0
M  V30 2785 H 270.352 2.05205 3.03787 0
M  V30 2786 H 270 0.54262 5.00065 0
M  V30 2787 H 269.7 2.24532 5.43009 0
M  V30 2788 H 271.224 1.45786 5.92941 0
M  V30 2789 H 272.638 3.34081 4.659 0
M  V30 2790 H 271.035 4.0865 4.3946 0
M  V30 2791 H 272.105 3.80163 3.01006 0
M  V30 2792 N 273.449 -1.08991 1.13837 0
M  V30 2793 C 274.396 -2.15748 0.819835 0
M  V30 2794 C 275.366 -1.64636 -0.220026 0
M  V30 2795 O 276.551 -1.90582 -0.0912757 0
M  V30 2796 C 273.691 -3.4382 0.296913 0
M  V30 2797 C 272.804 -4.0881 1.39636 0
M  V30 2798 C 271.939 -5.24655 0.831314 0
M  V30 2799 C 270.978 -5.81575 1.90886 0
M  V30 2800 N 270.115 -6.88774 1.36142 0
M  V30 2801 H 274.955 -2.42338 1.73426 0
M  V30 2802 H 272.492 -1.18935 0.865613 0
M  V30 2803 H 274.45 -4.17193 -0.0244339 0
M  V30 2804 H 273.08 -3.17535 -0.580628 0
M  V30 2805 H 272.132 -3.33258 1.83422 0
M  V30 2806 H 273.444 -4.47141 2.21058 0
M  V30 2807 H 272.598 -6.04942 0.461515 0
M  V30 2808 H 271.337 -4.87698 -0.013932 0
M  V30 2809 H 270.342 -4.99946 2.28767 0
M  V30 2810 H 271.567 -6.20592 2.75758 0
M  V30 2811 H 269.513 -6.53788 0.538254 0
M  V30 2812 H 269.43 -7.25898 2.11208 0
M  V30 2813 H 270.698 -7.72806 1.01933 0
M  V30 2814 N 274.927 -0.932562 -1.27047 0
M  V30 2815 C 276.175 -0.574422 -1.93765 0
M  V30 2816 C 276.496 0.887993 -1.73608 0
M  V30 2817 O 275.766 1.62999 -1.08665 0
M  V30 2818 H 274.346 -0.209451 -0.717035 0
M  V30 2819 H 277.008 -1.18601 -1.5466 0
M  V30 2820 H 276.104 -0.784841 -3.02071 0
M  V30 2821 N 276.405 1.4127 -0.698611 0
M  V30 2822 C 277.654 2.00408 -0.227949 0
M  V30 2823 C 277.967 1.55981 1.18023 0
M  V30 2824 O 279.173 2.07699 1.74852 0
M  V30 2825 C 277.629 3.58129 -0.356636 0
M  V30 2826 C 277.237 4.11536 -1.77037 0
M  V30 2827 C 278.981 4.24466 0.0540969 0
M  V30 2828 C 276.888 5.61701 -1.85055 0
M  V30 2829 H 275.818 0.749586 -0.0814657 0
M  V30 2830 H 278.469 1.61713 -0.867249 0
M  V30 2831 H 276.851 3.94442 0.350965 0
M  V30 2832 H 278.025 3.86636 -2.50698 0
M  V30 2833 H 276.34 3.57736 -2.13105 0
M  V30 2834 H 278.937 5.34698 0.0146723 0
M  V30 2835 H 279.28 4.01687 1.09332 0
M  V30 2836 H 279.813 3.93198 -0.603337 0
M  V30 2837 H 276.552 5.89312 -2.8704 0
M  V30 2838 H 276.072 5.88519 -1.15783 0
M  V30 2839 H 277.751 6.26524 -1.61484 0
M  V30 2840 N 277.883 0.443576 1.51229 0
M  V30 2841 C 278.846 -0.353132 2.26463 0
M  V30 2842 C 279.846 -0.944338 1.3015 0
M  V30 2843 O 281.036 -0.817813 1.5381 0
M  V30 2844 C 278.168 -1.50023 3.06114 0
M  V30 2845 H 279.361 0.3063 2.98332 0
M  V30 2846 H 276.914 0.196902 1.55055 0
M  V30 2847 H 277.649 -2.19553 2.38677 0
M  V30 2848 H 277.434 -1.08241 3.76864 0
M  V30 2849 H 278.924 -2.06296 3.63087 0
M  V30 2850 N 279.361 -1.56624 0.175154 0
M  V30 2851 C 280.308 -2.18149 -0.753634 0
M  V30 2852 C 281.278 -1.12265 -1.22417 0
M  V30 2853 O 282.463 -1.40432 -1.29165 0
M  V30 2854 C 279.603 -2.82933 -1.97592 0
M  V30 2855 C 278.716 -4.03289 -1.5486 0
M  V30 2856 C 277.851 -4.55988 -2.72485 0
M  V30 2857 C 276.89 -5.68746 -2.26262 0
M  V30 2858 N 276.027 -6.15938 -3.36994 0
M  V30 2859 H 280.867 -2.9717 -0.222195 0
M  V30 2860 H 278.404 -1.46774 -0.0979422 0
M  V30 2861 H 280.362 -3.18653 -2.69288 0
M  V30 2862 H 278.992 -2.06509 -2.481 0
M  V30 2863 H 278.044 -3.73364 -0.728246 0
M  V30 2864 H 279.356 -4.849 -1.16933 0
M  V30 2865 H 278.51 -4.9391 -3.52332 0
M  V30 2866 H 277.249 -3.73443 -3.13674 0
M  V30 2867 H 276.254 -5.30372 -1.44863 0
M  V30 2868 H 277.479 -6.53095 -1.86127 0
M  V30 2869 H 275.425 -5.36321 -3.77751 0
M  V30 2870 H 275.342 -6.92548 -3.03172 0
M  V30 2871 H 276.61 -6.58511 -4.17114 0
M  V30 2872 N 280.839 0.0985539 -1.57292 0
M  V30 2873 C 281.749 1.13824 -2.05137 0
M  V30 2874 C 282.765 1.44076 -0.975604 0
M  V30 2875 O 283.941 1.54786 -1.28853 0
M  V30 2876 C 281.006 2.43969 -2.46333 0
M  V30 2877 C 280.067 2.2093 -3.68087 0
M  V30 2878 C 279.3 3.44869 -4.0731 0
M  V30 2879 O 279.523 4.52972 -3.46659 0
M  V30 2880 O 278.457 3.34661 -5.00285 0
M  V30 2881 H 282.283 0.761881 -2.93988 0
M  V30 2882 H 279.868 0.310818 -1.46131 0
M  V30 2883 H 281.75 3.20609 -2.73473 0
M  V30 2884 H 280.425 2.81038 -1.60621 0
M  V30 2885 H 279.332 1.42081 -3.46069 0
M  V30 2886 H 280.665 1.88755 -4.54568 0
M  V30 2887 N 282.317 1.53212 0.369288 0
M  V30 2888 C 283.264 1.79388 1.45219 0
M  V30 2889 C 284.234 0.638059 1.53356 0
M  V30 2890 O 285.419 0.879852 1.69302 0
M  V30 2891 C 282.559 1.98623 2.82211 0
M  V30 2892 C 281.672 3.26337 2.8307 0
M  V30 2893 C 280.807 3.35779 4.11614 0
M  V30 2894 C 279.846 4.5754 4.06601 0
M  V30 2895 N 278.983 4.64155 5.26787 0
M  V30 2896 H 283.823 2.71794 1.22198 0
M  V30 2897 H 281.36 1.34642 0.592444 0
M  V30 2898 H 283.318 2.07761 3.61789 0
M  V30 2899 H 281.948 1.09558 3.03639 0
M  V30 2900 H 281 3.26171 1.95747 0
M  V30 2901 H 282.312 4.15988 2.75237 0
M  V30 2902 H 281.466 3.44208 4.99606 0
M  V30 2903 H 280.205 2.44137 4.22195 0
M  V30 2904 H 279.21 4.49215 3.16996 0
M  V30 2905 H 280.435 5.50519 3.97625 0
M  V30 2906 H 278.381 3.75413 5.3796 0
M  V30 2907 H 278.298 5.47706 5.21109 0
M  V30 2908 H 279.566 4.76863 6.16621 0
M  V30 2909 N 283.795 -0.628877 1.44509 0
M  V30 2910 C 285.042 -1.38839 1.47411 0
M  V30 2911 C 285.37 -1.94202 0.10757 0
M  V30 2912 O 284.625 -1.74243 -0.890947 0
M  V30 2913 C 284.924 -2.56995 2.48371 0
M  V30 2914 C 284.59 -2.19908 3.93639 0
M  V30 2915 C 283.252 -2.09506 4.33198 0
M  V30 2916 C 285.604 -1.9064 4.85083 0
M  V30 2917 C 282.932 -1.68028 5.62124 0
M  V30 2918 C 285.284 -1.50655 6.14399 0
M  V30 2919 C 283.948 -1.38796 6.5291 0
M  V30 2920 H 283.218 -0.508048 0.539414 0
M  V30 2921 H 285.865 -0.712913 1.77735 0
M  V30 2922 H 284.17 -3.29786 2.11538 0
M  V30 2923 H 285.867 -3.15223 2.47861 0
M  V30 2924 H 282.457 -2.28922 3.62343 0
M  V30 2925 H 286.641 -1.97585 4.55273 0
M  V30 2926 H 281.897 -1.57452 5.90778 0
M  V30 2927 H 286.071 -1.27048 6.84713 0
M  V30 2928 H 283.698 -1.06429 7.52713 0
M  V30 2929 N 285.273 -1.31445 -0.869486 0
M  V30 2930 C 286.223 -1.15731 -1.96444 0
M  V30 2931 C 287.207 -0.0681855 -1.60755 0
M  V30 2932 O 288.399 -0.293154 -1.74555 0
M  V30 2933 C 285.528 -0.867255 -3.32165 0
M  V30 2934 C 284.614 -1.99738 -3.74119 0
M  V30 2935 N 285.005 -3.24447 -3.88031 0
M  V30 2936 C 283.303 -1.89723 -4.03635 0
M  V30 2937 C 284.004 -3.98374 -4.23879 0
M  V30 2938 N 282.98 -3.26547 -4.3459 0
M  V30 2939 H 286.782 -2.10296 -2.05312 0
M  V30 2940 H 284.296 -1.23009 -1.06031 0
M  V30 2941 H 286.293 -0.735668 -4.10358 0
M  V30 2942 H 284.953 0.0701614 -3.24624 0
M  V30 2943 H 285.964 -3.59557 -3.72746 0
M  V30 2944 H 282.641 -1.03449 -4.04481 0
M  V30 2945 H 284.031 -5.05844 -4.42235 0
M  V30 2946 N 286.751 1.08385 -1.14413 0
M  V30 2947 C 287.998 1.80776 -0.912482 0
M  V30 2948 C 288.326 1.86236 0.560934 0
M  V30 2949 O 287.581 1.33431 1.43159 0
M  V30 2950 C 287.88 3.26273 -1.45879 0
M  V30 2951 C 287.546 3.4093 -2.95089 0
M  V30 2952 C 286.208 3.44638 -3.35824 0
M  V30 2953 C 288.56 3.44591 -3.91033 0
M  V30 2954 C 285.888 3.49597 -4.71167 0
M  V30 2955 C 288.24 3.51086 -5.26233 0
M  V30 2956 C 286.904 3.53067 -5.6648 0
M  V30 2957 H 286.174 0.661507 -0.333901 0
M  V30 2958 H 288.821 1.27613 -1.42784 0
M  V30 2959 H 287.126 3.82146 -0.864376 0
M  V30 2960 H 288.823 3.80839 -1.2555 0
M  V30 2961 H 285.413 3.38736 -2.62594 0
M  V30 2962 H 289.597 3.40957 -3.60641 0
M  V30 2963 H 284.853 3.49424 -5.0171 0
M  V30 2964 H 289.027 3.52864 -6.00383 0
M  V30 2965 H 286.654 3.56662 -6.71339 0
M  V30 2966 N 288.23 0.939286 1.26551 0
M  V30 2967 C 289.476 0.586715 1.94128 0
M  V30 2968 C 289.809 -0.8717 1.73537 0
M  V30 2969 O 289.084 -1.62339 1.07127 0
M  V30 2970 C 289.367 0.927497 3.4795 0
M  V30 2971 C 289.22 2.44052 3.77834 0
M  V30 2972 C 290.539 0.441569 4.37879 0
M  V30 2973 H 287.658 0.21463 0.705055 0
M  V30 2974 H 290.3 1.17316 1.49455 0
M  V30 2975 H 288.45 0.428431 3.8613 0
M  V30 2976 H 290.122 3.01216 3.4938 0
M  V30 2977 H 288.365 2.8848 3.23978 0
M  V30 2978 H 289.036 2.62947 4.85348 0
M  V30 2979 H 291.512 0.869448 4.06915 0
M  V30 2980 H 290.388 0.708856 5.44304 0
M  V30 2981 H 290.649 -0.658467 4.37169 0
M  V30 2982 N 289.708 -1.40897 0.706093 0
M  V30 2983 C 290.618 -2.3455 0.0482286 0
M  V30 2984 C 291.634 -1.56796 -0.754396 0
M  V30 2985 O 292.81 -1.89228 -0.689538 0
M  V30 2986 C 289.875 -3.35625 -0.869303 0
M  V30 2987 C 288.936 -4.29261 -0.0576994 0
M  V30 2988 C 288.169 -5.25508 -0.931531 0
M  V30 2989 O 288.392 -5.27472 -2.17092 0
M  V30 2990 O 287.326 -6.00727 -0.375587 0
M  V30 2991 H 291.152 -2.92407 0.820476 0
M  V30 2992 H 288.737 -1.4193 0.4665 0
M  V30 2993 H 290.619 -3.97635 -1.39514 0
M  V30 2994 H 289.294 -2.80196 -1.62086 0
M  V30 2995 H 288.201 -3.70566 0.512988 0
M  V30 2996 H 289.534 -4.87817 0.655426 0
M  V30 2997 N 291.186 -0.45159 -1.50991 0
M  V30 2998 C 292.463 0.170707 -1.94854 0
M  V30 2999 C 292.843 1.58788 -1.39103 0
M  V30 3000 O 292.191 2.20913 -0.583921 0
M  V30 3001 C 292.401 0.133929 -3.48743 0
M  V30 3002 C 293.749 0.33248 -4.23296 0
M  V30 3003 O 294.773 0.211403 -3.55572 0
M  V30 3004 O 293.632 0.57486 -5.43468 0
M  V30 3005 H 290.726 0.122264 -0.817912 0
M  V30 3006 H 293.272 -0.510594 -1.61836 0
M  V30 3007 H 292.044 -0.856283 -3.81816 0
M  V30 3008 H 291.667 0.857529 -3.88242 0
M  V30 3009 N 292.664 1.56529 -0.183458 0
M  V30 3010 C 293.889 2.02064 0.467428 0
M  V30 3011 C 294.314 1.06282 1.55196 0
M  V30 3012 O 293.672 0.0443565 1.81246 0
M  V30 3013 C 293.72 3.46122 1.01153 0
M  V30 3014 O 292.824 3.53437 2.12499 0
M  V30 3015 H 292.165 0.654726 0.110588 0
M  V30 3016 H 294.695 2.02521 -0.290917 0
M  V30 3017 H 294.705 3.85676 1.33108 0
M  V30 3018 H 293.38 4.15331 0.217533 0
M  V30 3019 H 291.957 3.2575 1.81497 0
M  V30 3020 N 294.142 -0.090211 1.57342 0
M  V30 3021 C 295.558 -0.444547 1.53284 0
M  V30 3022 C 295.758 -1.80238 0.900914 0
M  V30 3023 O 294.814 -2.4759 0.495513 0
M  V30 3024 C 296.127 -0.402543 2.97993 0
M  V30 3025 C 297.675 -0.48405 3.09234 0
M  V30 3026 C 298.15 -0.472144 4.5556 0
M  V30 3027 N 299.641 -0.532757 4.60126 0
M  V30 3028 C 300.376 -0.545462 5.708 0
M  V30 3029 N 299.872 -0.514082 6.9089 0
M  V30 3030 N 301.665 -0.59064 5.58988 0
M  V30 3031 H 293.816 0.799121 1.96794 0
M  V30 3032 H 296.079 0.297965 0.899956 0
M  V30 3033 H 295.785 0.528106 3.47712 0
M  V30 3034 H 295.659 -1.21969 3.56936 0
M  V30 3035 H 298.046 -1.40512 2.595 0
M  V30 3036 H 298.127 0.361328 2.53235 0
M  V30 3037 H 297.771 0.445 5.05947 0
M  V30 3038 H 297.701 -1.3348 5.09402 0
M  V30 3039 H 300.192 -0.562006 3.73698 0
M  V30 3040 H 300.505 -0.527195 7.71 0
M  V30 3041 H 298.85 -0.481054 6.93333 0
M  V30 3042 H 302.041 -0.61272 4.64073 0
M  V30 3043 H 302.214 -0.597073 6.45243 0
M  V30 3044 N 295.62 -1.53406 -0.361157 0
M  V30 3045 C 296.866 -1.70054 -1.10496 0
M  V30 3046 C 297.199 -0.453278 -1.88836 0
M  V30 3047 O 296.474 0.5495 -1.86576 0
M  V30 3048 C 296.757 -2.95317 -2.06058 0
M  V30 3049 C 296.61 -4.3021 -1.31298 0
M  V30 3050 C 297.929 -3.16193 -3.06121 0
M  V30 3051 H 295.048 -0.618799 -0.400321 0
M  V30 3052 H 297.69 -1.86052 -0.385318 0
M  V30 3053 H 295.84 -2.81809 -2.67425 0
M  V30 3054 H 297.512 -4.55538 -0.726807 0
M  V30 3055 H 295.755 -4.29421 -0.614853 0
M  V30 3056 H 296.426 -5.14 -2.01265 0
M  V30 3057 H 298.902 -3.28916 -2.5486 0
M  V30 3058 H 297.778 -4.05266 -3.70204 0
M  V30 3059 H 298.039 -2.31676 -3.76535 0
M  V30 3060 N 297.098 0.621204 -1.44841 0
M  V30 3061 C 298.326 1.40752 -1.51646 0
M  V30 3062 C 298.741 1.88246 -0.144549 0
M  V30 3063 O 298.098 1.61422 0.851416 0
M  V30 3064 C 298.149 2.62119 -2.4895 0
M  V30 3065 O 297.87 2.16602 -3.80808 0
M  V30 3066 C 299.371 3.55135 -2.65319 0
M  V30 3067 H 296.591 0.431325 -0.514004 0
M  V30 3068 H 299.135 0.758835 -1.899 0
M  V30 3069 H 297.29 3.23058 -2.13805 0
M  V30 3070 H 297.704 2.95358 -4.33433 0
M  V30 3071 H 299.178 4.36874 -3.37409 0
M  V30 3072 H 299.655 4.04592 -1.70886 0
M  V30 3073 H 300.261 3.00058 -3.01405 0
M  V30 3074 N 298.576 1.31904 0.862503 0
M  V30 3075 C 299.486 1.22161 2.00285 0
M  V30 3076 C 300.502 0.136785 1.73462 0
M  V30 3077 O 301.678 0.355994 1.98229 0
M  V30 3078 C 298.743 0.937093 3.33796 0
M  V30 3079 C 297.804 2.10957 3.73893 0
M  V30 3080 C 297.037 1.83853 5.01033 0
M  V30 3081 O 297.26 0.777274 5.65079 0
M  V30 3082 O 296.194 2.69741 5.38074 0
M  V30 3083 H 300.02 2.18008 2.11439 0
M  V30 3084 H 297.605 1.11716 0.991957 0
M  V30 3085 H 299.487 0.794583 4.13841 0
M  V30 3086 H 298.162 0.00871894 3.23699 0
M  V30 3087 H 297.069 2.30752 2.94456 0
M  V30 3088 H 298.402 3.02046 3.88625 0
M  V30 3089 N 300.054 -1.07777 1.14986 0
M  V30 3090 C 301.002 -2.16964 0.838406 0
M  V30 3091 C 301.996 -1.68372 -0.186386 0
M  V30 3092 O 303.202 -1.79951 -0.0418465 0
M  V30 3093 H 299.577 -0.708006 0.253439 0
M  V30 3094 H 301.548 -2.40454 1.76704 0
M  V30 3095 C 300.297 -3.4604 0.339335 0
M  V30 3096 H 299.62 -3.83813 1.11927 0
M  V30 3097 H 301.06 -4.23698 0.160021 0
M  V30 3098 C 299.519 -3.23569 -0.938325 0
M  V30 3099 O 300.049 -3.47752 -2.01077 0
M  V30 3100 N 298.255 -2.77079 -0.876117 0
M  V30 3101 H 297.802 -2.576 -0.00322037 0
M  V30 3102 H 297.76 -2.62422 -1.73153 0
M  V30 3103 N 301.532 -0.945985 -1.26051 0
M  V30 3104 C 302.76 -0.613025 -1.9761 0
M  V30 3105 C 303.175 0.813035 -1.70397 0
M  V30 3106 O 302.532 1.54274 -0.974979 0
M  V30 3107 C 302.583 -0.85159 -3.51326 0
M  V30 3108 O 302.304 -2.22157 -3.77595 0
M  V30 3109 C 303.805 -0.529831 -4.40122 0
M  V30 3110 H 301.025 -0.230593 -0.630133 0
M  V30 3111 H 303.569 -1.268 -1.60443 0
M  V30 3112 H 301.724 -0.243151 -3.86636 0
M  V30 3113 H 302.138 -2.2852 -4.721 0
M  V30 3114 H 303.612 -0.747348 -5.46917 0
M  V30 3115 H 304.089 0.535341 -4.35925 0
M  V30 3116 H 304.695 -1.11721 -4.10364 0
M  V30 3117 N 303.011 1.40521 -0.713556 0
M  V30 3118 C 303.959 2.32549 -0.0485227 0
M  V30 3119 C 304.953 1.51931 0.74922 0
M  V30 3120 O 306.159 1.67745 0.652816 0
M  V30 3121 H 302.534 0.751994 0.00311138 0
M  V30 3122 H 304.505 2.86291 -0.841443 0
M  V30 3123 C 303.254 3.36879 0.860687 0
M  V30 3124 H 302.577 3.98978 0.256246 0
M  V30 3125 H 304.017 4.03772 1.294 0
M  V30 3126 C 302.476 2.72197 1.9852 0
M  V30 3127 O 303.006 2.5837 3.07584 0
M  V30 3128 N 301.212 2.30612 1.76823 0
M  V30 3129 H 300.759 2.42059 0.881217 0
M  V30 3130 H 300.717 1.87672 2.52243 0
M  V30 3131 N 304.489 0.459591 1.5075 0
M  V30 3132 C 305.737 -0.0991532 2.01857 0
M  V30 3133 C 306.058 -1.41247 1.34441 0
M  V30 3134 O 305.328 -1.89775 0.486022 0
M  V30 3135 H 303.908 -0.039633 0.745948 0
M  V30 3136 H 306.57 0.607387 1.85194 0
M  V30 3137 H 305.666 -0.258998 3.11023 0
M  V30 3138 N 305.967 -1.56429 0.191757 0
M  V30 3139 C 306.897 -2.21937 -0.725696 0
M  V30 3140 C 307.878 -1.1814 -1.2238 0
M  V30 3141 O 309.063 -1.46636 -1.27325 0
M  V30 3142 C 306.193 -2.87611 -1.94672 0
M  V30 3143 C 305.147 -3.97623 -1.58366 0
M  V30 3144 C 304.473 -4.50446 -2.88102 0
M  V30 3145 C 305.773 -5.16197 -0.796133 0
M  V30 3146 H 307.467 -2.98861 -0.179606 0
M  V30 3147 H 305.013 -1.43749 -0.0849464 0
M  V30 3148 H 306.966 -3.3212 -2.59373 0
M  V30 3149 H 305.69 -2.08087 -2.51728 0
M  V30 3150 H 304.349 -3.53801 -0.960247 0
M  V30 3151 H 303.997 -3.67688 -3.43241 0
M  V30 3152 H 303.697 -5.24675 -2.64556 0
M  V30 3153 H 305.221 -4.97654 -3.53798 0
M  V30 3154 H 306.635 -5.57271 -1.34618 0
M  V30 3155 H 305.032 -5.96471 -0.658928 0
M  V30 3156 H 306.102 -4.84473 0.203478 0
M  V30 3157 N 307.445 0.0818655 -1.57387 0
M  V30 3158 C 308.392 1.09834 -2.0299 0
M  V30 3159 C 309.362 1.39043 -0.908639 0
M  V30 3160 O 310.547 1.50282 -1.17559 0
M  V30 3161 C 307.687 2.40971 -2.47037 0
M  V30 3162 C 306.8 2.18379 -3.7274 0
M  V30 3163 C 305.935 3.43008 -4.0561 0
M  V30 3164 C 304.974 3.15736 -5.24383 0
M  V30 3165 N 304.111 4.32667 -5.52941 0
M  V30 3166 H 308.951 0.702472 -2.89602 0
M  V30 3167 H 306.488 0.33531 -1.43227 0
M  V30 3168 H 308.446 3.1752 -2.70623 0
M  V30 3169 H 307.076 2.78379 -1.63417 0
M  V30 3170 H 306.128 1.32569 -3.56552 0
M  V30 3171 H 307.44 1.94227 -4.59431 0
M  V30 3172 H 306.594 4.27958 -4.30043 0
M  V30 3173 H 305.333 3.70225 -3.17466 0
M  V30 3174 H 304.338 2.2918 -4.99757 0
M  V30 3175 H 305.563 2.8985 -6.14136 0
M  V30 3176 H 303.509 4.59935 -4.67756 0
M  V30 3177 H 303.426 4.11753 -6.34031 0
M  V30 3178 H 304.694 5.18644 -5.81918 0
M  V30 3179 N 308.923 1.53595 0.353017 0
M  V30 3180 C 310.151 1.74311 1.1146 0
M  V30 3181 C 310.566 0.477854 1.82653 0
M  V30 3182 O 309.923 -0.549977 1.74016 0
M  V30 3183 C 309.974 2.91694 2.13534 0
M  V30 3184 O 309.695 4.13325 1.45238 0
M  V30 3185 C 311.196 3.24384 3.02142 0
M  V30 3186 H 308.416 0.582669 0.332773 0
M  V30 3187 H 310.96 2.00386 0.408107 0
M  V30 3188 H 309.115 2.67977 2.79763 0
M  V30 3189 H 309.529 4.79148 2.13349 0
M  V30 3190 H 311.003 4.09893 3.69718 0
M  V30 3191 H 311.48 2.40282 3.67643 0
M  V30 3192 H 312.086 3.50073 2.41514 0
M  V30 3193 N 310.401 -0.613514 1.45168 0
M  V30 3194 C 311.334 -1.73809 1.47871 0
M  V30 3195 C 312.312 -1.59097 0.33568 0
M  V30 3196 O 313.496 -1.8074 0.535299 0
M  V30 3197 C 310.623 -3.11574 1.32813 0
M  V30 3198 C 309.669 -3.4489 2.50905 0
M  V30 3199 S 310.502 -3.40393 4.13392 0
M  V30 3200 C 311.658 -4.80749 4.00789 0
M  V30 3201 H 311.891 -1.71252 2.43023 0
M  V30 3202 H 309.424 -0.789658 1.32679 0
M  V30 3203 H 311.382 -3.91065 1.24812 0
M  V30 3204 H 310.043 -3.11652 0.391418 0
M  V30 3205 H 309.236 -4.45183 2.36279 0
M  V30 3206 H 308.838 -2.72901 2.55736 0
M  V30 3207 H 311.13 -5.7041 3.65567 0
M  V30 3208 H 312.073 -5.00431 5.00974 0
M  V30 3209 H 312.481 -4.56151 3.32545 0
M  V30 3210 N 311.879 -1.3236 -0.855495 0
M  V30 3211 C 312.809 -1.23833 -1.97958 0
M  V30 3212 C 313.79 -0.122361 -1.69659 0
M  V30 3213 O 314.975 -0.30939 -1.9172 0
M  V30 3214 C 312.105 -0.959772 -3.33775 0
M  V30 3215 C 311.059 -2.03689 -3.76424 0
M  V30 3216 C 310.385 -1.61075 -5.09862 0
M  V30 3217 C 311.685 -3.4518 -3.9198 0
M  V30 3218 H 313.379 -2.1788 -2.0535 0
M  V30 3219 H 310.925 -1.04891 -0.986605 0
M  V30 3220 H 312.878 -0.886678 -4.11966 0
M  V30 3221 H 311.602 0.0163404 -3.26596 0
M  V30 3222 H 310.261 -2.10012 -3.00484 0
M  V30 3223 H 309.909 -0.622107 -4.99138 0
M  V30 3224 H 309.609 -2.33143 -5.39368 0
M  V30 3225 H 311.133 -1.55201 -5.90546 0
M  V30 3226 H 312.547 -3.4145 -4.60526 0
M  V30 3227 H 310.944 -4.1559 -4.32903 0
M  V30 3228 H 312.014 -3.84903 -2.94919 0
M  V30 3229 N 313.357 1.07166 -1.15556 0
M  V30 3230 C 314.585 1.83514 -0.955519 0
M  V30 3231 C 315 1.82163 0.49621 0
M  V30 3232 O 314.357 1.23441 1.34419 0
M  V30 3233 C 314.408 3.30515 -1.46432 0
M  V30 3234 O 314.129 3.31937 -2.85918 0
M  V30 3235 C 315.63 4.23625 -1.30603 0
M  V30 3236 H 312.85 0.578926 -0.339244 0
M  V30 3237 H 315.394 1.35265 -1.53374 0
M  V30 3238 H 313.549 3.76106 -0.928584 0
M  V30 3239 H 313.963 4.23794 -3.09029 0
M  V30 3240 H 315.437 5.24831 -1.71047 0
M  V30 3241 H 315.914 4.38485 -0.250441 0
M  V30 3242 H 316.52 3.83871 -1.83094 0
M  V30 3243 N 314.835 0.952656 1.25548 0
M  V30 3244 C 315.745 0.47782 2.29682 0
M  V30 3245 C 316.761 -0.453859 1.67977 0
M  V30 3246 O 317.937 -0.330587 1.98668 0
M  V30 3247 C 315.002 -0.238655 3.45878 0
M  V30 3248 C 314.063 0.730994 4.23031 0
M  V30 3249 C 313.296 0.0486165 5.33678 0
M  V30 3250 O 313.519 -1.16612 5.58353 0
M  V30 3251 O 312.453 0.733152 5.97418 0
M  V30 3252 H 316.279 1.34312 2.72386 0
M  V30 3253 H 313.864 0.719026 1.30959 0
M  V30 3254 H 315.746 -0.641774 4.16484 0
M  V30 3255 H 314.421 -1.07916 3.05181 0
M  V30 3256 H 313.328 1.18428 3.5486 0
M  V30 3257 H 314.661 1.53946 4.67506 0
M  V30 3258 N 316.313 -1.40141 0.720998 0
M  V30 3259 C 317.59 -1.94677 0.189757 0
M  V30 3260 C 317.97 -1.65879 -1.30566 0
M  V30 3261 O 317.318 -0.979391 -2.06447 0
M  V30 3262 C 317.528 -3.45279 0.508304 0
M  V30 3263 C 318.876 -4.22209 0.449934 0
M  V30 3264 O 319.9 -3.53413 0.444677 0
M  V30 3265 O 318.759 -5.44788 0.432189 0
M  V30 3266 H 315.853 -0.826459 0.0299026 0
M  V30 3267 H 318.399 -1.49719 0.7989 0
M  V30 3268 H 317.171 -3.59619 1.54239 0
M  V30 3269 H 316.794 -3.97386 -0.130525 0
M  V30 3270 N 317.792 -0.46758 -1.50504 0
M  V30 3271 C 319.017 0.0886943 -2.0721 0
M  V30 3272 C 319.442 1.33057 -1.32956 0
M  V30 3273 O 318.8 1.77354 -0.376197 0
M  V30 3274 C 318.848 0.359202 -3.58806 0
M  V30 3275 O 317.952 1.44034 -3.8643 0
M  V30 3276 H 317.293 -0.0114349 -0.663902 0
M  V30 3277 H 319.823 -0.657613 -1.93744 0
M  V30 3278 H 319.833 0.600742 -4.03553 0
M  V30 3279 H 318.508 -0.548311 -4.1227 0
M  V30 3280 H 317.085 1.18638 -3.53524 0
M  V30 3281 N 319.27 1.56325 -0.20005 0
M  V30 3282 C 320.517 1.97719 0.437411 0
M  V30 3283 C 320.845 1.08709 1.61284 0
M  V30 3284 O 320.1 0.127261 1.95286 0
M  V30 3285 C 320.399 3.4495 0.935103 0
M  V30 3286 C 320.065 4.5072 -0.12749 0
M  V30 3287 C 318.727 4.79368 -0.419451 0
M  V30 3288 C 321.079 5.14268 -0.847231 0
M  V30 3289 C 318.407 5.68854 -1.43604 0
M  V30 3290 C 320.759 6.04852 -1.85301 0
M  V30 3291 C 319.423 6.31855 -2.15211 0
M  V30 3292 H 318.693 0.723507 0.16006 0
M  V30 3293 H 321.34 1.89166 -0.298056 0
M  V30 3294 H 319.645 3.50599 1.74894 0
M  V30 3295 H 321.342 3.74337 1.43781 0
M  V30 3296 H 317.932 4.28458 0.11023 0
M  V30 3297 H 322.116 4.92222 -0.634901 0
M  V30 3298 H 317.372 5.88047 -1.67364 0
M  V30 3299 H 321.546 6.53152 -2.41591 0
M  V30 3300 H 319.173 7.00994 -2.94129 0
M  V30 3301 N 320.748 -0.0735177 1.57428 0
M  V30 3302 C 321.973 -0.789787 1.91774 0
M  V30 3303 C 322.398 -1.70413 0.796306 0
M  V30 3304 O 321.756 -1.79555 -0.250961 0
M  V30 3305 C 321.804 -1.5609 3.25067 0
M  V30 3306 O 320.908 -2.67144 3.14178 0
M  V30 3307 H 320.249 -0.215582 0.628029 0
M  V30 3308 H 322.779 -0.0422781 2.04556 0
M  V30 3309 H 322.789 -1.94052 3.58898 0
M  V30 3310 H 321.464 -0.890015 4.06265 0
M  V30 3311 H 320.041 -2.32052 2.91901 0
M  V30 3312 N 322.226 -1.5378 -0.344866 0
M  V30 3313 C 323.189 -1.80981 -1.40637 0
M  V30 3314 C 324.189 -0.680816 -1.45676 0
M  V30 3315 O 325.379 -0.949095 -1.46075 0
M  V30 3316 C 322.511 -1.95063 -2.79577 0
M  V30 3317 H 323.704 -2.75803 -1.17783 0
M  V30 3318 H 321.257 -1.45173 -0.579181 0
M  V30 3319 H 321.992 -1.02379 -3.07716 0
M  V30 3320 H 321.777 -2.77198 -2.77315 0
M  V30 3321 H 323.267 -2.17629 -3.56409 0
M  V30 3322 N 323.704 0.605807 -1.45491 0
M  V30 3323 C 325.12 0.926751 -1.29936 0
M  V30 3324 C 325.32 1.99896 -0.253706 0
M  V30 3325 O 324.376 2.50038 0.351737 0
M  V30 3326 C 325.689 1.36599 -2.67883 0
M  V30 3327 C 327.237 1.4801 -2.75793 0
M  V30 3328 C 327.712 1.95309 -4.14268 0
M  V30 3329 N 329.203 2.0254 -4.16571 0
M  V30 3330 C 329.938 2.40363 -5.20589 0
M  V30 3331 N 329.434 2.77143 -6.34952 0
M  V30 3332 N 331.227 2.40718 -5.07948 0
M  V30 3333 H 323.378 -0.102862 -2.12151 0
M  V30 3334 H 325.641 0.016639 -0.947854 0
M  V30 3335 H 325.347 0.652306 -3.45598 0
M  V30 3336 H 325.221 2.33215 -2.96463 0
M  V30 3337 H 327.608 2.1847 -1.98381 0
M  V30 3338 H 327.689 0.497041 -2.50925 0
M  V30 3339 H 327.333 1.25436 -4.92167 0
M  V30 3340 H 327.263 2.94532 -4.3653 0
M  V30 3341 H 329.754 1.76699 -3.34045 0
M  V30 3342 H 330.067 3.0489 -7.10114 0
M  V30 3343 H 328.412 2.74834 -6.3835 0
M  V30 3344 H 331.603 2.11392 -4.1765 0
M  V30 3345 H 331.776 2.69869 -5.89131 0
M  V30 3346 N 325.182 1.32811 0.848464 0
M  V30 3347 C 326.129 1.22265 1.95755 0
M  V30 3348 C 327.099 0.103413 1.65778 0
M  V30 3349 O 328.284 0.280033 1.88734 0
M  V30 3350 C 325.424 0.958014 3.31536 0
M  V30 3351 C 324.537 2.16262 3.73971 0
M  V30 3352 C 323.672 1.83295 4.98575 0
M  V30 3353 C 322.711 3.00041 5.33518 0
M  V30 3354 N 321.848 2.67125 6.49299 0
M  V30 3355 H 326.688 2.17128 2.04107 0
M  V30 3356 H 324.225 1.07982 0.998913 0
M  V30 3357 H 326.183 0.785052 4.09747 0
M  V30 3358 H 324.813 0.046159 3.22767 0
M  V30 3359 H 323.865 2.44565 2.91362 0
M  V30 3360 H 325.177 3.03572 3.95785 0
M  V30 3361 H 324.331 1.62586 5.84509 0
M  V30 3362 H 323.07 0.932078 4.7871 0
M  V30 3363 H 322.075 3.21374 4.46093 0
M  V30 3364 H 323.3 3.90869 5.55336 0
M  V30 3365 H 321.246 1.79586 6.3094 0
M  V30 3366 H 321.163 3.47965 6.71161 0
M  V30 3367 H 322.431 2.49861 7.3837 0
M  V30 3368 N 326.66 -1.06551 1.16123 0
M  V30 3369 C 327.906 -1.79567 0.94252 0
M  V30 3370 C 328.239 -1.86869 -0.528547 0
M  V30 3371 O 327.514 -1.35838 -1.39206 0
M  V30 3372 C 327.797 -3.24195 1.56747 0
M  V30 3373 C 327.65 -3.24989 3.10969 0
M  V30 3374 C 328.969 -4.21678 1.25998 0
M  V30 3375 H 326.088 -0.651883 0.343828 0
M  V30 3376 H 328.73 -1.2463 1.43413 0
M  V30 3377 H 326.88 -3.71107 1.14942 0
M  V30 3378 H 328.552 -2.86258 3.61737 0
M  V30 3379 H 326.795 -2.63716 3.44436 0
M  V30 3380 H 327.466 -4.27005 3.49815 0
M  V30 3381 H 329.942 -3.83196 1.62174 0
M  V30 3382 H 328.818 -5.21146 1.7233 0
M  V30 3383 H 329.079 -4.4174 0.178367 0
M  V30 3384 N 328.138 -0.959301 -1.25041 0
M  V30 3385 C 329.363 -0.633507 -1.97488 0
M  V30 3386 C 329.788 0.788555 -1.70773 0
M  V30 3387 O 329.146 1.53394 -0.966431 0
M  V30 3388 C 329.194 -0.904057 -3.49083 0
M  V30 3389 O 328.298 0.0147939 -4.12397 0
M  V30 3390 H 327.639 -0.240368 -0.618966 0
M  V30 3391 H 330.169 -1.28717 -1.59038 0
M  V30 3392 H 330.179 -0.832203 -3.99423 0
M  V30 3393 H 328.854 -1.94048 -3.67856 0
M  V30 3394 H 327.431 -0.109664 -3.72739 0
M  V30 3395 N 329.616 1.39756 -0.72842 0
M  V30 3396 C 330.841 2.05472 -0.282159 0
M  V30 3397 C 331.266 1.54549 1.07221 0
M  V30 3398 O 330.624 0.686372 1.67805 0
M  V30 3399 C 330.672 3.59462 -0.286264 0
M  V30 3400 O 329.776 4.05918 0.728298 0
M  V30 3401 H 329.117 0.651226 -0.129618 0
M  V30 3402 H 331.647 1.78915 -0.992499 0
M  V30 3403 H 331.657 4.07798 -0.128373 0
M  V30 3404 H 330.332 3.95889 -1.27456 0
M  V30 3405 H 328.909 3.69012 0.537081 0
M  V30 3406 N 331.094 0.475555 1.50254 0
M  V30 3407 C 332.027 -0.362381 2.25304 0
M  V30 3408 C 333.005 -0.992393 1.28803 0
M  V30 3409 O 334.189 -1.02746 1.58036 0
M  V30 3410 C 331.316 -1.50813 3.03271 0
M  V30 3411 C 330.362 -0.995044 4.1473 0
M  V30 3412 S 331.195 0.0938436 5.35418 0
M  V30 3413 C 332.351 -1.05567 6.16933 0
M  V30 3414 H 332.584 0.274686 2.96028 0
M  V30 3415 H 330.117 0.260495 1.52187 0
M  V30 3416 H 332.075 -2.16476 3.48781 0
M  V30 3417 H 330.736 -2.11672 2.32064 0
M  V30 3418 H 329.929 -1.85293 4.68703 0
M  V30 3419 H 329.531 -0.416052 3.71679 0
M  V30 3420 H 331.823 -1.96636 6.48337 0
M  V30 3421 H 332.766 -0.555109 7.05921 0
M  V30 3422 H 333.174 -1.31151 5.49053 0
M  V30 3423 N 332.573 -1.56217 0.208337 0
M  V30 3424 C 333.483 -2.23316 -0.718836 0
M  V30 3425 C 334.499 -1.23648 -1.22422 0
M  V30 3426 O 335.675 -1.56423 -1.26861 0
M  V30 3427 C 332.74 -2.88968 -1.91568 0
M  V30 3428 C 331.801 -4.03943 -1.45357 0
M  V30 3429 C 331.034 -4.66455 -2.59337 0
M  V30 3430 O 331.257 -4.27919 -3.77149 0
M  V30 3431 O 330.191 -5.55686 -2.31293 0
M  V30 3432 H 334.017 -3.03182 -0.177315 0
M  V30 3433 H 331.602 -1.49384 -0.0215402 0
M  V30 3434 H 333.484 -3.30455 -2.61491 0
M  V30 3435 H 332.159 -2.12071 -2.44556 0
M  V30 3436 H 331.066 -3.67052 -0.722746 0
M  V30 3437 H 332.399 -4.82543 -0.970219 0
M  V30 3438 N 334.051 0.0651679 -1.57465 0
M  V30 3439 C 335.276 0.779605 -1.9219 0
M  V30 3440 C 335.701 1.69988 -0.805333 0
M  V30 3441 O 335.059 1.79685 0.241435 0
M  V30 3442 C 335.107 1.54364 -3.2589 0
M  V30 3443 O 334.211 2.65474 -3.1559 0
M  V30 3444 H 333.552 0.212249 -0.629163 0
M  V30 3445 H 336.082 0.0314294 -2.04576 0
M  V30 3446 H 336.092 1.92146 -3.59922 0
M  V30 3447 H 334.767 0.868457 -4.06732 0
M  V30 3448 H 333.344 2.30501 -2.93128 0
M  V30 3449 N 335.529 1.53961 0.336706 0
M  V30 3450 C 336.94 1.62914 0.911925 0
M  V30 3451 C 337.291 0.514795 1.89326 0
M  V30 3452 O 336.416 -0.354395 2.13478 0
M  V30 3453 C 337.011 2.95304 1.66076 0
M  V30 3454 C 335.57 3.06496 2.18489 0
M  V30 3455 C 334.717 2.58403 1.00613 0
M  V30 3456 H 337.668 1.58285 0.114649 0
M  V30 3457 H 337.689 2.84727 2.5241 0
M  V30 3458 H 337.201 3.76387 0.946276 0
M  V30 3459 H 335.302 2.3006 2.93092 0
M  V30 3460 H 335.415 4.1208 2.44391 0
M  V30 3461 H 333.779 2.13977 1.38152 0
M  V30 3462 H 334.562 3.41932 0.306179 0
M  V30 3463 N 337.007 -0.598083 1.45811 0
M  V30 3464 C 337.957 -1.70272 1.51629 0
M  V30 3465 C 338.941 -1.56382 0.378629 0
M  V30 3466 O 340.133 -1.65557 0.626087 0
M  V30 3467 C 337.262 -3.09042 1.49493 0
M  V30 3468 C 336.348 -3.28284 2.68496 0
M  V30 3469 N 336.739 -3.17748 3.93535 0
M  V30 3470 C 335.037 -3.59182 2.64394 0
M  V30 3471 C 335.738 -3.38579 4.7301 0
M  V30 3472 N 334.714 -3.63016 4.04624 0
M  V30 3473 H 338.516 -1.60634 2.46118 0
M  V30 3474 H 336.03 -0.801642 1.41235 0
M  V30 3475 H 338.027 -3.88302 1.51747 0
M  V30 3476 H 336.687 -3.19823 0.560683 0
M  V30 3477 H 337.698 -2.95944 4.25014 0
M  V30 3478 H 334.375 -3.76742 1.79922 0
M  V30 3479 H 335.765 -3.35747 5.82 0
M  V30 3480 N 338.485 -1.33259 -0.841409 0
M  V30 3481 C 339.762 -1.15174 -1.58096 0
M  V30 3482 C 340.142 0.282858 -2.09196 0
M  V30 3483 O 339.49 1.28151 -1.89181 0
M  V30 3484 C 339.7 -2.1907 -2.71679 0
M  V30 3485 C 341.048 -2.53093 -3.40924 0
M  V30 3486 O 342.072 -2.17717 -2.81918 0
M  V30 3487 O 340.931 -3.1379 -4.47435 0
M  V30 3488 H 338.025 -0.445303 -0.696875 0
M  V30 3489 H 340.571 -1.44833 -0.884385 0
M  V30 3490 H 339.343 -3.15443 -2.31541 0
M  V30 3491 H 338.966 -1.90481 -3.49002 0
M  V30 3492 N 339.963 1.05934 -1.16686 0
M  V30 3493 C 340.893 2.1546 -0.899949 0
M  V30 3494 C 341.874 1.69391 0.155154 0
M  V30 3495 O 343.059 1.94199 0.00648693 0
M  V30 3496 C 340.189 3.44939 -0.404241 0
M  V30 3497 C 339.143 4.04536 -1.39767 0
M  V30 3498 C 338.469 5.29268 -0.760216 0
M  V30 3499 C 339.769 4.42893 -2.76845 0
M  V30 3500 H 341.463 2.38046 -1.81588 0
M  V30 3501 H 339.009 1.14404 -0.874514 0
M  V30 3502 H 340.962 4.20901 -0.204971 0
M  V30 3503 H 339.686 3.21983 0.547206 0
M  V30 3504 H 338.345 3.30635 -1.58355 0
M  V30 3505 H 337.993 5.02611 0.197831 0
M  V30 3506 H 337.693 5.70101 -1.42332 0
M  V30 3507 H 339.217 6.07924 -0.57105 0
M  V30 3508 H 340.631 5.09921 -2.62019 0
M  V30 3509 H 339.028 4.94721 -3.39663 0
M  V30 3510 H 340.098 3.53584 -3.31823 0
M  V30 3511 N 341.441 0.965919 1.2453 0
M  V30 3512 C 342.687 0.62776 1.92839 0
M  V30 3513 C 343.02 -0.834694 1.75347 0
M  V30 3514 O 342.295 -1.60031 1.10546 0
M  V30 3515 C 342.578 1.00109 3.45905 0
M  V30 3516 C 342.431 2.52011 3.72573 0
M  V30 3517 C 343.75 0.53435 4.36844 0
M  V30 3518 H 340.869 0.229537 0.700344 0
M  V30 3519 H 343.511 1.2046 1.46933 0
M  V30 3520 H 341.661 0.510238 3.85135 0
M  V30 3521 H 343.333 3.08559 3.42912 0
M  V30 3522 H 341.576 2.95287 3.17786 0
M  V30 3523 H 342.247 2.73183 4.79661 0
M  V30 3524 H 344.723 0.955565 4.04979 0
M  V30 3525 H 343.599 0.824152 5.42678 0
M  V30 3526 H 343.86 -0.565589 4.38467 0
M  V30 3527 N 342.919 -1.39368 0.735821 0
M  V30 3528 C 344.165 -2.00794 0.284544 0
M  V30 3529 C 344.498 -1.58255 -1.12557 0
M  V30 3530 O 343.773 -0.811819 -1.76748 0
M  V30 3531 C 344.056 -3.58011 0.387337 0
M  V30 3532 C 343.909 -4.10566 1.83728 0
M  V30 3533 C 345.228 -4.395 -0.22975 0
M  V30 3534 H 342.347 -0.729501 0.104866 0
M  V30 3535 H 344.989 -1.65564 0.93213 0
M  V30 3536 H 343.139 -3.88154 -0.164006 0
M  V30 3537 H 344.811 -3.91139 2.44556 0
M  V30 3538 H 343.054 -3.64095 2.35833 0
M  V30 3539 H 343.725 -5.19702 1.86047 0
M  V30 3540 H 346.201 -4.15406 0.240257 0
M  V30 3541 H 345.077 -5.48752 -0.127485 0
M  V30 3542 H 345.338 -4.22062 -1.3159 0
M  V30 3543 N 344.397 -0.483516 -1.5 0
M  V30 3544 C 345.674 0.129337 -1.95172 0
M  V30 3545 C 346.054 1.55802 -1.4244 0
M  V30 3546 O 345.402 2.19625 -0.630649 0
M  V30 3547 C 345.612 0.0599251 -3.48949 0
M  V30 3548 C 346.96 0.242617 -4.23906 0
M  V30 3549 O 347.984 0.135933 -3.55941 0
M  V30 3550 O 346.843 0.459454 -5.44565 0
M  V30 3551 H 343.937 0.104887 -0.820322 0
M  V30 3552 H 346.483 -0.544807 -1.60717 0
M  V30 3553 H 345.255 -0.937079 -3.79914 0
M  V30 3554 H 344.878 0.774984 -3.89974 0
M  V30 3555 N 345.875 1.56104 -0.216619 0
M  V30 3556 C 347.103 2.02563 0.421413 0
M  V30 3557 C 347.518 1.0965 1.53695 0
M  V30 3558 O 346.875 0.10521 1.82196 0
M  V30 3559 C 346.926 3.48584 0.957665 0
M  V30 3560 O 346.647 4.37953 -0.113389 0
M  V30 3561 C 348.148 4.10664 1.66943 0
M  V30 3562 H 345.368 0.662944 0.103665 0
M  V30 3563 H 347.912 2.01793 -0.331629 0
M  V30 3564 H 346.067 3.49985 1.661 0
M  V30 3565 H 346.481 5.23704 0.288932 0
M  V30 3566 H 347.955 5.14622 1.99671 0
M  V30 3567 H 348.432 3.55373 2.58083 0
M  V30 3568 H 349.038 4.13098 1.01142 0
M  V30 3569 N 347.353 -0.0568162 1.57498 0
M  V30 3570 C 348.599 -0.75422 1.88253 0
M  V30 3571 C 348.932 -1.76461 0.810865 0
M  V30 3572 O 348.207 -1.93691 -0.177259 0
M  V30 3573 C 348.49 -1.44878 3.2967 0
M  V30 3574 C 348.343 -0.453789 4.47505 0
M  V30 3575 C 349.662 -2.38994 3.69554 0
M  V30 3576 H 346.781 -0.272724 0.684683 0
M  V30 3577 H 349.423 -0.0172113 1.89992 0
M  V30 3578 H 347.573 -2.077 3.28318 0
M  V30 3579 H 349.245 0.170371 4.60985 0
M  V30 3580 H 347.488 0.229552 4.33192 0
M  V30 3581 H 348.159 -0.977699 5.43273 0
M  V30 3582 H 350.635 -1.86239 3.72095 0
M  V30 3583 H 349.511 -2.84587 4.69363 0
M  V30 3584 H 349.772 -3.24461 3.00296 0
M  V30 3585 N 348.832 -1.54138 -0.328536 0
M  V30 3586 C 350.08 -1.71765 -1.06496 0
M  V30 3587 C 350.401 -0.49149 -1.88704 0
M  V30 3588 O 349.671 0.494539 -1.89555 0
M  V30 3589 H 348.251 -0.633295 -0.396164 0
M  V30 3590 H 350.913 -1.91429 -0.366176 0
M  V30 3591 H 350.009 -2.5951 -1.73381 0
M  V30 3592 N 350.31 0.590341 -1.46126 0
M  V30 3593 C 351.538 1.37504 -1.54597 0
M  V30 3594 C 351.953 1.87897 -0.184447 0
M  V30 3595 O 351.31 1.63192 0.816984 0
M  V30 3596 C 351.361 2.56779 -2.54454 0
M  V30 3597 O 351.082 2.08476 -3.85317 0
M  V30 3598 C 352.583 3.49427 -2.72792 0
M  V30 3599 H 349.803 0.420325 -0.523037 0
M  V30 3600 H 352.347 0.718383 -1.91467 0
M  V30 3601 H 350.502 3.1845 -2.20609 0
M  V30 3602 H 350.916 2.86097 -4.396 0
M  V30 3603 H 352.39 4.29619 -3.466 0
M  V30 3604 H 352.867 4.00876 -1.79429 0
M  V30 3605 H 353.473 2.93598 -3.07702 0
M  V30 3606 N 351.788 1.33704 0.83433 0
M  V30 3607 C 353.036 1.25169 1.58673 0
M  V30 3608 C 353.357 -0.18127 1.94156 0
M  V30 3609 O 352.627 -1.11113 1.6134 0
M  V30 3610 H 351.207 0.4603 0.58833 0
M  V30 3611 H 353.869 1.67478 0.996847 0
M  V30 3612 H 352.965 1.84856 2.51465 0
M  V30 3613 N 353.266 -1.05314 1.17247 0
M  V30 3614 C 354.496 -1.81707 0.983166 0
M  V30 3615 C 354.904 -1.83222 -0.471822 0
M  V30 3616 O 354.247 -1.25721 -1.3394 0
M  V30 3617 C 354.309 -3.29134 1.44606 0
M  V30 3618 C 353.973 -3.51304 2.92292 0
M  V30 3619 C 354.97 -3.4353 3.90235 0
M  V30 3620 C 352.655 -3.78306 3.30439 0
M  V30 3621 C 354.649 -3.62442 5.24323 0
M  V30 3622 C 352.336 -3.96866 4.64694 0
M  V30 3623 C 353.334 -3.88933 5.61445 0
M  V30 3624 O 353.022 -4.06976 6.93272 0
M  V30 3625 H 352.754 -0.579476 0.348114 0
M  V30 3626 H 355.308 -1.33705 1.55924 0
M  V30 3627 H 353.538 -3.78046 0.813537 0
M  V30 3628 H 355.227 -3.87049 1.22262 0
M  V30 3629 H 355.993 -3.22648 3.62109 0
M  V30 3630 H 351.872 -3.83585 2.55702 0
M  V30 3631 H 355.416 -3.56165 5.99827 0
M  V30 3632 H 351.313 -4.1724 4.92525 0
M  V30 3633 H 352.081 -4.24209 6.99992 0
M  V30 3634 N 354.744 -0.972509 -1.24016 0
M  V30 3635 C 355.694 -0.477561 -2.22942 0
M  V30 3636 C 356.678 0.44308 -1.54679 0
M  V30 3637 O 357.87 0.273219 -1.74879 0
M  V30 3638 C 354.999 0.226348 -3.42553 0
M  V30 3639 C 354.085 -0.713403 -4.18057 0
M  V30 3640 N 354.476 -1.8527 -4.70647 0
M  V30 3641 C 352.774 -0.525145 -4.42898 0
M  V30 3642 C 353.475 -2.44089 -5.28011 0
M  V30 3643 N 352.451 -1.72556 -5.15486 0
M  V30 3644 H 356.253 -1.34678 -2.61226 0
M  V30 3645 H 353.767 -0.832196 -1.39457 0
M  V30 3646 H 355.764 0.598184 -4.12586 0
M  V30 3647 H 354.424 1.09195 -3.05788 0
M  V30 3648 H 355.435 -2.2341 -4.67235 0
M  V30 3649 H 352.112 0.296096 -4.16449 0
M  V30 3650 H 353.502 -3.40259 -5.79374 0
M  V30 3651 N 356.222 1.38976 -0.743202 0
M  V30 3652 C 357.447 2.05161 -0.303936 0
M  V30 3653 C 357.872 1.55677 1.05576 0
M  V30 3654 O 357.23 0.704131 1.67068 0
M  V30 3655 C 357.278 3.59138 -0.324373 0
M  V30 3656 O 356.382 4.06668 0.685204 0
M  V30 3657 H 355.723 0.649815 -0.136518 0
M  V30 3658 H 358.253 1.77852 -1.01142 0
M  V30 3659 H 358.263 4.07639 -0.171618 0
M  V30 3660 H 356.938 3.94515 -1.31647 0
M  V30 3661 H 355.515 3.69561 0.497913 0
M  V30 3662 N 357.7 0.491464 1.49741 0
M  V30 3663 C 359.116 0.146835 1.58923 0
M  V30 3664 C 359.316 -1.34804 1.49767 0
M  V30 3665 O 358.372 -2.12317 1.36667 0
M  V30 3666 C 359.685 0.715157 2.92072 0
M  V30 3667 C 361.233 0.680407 3.05515 0
M  V30 3668 C 361.708 1.22663 4.41269 0
M  V30 3669 N 363.199 1.18691 4.47735 0
M  V30 3670 C 363.934 1.57984 5.51207 0
M  V30 3671 N 363.43 2.04824 6.6183 0
M  V30 3672 N 365.223 1.49459 5.41866 0
M  V30 3673 H 357.374 1.46347 1.53936 0
M  V30 3674 H 359.637 0.606453 0.728642 0
M  V30 3675 H 359.343 1.76317 3.04311 0
M  V30 3676 H 359.217 0.17018 3.76816 0
M  V30 3677 H 361.604 -0.358743 2.92911 0
M  V30 3678 H 361.685 1.26242 2.22478 0
M  V30 3679 H 361.329 2.26451 4.54623 0
M  V30 3680 H 361.259 0.620637 5.2293 0
M  V30 3681 H 363.75 0.843605 3.68364 0
M  V30 3682 H 364.063 2.32901 7.3687 0
M  V30 3683 H 362.408 2.08791 6.62896 0
M  V30 3684 H 365.599 1.12692 4.54333 0
M  V30 3685 H 365.772 1.80406 6.22381 0
M  V30 3686 N 359.178 -1.55987 0.224894 0
M  V30 3687 C 360.425 -1.9839 -0.4059 0
M  V30 3688 C 360.753 -1.11261 -1.59535 0
M  V30 3689 O 360.008 -0.158314 -1.95059 0
M  V30 3690 C 360.307 -3.46394 -0.880106 0
M  V30 3691 C 359.973 -4.5046 0.19918 0
M  V30 3692 C 358.635 -4.7864 0.495661 0
M  V30 3693 C 360.987 -5.12855 0.928939 0
M  V30 3694 C 358.315 -5.66497 1.52636 0
M  V30 3695 C 360.667 -6.01828 1.949 0
M  V30 3696 C 359.331 -6.28351 2.25236 0
M  V30 3697 H 358.601 -0.725961 -0.148529 0
M  V30 3698 H 361.248 -1.88668 0.328113 0
M  V30 3699 H 359.553 -3.53337 -1.69294 0
M  V30 3700 H 361.25 -3.76577 -1.37808 0
M  V30 3701 H 357.84 -4.28579 -0.0420526 0
M  V30 3702 H 362.024 -4.9115 0.713129 0
M  V30 3703 H 357.28 -5.8531 1.76698 0
M  V30 3704 H 361.454 -6.49225 2.51951 0
M  V30 3705 H 359.081 -6.96226 3.05244 0
M  V30 3706 N 360.656 0.0484629 -1.57525 0
M  V30 3707 C 361.904 0.741657 -1.88 0
M  V30 3708 C 362.225 1.76918 -0.820054 0
M  V30 3709 O 361.495 1.95335 0.148661 0
M  V30 3710 H 360.075 0.276908 -0.69378 0
M  V30 3711 H 362.737 0.019013 -1.94891 0
M  V30 3712 H 361.833 1.24336 -2.86264 0
M  V30 3713 N 362.134 1.5431 0.320358 0
M  V30 3714 C 363.359 1.76954 1.08175 0
M  V30 3715 C 363.784 0.518193 1.80821 0
M  V30 3716 O 363.142 -0.530411 1.73368 0
M  V30 3717 C 363.19 2.96451 2.05303 0
M  V30 3718 O 362.294 2.68221 3.13259 0
M  V30 3719 H 361.635 0.586275 0.311733 0
M  V30 3720 H 364.165 2.01342 0.363676 0
M  V30 3721 H 364.175 3.23887 2.48116 0
M  V30 3722 H 362.85 3.87196 1.51829 0
M  V30 3723 H 361.427 2.51744 2.75099 0
M  V30 3724 N 363.613 -0.582584 1.46437 0
M  V30 3725 C 364.89 -1.34276 1.4223 0
M  V30 3726 C 365.27 -2.10835 0.10583 0
M  V30 3727 O 364.618 -2.09485 -0.912596 0
M  V30 3728 C 364.828 -2.26865 2.65204 0
M  V30 3729 C 366.176 -2.88691 3.11356 0
M  V30 3730 O 367.2 -2.37178 2.65753 0
M  V30 3731 O 366.059 -3.82255 3.90568 0
M  V30 3732 H 363.153 -0.603326 0.565621 0
M  V30 3733 H 365.699 -0.603591 1.58603 0
M  V30 3734 H 364.471 -1.69724 3.52576 0
M  V30 3735 H 364.094 -3.08122 2.5129 0
M  V30 3736 N 365.091 -1.34144 -0.827227 0
M  V30 3737 C 366.054 -1.25264 -1.91942 0
M  V30 3738 C 367.054 -0.168866 -1.59911 0
M  V30 3739 O 368.244 -0.421198 -1.69031 0
M  V30 3740 C 365.376 -0.932952 -3.27885 0
M  V30 3741 H 366.569 -2.22357 -2.0124 0
M  V30 3742 H 364.122 -1.1837 -1.0207 0
M  V30 3743 H 364.857 0.0349917 -3.24281 0
M  V30 3744 H 364.642 -1.71682 -3.52516 0
M  V30 3745 H 366.132 -0.895874 -4.07877 0
M  V30 3746 N 366.569 1.04691 -1.17803 0
M  V30 3747 C 367.479 2.16057 -0.914151 0
M  V30 3748 C 368.495 1.73589 0.119503 0
M  V30 3749 O 369.671 2.01308 -0.0609468 0
M  V30 3750 C 366.736 3.4394 -0.436603 0
M  V30 3751 C 365.797 4.00825 -1.53746 0
M  V30 3752 C 365.03 5.22604 -1.0826 0
M  V30 3753 O 365.253 5.70367 0.0612244 0
M  V30 3754 O 364.187 5.7186 -1.87775 0
M  V30 3755 H 368.013 2.41169 -1.84584 0
M  V30 3756 H 365.598 1.1453 -0.959334 0
M  V30 3757 H 367.48 4.21024 -0.178057 0
M  V30 3758 H 366.155 3.20316 0.466869 0
M  V30 3759 H 365.062 3.25158 -1.84995 0
M  V30 3760 H 366.395 4.28778 -2.41683 0
M  V30 3761 N 368.047 0.979072 1.23499 0
M  V30 3762 C 369.01 0.523244 2.23147 0
M  V30 3763 C 370.01 -0.386406 1.56088 0
M  V30 3764 O 371.2 -0.180283 1.73265 0
M  V30 3765 C 368.332 -0.240739 3.40049 0
M  V30 3766 H 369.525 1.40432 2.64989 0
M  V30 3767 H 367.078 0.764824 1.36309 0
M  V30 3768 H 367.813 -1.13841 3.03662 0
M  V30 3769 H 367.598 0.412207 3.89927 0
M  V30 3770 H 369.088 -0.548297 4.13985 0
M  V30 3771 N 369.525 -1.3858 0.750561 0
M  V30 3772 C 370.75 -2.04997 0.314812 0
M  V30 3773 C 371.175 -1.56235 -1.04749 0
M  V30 3774 O 370.533 -0.712981 -1.66692 0
M  V30 3775 C 370.581 -3.58961 0.343415 0
M  V30 3776 O 369.685 -4.07025 -0.663628 0
M  V30 3777 H 369.026 -0.649081 0.139962 0
M  V30 3778 H 371.556 -1.77313 1.02084 0
M  V30 3779 H 371.566 -4.07542 0.193233 0
M  V30 3780 H 370.241 -3.93811 1.33738 0
M  V30 3781 H 368.818 -3.6982 -0.478307 0
M  V30 3782 N 371.003 -0.499398 -1.49478 0
M  V30 3783 C 372.249 0.0457576 -2.02748 0
M  V30 3784 C 372.582 1.36793 -1.37846 0
M  V30 3785 O 371.857 1.87596 -0.513601 0
M  V30 3786 C 372.14 0.199986 -3.59544 0
M  V30 3787 C 371.993 -1.1452 -4.34977 0
M  V30 3788 C 373.312 0.94137 -4.29914 0
M  V30 3789 H 370.431 0.0151552 -0.736844 0
M  V30 3790 H 373.073 -0.650498 -1.78518 0
M  V30 3791 H 371.223 0.793007 -3.8032 0
M  V30 3792 H 372.895 -1.77697 -4.25701 0
M  V30 3793 H 371.138 -1.73488 -3.97598 0
M  V30 3794 H 371.809 -0.990607 -5.43039 0
M  V30 3795 H 374.285 0.43844 -4.13784 0
M  V30 3796 H 373.161 1.01812 -5.39375 0
M  V30 3797 H 373.422 1.98471 -3.95046 0
M  V30 3798 N 372.481 1.55866 -0.233164 0
M  V30 3799 C 373.414 2.16794 0.712442 0
M  V30 3800 C 374.392 1.1158 1.18273 0
M  V30 3801 O 375.576 1.39897 1.26337 0
M  V30 3802 C 372.703 2.75757 1.96661 0
M  V30 3803 C 371.749 3.93902 1.63533 0
M  V30 3804 S 372.582 5.30223 0.74995 0
M  V30 3805 C 373.738 5.92631 2.01343 0
M  V30 3806 H 373.971 2.96662 0.194617 0
M  V30 3807 H 371.504 1.5439 -0.0177425 0
M  V30 3808 H 373.462 3.10367 2.68668 0
M  V30 3809 H 372.123 1.9586 2.45556 0
M  V30 3810 H 371.316 4.33702 2.56747 0
M  V30 3811 H 370.918 3.60499 0.995804 0
M  V30 3812 H 373.21 6.09312 2.96219 0
M  V30 3813 H 374.153 6.88388 1.65915 0
M  V30 3814 H 374.561 5.21571 2.15925 0
M  V30 3815 N 373.959 -0.0401083 1.57549 0
M  V30 3816 C 374.889 -1.04384 2.08869 0
M  V30 3817 C 375.87 -1.38407 0.988817 0
M  V30 3818 O 377.055 -1.47483 1.26342 0
M  V30 3819 C 374.185 -2.34808 2.55895 0
M  V30 3820 C 373.139 -2.15057 3.70047 0
M  V30 3821 C 372.465 -3.51145 4.03239 0
M  V30 3822 C 373.765 -1.54576 4.98902 0
M  V30 3823 H 375.459 -0.616666 2.92981 0
M  V30 3824 H 373.005 -0.295184 1.40942 0
M  V30 3825 H 374.958 -3.05346 2.90417 0
M  V30 3826 H 373.682 -2.79565 1.68853 0
M  V30 3827 H 372.341 -1.46954 3.35857 0
M  V30 3828 H 371.989 -3.93529 3.13279 0
M  V30 3829 H 371.689 -3.38758 4.80122 0
M  V30 3830 H 373.213 -4.23062 4.40285 0
M  V30 3831 H 374.627 -2.15017 5.31451 0
M  V30 3832 H 373.024 -1.52796 5.80322 0
M  V30 3833 H 374.094 -0.51039 4.82206 0
M  V30 3834 N 375.437 -1.54477 -0.31217 0
M  V30 3835 C 376.384 -1.84655 -1.38461 0
M  V30 3836 C 377.354 -0.694536 -1.50882 0
M  V30 3837 O 378.539 -0.942081 -1.6592 0
M  V30 3838 C 375.679 -2.0896 -2.74645 0
M  V30 3839 C 374.792 -3.36618 -2.70763 0
M  V30 3840 C 373.927 -3.50824 -3.98868 0
M  V30 3841 C 372.966 -4.72315 -3.89339 0
M  V30 3842 N 372.103 -4.83387 -5.09197 0
M  V30 3843 H 376.943 -2.76142 -1.12026 0
M  V30 3844 H 374.48 -1.36748 -0.542065 0
M  V30 3845 H 376.438 -2.21045 -3.53829 0
M  V30 3846 H 375.068 -1.20752 -2.99364 0
M  V30 3847 H 374.12 -3.33211 -1.83506 0
M  V30 3848 H 375.432 -4.25917 -2.59608 0
M  V30 3849 H 374.586 -3.62513 -4.86486 0
M  V30 3850 H 373.325 -2.59638 -4.12843 0
M  V30 3851 H 372.33 -4.6067 -3.00105 0
M  V30 3852 H 373.555 -5.64897 -3.76919 0
M  V30 3853 H 371.501 -3.9512 -5.23657 0
M  V30 3854 H 371.418 -5.66669 -5.00422 0
M  V30 3855 H 372.686 -4.9942 -5.98498 0
M  V30 3856 N 376.915 0.57481 -1.46744 0
M  V30 3857 C 378.331 0.898981 -1.31873 0
M  V30 3858 C 378.531 1.99313 -0.29605 0
M  V30 3859 O 377.587 2.50728 0.298621 0
M  V30 3860 C 378.9 1.30886 -2.7072 0
M  V30 3861 C 380.448 1.42127 -2.78871 0
M  V30 3862 C 380.923 1.86478 -4.18318 0
M  V30 3863 N 382.414 1.93658 -4.20774 0
M  V30 3864 C 383.149 2.29267 -5.2557 0
M  V30 3865 N 382.645 2.63612 -6.40688 0
M  V30 3866 N 384.438 2.29889 -5.1294 0
M  V30 3867 H 376.589 -0.147839 -2.11885 0
M  V30 3868 H 378.852 -0.00347013 -0.947994 0
M  V30 3869 H 378.558 0.578853 -3.46904 0
M  V30 3870 H 378.432 2.26874 -3.01343 0
M  V30 3871 H 380.819 2.14213 -2.0297 0
M  V30 3872 H 380.9 0.443705 -2.51922 0
M  V30 3873 H 380.544 1.14968 -4.94717 0
M  V30 3874 H 380.474 2.85207 -4.42679 0
M  V30 3875 H 382.965 1.69574 -3.37718 0
M  V30 3876 H 383.278 2.89759 -7.16421 0
M  V30 3877 H 381.623 2.61232 -6.44036 0
M  V30 3878 H 384.814 2.02485 -4.22039 0
M  V30 3879 H 384.987 2.57312 -5.94722 0
M  V30 3880 N 378.394 1.34581 0.820102 0
M  V30 3881 C 379.357 1.2628 1.91275 0
M  V30 3882 C 380.357 0.177344 1.59819 0
M  V30 3883 O 381.547 0.430156 1.68806 0
M  V30 3884 C 378.679 0.950327 3.27386 0
M  V30 3885 H 379.872 2.23421 2.00057 0
M  V30 3886 H 377.425 1.1891 1.0144 0
M  V30 3887 H 378.16 -0.0177938 3.24295 0
M  V30 3888 H 377.945 1.73549 3.51601 0
M  V30 3889 H 379.435 0.917492 4.07396 0
M  V30 3890 N 379.872 -1.04064 1.18357 0
M  V30 3891 C 381.149 -1.74252 0.888581 0
M  V30 3892 C 381.529 -2.02138 -0.60856 0
M  V30 3893 O 380.877 -1.66656 -1.56327 0
M  V30 3894 C 381.087 -3.0277 1.73584 0
M  V30 3895 C 382.435 -3.76506 1.96286 0
M  V30 3896 O 383.459 -3.12668 1.70637 0
M  V30 3897 O 382.318 -4.91243 2.39464 0
M  V30 3898 H 379.412 -0.758271 0.330082 0
M  V30 3899 H 381.958 -1.1013 1.2911 0
M  V30 3900 H 380.73 -2.78299 2.75073 0
M  V30 3901 H 380.353 -3.74631 1.33183 0
M  V30 3902 N 381.35 -0.985608 -1.22978 0
M  V30 3903 C 382.598 -0.656087 -1.91154 0
M  V30 3904 C 382.919 0.813561 -1.77218 0
M  V30 3905 O 382.189 1.58244 -1.1548 0
M  V30 3906 H 380.769 -0.239674 -0.707506 0
M  V30 3907 H 383.431 -1.25054 -1.49491 0
M  V30 3908 H 382.527 -0.912253 -2.9847 0
M  V30 3909 N 382.828 1.3818 -0.7579 0
M  V30 3910 C 384.053 2.04827 -0.325679 0
M  V30 3911 C 384.478 1.56788 1.03919 0
M  V30 3912 O 383.836 0.721811 1.66312 0
M  V30 3913 C 383.884 3.58774 -0.362447 0
M  V30 3914 O 382.988 4.07372 0.642033 0
M  V30 3915 H 382.329 0.64833 -0.143402 0
M  V30 3916 H 384.859 1.7677 -1.03023 0
M  V30 3917 H 384.869 4.07434 -0.214844 0
M  V30 3918 H 383.544 3.93096 -1.35824 0
M  V30 3919 H 382.121 3.70068 0.458688 0
M  V30 3920 N 384.306 0.507319 1.49211 0
M  V30 3921 C 385.216 -0.272136 2.33016 0
M  V30 3922 C 386.232 -0.961206 1.45041 0
M  V30 3923 O 387.408 -0.941191 1.78055 0
M  V30 3924 C 384.473 -1.31895 3.20631 0
M  V30 3925 C 383.534 -0.642648 4.24463 0
M  V30 3926 C 382.767 -1.63959 5.07891 0
M  V30 3927 O 382.99 -2.87007 4.92933 0
M  V30 3928 O 381.924 -1.19143 5.8999 0
M  V30 3929 H 385.75 0.413982 3.00865 0
M  V30 3930 H 383.335 0.268556 1.46966 0
M  V30 3931 H 385.217 -1.92446 3.7489 0
M  V30 3932 H 383.892 -1.98788 2.5547 0
M  V30 3933 H 382.799 0.00276252 3.741 0
M  V30 3934 H 384.132 -0.0160534 4.92197 0
M  V30 3935 N 385.784 -1.5574 0.241426 0
M  V30 3936 C 386.714 -2.24133 -0.654722 0
M  V30 3937 C 387.695 -1.21974 -1.1856 0
M  V30 3938 O 388.88 -1.50612 -1.22595 0
M  V30 3939 C 386.01 -2.93659 -1.85423 0
M  V30 3940 C 384.964 -4.0246 -1.45636 0
M  V30 3941 C 384.29 -4.59383 -2.73626 0
M  V30 3942 C 385.59 -5.18468 -0.631506 0
M  V30 3943 H 387.284 -2.99281 -0.0844353 0
M  V30 3944 H 384.83 -1.43947 -0.0391707 0
M  V30 3945 H 386.783 -3.40203 -2.48676 0
M  V30 3946 H 385.507 -2.15991 -2.44981 0
M  V30 3947 H 384.166 -3.56676 -0.847202 0
M  V30 3948 H 383.814 -3.78422 -3.3137 0
M  V30 3949 H 383.514 -5.32826 -2.4773 0
M  V30 3950 H 385.038 -5.08658 -3.37786 0
M  V30 3951 H 386.452 -5.61272 -1.1682 0
M  V30 3952 H 384.849 -5.98266 -0.468831 0
M  V30 3953 H 385.919 -4.8358 0.357506 0
M  V30 3954 N 387.262 0.0317525 -1.57568 0
M  V30 3955 C 388.487 0.738664 -1.938 0
M  V30 3956 C 388.912 1.68242 -0.841208 0
M  V30 3957 O 388.27 1.80157 0.203267 0
M  V30 3958 C 388.318 1.47417 -3.29091 0
M  V30 3959 O 387.422 2.5872 -3.2115 0
M  V30 3960 H 386.763 0.198856 -0.633524 0
M  V30 3961 H 389.293 -0.0119713 -2.04596 0
M  V30 3962 H 389.303 1.84468 -3.63917 0
M  V30 3963 H 387.978 0.781988 -4.08482 0
M  V30 3964 H 386.555 2.24231 -2.97951 0
M  V30 3965 N 388.74 1.54641 0.303973 0
M  V30 3966 C 389.69 1.8177 1.37636 0
M  V30 3967 C 390.674 0.674697 1.46071 0
M  V30 3968 O 391.866 0.935251 1.50273 0
M  V30 3969 C 388.995 2.06584 2.74186 0
M  V30 3970 C 388.081 3.2706 2.69986 0
M  V30 3971 N 388.472 4.47682 2.35402 0
M  V30 3972 C 386.77 3.29028 3.01092 0
M  V30 3973 C 387.471 5.29689 2.40426 0
M  V30 3974 N 386.447 4.67339 2.7766 0
M  V30 3975 H 390.249 2.72596 1.09857 0
M  V30 3976 H 387.763 1.541 0.51254 0
M  V30 3977 H 389.76 2.24166 3.51504 0
M  V30 3978 H 388.42 1.17024 3.02879 0
M  V30 3979 H 389.431 4.74336 2.07908 0
M  V30 3980 H 386.108 2.49565 3.34699 0
M  V30 3981 H 387.498 6.3606 2.16512 0
M  V30 3982 N 390.218 -0.567019 1.47046 0
M  V30 3983 C 391.634 -0.891975 1.32348 0
M  V30 3984 C 391.834 -1.99154 0.306616 0
M  V30 3985 O 390.89 -2.50883 -0.28532 0
M  V30 3986 C 392.203 -1.29449 2.7141 0
M  V30 3987 C 393.751 -1.40646 2.79621 0
M  V30 3988 C 394.226 -1.84257 4.19301 0
M  V30 3989 N 395.717 -1.91424 4.21795 0
M  V30 3990 C 396.452 -2.26476 5.26779 0
M  V30 3991 N 395.948 -2.60211 6.42077 0
M  V30 3992 N 397.741 -2.27166 5.14152 0
M  V30 3993 H 389.892 0.159074 2.11803 0
M  V30 3994 H 392.155 0.00849752 0.947962 0
M  V30 3995 H 391.861 -0.560448 3.47206 0
M  V30 3996 H 391.735 -2.25273 3.02542 0
M  V30 3997 H 394.122 -2.13133 2.04104 0
M  V30 3998 H 394.203 -0.430339 2.52154 0
M  V30 3999 H 393.847 -1.12343 4.95319 0
M  V30 4000 H 393.777 -2.82855 4.44185 0
M  V30 4001 H 396.268 -1.6778 3.38612 0
M  V30 4002 H 396.581 -2.85956 7.17948 0
M  V30 4003 H 394.926 -2.57813 6.45413 0
M  V30 4004 H 398.117 -2.00244 4.23107 0
M  V30 4005 H 398.29 -2.54154 5.96079 0
M  V30 4006 N 391.696 -1.35014 -0.812953 0
M  V30 4007 C 392.606 -1.2951 -1.95613 0
M  V30 4008 C 393.622 -0.20107 -1.72834 0
M  V30 4009 O 394.798 -0.42932 -1.96771 0
M  V30 4010 C 391.863 -1.06033 -3.30088 0
M  V30 4011 C 390.924 -2.24688 -3.65805 0
M  V30 4012 C 390.157 -2.02322 -4.93864 0
M  V30 4013 O 390.38 -0.986464 -5.61805 0
M  V30 4014 O 389.314 -2.89525 -5.27692 0
M  V30 4015 H 393.14 -2.25705 -2.03202 0
M  V30 4016 H 390.725 -1.15321 -0.949811 0
M  V30 4017 H 392.607 -0.94763 -4.10607 0
M  V30 4018 H 391.282 -0.128852 -3.23443 0
M  V30 4019 H 390.189 -2.41521 -2.85689 0
M  V30 4020 H 391.522 -3.16261 -3.77147 0
M  V30 4021 N 393.175 1.03435 -1.18907 0
M  V30 4022 C 394.422 1.76743 -0.988334 0
M  V30 4023 C 394.75 1.88447 0.481441 0
M  V30 4024 O 394.005 1.39383 1.37371 0
M  V30 4025 C 394.304 3.19792 -1.59586 0
M  V30 4026 C 393.97 3.28108 -3.09283 0
M  V30 4027 C 392.632 3.30084 -3.5014 0
M  V30 4028 C 394.984 3.27696 -4.05296 0
M  V30 4029 C 392.312 3.29299 -4.85571 0
M  V30 4030 C 394.664 3.28451 -5.4065 0
M  V30 4031 C 393.328 3.28723 -5.80946 0
M  V30 4032 H 392.598 0.64675 -0.361657 0
M  V30 4033 H 395.245 1.21442 -1.48068 0
M  V30 4034 H 393.55 3.78136 -1.02568 0
M  V30 4035 H 395.247 3.75171 -1.41589 0
M  V30 4036 H 391.837 3.27294 -2.76725 0
M  V30 4037 H 396.021 3.25354 -3.74778 0
M  V30 4038 H 391.277 3.2783 -5.16079 0
M  V30 4039 H 395.451 3.27082 -6.14809 0
M  V30 4040 H 393.078 3.27868 -6.85862 0
M  V30 4041 N 394.653 0.992116 1.22453 0
M  V30 4042 C 395.902 0.662992 1.90492 0
M  V30 4043 C 396.215 -0.808407 1.78113 0
M  V30 4044 O 397.421 -1.24908 2.41061 0
M  V30 4045 C 395.877 1.1353 3.41524 0
M  V30 4046 C 395.485 2.63187 3.62542 0
M  V30 4047 C 397.229 0.880465 4.15269 0
M  V30 4048 C 395.136 3.04024 5.0727 0
M  V30 4049 H 394.066 0.244278 0.713333 0
M  V30 4050 H 396.717 1.20157 1.38688 0
M  V30 4051 H 395.099 0.52485 3.92506 0
M  V30 4052 H 396.273 3.2957 3.22056 0
M  V30 4053 H 394.588 2.86543 3.02129 0
M  V30 4054 H 397.185 1.16128 5.21937 0
M  V30 4055 H 397.528 -0.183408 4.15896 0
M  V30 4056 H 398.061 1.45307 3.70312 0
M  V30 4057 H 394.8 4.09584 5.11782 0
M  V30 4058 H 394.32 2.42343 5.48662 0
M  V30 4059 H 395.999 2.95282 5.75689 0
M  V30 4060 N 396.131 -1.37776 0.765217 0
M  V30 4061 C 397.408 -1.93975 0.251596 0
M  V30 4062 C 397.788 -1.69949 -1.25222 0
M  V30 4063 O 397.136 -1.04457 -2.03226 0
M  V30 4064 C 397.346 -3.43487 0.617895 0
M  V30 4065 C 398.694 -4.20564 0.584029 0
M  V30 4066 O 399.718 -3.5182 0.556888 0
M  V30 4067 O 398.577 -5.43138 0.605291 0
M  V30 4068 H 395.671 -0.82509 0.0561806 0
M  V30 4069 H 398.217 -1.47101 0.846128 0
M  V30 4070 H 396.989 -3.5453 1.65602 0
M  V30 4071 H 396.612 -3.976 -0.00403411 0
M  V30 4072 N 397.609 -0.515225 -1.4894 0
M  V30 4073 C 398.839 0.0205735 -2.0659 0
M  V30 4074 C 399.247 1.30064 -1.37405 0
M  V30 4075 O 398.59 1.78087 -0.450632 0
M  V30 4076 C 398.652 0.330124 -3.57981 0
M  V30 4077 C 398.316 -0.854295 -4.48944 0
M  V30 4078 C 399.313 -1.7487 -4.89609 0
M  V30 4079 C 396.998 -1.05712 -4.9105 0
M  V30 4080 C 398.992 -2.82996 -5.71132 0
M  V30 4081 C 396.679 -2.14154 -5.72347 0
M  V30 4082 C 397.677 -3.0263 -6.12294 0
M  V30 4083 O 397.365 -4.09198 -6.91962 0
M  V30 4084 H 397.097 -0.0236833 -0.675585 0
M  V30 4085 H 399.651 -0.715956 -1.92518 0
M  V30 4086 H 397.881 1.12044 -3.70112 0
M  V30 4087 H 399.57 0.806233 -3.97812 0
M  V30 4088 H 400.336 -1.60388 -4.57712 0
M  V30 4089 H 396.215 -0.377788 -4.59449 0
M  V30 4090 H 399.759 -3.52083 -6.02232 0
M  V30 4091 H 395.656 -2.28626 -6.03656 0
M  V30 4092 H 396.424 -4.06726 -7.10293 0
M  V30 4093 N 399.087 1.5561 -0.249682 0
M  V30 4094 C 400.333 1.99306 0.374841 0
M  V30 4095 C 400.666 1.13767 1.57387 0
M  V30 4096 O 399.941 0.201711 1.93451 0
M  V30 4097 C 400.224 3.51507 0.781986 0
M  V30 4098 C 400.077 4.4781 -0.422629 0
M  V30 4099 C 401.396 4.08884 1.62793 0
M  V30 4100 H 398.515 0.724572 0.134773 0
M  V30 4101 H 401.157 1.86719 -0.351549 0
M  V30 4102 H 399.307 3.62363 1.4009 0
M  V30 4103 H 400.979 4.48931 -1.06108 0
M  V30 4104 H 399.222 4.20518 -1.06524 0
M  V30 4105 H 399.893 5.51919 -0.0943766 0
M  V30 4106 H 402.369 4.01147 1.10547 0
M  V30 4107 H 401.245 5.1564 1.88166 0
M  V30 4108 H 401.506 3.57515 2.60068 0
M  V30 4109 N 400.565 -0.0233959 1.57583 0
M  V30 4110 C 401.498 -1.05549 2.02323 0
M  V30 4111 C 402.476 -1.34843 0.908626 0
M  V30 4112 O 403.66 -1.47404 1.17491 0
M  V30 4113 C 400.787 -2.38885 2.40108 0
M  V30 4114 C 399.833 -2.2541 3.62067 0
M  V30 4115 S 400.666 -1.60217 5.1097 0
M  V30 4116 C 401.822 -2.95032 5.52003 0
M  V30 4117 H 402.055 -0.674435 2.89549 0
M  V30 4118 H 399.588 -0.23355 1.52623 0
M  V30 4119 H 401.546 -3.15562 2.62547 0
M  V30 4120 H 400.207 -2.74137 1.53323 0
M  V30 4121 H 399.4 -3.23854 3.86179 0
M  V30 4122 H 399.002 -1.56876 3.39508 0
M  V30 4123 H 401.294 -3.91357 5.53033 0
M  V30 4124 H 402.237 -2.75646 6.52246 0
M  V30 4125 H 402.645 -2.97865 4.79517 0
M  V30 4126 N 402.043 -1.548 -0.295768 0
M  V30 4127 C 402.991 -1.86874 -1.38495 0
M  V30 4128 C 403.985 -0.742938 -1.52239 0
M  V30 4129 O 405.191 -0.926999 -1.54294 0
M  V30 4130 H 401.566 -0.592786 -0.462719 0
M  V30 4131 H 403.537 -2.77904 -1.08682 0
M  V30 4132 C 402.286 -2.13732 -2.74252 0
M  V30 4133 H 401.609 -2.99835 -2.64459 0
M  V30 4134 H 403.049 -2.4011 -3.49461 0
M  V30 4135 C 401.508 -0.937539 -3.23592 0
M  V30 4136 O 402.038 -0.160665 -4.01379 0
M  V30 4137 N 400.244 -0.741478 -2.80981 0
M  V30 4138 H 399.791 -1.37489 -2.1784 0
M  V30 4139 H 399.749 0.0597103 -3.14343 0
M  V30 4140 N 403.521 0.559213 -1.47345 0
M  V30 4141 C 404.768 1.31648 -1.53867 0
M  V30 4142 C 405.096 1.93468 -0.200104 0
M  V30 4143 O 404.351 1.78295 0.806799 0
M  V30 4144 C 404.65 2.44853 -2.6035 0
M  V30 4145 C 404.316 2.00876 -4.03683 0
M  V30 4146 C 402.978 1.88599 -4.42701 0
M  V30 4147 C 405.33 1.67279 -4.93626 0
M  V30 4148 C 402.658 1.41017 -5.69501 0
M  V30 4149 C 405.01 1.21169 -6.20887 0
M  V30 4150 C 403.674 1.07487 -6.58789 0
M  V30 4151 H 402.944 0.481734 -0.56304 0
M  V30 4152 H 405.591 0.627301 -1.80934 0
M  V30 4153 H 403.896 3.19318 -2.27032 0
M  V30 4154 H 405.593 3.03039 -2.62619 0
M  V30 4155 H 402.183 2.11374 -3.72853 0
M  V30 4156 H 406.367 1.75638 -4.64182 0
M  V30 4157 H 401.623 1.29086 -5.97618 0
M  V30 4158 H 405.797 0.942345 -6.89995 0
M  V30 4159 H 403.424 0.703946 -7.56934 0
M  V30 4160 N 404.999 1.35443 0.805782 0
M  V30 4161 C 405.947 1.28465 1.93906 0
M  V30 4162 C 406.941 0.17943 1.68447 0
M  V30 4163 O 408.147 0.345459 1.76654 0
M  V30 4164 H 404.522 0.399528 0.637088 0
M  V30 4165 H 406.493 2.24206 1.96912 0
M  V30 4166 C 405.242 1.07432 3.30687 0
M  V30 4167 H 404.565 1.91716 3.50835 0
M  V30 4168 H 406.005 1.06591 4.10383 0
M  V30 4169 C 404.464 -0.22179 3.36169 0
M  V30 4170 O 404.994 -1.21731 3.82811 0
M  V30 4171 N 403.2 -0.260841 2.89427 0
M  V30 4172 H 402.747 0.549884 2.51663 0
M  V30 4173 H 402.705 -1.12777 2.93477 0
M  V30 4174 N 406.477 -1.02803 1.19454 0
M  V30 4175 C 407.705 -1.79841 1.02297 0
M  V30 4176 C 408.12 -1.83879 -0.428259 0
M  V30 4177 O 407.477 -1.28345 -1.29745 0
M  V30 4178 C 407.528 -3.24852 1.58598 0
M  V30 4179 O 407.249 -3.21097 2.98041 0
M  V30 4180 C 408.75 -4.18485 1.46236 0
M  V30 4181 H 405.97 -0.565936 0.360496 0
M  V30 4182 H 408.514 -1.2948 1.58288 0
M  V30 4183 H 406.669 -3.72401 1.06753 0
M  V30 4184 H 407.083 -4.12033 3.24545 0
M  V30 4185 H 408.557 -5.18121 1.90407 0
M  V30 4186 H 409.034 -4.37254 0.41301 0
M  V30 4187 H 409.64 -3.76811 1.97215 0
M  V30 4188 N 407.956 -0.998596 -1.21925 0
M  V30 4189 C 409.202 -0.678667 -1.91107 0
M  V30 4190 C 409.535 0.78791 -1.77498 0
M  V30 4191 O 408.81 1.57043 -1.1475 0
M  V30 4192 C 409.093 -1.09245 -3.43129 0
M  V30 4193 C 408.946 -2.61801 -3.6576 0
M  V30 4194 C 410.265 -0.649984 -4.35274 0
M  V30 4195 H 407.384 -0.248025 -0.694012 0
M  V30 4196 H 410.026 -1.24314 -1.43688 0
M  V30 4197 H 408.176 -0.612171 -3.83647 0
M  V30 4198 H 409.848 -3.17543 -3.34611 0
M  V30 4199 H 408.091 -3.03609 -3.09845 0
M  V30 4200 H 408.762 -2.85804 -4.7225 0
M  V30 4201 H 411.238 -1.0626 -4.02303 0
M  V30 4202 H 410.114 -0.967743 -5.40302 0
M  V30 4203 H 410.375 0.449139 -4.39813 0
M  V30 4204 N 409.434 1.37368 -0.772513 0
M  V30 4205 C 410.85 1.53059 -0.452231 0
M  V30 4206 C 411.05 1.73065 1.03203 0
M  V30 4207 O 410.106 1.75245 1.81784 0
M  V30 4208 C 411.419 2.72659 -1.26797 0
M  V30 4209 C 412.967 2.86521 -1.25995 0
M  V30 4210 C 413.442 4.09105 -2.05905 0
M  V30 4211 N 414.933 4.16219 -2.03263 0
M  V30 4212 C 415.668 5.10107 -2.61875 0
M  V30 4213 N 415.164 6.09547 -3.29278 0
M  V30 4214 N 416.957 5.02596 -2.51701 0
M  V30 4215 H 409.108 1.22634 -1.7342 0
M  V30 4216 H 411.371 0.597206 -0.736239 0
M  V30 4217 H 411.077 2.64343 -2.31982 0
M  V30 4218 H 410.951 3.66363 -0.897672 0
M  V30 4219 H 413.338 2.94308 -0.216081 0
M  V30 4220 H 413.419 1.93774 -1.66989 0
M  V30 4221 H 413.063 4.0208 -3.10313 0
M  V30 4222 H 412.993 5.00968 -1.62292 0
M  V30 4223 H 415.484 3.45012 -1.54192 0
M  V30 4224 H 415.797 6.77718 -3.71374 0
M  V30 4225 H 414.142 6.09824 -3.33377 0
M  V30 4226 H 417.333 4.23855 -1.98657 0
M  V30 4227 H 417.506 5.75582 -2.97673 0
M  V30 4228 N 410.912 0.523116 1.48665 0
M  V30 4229 C 412.142 -0.00961724 2.06598 0
M  V30 4230 C 412.55 -1.29333 1.38093 0
M  V30 4231 O 411.893 -1.77846 0.46007 0
M  V30 4232 C 411.955 -0.311135 3.58151 0
M  V30 4233 C 411.619 0.878092 4.48485 0
M  V30 4234 C 412.616 1.77464 4.88674 0
M  V30 4235 C 410.301 1.08315 4.90483 0
M  V30 4236 C 412.295 2.86021 5.69623 0
M  V30 4237 C 409.982 2.17187 5.71203 0
M  V30 4238 C 410.98 3.05873 6.10681 0
M  V30 4239 O 410.668 4.12862 6.89783 0
M  V30 4240 H 410.4 0.0272658 0.67545 0
M  V30 4241 H 412.954 0.726156 1.92136 0
M  V30 4242 H 411.184 -1.10079 3.70701 0
M  V30 4243 H 412.873 -0.785125 3.98234 0
M  V30 4244 H 413.639 1.62813 4.56855 0
M  V30 4245 H 409.518 0.402149 4.59243 0
M  V30 4246 H 413.062 3.55272 6.00356 0
M  V30 4247 H 408.959 2.31824 6.02435 0
M  V30 4248 H 409.727 4.10487 7.08126 0
M  V30 4249 N 412.39 -1.55475 0.257931 0
M  V30 4250 C 413.667 -1.91155 -0.414629 0
M  V30 4251 C 414.047 -1.18008 -1.75035 0
M  V30 4252 O 413.395 -0.301193 -2.26506 0
M  V30 4253 C 413.605 -3.44283 -0.571859 0
M  V30 4254 C 414.953 -4.15744 -0.862678 0
M  V30 4255 O 415.977 -3.50083 -0.657314 0
M  V30 4256 O 414.836 -5.31909 -1.2544 0
M  V30 4257 H 411.93 -0.796016 -0.22425 0
M  V30 4258 H 414.476 -1.66976 0.302814 0
M  V30 4259 H 413.248 -3.89558 0.368844 0
M  V30 4260 H 412.871 -3.7436 -1.33943 0
M  V30 4261 N 413.868 0.0150385 -1.57593 0
M  V30 4262 C 415.098 0.713359 -1.93894 0
M  V30 4263 C 415.506 1.68663 -0.857289 0
M  V30 4264 O 414.849 1.82876 0.173788 0
M  V30 4265 C 414.911 1.51348 -3.26089 0
M  V30 4266 C 414.575 0.703451 -4.51554 0
M  V30 4267 C 415.572 -0.00237924 -5.199 0
M  V30 4268 C 413.257 0.653854 -4.98026 0
M  V30 4269 C 415.251 -0.746955 -6.33008 0
M  V30 4270 C 412.938 -0.0944578 -6.11027 0
M  V30 4271 C 413.936 -0.793609 -6.78374 0
M  V30 4272 O 413.624 -1.52974 -7.89211 0
M  V30 4273 H 413.356 0.204637 -0.644282 0
M  V30 4274 H 415.91 -0.0276411 -2.05381 0
M  V30 4275 H 414.14 2.29862 -3.10967 0
M  V30 4276 H 415.829 2.09572 -3.47612 0
M  V30 4277 H 416.595 0.0268803 -4.84993 0
M  V30 4278 H 412.474 1.18756 -4.45441 0
M  V30 4279 H 416.018 -1.2932 -6.85509 0
M  V30 4280 H 411.915 -0.125591 -6.45378 0
M  V30 4281 H 412.683 -1.44488 -8.05646 0
M  V30 4282 N 415.346 1.54954 0.287554 0
M  V30 4283 C 416.576 1.78622 1.03816 0
M  V30 4284 C 416.984 0.552451 1.80955 0
M  V30 4285 O 416.327 -0.487665 1.77109 0
M  V30 4286 C 416.389 2.94975 2.055 0
M  V30 4287 C 416.053 4.32565 1.47433 0
M  V30 4288 C 417.05 5.12096 0.897436 0
M  V30 4289 C 414.735 4.79195 1.50591 0
M  V30 4290 C 416.729 6.36383 0.359851 0
M  V30 4291 C 414.416 6.03441 0.964459 0
M  V30 4292 C 415.414 6.81872 0.392413 0
M  V30 4293 O 415.102 8.03777 -0.140788 0
M  V30 4294 H 414.834 0.599144 0.313053 0
M  V30 4295 H 417.388 2.02761 0.328225 0
M  V30 4296 H 415.618 2.66493 2.80211 0
M  V30 4297 H 417.307 3.06097 2.6657 0
M  V30 4298 H 418.073 4.77209 0.865841 0
M  V30 4299 H 413.952 4.18167 1.94055 0
M  V30 4300 H 417.496 6.97545 -0.0872951 0
M  V30 4301 H 413.393 6.37813 0.993246 0
M  V30 4302 H 414.161 8.18495 -0.0287617 0
M  V30 4303 N 416.824 -0.551391 1.4764 0
M  V30 4304 C 418.072 -1.30572 1.54258 0
M  V30 4305 C 418.393 -1.93877 0.208963 0
M  V30 4306 O 417.663 -1.80234 -0.767619 0
M  V30 4307 H 416.243 -0.484894 0.568231 0
M  V30 4308 H 418.905 -0.643402 1.83974 0
M  V30 4309 H 418.001 -2.09621 2.31226 0
M  V30 4310 N 418.302 -1.35869 -0.798587 0
M  V30 4311 C 419.579 -1.20145 -1.54352 0
M  V30 4312 C 419.959 0.216161 -2.0999 0
M  V30 4313 O 419.307 1.22068 -1.93162 0
M  V30 4314 C 419.517 -2.27602 -2.64572 0
M  V30 4315 C 420.865 -2.63811 -3.32699 0
M  V30 4316 O 421.889 -2.26576 -2.74849 0
M  V30 4317 O 420.748 -3.27866 -4.37226 0
M  V30 4318 H 417.842 -0.467248 -0.682355 0
M  V30 4319 H 420.388 -1.47574 -0.837859 0
M  V30 4320 H 419.16 -3.2265 -2.21388 0
M  V30 4321 H 418.783 -2.01488 -3.42766 0
M  V30 4322 N 419.78 1.02168 -1.19998 0
M  V30 4323 C 421.057 1.72816 -0.916191 0
M  V30 4324 C 421.437 2.03081 0.576325 0
M  V30 4325 O 420.785 1.69122 1.53656 0
M  V30 4326 C 420.995 2.9997 -1.78378 0
M  V30 4327 C 422.343 3.73336 -2.02251 0
M  V30 4328 O 423.367 3.09914 -1.75589 0
M  V30 4329 O 422.226 4.87371 -2.47249 0
M  V30 4330 H 419.32 0.752924 -0.342103 0
M  V30 4331 H 421.866 1.08062 -1.30846 0
M  V30 4332 H 420.638 2.73888 -2.79466 0
M  V30 4333 H 420.261 3.72464 -1.39126 0
M  V30 4334 N 421.258 1.00505 1.21394 0
M  V30 4335 C 422.221 0.570459 2.21987 0
M  V30 4336 C 423.221 -0.353211 1.56873 0
M  V30 4337 O 424.411 -0.14349 1.73608 0
M  V30 4338 C 421.543 -0.168555 3.40483 0
M  V30 4339 H 422.736 1.46021 2.6195 0
M  V30 4340 H 420.289 0.793565 1.34656 0
M  V30 4341 H 421.024 -1.07374 3.06009 0
M  V30 4342 H 420.809 0.494823 3.88965 0
M  V30 4343 H 422.299 -0.460362 4.15055 0
M  V30 4344 N 422.737 -1.36956 0.779787 0
M  V30 4345 C 423.962 -2.04283 0.358224 0
M  V30 4346 C 424.387 -1.58422 -1.01411 0
M  V30 4347 O 423.745 -0.748179 -1.65142 0
M  V30 4348 C 423.793 -3.58152 0.419479 0
M  V30 4349 O 422.897 -4.08342 -0.577142 0
M  V30 4350 H 422.238 -0.645967 0.153698 0
M  V30 4351 H 424.768 -1.75108 1.05822 0
M  V30 4352 H 424.778 -4.07041 0.279636 0
M  V30 4353 H 423.453 -3.90886 1.42061 0
M  V30 4354 H 422.03 -3.70751 -0.399755 0
M  V30 4355 N 424.215 -0.530993 -1.48385 0
M  V30 4356 C 425.445 -0.00133928 -2.066 0
M  V30 4357 C 425.853 1.28599 -1.38777 0
M  V30 4358 O 425.196 1.77599 -0.469495 0
M  V30 4359 C 425.258 0.292137 -3.58311 0
M  V30 4360 C 424.922 -0.901864 -4.48013 0
M  V30 4361 C 425.919 -1.80053 -4.87726 0
M  V30 4362 C 423.604 -1.10915 -4.89901 0
M  V30 4363 C 425.598 -2.89038 -5.68098 0
M  V30 4364 C 423.285 -2.20213 -5.70043 0
M  V30 4365 C 424.283 -3.09107 -6.0905 0
M  V30 4366 O 423.971 -4.16514 -6.87583 0
M  V30 4367 H 423.703 -0.0308475 -0.675296 0
M  V30 4368 H 426.257 -0.736335 -1.91748 0
M  V30 4369 H 424.487 1.08112 -3.7128 0
M  V30 4370 H 426.176 0.763994 -3.98645 0
M  V30 4371 H 426.942 -1.65234 -4.55986 0
M  V30 4372 H 422.821 -0.426498 -4.59023 0
M  V30 4373 H 426.365 -3.58451 -5.98464 0
M  V30 4374 H 422.262 -2.35016 -6.01197 0
M  V30 4375 H 423.03 -4.14237 -7.05939 0
M  V30 4376 N 425.693 1.55336 -0.266172 0
M  V30 4377 C 426.921 2.03801 0.356756 0
M  V30 4378 C 427.336 1.14485 1.50129 0
M  V30 4379 O 426.693 0.163121 1.8177 0
M  V30 4380 C 426.744 3.51455 0.846281 0
M  V30 4381 O 426.465 4.37371 -0.252663 0
M  V30 4382 C 427.966 4.15767 1.53794 0
M  V30 4383 H 425.186 0.665906 0.0825218 0
M  V30 4384 H 427.73 2.00636 -0.39566 0
M  V30 4385 H 425.885 3.55092 1.54881 0
M  V30 4386 H 426.299 5.24358 0.122173 0
M  V30 4387 H 427.773 5.20714 1.83198 0
M  V30 4388 H 428.25 3.63404 2.46646 0
M  V30 4389 H 428.856 4.16107 0.879488 0
M  V30 4390 N 427.171 -0.0066808 1.57599 0
M  V30 4391 C 428.119 -1.01851 2.09115 0
M  V30 4392 C 429.113 -1.36021 1.00969 0
M  V30 4393 O 430.319 -1.34663 1.19439 0
M  V30 4394 H 426.694 -0.346083 0.667631 0
M  V30 4395 H 428.665 -0.558394 2.93129 0
M  V30 4396 C 427.414 -2.30374 2.60429 0
M  V30 4397 H 426.737 -2.04947 3.43273 0
M  V30 4398 H 428.177 -2.99466 3.00161 0
M  V30 4399 C 426.636 -3.00893 1.51542 0
M  V30 4400 O 427.166 -3.91614 0.894484 0
M  V30 4401 N 425.372 -2.62603 1.2445 0
M  V30 4402 H 424.919 -1.88911 1.75129 0
M  V30 4403 H 424.877 -3.10101 0.518137 0
M  V30 4404 N 428.649 -1.55105 -0.279332 0
M  V30 4405 C 429.579 -1.90557 -1.34945 0
M  V30 4406 C 430.56 -0.766738 -1.51839 0
M  V30 4407 O 431.745 -1.02434 -1.64988 0
M  V30 4408 C 428.875 -2.17193 -2.71006 0
M  V30 4409 C 427.829 -3.33021 -2.68851 0
M  V30 4410 C 427.155 -3.45123 -4.08405 0
M  V30 4411 C 428.455 -4.69578 -2.28678 0
M  V30 4412 H 430.149 -2.80188 -1.05522 0
M  V30 4413 H 427.695 -1.34811 -0.506173 0
M  V30 4414 H 429.648 -2.40581 -3.45975 0
M  V30 4415 H 428.372 -1.24355 -3.01999 0
M  V30 4416 H 427.031 -3.0959 -1.9634 0
M  V30 4417 H 426.679 -2.49762 -4.3661 0
M  V30 4418 H 426.379 -4.22995 -4.07859 0
M  V30 4419 H 427.903 -3.70796 -4.85121 0
M  V30 4420 H 429.317 -4.92553 -2.93368 0
M  V30 4421 H 427.714 -5.5032 -2.39306 0
M  V30 4422 H 428.784 -4.68828 -1.23807 0
M  V30 4423 N 430.127 0.543554 -1.4793 0
M  V30 4424 C 431.06 1.66556 -1.55995 0
M  V30 4425 C 432.038 1.57315 -0.411205 0
M  V30 4426 O 433.222 1.7798 -0.620922 0
M  V30 4427 C 430.349 3.04883 -1.47527 0
M  V30 4428 C 429.395 3.32526 -2.67074 0
M  V30 4429 S 430.228 3.20282 -4.29162 0
M  V30 4430 C 431.384 4.61079 -4.23269 0
M  V30 4431 H 431.617 1.59462 -2.50917 0
M  V30 4432 H 429.15 0.725456 -1.36296 0
M  V30 4433 H 431.108 3.84665 -1.43328 0
M  V30 4434 H 429.769 3.09429 -0.539665 0
M  V30 4435 H 428.962 4.33403 -2.5725 0
M  V30 4436 H 428.564 2.60389 -2.68466 0
M  V30 4437 H 430.856 5.52318 -3.92365 0
M  V30 4438 H 431.799 4.75959 -5.24279 0
M  V30 4439 H 432.207 4.39766 -3.5393 0
M  V30 4440 N 431.605 1.3629 0.791371 0
M  V30 4441 C 432.568 1.30309 1.88553 0
M  V30 4442 C 433.568 0.211204 1.59407 0
M  V30 4443 O 434.758 0.465865 1.67855 0
M  V30 4444 C 431.89 1.01956 3.25297 0
M  V30 4445 H 433.083 2.27614 1.95273 0
M  V30 4446 H 430.636 1.21035 0.988953 0
M  V30 4447 H 431.371 0.050998 3.2426 0
M  V30 4448 H 431.156 1.80968 3.4784 0
M  V30 4449 H 432.646 1.0037 4.05359 0
M  V30 4450 N 433.083 -1.0153 1.20538 0
M  V30 4451 C 434.308 -1.79283 1.04271 0
M  V30 4452 C 434.733 -1.8372 -0.403544 0
M  V30 4453 O 434.091 -1.27321 -1.2907 0
M  V30 4454 C 434.139 -3.21535 1.63241 0
M  V30 4455 O 433.243 -4.03099 0.870908 0
M  V30 4456 H 432.584 -0.55293 0.367647 0
M  V30 4457 H 435.114 -1.27696 1.59859 0
M  V30 4458 H 435.124 -3.72243 1.6703 0
M  V30 4459 H 433.799 -3.1762 2.68497 0
M  V30 4460 H 432.376 -3.61693 0.907323 0
M  V30 4461 N 434.561 -1.01147 -1.20859 0
M  V30 4462 C 435.791 -0.715872 -1.93801 0
M  V30 4463 C 436.199 0.726592 -1.74692 0
M  V30 4464 O 435.542 1.50397 -1.05482 0
M  V30 4465 C 435.604 -0.965269 -3.46299 0
M  V30 4466 C 435.268 -2.39584 -3.89164 0
M  V30 4467 C 436.265 -3.3764 -3.95342 0
M  V30 4468 C 433.95 -2.73522 -4.21297 0
M  V30 4469 C 435.944 -4.67698 -4.33056 0
M  V30 4470 C 433.631 -4.03794 -4.58687 0
M  V30 4471 C 434.629 -5.00693 -4.64538 0
M  V30 4472 O 434.317 -6.28635 -5.01072 0
M  V30 4473 H 434.049 -0.262524 -0.622942 0
M  V30 4474 H 436.603 -1.35413 -1.54443 0
M  V30 4475 H 434.833 -0.269847 -3.85757 0
M  V30 4476 H 436.522 -0.662051 -4.00464 0
M  V30 4477 H 437.288 -3.12757 -3.70686 0
M  V30 4478 H 433.167 -1.9879 -4.15937 0
M  V30 4479 H 436.711 -5.4333 -4.37537 0
M  V30 4480 H 432.608 -4.28459 -4.82797 0
M  V30 4481 H 433.376 -6.32847 -5.19083 0
M  V30 4482 N 436.039 1.36541 -0.78704 0
M  V30 4483 C 437.287 1.98911 -0.357633 0
M  V30 4484 C 437.608 1.62778 1.07371 0
M  V30 4485 O 436.878 0.900612 1.73971 0
M  V30 4486 H 435.458 0.735734 -0.129246 0
M  V30 4487 H 438.12 1.66776 -1.00855 0
M  V30 4488 H 437.216 3.08874 -0.447549 0
M  V30 4489 N 437.518 0.538854 1.48102 0
M  V30 4490 C 438.746 0.0123136 2.06896 0
M  V30 4491 C 439.161 -1.27312 1.39417 0
M  V30 4492 O 438.518 -1.75949 0.484582 0
M  V30 4493 C 438.569 -0.206118 3.60912 0
M  V30 4494 O 438.29 1.0284 4.25859 0
M  V30 4495 C 439.791 -0.772033 4.36526 0
M  V30 4496 H 437.011 0.0375239 0.66995 0
M  V30 4497 H 439.555 0.747032 1.90367 0
M  V30 4498 H 437.71 -0.89091 3.77017 0
M  V30 4499 H 438.124 0.814654 5.18135 0
M  V30 4500 H 439.598 -0.874251 5.45033 0
M  V30 4501 H 440.075 -1.77904 4.01555 0
M  V30 4502 H 440.681 -0.123526 4.25121 0
M  V30 4503 N 438.996 -1.55193 0.274407 0
M  V30 4504 C 439.943 -2.225 -0.613374 0
M  V30 4505 C 440.913 -1.19823 -1.15029 0
M  V30 4506 O 442.098 -1.48362 -1.19973 0
M  V30 4507 C 439.238 -2.94927 -1.79199 0
M  V30 4508 C 438.351 -4.12322 -1.28899 0
M  V30 4509 C 437.486 -4.72394 -2.42934 0
M  V30 4510 C 436.525 -5.81984 -1.89634 0
M  V30 4511 N 435.662 -6.36123 -2.9714 0
M  V30 4512 H 440.502 -2.97982 -0.032756 0
M  V30 4513 H 438.039 -1.47099 -0.00440146 0
M  V30 4514 H 439.997 -3.35134 -2.48478 0
M  V30 4515 H 438.627 -2.2187 -2.34465 0
M  V30 4516 H 437.679 -3.7724 -0.489327 0
M  V30 4517 H 438.991 -4.91355 -0.858587 0
M  V30 4518 H 438.145 -5.15317 -3.20208 0
M  V30 4519 H 436.884 -3.92636 -2.8929 0
M  V30 4520 H 435.889 -5.38511 -1.1084 0
M  V30 4521 H 437.114 -6.6361 -1.44215 0
M  V30 4522 H 435.06 -5.59259 -3.42878 0
M  V30 4523 H 434.977 -7.10427 -2.58515 0
M  V30 4524 H 436.245 -6.83704 -3.74391 0
M  V30 4525 N 440.474 -0.00167713 -1.576 0
M  V30 4526 C 441.424 0.997744 -2.0501 0
M  V30 4527 C 442.408 1.30214 -0.94515 0
M  V30 4528 O 443.6 1.29284 -1.20891 0
M  V30 4529 C 440.729 2.2892 -2.55833 0
M  V30 4530 C 439.815 2.01437 -3.73208 0
M  V30 4531 N 440.206 1.44119 -4.84833 0
M  V30 4532 C 438.504 2.31571 -3.8117 0
M  V30 4533 C 439.205 1.33145 -5.66257 0
M  V30 4534 N 438.181 1.81763 -5.12312 0
M  V30 4535 H 441.983 0.549098 -2.88725 0
M  V30 4536 H 439.497 0.20398 -1.61114 0
M  V30 4537 H 441.494 3.01361 -2.88075 0
M  V30 4538 H 440.154 2.74436 -1.73537 0
M  V30 4539 H 441.165 1.11978 -5.0565 0
M  V30 4540 H 437.842 2.7995 -3.09732 0
M  V30 4541 H 439.232 0.890567 -6.65972 0
M  V30 4542 N 441.952 1.55251 0.271103 0
M  V30 4543 C 443.177 1.80306 1.02491 0
M  V30 4544 C 443.602 0.575457 1.79081 0
M  V30 4545 O 442.96 -0.474987 1.74967 0
M  V30 4546 C 443.008 3.02832 1.95768 0
M  V30 4547 O 442.112 2.78051 3.04568 0
M  V30 4548 H 441.453 0.595896 0.292923 0
M  V30 4549 H 443.983 2.02397 0.299436 0
M  V30 4550 H 443.993 3.31616 2.37686 0
M  V30 4551 H 442.668 3.9183 1.39434 0
M  V30 4552 H 441.245 2.60369 2.66951 0
M  V30 4553 N 443.43 -0.535701 1.48216 0
M  V30 4554 C 444.393 -1.623 1.61838 0
M  V30 4555 C 445.393 -1.53087 0.492024 0
M  V30 4556 O 446.583 -1.5686 0.757668 0
M  V30 4557 C 443.715 -3.01907 1.58319 0
M  V30 4558 H 444.908 -1.51564 2.58783 0
M  V30 4559 H 442.461 -0.757317 1.36727 0
M  V30 4560 H 443.196 -3.18155 0.628299 0
M  V30 4561 H 442.981 -3.10003 2.40085 0
M  V30 4562 H 444.471 -3.80969 1.71033 0
M  V30 4563 N 444.908 -1.36708 -0.784132 0
M  V30 4564 C 446.185 -1.21776 -1.53069 0
M  V30 4565 C 446.565 0.193876 -2.10208 0
M  V30 4566 O 445.913 1.20012 -1.94446 0
M  V30 4567 C 446.123 -2.30395 -2.62143 0
M  V30 4568 C 447.471 -2.67325 -3.29882 0
M  V30 4569 O 448.495 -2.29478 -2.7243 0
M  V30 4570 O 447.354 -3.32485 -4.33724 0
M  V30 4571 H 444.448 -0.474459 -0.677361 0
M  V30 4572 H 446.994 -1.48454 -0.82216 0
M  V30 4573 H 445.766 -3.2498 -2.17953 0
M  V30 4574 H 445.389 -2.05112 -3.40609 0
M  V30 4575 N 446.386 1.0089 -1.21074 0
M  V30 4576 C 447.611 1.78727 -1.05221 0
M  V30 4577 C 448.036 1.83932 0.393795 0
M  V30 4578 O 447.394 1.28004 1.28393 0
M  V30 4579 C 447.442 3.20665 -1.64944 0
M  V30 4580 O 446.546 4.02632 -0.892273 0
M  V30 4581 H 445.887 0.550973 -0.370574 0
M  V30 4582 H 448.417 1.26847 -1.60534 0
M  V30 4583 H 448.427 3.71352 -1.69002 0
M  V30 4584 H 447.102 3.16191 -2.70177 0
M  V30 4585 H 445.679 3.61207 -0.926492 0
M  V30 4586 N 447.864 1.01787 1.20321 0
M  V30 4587 C 449.11 0.718699 1.90279 0
M  V30 4588 C 449.465 -0.743669 1.77447 0
M  V30 4589 O 448.758 -1.53345 1.14874 0
M  V30 4590 C 448.952 1.09076 3.40349 0
M  V30 4591 C 448.781 2.58775 3.67784 0
M  V30 4592 C 447.551 3.25578 3.86428 0
M  V30 4593 C 449.749 3.56966 3.70243 0
M  V30 4594 N 447.731 4.64495 4.01395 0
M  V30 4595 C 449.102 4.8145 3.90649 0
M  V30 4596 C 451.157 3.5092 3.53213 0
M  V30 4597 C 449.86 6.00619 3.95789 0
M  V30 4598 C 451.886 4.69493 3.59625 0
M  V30 4599 C 451.248 5.92786 3.80505 0
M  V30 4600 H 447.347 0.31468 0.715891 0
M  V30 4601 H 449.931 1.30295 1.44677 0
M  V30 4602 H 448.102 0.534839 3.847 0
M  V30 4603 H 449.834 0.744997 3.97784 0
M  V30 4604 H 446.589 2.76003 3.84862 0
M  V30 4605 H 447.013 5.36624 4.12752 0
M  V30 4606 H 451.655 2.56593 3.36035 0
M  V30 4607 H 449.373 6.95326 4.11762 0
M  V30 4608 H 452.959 4.66432 3.47754 0
M  V30 4609 H 451.839 6.83003 3.85327 0
M  V30 4610 N 449.342 -1.36122 0.79427 0
M  V30 4611 C 450.588 -1.99846 0.378542 0
M  V30 4612 C 450.943 -1.61898 -1.03955 0
M  V30 4613 O 450.236 -0.866013 -1.70912 0
M  V30 4614 C 450.43 -3.5409 0.48527 0
M  V30 4615 C 450.259 -4.0702 1.91219 0
M  V30 4616 C 449.029 -4.36944 2.53787 0
M  V30 4617 C 451.227 -4.26435 2.87502 0
M  V30 4618 N 449.209 -4.75727 3.88017 0
M  V30 4619 C 450.58 -4.68077 4.06576 0
M  V30 4620 C 452.635 -4.08616 2.84495 0
M  V30 4621 C 451.338 -4.93765 5.23057 0
M  V30 4622 C 453.364 -4.35453 4.00169 0
M  V30 4623 C 452.726 -4.77355 5.17988 0
M  V30 4624 H 448.825 -0.759549 0.186034 0
M  V30 4625 H 451.409 -1.65043 1.0329 0
M  V30 4626 H 449.58 -3.88151 -0.139023 0
M  V30 4627 H 451.312 -4.04675 0.0453192 0
M  V30 4628 H 448.067 -4.26822 2.05231 0
M  V30 4629 H 448.491 -4.99396 4.57092 0
M  V30 4630 H 453.133 -3.75373 1.94564 0
M  V30 4631 H 450.851 -5.25887 6.1357 0
M  V30 4632 H 454.437 -4.2323 3.99208 0
M  V30 4633 H 453.317 -4.97718 6.06008 0
M  V30 4634 N 450.82 -0.546701 -1.47814 0
M  V30 4635 C 451.767 0.206854 -2.29871 0
M  V30 4636 C 452.737 0.918235 -1.38411 0
M  V30 4637 O 453.922 0.915991 -1.67375 0
M  V30 4638 C 451.062 1.23746 -3.22151 0
M  V30 4639 C 450.175 0.533216 -4.28697 0
M  V30 4640 C 449.31 1.5482 -5.08138 0
M  V30 4641 C 448.349 0.828347 -6.06469 0
M  V30 4642 N 447.486 1.78966 -6.78908 0
M  V30 4643 H 452.326 -0.499037 -2.93792 0
M  V30 4644 H 449.863 -0.25793 -1.44821 0
M  V30 4645 H 451.821 1.84746 -3.74065 0
M  V30 4646 H 450.451 1.91151 -2.60117 0
M  V30 4647 H 449.503 -0.191089 -3.7992 0
M  V30 4648 H 450.815 -0.0311987 -4.9879 0
M  V30 4649 H 449.969 2.23202 -5.6415 0
M  V30 4650 H 448.708 2.14652 -4.37922 0
M  V30 4651 H 447.713 0.130539 -5.49645 0
M  V30 4652 H 448.938 0.235907 -6.7869 0
M  V30 4653 H 446.884 2.37675 -6.1143 0
M  V30 4654 H 446.801 1.27712 -7.45135 0
M  V30 4655 H 448.069 2.46496 -7.395 0
M  V30 4656 N 452.299 1.55045 -0.282633 0
M  V30 4657 C 453.527 2.04168 0.33512 0
M  V30 4658 C 453.942 1.16071 1.48906 0
M  V30 4659 O 453.299 0.182391 1.81586 0
M  V30 4660 C 453.35 3.52332 0.808957 0
M  V30 4661 O 453.071 4.37078 -0.299038 0
M  V30 4662 C 454.572 4.17375 1.49375 0
M  V30 4663 H 451.792 0.666744 0.0754543 0
M  V30 4664 H 454.336 2.00205 -0.416918 0
M  V30 4665 H 452.491 3.56715 1.51106 0
M  V30 4666 H 452.905 5.24458 0.0665514 0
M  V30 4667 H 454.379 5.22627 1.77664 0
M  V30 4668 H 454.856 3.65999 2.42778 0
M  V30 4669 H 455.462 4.17016 0.835305 0
M  V30 4670 N 453.777 0.010035 1.57597 0
M  V30 4671 C 455.025 -0.671371 1.90623 0
M  V30 4672 C 455.346 -1.73753 0.885151 0
M  V30 4673 O 454.616 -1.95752 -0.0760611 0
M  V30 4674 H 453.196 -0.250968 0.703579 0
M  V30 4675 H 455.858 0.0533325 1.94827 0
M  V30 4676 H 454.954 -1.13626 2.90681 0
M  V30 4677 N 455.255 -1.55392 -0.262866 0
M  V30 4678 C 456.671 -1.47459 -0.610582 0
M  V30 4679 C 456.871 -0.697031 -1.8906 0
M  V30 4680 O 455.927 -0.219952 -2.5154 0
M  V30 4681 C 457.24 -2.91751 -0.728131 0
M  V30 4682 C 458.788 -3.02027 -0.821517 0
M  V30 4683 C 459.263 -4.47594 -0.97076 0
M  V30 4684 N 460.754 -4.51465 -1.03603 0
M  V30 4685 C 461.489 -5.61326 -1.17049 0
M  V30 4686 N 460.985 -6.81032 -1.2715 0
M  V30 4687 N 462.778 -5.49089 -1.20239 0
M  V30 4688 H 454.929 -2.04395 0.577632 0
M  V30 4689 H 457.192 -0.927287 0.197086 0
M  V30 4690 H 456.898 -3.51413 0.142132 0
M  V30 4691 H 456.772 -3.4134 -1.6052 0
M  V30 4692 H 459.159 -2.42456 -1.68224 0
M  V30 4693 H 459.24 -2.55674 0.0803688 0
M  V30 4694 H 458.884 -5.07771 -0.114655 0
M  V30 4695 H 458.814 -4.91613 -1.88745 0
M  V30 4696 H 461.305 -3.6524 -0.96996 0
M  V30 4697 H 461.618 -7.60511 -1.37271 0
M  V30 4698 H 459.963 -6.83824 -1.24136 0
M  V30 4699 H 463.154 -4.54507 -1.11985 0
M  V30 4700 H 463.327 -6.34749 -1.30373 0
M  V30 4701 N 456.733 0.527833 -1.48498 0
M  V30 4702 C 457.979 1.28545 -1.56857 0
M  V30 4703 C 458.312 1.92678 -0.242651 0
M  V30 4704 O 457.587 1.79394 0.751545 0
M  V30 4705 C 457.87 2.37314 -2.70839 0
M  V30 4706 C 457.723 1.77858 -4.13142 0
M  V30 4707 C 459.042 3.39068 -2.80573 0
M  V30 4708 H 456.161 0.466006 -0.570971 0
M  V30 4709 H 458.803 0.587784 -1.8068 0
M  V30 4710 H 456.953 2.96821 -2.50658 0
M  V30 4711 H 458.625 1.22385 -4.44769 0
M  V30 4712 H 456.868 1.08383 -4.20042 0
M  V30 4713 H 457.539 2.56624 -4.88721 0
M  V30 4714 H 460.015 2.89518 -2.98862 0
M  V30 4715 H 458.891 4.12566 -3.6205 0
M  V30 4716 H 459.152 3.9975 -1.88818 0
M  V30 4717 N 458.211 1.37122 0.776871 0
M  V30 4718 C 459.622 1.28667 1.35284 0
M  V30 4719 C 459.973 -0.0680035 1.96082 0
M  V30 4720 O 459.098 -0.969743 1.93455 0
M  V30 4721 C 459.693 2.32997 2.45963 0
M  V30 4722 C 458.252 2.28191 2.99342 0
M  V30 4723 C 457.399 2.17101 1.72517 0
M  V30 4724 H 460.35 1.47819 0.577527 0
M  V30 4725 H 460.371 1.97366 3.2531 0
M  V30 4726 H 459.883 3.3158 2.01684 0
M  V30 4727 H 457.984 1.33115 3.4801 0
M  V30 4728 H 458.097 3.21397 3.55304 0
M  V30 4729 H 456.461 1.63562 1.95242 0
M  V30 4730 H 457.244 3.17591 1.30348 0
M  V30 4731 N 459.689 -1.00246 1.21608 0
M  V30 4732 C 461.105 -1.26435 0.973975 0
M  V30 4733 C 461.305 -1.98642 -0.338143 0
M  V30 4734 O 460.361 -2.29026 -1.06317 0
M  V30 4735 C 461.674 -2.08551 2.16626 0
M  V30 4736 C 463.222 -2.21769 2.20879 0
M  V30 4737 C 463.697 -3.07267 3.39633 0
M  V30 4738 N 465.188 -3.14855 3.39736 0
M  V30 4739 C 465.923 -3.81274 4.28273 0
M  V30 4740 N 465.419 -4.497 5.27012 0
M  V30 4741 N 467.212 -3.7794 4.16074 0
M  V30 4742 H 459.363 -0.518089 2.05984 0
M  V30 4743 H 461.626 -0.291368 0.902113 0
M  V30 4744 H 461.332 -1.62847 3.11727 0
M  V30 4745 H 461.206 -3.09303 2.15897 0
M  V30 4746 H 463.593 -2.66691 1.26332 0
M  V30 4747 H 463.674 -1.20478 2.25652 0
M  V30 4748 H 463.318 -2.63047 4.34475 0
M  V30 4749 H 463.248 -4.08678 3.321 0
M  V30 4750 H 465.739 -2.66147 2.6828 0
M  V30 4751 H 466.052 -4.98092 5.90867 0
M  V30 4752 H 464.397 -4.48479 5.30935 0
M  V30 4753 H 467.588 -3.23638 3.38195 0
M  V30 4754 H 467.761 -4.29424 4.85282 0
M  V30 4755 N 461.167 -1.02423 -1.1978 0
M  V30 4756 C 462.416 -0.713265 -1.88667 0
M  V30 4757 C 462.729 0.7609 -1.80193 0
M  V30 4758 O 463.935 1.18473 -2.44288 0
M  V30 4759 C 462.391 -1.22545 -3.38394 0
M  V30 4760 C 461.999 -2.72706 -3.55437 0
M  V30 4761 C 463.743 -0.990257 -4.12788 0
M  V30 4762 C 461.65 -3.17367 -4.99031 0
M  V30 4763 H 460.58 -0.263105 -0.706606 0
M  V30 4764 H 463.231 -1.23792 -1.35454 0
M  V30 4765 H 461.613 -0.628732 -3.90977 0
M  V30 4766 H 462.787 -3.37993 -3.13205 0
M  V30 4767 H 461.102 -2.94453 -2.94425 0
M  V30 4768 H 463.699 -1.29926 -5.18675 0
M  V30 4769 H 464.042 0.0730761 -4.16236 0
M  V30 4770 H 464.575 -1.55074 -3.66329 0
M  V30 4771 H 461.314 -4.23009 -5.00743 0
M  V30 4772 H 460.834 -2.56805 -5.42044 0
M  V30 4773 H 462.513 -3.10441 -5.67658 0
M  V30 4774 N 462.645 1.35699 -0.801477 0
M  V30 4775 C 463.87 2.03687 -0.390678 0
M  V30 4776 C 464.295 1.60015 0.988778 0
M  V30 4777 O 463.653 0.774357 1.63931 0
M  V30 4778 C 463.701 3.57439 -0.476404 0
M  V30 4779 O 462.805 4.09208 0.512106 0
M  V30 4780 H 462.146 0.64344 -0.163956 0
M  V30 4781 H 464.676 1.73403 -1.08594 0
M  V30 4782 H 464.686 4.06544 -0.344357 0
M  V30 4783 H 463.361 3.88576 -1.48262 0
M  V30 4784 H 461.938 3.7134 0.340721 0
M  V30 4785 N 464.123 0.554532 1.47522 0
M  V30 4786 C 465.363 0.0317994 2.04375 0
M  V30 4787 C 465.727 -1.29242 1.41988 0
M  V30 4788 O 466.928 -1.90269 1.89872 0
M  V30 4789 C 465.199 -0.0623344 3.57346 0
M  V30 4790 S 466.758 -0.531578 4.35568 0
M  V30 4791 H 463.576 0.0238553 0.7106 0
M  V30 4792 H 466.178 0.74066 1.80927 0
M  V30 4793 H 464.882 0.905857 4.00278 0
M  V30 4794 H 464.413 -0.794831 3.85287 0
M  V30 4795 H 466.428 -1.79175 4.62721 0
M  V30 4796 N 465.601 -1.54893 0.290851 0
M  V30 4797 C 466.849 -1.99538 -0.320756 0
M  V30 4798 C 467.17 -1.18075 -1.55188 0
M  V30 4799 O 466.44 -0.274162 -1.93972 0
M  V30 4800 H 465.02 -0.737052 -0.121507 0
M  V30 4801 H 467.682 -1.90755 0.399832 0
M  V30 4802 H 466.778 -3.06282 -0.599802 0
M  V30 4803 N 467.08 -0.0183926 -1.57589 0
M  V30 4804 C 468.329 0.66185 -1.90532 0
M  V30 4805 C 468.642 1.73904 -0.895366 0
M  V30 4806 O 469.848 2.47518 -1.11566 0
M  V30 4807 C 468.304 1.22844 -3.38286 0
M  V30 4808 C 467.912 0.185103 -4.47617 0
M  V30 4809 C 469.656 1.88581 -3.80312 0
M  V30 4810 C 467.563 0.762723 -5.86461 0
M  V30 4811 H 466.493 0.250972 -0.711006 0
M  V30 4812 H 469.144 -0.0819435 -1.83317 0
M  V30 4813 H 467.526 2.0235 -3.40398 0
M  V30 4814 H 468.7 -0.58671 -4.5705 0
M  V30 4815 H 467.015 -0.372889 -4.14727 0
M  V30 4816 H 469.612 2.32735 -4.81392 0
M  V30 4817 H 469.955 2.72408 -3.14801 0
M  V30 4818 H 470.488 1.15782 -3.80578 0
M  V30 4819 H 467.227 -0.0371713 -6.55489 0
M  V30 4820 H 466.747 1.50327 -5.80656 0
M  V30 4821 H 468.426 1.25576 -6.34697 0
M  V30 4822 N 468.558 1.5553 0.254621 0
M  V30 4823 C 469.506 1.9048 1.33492 0
M  V30 4824 C 470.5 0.78304 1.50216 0
M  V30 4825 O 471.706 0.967582 1.51782 0
M  V30 4826 H 468.081 0.604846 0.44684 0
M  V30 4827 H 470.052 2.80688 1.01275 0
M  V30 4828 C 468.801 2.20928 2.68489 0
M  V30 4829 H 468.124 3.06742 2.56417 0
M  V30 4830 H 469.564 2.49291 3.42972 0
M  V30 4831 C 468.023 1.023 3.20993 0
M  V30 4832 O 468.553 0.267027 4.00811 0
M  V30 4833 N 466.759 0.815714 2.78917 0
M  V30 4834 H 466.306 1.43217 2.14119 0
M  V30 4835 H 466.264 0.0236532 3.14391 0
M  V30 4836 N 470.036 -0.519951 1.48776 0
M  V30 4837 C 471.266 -1.29783 1.60748 0
M  V30 4838 C 471.674 -1.87253 0.27072 0
M  V30 4839 O 471.017 -1.67628 -0.751438 0
M  V30 4840 C 471.079 -2.47984 2.60277 0
M  V30 4841 C 470.743 -2.11526 4.051 0
M  V30 4842 C 471.74 -1.66608 4.92481 0
M  V30 4843 C 469.425 -2.21742 4.50706 0
M  V30 4844 C 471.419 -1.32384 6.23501 0
M  V30 4845 C 469.106 -1.87129 5.81744 0
M  V30 4846 C 470.104 -1.42523 6.67964 0
M  V30 4847 O 469.792 -1.0837 7.96562 0
M  V30 4848 H 469.524 -0.400562 0.544542 0
M  V30 4849 H 472.078 -0.632879 1.95407 0
M  V30 4850 H 470.308 -3.17493 2.2076 0
M  V30 4851 H 471.997 -3.10036 2.61978 0
M  V30 4852 H 472.763 -1.58178 4.58481 0
M  V30 4853 H 468.642 -2.55415 3.83776 0
M  V30 4854 H 472.186 -0.974949 6.90754 0
M  V30 4855 H 468.083 -1.95204 6.15277 0
M  V30 4856 H 468.851 -1.21681 8.09405 0
M  V30 4857 N 471.514 -1.37532 -0.769588 0
M  V30 4858 C 472.762 -1.32597 -1.5252 0
M  V30 4859 C 473.083 0.0884294 -1.94799 0
M  V30 4860 O 472.353 1.03289 -1.66458 0
M  V30 4861 H 470.933 -0.487846 -0.565699 0
M  V30 4862 H 473.595 -1.72044 -0.915806 0
M  V30 4863 H 472.691 -1.96643 -2.42359 0
M  V30 4864 N 472.992 0.995999 -1.22138 0
M  V30 4865 C 474.239 1.7351 -1.04406 0
M  V30 4866 C 474.567 1.89884 0.421244 0
M  V30 4867 O 473.822 1.43683 1.32867 0
M  V30 4868 C 474.121 3.14553 -1.6968 0
M  V30 4869 C 473.787 3.18102 -3.19565 0
M  V30 4870 C 472.449 3.18778 -3.60464 0
M  V30 4871 C 474.801 3.14636 -4.15516 0
M  V30 4872 C 472.129 3.13684 -4.95801 0
M  V30 4873 C 474.481 3.11084 -5.50826 0
M  V30 4874 C 473.145 3.10074 -5.91109 0
M  V30 4875 H 472.415 0.634916 -0.38205 0
M  V30 4876 H 475.062 1.1667 -1.51857 0
M  V30 4877 H 473.367 3.74682 -1.14546 0
M  V30 4878 H 475.064 3.70477 -1.53454 0
M  V30 4879 H 471.654 3.18324 -2.86998 0
M  V30 4880 H 475.838 3.13266 -3.84939 0
M  V30 4881 H 471.094 3.11245 -5.26247 0
M  V30 4882 H 475.268 3.07357 -6.24904 0
M  V30 4883 H 472.895 3.05882 -6.95946 0
M  V30 4884 N 474.47 1.03057 1.19235 0
M  V30 4885 C 475.747 0.642608 1.84743 0
M  V30 4886 C 476.127 -0.878577 1.91948 0
M  V30 4887 O 475.475 -1.77597 1.43776 0
M  V30 4888 C 475.685 1.30665 3.23616 0
M  V30 4889 C 477.033 1.43098 3.9976 0
M  V30 4890 O 478.057 1.26396 3.3302 0
M  V30 4891 O 476.916 1.70223 5.19313 0
M  V30 4892 H 474.01 0.223573 0.796206 0
M  V30 4893 H 476.556 1.12883 1.26711 0
M  V30 4894 H 475.328 2.34544 3.13217 0
M  V30 4895 H 474.951 0.808405 3.89295 0
M  V30 4896 N 475.948 -1.35272 0.808662 0
M  V30 4897 C 477.364 -1.51806 0.492653 0
M  V30 4898 C 477.564 -1.7574 -0.985778 0
M  V30 4899 O 476.62 -1.80003 -1.77074 0
M  V30 4900 C 477.933 -2.69202 1.33981 0
M  V30 4901 C 479.481 -2.8308 1.33547 0
M  V30 4902 C 479.956 -4.03502 2.16679 0
M  V30 4903 N 481.447 -4.10684 2.14227 0
M  V30 4904 C 482.182 -5.02984 2.75308 0
M  V30 4905 N 481.678 -6.00603 3.45323 0
M  V30 4906 N 483.471 -4.95746 2.64938 0
M  V30 4907 H 475.622 -1.17993 1.76611 0
M  V30 4908 H 477.885 -0.577476 0.751814 0
M  V30 4909 H 477.591 -2.581 2.38909 0
M  V30 4910 H 477.465 -3.63854 0.994491 0
M  V30 4911 H 479.852 -2.93631 0.294036 0
M  V30 4912 H 479.933 -1.89278 1.72068 0
M  V30 4913 H 479.577 -3.93711 3.20864 0
M  V30 4914 H 479.507 -4.96489 1.75517 0
M  V30 4915 H 481.998 -3.40802 1.63285 0
M  V30 4916 H 482.311 -6.67633 3.89212 0
M  V30 4917 H 480.656 -6.0077 3.49428 0
M  V30 4918 H 483.847 -4.18439 2.09825 0
M  V30 4919 H 484.02 -5.67487 3.12829 0
M  V30 4920 N 477.426 -0.562348 -1.47226 0
M  V30 4921 C 478.673 -0.0402165 -2.0246 0
M  V30 4922 C 479.001 1.31169 -1.43614 0
M  V30 4923 O 478.256 1.86805 -0.5833 0
M  V30 4924 C 478.555 0.0969817 -3.57268 0
M  V30 4925 C 478.221 -1.1847 -4.35058 0
M  V30 4926 C 476.883 -1.53588 -4.56031 0
M  V30 4927 C 479.235 -2.03378 -4.79882 0
M  V30 4928 C 476.563 -2.73452 -5.19077 0
M  V30 4929 C 478.915 -3.2245 -5.44251 0
M  V30 4930 C 477.579 -3.57876 -5.63455 0
M  V30 4931 H 476.849 -0.0147163 -0.740854 0
M  V30 4932 H 479.496 -0.734895 -1.76838 0
M  V30 4933 H 477.801 0.87466 -3.81912 0
M  V30 4934 H 479.498 0.516408 -3.97661 0
M  V30 4935 H 476.088 -0.90126 -4.19017 0
M  V30 4936 H 480.272 -1.77553 -4.63453 0
M  V30 4937 H 475.528 -3.01062 -5.32139 0
M  V30 4938 H 479.702 -3.88526 -5.77945 0
M  V30 4939 H 477.329 -4.50849 -6.12078 0
M  V30 4940 N 478.904 1.54736 -0.299062 0
M  V30 4941 C 479.851 2.23448 0.577899 0
M  V30 4942 C 480.821 1.21637 1.13109 0
M  V30 4943 O 482.006 1.50252 1.17597 0
M  V30 4944 C 479.146 2.9774 1.74484 0
M  V30 4945 C 478.259 4.1432 1.22323 0
M  V30 4946 C 477.394 4.76199 2.35388 0
M  V30 4947 C 476.433 5.84927 1.80351 0
M  V30 4948 N 475.57 6.4077 2.86982 0
M  V30 4949 H 480.41 2.97996 -0.0146545 0
M  V30 4950 H 477.947 1.47088 -0.0190013 0
M  V30 4951 H 479.905 3.39045 2.43114 0
M  V30 4952 H 478.535 2.25572 2.30905 0
M  V30 4953 H 477.587 3.7797 0.429249 0
M  V30 4954 H 478.899 4.92659 0.780309 0
M  V30 4955 H 478.053 5.20346 3.11969 0
M  V30 4956 H 476.792 3.97188 2.83006 0
M  V30 4957 H 475.797 5.40207 1.02259 0
M  V30 4958 H 477.022 6.65821 1.3364 0
M  V30 4959 H 474.968 5.64643 3.33938 0
M  V30 4960 H 474.885 7.1445 2.4718 0
M  V30 4961 H 476.153 6.89574 3.63466 0
M  V30 4962 N 480.382 0.0267497 1.57577 0
M  V30 4963 C 481.63 -0.651116 1.91324 0
M  V30 4964 C 481.951 -1.72804 0.90353 0
M  V30 4965 O 481.221 -1.95822 -0.0552946 0
M  V30 4966 H 479.801 -0.243491 0.706202 0
M  V30 4967 H 482.463 0.0739935 1.94759 0
M  V30 4968 H 481.559 -1.10536 2.9187 0
M  V30 4969 N 481.861 -1.55662 -0.24637 0
M  V30 4970 C 483.086 -1.81914 -0.996093 0
M  V30 4971 C 483.511 -0.603875 -1.78143 0
M  V30 4972 O 482.869 0.447091 -1.75701 0
M  V30 4973 C 482.917 -3.05908 -1.90925 0
M  V30 4974 O 482.021 -2.82861 -3.00105 0
M  V30 4975 H 481.362 -0.600481 -0.283406 0
M  V30 4976 H 483.892 -2.02848 -0.267199 0
M  V30 4977 H 483.902 -3.35356 -2.3238 0
M  V30 4978 H 482.577 -3.93999 -1.33183 0
M  V30 4979 H 481.154 -2.64583 -2.62775 0
M  V30 4980 N 483.339 0.512053 -1.4905 0
M  V30 4981 C 484.587 1.26436 -1.57665 0
M  V30 4982 C 484.908 1.93255 -0.260293 0
M  V30 4983 O 484.178 1.82206 0.719564 0
M  V30 4984 H 482.758 0.469658 -0.580888 0
M  V30 4985 H 485.42 0.594398 -1.85615 0
M  V30 4986 H 484.516 2.03417 -2.36702 0
M  V30 4987 N 484.817 1.37938 0.762283 0
M  V30 4988 C 486.228 1.30094 1.33912 0
M  V30 4989 C 486.579 -0.0472026 1.96143 0
M  V30 4990 O 485.704 -0.94917 1.94473 0
M  V30 4991 C 486.299 2.35592 2.43478 0
M  V30 4992 C 484.858 2.31353 2.96905 0
M  V30 4993 C 484.005 2.18919 1.70205 0
M  V30 4994 H 486.956 1.48423 0.561816 0
M  V30 4995 H 486.977 2.00806 3.23199 0
M  V30 4996 H 486.489 3.33701 1.98155 0
M  V30 4997 H 484.59 1.36799 3.46579 0
M  V30 4998 H 484.703 3.25147 3.51875 0
M  V30 4999 H 483.067 1.65624 1.93496 0
M  V30 5000 H 483.85 3.18956 1.26973 0
M  V30 5001 N 486.295 -0.989507 1.22664 0
M  V30 5002 C 487.543 -1.72612 1.05117 0
M  V30 5003 C 487.864 -1.90552 -0.414131 0
M  V30 5004 O 487.134 -1.4676 -1.29762 0
M  V30 5005 H 485.714 -0.639555 0.385977 0
M  V30 5006 H 488.376 -1.19158 1.54232 0
M  V30 5007 H 487.472 -2.71926 1.53175 0
M  V30 5008 N 487.773 -1.03688 -1.18687 0
M  V30 5009 C 489.003 -0.756819 -1.92239 0
M  V30 5010 C 489.411 0.689374 -1.76194 0
M  V30 5011 O 488.754 1.48126 -1.08648 0
M  V30 5012 C 488.816 -1.03851 -3.44173 0
M  V30 5013 C 488.48 -2.47785 -3.83994 0
M  V30 5014 C 489.477 -3.4595 -3.88091 0
M  V30 5015 C 487.162 -2.82397 -4.154 0
M  V30 5016 C 489.156 -4.76779 -4.23038 0
M  V30 5017 C 486.843 -4.13433 -4.50018 0
M  V30 5018 C 487.841 -5.10434 -4.53813 0
M  V30 5019 O 487.529 -6.39122 -4.87625 0
M  V30 5020 H 487.261 -0.275678 -0.617234 0
M  V30 5021 H 489.815 -1.38658 -1.51536 0
M  V30 5022 H 488.045 -0.351612 -3.85098 0
M  V30 5023 H 489.734 -0.746846 -3.9897 0
M  V30 5024 H 490.5 -3.20549 -3.63969 0
M  V30 5025 H 486.379 -2.07568 -4.11627 0
M  V30 5026 H 489.923 -5.52488 -4.25914 0
M  V30 5027 H 485.82 -4.38604 -4.736 0
M  V30 5028 H 486.588 -6.43715 -5.05542 0
M  V30 5029 N 489.251 1.34841 -0.815825 0
M  V30 5030 C 490.481 2.02436 -0.412695 0
M  V30 5031 C 490.889 1.61604 0.983906 0
M  V30 5032 O 490.232 0.813729 1.64694 0
M  V30 5033 C 490.294 3.56953 -0.427182 0
M  V30 5034 C 489.958 4.21083 -1.77589 0
M  V30 5035 C 490.955 4.42107 -2.73564 0
M  V30 5036 C 488.64 4.58006 -2.06243 0
M  V30 5037 C 490.634 4.99169 -3.9637 0
M  V30 5038 C 488.321 5.1478 -3.2931 0
M  V30 5039 C 489.319 5.35304 -4.24191 0
M  V30 5040 O 489.007 5.90878 -5.45086 0
M  V30 5041 H 488.739 0.655631 -0.164695 0
M  V30 5042 H 491.293 1.73246 -1.1034 0
M  V30 5043 H 489.523 3.85372 0.320175 0
M  V30 5044 H 491.212 4.05875 -0.0450875 0
M  V30 5045 H 491.978 4.13953 -2.52721 0
M  V30 5046 H 487.857 4.41339 -1.33196 0
M  V30 5047 H 491.401 5.15105 -4.70439 0
M  V30 5048 H 487.298 5.42362 -3.5002 0
M  V30 5049 H 488.066 6.0932 -5.46508 0
M  V30 5050 N 490.729 0.570148 1.46925 0
M  V30 5051 C 492.145 0.23087 1.57921 0
M  V30 5052 C 492.345 -1.26676 1.56702 0
M  V30 5053 O 491.401 -2.04774 1.47729 0
M  V30 5054 C 492.714 0.868973 2.8787 0
M  V30 5055 C 494.262 0.841397 3.01479 0
M  V30 5056 C 494.737 1.45881 4.34146 0
M  V30 5057 N 496.228 1.42258 4.40814 0
M  V30 5058 C 496.963 1.8698 5.42057 0
M  V30 5059 N 496.459 2.39618 6.50042 0
M  V30 5060 N 498.252 1.77972 5.33181 0
M  V30 5061 H 490.403 1.54301 1.45962 0
M  V30 5062 H 492.666 0.644224 0.69547 0
M  V30 5063 H 492.372 1.922 2.94537 0
M  V30 5064 H 492.246 0.369682 3.75384 0
M  V30 5065 H 494.633 -0.202973 2.94401 0
M  V30 5066 H 494.714 1.37858 2.15474 0
M  V30 5067 H 494.358 2.50231 4.4198 0
M  V30 5068 H 494.288 0.896958 5.18905 0
M  V30 5069 H 496.779 1.03768 3.63374 0
M  V30 5070 H 497.092 2.71633 7.23488 0
M  V30 5071 H 495.437 2.43636 6.50897 0
M  V30 5072 H 498.628 1.36617 4.4772 0
M  V30 5073 H 498.801 2.13143 6.11943 0
M  V30 5074 N 492.207 -1.54576 0.307264 0
M  V30 5075 C 493.137 -2.26708 -0.55907 0
M  V30 5076 C 494.118 -1.26893 -1.1328 0
M  V30 5077 O 495.303 -1.55677 -1.16097 0
M  V30 5078 C 492.433 -3.01259 -1.72801 0
M  V30 5079 C 491.387 -4.08275 -1.28435 0
M  V30 5080 C 490.713 -4.70575 -2.53895 0
M  V30 5081 C 492.013 -5.2068 -0.411038 0
M  V30 5082 H 493.707 -2.9937 0.042576 0
M  V30 5083 H 491.253 -1.43983 0.0219173 0
M  V30 5084 H 493.206 -3.50444 -2.34023 0
M  V30 5085 H 491.93 -2.26187 -2.356 0
M  V30 5086 H 490.589 -3.59949 -0.695161 0
M  V30 5087 H 490.237 -3.92136 -3.15021 0
M  V30 5088 H 489.937 -5.42854 -2.24908 0
M  V30 5089 H 491.461 -5.22527 -3.15908 0
M  V30 5090 H 492.875 -5.65721 -0.929097 0
M  V30 5091 H 491.272 -5.99716 -0.214664 0
M  V30 5092 H 492.342 -4.81629 0.562287 0
M  V30 5093 N 493.685 -0.035106 -1.57561 0
M  V30 5094 C 494.913 0.652258 -1.9635 0
M  V30 5095 C 495.328 1.65317 -0.911897 0
M  V30 5096 O 494.685 1.82194 0.105657 0
M  V30 5097 C 494.736 1.35337 -3.35211 0
M  V30 5098 O 494.457 0.392548 -4.36338 0
M  V30 5099 C 495.958 2.13199 -3.88666 0
M  V30 5100 H 493.178 0.179444 -0.646561 0
M  V30 5101 H 495.722 -0.0966459 -2.04271 0
M  V30 5102 H 493.877 2.05362 -3.28489 0
M  V30 5103 H 494.291 0.891097 -5.16875 0
M  V30 5104 H 495.765 2.577 -4.88154 0
M  V30 5105 H 496.242 2.97353 -3.23231 0
M  V30 5106 H 496.848 1.48118 -3.98674 0
M  V30 5107 N 495.163 1.55791 0.238111 0
M  V30 5108 C 496.093 1.94068 1.29846 0
M  V30 5109 C 497.074 0.806726 1.49753 0
M  V30 5110 O 498.259 1.06772 1.62214 0
M  V30 5111 C 495.389 2.24302 2.65153 0
M  V30 5112 C 494.343 3.40032 2.59927 0
M  V30 5113 C 493.669 3.55829 3.99111 0
M  V30 5114 C 494.969 4.75476 2.16148 0
M  V30 5115 H 496.663 2.82887 0.980563 0
M  V30 5116 H 494.209 1.36105 0.470253 0
M  V30 5117 H 496.162 2.4967 3.39475 0
M  V30 5118 H 494.886 1.32318 2.98596 0
M  V30 5119 H 493.545 3.14687 1.88063 0
M  V30 5120 H 493.193 2.6125 4.29834 0
M  V30 5121 H 492.893 4.3366 3.96501 0
M  V30 5122 H 494.417 3.83528 4.7512 0
M  V30 5123 H 495.831 5.00158 2.80205 0
M  V30 5124 H 494.228 5.56472 2.24631 0
M  V30 5125 H 495.298 4.71946 1.11333 0
M  V30 5126 N 496.642 -0.504142 1.49319 0
M  V30 5127 C 497.891 -1.25507 1.57895 0
M  V30 5128 C 498.204 -1.93735 0.269433 0
M  V30 5129 O 499.41 -2.70492 0.233706 0
M  V30 5130 C 497.866 -2.27869 2.78574 0
M  V30 5131 C 497.474 -1.65594 4.16272 0
M  V30 5132 C 499.218 -3.0381 2.96479 0
M  V30 5133 C 497.125 -2.66048 5.28178 0
M  V30 5134 H 496.055 -0.47212 0.587894 0
M  V30 5135 H 498.706 -0.52931 1.757 0
M  V30 5136 H 497.088 -3.03594 2.54257 0
M  V30 5137 H 498.262 -0.958826 4.50714 0
M  V30 5138 H 496.577 -1.02055 4.037 0
M  V30 5139 H 499.174 -3.78925 3.77253 0
M  V30 5140 H 499.517 -3.61235 2.06918 0
M  V30 5141 H 500.05 -2.352 3.20821 0
M  V30 5142 H 496.789 -2.13408 6.19788 0
M  V30 5143 H 496.309 -3.34009 4.98195 0
M  V30 5144 H 497.988 -3.28536 5.57381 0
M  V30 5145 N 498.12 -1.38341 -0.754957 0
M  V30 5146 C 499.083 -1.35262 -1.85032 0
M  V30 5147 C 500.083 -0.253393 -1.58791 0
M  V30 5148 O 501.273 -0.510205 -1.66561 0
M  V30 5149 C 498.405 -1.10544 -3.22479 0
M  V30 5150 H 499.598 -2.32712 -1.8917 0
M  V30 5151 H 497.151 -1.23614 -0.956515 0
M  V30 5152 H 497.886 -0.136952 -3.24011 0
M  V30 5153 H 497.671 -1.90127 -3.4292 0
M  V30 5154 H 499.161 -1.11082 -4.02555 0
M  V30 5155 N 499.598 0.982988 -1.23187 0
M  V30 5156 C 500.546 2.09616 -1.00817 0
M  V30 5157 C 501.54 1.6932 0.0519995 0
M  V30 5158 O 502.746 1.79715 -0.101284 0
M  V30 5159 H 499.121 0.685628 -0.308899 0
M  V30 5160 H 501.092 2.25652 -1.95253 0
M  V30 5161 C 499.841 3.42249 -0.613243 0
M  V30 5162 H 499.164 3.73705 -1.42073 0
M  V30 5163 H 500.604 4.21086 -0.496208 0
M  V30 5164 C 499.063 3.30002 0.678233 0
M  V30 5165 O 499.593 3.6263 1.72807 0
M  V30 5166 N 497.799 2.83164 0.653165 0
M  V30 5167 H 497.346 2.56811 -0.201492 0
M  V30 5168 H 497.304 2.75352 1.51752 0
M  V30 5169 N 501.076 1.04316 1.18135 0
M  V30 5170 C 502.324 0.746542 1.87806 0
M  V30 5171 C 502.645 -0.728082 1.80898 0
M  V30 5172 O 501.915 -1.52554 1.22899 0
M  V30 5173 H 500.495 0.273157 0.695265 0
M  V30 5174 H 503.157 1.32044 1.43354 0
M  V30 5175 H 502.253 1.05362 2.93778 0
M  V30 5176 N 502.554 -1.34406 0.822964 0
M  V30 5177 C 503.784 -2.02214 0.423424 0
M  V30 5178 C 504.192 -1.62124 -0.975322 0
M  V30 5179 O 503.535 -0.822452 -1.6426 0
M  V30 5180 C 503.597 -3.56721 0.446107 0
M  V30 5181 C 503.261 -4.20136 1.79819 0
M  V30 5182 C 504.258 -4.4065 2.75904 0
M  V30 5183 C 501.943 -4.56906 2.08669 0
M  V30 5184 C 503.937 -4.9706 3.99012 0
M  V30 5185 C 501.624 -5.13026 3.32036 0
M  V30 5186 C 502.622 -5.33047 4.27024 0
M  V30 5187 O 502.31 -5.87979 5.48211 0
M  V30 5188 H 502.042 -0.654748 0.168169 0
M  V30 5189 H 504.596 -1.72659 1.11257 0
M  V30 5190 H 502.826 -3.85537 -0.299734 0
M  V30 5191 H 504.515 -4.05845 0.0666114 0
M  V30 5192 H 505.281 -4.12607 2.54912 0
M  V30 5193 H 501.16 -4.40626 1.35535 0
M  V30 5194 H 504.704 -5.12603 4.73164 0
M  V30 5195 H 500.601 -5.40498 3.52891 0
M  V30 5196 H 501.369 -6.06413 5.49732 0
M  V30 5197 N 504.032 -0.577932 -1.46621 0
M  V30 5198 C 505.448 -0.239242 -1.57797 0
M  V30 5199 C 505.648 1.25843 -1.57371 0
M  V30 5200 O 504.704 2.03988 -1.48813 0
M  V30 5201 C 506.017 -0.884227 -2.87405 0
M  V30 5202 C 507.565 -0.857373 -3.01028 0
M  V30 5203 C 508.04 -1.48181 -4.33366 0
M  V30 5204 N 509.531 -1.44593 -4.40053 0
M  V30 5205 C 510.266 -1.89852 -5.41058 0
M  V30 5206 N 509.762 -2.43062 -6.48762 0
M  V30 5207 N 511.555 -1.80797 -5.3223 0
M  V30 5208 H 503.706 -1.55073 -1.45142 0
M  V30 5209 H 505.969 -0.647903 -0.692044 0
M  V30 5210 H 505.675 -1.93759 -2.93514 0
M  V30 5211 H 505.549 -0.389585 -3.75183 0
M  V30 5212 H 507.936 0.187357 -2.94505 0
M  V30 5213 H 508.017 -1.38999 -2.14739 0
M  V30 5214 H 507.661 -2.52572 -4.40647 0
M  V30 5215 H 507.591 -0.924464 -5.18422 0
M  V30 5216 H 510.082 -1.05694 -3.62819 0
M  V30 5217 H 510.395 -2.75466 -7.22038 0
M  V30 5218 H 508.74 -2.47085 -6.49595 0
M  V30 5219 H 511.931 -1.38989 -4.46989 0
M  V30 5220 H 512.104 -2.16385 -6.10804 0
M  V30 5221 N 505.51 1.54411 -0.315457 0
M  V30 5222 C 506.787 1.92562 0.343398 0
M  V30 5223 C 507.167 1.24423 1.70535 0
M  V30 5224 O 506.515 0.385051 2.25232 0
M  V30 5225 C 506.725 3.46168 0.443687 0
M  V30 5226 C 508.073 4.18659 0.707783 0
M  V30 5227 O 509.097 3.52281 0.52693 0
M  V30 5228 O 507.956 5.36198 1.05612 0
M  V30 5229 H 505.05 0.80379 0.194552 0
M  V30 5230 H 507.596 1.65738 -0.364577 0
M  V30 5231 H 506.368 3.8792 -0.513172 0
M  V30 5232 H 505.991 3.79073 1.19956 0
M  V30 5233 N 506.988 0.0434614 1.5754 0
M  V30 5234 C 508.234 -0.632971 1.92669 0
M  V30 5235 C 508.567 -1.70947 0.921446 0
M  V30 5236 O 507.842 -1.94426 -0.0537202 0
M  V30 5237 C 508.125 -1.23619 3.38216 0
M  V30 5238 C 507.978 -0.168274 4.49485 0
M  V30 5239 C 509.297 -2.15008 3.84005 0
M  V30 5240 H 506.416 -0.228629 0.700641 0
M  V30 5241 H 509.058 0.103651 1.89717 0
M  V30 5242 H 507.208 -1.864 3.40863 0
M  V30 5243 H 508.88 0.463196 4.58969 0
M  V30 5244 H 507.123 0.504581 4.30855 0
M  V30 5245 H 507.794 -0.630218 5.48391 0
M  V30 5246 H 510.27 -1.62198 3.83185 0
M  V30 5247 H 509.146 -2.54161 4.86511 0
M  V30 5248 H 509.407 -3.04707 3.20322 0
M  V30 5249 N 508.466 -1.55915 -0.229846 0
M  V30 5250 C 509.712 -1.78807 -0.956868 0
M  V30 5251 C 510.045 -0.611687 -1.84315 0
M  V30 5252 O 509.32 0.389398 -1.90562 0
M  V30 5253 C 509.603 -3.11718 -1.80288 0
M  V30 5254 C 509.456 -4.3979 -0.943649 0
M  V30 5255 C 510.775 -3.40999 -2.78222 0
M  V30 5256 H 507.894 -0.6505 -0.346437 0
M  V30 5257 H 510.536 -1.88648 -0.226252 0
M  V30 5258 H 508.686 -3.03459 -2.42579 0
M  V30 5259 H 510.358 -4.60059 -0.338121 0
M  V30 5260 H 508.601 -4.33086 -0.248705 0
M  V30 5261 H 509.272 -5.29208 -1.5698 0
M  V30 5262 H 511.748 -3.49332 -2.26067 0
M  V30 5263 H 510.624 -4.35183 -3.34526 0
M  V30 5264 H 510.885 -2.62754 -3.55546 0
M  V30 5265 N 509.944 0.496216 -1.49584 0
M  V30 5266 C 510.907 1.57952 -1.66084 0
M  V30 5267 C 511.907 1.51729 -0.53244 0
M  V30 5268 O 513.097 1.54796 -0.79899 0
M  V30 5269 C 510.229 2.97604 -1.66268 0
M  V30 5270 H 511.422 1.44649 -2.6271 0
M  V30 5271 H 508.975 0.7208 -1.38687 0
M  V30 5272 H 509.71 3.16378 -0.712432 0
M  V30 5273 H 509.495 3.03528 -2.4822 0
M  V30 5274 H 510.985 3.76301 -1.81073 0
M  V30 5275 N 511.423 1.38739 0.74761 0
M  V30 5276 C 512.7 1.25791 1.49786 0
M  V30 5277 C 513.08 -0.138075 2.10648 0
M  V30 5278 O 512.428 -1.14815 1.9756 0
M  V30 5279 C 512.638 2.37265 2.55942 0
M  V30 5280 C 513.986 2.75978 3.22679 0
M  V30 5281 O 515.01 2.36621 2.6625 0
M  V30 5282 O 513.869 3.43867 4.24756 0
M  V30 5283 H 510.963 0.492251 0.664543 0
M  V30 5284 H 513.509 1.50582 0.782511 0
M  V30 5285 H 512.281 3.30644 2.0926 0
M  V30 5286 H 511.904 2.14071 3.35051 0
M  V30 5287 N 512.901 -0.976442 1.23707 0
M  V30 5288 C 514.147 -1.72081 1.07312 0
M  V30 5289 C 514.48 -1.90275 -0.388476 0
M  V30 5290 O 513.755 -1.4579 -1.28746 0
M  V30 5291 C 514.038 -3.11675 1.80363 0
M  V30 5292 C 513.891 -3.01027 3.3422 0
M  V30 5293 C 515.21 -4.1117 1.5693 0
M  V30 5294 H 512.329 -0.624583 0.391236 0
M  V30 5295 H 514.971 -1.13649 1.52263 0
M  V30 5296 H 513.121 -3.61559 1.42153 0
M  V30 5297 H 514.793 -2.58637 3.81975 0
M  V30 5298 H 513.036 -2.3744 3.63049 0
M  V30 5299 H 513.707 -3.9988 3.80525 0
M  V30 5300 H 516.183 -3.7011 1.90151 0
M  V30 5301 H 515.059 -5.06928 2.10513 0
M  V30 5302 H 515.32 -4.392 0.505548 0
M  V30 5303 N 514.379 -1.04941 -1.1758 0
M  V30 5304 C 515.795 -0.770282 -1.39781 0
M  V30 5305 C 515.995 0.636417 -1.91186 0
M  V30 5306 O 515.051 1.39923 -2.10185 0
M  V30 5307 C 516.364 -1.82376 -2.3908 0
M  V30 5308 C 517.912 -1.84569 -2.52791 0
M  V30 5309 C 518.387 -2.88933 -3.55361 0
M  V30 5310 N 519.878 -2.8788 -3.62877 0
M  V30 5311 C 520.613 -3.65282 -4.41992 0
M  V30 5312 N 520.109 -4.52461 -5.24643 0
M  V30 5313 N 521.902 -3.53732 -4.36841 0
M  V30 5314 H 514.053 -1.95705 -0.825438 0
M  V30 5315 H 516.316 -0.847284 -0.425222 0
M  V30 5316 H 516.022 -2.83323 -2.08376 0
M  V30 5317 H 515.896 -1.66327 -3.38549 0
M  V30 5318 H 518.283 -0.842879 -2.82807 0
M  V30 5319 H 518.364 -2.04696 -1.53406 0
M  V30 5320 H 518.008 -3.89398 -3.26085 0
M  V30 5321 H 517.938 -2.66059 -4.54445 0
M  V30 5322 H 520.429 -2.24666 -3.03864 0
M  V30 5323 H 520.742 -5.08211 -5.82187 0
M  V30 5324 H 519.087 -4.56524 -5.24033 0
M  V30 5325 H 522.278 -2.85021 -3.71323 0
M  V30 5326 H 522.451 -4.14302 -4.98255 0
M  V30 5327 N 515.857 1.33968 -0.830081 0
M  V30 5328 C 517.104 1.98063 -0.421566 0
M  V30 5329 C 517.432 1.65787 1.0171 0
M  V30 5330 O 516.687 0.925348 1.72441 0
M  V30 5331 C 516.986 3.52679 -0.57898 0
M  V30 5332 C 516.652 4.04884 -1.98443 0
M  V30 5333 C 515.314 4.18852 -2.36888 0
M  V30 5334 C 517.666 4.32879 -2.90285 0
M  V30 5335 C 514.994 4.58145 -3.66497 0
M  V30 5336 C 517.346 4.7362 -4.19364 0
M  V30 5337 C 516.01 4.85794 -4.57778 0
M  V30 5338 H 515.28 0.724765 -0.154262 0
M  V30 5339 H 517.927 1.59792 -1.05541 0
M  V30 5340 H 516.232 3.91556 0.138219 0
M  V30 5341 H 517.929 4.00261 -0.243317 0
M  V30 5342 H 514.519 3.9448 -1.67581 0
M  V30 5343 H 518.703 4.21619 -2.61823 0
M  V30 5344 H 513.959 4.65762 -3.96075 0
M  V30 5345 H 518.133 4.9424 -4.90612 0
M  V30 5346 H 515.76 5.15998 -5.58256 0
M  V30 5347 N 517.335 0.585699 1.46312 0
M  V30 5348 C 518.265 -0.133556 2.33118 0
M  V30 5349 C 519.246 -0.880707 1.45525 0
M  V30 5350 O 520.431 -0.855579 1.74337 0
M  V30 5351 C 517.561 -1.14585 3.27853 0
M  V30 5352 C 516.515 -0.513341 4.2491 0
M  V30 5353 C 515.841 -1.63231 5.09175 0
M  V30 5354 C 517.141 0.551413 5.19381 0
M  V30 5355 H 518.835 0.59121 2.93505 0
M  V30 5356 H 516.381 0.285761 1.41136 0
M  V30 5357 H 518.334 -1.65741 3.87438 0
M  V30 5358 H 517.058 -1.90093 2.65579 0
M  V30 5359 H 515.717 -0.0228349 3.66593 0
M  V30 5360 H 515.365 -2.37713 4.43285 0
M  V30 5361 H 515.065 -1.21473 5.74907 0
M  V30 5362 H 516.589 -2.14658 5.71624 0
M  V30 5363 H 518.003 0.124804 5.73164 0
M  V30 5364 H 516.4 0.889486 5.93471 0
M  V30 5365 H 517.47 1.43655 4.63132 0
M  V30 5366 N 518.813 -1.54241 0.323641 0
M  V30 5367 C 520.224 -1.85975 -0.164405 0
M  V30 5368 C 520.575 -1.24529 -1.51615 0
M  V30 5369 O 519.7 -0.551351 -2.09258 0
M  V30 5370 C 520.295 -3.37424 -0.305091 0
M  V30 5371 C 518.854 -3.69107 -0.737358 0
M  V30 5372 C 518.001 -2.76942 0.140884 0
M  V30 5373 H 520.952 -1.49088 0.543922 0
M  V30 5374 H 520.973 -3.63147 -1.13598 0
M  V30 5375 H 520.485 -3.82116 0.678876 0
M  V30 5376 H 518.586 -3.29947 -1.73107 0
M  V30 5377 H 518.699 -4.76035 -0.541053 0
M  V30 5378 H 517.063 -2.51795 -0.383572 0
M  V30 5379 H 517.846 -3.24461 1.12162 0
M  V30 5380 N 520.291 -0.0518155 -1.57515 0
M  V30 5381 C 521.238 0.922352 -2.11569 0
M  V30 5382 C 522.208 1.30842 -1.02321 0
M  V30 5383 O 523.393 1.39778 -1.29872 0
M  V30 5384 C 520.533 2.19167 -2.6657 0
M  V30 5385 C 519.646 1.86003 -3.89906 0
M  V30 5386 C 518.781 3.07398 -4.33221 0
M  V30 5387 C 517.82 2.70158 -5.49255 0
M  V30 5388 N 516.957 3.84248 -5.8762 0
M  V30 5389 H 521.797 0.454506 -2.94514 0
M  V30 5390 H 519.334 0.212718 -1.45554 0
M  V30 5391 H 521.292 2.93443 -2.96559 0
M  V30 5392 H 519.922 2.63528 -1.86421 0
M  V30 5393 H 518.974 1.01874 -3.66505 0
M  V30 5394 H 520.286 1.54592 -4.74239 0
M  V30 5395 H 519.44 3.89972 -4.64765 0
M  V30 5396 H 518.179 3.41988 -3.477 0
M  V30 5397 H 517.184 1.86001 -5.17382 0
M  V30 5398 H 518.409 2.36759 -6.36492 0
M  V30 5399 H 516.355 4.18638 -5.05053 0
M  V30 5400 H 516.272 3.56538 -6.66646 0
M  V30 5401 H 517.54 4.6746 -6.2378 0
M  V30 5402 N 521.769 1.56035 0.221574 0
M  V30 5403 C 522.999 1.82864 0.961468 0
M  V30 5404 C 523.407 0.628703 1.78449 0
M  V30 5405 O 522.75 -0.412109 1.79018 0
M  V30 5406 C 522.812 3.03425 1.92804 0
M  V30 5407 C 522.476 4.38429 1.28954 0
M  V30 5408 C 523.473 5.15441 0.679431 0
M  V30 5409 C 521.158 4.85151 1.30131 0
M  V30 5410 C 523.152 6.37337 0.0896148 0
M  V30 5411 C 520.839 6.06989 0.707651 0
M  V30 5412 C 521.837 6.82923 0.102855 0
M  V30 5413 O 521.525 8.02456 -0.48157 0
M  V30 5414 H 521.257 0.611883 0.28736 0
M  V30 5415 H 523.811 2.0397 0.241932 0
M  V30 5416 H 522.041 2.78138 2.68656 0
M  V30 5417 H 523.73 3.17127 2.53348 0
M  V30 5418 H 524.496 4.80452 0.662661 0
M  V30 5419 H 520.375 4.26021 1.76145 0
M  V30 5420 H 523.919 6.96547 -0.383069 0
M  V30 5421 H 519.816 6.41451 0.721834 0
M  V30 5422 H 520.584 8.17636 -0.375887 0
M  V30 5423 N 523.247 -0.488276 1.49845 0
M  V30 5424 C 524.157 -1.61451 1.70207 0
M  V30 5425 C 525.173 -1.63877 0.584846 0
M  V30 5426 O 526.349 -1.82063 0.861107 0
M  V30 5427 C 523.414 -2.9776 1.77594 0
M  V30 5428 C 522.475 -3.05861 3.01243 0
M  V30 5429 C 521.708 -4.35668 3.08268 0
M  V30 5430 O 521.931 -5.25197 2.22541 0
M  V30 5431 O 520.865 -4.49005 4.00847 0
M  V30 5432 H 524.691 -1.47199 2.65643 0
M  V30 5433 H 522.276 -0.665939 1.33737 0
M  V30 5434 H 524.158 -3.7875 1.84732 0
M  V30 5435 H 522.833 -3.12248 0.8534 0
M  V30 5436 H 521.74 -2.24012 2.99616 0
M  V30 5437 H 523.073 -2.96304 3.9302 0
M  V30 5438 N 524.725 -1.39134 -0.740242 0
M  V30 5439 C 525.973 -1.35803 -1.49673 0
M  V30 5440 C 526.294 0.0470897 -1.94943 0
M  V30 5441 O 525.564 0.997347 -1.68611 0
M  V30 5442 H 524.144 -0.499736 -0.555224 0
M  V30 5443 H 526.806 -1.73947 -0.879107 0
M  V30 5444 H 525.902 -2.0174 -2.38133 0
M  V30 5445 N 526.204 0.969867 -1.24223 0
M  V30 5446 C 527.152 2.08535 -1.03034 0
M  V30 5447 C 528.146 1.69366 0.0340379 0
M  V30 5448 O 529.352 1.79597 -0.12034 0
M  V30 5449 H 525.727 0.682313 -0.316154 0
M  V30 5450 H 527.698 2.23569 -1.97635 0
M  V30 5451 C 526.447 3.4158 -0.649509 0
M  V30 5452 H 525.77 3.72177 -1.46028 0
M  V30 5453 H 527.21 4.20536 -0.540841 0
M  V30 5454 C 525.669 3.30703 0.643194 0
M  V30 5455 O 526.199 3.64443 1.68951 0
M  V30 5456 N 524.405 2.83841 0.623095 0
M  V30 5457 H 523.952 2.56583 -0.228719 0
M  V30 5458 H 523.91 2.76946 1.48823 0
M  V30 5459 N 527.682 1.05563 1.17022 0
M  V30 5460 C 528.931 0.763036 1.8671 0
M  V30 5461 C 529.244 -0.712857 1.82147 0
M  V30 5462 O 530.45 -1.11955 2.47343 0
M  V30 5463 C 528.906 1.31474 3.35026 0
M  V30 5464 C 528.514 2.82034 3.48081 0
M  V30 5465 C 530.258 1.09935 4.10018 0
M  V30 5466 C 528.165 3.30486 4.90442 0
M  V30 5467 H 527.095 0.281747 0.699382 0
M  V30 5468 H 529.746 1.2734 1.32124 0
M  V30 5469 H 528.128 0.732171 3.89173 0
M  V30 5470 H 529.302 3.46178 3.04133 0
M  V30 5471 H 527.617 3.02156 2.86515 0
M  V30 5472 H 530.214 1.43632 5.15048 0
M  V30 5473 H 530.557 0.0373072 4.16283 0
M  V30 5474 H 531.09 1.64732 3.62089 0
M  V30 5475 H 527.829 4.36137 4.89352 0
M  V30 5476 H 527.349 2.71086 5.35044 0
M  V30 5477 H 529.028 3.25382 5.59227 0
M  V30 5478 N 529.16 -1.33526 0.837174 0
M  V30 5479 C 530.437 -1.92369 0.354065 0
M  V30 5480 C 530.817 -1.76348 -1.16038 0
M  V30 5481 O 530.165 -1.15083 -1.97403 0
M  V30 5482 C 530.375 -3.39728 0.799101 0
M  V30 5483 C 531.723 -4.16877 0.806139 0
M  V30 5484 O 532.747 -3.48373 0.742597 0
M  V30 5485 O 531.606 -5.39166 0.892345 0
M  V30 5486 H 528.7 -0.820952 0.0998378 0
M  V30 5487 H 531.246 -1.42409 0.922913 0
M  V30 5488 H 530.018 -3.45254 1.84162 0
M  V30 5489 H 529.641 -3.97062 0.206731 0
M  V30 5490 N 530.638 -0.59345 -1.46 0
M  V30 5491 C 531.887 -0.0808084 -2.01538 0
M  V30 5492 C 532.2 1.29112 -1.46934 0
M  V30 5493 O 533.406 1.8957 -1.94359 0
M  V30 5494 C 531.862 -0.0938311 -3.59778 0
M  V30 5495 C 531.47 -1.46474 -4.23379 0
M  V30 5496 C 533.214 0.364306 -4.22934 0
M  V30 5497 C 531.121 -1.4349 -5.73729 0
M  V30 5498 H 530.051 -0.0264407 -0.753536 0
M  V30 5499 H 532.702 -0.746689 -1.67621 0
M  V30 5500 H 531.084 0.638427 -3.9082 0
M  V30 5501 H 532.258 -2.21758 -4.03931 0
M  V30 5502 H 530.573 -1.86379 -3.7236 0
M  V30 5503 H 533.17 0.405584 -5.3316 0
M  V30 5504 H 533.513 1.38409 -3.92618 0
M  V30 5505 H 534.046 -0.31423 -3.96557 0
M  V30 5506 H 530.785 -2.43184 -6.08722 0
M  V30 5507 H 530.305 -0.724431 -5.95409 0
M  V30 5508 H 531.984 -1.15243 -6.36654 0
M  V30 5509 N 532.116 1.54067 -0.331816 0
M  V30 5510 C 533.364 2.00319 0.267739 0
M  V30 5511 C 533.685 1.22148 1.52003 0
M  V30 5512 O 532.955 0.325494 1.93177 0
M  V30 5513 H 531.535 0.740014 0.101922 0
M  V30 5514 H 534.197 1.89628 -0.450267 0
M  V30 5515 H 533.293 3.07765 0.518385 0
M  V30 5516 N 533.594 0.0601682 1.57485 0
M  V30 5517 C 534.524 -0.90889 2.15085 0
M  V30 5518 C 535.505 -1.31838 1.07484 0
M  V30 5519 O 536.69 -1.3915 1.35466 0
M  V30 5520 C 533.82 -2.18059 2.7031 0
M  V30 5521 C 532.774 -1.91088 3.82974 0
M  V30 5522 C 532.1 -3.24789 4.24754 0
M  V30 5523 C 533.4 -1.22535 5.07723 0
M  V30 5524 H 535.094 -0.429093 2.96309 0
M  V30 5525 H 532.64 -0.204952 1.42534 0
M  V30 5526 H 534.593 -2.86258 3.09248 0
M  V30 5527 H 533.317 -2.6826 1.8629 0
M  V30 5528 H 531.976 -1.25297 3.44523 0
M  V30 5529 H 531.624 -3.72809 3.37672 0
M  V30 5530 H 531.324 -3.07538 5.00694 0
M  V30 5531 H 532.848 -3.94205 4.66299 0
M  V30 5532 H 534.262 -1.80783 5.4405 0
M  V30 5533 H 532.659 -1.1558 5.88864 0
M  V30 5534 H 533.729 -0.202692 4.84476 0
M  V30 5535 N 535.072 -1.5615 -0.213296 0
M  V30 5536 C 536.019 -1.93086 -1.26437 0
M  V30 5537 C 536.989 -0.789086 -1.4616 0
M  V30 5538 O 538.174 -1.04569 -1.59593 0
M  V30 5539 C 535.314 -2.26003 -2.608 0
M  V30 5540 C 534.427 -3.53156 -2.48807 0
M  V30 5541 C 533.562 -3.7548 -3.7575 0
M  V30 5542 C 532.601 -4.96119 -3.58514 0
M  V30 5543 N 531.738 -5.14791 -4.77425 0
M  V30 5544 H 536.578 -2.82707 -0.942376 0
M  V30 5545 H 534.115 -1.39919 -0.454001 0
M  V30 5546 H 536.073 -2.431 -3.39055 0
M  V30 5547 H 534.703 -1.39546 -2.91079 0
M  V30 5548 H 533.755 -3.44207 -1.61944 0
M  V30 5549 H 535.067 -4.41565 -2.31996 0
M  V30 5550 H 534.221 -3.92718 -4.62447 0
M  V30 5551 H 532.96 -2.85368 -3.95495 0
M  V30 5552 H 531.965 -4.78823 -2.70201 0
M  V30 5553 H 533.19 -5.87724 -3.40231 0
M  V30 5554 H 531.136 -4.27623 -4.97468 0
M  V30 5555 H 531.053 -5.97347 -4.63371 0
M  V30 5556 H 532.321 -5.36471 -5.65525 0
M  V30 5557 N 536.55 0.480323 -1.50102 0
M  V30 5558 C 537.798 1.23063 -1.60312 0
M  V30 5559 C 538.119 1.92659 -0.301226 0
M  V30 5560 O 537.389 1.83691 0.680753 0
M  V30 5561 H 535.969 0.457231 -0.590719 0
M  V30 5562 H 538.631 0.554893 -1.86834 0
M  V30 5563 H 537.727 1.9835 -2.40964 0
M  V30 5564 N 538.028 1.39524 0.732853 0
M  V30 5565 C 538.975 1.38416 1.84688 0
M  V30 5566 C 539.945 0.243539 1.64305 0
M  V30 5567 O 541.13 0.438979 1.85681 0
M  V30 5568 C 538.27 1.23555 3.22224 0
M  V30 5569 C 537.383 2.47179 3.54298 0
M  V30 5570 C 536.518 2.2489 4.81246 0
M  V30 5571 C 535.557 3.44178 5.0617 0
M  V30 5572 N 534.694 3.21192 6.24323 0
M  V30 5573 H 539.534 2.33645 1.84971 0
M  V30 5574 H 537.071 1.16059 0.903804 0
M  V30 5575 H 539.029 1.12949 4.0162 0
M  V30 5576 H 537.659 0.31954 3.21215 0
M  V30 5577 H 536.711 2.68379 2.69587 0
M  V30 5578 H 538.023 3.36022 3.68633 0
M  V30 5579 H 537.177 2.11538 5.68627 0
M  V30 5580 H 535.916 1.33443 4.69089 0
M  V30 5581 H 534.921 3.58025 4.17251 0
M  V30 5582 H 536.146 4.36528 5.20212 0
M  V30 5583 H 534.092 2.32413 6.1345 0
M  V30 5584 H 534.009 4.03594 6.39256 0
M  V30 5585 H 535.277 3.1154 7.14537 0
M  V30 5586 N 539.506 -0.963266 1.24736 0
M  V30 5587 C 540.752 -1.70933 1.09131 0
M  V30 5588 C 541.085 -1.90676 -0.368273 0
M  V30 5589 O 540.36 -1.47147 -1.27193 0
M  V30 5590 C 540.643 -3.09744 1.83658 0
M  V30 5591 C 540.496 -2.97465 3.37394 0
M  V30 5592 C 541.815 -4.09483 1.61282 0
M  V30 5593 H 538.934 -0.620398 0.397838 0
M  V30 5594 H 541.576 -1.12028 1.53459 0
M  V30 5595 H 539.726 -3.60031 1.4598 0
M  V30 5596 H 541.398 -2.54571 3.84696 0
M  V30 5597 H 539.641 -2.33576 3.65547 0
M  V30 5598 H 540.312 -3.95822 3.84745 0
M  V30 5599 H 542.788 -3.68073 1.94066 0
M  V30 5600 H 541.664 -5.04666 2.15878 0
M  V30 5601 H 541.925 -4.38639 0.552102 0
M  V30 5602 N 540.985 -1.06182 -1.16461 0
M  V30 5603 C 541.915 -0.692861 -2.22984 0
M  V30 5604 C 542.896 0.314122 -1.67174 0
M  V30 5605 O 544.081 0.189499 -1.93273 0
M  V30 5606 C 541.211 -0.07732 -3.47214 0
M  V30 5607 C 540.165 -1.01015 -4.15909 0
M  V30 5608 C 539.491 -0.257973 -5.34077 0
M  V30 5609 C 540.791 -2.33868 -4.67015 0
M  V30 5610 H 542.485 -1.58343 -2.54102 0
M  V30 5611 H 540.031 -0.76279 -1.22137 0
M  V30 5612 H 541.984 0.19266 -4.20959 0
M  V30 5613 H 540.708 0.848254 -3.15392 0
M  V30 5614 H 539.367 -1.26486 -3.44088 0
M  V30 5615 H 539.015 0.670684 -4.98509 0
M  V30 5616 H 538.715 -0.879638 -5.80979 0
M  V30 5617 H 540.239 0.00448788 -6.106 0
M  V30 5618 H 541.653 -2.1279 -5.32347 0
M  V30 5619 H 540.05 -2.91522 -5.24533 0
M  V30 5620 H 541.12 -2.97019 -3.83286 0
M  V30 5621 N 542.463 1.3308 -0.844243 0
M  V30 5622 C 543.691 2.01808 -0.456203 0
M  V30 5623 C 544.106 1.63498 0.944131 0
M  V30 5624 O 543.463 0.85102 1.61443 0
M  V30 5625 C 543.514 3.56922 -0.573513 0
M  V30 5626 O 543.235 3.93851 -1.91868 0
M  V30 5627 C 544.736 4.42922 -0.183125 0
M  V30 5628 H 541.956 0.646273 -0.180477 0
M  V30 5629 H 544.5 1.69891 -1.1383 0
M  V30 5630 H 542.655 3.87352 0.0607367 0
M  V30 5631 H 543.069 4.88564 -1.90802 0
M  V30 5632 H 544.543 5.51093 -0.316241 0
M  V30 5633 H 545.02 4.30386 0.875477 0
M  V30 5634 H 545.626 4.1786 -0.792027 0
M  V30 5635 N 543.941 0.601185 1.45683 0
M  V30 5636 C 545.19 0.0914953 2.01492 0
M  V30 5637 C 545.503 -1.28331 1.47616 0
M  V30 5638 O 546.709 -1.88537 1.95362 0
M  V30 5639 C 545.165 0.11291 3.59723 0
M  V30 5640 C 544.773 1.48717 4.22596 0
M  V30 5641 C 546.517 -0.341871 4.23121 0
M  V30 5642 C 544.424 1.46531 5.7296 0
M  V30 5643 H 543.354 0.0304365 0.753385 0
M  V30 5644 H 546.005 0.755568 1.67223 0
M  V30 5645 H 544.387 -0.617692 3.91153 0
M  V30 5646 H 545.561 2.23897 4.02749 0
M  V30 5647 H 543.876 1.88351 3.71366 0
M  V30 5648 H 546.473 -0.377304 5.33367 0
M  V30 5649 H 546.816 -1.36325 3.93346 0
M  V30 5650 H 547.349 0.335256 3.96385 0
M  V30 5651 H 544.088 2.46408 6.07423 0
M  V30 5652 H 543.608 0.755997 5.95017 0
M  V30 5653 H 545.287 1.18618 6.36034 0
M  V30 5654 N 545.419 -1.53889 0.339982 0
M  V30 5655 C 546.667 -2.00458 -0.257112 0
M  V30 5656 C 546.988 -1.22953 -1.51353 0
M  V30 5657 O 546.258 -0.335734 -1.93002 0
M  V30 5658 H 544.838 -0.740544 -0.0979965 0
M  V30 5659 H 547.5 -1.89386 0.460317 0
M  V30 5660 H 546.596 -3.08035 -0.502057 0
M  V30 5661 N 546.897 -0.0685191 -1.57451 0
M  V30 5662 C 548.145 0.60016 -1.92983 0
M  V30 5663 C 548.466 1.70348 -0.949028 0
M  V30 5664 O 547.736 1.959 0.00335647 0
M  V30 5665 H 546.316 0.224682 -0.712409 0
M  V30 5666 H 548.978 -0.125605 -1.94495 0
M  V30 5667 H 548.074 1.02759 -2.94698 0
M  V30 5668 N 548.375 1.56261 0.205012 0
M  V30 5669 C 549.338 1.92908 1.23771 0
M  V30 5670 C 550.338 0.809208 1.38955 0
M  V30 5671 O 551.528 1.07676 1.36936 0
M  V30 5672 C 548.66 2.19442 2.60879 0
M  V30 5673 H 549.853 2.85287 0.924728 0
M  V30 5674 H 547.406 1.49798 0.446125 0
M  V30 5675 H 548.141 1.29668 2.97248 0
M  V30 5676 H 547.926 3.0104 2.51232 0
M  V30 5677 H 549.416 2.48833 3.35368 0
M  V30 5678 N 549.853 -0.472356 1.50355 0
M  V30 5679 C 551.13 -1.23356 1.51798 0
M  V30 5680 C 551.51 -2.09469 0.26193 0
M  V30 5681 O 550.858 -2.15677 -0.754691 0
M  V30 5682 C 551.068 -2.06568 2.81302 0
M  V30 5683 C 552.416 -2.648 3.31913 0
M  V30 5684 O 553.44 -2.16812 2.82614 0
M  V30 5685 O 552.299 -3.52231 4.17846 0
M  V30 5686 H 549.393 -0.559707 0.608816 0
M  V30 5687 H 551.939 -0.48428 1.62643 0
M  V30 5688 H 550.711 -1.43103 3.64194 0
M  V30 5689 H 550.334 -2.88633 2.73454 0
M  V30 5690 N 551.331 -1.39911 -0.725443 0
M  V30 5691 C 552.294 -1.39156 -1.82121 0
M  V30 5692 C 553.294 -0.287018 -1.58218 0
M  V30 5693 O 554.484 -0.545421 -1.65441 0
M  V30 5694 C 551.616 -1.1736 -3.20062 0
M  V30 5695 H 552.809 -2.36672 -1.84191 0
M  V30 5696 H 550.362 -1.25615 -0.930079 0
M  V30 5697 H 551.097 -0.205648 -3.23647 0
M  V30 5698 H 550.882 -1.97358 -3.3881 0
M  V30 5699 H 552.372 -1.19596 -4.00108 0
M  V30 5700 N 552.809 0.956637 -1.25245 0
M  V30 5701 C 553.719 2.0868 -1.0719 0
M  V30 5702 C 554.735 1.73997 -0.00959074 0
M  V30 5703 O 555.911 2.00301 -0.210104 0
M  V30 5704 C 552.976 3.39754 -0.690526 0
M  V30 5705 C 552.037 3.88316 -1.83055 0
M  V30 5706 C 551.27 5.13134 -1.46728 0
M  V30 5707 O 551.493 5.6925 -0.362029 0
M  V30 5708 O 550.427 5.56356 -2.29677 0
M  V30 5709 H 554.253 2.26813 -2.01965 0
M  V30 5710 H 551.838 1.07098 -1.04165 0
M  V30 5711 H 553.72 4.18543 -0.489871 0
M  V30 5712 H 552.395 3.22896 0.227981 0
M  V30 5713 H 551.302 3.1054 -2.08604 0
M  V30 5714 H 552.635 4.09669 -2.72822 0
M  V30 5715 N 554.287 1.06798 1.15896 0
M  V30 5716 C 555.515 0.808694 1.90441 0
M  V30 5717 C 555.93 -0.637506 1.77711 0
M  V30 5718 O 555.287 -1.43684 1.12522 0
M  V30 5719 C 555.338 1.20068 3.40978 0
M  V30 5720 O 555.059 2.59013 3.53333 0
M  V30 5721 C 556.56 0.96987 4.3256 0
M  V30 5722 H 553.78 0.292809 0.603742 0
M  V30 5723 H 556.324 1.42296 1.46874 0
M  V30 5724 H 554.479 0.630842 3.82229 0
M  V30 5725 H 554.893 2.7485 4.46719 0
M  V30 5726 H 556.367 1.29371 5.36626 0
M  V30 5727 H 556.844 -0.0941209 4.39099 0
M  V30 5728 H 557.45 1.52433 3.97044 0
M  V30 5729 N 555.766 -1.3263 0.851289 0
M  V30 5730 C 556.696 -2.31449 0.308771 0
M  V30 5731 C 557.677 -1.59531 -0.590255 0
M  V30 5732 O 558.862 -1.87351 -0.511205 0
M  V30 5733 C 555.992 -3.43586 -0.506548 0
M  V30 5734 C 554.946 -4.26963 0.297753 0
M  V30 5735 C 554.272 -5.30831 -0.642094 0
M  V30 5736 C 555.572 -4.99643 1.52166 0
M  V30 5737 H 557.266 -2.77074 1.13447 0
M  V30 5738 H 554.812 -1.33207 0.546971 0
M  V30 5739 H 556.765 -4.11754 -0.896474 0
M  V30 5740 H 555.489 -2.96681 -1.36558 0
M  V30 5741 H 554.148 -3.60437 0.669391 0
M  V30 5742 H 553.796 -4.8018 -1.49788 0
M  V30 5743 H 553.496 -5.87501 -0.107968 0
M  V30 5744 H 555.02 -6.01862 -1.02927 0
M  V30 5745 H 556.434 -5.6051 1.20421 0
M  V30 5746 H 554.831 -5.66022 1.99347 0
M  V30 5747 H 555.901 -4.27701 2.28474 0
M  V30 5748 N 557.244 -0.608902 -1.45362 0
M  V30 5749 C 558.177 0.158059 -2.27652 0
M  V30 5750 C 559.155 0.872397 -1.37215 0
M  V30 5751 O 560.339 0.881002 -1.66645 0
M  V30 5752 C 557.466 1.22896 -3.15617 0
M  V30 5753 C 556.512 0.617607 -4.22005 0
M  V30 5754 S 557.345 -0.575518 -5.32398 0
M  V30 5755 C 558.501 0.495938 -6.23932 0
M  V30 5756 H 558.734 -0.540095 -2.92353 0
M  V30 5757 H 556.267 -0.396456 -1.49223 0
M  V30 5758 H 558.225 1.84195 -3.66855 0
M  V30 5759 H 556.886 1.89919 -2.50179 0
M  V30 5760 H 556.079 1.42341 -4.83482 0
M  V30 5761 H 555.681 0.0797273 -3.73915 0
M  V30 5762 H 557.973 1.37465 -6.63408 0
M  V30 5763 H 558.916 -0.0827108 -7.08052 0
M  V30 5764 H 559.324 0.811856 -5.58631 0
M  V30 5765 N 558.722 1.53707 -0.348139 0
M  V30 5766 C 559.999 1.93247 0.302475 0
M  V30 5767 C 560.379 1.28012 1.67857 0
M  V30 5768 O 559.727 0.43274 2.24365 0
M  V30 5769 C 559.937 3.47031 0.370159 0
M  V30 5770 C 561.285 4.20066 0.61882 0
M  V30 5771 O 562.309 3.53319 0.452087 0
M  V30 5772 O 561.168 5.38318 0.94215 0
M  V30 5773 H 558.262 0.807736 0.177458 0
M  V30 5774 H 560.808 1.64927 -0.399651 0
M  V30 5775 H 559.58 3.86745 -0.59534 0
M  V30 5776 H 559.203 3.81532 1.11888 0
M  V30 5777 N 560.2 0.0768682 1.57412 0
M  V30 5778 C 561.163 -0.873949 2.11884 0
M  V30 5779 C 562.163 -1.22301 1.04398 0
M  V30 5780 O 563.353 -1.15545 1.30365 0
M  V30 5781 C 560.485 -2.17575 2.62438 0
M  V30 5782 H 561.678 -0.401278 2.97203 0
M  V30 5783 H 559.231 -0.171904 1.55352 0
M  V30 5784 H 559.966 -2.69368 1.80587 0
M  V30 5785 H 559.751 -1.93534 3.41009 0
M  V30 5786 H 561.241 -2.85631 3.04639 0
M  V30 5787 N 561.678 -1.56367 -0.196722 0
M  V30 5788 C 562.641 -1.93561 -1.22746 0
M  V30 5789 C 563.641 -0.816566 -1.38524 0
M  V30 5790 O 564.831 -1.084 -1.36363 0
M  V30 5791 C 561.963 -2.20823 -2.59712 0
M  V30 5792 H 563.156 -2.85774 -0.909586 0
M  V30 5793 H 560.709 -1.50032 -0.438174 0
M  V30 5794 H 561.444 -1.31243 -2.96557 0
M  V30 5795 H 561.229 -3.02368 -2.49632 0
M  V30 5796 H 562.719 -2.50608 -3.34044 0
M  V30 5797 N 563.156 0.464375 -1.50603 0
M  V30 5798 C 564.402 1.21776 -1.62168 0
M  V30 5799 C 564.735 1.91476 -0.324154 0
M  V30 5800 O 564.01 1.8242 0.674782 0
M  V30 5801 C 564.293 2.25614 -2.80661 0
M  V30 5802 C 564.146 1.60175 -4.20314 0
M  V30 5803 C 565.465 3.26862 -2.94702 0
M  V30 5804 H 562.584 0.44137 -0.590222 0
M  V30 5805 H 565.226 0.510623 -1.8301 0
M  V30 5806 H 563.376 2.85923 -2.63021 0
M  V30 5807 H 565.048 1.03411 -4.4956 0
M  V30 5808 H 563.291 0.904697 -4.24261 0
M  V30 5809 H 563.962 2.35665 -4.99165 0
M  V30 5810 H 566.438 2.76582 -3.10872 0
M  V30 5811 H 565.314 3.96839 -3.79223 0
M  V30 5812 H 565.575 3.91382 -2.05603 0
M  V30 5813 N 564.634 1.40294 0.718013 0
M  V30 5814 C 565.911 1.2894 1.47084 0
M  V30 5815 C 566.291 -0.0933625 2.10893 0
M  V30 5816 O 565.639 -1.10598 1.99951 0
M  V30 5817 C 565.849 2.4264 2.50852 0
M  V30 5818 C 567.197 2.8276 3.16752 0
M  V30 5819 O 568.221 2.42215 2.61171 0
M  V30 5820 O 567.08 3.528 4.17366 0
M  V30 5821 H 564.174 0.506236 0.653952 0
M  V30 5822 H 566.72 1.52208 0.750394 0
M  V30 5823 H 565.492 3.35009 2.022 0
M  V30 5824 H 565.115 2.21129 3.30435 0
M  V30 5825 N 566.112 -0.949982 1.2575 0
M  V30 5826 C 567.358 -1.69766 1.10938 0
M  V30 5827 C 567.691 -1.91056 -0.348028 0
M  V30 5828 O 566.966 -1.48488 -1.25625 0
M  V30 5829 C 567.249 -3.07779 1.86933 0
M  V30 5830 C 567.102 -2.9387 3.4053 0
M  V30 5831 C 568.421 -4.07749 1.65616 0
M  V30 5832 H 565.54 -0.616144 0.404396 0
M  V30 5833 H 568.182 -1.10394 1.54639 0
M  V30 5834 H 566.332 -3.58462 1.4979 0
M  V30 5835 H 568.004 -2.50476 3.87375 0
M  V30 5836 H 566.247 -2.29686 3.68004 0
M  V30 5837 H 566.918 -3.91719 3.88922 0
M  V30 5838 H 569.394 -3.65994 1.97959 0
M  V30 5839 H 568.27 -5.02348 2.21218 0
M  V30 5840 H 568.531 -4.38029 0.598595 0
M  V30 5841 N 567.59 -1.07411 -1.15328 0
M  V30 5842 C 568.837 -0.797649 -1.86128 0
M  V30 5843 C 569.165 0.676298 -1.82364 0
M  V30 5844 O 568.42 1.51223 -1.24218 0
M  V30 5845 C 568.719 -1.25191 -3.34757 0
M  V30 5846 C 568.385 -2.73191 -3.58716 0
M  V30 5847 C 567.047 -3.13616 -3.64964 0
M  V30 5848 C 569.399 -3.68718 -3.6837 0
M  V30 5849 C 566.727 -4.48383 -3.78377 0
M  V30 5850 C 569.079 -5.03248 -3.83306 0
M  V30 5851 C 567.743 -5.43293 -3.878 0
M  V30 5852 H 567.013 -0.29188 -0.681092 0
M  V30 5853 H 569.66 -1.34524 -1.36292 0
M  V30 5854 H 567.965 -0.623712 -3.86804 0
M  V30 5855 H 569.662 -1.01489 -3.87945 0
M  V30 5856 H 566.252 -2.40898 -3.54494 0
M  V30 5857 H 570.436 -3.38614 -3.62842 0
M  V30 5858 H 565.692 -4.78877 -3.80114 0
M  V30 5859 H 569.866 -5.77142 -3.89718 0
M  V30 5860 H 567.493 -6.47721 -3.97946 0
M  V30 5861 N 569.068 1.32177 -0.85831 0
M  V30 5862 C 570.031 2.27086 -0.310588 0
M  V30 5863 C 571.031 1.51751 0.531806 0
M  V30 5864 O 572.221 1.70794 0.34279 0
M  V30 5865 C 569.353 3.36266 0.560179 0
M  V30 5866 H 570.546 2.77045 -1.1483 0
M  V30 5867 H 568.099 1.42911 -0.632942 0
M  V30 5868 H 568.834 2.9158 1.41956 0
M  V30 5869 H 568.619 3.92077 -0.0428473 0
M  V30 5870 H 570.109 4.06974 0.936056 0
M  V30 5871 N 570.547 0.616602 1.45037 0
M  V30 5872 C 571.824 0.0469086 1.95544 0
M  V30 5873 C 572.204 -1.42345 1.55888 0
M  V30 5874 O 571.552 -2.13055 0.825824 0
M  V30 5875 C 571.762 0.254489 3.48071 0
M  V30 5876 C 573.11 0.140025 4.24369 0
M  V30 5877 O 574.134 0.185084 3.55719 0
M  V30 5878 O 572.993 0.0327034 5.4649 0
M  V30 5879 H 570.087 -0.0306051 0.826433 0
M  V30 5880 H 572.633 0.687293 1.55159 0
M  V30 5881 H 571.405 1.27532 3.69934 0
M  V30 5882 H 571.028 -0.42073 3.95368 0
M  V30 5883 N 572.025 -1.5352 0.356285 0
M  V30 5884 C 573.273 -2.00719 -0.235837 0
M  V30 5885 C 573.594 -1.24551 -1.5004 0
M  V30 5886 O 572.864 -0.356185 -1.92635 0
M  V30 5887 H 571.444 -0.741542 -0.0901366 0
M  V30 5888 H 574.106 -1.88887 0.480378 0
M  V30 5889 H 573.202 -3.08551 -0.469357 0
M  V30 5890 N 573.503 -0.0852151 -1.57369 0
M  V30 5891 C 574.435 0.907099 -2.10486 0
M  V30 5892 C 575.448 1.25259 -1.03991 0
M  V30 5893 O 576.637 1.20743 -1.31467 0
M  V30 5894 C 573.737 2.21908 -2.56145 0
M  V30 5895 C 572.91 2.05042 -3.86363 0
M  V30 5896 C 571.969 3.19664 -4.17973 0
M  V30 5897 O 570.995 2.94062 -4.87356 0
M  V30 5898 N 572.197 4.45151 -3.72587 0
M  V30 5899 H 574.962 0.453505 -2.96249 0
M  V30 5900 H 572.523 0.100157 -1.6159 0
M  V30 5901 H 574.515 2.97519 -2.74343 0
M  V30 5902 H 573.085 2.58723 -1.75446 0
M  V30 5903 H 572.305 1.13819 -3.77411 0
M  V30 5904 H 573.593 1.91039 -4.71574 0
M  V30 5905 H 572.991 4.68834 -3.16561 0
M  V30 5906 H 571.548 5.17744 -3.9596 0
M  V30 5907 N 574.981 1.5647 0.188427 0
M  V30 5908 C 576.392 1.70864 0.752494 0
M  V30 5909 C 576.743 0.692905 1.83557 0
M  V30 5910 O 575.868 -0.149307 2.15884 0
M  V30 5911 C 576.463 3.09789 1.37173 0
M  V30 5912 C 575.022 3.25925 1.88281 0
M  V30 5913 C 574.169 2.66817 0.755259 0
M  V30 5914 H 577.12 1.58657 -0.0367408 0
M  V30 5915 H 577.141 3.07489 2.24122 0
M  V30 5916 H 576.653 3.83693 0.583219 0
M  V30 5917 H 574.754 2.56948 2.6983 0
M  V30 5918 H 574.867 4.33498 2.04001 0
M  V30 5919 H 573.231 2.2617 1.17128 0
M  V30 5920 H 574.014 3.43294 -0.0211237 0
M  V30 5921 N 576.459 -0.456382 1.50847 0
M  V30 5922 C 577.406 -1.55249 1.70782 0
M  V30 5923 C 578.376 -1.56757 0.549231 0
M  V30 5924 O 579.561 -1.74061 0.7815 0
M  V30 5925 C 576.701 -2.93118 1.82143 0
M  V30 5926 C 575.814 -3.01285 3.09598 0
M  V30 5927 C 574.949 -4.30159 3.11667 0
M  V30 5928 C 573.988 -4.32124 4.33515 0
M  V30 5929 N 573.125 -5.52492 4.3324 0
M  V30 5930 H 577.965 -1.37555 2.64353 0
M  V30 5931 H 575.502 -0.668543 1.3103 0
M  V30 5932 H 577.46 -3.73088 1.86711 0
M  V30 5933 H 576.09 -3.09413 0.919978 0
M  V30 5934 H 575.142 -2.14096 3.14431 0
M  V30 5935 H 576.454 -2.98597 3.99551 0
M  V30 5936 H 575.608 -5.18489 3.15046 0
M  V30 5937 H 574.347 -4.35477 2.1957 0
M  V30 5938 H 573.352 -3.42189 4.30333 0
M  V30 5939 H 574.577 -4.28485 5.26856 0
M  V30 5940 H 572.523 -5.58567 3.44004 0
M  V30 5941 H 572.44 -5.51605 5.16979 0
M  V30 5942 H 573.708 -6.42906 4.40786 0
M  V30 5943 N 577.937 -1.40673 -0.710563 0
M  V30 5944 C 578.867 -1.44095 -1.83736 0
M  V30 5945 C 579.848 -0.301286 -1.67411 0
M  V30 5946 O 581.033 -0.510618 -1.87367 0
M  V30 5947 C 578.163 -1.30773 -3.21738 0
M  V30 5948 C 577.117 -2.42395 -3.52745 0
M  V30 5949 C 576.443 -2.14147 -4.89944 0
M  V30 5950 C 577.743 -3.84738 -3.53234 0
M  V30 5951 H 579.437 -2.38396 -1.81129 0
M  V30 5952 H 576.983 -1.14746 -0.870017 0
M  V30 5953 H 578.936 -1.31783 -4.00264 0
M  V30 5954 H 577.66 -0.329507 -3.24934 0
M  V30 5955 H 576.319 -2.40643 -2.76562 0
M  V30 5956 H 575.967 -1.14703 -4.89747 0
M  V30 5957 H 575.667 -2.88934 -5.11655 0
M  V30 5958 H 577.191 -2.16848 -5.70797 0
M  V30 5959 H 578.605 -3.88286 -4.2179 0
M  V30 5960 H 577.002 -4.59085 -3.86473 0
M  V30 5961 H 578.072 -4.13962 -2.52514 0
M  V30 5962 N 579.415 0.9433 -1.26252 0
M  V30 5963 C 580.661 1.69175 -1.11837 0
M  V30 5964 C 580.994 1.91238 0.337891 0
M  V30 5965 O 580.269 1.49152 1.24836 0
M  V30 5966 C 580.552 3.06783 -1.88563 0
M  V30 5967 C 580.405 2.9206 -3.42083 0
M  V30 5968 C 581.724 4.06865 -1.67776 0
M  V30 5969 H 578.843 0.61399 -0.407658 0
M  V30 5970 H 581.485 1.09572 -1.55222 0
M  V30 5971 H 579.635 3.57663 -1.51689 0
M  V30 5972 H 581.307 2.48419 -3.88698 0
M  V30 5973 H 579.55 2.27731 -3.69217 0
M  V30 5974 H 580.221 3.89651 -3.90994 0
M  V30 5975 H 582.697 3.64939 -1.99897 0
M  V30 5976 H 581.573 5.01168 -2.23879 0
M  V30 5977 H 581.834 4.37705 -0.621816 0
M  V30 5978 N 580.893 1.08022 1.14757 0
M  V30 5979 C 582.118 0.82895 1.90114 0
M  V30 5980 C 582.543 -0.612772 1.77839 0
M  V30 5981 O 581.901 -1.42895 1.11583 0
M  V30 5982 C 581.949 1.25062 3.38219 0
M  V30 5983 O 581.053 0.400119 4.10454 0
M  V30 5984 H 580.394 0.301412 0.591648 0
M  V30 5985 H 582.924 1.44062 1.45284 0
M  V30 5986 H 582.934 1.22977 3.89025 0
M  V30 5987 H 581.609 2.30067 3.46471 0
M  V30 5988 H 580.186 0.484052 3.69745 0
M  V30 5989 N 582.371 -1.3172 0.865308 0
M  V30 5990 C 583.648 -1.91574 0.394789 0
M  V30 5991 C 584.028 -1.78769 -1.12271 0
M  V30 5992 O 583.376 -1.19245 -1.94918 0
M  V30 5993 C 583.586 -3.37957 0.870982 0
M  V30 5994 C 584.934 -4.15073 0.894384 0
M  V30 5995 O 585.958 -3.4672 0.816325 0
M  V30 5996 O 584.817 -5.37151 1.00651 0
M  V30 5997 H 581.911 -0.818649 0.117229 0
M  V30 5998 H 584.457 -1.4042 0.952913 0
M  V30 5999 H 583.229 -3.41269 1.91444 0
M  V30 6000 H 582.852 -3.96534 0.290907 0
M  V30 6001 N 583.85 -0.624285 -1.44708 0
M  V30 6002 C 584.782 0.12305 -2.28869 0
M  V30 6003 C 585.795 0.81557 -1.40898 0
M  V30 6004 O 586.984 0.678162 -1.65116 0
M  V30 6005 C 584.084 1.19612 -3.1709 0
M  V30 6006 C 583.257 0.587452 -4.33437 0
M  V30 6007 C 582.316 1.55358 -5.02743 0
M  V30 6008 O 581.341 1.07338 -5.58988 0
M  V30 6009 N 582.543 2.88798 -5.03563 0
M  V30 6010 H 585.308 -0.599193 -2.93649 0
M  V30 6011 H 582.87 -0.464954 -1.5508 0
M  V30 6012 H 584.861 1.84261 -3.60319 0
M  V30 6013 H 583.432 1.82067 -2.54107 0
M  V30 6014 H 582.652 -0.237509 -3.93484 0
M  V30 6015 H 583.94 0.161326 -5.08544 0
M  V30 6016 H 583.338 3.30399 -4.59188 0
M  V30 6017 H 581.894 3.48826 -5.50603 0
M  V30 6018 N 585.328 1.53329 -0.364422 0
M  V30 6019 C 586.291 2.24323 0.470292 0
M  V30 6020 C 587.291 1.25068 1.01067 0
M  V30 6021 O 588.481 1.49354 0.896605 0
M  V30 6022 C 585.613 2.97908 1.65722 0
M  V30 6023 H 586.806 2.9952 -0.150917 0
M  V30 6024 H 584.359 1.55868 -0.116092 0
M  V30 6025 H 585.094 2.2695 2.31655 0
M  V30 6026 H 584.879 3.70732 1.27671 0
M  V30 6027 H 586.369 3.5188 2.24878 0
M  V30 6028 N 586.806 0.0935595 1.57322 0
M  V30 6029 C 588.052 -0.571355 1.94585 0
M  V30 6030 C 588.385 -1.67929 0.975366 0
M  V30 6031 O 587.66 -1.94498 0.00816206 0
M  V30 6032 C 587.943 -1.12797 3.41978 0
M  V30 6033 C 587.796 -0.0251881 4.49793 0
M  V30 6034 C 589.115 -2.02682 3.90651 0
M  V30 6035 H 586.234 -0.206223 0.70756 0
M  V30 6036 H 588.876 0.163956 1.89291 0
M  V30 6037 H 587.026 -1.75461 3.4662 0
M  V30 6038 H 588.698 0.608979 4.57263 0
M  V30 6039 H 586.941 0.641399 4.29032 0
M  V30 6040 H 587.612 -0.455433 5.50118 0
M  V30 6041 H 590.088 -1.49925 3.88152 0
M  V30 6042 H 588.964 -2.38555 4.94351 0
M  V30 6043 H 589.225 -2.94362 3.29854 0
M  V30 6044 N 588.284 -1.56567 -0.180126 0
M  V30 6045 C 589.509 -1.85975 -0.918041 0
M  V30 6046 C 589.934 -0.678888 -1.75422 0
M  V30 6047 O 589.292 0.372168 -1.77439 0
M  V30 6048 C 589.34 -3.13731 -1.77779 0
M  V30 6049 O 588.444 -2.95335 -2.87838 0
M  V30 6050 H 587.785 -0.61196 -0.257683 0
M  V30 6051 H 590.315 -2.03798 -0.180923 0
M  V30 6052 H 590.325 -3.4491 -2.17948 0
M  V30 6053 H 589 -3.99293 -1.16352 0
M  V30 6054 H 587.577 -2.7549 -2.51316 0
M  V30 6055 N 589.762 0.448376 -1.51087 0
M  V30 6056 C 590.692 1.55102 -1.74544 0
M  V30 6057 C 591.673 1.59357 -0.594932 0
M  V30 6058 O 592.858 1.75261 -0.836491 0
M  V30 6059 C 589.988 2.93268 -1.86041 0
M  V30 6060 C 588.942 3.03877 -3.01402 0
M  V30 6061 C 588.268 4.43914 -2.98068 0
M  V30 6062 C 589.568 2.7898 -4.41551 0
M  V30 6063 H 591.262 1.35724 -2.66869 0
M  V30 6064 H 588.808 0.651498 -1.28419 0
M  V30 6065 H 590.761 3.70356 -2.01034 0
M  V30 6066 H 589.485 3.13853 -0.903548 0
M  V30 6067 H 588.144 2.29227 -2.86096 0
M  V30 6068 H 587.792 4.6145 -2.00182 0
M  V30 6069 H 587.492 4.51944 -3.75527 0
M  V30 6070 H 589.016 5.22991 -3.1514 0
M  V30 6071 H 590.43 3.45805 -4.57265 0
M  V30 6072 H 588.827 2.98431 -5.20633 0
M  V30 6073 H 589.897 1.74663 -4.5235 0
M  V30 6074 N 591.24 1.41047 0.703093 0
M  V30 6075 C 592.488 1.39723 1.4602 0
M  V30 6076 C 592.809 0.00461257 1.94999 0
M  V30 6077 O 592.079 -0.952292 1.71196 0
M  V30 6078 H 590.659 0.514281 0.541779 0
M  V30 6079 H 593.321 1.76217 0.832678 0
M  V30 6080 H 592.417 2.07982 2.32701 0
M  V30 6081 N 592.718 -0.936591 1.26751 0
M  V30 6082 C 593.65 -2.03991 1.045 0
M  V30 6083 C 594.663 -1.628 0.00394261 0
M  V30 6084 O 595.852 -1.76817 0.244526 0
M  V30 6085 C 592.952 -3.34218 0.561403 0
M  V30 6086 C 592.125 -4.04151 1.67274 0
M  V30 6087 C 591.184 -5.12651 1.1864 0
M  V30 6088 O 590.21 -5.37104 1.88437 0
M  V30 6089 N 591.412 -5.80488 0.037278 0
M  V30 6090 H 594.177 -2.23644 1.99508 0
M  V30 6091 H 591.738 -1.10638 1.18198 0
M  V30 6092 H 593.73 -4.04101 0.220136 0
M  V30 6093 H 592.3 -3.11203 -0.295211 0
M  V30 6094 H 591.52 -3.28121 2.18472 0
M  V30 6095 H 592.808 -4.47626 2.41885 0
M  V30 6096 H 592.206 -5.63064 -0.545494 0
M  V30 6097 H 590.763 -6.5134 -0.244877 0
M  V30 6098 N 594.196 -1.08629 -1.14182 0
M  V30 6099 C 595.144 -0.71284 -2.21408 0
M  V30 6100 C 596.138 0.282457 -1.67029 0
M  V30 6101 O 597.344 0.144783 -1.79417 0
M  V30 6102 H 593.719 -0.212497 -0.721352 0
M  V30 6103 H 595.69 -1.6265 -2.50175 0
M  V30 6104 C 594.439 -0.140704 -3.47415 0
M  V30 6105 H 593.762 -0.897739 -3.8959 0
M  V30 6106 H 595.202 0.0827677 -4.23919 0
M  V30 6107 C 593.661 1.122 -3.17668 0
M  V30 6108 O 594.191 2.20652 -3.35672 0
M  V30 6109 N 592.397 1.03328 -2.71609 0
M  V30 6110 H 591.944 0.150666 -2.57159 0
M  V30 6111 H 591.902 1.8789 -2.52081 0
M  V30 6112 N 595.674 1.31259 -0.872281 0
M  V30 6113 C 596.92 1.96913 -0.485083 0
M  V30 6114 C 597.253 1.68774 0.960667 0
M  V30 6115 O 596.528 0.985495 1.67685 0
M  V30 6116 C 596.811 3.52299 -0.745502 0
M  V30 6117 C 596.664 3.90002 -2.24095 0
M  V30 6118 C 597.983 4.39582 -0.213516 0
M  V30 6119 H 595.102 0.715252 -0.177716 0
M  V30 6120 H 597.744 1.55347 -1.09395 0
M  V30 6121 H 595.894 3.87835 -0.227276 0
M  V30 6122 H 597.566 3.64555 -2.82661 0
M  V30 6123 H 595.809 3.38526 -2.71261 0
M  V30 6124 H 596.48 4.98352 -2.37381 0
M  V30 6125 H 598.956 4.10882 -0.656902 0
M  V30 6126 H 597.832 5.47251 -0.42516 0
M  V30 6127 H 598.093 4.33158 0.884666 0
M  V30 6128 N 597.152 0.631951 1.44375 0
M  V30 6129 C 598.082 -0.0593243 2.33425 0
M  V30 6130 C 599.063 -0.833964 1.48253 0
M  V30 6131 O 600.248 -0.799682 1.76971 0
M  V30 6132 C 597.378 -1.04096 3.31333 0
M  V30 6133 C 596.332 -0.377899 4.26328 0
M  V30 6134 C 595.658 -1.4695 5.14111 0
M  V30 6135 C 596.958 0.716371 5.17364 0
M  V30 6136 H 598.652 0.684287 2.91475 0
M  V30 6137 H 596.198 0.330518 1.40156 0
M  V30 6138 H 598.151 -1.53331 3.92514 0
M  V30 6139 H 596.875 -1.81547 2.71493 0
M  V30 6140 H 595.534 0.0938054 3.6648 0
M  V30 6141 H 595.182 -2.2349 4.50623 0
M  V30 6142 H 594.882 -1.03121 5.78481 0
M  V30 6143 H 596.406 -1.96363 5.78164 0
M  V30 6144 H 597.82 0.307089 5.72477 0
M  V30 6145 H 596.217 1.07784 5.90341 0
M  V30 6146 H 597.287 1.58316 4.58327 0
M  V30 6147 N 598.631 -1.53133 0.372548 0
M  V30 6148 C 599.856 -2.0625 -0.218098 0
M  V30 6149 C 600.281 -1.24375 -1.41111 0
M  V30 6150 O 599.639 -0.264554 -1.79359 0
M  V30 6151 C 599.687 -3.55858 -0.582876 0
M  V30 6152 O 598.791 -3.76667 -1.67917 0
M  V30 6153 H 598.132 -0.663317 -0.030104 0
M  V30 6154 H 600.662 -1.97477 0.535169 0
M  V30 6155 H 600.672 -3.99007 -0.851925 0
M  V30 6156 H 599.347 -4.14892 0.289428 0
M  V30 6157 H 597.924 -3.45413 -1.40513 0
M  V30 6158 N 600.109 -0.101901 -1.5727 0
M  V30 6159 C 601.072 0.840129 -2.13247 0
M  V30 6160 C 602.072 1.20625 -1.06331 0
M  V30 6161 O 603.262 1.13456 -1.32186 0
M  V30 6162 C 600.394 2.13372 -2.65867 0
M  V30 6163 H 601.587 0.353945 -2.97804 0
M  V30 6164 H 599.14 0.147167 -1.55606 0
M  V30 6165 H 599.875 2.66461 -1.84849 0
M  V30 6166 H 599.66 1.88085 -3.44044 0
M  V30 6167 H 601.15 2.80748 -3.09145 0
M  V30 6168 N 601.587 1.56661 0.17182 0
M  V30 6169 C 602.864 1.72838 0.915778 0
M  V30 6170 C 603.244 0.66316 2.00413 0
M  V30 6171 O 602.592 -0.322123 2.26218 0
M  V30 6172 C 602.802 3.16019 1.48097 0
M  V30 6173 C 604.15 3.76962 1.95408 0
M  V30 6174 O 605.174 3.19294 1.57892 0
M  V30 6175 O 604.033 4.78219 2.64516 0
M  V30 6176 H 601.127 0.705797 0.431021 0
M  V30 6177 H 603.673 1.68947 0.159689 0
M  V30 6178 H 602.445 3.85031 0.697618 0
M  V30 6179 H 602.068 3.24234 2.30126 0
M  V30 6180 N 603.065 -0.440357 1.51323 0
M  V30 6181 C 604.312 -1.19004 1.63842 0
M  V30 6182 C 604.64 -1.91266 0.35321 0
M  V30 6183 O 603.895 -1.84143 -0.662565 0
M  V30 6184 C 604.194 -2.2339 2.78984 0
M  V30 6185 C 603.86 -1.68162 4.18369 0
M  V30 6186 C 602.522 -1.52823 4.56288 0
M  V30 6187 C 604.874 -1.27524 5.05358 0
M  V30 6188 C 602.202 -0.953157 5.78906 0
M  V30 6189 C 604.554 -0.714474 6.28552 0
M  V30 6190 C 603.218 -0.547961 6.65247 0
M  V30 6191 H 602.488 -0.435468 0.59954 0
M  V30 6192 H 605.135 -0.481538 1.85347 0
M  V30 6193 H 603.44 -3.00267 2.51688 0
M  V30 6194 H 605.137 -2.81211 2.85869 0
M  V30 6195 H 601.727 -1.81077 3.8847 0
M  V30 6196 H 605.911 -1.38197 4.76671 0
M  V30 6197 H 601.167 -0.811882 6.05986 0
M  V30 6198 H 605.341 -0.391059 6.95301 0
M  V30 6199 H 602.968 -0.100222 7.60134 0
M  V30 6200 N 604.543 -1.41418 -0.695603 0
M  V30 6201 C 605.771 -1.4413 -1.48439 0
M  V30 6202 C 606.186 -0.0465698 -1.88743 0
M  V30 6203 O 605.543 0.934117 -1.56782 0
M  V30 6204 C 605.594 -2.34998 -2.74696 0
M  V30 6205 O 605.315 -3.69043 -2.36091 0
M  V30 6206 C 606.816 -2.46513 -3.68438 0
M  V30 6207 H 604.036 -0.490905 -0.457442 0
M  V30 6208 H 606.58 -1.85702 -0.856454 0
M  V30 6209 H 604.735 -1.96735 -3.33728 0
M  V30 6210 H 605.149 -4.17505 -3.17474 0
M  V30 6211 H 606.623 -3.1426 -4.53811 0
M  V30 6212 H 607.1 -1.49638 -4.12922 0
M  V30 6213 H 607.706 -2.85412 -3.1531 0
M  V30 6214 N 606.021 0.929856 -1.27246 0
M  V30 6215 C 607.432 1.49223 -1.12203 0
M  V30 6216 C 607.783 1.93989 0.293731 0
M  V30 6217 O 606.908 1.80978 1.18642 0
M  V30 6218 C 607.503 2.71198 -2.0307 0
M  V30 6219 C 606.062 3.23666 -1.92139 0
M  V30 6220 C 605.209 1.96409 -1.95752 0
M  V30 6221 H 608.16 0.744181 -1.4017 0
M  V30 6222 H 608.181 3.45905 -1.58524 0
M  V30 6223 H 607.693 2.38585 -3.06102 0
M  V30 6224 H 605.794 3.61042 -0.920834 0
M  V30 6225 H 605.907 3.90006 -2.78267 0
M  V30 6226 H 604.271 2.12806 -1.39949 0
M  V30 6227 H 605.054 1.66113 -3.00436 0
M  V30 6228 N 607.499 1.09233 1.13605 0
M  V30 6229 C 608.747 0.825525 1.84471 0
M  V30 6230 C 609.068 -0.650702 1.83823 0
M  V30 6231 O 608.338 -1.47204 1.29259 0
M  V30 6232 H 606.918 0.3024 0.683054 0
M  V30 6233 H 609.58 1.38006 1.37624 0
M  V30 6234 H 608.676 1.17727 2.89045 0
M  V30 6235 N 608.977 -1.30795 0.87923 0
M  V30 6236 C 610.205 -2.00527 0.509548 0
M  V30 6237 C 610.62 -1.65944 -0.90045 0
M  V30 6238 O 609.977 -0.893525 -1.5913 0
M  V30 6239 C 610.028 -3.55276 0.667943 0
M  V30 6240 O 609.749 -3.88625 2.02242 0
M  V30 6241 C 611.25 -4.4228 0.300494 0
M  V30 6242 H 608.47 -0.641261 0.197549 0
M  V30 6243 H 611.014 -1.66813 1.18295 0
M  V30 6244 H 609.169 -3.87377 0.0419843 0
M  V30 6245 H 609.583 -4.83334 2.03688 0
M  V30 6246 H 611.057 -5.50061 0.462242 0
M  V30 6247 H 611.534 -4.32556 -0.76106 0
M  V30 6248 H 612.14 -4.15613 0.902536 0
M  V30 6249 N 610.455 -0.639598 -1.44038 0
M  V30 6250 C 611.365 0.0612377 -2.3452 0
M  V30 6251 C 612.381 0.826717 -1.53106 0
M  V30 6252 O 613.557 0.777059 -1.85806 0
M  V30 6253 C 610.622 1.02492 -3.31204 0
M  V30 6254 C 609.683 0.25788 -4.28525 0
M  V30 6255 C 608.916 1.17566 -5.2059 0
M  V30 6256 O 609.139 2.41461 -5.16771 0
M  V30 6257 O 608.073 0.655407 -5.98321 0
M  V30 6258 H 611.899 -0.68318 -2.95916 0
M  V30 6259 H 609.484 -0.399784 -1.43952 0
M  V30 6260 H 611.366 1.57911 -3.90694 0
M  V30 6261 H 610.041 1.7498 -2.7233 0
M  V30 6262 H 608.948 -0.339566 -3.72556 0
M  V30 6263 H 610.281 -0.427154 -4.90343 0
M  V30 6264 N 611.933 1.52934 -0.380664 0
M  V30 6265 C 613.163 2.05587 0.204302 0
M  V30 6266 C 613.571 1.25288 1.41773 0
M  V30 6267 O 612.914 0.290394 1.8139 0
M  V30 6268 C 612.976 3.53624 0.647324 0
M  V30 6269 C 612.64 4.54765 -0.451465 0
M  V30 6270 C 613.637 5.03226 -1.30614 0
M  V30 6271 C 611.322 4.98508 -0.616025 0
M  V30 6272 C 613.316 5.94046 -2.31058 0
M  V30 6273 C 611.003 5.89131 -1.62381 0
M  V30 6274 C 612.001 6.36792 -2.46952 0
M  V30 6275 O 611.689 7.25626 -3.46009 0
M  V30 6276 H 611.421 0.675013 0.0365198 0
M  V30 6277 H 613.975 1.98125 -0.541827 0
M  V30 6278 H 612.205 3.58676 1.44529 0
M  V30 6279 H 613.894 3.89061 1.15698 0
M  V30 6280 H 614.66 4.70167 -1.19027 0
M  V30 6281 H 610.539 4.60989 0.0324987 0
M  V30 6282 H 614.083 6.3117 -2.97104 0
M  V30 6283 H 609.98 6.21603 -1.7401 0
M  V30 6284 H 610.748 7.43664 -3.41916 0
M  V30 6285 N 613.412 0.11024 1.57214 0
M  V30 6286 C 614.64 -0.557834 1.99238 0
M  V30 6287 C 615.055 -1.60778 0.989734 0
M  V30 6288 O 614.412 -1.82491 -0.0186092 0
M  V30 6289 C 614.463 -1.19189 3.41286 0
M  V30 6290 O 614.184 -0.183919 4.37714 0
M  V30 6291 C 615.685 -1.94413 3.98395 0
M  V30 6292 H 612.905 -0.148392 0.654386 0
M  V30 6293 H 615.449 0.193996 2.03578 0
M  V30 6294 H 613.604 -1.89456 3.37913 0
M  V30 6295 H 614.018 -0.643475 5.20538 0
M  V30 6296 H 615.492 -2.34116 4.99894 0
M  V30 6297 H 615.969 -2.81592 3.3705 0
M  V30 6298 H 616.575 -1.28928 4.05287 0
M  V30 6299 N 614.89 -1.56749 -0.16351 0
M  V30 6300 C 616.136 -1.82704 -0.880168 0
M  V30 6301 C 616.469 -0.689311 -1.81555 0
M  V30 6302 O 615.744 0.308224 -1.92042 0
M  V30 6303 C 616.027 -3.19084 -1.66905 0
M  V30 6304 C 615.88 -4.43397 -0.756269 0
M  V30 6305 C 617.199 -3.52493 -2.63509 0
M  V30 6306 H 614.318 -0.664608 -0.318535 0
M  V30 6307 H 616.96 -1.89438 -0.146036 0
M  V30 6308 H 615.11 -3.13475 -2.2949 0
M  V30 6309 H 616.782 -4.61079 -0.14269 0
M  V30 6310 H 615.025 -4.33752 -0.0647944 0
M  V30 6311 H 615.696 -5.3539 -1.34393 0
M  V30 6312 H 618.172 -3.58606 -2.11047 0
M  V30 6313 H 617.048 -4.48979 -3.15767 0
M  V30 6314 H 617.309 -2.77597 -3.44082 0
M  V30 6315 N 616.368 0.432326 -1.51554 0
M  V30 6316 C 617.278 1.55023 -1.76082 0
M  V30 6317 C 618.294 1.61593 -0.645265 0
M  V30 6318 O 619.47 1.78742 -0.928086 0
M  V30 6319 C 616.535 2.90964 -1.88523 0
M  V30 6320 C 615.596 2.9447 -3.12388 0
M  V30 6321 C 614.829 4.23926 -3.24225 0
M  V30 6322 O 615.052 5.16576 -2.4188 0
M  V30 6323 O 613.986 4.33818 -4.17235 0
M  V30 6324 H 617.812 1.37238 -2.70923 0
M  V30 6325 H 615.397 0.615845 -1.36117 0
M  V30 6326 H 617.279 3.71633 -1.98662 0
M  V30 6327 H 615.954 3.08865 -0.9687 0
M  V30 6328 H 614.861 2.12737 -3.07723 0
M  V30 6329 H 616.194 2.81514 -4.03746 0
M  V30 6330 N 617.846 1.41785 0.688094 0
M  V30 6331 C 619.092 1.41753 1.4503 0
M  V30 6332 C 619.425 0.0290745 1.94178 0
M  V30 6333 O 618.7 -0.944456 1.7003 0
M  V30 6334 C 618.983 2.43069 2.65686 0
M  V30 6335 C 618.836 3.91053 2.22256 0
M  V30 6336 C 620.155 2.41543 3.67893 0
M  V30 6337 H 617.274 0.516202 0.526027 0
M  V30 6338 H 619.916 1.73111 0.783105 0
M  V30 6339 H 618.066 2.1646 3.2261 0
M  V30 6340 H 619.738 4.28594 1.70602 0
M  V30 6341 H 617.981 4.05559 1.53963 0
M  V30 6342 H 618.652 4.57501 3.08863 0
M  V30 6343 H 621.128 2.65175 3.20658 0
M  V30 6344 H 620.004 3.14434 4.49914 0
M  V30 6345 H 620.265 1.43666 4.18106 0
M  V30 6346 N 619.324 -0.923095 1.27737 0
M  V30 6347 C 620.74 -1.19985 1.05241 0
M  V30 6348 C 620.94 -2.00391 -0.21113 0
M  V30 6349 O 619.996 -2.35324 -0.915366 0
M  V30 6350 C 621.309 -1.94352 2.29451 0
M  V30 6351 C 622.857 -2.07273 2.34536 0
M  V30 6352 C 623.332 -2.85046 3.58487 0
M  V30 6353 N 624.823 -2.92612 3.59072 0
M  V30 6354 C 625.558 -3.53266 4.51654 0
M  V30 6355 N 625.054 -4.15274 5.54545 0
M  V30 6356 N 626.847 -3.50714 4.39268 0
M  V30 6357 H 618.998 -0.386042 2.08862 0
M  V30 6358 H 621.261 -0.233407 0.918817 0
M  V30 6359 H 620.967 -1.42692 3.21453 0
M  V30 6360 H 620.841 -2.94947 2.3513 0
M  V30 6361 H 623.228 -2.58117 1.43037 0
M  V30 6362 H 623.309 -1.05884 2.32857 0
M  V30 6363 H 622.953 -2.34884 4.50324 0
M  V30 6364 H 622.883 -3.8673 3.57418 0
M  V30 6365 H 625.374 -2.48547 2.84663 0
M  V30 6366 H 625.687 -4.59507 6.21348 0
M  V30 6367 H 624.032 -4.13806 5.58382 0
M  V30 6368 H 627.223 -3.01475 3.58093 0
M  V30 6369 H 627.396 -3.97693 5.1161 0
M  V30 6370 N 620.802 -1.09834 -1.13024 0
M  V30 6371 C 622.049 -0.83695 -1.84395 0
M  V30 6372 C 622.377 0.637463 -1.83757 0
M  V30 6373 O 621.632 1.48554 -1.27398 0
M  V30 6374 C 621.931 -1.32263 -3.32026 0
M  V30 6375 C 621.597 -2.80739 -3.52841 0
M  V30 6376 C 620.259 -3.21286 -3.5823 0
M  V30 6377 C 622.611 -3.76449 -3.60466 0
M  V30 6378 C 619.939 -4.56308 -3.68781 0
M  V30 6379 C 622.291 -5.11266 -3.72546 0
M  V30 6380 C 620.955 -5.51397 -3.76189 0
M  V30 6381 H 620.225 -0.306262 -0.674748 0
M  V30 6382 H 622.872 -1.37385 -1.33408 0
M  V30 6383 H 621.177 -0.705618 -3.85394 0
M  V30 6384 H 622.874 -1.09695 -3.85705 0
M  V30 6385 H 619.464 -2.48363 -3.49305 0
M  V30 6386 H 623.648 -3.46234 -3.55578 0
M  V30 6387 H 618.904 -4.86832 -3.69871 0
M  V30 6388 H 623.078 -5.85279 -3.77388 0
M  V30 6389 H 620.705 -6.56017 -3.84117 0
M  V30 6390 N 622.28 1.30327 -0.886154 0
M  V30 6391 C 623.227 2.28099 -0.352069 0
M  V30 6392 C 624.197 1.56433 0.558397 0
M  V30 6393 O 625.382 1.84492 0.486561 0
M  V30 6394 C 622.522 3.42456 0.426346 0
M  V30 6395 C 621.635 4.28938 -0.513472 0
M  V30 6396 C 620.77 5.30458 0.280657 0
M  V30 6397 C 619.809 6.0859 -0.654556 0
M  V30 6398 N 618.946 7.02022 0.104322 0
M  V30 6399 H 623.786 2.73166 -1.19097 0
M  V30 6400 H 621.323 1.34367 -0.598662 0
M  V30 6401 H 623.281 4.07518 0.893587 0
M  V30 6402 H 621.911 2.98455 1.22981 0
M  V30 6403 H 620.963 3.64173 -1.09921 0
M  V30 6404 H 622.275 4.83399 -1.2299 0
M  V30 6405 H 621.429 6.01273 0.8097 0
M  V30 6406 H 620.168 4.76693 1.03029 0
M  V30 6407 H 619.173 5.36651 -1.19522 0
M  V30 6408 H 620.398 6.64443 -1.4033 0
M  V30 6409 H 618.344 6.50645 0.836472 0
M  V30 6410 H 618.261 7.53979 -0.552453 0
M  V30 6411 H 619.529 7.77077 0.614069 0
M  V30 6412 N 623.758 0.647228 1.43697 0
M  V30 6413 C 624.668 -0.0487997 2.34549 0
M  V30 6414 C 625.684 -0.818586 1.53542 0
M  V30 6415 O 626.86 -0.767195 1.86215 0
M  V30 6416 C 623.925 -1.00734 3.31743 0
M  V30 6417 C 622.986 -0.23515 4.28655 0
M  V30 6418 C 622.219 -1.14803 5.21206 0
M  V30 6419 O 622.442 -2.38717 5.18045 0
M  V30 6420 O 621.376 -0.623667 5.9866 0
M  V30 6421 H 625.202 0.698863 2.9555 0
M  V30 6422 H 622.787 0.407412 1.43738 0
M  V30 6423 H 624.669 -1.55837 3.91526 0
M  V30 6424 H 623.344 -1.73534 2.73254 0
M  V30 6425 H 622.251 0.359319 3.7237 0
M  V30 6426 H 623.584 0.453152 4.9011 0
M  V30 6427 N 625.236 -1.5273 0.388769 0
M  V30 6428 C 626.483 -2.01573 -0.19359 0
M  V30 6429 C 626.811 -1.27525 -1.46859 0
M  V30 6430 O 626.066 -0.363926 -1.92286 0
M  V30 6431 C 626.365 -3.53765 -0.508445 0
M  V30 6432 C 626.031 -4.4582 0.674947 0
M  V30 6433 C 624.693 -4.70703 0.999596 0
M  V30 6434 C 627.045 -5.00138 1.46666 0
M  V30 6435 C 624.373 -5.47155 2.11751 0
M  V30 6436 C 626.725 -5.77812 2.57518 0
M  V30 6437 C 625.389 -6.00975 2.90492 0
M  V30 6438 H 624.659 -0.737606 -0.0708397 0
M  V30 6439 H 627.306 -1.84134 0.526006 0
M  V30 6440 H 625.611 -3.69274 -1.30936 0
M  V30 6441 H 627.308 -3.8905 -0.971664 0
M  V30 6442 H 623.898 -4.26616 0.411906 0
M  V30 6443 H 628.082 -4.8084 1.22909 0
M  V30 6444 H 623.338 -5.63314 2.3767 0
M  V30 6445 H 627.512 -6.18904 3.19267 0
M  V30 6446 H 625.139 -6.59998 3.77236 0
M  V30 6447 N 626.714 -0.118576 -1.57153 0
M  V30 6448 C 627.962 0.538461 -1.94795 0
M  V30 6449 C 628.283 1.67243 -1.00274 0
M  V30 6450 O 627.553 1.95811 -0.0589692 0
M  V30 6451 H 626.133 0.201904 -0.719197 0
M  V30 6452 H 628.795 -0.187418 -1.93997 0
M  V30 6453 H 627.891 0.933315 -2.97818 0
M  V30 6454 N 628.193 1.56834 0.155195 0
M  V30 6455 C 629.418 1.87412 0.888337 0
M  V30 6456 C 629.843 0.70671 1.74319 0
M  V30 6457 O 629.201 -0.343892 1.78009 0
M  V30 6458 C 629.249 3.1652 1.72765 0
M  V30 6459 O 628.353 2.99877 2.83103 0
M  V30 6460 H 627.694 0.615983 0.247914 0
M  V30 6461 H 630.224 2.04061 0.148478 0
M  V30 6462 H 630.234 3.48334 2.12433 0
M  V30 6463 H 628.909 4.01094 1.09985 0
M  V30 6464 H 627.486 2.79453 2.46902 0
M  V30 6465 N 629.671 -0.424282 1.51781 0
M  V30 6466 C 630.917 -1.17434 1.6534 0
M  V30 6467 C 631.25 -1.90549 0.374806 0
M  V30 6468 O 630.525 -1.84145 -0.626179 0
M  V30 6469 C 630.808 -2.18093 2.86544 0
M  V30 6470 C 630.661 -1.48975 4.24413 0
M  V30 6471 C 631.98 -3.18934 3.03264 0
M  V30 6472 H 629.099 -0.425566 0.601716 0
M  V30 6473 H 631.741 -0.461921 1.84299 0
M  V30 6474 H 629.891 -2.78849 2.7051 0
M  V30 6475 H 631.563 -0.914551 4.52143 0
M  V30 6476 H 629.806 -0.791893 4.26511 0
M  V30 6477 H 630.477 -2.22347 5.05238 0
M  V30 6478 H 632.953 -2.68243 3.18096 0
M  V30 6479 H 631.829 -3.86645 3.89611 0
M  V30 6480 H 632.09 -3.85793 2.15908 0
M  V30 6481 N 631.149 -1.42148 -0.680565 0
M  V30 6482 C 632.565 -1.24947 -0.992995 0
M  V30 6483 C 632.765 -0.149527 -2.00944 0
M  V30 6484 O 631.821 0.481145 -2.47873 0
M  V30 6485 C 633.134 -2.60426 -1.5033 0
M  V30 6486 C 634.682 -2.67733 -1.62137 0
M  V30 6487 C 635.157 -4.03564 -2.16565 0
M  V30 6488 N 636.648 -4.05488 -2.23905 0
M  V30 6489 C 637.383 -5.07401 -2.67081 0
M  V30 6490 N 636.879 -6.19698 -3.09751 0
M  V30 6491 N 638.672 -4.94758 -2.66778 0
M  V30 6492 H 630.823 -2.12399 -0.0074788 0
M  V30 6493 H 633.086 -0.94571 -0.0658529 0
M  V30 6494 H 632.792 -3.41743 -0.830947 0
M  V30 6495 H 632.666 -2.83949 -2.483 0
M  V30 6496 H 635.053 -1.86765 -2.2848 0
M  V30 6497 H 635.134 -2.48004 -0.626713 0
M  V30 6498 H 634.778 -4.84987 -1.50833 0
M  V30 6499 H 634.708 -4.20641 -3.1681 0
M  V30 6500 H 637.199 -3.24415 -1.93812 0
M  V30 6501 H 637.512 -6.93318 -3.41365 0
M  V30 6502 H 635.857 -6.23212 -3.07623 0
M  V30 6503 H 639.048 -4.06105 -2.32801 0
M  V30 6504 H 639.221 -5.74317 -3.00107 0
M  V30 6505 N 632.627 0.916307 -1.28225 0
M  V30 6506 C 633.59 1.99996 -1.11957 0
M  V30 6507 C 634.59 1.60688 -0.0600152 0
M  V30 6508 O 635.78 1.71499 -0.30558 0
M  V30 6509 C 632.912 3.33458 -0.708411 0
M  V30 6510 H 634.105 2.15858 -2.08196 0
M  V30 6511 H 631.658 1.09863 -1.11175 0
M  V30 6512 H 632.393 3.23297 0.254859 0
M  V30 6513 H 632.178 3.63349 -1.47377 0
M  V30 6514 H 633.668 4.13014 -0.617164 0
M  V30 6515 N 634.105 1.10431 1.1244 0
M  V30 6516 C 635.052 0.753103 2.18167 0
M  V30 6517 C 636.022 -0.270549 1.63882 0
M  V30 6518 O 637.207 -0.149837 1.90211 0
M  V30 6519 C 634.347 0.191046 3.44571 0
M  V30 6520 C 633.46 1.26999 4.12911 0
M  V30 6521 C 632.595 0.669586 5.26963 0
M  V30 6522 C 631.634 1.72912 5.87169 0
M  V30 6523 N 630.771 1.14898 6.92635 0
M  V30 6524 H 635.611 1.65892 2.47556 0
M  V30 6525 H 633.148 0.828631 1.21541 0
M  V30 6526 H 635.106 -0.152712 4.1692 0
M  V30 6527 H 633.736 -0.677997 3.15599 0
M  V30 6528 H 632.788 1.73087 3.3874 0
M  V30 6529 H 634.1 2.07204 4.53727 0
M  V30 6530 H 633.254 0.275274 6.06075 0
M  V30 6531 H 631.993 -0.163895 4.87425 0
M  V30 6532 H 630.998 2.13286 5.06744 0
M  V30 6533 H 632.223 2.56544 6.28778 0
M  V30 6534 H 630.169 0.336956 6.55134 0
M  V30 6535 H 630.086 1.88786 7.32049 0
M  V30 6536 H 631.354 0.78121 7.75576 0
M  V30 6537 N 635.583 -1.29855 0.893053 0
M  V30 6538 C 636.829 -1.96116 0.516349 0
M  V30 6539 C 637.162 -1.70281 -0.933695 0
M  V30 6540 O 636.437 -1.01205 -1.66096 0
M  V30 6541 C 636.72 -3.51068 0.801455 0
M  V30 6542 C 636.573 -3.86387 2.30272 0
M  V30 6543 C 637.892 -4.39186 0.283423 0
M  V30 6544 H 635.011 -0.712335 0.189072 0
M  V30 6545 H 637.653 -1.53587 1.11852 0
M  V30 6546 H 635.803 -3.87424 0.288949 0
M  V30 6547 H 637.475 -3.60012 2.88425 0
M  V30 6548 H 635.718 -3.34167 2.76613 0
M  V30 6549 H 636.389 -4.94512 2.45279 0
M  V30 6550 H 638.865 -4.09785 0.722187 0
M  V30 6551 H 637.741 -5.46505 0.512169 0
M  V30 6552 H 638.002 -4.34511 -0.815643 0
M  V30 6553 N 637.061 -0.65484 -1.43351 0
M  V30 6554 C 638.307 -0.169142 -2.02093 0
M  V30 6555 C 638.64 1.21431 -1.51553 0
M  V30 6556 O 637.915 1.81105 -0.709317 0
M  V30 6557 C 638.198 -0.181775 -3.59641 0
M  V30 6558 C 638.051 -1.59926 -4.20409 0
M  V30 6559 C 639.37 0.480945 -4.37464 0
M  V30 6560 H 636.489 -0.0629371 -0.734308 0
M  V30 6561 H 639.131 -0.835833 -1.70628 0
M  V30 6562 H 637.281 0.385918 -3.86578 0
M  V30 6563 H 638.953 -2.21766 -4.04497 0
M  V30 6564 H 637.196 -2.14605 -3.76998 0
M  V30 6565 H 637.867 -1.55994 -5.295 0
M  V30 6566 H 640.343 -0.00208273 -4.161 0
M  V30 6567 H 639.219 0.441384 -5.47122 0
M  V30 6568 H 639.48 1.55533 -4.13838 0
M  V30 6569 N 638.539 1.52521 -0.396863 0
M  V30 6570 C 639.502 2.2527 0.422604 0
M  V30 6571 C 640.502 1.27184 0.983913 0
M  V30 6572 O 641.692 1.51222 0.864723 0
M  V30 6573 C 638.824 3.01356 1.59365 0
M  V30 6574 H 640.017 2.99133 -0.214416 0
M  V30 6575 H 637.57 1.55587 -0.149128 0
M  V30 6576 H 638.305 2.31813 2.26789 0
M  V30 6577 H 638.09 3.73357 1.19779 0
M  V30 6578 H 639.58 3.56571 2.17363 0
M  V30 6579 N 640.017 0.126909 1.57088 0
M  V30 6580 C 640.949 -0.850973 2.12817 0
M  V30 6581 C 641.962 -1.22457 1.07276 0
M  V30 6582 O 643.151 -1.17215 1.34622 0
M  V30 6583 C 640.251 -2.15039 2.61938 0
M  V30 6584 C 639.424 -1.94726 3.91664 0
M  V30 6585 C 638.483 -3.0847 4.26301 0
M  V30 6586 O 637.509 -2.81038 4.94981 0
M  V30 6587 N 638.711 -4.35116 3.84259 0
M  V30 6588 H 641.476 -0.3748 2.97347 0
M  V30 6589 H 639.037 -0.0572793 1.61799 0
M  V30 6590 H 641.029 -2.90141 2.82135 0
M  V30 6591 H 639.599 -2.5398 1.82244 0
M  V30 6592 H 638.819 -1.03772 3.80296 0
M  V30 6593 H 640.107 -1.78469 4.76473 0
M  V30 6594 H 639.505 -4.60276 3.2888 0
M  V30 6595 H 638.062 -5.07064 4.09548 0
M  V30 6596 O 641.534 -1.61495 -0.0122585 0
M  V30 6597 H 642.225 -1.83148 -0.630585 0
M  V30 END ATOM
M  V30 BEGIN BOND
M  V30 END BOND
M  V30 END CTAB
M  END
$$$$
