drugbank_target|Q9UJ90 Potassium voltage-gated channel subfamily E regulatory beta subunit 5 (DB00228; DB01069; DB01110)
 OpenBabel12092121213D

  0  0  0     0  0            999 V3000
M  V30 BEGIN CTAB
M  V30 COUNTS 2100 2117 0 0 0
M  V30 BEGIN ATOM
M  V30 1 H -0.908 1.98254 -0.117106 0
M  V30 2 N 0 1.576 0 0
M  V30 3 C 0.933 2.03868 1.02534 0
M  V30 4 C 1.911 0.928543 1.3348 0
M  V30 5 O 3.095 1.19667 1.45644 0
M  V30 6 C 0.222 2.43627 2.35294 0
M  V30 7 C -0.732 3.65373 2.2001 0
M  V30 8 S 0.101 5.13292 1.52614 0
M  V30 9 C 1.257 5.56322 2.86805 0
M  V30 10 H 1.49 2.90518 0.631377 0
M  V30 11 H -0.977 1.52953 0.210867 0
M  V30 12 H 0.981 2.67203 3.11629 0
M  V30 13 H -0.358 1.57376 2.7183 0
M  V30 14 H -1.165 3.90944 3.18086 0
M  V30 15 H -1.563 3.418 1.51819 0
M  V30 16 H 0.729 5.58782 3.83104 0
M  V30 17 H 1.672 6.56266 2.65933 0
M  V30 18 H 2.08 4.83886 2.90714 0
M  V30 19 N 1.4781 -0.272755 1.55222 0
M  V30 20 C 2.4261 -1.35705 1.88909 0
M  V30 21 C 3.4201 -1.5112 0.765456 0
M  V30 22 O 4.6261 -1.52901 0.949802 0
M  V30 23 H 1.0011 -0.453868 0.59959 0
M  V30 24 H 2.9721 -1.04544 2.79487 0
M  V30 25 C 1.7211 -2.71049 2.17779 0
M  V30 26 H 1.0441 -2.59979 3.03728 0
M  V30 27 H 2.4841 -3.45858 2.45272 0
M  V30 28 C 0.9431 -3.22165 0.985473 0
M  V30 29 O 1.4731 -4.01096 0.220233 0
M  V30 30 N -0.3209 -2.7985 0.783108 0
M  V30 31 H -0.7739 -2.15775 1.40708 0
M  V30 32 H -0.8159 -3.14397 -0.0130392 0
M  V30 33 N 2.9562 -1.48159 -0.537278 0
M  V30 34 C 4.1962 -1.57397 -1.30405 0
M  V30 35 C 4.5602 -0.239202 -1.90504 0
M  V30 36 O 5.7612 -0.206528 -2.68005 0
M  V30 37 C 4.0322 -2.6754 -2.36974 0
M  V30 38 S 5.5912 -2.96496 -3.23475 0
M  V30 39 H 2.4092 -0.555577 -0.443684 0
M  V30 40 H 5.0112 -1.85644 -0.612912 0
M  V30 41 H 3.7152 -3.63092 -1.91291 0
M  V30 42 H 3.2462 -2.41172 -3.10805 0
M  V30 43 H 5.2612 -2.35234 -4.36897 0
M  V30 44 N 4.4343 0.785586 -1.36625 0
M  V30 45 C 5.6593 1.57963 -1.34397 0
M  V30 46 C 6.0843 1.87964 0.071526 0
M  V30 47 O 5.4423 1.48182 1.0446 0
M  V30 48 C 5.4903 2.87511 -2.17646 0
M  V30 49 O 4.5943 3.81281 -1.57158 0
M  V30 50 H 3.9353 0.479014 -0.459828 0
M  V30 51 H 6.4653 0.973411 -1.79961 0
M  V30 52 H 6.4753 3.36745 -2.30362 0
M  V30 53 H 5.1503 2.65002 -3.20541 0
M  V30 54 H 3.7273 3.39885 -1.53403 0
M  V30 55 N 5.9124 1.20967 1.01018 0
M  V30 56 C 6.8224 0.980157 2.13143 0
M  V30 57 C 7.8384 -0.0660665 1.73875 0
M  V30 58 O 9.0144 0.122821 2.01025 0
M  V30 59 C 6.0794 0.54216 3.42435 0
M  V30 60 C 5.1404 1.65999 3.95908 0
M  V30 61 C 4.3734 1.2428 5.19028 0
M  V30 62 O 4.5964 0.114196 5.70286 0
M  V30 63 O 3.5304 2.05271 5.65816 0
M  V30 64 H 7.3564 1.91913 2.35379 0
M  V30 65 H 4.9414 0.994099 1.11526 0
M  V30 66 H 6.8234 0.30744 4.20277 0
M  V30 67 H 5.4984 -0.36815 3.216 0
M  V30 68 H 4.4054 1.94906 3.19316 0
M  V30 69 H 5.7384 2.54753 4.21143 0
M  V30 70 N 7.3905 -1.2043 1.01659 0
M  V30 71 C 8.6155 -1.94318 0.724942 0
M  V30 72 C 9.0405 -1.74266 -0.708034 0
M  V30 73 O 8.3985 -1.03694 -1.48719 0
M  V30 74 C 8.4465 -3.44486 1.06591 0
M  V30 75 O 7.5505 -4.12017 0.177599 0
M  V30 76 H 6.8915 -0.60708 0.26898 0
M  V30 77 H 9.4215 -1.52861 1.35995 0
M  V30 78 H 9.4315 -3.95106 1.01762 0
M  V30 79 H 8.1065 -3.58404 2.10997 0
M  V30 80 H 6.6835 -3.71821 0.283421 0
M  V30 81 N 8.8686 -0.792821 -1.36206 0
M  V30 82 C 9.8006 -0.151469 -2.28699 0
M  V30 83 C 10.8136 0.641262 -1.49638 0
M  V30 84 O 12.0026 0.475885 -1.72039 0
M  V30 85 C 9.1026 0.808424 -3.29117 0
M  V30 86 C 8.2756 0.0650202 -4.37352 0
M  V30 87 C 7.3346 0.941358 -5.17711 0
M  V30 88 O 6.3606 0.397352 -5.67811 0
M  V30 89 N 7.5626 2.2652 -5.3448 0
M  V30 90 H 10.3276 -0.945982 -2.84379 0
M  V30 91 H 7.8886 -0.647032 -1.48409 0
M  V30 92 H 9.8806 1.3986 -3.79765 0
M  V30 93 H 8.4506 1.5038 -2.74052 0
M  V30 94 H 7.6706 -0.706255 -3.87822 0
M  V30 95 H 8.9586 -0.447847 -5.06825 0
M  V30 96 H 8.3566 2.73128 -4.95396 0
M  V30 97 H 6.9136 2.80493 -5.88359 0
M  V30 98 N 10.3467 1.47872 -0.545128 0
M  V30 99 C 11.7627 1.5829 -0.204032 0
M  V30 100 C 11.9627 1.54529 1.29317 0
M  V30 101 O 11.0187 1.44232 2.07252 0
M  V30 102 C 12.3317 2.89304 -0.819987 0
M  V30 103 C 13.8797 3.02864 -0.790105 0
M  V30 104 C 14.3547 4.3656 -1.38491 0
M  V30 105 N 15.8457 4.43165 -1.34755 0
M  V30 106 C 16.5807 5.45153 -1.77753 0
M  V30 107 N 16.0767 6.54016 -2.2855 0
M  V30 108 N 17.8697 5.36125 -1.68897 0
M  V30 109 H 10.0207 1.4856 -1.51802 0
M  V30 110 H 12.2837 0.706305 -0.632327 0
M  V30 111 H 11.9897 2.97757 -1.87173 0
M  V30 112 H 11.8637 3.75957 -0.305915 0
M  V30 113 H 14.2507 2.94014 0.252913 0
M  V30 114 H 14.3317 2.17782 -1.34181 0
M  V30 115 H 13.9757 4.46164 -2.42693 0
M  V30 116 H 13.9057 5.20353 -0.808754 0
M  V30 117 H 16.3967 3.65083 -0.975855 0
M  V30 118 H 16.7097 7.27994 -2.59314 0
M  V30 119 H 15.0547 6.54938 -2.32553 0
M  V30 120 H 18.2457 4.49975 -1.28998 0
M  V30 121 H 18.4187 6.15472 -2.02726 0
M  V30 122 N 11.8248 0.280983 1.55075 0
M  V30 123 C 12.7548 -0.597469 2.25727 0
M  V30 124 C 13.7358 -1.15417 1.24952 0
M  V30 125 O 14.9208 -1.18722 1.53684 0
M  V30 126 C 12.0508 -1.7789 2.98283 0
M  V30 127 C 11.0048 -1.35347 4.06036 0
M  V30 128 C 10.3308 -2.61846 4.66198 0
M  V30 129 C 11.6308 -0.499354 5.19907 0
M  V30 130 H 13.3248 -0.00824265 2.99399 0
M  V30 131 H 10.8708 -0.0025244 1.44 0
M  V30 132 H 12.8238 -2.39937 3.46422 0
M  V30 133 H 11.5478 -2.39405 2.22155 0
M  V30 134 H 10.2068 -0.756156 3.58717 0
M  V30 135 H 9.8548 -3.21632 3.86732 0
M  V30 136 H 9.5548 -2.3409 5.38958 0
M  V30 137 H 11.0788 -3.24732 5.1709 0
M  V30 138 H 12.4928 -1.02498 5.64063 0
M  V30 139 H 10.8898 -0.316424 5.99265 0
M  V30 140 H 11.9598 0.480459 4.82514 0
M  V30 141 N 13.3029 -1.57598 0.00835791 0
M  V30 142 C 14.7189 -1.55764 -0.347822 0
M  V30 143 C 14.9189 -1.01186 -1.74252 0
M  V30 144 O 13.9749 -0.649371 -2.44007 0
M  V30 145 C 15.2879 -2.99927 -0.215407 0
M  V30 146 C 16.8359 -3.11656 -0.289725 0
M  V30 147 C 17.3109 -4.57621 -0.18634 0
M  V30 148 N 18.8019 -4.62557 -0.243978 0
M  V30 149 C 19.5369 -5.73094 -0.18745 0
M  V30 150 N 19.0329 -6.92753 -0.0810331 0
M  V30 151 N 20.8259 -5.61588 -0.239925 0
M  V30 152 H 12.9769 -1.91411 0.92062 0
M  V30 153 H 15.2399 -0.879562 0.353659 0
M  V30 154 H 14.9459 -3.43729 0.744512 0
M  V30 155 H 14.8199 -3.63865 -0.994097 0
M  V30 156 H 17.2069 -2.67779 -1.24009 0
M  V30 157 H 17.2879 -2.5048 0.51898 0
M  V30 158 H 16.9319 -5.02174 0.760519 0
M  V30 159 H 16.8619 -5.16752 -1.01364 0
M  V30 160 H 19.3529 -3.76481 -0.327217 0
M  V30 161 H 19.6659 -7.72787 -0.0440241 0
M  V30 162 H 18.0109 -6.94984 -0.0465419 0
M  V30 163 H 21.2019 -4.66996 -0.321317 0
M  V30 164 H 21.3749 -6.47714 -0.192407 0
M  V30 165 N 14.781 0.264519 -1.55364 0
M  V30 166 C 16.009 1.013 -1.80405 0
M  V30 167 C 16.424 1.79618 -0.581622 0
M  V30 168 O 15.781 1.76879 0.449468 0
M  V30 169 C 15.832 1.96487 -3.03439 0
M  V30 170 O 15.553 1.21341 -4.20961 0
M  V30 171 C 17.054 2.83079 -3.41147 0
M  V30 172 H 14.274 0.298875 -0.600762 0
M  V30 173 H 16.818 0.292736 -2.02394 0
M  V30 174 H 14.973 2.63965 -2.83551 0
M  V30 175 H 15.387 1.85573 -4.90574 0
M  V30 176 H 16.861 3.4565 -4.30384 0
M  V30 177 H 17.338 3.53286 -2.60932 0
M  V30 178 H 17.944 2.2108 -3.63323 0
M  V30 179 N 16.2591 1.48442 0.529413 0
M  V30 180 C 17.1891 1.65902 1.64313 0
M  V30 181 C 18.1701 0.507897 1.6234 0
M  V30 182 O 19.3551 0.740503 1.79528 0
M  V30 183 C 16.4851 1.69911 3.02898 0
M  V30 184 C 15.4391 2.8453 3.19729 0
M  V30 185 C 14.7651 2.73629 4.59381 0
M  V30 186 C 16.0651 4.25821 3.02447 0
M  V30 187 H 17.7591 2.5914 1.49955 0
M  V30 188 H 15.3051 1.24709 0.719982 0
M  V30 189 H 17.2581 1.80715 3.80684 0
M  V30 190 H 15.9821 0.732524 3.18279 0
M  V30 191 H 14.6411 2.73283 2.44361 0
M  V30 192 H 14.2891 1.74938 4.71599 0
M  V30 193 H 13.9891 3.50541 4.71588 0
M  V30 194 H 15.5131 2.86401 5.39265 0
M  V30 195 H 16.9271 4.37898 3.70024 0
M  V30 196 H 15.3241 5.03735 3.26146 0
M  V30 197 H 16.3941 4.42244 1.98867 0
M  V30 198 N 17.7372 -0.778329 1.37039 0
M  V30 199 C 18.6672 -1.90546 1.34962 0
M  V30 200 C 19.6482 -1.68681 0.219274 0
M  V30 201 O 20.8332 -1.89634 0.418624 0
M  V30 202 C 17.9632 -3.27734 1.14925 0
M  V30 203 C 16.9172 -3.64147 2.24902 0
M  V30 204 C 16.2432 -4.99806 1.89996 0
M  V30 205 C 17.5432 -3.71579 3.67051 0
M  V30 206 H 19.2372 -1.92541 2.29277 0
M  V30 207 H 16.7832 -0.924948 1.10366 0
M  V30 208 H 18.7362 -4.06215 1.12104 0
M  V30 209 H 17.4602 -3.26154 0.170631 0
M  V30 210 H 16.1192 -2.8797 2.26868 0
M  V30 211 H 15.7672 -4.94759 0.906796 0
M  V30 212 H 15.4672 -5.25139 2.63634 0
M  V30 213 H 16.9912 -5.80694 1.88749 0
M  V30 214 H 18.4052 -4.40227 3.67251 0
M  V30 215 H 16.8022 -4.08405 4.39688 0
M  V30 216 H 17.8722 -2.72404 4.01154 0
M  V30 217 N 19.2153 -1.21501 -1.00376 0
M  V30 218 C 20.4403 -1.05977 -1.78279 0
M  V30 219 C 20.8653 0.385994 -1.84097 0
M  V30 220 O 20.2233 1.27849 -1.28547 0
M  V30 221 C 20.2713 -1.66302 -3.19963 0
M  V30 222 O 19.3753 -0.909333 -4.0225 0
M  V30 223 H 18.7163 -0.372906 -0.549397 0
M  V30 224 H 21.2463 -1.6107 -1.26165 0
M  V30 225 H 21.2563 -1.70574 -3.70632 0
M  V30 226 H 19.9313 -2.71515 -3.15043 0
M  V30 227 H 18.5083 -0.941795 -3.60811 0
M  V30 228 N 20.6934 1.19889 -1.02296 0
M  V30 229 C 22.1094 1.41462 -0.738954 0
M  V30 230 C 22.3094 1.89721 0.678846 0
M  V30 231 O 21.3654 2.07016 1.4457 0
M  V30 232 C 22.6784 2.43083 -1.77005 0
M  V30 233 C 24.2264 2.5684 -1.78892 0
M  V30 234 C 24.7014 3.61709 -2.80945 0
M  V30 235 N 26.1924 3.69199 -2.79725 0
M  V30 236 C 26.9274 4.50019 -3.55345 0
M  V30 237 N 26.4234 5.34592 -4.40662 0
M  V30 238 N 28.2164 4.44612 -3.43914 0
M  V30 239 H 20.3674 0.868827 -1.93817 0
M  V30 240 H 22.6304 0.44399 -0.837602 0
M  V30 241 H 22.3364 2.14636 -2.78612 0
M  V30 242 H 22.2104 3.4217 -1.58744 0
M  V30 243 H 24.5974 2.84614 -0.779674 0
M  V30 244 H 24.6784 1.57927 -2.01228 0
M  V30 245 H 24.3224 3.34678 -3.82038 0
M  V30 246 H 24.2524 4.60259 -2.5587 0
M  V30 247 H 26.7434 3.08794 -2.17842 0
M  V30 248 H 27.0564 5.93363 -4.95116 0
M  V30 249 H 25.4014 5.34073 -4.44737 0
M  V30 250 H 28.5924 3.7758 -2.76679 0
M  V30 251 H 28.7654 5.0736 -4.031 0
M  V30 252 N 22.1715 0.800033 1.35784 0
M  V30 253 C 23.1015 0.220184 2.3246 0
M  V30 254 C 24.0825 -0.65073 1.57161 0
M  V30 255 O 25.2675 -0.582359 1.85263 0
M  V30 256 C 22.3975 -0.637353 3.41402 0
M  V30 257 C 21.3515 0.134531 4.27789 0
M  V30 258 C 20.6775 -0.844285 5.27992 0
M  V30 259 C 21.9775 1.32979 5.05088 0
M  V30 260 H 23.6715 1.02787 2.81203 0
M  V30 261 H 21.2175 0.495717 1.35199 0
M  V30 262 H 23.1705 -1.05302 4.08031 0
M  V30 263 H 21.8945 -1.47785 2.91251 0
M  V30 264 H 20.5535 0.531296 3.6273 0
M  V30 265 H 20.2015 -1.68011 4.74111 0
M  V30 266 H 19.9015 -0.332184 5.8666 0
M  V30 267 H 21.4255 -1.2583 5.97494 0
M  V30 268 H 22.8395 0.98934 5.64699 0
M  V30 269 H 21.2365 1.77593 5.7322 0
M  V30 270 H 22.3065 2.11978 4.36111 0
M  V30 271 N 23.6496 -1.47581 0.552962 0
M  V30 272 C 24.5796 -2.32762 -0.185451 0
M  V30 273 C 25.5606 -1.43527 -0.912905 0
M  V30 274 O 26.7456 -1.72388 -0.894201 0
M  V30 275 C 23.8756 -3.25219 -1.21859 0
M  V30 276 C 22.8296 -4.23661 -0.607864 0
M  V30 277 C 22.1556 -5.05413 -1.74533 0
M  V30 278 C 23.4556 -5.20481 0.435582 0
M  V30 279 H 25.1496 -2.94749 0.525684 0
M  V30 280 H 22.6956 -1.41738 0.254251 0
M  V30 281 H 24.6486 -3.8365 -1.7433 0
M  V30 282 H 23.3726 -2.61279 -1.95961 0
M  V30 283 H 22.0316 -3.66451 -0.104489 0
M  V30 284 H 21.6796 -4.3788 -2.47529 0
M  V30 285 H 21.3796 -5.72059 -1.34249 0
M  V30 286 H 22.9036 -5.66701 -2.27338 0
M  V30 287 H 24.3176 -5.733 -0.00290157 0
M  V30 288 H 22.7146 -5.95305 0.757067 0
M  V30 289 H 23.7846 -4.66217 1.33303 0
M  V30 290 N 25.1277 -0.289203 -1.54924 0
M  V30 291 C 26.0577 0.58549 -2.2604 0
M  V30 292 C 27.0387 1.14753 -1.25562 0
M  V30 293 O 28.2237 1.17906 -1.54311 0
M  V30 294 C 25.3537 1.76305 -2.99222 0
M  V30 295 C 24.3077 1.33191 -4.06748 0
M  V30 296 C 23.6337 2.5937 -4.6758 0
M  V30 297 C 24.9337 0.471775 -5.20165 0
M  V30 298 H 26.6277 -0.00763532 -2.99399 0
M  V30 299 H 24.1737 -0.00511229 -1.43999 0
M  V30 300 H 26.1267 2.38097 -3.47689 0
M  V30 301 H 24.8507 2.38223 -2.23422 0
M  V30 302 H 23.5097 0.737121 -3.59113 0
M  V30 303 H 23.1577 3.19576 -3.88433 0
M  V30 304 H 22.8577 2.31228 -5.40192 0
M  V30 305 H 24.3817 3.21985 -5.18804 0
M  V30 306 H 25.7957 0.995056 -5.64599 0
M  V30 307 H 24.1927 0.284639 -5.99425 0
M  V30 308 H 25.2627 -0.506041 -4.82252 0
M  V30 309 N 26.6058 1.57591 -0.0167156 0
M  V30 310 C 27.5158 2.1291 0.98521 0
M  V30 311 C 28.5318 1.07834 1.36557 0
M  V30 312 O 29.7078 1.39826 1.44951 0
M  V30 313 C 26.7728 2.63512 2.25305 0
M  V30 314 C 25.8338 3.83256 1.93426 0
M  V30 315 C 25.0668 4.31435 3.14165 0
M  V30 316 O 25.2898 3.78851 4.26413 0
M  V30 317 O 24.2238 5.23416 2.97186 0
M  V30 318 H 28.0498 2.98772 0.544888 0
M  V30 319 H 25.6348 1.48012 0.203141 0
M  V30 320 H 27.5168 2.96183 2.99756 0
M  V30 321 H 26.1918 1.8074 2.68542 0
M  V30 322 H 25.0988 3.55531 1.16398 0
M  V30 323 H 26.4318 4.67153 1.55013 0
M  V30 324 N 28.0839 -0.256276 1.55502 0
M  V30 325 C 29.0139 -1.32102 1.92539 0
M  V30 326 C 29.9949 -1.50684 0.789194 0
M  V30 327 O 31.1799 -1.63449 1.04872 0
M  V30 328 C 28.3099 -2.67752 2.21192 0
M  V30 329 C 27.2639 -2.63878 3.36975 0
M  V30 330 C 26.5899 -4.03236 3.51147 0
M  V30 331 C 27.8899 -2.21682 4.72921 0
M  V30 332 H 29.5839 -1.01351 2.81724 0
M  V30 333 H 27.1299 -0.486105 1.35547 0
M  V30 334 H 29.0829 -3.42365 2.45691 0
M  V30 335 H 27.8069 -3.0012 1.28824 0
M  V30 336 H 26.4659 -1.91722 3.12471 0
M  V30 337 H 26.1139 -4.32854 2.56216 0
M  V30 338 H 25.8139 -4.01535 4.29003 0
M  V30 339 H 27.3379 -4.79563 3.77957 0
M  V30 340 H 28.7519 -2.86023 4.96854 0
M  V30 341 H 27.1489 -2.3111 5.53812 0
M  V30 342 H 28.2189 -1.16833 4.70615 0
M  V30 343 N 29.562 -1.4872 -0.521534 0
M  V30 344 C 30.512 -1.60269 -1.62166 0
M  V30 345 C 31.496 -0.45935 -1.54204 0
M  V30 346 O 32.688 -0.711241 -1.62081 0
M  V30 347 C 29.817 -1.65344 -3.00859 0
M  V30 348 C 28.903 -2.85187 -3.13894 0
M  V30 349 N 29.294 -4.09509 -2.96877 0
M  V30 350 C 27.592 -2.82695 -3.44963 0
M  V30 351 C 28.293 -4.89959 -3.13552 0
M  V30 352 N 27.269 -4.22934 -3.41508 0
M  V30 353 H 31.071 -2.5413 -1.47632 0
M  V30 354 H 28.585 -1.45209 -0.727194 0
M  V30 355 H 30.582 -1.71713 -3.79895 0
M  V30 356 H 29.242 -0.726058 -3.16478 0
M  V30 357 H 30.253 -4.39814 -2.73467 0
M  V30 358 H 26.93 -1.99249 -3.66887 0
M  V30 359 H 28.32 -5.98654 -3.05061 0
M  V30 360 N 31.0401 0.771051 -1.3745 0
M  V30 361 C 31.9901 1.87456 -1.29785 0
M  V30 362 C 32.9741 1.59827 -0.185541 0
M  V30 363 O 34.1661 1.71945 -0.419997 0
M  V30 364 C 31.2951 3.24935 -1.1078 0
M  V30 365 C 30.3811 3.58514 -2.26558 0
M  V30 366 N 30.7721 3.6327 -3.5195 0
M  V30 367 C 29.0701 3.88683 -2.18727 0
M  V30 368 C 29.7711 3.93616 -4.283 0
M  V30 369 N 28.7471 4.09551 -3.57448 0
M  V30 370 H 32.5491 1.89386 -2.24745 0
M  V30 371 H 30.0631 0.967531 -1.30432 0
M  V30 372 H 32.0601 4.03881 -1.03374 0
M  V30 373 H 30.7201 3.24268 -0.16738 0
M  V30 374 H 31.7311 3.45458 -3.85848 0
M  V30 375 H 28.4081 3.95834 -1.32746 0
M  V30 376 H 29.7981 4.04066 -5.36824 0
M  V30 377 N 32.5182 1.22032 0.997298 0
M  V30 378 C 33.9342 0.979326 1.26021 0
M  V30 379 C 34.1342 -0.32972 1.98784 0
M  V30 380 O 33.1902 -1.05345 2.29475 0
M  V30 381 C 34.5032 2.17509 2.07631 0
M  V30 382 C 36.0512 2.21817 2.2083 0
M  V30 383 C 36.5262 3.40933 3.05825 0
M  V30 384 N 38.0172 3.41067 3.13412 0
M  V30 385 C 38.7522 4.29885 3.79455 0
M  V30 386 N 38.2482 5.28914 4.47462 0
M  V30 387 N 40.0412 4.17673 3.76173 0
M  V30 388 H 32.1922 2.06202 0.509352 0
M  V30 389 H 34.4552 0.90334 0.287541 0
M  V30 390 H 34.1612 3.12415 1.61524 0
M  V30 391 H 34.0352 2.17206 3.08385 0
M  V30 392 H 36.4222 1.27462 2.66153 0
M  V30 393 H 36.5032 2.2616 1.1952 0
M  V30 394 H 36.1472 4.35586 2.61203 0
M  V30 395 H 36.0772 3.33829 4.07266 0
M  V30 396 H 38.5682 2.69406 2.65007 0
M  V30 397 H 38.8812 5.92973 4.95583 0
M  V30 398 H 37.2262 5.32831 4.46224 0
M  V30 399 H 40.4172 3.39564 3.22202 0
M  V30 400 H 40.5902 4.87098 4.27363 0
M  V30 401 N 33.9963 -1.19345 1.0293 0
M  V30 402 C 35.2443 -1.88665 0.724574 0
M  V30 403 C 35.5653 -1.80036 -0.749144 0
M  V30 404 O 34.8353 -1.2111 -1.53978 0
M  V30 405 H 33.4153 -0.698406 0.265025 0
M  V30 406 H 36.0773 -1.44885 1.30362 0
M  V30 407 H 35.1733 -2.94987 1.01926 0
M  V30 408 N 35.4744 -0.807222 -1.35358 0
M  V30 409 C 36.4224 -0.20614 -2.31685 0
M  V30 410 C 37.4164 0.644445 -1.56663 0
M  V30 411 O 38.6224 0.537538 -1.71786 0
M  V30 412 H 34.9974 -0.0479006 -0.750473 0
M  V30 413 H 36.9684 -1.03369 -2.79924 0
M  V30 414 C 35.7174 0.630212 -3.41941 0
M  V30 415 H 35.0404 -0.0149558 -3.99797 0
M  V30 416 H 36.4804 1.01716 -4.11619 0
M  V30 417 C 34.9394 1.79601 -2.85035 0
M  V30 418 O 35.4694 2.89351 -2.78637 0
M  V30 419 N 33.6754 1.60774 -2.42074 0
M  V30 420 H 33.2224 0.715009 -2.47478 0
M  V30 421 H 33.1804 2.38933 -2.04349 0
M  V30 422 N 36.9525 1.47285 -0.560781 0
M  V30 423 C 37.9155 2.28535 0.174488 0
M  V30 424 C 38.9155 1.37153 0.839388 0
M  V30 425 O 40.1055 1.59748 0.694702 0
M  V30 426 C 37.2375 3.16934 1.25561 0
M  V30 427 H 38.4305 2.95012 -0.539262 0
M  V30 428 H 35.9835 1.53034 -0.317865 0
M  V30 429 H 36.7185 2.55157 2.00164 0
M  V30 430 H 36.5035 3.8419 0.783604 0
M  V30 431 H 37.9935 3.78143 1.77193 0
M  V30 432 N 38.4306 0.297415 1.54768 0
M  V30 433 C 39.6556 -0.318435 2.04941 0
M  V30 434 C 40.0806 -1.4701 1.17345 0
M  V30 435 O 39.4386 -1.80436 0.176758 0
M  V30 436 C 39.4866 -0.755749 3.52592 0
M  V30 437 O 38.5906 -1.86088 3.68028 0
M  V30 438 H 37.9316 -0.062421 0.661059 0
M  V30 439 H 40.4616 0.438215 1.99852 0
M  V30 440 H 40.4716 -1.04552 3.94376 0
M  V30 441 H 39.1466 0.0867233 4.1581 0
M  V30 442 H 37.7236 -1.57193 3.38149 0
M  V30 443 N 39.9087 -1.5758 0.0250728 0
M  V30 444 C 41.1567 -1.91255 -0.653151 0
M  V30 445 C 41.4777 -0.901691 -1.729 0
M  V30 446 O 40.7477 0.0573785 -1.95816 0
M  V30 447 H 39.3277 -0.705942 -0.244243 0
M  V30 448 H 41.9897 -1.94767 0.0719209 0
M  V30 449 H 41.0857 -2.91752 -1.10847 0
M  V30 450 N 41.3868 0.248026 -1.55636 0
M  V30 451 C 42.3168 1.31079 -1.93237 0
M  V30 452 C 43.2978 1.50264 -0.797174 0
M  V30 453 O 44.4828 1.62891 -1.05737 0
M  V30 454 C 41.6128 2.66575 -2.22609 0
M  V30 455 C 40.5668 2.62087 -3.3837 0
M  V30 456 C 39.8928 4.01369 -3.53281 0
M  V30 457 C 41.1928 2.19171 -4.7409 0
M  V30 458 H 42.8868 0.998556 -2.82257 0
M  V30 459 H 40.4328 0.47891 -1.35803 0
M  V30 460 H 42.3858 3.41057 -2.47503 0
M  V30 461 H 41.1098 2.99432 -1.30414 0
M  V30 462 H 39.7688 1.90063 -3.13483 0
M  V30 463 H 39.4168 4.31489 -2.58508 0
M  V30 464 H 39.1168 3.99254 -4.31127 0
M  V30 465 H 40.6408 4.77552 -3.80495 0
M  V30 466 H 42.0548 2.83384 -4.98363 0
M  V30 467 H 40.4518 2.2817 -5.5503 0
M  V30 468 H 41.5218 1.14336 -4.71227 0
M  V30 469 N 42.8649 1.48995 0.513639 0
M  V30 470 C 44.1129 1.57531 1.26604 0
M  V30 471 C 44.4339 0.258236 1.93283 0
M  V30 472 O 43.7039 -0.721502 1.8213 0
M  V30 473 H 42.2839 0.580387 0.470276 0
M  V30 474 H 44.9459 1.85552 0.596373 0
M  V30 475 H 44.0419 2.36486 2.03669 0
M  V30 476 N 44.343 -0.763751 1.37857 0
M  V30 477 C 45.306 -1.85889 1.34081 0
M  V30 478 C 46.306 -1.58949 0.243277 0
M  V30 479 O 47.496 -1.66882 0.499589 0
M  V30 480 C 44.628 -3.23176 1.08489 0
M  V30 481 H 45.821 -1.90648 2.31502 0
M  V30 482 H 43.374 -0.964367 1.23003 0
M  V30 483 H 44.109 -3.24091 0.116318 0
M  V30 484 H 43.894 -3.44124 1.8794 0
M  V30 485 H 45.384 -4.03254 1.08517 0
M  V30 486 N 45.8211 -1.22559 -0.990812 0
M  V30 487 C 47.0691 -1.04933 -1.72724 0
M  V30 488 C 47.3901 0.416158 -1.90508 0
M  V30 489 O 46.6601 1.29918 -1.46622 0
M  V30 490 H 45.2401 -0.385296 -0.639965 0
M  V30 491 H 47.9021 -1.54105 -1.19322 0
M  V30 492 H 46.9981 -1.52886 -2.72089 0
M  V30 493 N 47.2992 1.18797 -1.03562 0
M  V30 494 C 48.7102 1.70322 -0.764676 0
M  V30 495 C 49.0612 1.82708 0.714996 0
M  V30 496 O 48.1862 1.50299 1.55689 0
M  V30 497 C 48.7812 3.09356 -1.38145 0
M  V30 498 C 47.3402 3.58114 -1.15895 0
M  V30 499 C 46.4872 2.34798 -1.4753 0
M  V30 500 H 49.4382 1.03543 -1.20268 0
M  V30 501 H 49.4592 3.72378 -0.781977 0
M  V30 502 H 48.9712 3.00309 -2.45837 0
M  V30 503 H 47.0722 3.72464 -0.100544 0
M  V30 504 H 47.1852 4.4184 -1.8524 0
M  V30 505 H 45.5492 2.38464 -0.894829 0
M  V30 506 H 46.3322 2.28375 -2.56319 0
M  V30 507 N 48.7773 0.814389 1.34928 0
M  V30 508 C 50.1933 0.499084 1.51596 0
M  V30 509 C 50.3933 -0.978319 1.76157 0
M  V30 510 O 49.4493 -1.76309 1.80752 0
M  V30 511 C 50.7623 1.35121 2.68631 0
M  V30 512 C 52.3103 1.34746 2.82511 0
M  V30 513 C 52.7853 2.18388 4.0258 0
M  V30 514 N 54.2763 2.15966 4.09772 0
M  V30 515 C 55.0113 2.77437 5.01813 0
M  V30 516 N 54.5073 3.47866 5.99134 0
M  V30 517 N 56.3003 2.67037 4.94619 0
M  V30 518 H 48.4513 1.7711 1.17243 0
M  V30 519 H 50.7143 0.754256 0.574284 0
M  V30 520 H 50.4203 2.40001 2.57085 0
M  V30 521 H 50.2943 1.00991 3.63429 0
M  V30 522 H 52.6813 0.30648 2.93504 0
M  V30 523 H 52.7623 1.72869 1.88547 0
M  V30 524 H 52.4063 3.2253 3.92347 0
M  V30 525 H 52.3363 1.77621 4.9574 0
M  V30 526 H 54.8273 1.64729 3.40107 0
M  V30 527 H 55.1403 3.92038 6.65977 0
M  V30 528 H 53.4853 3.51972 5.99284 0
M  V30 529 H 56.6763 2.11597 4.17546 0
M  V30 530 H 56.8493 3.15232 5.66156 0
M  V30 531 N 50.2554 -1.46986 0.568584 0
M  V30 532 C 51.6664 -1.86188 0.138219 0
M  V30 533 C 52.0174 -1.47388 -1.29504 0
M  V30 534 O 51.1424 -0.88219 -1.97602 0
M  V30 535 C 51.7374 -3.3792 0.244065 0
M  V30 536 C 50.2964 -3.76171 -0.131335 0
M  V30 537 C 49.4434 -2.71027 0.586465 0
M  V30 538 H 52.3944 -1.38342 0.777645 0
M  V30 539 H 52.4154 -3.76729 -0.534351 0
M  V30 540 H 51.9274 -3.66128 1.28731 0
M  V30 541 H 50.0284 -3.5358 -1.17526 0
M  V30 542 H 50.1414 -4.78523 0.235146 0
M  V30 543 H 48.5054 -2.54684 0.0282722 0
M  V30 544 H 49.2884 -3.02077 1.63109 0
M  V30 545 N 51.7335 -0.305618 -1.54608 0
M  V30 546 C 52.9585 0.307562 -2.05107 0
M  V30 547 C 53.3835 1.46385 -1.18123 0
M  V30 548 O 52.7415 1.8034 -0.186324 0
M  V30 549 C 52.7895 0.73704 -3.52987 0
M  V30 550 O 51.8935 1.84134 -3.6901 0
M  V30 551 H 51.2345 0.0589143 -0.661381 0
M  V30 552 H 53.7645 -0.448807 -1.99617 0
M  V30 553 H 53.7745 1.02459 -3.94925 0
M  V30 554 H 52.4495 -0.108773 -4.15758 0
M  V30 555 H 51.0265 1.55398 -3.38978 0
M  V30 556 N 53.2116 1.57565 -0.0334293 0
M  V30 557 C 54.1446 2.05997 0.981866 0
M  V30 558 C 55.1226 0.956647 1.3148 0
M  V30 559 O 56.3066 1.22729 1.43073 0
M  V30 560 C 53.4336 2.48564 2.30074 0
M  V30 561 C 52.4796 3.69958 2.12211 0
M  V30 562 S 53.3126 5.16414 1.41692 0
M  V30 563 C 54.4686 5.6228 2.7494 0
M  V30 564 H 54.7016 2.91792 0.569612 0
M  V30 565 H 52.2346 1.53366 0.178376 0
M  V30 566 H 54.1926 2.73753 3.05892 0
M  V30 567 H 52.8536 1.63106 2.68431 0
M  V30 568 H 52.0466 3.97603 3.09722 0
M  V30 569 H 51.6486 3.44943 1.44535 0
M  V30 570 H 53.9406 5.66783 3.71165 0
M  V30 571 H 54.8836 6.61759 2.51953 0
M  V30 572 H 55.2916 4.89944 2.80384 0
M  V30 573 N 54.6897 -0.239769 1.55765 0
M  V30 574 C 55.9377 -0.964892 1.77579 0
M  V30 575 C 56.2587 -1.85582 0.598699 0
M  V30 576 O 55.5287 -1.92075 -0.385226 0
M  V30 577 H 54.1087 -0.359265 0.654933 0
M  V30 578 H 56.7707 -0.256001 1.93211 0
M  V30 579 H 55.8667 -1.58243 2.69009 0
M  V30 580 N 56.1678 -1.49265 -0.50573 0
M  V30 581 C 57.1008 -1.60183 -1.62532 0
M  V30 582 C 58.0788 -0.451107 -1.56217 0
M  V30 583 O 59.2628 -0.666016 -1.76342 0
M  V30 584 C 56.3898 -1.55238 -3.01029 0
M  V30 585 C 55.4358 -2.7545 -3.25621 0
M  V30 586 S 56.2688 -4.37174 -3.09256 0
M  V30 587 C 57.4248 -4.34866 -4.50158 0
M  V30 588 H 57.6578 -2.54894 -1.53025 0
M  V30 589 H 55.1908 -1.38098 -0.690535 0
M  V30 590 H 57.1488 -1.53071 -3.80893 0
M  V30 591 H 55.8098 -0.618238 -3.07956 0
M  V30 592 H 55.0028 -2.68197 -4.26716 0
M  V30 593 H 54.6048 -2.75005 -2.53472 0
M  V30 594 H 56.8968 -4.06295 -5.42154 0
M  V30 595 H 57.8398 -5.36223 -4.62462 0
M  V30 596 H 58.2478 -3.65007 -4.30616 0
M  V30 597 N 57.6459 0.756429 -1.3826 0
M  V30 598 C 58.8939 1.51248 -1.34047 0
M  V30 599 C 59.2149 1.94875 0.0698372 0
M  V30 600 O 58.4849 1.67436 1.01696 0
M  V30 601 H 57.0649 0.561018 -0.493222 0
M  V30 602 H 59.7269 0.899347 -1.7291 0
M  V30 603 H 58.8229 2.40472 -1.98947 0
M  V30 604 N 59.124 1.23083 0.984299 0
M  V30 605 C 60.37 1.06214 1.72761 0
M  V30 606 C 60.703 -0.400584 1.90024 0
M  V30 607 O 59.978 -1.29672 1.44967 0
M  V30 608 C 60.261 1.78375 3.12817 0
M  V30 609 C 60.114 3.32296 3.03149 0
M  V30 610 C 61.433 1.54309 4.12161 0
M  V30 611 H 58.552 0.387251 0.627061 0
M  V30 612 H 61.194 1.51536 1.14616 0
M  V30 613 H 59.344 1.39848 3.62457 0
M  V30 614 H 61.016 3.8032 2.61064 0
M  V30 615 H 59.259 3.6153 2.39747 0
M  V30 616 H 59.93 3.77972 4.02295 0
M  V30 617 H 62.406 1.87791 3.71314 0
M  V30 618 H 61.282 2.07281 5.08258 0
M  V30 619 H 61.543 0.477572 4.39513 0
M  V30 620 N 60.6021 -1.18246 1.0419 0
M  V30 621 C 61.8481 -1.88536 0.747122 0
M  V30 622 C 62.1811 -1.80223 -0.723409 0
M  V30 623 O 61.4561 -1.20337 -1.52804 0
M  V30 624 C 61.7391 -3.38968 1.21544 0
M  V30 625 C 61.5921 -3.56084 2.74816 0
M  V30 626 C 62.9111 -4.32648 0.806482 0
M  V30 627 H 60.0301 -0.684619 0.272883 0
M  V30 628 H 62.6721 -1.39113 1.29413 0
M  V30 629 H 60.8221 -3.8119 0.750081 0
M  V30 630 H 62.4941 -3.22946 3.29399 0
M  V30 631 H 60.7371 -2.98699 3.14582 0
M  V30 632 H 61.4081 -4.61639 3.02644 0
M  V30 633 H 63.8841 -3.98211 1.20695 0
M  V30 634 H 62.7601 -5.36462 1.1619 0
M  V30 635 H 63.0211 -4.41146 -0.29029 0
M  V30 636 N 62.0802 -0.821533 -1.34494 0
M  V30 637 C 63.4912 -0.467956 -1.8074 0
M  V30 638 C 63.8422 1.01151 -1.68116 0
M  V30 639 O 62.9672 1.78707 -1.22036 0
M  V30 640 C 63.5622 -0.842627 -3.28154 0
M  V30 641 C 62.1212 -0.541439 -3.72485 0
M  V30 642 C 61.2682 -1.06028 -2.56229 0
M  V30 643 H 64.2192 -1.01183 -1.22261 0
M  V30 644 H 64.2402 -0.145876 -3.8022 0
M  V30 645 H 63.7522 -1.91945 -3.37311 0
M  V30 646 H 61.8532 0.526034 -3.68868 0
M  V30 647 H 61.9662 -1.08453 -4.66663 0
M  V30 648 H 60.3302 -0.481892 -2.501 0
M  V30 649 H 61.1132 -2.14352 -2.68157 0
M  V30 650 N 63.5583 1.46682 -0.576371 0
M  V30 651 C 64.8353 1.95599 0.00703437 0
M  V30 652 C 65.2153 1.51904 1.46589 0
M  V30 653 O 64.5633 0.766755 2.15251 0
M  V30 654 C 64.7733 3.4864 -0.158404 0
M  V30 655 C 66.1213 4.24594 -0.0229439 0
M  V30 656 O 67.1453 3.56094 -0.0869173 0
M  V30 657 O 66.0043 5.46373 0.118015 0
M  V30 658 H 63.0983 0.825275 0.053384 0
M  V30 659 H 65.6443 1.56996 -0.644244 0
M  V30 660 H 64.4163 3.7331 -1.17282 0
M  V30 661 H 64.0393 3.94057 0.5296 0
M  V30 662 N 65.0364 0.313813 1.54444 0
M  V30 663 C 66.4474 -0.176243 1.85866 0
M  V30 664 C 66.7984 -1.52405 1.23561 0
M  V30 665 O 65.9234 -2.09605 0.538016 0
M  V30 666 C 66.5184 -0.32657 3.37222 0
M  V30 667 C 65.0774 -0.760846 3.6863 0
M  V30 668 C 64.2244 0.123247 2.77026 0
M  V30 669 H 67.1754 0.534418 1.49431 0
M  V30 670 H 67.1964 -1.15908 3.62416 0
M  V30 671 H 66.7084 0.654531 3.82541 0
M  V30 672 H 64.8094 -1.75204 3.28838 0
M  V30 673 H 64.9224 -0.571353 4.75681 0
M  V30 674 H 63.2864 -0.399597 2.51546 0
M  V30 675 H 64.0694 1.10094 3.25168 0
M  V30 676 N 66.5145 -1.57545 0.0417849 0
M  V30 677 C 67.7615 -1.92317 -0.634082 0
M  V30 678 C 68.0895 -0.919334 -1.71402 0
M  V30 679 O 67.3445 0.0698253 -1.95575 0
M  V30 680 C 67.6435 -3.33794 -1.27735 0
M  V30 681 C 67.3095 -4.49716 -0.326543 0
M  V30 682 C 65.9715 -4.81156 -0.0648814 0
M  V30 683 C 68.3235 -5.20182 0.325623 0
M  V30 684 C 65.6515 -5.80414 0.856539 0
M  V30 685 C 68.0035 -6.20424 1.23518 0
M  V30 686 C 66.6675 -6.50298 1.5056 0
M  V30 687 H 65.9375 -0.703736 -0.232027 0
M  V30 688 H 68.5845 -1.91205 0.106259 0
M  V30 689 H 66.8895 -3.31228 -2.09274 0
M  V30 690 H 68.5865 -3.57975 -1.80707 0
M  V30 691 H 65.1765 -4.25176 -0.540665 0
M  V30 692 H 69.3605 -4.96112 0.136546 0
M  V30 693 H 64.6165 -6.019 1.07363 0
M  V30 694 H 68.7905 -6.74141 1.74664 0
M  V30 695 H 66.4175 -7.27025 2.22123 0
M  V30 696 N 67.9926 0.231505 -1.5589 0
M  V30 697 C 69.2386 0.95877 -1.78705 0
M  V30 698 C 69.5716 1.8438 -0.609725 0
M  V30 699 O 68.8466 1.90521 0.391426 0
M  V30 700 C 69.1296 1.8062 -3.11526 0
M  V30 701 C 68.9826 0.948328 -4.39689 0
M  V30 702 C 70.3016 2.78585 -3.40703 0
M  V30 703 H 67.4206 0.347129 -0.650131 0
M  V30 704 H 70.0626 0.228259 -1.88624 0
M  V30 705 H 68.2126 2.42902 -3.03201 0
M  V30 706 H 69.8846 0.343016 -4.60023 0
M  V30 707 H 68.1276 0.253314 -4.3306 0
M  V30 708 H 68.7986 1.57543 -5.29041 0
M  V30 709 H 71.2746 2.26439 -3.49091 0
M  V30 710 H 70.1506 3.34988 -4.34826 0
M  V30 711 H 70.4116 3.55825 -2.62375 0
M  V30 712 N 69.4707 1.49531 0.497807 0
M  V30 713 C 70.7187 1.58865 1.24926 0
M  V30 714 C 71.0397 0.278721 1.92998 0
M  V30 715 O 70.3097 -0.702144 1.82885 0
M  V30 716 H 68.8897 0.585343 0.464094 0
M  V30 717 H 71.5517 1.86174 0.57666 0
M  V30 718 H 70.6477 2.38633 2.01149 0
M  V30 719 N 70.9488 -0.749086 1.3866 0
M  V30 720 C 72.3648 -1.05276 1.19955 0
M  V30 721 C 72.5648 -2.01435 0.05134 0
M  V30 722 O 71.6208 -2.45232 -0.60147 0
M  V30 723 C 72.9338 -1.62853 2.52783 0
M  V30 724 C 74.4818 -1.75002 2.59506 0
M  V30 725 C 74.9568 -2.35991 3.92521 0
M  V30 726 N 76.4478 -2.43416 3.94085 0
M  V30 727 C 77.1828 -2.91511 4.9377 0
M  V30 728 N 76.6788 -3.39608 6.03853 0
M  V30 729 N 78.4718 -2.90592 4.81157 0
M  V30 730 H 70.6228 -0.111066 2.12109 0
M  V30 731 H 72.8858 -0.111901 0.941373 0
M  V30 732 H 72.5918 -0.99664 3.37283 0
M  V30 733 H 72.4658 -2.61854 2.715 0
M  V30 734 H 74.8528 -2.37317 1.75398 0
M  V30 735 H 74.9338 -0.74693 2.44652 0
M  V30 736 H 74.5778 -1.74308 4.77053 0
M  V30 737 H 74.5078 -3.3695 4.04688 0
M  V30 738 H 76.9988 -2.09405 3.14576 0
M  V30 739 H 77.3118 -3.74775 6.75843 0
M  V30 740 H 75.6568 -3.37653 6.07466 0
M  V30 741 H 78.8478 -2.52332 3.94267 0
M  V30 742 H 79.0208 -3.27762 5.58996 0
M  V30 743 N 72.4269 -1.23603 -0.977757 0
M  V30 744 C 73.3369 -1.03632 -2.1047 0
M  V30 745 C 74.3529 0.0199435 -1.73989 0
M  V30 746 O 75.5289 -0.176076 -2.00629 0
M  V30 747 C 72.5939 -0.63276 -3.40877 0
M  V30 748 C 71.6549 -1.76437 -3.91367 0
M  V30 749 C 70.8879 -1.37997 -5.15551 0
M  V30 750 O 71.1109 -0.265357 -5.69782 0
M  V30 751 O 70.0449 -2.20201 -5.60174 0
M  V30 752 H 73.8709 -1.98086 -2.30208 0
M  V30 753 H 71.4559 -1.02332 -1.08851 0
M  V30 754 H 73.3379 -0.418761 -4.19314 0
M  V30 755 H 72.0129 0.282754 -3.22463 0
M  V30 756 H 70.9199 -2.03304 -3.14036 0
M  V30 757 H 72.2529 -2.6583 -4.14241 0
M  V30 758 N 73.905 1.17692 -1.04816 0
M  V30 759 C 75.151 1.88137 -0.75711 0
M  V30 760 C 75.484 1.80604 0.713841 0
M  V30 761 O 74.759 1.21146 1.52164 0
M  V30 762 C 75.042 3.38318 -1.2334 0
M  V30 763 C 74.895 3.54622 -2.76701 0
M  V30 764 C 76.214 4.32214 -0.829415 0
M  V30 765 H 73.333 0.683163 -0.27651 0
M  V30 766 H 75.975 1.38424 -1.30149 0
M  V30 767 H 74.125 3.80787 -0.770286 0
M  V30 768 H 75.797 3.21194 -3.31107 0
M  V30 769 H 74.04 2.97026 -3.16161 0
M  V30 770 H 74.711 4.60028 -3.05088 0
M  V30 771 H 77.187 3.97565 -1.22805 0
M  V30 772 H 76.063 5.35838 -1.19033 0
M  V30 773 H 76.324 4.41294 0.266891 0
M  V30 774 N 75.3831 0.828654 1.34056 0
M  V30 775 C 76.6111 0.43262 2.02326 0
M  V30 776 C 77.0261 -0.963147 1.62385 0
M  V30 777 O 76.3831 -1.62425 0.832121 0
M  V30 778 C 76.4341 0.53182 3.57567 0
M  V30 779 O 76.1551 1.87258 3.96063 0
M  V30 780 C 77.6561 0.131422 4.43105 0
M  V30 781 H 74.8761 0.172923 0.648335 0
M  V30 782 H 77.4201 1.1184 1.71208 0
M  V30 783 H 75.5751 -0.105938 3.87255 0
M  V30 784 H 75.9891 1.85087 4.90758 0
M  V30 785 H 77.4631 0.251904 5.51425 0
M  V30 786 H 77.9401 -0.925645 4.29335 0
M  V30 787 H 78.5461 0.743207 4.18756 0
M  V30 788 N 76.8612 -1.46375 0.584142 0
M  V30 789 C 78.0862 -2.07268 0.0740405 0
M  V30 790 C 78.5112 -1.42979 -1.22223 0
M  V30 791 O 77.8692 -0.514092 -1.73859 0
M  V30 792 C 77.9172 -3.60518 -0.0767769 0
M  V30 793 O 77.0212 -3.96533 -1.13292 0
M  V30 794 H 76.3622 -0.660961 0.0634524 0
M  V30 795 H 78.8922 -1.87991 0.807492 0
M  V30 796 H 78.9022 -4.07021 -0.282489 0
M  V30 797 H 77.5772 -4.06702 0.86986 0
M  V30 798 H 76.1542 -3.61738 -0.905553 0
M  V30 799 N 78.3393 -0.321999 -1.54275 0
M  V30 800 C 79.3023 0.531975 -2.22941 0
M  V30 801 C 80.3023 1.04478 -1.22234 0
M  V30 802 O 81.4923 0.937452 -1.46825 0
M  V30 803 C 78.6243 1.73874 -2.93224 0
M  V30 804 H 79.8173 -0.0682612 -2.99822 0
M  V30 805 H 77.3703 -0.0730644 -1.56129 0
M  V30 806 H 78.1053 2.37825 -2.20476 0
M  V30 807 H 77.8903 1.37847 -3.6707 0
M  V30 808 H 79.3803 2.34496 -3.45545 0
M  V30 809 N 79.8174 1.5752 -0.0501392 0
M  V30 810 C 80.7644 2.1147 0.924603 0
M  V30 811 C 81.7344 1.02182 1.30951 0
M  V30 812 O 82.9194 1.29723 1.39916 0
M  V30 813 C 80.0594 2.66337 2.19451 0
M  V30 814 C 79.1724 3.89708 1.86418 0
M  V30 815 C 78.3074 4.32893 3.07859 0
M  V30 816 C 77.3464 5.48967 2.70742 0
M  V30 817 N 76.4834 5.87211 3.84874 0
M  V30 818 H 81.3234 2.94465 0.457639 0
M  V30 819 H 78.8604 1.45531 0.214266 0
M  V30 820 H 80.8184 2.96247 2.93758 0
M  V30 821 H 79.4484 1.86141 2.63726 0
M  V30 822 H 78.5004 3.66396 1.02264 0
M  V30 823 H 79.8124 4.74074 1.55096 0
M  V30 824 H 78.9664 4.6435 3.90466 0
M  V30 825 H 77.7054 3.47336 3.42358 0
M  V30 826 H 76.7104 5.17183 1.86551 0
M  V30 827 H 77.9354 6.3624 2.37436 0
M  V30 828 H 75.8814 5.04607 4.19175 0
M  V30 829 H 75.7984 6.66266 3.57247 0
M  V30 830 H 77.0664 6.23282 4.68123 0
M  V30 831 N 81.2955 -0.223234 1.56011 0
M  V30 832 C 82.5435 -0.946003 1.78592 0
M  V30 833 C 82.8645 -1.84936 0.618349 0
M  V30 834 O 82.1345 -1.92473 -0.364833 0
M  V30 835 H 80.7145 -0.352298 0.658707 0
M  V30 836 H 83.3765 -0.235494 1.93472 0
M  V30 837 H 82.4725 -1.55381 2.70672 0
M  V30 838 N 82.7736 -1.49793 -0.48987 0
M  V30 839 C 84.0506 -1.50348 -1.25119 0
M  V30 840 C 84.4306 -0.237466 -2.0976 0
M  V30 841 O 83.7786 0.77981 -2.14782 0
M  V30 842 C 83.9886 -2.78872 -2.09837 0
M  V30 843 C 85.3366 -3.288 -2.68655 0
M  V30 844 O 86.3606 -2.80065 -2.20096 0
M  V30 845 O 85.2196 -4.13707 -3.57083 0
M  V30 846 H 82.3136 -0.602242 -0.566775 0
M  V30 847 H 84.8596 -1.62067 -0.503229 0
M  V30 848 H 83.6316 -3.62499 -1.47343 0
M  V30 849 H 83.2546 -2.70066 -2.91805 0
M  V30 850 N 84.2517 0.741722 -1.39055 0
M  V30 851 C 85.5287 1.49252 -1.26425 0
M  V30 852 C 85.9087 2.10705 0.129144 0
M  V30 853 O 85.2567 1.98045 1.13976 0
M  V30 854 C 85.4667 2.54934 -2.38347 0
M  V30 855 C 86.8147 3.21506 -2.77343 0
M  V30 856 O 87.8387 2.65245 -2.37747 0
M  V30 857 O 86.6977 4.23294 -3.45665 0
M  V30 858 H 83.7917 0.662451 -0.495064 0
M  V30 859 H 86.3377 0.776121 -1.50912 0
M  V30 860 H 85.1097 2.07857 -3.31529 0
M  V30 861 H 84.7327 3.34141 -2.15489 0
M  V30 862 N 85.7298 1.2412 0.971189 0
M  V30 863 C 86.6928 1.03156 2.04674 0
M  V30 864 C 87.6928 -0.00990322 1.60797 0
M  V30 865 O 88.8828 0.230729 1.72665 0
M  V30 866 C 86.0148 0.562765 3.36223 0
M  V30 867 H 87.2078 1.98614 2.24705 0
M  V30 868 H 84.7608 1.06293 1.14593 0
M  V30 869 H 85.4958 -0.395176 3.21883 0
M  V30 870 H 85.2808 1.31441 3.69413 0
M  V30 871 H 86.7708 0.437015 4.15307 0
M  V30 872 N 87.2079 -1.17134 1.05439 0
M  V30 873 C 88.4379 -1.91094 0.785274 0
M  V30 874 C 88.8459 -1.77198 -0.663142 0
M  V30 875 O 88.1889 -1.10835 -1.46497 0
M  V30 876 C 88.2509 -3.42594 1.08949 0
M  V30 877 C 87.9149 -3.80274 2.53458 0
M  V30 878 C 88.9119 -3.82912 3.51673 0
M  V30 879 C 86.5969 -4.11162 2.88532 0
M  V30 880 C 88.5909 -4.15913 4.83006 0
M  V30 881 C 86.2779 -4.43831 4.20068 0
M  V30 882 C 87.2759 -4.46185 5.17115 0
M  V30 883 O 86.9639 -4.78083 6.46291 0
M  V30 884 H 86.6959 -0.613073 0.284811 0
M  V30 885 H 89.2499 -1.49461 1.40893 0
M  V30 886 H 87.4799 -3.84534 0.408741 0
M  V30 887 H 89.1689 -3.97817 0.805991 0
M  V30 888 H 89.9349 -3.5917 3.25917 0
M  V30 889 H 85.8139 -4.085 2.13656 0
M  V30 890 H 89.3579 -4.17665 5.5875 0
M  V30 891 H 85.2549 -4.67037 4.45586 0
M  V30 892 H 86.0229 -4.9593 6.51149 0
M  V30 893 N 88.686 -0.835752 -1.33615 0
M  V30 894 C 89.616 -0.281739 -2.31794 0
M  V30 895 C 90.597 0.608833 -1.58831 0
M  V30 896 O 91.782 0.533035 -1.86741 0
M  V30 897 C 88.912 0.546612 -3.42971 0
M  V30 898 C 87.866 -0.247904 -4.27281 0
M  V30 899 C 87.192 0.704001 -5.30045 0
M  V30 900 C 88.492 -1.46324 -5.01385 0
M  V30 901 H 90.186 -1.10206 -2.78379 0
M  V30 902 H 87.732 -0.531388 -1.33837 0
M  V30 903 H 89.685 0.944467 -4.1068 0
M  V30 904 H 88.409 1.40011 -2.95067 0
M  V30 905 H 87.068 -0.627281 -3.61194 0
M  V30 906 H 86.716 1.55381 -4.78399 0
M  V30 907 H 86.416 0.176524 -5.87335 0
M  V30 908 H 87.94 1.09944 -6.0062 0
M  V30 909 H 89.354 -1.13871 -5.61877 0
M  V30 910 H 87.751 -1.92728 -5.6831 0
M  V30 911 H 88.821 -2.23467 -4.30338 0
M  V30 912 N 90.1641 1.46063 -0.591896 0
M  V30 913 C 91.3941 2.06418 -0.0867676 0
M  V30 914 C 91.8021 1.43975 1.22751 0
M  V30 915 O 91.1451 0.542531 1.75506 0
M  V30 916 C 91.2071 3.59213 0.143725 0
M  V30 917 C 90.8711 4.439 -1.08635 0
M  V30 918 C 91.8681 4.79864 -2.00067 0
M  V30 919 C 89.5531 4.84896 -1.31077 0
M  V30 920 C 91.5471 5.55661 -3.12282 0
M  V30 921 C 89.2341 5.6045 -2.43596 0
M  V30 922 C 90.2321 5.95747 -3.34027 0
M  V30 923 O 89.9201 6.69772 -4.4459 0
M  V30 924 H 89.6521 0.673443 -0.0587447 0
M  V30 925 H 92.2061 1.88539 -0.814994 0
M  V30 926 H 90.4361 3.75433 0.926668 0
M  V30 927 H 92.1251 4.01463 0.5985 0
M  V30 928 H 92.8911 4.48763 -1.83947 0
M  V30 929 H 88.7701 4.56867 -0.61594 0
M  V30 930 H 92.3141 5.8313 -3.82891 0
M  V30 931 H 88.2111 5.90965 -2.59674 0
M  V30 932 H 88.9791 6.88207 -4.43073 0
M  V30 933 N 91.6422 0.330177 1.54103 0
M  V30 934 C 92.8912 -0.271336 1.99867 0
M  V30 935 C 93.2042 -1.52723 1.22209 0
M  V30 936 O 94.4102 -2.20515 1.58383 0
M  V30 937 C 92.8662 -0.534032 3.55916 0
M  V30 938 C 92.4742 0.705193 4.42415 0
M  V30 939 C 94.2182 -1.09514 4.1013 0
M  V30 940 C 92.1252 0.414035 5.89949 0
M  V30 941 H 91.0552 -0.105166 0.74663 0
M  V30 942 H 93.7062 0.443429 1.78062 0
M  V30 943 H 92.0882 -1.30915 3.73734 0
M  V30 944 H 93.2622 1.4804 4.36372 0
M  V30 945 H 91.5772 1.18698 3.99124 0
M  V30 946 H 94.1742 -1.3277 5.17954 0
M  V30 947 H 94.5172 -2.04656 3.62521 0
M  V30 948 H 95.0502 -0.381038 3.95971 0
M  V30 949 H 91.7892 1.33481 6.41766 0
M  V30 950 H 91.3092 -0.323336 5.98928 0
M  V30 951 H 92.9882 0.0263105 6.46995 0
M  V30 952 N 93.1203 -1.57491 0.0584922 0
M  V30 953 C 94.0503 -2.14988 -0.911178 0
M  V30 954 C 95.0313 -1.07343 -1.31952 0
M  V30 955 O 96.2163 -1.35318 -1.39294 0
M  V30 956 C 93.3463 -2.70078 -2.18347 0
M  V30 957 C 92.3003 -3.82771 -1.91495 0
M  V30 958 C 91.6263 -4.24408 -3.25241 0
M  V30 959 C 92.9263 -5.07592 -1.23075 0
M  V30 960 H 94.6203 -2.96263 -0.432246 0
M  V30 961 H 92.1663 -1.42512 -0.206469 0
M  V30 962 H 94.1193 -3.08943 -2.86587 0
M  V30 963 H 92.8433 -1.86005 -2.68458 0
M  V30 964 H 91.5023 -3.44389 -1.25664 0
M  V30 965 H 91.1503 -3.37275 -3.73168 0
M  V30 966 H 90.8503 -5.00366 -3.08071 0
M  V30 967 H 92.3743 -4.65879 -3.94701 0
M  V30 968 H 93.7883 -5.43857 -1.81362 0
M  V30 969 H 92.1853 -5.88741 -1.16207 0
M  V30 970 H 93.2553 -4.84454 -0.207847 0
M  V30 971 N 94.5984 0.214957 -1.56127 0
M  V30 972 C 95.5284 1.2695 -1.95974 0
M  V30 973 C 96.5094 1.48539 -0.828868 0
M  V30 974 O 97.6944 1.60611 -1.09168 0
M  V30 975 C 94.8244 2.61794 -2.28214 0
M  V30 976 C 93.7784 2.54851 -3.43853 0
M  V30 977 C 93.1044 3.93785 -3.61715 0
M  V30 978 C 94.4044 2.09065 -4.78632 0
M  V30 979 H 96.0984 0.93846 -2.84312 0
M  V30 980 H 93.6444 0.449996 -1.36788 0
M  V30 981 H 95.5974 3.35731 -2.54682 0
M  V30 982 H 94.3214 2.96599 -1.36736 0
M  V30 983 H 92.9804 1.8337 -3.17444 0
M  V30 984 H 92.6284 4.25908 -2.67602 0
M  V30 985 H 92.3284 3.90019 -4.39498 0
M  V30 986 H 93.8524 4.69374 -3.90539 0
M  V30 987 H 95.2664 2.7275 -5.04262 0
M  V30 988 H 93.6634 2.16346 -5.59745 0
M  V30 989 H 94.7334 1.04315 -4.73547 0
M  V30 990 N 96.0765 1.50051 0.48192 0
M  V30 991 C 97.3255 1.59741 1.23149 0
M  V30 992 C 97.6385 0.298163 1.93314 0
M  V30 993 O 98.8445 0.273835 2.70116 0
M  V30 994 C 97.3005 2.81926 2.23708 0
M  V30 995 C 96.9085 4.18685 1.59396 0
M  V30 996 C 98.6525 3.00956 2.99375 0
M  V30 997 C 96.5595 5.3207 2.58178 0
M  V30 998 H 95.4895 0.594838 0.46334 0
M  V30 999 H 98.1405 1.76467 0.503169 0
M  V30 1000 H 96.5225 2.58736 2.99786 0
M  V30 1001 H 97.6965 4.52088 0.891811 0
M  V30 1002 H 96.0115 4.05171 0.960503 0
M  V30 1003 H 98.6085 3.82836 3.73283 0
M  V30 1004 H 98.9515 2.12258 3.58123 0
M  V30 1005 H 99.4845 3.24277 2.30411 0
M  V30 1006 H 96.2235 6.22888 2.04184 0
M  V30 1007 H 95.7435 5.03098 3.26577 0
M  V30 1008 H 97.4225 5.62196 3.20225 0
M  V30 1009 N 97.5546 -0.734337 1.39446 0
M  V30 1010 C 98.4876 -1.85715 1.32609 0
M  V30 1011 C 99.4656 -1.6137 0.199636 0
M  V30 1012 O 100.65 -1.84626 0.380195 0
M  V30 1013 C 97.7766 -3.21709 1.05929 0
M  V30 1014 C 96.8226 -3.64913 2.20773 0
M  V30 1015 S 97.6556 -3.74203 3.83056 0
M  V30 1016 C 98.8116 -5.12986 3.58603 0
M  V30 1017 H 99.0446 -1.91232 2.27635 0
M  V30 1018 H 96.5776 -0.899263 1.25509 0
M  V30 1019 H 98.5356 -4.00236 0.912203 0
M  V30 1020 H 97.1966 -3.13848 0.125883 0
M  V30 1021 H 96.3896 -4.63606 1.97699 0
M  V30 1022 H 95.9916 -2.93593 2.31688 0
M  V30 1023 H 98.2836 -5.99339 3.15909 0
M  V30 1024 H 99.2266 -5.41088 4.5676 0
M  V30 1025 H 99.6346 -4.82694 2.9269 0
M  V30 1026 N 99.0327 -1.24633 -0.964593 0
M  V30 1027 C 100.282 -1.08188 -1.7023 0
M  V30 1028 C 100.595 0.37873 -1.91898 0
M  V30 1029 O 101.801 0.663427 -2.6327 0
M  V30 1030 C 100.257 -1.88773 -3.06419 0
M  V30 1031 C 99.8647 -3.39263 -2.92582 0
M  V30 1032 C 101.609 -1.80867 -3.84041 0
M  V30 1033 C 99.5157 -4.1218 -4.24101 0
M  V30 1034 H 98.4457 -0.401245 -0.638372 0
M  V30 1035 H 101.097 -1.48742 -1.07462 0
M  V30 1036 H 99.4787 -1.41035 -3.70034 0
M  V30 1037 H 100.653 -3.94603 -2.37961 0
M  V30 1038 H 98.9677 -3.48154 -2.28424 0
M  V30 1039 H 101.565 -2.32646 -4.81435 0
M  V30 1040 H 101.908 -0.774543 -4.09031 0
M  V30 1041 H 102.441 -2.26301 -3.27159 0
M  V30 1042 H 99.1797 -5.15965 -4.04303 0
M  V30 1043 H 98.6997 -3.61626 -4.78526 0
M  V30 1044 H 100.379 -4.19349 -4.92702 0
M  V30 1045 N 100.511 1.16574 -1.06058 0
M  V30 1046 C 101.758 1.87047 -0.775873 0
M  V30 1047 C 102.086 1.81562 0.697534 0
M  V30 1048 O 101.341 1.22445 1.52662 0
M  V30 1049 C 101.64 3.36195 -1.21275 0
M  V30 1050 C 101.306 3.6188 -2.68986 0
M  V30 1051 C 99.9678 3.68599 -3.09335 0
M  V30 1052 C 102.32 3.72648 -3.64394 0
M  V30 1053 C 99.6478 3.83584 -4.43937 0
M  V30 1054 C 102 3.89154 -4.98741 0
M  V30 1055 C 100.664 3.94114 -5.3873 0
M  V30 1056 H 99.9338 0.684452 -0.283912 0
M  V30 1057 H 102.581 1.37853 -1.32925 0
M  V30 1058 H 100.886 3.87505 -0.578528 0
M  V30 1059 H 102.583 3.89103 -0.969542 0
M  V30 1060 H 99.1728 3.57281 -2.36744 0
M  V30 1061 H 103.357 3.66769 -3.34356 0
M  V30 1062 H 98.6128 3.85677 -4.74409 0
M  V30 1063 H 102.787 3.96427 -5.72554 0
M  V30 1064 H 100.414 4.05478 -6.43033 0
M  V30 1065 N 101.989 0.842826 1.3317 0
M  V30 1066 C 103.219 0.453397 2.01564 0
M  V30 1067 C 103.627 -0.951147 1.63554 0
M  V30 1068 O 102.97 -1.63021 0.846746 0
M  V30 1069 C 103.032 0.499013 3.5602 0
M  V30 1070 C 102.696 1.86037 4.1742 0
M  V30 1071 C 103.693 2.82416 4.36506 0
M  V30 1072 C 101.378 2.15428 4.53757 0
M  V30 1073 C 103.372 4.06346 4.91082 0
M  V30 1074 C 101.059 3.39615 5.0804 0
M  V30 1075 C 102.057 4.3489 5.26649 0
M  V30 1076 O 101.745 5.5688 5.79776 0
M  V30 1077 H 101.477 0.177871 0.652179 0
M  V30 1078 H 104.031 1.13808 1.70988 0
M  V30 1079 H 102.261 -0.242467 3.85939 0
M  V30 1080 H 103.95 0.126852 4.05702 0
M  V30 1081 H 104.716 2.6101 4.08777 0
M  V30 1082 H 100.595 1.42061 4.38565 0
M  V30 1083 H 104.139 4.80722 5.05522 0
M  V30 1084 H 100.036 3.60876 5.352 0
M  V30 1085 H 100.804 5.58674 5.98185 0
M  V30 1086 N 103.467 -1.45747 0.599634 0
M  V30 1087 C 104.43 -2.28917 -0.113835 0
M  V30 1088 C 105.43 -1.3933 -0.802729 0
M  V30 1089 O 106.62 -1.61534 -0.652103 0
M  V30 1090 C 103.752 -3.20152 -1.17114 0
M  V30 1091 H 104.945 -2.93478 0.617289 0
M  V30 1092 H 102.498 -1.52137 0.358327 0
M  V30 1093 H 103.233 -2.60374 -1.93329 0
M  V30 1094 H 103.018 -3.86133 -0.681468 0
M  V30 1095 H 104.508 -3.82708 -1.67105 0
M  V30 1096 N 104.945 -0.338344 -1.53925 0
M  V30 1097 C 106.185 0.260168 -2.02737 0
M  V30 1098 C 106.549 1.48181 -1.22092 0
M  V30 1099 O 107.75 2.15416 -1.60777 0
M  V30 1100 C 106.021 0.571627 -3.52799 0
M  V30 1101 S 107.58 1.14769 -4.23525 0
M  V30 1102 H 104.398 0.077791 -0.706732 0
M  V30 1103 H 107 -0.474899 -1.89644 0
M  V30 1104 H 105.704 -0.325392 -4.09108 0
M  V30 1105 H 105.235 1.3365 -3.70002 0
M  V30 1106 H 107.25 2.43372 -4.32417 0
M  V30 1107 N 106.423 1.57458 -0.0668435 0
M  V30 1108 C 107.353 2.15468 0.899764 0
M  V30 1109 C 108.334 1.08042 1.31381 0
M  V30 1110 O 109.519 1.36054 1.38574 0
M  V30 1111 C 106.649 2.71232 2.16911 0
M  V30 1112 C 105.603 3.83781 1.89463 0
M  V30 1113 C 104.929 4.26127 3.22986 0
M  V30 1114 C 106.229 5.08238 1.20381 0
M  V30 1115 H 107.923 2.96488 0.416529 0
M  V30 1116 H 105.469 1.4262 0.198908 0
M  V30 1117 H 107.422 3.10458 2.84945 0
M  V30 1118 H 106.146 1.87426 2.67468 0
M  V30 1119 H 104.805 3.45051 1.23836 0
M  V30 1120 H 104.453 3.39249 3.71374 0
M  V30 1121 H 104.153 5.01993 3.05413 0
M  V30 1122 H 105.677 4.67966 3.92225 0
M  V30 1123 H 107.091 5.44811 1.78475 0
M  V30 1124 H 105.488 5.89349 1.13083 0
M  V30 1125 H 106.558 4.84558 0.182153 0
M  V30 1126 N 107.901 -0.206675 1.56239 0
M  V30 1127 C 108.864 -1.23976 1.92776 0
M  V30 1128 C 109.864 -1.39041 0.807729 0
M  V30 1129 O 111.054 -1.37051 1.0753 0
M  V30 1130 C 108.186 -2.61112 2.19165 0
M  V30 1131 H 109.379 -0.927764 2.85189 0
M  V30 1132 H 106.932 -0.447718 1.4975 0
M  V30 1133 H 107.667 -2.97386 1.29352 0
M  V30 1134 H 107.452 -2.51552 3.00772 0
M  V30 1135 H 108.942 -3.35633 2.48476 0
M  V30 1136 N 109.379 -1.50304 -0.473955 0
M  V30 1137 C 110.627 -1.60832 -1.22382 0
M  V30 1138 C 110.948 -0.30939 -1.9253 0
M  V30 1139 O 110.218 0.67296 -1.83978 0
M  V30 1140 H 108.798 -0.592652 -0.454723 0
M  V30 1141 H 111.46 -1.87068 -0.546968 0
M  V30 1142 H 110.556 -2.41803 -1.97327 0
M  V30 1143 N 110.857 0.726932 -1.39834 0
M  V30 1144 C 112.105 1.4837 -1.37225 0
M  V30 1145 C 112.426 1.94979 0.0284857 0
M  V30 1146 O 111.696 1.69555 0.981213 0
M  V30 1147 H 110.276 0.55043 -0.505011 0
M  V30 1148 H 112.938 0.862468 -1.74778 0
M  V30 1149 H 112.034 2.36198 -2.04003 0
M  V30 1150 N 112.336 1.25143 0.95797 0
M  V30 1151 C 113.266 1.07711 2.07173 0
M  V30 1152 C 114.247 -0.0128462 1.70095 0
M  V30 1153 O 115.432 0.156061 1.93572 0
M  V30 1154 C 112.562 0.691503 3.40346 0
M  V30 1155 C 111.516 1.73132 3.9142 0
M  V30 1156 C 110.842 1.20049 5.21049 0
M  V30 1157 C 112.142 3.1294 4.1817 0
M  V30 1158 H 113.836 2.00873 2.22014 0
M  V30 1159 H 111.382 0.967191 1.06684 0
M  V30 1160 H 113.335 0.556505 4.17709 0
M  V30 1161 H 112.059 -0.275819 3.25433 0
M  V30 1162 H 110.718 1.8547 3.16222 0
M  V30 1163 H 110.366 0.223499 5.02503 0
M  V30 1164 H 110.066 1.89545 5.56189 0
M  V30 1165 H 111.59 1.07782 6.01012 0
M  V30 1166 H 113.004 3.03775 4.86203 0
M  V30 1167 H 111.401 3.79875 4.64559 0
M  V30 1168 H 112.471 3.6025 3.24573 0
M  V30 1169 N 113.814 -1.1601 1.06675 0
M  V30 1170 C 115.063 -1.85973 0.780818 0
M  V30 1171 C 115.376 -1.82819 -0.695444 0
M  V30 1172 O 116.582 -2.484 -1.09589 0
M  V30 1173 C 115.038 -3.33757 1.34665 0
M  V30 1174 C 114.646 -3.45374 2.85343 0
M  V30 1175 C 116.39 -4.0895 1.13843 0
M  V30 1176 C 114.297 -4.87266 3.35151 0
M  V30 1177 H 113.227 -0.696661 0.288407 0
M  V30 1178 H 115.878 -1.30903 1.28595 0
M  V30 1179 H 114.26 -3.88456 0.769274 0
M  V30 1180 H 115.434 -3.00816 3.49065 0
M  V30 1181 H 113.749 -2.83619 3.04876 0
M  V30 1182 H 116.346 -5.13654 1.4854 0
M  V30 1183 H 116.689 -4.16229 0.0770282 0
M  V30 1184 H 117.222 -3.605 1.68179 0
M  V30 1185 H 113.961 -4.85168 4.40786 0
M  V30 1186 H 113.481 -5.32433 2.76179 0
M  V30 1187 H 115.16 -5.56097 3.30704 0
M  V30 1188 N 115.292 -0.849877 -1.32721 0
M  V30 1189 C 116.222 -0.306308 -2.31482 0
M  V30 1190 C 117.203 0.591952 -1.59468 0
M  V30 1191 O 118.388 0.513199 -1.87296 0
M  V30 1192 C 115.518 0.510204 -3.43532 0
M  V30 1193 C 114.472 -0.293209 -4.26994 0
M  V30 1194 C 113.798 0.647743 -5.30762 0
M  V30 1195 C 115.098 -1.51634 -4.99804 0
M  V30 1196 H 116.792 -1.13153 -2.77195 0
M  V30 1197 H 114.338 -0.545553 -1.33266 0
M  V30 1198 H 116.291 0.900856 -4.11658 0
M  V30 1199 H 115.015 1.36874 -2.96535 0
M  V30 1200 H 113.674 -0.665555 -3.60508 0
M  V30 1201 H 113.322 1.50299 -4.8002 0
M  V30 1202 H 113.022 0.11422 -5.87489 0
M  V30 1203 H 114.546 1.03567 -6.01753 0
M  V30 1204 H 115.96 -1.19824 -5.60638 0
M  V30 1205 H 114.357 -1.98745 -5.66234 0
M  V30 1206 H 115.427 -2.28018 -4.27943 0
M  V30 1207 N 116.77 1.45427 -0.607355 0
M  V30 1208 C 117.733 2.28974 0.101693 0
M  V30 1209 C 118.733 1.39754 0.795329 0
M  V30 1210 O 119.923 1.61878 0.643527 0
M  V30 1211 C 117.055 3.20768 1.15414 0
M  V30 1212 H 118.248 2.93147 -0.632844 0
M  V30 1213 H 115.801 1.51945 -0.366391 0
M  V30 1214 H 116.536 2.61395 1.91945 0
M  V30 1215 H 116.321 3.86489 0.66098 0
M  V30 1216 H 117.811 3.83589 1.65073 0
M  V30 1217 N 118.248 0.346503 1.53744 0
M  V30 1218 C 119.478 -0.250047 2.05081 0
M  V30 1219 C 119.886 -1.44529 1.22098 0
M  V30 1220 O 119.229 -1.81992 0.249917 0
M  V30 1221 C 119.291 -0.725934 3.52094 0
M  V30 1222 C 118.955 0.350053 4.55657 0
M  V30 1223 C 119.952 1.19372 5.0601 0
M  V30 1224 C 117.637 0.504827 4.99757 0
M  V30 1225 C 119.631 2.17768 5.99046 0
M  V30 1226 C 117.318 1.49218 5.92602 0
M  V30 1227 C 118.316 2.32706 6.42135 0
M  V30 1228 O 118.004 3.2976 7.33153 0
M  V30 1229 H 117.736 -0.0515469 0.674032 0
M  V30 1230 H 120.29 0.497559 1.99282 0
M  V30 1231 H 118.52 -1.52483 3.55367 0
M  V30 1232 H 120.209 -1.24336 3.86388 0
M  V30 1233 H 120.975 1.08525 4.72702 0
M  V30 1234 H 116.854 -0.135178 4.60802 0
M  V30 1235 H 120.398 2.82971 6.37631 0
M  V30 1236 H 116.295 1.6012 6.25325 0
M  V30 1237 H 117.063 3.25265 7.51096 0
M  V30 1238 N 119.726 -1.57421 0.075193 0
M  V30 1239 C 120.954 -1.97946 -0.602076 0
M  V30 1240 C 121.369 -0.953674 -1.62943 0
M  V30 1241 O 120.726 0.0592551 -1.82404 0
M  V30 1242 C 120.777 -3.38546 -1.26762 0
M  V30 1243 O 120.498 -4.37195 -0.281376 0
M  V30 1244 C 121.999 -3.93966 -2.03239 0
M  V30 1245 H 119.219 -0.650918 -0.162931 0
M  V30 1246 H 121.763 -2.03959 0.148601 0
M  V30 1247 H 119.918 -3.33609 -1.96936 0
M  V30 1248 H 120.332 -5.18975 -0.759267 0
M  V30 1249 H 121.806 -4.94555 -2.45193 0
M  V30 1250 H 122.283 -3.30693 -2.8903 0
M  V30 1251 H 122.889 -4.02315 -1.37924 0
M  V30 1252 N 121.204 0.198386 -1.56346 0
M  V30 1253 C 122.62 0.549085 -1.49857 0
M  V30 1254 C 122.82 1.86016 -0.774611 0
M  V30 1255 O 121.876 2.50416 -0.323776 0
M  V30 1256 C 123.189 0.606868 -2.94512 0
M  V30 1257 C 124.737 0.695925 -3.05165 0
M  V30 1258 C 125.212 0.784848 -4.51225 0
M  V30 1259 N 126.703 0.848463 -4.55363 0
M  V30 1260 C 127.438 0.937378 -5.65686 0
M  V30 1261 N 126.934 0.9888 -6.85707 0
M  V30 1262 N 128.727 0.974312 -5.53592 0
M  V30 1263 H 120.878 -0.661655 -2.01831 0
M  V30 1264 H 123.141 -0.235261 -0.918344 0
M  V30 1265 H 122.847 -0.28732 -3.50524 0
M  V30 1266 H 122.721 1.46268 -3.47686 0
M  V30 1267 H 125.108 1.58055 -2.49204 0
M  V30 1268 H 125.189 -0.186022 -2.55123 0
M  V30 1269 H 124.833 -0.0954072 -5.0781 0
M  V30 1270 H 124.763 1.68255 -4.98997 0
M  V30 1271 H 127.254 0.818103 -3.68938 0
M  V30 1272 H 127.567 1.05707 -7.65536 0
M  V30 1273 H 125.912 0.957534 -6.88372 0
M  V30 1274 H 129.103 0.930954 -4.58749 0
M  V30 1275 H 129.276 1.04015 -6.39597 0
M  V30 1276 N 122.682 1.50554 0.465978 0
M  V30 1277 C 123.907 1.65838 1.24549 0
M  V30 1278 C 124.332 0.343486 1.84937 0
M  V30 1279 O 123.69 -0.69324 1.67523 0
M  V30 1280 C 123.738 2.75533 2.32624 0
M  V30 1281 O 122.842 2.37142 3.37398 0
M  V30 1282 H 122.183 0.553893 0.366194 0
M  V30 1283 H 124.713 1.96959 0.553927 0
M  V30 1284 H 124.723 2.98763 2.77857 0
M  V30 1285 H 123.398 3.70962 1.88043 0
M  V30 1286 H 121.975 2.24377 2.97841 0
M  V30 1287 N 124.16 -0.719506 1.40217 0
M  V30 1288 C 125.576 -1.02707 1.22161 0
M  V30 1289 C 125.776 -2.0128 0.0940557 0
M  V30 1290 O 124.832 -2.46452 -0.549318 0
M  V30 1291 C 126.145 -1.57454 2.56181 0
M  V30 1292 C 127.693 -1.69458 2.63159 0
M  V30 1293 C 128.168 -2.27611 3.97438 0
M  V30 1294 N 129.659 -2.35002 3.99159 0
M  V30 1295 C 130.394 -2.80972 4.99842 0
M  V30 1296 N 129.89 -3.26723 6.10921 0
M  V30 1297 N 131.683 -2.80321 4.87213 0
M  V30 1298 H 123.834 -0.0660492 2.12297 0
M  V30 1299 H 126.097 -0.0919077 0.943534 0
M  V30 1300 H 125.803 -0.924873 3.39321 0
M  V30 1301 H 125.677 -2.56036 2.76993 0
M  V30 1302 H 128.064 -2.33543 1.80393 0
M  V30 1303 H 128.145 -0.694867 2.46181 0
M  V30 1304 H 127.789 -1.6415 4.80643 0
M  V30 1305 H 127.719 -3.2829 4.11744 0
M  V30 1306 H 130.21 -2.02685 3.18947 0
M  V30 1307 H 130.523 -3.60355 6.8364 0
M  V30 1308 H 128.868 -3.24692 6.14492 0
M  V30 1309 H 132.059 -2.43912 3.9953 0
M  V30 1310 H 132.232 -3.15831 5.65822 0
M  V30 1311 N 125.638 -1.25649 -0.95132 0
M  V30 1312 C 126.585 -1.06323 -2.04851 0
M  V30 1313 C 127.555 0.0286491 -1.66075 0
M  V30 1314 O 128.74 -0.12917 -1.90362 0
M  V30 1315 C 125.88 -0.691529 -3.381 0
M  V30 1316 C 124.993 -1.85861 -3.89974 0
M  V30 1317 C 124.128 -1.43096 -5.11563 0
M  V30 1318 C 123.167 -2.56696 -5.55674 0
M  V30 1319 N 122.304 -2.14684 -6.68472 0
M  V30 1320 H 127.144 -2.00222 -2.20715 0
M  V30 1321 H 124.681 -0.997027 -1.08156 0
M  V30 1322 H 126.639 -0.456963 -4.1469 0
M  V30 1323 H 125.269 0.210474 -3.22113 0
M  V30 1324 H 124.321 -2.20639 -3.09875 0
M  V30 1325 H 125.633 -2.71161 -4.18657 0
M  V30 1326 H 124.787 -1.15624 -5.9558 0
M  V30 1327 H 123.526 -0.548722 -4.84603 0
M  V30 1328 H 122.531 -2.84909 -4.7022 0
M  V30 1329 H 123.756 -3.45503 -5.8464 0
M  V30 1330 H 121.702 -1.28881 -6.43215 0
M  V30 1331 H 121.619 -2.9353 -6.96689 0
M  V30 1332 H 122.887 -1.90397 -7.5589 0
M  V30 1333 N 127.117 1.15442 -1.07289 0
M  V30 1334 C 128.047 2.22312 -0.714107 0
M  V30 1335 C 129.028 1.67467 0.298155 0
M  V30 1336 O 130.213 1.93445 0.171048 0
M  V30 1337 C 127.343 3.47124 -0.110448 0
M  V30 1338 C 126.297 4.14926 -1.04979 0
M  V30 1339 C 125.623 5.33807 -0.308924 0
M  V30 1340 C 126.923 4.64762 -2.38314 0
M  V30 1341 H 128.617 2.5258 -1.6076 0
M  V30 1342 H 126.163 1.21404 -0.77441 0
M  V30 1343 H 128.116 4.21124 0.152482 0
M  V30 1344 H 126.84 3.16187 0.81812 0
M  V30 1345 H 125.499 3.42866 -1.29764 0
M  V30 1346 H 125.147 4.99126 0.623084 0
M  V30 1347 H 124.847 5.80113 -0.935036 0
M  V30 1348 H 126.371 6.10576 -0.0537771 0
M  V30 1349 H 127.785 5.30292 -2.1786 0
M  V30 1350 H 126.182 5.21728 -2.96514 0
M  V30 1351 H 127.252 3.80434 -3.00663 0
M  V30 1352 N 128.595 0.856903 1.32268 0
M  V30 1353 C 129.841 0.462069 1.97466 0
M  V30 1354 C 130.174 -0.980298 1.67642 0
M  V30 1355 O 129.449 -1.68824 0.965858 0
M  V30 1356 C 129.732 0.704336 3.53145 0
M  V30 1357 C 129.585 2.19529 3.9259 0
M  V30 1358 C 130.904 0.1622 4.39801 0
M  V30 1359 H 128.023 0.169357 0.717278 0
M  V30 1360 H 130.665 1.07574 1.56614 0
M  V30 1361 H 128.815 0.181999 3.88073 0
M  V30 1362 H 130.487 2.78387 3.67829 0
M  V30 1363 H 128.73 2.67292 3.41668 0
M  V30 1364 H 129.401 2.31549 5.01088 0
M  V30 1365 H 131.877 0.608905 4.11621 0
M  V30 1366 H 130.753 0.361265 5.4771 0
M  V30 1367 H 131.014 -0.935158 4.32096 0
M  V30 1368 N 130.073 -1.45103 0.615059 0
M  V30 1369 C 130.983 -2.34382 -0.101034 0
M  V30 1370 C 131.999 -1.51681 -0.852585 0
M  V30 1371 O 133.175 -1.8446 -0.808484 0
M  V30 1372 C 130.24 -3.29417 -1.08099 0
M  V30 1373 C 129.301 -4.28025 -0.330577 0
M  V30 1374 C 128.534 -5.1852 -1.26385 0
M  V30 1375 O 128.757 -5.12598 -2.50198 0
M  V30 1376 O 127.691 -5.97122 -0.756866 0
M  V30 1377 H 131.517 -2.97033 0.632855 0
M  V30 1378 H 129.102 -1.4461 0.375293 0
M  V30 1379 H 130.984 -3.87958 -1.6452 0
M  V30 1380 H 129.659 -2.69321 -1.79577 0
M  V30 1381 H 128.566 -3.73078 0.276283 0
M  V30 1382 H 129.899 -4.90997 0.343866 0
M  V30 1383 N 131.551 -0.354651 -1.53558 0
M  V30 1384 C 132.514 0.484566 -2.24019 0
M  V30 1385 C 133.514 1.01861 -1.24422 0
M  V30 1386 O 134.704 0.906097 -1.4878 0
M  V30 1387 C 131.836 1.67615 -2.96847 0
M  V30 1388 H 133.029 -0.131843 -2.9961 0
M  V30 1389 H 130.582 -0.106165 -1.55939 0
M  V30 1390 H 131.317 2.33095 -2.25471 0
M  V30 1391 H 131.102 1.30029 -3.69912 0
M  V30 1392 H 132.592 2.27114 -3.50441 0
M  V30 1393 N 133.029 1.57378 -0.0835403 0
M  V30 1394 C 133.976 2.13384 0.879539 0
M  V30 1395 C 134.946 1.04936 1.28754 0
M  V30 1396 O 136.131 1.32662 1.37133 0
M  V30 1397 C 133.271 2.70932 2.13752 0
M  V30 1398 C 132.384 3.93575 1.7811 0
M  V30 1399 C 131.519 4.39326 2.98607 0
M  V30 1400 C 130.558 5.54587 2.59037 0
M  V30 1401 N 129.695 5.95243 3.72331 0
M  V30 1402 H 134.535 2.9537 0.395076 0
M  V30 1403 H 132.072 1.45953 0.183349 0
M  V30 1404 H 134.03 3.02411 2.87408 0
M  V30 1405 H 132.66 1.91693 2.59718 0
M  V30 1406 H 131.712 3.68483 0.94469 0
M  V30 1407 H 133.024 4.77258 1.45005 0
M  V30 1408 H 132.178 4.72528 3.80529 0
M  V30 1409 H 130.917 3.5452 3.34913 0
M  V30 1410 H 129.922 5.21024 1.75539 0
M  V30 1411 H 131.147 6.41133 2.23887 0
M  V30 1412 H 129.093 5.13385 4.08378 0
M  V30 1413 H 129.01 6.73694 3.43034 0
M  V30 1414 H 130.278 6.33072 4.54797 0
M  V30 1415 N 134.507 -0.190092 1.56449 0
M  V30 1416 C 135.784 -0.935886 1.71757 0
M  V30 1417 C 136.164 -2.01173 0.639726 0
M  V30 1418 O 135.512 -2.25827 -0.348502 0
M  V30 1419 C 135.722 -1.51775 3.1427 0
M  V30 1420 C 137.07 -1.99794 3.74656 0
M  V30 1421 O 138.094 -1.61607 3.1743 0
M  V30 1422 O 136.953 -2.70079 4.751 0
M  V30 1423 H 134.047 -0.439229 0.700719 0
M  V30 1424 H 136.593 -0.179395 1.68749 0
M  V30 1425 H 135.365 -0.742505 3.84191 0
M  V30 1426 H 134.988 -2.33894 3.21527 0
M  V30 1427 N 135.985 -1.50799 -0.457987 0
M  V30 1428 C 136.895 -1.73426 -1.57989 0
M  V30 1429 C 137.911 -0.617745 -1.62665 0
M  V30 1430 O 139.087 -0.897614 -1.80291 0
M  V30 1431 C 136.152 -1.83557 -2.94122 0
M  V30 1432 C 135.213 -3.07345 -2.99729 0
M  V30 1433 C 134.446 -3.16983 -4.29368 0
M  V30 1434 O 134.669 -2.33077 -5.20607 0
M  V30 1435 O 133.603 -4.09812 -4.40837 0
M  V30 1436 H 137.429 -2.68555 -1.41817 0
M  V30 1437 H 135.014 -1.35052 -0.638859 0
M  V30 1438 H 136.896 -1.92326 -3.74952 0
M  V30 1439 H 135.571 -0.916137 -3.10465 0
M  V30 1440 H 134.478 -3.04068 -2.1793 0
M  V30 1441 H 135.811 -3.9891 -2.88326 0
M  V30 1442 N 137.463 0.71206 -1.40597 0
M  V30 1443 C 138.874 1.29135 -1.34837 0
M  V30 1444 C 139.225 1.96186 -0.0235395 0
M  V30 1445 O 138.35 1.97768 0.878444 0
M  V30 1446 C 138.945 2.34827 -2.44217 0
M  V30 1447 C 137.504 2.88371 -2.41907 0
M  V30 1448 C 136.651 1.62202 -2.24913 0
M  V30 1449 H 139.602 0.507944 -1.50352 0
M  V30 1450 H 139.623 3.15749 -2.12327 0
M  V30 1451 H 139.135 1.85996 -3.40627 0
M  V30 1452 H 137.236 3.41422 -1.49204 0
M  V30 1453 H 137.349 3.39925 -3.37621 0
M  V30 1454 H 135.713 1.874 -1.72492 0
M  V30 1455 H 136.496 1.15391 -3.23326 0
M  V30 1456 N 138.941 1.26152 0.944643 0
M  V30 1457 C 140.166 1.14363 1.7302 0
M  V30 1458 C 140.591 -0.29772 1.85729 0
M  V30 1459 O 139.949 -1.2157 1.34501 0
M  V30 1460 C 139.997 1.81378 3.11664 0
M  V30 1461 O 139.101 1.10022 3.97453 0
M  V30 1462 H 138.442 0.398694 0.53098 0
M  V30 1463 H 140.972 1.66906 1.18337 0
M  V30 1464 H 140.982 1.88064 3.62072 0
M  V30 1465 H 139.657 2.86237 3.0173 0
M  V30 1466 H 138.234 1.11287 3.55907 0
M  V30 1467 N 140.419 -1.14872 1.07899 0
M  V30 1468 C 141.351 -2.19425 0.662231 0
M  V30 1469 C 142.364 -1.60231 -0.288079 0
M  V30 1470 O 143.553 -1.78336 -0.076534 0
M  V30 1471 C 140.653 -3.38867 -0.0470695 0
M  V30 1472 C 139.826 -4.27597 0.920831 0
M  V30 1473 C 138.885 -5.25616 0.247805 0
M  V30 1474 O 137.911 -5.62189 0.890599 0
M  V30 1475 N 139.113 -5.71746 -1.00435 0
M  V30 1476 H 141.878 -2.55797 1.56166 0
M  V30 1477 H 139.439 -1.30042 0.964404 0
M  V30 1478 H 141.431 -4.01497 -0.50813 0
M  V30 1479 H 140.001 -3.00864 -0.848523 0
M  V30 1480 H 139.221 -3.61982 1.56087 0
M  V30 1481 H 140.509 -4.83748 1.57688 0
M  V30 1482 H 139.907 -5.44153 -1.54642 0
M  V30 1483 H 138.464 -6.36389 -1.40899 0
M  V30 1484 N 141.898 -0.863906 -1.31812 0
M  V30 1485 C 142.861 -0.320212 -2.26952 0
M  V30 1486 C 143.861 0.525369 -1.51975 0
M  V30 1487 O 145.051 0.335547 -1.70938 0
M  V30 1488 C 142.183 0.545919 -3.365 0
M  V30 1489 H 143.376 -1.16004 -2.76556 0
M  V30 1490 H 140.929 -0.638995 -1.42641 0
M  V30 1491 H 141.664 1.40718 -2.92179 0
M  V30 1492 H 141.449 -0.0594674 -3.92055 0
M  V30 1493 H 142.939 0.918796 -4.07367 0
M  V30 1494 N 143.376 1.44774 -0.622745 0
M  V30 1495 C 144.616 2.04004 -0.127102 0
M  V30 1496 C 144.98 1.47862 1.22478 0
M  V30 1497 O 146.181 1.98541 1.81204 0
M  V30 1498 C 144.452 3.57247 -0.104429 0
M  V30 1499 S 146.011 4.37574 0.327814 0
M  V30 1500 H 142.829 0.708713 -0.0569776 0
M  V30 1501 H 145.431 1.77275 -0.824253 0
M  V30 1502 H 144.135 3.95616 -1.09159 0
M  V30 1503 H 143.666 3.88575 0.614236 0
M  V30 1504 H 145.681 4.70575 1.57395 0
M  V30 1505 N 144.854 0.36279 1.53368 0
M  V30 1506 C 145.817 -0.472679 2.24273 0
M  V30 1507 C 146.817 -1.012 1.24961 0
M  V30 1508 O 148.007 -0.898194 1.49259 0
M  V30 1509 C 145.139 -1.66039 2.97731 0
M  V30 1510 H 146.332 0.14773 2.99536 0
M  V30 1511 H 143.885 0.114434 1.55881 0
M  V30 1512 H 144.62 -2.31896 2.26704 0
M  V30 1513 H 144.405 -1.28066 3.70596 0
M  V30 1514 H 145.895 -2.25252 3.51641 0
M  V30 1515 N 146.332 -1.57332 0.0918853 0
M  V30 1516 C 147.242 -2.17368 -0.882505 0
M  V30 1517 C 148.258 -1.14226 -1.31257 0
M  V30 1518 O 149.434 -1.46582 -1.38115 0
M  V30 1519 C 146.499 -2.73962 -2.12476 0
M  V30 1520 C 145.56 -3.92048 -1.7492 0
M  V30 1521 C 144.793 -4.45933 -2.93223 0
M  V30 1522 O 145.016 -3.98764 -4.07852 0
M  V30 1523 O 143.95 -5.36999 -2.71875 0
M  V30 1524 H 147.776 -3.01031 -0.40172 0
M  V30 1525 H 145.361 -1.48813 -0.132291 0
M  V30 1526 H 147.243 -3.10147 -2.85283 0
M  V30 1527 H 145.918 -1.93347 -2.59613 0
M  V30 1528 H 144.825 -3.6068 -0.993025 0
M  V30 1529 H 146.158 -4.74017 -1.32548 0
M  V30 1530 N 147.81 0.181792 -1.56548 0
M  V30 1531 C 148.76 1.22961 -1.92002 0
M  V30 1532 C 149.744 1.40331 -0.787146 0
M  V30 1533 O 150.936 1.42478 -1.05019 0
M  V30 1534 C 148.065 2.57144 -2.27446 0
M  V30 1535 C 147.151 2.43512 -3.47222 0
M  V30 1536 N 147.542 1.99577 -4.64761 0
M  V30 1537 C 145.84 2.74368 -3.51622 0
M  V30 1538 C 146.541 1.98156 -5.46909 0
M  V30 1539 N 145.517 2.40164 -4.8767 0
M  V30 1540 H 149.319 0.881462 -2.8037 0
M  V30 1541 H 146.833 0.390141 -1.57644 0
M  V30 1542 H 148.83 3.32847 -2.51035 0
M  V30 1543 H 147.49 2.92771 -1.40411 0
M  V30 1544 H 148.501 1.70078 -4.89177 0
M  V30 1545 H 145.178 3.14102 -2.75038 0
M  V30 1546 H 146.568 1.65975 -6.51077 0
M  V30 1547 N 149.288 1.51039 0.449983 0
M  V30 1548 C 150.198 1.74261 1.57067 0
M  V30 1549 C 151.214 0.626363 1.62335 0
M  V30 1550 O 152.39 0.907162 1.79812 0
M  V30 1551 C 149.455 1.85114 2.93144 0
M  V30 1552 C 148.516 3.0893 2.98095 0
M  V30 1553 C 147.749 3.19256 4.27681 0
M  V30 1554 O 147.972 2.35835 5.19363 0
M  V30 1555 O 146.906 4.12144 4.38658 0
M  V30 1556 H 150.732 2.69303 1.40391 0
M  V30 1557 H 148.317 1.35389 0.631688 0
M  V30 1558 H 150.199 1.94311 3.73926 0
M  V30 1559 H 148.874 0.932588 3.09975 0
M  V30 1560 H 147.781 3.0522 2.16314 0
M  V30 1561 H 149.114 4.00433 2.86206 0
M  V30 1562 N 150.766 -0.704594 1.40972 0
M  V30 1563 C 152.012 -1.46546 1.41053 0
M  V30 1564 C 152.367 -1.92393 0.0159714 0
M  V30 1565 O 151.66 -1.66017 -0.956506 0
M  V30 1566 C 151.854 -2.698 2.34399 0
M  V30 1567 C 151.683 -2.36008 3.82793 0
M  V30 1568 C 150.453 -2.26812 4.51536 0
M  V30 1569 C 152.651 -1.99565 4.74003 0
M  V30 1570 N 150.633 -1.8581 5.85105 0
M  V30 1571 C 152.004 -1.69251 5.96451 0
M  V30 1572 C 154.059 -1.86296 4.61734 0
M  V30 1573 C 152.762 -1.27003 7.07999 0
M  V30 1574 C 154.788 -1.45452 5.73234 0
M  V30 1575 C 154.15 -1.16043 6.94776 0
M  V30 1576 H 150.249 -0.533896 0.571383 0
M  V30 1577 H 152.833 -0.816061 1.76773 0
M  V30 1578 H 151.004 -3.32473 2.00789 0
M  V30 1579 H 152.736 -3.36214 2.25261 0
M  V30 1580 H 149.491 -2.44913 4.05357 0
M  V30 1581 H 149.915 -1.67817 6.55871 0
M  V30 1582 H 154.557 -2.0769 3.68273 0
M  V30 1583 H 152.275 -1.04353 8.01334 0
M  V30 1584 H 155.861 -1.35748 5.65742 0
M  V30 1585 H 154.741 -0.84915 7.79589 0
M  V30 1586 N 152.244 -1.26651 -0.937939 0
M  V30 1587 C 153.207 -1.08546 -2.01867 0
M  V30 1588 C 154.207 -0.0327327 -1.60767 0
M  V30 1589 O 155.397 -0.276427 -1.71993 0
M  V30 1590 C 152.529 -0.651711 -3.34613 0
M  V30 1591 H 153.722 -2.04502 -2.1936 0
M  V30 1592 H 151.275 -1.09294 -1.11734 0
M  V30 1593 H 152.01 0.309696 -3.22818 0
M  V30 1594 H 151.795 -1.41189 -3.65798 0
M  V30 1595 H 153.285 -0.546973 -4.14002 0
M  V30 1596 N 153.722 1.14298 -1.08507 0
M  V30 1597 C 155.133 1.66926 -0.836227 0
M  V30 1598 C 155.484 1.85576 0.63686 0
M  V30 1599 O 154.609 1.56767 1.49175 0
M  V30 1600 C 155.204 3.03219 -1.51142 0
M  V30 1601 C 153.763 3.52876 -1.30979 0
M  V30 1602 C 152.91 2.2833 -1.57356 0
M  V30 1603 H 155.861 0.983491 -1.24552 0
M  V30 1604 H 155.882 3.68726 -0.939211 0
M  V30 1605 H 155.394 2.89612 -2.58353 0
M  V30 1606 H 153.495 3.71703 -0.258429 0
M  V30 1607 H 153.608 4.33586 -2.03814 0
M  V30 1608 H 151.972 2.34454 -0.995164 0
M  V30 1609 H 152.755 2.17298 -2.65775 0
M  V30 1610 N 155.201 0.870884 1.31352 0
M  V30 1611 C 156.449 0.48132 1.96285 0
M  V30 1612 C 156.77 -0.969813 1.69173 0
M  V30 1613 O 156.04 -1.67998 1.00764 0
M  V30 1614 H 154.62 0.175002 0.726212 0
M  V30 1615 H 157.282 1.11087 1.60143 0
M  V30 1616 H 156.378 0.639825 3.05471 0
M  V30 1617 N 156.679 -1.44442 0.630414 0
M  V30 1618 C 157.927 -2.01653 0.134351 0
M  V30 1619 C 158.248 -1.49836 -1.24796 0
M  V30 1620 O 157.518 -0.701684 -1.82902 0
M  V30 1621 H 156.098 -0.74554 0.0466769 0
M  V30 1622 H 158.76 -1.76952 0.816955 0
M  V30 1623 H 157.856 -3.11935 0.101498 0
M  V30 1624 N 158.157 -0.370918 -1.53173 0
M  V30 1625 C 159.12 0.460778 -2.24521 0
M  V30 1626 C 160.12 1.00536 -1.25496 0
M  V30 1627 O 161.31 0.890266 -1.49733 0
M  V30 1628 C 158.442 1.64457 -2.98608 0
M  V30 1629 H 159.635 -0.163613 -2.99453 0
M  V30 1630 H 157.188 -0.122699 -1.55818 0
M  V30 1631 H 157.923 2.30691 -2.2793 0
M  V30 1632 H 157.708 1.26099 -3.7127 0
M  V30 1633 H 159.198 2.23384 -3.5283 0
M  V30 1634 N 159.635 1.57281 -0.100228 0
M  V30 1635 C 160.565 2.17328 0.853857 0
M  V30 1636 C 161.546 1.10804 1.2906 0
M  V30 1637 O 162.731 1.38963 1.35657 0
M  V30 1638 C 159.861 2.75772 2.11109 0
M  V30 1639 C 158.815 3.87713 1.81279 0
M  V30 1640 C 158.141 4.32882 3.13874 0
M  V30 1641 C 159.441 5.10677 1.09574 0
M  V30 1642 H 161.135 2.97305 0.353545 0
M  V30 1643 H 158.681 1.43009 0.168612 0
M  V30 1644 H 160.634 3.16433 2.78296 0
M  V30 1645 H 159.358 1.93057 2.63432 0
M  V30 1646 H 158.017 3.476 1.16489 0
M  V30 1647 H 157.665 3.47051 3.64095 0
M  V30 1648 H 157.365 5.08358 2.94696 0
M  V30 1649 H 158.889 4.7618 3.82211 0
M  V30 1650 H 160.303 5.48474 1.66879 0
M  V30 1651 H 158.7 5.91615 1.00557 0
M  V30 1652 H 159.77 4.84835 0.0793299 0
M  V30 1653 N 161.113 -0.173488 1.56642 0
M  V30 1654 C 162.341 -0.906095 1.86004 0
M  V30 1655 C 162.756 -1.75921 0.685355 0
M  V30 1656 O 162.113 -1.79198 -0.345578 0
M  V30 1657 C 162.164 -1.78462 3.14378 0
M  V30 1658 O 161.885 -0.965914 4.27319 0
M  V30 1659 C 163.386 -2.62707 3.57071 0
M  V30 1660 H 160.606 -0.263341 0.617165 0
M  V30 1661 H 163.15 -0.174236 2.03756 0
M  V30 1662 H 161.305 -2.46984 2.98459 0
M  V30 1663 H 161.719 -1.56655 5.00559 0
M  V30 1664 H 163.193 -3.19969 4.49804 0
M  V30 1665 H 163.67 -3.37472 2.81086 0
M  V30 1666 H 164.276 -1.99521 3.75595 0
M  V30 1667 N 162.591 -1.51276 -0.441967 0
M  V30 1668 C 163.554 -1.7167 -1.51862 0
M  V30 1669 C 164.554 -0.586793 -1.49711 0
M  V30 1670 O 165.744 -0.854276 -1.51815 0
M  V30 1671 C 162.876 -1.76889 -2.91416 0
M  V30 1672 H 164.069 -2.67754 -1.35084 0
M  V30 1673 H 161.622 -1.41196 -0.670333 0
M  V30 1674 H 162.357 -0.826026 -3.13604 0
M  V30 1675 H 162.142 -2.59001 -2.94382 0
M  V30 1676 H 163.632 -1.94522 -3.69528 0
M  V30 1677 N 164.069 0.697108 -1.41344 0
M  V30 1678 C 165.346 1.45154 -1.31109 0
M  V30 1679 C 165.726 2.11009 0.0620449 0
M  V30 1680 O 165.074 2.01571 1.07618 0
M  V30 1681 C 165.284 2.47223 -2.46337 0
M  V30 1682 C 166.632 3.1252 -2.87431 0
M  V30 1683 O 167.656 2.57547 -2.46065 0
M  V30 1684 O 166.515 4.12083 -3.58957 0
M  V30 1685 H 163.609 0.646365 -0.515889 0
M  V30 1686 H 166.155 0.727716 -1.53305 0
M  V30 1687 H 164.927 1.97204 -3.37974 0
M  V30 1688 H 164.55 3.27116 -2.2601 0
M  V30 1689 N 165.547 1.27147 0.931209 0
M  V30 1690 C 166.51 1.09615 2.01289 0
M  V30 1691 C 167.51 0.0412581 1.60747 0
M  V30 1692 O 168.7 0.285545 1.71844 0
M  V30 1693 C 165.832 0.669447 3.34262 0
M  V30 1694 H 167.025 2.05662 2.18273 0
M  V30 1695 H 164.578 1.09885 1.11153 0
M  V30 1696 H 165.313 -0.292572 3.22978 0
M  V30 1697 H 165.098 1.43127 3.65044 0
M  V30 1698 H 166.588 0.568921 4.13706 0
M  V30 1699 N 167.025 -1.13721 1.09112 0
M  V30 1700 C 167.935 -2.22638 0.73957 0
M  V30 1701 C 168.951 -1.72091 -0.257068 0
M  V30 1702 O 170.127 -2.01155 -0.0992154 0
M  V30 1703 C 167.192 -3.46322 0.16191 0
M  V30 1704 C 166.253 -4.11775 1.21408 0
M  V30 1705 C 165.486 -5.29555 0.663891 0
M  V30 1706 O 165.709 -5.68077 -0.514274 0
M  V30 1707 O 164.643 -5.84973 1.41738 0
M  V30 1708 H 168.469 -2.55074 1.64836 0
M  V30 1709 H 166.054 -1.21791 0.865289 0
M  V30 1710 H 167.936 -4.21107 -0.157073 0
M  V30 1711 H 166.611 -3.15593 -0.719932 0
M  V30 1712 H 165.518 -3.3883 1.58571 0
M  V30 1713 H 166.851 -4.46627 2.06845 0
M  V30 1714 N 168.503 -0.877838 -1.30888 0
M  V30 1715 C 169.466 -0.344265 -2.266 0
M  V30 1716 C 170.466 0.50922 -1.52524 0
M  V30 1717 O 171.656 0.317398 -1.71284 0
M  V30 1718 C 168.788 0.510198 -3.37061 0
M  V30 1719 H 169.981 -1.1893 -2.7531 0
M  V30 1720 H 167.534 -0.654088 -1.41956 0
M  V30 1721 H 168.269 1.37612 -2.93655 0
M  V30 1722 H 168.054 -0.101047 -3.9197 0
M  V30 1723 H 169.544 0.875537 -4.08319 0
M  V30 1724 N 169.982 1.44106 -0.638065 0
M  V30 1725 C 170.945 2.29138 0.0531013 0
M  V30 1726 C 171.945 1.41409 0.765506 0
M  V30 1727 O 173.135 1.63206 0.609046 0
M  V30 1728 C 170.267 3.23144 1.08584 0
M  V30 1729 H 171.46 2.91739 -0.694883 0
M  V30 1730 H 169.013 1.51134 -0.398538 0
M  V30 1731 H 169.748 2.65408 1.86357 0
M  V30 1732 H 169.533 3.87804 0.578852 0
M  V30 1733 H 171.023 3.87004 1.56899 0
M  V30 1734 N 171.46 0.379036 1.52974 0
M  V30 1735 C 172.423 -0.448865 2.24762 0
M  V30 1736 C 173.423 -0.998689 1.26027 0
M  V30 1737 O 174.613 -0.882313 1.50203 0
M  V30 1738 C 171.745 -1.62872 2.99476 0
M  V30 1739 H 172.938 0.179491 2.99362 0
M  V30 1740 H 170.491 0.13096 1.5575 0
M  V30 1741 H 171.226 -2.29479 2.29151 0
M  V30 1742 H 171.011 -1.24128 3.71934 0
M  V30 1743 H 172.501 -2.2151 3.5401 0
M  V30 1744 N 172.938 -1.57226 0.108567 0
M  V30 1745 C 174.186 -1.94448 -0.550853 0
M  V30 1746 C 174.507 -0.992074 -1.67878 0
M  V30 1747 O 173.777 -0.0465 -1.95845 0
M  V30 1748 H 172.357 -0.717897 -0.206479 0
M  V30 1749 H 175.019 -1.94112 0.175062 0
M  V30 1750 H 174.115 -2.97218 -0.952259 0
M  V30 1751 N 174.416 0.165178 -1.56732 0
M  V30 1752 C 175.641 0.900253 -1.86843 0
M  V30 1753 C 176.066 1.74766 -0.695596 0
M  V30 1754 O 175.424 1.77786 0.35522 0
M  V30 1755 C 175.472 1.74777 -3.15413 0
M  V30 1756 O 174.576 2.85007 -2.98068 0
M  V30 1757 H 173.917 0.251832 -0.614391 0
M  V30 1758 H 176.447 0.161468 -2.03962 0
M  V30 1759 H 176.457 2.14646 -3.46974 0
M  V30 1760 H 175.132 1.12537 -4.00385 0
M  V30 1761 H 173.709 2.48676 -2.77875 0
M  V30 1762 N 175.894 1.51508 0.433938 0
M  V30 1763 C 176.826 1.69266 1.54537 0
M  V30 1764 C 177.839 0.573276 1.52373 0
M  V30 1765 O 179.028 0.847698 1.57087 0
M  V30 1766 C 176.128 1.69524 2.93453 0
M  V30 1767 C 175.301 2.98101 3.20085 0
M  V30 1768 C 174.36 2.90502 4.38742 0
M  V30 1769 O 173.386 3.64442 4.3723 0
M  V30 1770 N 174.588 2.06586 5.42496 0
M  V30 1771 H 177.353 2.65145 1.39708 0
M  V30 1772 H 174.914 1.49437 0.622922 0
M  V30 1773 H 176.906 1.62004 3.70859 0
M  V30 1774 H 175.476 0.812245 3.01863 0
M  V30 1775 H 174.696 3.19464 2.30947 0
M  V30 1776 H 175.984 3.83207 3.34708 0
M  V30 1777 H 175.382 1.45896 5.46563 0
M  V30 1778 H 173.939 2.04943 6.18742 0
M  V30 1779 N 177.372 -0.689602 1.41712 0
M  V30 1780 C 178.335 -1.78521 1.43746 0
M  V30 1781 C 179.335 -1.57436 0.327191 0
M  V30 1782 O 180.525 -1.64 0.587348 0
M  V30 1783 C 177.657 -3.16971 1.25467 0
M  V30 1784 H 178.85 -1.78108 2.41283 0
M  V30 1785 H 176.403 -0.89781 1.27942 0
M  V30 1786 H 177.138 -3.23019 0.287948 0
M  V30 1787 H 176.923 -3.33678 2.05917 0
M  V30 1788 H 178.413 -3.96935 1.2974 0
M  V30 1789 N 178.85 -1.27639 -0.924453 0
M  V30 1790 C 179.76 -1.12466 -2.05885 0
M  V30 1791 C 180.776 -0.053869 -1.73917 0
M  V30 1792 O 181.952 -0.261012 -1.99702 0
M  V30 1793 C 179.017 -0.776768 -3.37886 0
M  V30 1794 C 178.078 -1.92878 -3.83532 0
M  V30 1795 C 177.311 -1.59739 -5.09234 0
M  V30 1796 O 177.534 -0.506782 -5.68144 0
M  V30 1797 O 176.468 -2.43761 -5.50331 0
M  V30 1798 H 180.294 -2.07671 -2.21599 0
M  V30 1799 H 177.879 -1.06857 -1.04413 0
M  V30 1800 H 179.761 -0.596229 -4.17161 0
M  V30 1801 H 178.436 0.145732 -3.23372 0
M  V30 1802 H 177.343 -2.1644 -3.0513 0
M  V30 1803 H 178.676 -2.8316 -4.02593 0
M  V30 1804 N 180.328 1.1314 -1.09713 0
M  V30 1805 C 181.576 1.84119 -0.833338 0
M  V30 1806 C 181.897 1.84097 0.642904 0
M  V30 1807 O 181.167 1.29881 1.46655 0
M  V30 1808 H 179.747 0.681766 -0.305293 0
M  V30 1809 H 182.409 1.37038 -1.38588 0
M  V30 1810 H 181.505 2.88543 -1.18951 0
M  V30 1811 N 181.806 0.884767 1.30421 0
M  V30 1812 C 183.222 0.57874 1.48737 0
M  V30 1813 C 183.422 -0.883567 1.81095 0
M  V30 1814 O 182.478 -1.6648 1.89844 0
M  V30 1815 C 183.791 1.49171 2.61091 0
M  V30 1816 C 185.339 1.49532 2.74971 0
M  V30 1817 C 185.814 2.39421 3.90438 0
M  V30 1818 N 187.305 2.37383 3.97748 0
M  V30 1819 C 188.04 3.03647 4.86401 0
M  V30 1820 N 187.536 3.79136 5.79852 0
M  V30 1821 N 189.329 2.9288 4.79768 0
M  V30 1822 H 181.48 1.83075 1.0769 0
M  V30 1823 H 183.743 0.783637 0.533495 0
M  V30 1824 H 183.449 2.53291 2.44001 0
M  V30 1825 H 183.323 1.20113 3.57565 0
M  V30 1826 H 185.71 0.46163 2.91467 0
M  V30 1827 H 185.791 1.8262 1.79119 0
M  V30 1828 H 185.435 3.42874 3.74699 0
M  V30 1829 H 185.365 2.03649 4.85628 0
M  V30 1830 H 187.856 1.82525 3.30897 0
M  V30 1831 H 188.169 4.26789 6.4426 0
M  V30 1832 H 186.514 3.83243 5.79784 0
M  V30 1833 H 189.705 2.33433 4.05742 0
M  V30 1834 H 189.878 3.448 5.4865 0
M  V30 1835 N 183.284 -1.43765 0.645699 0
M  V30 1836 C 184.7 -1.56509 0.312591 0
M  V30 1837 C 184.9 -1.6307 -1.18365 0
M  V30 1838 O 183.956 -1.58167 -1.96824 0
M  V30 1839 C 185.269 -2.82968 1.01733 0
M  V30 1840 C 186.817 -2.96701 0.996865 0
M  V30 1841 C 187.292 -4.25982 1.68236 0
M  V30 1842 N 188.783 -4.32829 1.64964 0
M  V30 1843 C 189.518 -5.31613 2.14885 0
M  V30 1844 N 189.014 -6.36718 2.73061 0
M  V30 1845 N 190.807 -5.23217 2.05428 0
M  V30 1846 H 182.958 -1.3775 1.61675 0
M  V30 1847 H 185.221 -0.661067 0.679481 0
M  V30 1848 H 184.927 -2.84156 2.0724 0
M  V30 1849 H 184.801 -3.72957 0.564177 0
M  V30 1850 H 187.188 -2.95058 -0.0497719 0
M  V30 1851 H 187.269 -2.08022 1.48865 0
M  V30 1852 H 186.913 -4.28386 2.72852 0
M  V30 1853 H 186.843 -5.13545 1.16529 0
M  V30 1854 H 189.334 -3.57493 1.22503 0
M  V30 1855 H 189.647 -7.08401 3.08848 0
M  V30 1856 H 187.992 -6.37362 2.77118 0
M  V30 1857 H 191.183 -4.40019 1.59689 0
M  V30 1858 H 191.356 -6.00045 2.44643 0
M  V30 1859 N 184.763 -0.387143 -1.52771 0
M  V30 1860 C 185.695 0.484089 -2.2403 0
M  V30 1861 C 186.708 1.02849 -1.26198 0
M  V30 1862 O 187.897 0.931186 -1.52286 0
M  V30 1863 C 184.997 1.68337 -2.94136 0
M  V30 1864 C 184.17 1.26672 -4.18656 0
M  V30 1865 C 183.229 2.33045 -4.7178 0
M  V30 1866 O 182.255 1.94541 -5.34923 0
M  V30 1867 N 183.457 3.64929 -4.5145 0
M  V30 1868 H 186.222 -0.126404 -2.99433 0
M  V30 1869 H 183.783 -0.213392 -1.60488 0
M  V30 1870 H 185.775 2.39019 -3.26577 0
M  V30 1871 H 184.345 2.20025 -2.22053 0
M  V30 1872 H 183.565 0.388878 -3.92277 0
M  V30 1873 H 184.853 0.964964 -4.99566 0
M  V30 1874 H 184.251 3.98974 -4.01044 0
M  V30 1875 H 182.808 4.31651 -4.88386 0
M  V30 1876 N 186.241 1.57166 -0.116904 0
M  V30 1877 C 187.171 2.18222 0.830759 0
M  V30 1878 C 188.152 1.12167 1.27877 0
M  V30 1879 O 189.337 1.40394 1.34176 0
M  V30 1880 C 186.467 2.77996 2.08172 0
M  V30 1881 C 185.421 3.89614 1.77157 0
M  V30 1882 C 184.747 4.36187 3.09265 0
M  V30 1883 C 186.047 5.1181 1.04151 0
M  V30 1884 H 187.741 2.97664 0.321992 0
M  V30 1885 H 185.287 1.4318 0.153434 0
M  V30 1886 H 187.24 3.19366 2.74924 0
M  V30 1887 H 185.964 1.9584 2.6137 0
M  V30 1888 H 184.623 3.48816 1.12796 0
M  V30 1889 H 184.271 3.50893 3.60393 0
M  V30 1890 H 183.971 5.11455 2.89288 0
M  V30 1891 H 185.495 4.80207 3.77139 0
M  V30 1892 H 186.909 5.50214 1.61052 0
M  V30 1893 H 185.306 5.92648 0.942762 0
M  V30 1894 H 186.376 4.84892 0.0279022 0
M  V30 1895 N 187.719 -0.156864 1.56817 0
M  V30 1896 C 188.682 -1.17781 1.96622 0
M  V30 1897 C 189.682 -1.36401 0.851555 0
M  V30 1898 O 190.872 -1.33561 1.11836 0
M  V30 1899 C 188.004 -2.54008 2.27361 0
M  V30 1900 H 189.197 -0.836564 2.87996 0
M  V30 1901 H 186.75 -0.39985 1.51099 0
M  V30 1902 H 187.485 -2.9312 1.38748 0
M  V30 1903 H 187.27 -2.41856 3.08623 0
M  V30 1904 H 188.76 -3.27558 2.59029 0
M  V30 1905 N 189.197 -1.51736 -0.425897 0
M  V30 1906 C 190.422 -1.69082 -1.20108 0
M  V30 1907 C 190.847 -0.392398 -1.83962 0
M  V30 1908 O 190.205 0.64858 -1.69302 0
M  V30 1909 C 190.253 -2.81604 -2.25237 0
M  V30 1910 O 189.357 -2.46004 -3.30992 0
M  V30 1911 H 188.698 -0.563408 -0.35138 0
M  V30 1912 H 191.228 -1.98358 -0.501512 0
M  V30 1913 H 191.238 -3.06025 -2.69838 0
M  V30 1914 H 189.913 -3.75817 -1.78142 0
M  V30 1915 H 188.49 -2.32195 -2.91787 0
M  V30 1916 N 190.675 0.682077 -1.42076 0
M  V30 1917 C 191.585 1.82535 -1.47371 0
M  V30 1918 C 192.601 1.7017 -0.363079 0
M  V30 1919 O 193.777 1.91848 -0.612875 0
M  V30 1920 C 190.842 3.18624 -1.36674 0
M  V30 1921 C 189.903 3.42999 -2.58167 0
M  V30 1922 C 189.136 4.72595 -2.4797 0
M  V30 1923 O 189.359 5.50006 -1.5116 0
M  V30 1924 O 188.293 4.98054 -3.37974 0
M  V30 1925 H 192.119 1.81023 -2.43853 0
M  V30 1926 H 189.704 0.836887 -1.2376 0
M  V30 1927 H 191.586 3.99847 -1.33043 0
M  V30 1928 H 190.261 3.20789 -0.433138 0
M  V30 1929 H 189.168 2.61653 -2.67373 0
M  V30 1930 H 190.501 3.45659 -3.50401 0
M  V30 1931 N 192.153 1.28127 0.917671 0
M  V30 1932 C 193.401 1.14825 1.66312 0
M  V30 1933 C 193.722 -0.304379 1.9261 0
M  V30 1934 O 192.992 -1.21149 1.53947 0
M  V30 1935 H 191.572 0.421953 0.616413 0
M  V30 1936 H 194.234 1.608 1.10134 0
M  V30 1937 H 193.33 1.68489 2.62712 0
M  V30 1938 N 193.631 -1.12557 1.10312 0
M  V30 1939 C 194.561 -2.20341 0.772798 0
M  V30 1940 C 195.542 -1.68198 -0.25365 0
M  V30 1941 O 196.727 -1.93831 -0.119699 0
M  V30 1942 C 193.857 -3.46709 0.202443 0
M  V30 1943 C 192.811 -4.11996 1.15943 0
M  V30 1944 C 192.137 -5.328 0.450345 0
M  V30 1945 C 193.437 -4.5828 2.50552 0
M  V30 1946 H 195.131 -2.48229 1.674 0
M  V30 1947 H 192.677 -1.19308 0.806326 0
M  V30 1948 H 194.63 -4.2138 -0.0407752 0
M  V30 1949 H 193.354 -3.18245 -0.734001 0
M  V30 1950 H 192.013 -3.39305 1.38808 0
M  V30 1951 H 191.661 -5.00602 -0.490531 0
M  V30 1952 H 191.361 -5.7743 1.08851 0
M  V30 1953 H 192.885 -6.10219 0.215642 0
M  V30 1954 H 194.299 -5.2433 2.31843 0
M  V30 1955 H 192.696 -5.13683 3.10242 0
M  V30 1956 H 193.766 -3.72329 3.10643 0
M  V30 1957 N 195.109 -0.891671 -1.2995 0
M  V30 1958 C 196.52 -0.563104 -1.78006 0
M  V30 1959 C 196.871 0.920978 -1.73241 0
M  V30 1960 O 195.996 1.71987 -1.31337 0
M  V30 1961 C 196.591 -1.01539 -3.23226 0
M  V30 1962 C 195.15 -0.738124 -3.69092 0
M  V30 1963 C 194.297 -1.19461 -2.50249 0
M  V30 1964 H 197.248 -1.07522 -1.16725 0
M  V30 1965 H 197.269 -0.347217 -3.78912 0
M  V30 1966 H 196.781 -2.09555 -3.26662 0
M  V30 1967 H 194.882 0.329766 -3.71138 0
M  V30 1968 H 194.995 -1.33037 -4.60259 0
M  V30 1969 H 193.359 -0.613787 -2.47194 0
M  V30 1970 H 194.142 -2.28265 -2.56417 0
M  V30 1971 N 196.587 1.43421 -0.653314 0
M  V30 1972 C 197.55 2.29182 0.0287951 0
M  V30 1973 C 198.55 1.42213 0.750465 0
M  V30 1974 O 199.74 1.63843 0.591701 0
M  V30 1975 C 196.872 3.24278 1.05151 0
M  V30 1976 H 198.065 2.90985 -0.725786 0
M  V30 1977 H 195.618 1.50702 -0.414545 0
M  V30 1978 H 196.353 2.6737 1.83532 0
M  V30 1979 H 196.138 3.88396 0.537687 0
M  V30 1980 H 197.628 3.88647 1.52786 0
M  V30 1981 N 198.065 0.39524 1.52563 0
M  V30 1982 C 198.995 -0.428384 2.29537 0
M  V30 1983 C 199.976 -1.05831 1.33169 0
M  V30 1984 O 201.161 -1.06995 1.62067 0
M  V30 1985 C 198.291 -1.55274 3.10656 0
M  V30 1986 C 197.245 -1.04855 4.14957 0
M  V30 1987 C 196.571 -2.26543 4.84337 0
M  V30 1988 C 197.871 -0.112324 5.22179 0
M  V30 1989 H 199.565 0.213867 2.98635 0
M  V30 1990 H 197.111 0.104298 1.43622 0
M  V30 1991 H 199.064 -2.1358 3.63265 0
M  V30 1992 H 197.788 -2.22266 2.39302 0
M  V30 1993 H 196.447 -0.487985 3.63338 0
M  V30 1994 H 196.095 -2.92059 4.09525 0
M  V30 1995 H 195.795 -1.93466 5.54837 0
M  V30 1996 H 197.319 -2.85481 5.39753 0
M  V30 1997 H 198.733 -0.603752 5.70112 0
M  V30 1998 H 197.13 0.128968 5.99961 0
M  V30 1999 H 198.2 0.837052 4.77621 0
M  V30 2000 N 199.544 -1.57102 0.125237 0
M  V30 2001 C 200.507 -2.14471 -0.80838 0
M  V30 2002 C 201.507 -1.0811 -1.19033 0
M  V30 2003 O 202.697 -1.33856 -1.11482 0
M  V30 2004 C 199.829 -2.69005 -2.09402 0
M  V30 2005 H 201.022 -2.98297 -0.309696 0
M  V30 2006 H 198.575 -1.55807 -0.124051 0
M  V30 2007 H 199.31 -1.88785 -2.63687 0
M  V30 2008 H 199.095 -3.46799 -1.82957 0
M  V30 2009 H 200.585 -3.13278 -2.76128 0
M  V30 2010 N 201.022 0.148545 -1.56898 0
M  V30 2011 C 201.954 1.20852 -1.9475 0
M  V30 2012 C 202.967 1.39265 -0.843152 0
M  V30 2013 O 204.156 1.38864 -1.12156 0
M  V30 2014 C 201.256 2.57362 -2.20495 0
M  V30 2015 C 200.429 2.59947 -3.51776 0
M  V30 2016 C 199.488 3.77984 -3.6608 0
M  V30 2017 O 198.514 3.62929 -4.38487 0
M  V30 2018 N 199.716 4.95375 -3.02629 0
M  V30 2019 H 202.481 0.886804 -2.86279 0
M  V30 2020 H 200.042 0.338121 -1.5833 0
M  V30 2021 H 202.034 3.34833 -2.27307 0
M  V30 2022 H 200.604 2.81832 -1.35238 0
M  V30 2023 H 199.824 1.68403 -3.56419 0
M  V30 2024 H 201.112 2.58704 -4.38121 0
M  V30 2025 H 200.51 5.10509 -2.43715 0
M  V30 2026 H 199.067 5.70627 -3.15004 0
M  V30 2027 N 202.5 1.5196 0.417844 0
M  V30 2028 C 203.748 1.65263 1.16329 0
M  V30 2029 C 204.069 0.380634 1.91249 0
M  V30 2030 O 203.339 -0.604214 1.86349 0
M  V30 2031 H 201.919 0.60912 0.432414 0
M  V30 2032 H 204.581 1.88969 0.477162 0
M  V30 2033 H 203.677 2.4896 1.88217 0
M  V30 2034 N 203.978 -0.674533 1.42435 0
M  V30 2035 C 204.941 -1.76986 1.45632 0
M  V30 2036 C 205.941 -1.5708 0.343871 0
M  V30 2037 O 207.131 -1.63367 0.604709 0
M  V30 2038 C 204.263 -3.15623 1.28822 0
M  V30 2039 H 205.456 -1.75539 2.43158 0
M  V30 2040 H 203.009 -0.884189 1.28887 0
M  V30 2041 H 203.744 -3.22696 0.322193 0
M  V30 2042 H 203.529 -3.31475 2.09444 0
M  V30 2043 H 205.019 -3.95537 1.33942 0
M  V30 2044 N 205.456 -1.28612 -0.910864 0
M  V30 2045 C 206.366 -1.14643 -2.0468 0
M  V30 2046 C 207.382 -0.0723121 -1.7385 0
M  V30 2047 O 208.558 -0.282178 -1.99413 0
M  V30 2048 C 205.623 -0.812561 -3.37044 0
M  V30 2049 C 204.684 -1.96935 -3.81465 0
M  V30 2050 C 203.917 -1.65131 -5.07511 0
M  V30 2051 O 204.14 -0.567013 -5.67575 0
M  V30 2052 O 203.074 -2.49585 -5.47714 0
M  V30 2053 H 206.9 -2.1001 -2.19384 0
M  V30 2054 H 204.485 -1.07958 -1.03274 0
M  V30 2055 H 206.367 -0.640441 -4.16505 0
M  V30 2056 H 205.042 0.111426 -3.23508 0
M  V30 2057 H 203.949 -2.19664 -3.02818 0
M  V30 2058 H 205.282 -2.87414 -3.99567 0
M  V30 2059 N 206.934 1.1197 -1.10907 0
M  V30 2060 C 208.35 1.35591 -0.841852 0
M  V30 2061 C 208.55 1.94233 0.536246 0
M  V30 2062 O 207.606 2.1717 1.28816 0
M  V30 2063 C 208.919 2.29284 -1.94549 0
M  V30 2064 C 210.467 2.42862 -1.97451 0
M  V30 2065 C 210.942 3.39873 -3.07002 0
M  V30 2066 N 212.433 3.47433 -3.06341 0
M  V30 2067 C 213.168 4.22421 -3.87748 0
M  V30 2068 N 212.664 5.00432 -4.79103 0
M  V30 2069 N 214.457 4.17876 -3.75946 0
M  V30 2070 H 206.608 0.722664 -1.99728 0
M  V30 2071 H 208.871 0.380635 -0.868229 0
M  V30 2072 H 208.577 1.93378 -2.93765 0
M  V30 2073 H 208.451 3.29452 -1.83688 0
M  V30 2074 H 210.838 2.78046 -0.988645 0
M  V30 2075 H 210.919 1.42566 -2.12388 0
M  V30 2076 H 210.563 3.05417 -4.05811 0
M  V30 2077 H 210.493 4.40011 -2.89306 0
M  V30 2078 H 212.984 2.91784 -2.40147 0
M  V30 2079 H 213.297 5.55002 -5.37766 0
M  V30 2080 H 211.642 4.99612 -4.83128 0
M  V30 2081 H 214.833 3.56016 -3.03924 0
M  V30 2082 H 215.006 4.76061 -4.39624 0
M  V30 2083 N 208.412 0.89855 1.29475 0
M  V30 2084 C 209.658 0.524658 1.95896 0
M  V30 2085 C 209.991 -0.926468 1.70676 0
M  V30 2086 O 209.266 -1.65665 1.01908 0
M  V30 2087 C 209.549 0.81633 3.50725 0
M  V30 2088 C 209.402 2.31907 3.85408 0
M  V30 2089 C 210.721 0.302038 4.39062 0
M  V30 2090 H 207.84 0.19209 0.711527 0
M  V30 2091 H 210.482 1.12502 1.53112 0
M  V30 2092 H 208.632 0.305369 3.87298 0
M  V30 2093 H 210.304 2.89949 3.58786 0
M  V30 2094 H 208.547 2.78027 3.32992 0
M  V30 2095 H 209.218 2.47373 4.93468 0
M  V30 2096 H 211.694 0.739551 4.09475 0
M  V30 2097 H 210.57 0.535331 5.46283 0
M  V30 2098 H 210.831 -0.797216 4.34853 0
M  V30 2099 O 209.929 -1.40275 0.80033 0
M  V30 2100 H 210.62 -1.90048 0.374337 0
M  V30 END ATOM
M  V30 BEGIN BOND
M  V30 END BOND
M  V30 END CTAB
M  END
$$$$
