drugbank_target|P42321 Catalase (DB01942; DB03790)
 OpenBabel12092120033D

  0  0  0     0  0            999 V3000
M  V30 BEGIN CTAB
M  V30 COUNTS 7685 7796 0 0 0
M  V30 BEGIN ATOM
M  V30 1 H -0.908 1.98254 -0.117106 0
M  V30 2 N 0 1.576 0 0
M  V30 3 C 0.933 2.03868 1.02534 0
M  V30 4 C 1.911 0.928543 1.3348 0
M  V30 5 O 3.095 1.19667 1.45644 0
M  V30 6 C 0.222 2.43627 2.35294 0
M  V30 7 C -0.732 3.65373 2.2001 0
M  V30 8 S 0.101 5.13292 1.52614 0
M  V30 9 C 1.257 5.56322 2.86805 0
M  V30 10 H 1.49 2.90518 0.631377 0
M  V30 11 H -0.977 1.52953 0.210867 0
M  V30 12 H 0.981 2.67203 3.11629 0
M  V30 13 H -0.358 1.57376 2.7183 0
M  V30 14 H -1.165 3.90944 3.18086 0
M  V30 15 H -1.563 3.418 1.51819 0
M  V30 16 H 0.729 5.58782 3.83104 0
M  V30 17 H 1.672 6.56266 2.65933 0
M  V30 18 H 2.08 4.83886 2.90714 0
M  V30 19 N 1.4781 -0.272755 1.55222 0
M  V30 20 C 2.3881 -1.35918 1.91216 0
M  V30 21 C 3.4041 -1.54026 0.809436 0
M  V30 22 O 4.5801 -1.68148 1.10852 0
M  V30 23 C 1.6451 -2.69834 2.17693 0
M  V30 24 C 0.7061 -2.6047 3.41253 0
M  V30 25 C -0.0609 -3.88 3.66458 0
M  V30 26 O 0.1621 -4.88693 2.94169 0
M  V30 27 O -0.9039 -3.88189 4.59992 0
M  V30 28 H 2.9221 -1.0839 2.83699 0
M  V30 29 H 0.5071 -0.471301 1.41771 0
M  V30 30 H 2.3891 -3.49017 2.36147 0
M  V30 31 H 1.0641 -2.97148 1.28392 0
M  V30 32 H -0.0289 -1.79663 3.28134 0
M  V30 33 H 1.3041 -2.38106 4.30774 0
M  V30 34 N 2.9562 -1.48159 -0.537278 0
M  V30 35 C 3.9032 -1.62138 -1.64256 0
M  V30 36 C 4.8732 -0.463668 -1.59497 0
M  V30 37 O 6.0582 -0.686241 -1.78032 0
M  V30 38 C 3.1982 -1.66028 -3.02537 0
M  V30 39 C 2.3112 -2.92855 -3.17585 0
M  V30 40 C 1.4462 -2.87952 -4.46382 0
M  V30 41 C 0.4852 -4.09516 -4.54932 0
M  V30 42 N -0.3778 -4.02733 -5.75109 0
M  V30 43 H 4.4622 -2.56529 -1.51647 0
M  V30 44 H 1.9992 -1.27224 -0.738414 0
M  V30 45 H 3.9572 -1.66265 -3.82638 0
M  V30 46 H 2.5872 -0.751331 -3.13934 0
M  V30 47 H 1.6392 -3.02395 -2.30784 0
M  V30 48 H 2.9512 -3.82822 -3.19764 0
M  V30 49 H 2.1052 -2.8655 -5.34765 0
M  V30 50 H 0.8442 -1.95702 -4.46712 0
M  V30 51 H -0.1508 -4.11201 -3.64957 0
M  V30 52 H 1.0742 -5.02917 -4.56346 0
M  V30 53 H -0.9798 -3.13299 -5.76351 0
M  V30 54 H -1.0628 -4.86397 -5.78752 0
M  V30 55 H 0.2052 -4.05379 -6.65799 0
M  V30 56 N 4.4343 0.785586 -1.36625 0
M  V30 57 C 5.3813 1.89838 -1.31264 0
M  V30 58 C 6.3513 1.65115 -0.180633 0
M  V30 59 O 7.5363 1.87222 -0.36777 0
M  V30 60 C 4.6763 3.26706 -1.11163 0
M  V30 61 C 3.7893 3.63476 -2.33472 0
M  V30 62 C 2.9243 4.89481 -2.06353 0
M  V30 63 C 1.9633 5.18941 -3.24602 0
M  V30 64 N 1.1003 6.36131 -2.97123 0
M  V30 65 H 5.9403 1.93756 -2.26413 0
M  V30 66 H 3.4773 0.947454 -1.12524 0
M  V30 67 H 5.4353 4.05639 -0.975337 0
M  V30 68 H 4.0653 3.222 -0.196674 0
M  V30 69 H 3.1173 2.79636 -2.57891 0
M  V30 70 H 4.4293 3.81193 -3.21704 0
M  V30 71 H 3.5833 5.76288 -1.89675 0
M  V30 72 H 2.3223 4.73841 -1.15437 0
M  V30 73 H 1.3273 4.30615 -3.41834 0
M  V30 74 H 2.5523 5.36498 -4.16349 0
M  V30 75 H 0.4983 6.21875 -2.08823 0
M  V30 76 H 0.4153 6.54198 -3.78894 0
M  V30 77 H 1.6833 7.2591 -2.84033 0
M  V30 78 N 5.9124 1.20967 1.01018 0
M  V30 79 C 6.8594 0.964281 2.09691 0
M  V30 80 C 7.8294 -0.107853 1.65749 0
M  V30 81 O 9.0144 0.0381987 1.90762 0
M  V30 82 C 6.1544 0.52943 3.41015 0
M  V30 83 C 5.2674 1.67043 3.98398 0
M  V30 84 C 4.4024 1.18525 5.17808 0
M  V30 85 C 3.4414 2.29892 5.67288 0
M  V30 86 N 2.5784 1.82546 6.77954 0
M  V30 87 H 7.4184 1.89463 2.30017 0
M  V30 88 H 4.9554 0.944289 1.1279 0
M  V30 89 H 6.9134 0.258588 4.16398 0
M  V30 90 H 5.5434 -0.363919 3.20742 0
M  V30 91 H 4.5954 2.05603 3.20049 0
M  V30 92 H 5.9074 2.50877 4.31117 0
M  V30 93 H 5.0614 0.870762 6.00419 0
M  V30 94 H 3.8004 0.316887 4.86669 0
M  V30 95 H 2.8054 2.6215 4.83278 0
M  V30 96 H 4.0304 3.17216 6.00459 0
M  V30 97 H 1.9764 0.980454 6.48632 0
M  V30 98 H 1.8934 2.59956 7.09901 0
M  V30 99 H 3.1614 1.54115 7.64113 0
M  V30 100 N 7.3905 -1.2043 1.01659 0
M  V30 101 C 8.3205 -2.25466 0.607226 0
M  V30 102 C 9.3015 -1.65853 -0.377716 0
M  V30 103 O 10.4865 -1.92409 -0.263149 0
M  V30 104 C 7.6165 -3.47256 -0.0552949 0
M  V30 105 C 6.5705 -4.19462 0.850632 0
M  V30 106 C 5.8965 -5.34673 0.0538859 0
M  V30 107 C 7.1965 -4.75603 2.15868 0
M  V30 108 H 8.8905 -2.59962 1.48526 0
M  V30 109 H 6.4365 -1.2496 0.715605 0
M  V30 110 H 8.3895 -4.19917 -0.353233 0
M  V30 111 H 7.1135 -3.11924 -0.968045 0
M  V30 112 H 5.7725 -3.48667 1.13257 0
M  V30 113 H 5.4205 -4.95585 -0.860514 0
M  V30 114 H 5.1205 -5.83913 0.657192 0
M  V30 115 H 6.6445 -6.10138 -0.237598 0
M  V30 116 H 8.0585 -5.40083 1.92311 0
M  V30 117 H 6.4555 -5.3528 2.71284 0
M  V30 118 H 7.5255 -3.94346 2.82169 0
M  V30 119 N 8.8686 -0.792821 -1.36206 0
M  V30 120 C 10.0966 -0.378825 -2.03402 0
M  V30 121 C 10.5116 1.00586 -1.59774 0
M  V30 122 O 9.8686 1.64574 -0.788764 0
M  V30 123 C 9.9196 -0.43683 -3.58851 0
M  V30 124 O 9.6406 -1.76691 -4.00889 0
M  V30 125 C 11.1416 -0.0138943 -4.43298 0
M  V30 126 H 8.3616 -0.155673 -0.652692 0
M  V30 127 H 10.9056 -1.07261 -1.74113 0
M  V30 128 H 9.0606 0.208575 -3.86838 0
M  V30 129 H 9.4746 -1.72011 -4.95492 0
M  V30 130 H 10.9486 -0.105615 -5.51899 0
M  V30 131 H 11.4256 1.03915 -4.2673 0
M  V30 132 H 12.0316 -0.63192 -4.20579 0
M  V30 133 N 10.3467 1.47872 -0.545128 0
M  V30 134 C 11.5747 2.06889 -0.021084 0
M  V30 135 C 11.9897 1.39955 1.2672 0
M  V30 136 O 11.3467 0.492036 1.75742 0
M  V30 137 C 11.3977 3.60996 0.190817 0
M  V30 138 O 11.1187 4.25419 -1.04644 0
M  V30 139 C 12.6197 4.36849 0.753521 0
M  V30 140 H 9.8397 0.669785 -0.0403635 0
M  V30 141 H 12.3837 1.90049 -0.755095 0
M  V30 142 H 10.5387 3.77391 0.87492 0
M  V30 143 H 10.9527 5.17785 -0.836611 0
M  V30 144 H 12.4267 5.45399 0.851139 0
M  V30 145 H 12.9037 4.02306 1.762 0
M  V30 146 H 13.5097 4.25169 0.105503 0
M  V30 147 N 11.8248 0.280983 1.55075 0
M  V30 148 C 12.7878 -0.590896 2.21452 0
M  V30 149 C 13.7878 -1.07682 1.19421 0
M  V30 150 O 14.9778 -0.97605 1.44288 0
M  V30 151 C 12.1098 -1.81587 2.88511 0
M  V30 152 H 13.3028 -0.0112554 2.99898 0
M  V30 153 H 10.8558 0.0316438 1.56268 0
M  V30 154 H 11.5908 -2.43587 2.14093 0
M  V30 155 H 11.3758 -1.4753 3.63287 0
M  V30 156 H 12.8658 -2.43575 3.39206 0
M  V30 157 N 13.3029 -1.57598 0.00835791 0
M  V30 158 C 14.2659 -2.07884 -0.965242 0
M  V30 159 C 15.2659 -0.989825 -1.26725 0
M  V30 160 O 16.4559 -1.25218 -1.21104 0
M  V30 161 C 13.5879 -2.52731 -2.28779 0
M  V30 162 H 14.7809 -2.95178 -0.530112 0
M  V30 163 H 12.3339 -1.54458 -0.239283 0
M  V30 164 H 13.0689 -1.68705 -2.76964 0
M  V30 165 H 12.8539 -3.32272 -2.08177 0
M  V30 166 H 14.3439 -2.91933 -2.98605 0
M  V30 167 N 14.781 0.264519 -1.55364 0
M  V30 168 C 16.029 0.993021 -1.76021 0
M  V30 169 C 16.35 1.86511 -0.569099 0
M  V30 170 O 15.62 1.91438 0.415735 0
M  V30 171 H 14.2 0.369639 -0.649135 0
M  V30 172 H 16.862 0.286707 -1.9278 0
M  V30 173 H 15.958 1.62502 -2.66457 0
M  V30 174 N 16.2591 1.48442 0.529413 0
M  V30 175 C 17.2221 1.62524 1.61612 0
M  V30 176 C 18.2221 0.498509 1.52877 0
M  V30 177 O 19.4121 0.76431 1.56537 0
M  V30 178 C 16.5441 1.59597 3.01233 0
M  V30 179 H 17.7371 2.59423 1.50465 0
M  V30 180 H 15.2901 1.37047 0.751514 0
M  V30 181 H 16.0251 0.641781 3.17886 0
M  V30 182 H 15.8101 2.41397 3.08982 0
M  V30 183 H 17.3001 1.72646 3.80241 0
M  V30 184 N 17.7372 -0.778329 1.37039 0
M  V30 185 C 19.1482 -1.35421 1.28523 0
M  V30 186 C 19.4992 -1.96075 -0.0700901 0
M  V30 187 O 18.6242 -1.93352 -0.971801 0
M  V30 188 C 19.2192 -2.46211 2.32735 0
M  V30 189 C 17.7782 -2.99585 2.27873 0
M  V30 190 C 16.9252 -1.72748 2.16918 0
M  V30 191 H 19.8762 -0.5791 1.47757 0
M  V30 192 H 19.8972 -3.2552 1.9702 0
M  V30 193 H 19.4092 -2.02036 3.31365 0
M  V30 194 H 17.5102 -3.48152 1.32745 0
M  V30 195 H 17.6232 -3.55646 3.21018 0
M  V30 196 H 15.9872 -1.95416 1.63354 0
M  V30 197 H 16.7702 -1.30686 3.17452 0
M  V30 198 N 19.2153 -1.21501 -1.00376 0
M  V30 199 C 20.4613 -1.03452 -1.74429 0
M  V30 200 C 20.7943 0.430764 -1.89362 0
M  V30 201 O 20.0693 1.31962 -1.42886 0
M  V30 202 C 20.3523 -1.73375 -3.15615 0
M  V30 203 C 20.2053 -3.27431 -3.08397 0
M  V30 204 C 21.5243 -1.47732 -4.14564 0
M  V30 205 H 18.6433 -0.377226 -0.633143 0
M  V30 206 H 21.2853 -1.49693 -1.17013 0
M  V30 207 H 19.4353 -1.34064 -3.64636 0
M  V30 208 H 21.1073 -3.76119 -2.67081 0
M  V30 209 H 19.3503 -3.5767 -2.45468 0
M  V30 210 H 20.0213 -3.71524 -4.08258 0
M  V30 211 H 22.4973 -1.8186 -3.74254 0
M  V30 212 H 21.3733 -1.99169 -5.11491 0
M  V30 213 H 21.6343 -0.407589 -4.40217 0
M  V30 214 N 20.6934 1.19889 -1.02296 0
M  V30 215 C 21.9394 1.89701 -0.717033 0
M  V30 216 C 22.2724 1.7905 0.751989 0
M  V30 217 O 21.5474 1.17891 1.547 0
M  V30 218 C 21.8304 3.40858 -1.16136 0
M  V30 219 C 21.6834 3.60411 -2.69117 0
M  V30 220 C 23.0024 4.33876 -0.737549 0
M  V30 221 H 20.1214 0.688874 -0.261957 0
M  V30 222 H 22.7634 1.41154 -1.27183 0
M  V30 223 H 20.9134 3.82335 -0.689342 0
M  V30 224 H 22.5854 3.28145 -3.2422 0
M  V30 225 H 20.8284 3.03665 -3.0979 0
M  V30 226 H 21.4994 4.66396 -2.95261 0
M  V30 227 H 23.9754 4.00081 -1.14344 0
M  V30 228 H 22.8514 5.38242 -1.0764 0
M  V30 229 H 23.1124 4.40628 0.360436 0
M  V30 230 N 22.1715 0.800033 1.35784 0
M  V30 231 C 23.4485 0.30088 1.93272 0
M  V30 232 C 23.8285 -1.20857 1.73081 0
M  V30 233 O 23.1765 -2.00502 1.09596 0
M  V30 234 C 23.3865 0.70511 3.41803 0
M  V30 235 C 24.7345 0.690871 4.18942 0
M  V30 236 O 25.7585 0.646244 3.50289 0
M  V30 237 O 24.6175 0.74332 5.41421 0
M  V30 238 H 21.7115 0.0771605 0.823393 0
M  V30 239 H 24.2575 0.88329 1.449 0
M  V30 240 H 23.0295 1.74571 3.50201 0
M  V30 241 H 22.6525 0.0971541 3.97481 0
M  V30 242 N 23.6496 -1.47581 0.552962 0
M  V30 243 C 24.5976 -2.31648 -0.21023 0
M  V30 244 C 25.5916 -1.42663 -0.913432 0
M  V30 245 O 26.7976 -1.5945 -0.835201 0
M  V30 246 H 23.1726 -0.746989 -0.0866676 0
M  V30 247 H 25.1436 -2.93869 0.518051 0
M  V30 248 C 23.8926 -3.25226 -1.22976 0
M  V30 249 H 23.2156 -3.93658 -0.698077 0
M  V30 250 H 24.6556 -3.86889 -1.73473 0
M  V30 251 C 23.1146 -2.48448 -2.27542 0
M  V30 252 O 23.6446 -2.22585 -3.34393 0
M  V30 253 N 21.8506 -2.09532 -2.01357 0
M  V30 254 H 21.3976 -2.30765 -1.14478 0
M  V30 255 H 21.3556 -1.58476 -2.71538 0
M  V30 256 N 25.1277 -0.289203 -1.54924 0
M  V30 257 C 26.0757 0.607966 -2.24514 0
M  V30 258 C 27.0697 1.14655 -1.24702 0
M  V30 259 O 28.2757 1.09856 -1.4259 0
M  V30 260 H 24.6507 0.21464 -0.720718 0
M  V30 261 H 26.6217 -0.00164182 -2.984 0
M  V30 262 C 25.3707 1.77406 -2.99036 0
M  V30 263 H 24.6937 1.36884 -3.75637 0
M  V30 264 H 26.1337 2.37814 -3.51028 0
M  V30 265 C 24.5927 2.67107 -2.05318 0
M  V30 266 O 25.1227 3.6787 -1.61353 0
M  V30 267 N 23.3287 2.34582 -1.71521 0
M  V30 268 H 22.8757 1.52688 -2.07471 0
M  V30 269 H 22.8337 2.94867 -1.0909 0
M  V30 270 N 26.6058 1.57591 -0.0167156 0
M  V30 271 C 27.5538 2.10604 0.987353 0
M  V30 272 C 28.5478 1.02977 1.34507 0
M  V30 273 O 29.7538 1.21425 1.32875 0
M  V30 274 H 26.1288 0.672695 0.336134 0
M  V30 275 H 28.0998 2.93925 0.514817 0
M  V30 276 C 26.8488 2.6382 2.26483 0
M  V30 277 H 26.1718 3.46278 1.99829 0
M  V30 278 H 27.6118 3.04573 2.94977 0
M  V30 279 C 26.0708 1.55992 2.9861 0
M  V30 280 O 26.6008 0.952521 3.90243 0
M  V30 281 N 24.8068 1.28335 2.60727 0
M  V30 282 H 24.3538 1.77914 1.86291 0
M  V30 283 H 24.3118 0.564115 3.09298 0
M  V30 284 N 28.0839 -0.256276 1.55502 0
M  V30 285 C 29.3299 -0.987079 1.77157 0
M  V30 286 C 29.6629 -1.85327 0.580315 0
M  V30 287 O 28.9379 -1.89874 -0.421686 0
M  V30 288 C 29.2209 -1.85553 3.08613 0
M  V30 289 C 29.0739 -1.01816 4.38125 0
M  V30 290 C 30.3929 -2.8397 3.36228 0
M  V30 291 H 27.5119 -0.357428 0.644526 0
M  V30 292 H 30.1539 -0.258239 1.88237 0
M  V30 293 H 28.3039 -2.47695 2.99298 0
M  V30 294 H 29.9759 -0.416159 4.59419 0
M  V30 295 H 28.2189 -0.322178 4.32602 0
M  V30 296 H 28.8899 -1.65939 5.26468 0
M  V30 297 H 31.3659 -2.31964 3.45445 0
M  V30 298 H 30.2419 -3.41864 4.29442 0
M  V30 299 H 30.5029 -3.59955 2.56681 0
M  V30 300 N 29.562 -1.4872 -0.521534 0
M  V30 301 C 30.811 -1.56419 -1.27341 0
M  V30 302 C 31.124 -0.246805 -1.94037 0
M  V30 303 O 32.33 -0.202122 -2.70747 0
M  V30 304 C 30.786 -2.75896 -2.31105 0
M  V30 305 C 30.394 -4.14311 -1.70441 0
M  V30 306 C 32.138 -2.92913 -3.07249 0
M  V30 307 C 30.045 -5.25038 -2.72194 0
M  V30 308 H 28.975 -0.582344 -0.478949 0
M  V30 309 H 31.626 -1.75071 -0.549779 0
M  V30 310 H 30.008 -2.50697 -3.06541 0
M  V30 311 H 31.182 -4.49564 -1.01136 0
M  V30 312 H 29.497 -4.02482 -1.06759 0
M  V30 313 H 32.094 -3.72805 -3.83302 0
M  V30 314 H 32.437 -2.02689 -3.63625 0
M  V30 315 H 32.97 -3.18054 -2.38928 0
M  V30 316 H 29.709 -6.17255 -2.20627 0
M  V30 317 H 29.229 -4.94263 -3.39801 0
M  V30 318 H 30.908 -5.53508 -3.35019 0
M  V30 319 N 31.0401 0.771051 -1.3745 0
M  V30 320 C 32.2681 1.56015 -1.35893 0
M  V30 321 C 32.6831 1.88718 0.0555523 0
M  V30 322 O 32.0401 1.51502 1.01752 0
M  V30 323 C 32.0911 2.87001 -2.19801 0
M  V30 324 O 31.8121 2.557 -3.55738 0
M  V30 325 C 33.3131 3.81228 -2.26231 0
M  V30 326 H 30.5331 0.483317 -0.465453 0
M  V30 327 H 33.0771 0.955611 -1.80799 0
M  V30 328 H 31.2321 3.43877 -1.78402 0
M  V30 329 H 31.6461 3.39584 -3.99729 0
M  V30 330 H 33.1201 4.70139 -2.89263 0
M  V30 331 H 33.5971 4.20409 -1.27093 0
M  V30 332 H 34.2031 3.30281 -2.67945 0
M  V30 333 N 32.5182 1.22032 0.997298 0
M  V30 334 C 33.4812 0.987909 2.06816 0
M  V30 335 C 34.4812 -0.0440084 1.6074 0
M  V30 336 O 35.6712 0.194053 1.73116 0
M  V30 337 C 32.8032 0.49132 3.37341 0
M  V30 338 H 33.9962 1.93803 2.28868 0
M  V30 339 H 31.5492 1.03838 1.16822 0
M  V30 340 H 32.2842 -0.463364 3.20973 0
M  V30 341 H 32.0692 1.23575 3.72118 0
M  V30 342 H 33.5592 0.348824 4.16141 0
M  V30 343 N 33.9963 -1.19345 1.0293 0
M  V30 344 C 35.2443 -1.88665 0.724574 0
M  V30 345 C 35.5653 -1.80036 -0.749144 0
M  V30 346 O 34.8353 -1.2111 -1.53978 0
M  V30 347 H 33.4153 -0.698406 0.265025 0
M  V30 348 H 36.0773 -1.44885 1.30362 0
M  V30 349 H 35.1733 -2.94987 1.01926 0
M  V30 350 N 35.4744 -0.807222 -1.35358 0
M  V30 351 C 36.8854 -0.44876 -1.81226 0
M  V30 352 C 37.2364 1.02929 -1.67033 0
M  V30 353 O 36.3614 1.79991 -1.20133 0
M  V30 354 C 36.9564 -0.807774 -3.2903 0
M  V30 355 C 35.5154 -0.501901 -3.73039 0
M  V30 356 C 34.6624 -1.03304 -2.57339 0
M  V30 357 H 37.6134 -0.998808 -1.23327 0
M  V30 358 H 37.6344 -0.10554 -3.80354 0
M  V30 359 H 37.1464 -1.88357 -3.39328 0
M  V30 360 H 35.2474 0.565128 -3.68289 0
M  V30 361 H 35.3604 -1.03497 -4.67787 0
M  V30 362 H 33.7244 -0.455339 -2.50597 0
M  V30 363 H 34.5074 -2.11496 -2.70415 0
M  V30 364 N 36.9525 1.47285 -0.560781 0
M  V30 365 C 38.3685 1.58065 -0.22081 0
M  V30 366 C 38.5685 1.55892 1.27671 0
M  V30 367 O 37.6245 1.46422 2.0571 0
M  V30 368 C 38.9375 2.88418 -0.850625 0
M  V30 369 C 40.4855 3.02009 -0.822184 0
M  V30 370 C 40.9605 4.35066 -1.43113 0
M  V30 371 N 42.4515 4.41711 -1.39448 0
M  V30 372 C 43.1865 5.43237 -1.83525 0
M  V30 373 N 42.6825 6.51555 -2.35474 0
M  V30 374 N 44.4755 5.34304 -1.74574 0
M  V30 375 H 36.6265 1.46941 -1.53369 0
M  V30 376 H 38.8895 0.699558 -0.639783 0
M  V30 377 H 38.5955 2.95755 -1.9032 0
M  V30 378 H 38.4695 3.75612 -0.345773 0
M  V30 379 H 40.8565 2.94266 0.221714 0
M  V30 380 H 40.9375 2.16347 -1.36483 0
M  V30 381 H 40.5815 4.43565 -2.47412 0
M  V30 382 H 40.5115 5.19465 -0.863899 0
M  V30 383 H 43.0025 3.64027 -1.01452 0
M  V30 384 H 43.3155 7.25203 -2.67021 0
M  V30 385 H 41.6605 6.52435 -2.39487 0
M  V30 386 H 44.8515 4.48581 -1.33763 0
M  V30 387 H 45.0245 6.13288 -2.09242 0
M  V30 388 N 38.4306 0.297415 1.54768 0
M  V30 389 C 39.6786 -0.312295 1.99673 0
M  V30 390 C 39.9996 -1.54686 1.18732 0
M  V30 391 O 39.2696 -1.93854 0.282382 0
M  V30 392 H 37.8496 -0.118381 0.73756 0
M  V30 393 H 40.5116 0.407915 1.90583 0
M  V30 394 H 39.6076 -0.586813 3.06534 0
M  V30 395 N 39.9087 -1.5758 0.0250728 0
M  V30 396 C 41.3197 -1.79476 -0.514323 0
M  V30 397 C 41.6707 -0.934956 -1.72491 0
M  V30 398 O 40.7957 -0.144245 -2.15919 0
M  V30 399 C 41.3907 -3.25503 -0.939842 0
M  V30 400 C 39.9497 -3.48408 -1.42438 0
M  V30 401 C 39.0967 -2.74583 -0.387201 0
M  V30 402 H 42.0477 -1.567 0.25113 0
M  V30 403 H 42.0687 -3.34992 -1.80445 0
M  V30 404 H 41.5807 -3.88056 -0.0585628 0
M  V30 405 H 39.6817 -2.91103 -2.32572 0
M  V30 406 H 39.7947 -4.57119 -1.43455 0
M  V30 407 H 38.1587 -2.39942 -0.854409 0
M  V30 408 H 38.9417 -3.39849 0.485543 0
M  V30 409 N 41.3868 0.248026 -1.55636 0
M  V30 410 C 42.3198 1.3334 -1.85191 0
M  V30 411 C 43.2978 1.46429 -0.706906 0
M  V30 412 O 44.4818 1.62662 -0.952544 0
M  V30 413 C 41.6088 2.70703 -2.03562 0
M  V30 414 C 40.6548 2.7477 -3.26196 0
M  V30 415 S 41.4878 2.31493 -4.82878 0
M  V30 416 C 42.6438 3.70783 -5.04253 0
M  V30 417 H 42.8768 1.08072 -2.76962 0
M  V30 418 H 40.4098 0.448952 -1.47729 0
M  V30 419 H 42.3678 3.49798 -2.1483 0
M  V30 420 H 41.0288 2.9321 -1.12635 0
M  V30 421 H 40.2218 3.75648 -3.36013 0
M  V30 422 H 39.8238 2.03719 -3.13647 0
M  V30 423 H 42.1158 4.6627 -4.91527 0
M  V30 424 H 43.0588 3.65901 -6.06236 0
M  V30 425 H 43.4668 3.63244 -4.32105 0
M  V30 426 N 42.8649 1.48995 0.513639 0
M  V30 427 C 43.7949 1.67636 1.62544 0
M  V30 428 C 44.7759 0.525087 1.61793 0
M  V30 429 O 45.9609 0.759502 1.78732 0
M  V30 430 C 43.0909 1.73114 3.01079 0
M  V30 431 C 42.0449 2.87905 3.16693 0
M  V30 432 C 41.3709 2.78486 4.56453 0
M  V30 433 C 42.6709 4.29005 2.97913 0
M  V30 434 H 44.3649 2.60716 1.47198 0
M  V30 435 H 41.9109 1.25465 0.706714 0
M  V30 436 H 43.8639 1.84742 3.78746 0
M  V30 437 H 42.5879 0.766241 3.17484 0
M  V30 438 H 41.2469 2.75859 2.41448 0
M  V30 439 H 40.8949 1.7993 4.69717 0
M  V30 440 H 40.5949 3.55523 4.67843 0
M  V30 441 H 42.1189 2.92104 5.36197 0
M  V30 442 H 43.5329 4.41798 3.65359 0
M  V30 443 H 41.9299 5.07166 3.20785 0
M  V30 444 H 42.9999 4.44329 1.94165 0
M  V30 445 N 44.343 -0.763751 1.37857 0
M  V30 446 C 45.273 -1.89103 1.36975 0
M  V30 447 C 46.254 -1.68439 0.237152 0
M  V30 448 O 47.439 -1.8918 0.438713 0
M  V30 449 C 44.569 -3.26496 1.18395 0
M  V30 450 C 43.523 -3.61741 2.28751 0
M  V30 451 C 42.849 -4.97762 1.95286 0
M  V30 452 C 44.149 -3.67665 3.70972 0
M  V30 453 H 45.843 -1.90099 2.31307 0
M  V30 454 H 43.389 -0.91319 1.11341 0
M  V30 455 H 45.342 -4.05003 1.16406 0
M  V30 456 H 44.066 -3.25955 0.205215 0
M  V30 457 H 42.725 -2.85547 2.29909 0
M  V30 458 H 42.373 -4.93769 0.959221 0
M  V30 459 H 42.073 -5.22313 2.69189 0
M  V30 460 H 43.597 -5.7866 1.94898 0
M  V30 461 H 45.011 -4.36307 3.719 0
M  V30 462 H 43.408 -4.03718 4.43995 0
M  V30 463 H 44.478 -2.68134 4.0402 0
M  V30 464 N 45.8211 -1.22559 -0.990812 0
M  V30 465 C 46.7531 -0.955325 -2.08342 0
M  V30 466 C 47.7661 0.0668408 -1.62663 0
M  V30 467 O 48.9551 -0.167421 -1.77713 0
M  V30 468 C 46.0551 -0.415566 -3.36342 0
M  V30 469 C 45.2281 -1.49544 -4.11042 0
M  V30 470 C 44.2871 -0.962399 -5.17324 0
M  V30 471 O 43.3131 -1.64907 -5.44788 0
M  V30 472 N 44.5151 0.215134 -5.80101 0
M  V30 473 H 47.2801 -1.89596 -2.32106 0
M  V30 474 H 44.8411 -1.13276 -1.15673 0
M  V30 475 H 46.8331 -0.0442386 -4.04676 0
M  V30 476 H 45.4031 0.430232 -3.09625 0
M  V30 477 H 44.6231 -2.04 -3.37309 0
M  V30 478 H 45.9111 -2.22195 -4.57719 0
M  V30 479 H 45.3091 0.789779 -5.6016 0
M  V30 480 H 43.8661 0.527826 -6.49659 0
M  V30 481 N 47.2992 1.18797 -1.03562 0
M  V30 482 C 48.5762 1.84469 -0.650434 0
M  V30 483 C 48.9562 1.92319 0.870433 0
M  V30 484 O 48.3042 1.44528 1.76986 0
M  V30 485 C 48.5142 3.2306 -1.32036 0
M  V30 486 C 49.8622 3.9915 -1.44792 0
M  V30 487 O 50.8862 3.32481 -1.27806 0
M  V30 488 O 49.7452 5.18587 -1.72423 0
M  V30 489 H 46.8392 0.795251 -0.226946 0
M  V30 490 H 49.3852 1.26231 -1.13419 0
M  V30 491 H 48.1572 3.1222 -2.3587 0
M  V30 492 H 47.7802 3.88949 -0.8249 0
M  V30 493 N 48.7773 0.814389 1.34928 0
M  V30 494 C 50.0233 0.399013 1.98836 0
M  V30 495 C 50.3563 -1.03314 1.64438 0
M  V30 496 O 49.6313 -1.71811 0.911659 0
M  V30 497 C 49.9143 0.591629 3.55207 0
M  V30 498 C 49.7673 2.06928 3.99376 0
M  V30 499 C 51.0863 0.022199 4.40094 0
M  V30 500 H 48.2053 0.146451 0.722303 0
M  V30 501 H 50.8473 1.02537 1.59957 0
M  V30 502 H 48.9973 0.0584441 3.88456 0
M  V30 503 H 50.6693 2.66544 3.76499 0
M  V30 504 H 48.9123 2.56287 3.49999 0
M  V30 505 H 49.5833 2.1549 5.08201 0
M  V30 506 H 52.0593 0.477643 4.13349 0
M  V30 507 H 50.9353 0.186832 5.48582 0
M  V30 508 H 51.1963 -1.07215 4.28902 0
M  V30 509 N 50.2554 -1.46986 0.568584 0
M  V30 510 C 51.5014 -2.0332 0.0571487 0
M  V30 511 C 51.8564 -1.43384 -1.28291 0
M  V30 512 O 51.1494 -0.584304 -1.82473 0
M  V30 513 C 51.3434 -3.57306 -0.081836 0
M  V30 514 C 51.1724 -4.32174 1.24321 0
M  V30 515 C 49.9424 -4.71633 1.81358 0
M  V30 516 C 52.1404 -4.66598 2.16312 0
M  V30 517 N 50.1224 -5.31191 3.07748 0
M  V30 518 C 51.4934 -5.26578 3.27285 0
M  V30 519 C 53.5484 -4.48527 2.16166 0
M  V30 520 C 52.2514 -5.70395 4.38226 0
M  V30 521 C 54.2774 -4.93351 3.26127 0
M  V30 522 C 53.6394 -5.5339 4.3582 0
M  V30 523 H 49.7384 -0.77943 0.063351 0
M  V30 524 H 52.3224 -1.79323 0.758378 0
M  V30 525 H 50.4934 -3.81046 -0.752207 0
M  V30 526 H 52.2254 -4.00282 -0.59637 0
M  V30 527 H 48.9804 -4.53946 1.35019 0
M  V30 528 H 49.4044 -5.65505 3.72201 0
M  V30 529 H 54.0464 -4.01456 1.32638 0
M  V30 530 H 51.7644 -6.16452 5.22506 0
M  V30 531 H 55.3504 -4.81131 3.27115 0
M  V30 532 H 54.2304 -5.87441 5.19503 0
M  V30 533 N 51.7335 -0.305618 -1.54608 0
M  V30 534 C 52.9805 0.302298 -2.00231 0
M  V30 535 C 53.3085 1.5354 -1.19398 0
M  V30 536 O 52.5635 1.93973 -0.259423 0
M  V30 537 C 52.8625 0.698983 -3.50498 0
M  V30 538 C 52.5285 -0.432903 -4.48817 0
M  V30 539 C 51.1905 -0.743622 -4.75419 0
M  V30 540 C 53.5425 -1.19409 -5.07337 0
M  V30 541 C 50.8705 -1.81857 -5.57804 0
M  V30 542 C 53.2225 -2.25899 -5.90891 0
M  V30 543 C 51.8865 -2.57572 -6.15803 0
M  V30 544 H 51.1565 0.110619 -0.732697 0
M  V30 545 H 53.8035 -0.425674 -1.86709 0
M  V30 546 H 52.1085 1.50711 -3.61654 0
M  V30 547 H 53.8055 1.1806 -3.83227 0
M  V30 548 H 50.3955 -0.18063 -4.28219 0
M  V30 549 H 54.5795 -0.967295 -4.86782 0
M  V30 550 H 49.8355 -2.06864 -5.75341 0
M  V30 551 H 54.0095 -2.85335 -6.35261 0
M  V30 552 H 51.6365 -3.40998 -6.7943 0
M  V30 553 N 53.2116 1.57565 -0.0334293 0
M  V30 554 C 54.1416 2.13511 0.945265 0
M  V30 555 C 55.1226 1.05231 1.33643 0
M  V30 556 O 56.3076 1.33084 1.41429 0
M  V30 557 C 53.4376 2.6657 2.22616 0
M  V30 558 C 52.3916 3.79676 1.97561 0
M  V30 559 C 51.7176 4.1918 3.31952 0
M  V30 560 C 53.0176 5.0557 1.31135 0
M  V30 561 H 54.7116 2.95538 0.479325 0
M  V30 562 H 52.2576 1.42166 0.229115 0
M  V30 563 H 54.2106 3.04344 2.91466 0
M  V30 564 H 52.9346 1.8171 2.71384 0
M  V30 565 H 51.5936 3.42347 1.31127 0
M  V30 566 H 51.2416 3.31296 3.78487 0
M  V30 567 H 50.9416 4.95402 3.15992 0
M  V30 568 H 52.4656 4.59541 4.02063 0
M  V30 569 H 53.8796 5.40903 1.89992 0
M  V30 570 H 52.2766 5.86818 1.25559 0
M  V30 571 H 53.3466 4.84062 0.284894 0
M  V30 572 N 54.6897 -0.239769 1.55765 0
M  V30 573 C 55.5997 -1.31831 1.94056 0
M  V30 574 C 56.6157 -1.52275 0.841925 0
M  V30 575 O 57.7917 -1.65759 1.14394 0
M  V30 576 C 54.8567 -2.65156 2.23368 0
M  V30 577 C 53.9177 -2.53173 3.46701 0
M  V30 578 C 53.1507 -3.8014 3.74606 0
M  V30 579 O 53.3737 -4.82343 3.04469 0
M  V30 580 O 52.3077 -3.78344 4.68123 0
M  V30 581 H 56.1337 -1.02347 2.85935 0
M  V30 582 H 53.7187 -0.441123 1.42739 0
M  V30 583 H 55.6007 -3.43929 2.43497 0
M  V30 584 H 54.2757 -2.94358 1.34666 0
M  V30 585 H 53.1827 -1.72662 3.31871 0
M  V30 586 H 54.5157 -2.28915 4.35728 0
M  V30 587 N 56.1678 -1.49265 -0.50573 0
M  V30 588 C 57.1148 -1.65585 -1.6078 0
M  V30 589 C 58.0848 -0.497396 -1.58478 0
M  V30 590 O 59.2698 -0.72385 -1.76536 0
M  V30 591 C 56.4098 -1.72408 -2.98948 0
M  V30 592 C 55.5228 -2.99525 -3.11301 0
M  V30 593 C 54.6578 -2.97356 -4.40174 0
M  V30 594 C 53.6968 -4.19074 -4.46143 0
M  V30 595 N 52.8338 -4.14841 -5.66437 0
M  V30 596 H 57.6738 -2.59688 -1.46172 0
M  V30 597 H 55.2108 -1.28761 -0.711261 0
M  V30 598 H 57.1688 -1.74344 -3.79025 0
M  V30 599 H 55.7988 -0.817753 -3.1227 0
M  V30 600 H 54.8508 -3.07222 -2.24318 0
M  V30 601 H 56.1628 -3.89518 -3.11572 0
M  V30 602 H 55.3168 -2.97829 -5.28567 0
M  V30 603 H 54.0558 -2.05133 -4.42461 0
M  V30 604 H 53.0608 -4.1885 -3.56153 0
M  V30 605 H 54.2858 -5.12483 -4.45575 0
M  V30 606 H 52.2318 -3.25453 -5.69575 0
M  V30 607 H 52.1488 -4.98564 -5.68304 0
M  V30 608 H 53.4168 -4.1941 -6.57051 0
M  V30 609 N 57.6459 0.756429 -1.3826 0
M  V30 610 C 58.5759 1.88374 -1.37976 0
M  V30 611 C 59.5569 1.68311 -0.246082 0
M  V30 612 O 60.7419 1.88944 -0.44874 0
M  V30 613 C 57.8719 3.25864 -1.20125 0
M  V30 614 C 56.8259 3.60523 -2.30666 0
M  V30 615 C 56.1519 4.9672 -1.97923 0
M  V30 616 C 57.4519 3.65692 -3.72916 0
M  V30 617 H 59.1459 1.88869 -2.32312 0
M  V30 618 H 56.6919 0.907272 -1.11824 0
M  V30 619 H 58.6449 4.0438 -1.18552 0
M  V30 620 H 57.3689 3.25841 -0.222498 0
M  V30 621 H 56.0279 2.84324 -2.3142 0
M  V30 622 H 55.6759 4.93253 -0.985393 0
M  V30 623 H 55.3759 5.20878 -2.71955 0
M  V30 624 H 56.8999 5.77618 -1.97964 0
M  V30 625 H 58.3139 4.34328 -3.74208 0
M  V30 626 H 56.7109 4.01358 -4.4613 0
M  V30 627 H 57.7809 2.65987 -4.05436 0
M  V30 628 N 59.124 1.23083 0.984299 0
M  V30 629 C 60.087 1.00979 2.05757 0
M  V30 630 C 61.087 -0.0269573 1.60777 0
M  V30 631 O 62.277 0.212403 1.729 0
M  V30 632 C 59.409 0.527072 3.36801 0
M  V30 633 H 60.602 1.9622 2.26799 0
M  V30 634 H 58.155 1.05072 1.15714 0
M  V30 635 H 58.89 -0.429294 3.21446 0
M  V30 636 H 58.675 1.27515 3.70786 0
M  V30 637 H 60.165 0.392942 4.15747 0
M  V30 638 N 60.6021 -1.18246 1.0419 0
M  V30 639 C 61.5521 -2.19843 0.604392 0
M  V30 640 C 62.5361 -1.56962 -0.353814 0
M  V30 641 O 63.7281 -1.76156 -0.17267 0
M  V30 642 C 60.8571 -3.43287 -0.0298975 0
M  V30 643 C 59.9431 -4.13288 0.951531 0
M  V30 644 N 60.3341 -4.59271 2.11906 0
M  V30 645 C 58.6321 -4.39165 0.7778 0
M  V30 646 C 59.3331 -5.13173 2.73912 0
M  V30 647 N 58.3091 -5.04763 2.01779 0
M  V30 648 H 62.1111 -2.53089 1.4941 0
M  V30 649 H 59.6251 -1.34465 0.910658 0
M  V30 650 H 61.6221 -4.15334 -0.361037 0
M  V30 651 H 60.2821 -3.11537 -0.915127 0
M  V30 652 H 61.2931 -4.5368 2.49789 0
M  V30 653 H 57.9701 -4.17461 -0.0572331 0
M  V30 654 H 59.3601 -5.58947 3.72864 0
M  V30 655 N 62.0802 -0.821533 -1.34494 0
M  V30 656 C 63.3272 -0.408946 -1.98328 0
M  V30 657 C 63.6552 1.02764 -1.65136 0
M  V30 658 O 62.9102 1.73026 -0.914349 0
M  V30 659 C 63.2092 -0.556512 -3.53041 0
M  V30 660 C 62.8752 -1.95861 -4.0614 0
M  V30 661 C 61.5372 -2.34217 -4.20352 0
M  V30 662 C 63.8892 -2.87523 -4.34718 0
M  V30 663 C 61.2172 -3.63572 -4.6047 0
M  V30 664 C 63.5692 -4.1634 -4.76281 0
M  V30 665 C 62.2332 -4.54675 -4.88699 0
M  V30 666 H 61.5032 -0.149644 -0.725732 0
M  V30 667 H 64.1502 -1.04521 -1.6046 0
M  V30 668 H 62.4552 0.163148 -3.9146 0
M  V30 669 H 64.1522 -0.217826 -4.00408 0
M  V30 670 H 60.7422 -1.65066 -3.95539 0
M  V30 671 H 64.9262 -2.59133 -4.23277 0
M  V30 672 H 60.1822 -3.93101 -4.68275 0
M  V30 673 H 64.3562 -4.87455 -4.97354 0
M  V30 674 H 61.9832 -5.54959 -5.19542 0
M  V30 675 N 63.5583 1.46682 -0.576371 0
M  V30 676 C 64.8353 1.95599 0.00703437 0
M  V30 677 C 65.2153 1.51904 1.46589 0
M  V30 678 O 64.5633 0.766755 2.15251 0
M  V30 679 C 64.7733 3.4864 -0.158404 0
M  V30 680 C 66.1213 4.24594 -0.0229439 0
M  V30 681 O 67.1453 3.56094 -0.0869173 0
M  V30 682 O 66.0043 5.46373 0.118015 0
M  V30 683 H 63.0983 0.825275 0.053384 0
M  V30 684 H 65.6443 1.56996 -0.644244 0
M  V30 685 H 64.4163 3.7331 -1.17282 0
M  V30 686 H 64.0393 3.94057 0.5296 0
M  V30 687 N 65.0364 0.313813 1.54444 0
M  V30 688 C 66.4524 -0.0391619 1.59552 0
M  V30 689 C 66.6524 -1.51322 1.33056 0
M  V30 690 O 65.7084 -2.26782 1.11022 0
M  V30 691 C 67.0214 0.370302 2.98411 0
M  V30 692 C 68.5694 0.320139 3.11358 0
M  V30 693 C 69.0444 0.704617 4.52547 0
M  V30 694 N 70.5354 0.657645 4.58508 0
M  V30 695 C 71.2704 0.927453 5.6585 0
M  V30 696 N 70.7664 1.26389 6.81174 0
M  V30 697 N 72.5594 0.853662 5.5558 0
M  V30 698 H 64.7104 1.27433 1.69925 0
M  V30 699 H 66.9734 0.517511 0.794284 0
M  V30 700 H 66.6794 1.39694 3.22767 0
M  V30 701 H 66.5534 -0.269619 3.76235 0
M  V30 702 H 68.9404 -0.697275 2.86744 0
M  V30 703 H 69.0214 0.99486 2.35661 0
M  V30 704 H 68.6654 1.7199 4.77893 0
M  V30 705 H 68.5954 0.00768843 5.26599 0
M  V30 706 H 71.0864 0.409067 3.75679 0
M  V30 707 H 71.3994 1.4554 7.58972 0
M  V30 708 H 69.7444 1.30206 6.82694 0
M  V30 709 H 72.9354 0.590383 4.64362 0
M  V30 710 H 73.1084 1.0673 6.3915 0
M  V30 711 N 66.5145 -1.57545 0.0417849 0
M  V30 712 C 67.4245 -2.14451 -0.951213 0
M  V30 713 C 68.4405 -1.09992 -1.34825 0
M  V30 714 O 69.6165 -1.42114 -1.42708 0
M  V30 715 C 66.6815 -2.67063 -2.21084 0
M  V30 716 C 65.7425 -3.86284 -1.87304 0
M  V30 717 C 64.9755 -4.36378 -3.07261 0
M  V30 718 O 65.1985 -3.85587 -4.20332 0
M  V30 719 O 64.1325 -5.28077 -2.88822 0
M  V30 720 H 67.9585 -2.99601 -0.497287 0
M  V30 721 H 65.5435 -1.48317 -0.179567 0
M  V30 722 H 67.4255 -3.00914 -2.95006 0
M  V30 723 H 66.1005 -1.84989 -2.65633 0
M  V30 724 H 65.0075 -3.57338 -1.10727 0
M  V30 725 H 66.3405 -4.6956 -1.47562 0
M  V30 726 N 67.9926 0.231505 -1.5589 0
M  V30 727 C 69.2386 0.95877 -1.78705 0
M  V30 728 C 69.5716 1.8438 -0.609725 0
M  V30 729 O 68.8466 1.90521 0.391426 0
M  V30 730 C 69.1296 1.8062 -3.11526 0
M  V30 731 C 68.9826 0.948328 -4.39689 0
M  V30 732 C 70.3016 2.78585 -3.40703 0
M  V30 733 H 67.4206 0.347129 -0.650131 0
M  V30 734 H 70.0626 0.228259 -1.88624 0
M  V30 735 H 68.2126 2.42902 -3.03201 0
M  V30 736 H 69.8846 0.343016 -4.60023 0
M  V30 737 H 68.1276 0.253314 -4.3306 0
M  V30 738 H 68.7986 1.57543 -5.29041 0
M  V30 739 H 71.2746 2.26439 -3.49091 0
M  V30 740 H 70.1506 3.34988 -4.34826 0
M  V30 741 H 70.4116 3.55825 -2.62375 0
M  V30 742 N 69.4707 1.49531 0.497807 0
M  V30 743 C 70.7197 1.58426 1.24837 0
M  V30 744 C 71.0327 0.277643 1.93619 0
M  V30 745 O 72.2387 0.24517 2.70391 0
M  V30 746 C 70.6947 2.79538 2.26686 0
M  V30 747 C 70.3027 4.16971 1.63828 0
M  V30 748 C 72.0467 2.97764 3.0255 0
M  V30 749 C 69.9537 5.29301 2.63807 0
M  V30 750 H 68.8837 0.58989 0.469623 0
M  V30 751 H 71.5347 1.75923 0.521857 0
M  V30 752 H 69.9167 2.55542 3.02514 0
M  V30 753 H 71.0907 4.51116 0.939711 0
M  V30 754 H 69.4057 4.04129 1.00342 0
M  V30 755 H 72.0027 3.78856 3.77323 0
M  V30 756 H 72.3457 2.08448 3.60354 0
M  V30 757 H 72.8787 3.21815 2.33838 0
M  V30 758 H 69.6177 6.20687 2.10779 0
M  V30 759 H 69.1377 4.99606 3.31894 0
M  V30 760 H 70.8167 5.58768 3.2617 0
M  V30 761 N 70.9488 -0.749086 1.3866 0
M  V30 762 C 72.3598 -1.32664 1.31366 0
M  V30 763 C 72.7108 -1.96179 -0.028484 0
M  V30 764 O 71.8358 -1.9537 -0.93057 0
M  V30 765 C 72.4308 -2.41219 2.37905 0
M  V30 766 C 70.9898 -2.94684 2.34176 0
M  V30 767 C 70.1368 -1.68108 2.20533 0
M  V30 768 H 73.0878 -0.547628 1.48952 0
M  V30 769 H 73.1088 -3.21268 2.0388 0
M  V30 770 H 72.6208 -1.94962 3.35576 0
M  V30 771 H 70.7218 -3.45258 1.401 0
M  V30 772 H 70.8348 -3.48757 3.2849 0
M  V30 773 H 69.1988 -1.91907 1.67463 0
M  V30 774 H 69.9818 -1.23923 3.20153 0
M  V30 775 N 72.4269 -1.23603 -0.977757 0
M  V30 776 C 73.3369 -1.03632 -2.1047 0
M  V30 777 C 74.3529 0.0199435 -1.73989 0
M  V30 778 O 75.5289 -0.176076 -2.00629 0
M  V30 779 C 72.5939 -0.63276 -3.40877 0
M  V30 780 C 71.6549 -1.76437 -3.91367 0
M  V30 781 C 70.8879 -1.37997 -5.15551 0
M  V30 782 O 71.1109 -0.265357 -5.69782 0
M  V30 783 O 70.0449 -2.20201 -5.60174 0
M  V30 784 H 73.8709 -1.98086 -2.30208 0
M  V30 785 H 71.4559 -1.02332 -1.08851 0
M  V30 786 H 73.3379 -0.418761 -4.19314 0
M  V30 787 H 72.0129 0.282754 -3.22463 0
M  V30 788 H 70.9199 -2.03304 -3.14036 0
M  V30 789 H 72.2529 -2.6583 -4.14241 0
M  V30 790 N 73.905 1.17692 -1.04816 0
M  V30 791 C 75.321 1.39863 -0.768794 0
M  V30 792 C 75.521 1.91118 0.638451 0
M  V30 793 O 74.577 2.10036 1.40146 0
M  V30 794 C 75.89 2.39274 -1.82122 0
M  V30 795 C 77.438 2.52987 -1.843 0
M  V30 796 C 77.913 3.55669 -2.88555 0
M  V30 797 N 79.404 3.63183 -2.87493 0
M  V30 798 C 80.139 4.42381 -3.64811 0
M  V30 799 N 79.635 5.25125 -4.51903 0
M  V30 800 N 81.428 4.37217 -3.53267 0
M  V30 801 H 73.579 0.82752 -1.95617 0
M  V30 802 H 75.842 0.426123 -0.846831 0
M  V30 803 H 75.548 2.08678 -2.83102 0
M  V30 804 H 75.422 3.38725 -1.65967 0
M  V30 805 H 77.809 2.82896 -0.839869 0
M  V30 806 H 77.89 1.53623 -2.04532 0
M  V30 807 H 77.534 3.26499 -3.89051 0
M  V30 808 H 77.464 4.54728 -2.65575 0
M  V30 809 H 79.955 3.04103 -2.24343 0
M  V30 810 H 80.268 5.82728 -5.07591 0
M  V30 811 H 78.613 5.24519 -4.55966 0
M  V30 812 H 81.804 3.71626 -2.84625 0
M  V30 813 H 81.977 4.98696 -4.13771 0
M  V30 814 N 75.3831 0.828654 1.34056 0
M  V30 815 C 76.7991 0.515135 1.51058 0
M  V30 816 C 76.9991 -0.959581 1.77184 0
M  V30 817 O 76.0551 -1.74382 1.82612 0
M  V30 818 C 77.3681 1.37963 2.67183 0
M  V30 819 C 78.9161 1.37735 2.81066 0
M  V30 820 C 79.3911 2.22645 4.00241 0
M  V30 821 N 80.8821 2.203 4.07458 0
M  V30 822 C 81.6171 2.82744 4.98842 0
M  V30 823 N 81.1131 3.54201 5.9541 0
M  V30 824 N 82.9061 2.72268 4.91759 0
M  V30 825 H 75.0571 1.78343 1.15358 0
M  V30 826 H 77.3201 0.760304 0.566252 0
M  V30 827 H 77.0261 2.42714 2.54525 0
M  V30 828 H 76.9001 1.0484 3.62338 0
M  V30 829 H 79.2871 0.337593 2.93163 0
M  V30 830 H 79.3681 1.74859 1.86703 0
M  V30 831 H 79.0121 3.26674 3.88905 0
M  V30 832 H 78.9421 1.82869 4.93829 0
M  V30 833 H 81.4331 1.68327 3.38341 0
M  V30 834 H 81.7461 3.9908 6.61782 0
M  V30 835 H 80.0911 3.58308 5.95517 0
M  V30 836 H 83.2821 2.16014 4.15278 0
M  V30 837 H 83.4551 3.21219 5.62781 0
M  V30 838 N 76.8612 -1.46375 0.584142 0
M  V30 839 C 77.7942 -2.27351 -0.196676 0
M  V30 840 C 78.7722 -1.35715 -0.895561 0
M  V30 841 O 79.9562 -1.65126 -0.90916 0
M  V30 842 C 77.0832 -3.13486 -1.28235 0
M  V30 843 C 76.1292 -4.20896 -0.689145 0
M  V30 844 S 76.9622 -5.33299 0.48507 0
M  V30 845 C 78.1182 -6.23 -0.601767 0
M  V30 846 H 78.3512 -2.93228 0.490395 0
M  V30 847 H 75.8842 -1.49875 0.371071 0
M  V30 848 H 77.8422 -3.63676 -1.90395 0
M  V30 849 H 76.5032 -2.4692 -1.94138 0
M  V30 850 H 75.6962 -4.80997 -1.50527 0
M  V30 851 H 75.2982 -3.73726 -0.143181 0
M  V30 852 H 77.5902 -6.60979 -1.48705 0
M  V30 853 H 78.5332 -7.0809 -0.0374799 0
M  V30 854 H 78.9412 -5.57173 -0.906557 0
M  V30 855 N 78.3393 -0.321999 -1.54275 0
M  V30 856 C 79.2893 0.560185 -2.21011 0
M  V30 857 C 80.2733 1.08283 -1.19011 0
M  V30 858 O 81.4653 1.02011 -1.44647 0
M  V30 859 C 78.5943 1.72137 -2.97025 0
M  V30 860 C 77.6803 1.21369 -4.06363 0
M  V30 861 N 78.0713 0.425566 -5.04007 0
M  V30 862 C 76.3693 1.49255 -4.20284 0
M  V30 863 C 77.0703 0.152601 -5.815 0
M  V30 864 N 76.0463 0.738294 -5.38563 0
M  V30 865 H 79.8483 -0.049265 -2.93859 0
M  V30 866 H 77.3623 -0.127779 -1.61897 0
M  V30 867 H 79.3593 2.36512 -3.43319 0
M  V30 868 H 78.0193 2.33431 -2.25699 0
M  V30 869 H 79.0303 0.068551 -5.17855 0
M  V30 870 H 75.7073 2.11145 -3.60172 0
M  V30 871 H 77.0973 -0.481764 -6.70171 0
M  V30 872 N 79.8174 1.5752 -0.0501392 0
M  V30 873 C 80.7804 2.1037 0.909786 0
M  V30 874 C 81.7804 1.02308 1.24056 0
M  V30 875 O 82.9704 1.28385 1.17741 0
M  V30 876 C 80.1024 2.58708 2.21998 0
M  V30 877 H 81.2954 2.96479 0.451665 0
M  V30 878 H 78.8484 1.55038 0.198248 0
M  V30 879 H 79.5834 1.75989 2.72394 0
M  V30 880 H 79.3684 3.37675 1.99295 0
M  V30 881 H 80.8584 2.99747 2.9076 0
M  V30 882 N 81.2955 -0.223234 1.56011 0
M  V30 883 C 82.2425 -1.27664 1.92277 0
M  V30 884 C 83.2125 -1.46659 0.779763 0
M  V30 885 O 84.3975 -1.60256 1.03551 0
M  V30 886 C 81.5375 -2.62234 2.24338 0
M  V30 887 C 80.6505 -2.51051 3.51564 0
M  V30 888 C 79.7855 -3.78133 3.7308 0
M  V30 889 C 78.8245 -3.61665 4.93827 0
M  V30 890 N 77.9615 -4.80693 5.11741 0
M  V30 891 H 82.8015 -0.960358 2.82101 0
M  V30 892 H 80.3385 -0.462901 1.39627 0
M  V30 893 H 82.2965 -3.40596 2.40936 0
M  V30 894 H 80.9265 -2.91961 1.3769 0
M  V30 895 H 79.9785 -1.64132 3.43169 0
M  V30 896 H 81.2905 -2.34803 4.40079 0
M  V30 897 H 80.4445 -4.64938 3.89766 0
M  V30 898 H 79.1835 -3.97304 2.82844 0
M  V30 899 H 78.1885 -2.73244 4.77093 0
M  V30 900 H 79.4135 -3.43966 5.85546 0
M  V30 901 H 77.3595 -5.00181 4.24446 0
M  V30 902 H 77.2765 -4.67165 5.94384 0
M  V30 903 H 78.5445 -5.6893 5.3286 0
M  V30 904 N 82.7736 -1.49793 -0.48987 0
M  V30 905 C 84.0216 -1.59525 -1.24081 0
M  V30 906 C 84.3426 -0.288953 -1.92847 0
M  V30 907 O 83.6126 0.692436 -1.83254 0
M  V30 908 H 82.1926 -0.587796 -0.460983 0
M  V30 909 H 84.8546 -1.86477 -0.566778 0
M  V30 910 H 83.9506 -2.39696 -1.99881 0
M  V30 911 N 84.2517 0.741722 -1.39055 0
M  V30 912 C 85.4767 1.53607 -1.39354 0
M  V30 913 C 85.9017 1.88096 0.0116905 0
M  V30 914 O 85.2597 1.5143 0.996924 0
M  V30 915 C 85.3077 2.80441 -2.26682 0
M  V30 916 O 84.4117 3.76088 -1.69208 0
M  V30 917 H 83.7527 0.464142 -0.474835 0
M  V30 918 H 86.2827 0.915665 -1.82967 0
M  V30 919 H 86.2927 3.29246 -2.40959 0
M  V30 920 H 84.9677 2.5467 -3.2881 0
M  V30 921 H 83.5447 3.34833 -1.64138 0
M  V30 922 N 85.7298 1.2412 0.971189 0
M  V30 923 C 86.9778 1.07668 1.71032 0
M  V30 924 C 87.2988 -0.385797 1.91146 0
M  V30 925 O 86.5688 -1.27569 1.4867 0
M  V30 926 H 85.1488 0.395429 0.633755 0
M  V30 927 H 87.8108 1.55984 1.16855 0
M  V30 928 H 86.9068 1.57195 2.69622 0
M  V30 929 N 87.2079 -1.17134 1.05439 0
M  V30 930 C 88.1709 -2.19439 0.661764 0
M  V30 931 C 89.1709 -1.58199 -0.288042 0
M  V30 932 O 90.3609 -1.74053 -0.0715803 0
M  V30 933 C 87.4929 -3.40889 -0.0276209 0
M  V30 934 H 88.6859 -2.55688 1.56728 0
M  V30 935 H 86.2389 -1.31259 0.848567 0
M  V30 936 H 86.9739 -3.10187 -0.94629 0
M  V30 937 H 86.7589 -3.86586 0.655238 0
M  V30 938 H 88.2489 -4.16603 -0.288342 0
M  V30 939 N 88.686 -0.835752 -1.33615 0
M  V30 940 C 89.933 -0.429959 -1.97883 0
M  V30 941 C 90.261 1.01006 -1.66217 0
M  V30 942 O 89.516 1.72047 -0.93265 0
M  V30 943 C 89.815 -0.593925 -3.52431 0
M  V30 944 C 89.481 -2.00158 -4.04039 0
M  V30 945 C 88.143 -2.38662 -4.17844 0
M  V30 946 C 90.495 -2.92117 -4.31644 0
M  V30 947 C 87.823 -3.68435 -4.56588 0
M  V30 948 C 90.175 -4.21368 -4.71838 0
M  V30 949 C 88.839 -4.59833 -4.83849 0
M  V30 950 H 88.109 -0.157333 -0.724104 0
M  V30 951 H 90.756 -1.06217 -1.59343 0
M  V30 952 H 89.061 0.121619 -3.91611 0
M  V30 953 H 90.758 -0.260282 -4.00154 0
M  V30 954 H 87.348 -1.69252 -3.93766 0
M  V30 955 H 91.532 -2.63608 -4.20505 0
M  V30 956 H 86.788 -3.98046 -4.64079 0
M  V30 957 H 90.962 -4.92703 -4.92155 0
M  V30 958 H 88.589 -5.60438 -5.13627 0
M  V30 959 N 90.1641 1.46063 -0.591896 0
M  V30 960 C 91.4121 2.01938 -0.0808391 0
M  V30 961 C 91.7331 1.46475 1.28725 0
M  V30 962 O 91.0031 0.652944 1.84698 0
M  V30 963 H 89.5831 0.746516 -0.0268938 0
M  V30 964 H 92.2451 1.79055 -0.769752 0
M  V30 965 H 91.3411 3.12094 -0.0187578 0
M  V30 966 N 91.6422 0.330177 1.54103 0
M  V30 967 C 92.8702 -0.272179 2.05102 0
M  V30 968 C 93.2852 -1.45267 1.20595 0
M  V30 969 O 92.6422 -1.8094 0.238144 0
M  V30 970 C 92.6932 -0.70023 3.54653 0
M  V30 971 O 92.4142 0.433301 4.35952 0
M  V30 972 C 93.9152 -1.3647 4.21771 0
M  V30 973 H 91.1352 -0.0549159 0.668749 0
M  V30 974 H 93.6792 0.478285 1.98828 0
M  V30 975 H 91.8342 -1.40066 3.61193 0
M  V30 976 H 92.2482 0.0947539 5.24414 0
M  V30 977 H 93.7222 -1.61509 5.27843 0
M  V30 978 H 94.1992 -2.31409 3.73292 0
M  V30 979 H 94.8052 -0.706675 4.19388 0
M  V30 980 N 93.1203 -1.57491 0.0584922 0
M  V30 981 C 94.3673 -1.92978 -0.613648 0
M  V30 982 C 94.6953 -0.937461 -1.70417 0
M  V30 983 O 93.9503 0.049078 -1.95638 0
M  V30 984 C 94.2493 -3.3513 -1.24188 0
M  V30 985 C 93.9153 -4.50037 -0.278826 0
M  V30 986 C 92.5773 -4.81198 -0.0138447 0
M  V30 987 C 94.9293 -5.19807 0.380777 0
M  V30 988 C 92.2573 -5.79473 0.918052 0
M  V30 989 C 94.6093 -6.19079 1.30091 0
M  V30 990 C 93.2733 -6.48665 1.57449 0
M  V30 991 H 92.5433 -0.706157 -0.22455 0
M  V30 992 H 95.1903 -1.91082 0.126533 0
M  V30 993 H 93.4953 -3.33429 -2.05749 0
M  V30 994 H 95.1923 -3.59871 -1.769 0
M  V30 995 H 91.7823 -4.25726 -0.495539 0
M  V30 996 H 95.9663 -4.95939 0.189158 0
M  V30 997 H 91.2223 -6.00727 1.1374 0
M  V30 998 H 95.3963 -6.7225 1.81804 0
M  V30 999 H 93.0233 -7.24628 2.29822 0
M  V30 1000 N 94.5984 0.214957 -1.56127 0
M  V30 1001 C 95.8264 0.955092 -1.83536 0
M  V30 1002 C 96.2414 1.77677 -0.638472 0
M  V30 1003 O 95.5984 1.78219 0.392968 0
M  V30 1004 C 95.6494 1.86734 -3.09536 0
M  V30 1005 O 95.3704 1.07887 -4.24608 0
M  V30 1006 C 96.8714 2.72082 -3.4998 0
M  V30 1007 H 94.0914 0.279611 -0.609966 0
M  V30 1008 H 96.6354 0.228197 -2.03223 0
M  V30 1009 H 94.7904 2.5481 -2.91806 0
M  V30 1010 H 95.2044 1.69872 -4.9623 0
M  V30 1011 H 96.6784 3.31782 -4.41163 0
M  V30 1012 H 97.1554 3.44806 -2.7204 0
M  V30 1013 H 97.7614 2.09409 -3.70173 0
M  V30 1014 N 96.0765 1.50051 0.48192 0
M  V30 1015 C 97.3225 1.60736 1.2366 0
M  V30 1016 C 97.6555 0.301786 1.91841 0
M  V30 1017 O 96.9305 -0.696025 1.8162 0
M  V30 1018 C 97.2135 2.78009 2.28874 0
M  V30 1019 C 97.0665 4.18416 1.65069 0
M  V30 1020 C 98.3855 2.90867 3.30279 0
M  V30 1021 H 95.5045 0.585031 0.448228 0
M  V30 1022 H 98.1465 1.82402 0.531946 0
M  V30 1023 H 96.2965 2.59667 2.88973 0
M  V30 1024 H 97.9685 4.48322 1.0865 0
M  V30 1025 H 96.2115 4.23177 0.954148 0
M  V30 1026 H 96.8825 4.96381 2.41474 0
M  V30 1027 H 99.3585 3.07623 2.80191 0
M  V30 1028 H 98.2345 3.74566 4.01238 0
M  V30 1029 H 98.4955 2.01021 3.93755 0
M  V30 1030 N 97.5546 -0.734337 1.39446 0
M  V30 1031 C 98.7826 -1.52358 1.39981 0
M  V30 1032 C 99.1976 -1.88799 -0.0054975 0
M  V30 1033 O 98.5546 -1.54146 -0.976998 0
M  V30 1034 C 98.6056 -2.81072 2.27333 0
M  V30 1035 O 98.3266 -2.46178 3.62392 0
M  V30 1036 C 99.8276 -3.75096 2.36259 0
M  V30 1037 H 97.0476 -0.470806 0.478103 0
M  V30 1038 H 99.5916 -0.907339 1.83269 0
M  V30 1039 H 97.7466 -3.39026 1.87457 0
M  V30 1040 H 98.1606 -3.28866 4.08592 0
M  V30 1041 H 99.6346 -4.62305 3.01626 0
M  V30 1042 H 100.112 -4.16892 1.38194 0
M  V30 1043 H 100.718 -3.23061 2.76608 0
M  V30 1044 N 99.0327 -1.24633 -0.964593 0
M  V30 1045 C 99.9827 -1.00841 -2.04487 0
M  V30 1046 C 100.967 0.0512468 -1.60818 0
M  V30 1047 O 102.159 -0.162865 -1.76249 0
M  V30 1048 C 99.2877 -0.618474 -3.37683 0
M  V30 1049 C 98.3737 -1.71437 -3.87905 0
M  V30 1050 N 98.7647 -2.9477 -4.11029 0
M  V30 1051 C 97.0627 -1.5926 -4.16596 0
M  V30 1052 C 97.7637 -3.65834 -4.52261 0
M  V30 1053 N 96.7397 -2.9341 -4.57615 0
M  V30 1054 H 100.542 -1.94487 -2.20345 0
M  V30 1055 H 98.0557 -1.14805 -1.14863 0
M  V30 1056 H 100.053 -0.429247 -4.14684 0
M  V30 1057 H 98.7127 0.310766 -3.23209 0
M  V30 1058 H 99.7237 -3.30917 -3.9839 0
M  V30 1059 H 96.4007 -0.731606 -4.1104 0
M  V30 1060 H 97.7907 -4.71646 -4.78539 0
M  V30 1061 N 100.511 1.16574 -1.06058 0
M  V30 1062 C 101.788 1.83048 -0.689416 0
M  V30 1063 C 102.168 1.94122 0.829443 0
M  V30 1064 O 101.516 1.48249 1.7388 0
M  V30 1065 C 101.726 3.20186 -1.38859 0
M  V30 1066 C 103.074 3.95989 -1.53226 0
M  V30 1067 O 104.098 3.29696 -1.3483 0
M  V30 1068 O 102.957 5.14813 -1.83384 0
M  V30 1069 H 100.051 0.790258 -0.243764 0
M  V30 1070 H 102.597 1.23797 -1.16071 0
M  V30 1071 H 101.369 3.07146 -2.4244 0
M  V30 1072 H 100.992 3.87112 -0.907216 0
M  V30 1073 N 101.989 0.842826 1.3317 0
M  V30 1074 C 103.238 0.436738 1.96915 0
M  V30 1075 C 103.551 -1.01025 1.67491 0
M  V30 1076 O 104.757 -1.5212 2.24881 0
M  V30 1077 C 103.213 0.730021 3.52418 0
M  V30 1078 C 102.821 2.19195 3.90714 0
M  V30 1079 C 104.565 0.391076 4.22695 0
M  V30 1080 C 102.472 2.42907 5.39212 0
M  V30 1081 H 101.402 0.15958 0.736919 0
M  V30 1082 H 104.053 1.03196 1.51733 0
M  V30 1083 H 102.435 0.0643755 3.95948 0
M  V30 1084 H 103.609 2.8984 3.58231 0
M  V30 1085 H 101.924 2.49425 3.33431 0
M  V30 1086 H 104.521 0.545817 5.31907 0
M  V30 1087 H 104.864 -0.666294 4.10933 0
M  V30 1088 H 105.397 1.01212 3.84709 0
M  V30 1089 H 102.136 3.47224 5.55982 0
M  V30 1090 H 101.656 1.76827 5.73142 0
M  V30 1091 H 103.335 2.2626 6.06148 0
M  V30 1092 N 103.467 -1.45747 0.599634 0
M  V30 1093 C 104.695 -2.06668 0.0978551 0
M  V30 1094 C 105.11 -1.44562 -1.21439 0
M  V30 1095 O 104.467 -0.556923 -1.73795 0
M  V30 1096 C 104.518 -3.61456 -0.0567044 0
M  V30 1097 O 104.239 -4.21242 1.20361 0
M  V30 1098 C 105.74 -4.39345 -0.590869 0
M  V30 1099 H 102.96 -0.667825 0.0651943 0
M  V30 1100 H 105.504 -1.87115 0.82511 0
M  V30 1101 H 103.659 -3.80378 -0.734251 0
M  V30 1102 H 104.073 -5.14323 1.02821 0
M  V30 1103 H 105.547 -5.48182 -0.648131 0
M  V30 1104 H 106.024 -4.08568 -1.61147 0
M  V30 1105 H 106.63 -4.25268 0.0523679 0
M  V30 1106 N 104.945 -0.338344 -1.53925 0
M  V30 1107 C 105.892 0.520845 -2.24846 0
M  V30 1108 C 106.862 1.09976 -1.24477 0
M  V30 1109 O 108.047 1.13735 -1.53196 0
M  V30 1110 C 105.187 1.6685 -3.02084 0
M  V30 1111 C 104.3 1.11739 -4.17299 0
M  V30 1112 C 103.435 2.23193 -4.82036 0
M  V30 1113 C 102.474 1.65407 -5.89328 0
M  V30 1114 N 101.611 2.70582 -6.47866 0
M  V30 1115 H 106.451 -0.0904881 -2.97863 0
M  V30 1116 H 103.988 -0.0564282 -1.46992 0
M  V30 1117 H 105.946 2.34407 -3.45122 0
M  V30 1118 H 104.576 2.2509 -2.31375 0
M  V30 1119 H 103.628 0.332919 -3.7894 0
M  V30 1120 H 104.94 0.654677 -4.94485 0
M  V30 1121 H 104.094 2.98626 -5.28117 0
M  V30 1122 H 102.833 2.72807 -4.04262 0
M  V30 1123 H 101.838 0.884779 -5.42634 0
M  V30 1124 H 103.063 1.16652 -6.69006 0
M  V30 1125 H 101.009 3.1946 -5.72959 0
M  V30 1126 H 100.926 2.28917 -7.20509 0
M  V30 1127 H 102.194 3.45799 -6.98601 0
M  V30 1128 N 106.423 1.57458 -0.0668435 0
M  V30 1129 C 107.653 1.97337 0.611677 0
M  V30 1130 C 108.061 0.943744 1.63982 0
M  V30 1131 O 107.404 -0.0785584 1.83532 0
M  V30 1132 C 107.466 3.33511 1.34205 0
M  V30 1133 C 107.13 4.54598 0.467941 0
M  V30 1134 C 108.127 5.19186 -0.272439 0
M  V30 1135 C 105.812 5.0075 0.39427 0
M  V30 1136 C 107.806 6.28274 -1.07476 0
M  V30 1137 C 105.493 6.09711 -0.411729 0
M  V30 1138 C 106.491 6.73335 -1.14492 0
M  V30 1139 O 106.179 7.80199 -1.93763 0
M  V30 1140 H 105.911 0.654042 0.170893 0
M  V30 1141 H 108.465 2.04961 -0.134289 0
M  V30 1142 H 106.695 3.22487 2.13398 0
M  V30 1143 H 108.384 3.58029 1.91233 0
M  V30 1144 H 109.15 4.84477 -0.225086 0
M  V30 1145 H 105.029 4.51009 0.954569 0
M  V30 1146 H 108.573 6.77866 -1.64755 0
M  V30 1147 H 104.47 6.43854 -0.460664 0
M  V30 1148 H 105.238 7.97053 -1.86142 0
M  V30 1149 N 107.901 -0.206675 1.56239 0
M  V30 1150 C 109.129 -0.945345 1.8404 0
M  V30 1151 C 109.544 -1.77336 0.647885 0
M  V30 1152 O 108.901 -1.78425 -0.383511 0
M  V30 1153 C 108.952 -1.8509 3.10522 0
M  V30 1154 O 108.673 -1.05634 4.25174 0
M  V30 1155 C 110.174 -2.70222 3.51418 0
M  V30 1156 H 107.394 -0.276372 0.61144 0
M  V30 1157 H 109.938 -0.217417 2.03341 0
M  V30 1158 H 108.093 -2.53259 2.93153 0
M  V30 1159 H 108.507 -1.67238 4.97124 0
M  V30 1160 H 109.981 -3.29438 4.42916 0
M  V30 1161 H 110.458 -3.43358 2.73864 0
M  V30 1162 H 111.064 -2.07443 3.71278 0
M  V30 1163 N 109.379 -1.50304 -0.473955 0
M  V30 1164 C 110.795 -1.37667 -0.807466 0
M  V30 1165 C 110.995 -0.430555 -1.96846 0
M  V30 1166 O 110.051 0.127874 -2.52176 0
M  V30 1167 C 111.364 -2.78974 -1.12223 0
M  V30 1168 C 112.912 -2.87868 -1.22885 0
M  V30 1169 C 113.387 -4.30003 -1.57676 0
M  V30 1170 N 114.878 -4.3294 -1.64673 0
M  V30 1171 C 115.613 -5.3991 -1.93091 0
M  V30 1172 N 115.109 -6.57092 -2.1955 0
M  V30 1173 N 116.902 -5.27351 -1.94569 0
M  V30 1174 H 109.053 -2.10394 0.291212 0
M  V30 1175 H 111.316 -0.945575 0.0677609 0
M  V30 1176 H 111.022 -3.50031 -0.342229 0
M  V30 1177 H 110.896 -3.16038 -2.05913 0
M  V30 1178 H 113.283 -2.17032 -1.99953 0
M  V30 1179 H 113.364 -2.54352 -0.271814 0
M  V30 1180 H 113.008 -5.01375 -0.81149 0
M  V30 1181 H 112.938 -4.61004 -2.54525 0
M  V30 1182 H 115.429 -3.48441 -1.46277 0
M  V30 1183 H 115.742 -7.34425 -2.405 0
M  V30 1184 H 114.087 -6.60272 -2.16948 0
M  V30 1185 H 117.278 -4.34801 -1.73394 0
M  V30 1186 H 117.451 -6.10805 -2.16381 0
M  V30 1187 N 110.857 0.726932 -1.39834 0
M  V30 1188 C 111.82 1.82269 -1.38962 0
M  V30 1189 C 112.82 1.58248 -0.285334 0
M  V30 1190 O 114.01 1.65499 -0.54366 0
M  V30 1191 C 111.142 3.20186 -1.17019 0
M  V30 1192 H 112.335 1.84443 -2.36476 0
M  V30 1193 H 109.888 0.931416 -1.25516 0
M  V30 1194 H 110.623 3.23669 -0.202204 0
M  V30 1195 H 110.408 3.3902 -1.96998 0
M  V30 1196 H 111.898 4.00235 -1.1917 0
M  V30 1197 N 112.336 1.25143 0.95797 0
M  V30 1198 C 113.283 1.05235 2.05412 0
M  V30 1199 C 114.253 -0.0374561 1.66058 0
M  V30 1200 O 115.438 0.119073 1.90428 0
M  V30 1201 C 112.578 0.673589 3.38462 0
M  V30 1202 C 111.691 1.8379 3.90954 0
M  V30 1203 C 110.826 1.40381 5.12315 0
M  V30 1204 C 109.865 2.53746 5.57027 0
M  V30 1205 N 109.002 2.11136 6.69601 0
M  V30 1206 H 113.842 1.99048 2.21774 0
M  V30 1207 H 111.379 0.991277 1.08683 0
M  V30 1208 H 113.337 0.434964 4.14926 0
M  V30 1209 H 111.967 -0.227554 3.21997 0
M  V30 1210 H 111.019 2.18992 3.11041 0
M  V30 1211 H 112.331 2.68937 4.20089 0
M  V30 1212 H 111.485 1.12464 5.96185 0
M  V30 1213 H 110.224 0.523015 4.84887 0
M  V30 1214 H 109.229 2.82412 4.71724 0
M  V30 1215 H 110.454 3.42398 5.86464 0
M  V30 1216 H 108.4 1.25468 6.4389 0
M  V30 1217 H 108.317 2.89832 6.98236 0
M  V30 1218 H 109.585 1.86385 7.56889 0
M  V30 1219 N 113.814 -1.1601 1.06675 0
M  V30 1220 C 115.063 -1.85973 0.780818 0
M  V30 1221 C 115.376 -1.82819 -0.695444 0
M  V30 1222 O 116.582 -2.484 -1.09589 0
M  V30 1223 C 115.038 -3.33757 1.34665 0
M  V30 1224 C 114.646 -3.45374 2.85343 0
M  V30 1225 C 116.39 -4.0895 1.13843 0
M  V30 1226 C 114.297 -4.87266 3.35151 0
M  V30 1227 H 113.227 -0.696661 0.288407 0
M  V30 1228 H 115.878 -1.30903 1.28595 0
M  V30 1229 H 114.26 -3.88456 0.769274 0
M  V30 1230 H 115.434 -3.00816 3.49065 0
M  V30 1231 H 113.749 -2.83619 3.04876 0
M  V30 1232 H 116.346 -5.13654 1.4854 0
M  V30 1233 H 116.689 -4.16229 0.0770282 0
M  V30 1234 H 117.222 -3.605 1.68179 0
M  V30 1235 H 113.961 -4.85168 4.40786 0
M  V30 1236 H 113.481 -5.32433 2.76179 0
M  V30 1237 H 115.16 -5.56097 3.30704 0
M  V30 1238 N 115.292 -0.849877 -1.32721 0
M  V30 1239 C 116.539 -0.450923 -1.97416 0
M  V30 1240 C 116.867 0.992376 -1.67279 0
M  V30 1241 O 116.122 1.71048 -0.950845 0
M  V30 1242 C 116.421 -0.631272 -3.51781 0
M  V30 1243 C 116.087 -2.04432 -4.01894 0
M  V30 1244 C 114.749 -2.4308 -4.1529 0
M  V30 1245 C 117.101 -2.96679 -4.28522 0
M  V30 1246 C 114.429 -3.73257 -4.52654 0
M  V30 1247 C 116.781 -4.26349 -4.67343 0
M  V30 1248 C 115.445 -4.64939 -4.78945 0
M  V30 1249 H 114.715 -0.165004 -0.722395 0
M  V30 1250 H 117.362 -1.07901 -1.58207 0
M  V30 1251 H 115.667 0.0800767 -3.91718 0
M  V30 1252 H 117.364 -0.302709 -3.99856 0
M  V30 1253 H 113.954 -1.73419 -3.91949 0
M  V30 1254 H 118.138 -2.68054 -4.17685 0
M  V30 1255 H 113.394 -4.02946 -4.59831 0
M  V30 1256 H 117.568 -4.97895 -4.86902 0
M  V30 1257 H 115.195 -5.65855 -5.07654 0
M  V30 1258 N 116.77 1.45427 -0.607355 0
M  V30 1259 C 117.995 2.07124 -0.107006 0
M  V30 1260 C 118.42 1.44906 1.19933 0
M  V30 1261 O 117.778 0.541687 1.73019 0
M  V30 1262 C 117.826 3.60595 0.0194119 0
M  V30 1263 O 116.93 3.98285 1.0697 0
M  V30 1264 H 116.271 0.659868 -0.0739597 0
M  V30 1265 H 118.801 1.86683 -0.837297 0
M  V30 1266 H 118.811 4.07419 0.2177 0
M  V30 1267 H 117.486 4.05266 -0.934453 0
M  V30 1268 H 116.063 3.63133 0.847889 0
M  V30 1269 N 118.248 0.346503 1.53744 0
M  V30 1270 C 119.158 -0.517293 2.28826 0
M  V30 1271 C 120.174 -1.10935 1.3405 0
M  V30 1272 O 121.35 -1.1244 1.6709 0
M  V30 1273 C 118.415 -1.65098 3.04866 0
M  V30 1274 C 117.476 -1.0884 4.15274 0
M  V30 1275 C 116.709 -2.16806 4.87679 0
M  V30 1276 O 116.932 -3.3758 4.59778 0
M  V30 1277 O 115.866 -1.80934 5.74061 0
M  V30 1278 H 119.692 0.0931396 3.03557 0
M  V30 1279 H 117.277 0.111458 1.48984 0
M  V30 1280 H 119.159 -2.31053 3.5241 0
M  V30 1281 H 117.834 -2.24717 2.32989 0
M  V30 1282 H 116.741 -0.3933 3.72027 0
M  V30 1283 H 118.074 -0.537036 4.89261 0
M  V30 1284 N 119.726 -1.57421 0.075193 0
M  V30 1285 C 120.972 -1.93905 -0.594025 0
M  V30 1286 C 121.305 -0.955701 -1.69056 0
M  V30 1287 O 120.58 0.0145373 -1.94495 0
M  V30 1288 C 120.863 -3.40638 -1.1678 0
M  V30 1289 C 120.716 -4.49733 -0.0776792 0
M  V30 1290 C 122.035 -3.88259 -2.07228 0
M  V30 1291 H 119.154 -0.705105 -0.214466 0
M  V30 1292 H 121.796 -1.8947 0.141854 0
M  V30 1293 H 119.946 -3.44549 -1.79494 0
M  V30 1294 H 121.618 -4.57942 0.555573 0
M  V30 1295 H 119.861 -4.29751 0.591286 0
M  V30 1296 H 120.532 -5.49549 -0.519603 0
M  V30 1297 H 123.008 -3.86376 -1.54445 0
M  V30 1298 H 121.884 -4.91533 -2.44308 0
M  V30 1299 H 122.145 -3.26396 -2.98191 0
M  V30 1300 N 121.204 0.198386 -1.56346 0
M  V30 1301 C 122.452 0.91747 -1.80075 0
M  V30 1302 C 122.773 1.83929 -0.647692 0
M  V30 1303 O 122.043 1.93029 0.334166 0
M  V30 1304 H 120.623 0.341774 -0.664228 0
M  V30 1305 H 123.285 0.204684 -1.93822 0
M  V30 1306 H 122.381 1.51055 -2.7311 0
M  V30 1307 N 122.682 1.50554 0.465978 0
M  V30 1308 C 123.629 1.6979 1.56333 0
M  V30 1309 C 124.599 0.539239 1.57103 0
M  V30 1310 O 125.784 0.770401 1.74555 0
M  V30 1311 C 122.924 1.80273 2.94271 0
M  V30 1312 C 122.037 3.07674 3.0325 0
M  V30 1313 C 121.172 3.08922 4.32135 0
M  V30 1314 C 120.211 4.30755 4.34875 0
M  V30 1315 N 119.348 4.29714 5.55239 0
M  V30 1316 H 124.188 2.63472 1.39235 0
M  V30 1317 H 121.725 1.30602 0.676873 0
M  V30 1318 H 123.683 1.84332 3.74269 0
M  V30 1319 H 122.313 0.900258 3.09992 0
M  V30 1320 H 121.365 3.13062 2.16094 0
M  V30 1321 H 122.677 3.97642 3.01135 0
M  V30 1322 H 121.831 3.11738 5.20485 0
M  V30 1323 H 120.57 2.16792 4.36866 0
M  V30 1324 H 119.575 4.28146 3.44922 0
M  V30 1325 H 120.8 5.24117 4.31831 0
M  V30 1326 H 118.746 3.4044 5.60746 0
M  V30 1327 H 118.663 5.13456 5.54886 0
M  V30 1328 H 119.931 4.36683 6.457 0
M  V30 1329 N 124.16 -0.719506 1.40217 0
M  V30 1330 C 125.107 -1.83359 1.40172 0
M  V30 1331 C 126.077 -1.64065 0.259206 0
M  V30 1332 O 127.262 -1.85254 0.456677 0
M  V30 1333 C 124.402 -3.2103 1.26624 0
M  V30 1334 C 123.515 -3.51923 2.50548 0
M  V30 1335 C 122.65 -4.79079 2.29471 0
M  V30 1336 C 121.689 -5.02863 3.48992 0
M  V30 1337 N 120.826 -6.2123 3.27135 0
M  V30 1338 H 125.666 -1.82733 2.35399 0
M  V30 1339 H 123.203 -0.892688 1.16917 0
M  V30 1340 H 125.161 -4.00524 1.16776 0
M  V30 1341 H 123.791 -3.20895 0.350176 0
M  V30 1342 H 122.843 -2.67014 2.70939 0
M  V30 1343 H 124.155 -3.6541 3.39525 0
M  V30 1344 H 123.309 -5.66582 2.16955 0
M  V30 1345 H 122.048 -4.67794 1.37913 0
M  V30 1346 H 121.053 -4.13816 3.6199 0
M  V30 1347 H 122.278 -5.16023 4.41472 0
M  V30 1348 H 120.224 -6.11204 2.38256 0
M  V30 1349 H 120.141 -6.35375 4.09675 0
M  V30 1350 H 121.409 -7.11532 3.18344 0
M  V30 1351 N 125.638 -1.25649 -0.95132 0
M  V30 1352 C 126.866 -1.13343 -1.73092 0
M  V30 1353 C 127.281 0.312434 -1.86197 0
M  V30 1354 O 126.638 1.21465 -1.36207 0
M  V30 1355 C 126.689 -1.78602 -3.14299 0
M  V30 1356 O 126.41 -3.17537 -3.01831 0
M  V30 1357 C 127.911 -1.72119 -4.08522 0
M  V30 1358 H 125.131 -0.395181 -0.542285 0
M  V30 1359 H 127.675 -1.66076 -1.19328 0
M  V30 1360 H 125.83 -1.29832 -3.64996 0
M  V30 1361 H 126.244 -3.49676 -3.90931 0
M  V30 1362 H 127.718 -2.22435 -5.052 0
M  V30 1363 H 128.195 -0.685635 -4.33815 0
M  V30 1364 H 128.801 -2.20393 -3.63741 0
M  V30 1365 N 127.117 1.15442 -1.07289 0
M  V30 1366 C 128.027 2.23786 -0.704057 0
M  V30 1367 C 129.043 1.7166 0.284413 0
M  V30 1368 O 130.219 2.00972 0.131205 0
M  V30 1369 C 127.284 3.46535 -0.106792 0
M  V30 1370 C 126.345 4.13654 -1.14842 0
M  V30 1371 C 125.578 5.30544 -0.57956 0
M  V30 1372 O 125.801 5.67187 0.604585 0
M  V30 1373 O 124.735 5.87154 -1.32414 0
M  V30 1374 H 128.561 2.57664 -1.60757 0
M  V30 1375 H 126.146 1.23152 -0.845803 0
M  V30 1376 H 128.028 4.20804 0.224048 0
M  V30 1377 H 126.703 3.14407 0.770049 0
M  V30 1378 H 125.61 3.4131 -1.5316 0
M  V30 1379 H 126.943 4.49861 -1.99714 0
M  V30 1380 N 128.595 0.856903 1.32268 0
M  V30 1381 C 129.528 0.247937 2.26849 0
M  V30 1382 C 130.506 -0.615382 1.50505 0
M  V30 1383 O 131.69 -0.571689 1.79622 0
M  V30 1384 C 128.817 -0.650093 3.32403 0
M  V30 1385 C 127.863 0.140138 4.2627 0
M  V30 1386 S 128.696 1.51004 5.13769 0
M  V30 1387 C 129.852 0.61778 6.22844 0
M  V30 1388 H 130.085 1.04971 2.78152 0
M  V30 1389 H 127.618 0.654665 1.39834 0
M  V30 1390 H 129.576 -1.16256 3.93694 0
M  V30 1391 H 128.237 -1.4257 2.7988 0
M  V30 1392 H 127.43 -0.543945 5.01056 0
M  V30 1393 H 127.032 0.584267 3.69408 0
M  V30 1394 H 129.324 -0.177053 6.77269 0
M  V30 1395 H 130.267 1.33636 6.95375 0
M  V30 1396 H 130.675 0.191124 5.64176 0
M  V30 1397 N 130.073 -1.45103 0.615059 0
M  V30 1398 C 131.32 -2.02183 0.113179 0
M  V30 1399 C 131.648 -1.48249 -1.25906 0
M  V30 1400 O 130.903 -0.650265 -1.84581 0
M  V30 1401 C 131.202 -3.57386 0.0318797 0
M  V30 1402 C 130.868 -4.30505 1.34077 0
M  V30 1403 C 129.53 -4.50197 1.69929 0
M  V30 1404 C 131.882 -4.72238 2.20546 0
M  V30 1405 C 129.21 -5.08881 2.91988 0
M  V30 1406 C 131.562 -5.32272 3.41861 0
M  V30 1407 C 130.226 -5.50187 3.77956 0
M  V30 1408 H 129.496 -0.739842 0.0414151 0
M  V30 1409 H 132.143 -1.74073 0.798168 0
M  V30 1410 H 130.448 -3.84817 -0.736409 0
M  V30 1411 H 132.145 -3.99264 -0.372712 0
M  V30 1412 H 128.735 -4.15496 1.05173 0
M  V30 1413 H 132.919 -4.56751 1.94146 0
M  V30 1414 H 128.175 -5.20939 3.2005 0
M  V30 1415 H 132.349 -5.63563 4.09109 0
M  V30 1416 H 129.976 -5.95427 4.72622 0
M  V30 1417 N 131.551 -0.354651 -1.53558 0
M  V30 1418 C 132.514 0.484566 -2.24019 0
M  V30 1419 C 133.514 1.01861 -1.24422 0
M  V30 1420 O 134.704 0.906097 -1.4878 0
M  V30 1421 C 131.836 1.67615 -2.96847 0
M  V30 1422 H 133.029 -0.131843 -2.9961 0
M  V30 1423 H 130.582 -0.106165 -1.55939 0
M  V30 1424 H 131.317 2.33095 -2.25471 0
M  V30 1425 H 131.102 1.30029 -3.69912 0
M  V30 1426 H 132.592 2.27114 -3.50441 0
M  V30 1427 N 133.029 1.57378 -0.0835403 0
M  V30 1428 C 134.445 1.57246 0.273109 0
M  V30 1429 C 134.645 1.09385 1.69225 0
M  V30 1430 O 133.701 0.765051 2.40631 0
M  V30 1431 C 135.014 3.00614 0.0720628 0
M  V30 1432 C 136.562 3.12684 0.1407 0
M  V30 1433 C 137.037 4.57989 -0.0322094 0
M  V30 1434 N 138.528 4.63194 0.0230085 0
M  V30 1435 C 139.263 5.73335 -0.0861941 0
M  V30 1436 N 138.759 6.9235 -0.24958 0
M  V30 1437 N 140.552 5.62093 -0.0282886 0
M  V30 1438 H 132.703 1.86801 -1.0109 0
M  V30 1439 H 134.966 0.861687 -0.395222 0
M  V30 1440 H 134.672 3.39786 -0.907662 0
M  V30 1441 H 134.546 3.68193 0.81936 0
M  V30 1442 H 136.933 2.73391 1.11092 0
M  V30 1443 H 137.014 2.47719 -0.637896 0
M  V30 1444 H 136.658 4.97973 -0.999247 0
M  V30 1445 H 136.588 5.21 0.765937 0
M  V30 1446 H 139.079 3.77613 0.14722 0
M  V30 1447 H 139.392 7.72117 -0.324733 0
M  V30 1448 H 137.737 6.94415 -0.285097 0
M  V30 1449 H 140.928 4.67997 0.0981408 0
M  V30 1450 H 141.101 6.47895 -0.116845 0
M  V30 1451 N 134.507 -0.190092 1.56449 0
M  V30 1452 C 135.754 -0.909705 1.80916 0
M  V30 1453 C 136.082 -1.83047 0.657583 0
M  V30 1454 O 135.337 -1.92428 -0.356356 0
M  V30 1455 C 135.636 -1.75382 3.1141 0
M  V30 1456 C 135.302 -0.983606 4.40041 0
M  V30 1457 C 133.964 -0.770967 4.74984 0
M  V30 1458 C 136.316 -0.442024 5.19322 0
M  V30 1459 C 133.644 -0.0053448 5.867 0
M  V30 1460 C 135.996 0.310412 6.31838 0
M  V30 1461 C 134.66 0.534023 6.6536 0
M  V30 1462 H 133.93 -0.332885 0.662019 0
M  V30 1463 H 136.577 -0.175762 1.90692 0
M  V30 1464 H 134.882 -2.55659 2.96893 0
M  V30 1465 H 136.579 -2.31331 3.27547 0
M  V30 1466 H 133.169 -1.15936 4.12622 0
M  V30 1467 H 137.353 -0.593693 4.92736 0
M  V30 1468 H 132.609 0.177825 6.11141 0
M  V30 1469 H 136.783 0.737419 6.92485 0
M  V30 1470 H 134.41 1.12918 7.51767 0
M  V30 1471 N 135.985 -1.50799 -0.457987 0
M  V30 1472 C 137.21 -1.66496 -1.23668 0
M  V30 1473 C 137.635 -0.353288 -1.84752 0
M  V30 1474 O 136.993 0.684346 -1.67888 0
M  V30 1475 C 137.041 -2.76763 -2.3116 0
M  V30 1476 O 136.145 -2.38928 -3.36136 0
M  V30 1477 H 135.486 -0.555828 -0.363252 0
M  V30 1478 H 138.016 -1.9725 -0.543474 0
M  V30 1479 H 138.026 -3.00232 -2.76269 0
M  V30 1480 H 136.701 -3.71954 -1.86073 0
M  V30 1481 H 135.278 -2.25953 -2.96647 0
M  V30 1482 N 137.463 0.71206 -1.40597 0
M  V30 1483 C 138.691 1.50111 -1.42388 0
M  V30 1484 C 139.106 1.88784 -0.0245395 0
M  V30 1485 O 138.463 1.55681 0.952351 0
M  V30 1486 C 138.514 2.7742 -2.31776 0
M  V30 1487 O 138.235 2.40382 -3.66262 0
M  V30 1488 C 139.736 3.7129 -2.42196 0
M  V30 1489 H 136.956 0.46314 -0.485533 0
M  V30 1490 H 139.5 0.878068 -1.8469 0
M  V30 1491 H 137.655 3.36001 -1.92827 0
M  V30 1492 H 138.069 3.22324 -4.13772 0
M  V30 1493 H 139.543 4.57448 -3.08943 0
M  V30 1494 H 140.02 4.14641 -1.44809 0
M  V30 1495 H 140.626 3.18619 -2.81712 0
M  V30 1496 N 138.941 1.26152 0.944643 0
M  V30 1497 C 140.187 1.11657 1.69294 0
M  V30 1498 C 140.52 -0.339926 1.91202 0
M  V30 1499 O 139.795 -1.24994 1.49019 0
M  V30 1500 C 140.078 1.88236 3.06984 0
M  V30 1501 C 139.931 3.41772 2.92424 0
M  V30 1502 C 141.25 1.67343 4.07043 0
M  V30 1503 H 138.369 0.407004 0.614424 0
M  V30 1504 H 141.011 1.55106 1.09737 0
M  V30 1505 H 139.161 1.51308 3.57824 0
M  V30 1506 H 140.833 3.88433 2.48832 0
M  V30 1507 H 139.076 3.68974 2.28124 0
M  V30 1508 H 139.747 3.90579 3.90067 0
M  V30 1509 H 142.223 1.99509 3.65151 0
M  V30 1510 H 141.099 2.23346 5.01406 0
M  V30 1511 H 141.36 0.617158 4.37771 0
M  V30 1512 N 140.419 -1.14872 1.07899 0
M  V30 1513 C 141.382 -2.17986 0.708161 0
M  V30 1514 C 142.382 -1.58775 -0.25442 0
M  V30 1515 O 143.572 -1.74166 -0.034645 0
M  V30 1516 C 140.704 -3.40871 0.0446929 0
M  V30 1517 H 141.897 -2.52306 1.62116 0
M  V30 1518 H 139.45 -1.2943 0.876218 0
M  V30 1519 H 140.185 -3.12124 -0.880281 0
M  V30 1520 H 139.97 -3.8511 0.737091 0
M  V30 1521 H 141.46 -4.17121 -0.19991 0
M  V30 1522 N 141.898 -0.863906 -1.31812 0
M  V30 1523 C 143.146 -0.470904 -1.96537 0
M  V30 1524 C 143.467 0.978771 -1.68657 0
M  V30 1525 O 142.737 1.6853 -0.998717 0
M  V30 1526 H 141.317 -0.171148 -0.72713 0
M  V30 1527 H 143.979 -1.10236 -1.60729 0
M  V30 1528 H 143.075 -0.623616 -3.05806 0
M  V30 1529 N 143.376 1.44774 -0.622745 0
M  V30 1530 C 144.286 2.34433 0.0886031 0
M  V30 1531 C 145.302 1.52131 0.844529 0
M  V30 1532 O 146.478 1.84886 0.798691 0
M  V30 1533 C 143.543 3.29986 1.0635 0
M  V30 1534 C 142.604 4.28195 0.307873 0
M  V30 1535 C 141.837 5.19183 1.23633 0
M  V30 1536 O 142.06 5.13918 2.47476 0
M  V30 1537 O 140.994 5.97515 0.725189 0
M  V30 1538 H 144.82 2.96693 -0.648599 0
M  V30 1539 H 142.405 1.44408 -0.382957 0
M  V30 1540 H 144.287 3.88825 1.6246 0
M  V30 1541 H 142.962 2.70269 1.78146 0
M  V30 1542 H 141.869 3.72927 -0.296064 0
M  V30 1543 H 143.202 4.90808 -0.3699 0
M  V30 1544 N 144.854 0.36279 1.53368 0
M  V30 1545 C 146.27 0.0116182 1.59596 0
M  V30 1546 C 146.47 -1.47012 1.37803 0
M  V30 1547 O 145.526 -2.23136 1.18181 0
M  V30 1548 C 146.839 0.465052 2.97082 0
M  V30 1549 C 148.387 0.419033 3.10182 0
M  V30 1550 C 148.862 0.848235 4.50077 0
M  V30 1551 N 150.353 0.803183 4.56183 0
M  V30 1552 C 151.088 1.107 5.62613 0
M  V30 1553 N 150.584 1.47996 6.76808 0
M  V30 1554 N 152.377 1.02998 5.52583 0
M  V30 1555 H 144.528 1.32775 1.65785 0
M  V30 1556 H 146.791 0.542518 0.777417 0
M  V30 1557 H 146.497 1.49892 3.18159 0
M  V30 1558 H 146.371 -0.149786 3.76902 0
M  V30 1559 H 148.758 -0.605696 2.88817 0
M  V30 1560 H 148.839 1.06933 2.32377 0
M  V30 1561 H 148.483 1.87107 4.7218 0
M  V30 1562 H 148.413 0.175218 5.26308 0
M  V30 1563 H 150.904 0.52838 3.74188 0
M  V30 1564 H 151.217 1.69613 7.53957 0
M  V30 1565 H 149.562 1.51859 6.78206 0
M  V30 1566 H 152.753 0.737817 4.62249 0
M  V30 1567 H 152.926 1.2701 6.35431 0
M  V30 1568 N 146.332 -1.57332 0.0918853 0
M  V30 1569 C 147.58 -1.93853 -0.571446 0
M  V30 1570 C 147.901 -0.974212 -1.6892 0
M  V30 1571 O 147.171 -0.0257254 -1.95883 0
M  V30 1572 H 145.751 -0.715666 -0.214082 0
M  V30 1573 H 148.413 -1.94287 0.154464 0
M  V30 1574 H 147.509 -2.96191 -0.983729 0
M  V30 1575 N 147.81 0.181792 -1.56548 0
M  V30 1576 C 148.773 1.20894 -1.94724 0
M  V30 1577 C 149.773 1.37738 -0.829747 0
M  V30 1578 O 150.963 1.35323 -1.09697 0
M  V30 1579 C 148.095 2.57593 -2.23291 0
M  V30 1580 H 149.288 0.882275 -2.86629 0
M  V30 1581 H 146.841 0.423838 -1.50444 0
M  V30 1582 H 147.576 2.95291 -1.34067 0
M  V30 1583 H 147.361 2.46735 -3.04736 0
M  V30 1584 H 148.851 3.31637 -2.53785 0
M  V30 1585 N 149.288 1.51039 0.449983 0
M  V30 1586 C 150.251 1.70863 1.5277 0
M  V30 1587 C 151.251 0.578846 1.5002 0
M  V30 1588 O 152.441 0.846213 1.52266 0
M  V30 1589 C 149.573 1.75341 2.9235 0
M  V30 1590 H 150.766 2.67034 1.36502 0
M  V30 1591 H 148.319 1.40838 0.677812 0
M  V30 1592 H 149.054 0.809383 3.14037 0
M  V30 1593 H 148.839 2.57436 2.95752 0
M  V30 1594 H 150.329 1.92559 3.70555 0
M  V30 1595 N 150.766 -0.704594 1.40972 0
M  V30 1596 C 152.043 -1.45847 1.30338 0
M  V30 1597 C 152.423 -2.10973 -0.0732344 0
M  V30 1598 O 151.771 -2.00997 -1.08685 0
M  V30 1599 C 151.981 -2.48525 2.45023 0
M  V30 1600 C 153.329 -3.1404 2.8577 0
M  V30 1601 O 154.353 -2.58848 2.44696 0
M  V30 1602 O 153.212 -4.13981 3.56766 0
M  V30 1603 H 150.306 -0.649092 0.512454 0
M  V30 1604 H 152.852 -0.735836 1.52917 0
M  V30 1605 H 151.624 -1.98994 3.36923 0
M  V30 1606 H 151.247 -3.2831 2.24272 0
M  V30 1607 N 152.244 -1.26651 -0.937939 0
M  V30 1608 C 153.207 -1.08546 -2.01867 0
M  V30 1609 C 154.207 -0.0327327 -1.60767 0
M  V30 1610 O 155.397 -0.276427 -1.71993 0
M  V30 1611 C 152.529 -0.651711 -3.34613 0
M  V30 1612 H 153.722 -2.04502 -2.1936 0
M  V30 1613 H 151.275 -1.09294 -1.11734 0
M  V30 1614 H 152.01 0.309696 -3.22818 0
M  V30 1615 H 151.795 -1.41189 -3.65798 0
M  V30 1616 H 153.285 -0.546973 -4.14002 0
M  V30 1617 N 153.722 1.14298 -1.08507 0
M  V30 1618 C 154.632 2.23027 -0.727753 0
M  V30 1619 C 155.648 1.71952 0.26619 0
M  V30 1620 O 156.824 2.011 0.109882 0
M  V30 1621 C 153.889 3.46403 -0.143541 0
M  V30 1622 C 152.95 4.12413 -1.19223 0
M  V30 1623 C 152.183 5.29899 -0.635798 0
M  V30 1624 O 152.406 5.67796 0.544393 0
M  V30 1625 O 151.34 5.85717 -1.38634 0
M  V30 1626 H 155.166 2.55945 -1.63481 0
M  V30 1627 H 152.751 1.22248 -0.858817 0
M  V30 1628 H 154.633 4.21018 0.179404 0
M  V30 1629 H 153.308 3.15206 0.736659 0
M  V30 1630 H 152.215 3.39667 -1.56772 0
M  V30 1631 H 153.548 4.47718 -2.04474 0
M  V30 1632 N 155.201 0.870884 1.31352 0
M  V30 1633 C 156.617 0.562932 1.49343 0
M  V30 1634 C 156.817 -0.902725 1.80148 0
M  V30 1635 O 155.873 -1.68484 1.88067 0
M  V30 1636 C 157.186 1.46393 2.62659 0
M  V30 1637 C 158.734 1.46607 2.76542 0
M  V30 1638 C 159.209 2.35266 3.92955 0
M  V30 1639 N 160.7 2.33151 4.00243 0
M  V30 1640 C 161.435 2.98471 4.89594 0
M  V30 1641 N 160.931 3.72964 5.8384 0
M  V30 1642 N 162.724 2.87775 4.82848 0
M  V30 1643 H 154.875 1.81923 1.09626 0
M  V30 1644 H 157.138 0.777934 0.541777 0
M  V30 1645 H 156.844 2.50689 2.46674 0
M  V30 1646 H 156.718 1.16314 3.58819 0
M  V30 1647 H 159.105 0.43069 2.9194 0
M  V30 1648 H 159.186 1.8071 1.81046 0
M  V30 1649 H 158.83 3.38881 3.78315 0
M  V30 1650 H 158.76 1.98487 4.87761 0
M  V30 1651 H 161.251 1.79006 3.32814 0
M  V30 1652 H 161.564 4.19932 6.4875 0
M  V30 1653 H 159.909 3.77073 5.83816 0
M  V30 1654 H 163.1 2.29116 4.08195 0
M  V30 1655 H 163.273 3.38961 5.52277 0
M  V30 1656 N 156.679 -1.44442 0.630414 0
M  V30 1657 C 157.956 -1.9549 0.0655657 0
M  V30 1658 C 158.336 -1.5724 -1.40851 0
M  V30 1659 O 157.684 -0.846116 -2.12257 0
M  V30 1660 C 157.894 -3.47812 0.287691 0
M  V30 1661 C 159.242 -4.24216 0.180513 0
M  V30 1662 O 160.266 -3.55526 0.219019 0
M  V30 1663 O 159.125 -5.46434 0.0848493 0
M  V30 1664 H 156.219 -0.826688 -0.0227177 0
M  V30 1665 H 158.765 -1.54496 0.702068 0
M  V30 1666 H 157.537 -3.687 1.31056 0
M  V30 1667 H 157.16 -3.95751 -0.382984 0
M  V30 1668 N 158.157 -0.370918 -1.53173 0
M  V30 1669 C 159.406 0.218249 -2.00516 0
M  V30 1670 C 159.719 1.49429 -1.26215 0
M  V30 1671 O 160.925 2.16239 -1.64174 0
M  V30 1672 C 159.381 0.43948 -3.57207 0
M  V30 1673 C 158.989 -0.822244 -4.4039 0
M  V30 1674 C 160.733 0.986012 -4.1289 0
M  V30 1675 C 158.64 -0.570304 -5.88644 0
M  V30 1676 H 157.57 0.0853333 -0.749156 0
M  V30 1677 H 160.221 -0.490483 -1.76823 0
M  V30 1678 H 158.603 1.20961 -3.77074 0
M  V30 1679 H 159.777 -1.59557 -4.32294 0
M  V30 1680 H 158.092 -1.29238 -3.95836 0
M  V30 1681 H 160.689 1.18991 -5.21292 0
M  V30 1682 H 161.032 1.94972 -3.6782 0
M  V30 1683 H 161.565 0.27592 -3.96842 0
M  V30 1684 H 158.304 -1.50449 -6.38001 0
M  V30 1685 H 157.824 0.164427 -5.99575 0
M  V30 1686 H 159.503 -0.19784 -6.46697 0
M  V30 1687 N 159.635 1.57281 -0.100228 0
M  V30 1688 C 161.051 1.57527 0.256416 0
M  V30 1689 C 161.251 1.11173 1.68056 0
M  V30 1690 O 160.307 0.79053 2.39806 0
M  V30 1691 C 161.62 3.00673 0.0401747 0
M  V30 1692 C 163.168 3.12815 0.107528 0
M  V30 1693 C 163.643 4.57929 -0.0807834 0
M  V30 1694 N 165.134 4.63193 -0.0261207 0
M  V30 1695 C 165.869 5.73212 -0.146999 0
M  V30 1696 N 165.365 6.92047 -0.322999 0
M  V30 1697 N 167.158 5.62031 -0.0879044 0
M  V30 1698 H 159.309 1.85718 -1.03065 0
M  V30 1699 H 161.572 0.857446 -0.404339 0
M  V30 1700 H 161.278 3.38804 -0.943649 0
M  V30 1701 H 161.152 3.69042 0.780262 0
M  V30 1702 H 163.539 2.74554 1.08186 0
M  V30 1703 H 163.62 2.47028 -0.664134 0
M  V30 1704 H 163.264 4.96886 -1.05201 0
M  V30 1705 H 163.194 5.21783 0.710635 0
M  V30 1706 H 165.685 3.77748 0.107161 0
M  V30 1707 H 165.998 7.7173 -0.406608 0
M  V30 1708 H 164.343 6.94074 -0.358733 0
M  V30 1709 H 167.534 4.68075 0.048498 0
M  V30 1710 H 167.707 6.47734 -0.185557 0
M  V30 1711 N 161.113 -0.173488 1.56642 0
M  V30 1712 C 162.361 -0.888706 1.81512 0
M  V30 1713 C 162.682 -1.82875 0.676872 0
M  V30 1714 O 161.952 -1.93536 -0.303414 0
M  V30 1715 H 160.532 -0.331164 0.669582 0
M  V30 1716 H 163.194 -0.173823 1.94123 0
M  V30 1717 H 162.29 -1.46691 2.75478 0
M  V30 1718 N 162.591 -1.51276 -0.441967 0
M  V30 1719 C 163.838 -1.63715 -1.19179 0
M  V30 1720 C 164.166 -0.351175 -1.91303 0
M  V30 1721 O 163.421 0.664524 -1.84072 0
M  V30 1722 C 163.72 -2.78746 -2.23686 0
M  V30 1723 C 163.386 -4.18189 -1.68607 0
M  V30 1724 C 162.048 -4.56125 -1.53308 0
M  V30 1725 C 164.4 -5.05222 -1.28062 0
M  V30 1726 C 161.728 -5.78804 -0.959317 0
M  V30 1727 C 164.08 -6.28476 -0.721162 0
M  V30 1728 C 162.744 -6.65188 -0.55504 0
M  V30 1729 H 162.014 -0.599076 -0.436106 0
M  V30 1730 H 164.661 -1.85296 -0.48351 0
M  V30 1731 H 162.966 -2.51369 -3.00535 0
M  V30 1732 H 164.663 -2.8557 -2.81515 0
M  V30 1733 H 161.253 -3.88277 -1.8149 0
M  V30 1734 H 165.437 -4.76524 -1.38704 0
M  V30 1735 H 160.693 -6.05899 -0.81833 0
M  V30 1736 H 164.867 -6.95259 -0.398458 0
M  V30 1737 H 162.494 -7.60123 -0.108311 0
M  V30 1738 N 164.069 0.697108 -1.41344 0
M  V30 1739 C 165.032 1.79281 -1.42797 0
M  V30 1740 C 166.032 1.57607 -0.318837 0
M  V30 1741 O 167.222 1.64309 -0.578642 0
M  V30 1742 C 164.354 3.17632 -1.23785 0
M  V30 1743 H 165.547 1.79385 -2.40335 0
M  V30 1744 H 163.1 0.904582 -1.27464 0
M  V30 1745 H 163.835 3.23167 -0.270814 0
M  V30 1746 H 163.62 3.34765 -2.04144 0
M  V30 1747 H 165.11 3.97617 -1.27633 0
M  V30 1748 N 165.547 1.27147 0.931209 0
M  V30 1749 C 166.477 1.12081 2.04842 0
M  V30 1750 C 167.458 0.0232364 1.70084 0
M  V30 1751 O 168.643 0.197085 1.93197 0
M  V30 1752 C 165.773 0.76354 3.38803 0
M  V30 1753 C 164.727 1.81396 3.87659 0
M  V30 1754 C 164.053 1.31075 5.18385 0
M  V30 1755 C 165.353 3.21739 4.11438 0
M  V30 1756 H 167.047 2.05537 2.17703 0
M  V30 1757 H 164.593 0.989603 1.04608 0
M  V30 1758 H 166.546 0.644982 4.16435 0
M  V30 1759 H 165.27 -0.206727 3.25945 0
M  V30 1760 H 163.929 1.92136 3.12217 0
M  V30 1761 H 163.577 0.330037 5.01916 0
M  V30 1762 H 163.277 2.013 5.52044 0
M  V30 1763 H 164.801 1.20506 5.98591 0
M  V30 1764 H 166.215 3.14019 4.79651 0
M  V30 1765 H 164.612 3.89644 4.56397 0
M  V30 1766 H 165.682 3.67054 3.16859 0
M  V30 1767 N 167.025 -1.13721 1.09112 0
M  V30 1768 C 167.972 -2.19031 0.727591 0
M  V30 1769 C 168.942 -1.63555 -0.289656 0
M  V30 1770 O 170.127 -1.90023 -0.172026 0
M  V30 1771 C 167.267 -3.4477 0.15082 0
M  V30 1772 C 166.38 -4.14365 1.22172 0
M  V30 1773 C 165.515 -5.27709 0.608042 0
M  V30 1774 C 164.554 -5.89147 1.66047 0
M  V30 1775 N 163.691 -6.93929 1.06806 0
M  V30 1776 H 168.531 -2.49475 1.62991 0
M  V30 1777 H 166.068 -1.22499 0.81439 0
M  V30 1778 H 168.026 -4.16714 -0.201358 0
M  V30 1779 H 166.656 -3.14787 -0.714783 0
M  V30 1780 H 165.708 -3.40737 1.69122 0
M  V30 1781 H 167.02 -4.56114 2.01895 0
M  V30 1782 H 166.174 -6.06355 0.204523 0
M  V30 1783 H 164.913 -4.872 -0.220769 0
M  V30 1784 H 163.918 -5.09198 2.07357 0
M  V30 1785 H 165.143 -6.31729 2.49189 0
M  V30 1786 H 163.089 -6.55483 0.260476 0
M  V30 1787 H 163.006 -7.34202 1.8023 0
M  V30 1788 H 164.274 -7.76434 0.690644 0
M  V30 1789 N 168.503 -0.877838 -1.30888 0
M  V30 1790 C 169.75 -0.492696 -1.96415 0
M  V30 1791 C 170.078 0.956671 -1.69346 0
M  V30 1792 O 169.333 1.68993 -0.986913 0
M  V30 1793 C 169.632 -0.705748 -3.50363 0
M  V30 1794 C 169.298 -2.1291 -3.97467 0
M  V30 1795 C 167.96 -2.51834 -4.1004 0
M  V30 1796 C 170.312 -3.05702 -4.22132 0
M  V30 1797 C 167.64 -3.82775 -4.44635 0
M  V30 1798 C 169.992 -4.36166 -4.58194 0
M  V30 1799 C 168.656 -4.74993 -4.68975 0
M  V30 1800 H 167.926 -0.18029 -0.718733 0
M  V30 1801 H 170.573 -1.11233 -1.55883 0
M  V30 1802 H 168.878 -0.00303058 -3.918 0
M  V30 1803 H 170.575 -0.387456 -3.99124 0
M  V30 1804 H 167.165 -1.81694 -3.88182 0
M  V30 1805 H 171.349 -2.76853 -4.11906 0
M  V30 1806 H 166.605 -4.12609 -4.51181 0
M  V30 1807 H 170.779 -5.08111 -4.76231 0
M  V30 1808 H 168.406 -5.76495 -4.95537 0
M  V30 1809 N 169.982 1.44106 -0.638065 0
M  V30 1810 C 171.212 2.06037 -0.152394 0
M  V30 1811 C 171.62 1.47808 1.18108 0
M  V30 1812 O 170.963 0.598092 1.73691 0
M  V30 1813 C 171.025 3.59488 0.0293714 0
M  V30 1814 C 170.689 4.4022 -1.22702 0
M  V30 1815 C 171.686 4.73256 -2.15232 0
M  V30 1816 C 169.371 4.8048 -1.46437 0
M  V30 1817 C 171.365 5.45444 -3.29802 0
M  V30 1818 C 169.052 5.52417 -2.61303 0
M  V30 1819 C 170.05 5.84819 -3.52811 0
M  V30 1820 O 169.738 6.55289 -4.65673 0
M  V30 1821 H 169.47 0.671233 -0.0801401 0
M  V30 1822 H 172.024 1.85851 -0.874563 0
M  V30 1823 H 170.254 3.78191 0.806758 0
M  V30 1824 H 171.943 4.03164 0.470475 0
M  V30 1825 H 172.709 4.42684 -1.98131 0
M  V30 1826 H 168.588 4.54676 -0.760977 0
M  V30 1827 H 172.132 5.70653 -4.01249 0
M  V30 1828 H 168.029 5.82404 -2.78344 0
M  V30 1829 H 168.797 6.73762 -4.64744 0
M  V30 1830 N 171.46 0.379036 1.52974 0
M  V30 1831 C 172.688 -0.20679 2.05864 0
M  V30 1832 C 173.103 -1.41356 1.25155 0
M  V30 1833 O 172.46 -1.8009 0.295588 0
M  V30 1834 C 172.511 -0.587045 3.56702 0
M  V30 1835 O 172.232 0.571776 4.34353 0
M  V30 1836 C 173.733 -1.22983 4.25899 0
M  V30 1837 H 170.953 -0.0336123 0.670158 0
M  V30 1838 H 173.497 0.541298 1.97206 0
M  V30 1839 H 171.652 -1.28504 3.65466 0
M  V30 1840 H 172.066 0.261544 5.23847 0
M  V30 1841 H 173.54 -1.44635 5.32715 0
M  V30 1842 H 174.017 -2.19416 3.80465 0
M  V30 1843 H 174.623 -0.572892 4.21424 0
M  V30 1844 N 172.938 -1.57226 0.108567 0
M  V30 1845 C 173.848 -2.18292 -0.859401 0
M  V30 1846 C 174.864 -1.15612 -1.30038 0
M  V30 1847 O 176.04 -1.48039 -1.36552 0
M  V30 1848 C 173.105 -2.762 -2.09558 0
M  V30 1849 C 172.166 -3.93881 -1.70752 0
M  V30 1850 C 171.399 -4.49018 -2.88477 0
M  V30 1851 O 171.622 -4.03068 -4.036 0
M  V30 1852 O 170.556 -5.39852 -2.66164 0
M  V30 1853 H 174.382 -3.01441 -0.369769 0
M  V30 1854 H 171.967 -1.48945 -0.1165 0
M  V30 1855 H 173.849 -3.13156 -2.81978 0
M  V30 1856 H 172.524 -1.96089 -2.57548 0
M  V30 1857 H 171.431 -3.61713 -0.954714 0
M  V30 1858 H 172.764 -4.75396 -1.27513 0
M  V30 1859 N 174.416 0.165178 -1.56732 0
M  V30 1860 C 175.326 1.22423 -2.00125 0
M  V30 1861 C 176.342 1.48084 -0.913619 0
M  V30 1862 O 177.518 1.60112 -1.22172 0
M  V30 1863 C 174.583 2.54197 -2.35764 0
M  V30 1864 C 173.644 2.36343 -3.58386 0
M  V30 1865 C 172.877 3.61834 -3.92316 0
M  V30 1866 O 173.1 4.67267 -3.27135 0
M  V30 1867 O 172.034 3.55579 -4.85641 0
M  V30 1868 H 175.86 0.885886 -2.90492 0
M  V30 1869 H 173.445 0.372518 -1.44681 0
M  V30 1870 H 175.327 3.3192 -2.59629 0
M  V30 1871 H 174.002 2.87598 -1.48557 0
M  V30 1872 H 172.909 1.56632 -3.39731 0
M  V30 1873 H 174.242 2.07865 -4.46154 0
M  V30 1874 N 175.894 1.51508 0.433938 0
M  V30 1875 C 177.142 1.6402 1.18075 0
M  V30 1876 C 177.463 0.360328 1.91642 0
M  V30 1877 O 176.733 -0.623945 1.85698 0
M  V30 1878 H 175.313 0.6045 0.43885 0
M  V30 1879 H 177.975 1.88452 0.497178 0
M  V30 1880 H 177.071 2.46949 1.90847 0
M  V30 1881 N 177.372 -0.689602 1.41712 0
M  V30 1882 C 178.32 -1.82475 1.44242 0
M  V30 1883 C 179.314 -1.66354 0.319774 0
M  V30 1884 O 180.52 -1.73143 0.492089 0
M  V30 1885 H 176.895 -0.601416 0.451445 0
M  V30 1886 H 178.866 -1.77458 2.39899 0
M  V30 1887 C 177.615 -3.20535 1.3473 0
M  V30 1888 H 176.938 -3.33559 2.20405 0
M  V30 1889 H 178.378 -4.00023 1.40562 0
M  V30 1890 C 176.837 -3.36846 0.0603281 0
M  V30 1891 O 177.367 -3.91656 -0.892663 0
M  V30 1892 N 175.573 -2.90595 -0.0177039 0
M  V30 1893 H 175.12 -2.46178 0.758572 0
M  V30 1894 H 175.078 -3.01886 -0.878201 0
M  V30 1895 N 178.85 -1.27639 -0.924453 0
M  V30 1896 C 180.096 -1.15345 -1.67532 0
M  V30 1897 C 180.451 0.297096 -1.90092 0
M  V30 1898 O 179.744 1.21374 -1.48253 0
M  V30 1899 C 179.938 -1.87407 -3.04325 0
M  V30 1900 C 179.767 -3.3932 -2.95114 0
M  V30 1901 C 178.537 -4.08644 -2.97218 0
M  V30 1902 C 180.735 -4.35242 -2.73987 0
M  V30 1903 N 178.717 -5.47102 -2.78482 0
M  V30 1904 C 180.088 -5.6099 -2.63988 0
M  V30 1905 C 182.143 -4.25294 -2.589 0
M  V30 1906 C 180.846 -6.77924 -2.40442 0
M  V30 1907 C 182.872 -5.41952 -2.36731 0
M  V30 1908 C 182.234 -6.66658 -2.27478 0
M  V30 1909 H 178.333 -0.47696 -0.619704 0
M  V30 1910 H 180.917 -1.6115 -1.09265 0
M  V30 1911 H 179.088 -1.44053 -3.60699 0
M  V30 1912 H 180.82 -1.6759 -3.68369 0
M  V30 1913 H 177.575 -3.60136 -3.07569 0
M  V30 1914 H 177.999 -6.19852 -2.72236 0
M  V30 1915 H 182.641 -3.29598 -2.64811 0
M  V30 1916 H 180.359 -7.73699 -2.3327 0
M  V30 1917 H 183.945 -5.36137 -2.25938 0
M  V30 1918 H 182.825 -7.55405 -2.10555 0
M  V30 1919 N 180.328 1.1314 -1.09713 0
M  V30 1920 C 181.605 1.80762 -0.747302 0
M  V30 1921 C 181.985 1.96663 0.767265 0
M  V30 1922 O 181.333 1.53706 1.69076 0
M  V30 1923 C 181.543 3.15606 -1.48975 0
M  V30 1924 C 182.891 3.90914 -1.65746 0
M  V30 1925 O 183.915 3.25239 -1.45251 0
M  V30 1926 O 182.774 5.08718 -1.9967 0
M  V30 1927 H 179.868 0.782103 -0.268782 0
M  V30 1928 H 182.414 1.20041 -1.19951 0
M  V30 1929 H 181.186 2.99278 -2.52088 0
M  V30 1930 H 180.809 3.84029 -1.02991 0
M  V30 1931 N 181.806 0.884767 1.30421 0
M  V30 1932 C 182.739 0.295999 2.26272 0
M  V30 1933 C 183.717 -0.58332 1.51777 0
M  V30 1934 O 184.901 -0.53346 1.80794 0
M  V30 1935 C 182.028 -0.57944 3.33707 0
M  V30 1936 C 181.074 0.230525 4.25877 0
M  V30 1937 S 181.907 1.61867 5.1045 0
M  V30 1938 C 183.063 0.749756 6.21393 0
M  V30 1939 H 183.296 1.10848 2.75862 0
M  V30 1940 H 180.829 0.684178 1.38414 0
M  V30 1941 H 182.787 -1.07879 3.96071 0
M  V30 1942 H 181.448 -1.36601 2.82841 0
M  V30 1943 H 180.641 -0.437542 5.02097 0
M  V30 1944 H 180.243 0.662493 3.68086 0
M  V30 1945 H 182.535 -0.0333547 6.77492 0
M  V30 1946 H 183.478 1.48356 6.92384 0
M  V30 1947 H 183.886 0.310751 5.63644 0
M  V30 1948 N 183.284 -1.43765 0.645699 0
M  V30 1949 C 184.53 -2.02197 0.156271 0
M  V30 1950 C 184.863 -1.50776 -1.22393 0
M  V30 1951 O 184.138 -0.697771 -1.81553 0
M  V30 1952 C 184.421 -3.59749 0.158872 0
M  V30 1953 C 184.274 -4.21419 1.57245 0
M  V30 1954 C 185.593 -4.37149 -0.50879 0
M  V30 1955 H 182.712 -0.734694 0.0582602 0
M  V30 1956 H 185.354 -1.71157 0.824951 0
M  V30 1957 H 183.504 -3.86325 -0.410525 0
M  V30 1958 H 185.176 -4.059 2.19186 0
M  V30 1959 H 183.419 -3.78356 2.122 0
M  V30 1960 H 184.09 -5.30482 1.52619 0
M  V30 1961 H 186.566 -4.16093 -0.024412 0
M  V30 1962 H 185.442 -5.4683 -0.476213 0
M  V30 1963 H 185.703 -4.12839 -1.58165 0
M  V30 1964 N 184.763 -0.387143 -1.52771 0
M  V30 1965 C 186.011 0.195349 -2.01154 0
M  V30 1966 C 186.332 1.475 -1.27549 0
M  V30 1967 O 185.602 1.91878 -0.394924 0
M  V30 1968 H 184.182 0.075178 -0.743207 0
M  V30 1969 H 186.844 -0.518337 -1.87881 0
M  V30 1970 H 185.94 0.407096 -3.09434 0
M  V30 1971 N 186.241 1.57166 -0.116904 0
M  V30 1972 C 187.189 2.16457 0.851418 0
M  V30 1973 C 188.183 1.11323 1.27686 0
M  V30 1974 O 189.389 1.2963 1.24884 0
M  V30 1975 H 185.764 0.69271 0.292672 0
M  V30 1976 H 187.735 2.96605 0.32685 0
M  V30 1977 C 186.484 2.77689 2.09246 0
M  V30 1978 H 185.807 3.58285 1.77402 0
M  V30 1979 H 187.247 3.22716 2.7501 0
M  V30 1980 C 185.706 1.74667 2.88085 0
M  V30 1981 O 186.236 1.19877 3.83396 0
M  V30 1982 N 184.442 1.44656 2.52038 0
M  V30 1983 H 183.989 1.89402 1.74599 0
M  V30 1984 H 183.947 0.759675 3.05084 0
M  V30 1985 N 187.719 -0.156864 1.56817 0
M  V30 1986 C 188.667 -1.21319 1.98455 0
M  V30 1987 C 189.661 -1.45025 0.875444 0
M  V30 1988 O 190.867 -1.45435 1.0606 0
M  V30 1989 H 187.242 -0.408142 0.631605 0
M  V30 1990 H 189.213 -0.835244 2.86472 0
M  V30 1991 C 187.962 -2.54148 2.37285 0
M  V30 1992 H 187.285 -2.36733 3.22176 0
M  V30 1993 H 188.725 -3.26712 2.70251 0
M  V30 1994 C 187.184 -3.13967 1.22173 0
M  V30 1995 O 187.714 -3.98357 0.517149 0
M  V30 1996 N 185.92 -2.7327 0.988536 0
M  V30 1997 H 185.467 -2.04744 1.56326 0
M  V30 1998 H 185.425 -3.13628 0.220209 0
M  V30 1999 N 189.197 -1.51736 -0.425897 0
M  V30 2000 C 190.425 -1.68794 -1.1965 0
M  V30 2001 C 190.84 -0.390164 -1.84725 0
M  V30 2002 O 190.197 0.632376 -1.71194 0
M  V30 2003 C 190.248 -2.81174 -2.27208 0
M  V30 2004 O 189.969 -4.05925 -1.64793 0
M  V30 2005 C 191.47 -3.09599 -3.17275 0
M  V30 2006 H 188.69 -0.566128 -0.360194 0
M  V30 2007 H 191.234 -1.98211 -0.503249 0
M  V30 2008 H 189.389 -2.54324 -2.9223 0
M  V30 2009 H 189.803 -4.68423 -2.35967 0
M  V30 2010 H 191.277 -3.91786 -3.88854 0
M  V30 2011 H 191.754 -2.22468 -3.78688 0
M  V30 2012 H 192.36 -3.38151 -2.57941 0
M  V30 2013 N 190.675 0.682077 -1.42076 0
M  V30 2014 C 192.086 1.26246 -1.37546 0
M  V30 2015 C 192.437 1.96092 -0.0651481 0
M  V30 2016 O 191.562 1.99587 0.836297 0
M  V30 2017 C 192.157 2.29594 -2.49143 0
M  V30 2018 C 190.716 2.83175 -2.47969 0
M  V30 2019 C 189.863 1.57395 -2.28303 0
M  V30 2020 H 192.814 0.475937 -1.51395 0
M  V30 2021 H 192.835 3.11175 -2.18976 0
M  V30 2022 H 192.347 1.78729 -3.44496 0
M  V30 2023 H 190.448 3.3818 -1.56413 0
M  V30 2024 H 190.561 3.32687 -3.44755 0
M  V30 2025 H 188.925 1.83699 -1.76428 0
M  V30 2026 H 189.708 1.08507 -3.25701 0
M  V30 2027 N 192.153 1.28127 0.917671 0
M  V30 2028 C 193.399 1.15223 1.66888 0
M  V30 2029 C 193.732 -0.299293 1.9188 0
M  V30 2030 O 193.007 -1.21805 1.51637 0
M  V30 2031 C 193.29 1.94706 3.02922 0
M  V30 2032 C 193.143 3.47898 2.85109 0
M  V30 2033 C 194.462 1.75939 4.03402 0
M  V30 2034 H 191.581 0.419946 0.605652 0
M  V30 2035 H 194.223 1.57398 1.06423 0
M  V30 2036 H 192.373 1.58864 3.54534 0
M  V30 2037 H 194.045 3.93624 2.40537 0
M  V30 2038 H 192.288 3.7373 2.20246 0
M  V30 2039 H 192.959 3.98765 3.81694 0
M  V30 2040 H 195.435 2.07209 3.60837 0
M  V30 2041 H 194.311 2.33931 4.96556 0
M  V30 2042 H 194.572 0.709877 4.36364 0
M  V30 2043 N 193.631 -1.12557 1.10312 0
M  V30 2044 C 194.878 -1.84038 0.844759 0
M  V30 2045 C 195.206 -1.84026 -0.629668 0
M  V30 2046 O 194.461 -1.28026 -1.48013 0
M  V30 2047 C 194.76 -3.31462 1.33669 0
M  V30 2048 C 194.426 -3.51647 2.82232 0
M  V30 2049 C 193.088 -3.56864 3.22802 0
M  V30 2050 C 195.44 -3.58867 3.77974 0
M  V30 2051 C 192.768 -3.66844 4.57867 0
M  V30 2052 C 195.12 -3.70375 5.1284 0
M  V30 2053 C 193.784 -3.73848 5.52986 0
M  V30 2054 H 193.054 -0.673444 0.309119 0
M  V30 2055 H 195.701 -1.32824 1.37949 0
M  V30 2056 H 194.006 -3.85091 0.721949 0
M  V30 2057 H 195.703 -3.85236 1.11329 0
M  V30 2058 H 192.293 -3.48249 2.49842 0
M  V30 2059 H 196.477 -3.54107 3.47738 0
M  V30 2060 H 191.733 -3.67804 4.88396 0
M  V30 2061 H 195.907 -3.74904 5.86873 0
M  V30 2062 H 193.534 -3.81333 6.57639 0
M  V30 2063 N 195.109 -0.891671 -1.2995 0
M  V30 2064 C 196.339 -0.527893 -1.99742 0
M  V30 2065 C 196.747 0.88979 -1.66971 0
M  V30 2066 O 196.09 1.59766 -0.906667 0
M  V30 2067 C 196.152 -0.630804 -3.53922 0
M  V30 2068 C 195.816 -2.01401 -4.10228 0
M  V30 2069 C 196.813 -2.98422 -4.25724 0
M  V30 2070 C 194.498 -2.32121 -4.45449 0
M  V30 2071 C 196.492 -4.24293 -4.75662 0
M  V30 2072 C 194.179 -3.58237 -4.95086 0
M  V30 2073 C 195.177 -4.54137 -5.10146 0
M  V30 2074 O 194.865 -5.78014 -5.58708 0
M  V30 2075 H 194.597 -0.201953 -0.645129 0
M  V30 2076 H 197.151 -1.20076 -1.66646 0
M  V30 2077 H 195.381 0.0990616 -3.86573 0
M  V30 2078 H 197.07 -0.277338 -4.04951 0
M  V30 2079 H 197.836 -2.76001 -3.98809 0
M  V30 2080 H 193.715 -1.5824 -4.32991 0
M  V30 2081 H 197.259 -4.99153 -4.87332 0
M  V30 2082 H 193.156 -3.80491 -5.21437 0
M  V30 2083 H 193.924 -5.8049 -5.77039 0
M  V30 2084 N 196.587 1.43421 -0.653314 0
M  V30 2085 C 197.517 2.33487 0.0246656 0
M  V30 2086 C 198.498 1.49475 0.811863 0
M  V30 2087 O 199.683 1.78139 0.773322 0
M  V30 2088 C 196.813 3.32841 0.99166 0
M  V30 2089 C 195.767 4.26842 0.314568 0
M  V30 2090 C 195.093 5.16236 1.39302 0
M  V30 2091 C 196.393 5.16243 -0.793095 0
M  V30 2092 H 198.087 2.90427 -0.727481 0
M  V30 2093 H 195.633 1.39649 -0.351287 0
M  V30 2094 H 197.586 3.94747 1.47487 0
M  V30 2095 H 196.31 2.74158 1.77497 0
M  V30 2096 H 194.969 3.663 -0.148199 0
M  V30 2097 H 194.617 4.53891 2.16776 0
M  V30 2098 H 194.317 5.79948 0.945223 0
M  V30 2099 H 195.841 5.81015 1.87759 0
M  V30 2100 H 197.255 5.71958 -0.392039 0
M  V30 2101 H 195.652 5.88676 -1.16536 0
M  V30 2102 H 196.722 4.55927 -1.65103 0
M  V30 2103 N 198.065 0.39524 1.52563 0
M  V30 2104 C 199.481 0.0454682 1.59535 0
M  V30 2105 C 199.681 -1.44056 1.4089 0
M  V30 2106 O 198.737 -2.20579 1.22888 0
M  V30 2107 C 200.05 0.527963 2.96029 0
M  V30 2108 C 201.598 0.484733 3.09224 0
M  V30 2109 C 202.073 0.943512 4.48176 0
M  V30 2110 N 203.564 0.899765 4.54377 0
M  V30 2111 C 204.299 1.22609 5.60138 0
M  V30 2112 N 203.795 1.62319 6.73516 0
M  V30 2113 N 205.588 1.14696 5.50274 0
M  V30 2114 H 197.739 1.36261 1.62931 0
M  V30 2115 H 200.002 0.558887 0.765735 0
M  V30 2116 H 199.708 1.56607 3.14908 0
M  V30 2117 H 199.582 -0.0698056 3.77135 0
M  V30 2118 H 201.969 -0.544298 2.90037 0
M  V30 2119 H 202.05 1.11838 2.30056 0
M  V30 2120 H 201.694 1.9708 4.68104 0
M  V30 2121 H 201.624 0.286817 5.25818 0
M  V30 2122 H 204.115 0.607632 3.72983 0
M  V30 2123 H 204.428 1.85567 7.5019 0
M  V30 2124 H 202.773 1.66211 6.74833 0
M  V30 2125 H 205.964 0.835701 4.6058 0
M  V30 2126 H 206.137 1.40459 6.32594 0
M  V30 2127 N 199.544 -1.57102 0.125237 0
M  V30 2128 C 200.821 -1.86953 -0.575142 0
M  V30 2129 C 201.201 -1.02749 -1.84407 0
M  V30 2130 O 200.549 -0.108144 -2.28244 0
M  V30 2131 C 200.759 -3.38198 -0.861583 0
M  V30 2132 C 202.107 -4.06937 -1.21192 0
M  V30 2133 O 203.131 -3.43252 -0.951645 0
M  V30 2134 O 201.99 -5.19364 -1.70068 0
M  V30 2135 H 199.084 -0.774147 -0.290906 0
M  V30 2136 H 201.63 -1.68942 0.160211 0
M  V30 2137 H 200.402 -3.91282 0.0373647 0
M  V30 2138 H 200.025 -3.61661 -1.65188 0
M  V30 2139 N 201.022 0.148545 -1.56898 0
M  V30 2140 C 202.433 0.708766 -1.72723 0
M  V30 2141 C 202.784 1.81734 -0.739395 0
M  V30 2142 O 201.909 2.16194 0.0943169 0
M  V30 2143 C 202.504 1.29245 -3.13179 0
M  V30 2144 C 201.063 1.79925 -3.30611 0
M  V30 2145 C 200.21 0.687111 -2.68652 0
M  V30 2146 H 203.161 -0.0771063 -1.58513 0
M  V30 2147 H 203.182 2.16224 -3.13093 0
M  V30 2148 H 202.694 0.485382 -3.85053 0
M  V30 2149 H 200.795 2.63203 -2.63732 0
M  V30 2150 H 200.908 1.92903 -4.38549 0
M  V30 2151 H 199.272 1.11335 -2.29078 0
M  V30 2152 H 200.055 -0.108483 -3.43129 0
M  V30 2153 N 202.5 1.5196 0.417844 0
M  V30 2154 C 203.43 1.77634 1.51554 0
M  V30 2155 C 204.411 0.626918 1.58126 0
M  V30 2156 O 205.596 0.871632 1.7354 0
M  V30 2157 C 202.726 1.91911 2.8946 0
M  V30 2158 C 201.68 3.07463 2.97743 0
M  V30 2159 C 201.006 3.06951 4.37819 0
M  V30 2160 C 202.306 4.47082 2.70027 0
M  V30 2161 H 204 2.6955 1.3032 0
M  V30 2162 H 201.546 1.29706 0.625492 0
M  V30 2163 H 203.499 2.08455 3.6623 0
M  V30 2164 H 202.223 0.966598 3.11969 0
M  V30 2165 H 200.882 2.90656 2.23416 0
M  V30 2166 H 200.53 2.09438 4.57323 0
M  V30 2167 H 200.23 3.84556 4.44286 0
M  V30 2168 H 201.754 3.25613 5.16535 0
M  V30 2169 H 203.168 4.6414 3.36522 0
M  V30 2170 H 201.565 5.2654 2.87881 0
M  V30 2171 H 202.635 4.55777 1.65514 0
M  V30 2172 N 203.978 -0.674533 1.42435 0
M  V30 2173 C 204.925 -1.78807 1.45934 0
M  V30 2174 C 205.895 -1.63157 0.311271 0
M  V30 2175 O 207.08 -1.83707 0.515383 0
M  V30 2176 C 204.22 -3.16839 1.36773 0
M  V30 2177 C 203.333 -3.43774 2.61617 0
M  V30 2178 C 202.468 -4.71536 2.44597 0
M  V30 2179 C 201.507 -4.91505 3.64814 0
M  V30 2180 N 200.644 -6.10508 3.46734 0
M  V30 2181 H 205.484 -1.75151 2.41093 0
M  V30 2182 H 203.021 -0.85504 1.19697 0
M  V30 2183 H 204.979 -3.96606 1.29459 0
M  V30 2184 H 203.609 -3.19619 0.452089 0
M  V30 2185 H 202.661 -2.58259 2.79297 0
M  V30 2186 H 203.973 -3.54423 3.50978 0
M  V30 2187 H 203.127 -5.59393 2.3487 0
M  V30 2188 H 201.866 -4.6317 1.52726 0
M  V30 2189 H 200.871 -4.0209 3.74972 0
M  V30 2190 H 202.096 -5.01716 4.57665 0
M  V30 2191 H 200.042 -6.03315 2.5758 0
M  V30 2192 H 199.959 -6.2202 4.29682 0
M  V30 2193 H 201.227 -7.01044 3.40819 0
M  V30 2194 N 205.456 -1.28612 -0.910864 0
M  V30 2195 C 206.703 -1.15934 -1.66029 0
M  V30 2196 C 207.031 0.291483 -1.92303 0
M  V30 2197 O 206.286 1.22816 -1.52364 0
M  V30 2198 C 206.585 -1.90624 -3.0232 0
M  V30 2199 C 206.251 -3.40405 -2.95695 0
M  V30 2200 C 204.913 -3.81255 -2.93595 0
M  V30 2201 C 207.265 -4.359 -2.85728 0
M  V30 2202 C 204.593 -5.15936 -2.79334 0
M  V30 2203 C 206.945 -5.70657 -2.73007 0
M  V30 2204 C 205.609 -6.10779 -2.69267 0
M  V30 2205 H 204.879 -0.424234 -0.607541 0
M  V30 2206 H 207.526 -1.5942 -1.06101 0
M  V30 2207 H 205.831 -1.39696 -3.6605 0
M  V30 2208 H 207.528 -1.78228 -3.59215 0
M  V30 2209 H 204.118 -3.07927 -2.98125 0
M  V30 2210 H 208.302 -4.053 -2.86436 0
M  V30 2211 H 203.558 -5.46146 -2.74835 0
M  V30 2212 H 207.732 -6.44311 -2.64264 0
M  V30 2213 H 205.359 -7.1509 -2.57974 0
M  V30 2214 N 206.934 1.1197 -1.10907 0
M  V30 2215 C 208.345 1.65114 -0.871446 0
M  V30 2216 C 208.696 1.86885 0.597353 0
M  V30 2217 O 207.821 1.59896 1.45816 0
M  V30 2218 C 208.416 2.99944 -1.5754 0
M  V30 2219 C 206.975 3.50018 -1.38435 0
M  V30 2220 C 206.122 2.24941 -1.62164 0
M  V30 2221 H 209.073 0.956851 -1.2661 0
M  V30 2222 H 209.094 3.66651 -1.01721 0
M  V30 2223 H 208.606 2.84067 -2.64438 0
M  V30 2224 H 206.707 3.71071 -0.337214 0
M  V30 2225 H 206.82 4.29165 -2.12965 0
M  V30 2226 H 205.184 2.3229 -1.04467 0
M  V30 2227 H 205.967 2.11612 -2.70324 0
M  V30 2228 N 208.412 0.89855 1.29475 0
M  V30 2229 C 209.689 0.443416 1.90508 0
M  V30 2230 C 210.069 -1.07685 1.81569 0
M  V30 2231 O 209.417 -1.9182 1.24166 0
M  V30 2232 C 209.627 0.956708 3.35631 0
M  V30 2233 C 210.975 0.999728 4.12663 0
M  V30 2234 O 211.999 0.904299 3.4453 0
M  V30 2235 O 210.858 1.14289 5.34416 0
M  V30 2236 H 207.952 0.138025 0.815401 0
M  V30 2237 H 210.498 0.98834 1.37949 0
M  V30 2238 H 209.27 2.00067 3.36287 0
M  V30 2239 H 208.893 0.391728 3.95666 0
M  V30 2240 N 209.89 -1.43072 0.660911 0
M  V30 2241 C 210.82 -2.33497 -0.0122829 0
M  V30 2242 C 211.801 -1.49903 -0.803925 0
M  V30 2243 O 212.986 -1.78546 -0.763864 0
M  V30 2244 C 210.116 -3.33363 -0.973994 0
M  V30 2245 C 209.07 -4.27003 -0.291928 0
M  V30 2246 C 208.396 -5.16967 -1.36562 0
M  V30 2247 C 209.696 -5.15816 0.820462 0
M  V30 2248 H 211.39 -2.90038 0.742873 0
M  V30 2249 H 208.936 -1.39461 0.358688 0
M  V30 2250 H 210.889 -3.95524 -1.45392 0
M  V30 2251 H 209.613 -2.75095 -1.7604 0
M  V30 2252 H 208.272 -3.66217 0.167623 0
M  V30 2253 H 207.92 -4.55034 -2.14366 0
M  V30 2254 H 207.62 -5.80441 -0.914454 0
M  V30 2255 H 209.144 -5.82003 -1.84675 0
M  V30 2256 H 210.558 -5.71742 0.422366 0
M  V30 2257 H 208.955 -5.8805 1.19656 0
M  V30 2258 H 210.025 -4.55045 1.67518 0
M  V30 2259 N 211.368 -0.403325 -1.52352 0
M  V30 2260 C 212.316 0.439752 -2.28405 0
M  V30 2261 C 213.31 1.05089 -1.32863 0
M  V30 2262 O 214.516 0.989759 -1.50345 0
M  V30 2263 H 210.891 0.160587 -0.734653 0
M  V30 2264 H 212.862 -0.222983 -2.97566 0
M  V30 2265 C 211.611 1.54736 -3.11371 0
M  V30 2266 H 210.934 1.08643 -3.84755 0
M  V30 2267 H 212.374 2.1112 -3.67701 0
M  V30 2268 C 210.833 2.51141 -2.24566 0
M  V30 2269 O 211.363 3.54887 -1.88196 0
M  V30 2270 N 209.569 2.21213 -1.8845 0
M  V30 2271 H 209.116 1.36878 -2.18225 0
M  V30 2272 H 209.074 2.85963 -1.30662 0
M  V30 2273 N 212.846 1.57033 -0.133567 0
M  V30 2274 C 213.796 2.12641 0.822671 0
M  V30 2275 C 214.78 1.05081 1.21847 0
M  V30 2276 O 215.972 1.31287 1.18713 0
M  V30 2277 C 213.101 2.74094 2.06706 0
M  V30 2278 C 212.187 3.88757 1.69497 0
M  V30 2279 N 212.578 4.95194 1.03037 0
M  V30 2280 C 210.876 3.99213 1.98859 0
M  V30 2281 C 211.577 5.75414 0.852873 0
M  V30 2282 N 210.553 5.25726 1.3825 0
M  V30 2283 H 214.355 2.92308 0.305537 0
M  V30 2284 H 211.869 1.62256 0.0684276 0
M  V30 2285 H 213.866 3.12285 2.76195 0
M  V30 2286 H 212.526 1.95896 2.5895 0
M  V30 2287 H 213.537 5.13247 0.692669 0
M  V30 2288 H 210.214 3.32075 2.53047 0
M  V30 2289 H 211.604 6.71089 0.330091 0
M  V30 2290 N 214.325 -0.140222 1.56975 0
M  V30 2291 C 215.574 -0.850152 1.82908 0
M  V30 2292 C 215.887 -1.82028 0.715892 0
M  V30 2293 O 217.093 -2.57485 0.861016 0
M  V30 2294 C 215.549 -1.5625 3.24213 0
M  V30 2295 C 215.157 -0.63443 4.43485 0
M  V30 2296 C 216.901 -2.25881 3.59413 0
M  V30 2297 C 214.808 -1.34879 5.75814 0
M  V30 2298 H 213.738 -0.321221 0.682153 0
M  V30 2299 H 216.389 -0.102874 1.83211 0
M  V30 2300 H 214.771 -2.35565 3.18316 0
M  V30 2301 H 215.945 0.12398 4.60633 0
M  V30 2302 H 214.26 -0.0461836 4.16374 0
M  V30 2303 H 216.857 -2.79978 4.5554 0
M  V30 2304 H 217.2 -3.02693 2.85802 0
M  V30 2305 H 217.733 -1.53477 3.67001 0
M  V30 2306 H 214.472 -0.622385 6.52539 0
M  V30 2307 H 213.992 -2.07974 5.6259 0
M  V30 2308 H 215.671 -1.88784 6.18845 0
M  V30 2309 N 215.803 -1.52179 -0.40978 0
M  V30 2310 C 217.049 -1.66453 -1.15851 0
M  V30 2311 C 217.382 -0.392972 -1.90182 0
M  V30 2312 O 216.657 0.608579 -1.84734 0
M  V30 2313 C 216.94 -2.88612 -2.15349 0
M  V30 2314 C 216.793 -4.25815 -1.44918 0
M  V30 2315 C 218.112 -3.06294 -3.16026 0
M  V30 2316 H 215.231 -0.60575 -0.419805 0
M  V30 2317 H 217.873 -1.84732 -0.444314 0
M  V30 2318 H 216.023 -2.73158 -2.76255 0
M  V30 2319 H 217.695 -4.52995 -0.871365 0
M  V30 2320 H 215.938 -4.27247 -0.751159 0
M  V30 2321 H 216.609 -5.07337 -2.17516 0
M  V30 2322 H 219.085 -3.20641 -2.65195 0
M  V30 2323 H 217.961 -3.93283 -3.8291 0
M  V30 2324 H 218.222 -2.19579 -3.83715 0
M  V30 2325 N 217.281 0.66697 -1.42791 0
M  V30 2326 C 218.228 1.7803 -1.4688 0
M  V30 2327 C 219.198 1.6299 -0.319919 0
M  V30 2328 O 220.383 1.83432 -0.525118 0
M  V30 2329 C 217.523 3.1611 -1.38451 0
M  V30 2330 C 216.636 3.42381 -2.63437 0
M  V30 2331 C 215.771 4.70232 -2.47094 0
M  V30 2332 C 214.81 4.89564 -3.67415 0
M  V30 2333 N 213.947 6.08661 -3.49966 0
M  V30 2334 H 218.787 1.7387 -2.42019 0
M  V30 2335 H 216.324 0.84868 -1.20149 0
M  V30 2336 H 218.282 3.95914 -1.31561 0
M  V30 2337 H 216.912 3.19374 -0.469033 0
M  V30 2338 H 215.964 2.56774 -2.80662 0
M  V30 2339 H 217.276 3.52557 -3.52853 0
M  V30 2340 H 216.43 5.5814 -2.37834 0
M  V30 2341 H 215.169 4.62353 -1.5518 0
M  V30 2342 H 214.174 4.00096 -3.77099 0
M  V30 2343 H 215.399 4.99282 -4.6032 0
M  V30 2344 H 213.345 6.0194 -2.60776 0
M  V30 2345 H 213.262 6.19733 -4.32975 0
M  V30 2346 H 214.53 6.99226 -3.44532 0
M  V30 2347 N 218.759 1.29093 0.90403 0
M  V30 2348 C 220.175 1.07011 1.1841 0
M  V30 2349 C 220.375 -0.181358 2.00682 0
M  V30 2350 O 219.431 -0.880331 2.36657 0
M  V30 2351 C 220.744 2.32311 1.90924 0
M  V30 2352 C 222.292 2.37587 2.03768 0
M  V30 2353 C 222.767 3.62679 2.79693 0
M  V30 2354 N 224.258 3.63376 2.87249 0
M  V30 2355 C 224.993 4.56848 3.46522 0
M  V30 2356 N 224.489 5.60648 4.06996 0
M  V30 2357 N 226.282 4.44426 3.44154 0
M  V30 2358 H 218.433 2.09412 0.354993 0
M  V30 2359 H 220.696 0.922181 0.219742 0
M  V30 2360 H 220.402 3.23536 1.37905 0
M  V30 2361 H 220.276 2.39483 2.91424 0
M  V30 2362 H 222.663 1.46853 2.55965 0
M  V30 2363 H 222.744 2.34403 1.02415 0
M  V30 2364 H 222.388 4.53762 2.28173 0
M  V30 2365 H 222.318 3.63119 3.81381 0
M  V30 2366 H 224.809 2.88321 2.44293 0
M  V30 2367 H 225.122 6.28101 4.50232 0
M  V30 2368 H 223.467 5.64463 4.05471 0
M  V30 2369 H 226.658 3.62529 2.96126 0
M  V30 2370 H 226.831 5.17457 3.90054 0
M  V30 2371 N 220.237 -1.11381 1.11499 0
M  V30 2372 C 221.514 -1.7955 0.775965 0
M  V30 2373 C 221.894 -1.97859 -0.73588 0
M  V30 2374 O 221.242 -1.56376 -1.66609 0
M  V30 2375 C 221.452 -3.13196 1.53977 0
M  V30 2376 C 222.8 -3.88227 1.71944 0
M  V30 2377 O 223.824 -3.22887 1.50407 0
M  V30 2378 O 222.683 -5.05477 2.07738 0
M  V30 2379 H 219.777 -0.777728 0.28119 0
M  V30 2380 H 222.323 -1.18118 1.21845 0
M  V30 2381 H 221.095 -2.95229 2.56818 0
M  V30 2382 H 220.718 -3.82342 1.09088 0
M  V30 2383 N 221.715 -0.905404 -1.28997 0
M  V30 2384 C 223.126 -0.581953 -1.77398 0
M  V30 2385 C 223.477 0.902552 -1.74208 0
M  V30 2386 O 222.602 1.70584 -1.33154 0
M  V30 2387 C 223.197 -1.04961 -3.22131 0
M  V30 2388 C 221.756 -0.777229 -3.68288 0
M  V30 2389 C 220.903 -1.22109 -2.48967 0
M  V30 2390 H 223.854 -1.08754 -1.15578 0
M  V30 2391 H 223.875 -0.387387 -3.78523 0
M  V30 2392 H 223.387 -2.13008 -3.24421 0
M  V30 2393 H 221.488 0.290383 -3.71467 0
M  V30 2394 H 221.601 -1.37911 -4.58822 0
M  V30 2395 H 219.965 -0.639971 -2.46529 0
M  V30 2396 H 220.748 -2.30972 -2.53982 0
M  V30 2397 N 223.193 1.4272 -0.668489 0
M  V30 2398 C 224.609 1.55992 -0.33745 0
M  V30 2399 C 224.809 1.64933 1.15756 0
M  V30 2400 O 223.865 1.61278 1.94282 0
M  V30 2401 C 225.178 2.81314 -1.06222 0
M  V30 2402 C 226.726 2.95078 -1.04394 0
M  V30 2403 C 227.201 4.23252 -1.74991 0
M  V30 2404 N 228.692 4.3015 -1.71829 0
M  V30 2405 C 229.427 5.28127 -2.23315 0
M  V30 2406 N 228.923 6.32293 -2.83156 0
M  V30 2407 N 230.716 5.19882 -2.13726 0
M  V30 2408 H 222.867 1.3516 -1.63846 0
M  V30 2409 H 225.13 0.650174 -0.689912 0
M  V30 2410 H 224.836 2.80823 -2.11734 0
M  V30 2411 H 224.71 3.72012 -0.62344 0
M  V30 2412 H 227.097 2.951 0.0028244 0
M  V30 2413 H 227.178 2.05627 -1.52155 0
M  V30 2414 H 226.822 4.2399 -2.79633 0
M  V30 2415 H 226.752 5.11626 -1.24685 0
M  V30 2416 H 229.243 3.55499 -1.28175 0
M  V30 2417 H 229.556 7.03398 -3.20079 0
M  V30 2418 H 227.901 6.32873 -2.87223 0
M  V30 2419 H 231.092 4.37423 -1.66669 0
M  V30 2420 H 231.265 5.96077 -2.54158 0
M  V30 2421 N 224.671 0.411399 1.52136 0
M  V30 2422 C 225.899 -0.163076 2.06256 0
M  V30 2423 C 226.314 -1.3867 1.28125 0
M  V30 2424 O 225.671 -1.79423 0.333721 0
M  V30 2425 C 225.722 -0.511252 3.57867 0
M  V30 2426 O 225.443 0.66378 4.33042 0
M  V30 2427 C 226.944 -1.13921 4.28412 0
M  V30 2428 H 224.164 -0.0193897 0.67072 0
M  V30 2429 H 226.708 0.583007 1.96013 0
M  V30 2430 H 224.863 -1.20723 3.6811 0
M  V30 2431 H 225.277 0.372601 5.23175 0
M  V30 2432 H 226.751 -1.33302 5.35663 0
M  V30 2433 H 227.228 -2.11296 3.85033 0
M  V30 2434 H 227.834 -0.483373 4.22544 0
M  V30 2435 N 226.149 -1.5696 0.141893 0
M  V30 2436 C 227.097 -2.17784 -0.816874 0
M  V30 2437 C 228.091 -1.1334 -1.25899 0
M  V30 2438 O 229.297 -1.316 -1.22806 0
M  V30 2439 H 225.672 -0.697278 -0.281615 0
M  V30 2440 H 227.643 -2.97087 -0.279621 0
M  V30 2441 C 226.392 -2.80983 -2.04802 0
M  V30 2442 H 225.715 -3.61062 -1.7168 0
M  V30 2443 H 227.155 -3.2705 -2.69841 0
M  V30 2444 C 225.614 -1.79228 -2.8527 0
M  V30 2445 O 226.144 -1.25962 -3.8144 0
M  V30 2446 N 224.35 -1.48647 -2.49704 0
M  V30 2447 H 223.897 -1.92155 -1.71564 0
M  V30 2448 H 223.855 -0.808115 -3.03837 0
M  V30 2449 N 227.627 0.131896 -1.57047 0
M  V30 2450 C 228.56 1.19236 -1.94571 0
M  V30 2451 C 229.538 1.40782 -0.813576 0
M  V30 2452 O 230.722 1.55148 -1.07058 0
M  V30 2453 C 227.849 2.54858 -2.23081 0
M  V30 2454 C 226.895 2.49817 -3.45679 0
M  V30 2455 S 227.728 1.95036 -4.98719 0
M  V30 2456 C 228.884 3.32357 -5.30367 0
M  V30 2457 H 229.117 0.872297 -2.84215 0
M  V30 2458 H 226.65 0.338134 -1.50652 0
M  V30 2459 H 228.608 3.32898 -2.40185 0
M  V30 2460 H 227.269 2.84047 -1.34074 0
M  V30 2461 H 226.462 3.49688 -3.62952 0
M  V30 2462 H 226.064 1.79892 -3.27895 0
M  V30 2463 H 228.356 4.28525 -5.2476 0
M  V30 2464 H 229.299 3.19923 -6.31708 0
M  V30 2465 H 229.707 3.3019 -4.57859 0
M  V30 2466 N 229.106 1.52395 0.401703 0
M  V30 2467 C 230.522 1.41363 0.740864 0
M  V30 2468 C 230.722 0.523982 1.94568 0
M  V30 2469 O 229.778 -0.00741204 2.52499 0
M  V30 2470 C 231.091 2.84011 0.987847 0
M  V30 2471 C 232.639 2.93404 1.09011 0
M  V30 2472 C 233.114 4.37036 1.3698 0
M  V30 2473 N 234.605 4.40304 1.43829 0
M  V30 2474 C 235.34 5.48508 1.67112 0
M  V30 2475 N 234.836 6.66819 1.87949 0
M  V30 2476 N 236.629 5.36034 1.69187 0
M  V30 2477 H 228.78 2.08765 -0.391262 0
M  V30 2478 H 231.043 0.941265 -0.112798 0
M  V30 2479 H 230.749 3.51265 0.174835 0
M  V30 2480 H 230.623 3.25502 1.906 0
M  V30 2481 H 233.01 2.26325 1.8937 0
M  V30 2482 H 233.091 2.55359 0.15015 0
M  V30 2483 H 232.735 5.04676 0.571353 0
M  V30 2484 H 232.665 4.72623 2.3224 0
M  V30 2485 H 235.156 3.55024 1.29486 0
M  V30 2486 H 235.469 7.45063 2.05185 0
M  V30 2487 H 233.814 6.6987 1.85199 0
M  V30 2488 H 237.005 4.42579 1.52451 0
M  V30 2489 H 237.178 6.20434 1.86993 0
M  V30 2490 N 230.584 -0.659388 1.43143 0
M  V30 2491 C 231.532 -1.79374 1.4808 0
M  V30 2492 C 232.526 -1.65639 0.354988 0
M  V30 2493 O 233.732 -1.7206 0.528704 0
M  V30 2494 H 230.107 -0.591705 0.4641 0
M  V30 2495 H 232.078 -1.72329 2.43609 0
M  V30 2496 C 230.827 -3.17606 1.41499 0
M  V30 2497 H 230.15 -3.28809 2.27431 0
M  V30 2498 H 231.59 -3.96951 1.49015 0
M  V30 2499 C 230.049 -3.36642 0.131765 0
M  V30 2500 O 230.579 -3.93461 -0.809386 0
M  V30 2501 N 228.785 -2.90567 0.0439396 0
M  V30 2502 H 228.332 -2.44513 0.810619 0
M  V30 2503 H 228.29 -3.03681 -0.813969 0
M  V30 2504 N 232.062 -1.29571 -0.897171 0
M  V30 2505 C 232.995 -1.0924 -2.00354 0
M  V30 2506 C 233.973 -0.00354011 -1.626 0
M  V30 2507 O 235.157 -0.15473 -1.87864 0
M  V30 2508 C 232.284 -0.66352 -3.32137 0
M  V30 2509 C 231.33 -1.75146 -3.88878 0
M  V30 2510 S 232.163 -3.35124 -4.17674 0
M  V30 2511 C 233.319 -2.9411 -5.52494 0
M  V30 2512 H 233.552 -2.02907 -2.17292 0
M  V30 2513 H 231.085 -1.13746 -1.04408 0
M  V30 2514 H 233.043 -0.422791 -4.08317 0
M  V30 2515 H 231.704 0.253588 -3.13075 0
M  V30 2516 H 230.897 -1.40337 -4.84068 0
M  V30 2517 H 230.499 -1.94584 -3.19395 0
M  V30 2518 H 232.791 -2.41312 -6.33068 0
M  V30 2519 H 233.734 -3.88161 -5.9223 0
M  V30 2520 H 234.142 -2.32332 -5.14473 0
M  V30 2521 N 233.54 1.10788 -1.12088 0
M  V30 2522 C 234.503 2.15207 -0.788577 0
M  V30 2523 C 235.503 1.59609 0.195317 0
M  V30 2524 O 236.693 1.74174 -0.0300193 0
M  V30 2525 C 233.825 3.4047 -0.171174 0
M  V30 2526 H 235.018 2.46116 -1.71368 0
M  V30 2527 H 232.571 1.26089 -0.923652 0
M  V30 2528 H 233.306 3.15176 0.763832 0
M  V30 2529 H 233.091 3.82109 -0.879514 0
M  V30 2530 H 234.581 4.17576 0.04496 0
M  V30 2531 N 235.018 0.912232 1.28515 0
M  V30 2532 C 236.248 0.559604 1.98877 0
M  V30 2533 C 236.656 -0.863113 1.68366 0
M  V30 2534 O 235.999 -1.58304 0.931969 0
M  V30 2535 C 236.061 0.68703 3.52874 0
M  V30 2536 C 235.725 2.07901 4.06972 0
M  V30 2537 C 236.722 3.05157 4.20922 0
M  V30 2538 C 234.407 2.39178 4.417 0
M  V30 2539 C 236.401 4.31806 4.68852 0
M  V30 2540 C 234.088 3.66068 4.89324 0
M  V30 2541 C 235.086 4.62195 5.02856 0
M  V30 2542 O 234.774 5.86829 5.49442 0
M  V30 2543 H 234.506 0.212191 0.641834 0
M  V30 2544 H 237.06 1.22712 1.64715 0
M  V30 2545 H 235.29 -0.0375486 3.86682 0
M  V30 2546 H 236.979 0.341727 4.04459 0
M  V30 2547 H 237.745 2.82311 3.94367 0
M  V30 2548 H 233.624 1.65109 4.30418 0
M  V30 2549 H 237.168 5.06842 4.79329 0
M  V30 2550 H 233.065 3.88739 5.15318 0
M  V30 2551 H 233.833 5.89597 5.6773 0
M  V30 2552 N 236.496 -1.42363 0.676048 0
M  V30 2553 C 237.443 -2.308 -0.00150904 0
M  V30 2554 C 238.413 -1.46032 -0.791444 0
M  V30 2555 O 239.598 -1.74861 -0.76344 0
M  V30 2556 C 236.738 -3.31883 -0.945919 0
M  V30 2557 C 235.851 -4.31741 -0.149675 0
M  V30 2558 C 234.986 -5.19898 -1.08995 0
M  V30 2559 C 234.025 -6.11434 -0.285465 0
M  V30 2560 N 233.162 -6.92138 -1.17851 0
M  V30 2561 H 238.002 -2.88187 0.758455 0
M  V30 2562 H 235.539 -1.41952 0.38576 0
M  V30 2563 H 237.497 -3.89019 -1.50731 0
M  V30 2564 H 236.127 -2.76093 -1.6725 0
M  V30 2565 H 235.179 -3.76713 0.528359 0
M  V30 2566 H 236.491 -4.96534 0.474866 0
M  V30 2567 H 235.645 -5.81772 -1.72123 0
M  V30 2568 H 234.384 -4.55284 -1.74837 0
M  V30 2569 H 233.389 -5.48627 0.359018 0
M  V30 2570 H 234.614 -6.78097 0.368883 0
M  V30 2571 H 232.56 -6.30152 -1.82332 0
M  V30 2572 H 232.477 -7.53542 -0.609082 0
M  V30 2573 H 233.745 -7.58499 -1.79722 0
M  V30 2574 N 237.974 -0.419461 -1.51915 0
M  V30 2575 C 239.22 0.145505 -2.02879 0
M  V30 2576 C 239.575 1.41926 -1.29903 0
M  V30 2577 O 238.868 1.87383 -0.399782 0
M  V30 2578 C 239.062 0.437067 -3.54717 0
M  V30 2579 C 238.891 -0.806877 -4.42402 0
M  V30 2580 C 237.661 -1.33514 -4.87342 0
M  V30 2581 C 239.859 -1.68796 -4.85811 0
M  V30 2582 N 237.841 -2.53349 -5.59185 0
M  V30 2583 C 239.212 -2.73247 -5.56539 0
M  V30 2584 C 241.267 -1.70449 -4.67816 0
M  V30 2585 C 239.97 -3.79276 -6.11181 0
M  V30 2586 C 241.996 -2.75403 -5.23361 0
M  V30 2587 C 241.358 -3.78575 -5.9402 0
M  V30 2588 H 237.457 0.0145424 -0.781865 0
M  V30 2589 H 240.041 -0.576126 -1.85981 0
M  V30 2590 H 238.212 1.12774 -3.71667 0
M  V30 2591 H 239.944 0.99182 -3.92358 0
M  V30 2592 H 236.699 -0.891657 -4.65131 0
M  V30 2593 H 237.123 -3.14066 -5.99743 0
M  V30 2594 H 241.765 -0.920209 -4.12664 0
M  V30 2595 H 239.483 -4.58554 -6.65397 0
M  V30 2596 H 243.069 -2.77603 -5.113 0
M  V30 2597 H 241.949 -4.58453 -6.36231 0
M  V30 2598 N 239.452 1.56882 -0.150215 0
M  V30 2599 C 240.729 1.87844 0.545327 0
M  V30 2600 C 241.109 1.0567 1.82749 0
M  V30 2601 O 240.457 0.144442 2.28043 0
M  V30 2602 C 240.667 3.39526 0.80767 0
M  V30 2603 C 242.015 4.08814 1.14703 0
M  V30 2604 O 243.039 3.44723 0.896917 0
M  V30 2605 O 241.898 5.22004 1.61784 0
M  V30 2606 H 238.992 0.778677 0.278553 0
M  V30 2607 H 241.538 1.68666 -0.187068 0
M  V30 2608 H 240.31 3.91173 -0.0996096 0
M  V30 2609 H 239.933 3.64243 1.59413 0
M  V30 2610 N 240.93 -0.123565 1.57115 0
M  V30 2611 C 242.177 -0.832153 1.84612 0
M  V30 2612 C 242.505 -1.80093 0.734627 0
M  V30 2613 O 241.76 -1.93766 -0.27442 0
M  V30 2614 C 242.059 -1.62016 3.18568 0
M  V30 2615 C 241.725 -0.796084 4.43817 0
M  V30 2616 C 240.387 -0.568816 4.77826 0
M  V30 2617 C 242.739 -0.221364 5.2073 0
M  V30 2618 C 240.067 0.243499 5.86194 0
M  V30 2619 C 242.419 0.578117 6.29953 0
M  V30 2620 C 241.083 0.815744 6.62497 0
M  V30 2621 H 240.353 -0.304507 0.675542 0
M  V30 2622 H 243 -0.0947248 1.91266 0
M  V30 2623 H 241.305 -2.42837 3.0747 0
M  V30 2624 H 243.002 -2.17231 3.37064 0
M  V30 2625 H 239.592 -0.983307 4.17168 0
M  V30 2626 H 243.776 -0.384173 4.94811 0
M  V30 2627 H 239.032 0.436871 6.09837 0
M  V30 2628 H 243.206 1.03046 6.88734 0
M  V30 2629 H 240.833 1.44701 7.46301 0
M  V30 2630 N 242.408 -1.52605 -0.393616 0
M  V30 2631 C 243.655 -1.67424 -1.1391 0
M  V30 2632 C 243.983 -0.411859 -1.90089 0
M  V30 2633 O 243.238 0.605626 -1.86093 0
M  V30 2634 C 243.537 -2.85721 -2.14705 0
M  V30 2635 C 243.203 -4.23342 -1.55218 0
M  V30 2636 C 241.865 -4.60771 -1.3872 0
M  V30 2637 C 244.217 -5.09041 -1.11924 0
M  V30 2638 C 241.545 -5.81563 -0.774689 0
M  V30 2639 C 243.897 -6.30452 -0.520853 0
M  V30 2640 C 242.561 -6.66617 -0.343134 0
M  V30 2641 H 241.831 -0.612648 -0.416826 0
M  V30 2642 H 244.478 -1.8674 -0.424315 0
M  V30 2643 H 242.783 -2.60803 -2.92385 0
M  V30 2644 H 244.48 -2.94382 -2.72288 0
M  V30 2645 H 241.07 -3.93855 -1.69045 0
M  V30 2646 H 245.254 -4.80695 -1.23473 0
M  V30 2647 H 240.51 -6.08196 -0.625154 0
M  V30 2648 H 244.684 -6.96175 -0.177065 0
M  V30 2649 H 242.311 -7.60083 0.133571 0
M  V30 2650 N 243.887 0.651787 -1.4349 0
M  V30 2651 C 245.112 1.44434 -1.48841 0
M  V30 2652 C 245.537 1.8779 -0.107955 0
M  V30 2653 O 244.895 1.57464 0.898602 0
M  V30 2654 C 244.943 2.65458 -2.44059 0
M  V30 2655 O 244.047 3.64566 -1.92784 0
M  V30 2656 H 243.388 0.433005 -0.503391 0
M  V30 2657 H 245.918 0.797451 -1.88419 0
M  V30 2658 H 245.928 3.13255 -2.6141 0
M  V30 2659 H 244.603 2.33244 -3.4434 0
M  V30 2660 H 243.18 3.23716 -1.851 0
M  V30 2661 N 245.365 1.30045 0.890287 0
M  V30 2662 C 246.315 1.12592 1.9826 0
M  V30 2663 C 247.299 0.0426021 1.60844 0
M  V30 2664 O 248.491 0.265346 1.75 0
M  V30 2665 C 245.62 0.814301 3.33503 0
M  V30 2666 C 244.706 1.93761 3.7725 0
M  V30 2667 N 245.097 3.18232 3.93143 0
M  V30 2668 C 243.395 1.83277 4.06602 0
M  V30 2669 C 244.096 3.9158 4.30163 0
M  V30 2670 N 243.072 3.19591 4.3973 0
M  V30 2671 H 246.874 2.07003 2.08631 0
M  V30 2672 H 244.388 1.21307 1.07974 0
M  V30 2673 H 246.385 0.67029 4.11476 0
M  V30 2674 H 245.045 -0.121797 3.24471 0
M  V30 2675 H 246.056 3.53581 3.78419 0
M  V30 2676 H 242.733 0.97001 4.06075 0
M  V30 2677 H 244.123 4.98744 4.50226 0
M  V30 2678 N 246.843 -1.10192 1.12674 0
M  V30 2679 C 247.773 -2.18652 0.819362 0
M  V30 2680 C 248.754 -1.68698 -0.217915 0
M  V30 2681 O 249.939 -1.94041 -0.0785581 0
M  V30 2682 C 247.069 -3.46202 0.27594 0
M  V30 2683 C 246.023 -4.09444 1.24656 0
M  V30 2684 C 245.349 -5.31725 0.563258 0
M  V30 2685 C 246.649 -4.52863 2.60217 0
M  V30 2686 H 248.343 -2.44622 1.72628 0
M  V30 2687 H 245.889 -1.17571 0.831451 0
M  V30 2688 H 247.842 -4.21372 0.0486149 0
M  V30 2689 H 246.566 -3.1973 -0.666331 0
M  V30 2690 H 245.225 -3.36284 1.45974 0
M  V30 2691 H 244.873 -5.0153 -0.384235 0
M  V30 2692 H 244.573 -5.74991 1.21075 0
M  V30 2693 H 246.097 -6.09624 0.34503 0
M  V30 2694 H 247.511 -5.19294 2.42913 0
M  V30 2695 H 245.908 -5.06986 3.21068 0
M  V30 2696 H 246.978 -3.65656 3.18471 0
M  V30 2697 N 248.321 -0.919034 -1.28029 0
M  V30 2698 C 249.732 -0.600735 -1.76771 0
M  V30 2699 C 250.083 0.884024 -1.75156 0
M  V30 2700 O 249.208 1.69163 -1.34956 0
M  V30 2701 C 249.803 -1.08372 -3.21 0
M  V30 2702 C 248.362 -0.816248 -3.67443 0
M  V30 2703 C 247.509 -1.24742 -2.47658 0
M  V30 2704 H 250.46 -1.09974 -1.14418 0
M  V30 2705 H 250.481 -0.427512 -3.78091 0
M  V30 2706 H 249.993 -2.16437 -3.22144 0
M  V30 2707 H 248.094 0.250968 -3.71754 0
M  V30 2708 H 248.207 -1.4277 -4.57333 0
M  V30 2709 H 246.571 -0.666083 -2.45836 0
M  V30 2710 H 247.354 -2.33653 -2.51518 0
M  V30 2711 N 249.799 1.42003 -0.683588 0
M  V30 2712 C 250.709 2.34597 -0.0109075 0
M  V30 2713 C 251.725 1.55576 0.779245 0
M  V30 2714 O 252.901 1.88107 0.719555 0
M  V30 2715 C 249.966 3.34199 0.922588 0
M  V30 2716 C 249.027 4.29115 0.125984 0
M  V30 2717 C 248.26 5.23959 1.01502 0
M  V30 2718 O 248.483 5.23952 2.25456 0
M  V30 2719 O 247.417 6.00053 0.47111 0
M  V30 2720 H 251.243 2.93675 -0.773853 0
M  V30 2721 H 248.828 1.42654 -0.443861 0
M  V30 2722 H 250.71 3.95365 1.45823 0
M  V30 2723 H 249.385 2.77582 1.66523 0
M  V30 2724 H 248.292 3.71335 -0.453969 0
M  V30 2725 H 249.625 4.88798 -0.577736 0
M  V30 2726 N 251.277 0.427512 1.51691 0
M  V30 2727 C 252.502 -0.143601 2.06902 0
M  V30 2728 C 252.927 -1.36536 1.29382 0
M  V30 2729 O 252.285 -1.78289 0.329043 0
M  V30 2730 C 252.333 -0.454207 3.57728 0
M  V30 2731 O 251.437 -1.54228 3.82475 0
M  V30 2732 H 250.778 -0.00617128 0.663971 0
M  V30 2733 H 253.308 0.606014 1.95419 0
M  V30 2734 H 253.318 -0.707525 4.01818 0
M  V30 2735 H 251.993 0.438812 4.13579 0
M  V30 2736 H 250.57 -1.2797 3.50254 0
M  V30 2737 N 252.755 -1.56801 0.158532 0
M  V30 2738 C 253.685 -2.20347 -0.772609 0
M  V30 2739 C 254.666 -1.15518 -1.24859 0
M  V30 2740 O 255.851 -1.43902 -1.30406 0
M  V30 2741 C 252.981 -2.83417 -2.00729 0
M  V30 2742 C 251.935 -3.94174 -1.66765 0
M  V30 2743 C 251.261 -4.44233 -2.97592 0
M  V30 2744 C 252.561 -5.14392 -0.905447 0
M  V30 2745 H 254.255 -2.98413 -0.242959 0
M  V30 2746 H 251.801 -1.43537 -0.115419 0
M  V30 2747 H 253.754 -3.26543 -2.6636 0
M  V30 2748 H 252.478 -2.02701 -2.56086 0
M  V30 2749 H 251.137 -3.51684 -1.03508 0
M  V30 2750 H 250.785 -3.60325 -3.50963 0
M  V30 2751 H 250.485 -5.18945 -2.75626 0
M  V30 2752 H 252.009 -4.90037 -3.64274 0
M  V30 2753 H 253.423 -5.5429 -1.46408 0
M  V30 2754 H 251.82 -5.9494 -0.7853 0
M  V30 2755 H 252.89 -4.84795 0.100668 0
M  V30 2756 N 254.233 0.115231 -1.57178 0
M  V30 2757 C 255.183 1.14707 -1.97044 0
M  V30 2758 C 256.167 1.36866 -0.845957 0
M  V30 2759 O 257.359 1.37895 -1.10968 0
M  V30 2760 C 254.488 2.47266 -2.38148 0
M  V30 2761 C 253.574 2.28566 -3.57237 0
M  V30 2762 N 253.965 1.79685 -4.72807 0
M  V30 2763 C 252.263 2.59208 -3.62943 0
M  V30 2764 C 252.964 1.74781 -5.54821 0
M  V30 2765 N 251.94 2.19264 -4.97417 0
M  V30 2766 H 255.742 0.761754 -2.83857 0
M  V30 2767 H 253.256 0.322928 -1.59157 0
M  V30 2768 H 255.253 3.219 -2.64927 0
M  V30 2769 H 253.913 2.86552 -1.52702 0
M  V30 2770 H 254.924 1.49177 -4.9595 0
M  V30 2771 H 251.601 3.02154 -2.88113 0
M  V30 2772 H 252.991 1.38212 -6.57531 0
M  V30 2773 N 255.711 1.52812 0.385517 0
M  V30 2774 C 256.643 1.74096 1.49074 0
M  V30 2775 C 257.656 0.621462 1.50472 0
M  V30 2776 O 258.845 0.897245 1.54311 0
M  V30 2777 C 255.945 1.78774 2.87911 0
M  V30 2778 C 255.118 3.08134 3.10439 0
M  V30 2779 C 254.177 3.04313 4.29278 0
M  V30 2780 O 253.203 3.78168 4.25415 0
M  V30 2781 N 254.405 2.23741 5.35649 0
M  V30 2782 H 257.17 2.69455 1.31202 0
M  V30 2783 H 254.731 1.51343 0.575065 0
M  V30 2784 H 256.723 1.73721 3.65518 0
M  V30 2785 H 255.293 0.907869 2.99126 0
M  V30 2786 H 254.513 3.26649 2.20667 0
M  V30 2787 H 255.801 3.93662 3.22347 0
M  V30 2788 H 255.199 1.63211 5.41645 0
M  V30 2789 H 253.756 2.24524 6.11909 0
M  V30 2790 N 257.189 -0.644168 1.43834 0
M  V30 2791 C 258.119 -1.76814 1.52509 0
M  V30 2792 C 259.1 -1.65823 0.379052 0
M  V30 2793 O 260.285 -1.84781 0.597466 0
M  V30 2794 C 257.415 -3.15288 1.4564 0
M  V30 2795 C 256.369 -3.41053 2.58586 0
M  V30 2796 C 255.695 -4.79421 2.36769 0
M  V30 2797 C 256.995 -3.34902 4.00797 0
M  V30 2798 H 258.689 -1.69812 2.46586 0
M  V30 2799 H 256.235 -0.815542 1.1868 0
M  V30 2800 H 258.188 -3.93681 1.50311 0
M  V30 2801 H 256.912 -3.23043 0.480725 0
M  V30 2802 H 255.571 -2.65035 2.53282 0
M  V30 2803 H 255.219 -4.83863 1.37424 0
M  V30 2804 H 254.919 -4.9762 3.12487 0
M  V30 2805 H 256.443 -5.6006 2.43238 0
M  V30 2806 H 257.857 -4.03218 4.07539 0
M  V30 2807 H 256.254 -3.64637 4.76613 0
M  V30 2808 H 257.324 -2.32928 4.25291 0
M  V30 2809 N 258.668 -1.30515 -0.883378 0
M  V30 2810 C 259.896 -1.22359 -1.66841 0
M  V30 2811 C 260.311 0.213296 -1.87591 0
M  V30 2812 O 259.668 1.14075 -1.42454 0
M  V30 2813 C 259.719 -1.95011 -3.04389 0
M  V30 2814 O 259.44 -3.3309 -2.84575 0
M  V30 2815 C 260.941 -1.93532 -3.98824 0
M  V30 2816 H 258.161 -0.423371 -0.520575 0
M  V30 2817 H 260.705 -1.72167 -1.10357 0
M  V30 2818 H 258.86 -1.48997 -3.57601 0
M  V30 2819 H 259.274 -3.69907 -3.71846 0
M  V30 2820 H 260.748 -2.48902 -4.92699 0
M  V30 2821 H 261.225 -0.914627 -4.29571 0
M  V30 2822 H 261.831 -2.39364 -3.51547 0
M  V30 2823 N 260.146 1.09593 -1.13257 0
M  V30 2824 C 261.395 1.81105 -0.887917 0
M  V30 2825 C 261.708 1.86563 0.587672 0
M  V30 2826 O 262.914 2.54367 0.949204 0
M  V30 2827 C 261.37 3.25338 -1.53895 0
M  V30 2828 C 260.978 3.28151 -3.04994 0
M  V30 2829 C 262.722 4.01617 -1.37492 0
M  V30 2830 C 260.629 4.66897 -3.6299 0
M  V30 2831 H 259.559 0.678661 -0.328534 0
M  V30 2832 H 262.21 1.23183 -1.36008 0
M  V30 2833 H 260.592 3.8331 -0.994446 0
M  V30 2834 H 261.766 2.79953 -3.66009 0
M  V30 2835 H 260.081 2.65361 -3.20893 0
M  V30 2836 H 262.678 5.04119 -1.78235 0
M  V30 2837 H 263.021 4.15072 -0.31957 0
M  V30 2838 H 263.554 3.50082 -1.88912 0
M  V30 2839 H 260.293 4.58643 -4.68323 0
M  V30 2840 H 259.813 5.15426 -3.06752 0
M  V30 2841 H 261.492 5.3587 -3.62563 0
M  V30 2842 N 261.624 0.925811 1.2754 0
M  V30 2843 C 262.901 0.483726 1.89524 0
M  V30 2844 C 263.281 -1.03809 1.83812 0
M  V30 2845 O 262.629 -1.89143 1.28207 0
M  V30 2846 C 262.839 1.02769 3.33526 0
M  V30 2847 C 264.187 1.08703 4.10449 0
M  V30 2848 O 265.211 0.977175 3.42534 0
M  V30 2849 O 264.07 1.25599 5.31871 0
M  V30 2850 H 261.164 0.15529 0.812289 0
M  V30 2851 H 263.71 1.01738 1.35822 0
M  V30 2852 H 262.482 2.07155 3.31967 0
M  V30 2853 H 262.105 0.475567 3.94746 0
M  V30 2854 N 263.102 -1.41638 0.69111 0
M  V30 2855 C 264.035 -2.28183 -0.0274913 0
M  V30 2856 C 265.013 -1.41984 -0.792424 0
M  V30 2857 O 266.197 -1.71415 -0.784169 0
M  V30 2858 C 263.324 -3.22135 -1.04628 0
M  V30 2859 C 262.37 -4.24848 -0.375037 0
M  V30 2860 S 263.203 -5.28231 0.879321 0
M  V30 2861 C 264.359 -6.25748 -0.137983 0
M  V30 2862 H 264.592 -2.88782 0.706553 0
M  V30 2863 H 262.125 -1.46709 0.481222 0
M  V30 2864 H 264.083 -3.76797 -1.62894 0
M  V30 2865 H 262.744 -2.6064 -1.75287 0
M  V30 2866 H 261.937 -4.90837 -1.14433 0
M  V30 2867 H 261.539 -3.73758 0.134434 0
M  V30 2868 H 263.831 -6.70188 -0.992659 0
M  V30 2869 H 264.774 -7.06417 0.487867 0
M  V30 2870 H 265.182 -5.62363 -0.490762 0
M  V30 2871 N 264.58 -0.43555 -1.51462 0
M  V30 2872 C 265.805 0.132627 -2.06976 0
M  V30 2873 C 266.23 1.35848 -1.30104 0
M  V30 2874 O 265.588 1.78112 -0.338493 0
M  V30 2875 C 265.636 0.43523 -3.57964 0
M  V30 2876 O 264.74 1.52198 -3.83288 0
M  V30 2877 H 264.081 0.00265 -0.663995 0
M  V30 2878 H 266.611 -0.616369 -1.95095 0
M  V30 2879 H 266.621 0.686206 -4.02188 0
M  V30 2880 H 265.296 -0.460739 -4.1334 0
M  V30 2881 H 263.873 1.2611 -3.50928 0
M  V30 2882 N 266.058 1.56714 -0.166846 0
M  V30 2883 C 267.335 1.88412 0.525373 0
M  V30 2884 C 267.715 1.07602 1.81618 0
M  V30 2885 O 267.063 0.168621 2.27877 0
M  V30 2886 C 267.273 3.40363 0.771613 0
M  V30 2887 C 268.621 4.10007 1.1036 0
M  V30 2888 O 269.645 3.45655 0.860304 0
M  V30 2889 O 268.504 5.2369 1.56239 0
M  V30 2890 H 265.598 0.781587 0.270278 0
M  V30 2891 H 268.144 1.68458 -0.204946 0
M  V30 2892 H 266.916 3.91046 -0.141093 0
M  V30 2893 H 266.539 3.65914 1.55541 0
M  V30 2894 N 267.536 -0.106894 1.57237 0
M  V30 2895 C 268.952 -0.46078 1.52804 0
M  V30 2896 C 269.152 -1.81184 0.881746 0
M  V30 2897 O 268.208 -2.48102 0.469224 0
M  V30 2898 C 269.521 -0.434127 2.9755 0
M  V30 2899 C 271.069 -0.516821 3.08704 0
M  V30 2900 C 271.544 -0.520436 4.55033 0
M  V30 2901 N 273.035 -0.58153 4.59535 0
M  V30 2902 C 273.77 -0.605973 5.70189 0
M  V30 2903 N 273.266 -0.587331 6.90306 0
M  V30 2904 N 275.059 -0.649895 5.5833 0
M  V30 2905 H 267.21 0.778203 1.9763 0
M  V30 2906 H 269.473 0.288403 0.903066 0
M  V30 2907 H 269.179 0.491197 3.48253 0
M  V30 2908 H 269.053 -1.25748 3.55622 0
M  V30 2909 H 271.44 -1.43256 2.57995 0
M  V30 2910 H 271.521 0.334449 2.53604 0
M  V30 2911 H 271.165 0.391313 5.0639 0
M  V30 2912 H 271.095 -1.38876 5.07958 0
M  V30 2913 H 273.586 -0.60161 3.73081 0
M  V30 2914 H 273.899 -0.60894 7.70397 0
M  V30 2915 H 272.244 -0.554564 6.92784 0
M  V30 2916 H 275.435 -0.661907 4.63397 0
M  V30 2917 H 275.608 -0.665476 6.44574 0
M  V30 2918 N 269.014 -1.53014 -0.377408 0
M  V30 2919 C 270.262 -1.6829 -1.11906 0
M  V30 2920 C 270.583 -0.431206 -1.90173 0
M  V30 2921 O 269.853 0.554595 -1.87886 0
M  V30 2922 H 268.433 -0.620371 -0.416112 0
M  V30 2923 H 271.095 -1.90167 -0.426893 0
M  V30 2924 H 270.191 -2.53862 -1.8155 0
M  V30 2925 N 270.492 0.636531 -1.44174 0
M  V30 2926 C 271.422 1.76003 -1.53444 0
M  V30 2927 C 272.403 1.65619 -0.387841 0
M  V30 2928 O 273.588 1.84461 -0.607257 0
M  V30 2929 C 270.718 3.14511 -1.4731 0
M  V30 2930 C 269.672 3.39677 -2.60391 0
M  V30 2931 C 268.998 4.78159 -2.39308 0
M  V30 2932 C 270.298 3.32772 -4.02567 0
M  V30 2933 H 271.992 1.68501 -2.47483 0
M  V30 2934 H 269.538 0.809237 -1.19111 0
M  V30 2935 H 271.491 3.92878 -1.52397 0
M  V30 2936 H 270.215 3.22783 -0.49785 0
M  V30 2937 H 268.874 2.63688 -2.54684 0
M  V30 2938 H 268.522 4.83128 -1.39988 0
M  V30 2939 H 268.222 4.95956 -3.15122 0
M  V30 2940 H 269.746 5.58762 -2.46205 0
M  V30 2941 H 271.16 4.01051 -4.09672 0
M  V30 2942 H 269.557 3.62104 -4.7854 0
M  V30 2943 H 270.627 2.30669 -4.2652 0
M  V30 2944 N 271.97 1.30982 0.876444 0
M  V30 2945 C 273.381 1.18277 1.44456 0
M  V30 2946 C 273.732 -0.213265 1.95037 0
M  V30 2947 O 272.857 -1.11057 1.85729 0
M  V30 2948 C 273.452 2.1411 2.62569 0
M  V30 2949 C 272.011 2.05358 3.15444 0
M  V30 2950 C 271.158 2.03706 1.88146 0
M  V30 2951 H 274.109 1.43127 0.685584 0
M  V30 2952 H 274.13 1.72692 3.39054 0
M  V30 2953 H 273.642 3.15706 2.25724 0
M  V30 2954 H 271.743 1.06934 3.56926 0
M  V30 2955 H 271.856 2.94156 3.78166 0
M  V30 2956 H 270.22 1.48629 2.06837 0
M  V30 2957 H 271.003 3.07047 1.53547 0
M  V30 2958 N 273.449 -1.08991 1.13837 0
M  V30 2959 C 274.379 -2.17771 0.842507 0
M  V30 2960 C 275.36 -1.6892 -0.20001 0
M  V30 2961 O 276.545 -1.94113 -0.0579731 0
M  V30 2962 C 273.675 -3.4589 0.312644 0
M  V30 2963 C 272.629 -4.08099 1.28992 0
M  V30 2964 C 271.955 -5.31098 0.619623 0
M  V30 2965 C 273.255 -4.50077 2.65005 0
M  V30 2966 H 274.949 -2.42777 1.75213 0
M  V30 2967 H 272.495 -1.16682 0.843875 0
M  V30 2968 H 274.448 -4.21297 0.0933043 0
M  V30 2969 H 273.172 -3.20419 -0.632382 0
M  V30 2970 H 271.831 -3.34717 1.49533 0
M  V30 2971 H 271.479 -5.0191 -0.33102 0
M  V30 2972 H 271.179 -5.73674 1.27167 0
M  V30 2973 H 272.703 -6.09224 0.409669 0
M  V30 2974 H 274.117 -5.16688 2.48407 0
M  V30 2975 H 272.514 -5.03553 3.26427 0
M  V30 2976 H 273.584 -3.62257 3.22332 0
M  V30 2977 N 274.927 -0.932562 -1.27047 0
M  V30 2978 C 276.152 -0.591474 -1.98787 0
M  V30 2979 C 276.577 0.824601 -1.69062 0
M  V30 2980 O 275.935 1.5541 -0.933677 0
M  V30 2981 C 275.983 -0.829808 -3.50922 0
M  V30 2982 O 275.087 0.102266 -4.12273 0
M  V30 2983 H 274.428 -0.227185 -0.623926 0
M  V30 2984 H 276.958 -1.25314 -1.61733 0
M  V30 2985 H 276.968 -0.747292 -4.01098 0
M  V30 2986 H 275.643 -1.86201 -3.7189 0
M  V30 2987 H 274.22 -0.0305761 -3.72887 0
M  V30 2988 N 276.405 1.4127 -0.698611 0
M  V30 2989 C 277.635 2.05205 -0.239644 0
M  V30 2990 C 278.043 1.52684 1.11733 0
M  V30 2991 O 277.386 0.671222 1.70998 0
M  V30 2992 C 277.448 3.59289 -0.123126 0
M  V30 2993 C 277.112 4.34619 -1.41263 0
M  V30 2994 C 278.109 4.63701 -2.35111 0
M  V30 2995 C 275.794 4.73837 -1.66684 0
M  V30 2996 C 277.788 5.30966 -3.52639 0
M  V30 2997 C 275.475 5.40837 -2.84498 0
M  V30 2998 C 276.473 5.69329 -3.77298 0
M  V30 2999 O 276.161 6.34949 -4.93047 0
M  V30 3000 H 275.893 0.66723 -0.108537 0
M  V30 3001 H 278.447 1.81974 -0.952602 0
M  V30 3002 H 276.677 3.81272 0.645628 0
M  V30 3003 H 278.366 4.04797 0.299056 0
M  V30 3004 H 279.132 4.33882 -2.16729 0
M  V30 3005 H 275.011 4.51039 -0.953135 0
M  V30 3006 H 278.555 5.53121 -4.25091 0
M  V30 3007 H 274.452 5.70075 -3.02795 0
M  V30 3008 H 275.22 6.53445 -4.92902 0
M  V30 3009 N 277.883 0.443576 1.51229 0
M  V30 3010 C 279.299 0.0962001 1.5931 0
M  V30 3011 C 279.499 -1.39501 1.45402 0
M  V30 3012 O 278.555 -2.16557 1.29843 0
M  V30 3013 C 279.868 0.621875 2.94199 0
M  V30 3014 C 281.416 0.582865 3.07525 0
M  V30 3015 C 281.891 1.08562 4.44948 0
M  V30 3016 N 283.382 1.04387 4.51284 0
M  V30 3017 C 284.117 1.40368 5.55954 0
M  V30 3018 N 283.613 1.83664 6.68011 0
M  V30 3019 N 285.406 1.32145 5.46346 0
M  V30 3020 H 277.557 1.41376 1.58514 0
M  V30 3021 H 279.82 0.582965 0.747567 0
M  V30 3022 H 279.526 1.66546 3.09767 0
M  V30 3023 H 279.4 0.0502125 3.77167 0
M  V30 3024 H 281.787 -0.451749 2.91622 0
M  V30 3025 H 281.868 1.191 2.26382 0
M  V30 3026 H 281.512 2.11873 4.61598 0
M  V30 3027 H 281.442 0.453956 5.2464 0
M  V30 3028 H 283.933 0.725986 3.70861 0
M  V30 3029 H 284.246 2.0934 7.43906 0
M  V30 3030 H 282.591 1.87596 6.69203 0
M  V30 3031 H 285.782 0.981808 4.57688 0
M  V30 3032 H 285.955 1.60514 6.27805 0
M  V30 3033 N 279.361 -1.56624 0.175154 0
M  V30 3034 C 280.608 -1.96999 -0.468811 0
M  V30 3035 C 280.936 -1.06129 -1.62994 0
M  V30 3036 O 280.191 -0.0961771 -1.95464 0
M  V30 3037 C 280.49 -3.43419 -0.989864 0
M  V30 3038 C 280.156 -4.50866 0.0557687 0
M  V30 3039 C 278.818 -4.79975 0.343134 0
M  V30 3040 C 281.17 -5.15551 0.765308 0
M  V30 3041 C 278.498 -5.71066 1.34536 0
M  V30 3042 C 280.85 -6.07724 1.75654 0
M  V30 3043 C 279.514 -6.35199 2.05132 0
M  V30 3044 H 278.784 -0.720869 -0.17155 0
M  V30 3045 H 281.431 -1.89616 0.267924 0
M  V30 3046 H 279.736 -3.47772 -1.80449 0
M  V30 3047 H 281.433 -3.72002 -1.49719 0
M  V30 3048 H 278.023 -4.28229 -0.178381 0
M  V30 3049 H 282.207 -4.9317 0.556513 0
M  V30 3050 H 277.463 -5.90635 1.57988 0
M  V30 3051 H 281.637 -6.56912 2.31169 0
M  V30 3052 H 279.264 -7.05584 2.8294 0
M  V30 3053 N 280.839 0.0985539 -1.57292 0
M  V30 3054 C 282.085 0.803867 -1.86188 0
M  V30 3055 C 282.418 1.78549 -0.763794 0
M  V30 3056 O 281.693 1.93153 0.22855 0
M  V30 3057 C 281.976 1.53568 -3.25713 0
M  V30 3058 C 281.829 0.572277 -4.46145 0
M  V30 3059 C 283.148 2.48708 -3.63087 0
M  V30 3060 H 280.267 0.290781 -0.677211 0
M  V30 3061 H 282.909 0.0675783 -1.8988 0
M  V30 3062 H 281.059 2.16332 -3.22696 0
M  V30 3063 H 282.731 -0.0480894 -4.61275 0
M  V30 3064 H 280.974 -0.114618 -4.33649 0
M  V30 3065 H 281.645 1.12139 -5.40489 0
M  V30 3066 H 284.121 1.96039 -3.67026 0
M  V30 3067 H 282.997 2.96932 -4.61652 0
M  V30 3068 H 283.258 3.32309 -2.91588 0
M  V30 3069 N 282.317 1.53212 0.369288 0
M  V30 3070 C 283.267 1.75769 1.45222 0
M  V30 3071 C 284.251 0.612136 1.48801 0
M  V30 3072 O 285.443 0.870674 1.54105 0
M  V30 3073 C 282.572 1.94769 2.82701 0
M  V30 3074 C 281.658 3.15315 2.83615 0
M  V30 3075 N 282.049 4.37295 2.54178 0
M  V30 3076 C 280.347 3.15962 3.14776 0
M  V30 3077 C 281.048 5.19015 2.62675 0
M  V30 3078 N 280.024 4.55142 2.97232 0
M  V30 3079 H 283.826 2.67691 1.2132 0
M  V30 3080 H 281.34 1.51787 0.577438 0
M  V30 3081 H 283.337 2.09056 3.60696 0
M  V30 3082 H 281.997 1.04073 3.07569 0
M  V30 3083 H 283.008 4.65091 2.27839 0
M  V30 3084 H 279.685 2.35144 3.44983 0
M  V30 3085 H 281.075 6.26305 2.43294 0
M  V30 3086 N 283.795 -0.628877 1.44509 0
M  V30 3087 C 285.043 -1.38565 1.4712 0
M  V30 3088 C 285.364 -1.94712 0.105899 0
M  V30 3089 O 284.634 -1.75912 -0.862079 0
M  V30 3090 H 283.214 -0.514333 0.541729 0
M  V30 3091 H 285.876 -0.740018 1.80305 0
M  V30 3092 H 284.972 -2.21583 2.19789 0
M  V30 3093 N 285.273 -1.31445 -0.869486 0
M  V30 3094 C 286.52 -1.21158 -1.62256 0
M  V30 3095 C 286.848 0.230155 -1.93133 0
M  V30 3096 O 286.103 1.17906 -1.56194 0
M  V30 3097 C 286.402 -2.00145 -2.96102 0
M  V30 3098 C 286.068 -3.4964 -2.84715 0
M  V30 3099 C 284.73 -3.90403 -2.81317 0
M  V30 3100 C 287.082 -4.44769 -2.71716 0
M  V30 3101 C 284.41 -5.24561 -2.62778 0
M  V30 3102 C 286.762 -5.79054 -2.54714 0
M  V30 3103 C 285.426 -6.19037 -2.49699 0
M  V30 3104 H 284.696 -0.443348 -0.593737 0
M  V30 3105 H 287.343 -1.62715 -1.00976 0
M  V30 3106 H 285.648 -1.5127 -3.6142 0
M  V30 3107 H 287.345 -1.89566 -3.53363 0
M  V30 3108 H 283.935 -3.17256 -2.88178 0
M  V30 3109 H 288.119 -4.14208 -2.73397 0
M  V30 3110 H 283.375 -5.54613 -2.57321 0
M  V30 3111 H 287.549 -6.52393 -2.43632 0
M  V30 3112 H 285.176 -7.22935 -2.35093 0
M  V30 3113 N 286.751 1.08385 -1.14413 0
M  V30 3114 C 287.999 1.80419 -0.910679 0
M  V30 3115 C 288.32 1.86658 0.564243 0
M  V30 3116 O 287.59 1.35985 1.41014 0
M  V30 3117 H 286.17 0.668204 -0.333934 0
M  V30 3118 H 288.832 1.31037 -1.44275 0
M  V30 3119 H 287.928 2.83238 -1.31082 0
M  V30 3120 N 288.23 0.939286 1.26551 0
M  V30 3121 C 289.455 0.602008 1.98471 0
M  V30 3122 C 289.88 -0.815624 1.69497 0
M  V30 3123 O 289.238 -1.54912 0.941905 0
M  V30 3124 C 289.286 0.848407 3.50477 0
M  V30 3125 O 288.39 -0.0804009 4.12322 0
M  V30 3126 H 287.731 0.23049 0.622712 0
M  V30 3127 H 290.261 1.2617 1.61066 0
M  V30 3128 H 290.271 0.768553 4.00696 0
M  V30 3129 H 288.946 1.88171 3.70897 0
M  V30 3130 H 287.523 0.0503508 3.72866 0
M  V30 3131 N 289.708 -1.40897 0.706093 0
M  V30 3132 C 290.658 -2.27987 0.0240746 0
M  V30 3133 C 291.642 -1.42759 -0.742204 0
M  V30 3134 O 292.834 -1.65936 -0.615966 0
M  V30 3135 C 289.963 -3.31186 -0.903907 0
M  V30 3136 C 289.049 -4.2389 -0.133318 0
M  V30 3137 N 289.44 -4.98113 0.878444 0
M  V30 3138 C 287.738 -4.44485 -0.367269 0
M  V30 3139 C 288.439 -5.6604 1.34064 0
M  V30 3140 N 287.415 -5.39522 0.664565 0
M  V30 3141 H 291.217 -2.82812 0.799658 0
M  V30 3142 H 288.731 -1.53235 0.537845 0
M  V30 3143 H 290.728 -3.92413 -1.40775 0
M  V30 3144 H 289.388 -2.77922 -1.67897 0
M  V30 3145 H 290.399 -5.02364 1.25901 0
M  V30 3146 H 287.076 -4.02213 -1.1194 0
M  V30 3147 H 288.466 -6.35524 2.1808 0
M  V30 3148 N 291.186 -0.45159 -1.50991 0
M  V30 3149 C 292.414 0.108334 -2.06616 0
M  V30 3150 C 292.829 1.35224 -1.31757 0
M  V30 3151 O 292.186 1.78475 -0.381174 0
M  V30 3152 C 292.237 0.41619 -3.59096 0
M  V30 3153 O 291.958 -0.778361 -4.3113 0
M  V30 3154 C 293.459 1.02523 -4.31282 0
M  V30 3155 H 290.679 0.00159995 -0.670998 0
M  V30 3156 H 293.223 -0.634771 -1.94399 0
M  V30 3157 H 291.378 1.10921 -3.71181 0
M  V30 3158 H 291.792 -0.511181 -5.22003 0
M  V30 3159 H 293.266 1.19053 -5.39009 0
M  V30 3160 H 293.743 2.01013 -3.905 0
M  V30 3161 H 294.349 0.371173 -4.23677 0
M  V30 3162 N 292.664 1.56529 -0.183458 0
M  V30 3163 C 293.894 2.01331 0.463612 0
M  V30 3164 C 294.302 1.06278 1.5653 0
M  V30 3165 O 293.645 0.0577976 1.83609 0
M  V30 3166 C 293.707 3.42547 1.09096 0
M  V30 3167 C 293.371 4.56817 0.129442 0
M  V30 3168 C 294.368 5.15734 -0.656807 0
M  V30 3169 C 292.053 5.02295 0.02174 0
M  V30 3170 C 294.047 6.1857 -1.53784 0
M  V30 3171 C 291.734 6.04978 -0.862864 0
M  V30 3172 C 292.732 6.62988 -1.64123 0
M  V30 3173 O 292.42 7.63677 -2.51103 0
M  V30 3174 H 292.152 0.664917 0.121907 0
M  V30 3175 H 294.706 2.034 -0.285954 0
M  V30 3176 H 292.936 3.37428 1.88889 0
M  V30 3177 H 294.625 3.71228 1.64148 0
M  V30 3178 H 295.391 4.81473 -0.583839 0
M  V30 3179 H 291.27 4.56847 0.617392 0
M  V30 3180 H 294.814 6.63777 -2.14583 0
M  V30 3181 H 290.711 6.38663 -0.93699 0
M  V30 3182 H 291.479 7.81049 -2.44753 0
M  V30 3183 N 294.142 -0.090211 1.57342 0
M  V30 3184 C 295.367 -0.810082 1.90925 0
M  V30 3185 C 295.792 -1.71248 0.778187 0
M  V30 3186 O 295.15 -1.79278 -0.269991 0
M  V30 3187 C 295.198 -1.59529 3.23393 0
M  V30 3188 O 294.302 -2.70461 3.11327 0
M  V30 3189 H 293.643 -0.222231 0.625707 0
M  V30 3190 H 296.173 -0.0639716 2.045 0
M  V30 3191 H 296.183 -1.97847 3.5682 0
M  V30 3192 H 294.858 -0.933055 4.05299 0
M  V30 3193 H 293.435 -2.35135 2.89423 0
M  V30 3194 N 295.62 -1.53406 -0.361157 0
M  V30 3195 C 296.867 -1.69802 -1.10333 0
M  V30 3196 C 297.195 -0.452087 -1.89173 0
M  V30 3197 O 296.45 0.566017 -1.87336 0
M  V30 3198 C 296.749 -2.90211 -2.08596 0
M  V30 3199 C 296.415 -4.26539 -1.46203 0
M  V30 3200 C 295.077 -4.6361 -1.28915 0
M  V30 3201 C 297.429 -5.113 -1.01101 0
M  V30 3202 C 294.757 -5.83075 -0.651157 0
M  V30 3203 C 297.109 -6.31415 -0.387007 0
M  V30 3204 C 295.773 -6.67195 -0.201657 0
M  V30 3205 H 295.043 -0.621351 -0.403737 0
M  V30 3206 H 297.69 -1.87598 -0.384609 0
M  V30 3207 H 295.995 -2.66946 -2.86788 0
M  V30 3208 H 297.692 -3.00091 -2.65982 0
M  V30 3209 H 294.282 -3.97352 -1.60653 0
M  V30 3210 H 298.466 -4.83206 -1.13249 0
M  V30 3211 H 293.722 -6.09385 -0.496006 0
M  V30 3212 H 297.896 -6.96394 -0.0293563 0
M  V30 3213 H 295.523 -7.59628 0.294766 0
M  V30 3214 N 297.098 0.621204 -1.44841 0
M  V30 3215 C 298.347 1.37658 -1.47422 0
M  V30 3216 C 298.66 1.95264 -0.114629 0
M  V30 3217 O 299.866 2.71494 -0.0180199 0
M  V30 3218 C 298.322 2.49285 -2.59586 0
M  V30 3219 C 297.93 1.98149 -4.01797 0
M  V30 3220 C 299.674 3.26409 -2.71399 0
M  V30 3221 C 297.581 3.07178 -5.05367 0
M  V30 3222 H 296.511 0.517344 -0.548517 0
M  V30 3223 H 299.162 0.667257 -1.70938 0
M  V30 3224 H 297.544 3.22839 -2.29328 0
M  V30 3225 H 298.718 1.31395 -4.41669 0
M  V30 3226 H 297.033 1.33812 -3.94314 0
M  V30 3227 H 299.63 4.07706 -3.45948 0
M  V30 3228 H 299.973 3.76535 -1.77559 0
M  V30 3229 H 300.506 2.5995 -3.01116 0
M  V30 3230 H 297.245 2.61985 -6.00869 0
M  V30 3231 H 296.765 3.72542 -4.70077 0
M  V30 3232 H 298.444 3.71789 -5.29511 0
M  V30 3233 N 298.576 1.31904 0.862503 0
M  V30 3234 C 299.524 1.20125 1.9918 0
M  V30 3235 C 300.518 0.107824 1.69056 0
M  V30 3236 O 301.724 0.270223 1.7796 0
M  V30 3237 H 298.099 0.372148 0.65346 0
M  V30 3238 H 300.07 2.15652 2.06244 0
M  V30 3239 C 298.819 0.933099 3.34946 0
M  V30 3240 H 298.142 1.76664 3.5865 0
M  V30 3241 H 299.582 0.890892 4.14535 0
M  V30 3242 C 298.041 -0.364172 3.34926 0
M  V30 3243 O 298.571 -1.37858 3.77304 0
M  V30 3244 N 296.777 -0.383362 2.8806 0
M  V30 3245 H 296.324 0.442651 2.53768 0
M  V30 3246 H 296.282 -1.25123 2.8843 0
M  V30 3247 N 300.054 -1.07777 1.14986 0
M  V30 3248 C 301.001 -2.14867 0.842672 0
M  V30 3249 C 301.971 -1.6486 -0.202552 0
M  V30 3250 O 303.156 -1.90668 -0.0710568 0
M  V30 3251 C 300.296 -3.43486 0.333363 0
M  V30 3252 C 299.409 -4.07306 1.43965 0
M  V30 3253 C 298.544 -5.23744 0.886914 0
M  V30 3254 C 297.583 -5.79517 1.97043 0
M  V30 3255 N 296.72 -6.87291 1.4344 0
M  V30 3256 H 301.56 -2.40485 1.75986 0
M  V30 3257 H 299.097 -1.1801 0.878179 0
M  V30 3258 H 301.055 -4.17195 0.0198163 0
M  V30 3259 H 299.685 -3.18133 -0.546916 0
M  V30 3260 H 298.737 -3.31293 1.86946 0
M  V30 3261 H 300.049 -4.44771 2.25788 0
M  V30 3262 H 299.203 -6.04419 0.525651 0
M  V30 3263 H 297.942 -4.87685 0.0377957 0
M  V30 3264 H 296.947 -4.97491 2.34057 0
M  V30 3265 H 298.172 -6.17632 2.82325 0
M  V30 3266 H 296.118 -6.5318 0.607567 0
M  V30 3267 H 296.035 -7.23617 2.18895 0
M  V30 3268 H 297.303 -7.71682 1.10124 0
M  V30 3269 N 301.532 -0.945985 -1.26051 0
M  V30 3270 C 302.809 -0.513816 -1.88731 0
M  V30 3271 C 303.189 1.00872 -1.8544 0
M  V30 3272 O 302.537 1.8708 -1.312 0
M  V30 3273 C 302.747 -1.08062 -3.31849 0
M  V30 3274 C 304.095 -1.1522 -4.08668 0
M  V30 3275 O 305.119 -1.03155 -3.40936 0
M  V30 3276 O 303.978 -1.34044 -5.29806 0
M  V30 3277 H 301.072 -0.168193 -0.809716 0
M  V30 3278 H 303.618 -1.03886 -1.34186 0
M  V30 3279 H 302.39 -2.1241 -3.2863 0
M  V30 3280 H 302.013 -0.538307 -3.93939 0
M  V30 3281 N 303.011 1.40521 -0.713556 0
M  V30 3282 C 303.959 2.32549 -0.0485227 0
M  V30 3283 C 304.953 1.51931 0.74922 0
M  V30 3284 O 306.159 1.67745 0.652816 0
M  V30 3285 H 302.534 0.751994 0.00311138 0
M  V30 3286 H 304.505 2.86291 -0.841443 0
M  V30 3287 C 303.254 3.36879 0.860687 0
M  V30 3288 H 302.577 3.98978 0.256246 0
M  V30 3289 H 304.017 4.03772 1.294 0
M  V30 3290 C 302.476 2.72197 1.9852 0
M  V30 3291 O 303.006 2.5837 3.07584 0
M  V30 3292 N 301.212 2.30612 1.76823 0
M  V30 3293 H 300.759 2.42059 0.881217 0
M  V30 3294 H 300.717 1.87672 2.52243 0
M  V30 3295 N 304.489 0.459591 1.5075 0
M  V30 3296 C 305.399 -0.34613 2.32033 0
M  V30 3297 C 306.415 -1.00686 1.41909 0
M  V30 3298 O 307.591 -0.997361 1.7497 0
M  V30 3299 C 304.656 -1.42029 3.16273 0
M  V30 3300 C 303.717 -0.777362 4.22203 0
M  V30 3301 C 302.95 -1.80034 5.02418 0
M  V30 3302 O 303.173 -3.02544 4.83553 0
M  V30 3303 O 302.107 -1.37853 5.85901 0
M  V30 3304 H 305.933 0.318054 3.0203 0
M  V30 3305 H 303.518 0.221663 1.47746 0
M  V30 3306 H 305.4 -2.04275 3.68578 0
M  V30 3307 H 304.075 -2.06815 2.49016 0
M  V30 3308 H 302.982 -0.116256 3.73919 0
M  V30 3309 H 304.315 -0.172634 4.91897 0
M  V30 3310 N 305.967 -1.56429 0.191757 0
M  V30 3311 C 307.383 -1.58754 -0.164137 0
M  V30 3312 C 307.583 -1.20782 -1.61288 0
M  V30 3313 O 306.639 -0.928999 -2.34789 0
M  V30 3314 C 307.952 -3.00396 0.135195 0
M  V30 3315 C 309.5 -3.1291 0.0750351 0
M  V30 3316 C 309.975 -4.56679 0.347632 0
M  V30 3317 N 311.466 -4.62252 0.296131 0
M  V30 3318 C 312.201 -5.71379 0.480948 0
M  V30 3319 N 311.697 -6.88986 0.725933 0
M  V30 3320 N 313.49 -5.60563 0.415435 0
M  V30 3321 H 305.641 -1.79393 1.13718 0
M  V30 3322 H 307.904 -0.832414 0.453643 0
M  V30 3323 H 307.61 -3.32726 1.13958 0
M  V30 3324 H 307.484 -3.72963 -0.563773 0
M  V30 3325 H 309.871 -2.80394 -0.919948 0
M  V30 3326 H 309.952 -2.42736 0.807029 0
M  V30 3327 H 309.596 -4.89907 1.33992 0
M  V30 3328 H 309.526 -5.25039 -0.405212 0
M  V30 3329 H 312.017 -3.7773 0.113259 0
M  V30 3330 H 312.33 -7.68046 0.855857 0
M  V30 3331 H 310.675 -6.90801 0.762788 0
M  V30 3332 H 313.866 -4.67561 0.224486 0
M  V30 3333 H 314.039 -6.45551 0.562889 0
M  V30 3334 N 307.445 0.0818655 -1.57387 0
M  V30 3335 C 308.692 0.782914 -1.86753 0
M  V30 3336 C 309.02 1.78082 -0.782118 0
M  V30 3337 O 308.275 1.94426 0.22295 0
M  V30 3338 C 308.574 1.53513 -3.22752 0
M  V30 3339 C 308.24 0.678134 -4.45771 0
M  V30 3340 C 306.902 0.441929 -4.79166 0
M  V30 3341 C 309.254 0.0832243 -5.21134 0
M  V30 3342 C 306.582 -0.398833 -5.85343 0
M  V30 3343 C 308.934 -0.744935 -6.28199 0
M  V30 3344 C 307.598 -0.991107 -6.60101 0
M  V30 3345 H 306.868 0.286489 -0.683378 0
M  V30 3346 H 309.515 0.0439808 -1.91449 0
M  V30 3347 H 307.82 2.34599 -3.138 0
M  V30 3348 H 309.517 2.08218 -3.42705 0
M  V30 3349 H 306.107 0.872357 -4.19628 0
M  V30 3350 H 310.291 0.252847 -4.95655 0
M  V30 3351 H 305.547 -0.598405 -6.08465 0
M  V30 3352 H 309.721 -1.21271 -6.8576 0
M  V30 3353 H 307.348 -1.64437 -7.42202 0
M  V30 3354 N 308.923 1.53595 0.353017 0
M  V30 3355 C 310.169 1.71581 1.09232 0
M  V30 3356 C 310.524 0.468328 1.86613 0
M  V30 3357 O 309.817 -0.538911 1.83865 0
M  V30 3358 C 310.011 2.91313 2.07054 0
M  V30 3359 C 309.84 4.27585 1.39287 0
M  V30 3360 C 308.61 4.92233 1.1417 0
M  V30 3361 C 310.808 5.07656 0.824005 0
M  V30 3362 N 308.79 6.124 0.428841 0
M  V30 3363 C 310.161 6.19531 0.241195 0
M  V30 3364 C 312.216 4.92609 0.723922 0
M  V30 3365 C 310.919 7.18002 -0.431952 0
M  V30 3366 C 312.945 5.91365 0.0645334 0
M  V30 3367 C 312.307 7.02571 -0.507347 0
M  V30 3368 H 308.406 0.680987 0.384422 0
M  V30 3369 H 310.99 1.91013 0.377096 0
M  V30 3370 H 309.161 2.73398 2.75877 0
M  V30 3371 H 310.893 2.98062 2.73753 0
M  V30 3372 H 307.648 4.51612 1.42631 0
M  V30 3373 H 308.072 6.76944 0.0874131 0
M  V30 3374 H 312.714 4.06808 1.15181 0
M  V30 3375 H 310.432 8.03384 -0.871758 0
M  V30 3376 H 314.018 5.81799 -0.0121469 0
M  V30 3377 H 312.898 7.77675 -1.0095 0
M  V30 3378 N 310.401 -0.613514 1.45168 0
M  V30 3379 C 311.647 -1.37471 1.49096 0
M  V30 3380 C 311.98 -1.93765 0.129901 0
M  V30 3381 O 311.255 -1.74707 -0.854858 0
M  V30 3382 C 311.538 -2.52701 2.56542 0
M  V30 3383 C 311.391 -2.01643 4.0207 0
M  V30 3384 C 312.71 -3.54849 2.60327 0
M  V30 3385 H 309.829 -0.498502 0.54283 0
M  V30 3386 H 312.471 -0.692125 1.76945 0
M  V30 3387 H 310.621 -3.10931 2.32926 0
M  V30 3388 H 312.293 -1.48108 4.36877 0
M  V30 3389 H 310.536 -1.32688 4.13009 0
M  V30 3390 H 311.207 -2.84681 4.72928 0
M  V30 3391 H 313.683 -3.0645 2.81474 0
M  V30 3392 H 312.559 -4.32973 3.37381 0
M  V30 3393 H 312.82 -4.10079 1.6519 0
M  V30 3394 N 311.879 -1.3236 -0.855495 0
M  V30 3395 C 312.826 -1.21225 -1.964 0
M  V30 3396 C 313.796 -0.0946204 -1.6583 0
M  V30 3397 O 314.981 -0.27002 -1.8888 0
M  V30 3398 C 312.121 -0.940419 -3.32039 0
M  V30 3399 C 311.234 -2.14276 -3.75113 0
M  V30 3400 C 310.369 -1.80648 -4.9954 0
M  V30 3401 C 309.408 -2.97208 -5.35102 0
M  V30 3402 N 308.545 -2.63678 -6.50706 0
M  V30 3403 H 313.385 -2.16042 -2.05255 0
M  V30 3404 H 310.922 -1.07451 -1.00463 0
M  V30 3405 H 312.88 -0.763311 -4.10158 0
M  V30 3406 H 311.51 -0.0290413 -3.22787 0
M  V30 3407 H 310.562 -2.43017 -2.92655 0
M  V30 3408 H 311.874 -3.01468 -3.97389 0
M  V30 3409 H 311.028 -1.59484 -5.85363 0
M  V30 3410 H 309.767 -0.906678 -4.79198 0
M  V30 3411 H 308.772 -3.19004 -4.47791 0
M  V30 3412 H 309.997 -3.87918 -5.57401 0
M  V30 3413 H 307.943 -1.76238 -6.31883 0
M  V30 3414 H 307.86 -3.444 -6.72997 0
M  V30 3415 H 309.128 -2.45942 -7.39684 0
M  V30 3416 N 313.357 1.07166 -1.15556 0
M  V30 3417 C 314.604 1.79798 -0.931604 0
M  V30 3418 C 314.932 1.8682 0.54115 0
M  V30 3419 O 314.187 1.34942 1.41736 0
M  V30 3420 C 314.486 3.24707 -1.49332 0
M  V30 3421 C 314.152 3.37781 -2.98688 0
M  V30 3422 C 312.814 3.41057 -3.39461 0
M  V30 3423 C 315.166 3.40424 -3.94665 0
M  V30 3424 C 312.494 3.4458 -4.74849 0
M  V30 3425 C 314.846 3.45485 -5.29927 0
M  V30 3426 C 313.51 3.47039 -5.70193 0
M  V30 3427 H 312.78 0.657928 -0.340898 0
M  V30 3428 H 315.427 1.26091 -1.44129 0
M  V30 3429 H 313.732 3.81208 -0.904859 0
M  V30 3430 H 315.429 3.79486 -1.29582 0
M  V30 3431 H 312.019 3.35932 -2.66172 0
M  V30 3432 H 316.203 3.37113 -3.64237 0
M  V30 3433 H 311.459 3.44083 -5.05388 0
M  V30 3434 H 315.633 3.46476 -6.04092 0
M  V30 3435 H 313.26 3.49522 -6.75084 0
M  V30 3436 N 314.835 0.952656 1.25548 0
M  V30 3437 C 315.785 0.442033 2.23674 0
M  V30 3438 C 316.769 -0.467632 1.53955 0
M  V30 3439 O 317.961 -0.301006 1.74422 0
M  V30 3440 C 315.09 -0.280816 3.4215 0
M  V30 3441 C 314.176 0.646803 4.19139 0
M  V30 3442 N 314.567 1.77759 4.73535 0
M  V30 3443 C 312.865 0.454617 4.43677 0
M  V30 3444 C 313.566 2.35658 5.31827 0
M  V30 3445 N 312.542 1.64333 5.18166 0
M  V30 3446 H 316.344 1.30505 2.63336 0
M  V30 3447 H 313.858 0.809904 1.40763 0
M  V30 3448 H 315.855 -0.663747 4.11582 0
M  V30 3449 H 314.515 -1.14046 3.04012 0
M  V30 3450 H 315.526 2.15949 4.7073 0
M  V30 3451 H 312.203 -0.362312 4.15925 0
M  V30 3452 H 313.593 3.30998 5.84713 0
M  V30 3453 N 316.313 -1.40141 0.720998 0
M  V30 3454 C 317.56 -2.00787 0.262842 0
M  V30 3455 C 317.888 -1.5718 -1.14563 0
M  V30 3456 O 317.143 -0.785391 -1.79249 0
M  V30 3457 C 317.442 -3.56165 0.296892 0
M  V30 3458 C 317.108 -4.19373 1.65641 0
M  V30 3459 C 315.77 -4.36352 2.02855 0
M  V30 3460 C 318.122 -4.54578 2.54968 0
M  V30 3461 C 315.45 -4.8582 3.28931 0
M  V30 3462 C 317.802 -5.05447 3.80402 0
M  V30 3463 C 316.466 -5.20635 4.17726 0
M  V30 3464 H 315.736 -0.734731 0.0961807 0
M  V30 3465 H 318.383 -1.67673 0.925093 0
M  V30 3466 H 316.688 -3.8922 -0.448932 0
M  V30 3467 H 318.385 -4.00929 -0.0755208 0
M  V30 3468 H 314.975 -4.06549 1.35704 0
M  V30 3469 H 319.159 -4.41091 2.27491 0
M  V30 3470 H 314.415 -4.95764 3.57811 0
M  V30 3471 H 318.589 -5.31663 4.49786 0
M  V30 3472 H 316.216 -5.58728 5.15487 0
M  V30 3473 N 317.792 -0.46758 -1.50504 0
M  V30 3474 C 319.208 -0.121533 -1.59137 0
M  V30 3475 C 319.408 1.3717 -1.47603 0
M  V30 3476 O 318.464 2.14464 -1.33272 0
M  V30 3477 C 319.777 -0.6686 -2.93173 0
M  V30 3478 C 321.325 -0.631716 -3.06559 0
M  V30 3479 C 321.8 -1.15627 -4.43164 0
M  V30 3480 N 323.291 -1.11553 -4.49567 0
M  V30 3481 C 324.026 -1.49195 -5.5365 0
M  V30 3482 N 323.522 -1.94269 -6.65005 0
M  V30 3483 N 325.315 -1.4082 -5.44175 0
M  V30 3484 H 317.466 -1.4388 -1.56245 0
M  V30 3485 H 319.729 -0.594784 -0.738198 0
M  V30 3486 H 319.435 -1.71453 -3.07078 0
M  V30 3487 H 319.309 -0.11021 -3.77039 0
M  V30 3488 H 321.696 0.405297 -2.92304 0
M  V30 3489 H 321.777 -1.22687 -2.24458 0
M  V30 3490 H 321.421 -2.1919 -4.58168 0
M  V30 3491 H 321.351 -0.537365 -5.23851 0
M  V30 3492 H 323.842 -0.784895 -3.69659 0
M  V30 3493 H 324.155 -2.21148 -7.40482 0
M  V30 3494 H 322.5 -1.98219 -6.66134 0
M  V30 3495 H 325.691 -1.0545 -4.56068 0
M  V30 3496 H 325.864 -1.70481 -6.25172 0
M  V30 3497 N 319.27 1.56325 -0.20005 0
M  V30 3498 C 320.51 1.99619 0.439519 0
M  V30 3499 C 320.874 1.08423 1.58456 0
M  V30 3500 O 322.075 1.40973 2.28867 0
M  V30 3501 C 320.346 3.46314 0.883258 0
M  V30 3502 S 321.905 4.11634 1.51997 0
M  V30 3503 H 318.723 0.697007 0.140363 0
M  V30 3504 H 321.325 1.93118 -0.304282 0
M  V30 3505 H 320.029 4.10381 0.0398967 0
M  V30 3506 H 319.56 3.56643 1.6604 0
M  V30 3507 H 321.575 4.09049 2.8088 0
M  V30 3508 N 320.748 -0.0735177 1.57428 0
M  V30 3509 C 321.68 -1.11423 2.00294 0
M  V30 3510 C 322.693 -1.35084 0.908637 0
M  V30 3511 O 323.882 -1.33355 1.18654 0
M  V30 3512 C 320.982 -2.46548 2.32523 0
M  V30 3513 C 320.155 -2.42867 3.63778 0
M  V30 3514 C 319.214 -3.60087 3.83697 0
M  V30 3515 O 318.24 -3.41595 4.55304 0
M  V30 3516 N 319.442 -4.80372 3.25919 0
M  V30 3517 H 322.207 -0.749206 2.90184 0
M  V30 3518 H 319.768 -0.262195 1.59763 0
M  V30 3519 H 321.76 -3.23607 2.43024 0
M  V30 3520 H 320.33 -2.75059 1.48531 0
M  V30 3521 H 319.55 -1.51206 3.64047 0
M  V30 3522 H 320.838 -2.37506 4.49965 0
M  V30 3523 H 320.236 -4.983 2.67795 0
M  V30 3524 H 318.793 -5.54948 3.41871 0
M  V30 3525 N 322.226 -1.5378 -0.344866 0
M  V30 3526 C 323.158 -1.77988 -1.44406 0
M  V30 3527 C 324.171 -0.661138 -1.48771 0
M  V30 3528 O 325.36 -0.937842 -1.51877 0
M  V30 3529 C 322.46 -1.86345 -2.8307 0
M  V30 3530 C 321.633 -3.16256 -3.0216 0
M  V30 3531 C 320.692 -3.15588 -4.21059 0
M  V30 3532 O 319.718 -3.89314 -4.15239 0
M  V30 3533 N 320.92 -2.37864 -5.29529 0
M  V30 3534 H 323.685 -2.72839 -1.24012 0
M  V30 3535 H 321.246 -1.52814 -0.534737 0
M  V30 3536 H 323.238 -1.83351 -3.60783 0
M  V30 3537 H 321.808 -0.986858 -2.96614 0
M  V30 3538 H 321.028 -3.32385 -2.11929 0
M  V30 3539 H 322.316 -4.0207 -3.11797 0
M  V30 3540 H 321.714 -1.77514 -5.37127 0
M  V30 3541 H 320.271 -2.40668 -6.05741 0
M  V30 3542 N 323.704 0.605807 -1.45491 0
M  V30 3543 C 324.952 1.36207 -1.49305 0
M  V30 3544 C 325.273 1.94519 -0.136863 0
M  V30 3545 O 324.543 1.77261 0.833983 0
M  V30 3546 H 323.123 0.50565 -0.549843 0
M  V30 3547 H 325.785 0.711239 -1.81459 0
M  V30 3548 H 324.881 2.18058 -2.23287 0
M  V30 3549 N 325.182 1.32811 0.848464 0
M  V30 3550 C 326.431 1.23075 1.59798 0
M  V30 3551 C 326.744 -0.204419 1.94529 0
M  V30 3552 O 327.95 -0.423701 2.68173 0
M  V30 3553 C 326.406 2.15594 2.88179 0
M  V30 3554 C 326.014 3.64228 2.60849 0
M  V30 3555 C 327.758 2.14709 3.66197 0
M  V30 3556 C 325.665 4.48689 3.85269 0
M  V30 3557 H 324.595 0.457091 0.599653 0
M  V30 3558 H 327.246 1.57813 0.936342 0
M  V30 3559 H 325.628 1.73778 3.55833 0
M  V30 3560 H 326.802 4.14424 2.01467 0
M  V30 3561 H 325.117 3.67306 1.96151 0
M  V30 3562 H 327.714 2.75046 4.58534 0
M  V30 3563 H 328.057 1.13966 4.00397 0
M  V30 3564 H 328.59 2.54837 3.05455 0
M  V30 3565 H 325.329 5.5027 3.56207 0
M  V30 3566 H 324.849 4.03241 4.44024 0
M  V30 3567 H 326.528 4.62006 4.52946 0
M  V30 3568 N 326.66 -1.06551 1.16123 0
M  V30 3569 C 327.607 -2.13961 0.865414 0
M  V30 3570 C 328.577 -1.65066 -0.185055 0
M  V30 3571 O 329.762 -1.90732 -0.05083 0
M  V30 3572 C 326.902 -3.43113 0.369776 0
M  V30 3573 C 326.015 -4.05756 1.48276 0
M  V30 3574 C 325.15 -5.22773 0.942414 0
M  V30 3575 C 324.189 -5.77395 2.03179 0
M  V30 3576 N 323.326 -6.85731 1.50721 0
M  V30 3577 H 328.166 -2.38605 1.78527 0
M  V30 3578 H 325.703 -1.17072 0.890646 0
M  V30 3579 H 327.661 -4.17151 0.0640643 0
M  V30 3580 H 326.291 -3.18695 -0.513143 0
M  V30 3581 H 325.343 -3.29292 1.9045 0
M  V30 3582 H 326.655 -4.42351 2.30493 0
M  V30 3583 H 325.809 -6.03827 0.589729 0
M  V30 3584 H 324.548 -4.87618 0.0895191 0
M  V30 3585 H 323.553 -4.94981 2.3932 0
M  V30 3586 H 324.778 -6.14603 2.8886 0
M  V30 3587 H 322.724 -6.52499 0.676811 0
M  V30 3588 H 322.641 -7.21254 2.26557 0
M  V30 3589 H 323.909 -7.7047 1.18303 0
M  V30 3590 N 328.138 -0.959301 -1.25041 0
M  V30 3591 C 329.086 -0.474437 -2.2771 0
M  V30 3592 C 330.08 0.457697 -1.631 0
M  V30 3593 O 331.286 0.333912 -1.76876 0
M  V30 3594 H 327.661 -0.134936 -0.739795 0
M  V30 3595 H 329.632 -1.35251 -2.65988 0
M  V30 3596 C 328.381 0.227884 -3.46952 0
M  V30 3597 H 327.704 -0.480248 -3.96905 0
M  V30 3598 H 329.144 0.531091 -4.20661 0
M  V30 3599 C 327.603 1.452 -3.04004 0
M  V30 3600 O 328.133 2.54949 -3.10426 0
M  V30 3601 N 326.339 1.31502 -2.59144 0
M  V30 3602 H 325.886 0.422065 -2.54119 0
M  V30 3603 H 325.844 2.13521 -2.30773 0
M  V30 3604 N 329.616 1.39756 -0.72842 0
M  V30 3605 C 330.546 2.33289 -0.0991354 0
M  V30 3606 C 331.527 1.53568 0.731489 0
M  V30 3607 O 332.712 1.81987 0.677807 0
M  V30 3608 C 329.842 3.3763 0.813834 0
M  V30 3609 C 328.796 4.2791 0.0878663 0
M  V30 3610 C 328.122 5.22894 1.11741 0
M  V30 3611 C 329.422 5.11314 -1.06563 0
M  V30 3612 H 331.116 2.86163 -0.880408 0
M  V30 3613 H 328.662 1.37591 -0.424819 0
M  V30 3614 H 330.615 4.0201 1.26355 0
M  V30 3615 H 329.339 2.83181 1.62715 0
M  V30 3616 H 327.998 3.65 -0.342159 0
M  V30 3617 H 327.646 4.64744 1.92412 0
M  V30 3618 H 327.346 5.84143 0.636477 0
M  V30 3619 H 328.87 5.90151 1.56697 0
M  V30 3620 H 330.284 5.69076 -0.694671 0
M  V30 3621 H 328.681 5.81671 -1.47577 0
M  V30 3622 H 329.751 4.46534 -1.89038 0
M  V30 3623 N 331.094 0.475555 1.50254 0
M  V30 3624 C 332.027 -0.362381 2.25304 0
M  V30 3625 C 333.005 -0.992393 1.28803 0
M  V30 3626 O 334.189 -1.02746 1.58036 0
M  V30 3627 C 331.316 -1.50813 3.03271 0
M  V30 3628 C 330.362 -0.995044 4.1473 0
M  V30 3629 S 331.195 0.0938436 5.35418 0
M  V30 3630 C 332.351 -1.05567 6.16933 0
M  V30 3631 H 332.584 0.274686 2.96028 0
M  V30 3632 H 330.117 0.260495 1.52187 0
M  V30 3633 H 332.075 -2.16476 3.48781 0
M  V30 3634 H 330.736 -2.11672 2.32064 0
M  V30 3635 H 329.929 -1.85293 4.68703 0
M  V30 3636 H 329.531 -0.416052 3.71679 0
M  V30 3637 H 331.823 -1.96636 6.48337 0
M  V30 3638 H 332.766 -0.555109 7.05921 0
M  V30 3639 H 333.174 -1.31151 5.49053 0
M  V30 3640 N 332.573 -1.56217 0.208337 0
M  V30 3641 C 333.85 -1.89739 -0.475234 0
M  V30 3642 C 334.23 -1.1238 -1.78701 0
M  V30 3643 O 333.578 -0.228979 -2.2735 0
M  V30 3644 C 333.788 -3.42289 -0.681101 0
M  V30 3645 C 335.136 -4.12789 -0.994507 0
M  V30 3646 O 336.16 -3.47814 -0.768357 0
M  V30 3647 O 335.019 -5.27649 -1.42299 0
M  V30 3648 H 332.113 -0.788478 -0.249461 0
M  V30 3649 H 334.659 -1.67855 0.249538 0
M  V30 3650 H 333.431 -3.90534 0.244722 0
M  V30 3651 H 333.054 -3.69909 -1.45785 0
M  V30 3652 N 334.051 0.0651679 -1.57465 0
M  V30 3653 C 335.328 0.79644 -1.78651 0
M  V30 3654 C 335.708 1.95454 -0.797566 0
M  V30 3655 O 335.056 2.27882 0.167946 0
M  V30 3656 C 335.266 1.26322 -3.25337 0
M  V30 3657 C 336.614 1.6939 -3.89348 0
M  V30 3658 O 337.638 1.35872 -3.29268 0
M  V30 3659 O 336.497 2.31471 -4.95059 0
M  V30 3660 H 333.591 0.382157 -0.733407 0
M  V30 3661 H 336.137 0.0447311 -1.69641 0
M  V30 3662 H 334.909 0.434859 -3.88876 0
M  V30 3663 H 334.532 2.07604 -3.39096 0
M  V30 3664 N 335.529 1.53961 0.336706 0
M  V30 3665 C 336.439 1.85432 1.43708 0
M  V30 3666 C 337.455 0.745053 1.57242 0
M  V30 3667 O 338.631 1.03804 1.72588 0
M  V30 3668 C 335.696 2.06349 2.78605 0
M  V30 3669 C 334.757 3.30191 2.74358 0
M  V30 3670 C 333.99 3.50101 4.02822 0
M  V30 3671 O 334.213 2.7371 5.00439 0
M  V30 3672 O 333.147 4.43547 4.06878 0
M  V30 3673 H 336.973 2.78975 1.20028 0
M  V30 3674 H 334.558 1.39701 0.52952 0
M  V30 3675 H 336.44 2.21513 3.58483 0
M  V30 3676 H 335.115 1.15995 3.02203 0
M  V30 3677 H 334.022 3.20425 1.93078 0
M  V30 3678 H 335.355 4.2056 2.55715 0
M  V30 3679 N 337.007 -0.598083 1.45811 0
M  V30 3680 C 337.97 -1.69018 1.54808 0
M  V30 3681 C 338.97 -1.55037 0.426652 0
M  V30 3682 O 340.16 -1.59932 0.690456 0
M  V30 3683 C 337.292 -3.0835 1.45371 0
M  V30 3684 H 338.485 -1.62403 2.52121 0
M  V30 3685 H 336.038 -0.814626 1.33392 0
M  V30 3686 H 336.773 -3.20534 0.492793 0
M  V30 3687 H 336.558 -3.19907 2.26721 0
M  V30 3688 H 338.048 -3.8788 1.54721 0
M  V30 3689 N 338.485 -1.33259 -0.841409 0
M  V30 3690 C 339.395 -1.25332 -1.98316 0
M  V30 3691 C 340.411 -0.164364 -1.73222 0
M  V30 3692 O 341.587 -0.387486 -1.97637 0
M  V30 3693 C 338.652 -0.990078 -3.32262 0
M  V30 3694 C 337.713 -2.16879 -3.70489 0
M  V30 3695 C 336.946 -1.91801 -4.98044 0
M  V30 3696 O 337.169 -0.867075 -5.63771 0
M  V30 3697 O 336.103 -2.78267 -5.33714 0
M  V30 3698 H 339.929 -2.21344 -2.07944 0
M  V30 3699 H 337.514 -1.1328 -0.974058 0
M  V30 3700 H 339.396 -0.860321 -4.12524 0
M  V30 3701 H 338.071 -0.0602155 -3.23644 0
M  V30 3702 H 336.978 -2.35407 -2.90748 0
M  V30 3703 H 338.311 -3.0819 -3.8377 0
M  V30 3704 N 339.963 1.05934 -1.16686 0
M  V30 3705 C 340.926 2.11669 -0.879144 0
M  V30 3706 C 341.926 1.60294 0.127445 0
M  V30 3707 O 343.116 1.7389 -0.103865 0
M  V30 3708 C 340.248 3.39438 -0.315425 0
M  V30 3709 H 341.441 2.38626 -1.81653 0
M  V30 3710 H 338.994 1.22058 -0.976299 0
M  V30 3711 H 339.729 3.18132 0.629468 0
M  V30 3712 H 339.514 3.78034 -1.04079 0
M  V30 3713 H 341.004 4.17391 -0.132189 0
M  V30 3714 N 341.441 0.965919 1.2453 0
M  V30 3715 C 342.371 0.513476 2.27784 0
M  V30 3716 C 343.352 -0.445974 1.6415 0
M  V30 3717 O 344.537 -0.342485 1.91156 0
M  V30 3718 C 341.667 -0.198839 3.4673 0
M  V30 3719 C 340.621 0.676456 4.2262 0
M  V30 3720 C 339.947 -0.167248 5.34438 0
M  V30 3721 C 341.247 1.96017 4.84123 0
M  V30 3722 H 342.941 1.3765 2.65881 0
M  V30 3723 H 340.487 0.663321 1.27813 0
M  V30 3724 H 342.44 -0.526567 4.18097 0
M  V30 3725 H 341.164 -1.0962 3.07654 0
M  V30 3726 H 339.823 0.98743 3.53052 0
M  V30 3727 H 339.471 -1.0647 4.91603 0
M  V30 3728 H 339.171 0.415181 5.86131 0
M  V30 3729 H 340.695 -0.489688 6.08633 0
M  V30 3730 H 342.109 1.69814 5.47573 0
M  V30 3731 H 340.506 2.48918 5.4604 0
M  V30 3732 H 341.576 2.65622 4.05676 0
M  V30 3733 N 342.919 -1.39368 0.735821 0
M  V30 3734 C 344.165 -2.00794 0.284544 0
M  V30 3735 C 344.498 -1.58255 -1.12557 0
M  V30 3736 O 343.773 -0.811819 -1.76748 0
M  V30 3737 C 344.056 -3.58011 0.387337 0
M  V30 3738 C 343.909 -4.10566 1.83728 0
M  V30 3739 C 345.228 -4.395 -0.22975 0
M  V30 3740 H 342.347 -0.729501 0.104866 0
M  V30 3741 H 344.989 -1.65564 0.93213 0
M  V30 3742 H 343.139 -3.88154 -0.164006 0
M  V30 3743 H 344.811 -3.91139 2.44556 0
M  V30 3744 H 343.054 -3.64095 2.35833 0
M  V30 3745 H 343.725 -5.19702 1.86047 0
M  V30 3746 H 346.201 -4.15406 0.240257 0
M  V30 3747 H 345.077 -5.48752 -0.127485 0
M  V30 3748 H 345.338 -4.22062 -1.3159 0
M  V30 3749 N 344.397 -0.483516 -1.5 0
M  V30 3750 C 345.645 0.067027 -2.01989 0
M  V30 3751 C 345.966 1.3909 -1.36671 0
M  V30 3752 O 345.236 1.88978 -0.516152 0
M  V30 3753 H 343.816 0.0277606 -0.746484 0
M  V30 3754 H 346.478 -0.636773 -1.84204 0
M  V30 3755 H 345.574 0.209484 -3.11396 0
M  V30 3756 N 345.875 1.56104 -0.216619 0
M  V30 3757 C 346.822 2.2007 0.695531 0
M  V30 3758 C 347.792 1.15471 1.19397 0
M  V30 3759 O 348.977 1.43807 1.25396 0
M  V30 3760 C 346.117 2.88073 1.90021 0
M  V30 3761 C 345.23 4.07253 1.44113 0
M  V30 3762 C 344.365 4.63052 2.603 0
M  V30 3763 C 343.404 5.74545 2.11103 0
M  V30 3764 N 342.541 6.24656 3.20545 0
M  V30 3765 H 347.381 2.97655 0.143327 0
M  V30 3766 H 344.918 1.46982 0.0589934 0
M  V30 3767 H 346.876 3.25681 2.60745 0
M  V30 3768 H 345.506 2.13015 2.42538 0
M  V30 3769 H 344.558 3.75164 0.628999 0
M  V30 3770 H 345.87 4.8783 1.04036 0
M  V30 3771 H 345.024 5.03078 3.39113 0
M  V30 3772 H 343.763 3.81628 3.03663 0
M  V30 3773 H 342.768 5.34027 1.3075 0
M  V30 3774 H 343.993 6.57801 1.68746 0
M  V30 3775 H 341.939 5.46148 3.63399 0
M  V30 3776 H 341.856 7.00343 2.84704 0
M  V30 3777 H 343.124 6.69338 3.99508 0
M  V30 3778 N 347.353 -0.0568162 1.57498 0
M  V30 3779 C 348.63 -0.786954 1.79071 0
M  V30 3780 C 349.01 -1.95028 0.80792 0
M  V30 3781 O 348.358 -2.27968 -0.155858 0
M  V30 3782 C 348.568 -1.24594 3.26002 0
M  V30 3783 C 349.916 -1.67323 3.90241 0
M  V30 3784 O 350.94 -1.34124 3.29984 0
M  V30 3785 O 349.799 -2.28842 4.9628 0
M  V30 3786 H 346.893 -0.378262 0.735423 0
M  V30 3787 H 349.439 -0.035734 1.69662 0
M  V30 3788 H 348.211 -0.41423 3.89101 0
M  V30 3789 H 347.834 -2.05803 3.40192 0
M  V30 3790 N 348.832 -1.54138 -0.328536 0
M  V30 3791 C 350.248 -1.44736 -0.672574 0
M  V30 3792 C 350.448 -0.616217 -1.91846 0
M  V30 3793 O 349.504 -0.113067 -2.52247 0
M  V30 3794 C 350.817 -2.884 -0.851217 0
M  V30 3795 C 352.365 -2.98271 -0.948877 0
M  V30 3796 C 352.84 -4.43074 -1.15973 0
M  V30 3797 N 354.331 -4.46665 -1.22658 0
M  V30 3798 C 355.066 -5.55857 -1.40751 0
M  V30 3799 N 354.562 -6.75026 -1.5592 0
M  V30 3800 N 356.355 -5.43495 -1.4342 0
M  V30 3801 H 348.506 -2.06661 0.490421 0
M  V30 3802 H 350.769 -0.934812 0.157579 0
M  V30 3803 H 350.475 -3.51699 -0.00704236 0
M  V30 3804 H 350.349 -3.34225 -1.74853 0
M  V30 3805 H 352.736 -2.35102 -1.78356 0
M  V30 3806 H 352.817 -2.55785 -0.0281435 0
M  V30 3807 H 352.461 -5.06827 -0.329915 0
M  V30 3808 H 352.391 -4.83165 -2.09426 0
M  V30 3809 H 354.882 -3.60797 -1.124 0
M  V30 3810 H 355.195 -7.54004 -1.69404 0
M  V30 3811 H 353.54 -6.77944 -1.53027 0
M  V30 3812 H 356.731 -4.49349 -1.31162 0
M  V30 3813 H 356.904 -6.28649 -1.57178 0
M  V30 3814 N 350.31 0.590341 -1.46126 0
M  V30 3815 C 351.22 1.72793 -1.58681 0
M  V30 3816 C 352.236 1.67516 -0.470566 0
M  V30 3817 O 353.412 1.87562 -0.733642 0
M  V30 3818 C 350.477 3.09287 -1.5666 0
M  V30 3819 C 349.538 3.25886 -2.79458 0
M  V30 3820 C 348.771 4.55869 -2.77524 0
M  V30 3821 O 348.994 5.3928 -1.85832 0
M  V30 3822 O 347.928 4.75552 -3.68964 0
M  V30 3823 H 351.754 1.65149 -2.54872 0
M  V30 3824 H 349.339 0.756486 -1.28832 0
M  V30 3825 H 351.221 3.90577 -1.58202 0
M  V30 3826 H 349.896 3.17385 -0.636271 0
M  V30 3827 H 348.803 2.44119 -2.83472 0
M  V30 3828 H 350.136 3.22675 -3.71674 0
M  V30 3829 N 351.788 1.33704 0.83433 0
M  V30 3830 C 353.013 1.28615 1.62705 0
M  V30 3831 C 353.438 -0.139242 1.87584 0
M  V30 3832 O 352.796 -1.09734 1.4432 0
M  V30 3833 C 352.844 2.07139 2.95171 0
M  V30 3834 O 351.948 1.4331 3.86699 0
M  V30 3835 H 351.289 0.44226 0.49528 0
M  V30 3836 H 353.819 1.76335 1.03766 0
M  V30 3837 H 353.829 2.18073 3.44831 0
M  V30 3838 H 352.504 3.10779 2.76386 0
M  V30 3839 H 351.081 1.4105 3.45195 0
M  V30 3840 N 353.266 -1.05314 1.17247 0
M  V30 3841 C 354.491 -1.82509 0.985148 0
M  V30 3842 C 354.916 -1.82343 -0.461788 0
M  V30 3843 O 354.274 -1.23151 -1.33055 0
M  V30 3844 C 354.322 -3.26566 1.52929 0
M  V30 3845 O 353.426 -4.05666 0.742225 0
M  V30 3846 H 352.767 -0.564347 0.349869 0
M  V30 3847 H 355.297 -1.32718 1.55715 0
M  V30 3848 H 355.307 -3.77369 1.55103 0
M  V30 3849 H 353.982 -3.26001 2.58256 0
M  V30 3850 H 352.559 -3.64397 0.791794 0
M  V30 3851 N 354.744 -0.972509 -1.24016 0
M  V30 3852 C 355.676 -0.464375 -2.24446 0
M  V30 3853 C 356.689 0.4295 -1.57032 0
M  V30 3854 O 357.878 0.234902 -1.76948 0
M  V30 3855 C 354.978 0.348385 -3.37105 0
M  V30 3856 C 354.151 -0.53673 -4.34094 0
M  V30 3857 C 353.21 0.220838 -5.25736 0
M  V30 3858 O 352.236 -0.386867 -5.67884 0
M  V30 3859 N 353.438 1.50907 -5.60542 0
M  V30 3860 H 356.203 -1.32788 -2.68677 0
M  V30 3861 H 353.764 -0.844877 -1.38107 0
M  V30 3862 H 355.756 0.863341 -3.95384 0
M  V30 3863 H 354.326 1.11285 -2.92121 0
M  V30 3864 H 353.546 -1.23261 -3.74433 0
M  V30 3865 H 354.834 -1.14022 -4.95859 0
M  V30 3866 H 354.232 2.02444 -5.28236 0
M  V30 3867 H 352.789 1.96962 -6.21329 0
M  V30 3868 N 356.222 1.38976 -0.743202 0
M  V30 3869 C 357.638 1.53984 -0.419664 0
M  V30 3870 C 357.838 1.70837 1.0685 0
M  V30 3871 O 356.894 1.7135 1.8546 0
M  V30 3872 C 358.207 2.75287 -1.20985 0
M  V30 3873 C 359.755 2.89129 -1.19889 0
M  V30 3874 C 360.23 4.13381 -1.97181 0
M  V30 3875 N 361.721 4.20437 -1.94389 0
M  V30 3876 C 362.456 5.15547 -2.50996 0
M  V30 3877 N 361.952 6.16395 -3.16274 0
M  V30 3878 N 363.745 5.07822 -2.40984 0
M  V30 3879 H 355.896 1.26285 -1.7078 0
M  V30 3880 H 358.159 0.612689 -0.723406 0
M  V30 3881 H 357.865 2.69204 -2.26323 0
M  V30 3882 H 357.739 3.68184 -0.819759 0
M  V30 3883 H 360.126 2.947 -0.153606 0
M  V30 3884 H 360.207 1.97272 -1.62841 0
M  V30 3885 H 359.851 4.08572 -3.01714 0
M  V30 3886 H 359.781 5.04298 -1.51629 0
M  V30 3887 H 362.272 3.48205 -1.46839 0
M  V30 3888 H 362.585 6.85443 -3.56915 0
M  V30 3889 H 360.93 6.16758 -3.20367 0
M  V30 3890 H 364.121 4.27973 -1.89622 0
M  V30 3891 H 364.294 5.81767 -2.85397 0
M  V30 3892 N 357.7 0.491464 1.49741 0
M  V30 3893 C 358.977 -0.118984 1.95238 0
M  V30 3894 C 359.357 -1.55044 1.43264 0
M  V30 3895 O 358.705 -2.19287 0.642287 0
M  V30 3896 C 358.915 -0.0414187 3.48975 0
M  V30 3897 C 360.263 -0.220133 4.24029 0
M  V30 3898 O 361.287 -0.117055 3.56008 0
M  V30 3899 O 360.146 -0.430567 5.44801 0
M  V30 3900 H 357.24 -0.100536 0.820866 0
M  V30 3901 H 359.786 0.553322 1.60426 0
M  V30 3902 H 358.558 0.957214 3.79412 0
M  V30 3903 H 358.181 -0.754292 3.9038 0
M  V30 3904 N 359.178 -1.55987 0.224894 0
M  V30 3905 C 360.108 -2.23426 -0.678457 0
M  V30 3906 C 361.089 -1.20709 -1.19847 0
M  V30 3907 O 362.274 -1.49304 -1.24186 0
M  V30 3908 C 359.404 -2.91676 -1.88527 0
M  V30 3909 C 358.358 -4.00893 -1.49896 0
M  V30 3910 C 357.684 -4.56455 -2.78483 0
M  V30 3911 C 358.984 -5.17769 -0.686461 0
M  V30 3912 H 360.678 -2.99175 -0.116173 0
M  V30 3913 H 358.224 -1.43897 -0.054436 0
M  V30 3914 H 360.177 -3.37547 -2.5227 0
M  V30 3915 H 358.901 -2.1338 -2.47258 0
M  V30 3916 H 357.56 -3.55758 -0.884985 0
M  V30 3917 H 357.208 -3.74886 -3.35365 0
M  V30 3918 H 356.908 -5.30169 -2.53368 0
M  V30 3919 H 358.432 -5.05047 -3.43162 0
M  V30 3920 H 359.846 -5.60001 -1.22767 0
M  V30 3921 H 358.243 -5.97735 -0.532259 0
M  V30 3922 H 359.313 -4.83932 0.306196 0
M  V30 3923 N 360.656 0.0484629 -1.57525 0
M  V30 3924 C 361.903 0.743125 -1.88372 0
M  V30 3925 C 362.231 1.76383 -0.819715 0
M  V30 3926 O 361.486 1.94855 0.181659 0
M  V30 3927 C 361.785 1.46632 -3.25935 0
M  V30 3928 C 361.451 0.583427 -4.4711 0
M  V30 3929 C 360.113 0.340191 -4.79996 0
M  V30 3930 C 362.465 -0.0273345 -5.21193 0
M  V30 3931 C 359.793 -0.522903 -5.84365 0
M  V30 3932 C 362.145 -0.878017 -6.26477 0
M  V30 3933 C 360.809 -1.1309 -6.5785 0
M  V30 3934 H 360.079 0.271929 -0.689301 0
M  V30 3935 H 362.726 0.00336166 -1.915 0
M  V30 3936 H 361.031 2.2789 -3.18706 0
M  V30 3937 H 362.728 2.00902 -3.47044 0
M  V30 3938 H 359.318 0.783151 -4.21384 0
M  V30 3939 H 363.502 0.147654 -4.9608 0
M  V30 3940 H 358.758 -0.727335 -6.07058 0
M  V30 3941 H 362.932 -1.35789 -6.83033 0
M  V30 3942 H 360.559 -1.80144 -7.38547 0
M  V30 3943 N 362.134 1.5431 0.320358 0
M  V30 3944 C 363.044 1.86946 1.41734 0
M  V30 3945 C 364.06 0.761689 1.56443 0
M  V30 3946 O 365.236 1.05629 1.71477 0
M  V30 3947 C 362.301 2.09293 2.76401 0
M  V30 3948 C 361.362 3.33082 2.70841 0
M  V30 3949 C 360.595 3.54353 3.99086 0
M  V30 3950 O 360.818 2.79002 4.97508 0
M  V30 3951 O 359.752 4.47838 4.0215 0
M  V30 3952 H 363.578 2.80232 1.17062 0
M  V30 3953 H 361.163 1.40255 0.514673 0
M  V30 3954 H 363.045 2.25303 3.56113 0
M  V30 3955 H 361.72 1.19194 3.00956 0
M  V30 3956 H 360.627 3.22454 1.89668 0
M  V30 3957 H 361.96 4.23249 2.5124 0
M  V30 3958 N 363.613 -0.582584 1.46437 0
M  V30 3959 C 364.576 -1.67366 1.56592 0
M  V30 3960 C 365.576 -1.54575 0.443072 0
M  V30 3961 O 366.766 -1.59191 0.707381 0
M  V30 3962 C 363.898 -3.06791 1.48634 0
M  V30 3963 H 365.091 -1.5972 2.5383 0
M  V30 3964 H 362.644 -0.800432 1.34249 0
M  V30 3965 H 363.379 -3.19993 0.526763 0
M  V30 3966 H 363.164 -3.17484 2.30101 0
M  V30 3967 H 364.654 -3.86218 1.58826 0
M  V30 3968 N 365.091 -1.34144 -0.827227 0
M  V30 3969 C 366.34 -1.25602 -1.5782 0
M  V30 3970 C 366.653 0.173445 -1.94829 0
M  V30 3971 O 367.859 0.380984 -2.68814 0
M  V30 3972 C 366.315 -2.20151 -2.84713 0
M  V30 3973 C 365.923 -3.68331 -2.55021 0
M  V30 3974 C 367.667 -2.20508 -3.62735 0
M  V30 3975 C 365.574 -4.54762 -3.78082 0
M  V30 3976 H 364.504 -0.466573 -0.592306 0
M  V30 3977 H 367.155 -1.59283 -0.911116 0
M  V30 3978 H 365.537 -1.79417 -3.53023 0
M  V30 3979 H 366.711 -4.17577 -1.94849 0
M  V30 3980 H 365.026 -3.7038 -1.90283 0
M  V30 3981 H 367.623 -2.82306 -4.54101 0
M  V30 3982 H 367.966 -1.20322 -3.98533 0
M  V30 3983 H 368.499 -2.59664 -3.01362 0
M  V30 3984 H 365.238 -5.55867 -3.47407 0
M  V30 3985 H 364.758 -4.10254 -4.37552 0
M  V30 3986 H 366.437 -4.69153 -4.45538 0
M  V30 3987 N 366.569 1.04691 -1.17803 0
M  V30 3988 C 367.479 2.16057 -0.914151 0
M  V30 3989 C 368.495 1.73589 0.119503 0
M  V30 3990 O 369.671 2.01308 -0.0609468 0
M  V30 3991 C 366.736 3.4394 -0.436603 0
M  V30 3992 C 365.797 4.00825 -1.53746 0
M  V30 3993 C 365.03 5.22604 -1.0826 0
M  V30 3994 O 365.253 5.70367 0.0612244 0
M  V30 3995 O 364.187 5.7186 -1.87775 0
M  V30 3996 H 368.013 2.41169 -1.84584 0
M  V30 3997 H 365.598 1.1453 -0.959334 0
M  V30 3998 H 367.48 4.21024 -0.178057 0
M  V30 3999 H 366.155 3.20316 0.466869 0
M  V30 4000 H 365.062 3.25158 -1.84995 0
M  V30 4001 H 366.395 4.28778 -2.41683 0
M  V30 4002 N 368.047 0.979072 1.23499 0
M  V30 4003 C 369.463 0.687475 1.44034 0
M  V30 4004 C 369.663 -0.746801 1.8715 0
M  V30 4005 O 368.719 -1.51939 2.0167 0
M  V30 4006 C 370.032 1.68127 2.49307 0
M  V30 4007 C 371.58 1.69516 2.63122 0
M  V30 4008 C 372.055 2.67723 3.71603 0
M  V30 4009 N 373.546 2.66233 3.79044 0
M  V30 4010 C 374.281 3.38891 4.62537 0
M  V30 4011 N 373.777 4.21103 5.50131 0
M  V30 4012 N 375.57 3.27661 4.56721 0
M  V30 4013 H 367.721 1.90559 0.938135 0
M  V30 4014 H 369.984 0.821051 0.473897 0
M  V30 4015 H 369.69 2.70693 2.2454 0
M  V30 4016 H 369.564 1.46306 3.4767 0
M  V30 4017 H 371.951 0.676561 2.8724 0
M  V30 4018 H 372.032 1.95404 1.65079 0
M  V30 4019 H 371.676 3.69724 3.48233 0
M  V30 4020 H 371.606 2.39111 4.69184 0
M  V30 4021 H 374.097 2.06568 3.16446 0
M  V30 4022 H 374.41 4.73403 6.10827 0
M  V30 4023 H 372.755 4.25195 5.49759 0
M  V30 4024 H 375.946 2.62887 3.87309 0
M  V30 4025 H 376.119 3.84547 5.21562 0
M  V30 4026 N 369.525 -1.3858 0.750561 0
M  V30 4027 C 370.773 -1.99789 0.30477 0
M  V30 4028 C 371.094 -1.59874 -1.11649 0
M  V30 4029 O 370.364 -0.85417 -1.76297 0
M  V30 4030 H 368.944 -0.738902 0.109694 0
M  V30 4031 H 371.606 -1.69391 0.963983 0
M  V30 4032 H 370.702 -3.09952 0.365499 0
M  V30 4033 N 371.003 -0.499398 -1.49478 0
M  V30 4034 C 372.28 0.108629 -1.95298 0
M  V30 4035 C 372.66 1.54282 -1.44084 0
M  V30 4036 O 372.008 2.18944 -0.653908 0
M  V30 4037 C 372.218 0.0229111 -3.48992 0
M  V30 4038 C 373.566 0.197643 -4.2414 0
M  V30 4039 O 374.59 0.0981735 -3.56065 0
M  V30 4040 O 373.449 0.401669 -5.45022 0
M  V30 4041 H 370.543 0.096181 -0.821388 0
M  V30 4042 H 373.089 -0.561822 -1.6013 0
M  V30 4043 H 371.861 -0.977321 -3.78899 0
M  V30 4044 H 371.484 0.733579 -3.90774 0
M  V30 4045 N 372.481 1.55866 -0.233164 0
M  V30 4046 C 373.711 2.02704 0.399325 0
M  V30 4047 C 374.119 1.11204 1.53069 0
M  V30 4048 O 373.462 0.116182 1.83332 0
M  V30 4049 C 373.524 3.45844 0.981429 0
M  V30 4050 C 373.188 4.56997 -0.0159561 0
M  V30 4051 C 374.185 5.13384 -0.820552 0
M  V30 4052 C 371.87 5.0211 -0.138072 0
M  V30 4053 C 373.864 6.13365 -1.73386 0
M  V30 4054 C 371.551 6.01926 -1.0549 0
M  V30 4055 C 372.549 6.57431 -1.85132 0
M  V30 4056 O 372.237 7.55302 -2.75272 0
M  V30 4057 H 371.969 0.668459 0.100692 0
M  V30 4058 H 374.523 2.02387 -0.35052 0
M  V30 4059 H 372.753 3.43267 1.78058 0
M  V30 4060 H 374.442 3.76262 1.52255 0
M  V30 4061 H 375.208 4.79372 -0.736721 0
M  V30 4062 H 371.087 4.5858 0.471737 0
M  V30 4063 H 374.631 6.56614 -2.35592 0
M  V30 4064 H 370.528 6.35359 -1.1397 0
M  V30 4065 H 371.296 7.72867 -2.69477 0
M  V30 4066 N 373.959 -0.0401083 1.57549 0
M  V30 4067 C 375.37 -0.588097 1.77196 0
M  V30 4068 C 375.721 -1.76209 0.862832 0
M  V30 4069 O 374.846 -2.16331 0.0548389 0
M  V30 4070 C 375.441 -1.07363 3.21339 0
M  V30 4071 C 374 -1.56723 3.42221 0
M  V30 4072 C 373.147 -0.50041 2.72747 0
M  V30 4073 H 376.098 0.186119 1.57605 0
M  V30 4074 H 376.119 -1.94143 3.27244 0
M  V30 4075 H 375.631 -0.218975 3.87482 0
M  V30 4076 H 373.732 -2.4441 2.81237 0
M  V30 4077 H 373.845 -1.62234 4.50796 0
M  V30 4078 H 372.209 -0.952894 2.36203 0
M  V30 4079 H 372.992 0.344599 3.41566 0
M  V30 4080 N 375.437 -1.54477 -0.31217 0
M  V30 4081 C 376.853 -1.45442 -0.657185 0
M  V30 4082 C 377.053 -0.63653 -1.91182 0
M  V30 4083 O 376.109 -0.139815 -2.52113 0
M  V30 4084 C 377.422 -2.89287 -0.82058 0
M  V30 4085 C 378.97 -2.9926 -0.917188 0
M  V30 4086 C 379.445 -4.44279 -1.11267 0
M  V30 4087 N 380.936 -4.4794 -1.17914 0
M  V30 4088 C 381.671 -5.57318 -1.34848 0
M  V30 4089 N 381.167 -6.76642 -1.48752 0
M  V30 4090 N 382.96 -5.44986 -1.37647 0
M  V30 4091 H 375.111 -2.06129 0.512313 0
M  V30 4092 H 377.374 -0.933088 0.167485 0
M  V30 4093 H 377.08 -3.51687 0.0302604 0
M  V30 4094 H 376.954 -3.36061 -1.71298 0
M  V30 4095 H 379.341 -2.36981 -1.75852 0
M  V30 4096 H 379.422 -2.558 -0.00101257 0
M  V30 4097 H 379.066 -5.07149 -0.27614 0
M  V30 4098 H 378.996 -4.85359 -2.04289 0
M  V30 4099 H 381.487 -3.61969 -1.08567 0
M  V30 4100 H 381.8 -7.55758 -1.61397 0
M  V30 4101 H 380.145 -6.79529 -1.45828 0
M  V30 4102 H 383.336 -4.50715 -1.26388 0
M  V30 4103 H 383.509 -6.3028 -1.50501 0
M  V30 4104 N 376.915 0.57481 -1.46744 0
M  V30 4105 C 378.161 1.33251 -1.53674 0
M  V30 4106 C 378.516 1.91468 -0.189125 0
M  V30 4107 O 377.809 1.73954 0.803151 0
M  V30 4108 C 378.003 2.476 -2.57738 0
M  V30 4109 C 377.832 2.00586 -4.02487 0
M  V30 4110 C 376.602 1.85237 -4.70123 0
M  V30 4111 C 378.8 1.56078 -4.90045 0
M  V30 4112 N 376.782 1.32377 -5.99458 0
M  V30 4113 C 378.153 1.14863 -6.09267 0
M  V30 4114 C 380.208 1.43968 -4.76632 0
M  V30 4115 C 378.911 0.627435 -7.16558 0
M  V30 4116 C 380.937 0.932512 -5.84002 0
M  V30 4117 C 380.299 0.53019 -7.02402 0
M  V30 4118 H 376.398 0.480284 -0.617131 0
M  V30 4119 H 378.982 0.653592 -1.83402 0
M  V30 4120 H 377.153 3.13045 -2.29907 0
M  V30 4121 H 378.885 3.14567 -2.54616 0
M  V30 4122 H 375.64 2.07423 -4.25761 0
M  V30 4123 H 376.064 1.08085 -6.68316 0
M  V30 4124 H 380.706 1.73689 -3.85476 0
M  V30 4125 H 378.424 0.317821 -8.07475 0
M  V30 4126 H 382.01 0.842611 -5.75666 0
M  V30 4127 H 380.89 0.14381 -7.84068 0
M  V30 4128 N 378.394 1.34581 0.820102 0
M  V30 4129 C 379.341 1.2639 1.93117 0
M  V30 4130 C 380.311 0.138554 1.65521 0
M  V30 4131 O 381.496 0.320004 1.88097 0
M  V30 4132 C 378.636 1.02812 3.29429 0
M  V30 4133 C 377.749 2.24146 3.693 0
M  V30 4134 C 376.884 1.93829 4.94574 0
M  V30 4135 C 375.923 3.1129 5.27034 0
M  V30 4136 N 375.06 2.80838 6.43486 0
M  V30 4137 H 379.9 2.21408 1.99455 0
M  V30 4138 H 377.437 1.10077 0.975784 0
M  V30 4139 H 379.395 0.871788 4.0799 0
M  V30 4140 H 378.025 0.114612 3.22596 0
M  V30 4141 H 377.077 2.50691 2.86109 0
M  V30 4142 H 378.389 3.11899 3.89257 0
M  V30 4143 H 377.543 1.74948 5.80929 0
M  V30 4144 H 376.282 1.03341 4.76626 0
M  V30 4145 H 375.287 3.30764 4.39175 0
M  V30 4146 H 376.512 4.02561 5.4692 0
M  V30 4147 H 374.458 1.92929 6.26988 0
M  V30 4148 H 374.375 3.62123 6.63629 0
M  V30 4149 H 375.643 2.65467 7.32903 0
M  V30 4150 N 379.872 -1.04064 1.18357 0
M  V30 4151 C 380.802 -2.14001 0.934113 0
M  V30 4152 C 381.783 -1.69616 -0.128186 0
M  V30 4153 O 382.968 -1.94185 0.0244093 0
M  V30 4154 C 380.098 -3.44253 0.459066 0
M  V30 4155 C 379.052 -4.02261 1.46185 0
M  V30 4156 C 378.378 -5.27992 0.844322 0
M  V30 4157 C 379.678 -4.38432 2.83856 0
M  V30 4158 H 381.372 -2.35127 1.85352 0
M  V30 4159 H 378.918 -1.12998 0.892604 0
M  V30 4160 H 380.871 -4.20522 0.271907 0
M  V30 4161 H 379.595 -3.22813 -0.495912 0
M  V30 4162 H 378.254 -3.28074 1.63595 0
M  V30 4163 H 377.902 -5.02862 -0.117845 0
M  V30 4164 H 377.602 -5.67765 1.51384 0
M  V30 4165 H 379.126 -6.06938 0.667693 0
M  V30 4166 H 380.54 -5.05688 2.70098 0
M  V30 4167 H 378.937 -4.89254 3.47491 0
M  V30 4168 H 380.007 -3.4826 3.37406 0
M  V30 4169 N 381.35 -0.985608 -1.22978 0
M  V30 4170 C 382.282 -0.488154 -2.23941 0
M  V30 4171 C 383.295 0.41282 -1.57479 0
M  V30 4172 O 384.484 0.216121 -1.77187 0
M  V30 4173 C 381.584 0.312611 -3.37455 0
M  V30 4174 C 380.757 -0.582741 -4.33501 0
M  V30 4175 C 379.816 0.165064 -5.25941 0
M  V30 4176 O 378.842 -0.447077 -5.67442 0
M  V30 4177 N 380.044 1.44953 -5.62111 0
M  V30 4178 H 382.809 -1.3563 -2.67254 0
M  V30 4179 H 380.37 -0.859477 -1.37203 0
M  V30 4180 H 382.362 0.821357 -3.96277 0
M  V30 4181 H 380.932 1.0818 -2.93285 0
M  V30 4182 H 380.152 -1.27225 -3.73105 0
M  V30 4183 H 381.44 -1.19275 -4.94622 0
M  V30 4184 H 380.838 1.9683 -5.30353 0
M  V30 4185 H 379.395 1.90361 -6.23383 0
M  V30 4186 N 382.828 1.3818 -0.7579 0
M  V30 4187 C 384.077 1.99261 -0.312744 0
M  V30 4188 C 384.39 1.60846 1.11301 0
M  V30 4189 O 385.596 2.14929 1.65885 0
M  V30 4190 C 384.052 3.56294 -0.50821 0
M  V30 4191 C 383.66 4.03657 -1.94333 0
M  V30 4192 C 385.404 4.24313 -0.125982 0
M  V30 4193 C 383.311 5.53347 -2.08712 0
M  V30 4194 H 382.241 0.745456 -0.113185 0
M  V30 4195 H 384.892 1.57889 -0.935056 0
M  V30 4196 H 383.274 3.95575 0.183353 0
M  V30 4197 H 384.448 3.75655 -2.66871 0
M  V30 4198 H 382.763 3.48376 -2.28086 0
M  V30 4199 H 385.36 5.34279 -0.212125 0
M  V30 4200 H 385.703 4.05962 0.921964 0
M  V30 4201 H 386.236 3.90285 -0.769563 0
M  V30 4202 H 382.975 5.76607 -3.11777 0
M  V30 4203 H 382.495 5.83078 -1.4064 0
M  V30 4204 H 384.174 6.19111 -1.87912 0
M  V30 4205 N 384.306 0.507319 1.49211 0
M  V30 4206 C 385.238 -0.304532 2.27168 0
M  V30 4207 C 386.251 -0.924956 1.33972 0
M  V30 4208 O 387.44 -0.807227 1.59205 0
M  V30 4209 C 384.54 -1.44431 3.06583 0
M  V30 4210 C 383.713 -0.930026 4.27398 0
M  V30 4211 C 382.772 -1.94817 4.88807 0
M  V30 4212 O 381.798 -1.51418 5.4869 0
M  V30 4213 N 383 -3.279 4.79022 0
M  V30 4214 H 385.765 0.36395 2.97482 0
M  V30 4215 H 383.326 0.340249 1.58284 0
M  V30 4216 H 385.318 -2.12311 3.44537 0
M  V30 4217 H 383.888 -2.01684 2.38835 0
M  V30 4218 H 383.108 -0.0759244 3.94127 0
M  V30 4219 H 384.396 -0.564932 5.05654 0
M  V30 4220 H 383.794 -3.65843 4.3148 0
M  V30 4221 H 382.351 -3.91476 5.21142 0
M  V30 4222 N 385.784 -1.5574 0.241426 0
M  V30 4223 C 387.033 -1.97986 -0.385295 0
M  V30 4224 C 387.346 -1.13267 -1.59468 0
M  V30 4225 O 388.552 -1.45501 -2.2922 0
M  V30 4226 C 387.008 -3.52275 -0.736884 0
M  V30 4227 C 386.616 -4.45726 0.450796 0
M  V30 4228 C 388.36 -4.03189 -1.3281 0
M  V30 4229 C 386.267 -5.91352 0.0756662 0
M  V30 4230 H 385.197 -0.739386 -0.147731 0
M  V30 4231 H 387.848 -1.80308 0.340779 0
M  V30 4232 H 386.23 -3.65628 -1.52094 0
M  V30 4233 H 387.404 -4.44131 1.22819 0
M  V30 4234 H 385.719 -4.05264 0.956573 0
M  V30 4235 H 388.316 -5.09505 -1.62201 0
M  V30 4236 H 388.659 -3.50212 -2.25071 0
M  V30 4237 H 389.192 -3.93141 -0.607069 0
M  V30 4238 H 385.931 -6.48354 0.965272 0
M  V30 4239 H 385.451 -5.96095 -0.665635 0
M  V30 4240 H 387.13 -6.46084 -0.344075 0
M  V30 4241 N 387.262 0.0317525 -1.57568 0
M  V30 4242 C 388.195 1.06621 -2.0176 0
M  V30 4243 C 389.173 1.35323 -0.901462 0
M  V30 4244 O 390.357 1.48025 -1.16708 0
M  V30 4245 C 387.484 2.40155 -2.38837 0
M  V30 4246 C 386.53 2.27327 -3.60867 0
M  V30 4247 S 387.363 1.62925 -5.10113 0
M  V30 4248 C 388.519 2.97955 -5.5043 0
M  V30 4249 H 388.752 0.689781 -2.89187 0
M  V30 4250 H 386.285 0.24164 -1.52497 0
M  V30 4251 H 388.243 3.1695 -2.6087 0
M  V30 4252 H 386.904 2.74946 -1.51867 0
M  V30 4253 H 386.097 3.25898 -3.84456 0
M  V30 4254 H 385.699 1.58675 -3.38671 0
M  V30 4255 H 387.991 3.94285 -5.5095 0
M  V30 4256 H 388.934 2.79102 -6.50775 0
M  V30 4257 H 389.342 3.00404 -4.77931 0
M  V30 4258 N 388.74 1.54641 0.303973 0
M  V30 4259 C 390.151 1.64811 0.877163 0
M  V30 4260 C 390.502 0.554838 1.88191 0
M  V30 4261 O 389.627 -0.309033 2.14182 0
M  V30 4262 C 390.222 2.9876 1.59775 0
M  V30 4263 C 388.781 3.11061 2.11938 0
M  V30 4264 C 387.928 2.60479 0.951097 0
M  V30 4265 H 390.879 1.58493 0.0810486 0
M  V30 4266 H 390.9 2.90017 2.46314 0
M  V30 4267 H 390.412 3.7831 0.866226 0
M  V30 4268 H 388.513 2.36225 2.88146 0
M  V30 4269 H 388.626 4.17171 2.35595 0
M  V30 4270 H 386.99 2.16859 1.33583 0
M  V30 4271 H 387.773 3.42504 0.233581 0
M  V30 4272 N 390.218 -0.567019 1.47046 0
M  V30 4273 C 391.128 -1.70247 1.6141 0
M  V30 4274 C 392.144 -1.66746 0.497157 0
M  V30 4275 O 393.32 -1.86371 0.763389 0
M  V30 4276 C 390.385 -3.06756 1.61561 0
M  V30 4277 C 389.446 -3.21399 2.84607 0
M  V30 4278 C 388.679 -4.51396 2.84741 0
M  V30 4279 O 388.902 -5.36255 1.94388 0
M  V30 4280 O 387.836 -4.69621 3.76483 0
M  V30 4281 H 391.662 -1.61073 2.57467 0
M  V30 4282 H 389.247 -0.735894 1.30019 0
M  V30 4283 H 391.129 -3.8801 1.64396 0
M  V30 4284 H 389.804 -3.16333 0.686684 0
M  V30 4285 H 388.711 -2.39579 2.8732 0
M  V30 4286 H 390.044 -3.16721 3.76761 0
M  V30 4287 N 391.696 -1.35014 -0.812953 0
M  V30 4288 C 392.643 -1.27412 -1.92444 0
M  V30 4289 C 393.613 -0.14733 -1.65445 0
M  V30 4290 O 394.798 -0.329974 -1.87925 0
M  V30 4291 C 391.938 -1.04558 -3.28879 0
M  V30 4292 C 391.051 -2.26101 -3.68106 0
M  V30 4293 C 390.186 -1.96449 -4.9354 0
M  V30 4294 C 389.225 -3.14081 -5.25376 0
M  V30 4295 N 388.362 -2.84246 -6.41988 0
M  V30 4296 H 393.202 -2.22463 -1.98278 0
M  V30 4297 H 390.739 -1.10593 -0.969933 0
M  V30 4298 H 392.697 -0.893413 -4.07522 0
M  V30 4299 H 391.327 -0.131719 -3.22531 0
M  V30 4300 H 390.379 -2.52204 -2.84775 0
M  V30 4301 H 391.691 -3.13959 -3.87597 0
M  V30 4302 H 390.845 -1.78026 -5.79993 0
M  V30 4303 H 389.584 -1.05867 -4.76071 0
M  V30 4304 H 388.589 -3.33089 -4.37415 0
M  V30 4305 H 389.814 -4.05455 -5.44778 0
M  V30 4306 H 387.76 -1.96252 -6.25956 0
M  V30 4307 H 387.677 -3.65637 -6.61699 0
M  V30 4308 H 388.945 -2.6935 -7.31485 0
M  V30 4309 N 393.175 1.03435 -1.18907 0
M  V30 4310 C 394.085 2.15075 -0.937015 0
M  V30 4311 C 395.101 1.73706 0.101085 0
M  V30 4312 O 396.277 2.01232 -0.0822948 0
M  V30 4313 C 393.342 3.43458 -0.473057 0
M  V30 4314 C 392.403 3.99172 -1.57989 0
M  V30 4315 C 391.636 5.21427 -1.13797 0
M  V30 4316 O 391.859 5.704 0.000725941 0
M  V30 4317 O 390.793 5.69837 -1.9383 0
M  V30 4318 H 394.619 2.39198 -1.87131 0
M  V30 4319 H 392.204 1.13506 -0.971427 0
M  V30 4320 H 394.086 4.20811 -0.222702 0
M  V30 4321 H 392.761 3.20793 0.432869 0
M  V30 4322 H 391.668 3.23178 -1.88433 0
M  V30 4323 H 393.001 4.2619 -2.46217 0
M  V30 4324 N 394.653 0.992116 1.22453 0
M  V30 4325 C 395.616 0.546883 2.2258 0
M  V30 4326 C 396.616 -0.369829 1.56489 0
M  V30 4327 O 397.806 -0.161896 1.73446 0
M  V30 4328 C 394.938 -0.204659 3.40285 0
M  V30 4329 H 396.131 1.43234 2.63484 0
M  V30 4330 H 393.684 0.779239 1.3549 0
M  V30 4331 H 394.419 -1.10614 3.04853 0
M  V30 4332 H 394.204 0.45354 3.89468 0
M  V30 4333 H 395.694 -0.504358 4.14543 0
M  V30 4334 N 396.131 -1.37776 0.765217 0
M  V30 4335 C 397.356 -2.04651 0.336537 0
M  V30 4336 C 397.781 -1.57337 -1.03086 0
M  V30 4337 O 397.139 -0.730621 -1.65927 0
M  V30 4338 C 397.187 -3.58577 0.381468 0
M  V30 4339 O 396.291 -4.07706 -0.62042 0
M  V30 4340 H 395.632 -0.64756 0.146838 0
M  V30 4341 H 398.162 -1.76221 1.03959 0
M  V30 4342 H 398.172 -4.07314 0.236448 0
M  V30 4343 H 396.847 -3.9237 1.37907 0
M  V30 4344 H 395.424 -3.70306 -0.439056 0
M  V30 4345 N 397.609 -0.515225 -1.4894 0
M  V30 4346 C 398.837 0.0206034 -2.0689 0
M  V30 4347 C 399.252 1.29514 -1.37374 0
M  V30 4348 O 398.609 1.76698 -0.456529 0
M  V30 4349 C 398.66 0.26351 -3.60538 0
M  V30 4350 O 398.381 -0.960517 -4.27441 0
M  V30 4351 C 399.882 0.841383 -4.35242 0
M  V30 4352 H 397.102 -0.0268608 -0.670462 0
M  V30 4353 H 399.646 -0.716651 -1.91532 0
M  V30 4354 H 397.801 0.950777 -3.75552 0
M  V30 4355 H 398.215 -0.73212 -5.19365 0
M  V30 4356 H 399.689 0.96085 -5.43573 0
M  V30 4357 H 400.166 1.8427 -3.98674 0
M  V30 4358 H 400.772 0.191143 -4.2487 0
M  V30 4359 N 399.087 1.5561 -0.249682 0
M  V30 4360 C 400.333 1.99306 0.374841 0
M  V30 4361 C 400.666 1.13767 1.57387 0
M  V30 4362 O 399.941 0.201711 1.93451 0
M  V30 4363 C 400.224 3.51507 0.781986 0
M  V30 4364 C 400.077 4.4781 -0.422629 0
M  V30 4365 C 401.396 4.08884 1.62793 0
M  V30 4366 H 398.515 0.724572 0.134773 0
M  V30 4367 H 401.157 1.86719 -0.351549 0
M  V30 4368 H 399.307 3.62363 1.4009 0
M  V30 4369 H 400.979 4.48931 -1.06108 0
M  V30 4370 H 399.222 4.20518 -1.06524 0
M  V30 4371 H 399.893 5.51919 -0.0943766 0
M  V30 4372 H 402.369 4.01147 1.10547 0
M  V30 4373 H 401.245 5.1564 1.88166 0
M  V30 4374 H 401.506 3.57515 2.60068 0
M  V30 4375 N 400.565 -0.0233959 1.57583 0
M  V30 4376 C 401.976 -0.56927 1.77809 0
M  V30 4377 C 402.327 -1.75284 0.881472 0
M  V30 4378 O 401.452 -2.1626 0.0777805 0
M  V30 4379 C 402.047 -1.03949 3.22459 0
M  V30 4380 C 400.606 -1.53084 3.43864 0
M  V30 4381 C 399.753 -0.471454 2.73263 0
M  V30 4382 H 402.704 0.202825 1.57399 0
M  V30 4383 H 402.725 -1.90661 3.29285 0
M  V30 4384 H 402.237 -0.177865 3.87692 0
M  V30 4385 H 400.338 -2.41414 2.83814 0
M  V30 4386 H 400.451 -1.57443 4.52491 0
M  V30 4387 H 398.815 -0.927788 2.37201 0
M  V30 4388 H 399.598 0.380808 3.41181 0
M  V30 4389 N 402.043 -1.548 -0.295768 0
M  V30 4390 C 403.273 -1.78069 -1.04762 0
M  V30 4391 C 403.681 -0.542847 -1.81245 0
M  V30 4392 O 403.024 0.497051 -1.76848 0
M  V30 4393 C 403.086 -2.93881 -2.07061 0
M  V30 4394 C 402.75 -4.31777 -1.49725 0
M  V30 4395 C 403.747 -5.11613 -0.924581 0
M  V30 4396 C 401.432 -4.78389 -1.5313 0
M  V30 4397 C 403.426 -6.36184 -0.393594 0
M  V30 4398 C 401.113 -6.02921 -0.996447 0
M  V30 4399 C 402.111 -6.81654 -0.428569 0
M  V30 4400 O 401.799 -8.0384 0.0981593 0
M  V30 4401 H 401.531 -0.597475 -0.316226 0
M  V30 4402 H 404.085 -2.02584 -0.338973 0
M  V30 4403 H 402.315 -2.65003 -2.81621 0
M  V30 4404 H 404.004 -3.04679 -2.6819 0
M  V30 4405 H 404.77 -4.76743 -0.891136 0
M  V30 4406 H 400.649 -4.17132 -1.9627 0
M  V30 4407 H 404.193 -6.97582 0.0503014 0
M  V30 4408 H 400.09 -6.37277 -1.02706 0
M  V30 4409 H 400.858 -8.18499 -0.0146455 0
M  V30 4410 N 403.521 0.559213 -1.47345 0
M  V30 4411 C 404.469 1.68747 -1.60085 0
M  V30 4412 C 405.463 1.628 -0.46825 0
M  V30 4413 O 406.669 1.68009 -0.645977 0
M  V30 4414 H 403.044 0.558329 -0.503759 0
M  V30 4415 H 405.015 1.55138 -2.54902 0
M  V30 4416 C 403.764 3.07103 -1.63042 0
M  V30 4417 H 403.087 3.12361 -2.49541 0
M  V30 4418 H 404.527 3.85743 -1.76006 0
M  V30 4419 C 402.986 3.34935 -0.363357 0
M  V30 4420 O 403.516 3.98102 0.536416 0
M  V30 4421 N 401.722 2.89574 -0.244 0
M  V30 4422 H 401.269 2.38348 -0.977133 0
M  V30 4423 H 401.227 3.08566 0.602836 0
M  V30 4424 N 404.999 1.35443 0.805782 0
M  V30 4425 C 406.41 1.25768 1.37983 0
M  V30 4426 C 406.761 -0.10958 1.95894 0
M  V30 4427 O 405.886 -1.01056 1.91355 0
M  V30 4428 C 406.481 2.27727 2.5085 0
M  V30 4429 C 405.04 2.2179 3.04115 0
M  V30 4430 C 404.187 2.13393 1.77084 0
M  V30 4431 H 407.138 1.4656 0.608752 0
M  V30 4432 H 407.159 1.90422 3.29424 0
M  V30 4433 H 406.671 3.27227 2.08671 0
M  V30 4434 H 404.772 1.25703 3.50756 0
M  V30 4435 H 404.885 3.13788 3.62042 0
M  V30 4436 H 403.249 1.59384 1.98668 0
M  V30 4437 H 404.032 3.14755 1.37056 0
M  V30 4438 N 406.477 -1.02803 1.19454 0
M  V30 4439 C 407.724 -1.76217 0.997693 0
M  V30 4440 C 408.052 -1.887 -0.47144 0
M  V30 4441 O 407.307 -1.4011 -1.3663 0
M  V30 4442 C 407.606 -3.18941 1.6128 0
M  V30 4443 C 407.272 -3.26463 3.11019 0
M  V30 4444 C 405.934 -3.28223 3.51885 0
M  V30 4445 C 408.286 -3.25542 4.07028 0
M  V30 4446 C 405.614 -3.26719 4.8731 0
M  V30 4447 C 407.966 -3.25579 5.42385 0
M  V30 4448 C 406.63 -3.25637 5.82681 0
M  V30 4449 H 405.9 -0.644823 0.365082 0
M  V30 4450 H 408.547 -1.20655 1.4871 0
M  V30 4451 H 406.852 -3.77587 1.04572 0
M  V30 4452 H 408.549 -3.74415 1.43577 0
M  V30 4453 H 405.139 -3.25822 2.78457 0
M  V30 4454 H 409.323 -3.23362 3.76498 0
M  V30 4455 H 404.579 -3.25089 5.1781 0
M  V30 4456 H 408.753 -3.23817 6.16535 0
M  V30 4457 H 406.38 -3.24226 6.87591 0
M  V30 4458 N 407.956 -0.998596 -1.21925 0
M  V30 4459 C 409.233 -0.593401 -1.86382 0
M  V30 4460 C 409.613 0.92916 -1.89552 0
M  V30 4461 O 408.961 1.81347 -1.39017 0
M  V30 4462 C 409.171 -1.22039 -3.26967 0
M  V30 4463 C 410.519 -1.32449 -4.03413 0
M  V30 4464 O 411.543 -1.17522 -3.36254 0
M  V30 4465 O 410.402 -1.56395 -5.23644 0
M  V30 4466 H 407.496 -0.202385 -0.801854 0
M  V30 4467 H 410.042 -1.09484 -1.29659 0
M  V30 4468 H 408.814 -2.26158 -3.19325 0
M  V30 4469 H 408.437 -0.704906 -3.91301 0
M  V30 4470 N 409.434 1.37368 -0.772513 0
M  V30 4471 C 410.364 2.32856 -0.173304 0
M  V30 4472 C 411.345 1.55818 0.682262 0
M  V30 4473 O 412.53 1.84052 0.619566 0
M  V30 4474 C 409.66 3.40048 0.706007 0
M  V30 4475 C 408.614 4.27973 -0.0483144 0
M  V30 4476 C 407.94 5.26184 0.950491 0
M  V30 4477 C 409.24 5.07665 -1.22776 0
M  V30 4478 H 410.934 2.83217 -0.971002 0
M  V30 4479 H 408.48 1.3617 -0.468377 0
M  V30 4480 H 410.433 4.05827 1.13501 0
M  V30 4481 H 409.157 2.88214 1.53623 0
M  V30 4482 H 407.816 3.63726 -0.458107 0
M  V30 4483 H 407.464 4.7063 1.77529 0
M  V30 4484 H 407.164 5.85872 0.450314 0
M  V30 4485 H 408.688 5.94838 1.37842 0
M  V30 4486 H 410.102 5.66578 -0.875366 0
M  V30 4487 H 408.499 5.76681 -1.66007 0
M  V30 4488 H 409.569 4.40294 -2.03149 0
M  V30 4489 N 410.912 0.523116 1.48665 0
M  V30 4490 C 412.14 -0.0096312 2.06898 0
M  V30 4491 C 412.555 -1.28784 1.38059 0
M  V30 4492 O 411.912 -1.76453 0.465893 0
M  V30 4493 C 411.963 -0.244386 3.60673 0
M  V30 4494 O 411.684 0.983172 4.26925 0
M  V30 4495 C 413.185 -0.818289 4.35682 0
M  V30 4496 H 410.405 0.0304161 0.67031 0
M  V30 4497 H 412.949 0.726799 1.91149 0
M  V30 4498 H 411.104 -0.930847 3.76051 0
M  V30 4499 H 411.518 0.759653 5.1897 0
M  V30 4500 H 412.992 -0.93201 5.44075 0
M  V30 4501 H 413.469 -1.82153 3.99646 0
M  V30 4502 H 414.075 -0.168609 4.24966 0
M  V30 4503 N 412.39 -1.55475 0.257931 0
M  V30 4504 C 413.337 -2.21837 -0.636939 0
M  V30 4505 C 414.307 -1.18596 -1.16294 0
M  V30 4506 O 415.492 -1.47081 -1.21539 0
M  V30 4507 C 412.632 -2.9301 -1.82317 0
M  V30 4508 C 411.745 -4.10931 -1.33265 0
M  V30 4509 C 410.88 -4.69791 -2.47931 0
M  V30 4510 C 409.919 -5.7994 -1.95796 0
M  V30 4511 N 409.056 -6.32935 -3.0387 0
M  V30 4512 H 413.896 -2.9793 -0.0643591 0
M  V30 4513 H 411.433 -1.47086 -0.0200031 0
M  V30 4514 H 413.391 -3.3248 -2.52018 0
M  V30 4515 H 412.021 -2.1937 -2.36805 0
M  V30 4516 H 411.073 -3.76699 -0.52931 0
M  V30 4517 H 412.385 -4.90417 -0.910654 0
M  V30 4518 H 411.539 -5.11892 -3.25656 0
M  V30 4519 H 410.278 -3.89545 -2.93438 0
M  V30 4520 H 409.283 -5.37305 -1.16546 0
M  V30 4521 H 410.508 -6.62043 -1.51246 0
M  V30 4522 H 408.454 -5.55591 -3.48791 0
M  V30 4523 H 408.371 -7.07645 -2.66035 0
M  V30 4524 H 409.639 -6.79695 -3.81621 0
M  V30 4525 N 413.868 0.0150385 -1.57593 0
M  V30 4526 C 415.114 0.704043 -1.90187 0
M  V30 4527 C 415.447 1.74249 -0.857366 0
M  V30 4528 O 414.722 1.94092 0.125843 0
M  V30 4529 C 415.005 1.36087 -3.33395 0
M  V30 4530 C 414.858 0.334981 -4.48551 0
M  V30 4531 C 416.177 2.29112 -3.7576 0
M  V30 4532 H 413.296 0.254475 -0.691673 0
M  V30 4533 H 415.938 -0.0331678 -1.89971 0
M  V30 4534 H 414.088 1.98922 -3.3371 0
M  V30 4535 H 415.76 -0.292534 -4.60372 0
M  V30 4536 H 414.003 -0.344325 -4.32431 0
M  V30 4537 H 414.674 0.833316 -5.45674 0
M  V30 4538 H 417.15 1.76308 -3.76902 0
M  V30 4539 H 416.026 2.72043 -4.76743 0
M  V30 4540 H 416.287 3.16385 -3.08793 0
M  V30 4541 N 415.346 1.54954 0.287554 0
M  V30 4542 C 416.592 1.76059 1.01856 0
M  V30 4543 C 416.947 0.547056 1.84459 0
M  V30 4544 O 416.24 -0.460442 1.85985 0
M  V30 4545 C 416.434 2.99833 1.94512 0
M  V30 4546 C 416.263 4.33108 1.21026 0
M  V30 4547 C 415.033 4.96632 0.931896 0
M  V30 4548 C 417.231 5.10694 0.607949 0
M  V30 4549 N 415.213 6.13668 0.168716 0
M  V30 4550 C 416.584 6.19996 -0.0217865 0
M  V30 4551 C 418.639 4.95236 0.514338 0
M  V30 4552 C 417.342 7.15524 -0.736092 0
M  V30 4553 C 419.368 5.91106 -0.186343 0
M  V30 4554 C 418.73 6.99786 -0.804875 0
M  V30 4555 H 414.829 0.696679 0.355193 0
M  V30 4556 H 417.413 1.92441 0.295741 0
M  V30 4557 H 415.584 2.84853 2.64033 0
M  V30 4558 H 417.316 3.09405 2.60865 0
M  V30 4559 H 414.071 4.57255 1.23348 0
M  V30 4560 H 414.495 6.76705 -0.199781 0
M  V30 4561 H 419.137 4.11328 0.978234 0
M  V30 4562 H 416.855 7.98964 -1.21172 0
M  V30 4563 H 420.441 5.81224 -0.258897 0
M  V30 4564 H 419.321 7.72694 -1.33843 0
M  V30 4565 N 416.824 -0.551391 1.4764 0
M  V30 4566 C 418.235 -1.13349 1.48354 0
M  V30 4567 C 418.586 -1.94709 0.241432 0
M  V30 4568 O 417.711 -2.06306 -0.653205 0
M  V30 4569 C 418.306 -2.0623 2.68802 0
M  V30 4570 C 416.865 -2.597 2.72457 0
M  V30 4571 C 416.012 -1.36201 2.41546 0
M  V30 4572 H 418.963 -0.337698 1.55065 0
M  V30 4573 H 418.984 -2.90196 2.46103 0
M  V30 4574 H 418.496 -1.46987 3.59188 0
M  V30 4575 H 416.597 -3.22724 1.86225 0
M  V30 4576 H 416.71 -3.00296 3.73308 0
M  V30 4577 H 415.074 -1.67068 1.9225 0
M  V30 4578 H 415.857 -0.787425 3.34147 0
M  V30 4579 N 418.302 -1.35869 -0.798587 0
M  V30 4580 C 419.252 -1.25982 -1.90033 0
M  V30 4581 C 420.236 -0.153303 -1.60168 0
M  V30 4582 O 421.428 -0.38527 -1.72756 0
M  V30 4583 C 418.557 -1.04211 -3.27101 0
M  V30 4584 C 417.643 -2.19289 -3.63006 0
M  V30 4585 N 418.034 -3.44559 -3.70287 0
M  V30 4586 C 416.332 -2.10852 -3.93011 0
M  V30 4587 C 417.033 -4.20283 -4.02166 0
M  V30 4588 N 416.009 -3.49124 -4.16669 0
M  V30 4589 H 419.811 -2.20883 -1.93876 0
M  V30 4590 H 417.325 -1.28457 -0.993614 0
M  V30 4591 H 419.322 -0.952155 -4.05881 0
M  V30 4592 H 417.982 -0.102013 -3.2454 0
M  V30 4593 H 418.993 -3.7881 -3.53162 0
M  V30 4594 H 415.67 -1.24744 -3.98428 0
M  V30 4595 H 417.06 -5.28575 -4.14799 0
M  V30 4596 N 419.78 1.02168 -1.19998 0
M  V30 4597 C 420.743 2.08765 -0.94604 0
M  V30 4598 C 421.743 1.60618 0.0763846 0
M  V30 4599 O 422.933 1.73472 -0.159135 0
M  V30 4600 C 420.065 3.38262 -0.423255 0
M  V30 4601 H 421.258 2.32726 -1.89153 0
M  V30 4602 H 418.811 1.1889 -1.01464 0
M  V30 4603 H 419.546 3.19974 0.527938 0
M  V30 4604 H 419.331 3.74532 -1.16053 0
M  V30 4605 H 420.821 4.16759 -0.264911 0
M  V30 4606 N 421.258 1.00505 1.21394 0
M  V30 4607 C 422.535 0.603277 1.86064 0
M  V30 4608 C 422.915 -0.919095 1.90042 0
M  V30 4609 O 422.263 -1.80607 1.39977 0
M  V30 4610 C 422.473 1.23772 3.26315 0
M  V30 4611 C 423.821 1.34586 4.02705 0
M  V30 4612 O 424.845 1.19304 3.35626 0
M  V30 4613 O 423.704 1.59169 5.22807 0
M  V30 4614 H 420.798 0.206634 0.800769 0
M  V30 4615 H 423.344 1.1017 1.29076 0
M  V30 4616 H 422.116 2.27848 3.18121 0
M  V30 4617 H 421.739 0.725648 3.90922 0
M  V30 4618 N 422.737 -1.36956 0.779787 0
M  V30 4619 C 423.967 -2.03459 0.358877 0
M  V30 4620 C 424.375 -1.58939 -1.02641 0
M  V30 4621 O 423.718 -0.769777 -1.66794 0
M  V30 4622 C 423.78 -3.5796 0.332393 0
M  V30 4623 C 423.444 -4.25644 1.66362 0
M  V30 4624 C 424.441 -4.49205 2.61746 0
M  V30 4625 C 422.126 -4.63313 1.94027 0
M  V30 4626 C 424.12 -5.09503 3.82996 0
M  V30 4627 C 421.807 -5.2333 3.15546 0
M  V30 4628 C 422.805 -5.46363 4.0985 0
M  V30 4629 O 422.493 -6.05122 5.29228 0
M  V30 4630 H 422.225 -0.659767 0.147254 0
M  V30 4631 H 424.779 -1.76111 1.05708 0
M  V30 4632 H 423.009 -3.84388 -0.422237 0
M  V30 4633 H 424.698 -4.05852 -0.0625389 0
M  V30 4634 H 425.464 -4.20508 2.41657 0
M  V30 4635 H 421.343 -4.44715 1.21448 0
M  V30 4636 H 424.887 -5.27397 4.56617 0
M  V30 4637 H 420.784 -5.51451 3.35517 0
M  V30 4638 H 421.552 -6.23595 5.30161 0
M  V30 4639 N 424.215 -0.530993 -1.48385 0
M  V30 4640 C 425.626 -0.0907905 -1.86479 0
M  V30 4641 C 425.977 1.33213 -1.44044 0
M  V30 4642 O 425.102 1.99783 -0.831615 0
M  V30 4643 C 425.697 -0.157987 -3.38431 0
M  V30 4644 C 424.256 0.227026 -3.75715 0
M  V30 4645 C 423.403 -0.5173 -2.72432 0
M  V30 4646 H 426.354 -0.742186 -1.40276 0
M  V30 4647 H 426.375 0.630053 -3.75247 0
M  V30 4648 H 425.887 -1.19372 -3.69286 0
M  V30 4649 H 423.988 1.26486 -3.50474 0
M  V30 4650 H 424.101 -0.113288 -4.78966 0
M  V30 4651 H 422.465 0.0365527 -2.54674 0
M  V30 4652 H 423.248 -1.55368 -3.0613 0
M  V30 4653 N 425.693 1.55336 -0.266172 0
M  V30 4654 C 426.623 2.25146 0.618981 0
M  V30 4655 C 427.604 1.23845 1.16604 0
M  V30 4656 O 428.789 1.52544 1.20183 0
M  V30 4657 C 425.919 2.96572 1.80728 0
M  V30 4658 C 424.873 4.04726 1.39215 0
M  V30 4659 C 424.199 4.63678 2.66283 0
M  V30 4660 C 425.499 5.19407 0.548942 0
M  V30 4661 H 427.193 2.99377 0.0368116 0
M  V30 4662 H 424.739 1.43991 0.0162651 0
M  V30 4663 H 426.692 3.44116 2.43232 0
M  V30 4664 H 425.416 2.19861 2.41514 0
M  V30 4665 H 424.075 3.57979 0.790351 0
M  V30 4666 H 423.723 3.83646 3.25308 0
M  V30 4667 H 423.423 5.367 2.39222 0
M  V30 4668 H 424.947 5.13967 3.29651 0
M  V30 4669 H 426.361 5.63059 1.07876 0
M  V30 4670 H 424.758 5.98936 0.373593 0
M  V30 4671 H 425.828 4.8295 -0.434394 0
M  V30 4672 N 427.171 -0.0066808 1.57599 0
M  V30 4673 C 428.104 -1.03397 2.03431 0
M  V30 4674 C 429.082 -1.33872 0.922877 0
M  V30 4675 O 430.266 -1.4615 1.19048 0
M  V30 4676 C 427.393 -2.36325 2.42628 0
M  V30 4677 C 426.439 -2.21557 3.64438 0
M  V30 4678 S 427.272 -1.54789 5.12641 0
M  V30 4679 C 428.428 -2.8916 5.55101 0
M  V30 4680 H 428.661 -0.643687 2.90248 0
M  V30 4681 H 426.194 -0.217349 1.52863 0
M  V30 4682 H 428.152 -3.12759 2.65879 0
M  V30 4683 H 426.813 -2.72495 1.56222 0
M  V30 4684 H 426.006 -3.1974 3.89592 0
M  V30 4685 H 425.608 -1.53267 3.41153 0
M  V30 4686 H 427.9 -3.8547 5.57153 0
M  V30 4687 H 428.843 -2.68713 6.55133 0
M  V30 4688 H 429.251 -2.92762 4.82649 0
M  V30 4689 N 428.649 -1.55105 -0.279332 0
M  V30 4690 C 429.926 -1.66119 -1.03267 0
M  V30 4691 C 430.306 -0.523525 -2.04505 0
M  V30 4692 O 429.654 0.477194 -2.23462 0
M  V30 4693 C 429.864 -3.05067 -1.69515 0
M  V30 4694 C 431.212 -3.62606 -2.20912 0
M  V30 4695 O 432.236 -3.07659 -1.79512 0
M  V30 4696 O 431.095 -4.58861 -2.96831 0
M  V30 4697 H 428.189 -0.674429 -0.478618 0
M  V30 4698 H 430.735 -1.67446 -0.275694 0
M  V30 4699 H 429.507 -3.79311 -0.9612 0
M  V30 4700 H 429.13 -3.07611 -2.51915 0
M  V30 4701 N 430.127 0.543554 -1.4793 0
M  V30 4702 C 431.373 1.30201 -1.55485 0
M  V30 4703 C 431.706 1.92925 -0.222201 0
M  V30 4704 O 430.981 1.78586 0.77053 0
M  V30 4705 C 431.264 2.40174 -2.68307 0
M  V30 4706 C 431.117 1.8223 -4.11233 0
M  V30 4707 C 432.436 3.42024 -2.76961 0
M  V30 4708 H 429.555 0.472036 -0.565996 0
M  V30 4709 H 432.197 0.606914 -1.80046 0
M  V30 4710 H 430.347 2.99463 -2.47495 0
M  V30 4711 H 432.019 1.27096 -4.43446 0
M  V30 4712 H 430.262 1.12832 -4.18869 0
M  V30 4713 H 430.933 2.61793 -4.85972 0
M  V30 4714 H 433.409 2.92672 -2.95774 0
M  V30 4715 H 432.285 4.16383 -3.57654 0
M  V30 4716 H 432.546 4.0173 -1.84568 0
M  V30 4717 N 431.605 1.3629 0.791371 0
M  V30 4718 C 432.853 1.30154 1.5461 0
M  V30 4719 C 433.174 -0.119409 1.94634 0
M  V30 4720 O 432.444 -1.05924 1.64794 0
M  V30 4721 H 431.024 0.478784 0.573389 0
M  V30 4722 H 433.686 1.70565 0.94306 0
M  V30 4723 H 432.782 1.92762 2.45457 0
M  V30 4724 N 433.083 -1.0153 1.20538 0
M  V30 4725 C 434.313 -1.78487 1.04048 0
M  V30 4726 C 434.721 -1.84631 -0.413292 0
M  V30 4727 O 434.064 -1.29919 -1.29872 0
M  V30 4728 C 434.126 -3.24367 1.55003 0
M  V30 4729 C 433.79 -3.41827 3.0332 0
M  V30 4730 C 434.787 -3.30941 4.00966 0
M  V30 4731 C 432.472 -3.67602 3.42307 0
M  V30 4732 C 434.466 -3.45577 5.35589 0
M  V30 4733 C 432.153 -3.81881 4.77085 0
M  V30 4734 C 433.151 -3.70874 5.73534 0
M  V30 4735 O 432.839 -3.84714 7.05868 0
M  V30 4736 H 432.571 -0.568108 0.366373 0
M  V30 4737 H 435.125 -1.28677 1.60098 0
M  V30 4738 H 433.355 -3.75266 0.933397 0
M  V30 4739 H 435.044 -3.82963 1.34514 0
M  V30 4740 H 435.81 -3.10964 3.72191 0
M  V30 4741 H 431.689 -3.75256 2.67776 0
M  V30 4742 H 435.233 -3.36902 6.10854 0
M  V30 4743 H 431.13 -4.01359 5.0555 0
M  V30 4744 H 431.898 -4.01724 7.13134 0
M  V30 4745 N 434.561 -1.01147 -1.20859 0
M  V30 4746 C 435.808 -0.697865 -1.90095 0
M  V30 4747 C 436.136 0.772014 -1.78522 0
M  V30 4748 O 435.391 1.57595 -1.16027 0
M  V30 4749 C 435.69 -1.0727 -3.40922 0
M  V30 4750 C 435.356 -2.53792 -3.72693 0
M  V30 4751 C 434.018 -2.93829 -3.81075 0
M  V30 4752 C 436.37 -3.48674 -3.87397 0
M  V30 4753 C 433.698 -4.27696 -4.01613 0
M  V30 4754 C 436.05 -4.82223 -4.09444 0
M  V30 4755 C 434.714 -5.21973 -4.16054 0
M  V30 4756 H 433.984 -0.255367 -0.695607 0
M  V30 4757 H 436.631 -1.27111 -1.43231 0
M  V30 4758 H 434.936 -0.417799 -3.89566 0
M  V30 4759 H 436.633 -0.807818 -3.92779 0
M  V30 4760 H 433.223 -2.21768 -3.66765 0
M  V30 4761 H 437.407 -3.18904 -3.80281 0
M  V30 4762 H 432.663 -4.58055 -4.04964 0
M  V30 4763 H 436.837 -5.55672 -4.19763 0
M  V30 4764 H 434.464 -6.25717 -4.31721 0
M  V30 4765 N 436.039 1.36541 -0.78704 0
M  V30 4766 C 436.949 2.3387 -0.184896 0
M  V30 4767 C 437.965 1.60927 0.661697 0
M  V30 4768 O 439.141 1.92927 0.57804 0
M  V30 4769 C 436.206 3.40122 0.672145 0
M  V30 4770 C 435.267 4.28867 -0.19267 0
M  V30 4771 C 434.5 5.30045 0.623561 0
M  V30 4772 O 434.723 5.39232 1.8597 0
M  V30 4773 O 433.657 6.01895 0.0247068 0
M  V30 4774 H 437.483 2.87126 -0.989562 0
M  V30 4775 H 435.068 1.38969 -0.548455 0
M  V30 4776 H 436.95 4.05093 1.16094 0
M  V30 4777 H 435.625 2.89169 1.45474 0
M  V30 4778 H 434.532 3.66945 -0.728166 0
M  V30 4779 H 435.865 4.83165 -0.938722 0
M  V30 4780 N 437.518 0.538854 1.48102 0
M  V30 4781 C 438.448 -0.207654 2.32575 0
M  V30 4782 C 439.429 -0.926559 1.4265 0
M  V30 4783 O 440.614 -0.91061 1.71527 0
M  V30 4784 C 437.744 -1.24957 3.24042 0
M  V30 4785 C 436.698 -0.648263 4.23062 0
M  V30 4786 C 436.024 -1.79348 5.03725 0
M  V30 4787 C 437.324 0.385897 5.20872 0
M  V30 4788 H 439.018 0.497534 2.95237 0
M  V30 4789 H 436.564 0.240715 1.41974 0
M  V30 4790 H 438.517 -1.77983 3.81969 0
M  V30 4791 H 437.241 -1.98446 2.59397 0
M  V30 4792 H 435.9 -0.139452 3.66335 0
M  V30 4793 H 435.548 -2.51696 4.35498 0
M  V30 4794 H 435.248 -1.39702 5.70751 0
M  V30 4795 H 436.772 -2.32735 5.64506 0
M  V30 4796 H 438.186 -0.057607 5.73271 0
M  V30 4797 H 436.583 0.700227 5.96001 0
M  V30 4798 H 437.653 1.28848 4.67468 0
M  V30 4799 N 438.996 -1.55193 0.274407 0
M  V30 4800 C 439.944 -2.23924 -0.629362 0
M  V30 4801 C 440.938 -1.23602 -1.1584 0
M  V30 4802 O 442.144 -1.41535 -1.11211 0
M  V30 4803 H 438.519 -0.718637 -0.221507 0
M  V30 4804 H 440.49 -2.98388 -0.0268322 0
M  V30 4805 C 439.239 -2.97329 -1.80252 0
M  V30 4806 H 438.562 -3.74313 -1.40462 0
M  V30 4807 H 440.002 -3.48743 -2.41152 0
M  V30 4808 C 438.461 -2.0276 -2.69054 0
M  V30 4809 O 438.991 -1.57836 -3.69392 0
M  V30 4810 N 437.197 -1.69275 -2.36208 0
M  V30 4811 H 436.744 -2.06004 -1.54661 0
M  V30 4812 H 436.702 -1.06271 -2.95895 0
M  V30 4813 N 440.474 -0.00167713 -1.576 0
M  V30 4814 C 441.89 0.354422 -1.55615 0
M  V30 4815 C 442.09 1.74679 -1.00447 0
M  V30 4816 O 441.146 2.4428 -0.639022 0
M  V30 4817 C 442.459 0.22812 -2.99833 0
M  V30 4818 C 444.007 0.302934 -3.11531 0
M  V30 4819 C 444.482 0.205737 -4.57538 0
M  V30 4820 N 445.973 0.263584 -4.62449 0
M  V30 4821 C 446.708 0.211742 -5.73009 0
M  V30 4822 N 446.204 0.110399 -6.92712 0
M  V30 4823 N 447.997 0.263729 -5.61481 0
M  V30 4824 H 440.148 -0.912498 -1.918 0
M  V30 4825 H 442.411 -0.349928 -0.881053 0
M  V30 4826 H 442.117 -0.729934 -3.44042 0
M  V30 4827 H 441.991 1.00951 -3.6344 0
M  V30 4828 H 444.378 1.25143 -2.67251 0
M  V30 4829 H 444.459 -0.508357 -2.50698 0
M  V30 4830 H 444.103 -0.739225 -5.02492 0
M  V30 4831 H 444.033 1.03554 -5.16318 0
M  V30 4832 H 446.524 0.343173 -3.76339 0
M  V30 4833 H 446.837 0.0767828 -7.72762 0
M  V30 4834 H 445.182 0.0760025 -6.94958 0
M  V30 4835 H 448.373 0.34111 -4.66855 0
M  V30 4836 H 448.546 0.219862 -6.47627 0
M  V30 4837 N 441.952 1.55251 0.271103 0
M  V30 4838 C 442.9 1.89054 1.35504 0
M  V30 4839 C 443.894 0.767064 1.51038 0
M  V30 4840 O 445.1 0.951429 1.528 0
M  V30 4841 H 441.475 0.600072 0.45323 0
M  V30 4842 H 443.446 2.79598 1.04247 0
M  V30 4843 C 442.195 2.18068 2.70817 0
M  V30 4844 H 441.518 3.04005 2.59656 0
M  V30 4845 H 442.958 2.4564 3.45597 0
M  V30 4846 C 441.417 0.988901 3.2206 0
M  V30 4847 O 441.947 0.224501 4.01072 0
M  V30 4848 N 440.153 0.786085 2.79766 0
M  V30 4849 H 439.7 1.40937 2.15626 0
M  V30 4850 H 439.658 -0.00969349 3.14399 0
M  V30 4851 N 443.43 -0.535701 1.48216 0
M  V30 4852 C 444.841 -1.11769 1.49548 0
M  V30 4853 C 445.192 -1.94442 0.26207 0
M  V30 4854 O 444.317 -2.06987 -0.631287 0
M  V30 4855 C 444.912 -2.03367 2.70975 0
M  V30 4856 C 443.471 -2.56795 2.75196 0
M  V30 4857 C 442.618 -1.33631 2.42977 0
M  V30 4858 H 445.569 -0.321232 1.55415 0
M  V30 4859 H 445.59 -2.87569 2.49167 0
M  V30 4860 H 445.102 -1.43169 3.60727 0
M  V30 4861 H 443.203 -3.20731 1.89638 0
M  V30 4862 H 443.316 -2.9632 3.76472 0
M  V30 4863 H 441.68 -1.6502 1.94012 0
M  V30 4864 H 442.463 -0.75194 3.34964 0
M  V30 4865 N 444.908 -1.36708 -0.784132 0
M  V30 4866 C 446.185 -1.21776 -1.53069 0
M  V30 4867 C 446.565 0.193876 -2.10208 0
M  V30 4868 O 445.913 1.20012 -1.94446 0
M  V30 4869 C 446.123 -2.30395 -2.62143 0
M  V30 4870 C 447.471 -2.67325 -3.29882 0
M  V30 4871 O 448.495 -2.29478 -2.7243 0
M  V30 4872 O 447.354 -3.32485 -4.33724 0
M  V30 4873 H 444.448 -0.474459 -0.677361 0
M  V30 4874 H 446.994 -1.48454 -0.82216 0
M  V30 4875 H 445.766 -3.2498 -2.17953 0
M  V30 4876 H 445.389 -2.05112 -3.40609 0
M  V30 4877 N 446.386 1.0089 -1.21074 0
M  V30 4878 C 447.334 2.11707 -0.963476 0
M  V30 4879 C 448.328 1.69172 0.0879032 0
M  V30 4880 O 449.534 1.79889 -0.0631415 0
M  V30 4881 H 445.909 0.692026 -0.294287 0
M  V30 4882 H 447.88 2.29743 -1.90422 0
M  V30 4883 C 446.629 3.43473 -0.540509 0
M  V30 4884 H 445.952 3.76634 -1.34114 0
M  V30 4885 H 447.392 4.22044 -0.406777 0
M  V30 4886 C 445.851 3.2849 0.748079 0
M  V30 4887 O 446.381 3.58883 1.8046 0
M  V30 4888 N 444.587 2.81715 0.713081 0
M  V30 4889 H 444.134 2.5718 -0.146973 0
M  V30 4890 H 444.092 2.72071 1.57558 0
M  V30 4891 N 447.864 1.01787 1.20321 0
M  V30 4892 C 449.094 0.72614 1.93419 0
M  V30 4893 C 449.502 -0.717317 1.75075 0
M  V30 4894 O 448.845 -1.49836 1.06278 0
M  V30 4895 C 448.907 0.983621 3.45782 0
M  V30 4896 C 448.571 2.41645 3.87888 0
M  V30 4897 C 449.568 3.39732 3.93545 0
M  V30 4898 C 447.253 2.75752 4.19841 0
M  V30 4899 C 449.247 4.69988 4.30569 0
M  V30 4900 C 446.934 4.06221 4.56539 0
M  V30 4901 C 447.932 5.0315 4.61876 0
M  V30 4902 O 447.62 6.31284 4.97731 0
M  V30 4903 H 447.352 0.265824 0.621541 0
M  V30 4904 H 449.906 1.3623 1.53722 0
M  V30 4905 H 448.136 0.290301 3.85609 0
M  V30 4906 H 449.825 0.683279 4.00108 0
M  V30 4907 H 450.591 3.14718 3.69022 0
M  V30 4908 H 446.47 2.00993 4.14877 0
M  V30 4909 H 450.014 5.45642 4.3465 0
M  V30 4910 H 445.911 4.31013 4.80518 0
M  V30 4911 H 446.679 6.35591 5.15719 0
M  V30 4912 N 449.342 -1.36122 0.79427 0
M  V30 4913 C 450.589 -1.99111 0.368905 0
M  V30 4914 C 450.917 -1.63032 -1.0607 0
M  V30 4915 O 450.172 -0.879303 -1.74833 0
M  V30 4916 C 450.471 -3.5409 0.48527 0
M  V30 4917 C 450.137 -4.10003 1.87638 0
M  V30 4918 C 448.799 -4.24986 2.257 0
M  V30 4919 C 451.151 -4.40423 2.78706 0
M  V30 4920 C 448.479 -4.67701 3.54221 0
M  V30 4921 C 450.831 -4.84573 4.0666 0
M  V30 4922 C 449.495 -4.97761 4.44737 0
M  V30 4923 H 448.765 -0.7286 0.134992 0
M  V30 4924 H 451.412 -1.62534 1.01267 0
M  V30 4925 H 449.717 -3.91052 -0.241984 0
M  V30 4926 H 451.414 -4.00766 0.137109 0
M  V30 4927 H 448.004 -3.98784 1.57064 0
M  V30 4928 H 452.188 -4.28412 2.50553 0
M  V30 4929 H 447.444 -4.761 3.83587 0
M  V30 4930 H 451.618 -5.07074 4.77336 0
M  V30 4931 H 449.245 -5.30618 5.44379 0
M  V30 4932 N 450.82 -0.546701 -1.47814 0
M  V30 4933 C 452.045 -0.021268 -2.07389 0
M  V30 4934 C 452.47 1.25822 -1.39822 0
M  V30 4935 O 451.828 1.75111 -0.46968 0
M  V30 4936 C 451.876 0.168502 -3.60206 0
M  V30 4937 O 450.98 1.23347 -3.93522 0
M  V30 4938 H 450.321 -0.0466108 -0.662362 0
M  V30 4939 H 452.851 -0.759387 -1.89985 0
M  V30 4940 H 452.861 0.385982 -4.0617 0
M  V30 4941 H 451.536 -0.766075 -4.08784 0
M  V30 4942 H 450.113 0.997319 -3.59316 0
M  V30 4943 N 452.299 1.55045 -0.282633 0
M  V30 4944 C 453.576 1.9179 0.384166 0
M  V30 4945 C 453.956 1.20778 1.73136 0
M  V30 4946 O 453.304 0.33719 2.25998 0
M  V30 4947 C 453.514 3.45149 0.517014 0
M  V30 4948 C 454.862 4.17064 0.796427 0
M  V30 4949 O 455.886 3.51084 0.601535 0
M  V30 4950 O 454.745 5.33837 1.16962 0
M  V30 4951 H 451.839 0.799483 0.211558 0
M  V30 4952 H 454.385 1.66474 -0.32934 0
M  V30 4953 H 453.157 3.88922 -0.430772 0
M  V30 4954 H 452.78 3.76443 1.2797 0
M  V30 4955 N 453.777 0.010035 1.57597 0
M  V30 4956 C 455.023 -0.673697 1.91283 0
M  V30 4957 C 455.356 -1.72863 0.884979 0
M  V30 4958 O 454.631 -1.94268 -0.0949487 0
M  V30 4959 C 454.914 -1.30766 3.35518 0
M  V30 4960 C 454.767 -0.263578 4.49027 0
M  V30 4961 C 456.086 -2.23105 3.79358 0
M  V30 4962 H 453.205 -0.243439 0.695634 0
M  V30 4963 H 455.847 0.0633864 1.89894 0
M  V30 4964 H 453.997 -1.93588 3.36832 0
M  V30 4965 H 455.669 0.365738 4.59848 0
M  V30 4966 H 453.912 0.413077 4.31829 0
M  V30 4967 H 454.583 -0.746398 5.4693 0
M  V30 4968 H 457.059 -1.70289 3.79659 0
M  V30 4969 H 455.935 -2.64424 4.81011 0
M  V30 4970 H 456.196 -3.11433 3.13787 0
M  V30 4971 N 455.255 -1.55392 -0.262866 0
M  V30 4972 C 456.165 -1.92077 -1.34698 0
M  V30 4973 C 457.181 -0.819227 -1.53508 0
M  V30 4974 O 458.357 -1.11921 -1.67439 0
M  V30 4975 C 455.422 -2.19407 -2.68443 0
M  V30 4976 C 454.483 -3.42905 -2.58292 0
M  V30 4977 C 453.716 -3.68921 -3.85659 0
M  V30 4978 O 453.939 -2.97275 -4.8681 0
M  V30 4979 O 452.873 -4.62455 -3.85252 0
M  V30 4980 H 456.699 -2.84384 -1.06581 0
M  V30 4981 H 454.284 -1.42069 -0.462264 0
M  V30 4982 H 456.166 -2.38365 -3.47506 0
M  V30 4983 H 454.841 -1.30282 -2.96325 0
M  V30 4984 H 453.748 -3.29272 -1.7757 0
M  V30 4985 H 455.081 -4.32282 -2.35358 0
M  V30 4986 N 456.733 0.527833 -1.48498 0
M  V30 4987 C 457.665 1.6482 -1.5927 0
M  V30 4988 C 458.678 1.55659 -0.476869 0
M  V30 4989 O 459.867 1.62081 -0.747806 0
M  V30 4990 C 456.967 3.0348 -1.50842 0
M  V30 4991 C 456.14 3.381 -2.77502 0
M  V30 4992 C 455.199 4.5605 -2.62497 0
M  V30 4993 O 454.225 4.59165 -3.36387 0
M  V30 4994 N 455.427 5.54353 -1.72257 0
M  V30 4995 H 458.192 1.56015 -2.55889 0
M  V30 4996 H 455.753 0.715152 -1.45249 0
M  V30 4997 H 457.745 3.80264 -1.38496 0
M  V30 4998 H 456.315 3.06352 -0.621887 0
M  V30 4999 H 455.535 2.50473 -3.04396 0
M  V30 5000 H 456.823 3.58017 -3.61527 0
M  V30 5001 H 456.221 5.54617 -1.11431 0
M  V30 5002 H 454.778 6.30347 -1.65849 0
M  V30 5003 N 458.211 1.37122 0.776871 0
M  V30 5004 C 459.174 1.32301 1.8716 0
M  V30 5005 C 460.174 0.228099 1.59174 0
M  V30 5006 O 461.364 0.483642 1.67352 0
M  V30 5007 C 458.496 1.054 3.24197 0
M  V30 5008 H 459.689 2.29673 1.92848 0
M  V30 5009 H 457.242 1.22077 0.97606 0
M  V30 5010 H 457.977 0.0853872 3.24188 0
M  V30 5011 H 457.762 1.84648 3.45901 0
M  V30 5012 H 459.252 1.04664 4.04271 0
M  V30 5013 N 459.689 -1.00246 1.21608 0
M  V30 5014 C 460.652 -2.07233 0.979133 0
M  V30 5015 C 461.652 -1.6072 -0.0508219 0
M  V30 5016 O 462.842 -1.73196 0.186712 0
M  V30 5017 C 459.974 -3.37546 0.477016 0
M  V30 5018 H 461.167 -2.29687 1.92831 0
M  V30 5019 H 458.72 -1.17261 1.03342 0
M  V30 5020 H 459.455 -3.20773 -0.476966 0
M  V30 5021 H 459.24 -3.72638 1.21997 0
M  V30 5022 H 460.73 -4.16285 0.331181 0
M  V30 5023 N 461.167 -1.02423 -1.1978 0
M  V30 5024 C 462.414 -0.717988 -1.89344 0
M  V30 5025 C 462.742 0.753036 -1.79331 0
M  V30 5026 O 461.997 1.56355 -1.17692 0
M  V30 5027 C 462.296 -1.1088 -3.39765 0
M  V30 5028 C 461.962 -2.57731 -3.6998 0
M  V30 5029 C 460.624 -2.97854 -3.77937 0
M  V30 5030 C 462.976 -3.52763 -3.83677 0
M  V30 5031 C 460.304 -4.31931 -3.97054 0
M  V30 5032 C 462.656 -4.86538 -4.04306 0
M  V30 5033 C 461.32 -5.26356 -4.10494 0
M  V30 5034 H 460.59 -0.26273 -0.692859 0
M  V30 5035 H 463.237 -1.28623 -1.41875 0
M  V30 5036 H 461.542 -0.459094 -3.89101 0
M  V30 5037 H 463.239 -0.849432 -3.919 0
M  V30 5038 H 459.829 -2.25646 -3.64393 0
M  V30 5039 H 464.013 -3.2292 -3.76877 0
M  V30 5040 H 459.269 -4.62324 -4.00083 0
M  V30 5041 H 463.443 -5.60093 -4.13846 0
M  V30 5042 H 461.07 -6.3026 -4.2506 0
M  V30 5043 N 462.645 1.35699 -0.801477 0
M  V30 5044 C 463.87 2.03687 -0.390678 0
M  V30 5045 C 464.295 1.60015 0.988778 0
M  V30 5046 O 463.653 0.774357 1.63931 0
M  V30 5047 C 463.701 3.57439 -0.476404 0
M  V30 5048 O 462.805 4.09208 0.512106 0
M  V30 5049 H 462.146 0.64344 -0.163956 0
M  V30 5050 H 464.676 1.73403 -1.08594 0
M  V30 5051 H 464.686 4.06544 -0.344357 0
M  V30 5052 H 463.361 3.88576 -1.48262 0
M  V30 5053 H 461.938 3.7134 0.340721 0
M  V30 5054 N 464.123 0.554532 1.47522 0
M  V30 5055 C 465.534 0.120446 1.86311 0
M  V30 5056 C 465.885 -1.30904 1.46145 0
M  V30 5057 O 465.01 -1.98434 0.863294 0
M  V30 5058 C 465.605 0.211808 3.38137 0
M  V30 5059 C 464.164 -0.167224 3.76028 0
M  V30 5060 C 463.311 0.560576 2.71575 0
M  V30 5061 H 466.262 0.764408 1.39077 0
M  V30 5062 H 466.283 -0.570275 3.76202 0
M  V30 5063 H 465.795 1.25232 3.6734 0
M  V30 5064 H 463.896 -1.20894 3.52442 0
M  V30 5065 H 464.009 0.189473 4.78725 0
M  V30 5066 H 462.373 0.00396836 2.547 0
M  V30 5067 H 463.156 1.60219 3.0362 0
M  V30 5068 N 465.601 -1.54893 0.290851 0
M  V30 5069 C 466.564 -2.21824 -0.576784 0
M  V30 5070 C 467.564 -1.20104 -1.06919 0
M  V30 5071 O 468.754 -1.44906 -0.966843 0
M  V30 5072 C 465.886 -2.89662 -1.79747 0
M  V30 5073 H 467.079 -2.99899 0.00784051 0
M  V30 5074 H 464.632 -1.56245 0.0415934 0
M  V30 5075 H 465.367 -2.15639 -2.42219 0
M  V30 5076 H 465.152 -3.64219 -1.45214 0
M  V30 5077 H 466.642 -3.4075 -2.4141 0
M  V30 5078 N 467.08 -0.0183926 -1.57589 0
M  V30 5079 C 468.028 0.985111 -2.10709 0
M  V30 5080 C 469.022 1.34397 -1.0312 0
M  V30 5081 O 470.228 1.32746 -1.21567 0
M  V30 5082 H 466.603 0.335418 -0.673052 0
M  V30 5083 H 468.574 0.511689 -2.9398 0
M  V30 5084 C 467.323 2.26202 -2.64061 0
M  V30 5085 H 466.646 1.9946 -3.4649 0
M  V30 5086 H 468.086 2.94652 -3.04887 0
M  V30 5087 C 466.545 2.98444 -1.5631 0
M  V30 5088 O 467.075 3.90142 -0.956674 0
M  V30 5089 N 465.281 2.6059 -1.28612 0
M  V30 5090 H 464.828 1.86101 -1.78112 0
M  V30 5091 H 464.786 3.09238 -0.567406 0
M  V30 5092 N 468.558 1.5553 0.254621 0
M  V30 5093 C 469.807 1.76202 0.981612 0
M  V30 5094 C 470.12 0.580883 1.86776 0
M  V30 5095 O 471.326 0.670448 2.63092 0
M  V30 5096 C 469.782 3.11921 1.79537 0
M  V30 5097 C 469.39 4.37659 0.956991 0
M  V30 5098 C 471.134 3.41936 2.51555 0
M  V30 5099 C 469.041 5.64411 1.76619 0
M  V30 5100 H 467.971 0.656841 0.370237 0
M  V30 5101 H 470.622 1.81969 0.236556 0
M  V30 5102 H 469.004 3.00241 2.58208 0
M  V30 5103 H 470.178 4.60307 0.21315 0
M  V30 5104 H 468.493 4.14922 0.350497 0
M  V30 5105 H 471.09 4.33849 3.12536 0
M  V30 5106 H 471.433 2.62905 3.22779 0
M  V30 5107 H 471.966 3.54797 1.799 0
M  V30 5108 H 468.705 6.46241 1.09783 0
M  V30 5109 H 468.225 5.45877 2.48551 0
M  V30 5110 H 469.904 6.03386 2.33527 0
M  V30 5111 N 470.036 -0.519951 1.48776 0
M  V30 5112 C 471.282 -1.27711 1.57536 0
M  V30 5113 C 471.615 -1.92547 0.252866 0
M  V30 5114 O 470.89 -1.7979 -0.742021 0
M  V30 5115 C 471.173 -2.35875 2.72094 0
M  V30 5116 C 471.026 -1.75664 4.1408 0
M  V30 5117 C 472.345 -3.37575 2.82367 0
M  V30 5118 H 469.464 -0.462971 0.573434 0
M  V30 5119 H 472.106 -0.578194 1.80989 0
M  V30 5120 H 470.256 -2.95488 2.52228 0
M  V30 5121 H 471.928 -1.20025 4.45412 0
M  V30 5122 H 470.171 -1.06154 4.20611 0
M  V30 5123 H 470.842 -2.54029 4.90075 0
M  V30 5124 H 473.318 -2.87929 3.00393 0
M  V30 5125 H 472.194 -4.1064 3.64233 0
M  V30 5126 H 472.455 -3.98743 1.90936 0
M  V30 5127 N 471.514 -1.37532 -0.769588 0
M  V30 5128 C 472.925 -1.29382 -1.346 0
M  V30 5129 C 473.276 0.0576039 -1.96115 0
M  V30 5130 O 472.401 0.95947 -1.93967 0
M  V30 5131 C 472.996 -2.34298 -2.44724 0
M  V30 5132 C 471.555 -2.29776 -2.98128 0
M  V30 5133 C 470.702 -2.18013 -1.71364 0
M  V30 5134 H 473.653 -1.48123 -0.56968 0
M  V30 5135 H 473.674 -1.99089 -3.24259 0
M  V30 5136 H 473.186 -3.32645 -1.99922 0
M  V30 5137 H 471.287 -1.34959 -3.47299 0
M  V30 5138 H 471.4 -3.23276 -3.53595 0
M  V30 5139 H 469.764 -1.64595 -1.94372 0
M  V30 5140 H 470.547 -3.18278 -1.28662 0
M  V30 5141 N 472.992 0.995999 -1.22138 0
M  V30 5142 C 474.24 1.73167 -1.042 0
M  V30 5143 C 474.561 1.90329 0.42423 0
M  V30 5144 O 473.831 1.4607 1.30539 0
M  V30 5145 H 472.411 0.641593 -0.38258 0
M  V30 5146 H 475.073 1.19974 -1.53598 0
M  V30 5147 H 474.169 2.72734 -1.51731 0
M  V30 5148 N 474.47 1.03057 1.19235 0
M  V30 5149 C 475.719 0.72326 1.88287 0
M  V30 5150 C 476.032 -0.751333 1.80594 0
M  V30 5151 O 477.238 -1.17176 2.44912 0
M  V30 5152 C 475.694 1.24338 3.3774 0
M  V30 5153 C 475.302 2.74587 3.53986 0
M  V30 5154 C 477.046 1.01213 4.12257 0
M  V30 5155 C 474.953 3.20009 4.97341 0
M  V30 5156 H 473.883 0.266848 0.705201 0
M  V30 5157 H 476.534 1.24509 1.34795 0
M  V30 5158 H 474.916 0.649457 3.90638 0
M  V30 5159 H 476.09 3.39649 3.11408 0
M  V30 5160 H 474.405 2.9601 2.9286 0
M  V30 5161 H 477.002 1.32675 5.17978 0
M  V30 5162 H 477.345 -0.051001 4.16269 0
M  V30 5163 H 477.878 1.57014 3.65501 0
M  V30 5164 H 474.617 4.25659 4.98493 0
M  V30 5165 H 474.137 2.59676 5.40674 0
M  V30 5166 H 475.816 3.13447 5.66003 0
M  V30 5167 N 475.948 -1.35272 0.808662 0
M  V30 5168 C 477.173 -2.03477 0.401475 0
M  V30 5169 C 477.598 -1.60537 -0.980279 0
M  V30 5170 O 476.956 -0.78304 -1.63518 0
M  V30 5171 C 477.004 -3.57181 0.495354 0
M  V30 5172 O 476.108 -4.09474 -0.490397 0
M  V30 5173 H 475.449 -0.642561 0.167366 0
M  V30 5174 H 477.979 -1.72824 1.09512 0
M  V30 5175 H 477.989 -4.06356 0.365912 0
M  V30 5176 H 476.664 -3.87784 1.5032 0
M  V30 5177 H 475.241 -3.71516 -0.321023 0
M  V30 5178 N 477.426 -0.562348 -1.47226 0
M  V30 5179 C 478.673 -0.0402165 -2.0246 0
M  V30 5180 C 479.001 1.31169 -1.43614 0
M  V30 5181 O 478.256 1.86805 -0.5833 0
M  V30 5182 C 478.555 0.0969817 -3.57268 0
M  V30 5183 C 478.221 -1.1847 -4.35058 0
M  V30 5184 C 476.883 -1.53588 -4.56031 0
M  V30 5185 C 479.235 -2.03378 -4.79882 0
M  V30 5186 C 476.563 -2.73452 -5.19077 0
M  V30 5187 C 478.915 -3.2245 -5.44251 0
M  V30 5188 C 477.579 -3.57876 -5.63455 0
M  V30 5189 H 476.849 -0.0147163 -0.740854 0
M  V30 5190 H 479.496 -0.734895 -1.76838 0
M  V30 5191 H 477.801 0.87466 -3.81912 0
M  V30 5192 H 479.498 0.516408 -3.97661 0
M  V30 5193 H 476.088 -0.90126 -4.19017 0
M  V30 5194 H 480.272 -1.77553 -4.63453 0
M  V30 5195 H 475.528 -3.01062 -5.32139 0
M  V30 5196 H 479.702 -3.88526 -5.77945 0
M  V30 5197 H 477.329 -4.50849 -6.12078 0
M  V30 5198 N 478.904 1.54736 -0.299062 0
M  V30 5199 C 480.129 2.04975 0.316254 0
M  V30 5200 C 480.554 1.17501 1.46885 0
M  V30 5201 O 479.912 0.178678 1.80417 0
M  V30 5202 C 479.96 3.52672 0.751997 0
M  V30 5203 O 479.064 3.68226 1.85697 0
M  V30 5204 H 478.405 0.661126 0.0617175 0
M  V30 5205 H 480.935 1.99805 -0.440341 0
M  V30 5206 H 480.945 3.94488 1.04133 0
M  V30 5207 H 479.62 4.158 -0.0911482 0
M  V30 5208 H 478.197 3.38316 1.56834 0
M  V30 5209 N 480.382 0.0267497 1.57577 0
M  V30 5210 C 481.793 -0.512413 1.79531 0
M  V30 5211 C 482.144 -1.72391 0.936791 0
M  V30 5212 O 481.269 -2.15903 0.146543 0
M  V30 5213 C 481.864 -0.936378 3.25603 0
M  V30 5214 C 480.423 -1.42067 3.4856 0
M  V30 5215 C 479.57 -0.384278 2.74624 0
M  V30 5216 H 482.521 0.252797 1.56674 0
M  V30 5217 H 482.542 -1.80088 3.35184 0
M  V30 5218 H 482.054 -0.0544332 3.88062 0
M  V30 5219 H 480.155 -2.32262 2.9135 0
M  V30 5220 H 480.268 -1.42968 4.57271 0
M  V30 5221 H 478.632 -0.851855 2.40032 0
M  V30 5222 H 479.415 0.489159 3.39797 0
M  V30 5223 N 481.861 -1.55662 -0.24637 0
M  V30 5224 C 483.138 -1.68272 -0.997198 0
M  V30 5225 C 483.518 -0.566785 -2.03349 0
M  V30 5226 O 482.866 0.429688 -2.24424 0
M  V30 5227 C 483.076 -3.08594 -1.63006 0
M  V30 5228 C 484.424 -3.6721 -2.13171 0
M  V30 5229 O 485.448 -3.11397 -1.72946 0
M  V30 5230 O 484.307 -4.65054 -2.87031 0
M  V30 5231 H 481.401 -0.684429 -0.464205 0
M  V30 5232 H 483.947 -1.67993 -0.240114 0
M  V30 5233 H 482.719 -3.81264 -0.880527 0
M  V30 5234 H 482.342 -3.12886 -2.45333 0
M  V30 5235 N 483.339 0.512053 -1.4905 0
M  V30 5236 C 484.286 1.6148 -1.64902 0
M  V30 5237 C 485.256 1.58687 -0.490673 0
M  V30 5238 O 486.441 1.76842 -0.71636 0
M  V30 5239 C 483.581 2.99676 -1.71139 0
M  V30 5240 C 482.694 3.12568 -2.98203 0
M  V30 5241 C 481.829 4.4143 -2.95487 0
M  V30 5242 C 480.868 4.47916 -4.17179 0
M  V30 5243 N 480.005 5.68191 -4.12437 0
M  V30 5244 H 484.845 1.47271 -2.59066 0
M  V30 5245 H 482.382 0.716713 -1.28459 0
M  V30 5246 H 484.34 3.79761 -1.72736 0
M  V30 5247 H 482.97 3.12614 -0.804508 0
M  V30 5248 H 482.022 2.25618 -3.06269 0
M  V30 5249 H 483.334 3.1322 -3.88194 0
M  V30 5250 H 482.488 5.29825 -2.95585 0
M  V30 5251 H 481.227 4.43326 -2.03256 0
M  V30 5252 H 480.232 3.57925 -4.17337 0
M  V30 5253 H 481.457 4.47744 -5.1059 0
M  V30 5254 H 479.403 5.7095 -3.23036 0
M  V30 5255 H 479.32 5.70413 -4.96151 0
M  V30 5256 H 480.588 6.58823 -4.16621 0
M  V30 5257 N 484.817 1.37938 0.762283 0
M  V30 5258 C 485.75 1.2884 1.88349 0
M  V30 5259 C 486.728 0.167084 1.61739 0
M  V30 5260 O 487.912 0.34292 1.85355 0
M  V30 5261 C 485.039 0.994257 3.23778 0
M  V30 5262 C 484.085 2.13376 3.69287 0
M  V30 5263 S 484.918 3.75439 3.81845 0
M  V30 5264 C 486.074 3.48195 5.20107 0
M  V30 5265 H 486.307 2.23736 1.95779 0
M  V30 5266 H 483.84 1.23672 0.924368 0
M  V30 5267 H 485.798 0.83138 4.01993 0
M  V30 5268 H 484.459 0.0626251 3.14038 0
M  V30 5269 H 483.652 1.88319 4.67495 0
M  V30 5270 H 483.254 2.25726 2.98201 0
M  V30 5271 H 485.546 3.0377 6.05583 0
M  V30 5272 H 486.489 4.45765 5.50181 0
M  V30 5273 H 486.897 2.82905 4.88493 0
M  V30 5274 N 486.295 -0.989507 1.22664 0
M  V30 5275 C 487.225 -2.09847 1.02404 0
M  V30 5276 C 488.206 -1.70007 -0.0561303 0
M  V30 5277 O 489.391 -1.93906 0.106748 0
M  V30 5278 C 486.521 -3.41996 0.604663 0
M  V30 5279 C 485.475 -3.95699 1.63115 0
M  V30 5280 C 484.801 -5.23936 1.0675 0
M  V30 5281 C 486.101 -4.25999 3.02196 0
M  V30 5282 H 487.795 -2.27054 1.95158 0
M  V30 5283 H 485.341 -1.09111 0.939727 0
M  V30 5284 H 487.294 -4.1899 0.45002 0
M  V30 5285 H 486.018 -3.24626 -0.35855 0
M  V30 5286 H 484.677 -3.2084 1.77362 0
M  V30 5287 H 484.325 -5.02909 0.0955422 0
M  V30 5288 H 484.025 -5.60833 1.75328 0
M  V30 5289 H 485.549 -6.0356 0.924516 0
M  V30 5290 H 486.963 -4.93777 2.91303 0
M  V30 5291 H 485.36 -4.74076 3.67929 0
M  V30 5292 H 486.43 -3.33636 3.51873 0
M  V30 5293 N 487.773 -1.03688 -1.18687 0
M  V30 5294 C 488.705 -0.582696 -2.21669 0
M  V30 5295 C 489.718 0.345656 -1.59088 0
M  V30 5296 O 490.907 0.140776 -1.77944 0
M  V30 5297 C 488.007 0.169204 -3.38477 0
M  V30 5298 C 487.18 -0.766079 -4.30639 0
M  V30 5299 C 486.239 -0.0581541 -5.26168 0
M  V30 5300 O 485.265 -0.687346 -5.65035 0
M  V30 5301 N 486.467 1.20981 -5.67753 0
M  V30 5302 H 489.232 -1.46843 -2.61261 0
M  V30 5303 H 486.793 -0.916896 -1.33434 0
M  V30 5304 H 488.785 0.652543 -3.99405 0
M  V30 5305 H 487.355 0.956435 -2.97609 0
M  V30 5306 H 486.575 -1.42935 -3.67373 0
M  V30 5307 H 487.863 -1.40146 -4.89118 0
M  V30 5308 H 487.261 1.74159 -5.38224 0
M  V30 5309 H 485.818 1.6375 -6.30896 0
M  V30 5310 N 489.251 1.34841 -0.815825 0
M  V30 5311 C 490.499 1.98107 -0.399744 0
M  V30 5312 C 490.82 1.65019 1.03894 0
M  V30 5313 O 490.09 0.937311 1.72021 0
M  V30 5314 H 488.67 0.732827 -0.144823 0
M  V30 5315 H 491.332 1.64599 -1.0437 0
M  V30 5316 H 490.428 3.07856 -0.512965 0
M  V30 5317 N 490.729 0.570148 1.46925 0
M  V30 5318 C 492.145 0.23087 1.57921 0
M  V30 5319 C 492.345 -1.26676 1.56702 0
M  V30 5320 O 491.401 -2.04774 1.47729 0
M  V30 5321 C 492.714 0.868973 2.8787 0
M  V30 5322 C 494.262 0.841397 3.01479 0
M  V30 5323 C 494.737 1.45881 4.34146 0
M  V30 5324 N 496.228 1.42258 4.40814 0
M  V30 5325 C 496.963 1.8698 5.42057 0
M  V30 5326 N 496.459 2.39618 6.50042 0
M  V30 5327 N 498.252 1.77972 5.33181 0
M  V30 5328 H 490.403 1.54301 1.45962 0
M  V30 5329 H 492.666 0.644224 0.69547 0
M  V30 5330 H 492.372 1.922 2.94537 0
M  V30 5331 H 492.246 0.369682 3.75384 0
M  V30 5332 H 494.633 -0.202973 2.94401 0
M  V30 5333 H 494.714 1.37858 2.15474 0
M  V30 5334 H 494.358 2.50231 4.4198 0
M  V30 5335 H 494.288 0.896958 5.18905 0
M  V30 5336 H 496.779 1.03768 3.63374 0
M  V30 5337 H 497.092 2.71633 7.23488 0
M  V30 5338 H 495.437 2.43636 6.50897 0
M  V30 5339 H 498.628 1.36617 4.4772 0
M  V30 5340 H 498.801 2.13143 6.11943 0
M  V30 5341 N 492.207 -1.54576 0.307264 0
M  V30 5342 C 493.137 -2.26708 -0.55907 0
M  V30 5343 C 494.118 -1.26893 -1.1328 0
M  V30 5344 O 495.303 -1.55677 -1.16097 0
M  V30 5345 C 492.433 -3.01259 -1.72801 0
M  V30 5346 C 491.387 -4.08275 -1.28435 0
M  V30 5347 C 490.713 -4.70575 -2.53895 0
M  V30 5348 C 492.013 -5.2068 -0.411038 0
M  V30 5349 H 493.707 -2.9937 0.042576 0
M  V30 5350 H 491.253 -1.43983 0.0219173 0
M  V30 5351 H 493.206 -3.50444 -2.34023 0
M  V30 5352 H 491.93 -2.26187 -2.356 0
M  V30 5353 H 490.589 -3.59949 -0.695161 0
M  V30 5354 H 490.237 -3.92136 -3.15021 0
M  V30 5355 H 489.937 -5.42854 -2.24908 0
M  V30 5356 H 491.461 -5.22527 -3.15908 0
M  V30 5357 H 492.875 -5.65721 -0.929097 0
M  V30 5358 H 491.272 -5.99716 -0.214664 0
M  V30 5359 H 492.342 -4.81629 0.562287 0
M  V30 5360 N 493.685 -0.035106 -1.57561 0
M  V30 5361 C 494.932 0.642229 -1.92046 0
M  V30 5362 C 495.26 1.7179 -0.91206 0
M  V30 5363 O 494.515 1.95544 0.0781153 0
M  V30 5364 C 494.814 1.29149 -3.3325 0
M  V30 5365 C 494.48 0.345604 -4.49574 0
M  V30 5366 C 493.142 0.0852775 -4.81124 0
M  V30 5367 C 495.494 -0.303569 -5.20315 0
M  V30 5368 C 492.822 -0.831927 -5.80772 0
M  V30 5369 C 495.174 -1.20886 -6.20942 0
M  V30 5370 C 493.838 -1.47802 -6.50931 0
M  V30 5371 H 493.108 0.235008 -0.702746 0
M  V30 5372 H 495.755 -0.0981529 -1.91248 0
M  V30 5373 H 494.06 2.10676 -3.30337 0
M  V30 5374 H 495.757 1.82223 -3.57205 0
M  V30 5375 H 492.347 0.558683 -4.24943 0
M  V30 5376 H 496.531 -0.115515 -4.96166 0
M  V30 5377 H 491.787 -1.0481 -6.02349 0
M  V30 5378 H 495.961 -1.71804 -6.74875 0
M  V30 5379 H 493.588 -2.19039 -7.2796 0
M  V30 5380 N 495.163 1.55791 0.238111 0
M  V30 5381 C 496.388 1.8244 0.986432 0
M  V30 5382 C 496.813 0.613314 1.7782 0
M  V30 5383 O 496.171 -0.437767 1.75935 0
M  V30 5384 C 496.219 3.06917 1.893 0
M  V30 5385 O 495.323 2.84449 2.98601 0
M  V30 5386 H 494.664 0.601975 0.280218 0
M  V30 5387 H 497.194 2.02987 0.256437 0
M  V30 5388 H 497.204 3.36583 2.30598 0
M  V30 5389 H 495.879 3.947 1.31091 0
M  V30 5390 H 494.456 2.65972 2.61368 0
M  V30 5391 N 496.642 -0.504142 1.49319 0
M  V30 5392 C 497.872 -1.28071 1.62116 0
M  V30 5393 C 498.28 -1.86955 0.290566 0
M  V30 5394 O 497.623 -1.68415 -0.733616 0
M  V30 5395 C 497.685 -2.4521 2.62893 0
M  V30 5396 C 497.349 -2.07218 4.0732 0
M  V30 5397 C 498.346 -1.61375 4.94221 0
M  V30 5398 C 496.031 -2.16949 4.53033 0
M  V30 5399 C 498.025 -1.25763 6.2487 0
M  V30 5400 C 495.712 -1.80949 5.83696 0
M  V30 5401 C 496.71 -1.3543 6.69438 0
M  V30 5402 O 496.398 -0.99915 7.97667 0
M  V30 5403 H 496.13 -0.394763 0.54876 0
M  V30 5404 H 498.684 -0.612118 1.96067 0
M  V30 5405 H 496.914 -3.15134 2.24115 0
M  V30 5406 H 498.603 -3.0724 2.65252 0
M  V30 5407 H 499.369 -1.53306 4.60133 0
M  V30 5408 H 495.248 -2.5133 3.86463 0
M  V30 5409 H 498.792 -0.901631 6.91749 0
M  V30 5410 H 494.689 -1.88667 6.17313 0
M  V30 5411 H 495.457 -1.13089 8.1065 0
M  V30 5412 N 498.12 -1.38341 -0.754957 0
M  V30 5413 C 499.368 -1.34208 -1.51105 0
M  V30 5414 C 499.689 0.0677634 -1.94882 0
M  V30 5415 O 498.959 1.01517 -1.67544 0
M  V30 5416 H 497.539 -0.493819 -0.560493 0
M  V30 5417 H 500.201 -1.73005 -0.897507 0
M  V30 5418 H 499.297 -1.99203 -2.4026 0
M  V30 5419 N 499.598 0.982988 -1.23187 0
M  V30 5420 C 500.875 1.69814 -0.970707 0
M  V30 5421 C 501.255 2.04811 0.511424 0
M  V30 5422 O 500.603 1.73924 1.48198 0
M  V30 5423 C 500.813 2.94143 -1.87831 0
M  V30 5424 C 502.161 3.66712 -2.14026 0
M  V30 5425 O 503.185 3.04171 -1.8536 0
M  V30 5426 O 502.044 4.79258 -2.62629 0
M  V30 5427 H 499.138 0.741659 -0.365884 0
M  V30 5428 H 501.684 1.03844 -1.34218 0
M  V30 5429 H 500.456 2.64858 -2.88038 0
M  V30 5430 H 500.079 3.6785 -1.50905 0
M  V30 5431 N 501.076 1.04316 1.18135 0
M  V30 5432 C 502.039 0.640794 2.2006 0
M  V30 5433 C 503.039 -0.303124 1.57917 0
M  V30 5434 O 504.229 -0.0881855 1.73977 0
M  V30 5435 C 501.361 -0.060148 3.40847 0
M  V30 5436 H 502.554 1.54281 2.57172 0
M  V30 5437 H 500.107 0.836004 1.32063 0
M  V30 5438 H 500.842 -0.975845 3.0927 0
M  V30 5439 H 500.627 0.618319 3.87194 0
M  V30 5440 H 502.117 -0.328082 4.16309 0
M  V30 5441 N 502.554 -1.34406 0.822964 0
M  V30 5442 C 503.504 -2.26963 0.217208 0
M  V30 5443 C 504.488 -1.48536 -0.618545 0
M  V30 5444 O 505.68 -1.7056 -0.473118 0
M  V30 5445 C 502.809 -3.37655 -0.619973 0
M  V30 5446 C 501.895 -4.23495 0.226411 0
M  V30 5447 N 502.286 -4.88876 1.29744 0
M  V30 5448 C 500.584 -4.45999 0.0107554 0
M  V30 5449 C 501.285 -5.52642 1.81553 0
M  V30 5450 N 500.261 -5.31949 1.11942 0
M  V30 5451 H 504.063 -2.75017 1.03647 0
M  V30 5452 H 501.577 -1.48126 0.665777 0
M  V30 5453 H 503.574 -4.02932 -1.07011 0
M  V30 5454 H 502.234 -2.91151 -1.43739 0
M  V30 5455 H 503.245 -4.89886 1.68024 0
M  V30 5456 H 499.922 -4.10253 -0.774495 0
M  V30 5457 H 501.312 -6.14755 2.71156 0
M  V30 5458 N 504.032 -0.577932 -1.46621 0
M  V30 5459 C 505.448 -0.239242 -1.57797 0
M  V30 5460 C 505.648 1.25843 -1.57371 0
M  V30 5461 O 504.704 2.03988 -1.48813 0
M  V30 5462 C 506.017 -0.884227 -2.87405 0
M  V30 5463 C 507.565 -0.857373 -3.01028 0
M  V30 5464 C 508.04 -1.48181 -4.33366 0
M  V30 5465 N 509.531 -1.44593 -4.40053 0
M  V30 5466 C 510.266 -1.89852 -5.41058 0
M  V30 5467 N 509.762 -2.43062 -6.48762 0
M  V30 5468 N 511.555 -1.80797 -5.3223 0
M  V30 5469 H 503.706 -1.55073 -1.45142 0
M  V30 5470 H 505.969 -0.647903 -0.692044 0
M  V30 5471 H 505.675 -1.93759 -2.93514 0
M  V30 5472 H 505.549 -0.389585 -3.75183 0
M  V30 5473 H 507.936 0.187357 -2.94505 0
M  V30 5474 H 508.017 -1.38999 -2.14739 0
M  V30 5475 H 507.661 -2.52572 -4.40647 0
M  V30 5476 H 507.591 -0.924464 -5.18422 0
M  V30 5477 H 510.082 -1.05694 -3.62819 0
M  V30 5478 H 510.395 -2.75466 -7.22038 0
M  V30 5479 H 508.74 -2.47085 -6.49595 0
M  V30 5480 H 511.931 -1.38989 -4.46989 0
M  V30 5481 H 512.104 -2.16385 -6.10804 0
M  V30 5482 N 505.51 1.54411 -0.315457 0
M  V30 5483 C 506.74 2.04536 0.291315 0
M  V30 5484 C 507.148 1.19162 1.4696 0
M  V30 5485 O 506.491 0.213199 1.82459 0
M  V30 5486 C 506.553 3.5056 0.796725 0
M  V30 5487 C 506.217 4.5627 -0.258178 0
M  V30 5488 C 507.214 5.08312 -1.09153 0
M  V30 5489 C 504.899 5.00672 -0.404036 0
M  V30 5490 C 506.893 6.03312 -2.05655 0
M  V30 5491 C 504.58 5.95488 -1.37248 0
M  V30 5492 C 505.578 6.46693 -2.19721 0
M  V30 5493 O 505.266 7.39648 -3.14921 0
M  V30 5494 H 504.998 0.672856 0.0651165 0
M  V30 5495 H 507.552 2.00244 -0.457308 0
M  V30 5496 H 505.782 3.52223 1.59612 0
M  V30 5497 H 507.471 3.83804 1.32096 0
M  V30 5498 H 508.237 4.74793 -0.98979 0
M  V30 5499 H 504.116 4.60436 0.22799 0
M  V30 5500 H 507.66 6.43203 -2.70067 0
M  V30 5501 H 503.557 6.28424 -1.47489 0
M  V30 5502 H 504.325 7.57496 -3.10067 0
M  V30 5503 N 506.988 0.0434614 1.5754 0
M  V30 5504 C 508.404 -0.313039 1.565 0
M  V30 5505 C 508.604 -1.71954 1.05043 0
M  V30 5506 O 507.66 -2.425 0.703564 0
M  V30 5507 C 508.973 -0.148544 3.00333 0
M  V30 5508 C 510.521 -0.220231 3.12224 0
M  V30 5509 C 510.996 -0.0843565 4.57922 0
M  V30 5510 N 512.487 -0.140881 4.62986 0
M  V30 5511 C 513.222 -0.0597443 5.73369 0
M  V30 5512 N 512.718 0.0733004 6.92761 0
M  V30 5513 N 514.511 -0.11477 5.61983 0
M  V30 5514 H 506.662 0.96303 1.89313 0
M  V30 5515 H 508.925 0.373164 0.871466 0
M  V30 5516 H 508.631 0.820894 3.41986 0
M  V30 5517 H 508.505 -0.912798 3.65989 0
M  V30 5518 H 510.892 -1.18014 2.70475 0
M  V30 5519 H 510.973 0.574646 2.49262 0
M  V30 5520 H 510.617 0.872192 5.00355 0
M  V30 5521 H 510.547 -0.898281 5.18882 0
M  V30 5522 H 513.038 -0.243273 3.77116 0
M  V30 5523 H 513.351 0.128128 7.72694 0
M  V30 5524 H 511.696 0.10828 6.94916 0
M  V30 5525 H 514.887 -0.217212 4.67596 0
M  V30 5526 H 515.06 -0.0480779 6.47982 0
M  V30 5527 N 508.466 -1.55915 -0.229846 0
M  V30 5528 C 509.396 -1.94754 -1.28815 0
M  V30 5529 C 510.377 -0.814657 -1.49323 0
M  V30 5530 O 511.562 -1.07631 -1.61645 0
M  V30 5531 C 508.692 -2.25705 -2.63959 0
M  V30 5532 C 507.646 -3.41406 -2.5812 0
M  V30 5533 C 506.972 -3.57941 -3.97218 0
M  V30 5534 C 508.272 -4.76616 -2.13623 0
M  V30 5535 H 509.966 -2.83404 -0.965547 0
M  V30 5536 H 507.512 -1.36353 -0.463028 0
M  V30 5537 H 509.465 -2.51467 -3.38146 0
M  V30 5538 H 508.189 -1.339 -2.9789 0
M  V30 5539 H 506.848 -3.1568 -1.86391 0
M  V30 5540 H 506.496 -2.63526 -4.28443 0
M  V30 5541 H 506.196 -4.35757 -3.94195 0
M  V30 5542 H 507.72 -3.86042 -4.73079 0
M  V30 5543 H 509.134 -5.01637 -2.77549 0
M  V30 5544 H 507.531 -5.57655 -2.21677 0
M  V30 5545 H 508.601 -4.7253 -1.08829 0
M  V30 5546 N 509.944 0.496216 -1.49584 0
M  V30 5547 C 511.192 1.24756 -1.58998 0
M  V30 5548 C 511.513 1.92968 -0.280775 0
M  V30 5549 O 510.783 1.82959 0.700198 0
M  V30 5550 H 509.363 0.463471 -0.585836 0
M  V30 5551 H 512.025 0.574678 -1.86235 0
M  V30 5552 H 511.121 2.00895 -2.38847 0
M  V30 5553 N 511.423 1.38739 0.74761 0
M  V30 5554 C 512.669 1.35475 1.50912 0
M  V30 5555 C 513.002 -0.0533093 1.94127 0
M  V30 5556 O 512.277 -1.01572 1.65871 0
M  V30 5557 C 512.56 2.31582 2.75757 0
M  V30 5558 C 512.413 3.81274 2.38642 0
M  V30 5559 C 513.732 2.25722 3.77806 0
M  V30 5560 H 510.851 0.493427 0.547447 0
M  V30 5561 H 513.493 1.69634 0.855823 0
M  V30 5562 H 511.643 2.02582 3.31501 0
M  V30 5563 H 513.315 4.20972 1.88626 0
M  V30 5564 H 511.558 3.98664 1.71025 0
M  V30 5565 H 512.229 4.4399 3.27989 0
M  V30 5566 H 514.705 2.51336 3.31616 0
M  V30 5567 H 513.581 2.95069 4.62845 0
M  V30 5568 H 513.842 1.25803 4.23823 0
M  V30 5569 N 512.901 -0.976442 1.23707 0
M  V30 5570 C 513.849 -2.09078 1.01927 0
M  V30 5571 C 514.843 -1.69345 -0.0430193 0
M  V30 5572 O 516.049 -1.79659 0.110814 0
M  V30 5573 H 512.424 -0.68398 0.312531 0
M  V30 5574 H 514.395 -2.24614 1.96447 0
M  V30 5575 C 513.144 -3.41919 0.631385 0
M  V30 5576 H 512.467 -3.72946 1.44053 0
M  V30 5577 H 513.907 -4.20817 0.518532 0
M  V30 5578 C 512.366 -3.30357 -0.660723 0
M  V30 5579 O 512.896 -3.63542 -1.70881 0
M  V30 5580 N 511.102 -2.83507 -0.638139 0
M  V30 5581 H 510.649 -2.567 0.215108 0
M  V30 5582 H 510.607 -2.76153 -1.50289 0
M  V30 5583 N 514.379 -1.04941 -1.1758 0
M  V30 5584 C 515.329 -0.618378 -2.19454 0
M  V30 5585 C 516.313 0.343813 -1.57184 0
M  V30 5586 O 517.505 0.16145 -1.76262 0
M  V30 5587 C 514.634 0.00803847 -3.43299 0
M  V30 5588 C 513.72 -0.977827 -4.12673 0
M  V30 5589 N 514.111 -2.14826 -4.57912 0
M  V30 5590 C 512.409 -0.805748 -4.38661 0
M  V30 5591 C 513.11 -2.77174 -5.11419 0
M  V30 5592 N 512.086 -2.04989 -5.03468 0
M  V30 5593 H 515.888 -1.51018 -2.52132 0
M  V30 5594 H 513.402 -0.919201 -1.33882 0
M  V30 5595 H 515.399 0.334584 -4.15555 0
M  V30 5596 H 514.059 0.895272 -3.12114 0
M  V30 5597 H 515.07 -2.52673 -4.52081 0
M  V30 5598 H 511.747 0.0306506 -4.17489 0
M  V30 5599 H 513.137 -3.76416 -5.56562 0
M  V30 5600 N 515.857 1.33968 -0.830081 0
M  V30 5601 C 516.807 2.26845 -0.229242 0
M  V30 5602 C 517.791 1.48862 0.610659 0
M  V30 5603 O 518.983 1.70808 0.464067 0
M  V30 5604 C 516.112 3.3798 0.602057 0
M  V30 5605 C 515.198 4.23369 -0.248866 0
M  V30 5606 N 515.589 4.88182 -1.32334 0
M  V30 5607 C 513.887 4.45987 -0.0344077 0
M  V30 5608 C 514.588 5.51671 -1.84482 0
M  V30 5609 N 513.564 5.31348 -1.14762 0
M  V30 5610 H 517.366 2.74464 -1.05104 0
M  V30 5611 H 514.88 1.4777 -0.673623 0
M  V30 5612 H 516.877 4.03494 1.04873 0
M  V30 5613 H 515.537 2.9191 1.42193 0
M  V30 5614 H 516.548 4.88988 -1.70619 0
M  V30 5615 H 513.225 4.10658 0.752727 0
M  V30 5616 H 514.615 6.13308 -2.74413 0
M  V30 5617 N 517.335 0.585699 1.46312 0
M  V30 5618 C 518.267 -0.183687 2.28463 0
M  V30 5619 C 519.28 -0.85264 1.38686 0
M  V30 5620 O 520.469 -0.721701 1.6326 0
M  V30 5621 C 517.569 -1.27977 3.13808 0
M  V30 5622 C 516.742 -0.702164 4.31727 0
M  V30 5623 C 515.801 -1.68633 4.98447 0
M  V30 5624 O 514.827 -1.22121 5.55945 0
M  V30 5625 N 516.029 -3.02047 4.95729 0
M  V30 5626 H 518.794 0.521127 2.95134 0
M  V30 5627 H 516.355 0.423673 1.56258 0
M  V30 5628 H 518.347 -1.9375 3.55307 0
M  V30 5629 H 516.917 -1.8874 2.4919 0
M  V30 5630 H 516.137 0.1331 3.93975 0
M  V30 5631 H 517.425 -0.296101 5.07938 0
M  V30 5632 H 516.823 -3.42457 4.50266 0
M  V30 5633 H 515.38 -3.63301 5.41161 0
M  V30 5634 N 518.813 -1.54241 0.323641 0
M  V30 5635 C 520.062 -1.9975 -0.279806 0
M  V30 5636 C 520.375 -1.2156 -1.5324 0
M  V30 5637 O 521.581 -1.57447 -2.21185 0
M  V30 5638 C 520.037 -3.55686 -0.549115 0
M  V30 5639 C 519.645 -4.4271 0.686432 0
M  V30 5640 C 521.389 -4.09663 -1.11251 0
M  V30 5641 C 519.296 -5.90119 0.389022 0
M  V30 5642 H 518.226 -0.746177 -0.10833 0
M  V30 5643 H 520.877 -1.78248 0.435877 0
M  V30 5644 H 519.259 -3.73176 -1.32499 0
M  V30 5645 H 520.433 -4.36996 1.46188 0
M  V30 5646 H 518.748 -3.99623 1.17005 0
M  V30 5647 H 521.345 -5.17386 -1.34965 0
M  V30 5648 H 521.688 -3.61651 -2.06191 0
M  V30 5649 H 522.221 -3.95806 -0.39782 0
M  V30 5650 H 518.96 -6.42326 1.30759 0
M  V30 5651 H 518.48 -5.98785 -0.348722 0
M  V30 5652 H 520.159 -6.47 -0.0011164 0
M  V30 5653 N 520.291 -0.0518155 -1.57515 0
M  V30 5654 C 521.702 0.483787 -1.80323 0
M  V30 5655 C 522.053 1.70879 -0.964099 0
M  V30 5656 O 521.178 2.15643 -0.180872 0
M  V30 5657 C 521.773 0.884459 -3.27052 0
M  V30 5658 C 520.332 1.36504 -3.50776 0
M  V30 5659 C 519.479 0.340539 -2.75201 0
M  V30 5660 H 522.43 -0.277691 -1.56252 0
M  V30 5661 H 522.451 1.74733 -3.38007 0
M  V30 5662 H 521.963 -0.00731093 -3.88099 0
M  V30 5663 H 520.064 2.27598 -2.95009 0
M  V30 5664 H 520.177 1.35675 -4.59488 0
M  V30 5665 H 518.541 0.81356 -2.41357 0
M  V30 5666 H 519.324 -0.543156 -3.38976 0
M  V30 5667 N 521.769 1.56035 0.221574 0
M  V30 5668 C 523.015 1.79312 0.947372 0
M  V30 5669 C 523.348 0.621453 1.83988 0
M  V30 5670 O 522.623 -0.379287 1.90766 0
M  V30 5671 C 522.906 3.1267 1.78633 0
M  V30 5672 C 522.759 4.40284 0.920312 0
M  V30 5673 C 524.078 3.4247 2.7641 0
M  V30 5674 H 521.197 0.652328 0.342982 0
M  V30 5675 H 523.839 1.88765 0.216244 0
M  V30 5676 H 521.989 3.04741 2.40967 0
M  V30 5677 H 523.661 4.60232 0.313718 0
M  V30 5678 H 521.904 4.33212 0.225734 0
M  V30 5679 H 522.575 5.30033 1.54171 0
M  V30 5680 H 525.051 3.50526 2.24211 0
M  V30 5681 H 523.927 4.3695 3.32213 0
M  V30 5682 H 524.188 2.64635 3.54148 0
M  V30 5683 N 523.247 -0.488276 1.49845 0
M  V30 5684 C 524.195 -1.60917 1.67954 0
M  V30 5685 C 525.189 -1.6038 0.54539 0
M  V30 5686 O 526.395 -1.64736 0.7254 0
M  V30 5687 H 522.77 -0.533658 0.529824 0
M  V30 5688 H 524.741 -1.428 2.62013 0
M  V30 5689 C 523.49 -2.98975 1.77509 0
M  V30 5690 H 522.813 -3.00099 2.6416 0
M  V30 5691 H 524.253 -3.76906 1.9421 0
M  V30 5692 C 522.712 -3.3282 0.522745 0
M  V30 5693 O 523.242 -4.00208 -0.345866 0
M  V30 5694 N 521.448 -2.8808 0.381882 0
M  V30 5695 H 520.995 -2.33415 1.08974 0
M  V30 5696 H 520.953 -3.11091 -0.454929 0
M  V30 5697 N 524.725 -1.39134 -0.740242 0
M  V30 5698 C 525.688 -1.37217 -1.83587 0
M  V30 5699 C 526.688 -0.270221 -1.58513 0
M  V30 5700 O 527.878 -0.527843 -1.6601 0
M  V30 5701 C 525.01 -1.13959 -3.21288 0
M  V30 5702 H 526.203 -2.34705 -1.86691 0
M  V30 5703 H 523.756 -1.24622 -0.94335 0
M  V30 5704 H 524.491 -0.17131 -3.23847 0
M  V30 5705 H 524.276 -1.93754 -3.40884 0
M  V30 5706 H 525.766 -1.15346 -4.01354 0
M  V30 5707 N 526.204 0.969867 -1.24223 0
M  V30 5708 C 527.615 1.52717 -1.07399 0
M  V30 5709 C 527.966 1.92956 0.355298 0
M  V30 5710 O 527.091 1.77112 1.2434 0
M  V30 5711 C 527.686 2.77521 -1.94339 0
M  V30 5712 C 526.245 3.29615 -1.81744 0
M  V30 5713 C 525.392 2.02537 -1.89405 0
M  V30 5714 H 528.343 0.788399 -1.37732 0
M  V30 5715 H 528.364 3.50773 -1.47439 0
M  V30 5716 H 527.876 2.48203 -2.98357 0
M  V30 5717 H 525.977 3.63789 -0.805505 0
M  V30 5718 H 526.09 3.98661 -2.65718 0
M  V30 5719 H 524.454 2.17151 -1.33108 0
M  V30 5720 H 525.237 1.75587 -2.94999 0
M  V30 5721 N 527.682 1.05563 1.17022 0
M  V30 5722 C 528.629 0.659893 2.21165 0
M  V30 5723 C 529.599 -0.339813 1.62587 0
M  V30 5724 O 530.784 -0.230378 1.89404 0
M  V30 5725 C 527.924 0.0447297 3.45071 0
M  V30 5726 C 527.037 1.09372 4.17926 0
M  V30 5727 C 526.172 0.445481 5.29329 0
M  V30 5728 C 525.211 1.47852 5.93975 0
M  V30 5729 N 524.348 0.854172 6.96885 0
M  V30 5730 H 529.188 1.55243 2.54369 0
M  V30 5731 H 526.725 0.776336 1.24946 0
M  V30 5732 H 528.683 -0.329404 4.15898 0
M  V30 5733 H 527.313 -0.811244 3.1244 0
M  V30 5734 H 526.365 1.58564 3.45777 0
M  V30 5735 H 527.677 1.87773 4.62107 0
M  V30 5736 H 526.831 0.0179688 6.06697 0
M  V30 5737 H 525.57 -0.370481 4.86291 0
M  V30 5738 H 524.575 1.91601 5.15334 0
M  V30 5739 H 525.8 2.29645 6.39093 0
M  V30 5740 H 523.746 0.0587882 6.55974 0
M  V30 5741 H 523.663 1.57567 7.39397 0
M  V30 5742 H 524.931 0.451559 7.78191 0
M  V30 5743 N 529.16 -1.33526 0.837174 0
M  V30 5744 C 530.4 -1.99649 0.438115 0
M  V30 5745 C 530.764 -1.64879 -0.983816 0
M  V30 5746 O 531.965 -2.23956 -1.48651 0
M  V30 5747 C 530.236 -3.51431 0.650461 0
M  V30 5748 S 531.795 -4.37431 0.346371 0
M  V30 5749 H 528.613 -0.69162 0.164872 0
M  V30 5750 H 531.215 -1.62556 1.08609 0
M  V30 5751 H 529.919 -3.74225 1.68475 0
M  V30 5752 H 529.45 -3.93398 -0.0117309 0
M  V30 5753 H 531.465 -4.89132 -0.834504 0
M  V30 5754 N 530.638 -0.59345 -1.46 0
M  V30 5755 C 532.049 -0.169801 -1.85926 0
M  V30 5756 C 532.4 1.26984 -1.49565 0
M  V30 5757 O 531.525 1.96076 -0.915602 0
M  V30 5758 C 532.12 -0.301385 -3.37457 0
M  V30 5759 C 530.679 0.0674684 -3.7634 0
M  V30 5760 C 529.826 -0.632383 -2.69993 0
M  V30 5761 H 532.777 -0.801014 -1.37002 0
M  V30 5762 H 532.798 0.470331 -3.77582 0
M  V30 5763 H 532.31 -1.34927 -3.63891 0
M  V30 5764 H 530.411 1.11507 -3.55523 0
M  V30 5765 H 530.524 -0.316332 -4.78055 0
M  V30 5766 H 528.888 -0.0714961 -2.546 0
M  V30 5767 H 529.671 -1.68212 -2.99265 0
M  V30 5768 N 532.116 1.54067 -0.331816 0
M  V30 5769 C 533.363 2.00715 0.268269 0
M  V30 5770 C 533.691 1.21986 1.51491 0
M  V30 5771 O 532.946 0.292309 1.93505 0
M  V30 5772 C 533.245 3.51634 0.639392 0
M  V30 5773 C 532.911 4.48018 -0.509019 0
M  V30 5774 C 531.573 4.74089 -0.824209 0
M  V30 5775 C 533.925 5.05237 -1.28003 0
M  V30 5776 C 531.253 5.54637 -1.91298 0
M  V30 5777 C 533.605 5.86972 -2.35895 0
M  V30 5778 C 532.269 6.11342 -2.67987 0
M  V30 5779 H 531.539 0.734469 0.0981667 0
M  V30 5780 H 534.186 1.8596 -0.457304 0
M  V30 5781 H 532.491 3.6416 1.44551 0
M  V30 5782 H 534.188 3.85175 1.11539 0
M  V30 5783 H 530.778 4.27851 -0.253287 0
M  V30 5784 H 534.962 4.8507 -1.04978 0
M  V30 5785 H 530.218 5.71747 -2.16599 0
M  V30 5786 H 534.392 6.30327 -2.96076 0
M  V30 5787 H 532.019 6.73544 -3.5248 0
M  V30 5788 N 533.594 0.0601682 1.57485 0
M  V30 5789 C 534.544 -0.920969 2.08572 0
M  V30 5790 C 535.528 -1.26617 0.992827 0
M  V30 5791 O 536.72 -1.24708 1.25606 0
M  V30 5792 C 533.849 -2.19267 2.64153 0
M  V30 5793 C 532.935 -1.87447 3.80427 0
M  V30 5794 N 533.326 -1.26025 4.89848 0
M  V30 5795 C 531.624 -2.17265 3.89502 0
M  V30 5796 C 532.325 -1.12036 5.70809 0
M  V30 5797 N 531.301 -1.62624 5.18705 0
M  V30 5798 H 535.103 -0.441561 2.90564 0
M  V30 5799 H 532.617 -0.144043 1.6176 0
M  V30 5800 H 534.614 -2.90462 2.99061 0
M  V30 5801 H 533.274 -2.67806 1.83603 0
M  V30 5802 H 534.285 -0.931336 5.09457 0
M  V30 5803 H 530.962 -2.68262 3.19909 0
M  V30 5804 H 532.352 -0.642783 6.68818 0
M  V30 5805 N 535.072 -1.5615 -0.213296 0
M  V30 5806 C 536.02 -1.93953 -1.28394 0
M  V30 5807 C 537.014 -0.822592 -1.48087 0
M  V30 5808 O 538.22 -1.00748 -1.49164 0
M  V30 5809 H 534.595 -0.61648 -0.430646 0
M  V30 5810 H 536.566 -2.83275 -0.937977 0
M  V30 5811 C 535.315 -2.27969 -2.62537 0
M  V30 5812 H 534.638 -3.13432 -2.48194 0
M  V30 5813 H 536.078 -2.58297 -3.36242 0
M  V30 5814 C 534.537 -1.10775 -3.18167 0
M  V30 5815 O 535.067 -0.373201 -3.99963 0
M  V30 5816 N 533.273 -0.889377 -2.76656 0
M  V30 5817 H 532.82 -1.48843 -2.10246 0
M  V30 5818 H 532.778 -0.107 -3.14218 0
M  V30 5819 N 536.55 0.480323 -1.50102 0
M  V30 5820 C 537.78 1.25475 -1.64133 0
M  V30 5821 C 538.188 1.8647 -0.320272 0
M  V30 5822 O 537.531 1.69561 0.70673 0
M  V30 5823 C 537.593 2.40996 -2.6676 0
M  V30 5824 C 537.257 2.00711 -4.10565 0
M  V30 5825 C 538.254 1.53492 -4.96725 0
M  V30 5826 C 535.939 2.09714 -4.56427 0
M  V30 5827 C 537.933 1.15806 -6.26792 0
M  V30 5828 C 535.62 1.7164 -5.86501 0
M  V30 5829 C 536.618 1.24763 -6.71508 0
M  V30 5830 O 536.306 0.872122 -7.99155 0
M  V30 5831 H 536.038 0.385983 -0.554971 0
M  V30 5832 H 538.592 0.580848 -1.97016 0
M  V30 5833 H 536.822 3.11528 -2.291 0
M  V30 5834 H 538.511 3.02981 -2.70106 0
M  V30 5835 H 539.277 1.45966 -4.62514 0
M  V30 5836 H 535.156 2.4515 -3.90413 0
M  V30 5837 H 538.7 0.791465 -6.93096 0
M  V30 5838 H 534.597 1.78822 -6.20236 0
M  V30 5839 H 535.365 1.00178 -8.12346 0
M  V30 5840 N 538.028 1.39524 0.732853 0
M  V30 5841 C 538.978 1.34905 1.83806 0
M  V30 5842 C 539.962 0.229546 1.59254 0
M  V30 5843 O 541.154 0.467255 1.70721 0
M  V30 5844 C 538.283 1.19699 3.21756 0
M  V30 5845 C 537.369 2.36359 3.5213 0
M  V30 5846 N 537.76 3.61834 3.53426 0
M  V30 5847 C 536.058 2.29363 3.82503 0
M  V30 5848 C 536.759 4.38992 3.81655 0
M  V30 5849 N 535.735 3.68606 3.99538 0
M  V30 5850 H 539.537 2.29882 1.83116 0
M  V30 5851 H 537.051 1.33051 0.931194 0
M  V30 5852 H 539.048 1.14472 4.00876 0
M  V30 5853 H 537.708 0.256739 3.23683 0
M  V30 5854 H 538.719 3.95228 3.34686 0
M  V30 5855 H 535.396 1.43612 3.92023 0
M  V30 5856 H 536.786 5.47763 3.89108 0
M  V30 5857 N 539.506 -0.963266 1.24736 0
M  V30 5858 C 540.922 -1.23273 1.01371 0
M  V30 5859 C 541.122 -1.99618 -0.274776 0
M  V30 5860 O 540.178 -2.32293 -0.989769 0
M  V30 5861 C 541.491 -2.01554 2.23152 0
M  V30 5862 C 543.039 -2.14629 2.27823 0
M  V30 5863 C 543.514 -2.96307 3.49237 0
M  V30 5864 N 545.005 -3.03887 3.49581 0
M  V30 5865 C 545.74 -3.67456 4.40186 0
M  V30 5866 N 545.236 -4.32706 5.41052 0
M  V30 5867 N 547.029 -3.64511 4.27888 0
M  V30 5868 H 539.18 -0.452294 2.07528 0
M  V30 5869 H 541.443 -0.262521 0.910926 0
M  V30 5870 H 541.149 -1.52847 3.1675 0
M  V30 5871 H 541.023 -3.02278 2.25628 0
M  V30 5872 H 543.41 -2.62537 1.34753 0
M  V30 5873 H 543.491 -1.13238 2.2937 0
M  V30 5874 H 543.135 -2.49091 4.42624 0
M  V30 5875 H 543.065 -3.97905 3.44933 0
M  V30 5876 H 545.556 -2.57477 2.76611 0
M  V30 5877 H 545.869 -4.79042 6.06415 0
M  V30 5878 H 544.214 -4.31361 5.44934 0
M  V30 5879 H 547.405 -3.12715 3.4832 0
M  V30 5880 H 547.578 -4.13768 4.98698 0
M  V30 5881 N 540.985 -1.06182 -1.16461 0
M  V30 5882 C 542.262 -0.691364 -1.82974 0
M  V30 5883 C 542.642 0.827377 -1.9421 0
M  V30 5884 O 541.99 1.73723 -1.48434 0
M  V30 5885 C 542.2 -1.39199 -3.20038 0
M  V30 5886 C 543.548 -1.53647 -3.95825 0
M  V30 5887 O 544.572 -1.35181 -3.29552 0
M  V30 5888 O 543.431 -1.83932 -5.14618 0
M  V30 5889 H 540.525 -0.244605 -0.789998 0
M  V30 5890 H 543.071 -1.16203 -1.23673 0
M  V30 5891 H 541.843 -2.42766 -3.06888 0
M  V30 5892 H 541.466 -0.911335 -3.87015 0
M  V30 5893 N 542.463 1.3308 -0.844243 0
M  V30 5894 C 543.711 1.97215 -0.441676 0
M  V30 5895 C 544.032 1.67185 1.0037 0
M  V30 5896 O 543.302 0.973588 1.69994 0
M  V30 5897 H 541.882 0.72959 -0.160335 0
M  V30 5898 H 544.544 1.62348 -1.07838 0
M  V30 5899 H 543.64 3.06698 -0.57815 0
M  V30 5900 N 543.941 0.601185 1.45683 0
M  V30 5901 C 544.904 -0.111398 2.28929 0
M  V30 5902 C 545.904 -0.801246 1.39416 0
M  V30 5903 O 547.094 -0.650383 1.61603 0
M  V30 5904 C 544.226 -1.16773 3.20276 0
M  V30 5905 H 545.419 0.620412 2.93413 0
M  V30 5906 H 542.972 0.359946 1.52099 0
M  V30 5907 H 543.707 -1.93051 2.60579 0
M  V30 5908 H 543.492 -0.677358 3.86205 0
M  V30 5909 H 544.982 -1.66698 3.82886 0
M  V30 5910 N 545.419 -1.53889 0.339982 0
M  V30 5911 C 546.352 -2.21187 -0.561405 0
M  V30 5912 C 547.33 -1.19463 -1.10306 0
M  V30 5913 O 548.514 -1.48268 -1.164 0
M  V30 5914 C 545.641 -2.8865 -1.77198 0
M  V30 5915 C 544.687 -4.04232 -1.3601 0
M  V30 5916 S 545.52 -5.34129 -0.382909 0
M  V30 5917 C 546.676 -6.05094 -1.60039 0
M  V30 5918 H 546.909 -2.97298 0.0102092 0
M  V30 5919 H 544.442 -1.53901 0.124056 0
M  V30 5920 H 546.4 -3.28138 -2.4665 0
M  V30 5921 H 545.061 -2.12311 -2.3148 0
M  V30 5922 H 544.254 -4.50358 -2.2626 0
M  V30 5923 H 543.856 -3.66503 -0.745098 0
M  V30 5924 H 546.148 -6.2827 -2.53541 0
M  V30 5925 H 547.091 -6.98182 -1.18099 0
M  V30 5926 H 547.499 -5.35207 -1.79483 0
M  V30 5927 N 546.897 -0.0685191 -1.57451 0
M  V30 5928 C 548.313 0.288101 -1.56978 0
M  V30 5929 C 548.513 1.70262 -1.07765 0
M  V30 5930 O 547.569 2.4135 -0.742054 0
M  V30 5931 C 548.882 0.100745 -3.00531 0
M  V30 5932 C 550.43 0.170531 -3.12535 0
M  V30 5933 C 550.905 0.0114944 -4.57999 0
M  V30 5934 N 552.396 0.0672065 -4.63151 0
M  V30 5935 C 553.131 -0.0314813 -5.73391 0
M  V30 5936 N 552.627 -0.183503 -6.92557 0
M  V30 5937 N 554.42 0.0253489 -5.62094 0
M  V30 5938 H 546.571 -0.993026 -1.87757 0
M  V30 5939 H 548.834 -0.386981 -0.865419 0
M  V30 5940 H 548.54 -0.875197 -3.40636 0
M  V30 5941 H 548.414 0.854457 -3.67395 0
M  V30 5942 H 550.801 1.13696 -2.72318 0
M  V30 5943 H 550.882 -0.614229 -2.48316 0
M  V30 5944 H 550.526 -0.951684 -4.98904 0
M  V30 5945 H 550.456 0.815617 -5.20245 0
M  V30 5946 H 552.947 0.183246 -3.77455 0
M  V30 5947 H 553.26 -0.251041 -7.72392 0
M  V30 5948 H 551.605 -0.218822 -6.94655 0
M  V30 5949 H 554.796 0.142794 -4.67882 0
M  V30 5950 H 554.969 -0.0550166 -6.47977 0
M  V30 5951 N 548.375 1.56261 0.205012 0
M  V30 5952 C 549.621 1.80306 0.9283 0
M  V30 5953 C 549.954 0.640932 1.83319 0
M  V30 5954 O 549.229 -0.359032 1.91158 0
M  V30 5955 C 549.512 3.14547 1.75306 0
M  V30 5956 C 549.365 4.41236 0.873562 0
M  V30 5957 C 550.684 3.45382 2.72762 0
M  V30 5958 H 547.803 0.655929 0.336044 0
M  V30 5959 H 550.445 1.88984 0.196211 0
M  V30 5960 H 548.595 3.0728 2.37721 0
M  V30 5961 H 550.267 4.60539 0.264887 0
M  V30 5962 H 548.51 4.33427 0.179773 0
M  V30 5963 H 549.181 5.31639 1.48541 0
M  V30 5964 H 551.657 3.52884 2.20481 0
M  V30 5965 H 550.533 4.40449 3.2756 0
M  V30 5966 H 550.794 2.68377 3.51321 0
M  V30 5967 N 549.853 -0.472356 1.50355 0
M  V30 5968 C 551.13 -1.23356 1.51798 0
M  V30 5969 C 551.51 -2.09469 0.26193 0
M  V30 5970 O 550.858 -2.15677 -0.754691 0
M  V30 5971 C 551.068 -2.06568 2.81302 0
M  V30 5972 C 552.416 -2.648 3.31913 0
M  V30 5973 O 553.44 -2.16812 2.82614 0
M  V30 5974 O 552.299 -3.52231 4.17846 0
M  V30 5975 H 549.393 -0.559707 0.608816 0
M  V30 5976 H 551.939 -0.48428 1.62643 0
M  V30 5977 H 550.711 -1.43103 3.64194 0
M  V30 5978 H 550.334 -2.88633 2.73454 0
M  V30 5979 N 551.331 -1.39911 -0.725443 0
M  V30 5980 C 552.579 -1.37382 -1.48224 0
M  V30 5981 C 552.9 0.0264107 -1.94982 0
M  V30 5982 O 552.17 0.979408 -1.6966 0
M  V30 5983 H 550.75 -0.505596 -0.549892 0
M  V30 5984 H 553.412 -1.7487 -0.860608 0
M  V30 5985 H 552.508 -2.04254 -2.3598 0
M  V30 5986 N 552.809 0.956637 -1.25245 0
M  V30 5987 C 553.757 2.0743 -1.0524 0
M  V30 5988 C 554.751 1.69392 0.0160725 0
M  V30 5989 O 555.957 1.7946 -0.139382 0
M  V30 5990 H 552.332 0.678921 -0.323373 0
M  V30 5991 H 554.303 2.2146 -1.99995 0
M  V30 5992 C 553.052 3.40872 -0.685702 0
M  V30 5993 H 552.375 3.70607 -1.49968 0
M  V30 5994 H 553.815 4.19939 -0.585415 0
M  V30 5995 C 552.274 3.31367 0.608082 0
M  V30 5996 O 552.804 3.66214 1.65076 0
M  V30 5997 N 551.01 2.84486 0.592955 0
M  V30 5998 H 550.557 2.56326 -0.25592 0
M  V30 5999 H 550.515 2.78509 1.45877 0
M  V30 6000 N 554.287 1.06798 1.15896 0
M  V30 6001 C 555.512 0.808739 1.90982 0
M  V30 6002 C 555.937 -0.6316 1.77179 0
M  V30 6003 O 555.295 -1.4407 1.10061 0
M  V30 6004 C 555.343 1.21468 3.39526 0
M  V30 6005 O 554.447 0.356562 4.10856 0
M  V30 6006 H 553.788 0.29512 0.594811 0
M  V30 6007 H 556.318 1.42513 1.46804 0
M  V30 6008 H 556.328 1.18844 3.90308 0
M  V30 6009 H 555.003 2.26379 3.48891 0
M  V30 6010 H 553.58 0.444808 3.70238 0
M  V30 6011 N 555.766 -1.3263 0.851289 0
M  V30 6012 C 557.014 -1.96978 0.452128 0
M  V30 6013 C 557.335 -1.67715 -0.99482 0
M  V30 6014 O 556.605 -0.98259 -1.69476 0
M  V30 6015 H 555.185 -0.72873 0.164202 0
M  V30 6016 H 557.847 -1.61774 1.08698 0
M  V30 6017 H 556.943 -3.06387 0.594407 0
M  V30 6018 N 557.244 -0.608902 -1.45362 0
M  V30 6019 C 558.192 0.121639 -2.32282 0
M  V30 6020 C 559.186 0.858301 -1.46046 0
M  V30 6021 O 560.392 0.773718 -1.62523 0
M  V30 6022 H 556.767 0.058086 -0.749753 0
M  V30 6023 H 558.738 -0.629866 -2.91677 0
M  V30 6024 C 557.487 1.1047 -3.29684 0
M  V30 6025 H 556.81 0.547278 -3.96036 0
M  V30 6026 H 558.25 1.58576 -3.9323 0
M  V30 6027 C 556.709 2.17891 -2.56954 0
M  V30 6028 O 557.239 3.25652 -2.35189 0
M  V30 6029 N 555.445 1.93211 -2.17066 0
M  V30 6030 H 554.992 1.05584 -2.34967 0
M  V30 6031 H 554.95 2.6529 -1.68727 0
M  V30 6032 N 558.722 1.53707 -0.348139 0
M  V30 6033 C 559.97 2.00591 0.246478 0
M  V30 6034 C 560.291 1.23753 1.50699 0
M  V30 6035 O 559.561 0.345964 1.92821 0
M  V30 6036 H 558.141 0.741053 0.0940679 0
M  V30 6037 H 560.803 1.89139 -0.470354 0
M  V30 6038 H 559.899 3.08297 0.485714 0
M  V30 6039 N 560.2 0.0768682 1.57412 0
M  V30 6040 C 561.449 -0.590679 1.92857 0
M  V30 6041 C 561.762 -1.70461 0.959293 0
M  V30 6042 O 562.968 -2.43207 1.20675 0
M  V30 6043 C 561.424 -1.10204 3.42612 0
M  V30 6044 C 561.032 -0.0188447 4.47996 0
M  V30 6045 C 562.776 -1.74336 3.87049 0
M  V30 6046 C 560.683 -0.544536 5.88888 0
M  V30 6047 H 559.613 -0.224411 0.71983 0
M  V30 6048 H 562.264 0.149924 1.82887 0
M  V30 6049 H 560.646 -1.89577 3.47673 0
M  V30 6050 H 561.82 0.755936 4.54557 0
M  V30 6051 H 560.135 0.526555 4.13057 0
M  V30 6052 H 562.732 -2.14708 4.89699 0
M  V30 6053 H 563.075 -2.60537 3.24694 0
M  V30 6054 H 563.608 -1.01577 3.84613 0
M  V30 6055 H 560.347 0.280426 6.549 0
M  V30 6056 H 559.867 -1.28673 5.85836 0
M  V30 6057 H 561.546 -1.01933 6.3892 0
M  V30 6058 N 561.678 -1.56367 -0.196722 0
M  V30 6059 C 562.906 -1.84639 -0.933608 0
M  V30 6060 C 563.321 -0.659164 -1.76919 0
M  V30 6061 O 562.678 0.372142 -1.78665 0
M  V30 6062 C 562.729 -3.11694 -1.83109 0
M  V30 6063 O 562.45 -4.25838 -1.02924 0
M  V30 6064 C 563.951 -3.53132 -2.67979 0
M  V30 6065 H 561.171 -0.613188 -0.272473 0
M  V30 6066 H 563.715 -2.03475 -0.204465 0
M  V30 6067 H 561.87 -2.94759 -2.51387 0
M  V30 6068 H 562.284 -4.98178 -1.64069 0
M  V30 6069 H 563.758 -4.45005 -3.26611 0
M  V30 6070 H 564.235 -2.76045 -3.41608 0
M  V30 6071 H 564.841 -3.72592 -2.05074 0
M  V30 6072 N 563.156 0.464375 -1.50603 0
M  V30 6073 C 564.386 1.23727 -1.65454 0
M  V30 6074 C 564.794 1.86119 -0.340032 0
M  V30 6075 O 564.137 1.70301 0.688706 0
M  V30 6076 C 564.199 2.38153 -2.69301 0
M  V30 6077 C 563.863 1.96345 -4.12671 0
M  V30 6078 C 564.86 1.48215 -4.98326 0
M  V30 6079 C 562.545 2.04861 -4.58625 0
M  V30 6080 C 564.539 1.09152 -6.27985 0
M  V30 6081 C 562.226 1.65409 -5.88288 0
M  V30 6082 C 563.224 1.17634 -6.72794 0
M  V30 6083 O 562.912 0.787312 -8.00035 0
M  V30 6084 H 562.644 0.380075 -0.559034 0
M  V30 6085 H 565.198 0.559919 -1.97621 0
M  V30 6086 H 563.428 3.09081 -2.32392 0
M  V30 6087 H 565.117 3.00099 -2.73304 0
M  V30 6088 H 565.883 1.41052 -4.64036 0
M  V30 6089 H 561.762 2.40996 -3.92991 0
M  V30 6090 H 565.306 0.717909 -6.93896 0
M  V30 6091 H 561.203 1.72233 -6.22098 0
M  V30 6092 H 561.971 0.915567 -8.13363 0
M  V30 6093 N 564.634 1.40294 0.718013 0
M  V30 6094 C 565.544 1.42678 1.86226 0
M  V30 6095 C 566.56 0.319655 1.71039 0
M  V30 6096 O 567.736 0.563852 1.93346 0
M  V30 6097 C 564.801 1.2852 3.21999 0
M  V30 6098 C 563.862 2.49354 3.49458 0
M  V30 6099 C 563.095 2.35863 4.78753 0
M  V30 6100 O 563.318 1.37114 5.53675 0
M  V30 6101 O 562.252 3.25189 5.06494 0
M  V30 6102 H 566.078 2.39167 1.87171 0
M  V30 6103 H 563.663 1.2159 0.868112 0
M  V30 6104 H 565.545 1.22824 4.03103 0
M  V30 6105 H 564.22 0.351359 3.21787 0
M  V30 6106 H 563.127 2.60628 2.68373 0
M  V30 6107 H 564.46 3.41491 3.54464 0
M  V30 6108 N 566.112 -0.949982 1.2575 0
M  V30 6109 C 567.523 -1.50989 1.09815 0
M  V30 6110 C 567.874 -1.93497 -0.324556 0
M  V30 6111 O 566.999 -1.79068 -1.21506 0
M  V30 6112 C 567.594 -2.74394 1.98729 0
M  V30 6113 C 566.153 -3.26682 1.86965 0
M  V30 6114 C 565.3 -1.99498 1.92603 0
M  V30 6115 H 568.251 -0.766387 1.38968 0
M  V30 6116 H 568.272 -3.48383 1.53001 0
M  V30 6117 H 567.784 -2.43425 3.02268 0
M  V30 6118 H 565.885 -3.62461 0.863279 0
M  V30 6119 H 565.998 -3.94383 2.72027 0
M  V30 6120 H 564.362 -2.15005 1.36546 0
M  V30 6121 H 565.145 -1.70871 2.97755 0
M  V30 6122 N 567.59 -1.07411 -1.15328 0
M  V30 6123 C 568.538 -0.689316 -2.22151 0
M  V30 6124 C 569.532 0.300156 -1.6672 0
M  V30 6125 O 570.738 0.163804 -1.79253 0
M  V30 6126 H 567.113 -0.204834 -0.723566 0
M  V30 6127 H 569.084 -1.59988 -2.51886 0
M  V30 6128 C 567.833 -0.103848 -3.47545 0
M  V30 6129 H 567.156 -0.856367 -3.90521 0
M  V30 6130 H 568.596 0.127725 -4.23808 0
M  V30 6131 C 567.055 1.15563 -3.1646 0
M  V30 6132 O 567.585 2.242 -3.33312 0
M  V30 6133 N 565.791 1.06203 -2.70498 0
M  V30 6134 H 565.338 0.177933 -2.56985 0
M  V30 6135 H 565.296 1.90553 -2.50074 0
M  V30 6136 N 569.068 1.32177 -0.85831 0
M  V30 6137 C 570.293 2.01847 -0.476718 0
M  V30 6138 C 570.718 1.64065 0.920021 0
M  V30 6139 O 570.076 0.843189 1.60499 0
M  V30 6140 C 570.124 3.55097 -0.627578 0
M  V30 6141 O 569.228 4.11012 0.338086 0
M  V30 6142 H 568.569 0.635907 -0.191099 0
M  V30 6143 H 571.099 1.68641 -1.15851 0
M  V30 6144 H 571.109 4.04718 -0.516476 0
M  V30 6145 H 569.784 3.81938 -1.64609 0
M  V30 6146 H 568.361 3.72451 0.182917 0
M  V30 6147 N 570.547 0.616602 1.45037 0
M  V30 6148 C 571.795 0.115103 2.01772 0
M  V30 6149 C 572.116 -1.2622 1.48639 0
M  V30 6150 O 571.386 -1.83563 0.684199 0
M  V30 6151 H 569.966 0.0395607 0.745952 0
M  V30 6152 H 572.628 0.800032 1.77723 0
M  V30 6153 H 571.724 0.0717274 3.12018 0
M  V30 6154 N 572.025 -1.5352 0.356285 0
M  V30 6155 C 573.273 -2.00719 -0.235837 0
M  V30 6156 C 573.594 -1.24551 -1.5004 0
M  V30 6157 O 572.864 -0.356185 -1.92635 0
M  V30 6158 H 571.444 -0.741542 -0.0901366 0
M  V30 6159 H 574.106 -1.88887 0.480378 0
M  V30 6160 H 573.202 -3.08551 -0.469357 0
M  V30 6161 N 573.503 -0.0852151 -1.57369 0
M  V30 6162 C 574.749 0.581666 -1.94279 0
M  V30 6163 C 575.082 1.68444 -0.966446 0
M  V30 6164 O 574.357 1.945 0.00215277 0
M  V30 6165 C 574.64 1.14609 -3.41375 0
M  V30 6166 C 574.493 0.0490414 -4.49773 0
M  V30 6167 C 575.812 2.04751 -3.8957 0
M  V30 6168 H 572.931 0.209972 -0.706456 0
M  V30 6169 H 575.573 -0.153915 -1.89376 0
M  V30 6170 H 573.723 1.77297 -3.45685 0
M  V30 6171 H 575.395 -0.584721 -4.57579 0
M  V30 6172 H 573.638 -0.618638 -4.29366 0
M  V30 6173 H 574.309 0.484601 -5.49869 0
M  V30 6174 H 576.785 1.51981 -3.87351 0
M  V30 6175 H 575.661 2.41173 -4.93079 0
M  V30 6176 H 575.922 2.96107 -3.28288 0
M  V30 6177 N 574.981 1.5647 0.188427 0
M  V30 6178 C 576.228 1.81013 0.907779 0
M  V30 6179 C 576.556 0.65953 1.82977 0
M  V30 6180 O 575.811 -0.354308 1.92466 0
M  V30 6181 C 576.11 3.11596 1.7505 0
M  V30 6182 C 575.776 4.40145 0.978922 0
M  V30 6183 C 574.438 4.75066 0.765912 0
M  V30 6184 C 576.79 5.19369 0.436498 0
M  V30 6185 C 574.118 5.867 -0.00089868 0
M  V30 6186 C 576.47 6.31805 -0.317136 0
M  V30 6187 C 575.134 6.65303 -0.541103 0
M  V30 6188 H 574.404 0.662373 0.33218 0
M  V30 6189 H 577.051 1.9071 0.173732 0
M  V30 6190 H 575.356 2.97165 2.55343 0
M  V30 6191 H 577.053 3.27793 2.30983 0
M  V30 6192 H 573.643 4.12745 1.15497 0
M  V30 6193 H 577.827 4.92799 0.588449 0
M  V30 6194 H 573.083 6.11122 -0.184329 0
M  V30 6195 H 577.257 6.92406 -0.744788 0
M  V30 6196 H 574.884 7.51646 -1.13718 0
M  V30 6197 N 576.459 -0.456382 1.50847 0
M  V30 6198 C 577.391 -1.57033 1.66953 0
M  V30 6199 C 578.404 -1.53207 0.550593 0
M  V30 6200 O 579.593 -1.58328 0.824285 0
M  V30 6201 C 576.693 -2.95937 1.65149 0
M  V30 6202 C 575.866 -3.24475 2.93317 0
M  V30 6203 C 574.925 -4.43007 2.83957 0
M  V30 6204 O 573.951 -4.42592 3.57912 0
M  V30 6205 N 575.153 -5.45503 1.9851 0
M  V30 6206 H 577.918 -1.43629 2.63042 0
M  V30 6207 H 575.479 -0.645037 1.48495 0
M  V30 6208 H 577.471 -3.73224 1.56481 0
M  V30 6209 H 576.041 -3.03036 0.767343 0
M  V30 6210 H 575.261 -2.35664 3.16 0
M  V30 6211 H 576.549 -3.4036 3.78196 0
M  V30 6212 H 575.947 -5.48668 1.37766 0
M  V30 6213 H 574.504 -6.21716 1.95735 0
M  V30 6214 N 577.937 -1.40673 -0.710563 0
M  V30 6215 C 578.847 -1.43663 -1.85467 0
M  V30 6216 C 579.863 -0.328721 -1.70867 0
M  V30 6217 O 581.039 -0.574098 -1.93044 0
M  V30 6218 C 578.104 -1.30226 -3.21313 0
M  V30 6219 C 577.165 -2.51204 -3.48131 0
M  V30 6220 C 576.398 -2.38398 -4.77495 0
M  V30 6221 O 576.621 -1.40048 -5.5294 0
M  V30 6222 O 575.555 -3.2787 -5.04762 0
M  V30 6223 H 579.381 -2.40156 -1.859 0
M  V30 6224 H 576.966 -1.22049 -0.861652 0
M  V30 6225 H 578.848 -1.2496 -4.02446 0
M  V30 6226 H 577.523 -0.368419 -3.21597 0
M  V30 6227 H 576.43 -2.62048 -2.66987 0
M  V30 6228 H 577.763 -3.43366 -3.52648 0
M  V30 6229 N 579.415 0.9433 -1.26252 0
M  V30 6230 C 580.347 2.04542 -1.03417 0
M  V30 6231 C 581.36 1.62799 0.0046911 0
M  V30 6232 O 582.549 1.76944 -0.235146 0
M  V30 6233 C 579.649 3.34511 -0.543671 0
M  V30 6234 C 578.822 4.05033 -1.65128 0
M  V30 6235 C 577.881 5.13273 -1.1592 0
M  V30 6236 O 576.907 5.38095 -1.85586 0
M  V30 6237 N 578.109 5.805 -0.00649279 0
M  V30 6238 H 580.874 2.24699 -1.98319 0
M  V30 6239 H 578.435 1.11264 -1.1761 0
M  V30 6240 H 580.427 4.04212 -0.198703 0
M  V30 6241 H 578.997 3.11042 0.311711 0
M  V30 6242 H 578.217 3.29275 -2.16729 0
M  V30 6243 H 579.505 4.48903 -2.39508 0
M  V30 6244 H 578.903 5.62767 0.575347 0
M  V30 6245 H 577.46 6.51201 0.279416 0
M  V30 6246 N 580.893 1.08022 1.14757 0
M  V30 6247 C 582.304 0.829144 1.67279 0
M  V30 6248 C 582.655 -0.644721 1.85305 0
M  V30 6249 O 581.78 -1.49838 1.56133 0
M  V30 6250 C 582.375 1.49855 3.03857 0
M  V30 6251 C 580.934 1.29482 3.53428 0
M  V30 6252 C 580.081 1.56386 2.28995 0
M  V30 6253 H 583.032 1.24134 0.988762 0
M  V30 6254 H 583.053 0.923572 3.69121 0
M  V30 6255 H 582.565 2.57123 2.90705 0
M  V30 6256 H 580.666 0.242669 3.71809 0
M  V30 6257 H 580.779 2.01974 4.34446 0
M  V30 6258 H 579.143 0.985217 2.34874 0
M  V30 6259 H 579.926 2.64851 2.18423 0
M  V30 6260 N 582.371 -1.3172 0.865308 0
M  V30 6261 C 583.648 -1.91574 0.394789 0
M  V30 6262 C 584.028 -1.78769 -1.12271 0
M  V30 6263 O 583.376 -1.19245 -1.94918 0
M  V30 6264 C 583.586 -3.37957 0.870982 0
M  V30 6265 C 584.934 -4.15073 0.894384 0
M  V30 6266 O 585.958 -3.4672 0.816325 0
M  V30 6267 O 584.817 -5.37151 1.00651 0
M  V30 6268 H 581.911 -0.818649 0.117229 0
M  V30 6269 H 584.457 -1.4042 0.952913 0
M  V30 6270 H 583.229 -3.41269 1.91444 0
M  V30 6271 H 582.852 -3.96534 0.290907 0
M  V30 6272 N 583.85 -0.624285 -1.44708 0
M  V30 6273 C 585.096 -0.126051 -2.02107 0
M  V30 6274 C 585.425 1.2496 -1.49048 0
M  V30 6275 O 584.68 1.84163 -0.662005 0
M  V30 6276 C 584.979 -0.0546353 -3.57358 0
M  V30 6277 C 584.644 -1.36815 -4.29642 0
M  V30 6278 C 583.307 -1.72792 -4.49106 0
M  V30 6279 C 585.659 -2.23549 -4.70824 0
M  V30 6280 C 582.986 -2.95222 -5.07012 0
M  V30 6281 C 585.339 -3.45243 -5.30085 0
M  V30 6282 C 584.003 -3.81452 -5.47769 0
M  V30 6283 H 583.273 -0.0461252 -0.739563 0
M  V30 6284 H 585.92 -0.809236 -1.73562 0
M  V30 6285 H 584.225 0.711891 -3.85278 0
M  V30 6286 H 585.922 0.347282 -3.99493 0
M  V30 6287 H 582.512 -1.07817 -4.14817 0
M  V30 6288 H 586.696 -1.9705 -4.55505 0
M  V30 6289 H 581.952 -3.23361 -5.18891 0
M  V30 6290 H 586.125 -4.12689 -5.60946 0
M  V30 6291 H 583.753 -4.76403 -5.92405 0
M  V30 6292 N 585.328 1.53329 -0.364422 0
M  V30 6293 C 586.275 2.25698 0.482607 0
M  V30 6294 C 587.245 1.26325 1.07848 0
M  V30 6295 O 588.43 1.55104 1.11119 0
M  V30 6296 C 585.57 3.04873 1.61699 0
M  V30 6297 C 584.683 4.19135 1.0464 0
M  V30 6298 C 583.818 4.85754 2.14979 0
M  V30 6299 C 582.857 5.9205 1.5538 0
M  V30 6300 N 581.994 6.52365 2.59547 0
M  V30 6301 H 586.834 2.97666 -0.141032 0
M  V30 6302 H 584.371 1.46875 -0.0813692 0
M  V30 6303 H 586.329 3.49051 2.28516 0
M  V30 6304 H 584.959 2.35162 2.2113 0
M  V30 6305 H 584.011 3.79451 0.268553 0
M  V30 6306 H 585.323 4.95525 0.570653 0
M  V30 6307 H 584.477 5.3311 2.89619 0
M  V30 6308 H 583.216 4.08834 2.65906 0
M  V30 6309 H 582.221 5.44058 0.792549 0
M  V30 6310 H 583.446 6.7089 1.0528 0
M  V30 6311 H 581.392 5.78298 3.09689 0
M  V30 6312 H 581.309 7.2429 2.16655 0
M  V30 6313 H 582.577 7.0437 3.33892 0
M  V30 6314 N 586.806 0.0935595 1.57322 0
M  V30 6315 C 587.716 -0.880192 2.17462 0
M  V30 6316 C 588.732 -1.31135 1.14366 0
M  V30 6317 O 589.908 -1.37958 1.46729 0
M  V30 6318 C 586.973 -2.12184 2.74188 0
M  V30 6319 C 586.034 -1.74503 3.92234 0
M  V30 6320 C 585.267 -2.92748 4.46245 0
M  V30 6321 O 585.49 -4.07427 3.99198 0
M  V30 6322 O 584.424 -2.71303 5.37288 0
M  V30 6323 H 588.25 -0.398516 3.01074 0
M  V30 6324 H 585.835 -0.130707 1.48827 0
M  V30 6325 H 587.717 -2.84953 3.10451 0
M  V30 6326 H 586.392 -2.59407 1.93623 0
M  V30 6327 H 585.299 -0.989186 3.60785 0
M  V30 6328 H 586.632 -1.32044 4.74157 0
M  V30 6329 N 588.284 -1.56567 -0.180126 0
M  V30 6330 C 589.695 -1.7126 -0.743422 0
M  V30 6331 C 590.046 -0.70263 -1.83187 0
M  V30 6332 O 589.171 0.137856 -2.1596 0
M  V30 6333 C 589.766 -3.10512 -1.35528 0
M  V30 6334 C 588.325 -3.26919 -1.8655 0
M  V30 6335 C 587.472 -2.67213 -0.741099 0
M  V30 6336 H 590.423 -1.58636 0.0451543 0
M  V30 6337 H 590.444 -3.08673 -2.22489 0
M  V30 6338 H 589.956 -3.83997 -0.562862 0
M  V30 6339 H 588.057 -2.58376 -2.68464 0
M  V30 6340 H 588.17 -4.34574 -2.01699 0
M  V30 6341 H 586.534 -2.26788 -1.15927 0
M  V30 6342 H 587.317 -3.43277 0.0393291 0
M  V30 6343 N 589.762 0.448376 -1.51087 0
M  V30 6344 C 591.173 1.0286 -1.5581 0
M  V30 6345 C 591.524 1.92583 -0.374989 0
M  V30 6346 O 590.649 2.10316 0.509533 0
M  V30 6347 C 591.244 1.87223 -2.8237 0
M  V30 6348 C 589.803 2.40314 -2.897 0
M  V30 6349 C 588.95 1.19238 -2.50355 0
M  V30 6350 H 591.901 0.230075 -1.57023 0
M  V30 6351 H 591.922 2.72553 -2.6551 0
M  V30 6352 H 591.434 1.21894 -3.68461 0
M  V30 6353 H 589.535 3.09129 -2.08014 0
M  V30 6354 H 589.648 2.73866 -3.93108 0
M  V30 6355 H 588.012 1.53428 -2.03303 0
M  V30 6356 H 588.795 0.555367 -3.38778 0
M  V30 6357 N 591.24 1.41047 0.703093 0
M  V30 6358 C 592.17 1.45067 1.82969 0
M  V30 6359 C 593.151 0.31016 1.67248 0
M  V30 6360 O 594.336 0.520548 1.87093 0
M  V30 6361 C 591.466 1.32478 3.2104 0
M  V30 6362 C 590.42 2.44262 3.51454 0
M  V30 6363 C 589.746 2.16742 4.88801 0
M  V30 6364 C 591.046 3.86606 3.51189 0
M  V30 6365 H 592.74 2.39353 1.79863 0
M  V30 6366 H 590.286 1.15206 0.863919 0
M  V30 6367 H 592.239 1.33904 3.99559 0
M  V30 6368 H 590.963 0.346735 3.24754 0
M  V30 6369 H 589.622 2.42107 2.75282 0
M  V30 6370 H 589.27 1.17299 4.89132 0
M  V30 6371 H 588.97 2.91643 5.10116 0
M  V30 6372 H 590.494 2.19872 5.69639 0
M  V30 6373 H 591.908 3.90517 4.19725 0
M  V30 6374 H 590.305 4.61128 3.84033 0
M  V30 6375 H 591.375 4.15296 2.50315 0
M  V30 6376 N 592.718 -0.936591 1.26751 0
M  V30 6377 C 593.943 -1.72288 1.15462 0
M  V30 6378 C 594.368 -1.85915 -0.285887 0
M  V30 6379 O 593.726 -1.35272 -1.20711 0
M  V30 6380 C 593.774 -3.10503 1.83359 0
M  V30 6381 O 592.878 -3.96745 1.1255 0
M  V30 6382 H 592.219 -0.52843 0.402067 0
M  V30 6383 H 594.749 -1.17271 1.67656 0
M  V30 6384 H 594.759 -3.60867 1.90365 0
M  V30 6385 H 593.434 -2.99901 2.88153 0
M  V30 6386 H 592.011 -3.55191 1.13551 0
M  V30 6387 N 594.196 -1.08629 -1.14182 0
M  V30 6388 C 595.445 -0.812271 -1.84621 0
M  V30 6389 C 595.758 0.664313 -1.83973 0
M  V30 6390 O 596.964 1.05357 -2.50224 0
M  V30 6391 C 595.42 -1.4031 -3.31423 0
M  V30 6392 C 595.028 -2.91164 -3.40481 0
M  V30 6393 C 596.772 -1.20767 -4.06959 0
M  V30 6394 C 594.679 -3.43373 -4.81507 0
M  V30 6395 H 593.609 -0.30019 -0.691666 0
M  V30 6396 H 596.26 -1.30798 -1.28701 0
M  V30 6397 H 594.642 -0.835096 -3.87094 0
M  V30 6398 H 595.816 -3.5412 -2.94848 0
M  V30 6399 H 594.131 -3.09646 -2.78403 0
M  V30 6400 H 596.728 -1.57237 -5.11058 0
M  V30 6401 H 597.071 -0.147664 -4.16038 0
M  V30 6402 H 597.604 -1.74274 -3.57594 0
M  V30 6403 H 594.343 -4.48958 -4.77616 0
M  V30 6404 H 593.863 -2.85176 -5.27669 0
M  V30 6405 H 595.542 -3.40095 -5.50404 0
M  V30 6406 N 595.674 1.31259 -0.872281 0
M  V30 6407 C 596.584 2.32221 -0.333255 0
M  V30 6408 C 597.6 1.6481 0.558013 0
M  V30 6409 O 598.776 1.96212 0.454175 0
M  V30 6410 C 595.841 3.43708 0.454479 0
M  V30 6411 C 594.902 4.26774 -0.465024 0
M  V30 6412 C 594.135 5.32937 0.28521 0
M  V30 6413 O 594.358 5.49968 1.513 0
M  V30 6414 O 593.292 6.00834 -0.358126 0
M  V30 6415 H 597.118 2.80252 -1.17016 0
M  V30 6416 H 594.703 1.352 -0.635724 0
M  V30 6417 H 596.585 4.11656 0.900963 0
M  V30 6418 H 595.26 2.97836 1.26789 0
M  V30 6419 H 594.167 3.61571 -0.960055 0
M  V30 6420 H 595.5 4.76217 -1.2441 0
M  V30 6421 N 597.152 0.631951 1.44375 0
M  V30 6422 C 598.4 0.136497 2.01639 0
M  V30 6423 C 598.721 -1.24637 1.49969 0
M  V30 6424 O 597.991 -1.82827 0.70363 0
M  V30 6425 H 596.571 0.0474703 0.74549 0
M  V30 6426 H 599.233 0.818837 1.76865 0
M  V30 6427 H 598.329 0.104817 3.11924 0
M  V30 6428 N 598.631 -1.53133 0.372548 0
M  V30 6429 C 599.594 -2.24569 -0.458389 0
M  V30 6430 C 600.594 -1.25603 -1.00402 0
M  V30 6431 O 601.784 -1.49827 -0.888672 0
M  V30 6432 C 598.916 -2.98783 -1.6414 0
M  V30 6433 H 600.109 -2.99436 0.166799 0
M  V30 6434 H 597.662 -1.55805 0.124357 0
M  V30 6435 H 598.397 -2.28176 -2.30448 0
M  V30 6436 H 598.182 -3.71404 -1.25704 0
M  V30 6437 H 599.672 -3.53068 -2.23008 0
M  V30 6438 N 600.109 -0.101901 -1.5727 0
M  V30 6439 C 601.072 0.840129 -2.13247 0
M  V30 6440 C 602.072 1.20625 -1.06331 0
M  V30 6441 O 603.262 1.13456 -1.32186 0
M  V30 6442 C 600.394 2.13372 -2.65867 0
M  V30 6443 H 601.587 0.353945 -2.97804 0
M  V30 6444 H 599.14 0.147167 -1.55606 0
M  V30 6445 H 599.875 2.66461 -1.84849 0
M  V30 6446 H 599.66 1.88085 -3.44044 0
M  V30 6447 H 601.15 2.80748 -3.09145 0
M  V30 6448 N 601.587 1.56661 0.17182 0
M  V30 6449 C 602.864 1.72838 0.915778 0
M  V30 6450 C 603.244 0.66316 2.00413 0
M  V30 6451 O 602.592 -0.322123 2.26218 0
M  V30 6452 C 602.802 3.16019 1.48097 0
M  V30 6453 C 604.15 3.76962 1.95408 0
M  V30 6454 O 605.174 3.19294 1.57892 0
M  V30 6455 O 604.033 4.78219 2.64516 0
M  V30 6456 H 601.127 0.705797 0.431021 0
M  V30 6457 H 603.673 1.68947 0.159689 0
M  V30 6458 H 602.445 3.85031 0.697618 0
M  V30 6459 H 602.068 3.24234 2.30126 0
M  V30 6460 N 603.065 -0.440357 1.51323 0
M  V30 6461 C 604.015 -1.53263 1.68803 0
M  V30 6462 C 604.999 -1.51494 0.542057 0
M  V30 6463 O 606.191 -1.57999 0.797839 0
M  V30 6464 C 603.32 -2.91479 1.8137 0
M  V30 6465 C 602.406 -2.98015 3.01742 0
M  V30 6466 N 602.797 -2.743 4.24962 0
M  V30 6467 C 601.095 -3.29173 3.00934 0
M  V30 6468 C 601.796 -2.86601 5.06197 0
M  V30 6469 N 600.772 -3.1814 4.40781 0
M  V30 6470 H 604.574 -1.33675 2.61741 0
M  V30 6471 H 602.088 -0.647616 1.48929 0
M  V30 6472 H 604.085 -3.70055 1.92002 0
M  V30 6473 H 602.745 -3.12089 0.896117 0
M  V30 6474 H 603.756 -2.49287 4.53957 0
M  V30 6475 H 600.433 -3.55577 2.18796 0
M  V30 6476 H 601.823 -2.72246 6.14274 0
M  V30 6477 N 604.543 -1.41418 -0.695603 0
M  V30 6478 C 605.789 -1.41983 -1.45645 0
M  V30 6479 C 606.144 -0.0282216 -1.92379 0
M  V30 6480 O 605.437 0.945916 -1.66622 0
M  V30 6481 C 605.631 -2.36112 -2.68302 0
M  V30 6482 C 605.46 -3.84288 -2.33566 0
M  V30 6483 C 604.23 -4.52971 -2.23932 0
M  V30 6484 C 606.428 -4.75264 -1.96543 0
M  V30 6485 N 604.41 -5.86276 -1.82081 0
M  V30 6486 C 605.781 -5.97517 -1.6545 0
M  V30 6487 C 607.836 -4.62911 -1.83352 0
M  V30 6488 C 606.539 -7.08793 -1.22492 0
M  V30 6489 C 608.565 -5.74149 -1.41799 0
M  V30 6490 C 607.927 -6.95501 -1.11617 0
M  V30 6491 H 604.026 -0.574771 -0.530247 0
M  V30 6492 H 606.61 -1.77289 -0.804788 0
M  V30 6493 H 604.781 -2.02902 -3.31188 0
M  V30 6494 H 606.513 -2.27397 -3.34773 0
M  V30 6495 H 603.268 -4.06909 -2.42327 0
M  V30 6496 H 603.692 -6.56926 -1.63638 0
M  V30 6497 H 608.334 -3.69588 -2.05341 0
M  V30 6498 H 606.052 -8.01982 -0.992482 0
M  V30 6499 H 609.638 -5.66595 -1.32143 0
M  V30 6500 H 608.518 -7.80114 -0.799493 0
M  V30 6501 N 606.021 0.929856 -1.27246 0
M  V30 6502 C 606.969 2.05151 -1.09616 0
M  V30 6503 C 607.963 1.69388 -0.0198617 0
M  V30 6504 O 609.169 1.79124 -0.177417 0
M  V30 6505 H 605.544 0.671909 -0.337701 0
M  V30 6506 H 607.515 2.17168 -2.04648 0
M  V30 6507 C 606.264 3.3934 -0.757851 0
M  V30 6508 H 605.587 3.67343 -1.57795 0
M  V30 6509 H 607.027 4.18603 -0.674358 0
M  V30 6510 C 605.486 3.32582 0.537658 0
M  V30 6511 O 606.016 3.69633 1.57271 0
M  V30 6512 N 604.222 2.8568 0.532478 0
M  V30 6513 H 603.769 2.55725 -0.310233 0
M  V30 6514 H 603.727 2.81541 1.39936 0
M  V30 6515 N 607.499 1.09233 1.13605 0
M  V30 6516 C 608.449 0.6994 2.17008 0
M  V30 6517 C 609.433 -0.285238 1.58352 0
M  V30 6518 O 610.625 -0.09592 1.7674 0
M  V30 6519 C 607.754 0.11938 3.43092 0
M  V30 6520 C 606.84 1.13031 4.0876 0
M  V30 6521 N 607.231 2.31673 4.49623 0
M  V30 6522 C 605.529 0.967999 4.35369 0
M  V30 6523 C 606.23 2.95964 5.00779 0
M  V30 6524 N 605.206 2.23534 4.95513 0
M  V30 6525 H 609.008 1.60272 2.46354 0
M  V30 6526 H 606.522 0.968257 1.30378 0
M  V30 6527 H 608.519 -0.180122 4.16511 0
M  V30 6528 H 607.179 -0.778816 3.15221 0
M  V30 6529 H 608.19 2.69277 4.42391 0
M  V30 6530 H 604.867 0.124319 4.17315 0
M  V30 6531 H 606.257 3.96813 5.42208 0
M  V30 6532 N 608.977 -1.30795 0.87923 0
M  V30 6533 C 610.393 -1.48981 0.57243 0
M  V30 6534 C 610.593 -1.80719 -0.891236 0
M  V30 6535 O 609.649 -1.89136 -1.67283 0
M  V30 6536 C 610.962 -2.61721 1.48063 0
M  V30 6537 C 612.51 -2.75603 1.48365 0
M  V30 6538 C 612.985 -3.91449 2.37763 0
M  V30 6539 N 614.476 -3.98751 2.35695 0
M  V30 6540 C 615.211 -4.87684 3.01583 0
M  V30 6541 N 614.707 -5.81454 3.76674 0
M  V30 6542 N 616.5 -4.81005 2.90844 0
M  V30 6543 H 608.651 -1.08465 1.82617 0
M  V30 6544 H 610.914 -0.536813 0.781368 0
M  V30 6545 H 610.62 -2.45073 2.52254 0
M  V30 6546 H 610.494 -3.58071 1.18596 0
M  V30 6547 H 612.881 -2.9166 0.44927 0
M  V30 6548 H 612.962 -1.79891 1.81859 0
M  V30 6549 H 612.606 -3.76149 3.41283 0
M  V30 6550 H 612.536 -4.86487 2.01589 0
M  V30 6551 H 615.027 -3.31668 1.81121 0
M  V30 6552 H 615.34 -6.46063 4.24054 0
M  V30 6553 H 613.685 -5.81403 3.80782 0
M  V30 6554 H 616.876 -4.06728 2.31711 0
M  V30 6555 H 617.049 -5.50107 3.42471 0
M  V30 6556 N 610.455 -0.639598 -1.44038 0
M  V30 6557 C 611.365 0.0612377 -2.3452 0
M  V30 6558 C 612.381 0.826717 -1.53106 0
M  V30 6559 O 613.557 0.777059 -1.85806 0
M  V30 6560 C 610.622 1.02492 -3.31204 0
M  V30 6561 C 609.683 0.25788 -4.28525 0
M  V30 6562 C 608.916 1.17566 -5.2059 0
M  V30 6563 O 609.139 2.41461 -5.16771 0
M  V30 6564 O 608.073 0.655407 -5.98321 0
M  V30 6565 H 611.899 -0.68318 -2.95916 0
M  V30 6566 H 609.484 -0.399784 -1.43952 0
M  V30 6567 H 611.366 1.57911 -3.90694 0
M  V30 6568 H 610.041 1.7498 -2.7233 0
M  V30 6569 H 608.948 -0.339566 -3.72556 0
M  V30 6570 H 610.281 -0.427154 -4.90343 0
M  V30 6571 N 611.933 1.52934 -0.380664 0
M  V30 6572 C 613.21 1.93845 0.261417 0
M  V30 6573 C 613.59 1.31544 1.65104 0
M  V30 6574 O 612.938 0.480234 2.23397 0
M  V30 6575 C 613.148 3.47739 0.296466 0
M  V30 6576 C 614.496 4.21284 0.529578 0
M  V30 6577 O 615.52 3.54199 0.377041 0
M  V30 6578 O 614.379 5.40195 0.827753 0
M  V30 6579 H 611.473 0.811318 0.160285 0
M  V30 6580 H 614.019 1.64042 -0.434544 0
M  V30 6581 H 612.791 3.85395 -0.67724 0
M  V30 6582 H 612.414 3.8382 1.0377 0
M  V30 6583 N 613.412 0.11024 1.57214 0
M  V30 6584 C 614.322 -0.857077 2.18383 0
M  V30 6585 C 615.338 -1.29915 1.1575 0
M  V30 6586 O 616.514 -1.36394 1.48184 0
M  V30 6587 C 613.579 -2.09264 2.76423 0
M  V30 6588 C 612.64 -1.70333 3.94063 0
M  V30 6589 C 611.873 -2.87999 4.49324 0
M  V30 6590 O 612.096 -4.0317 4.03497 0
M  V30 6591 O 611.03 -2.6559 5.40135 0
M  V30 6592 H 614.856 -0.366561 3.0148 0
M  V30 6593 H 612.441 -0.114914 1.48957 0
M  V30 6594 H 614.323 -2.81644 3.13456 0
M  V30 6595 H 612.998 -2.57339 1.96363 0
M  V30 6596 H 611.905 -0.950864 3.61814 0
M  V30 6597 H 613.238 -1.27007 4.75531 0
M  V30 6598 N 614.89 -1.56749 -0.16351 0
M  V30 6599 C 616.167 -1.73321 -0.906599 0
M  V30 6600 C 616.547 -0.673779 -2.00059 0
M  V30 6601 O 615.895 0.310121 -2.26386 0
M  V30 6602 C 616.105 -3.168 -1.46419 0
M  V30 6603 C 617.453 -3.77993 -1.93407 0
M  V30 6604 O 618.477 -3.20127 -1.56196 0
M  V30 6605 O 617.336 -4.79615 -2.61976 0
M  V30 6606 H 614.43 -0.708073 -0.427272 0
M  V30 6607 H 616.976 -1.69029 -0.150727 0
M  V30 6608 H 615.748 -3.85396 -0.677189 0
M  V30 6609 H 615.371 -3.2545 -2.28403 0
M  V30 6610 N 616.368 0.432326 -1.51554 0
M  V30 6611 C 617.598 1.2019 -1.68042 0
M  V30 6612 C 618.006 1.85356 -0.379434 0
M  V30 6613 O 617.349 1.71724 0.652427 0
M  V30 6614 C 617.411 2.32387 -2.74292 0
M  V30 6615 C 617.075 1.87548 -4.16743 0
M  V30 6616 C 618.072 1.37611 -5.01357 0
M  V30 6617 C 615.757 1.95087 -4.62868 0
M  V30 6618 C 617.751 0.958069 -6.30159 0
M  V30 6619 C 615.438 1.52894 -5.91664 0
M  V30 6620 C 616.436 1.03336 -6.75137 0
M  V30 6621 O 616.124 0.617435 -8.01525 0
M  V30 6622 H 615.856 0.368132 -0.56697 0
M  V30 6623 H 618.41 0.517875 -1.98764 0
M  V30 6624 H 616.64 3.04082 -2.38895 0
M  V30 6625 H 618.329 2.94235 -2.79608 0
M  V30 6626 H 619.095 1.31178 -4.66923 0
M  V30 6627 H 614.974 2.32606 -3.98015 0
M  V30 6628 H 618.518 0.570562 -6.95263 0
M  V30 6629 H 614.415 1.58999 -6.25611 0
M  V30 6630 H 615.183 0.742835 -8.15122 0
M  V30 6631 N 617.846 1.41785 0.688094 0
M  V30 6632 C 619.093 1.41544 1.44816 0
M  V30 6633 C 619.421 0.0271746 1.94481 0
M  V30 6634 O 618.676 -0.962235 1.7041 0
M  V30 6635 C 618.975 2.37532 2.67046 0
M  V30 6636 C 618.641 3.84209 2.35996 0
M  V30 6637 C 617.303 4.24165 2.27239 0
M  V30 6638 C 619.655 4.76785 2.10536 0
M  V30 6639 C 616.983 5.54695 1.91128 0
M  V30 6640 C 619.335 6.07644 1.75931 0
M  V30 6641 C 617.999 6.46613 1.65675 0
M  V30 6642 H 617.269 0.517945 0.529919 0
M  V30 6643 H 619.916 1.74635 0.785797 0
M  V30 6644 H 618.221 1.9772 3.38251 0
M  V30 6645 H 619.918 2.34615 3.25203 0
M  V30 6646 H 616.508 3.52567 2.4371 0
M  V30 6647 H 620.692 4.46714 2.16242 0
M  V30 6648 H 615.948 5.83762 1.81746 0
M  V30 6649 H 620.122 6.78874 1.55252 0
M  V30 6650 H 617.749 7.47668 1.37463 0
M  V30 6651 N 619.324 -0.923095 1.27737 0
M  V30 6652 C 620.549 -1.71054 1.17283 0
M  V30 6653 C 620.974 -1.86208 -0.266153 0
M  V30 6654 O 620.332 -1.36545 -1.1927 0
M  V30 6655 C 620.38 -3.0854 1.86642 0
M  V30 6656 O 619.484 -3.95528 1.16752 0
M  V30 6657 H 618.825 -0.524136 0.407649 0
M  V30 6658 H 621.355 -1.15487 1.6889 0
M  V30 6659 H 621.365 -3.58828 1.94182 0
M  V30 6660 H 620.04 -2.96828 2.91317 0
M  V30 6661 H 618.617 -3.53967 1.17312 0
M  V30 6662 N 620.802 -1.09834 -1.13024 0
M  V30 6663 C 621.734 -0.699379 -2.18269 0
M  V30 6664 C 622.747 0.260841 -1.60697 0
M  V30 6665 O 623.936 0.0462538 -1.7844 0
M  V30 6666 C 621.036 -0.0104537 -3.38898 0
M  V30 6667 C 620.209 -0.993275 -4.25973 0
M  V30 6668 C 619.268 -0.336982 -5.2512 0
M  V30 6669 O 618.294 -0.985892 -5.60597 0
M  V30 6670 N 619.496 0.90716 -5.73368 0
M  V30 6671 H 622.261 -1.60486 -2.5311 0
M  V30 6672 H 619.822 -0.986337 -1.28386 0
M  V30 6673 H 621.814 0.43991 -4.02302 0
M  V30 6674 H 620.384 0.797335 -3.0226 0
M  V30 6675 H 619.604 -1.62208 -3.5928 0
M  V30 6676 H 620.892 -1.65876 -4.81002 0
M  V30 6677 H 620.29 1.45384 -5.46699 0
M  V30 6678 H 618.847 1.30077 -6.38689 0
M  V30 6679 N 622.28 1.30327 -0.886154 0
M  V30 6680 C 623.691 1.78243 -0.555554 0
M  V30 6681 C 624.042 1.72849 0.928314 0
M  V30 6682 O 623.167 1.30607 1.72542 0
M  V30 6683 C 623.762 3.23654 -1.00168 0
M  V30 6684 C 622.321 3.69401 -0.722471 0
M  V30 6685 C 621.468 2.50753 -1.18399 0
M  V30 6686 H 624.419 1.1718 -1.07026 0
M  V30 6687 H 624.44 3.79056 -0.331152 0
M  V30 6688 H 623.952 3.27548 -2.08169 0
M  V30 6689 H 622.053 3.70995 0.345496 0
M  V30 6690 H 622.166 4.60818 -1.31085 0
M  V30 6691 H 620.53 2.47452 -0.603303 0
M  V30 6692 H 621.313 2.57383 -2.27176 0
M  V30 6693 N 623.758 0.647228 1.43697 0
M  V30 6694 C 625.174 0.314256 1.56476 0
M  V30 6695 C 625.374 -1.18191 1.63196 0
M  V30 6696 O 624.43 -1.96655 1.58376 0
M  V30 6697 C 625.743 1.02034 2.82859 0
M  V30 6698 C 627.291 1.00002 2.96595 0
M  V30 6699 C 627.766 1.68689 4.25803 0
M  V30 6700 N 629.257 1.65424 4.32654 0
M  V30 6701 C 629.992 2.1545 5.31384 0
M  V30 6702 N 629.488 2.73738 6.36427 0
M  V30 6703 N 631.281 2.05985 5.22998 0
M  V30 6704 H 623.432 1.61821 1.37578 0
M  V30 6705 H 625.695 0.680184 0.660344 0
M  V30 6706 H 625.401 2.07542 2.83935 0
M  V30 6707 H 625.275 0.568146 3.72897 0
M  V30 6708 H 627.662 -0.0466319 2.95063 0
M  V30 6709 H 627.743 1.49086 2.07863 0
M  V30 6710 H 627.387 2.73308 4.28095 0
M  V30 6711 H 627.317 1.17076 5.13421 0
M  V30 6712 H 629.808 1.22884 3.57363 0
M  V30 6713 H 630.121 3.09602 7.08072 0
M  V30 6714 H 628.466 2.77796 6.37067 0
M  V30 6715 H 631.657 1.60157 4.39849 0
M  V30 6716 H 631.83 2.45281 5.99784 0
M  V30 6717 N 625.236 -1.5273 0.388769 0
M  V30 6718 C 626.199 -2.25043 -0.434544 0
M  V30 6719 C 627.199 -1.26661 -0.990644 0
M  V30 6720 O 628.389 -1.50762 -0.872731 0
M  V30 6721 C 625.521 -3.00507 -1.60961 0
M  V30 6722 H 626.714 -2.99242 0.198549 0
M  V30 6723 H 624.267 -1.55664 0.140875 0
M  V30 6724 H 625.002 -2.30607 -2.28015 0
M  V30 6725 H 624.787 -3.72716 -1.21757 0
M  V30 6726 H 626.277 -3.55413 -2.19251 0
M  V30 6727 N 626.714 -0.118576 -1.57153 0
M  V30 6728 C 627.644 0.828436 -2.1831 0
M  V30 6729 C 628.625 1.27758 -1.12303 0
M  V30 6730 O 629.81 1.34026 -1.40537 0
M  V30 6731 C 626.94 2.07876 -2.78217 0
M  V30 6732 C 625.894 1.76742 -3.89803 0
M  V30 6733 C 625.22 3.08801 -4.36516 0
M  V30 6734 C 626.52 1.03606 -5.11921 0
M  V30 6735 H 628.214 0.318824 -2.97698 0
M  V30 6736 H 625.76 0.151911 -1.43196 0
M  V30 6737 H 627.713 2.74584 -3.19659 0
M  V30 6738 H 626.437 2.61161 -1.96118 0
M  V30 6739 H 625.096 1.12424 -3.48936 0
M  V30 6740 H 624.744 3.6002 -3.51276 0
M  V30 6741 H 624.444 2.88743 -5.11763 0
M  V30 6742 H 625.968 3.76627 -4.80608 0
M  V30 6743 H 627.382 1.60467 -5.50385 0
M  V30 6744 H 625.779 0.936454 -5.92748 0
M  V30 6745 H 626.849 0.0227421 -4.84895 0
M  V30 6746 N 628.193 1.56834 0.155195 0
M  V30 6747 C 629.423 1.86778 0.883044 0
M  V30 6748 C 629.831 0.703824 1.75622 0
M  V30 6749 O 629.174 -0.33581 1.80605 0
M  V30 6750 C 629.236 3.1133 1.79761 0
M  V30 6751 C 628.9 4.43504 1.10242 0
M  V30 6752 C 629.897 5.17859 0.460204 0
M  V30 6753 C 627.582 4.90233 1.09437 0
M  V30 6754 C 629.576 6.37144 -0.180782 0
M  V30 6755 C 627.263 6.09444 0.449569 0
M  V30 6756 C 628.261 6.82744 -0.186888 0
M  V30 6757 O 627.949 7.99692 -0.821486 0
M  V30 6758 H 627.681 0.62352 0.261149 0
M  V30 6759 H 630.235 2.04813 0.155204 0
M  V30 6760 H 628.465 2.89282 2.56618 0
M  V30 6761 H 630.154 3.27587 2.39669 0
M  V30 6762 H 630.92 4.8283 0.458289 0
M  V30 6763 H 626.799 4.33109 1.57917 0
M  V30 6764 H 630.343 6.94296 -0.678154 0
M  V30 6765 H 626.24 6.43936 0.449123 0
M  V30 6766 H 627.008 8.15306 -0.722337 0
M  V30 6767 N 629.671 -0.424282 1.51781 0
M  V30 6768 C 630.581 -1.54087 1.76902 0
M  V30 6769 C 631.597 -1.61249 0.653826 0
M  V30 6770 O 632.773 -1.78247 0.937552 0
M  V30 6771 C 629.838 -2.8996 1.90063 0
M  V30 6772 C 628.899 -2.92809 3.13945 0
M  V30 6773 C 628.132 -4.22201 3.26469 0
M  V30 6774 O 628.355 -5.15286 2.44616 0
M  V30 6775 O 627.289 -4.31599 4.1953 0
M  V30 6776 H 631.115 -1.358 2.71647 0
M  V30 6777 H 628.7 -0.608618 1.36441 0
M  V30 6778 H 630.582 -3.70575 2.0063 0
M  V30 6779 H 629.257 -3.08347 0.985067 0
M  V30 6780 H 628.164 -2.11102 3.08847 0
M  V30 6781 H 629.497 -2.79369 4.05233 0
M  V30 6782 N 631.149 -1.42148 -0.680565 0
M  V30 6783 C 632.079 -1.4796 -1.80638 0
M  V30 6784 C 633.06 -0.336728 -1.66734 0
M  V30 6785 O 634.245 -0.550247 -1.86242 0
M  V30 6786 C 631.375 -1.37569 -3.18892 0
M  V30 6787 C 630.329 -2.49823 -3.47524 0
M  V30 6788 C 629.655 -2.24491 -4.85291 0
M  V30 6789 C 630.955 -3.92144 -3.44994 0
M  V30 6790 H 632.649 -2.42184 -1.76032 0
M  V30 6791 H 630.195 -1.16566 -0.845481 0
M  V30 6792 H 632.148 -1.40243 -3.97379 0
M  V30 6793 H 630.872 -0.398357 -3.24162 0
M  V30 6794 H 629.531 -2.46455 -2.71395 0
M  V30 6795 H 629.179 -1.25066 -4.87204 0
M  V30 6796 H 628.879 -2.99722 -5.05411 0
M  V30 6797 H 630.403 -2.28906 -5.66069 0
M  V30 6798 H 631.817 -3.97145 -4.13459 0
M  V30 6799 H 630.214 -4.67179 -3.76648 0
M  V30 6800 H 631.284 -4.19225 -2.43676 0
M  V30 6801 N 632.627 0.916307 -1.28225 0
M  V30 6802 C 633.557 2.0352 -1.14464 0
M  V30 6803 C 634.538 1.70045 -0.0430844 0
M  V30 6804 O 635.723 1.92954 -0.219619 0
M  V30 6805 C 632.853 3.37889 -0.803027 0
M  V30 6806 C 631.807 3.85516 -1.85908 0
M  V30 6807 C 631.133 5.1682 -1.37116 0
M  V30 6808 C 632.433 4.07655 -3.26519 0
M  V30 6809 H 634.127 2.1529 -2.08064 0
M  V30 6810 H 631.673 1.03446 -1.00174 0
M  V30 6811 H 633.626 4.15654 -0.693537 0
M  V30 6812 H 632.35 3.26164 0.168674 0
M  V30 6813 H 631.009 3.09953 -1.95767 0
M  V30 6814 H 630.657 5.01497 -0.38859 0
M  V30 6815 H 630.357 5.49657 -2.07728 0
M  V30 6816 H 631.881 5.97143 -1.27484 0
M  V30 6817 H 633.295 4.75953 -3.19596 0
M  V30 6818 H 631.692 4.51818 -3.94943 0
M  V30 6819 H 632.762 3.12553 -3.70727 0
M  V30 6820 N 634.105 1.10431 1.1244 0
M  V30 6821 C 635.33 0.869089 1.88313 0
M  V30 6822 C 635.755 -0.574912 1.79099 0
M  V30 6823 O 635.113 -1.40496 1.14589 0
M  V30 6824 C 635.161 1.32208 3.3549 0
M  V30 6825 O 634.265 0.487092 4.09513 0
M  V30 6826 H 633.606 0.313894 0.585121 0
M  V30 6827 H 636.136 1.47111 1.42195 0
M  V30 6828 H 636.146 1.31201 3.86329 0
M  V30 6829 H 634.821 2.37364 3.41513 0
M  V30 6830 H 633.398 0.562372 3.68635 0
M  V30 6831 N 635.583 -1.29855 0.893053 0
M  V30 6832 C 636.86 -1.90694 0.435336 0
M  V30 6833 C 637.24 -1.8111 -1.08454 0
M  V30 6834 O 636.588 -1.23352 -1.92345 0
M  V30 6835 C 636.798 -3.36033 0.942472 0
M  V30 6836 C 638.146 -4.13083 0.982226 0
M  V30 6837 O 639.17 -3.4491 0.889686 0
M  V30 6838 O 638.029 -5.34896 1.12022 0
M  V30 6839 H 635.123 -0.815978 0.134567 0
M  V30 6840 H 637.669 -1.38367 0.982484 0
M  V30 6841 H 636.441 -3.37132 1.9864 0
M  V30 6842 H 636.064 -3.95828 0.374952 0
M  V30 6843 N 637.061 -0.65484 -1.43351 0
M  V30 6844 C 638.338 -0.0987371 -1.95351 0
M  V30 6845 C 638.718 1.38161 -1.59608 0
M  V30 6846 O 638.066 2.10791 -0.882021 0
M  V30 6847 C 638.276 -0.346684 -3.47274 0
M  V30 6848 C 639.624 -0.25249 -4.23849 0
M  V30 6849 O 640.648 -0.279332 -3.55103 0
M  V30 6850 O 639.507 -0.177584 -5.46211 0
M  V30 6851 H 636.601 0.0086829 -0.826954 0
M  V30 6852 H 639.147 -0.728189 -1.53282 0
M  V30 6853 H 637.919 -1.37296 -3.66423 0
M  V30 6854 H 637.542 0.315757 -3.96344 0
M  V30 6855 N 638.539 1.52521 -0.396863 0
M  V30 6856 C 639.449 2.30403 0.44178 0
M  V30 6857 C 640.465 1.37625 1.06468 0
M  V30 6858 O 641.641 1.70697 1.06886 0
M  V30 6859 C 638.706 3.1013 1.54986 0
M  V30 6860 C 637.767 4.18628 0.951279 0
M  V30 6861 C 637 4.94543 2.00655 0
M  V30 6862 O 637.223 4.70629 3.22281 0
M  V30 6863 O 636.157 5.797 1.61962 0
M  V30 6864 H 639.983 3.03087 -0.192892 0
M  V30 6865 H 637.568 1.48537 -0.16038 0
M  V30 6866 H 639.45 3.59816 2.19341 0
M  V30 6867 H 638.125 2.40251 2.16935 0
M  V30 6868 H 637.032 3.73119 0.270773 0
M  V30 6869 H 638.365 4.90763 0.375887 0
M  V30 6870 N 640.017 0.126909 1.57088 0
M  V30 6871 C 640.967 -0.831678 2.1229 0
M  V30 6872 C 641.951 -1.22292 1.04564 0
M  V30 6873 O 643.143 -1.19269 1.30782 0
M  V30 6874 C 640.272 -2.07866 2.73215 0
M  V30 6875 C 639.358 -1.71143 3.88035 0
M  V30 6876 N 639.749 -1.05136 4.94753 0
M  V30 6877 C 638.047 -2.00549 3.98367 0
M  V30 6878 C 638.748 -0.877257 5.75047 0
M  V30 6879 N 637.724 -1.40477 5.25135 0
M  V30 6880 H 641.526 -0.317926 2.92175 0
M  V30 6881 H 639.04 -0.0753052 1.62225 0
M  V30 6882 H 641.037 -2.77516 3.11111 0
M  V30 6883 H 639.697 -2.59778 1.94796 0
M  V30 6884 H 640.708 -0.71442 5.12949 0
M  V30 6885 H 637.385 -2.54452 3.30999 0
M  V30 6886 H 638.775 -0.358536 6.70943 0
M  V30 6887 N 641.495 -1.56914 -0.146875 0
M  V30 6888 C 642.427 -1.94878 -1.20645 0
M  V30 6889 C 643.44 -0.844633 -1.39175 0
M  V30 6890 O 644.629 -1.12304 -1.38744 0
M  V30 6891 C 641.729 -2.20769 -2.57127 0
M  V30 6892 C 640.902 -3.52053 -2.59572 0
M  V30 6893 C 639.961 -3.66482 -3.77594 0
M  V30 6894 O 638.987 -4.38873 -3.62462 0
M  V30 6895 N 640.189 -3.03156 -4.95052 0
M  V30 6896 H 642.954 -2.86374 -0.883757 0
M  V30 6897 H 640.515 -1.58366 -0.336436 0
M  V30 6898 H 642.507 -2.27664 -3.34591 0
M  V30 6899 H 641.077 -1.35538 -2.81688 0
M  V30 6900 H 640.297 -3.56598 -1.68023 0
M  V30 6901 H 641.585 -4.38396 -2.58238 0
M  V30 6902 H 640.983 -2.44258 -5.10249 0
M  V30 6903 H 639.54 -3.15611 -5.70292 0
M  V30 6904 N 642.974 0.416227 -1.52004 0
M  V30 6905 C 644.39 0.754319 -1.40649 0
M  V30 6906 C 644.59 1.95059 -0.505392 0
M  V30 6907 O 643.646 2.5248 0.0315057 0
M  V30 6908 C 644.959 1.0149 -2.83055 0
M  V30 6909 C 646.507 1.11805 -2.9235 0
M  V30 6910 C 646.982 1.41144 -4.35709 0
M  V30 6911 N 648.473 1.48024 -4.38911 0
M  V30 6912 C 649.208 1.72338 -5.46889 0
M  V30 6913 N 648.704 1.94303 -6.64995 0
M  V30 6914 N 650.497 1.74294 -5.34395 0
M  V30 6915 H 642.648 -0.371324 -2.09129 0
M  V30 6916 H 644.911 -0.103811 -0.942299 0
M  V30 6917 H 644.617 0.208345 -3.51082 0
M  V30 6918 H 644.491 1.93697 -3.23668 0
M  V30 6919 H 646.878 1.91521 -2.24508 0
M  V30 6920 H 646.959 0.17451 -2.55204 0
M  V30 6921 H 646.603 0.619484 -5.04108 0
M  V30 6922 H 646.533 2.36739 -4.70385 0
M  V30 6923 H 649.024 1.32868 -3.53772 0
M  V30 6924 H 649.337 2.12286 -7.43071 0
M  V30 6925 H 647.682 1.91582 -6.68073 0
M  V30 6926 H 650.873 1.56667 -4.41104 0
M  V30 6927 H 651.046 1.92904 -6.18621 0
M  V30 6928 N 644.452 1.42507 0.673017 0
M  V30 6929 C 645.385 1.40557 1.79774 0
M  V30 6930 C 646.363 0.269606 1.60349 0
M  V30 6931 O 647.547 0.460105 1.82798 0
M  V30 6932 C 644.674 1.19815 3.168 0
M  V30 6933 C 643.72 2.36429 3.5497 0
M  V30 6934 S 644.553 3.98963 3.57196 0
M  V30 6935 C 645.709 3.80567 4.9691 0
M  V30 6936 H 645.942 2.35734 1.81154 0
M  V30 6937 H 643.475 1.293 0.843846 0
M  V30 6938 H 645.433 1.08535 3.95892 0
M  V30 6939 H 644.094 0.262215 3.13004 0
M  V30 6940 H 643.287 2.17669 4.54573 0
M  V30 6941 H 642.889 2.44233 2.83242 0
M  V30 6942 H 645.181 3.41668 5.85038 0
M  V30 6943 H 646.124 4.79852 5.20718 0
M  V30 6944 H 646.532 3.13399 4.69512 0
M  V30 6945 N 645.93 -0.909495 1.28709 0
M  V30 6946 C 647.177 -1.65905 1.16111 0
M  V30 6947 C 647.505 -1.92334 -0.289436 0
M  V30 6948 O 646.76 -1.52495 -1.22653 0
M  V30 6949 C 647.059 -3.02117 1.90945 0
M  V30 6950 C 646.725 -2.95332 3.40719 0
M  V30 6951 C 645.387 -2.93189 3.81567 0
M  V30 6952 C 647.739 -2.85264 4.36204 0
M  V30 6953 C 645.067 -2.78784 5.16233 0
M  V30 6954 C 647.419 -2.724 5.70948 0
M  V30 6955 C 646.083 -2.68617 6.11066 0
M  V30 6956 H 645.353 -0.60709 0.42488 0
M  V30 6957 H 648 -1.05932 1.59533 0
M  V30 6958 H 646.305 -3.65901 1.40085 0
M  V30 6959 H 648.002 -3.59026 1.7861 0
M  V30 6960 H 644.592 -2.97797 3.08245 0
M  V30 6961 H 648.776 -2.86005 4.05605 0
M  V30 6962 H 644.032 -2.74254 5.46438 0
M  V30 6963 H 648.206 -2.63579 6.44592 0
M  V30 6964 H 645.833 -2.57213 7.15364 0
M  V30 6965 N 647.408 -1.11026 -1.11852 0
M  V30 6966 C 648.371 -0.768006 -2.1595 0
M  V30 6967 C 649.371 0.210538 -1.59416 0
M  V30 6968 O 650.561 -0.0133978 -1.74195 0
M  V30 6969 C 647.693 -0.138678 -3.40618 0
M  V30 6970 H 648.886 -1.69012 -2.4774 0
M  V30 6971 H 646.439 -0.911578 -1.26964 0
M  V30 6972 H 647.174 0.793872 -3.14433 0
M  V30 6973 H 646.959 -0.843012 -3.8293 0
M  V30 6974 H 648.449 0.0848039 -4.17514 0
M  V30 6975 N 648.886 1.2938 -0.899927 0
M  V30 6976 C 650.302 1.48052 -0.596059 0
M  V30 6977 C 650.502 1.82114 0.862372 0
M  V30 6978 O 649.558 1.91774 1.64253 0
M  V30 6979 C 650.871 2.59332 -1.52208 0
M  V30 6980 C 652.419 2.73208 -1.5273 0
M  V30 6981 C 652.894 3.87617 -2.43961 0
M  V30 6982 N 654.385 3.9495 -2.42009 0
M  V30 6983 C 655.12 4.82824 -3.09303 0
M  V30 6984 N 654.616 5.75387 -3.85877 0
M  V30 6985 N 656.409 4.76317 -2.98459 0
M  V30 6986 H 648.56 1.05546 -1.8432 0
M  V30 6987 H 650.823 0.524314 -0.78981 0
M  V30 6988 H 650.529 2.41029 -2.56121 0
M  V30 6989 H 650.403 3.56139 -1.24278 0
M  V30 6990 H 652.79 2.90908 -0.495614 0
M  V30 6991 H 652.871 1.76975 -1.84698 0
M  V30 6992 H 652.515 3.70672 -3.47224 0
M  V30 6993 H 652.445 4.83218 -2.09303 0
M  V30 6994 H 654.936 3.28744 -1.86375 0
M  V30 6995 H 655.249 6.39235 -4.34279 0
M  V30 6996 H 653.594 5.75272 -3.89984 0
M  V30 6997 H 656.785 4.0299 -2.38152 0
M  V30 6998 H 656.958 5.44589 -3.51179 0
M  V30 6999 N 650.364 0.662433 1.43002 0
M  V30 7000 C 651.613 0.176873 2.00923 0
M  V30 7001 C 651.926 -1.21954 1.52927 0
M  V30 7002 O 653.132 -1.80081 2.03182 0
M  V30 7003 C 651.588 0.265379 3.5892 0
M  V30 7004 C 651.196 1.66507 4.15908 0
M  V30 7005 C 652.94 -0.162103 4.2419 0
M  V30 7006 C 650.847 1.707 5.66229 0
M  V30 7007 H 649.777 0.0623627 0.751417 0
M  V30 7008 H 652.428 0.825813 1.63868 0
M  V30 7009 H 650.81 -0.451235 3.93421 0
M  V30 7010 H 651.984 2.40777 3.92891 0
M  V30 7011 H 650.299 2.03932 3.63044 0
M  V30 7012 H 652.896 -0.150745 5.34487 0
M  V30 7013 H 653.239 -1.19519 3.98774 0
M  V30 7014 H 653.772 0.503075 3.94606 0
M  V30 7015 H 650.511 2.7195 5.96426 0
M  V30 7016 H 650.031 1.00768 5.91275 0
M  V30 7017 H 651.71 1.45487 6.3043 0
M  V30 7018 N 651.842 -1.52309 0.404946 0
M  V30 7019 C 652.805 -2.25491 -0.410651 0
M  V30 7020 C 653.805 -1.27704 -0.977154 0
M  V30 7021 O 654.995 -1.51679 -0.856691 0
M  V30 7022 C 652.127 -3.02197 -1.57765 0
M  V30 7023 H 653.32 -2.99015 0.230277 0
M  V30 7024 H 650.873 -1.55506 0.157377 0
M  V30 7025 H 651.608 -2.33013 -2.25556 0
M  V30 7026 H 651.393 -3.73987 -1.17797 0
M  V30 7027 H 652.883 -3.57719 -2.15469 0
M  V30 7028 N 653.32 -0.135238 -1.57019 0
M  V30 7029 C 654.568 0.51777 -1.95355 0
M  V30 7030 C 654.889 1.6617 -1.02042 0
M  V30 7031 O 654.159 1.95738 -0.0797343 0
M  V30 7032 H 652.739 0.194264 -0.721298 0
M  V30 7033 H 655.401 -0.207983 -1.93787 0
M  V30 7034 H 654.497 0.901675 -2.98791 0
M  V30 7035 N 654.798 1.5699 0.138552 0
M  V30 7036 C 655.708 2.02174 1.19008 0
M  V30 7037 C 656.724 0.938622 1.46512 0
M  V30 7038 O 657.9 1.24872 1.58016 0
M  V30 7039 C 654.965 2.40045 2.50159 0
M  V30 7040 C 654.026 3.62346 2.30226 0
M  V30 7041 C 653.259 3.98401 3.55123 0
M  V30 7042 O 653.482 3.35019 4.61647 0
M  V30 7043 O 652.416 4.91606 3.47285 0
M  V30 7044 H 656.242 2.91954 0.836452 0
M  V30 7045 H 653.827 1.45293 0.347907 0
M  V30 7046 H 655.709 2.65225 3.27465 0
M  V30 7047 H 654.384 1.53417 2.85035 0
M  V30 7048 H 653.291 3.42341 1.50843 0
M  V30 7049 H 654.624 4.49617 2.00262 0
M  V30 7050 N 656.276 -0.40816 1.52223 0
M  V30 7051 C 657.206 -1.5042 1.78595 0
M  V30 7052 C 658.187 -1.57723 0.636974 0
M  V30 7053 O 659.372 -1.72982 0.882664 0
M  V30 7054 C 656.502 -2.88232 1.93751 0
M  V30 7055 C 655.456 -2.95779 3.09352 0
M  V30 7056 C 654.782 -4.35855 3.09732 0
M  V30 7057 C 656.082 -2.67175 4.48793 0
M  V30 7058 H 657.776 -1.28601 2.70374 0
M  V30 7059 H 655.322 -0.617221 1.30101 0
M  V30 7060 H 657.275 -3.64895 2.10783 0
M  V30 7061 H 655.999 -3.11347 0.986443 0
M  V30 7062 H 654.658 -2.21561 2.92072 0
M  V30 7063 H 654.306 -4.55981 2.12346 0
M  V30 7064 H 654.006 -4.41829 3.87377 0
M  V30 7065 H 655.53 -5.14451 3.28895 0
M  V30 7066 H 656.944 -3.3356 4.66273 0
M  V30 7067 H 655.341 -2.84523 5.28362 0
M  V30 7068 H 656.411 -1.62609 4.56822 0
M  V30 7069 N 657.755 -1.42862 -0.66545 0
M  V30 7070 C 658.98 -1.47456 -1.45848 0
M  V30 7071 C 659.405 -0.0900312 -1.87884 0
M  V30 7072 O 658.763 0.913587 -1.56599 0
M  V30 7073 C 658.811 -2.41514 -2.67774 0
M  V30 7074 O 657.915 -1.89296 -3.66389 0
M  V30 7075 H 657.256 -0.499236 -0.437789 0
M  V30 7076 H 659.786 -1.8765 -0.815394 0
M  V30 7077 H 659.796 -2.58409 -3.15735 0
M  V30 7078 H 658.471 -3.42099 -2.36519 0
M  V30 7079 H 657.048 -1.82003 -3.25468 0
M  V30 7080 N 659.233 0.902656 -1.29189 0
M  V30 7081 C 660.165 2.01149 -1.09872 0
M  V30 7082 C 661.178 1.62732 -0.0471046 0
M  V30 7083 O 662.367 1.76107 -0.29132 0
M  V30 7084 C 659.467 3.32612 -0.649818 0
M  V30 7085 C 658.64 3.99574 -1.7793 0
M  V30 7086 C 657.699 5.09325 -1.32191 0
M  V30 7087 O 656.725 5.31919 -2.02611 0
M  V30 7088 N 657.927 5.80185 -0.191171 0
M  V30 7089 H 660.692 2.18276 -2.05368 0
M  V30 7090 H 658.253 1.07466 -1.2109 0
M  V30 7091 H 660.245 4.03375 -0.327199 0
M  V30 7092 H 658.815 3.11876 0.212597 0
M  V30 7093 H 658.035 3.22213 -2.27095 0
M  V30 7094 H 659.323 4.41056 -2.53668 0
M  V30 7095 H 658.721 5.64312 0.396016 0
M  V30 7096 H 657.278 6.5176 0.0721001 0
M  V30 7097 N 660.711 1.11618 1.11262 0
M  V30 7098 C 661.674 0.779447 2.15539 0
M  V30 7099 C 662.674 -0.202081 1.59525 0
M  V30 7100 O 663.864 0.0226356 1.74185 0
M  V30 7101 C 660.996 0.15674 3.40539 0
M  V30 7102 H 662.189 1.70324 2.4684 0
M  V30 7103 H 659.742 0.918298 1.26479 0
M  V30 7104 H 660.477 -0.777186 3.1485 0
M  V30 7105 H 660.262 0.863308 3.82478 0
M  V30 7106 H 661.752 -0.062661 4.17553 0
M  V30 7107 N 662.189 -1.289 0.906776 0
M  V30 7108 C 663.414 -1.99939 0.551303 0
M  V30 7109 C 663.839 -1.67366 -0.858496 0
M  V30 7110 O 663.197 -0.902176 -1.57259 0
M  V30 7111 C 663.245 -3.52523 0.758937 0
M  V30 7112 O 662.349 -4.11983 -0.185308 0
M  V30 7113 H 661.69 -0.628376 0.214568 0
M  V30 7114 H 664.22 -1.64225 1.2203 0
M  V30 7115 H 664.23 -4.02522 0.666329 0
M  V30 7116 H 662.905 -3.75566 1.78671 0
M  V30 7117 H 661.482 -3.72873 -0.0445577 0
M  V30 7118 N 663.667 -0.670007 -1.42649 0
M  V30 7119 C 664.614 0.0112928 -2.30797 0
M  V30 7120 C 665.584 0.797627 -1.45695 0
M  V30 7121 O 666.769 0.770845 -1.74535 0
M  V30 7122 C 663.909 0.95998 -3.31479 0
M  V30 7123 C 663.022 0.167975 -4.31673 0
M  V30 7124 C 662.157 1.11198 -5.19431 0
M  V30 7125 C 661.196 0.311381 -6.11307 0
M  V30 7126 N 660.333 1.20784 -6.91633 0
M  V30 7127 H 665.173 -0.746231 -2.88505 0
M  V30 7128 H 662.71 -0.379739 -1.42114 0
M  V30 7129 H 664.668 1.52379 -3.88377 0
M  V30 7130 H 663.298 1.68419 -2.75382 0
M  V30 7131 H 662.35 -0.512385 -3.76933 0
M  V30 7132 H 663.662 -0.453814 -4.96731 0
M  V30 7133 H 662.816 1.74587 -5.81037 0
M  V30 7134 H 661.555 1.76766 -4.54538 0
M  V30 7135 H 660.56 -0.335758 -5.48774 0
M  V30 7136 H 661.785 -0.340135 -6.78248 0
M  V30 7137 H 659.731 1.85001 -6.29373 0
M  V30 7138 H 659.648 0.64102 -7.53277 0
M  V30 7139 H 660.916 1.82936 -7.5773 0
M  V30 7140 N 665.145 1.52092 -0.413018 0
M  V30 7141 C 666.055 2.30858 0.417318 0
M  V30 7142 C 667.071 1.38746 1.05003 0
M  V30 7143 O 668.247 1.71821 1.05069 0
M  V30 7144 C 665.312 3.11756 1.51687 0
M  V30 7145 C 664.373 4.19613 0.906825 0
M  V30 7146 C 663.606 4.96644 1.95399 0
M  V30 7147 O 663.829 4.7402 3.17271 0
M  V30 7148 O 662.763 5.81385 1.55805 0
M  V30 7149 H 666.589 3.02865 -0.225028 0
M  V30 7150 H 664.174 1.48358 -0.176126 0
M  V30 7151 H 666.056 3.62122 2.15512 0
M  V30 7152 H 664.731 2.42539 2.14375 0
M  V30 7153 H 663.638 3.73385 0.231183 0
M  V30 7154 H 664.971 4.91134 0.323814 0
M  V30 7155 N 666.623 0.143563 1.56945 0
M  V30 7156 C 667.851 -0.515447 2.00377 0
M  V30 7157 C 668.266 -1.58643 1.02361 0
M  V30 7158 O 667.623 -1.82489 0.0201039 0
M  V30 7159 C 667.674 -1.11923 3.43737 0
M  V30 7160 O 667.395 -0.0910318 4.38005 0
M  V30 7161 C 668.896 -1.85918 4.02429 0
M  V30 7162 H 666.116 -0.134478 0.657386 0
M  V30 7163 H 668.66 0.237135 2.0312 0
M  V30 7164 H 666.815 -1.82245 3.41856 0
M  V30 7165 H 667.229 -0.532916 5.21786 0
M  V30 7166 H 668.703 -2.2346 5.04747 0
M  V30 7167 H 669.18 -2.7438 3.42947 0
M  V30 7168 H 669.786 -1.20303 4.07931 0
M  V30 7169 N 668.101 -1.57061 -0.130224 0
M  V30 7170 C 669.033 -1.96147 -1.18571 0
M  V30 7171 C 670.046 -0.859347 -1.38272 0
M  V30 7172 O 671.235 -1.13769 -1.37545 0
M  V30 7173 C 668.335 -2.23484 -2.54771 0
M  V30 7174 C 667.508 -3.54786 -2.55824 0
M  V30 7175 C 666.567 -3.70467 -3.73686 0
M  V30 7176 O 665.593 -4.42693 -3.57787 0
M  V30 7177 N 666.795 -3.08389 -4.91809 0
M  V30 7178 H 669.56 -2.87295 -0.853333 0
M  V30 7179 H 667.121 -1.58714 -0.319621 0
M  V30 7180 H 669.113 -2.312 -3.32158 0
M  V30 7181 H 667.683 -1.38518 -2.80235 0
M  V30 7182 H 666.903 -3.5836 -1.64232 0
M  V30 7183 H 668.191 -4.4111 -2.53573 0
M  V30 7184 H 667.589 -2.49656 -5.0763 0
M  V30 7185 H 666.146 -3.21642 -5.66912 0
M  V30 7186 N 669.579 0.400081 -1.52437 0
M  V30 7187 C 670.511 1.50729 -1.72666 0
M  V30 7188 C 671.524 1.51058 -0.607075 0
M  V30 7189 O 672.713 1.5516 -0.88248 0
M  V30 7190 C 669.813 2.89604 -1.76019 0
M  V30 7191 C 668.986 3.13365 -3.05157 0
M  V30 7192 C 668.045 4.32163 -3.00203 0
M  V30 7193 O 667.071 4.29004 -3.74092 0
M  V30 7194 N 668.273 5.3776 -2.18619 0
M  V30 7195 H 671.038 1.33767 -2.68191 0
M  V30 7196 H 668.599 0.58948 -1.50787 0
M  V30 7197 H 670.591 3.67159 -1.70225 0
M  V30 7198 H 669.161 2.99979 -0.879284 0
M  V30 7199 H 668.381 2.23774 -3.24529 0
M  V30 7200 H 669.669 3.26089 -3.90568 0
M  V30 7201 H 669.067 5.43177 -1.58035 0
M  V30 7202 H 667.624 6.14023 -2.18674 0
M  V30 7203 N 671.057 1.43213 0.657864 0
M  V30 7204 C 672.473 1.26511 0.972992 0
M  V30 7205 C 672.673 0.181477 2.00681 0
M  V30 7206 O 671.729 -0.441649 2.48608 0
M  V30 7207 C 673.042 2.62784 1.46168 0
M  V30 7208 C 674.59 2.70278 1.57857 0
M  V30 7209 C 675.065 4.06958 2.10117 0
M  V30 7210 N 676.556 4.08999 2.17426 0
M  V30 7211 C 677.291 5.11585 2.58975 0
M  V30 7212 N 676.787 6.24548 2.99853 0
M  V30 7213 N 678.58 4.9894 2.58873 0
M  V30 7214 H 670.731 2.12384 -0.0263129 0
M  V30 7215 H 672.994 0.946638 0.0507992 0
M  V30 7216 H 672.7 3.43022 0.776474 0
M  V30 7217 H 672.574 2.87863 2.43751 0
M  V30 7218 H 674.961 1.90376 2.25479 0
M  V30 7219 H 675.042 2.4897 0.587179 0
M  V30 7220 H 674.686 4.87325 1.43098 0
M  V30 7221 H 674.616 4.25628 3.10078 0
M  V30 7222 H 677.107 3.27457 1.88627 0
M  V30 7223 H 677.42 6.98661 3.30292 0
M  V30 7224 H 675.765 6.28027 2.97669 0
M  V30 7225 H 678.956 4.09757 2.26311 0
M  V30 7226 H 679.129 5.79019 2.90932 0
M  V30 7227 N 672.536 -0.895792 1.29666 0
M  V30 7228 C 673.468 -2.00563 1.10937 0
M  V30 7229 C 674.481 -1.62705 0.055734 0
M  V30 7230 O 675.67 -1.7595 0.300656 0
M  V30 7231 C 672.77 -3.32262 0.667448 0
M  V30 7232 C 671.943 -3.98625 1.80047 0
M  V30 7233 C 671.002 -5.08617 1.3489 0
M  V30 7234 O 670.028 -5.30837 2.05429 0
M  V30 7235 N 671.23 -5.80076 0.221937 0
M  V30 7236 H 673.995 -2.17184 2.06522 0
M  V30 7237 H 671.556 -1.06822 1.21658 0
M  V30 7238 H 673.548 -4.03196 0.348586 0
M  V30 7239 H 672.118 -3.11985 -0.196055 0
M  V30 7240 H 671.338 -3.21005 2.28801 0
M  V30 7241 H 672.626 -4.39704 2.56003 0
M  V30 7242 H 672.024 -5.64514 -0.366084 0
M  V30 7243 H 670.581 -6.51789 -0.0375346 0
M  V30 7244 N 674.014 -1.12206 -1.10668 0
M  V30 7245 C 675.263 -0.870595 -1.81944 0
M  V30 7246 C 675.576 0.605447 -1.85994 0
M  V30 7247 O 676.782 0.973433 -2.53449 0
M  V30 7248 C 675.238 -1.50783 -3.26791 0
M  V30 7249 C 674.846 -3.01849 -3.31046 0
M  V30 7250 C 676.59 -1.33653 -4.02911 0
M  V30 7251 C 674.497 -3.58518 -4.70339 0
M  V30 7252 H 673.427 -0.322043 -0.681765 0
M  V30 7253 H 676.078 -1.34827 -1.24475 0
M  V30 7254 H 674.46 -0.957825 -3.84242 0
M  V30 7255 H 675.634 -3.63321 -2.83433 0
M  V30 7256 H 673.949 -3.18346 -2.68411 0
M  V30 7257 H 676.546 -1.73416 -5.05797 0
M  V30 7258 H 676.889 -0.279949 -4.15358 0
M  V30 7259 H 677.422 -1.85562 -3.51868 0
M  V30 7260 H 674.161 -4.63925 -4.63091 0
M  V30 7261 H 673.681 -3.01819 -5.18329 0
M  V30 7262 H 675.36 -3.57434 -5.39305 0
M  V30 7263 N 675.492 1.28418 -0.913599 0
M  V30 7264 C 676.769 1.89977 -0.465619 0
M  V30 7265 C 677.149 1.82813 1.05559 0
M  V30 7266 O 676.497 1.26397 1.90358 0
M  V30 7267 C 676.707 3.34492 -0.995813 0
M  V30 7268 C 678.055 4.11468 -1.04782 0
M  V30 7269 O 679.079 3.43451 -0.944445 0
M  V30 7270 O 677.938 5.33046 -1.20518 0
M  V30 7271 H 675.032 0.813734 -0.147532 0
M  V30 7272 H 677.578 1.36786 -1.00437 0
M  V30 7273 H 676.35 3.33929 -2.03978 0
M  V30 7274 H 675.973 3.95181 -0.437878 0
M  V30 7275 N 676.97 0.677563 1.42291 0
M  V30 7276 C 677.9 0.014968 2.33495 0
M  V30 7277 C 678.881 -0.786376 1.50831 0
M  V30 7278 O 680.066 -0.742975 1.79426 0
M  V30 7279 C 677.196 -0.935023 3.34477 0
M  V30 7280 C 676.15 -0.242074 4.27315 0
M  V30 7281 C 675.476 -1.30519 5.18526 0
M  V30 7282 C 676.776 0.880604 5.14823 0
M  V30 7283 H 678.47 0.776671 2.89151 0
M  V30 7284 H 676.016 0.37494 1.39033 0
M  V30 7285 H 677.969 -1.40766 3.97194 0
M  V30 7286 H 676.693 -1.72818 2.77131 0
M  V30 7287 H 675.352 0.210351 3.65996 0
M  V30 7288 H 675 -2.09041 4.57505 0
M  V30 7289 H 674.7 -0.846652 5.81468 0
M  V30 7290 H 676.224 -1.7787 5.84119 0
M  V30 7291 H 677.638 0.489062 5.7121 0
M  V30 7292 H 676.035 1.26511 5.86613 0
M  V30 7293 H 677.105 1.72818 4.53059 0
M  V30 7294 N 678.448 -1.51871 0.421078 0
M  V30 7295 C 679.695 -2.01938 -0.15079 0
M  V30 7296 C 680.023 -1.30611 -1.44121 0
M  V30 7297 O 679.278 -0.404631 -1.91471 0
M  V30 7298 C 679.577 -3.54764 -0.433292 0
M  V30 7299 C 679.243 -4.44288 0.76936 0
M  V30 7300 C 677.905 -4.68477 1.09921 0
M  V30 7301 C 680.257 -4.96915 1.57242 0
M  V30 7302 C 677.585 -5.4254 2.2331 0
M  V30 7303 C 679.937 -5.7222 2.69716 0
M  V30 7304 C 678.601 -5.94678 3.03174 0
M  V30 7305 H 677.871 -0.738943 -0.0551781 0
M  V30 7306 H 680.518 -1.82977 0.564945 0
M  V30 7307 H 678.823 -3.71968 -1.23074 0
M  V30 7308 H 680.52 -3.91023 -0.888922 0
M  V30 7309 H 677.11 -4.25646 0.502305 0
M  V30 7310 H 681.294 -4.78125 1.3308 0
M  V30 7311 H 676.55 -5.58146 2.49565 0
M  V30 7312 H 680.724 -6.11992 3.32323 0
M  V30 7313 H 678.351 -6.51848 3.9115 0
M  V30 7314 N 679.926 -0.151884 -1.56866 0
M  V30 7315 C 681.154 0.504813 -2.00647 0
M  V30 7316 C 681.569 1.58098 -1.03201 0
M  V30 7317 O 680.926 1.82476 -0.0297814 0
M  V30 7318 C 680.977 1.10099 -3.44326 0
M  V30 7319 O 680.698 0.0678021 -4.38048 0
M  V30 7320 C 682.199 1.83782 -4.03409 0
M  V30 7321 H 679.419 0.130989 -0.65809 0
M  V30 7322 H 681.963 -0.247903 -2.02992 0
M  V30 7323 H 680.118 1.8043 -3.42817 0
M  V30 7324 H 680.532 0.505237 -5.22061 0
M  V30 7325 H 682.006 2.2078 -5.05925 0
M  V30 7326 H 682.483 2.72557 -3.44397 0
M  V30 7327 H 683.089 1.18138 -4.08563 0
M  V30 7328 N 681.404 1.57128 0.121893 0
M  V30 7329 C 682.351 2.0013 1.14964 0
M  V30 7330 C 683.321 0.872959 1.4131 0
M  V30 7331 O 684.506 1.13696 1.53225 0
M  V30 7332 C 681.646 2.40824 2.4718 0
M  V30 7333 C 680.759 3.67061 2.27794 0
M  V30 7334 C 679.894 3.96749 3.53219 0
M  V30 7335 C 678.933 5.16178 3.28978 0
M  V30 7336 N 678.07 5.41751 4.46599 0
M  V30 7337 H 682.91 2.8772 0.775947 0
M  V30 7338 H 680.447 1.42328 0.371652 0
M  V30 7339 H 682.405 2.62454 3.24305 0
M  V30 7340 H 681.035 1.56279 2.82448 0
M  V30 7341 H 680.087 3.53063 1.416 0
M  V30 7342 H 681.399 4.5434 2.05857 0
M  V30 7343 H 680.553 4.19012 4.38764 0
M  V30 7344 H 679.292 3.07941 3.78185 0
M  V30 7345 H 678.297 4.93762 2.41824 0
M  V30 7346 H 679.522 6.06561 3.05386 0
M  V30 7347 H 677.468 4.55899 4.71691 0
M  V30 7348 H 677.385 6.23347 4.27756 0
M  V30 7349 H 678.653 5.68531 5.33285 0
M  V30 7350 N 682.882 -0.391992 1.52647 0
M  V30 7351 C 684.128 -1.139 1.67793 0
M  V30 7352 C 684.461 -1.89711 0.41514 0
M  V30 7353 O 683.736 -1.85431 -0.586979 0
M  V30 7354 C 684.019 -2.11966 2.91105 0
M  V30 7355 C 683.872 -1.39939 4.27478 0
M  V30 7356 C 685.191 -3.1243 3.09961 0
M  V30 7357 H 682.31 -0.412707 0.610608 0
M  V30 7358 H 684.952 -0.422725 1.85238 0
M  V30 7359 H 683.102 -2.73048 2.76364 0
M  V30 7360 H 684.774 -0.818439 4.53982 0
M  V30 7361 H 683.017 -0.701246 4.28095 0
M  V30 7362 H 683.688 -2.1158 5.09841 0
M  V30 7363 H 686.164 -2.61435 3.23714 0
M  V30 7364 H 685.04 -3.78294 3.97725 0
M  V30 7365 H 685.301 -3.81127 2.24042 0
M  V30 7366 N 684.36 -1.4356 -0.65026 0
M  V30 7367 C 685.31 -1.45392 -1.75628 0
M  V30 7368 C 686.294 -0.322006 -1.57645 0
M  V30 7369 O 687.486 -0.565996 -1.67707 0
M  V30 7370 C 684.615 -1.38254 -3.1423 0
M  V30 7371 C 683.701 -2.56487 -3.3775 0
M  V30 7372 N 684.092 -3.81824 -3.31729 0
M  V30 7373 C 682.39 -2.51274 -3.6848 0
M  V30 7374 C 683.091 -4.60497 -3.55412 0
M  V30 7375 N 682.067 -3.91274 -3.77367 0
M  V30 7376 H 685.869 -2.40167 -1.69402 0
M  V30 7377 H 683.383 -1.38254 -0.852037 0
M  V30 7378 H 685.38 -1.3765 -3.9352 0
M  V30 7379 H 684.04 -0.445019 -3.21636 0
M  V30 7380 H 685.051 -4.14069 -3.11074 0
M  V30 7381 H 681.728 -1.66223 -3.82983 0
M  V30 7382 H 683.118 -5.69518 -3.5651 0
M  V30 7383 N 685.838 0.888903 -1.30139 0
M  V30 7384 C 687.249 1.45578 -1.16893 0
M  V30 7385 C 687.6 1.94825 0.231866 0
M  V30 7386 O 686.725 1.84661 1.12824 0
M  V30 7387 C 687.32 2.646 -2.11595 0
M  V30 7388 C 685.879 3.17389 -2.02339 0
M  V30 7389 C 685.026 1.90081 -2.01902 0
M  V30 7390 H 687.977 0.69921 -1.42467 0
M  V30 7391 H 687.998 3.40687 -1.69449 0
M  V30 7392 H 687.51 2.28726 -3.13538 0
M  V30 7393 H 685.611 3.5793 -1.03523 0
M  V30 7394 H 685.724 3.80955 -2.90534 0
M  V30 7395 H 684.088 2.08246 -1.46648 0
M  V30 7396 H 684.871 1.5647 -3.05568 0
M  V30 7397 N 687.317 1.12792 1.10072 0
M  V30 7398 C 688.227 0.812369 2.20086 0
M  V30 7399 C 689.243 -0.200349 1.72843 0
M  V30 7400 O 690.419 -0.0330262 2.01373 0
M  V30 7401 C 687.484 0.275685 3.45602 0
M  V30 7402 C 686.545 1.34881 4.07561 0
M  V30 7403 C 685.778 0.837639 5.27086 0
M  V30 7404 O 686.001 -0.327224 5.69461 0
M  V30 7405 O 684.935 1.60894 5.79997 0
M  V30 7406 H 688.761 1.73133 2.49517 0
M  V30 7407 H 686.346 0.904863 1.18881 0
M  V30 7408 H 688.228 -0.0185375 4.21396 0
M  V30 7409 H 686.903 -0.615783 3.17789 0
M  V30 7410 H 685.81 1.69625 3.33434 0
M  V30 7411 H 687.143 2.21418 4.39585 0
M  V30 7412 N 688.795 -1.27931 0.920396 0
M  V30 7413 C 690.025 -1.98516 0.572256 0
M  V30 7414 C 690.433 -1.68912 -0.852375 0
M  V30 7415 O 689.776 -0.94203 -1.57707 0
M  V30 7416 C 689.838 -3.5243 0.709485 0
M  V30 7417 C 689.502 -4.0564 2.10489 0
M  V30 7418 C 690.499 -4.1897 3.07831 0
M  V30 7419 C 688.184 -4.40168 2.41986 0
M  V30 7420 C 690.178 -4.66093 4.34783 0
M  V30 7421 C 687.865 -4.86983 3.69176 0
M  V30 7422 C 688.863 -4.99903 4.65388 0
M  V30 7423 O 688.551 -5.45694 5.90316 0
M  V30 7424 H 688.283 -0.64047 0.216274 0
M  V30 7425 H 690.837 -1.6393 1.23758 0
M  V30 7426 H 689.067 -3.86698 -0.0129263 0
M  V30 7427 H 690.756 -4.04233 0.367474 0
M  V30 7428 H 691.522 -3.92562 2.84816 0
M  V30 7429 H 687.401 -4.29358 1.67846 0
M  V30 7430 H 690.945 -4.76092 5.09884 0
M  V30 7431 H 686.842 -5.12832 3.92012 0
M  V30 7432 H 687.61 -5.63965 5.932 0
M  V30 7433 N 690.273 -0.685099 -1.4193 0
M  V30 7434 C 691.521 -0.21124 -2.00993 0
M  V30 7435 C 691.842 1.18985 -1.54491 0
M  V30 7436 O 691.112 1.8009 -0.771 0
M  V30 7437 H 689.692 -0.0751059 -0.743215 0
M  V30 7438 H 692.354 -0.883915 -1.73704 0
M  V30 7439 H 691.45 -0.220513 -3.1132 0
M  V30 7440 N 691.751 1.51645 -0.429126 0
M  V30 7441 C 692.714 2.26116 0.374726 0
M  V30 7442 C 693.714 1.29242 0.956714 0
M  V30 7443 O 694.904 1.53022 0.832452 0
M  V30 7444 C 692.036 3.04669 1.52937 0
M  V30 7445 H 693.229 2.9861 -0.277818 0
M  V30 7446 H 690.782 1.55236 -0.182097 0
M  V30 7447 H 691.517 2.36571 2.21821 0
M  V30 7448 H 691.302 3.75814 1.11833 0
M  V30 7449 H 692.792 3.61102 2.09751 0
M  V30 7450 N 693.229 0.160201 1.56784 0
M  V30 7451 C 694.477 -0.486625 1.96154 0
M  V30 7452 C 694.798 -1.64525 1.04673 0
M  V30 7453 O 694.068 -1.95586 0.110864 0
M  V30 7454 H 692.648 -0.182764 0.724297 0
M  V30 7455 H 695.31 0.238787 1.93432 0
M  V30 7456 H 694.406 -0.854025 3.00188 0
M  V30 7457 N 694.707 -1.5719 -0.113559 0
M  V30 7458 C 695.953 -1.85412 -0.821597 0
M  V30 7459 C 696.286 -0.746722 -1.7927 0
M  V30 7460 O 695.561 0.246971 -1.92926 0
M  V30 7461 C 695.844 -3.24233 -1.56669 0
M  V30 7462 C 695.697 -4.45578 -0.614823 0
M  V30 7463 C 697.016 -3.60697 -2.52161 0
M  V30 7464 H 694.135 -0.674406 -0.29723 0
M  V30 7465 H 696.777 -1.89807 -0.085694 0
M  V30 7466 H 694.927 -3.20617 -2.19401 0
M  V30 7467 H 696.599 -4.613 0.00407137 0
M  V30 7468 H 694.842 -4.33738 0.0732332 0
M  V30 7469 H 695.513 -5.39395 -1.17292 0
M  V30 7470 H 697.989 -3.65139 -1.99532 0
M  V30 7471 H 696.865 -4.58798 -3.01323 0
M  V30 7472 H 697.126 -2.88403 -3.35076 0
M  V30 7473 N 696.185 0.383891 -1.52853 0
M  V30 7474 C 697.095 1.49343 -1.80925 0
M  V30 7475 C 698.111 1.59458 -0.696348 0
M  V30 7476 O 699.287 1.75698 -0.984481 0
M  V30 7477 C 696.352 2.84819 -1.97684 0
M  V30 7478 C 695.413 2.84382 -3.21598 0
M  V30 7479 C 694.646 4.13397 -3.37548 0
M  V30 7480 O 694.869 5.08619 -2.58192 0
M  V30 7481 O 693.803 4.20325 -4.30826 0
M  V30 7482 H 697.629 1.2855 -2.75152 0
M  V30 7483 H 695.214 0.572229 -1.38007 0
M  V30 7484 H 697.096 3.65125 -2.10385 0
M  V30 7485 H 695.771 3.05627 -1.06647 0
M  V30 7486 H 694.678 2.0284 -3.14336 0
M  V30 7487 H 696.011 2.68526 -4.12498 0
M  V30 7488 N 697.663 1.43903 0.642637 0
M  V30 7489 C 698.61 1.49881 1.75512 0
M  V30 7490 C 699.58 0.347538 1.62423 0
M  V30 7491 O 700.765 0.556177 1.82514 0
M  V30 7492 C 697.905 1.43797 3.13714 0
M  V30 7493 C 697.018 2.6921 3.37861 0
M  V30 7494 C 696.153 2.5504 4.6597 0
M  V30 7495 C 695.192 3.75671 4.83257 0
M  V30 7496 N 694.329 3.60247 6.02633 0
M  V30 7497 H 699.169 2.44935 1.69737 0
M  V30 7498 H 696.706 1.21572 0.828165 0
M  V30 7499 H 698.664 1.38262 3.93624 0
M  V30 7500 H 697.294 0.523173 3.18532 0
M  V30 7501 H 696.346 2.8498 2.51973 0
M  V30 7502 H 697.658 3.58786 3.46517 0
M  V30 7503 H 696.812 2.47273 5.54023 0
M  V30 7504 H 695.551 1.63006 4.59653 0
M  V30 7505 H 694.556 3.83836 3.93637 0
M  V30 7506 H 695.781 4.68728 4.91397 0
M  V30 7507 H 693.727 2.70955 5.97427 0
M  V30 7508 H 693.644 4.43431 6.12295 0
M  V30 7509 H 694.912 3.56351 6.93278 0
M  V30 7510 N 699.141 -0.881989 1.30609 0
M  V30 7511 C 700.104 -1.96957 1.1722 0
M  V30 7512 C 701.104 -1.60472 0.102598 0
M  V30 7513 O 702.294 -1.70628 0.350943 0
M  V30 7514 C 699.426 -3.31463 0.796572 0
M  V30 7515 H 700.619 -2.10262 2.13846 0
M  V30 7516 H 698.172 -1.06877 1.14048 0
M  V30 7517 H 698.907 -3.23859 -0.169053 0
M  V30 7518 H 698.692 -3.59314 1.56959 0
M  V30 7519 H 700.182 -4.11233 0.72645 0
M  V30 7520 N 700.619 -1.13374 -1.09472 0
M  V30 7521 C 701.868 -0.889844 -1.8101 0
M  V30 7522 C 702.181 0.585686 -1.86625 0
M  V30 7523 O 703.387 0.946497 -2.54467 0
M  V30 7524 C 701.843 -1.54241 -3.25174 0
M  V30 7525 C 701.451 -3.05343 -3.27826 0
M  V30 7526 C 703.195 -1.37919 -4.0147 0
M  V30 7527 C 701.102 -3.63486 -4.6651 0
M  V30 7528 H 700.032 -0.329256 -0.678311 0
M  V30 7529 H 702.683 -1.36139 -1.23038 0
M  V30 7530 H 701.065 -0.998525 -3.83204 0
M  V30 7531 H 702.239 -3.66307 -2.79563 0
M  V30 7532 H 700.554 -3.21175 -2.65019 0
M  V30 7533 H 703.151 -1.78771 -5.03929 0
M  V30 7534 H 703.494 -0.323987 -4.15037 0
M  V30 7535 H 704.027 -1.89284 -3.49881 0
M  V30 7536 H 700.766 -4.68811 -4.58145 0
M  V30 7537 H 700.286 -3.073 -5.15099 0
M  V30 7538 H 701.965 -3.63134 -5.35484 0
M  V30 7539 N 702.098 1.27442 -0.927168 0
M  V30 7540 C 703.045 2.26863 -0.424459 0
M  V30 7541 C 704.015 1.5813 0.508346 0
M  V30 7542 O 705.2 1.85946 0.42762 0
M  V30 7543 C 702.34 3.43639 0.31718 0
M  V30 7544 C 701.453 4.27087 -0.649675 0
M  V30 7545 C 700.588 5.31082 0.111753 0
M  V30 7546 C 699.627 6.062 -0.847843 0
M  V30 7547 N 698.764 7.01999 -0.119074 0
M  V30 7548 H 703.604 2.69239 -1.27728 0
M  V30 7549 H 701.141 1.32394 -0.641106 0
M  V30 7550 H 703.099 4.10155 0.763486 0
M  V30 7551 H 701.729 3.02217 1.13424 0
M  V30 7552 H 700.781 3.60491 -1.21451 0
M  V30 7553 H 702.093 4.79242 -1.38307 0
M  V30 7554 H 701.247 6.03544 0.618 0
M  V30 7555 H 699.986 4.7973 0.878114 0
M  V30 7556 H 698.991 5.32577 -1.36534 0
M  V30 7557 H 700.216 6.59642 -1.61398 0
M  V30 7558 H 698.162 6.52977 0.629051 0
M  V30 7559 H 698.079 7.5184 -0.792046 0
M  V30 7560 H 699.347 7.78638 0.366537 0
M  V30 7561 N 703.576 0.692616 1.41565 0
M  V30 7562 C 704.822 0.222664 2.01574 0
M  V30 7563 C 705.155 -1.1737 1.54719 0
M  V30 7564 O 704.43 -1.79161 0.757084 0
M  V30 7565 C 704.713 0.277064 3.59033 0
M  V30 7566 C 704.566 1.71016 4.16021 0
M  V30 7567 C 705.885 -0.36479 4.38586 0
M  V30 7568 H 703.004 0.0823839 0.732381 0
M  V30 7569 H 705.646 0.880778 1.68352 0
M  V30 7570 H 703.796 -0.283288 3.87466 0
M  V30 7571 H 705.468 2.32413 3.98475 0
M  V30 7572 H 703.711 2.24525 3.71175 0
M  V30 7573 H 704.382 1.69978 5.25178 0
M  V30 7574 H 706.858 0.112404 4.15948 0
M  V30 7575 H 705.734 -0.296169 5.481 0
M  V30 7576 H 705.995 -1.44506 4.17816 0
M  V30 7577 N 705.054 -1.51416 0.437162 0
M  V30 7578 C 705.984 -2.30631 -0.364922 0
M  V30 7579 C 706.965 -1.36037 -1.02118 0
M  V30 7580 O 708.15 -1.64956 -1.02485 0
M  V30 7581 C 705.28 -3.1482 -1.46648 0
M  V30 7582 C 704.234 -4.17691 -0.933717 0
M  V30 7583 C 703.56 -4.904 -2.13101 0
M  V30 7584 C 704.86 -5.2229 0.0317201 0
M  V30 7585 H 706.554 -2.97932 0.29614 0
M  V30 7586 H 704.1 -1.4328 0.143865 0
M  V30 7587 H 706.053 -3.69017 -2.03481 0
M  V30 7588 H 704.777 -2.4534 -2.15583 0
M  V30 7589 H 703.436 -3.64545 -0.387602 0
M  V30 7590 H 703.084 -4.17423 -2.80654 0
M  V30 7591 H 702.784 -5.59962 -1.78092 0
M  V30 7592 H 704.308 -5.4742 -2.70487 0
M  V30 7593 H 705.722 -5.7156 -0.446302 0
M  V30 7594 H 704.119 -5.99378 0.29437 0
M  V30 7595 H 705.189 -4.75131 0.968447 0
M  V30 7596 N 706.532 -0.168513 -1.56696 0
M  V30 7597 C 707.442 0.775435 -2.21414 0
M  V30 7598 C 708.458 1.25529 -1.20492 0
M  V30 7599 O 709.634 1.30801 -1.53144 0
M  V30 7600 C 706.699 1.9886 -2.83999 0
M  V30 7601 C 705.76 1.5559 -4.00113 0
M  V30 7602 C 704.993 2.71124 -4.59704 0
M  V30 7603 O 705.216 3.87917 -4.18182 0
M  V30 7604 O 704.15 2.4536 -5.4962 0
M  V30 7605 H 707.976 0.254416 -3.02632 0
M  V30 7606 H 705.561 0.0595507 -1.49281 0
M  V30 7607 H 707.443 2.69816 -3.23693 0
M  V30 7608 H 706.118 2.49874 -2.05779 0
M  V30 7609 H 705.025 0.815924 -3.65094 0
M  V30 7610 H 706.358 1.09271 -4.79917 0
M  V30 7611 N 708.01 1.57248 0.105221 0
M  V30 7612 C 709.258 1.85204 0.808951 0
M  V30 7613 C 709.579 0.75574 1.7976 0
M  V30 7614 O 708.849 -0.218984 1.94672 0
M  V30 7615 H 707.429 0.683346 0.301739 0
M  V30 7616 H 710.091 1.94695 0.0892605 0
M  V30 7617 H 709.187 2.81595 1.34575 0
M  V30 7618 N 709.488 -0.375779 1.53054 0
M  V30 7619 C 710.435 -1.45978 1.78771 0
M  V30 7620 C 711.405 -1.53625 0.631552 0
M  V30 7621 O 712.59 -1.69674 0.872667 0
M  V30 7622 C 709.73 -2.8305 1.97425 0
M  V30 7623 C 708.843 -2.84451 3.25134 0
M  V30 7624 C 707.978 -4.13034 3.34031 0
M  V30 7625 C 707.017 -4.08536 4.55812 0
M  V30 7626 N 706.154 -5.2875 4.61918 0
M  V30 7627 H 710.994 -1.23349 2.71273 0
M  V30 7628 H 708.531 -0.598147 1.3439 0
M  V30 7629 H 710.489 -3.62666 2.06225 0
M  V30 7630 H 709.119 -3.04101 1.0827 0
M  V30 7631 H 708.171 -1.97127 3.25338 0
M  V30 7632 H 709.483 -2.76998 4.14818 0
M  V30 7633 H 708.637 -5.0106 3.42087 0
M  V30 7634 H 707.376 -4.23226 2.42345 0
M  V30 7635 H 706.381 -3.18897 4.47867 0
M  V30 7636 H 707.606 -3.99955 5.48828 0
M  V30 7637 H 705.552 -5.39547 3.73129 0
M  V30 7638 H 705.469 -5.23426 5.45492 0
M  V30 7639 H 706.737 -6.18637 4.74245 0
M  V30 7640 N 710.966 -1.44241 -0.634997 0
M  V30 7641 C 712.243 -1.37296 -1.39317 0
M  V30 7642 C 712.623 -0.0297532 -2.11079 0
M  V30 7643 O 711.971 0.987524 -2.06059 0
M  V30 7644 C 712.181 -2.56853 -2.36279 0
M  V30 7645 C 713.529 -3.00747 -2.99728 0
M  V30 7646 O 714.553 -2.5703 -2.46605 0
M  V30 7647 O 713.412 -3.76533 -3.96087 0
M  V30 7648 H 710.506 -0.543503 -0.623325 0
M  V30 7649 H 713.052 -1.56324 -0.660376 0
M  V30 7650 H 711.824 -3.46228 -1.82324 0
M  V30 7651 H 711.447 -2.40019 -3.16981 0
M  V30 7652 N 712.444 0.87505 -1.31075 0
M  V30 7653 C 713.407 1.96333 -1.18263 0
M  V30 7654 C 714.407 1.60416 -0.111106 0
M  V30 7655 O 715.597 1.7044 -0.359987 0
M  V30 7656 C 712.729 3.31036 -0.81414 0
M  V30 7657 H 713.922 2.09125 -2.14958 0
M  V30 7658 H 711.475 1.06271 -1.14614 0
M  V30 7659 H 712.21 3.23944 0.151875 0
M  V30 7660 H 711.995 3.58476 -1.58862 0
M  V30 7661 H 713.485 4.10842 -0.748249 0
M  V30 7662 N 713.922 1.13953 1.08869 0
M  V30 7663 C 714.869 0.82213 2.15661 0
M  V30 7664 C 715.839 -0.218274 1.6466 0
M  V30 7665 O 717.024 -0.0892475 1.90591 0
M  V30 7666 C 714.164 0.300572 3.43789 0
M  V30 7667 C 713.277 1.40071 4.08661 0
M  V30 7668 C 712.412 0.836897 5.24566 0
M  V30 7669 C 711.451 1.91504 5.81371 0
M  V30 7670 N 710.588 1.36875 6.88629 0
M  V30 7671 H 715.428 1.73683 2.42153 0
M  V30 7672 H 712.965 0.866879 1.18843 0
M  V30 7673 H 714.923 -0.0199943 4.17195 0
M  V30 7674 H 713.553 -0.577248 3.17597 0
M  V30 7675 H 712.605 1.83776 3.33062 0
M  V30 7676 H 713.917 2.21534 4.46905 0
M  V30 7677 H 713.071 0.467953 6.04893 0
M  V30 7678 H 711.81 -0.00874207 4.87699 0
M  V30 7679 H 710.815 2.29299 4.99702 0
M  V30 7680 H 712.04 2.76419 6.20298 0
M  V30 7681 H 709.986 0.545211 6.5373 0
M  V30 7682 H 709.903 2.1198 7.25672 0
M  V30 7683 H 711.171 1.02756 7.72698 0
M  V30 7684 O 715.439 -1.21416 1.06491 0
M  V30 7685 H 716.13 -1.7871 0.747168 0
M  V30 END ATOM
M  V30 BEGIN BOND
M  V30 END BOND
M  V30 END CTAB
M  END
$$$$
