drugbank_target|P53350 Serine/threonine-protein kinase PLK1 (DB06897; DB06963; DB07186; DB07789; DB08059; DB12010)
 OpenBabel12092120383D

  0  0  0     0  0            999 V3000
M  V30 BEGIN CTAB
M  V30 COUNTS 9683 9790 0 0 0
M  V30 BEGIN ATOM
M  V30 1 H -0.908 1.98254 -0.117106 0
M  V30 2 N 0 1.576 0 0
M  V30 3 C 0.933 2.03868 1.02534 0
M  V30 4 C 1.911 0.928543 1.3348 0
M  V30 5 O 3.095 1.19667 1.45644 0
M  V30 6 C 0.222 2.43627 2.35294 0
M  V30 7 C -0.732 3.65373 2.2001 0
M  V30 8 S 0.101 5.13292 1.52614 0
M  V30 9 C 1.257 5.56322 2.86805 0
M  V30 10 H 1.49 2.90518 0.631377 0
M  V30 11 H -0.977 1.52953 0.210867 0
M  V30 12 H 0.981 2.67203 3.11629 0
M  V30 13 H -0.358 1.57376 2.7183 0
M  V30 14 H -1.165 3.90944 3.18086 0
M  V30 15 H -1.563 3.418 1.51819 0
M  V30 16 H 0.729 5.58782 3.83104 0
M  V30 17 H 1.672 6.56266 2.65933 0
M  V30 18 H 2.08 4.83886 2.90714 0
M  V30 19 N 1.4781 -0.272755 1.55222 0
M  V30 20 C 2.7031 -1.02683 1.80197 0
M  V30 21 C 3.1281 -1.79142 0.573551 0
M  V30 22 O 2.4861 -1.74917 -0.476849 0
M  V30 23 C 2.5341 -1.9609 3.02624 0
M  V30 24 O 1.6381 -3.04863 2.77727 0
M  V30 25 H 0.9791 -0.293557 0.595584 0
M  V30 26 H 3.5091 -0.30159 2.02365 0
M  V30 27 H 3.5191 -2.38039 3.31363 0
M  V30 28 H 2.1941 -1.39851 3.91682 0
M  V30 29 H 0.7711 -2.67228 2.60084 0
M  V30 30 N 2.9562 -1.48159 -0.537278 0
M  V30 31 C 3.9192 -1.61665 -1.62472 0
M  V30 32 C 4.9192 -0.490395 -1.5314 0
M  V30 33 O 6.1092 -0.755998 -1.5694 0
M  V30 34 C 3.2412 -1.57997 -3.02076 0
M  V30 35 H 4.4342 -2.58621 -1.51839 0
M  V30 36 H 1.9872 -1.36647 -0.758771 0
M  V30 37 H 2.7222 -0.624913 -3.18222 0
M  V30 38 H 2.5072 -2.39755 -3.10258 0
M  V30 39 H 3.9972 -1.70627 -3.81151 0
M  V30 40 N 4.4343 0.785586 -1.36625 0
M  V30 41 C 5.3973 1.87999 -1.31107 0
M  V30 42 C 6.3973 1.59316 -0.217959 0
M  V30 43 O 7.5873 1.67656 -0.472977 0
M  V30 44 C 4.7193 3.24861 -1.03334 0
M  V30 45 H 5.9123 1.94307 -2.2844 0
M  V30 46 H 3.4653 0.983813 -1.21453 0
M  V30 47 H 4.2003 3.24235 -0.0647432 0
M  V30 48 H 3.9853 3.4707 -1.82441 0
M  V30 49 H 5.4753 4.04929 -1.02088 0
M  V30 50 N 5.9124 1.20967 1.01018 0
M  V30 51 C 7.1584 1.02526 1.74975 0
M  V30 52 C 7.4914 -0.4408 1.89131 0
M  V30 53 O 6.7664 -1.32718 1.42184 0
M  V30 54 C 7.0494 1.71699 3.1653 0
M  V30 55 C 6.9024 3.25791 3.10129 0
M  V30 56 C 8.2214 1.45531 4.15342 0
M  V30 57 H 5.3404 0.373863 0.635134 0
M  V30 58 H 7.9824 1.49071 1.17805 0
M  V30 59 H 6.1324 1.32128 3.65341 0
M  V30 60 H 7.8044 3.74697 2.69072 0
M  V30 61 H 6.0474 3.56363 2.47362 0
M  V30 62 H 6.7184 3.69353 4.10222 0
M  V30 63 H 9.1944 1.79872 3.75213 0
M  V30 64 H 8.0704 1.96453 5.1254 0
M  V30 65 H 8.3314 0.384237 4.40427 0
M  V30 66 N 7.3905 -1.2043 1.01659 0
M  V30 67 C 8.6185 -1.93777 0.725132 0
M  V30 68 C 9.0335 -1.74772 -0.714166 0
M  V30 69 O 8.3905 -1.06169 -1.4844 0
M  V30 70 C 8.4415 -3.45876 1.05129 0
M  V30 71 O 8.1625 -3.6426 2.43406 0
M  V30 72 C 9.6635 -4.36368 0.780891 0
M  V30 73 H 6.8835 -0.615901 0.266284 0
M  V30 74 H 9.4275 -1.52922 1.35776 0
M  V30 75 H 7.5825 -3.8461 0.464065 0
M  V30 76 H 7.9965 -4.58246 2.55169 0
M  V30 77 H 9.4705 -5.41743 1.05918 0
M  V30 78 H 9.9475 -4.38275 -0.284937 0
M  V30 79 H 10.5535 -4.03296 1.35027 0
M  V30 80 N 8.8686 -0.792821 -1.36206 0
M  V30 81 C 9.8316 -0.199459 -2.2833 0
M  V30 82 C 10.8316 0.605189 -1.48977 0
M  V30 83 O 12.0216 0.425685 -1.68919 0
M  V30 84 C 9.1536 0.723523 -3.33134 0
M  V30 85 H 10.3466 -1.01181 -2.82316 0
M  V30 86 H 7.8996 -0.562485 -1.45828 0
M  V30 87 H 8.6346 1.56008 -2.84309 0
M  V30 88 H 8.4196 0.148436 -3.91819 0
M  V30 89 H 9.9096 1.13344 -4.01924 0
M  V30 90 N 10.3467 1.47872 -0.545128 0
M  V30 91 C 11.5947 2.02093 -0.016553 0
M  V30 92 C 11.9157 1.42305 1.3332 0
M  V30 93 O 11.1857 0.593853 1.86682 0
M  V30 94 H 9.7657 0.746993 -0.00313038 0
M  V30 95 H 12.4277 1.81414 -0.712397 0
M  V30 96 H 11.5237 3.11996 0.0805422 0
M  V30 97 N 11.8248 0.280983 1.55075 0
M  V30 98 C 12.7718 -0.603937 2.22758 0
M  V30 99 C 13.7418 -1.1452 1.20309 0
M  V30 100 O 14.9268 -1.19343 1.48869 0
M  V30 101 C 12.0668 -1.77947 2.95684 0
M  V30 102 C 11.1798 -1.2715 4.12864 0
M  V30 103 C 10.3148 -2.4093 4.7342 0
M  V30 104 C 9.3538 -1.87165 5.82783 0
M  V30 105 N 8.4908 -2.94441 6.37377 0
M  V30 106 H 13.3308 -0.020124 2.97993 0
M  V30 107 H 10.8678 0.00183425 1.471 0
M  V30 108 H 12.8258 -2.47055 3.36184 0
M  V30 109 H 11.4558 -2.33522 2.22861 0
M  V30 110 H 10.5078 -0.473331 3.77444 0
M  V30 111 H 11.8198 -0.837751 4.91715 0
M  V30 112 H 10.9738 -3.18021 5.1667 0
M  V30 113 H 9.7128 -2.87623 3.93859 0
M  V30 114 H 8.7178 -1.08556 5.38976 0
M  V30 115 H 9.9428 -1.41401 6.64216 0
M  V30 116 H 7.8888 -3.40505 5.60707 0
M  V30 117 H 7.8058 -2.55501 7.11516 0
M  V30 118 H 9.0738 -3.71489 6.85285 0
M  V30 119 N 13.3029 -1.57598 0.00835791 0
M  V30 120 C 14.2329 -2.1198 -0.979113 0
M  V30 121 C 15.2139 -1.03091 -1.35301 0
M  V30 122 O 16.3989 -1.30818 -1.43528 0
M  V30 123 C 13.5289 -2.62995 -2.26828 0
M  V30 124 C 12.4829 -3.76485 -2.03576 0
M  V30 125 C 11.8089 -4.13846 -3.38579 0
M  V30 126 C 13.1089 -5.0342 -1.39161 0
M  V30 127 H 14.8029 -2.94738 -0.526281 0
M  V30 128 H 12.3489 -1.41783 -0.251704 0
M  V30 129 H 14.3019 -2.99669 -2.96271 0
M  V30 130 H 13.0259 -1.7737 -2.7424 0
M  V30 131 H 11.6849 -3.40217 -1.36557 0
M  V30 132 H 11.3329 -3.25232 -3.83709 0
M  V30 133 H 11.0329 -4.90312 -3.23834 0
M  V30 134 H 12.5569 -4.53086 -4.09323 0
M  V30 135 H 13.9709 -5.37812 -1.98573 0
M  V30 136 H 12.3679 -5.84746 -1.34878 0
M  V30 137 H 13.4379 -4.83548 -0.361868 0
M  V30 138 N 14.781 0.264519 -1.55364 0
M  V30 139 C 15.744 1.31046 -1.88042 0
M  V30 140 C 16.744 1.41943 -0.755569 0
M  V30 141 O 17.934 1.40947 -1.02369 0
M  V30 142 C 15.066 2.69067 -2.09323 0
M  V30 143 H 16.259 1.03297 -2.81549 0
M  V30 144 H 13.812 0.502989 -1.47986 0
M  V30 145 H 14.547 3.01982 -1.18226 0
M  V30 146 H 14.332 2.62542 -2.91229 0
M  V30 147 H 15.822 3.44623 -2.35848 0
M  V30 148 N 16.2591 1.48442 0.529413 0
M  V30 149 C 17.6751 1.34575 0.858004 0
M  V30 150 C 17.8751 0.3572 1.98309 0
M  V30 151 O 16.9311 -0.221379 2.51528 0
M  V30 152 C 18.2441 2.74617 1.22499 0
M  V30 153 C 19.7921 2.83109 1.33484 0
M  V30 154 C 20.2671 4.23854 1.73526 0
M  V30 155 N 21.7581 4.2653 1.80628 0
M  V30 156 C 22.4931 5.32372 2.12997 0
M  V30 157 N 21.9891 6.48491 2.43786 0
M  V30 158 N 23.7821 5.19766 2.14008 0
M  V30 159 H 15.9331 2.1133 -0.212925 0
M  V30 160 H 18.1961 0.947439 -0.0326199 0
M  V30 161 H 17.9021 3.4852 0.471905 0
M  V30 162 H 17.7761 3.08177 2.17501 0
M  V30 163 H 20.1631 2.09462 2.0787 0
M  V30 164 H 20.2441 2.53168 0.366027 0
M  V30 165 H 19.8881 4.98018 0.997013 0
M  V30 166 H 19.8181 4.5124 2.71459 0
M  V30 167 H 22.3091 3.42772 1.59108 0
M  V30 168 H 22.6221 7.24993 2.67592 0
M  V30 169 H 20.9671 6.51765 2.41304 0
M  V30 170 H 24.1581 4.28066 1.89412 0
M  V30 171 H 24.3311 6.02354 2.38902 0
M  V30 172 N 17.7372 -0.778329 1.37039 0
M  V30 173 C 18.7002 -1.87301 1.32102 0
M  V30 174 C 19.7002 -1.59198 0.226405 0
M  V30 175 O 20.8902 -1.67403 0.481861 0
M  V30 176 C 18.0222 -3.24309 1.05055 0
M  V30 177 H 19.2152 -1.93093 2.29467 0
M  V30 178 H 16.7682 -0.977358 1.21973 0
M  V30 179 H 17.5032 -3.24196 0.0819373 0
M  V30 180 H 17.2882 -3.46098 1.84279 0
M  V30 181 H 18.7782 -4.04382 1.04234 0
M  V30 182 N 19.2153 -1.21501 -1.00376 0
M  V30 183 C 20.6263 -1.03146 -1.55621 0
M  V30 184 C 20.9773 0.408375 -1.91903 0
M  V30 185 O 20.1023 1.29177 -1.73616 0
M  V30 186 C 20.6973 -1.86612 -2.82775 0
M  V30 187 C 19.2563 -1.72586 -3.34501 0
M  V30 188 C 18.4033 -1.83747 -2.07683 0
M  V30 189 H 21.3543 -1.35505 -0.826081 0
M  V30 190 H 21.3753 -1.3771 -3.54706 0
M  V30 191 H 20.8873 -2.91399 -2.56336 0
M  V30 192 H 18.9883 -0.704877 -3.65872 0
M  V30 193 H 19.1013 -2.54623 -4.05837 0
M  V30 194 H 17.4653 -1.27069 -2.20739 0
M  V30 195 H 18.2483 -2.90044 -1.83655 0
M  V30 196 N 20.6934 1.19889 -1.02296 0
M  V30 197 C 21.6564 2.21116 -0.603351 0
M  V30 198 C 22.6564 1.5738 0.329884 0
M  V30 199 O 23.8464 1.73802 0.117702 0
M  V30 200 C 20.9784 3.40696 0.117992 0
M  V30 201 H 22.1714 2.59754 -1.49893 0
M  V30 202 H 19.7244 1.33463 -0.813468 0
M  V30 203 H 20.4594 3.07569 1.0282 0
M  V30 204 H 20.2444 3.88188 -0.552511 0
M  V30 205 H 21.7344 4.15692 0.398696 0
M  V30 206 N 22.1715 0.800033 1.35784 0
M  V30 207 C 23.4485 0.30088 1.93272 0
M  V30 208 C 23.8285 -1.20857 1.73081 0
M  V30 209 O 23.1765 -2.00502 1.09596 0
M  V30 210 C 23.3865 0.70511 3.41803 0
M  V30 211 C 24.7345 0.690871 4.18942 0
M  V30 212 O 25.7585 0.646244 3.50289 0
M  V30 213 O 24.6175 0.74332 5.41421 0
M  V30 214 H 21.7115 0.0771605 0.823393 0
M  V30 215 H 24.2575 0.88329 1.449 0
M  V30 216 H 23.0295 1.74571 3.50201 0
M  V30 217 H 22.6525 0.0971541 3.97481 0
M  V30 218 N 23.6496 -1.47581 0.552962 0
M  V30 219 C 25.0606 -1.86324 0.118463 0
M  V30 220 C 25.4116 -1.46006 -1.3106 0
M  V30 221 O 24.5366 -0.861182 -1.98526 0
M  V30 222 C 25.1316 -3.3816 0.20821 0
M  V30 223 C 23.6906 -3.7601 -0.171226 0
M  V30 224 C 22.8376 -2.71634 0.557686 0
M  V30 225 H 25.7886 -1.39159 0.762928 0
M  V30 226 H 25.8096 -3.76141 -0.574278 0
M  V30 227 H 25.3216 -3.67473 1.24841 0
M  V30 228 H 23.4226 -3.52313 -1.21269 0
M  V30 229 H 23.5356 -4.78745 0.184379 0
M  V30 230 H 21.8996 -2.547 0.00125792 0
M  V30 231 H 22.6826 -3.0379 1.59896 0
M  V30 232 N 25.1277 -0.289203 -1.54924 0
M  V30 233 C 26.3757 0.322879 -1.99504 0
M  V30 234 C 26.6967 1.55313 -1.1791 0
M  V30 235 O 25.9667 1.94001 -0.272097 0
M  V30 236 H 24.5467 0.122291 -0.736922 0
M  V30 237 H 27.2087 -0.397802 -1.90797 0
M  V30 238 H 26.3047 0.603061 -3.06218 0
M  V30 239 N 26.6058 1.57591 -0.0167156 0
M  V30 240 C 27.5528 2.09462 0.969251 0
M  V30 241 C 28.5228 0.99381 1.33089 0
M  V30 242 O 29.7078 1.26726 1.42636 0
M  V30 243 C 26.8478 2.61622 2.25051 0
M  V30 244 C 25.9608 3.85666 1.94642 0
M  V30 245 C 25.0958 4.26266 3.16972 0
M  V30 246 C 24.1348 5.43101 2.82326 0
M  V30 247 N 23.2718 5.78915 3.97243 0
M  V30 248 H 28.1118 2.93428 0.519997 0
M  V30 249 H 25.6488 1.45044 0.245087 0
M  V30 250 H 27.6068 2.89949 2.99976 0
M  V30 251 H 26.2368 1.80505 2.67615 0
M  V30 252 H 25.2888 3.64145 1.10013 0
M  V30 253 H 26.6008 4.70678 1.65117 0
M  V30 254 H 25.7548 4.55963 4.00228 0
M  V30 255 H 24.4938 3.39996 3.49648 0
M  V30 256 H 23.4988 5.1311 1.97479 0
M  V30 257 H 24.7238 6.3106 2.50879 0
M  V30 258 H 22.6698 4.95602 4.29785 0
M  V30 259 H 22.5868 6.58539 3.71299 0
M  V30 260 H 23.8548 6.13212 4.81239 0
M  V30 261 N 28.0839 -0.256276 1.55502 0
M  V30 262 C 29.0469 -1.30047 1.88734 0
M  V30 263 C 30.0469 -1.4154 0.763086 0
M  V30 264 O 31.2369 -1.40403 1.03115 0
M  V30 265 C 28.3689 -2.67953 2.10747 0
M  V30 266 H 29.5619 -1.01802 2.82093 0
M  V30 267 H 27.1149 -0.495134 1.4825 0
M  V30 268 H 27.8499 -3.01351 1.19825 0
M  V30 269 H 27.6349 -2.60993 2.92617 0
M  V30 270 H 29.1249 -3.43368 2.37673 0
M  V30 271 N 29.562 -1.4872 -0.521534 0
M  V30 272 C 30.81 -1.56857 -1.27437 0
M  V30 273 C 31.131 -0.247982 -1.93417 0
M  V30 274 O 30.401 0.731151 -1.81744 0
M  V30 275 H 28.981 -0.577885 -0.473347 0
M  V30 276 H 31.643 -1.85233 -0.606205 0
M  V30 277 H 30.739 -2.35402 -2.0492 0
M  V30 278 N 31.0401 0.771051 -1.3745 0
M  V30 279 C 32.2861 1.5319 -1.32894 0
M  V30 280 C 32.6191 1.94008 0.0862511 0
M  V30 281 O 31.8941 1.64124 1.04373 0
M  V30 282 C 32.1771 2.79648 -2.26868 0
M  V30 283 C 32.0301 2.45079 -3.77169 0
M  V30 284 C 33.3491 3.81583 -2.19277 0
M  V30 285 H 30.4681 0.555744 -0.484064 0
M  V30 286 H 33.1101 0.884492 -1.68157 0
M  V30 287 H 31.2601 3.34891 -1.96926 0
M  V30 288 H 32.9321 1.95745 -4.1771 0
M  V30 289 H 31.1751 1.77767 -3.95704 0
M  V30 290 H 31.8461 3.35478 -4.38359 0
M  V30 291 H 34.3221 3.35835 -2.45671 0
M  V30 292 H 33.1981 4.67787 -2.87171 0
M  V30 293 H 33.4591 4.25897 -1.18592 0
M  V30 294 N 32.5182 1.22032 0.997298 0
M  V30 295 C 33.9292 1.0397 1.55071 0
M  V30 296 C 34.2802 -0.398192 1.92117 0
M  V30 297 O 33.4052 -1.28254 1.74298 0
M  V30 298 C 34.0002 1.88109 2.81781 0
M  V30 299 C 32.5592 1.74357 3.33581 0
M  V30 300 C 31.7062 1.84846 2.06706 0
M  V30 301 H 34.6572 1.35941 0.818883 0
M  V30 302 H 34.6782 1.39589 3.53971 0
M  V30 303 H 34.1902 2.92754 2.54787 0
M  V30 304 H 32.2912 0.72427 3.65493 0
M  V30 305 H 32.4042 2.56772 4.04481 0
M  V30 306 H 30.7682 1.28238 2.20062 0
M  V30 307 H 31.5512 2.91014 1.82114 0
M  V30 308 N 33.9963 -1.19345 1.0293 0
M  V30 309 C 35.2443 -1.88665 0.724574 0
M  V30 310 C 35.5653 -1.80036 -0.749144 0
M  V30 311 O 34.8353 -1.2111 -1.53978 0
M  V30 312 H 33.4153 -0.698406 0.265025 0
M  V30 313 H 36.0773 -1.44885 1.30362 0
M  V30 314 H 35.1733 -2.94987 1.01926 0
M  V30 315 N 35.4744 -0.807222 -1.35358 0
M  V30 316 C 36.7204 -0.388463 -1.99045 0
M  V30 317 C 37.0534 1.04184 -1.63888 0
M  V30 318 O 36.3284 1.72292 -0.902535 0
M  V30 319 C 36.6114 -0.572783 -3.55515 0
M  V30 320 C 36.4644 -2.04807 -4.00468 0
M  V30 321 C 37.7834 0.00114064 -4.401 0
M  V30 322 H 34.9024 -0.142619 -0.723069 0
M  V30 323 H 37.5444 -1.01687 -1.60498 0
M  V30 324 H 35.6944 -0.0378425 -3.88482 0
M  V30 325 H 37.3664 -2.64544 -3.77908 0
M  V30 326 H 35.6094 -2.54427 -3.51353 0
M  V30 327 H 36.2804 -2.12792 -5.09337 0
M  V30 328 H 38.7564 -0.455716 -4.13597 0
M  V30 329 H 37.6324 -0.157737 -5.48673 0
M  V30 330 H 37.8934 1.09488 -4.28328 0
M  V30 331 N 36.9525 1.47285 -0.560781 0
M  V30 332 C 37.9155 2.28535 0.174488 0
M  V30 333 C 38.9155 1.37153 0.839388 0
M  V30 334 O 40.1055 1.59748 0.694702 0
M  V30 335 C 37.2375 3.16934 1.25561 0
M  V30 336 H 38.4305 2.95012 -0.539262 0
M  V30 337 H 35.9835 1.53034 -0.317865 0
M  V30 338 H 36.7185 2.55157 2.00164 0
M  V30 339 H 36.5035 3.8419 0.783604 0
M  V30 340 H 37.9935 3.78143 1.77193 0
M  V30 341 N 38.4306 0.297415 1.54768 0
M  V30 342 C 39.3936 -0.567375 2.22066 0
M  V30 343 C 40.3936 -1.06409 1.20556 0
M  V30 344 O 41.5836 -0.960691 1.45315 0
M  V30 345 C 38.7156 -1.78517 2.90421 0
M  V30 346 H 39.9086 0.0205534 2.99893 0
M  V30 347 H 37.4616 0.0482163 1.56226 0
M  V30 348 H 38.1966 -2.41303 2.16664 0
M  V30 349 H 37.9816 -1.43669 3.64831 0
M  V30 350 H 39.4716 -2.39964 3.41771 0
M  V30 351 N 39.9087 -1.5758 0.0250728 0
M  V30 352 C 41.3197 -1.79476 -0.514323 0
M  V30 353 C 41.6707 -0.934956 -1.72491 0
M  V30 354 O 40.7957 -0.144245 -2.15919 0
M  V30 355 C 41.3907 -3.25503 -0.939842 0
M  V30 356 C 39.9497 -3.48408 -1.42438 0
M  V30 357 C 39.0967 -2.74583 -0.387201 0
M  V30 358 H 42.0477 -1.567 0.25113 0
M  V30 359 H 42.0687 -3.34992 -1.80445 0
M  V30 360 H 41.5807 -3.88056 -0.0585628 0
M  V30 361 H 39.6817 -2.91103 -2.32572 0
M  V30 362 H 39.7947 -4.57119 -1.43455 0
M  V30 363 H 38.1587 -2.39942 -0.854409 0
M  V30 364 H 38.9417 -3.39849 0.485543 0
M  V30 365 N 41.3868 0.248026 -1.55636 0
M  V30 366 C 42.6348 0.974295 -1.77065 0
M  V30 367 C 42.9558 1.85897 -0.588849 0
M  V30 368 O 42.2258 1.91868 0.395407 0
M  V30 369 H 40.8058 0.362733 -0.653019 0
M  V30 370 H 43.4678 0.266244 -1.93073 0
M  V30 371 H 42.5638 1.59667 -2.68166 0
M  V30 372 N 42.8649 1.48995 0.513639 0
M  V30 373 C 43.8279 1.64229 1.59879 0
M  V30 374 C 44.8279 0.514696 1.5234 0
M  V30 375 O 46.0179 0.78087 1.55718 0
M  V30 376 C 43.1499 1.62783 2.99524 0
M  V30 377 H 44.3429 2.61004 1.47705 0
M  V30 378 H 41.8959 1.37837 0.736936 0
M  V30 379 H 42.6309 0.675461 3.17188 0
M  V30 380 H 42.4159 2.4466 3.06404 0
M  V30 381 H 43.9059 1.76669 3.78388 0
M  V30 382 N 44.343 -0.763751 1.37857 0
M  V30 383 C 45.754 -1.3405 1.29952 0
M  V30 384 C 46.105 -1.96138 -0.0492898 0
M  V30 385 O 45.23 -1.94372 -0.951239 0
M  V30 386 C 45.825 -2.43729 2.35333 0
M  V30 387 C 44.384 -2.97151 2.31037 0
M  V30 388 C 43.531 -1.70438 2.18738 0
M  V30 389 H 46.482 -0.563396 1.48363 0
M  V30 390 H 46.503 -3.23412 2.00462 0
M  V30 391 H 46.015 -1.9851 3.33489 0
M  V30 392 H 44.116 -3.46724 1.3643 0
M  V30 393 H 44.229 -3.52221 3.24772 0
M  V30 394 H 42.593 -1.93673 1.65418 0
M  V30 395 H 43.376 -1.27312 3.18821 0
M  V30 396 N 45.8211 -1.22559 -0.990812 0
M  V30 397 C 46.7841 -0.998863 -2.0629 0
M  V30 398 C 47.7841 0.0354834 -1.60761 0
M  V30 399 O 48.9741 -0.203231 -1.7301 0
M  V30 400 C 46.1061 -0.509203 -3.37076 0
M  V30 401 H 47.2991 -1.95014 -2.27837 0
M  V30 402 H 44.8521 -1.04456 -1.16269 0
M  V30 403 H 45.5871 0.446335 -3.21214 0
M  V30 404 H 45.3721 -1.25547 -3.71457 0
M  V30 405 H 46.8621 -0.370888 -4.1595 0
M  V30 406 N 47.2992 1.18797 -1.03562 0
M  V30 407 C 48.2622 2.20464 -0.626769 0
M  V30 408 C 49.2622 1.57721 0.313173 0
M  V30 409 O 50.4522 1.73917 0.0992615 0
M  V30 410 C 47.5842 3.40802 0.0818498 0
M  V30 411 H 48.7772 2.58149 -1.5264 0
M  V30 412 H 46.3302 1.32593 -0.827578 0
M  V30 413 H 47.0652 3.08642 0.995518 0
M  V30 414 H 46.8502 3.8758 -0.593652 0
M  V30 415 H 48.3402 4.16092 0.354584 0
M  V30 416 N 48.7773 0.814389 1.34928 0
M  V30 417 C 49.7403 0.235759 2.27984 0
M  V30 418 C 50.7403 -0.581412 1.49921 0
M  V30 419 O 51.9303 -0.398758 1.69575 0
M  V30 420 C 49.0623 -0.670433 3.34242 0
M  V30 421 H 50.2553 1.05659 2.80671 0
M  V30 422 H 47.8083 0.585614 1.44915 0
M  V30 423 H 48.5433 -1.51466 2.86755 0
M  V30 424 H 48.3283 -0.0860822 3.92005 0
M  V30 425 H 49.8183 -1.06935 4.03676 0
M  V30 426 N 50.2554 -1.46986 0.568584 0
M  V30 427 C 51.6664 -1.86188 0.138219 0
M  V30 428 C 52.0174 -1.47388 -1.29504 0
M  V30 429 O 51.1424 -0.88219 -1.97602 0
M  V30 430 C 51.7374 -3.3792 0.244065 0
M  V30 431 C 50.2964 -3.76171 -0.131335 0
M  V30 432 C 49.4434 -2.71027 0.586465 0
M  V30 433 H 52.3944 -1.38342 0.777645 0
M  V30 434 H 52.4154 -3.76729 -0.534351 0
M  V30 435 H 51.9274 -3.66128 1.28731 0
M  V30 436 H 50.0284 -3.5358 -1.17526 0
M  V30 437 H 50.1414 -4.78523 0.235146 0
M  V30 438 H 48.5054 -2.54684 0.0282722 0
M  V30 439 H 49.2884 -3.02077 1.63109 0
M  V30 440 N 51.7335 -0.305618 -1.54608 0
M  V30 441 C 53.1445 0.186098 -1.8577 0
M  V30 442 C 53.4955 1.53058 -1.22751 0
M  V30 443 O 52.6205 2.09888 -0.526893 0
M  V30 444 C 53.2155 0.344449 -3.37044 0
M  V30 445 C 51.7745 0.780384 -3.68221 0
M  V30 446 C 50.9215 -0.108554 -2.77087 0
M  V30 447 H 53.8725 -0.526485 -1.49712 0
M  V30 448 H 53.8935 1.17828 -3.61796 0
M  V30 449 H 53.4055 -0.634235 -3.82883 0
M  V30 450 H 51.5065 1.76945 -3.27904 0
M  V30 451 H 51.6195 0.596572 -4.75371 0
M  V30 452 H 49.9835 0.412931 -2.5133 0
M  V30 453 H 50.7665 -1.08368 -3.25747 0
M  V30 454 N 53.2116 1.57565 -0.0334293 0
M  V30 455 C 54.1746 2.09393 0.932048 0
M  V30 456 C 55.1746 1.00986 1.25134 0
M  V30 457 O 56.3646 1.27129 1.19096 0
M  V30 458 C 53.4966 2.56338 2.2473 0
M  V30 459 H 54.6896 2.95984 0.483085 0
M  V30 460 H 52.2426 1.54819 0.21468 0
M  V30 461 H 52.9776 1.7309 2.74245 0
M  V30 462 H 52.7626 3.35542 2.02865 0
M  V30 463 H 54.2526 2.96646 2.93923 0
M  V30 464 N 54.6897 -0.239769 1.55765 0
M  V30 465 C 55.6367 -1.29696 1.90913 0
M  V30 466 C 56.6067 -1.47478 0.764164 0
M  V30 467 O 57.7917 -1.61345 1.01845 0
M  V30 468 C 54.9317 -2.64598 2.21544 0
M  V30 469 C 54.0447 -2.54765 3.48882 0
M  V30 470 C 53.1797 -3.82069 3.69049 0
M  V30 471 C 52.2187 -3.66883 4.89963 0
M  V30 472 N 51.3557 -4.86094 5.06614 0
M  V30 473 H 56.1957 -0.990224 2.81067 0
M  V30 474 H 53.7327 -0.477684 1.39128 0
M  V30 475 H 55.6907 -3.43132 2.3731 0
M  V30 476 H 54.3207 -2.93405 1.34585 0
M  V30 477 H 53.3727 -1.67763 3.41409 0
M  V30 478 H 54.6847 -2.39457 4.37563 0
M  V30 479 H 53.8387 -4.69046 3.84812 0
M  V30 480 H 52.5777 -4.00282 2.78614 0
M  V30 481 H 51.5827 -2.78289 4.74168 0
M  V30 482 H 52.8077 -3.50157 5.81865 0
M  V30 483 H 50.7537 -5.04655 4.19117 0
M  V30 484 H 50.6707 -4.73443 5.89396 0
M  V30 485 H 51.9387 -5.74549 5.26795 0
M  V30 486 N 56.1678 -1.49265 -0.50573 0
M  V30 487 C 57.0778 -1.68312 -1.63427 0
M  V30 488 C 58.0938 -0.565682 -1.64548 0
M  V30 489 O 59.2698 -0.839801 -1.83055 0
M  V30 490 C 56.3348 -1.74107 -2.99813 0
M  V30 491 C 55.3958 -2.97653 -3.09356 0
M  V30 492 C 54.6288 -3.03163 -4.39236 0
M  V30 493 O 54.8518 -2.16396 -5.27758 0
M  V30 494 O 53.7858 -3.9558 -4.53652 0
M  V30 495 H 57.6118 -2.63907 -1.50289 0
M  V30 496 H 55.1968 -1.32951 -0.681502 0
M  V30 497 H 57.0788 -1.803 -3.80881 0
M  V30 498 H 55.7538 -0.816901 -3.13223 0
M  V30 499 H 54.6608 -2.96981 -2.27493 0
M  V30 500 H 55.9938 -3.89535 -3.00871 0
M  V30 501 N 57.6459 0.756429 -1.3826 0
M  V30 502 C 58.8949 1.51082 -1.3363 0
M  V30 503 C 59.2079 1.95467 0.0720068 0
M  V30 504 O 60.4139 2.7043 0.240834 0
M  V30 505 C 58.8699 2.72893 -2.34644 0
M  V30 506 C 58.4779 2.35544 -3.81081 0
M  V30 507 C 60.2219 3.50791 -2.39052 0
M  V30 508 C 58.1289 3.53948 -4.73787 0
M  V30 509 H 57.0589 0.56727 -0.49671 0
M  V30 510 H 59.7099 0.827147 -1.638 0
M  V30 511 H 58.0919 3.43227 -1.97513 0
M  V30 512 H 59.2659 1.72894 -4.27135 0
M  V30 513 H 57.5809 1.70786 -3.79764 0
M  V30 514 H 60.1779 4.38823 -3.05513 0
M  V30 515 H 60.5209 3.91745 -1.40861 0
M  V30 516 H 61.0539 2.87467 -2.74968 0
M  V30 517 H 57.7929 3.18064 -5.73163 0
M  V30 518 H 57.3129 4.15651 -4.32428 0
M  V30 519 H 58.9919 4.20566 -4.91663 0
M  V30 520 N 59.124 1.23083 0.984299 0
M  V30 521 C 60.535 1.05609 1.5396 0
M  V30 522 C 60.886 -0.377793 1.92528 0
M  V30 523 O 60.011 -1.26398 1.75649 0
M  V30 524 C 60.606 1.91087 2.7977 0
M  V30 525 C 59.165 1.77885 3.31713 0
M  V30 526 C 58.312 1.87028 2.04733 0
M  V30 527 H 61.263 1.36802 0.804419 0
M  V30 528 H 61.284 1.43336 3.5247 0
M  V30 529 H 60.796 2.9544 2.51668 0
M  V30 530 H 58.897 0.762995 3.64704 0
M  V30 531 H 59.01 2.61047 4.01735 0
M  V30 532 H 57.374 1.30565 2.18689 0
M  V30 533 H 58.157 2.92929 1.79017 0
M  V30 534 N 60.6021 -1.18246 1.0419 0
M  V30 535 C 61.5121 -2.25574 0.644476 0
M  V30 536 C 62.5281 -1.70845 -0.329826 0
M  V30 537 O 63.7041 -2.00554 -0.184443 0
M  V30 538 C 60.7691 -3.46697 0.014877 0
M  V30 539 C 59.8301 -4.16554 1.03834 0
M  V30 540 C 59.0631 -5.31894 0.438692 0
M  V30 541 O 59.2861 -5.65385 -0.754752 0
M  V30 542 O 58.2201 -5.90459 1.168 0
M  V30 543 H 62.0461 -2.61836 1.53869 0
M  V30 544 H 59.6311 -1.25352 0.812854 0
M  V30 545 H 61.5131 -4.20062 -0.335538 0
M  V30 546 H 60.1881 -3.12255 -0.853138 0
M  V30 547 H 59.0951 -3.45251 1.44057 0
M  V30 548 H 60.4281 -4.54998 1.87716 0
M  V30 549 N 62.0802 -0.821533 -1.34494 0
M  V30 550 C 63.3262 -0.409552 -1.98622 0
M  V30 551 C 63.6592 1.0244 -1.64984 0
M  V30 552 O 62.9342 1.71325 -0.920758 0
M  V30 553 C 63.2172 -0.610458 -3.54888 0
M  V30 554 C 63.0702 -2.09043 -3.98273 0
M  V30 555 C 64.3892 -0.0455379 -4.40076 0
M  V30 556 H 61.5082 -0.15028 -0.721516 0
M  V30 557 H 64.1502 -1.03384 -1.59411 0
M  V30 558 H 62.3002 -0.079044 -3.8842 0
M  V30 559 H 63.9722 -2.68537 -3.75081 0
M  V30 560 H 62.2152 -2.58139 -3.48635 0
M  V30 561 H 62.8862 -2.18182 -5.07051 0
M  V30 562 H 65.3622 -0.499557 -4.1309 0
M  V30 563 H 64.2382 -0.215922 -5.48475 0
M  V30 564 H 64.4992 1.04939 -4.29465 0
M  V30 565 N 63.5583 1.46682 -0.576371 0
M  V30 566 C 64.4883 2.33028 0.148397 0
M  V30 567 C 65.4693 1.44961 0.889956 0
M  V30 568 O 66.6543 1.73789 0.866662 0
M  V30 569 C 63.7843 3.27117 1.1667 0
M  V30 570 C 62.7383 4.24575 0.540386 0
M  V30 571 C 62.0643 5.08126 1.6647 0
M  V30 572 C 63.3643 5.19722 -0.518331 0
M  V30 573 H 65.0583 2.93875 -0.572509 0
M  V30 574 H 62.6043 1.41315 -0.276768 0
M  V30 575 H 64.5573 3.86374 1.68204 0
M  V30 576 H 63.2813 2.64364 1.9178 0
M  V30 577 H 61.9403 3.66571 0.0461769 0
M  V30 578 H 61.5883 4.41762 2.40531 0
M  V30 579 H 61.2883 5.74122 1.25131 0
M  V30 580 H 62.8123 5.70246 2.18293 0
M  V30 581 H 64.2263 5.73232 -0.0883058 0
M  V30 582 H 62.6233 5.94026 -0.851679 0
M  V30 583 H 63.6933 4.64037 -1.40703 0
M  V30 584 N 65.0364 0.313813 1.54444 0
M  V30 585 C 66.2824 -0.292108 2.00685 0
M  V30 586 C 66.6154 -1.52548 1.20177 0
M  V30 587 O 65.8904 -1.92452 0.281531 0
M  V30 588 C 66.1734 -0.635968 3.5444 0
M  V30 589 C 66.0264 0.607437 4.4568 0
M  V30 590 C 67.3454 -1.45747 4.15266 0
M  V30 591 H 64.4644 -0.104697 0.729526 0
M  V30 592 H 67.1064 0.428457 1.85106 0
M  V30 593 H 65.2564 -1.24986 3.67846 0
M  V30 594 H 66.9284 1.24581 4.44159 0
M  V30 595 H 65.1714 1.23822 4.15753 0
M  V30 596 H 65.8424 0.322515 5.51057 0
M  V30 597 H 68.3184 -0.938645 4.05375 0
M  V30 598 H 67.1944 -1.66683 5.2298 0
M  V30 599 H 67.4554 -2.45063 3.67963 0
M  V30 600 N 66.5145 -1.57545 0.0417849 0
M  V30 601 C 67.7915 -1.83642 -0.673433 0
M  V30 602 C 68.1715 -0.928298 -1.89594 0
M  V30 603 O 67.5195 0.0129955 -2.28496 0
M  V30 604 C 67.7295 -3.33155 -1.03964 0
M  V30 605 C 69.0775 -3.99941 -1.42592 0
M  V30 606 O 70.1015 -3.37725 -1.13226 0
M  V30 607 O 68.9605 -5.09619 -1.9736 0
M  V30 608 H 66.0545 -0.757638 -0.331533 0
M  V30 609 H 68.6005 -1.69554 0.070433 0
M  V30 610 H 67.3725 -3.9093 -0.170098 0
M  V30 611 H 66.9955 -3.52396 -1.84126 0
M  V30 612 N 67.9926 0.231505 -1.5589 0
M  V30 613 C 69.4036 0.799327 -1.68724 0
M  V30 614 C 69.7546 1.85398 -0.642022 0
M  V30 615 O 68.8796 2.1539 0.208784 0
M  V30 616 C 69.4746 1.45664 -3.05888 0
M  V30 617 C 68.0336 1.97197 -3.20609 0
M  V30 618 C 67.1806 0.828552 -2.64632 0
M  V30 619 H 70.1316 0.00702616 -1.58698 0
M  V30 620 H 70.1526 2.32517 -3.01191 0
M  V30 621 H 69.6646 0.688808 -3.81939 0
M  V30 622 H 67.7656 2.76813 -2.4941 0
M  V30 623 H 67.8786 2.15878 -4.27707 0
M  V30 624 H 66.2426 1.23321 -2.22854 0
M  V30 625 H 67.0256 0.0735544 -3.43221 0
M  V30 626 N 69.4707 1.49531 0.497807 0
M  V30 627 C 70.8867 1.36365 0.829266 0
M  V30 628 C 71.0867 0.399184 1.97506 0
M  V30 629 O 70.1427 -0.167977 2.51941 0
M  V30 630 C 71.4557 2.77153 1.16647 0
M  V30 631 C 73.0037 2.85877 1.27449 0
M  V30 632 C 73.4787 4.2744 1.64497 0
M  V30 633 N 74.9697 4.30265 1.7154 0
M  V30 634 C 75.7047 5.3677 2.01656 0
M  V30 635 N 75.2007 6.53516 2.29976 0
M  V30 636 N 76.9937 5.24189 2.02934 0
M  V30 637 H 69.1447 2.10831 -0.257703 0
M  V30 638 H 71.4077 0.946534 -0.0527091 0
M  V30 639 H 71.1137 3.49442 0.397872 0
M  V30 640 H 70.9877 3.12722 2.10915 0
M  V30 641 H 73.3747 2.13824 2.0338 0
M  V30 642 H 73.4557 2.53887 0.312244 0
M  V30 643 H 73.0997 5.00021 0.891151 0
M  V30 644 H 73.0297 4.56896 2.61827 0
M  V30 645 H 75.5207 3.4607 1.51802 0
M  V30 646 H 75.8337 7.30506 2.52153 0
M  V30 647 H 74.1787 6.56737 2.27425 0
M  V30 648 H 77.3697 4.31988 1.80289 0
M  V30 649 H 77.5427 6.07286 2.26071 0
M  V30 650 N 70.9488 -0.749086 1.3866 0
M  V30 651 C 72.1738 -1.54344 1.38538 0
M  V30 652 C 72.5988 -1.88088 -0.0216655 0
M  V30 653 O 71.9568 -1.50899 -1.00494 0
M  V30 654 C 72.0048 -2.8164 2.25192 0
M  V30 655 O 71.1088 -3.7698 1.67212 0
M  V30 656 H 70.4498 -0.466654 0.472367 0
M  V30 657 H 72.9798 -0.925355 1.82478 0
M  V30 658 H 72.9898 -3.30519 2.3921 0
M  V30 659 H 71.6648 -2.56411 3.27454 0
M  V30 660 H 70.2418 -3.35699 1.6236 0
M  V30 661 N 72.4269 -1.23603 -0.977757 0
M  V30 662 C 73.8429 -0.999251 -1.24447 0
M  V30 663 C 74.0429 0.298053 -1.99283 0
M  V30 664 O 73.0989 1.01681 -2.31122 0
M  V30 665 C 74.4119 -2.20784 -2.04144 0
M  V30 666 C 75.9599 -2.25303 -2.17273 0
M  V30 667 C 76.4349 -3.45755 -3.00362 0
M  V30 668 N 77.9259 -3.4601 -3.07947 0
M  V30 669 C 78.6609 -4.35868 -3.72568 0
M  V30 670 N 78.1569 -5.35966 -4.38991 0
M  V30 671 N 79.9499 -4.23605 -3.6948 0
M  V30 672 H 72.1009 -2.06986 -0.476483 0
M  V30 673 H 74.3639 -0.907801 -0.273134 0
M  V30 674 H 74.0699 -3.14945 -1.56533 0
M  V30 675 H 73.9439 -2.22085 -3.04891 0
M  V30 676 H 76.3309 -1.3168 -2.64092 0
M  V30 677 H 76.4119 -2.28033 -1.15907 0
M  V30 678 H 76.0559 -4.39687 -2.5424 0
M  V30 679 H 75.9859 -3.40266 -4.01904 0
M  V30 680 H 78.4769 -2.73588 -2.60688 0
M  V30 681 H 78.7899 -6.00783 -4.86086 0
M  V30 682 H 77.1349 -5.39863 -4.37691 0
M  V30 683 H 80.3259 -3.44647 -3.16759 0
M  V30 684 H 80.4989 -4.93836 -4.1956 0
M  V30 685 N 73.905 1.17692 -1.04816 0
M  V30 686 C 75.321 1.39863 -0.768794 0
M  V30 687 C 75.521 1.91118 0.638451 0
M  V30 688 O 74.577 2.10036 1.40146 0
M  V30 689 C 75.89 2.39274 -1.82122 0
M  V30 690 C 77.438 2.52987 -1.843 0
M  V30 691 C 77.913 3.55669 -2.88555 0
M  V30 692 N 79.404 3.63183 -2.87493 0
M  V30 693 C 80.139 4.42381 -3.64811 0
M  V30 694 N 79.635 5.25125 -4.51903 0
M  V30 695 N 81.428 4.37217 -3.53267 0
M  V30 696 H 73.579 0.82752 -1.95617 0
M  V30 697 H 75.842 0.426123 -0.846831 0
M  V30 698 H 75.548 2.08678 -2.83102 0
M  V30 699 H 75.422 3.38725 -1.65967 0
M  V30 700 H 77.809 2.82896 -0.839869 0
M  V30 701 H 77.89 1.53623 -2.04532 0
M  V30 702 H 77.534 3.26499 -3.89051 0
M  V30 703 H 77.464 4.54728 -2.65575 0
M  V30 704 H 79.955 3.04103 -2.24343 0
M  V30 705 H 80.268 5.82728 -5.07591 0
M  V30 706 H 78.613 5.24519 -4.55966 0
M  V30 707 H 81.804 3.71626 -2.84625 0
M  V30 708 H 81.977 4.98696 -4.13771 0
M  V30 709 N 75.3831 0.828654 1.34056 0
M  V30 710 C 76.7991 0.515135 1.51058 0
M  V30 711 C 76.9991 -0.959581 1.77184 0
M  V30 712 O 76.0551 -1.74382 1.82612 0
M  V30 713 C 77.3681 1.37963 2.67183 0
M  V30 714 C 78.9161 1.37735 2.81066 0
M  V30 715 C 79.3911 2.22645 4.00241 0
M  V30 716 N 80.8821 2.203 4.07458 0
M  V30 717 C 81.6171 2.82744 4.98842 0
M  V30 718 N 81.1131 3.54201 5.9541 0
M  V30 719 N 82.9061 2.72268 4.91759 0
M  V30 720 H 75.0571 1.78343 1.15358 0
M  V30 721 H 77.3201 0.760304 0.566252 0
M  V30 722 H 77.0261 2.42714 2.54525 0
M  V30 723 H 76.9001 1.0484 3.62338 0
M  V30 724 H 79.2871 0.337593 2.93163 0
M  V30 725 H 79.3681 1.74859 1.86703 0
M  V30 726 H 79.0121 3.26674 3.88905 0
M  V30 727 H 78.9421 1.82869 4.93829 0
M  V30 728 H 81.4331 1.68327 3.38341 0
M  V30 729 H 81.7461 3.9908 6.61782 0
M  V30 730 H 80.0911 3.58308 5.95517 0
M  V30 731 H 83.2821 2.16014 4.15278 0
M  V30 732 H 83.4551 3.21219 5.62781 0
M  V30 733 N 76.8612 -1.46375 0.584142 0
M  V30 734 C 78.0912 -2.06461 0.0758195 0
M  V30 735 C 78.4992 -1.43322 -1.23512 0
M  V30 736 O 77.8422 -0.533216 -1.75791 0
M  V30 737 C 77.9042 -3.59131 -0.162773 0
M  V30 738 C 77.5682 -4.4447 1.06279 0
M  V30 739 C 78.5652 -4.80918 1.97519 0
M  V30 740 C 76.2502 -4.85584 1.28504 0
M  V30 741 C 78.2442 -5.57309 3.09331 0
M  V30 742 C 75.9312 -5.61734 2.4062 0
M  V30 743 C 76.9292 -5.9751 3.30863 0
M  V30 744 O 76.6172 -6.72121 4.41032 0
M  V30 745 H 76.3492 -0.673745 0.0551725 0
M  V30 746 H 78.9032 -1.88969 0.804984 0
M  V30 747 H 77.1332 -3.74936 -0.946565 0
M  V30 748 H 78.8222 -4.0114 -0.619782 0
M  V30 749 H 79.5882 -4.49732 1.81565 0
M  V30 750 H 75.4672 -4.57187 0.591702 0
M  V30 751 H 79.0112 -5.85152 3.79793 0
M  V30 752 H 74.9082 -5.92334 2.56537 0
M  V30 753 H 75.6762 -6.90547 4.39417 0
M  V30 754 N 78.3393 -0.321999 -1.54275 0
M  V30 755 C 79.5853 0.281461 -2.00837 0
M  V30 756 C 79.9183 1.51909 -1.20985 0
M  V30 757 O 79.1933 1.923 -0.291733 0
M  V30 758 C 79.4763 0.617162 -3.54772 0
M  V30 759 C 79.3293 -0.631064 -4.45351 0
M  V30 760 C 80.6483 1.43542 -4.16033 0
M  V30 761 H 77.7673 0.100826 -0.730071 0
M  V30 762 H 80.4093 -0.438268 -1.84876 0
M  V30 763 H 78.5593 1.23034 -3.68504 0
M  V30 764 H 80.2313 -1.26934 -4.43492 0
M  V30 765 H 78.4743 -1.26025 -4.15091 0
M  V30 766 H 79.1453 -0.351735 -5.50878 0
M  V30 767 H 81.6213 0.917134 -4.05867 0
M  V30 768 H 80.4973 1.63907 -5.23856 0
M  V30 769 H 80.7583 2.43108 -3.69257 0
M  V30 770 N 79.8174 1.5752 -0.0501392 0
M  V30 771 C 81.2334 1.56631 0.306402 0
M  V30 772 C 81.4334 1.0577 1.71508 0
M  V30 773 O 80.4894 0.713837 2.422 0
M  V30 774 C 81.8024 3.00393 0.135811 0
M  V30 775 C 83.3504 3.12315 0.206993 0
M  V30 776 C 83.8254 4.57954 0.064944 0
M  V30 777 N 85.3164 4.63041 0.121254 0
M  V30 778 C 86.0514 5.73389 0.0354381 0
M  V30 779 N 85.5474 6.92724 -0.102666 0
M  V30 780 N 87.3404 5.62026 0.090946 0
M  V30 781 H 79.4914 1.88903 -0.971046 0
M  V30 782 H 81.7544 0.869876 -0.376855 0
M  V30 783 H 81.4604 3.41635 -0.835384 0
M  V30 784 H 81.3344 3.66373 0.897275 0
M  V30 785 H 83.7214 2.70973 1.16866 0
M  V30 786 H 83.8024 2.49016 -0.585208 0
M  V30 787 H 83.4464 4.99981 -0.893394 0
M  V30 788 H 83.3764 5.19258 0.876277 0
M  V30 789 H 85.8674 3.77216 0.227284 0
M  V30 790 H 86.1804 7.72633 -0.160882 0
M  V30 791 H 84.5254 6.94864 -0.137737 0
M  V30 792 H 87.7164 4.67684 0.197388 0
M  V30 793 H 87.8894 6.47997 0.0206089 0
M  V30 794 N 81.2955 -0.223234 1.56011 0
M  V30 795 C 82.5435 -0.946003 1.78592 0
M  V30 796 C 82.8645 -1.84936 0.618349 0
M  V30 797 O 82.1345 -1.92473 -0.364833 0
M  V30 798 H 80.7145 -0.352298 0.658707 0
M  V30 799 H 83.3765 -0.235494 1.93472 0
M  V30 800 H 82.4725 -1.55381 2.70672 0
M  V30 801 N 82.7736 -1.49793 -0.48987 0
M  V30 802 C 84.1896 -1.36803 -0.822022 0
M  V30 803 C 84.3896 -0.409652 -1.97292 0
M  V30 804 O 83.4456 0.154614 -2.52026 0
M  V30 805 C 84.7586 -2.77768 -1.15175 0
M  V30 806 C 86.3066 -2.86549 -1.25931 0
M  V30 807 C 86.7816 -4.28306 -1.62228 0
M  V30 808 N 88.2726 -4.31169 -1.69256 0
M  V30 809 C 89.0076 -5.37832 -1.98807 0
M  V30 810 N 88.5036 -6.54726 -2.26507 0
M  V30 811 N 90.2966 -5.25258 -2.00152 0
M  V30 812 H 82.4476 -2.10691 0.268881 0
M  V30 813 H 84.7106 -0.946241 0.057728 0
M  V30 814 H 84.4166 -3.49648 -0.379335 0
M  V30 815 H 84.2906 -3.13836 -2.09253 0
M  V30 816 H 86.6776 -2.14899 -2.02243 0
M  V30 817 H 86.7586 -2.54049 -0.298776 0
M  V30 818 H 86.4026 -5.00486 -0.864622 0
M  V30 819 H 86.3326 -4.58279 -2.594 0
M  V30 820 H 88.8236 -3.4687 -1.49965 0
M  V30 821 H 89.1366 -7.31833 -2.48276 0
M  V30 822 H 87.4816 -6.57933 -2.23939 0
M  V30 823 H 90.6726 -4.32938 -1.77996 0
M  V30 824 H 90.8456 -6.08476 -2.22848 0
M  V30 825 N 84.2517 0.741722 -1.39055 0
M  V30 826 C 85.4987 1.50114 -1.35912 0
M  V30 827 C 85.8267 1.94443 0.0470937 0
M  V30 828 O 85.0817 1.66612 1.02659 0
M  V30 829 C 85.3807 2.7592 -2.27163 0
M  V30 830 C 85.0467 2.50493 -3.74919 0
M  V30 831 C 83.7087 2.43267 -4.1518 0
M  V30 832 C 86.0607 2.28585 -4.684 0
M  V30 833 C 83.3887 2.12166 -5.46994 0
M  V30 834 C 85.7407 1.99002 -6.00484 0
M  V30 835 C 84.4047 1.90241 -6.39816 0
M  V30 836 H 83.6747 0.549306 -0.497336 0
M  V30 837 H 86.3217 0.851896 -1.71508 0
M  V30 838 H 84.6267 3.45553 -1.84663 0
M  V30 839 H 86.3237 3.33923 -2.22028 0
M  V30 840 H 82.9137 2.56992 -3.43006 0
M  V30 841 H 87.0977 2.33139 -4.38132 0
M  V30 842 H 82.3537 2.03901 -5.76398 0
M  V30 843 H 86.5277 1.81057 -6.72452 0
M  V30 844 H 84.1547 1.65907 -7.41875 0
M  V30 845 N 85.7298 1.2412 0.971189 0
M  V30 846 C 86.6598 1.05508 2.08304 0
M  V30 847 C 87.6408 -0.0308864 1.70072 0
M  V30 848 O 88.8258 0.135521 1.93727 0
M  V30 849 C 85.9558 0.655365 3.4106 0
M  V30 850 C 84.9098 1.68971 3.93234 0
M  V30 851 C 84.2358 1.14516 5.22293 0
M  V30 852 C 85.5358 3.08487 4.21465 0
M  V30 853 H 87.2298 1.98507 2.24132 0
M  V30 854 H 84.7758 0.955821 1.07704 0
M  V30 855 H 86.7288 0.51217 4.18276 0
M  V30 856 H 85.4528 -0.31032 3.25122 0
M  V30 857 H 84.1118 1.82106 3.18171 0
M  V30 858 H 83.7598 0.170189 5.02712 0
M  V30 859 H 83.4598 1.83635 5.58168 0
M  V30 860 H 84.9838 1.01401 6.02121 0
M  V30 861 H 86.3978 2.98601 4.89398 0
M  V30 862 H 84.7948 3.74926 4.68562 0
M  V30 863 H 85.8648 3.56787 3.28376 0
M  V30 864 N 87.2079 -1.17134 1.05439 0
M  V30 865 C 88.4559 -1.87085 0.764429 0
M  V30 866 C 88.7769 -1.81584 -0.710787 0
M  V30 867 O 88.0469 -1.24349 -1.51374 0
M  V30 868 H 86.6269 -0.692627 0.279779 0
M  V30 869 H 89.2889 -1.42087 1.33406 0
M  V30 870 H 88.3849 -2.92759 1.0816 0
M  V30 871 N 88.686 -0.835752 -1.33615 0
M  V30 872 C 89.633 -0.26473 -2.29277 0
M  V30 873 C 90.603 0.617712 -1.54187 0
M  V30 874 O 91.788 0.556641 -1.825 0
M  V30 875 C 88.928 0.556777 -3.40579 0
M  V30 876 C 88.041 -0.349339 -4.30585 0
M  V30 877 C 87.176 0.482969 -5.29 0
M  V30 878 C 86.215 -0.421732 -6.10645 0
M  V30 879 N 85.352 0.372262 -7.01112 0
M  V30 880 H 90.192 -1.08582 -2.77514 0
M  V30 881 H 87.729 -0.546927 -1.36554 0
M  V30 882 H 89.687 1.04852 -4.03809 0
M  V30 883 H 88.317 1.34286 -2.93542 0
M  V30 884 H 87.369 -0.959372 -3.68104 0
M  V30 885 H 88.681 -1.04445 -4.87742 0
M  V30 886 H 87.835 1.03866 -5.97743 0
M  V30 887 H 86.574 1.21153 -4.72412 0
M  V30 888 H 85.579 -0.989464 -5.40823 0
M  V30 889 H 86.804 -1.14861 -6.69316 0
M  V30 890 H 84.75 1.08426 -6.46977 0
M  V30 891 H 84.667 -0.264198 -7.55538 0
M  V30 892 H 85.935 0.910293 -7.74167 0
M  V30 893 N 90.1641 1.46063 -0.591896 0
M  V30 894 C 91.4121 2.01938 -0.0808391 0
M  V30 895 C 91.7331 1.46475 1.28725 0
M  V30 896 O 91.0031 0.652944 1.84698 0
M  V30 897 H 89.5831 0.746516 -0.0268938 0
M  V30 898 H 92.2451 1.79055 -0.769752 0
M  V30 899 H 91.3411 3.12094 -0.0187578 0
M  V30 900 N 91.6422 0.330177 1.54103 0
M  V30 901 C 92.8902 -0.269871 2.0029 0
M  V30 902 C 93.2112 -1.52133 1.21986 0
M  V30 903 O 92.4812 -1.93212 0.323438 0
M  V30 904 H 91.0612 -0.10271 0.739905 0
M  V30 905 H 93.7232 0.448249 1.89675 0
M  V30 906 H 92.8192 -0.52166 3.07709 0
M  V30 907 N 93.1203 -1.57491 0.0584922 0
M  V30 908 C 94.3673 -1.92978 -0.613648 0
M  V30 909 C 94.6953 -0.937461 -1.70417 0
M  V30 910 O 93.9503 0.049078 -1.95638 0
M  V30 911 C 94.2493 -3.3513 -1.24188 0
M  V30 912 C 93.9153 -4.50037 -0.278826 0
M  V30 913 C 92.5773 -4.81198 -0.0138447 0
M  V30 914 C 94.9293 -5.19807 0.380777 0
M  V30 915 C 92.2573 -5.79473 0.918052 0
M  V30 916 C 94.6093 -6.19079 1.30091 0
M  V30 917 C 93.2733 -6.48665 1.57449 0
M  V30 918 H 92.5433 -0.706157 -0.22455 0
M  V30 919 H 95.1903 -1.91082 0.126533 0
M  V30 920 H 93.4953 -3.33429 -2.05749 0
M  V30 921 H 95.1923 -3.59871 -1.769 0
M  V30 922 H 91.7823 -4.25726 -0.495539 0
M  V30 923 H 95.9663 -4.95939 0.189158 0
M  V30 924 H 91.2223 -6.00727 1.1374 0
M  V30 925 H 95.3963 -6.7225 1.81804 0
M  V30 926 H 93.0233 -7.24628 2.29822 0
M  V30 927 N 94.5984 0.214957 -1.56127 0
M  V30 928 C 95.5614 1.24997 -1.92116 0
M  V30 929 C 96.5614 1.39467 -0.800344 0
M  V30 930 O 97.7514 1.37619 -1.06802 0
M  V30 931 C 94.8834 2.62271 -2.17777 0
M  V30 932 H 96.0764 0.942875 -2.84693 0
M  V30 933 H 93.6294 0.455654 -1.49511 0
M  V30 934 H 94.3644 2.98068 -1.27773 0
M  V30 935 H 94.1494 2.53143 -2.99434 0
M  V30 936 H 95.6394 3.36946 -2.46693 0
M  V30 937 N 96.0765 1.50051 0.48192 0
M  V30 938 C 97.0235 1.68122 1.58125 0
M  V30 939 C 97.9935 0.522545 1.57666 0
M  V30 940 O 99.1785 0.751844 1.75362 0
M  V30 941 C 96.3185 1.77142 2.96167 0
M  V30 942 C 95.4315 3.0444 3.06497 0
M  V30 943 C 94.5665 3.04321 4.35387 0
M  V30 944 C 93.6055 4.26118 4.3942 0
M  V30 945 N 92.7425 4.238 5.59766 0
M  V30 946 H 97.5825 2.6198 1.42022 0
M  V30 947 H 95.1195 1.29877 0.690687 0
M  V30 948 H 97.0775 1.80352 3.76203 0
M  V30 949 H 95.7075 0.867329 3.1093 0
M  V30 950 H 94.7595 3.10752 2.19402 0
M  V30 951 H 96.0715 3.94426 3.05336 0
M  V30 952 H 95.2255 3.062 5.23762 0
M  V30 953 H 93.9645 2.12147 4.39141 0
M  V30 954 H 92.9695 4.24463 3.49444 0
M  V30 955 H 94.1945 5.19507 4.37366 0
M  V30 956 H 92.1405 3.34474 5.64326 0
M  V30 957 H 92.0575 5.07542 5.60301 0
M  V30 958 H 93.3255 4.2981 6.50295 0
M  V30 959 N 97.5546 -0.734337 1.39446 0
M  V30 960 C 98.7946 -1.50655 1.38139 0
M  V30 961 C 99.1586 -1.91986 -0.0228701 0
M  V30 962 O 100.36 -2.68318 -0.160947 0
M  V30 963 C 98.6306 -2.71251 2.32718 0
M  V30 964 S 100.19 -3.60892 2.49605 0
M  V30 965 H 97.0076 -0.515315 0.489869 0
M  V30 966 H 99.6096 -0.860392 1.75549 0
M  V30 967 H 98.3136 -2.39027 3.33608 0
M  V30 968 H 97.8446 -3.40795 1.96526 0
M  V30 969 H 99.8596 -4.64899 1.73446 0
M  V30 970 N 99.0327 -1.24633 -0.964593 0
M  V30 971 C 100.28 -1.08788 -1.70796 0
M  V30 972 C 100.608 0.372783 -1.90894 0
M  V30 973 O 99.8627 1.29167 -1.47018 0
M  V30 974 C 100.162 -1.7763 -3.10133 0
M  V30 975 C 99.8277 -3.27557 -3.09866 0
M  V30 976 C 98.4897 -3.6846 -3.09501 0
M  V30 977 C 100.842 -4.23389 -3.03959 0
M  V30 978 C 98.1697 -5.03624 -3.00965 0
M  V30 979 C 100.522 -5.58565 -2.96965 0
M  V30 980 C 99.1857 -5.98809 -2.9493 0
M  V30 981 H 98.4557 -0.398084 -0.624988 0
M  V30 982 H 101.103 -1.54777 -1.12767 0
M  V30 983 H 99.4077 -1.24044 -3.71645 0
M  V30 984 H 101.105 -1.62832 -3.66451 0
M  V30 985 H 97.6947 -2.95006 -3.10917 0
M  V30 986 H 101.879 -3.92787 -3.03368 0
M  V30 987 H 97.1347 -5.33998 -2.97752 0
M  V30 988 H 101.309 -6.32523 -2.91354 0
M  V30 989 H 98.9357 -7.03505 -2.88071 0
M  V30 990 N 100.511 1.16574 -1.06058 0
M  V30 991 C 101.421 2.2452 -0.680282 0
M  V30 992 C 102.437 1.71348 0.302604 0
M  V30 993 O 103.613 2.00822 0.152513 0
M  V30 994 C 100.678 3.46629 -0.0700315 0
M  V30 995 C 99.7388 4.14849 -1.10448 0
M  V30 996 C 98.9718 5.31129 -0.523256 0
M  V30 997 O 99.1948 5.66514 0.664709 0
M  V30 998 O 98.1288 5.88526 -1.26179 0
M  V30 999 H 101.955 2.59355 -1.58015 0
M  V30 1000 H 99.5398 1.24043 -0.832694 0
M  V30 1001 H 101.422 4.20543 0.268667 0
M  V30 1002 H 100.097 3.13573 0.803353 0
M  V30 1003 H 99.0038 3.42916 -1.49532 0
M  V30 1004 H 100.337 4.51954 -1.94931 0
M  V30 1005 N 101.989 0.842826 1.3317 0
M  V30 1006 C 103.238 0.436738 1.96915 0
M  V30 1007 C 103.551 -1.01025 1.67491 0
M  V30 1008 O 104.757 -1.5212 2.24881 0
M  V30 1009 C 103.213 0.730021 3.52418 0
M  V30 1010 C 102.821 2.19195 3.90714 0
M  V30 1011 C 104.565 0.391076 4.22695 0
M  V30 1012 C 102.472 2.42907 5.39212 0
M  V30 1013 H 101.402 0.15958 0.736919 0
M  V30 1014 H 104.053 1.03196 1.51733 0
M  V30 1015 H 102.435 0.0643755 3.95948 0
M  V30 1016 H 103.609 2.8984 3.58231 0
M  V30 1017 H 101.924 2.49425 3.33431 0
M  V30 1018 H 104.521 0.545817 5.31907 0
M  V30 1019 H 104.864 -0.666294 4.10933 0
M  V30 1020 H 105.397 1.01212 3.84709 0
M  V30 1021 H 102.136 3.47224 5.55982 0
M  V30 1022 H 101.656 1.76827 5.73142 0
M  V30 1023 H 103.335 2.2626 6.06148 0
M  V30 1024 N 103.467 -1.45747 0.599634 0
M  V30 1025 C 104.692 -2.07178 0.0960198 0
M  V30 1026 C 105.117 -1.44268 -1.207 0
M  V30 1027 O 104.475 -0.532503 -1.73303 0
M  V30 1028 C 104.523 -3.60579 -0.0385348 0
M  V30 1029 O 103.627 -3.97713 -1.0908 0
M  V30 1030 H 102.968 -0.660251 0.0704593 0
M  V30 1031 H 105.498 -1.87124 0.827385 0
M  V30 1032 H 105.508 -4.07298 -0.239304 0
M  V30 1033 H 104.183 -4.05756 0.912947 0
M  V30 1034 H 102.76 -3.62678 -0.867135 0
M  V30 1035 N 104.945 -0.338344 -1.53925 0
M  V30 1036 C 106.222 0.314774 -1.93051 0
M  V30 1037 C 106.602 1.68669 -1.26941 0
M  V30 1038 O 105.95 2.24636 -0.418445 0
M  V30 1039 C 106.16 0.392249 -3.46789 0
M  V30 1040 C 107.508 0.645554 -4.19664 0
M  V30 1041 O 108.532 0.474575 -3.53024 0
M  V30 1042 O 107.391 0.976408 -5.37707 0
M  V30 1043 H 104.485 0.182598 -0.80659 0
M  V30 1044 H 107.031 -0.389141 -1.65178 0
M  V30 1045 H 105.803 -0.570702 -3.87116 0
M  V30 1046 H 105.426 1.14316 -3.80812 0
M  V30 1047 N 106.423 1.57458 -0.0668435 0
M  V30 1048 C 107.386 2.11323 0.887422 0
M  V30 1049 C 108.386 1.03618 1.22964 0
M  V30 1050 O 109.576 1.29626 1.16373 0
M  V30 1051 C 106.708 2.61048 2.19242 0
M  V30 1052 H 107.901 2.96942 0.420194 0
M  V30 1053 H 105.454 1.55239 0.181793 0
M  V30 1054 H 106.189 1.78868 2.70512 0
M  V30 1055 H 105.974 3.39769 1.95702 0
M  V30 1056 H 107.464 3.02814 2.87565 0
M  V30 1057 N 107.901 -0.206675 1.56239 0
M  V30 1058 C 109.178 -0.954051 1.70755 0
M  V30 1059 C 109.558 -2.01841 0.618353 0
M  V30 1060 O 108.906 -2.25444 -0.372434 0
M  V30 1061 C 109.116 -1.551 3.12642 0
M  V30 1062 C 110.464 -2.03757 3.72516 0
M  V30 1063 O 111.488 -1.64965 3.15698 0
M  V30 1064 O 110.347 -2.75103 4.72208 0
M  V30 1065 H 107.441 -0.446636 0.696021 0
M  V30 1066 H 109.987 -0.197283 1.68549 0
M  V30 1067 H 108.759 -0.783212 3.83382 0
M  V30 1068 H 108.382 -2.37291 3.19028 0
M  V30 1069 N 109.379 -1.50304 -0.473955 0
M  V30 1070 C 110.607 -1.64902 -1.24959 0
M  V30 1071 C 111.022 -0.331198 -1.85872 0
M  V30 1072 O 110.379 0.68652 -1.69095 0
M  V30 1073 C 110.43 -2.73803 -2.36038 0
M  V30 1074 O 110.151 -4.00477 -1.77624 0
M  V30 1075 C 111.652 -2.99349 -3.26964 0
M  V30 1076 H 108.872 -0.554383 -0.378022 0
M  V30 1077 H 111.416 -1.9651 -0.566054 0
M  V30 1078 H 109.571 -2.44898 -3.00173 0
M  V30 1079 H 109.985 -4.60678 -2.5075 0
M  V30 1080 H 111.459 -3.79217 -4.01121 0
M  V30 1081 H 111.936 -2.10307 -3.85574 0
M  V30 1082 H 112.542 -3.29774 -2.68569 0
M  V30 1083 N 110.857 0.726932 -1.39834 0
M  V30 1084 C 111.804 1.841 -1.39197 0
M  V30 1085 C 112.774 1.642 -0.250502 0
M  V30 1086 O 113.959 1.85494 -0.446846 0
M  V30 1087 C 111.099 3.21697 -1.24919 0
M  V30 1088 C 110.212 3.53247 -2.48678 0
M  V30 1089 C 109.347 4.80289 -2.26928 0
M  V30 1090 C 108.386 5.04707 -3.4632 0
M  V30 1091 N 107.523 6.22956 -3.23836 0
M  V30 1092 H 112.363 1.83979 -2.34427 0
M  V30 1093 H 109.9 0.898876 -1.16442 0
M  V30 1094 H 111.858 4.01137 -1.1465 0
M  V30 1095 H 110.488 3.21076 -0.333153 0
M  V30 1096 H 109.54 2.68447 -2.69519 0
M  V30 1097 H 110.852 3.67205 -3.37582 0
M  V30 1098 H 110.006 5.67725 -2.13947 0
M  V30 1099 H 108.745 4.68519 -1.35431 0
M  V30 1100 H 107.75 4.1573 -3.5979 0
M  V30 1101 H 108.975 5.18357 -4.38729 0
M  V30 1102 H 106.921 6.12459 -2.35011 0
M  V30 1103 H 106.838 6.37539 -4.063 0
M  V30 1104 H 108.106 7.1321 -3.14566 0
M  V30 1105 N 112.336 1.25143 0.95797 0
M  V30 1106 C 113.246 1.06968 2.08794 0
M  V30 1107 C 114.262 0.00773911 1.73998 0
M  V30 1108 O 115.438 0.207972 2.00323 0
M  V30 1109 C 112.503 0.68691 3.39827 0
M  V30 1110 C 111.564 1.82641 3.88511 0
M  V30 1111 C 110.797 1.46181 5.1329 0
M  V30 1112 O 111.02 0.355971 5.69288 0
M  V30 1113 O 109.954 2.29085 5.566 0
M  V30 1114 H 113.78 2.01723 2.27027 0
M  V30 1115 H 111.365 1.04051 1.07209 0
M  V30 1116 H 113.247 0.485417 4.18595 0
M  V30 1117 H 111.922 -0.231417 3.22872 0
M  V30 1118 H 110.829 2.08274 3.10762 0
M  V30 1119 H 112.162 2.72386 4.09959 0
M  V30 1120 N 113.814 -1.1601 1.06675 0
M  V30 1121 C 115.06 -1.86909 0.786945 0
M  V30 1122 C 115.393 -1.81717 -0.685018 0
M  V30 1123 O 114.668 -1.23551 -1.50218 0
M  V30 1124 C 114.951 -3.36313 1.28707 0
M  V30 1125 C 114.804 -3.50175 2.82308 0
M  V30 1126 C 116.123 -4.3084 0.898071 0
M  V30 1127 H 113.242 -0.678677 0.287343 0
M  V30 1128 H 115.884 -1.36336 1.32334 0
M  V30 1129 H 114.034 -3.79513 0.830768 0
M  V30 1130 H 115.706 -3.15886 3.36175 0
M  V30 1131 H 113.949 -2.91959 3.20847 0
M  V30 1132 H 114.62 -4.55116 3.12368 0
M  V30 1133 H 117.096 -3.95561 1.29114 0
M  V30 1134 H 115.972 -5.33876 1.27543 0
M  V30 1135 H 116.233 -4.41662 -0.196651 0
M  V30 1136 N 115.292 -0.849877 -1.32721 0
M  V30 1137 C 116.539 -0.450923 -1.97416 0
M  V30 1138 C 116.867 0.992376 -1.67279 0
M  V30 1139 O 116.122 1.71048 -0.950845 0
M  V30 1140 C 116.421 -0.631272 -3.51781 0
M  V30 1141 C 116.087 -2.04432 -4.01894 0
M  V30 1142 C 114.749 -2.4308 -4.1529 0
M  V30 1143 C 117.101 -2.96679 -4.28522 0
M  V30 1144 C 114.429 -3.73257 -4.52654 0
M  V30 1145 C 116.781 -4.26349 -4.67343 0
M  V30 1146 C 115.445 -4.64939 -4.78945 0
M  V30 1147 H 114.715 -0.165004 -0.722395 0
M  V30 1148 H 117.362 -1.07901 -1.58207 0
M  V30 1149 H 115.667 0.0800767 -3.91718 0
M  V30 1150 H 117.364 -0.302709 -3.99856 0
M  V30 1151 H 113.954 -1.73419 -3.91949 0
M  V30 1152 H 118.138 -2.68054 -4.17685 0
M  V30 1153 H 113.394 -4.02946 -4.59831 0
M  V30 1154 H 117.568 -4.97895 -4.86902 0
M  V30 1155 H 115.195 -5.65855 -5.07654 0
M  V30 1156 N 116.77 1.45427 -0.607355 0
M  V30 1157 C 117.733 2.28974 0.101693 0
M  V30 1158 C 118.733 1.39754 0.795329 0
M  V30 1159 O 119.923 1.61878 0.643527 0
M  V30 1160 C 117.055 3.20768 1.15414 0
M  V30 1161 H 118.248 2.93147 -0.632844 0
M  V30 1162 H 115.801 1.51945 -0.366391 0
M  V30 1163 H 116.536 2.61395 1.91945 0
M  V30 1164 H 116.321 3.86489 0.66098 0
M  V30 1165 H 117.811 3.83589 1.65073 0
M  V30 1166 N 118.248 0.346503 1.53744 0
M  V30 1167 C 119.496 -0.248612 2.00565 0
M  V30 1168 C 119.817 -1.5083 1.23593 0
M  V30 1169 O 119.087 -1.92858 0.343912 0
M  V30 1170 H 117.667 -0.0948564 0.740953 0
M  V30 1171 H 120.329 0.468341 1.89189 0
M  V30 1172 H 119.425 -0.488994 3.08245 0
M  V30 1173 N 119.726 -1.57421 0.075193 0
M  V30 1174 C 120.673 -2.12915 -0.890843 0
M  V30 1175 C 121.643 -1.04252 -1.29309 0
M  V30 1176 O 122.828 -1.31933 -1.37834 0
M  V30 1177 C 119.968 -2.69795 -2.15186 0
M  V30 1178 C 119.081 -3.92624 -1.80194 0
M  V30 1179 C 118.216 -4.37736 -3.00933 0
M  V30 1180 C 117.255 -5.53205 -2.61974 0
M  V30 1181 N 116.392 -5.9326 -3.75483 0
M  V30 1182 H 121.232 -2.95156 -0.410735 0
M  V30 1183 H 118.769 -1.45854 -0.191086 0
M  V30 1184 H 120.727 -3.00883 -2.89008 0
M  V30 1185 H 119.357 -1.90313 -2.60731 0
M  V30 1186 H 118.409 -3.67977 -0.964218 0
M  V30 1187 H 119.721 -4.76482 -1.47534 0
M  V30 1188 H 118.875 -4.70503 -3.8303 0
M  V30 1189 H 117.614 -3.52739 -3.36789 0
M  V30 1190 H 116.619 -5.20086 -1.783 0
M  V30 1191 H 117.844 -6.39936 -2.27284 0
M  V30 1192 H 115.79 -5.11212 -4.11094 0
M  V30 1193 H 115.707 -6.71865 -3.46602 0
M  V30 1194 H 116.975 -6.30651 -4.58148 0
M  V30 1195 N 121.204 0.198386 -1.56346 0
M  V30 1196 C 122.453 0.917451 -1.79627 0
M  V30 1197 C 122.766 1.8456 -0.64784 0
M  V30 1198 O 123.972 2.60504 -0.764859 0
M  V30 1199 C 122.428 1.68175 -3.18191 0
M  V30 1200 C 122.036 0.798589 -4.40825 0
M  V30 1201 C 123.78 2.39065 -3.50782 0
M  V30 1202 C 121.687 1.56157 -5.70411 0
M  V30 1203 H 120.617 0.346317 -0.669762 0
M  V30 1204 H 123.268 0.170801 -1.82703 0
M  V30 1205 H 121.65 2.47216 -3.09354 0
M  V30 1206 H 122.824 0.0470665 -4.60776 0
M  V30 1207 H 121.139 0.200686 -4.15916 0
M  V30 1208 H 123.736 2.96692 -4.44835 0
M  V30 1209 H 124.079 3.13091 -2.74371 0
M  V30 1210 H 124.612 1.66993 -3.61052 0
M  V30 1211 H 121.351 0.864142 -6.49779 0
M  V30 1212 H 120.871 2.2871 -5.54483 0
M  V30 1213 H 122.55 2.11622 -6.11412 0
M  V30 1214 N 122.682 1.50554 0.465978 0
M  V30 1215 C 123.928 1.62038 1.21949 0
M  V30 1216 C 124.261 0.322116 1.9151 0
M  V30 1217 O 123.536 -0.676723 1.82348 0
M  V30 1218 C 123.819 2.80421 2.25912 0
M  V30 1219 C 123.672 4.20144 1.60622 0
M  V30 1220 C 124.991 2.94354 3.27176 0
M  V30 1221 H 122.11 0.589752 0.441998 0
M  V30 1222 H 124.752 1.82956 0.51257 0
M  V30 1223 H 122.902 2.62717 2.86203 0
M  V30 1224 H 124.574 4.49449 1.03889 0
M  V30 1225 H 122.817 4.24165 0.909211 0
M  V30 1226 H 123.488 4.98914 2.36196 0
M  V30 1227 H 125.964 3.10578 2.76913 0
M  V30 1228 H 124.84 3.788 3.97242 0
M  V30 1229 H 125.101 2.05186 3.916 0
M  V30 1230 N 124.16 -0.719506 1.40217 0
M  V30 1231 C 125.571 -1.29848 1.34151 0
M  V30 1232 C 125.922 -1.96196 0.0131349 0
M  V30 1233 O 125.047 -1.973 -0.88892 0
M  V30 1234 C 125.642 -2.36118 2.42968 0
M  V30 1235 C 124.201 -2.8965 2.40374 0
M  V30 1236 C 123.348 -1.63393 2.24049 0
M  V30 1237 H 126.299 -0.51591 1.5008 0
M  V30 1238 H 126.32 -3.16871 2.10649 0
M  V30 1239 H 125.832 -1.878 3.39636 0
M  V30 1240 H 123.933 -3.42208 1.47392 0
M  V30 1241 H 124.046 -3.4171 3.35814 0
M  V30 1242 H 122.41 -1.88312 1.71495 0
M  V30 1243 H 123.193 -1.17104 3.2271 0
M  V30 1244 N 125.638 -1.25649 -0.95132 0
M  V30 1245 C 126.585 -1.06323 -2.04851 0
M  V30 1246 C 127.555 0.0286491 -1.66075 0
M  V30 1247 O 128.74 -0.12917 -1.90362 0
M  V30 1248 C 125.88 -0.691529 -3.381 0
M  V30 1249 C 124.993 -1.85861 -3.89974 0
M  V30 1250 C 124.128 -1.43096 -5.11563 0
M  V30 1251 C 123.167 -2.56696 -5.55674 0
M  V30 1252 N 122.304 -2.14684 -6.68472 0
M  V30 1253 H 127.144 -2.00222 -2.20715 0
M  V30 1254 H 124.681 -0.997027 -1.08156 0
M  V30 1255 H 126.639 -0.456963 -4.1469 0
M  V30 1256 H 125.269 0.210474 -3.22113 0
M  V30 1257 H 124.321 -2.20639 -3.09875 0
M  V30 1258 H 125.633 -2.71161 -4.18657 0
M  V30 1259 H 124.787 -1.15624 -5.9558 0
M  V30 1260 H 123.526 -0.548722 -4.84603 0
M  V30 1261 H 122.531 -2.84909 -4.7022 0
M  V30 1262 H 123.756 -3.45503 -5.8464 0
M  V30 1263 H 121.702 -1.28881 -6.43215 0
M  V30 1264 H 121.619 -2.9353 -6.96689 0
M  V30 1265 H 122.887 -1.90397 -7.5589 0
M  V30 1266 N 127.117 1.15442 -1.07289 0
M  V30 1267 C 128.342 1.90638 -0.816828 0
M  V30 1268 C 128.767 1.77445 0.624083 0
M  V30 1269 O 128.125 1.10671 1.43602 0
M  V30 1270 C 128.173 3.39008 -1.22906 0
M  V30 1271 O 127.277 4.10701 -0.373975 0
M  V30 1272 H 126.618 0.593555 -0.297638 0
M  V30 1273 H 129.148 1.46198 -1.43134 0
M  V30 1274 H 129.158 3.89801 -1.20497 0
M  V30 1275 H 127.833 3.47929 -2.27856 0
M  V30 1276 H 126.41 3.70046 -0.460499 0
M  V30 1277 N 128.595 0.856903 1.32268 0
M  V30 1278 C 129.525 0.31858 2.31316 0
M  V30 1279 C 130.506 -0.583487 1.59779 0
M  V30 1280 O 131.691 -0.503259 1.87566 0
M  V30 1281 C 128.821 -0.491979 3.43798 0
M  V30 1282 C 127.775 0.315849 4.26833 0
M  V30 1283 C 127.101 -0.619586 5.31098 0
M  V30 1284 C 128.401 1.54282 4.98993 0
M  V30 1285 H 130.095 1.14621 2.76591 0
M  V30 1286 H 127.641 0.552613 1.32974 0
M  V30 1287 H 129.594 -0.879012 4.1213 0
M  V30 1288 H 128.318 -1.35299 2.97257 0
M  V30 1289 H 126.977 0.684664 3.6015 0
M  V30 1290 H 126.625 -1.47751 4.8081 0
M  V30 1291 H 126.325 -0.0830621 5.87541 0
M  V30 1292 H 127.849 -1.00375 6.02293 0
M  V30 1293 H 129.263 1.22796 5.59995 0
M  V30 1294 H 127.66 2.01745 5.65172 0
M  V30 1295 H 128.73 2.30285 4.26728 0
M  V30 1296 N 130.073 -1.45103 0.615059 0
M  V30 1297 C 131.003 -2.33339 -0.0865619 0
M  V30 1298 C 131.984 -1.4727 -0.851209 0
M  V30 1299 O 133.169 -1.76026 -0.820281 0
M  V30 1300 C 130.299 -3.30095 -1.07956 0
M  V30 1301 C 129.253 -4.25858 -0.427628 0
M  V30 1302 C 128.579 -5.12361 -1.5294 0
M  V30 1303 C 129.879 -5.18165 0.655944 0
M  V30 1304 H 131.573 -2.92254 0.650224 0
M  V30 1305 H 129.119 -1.40532 0.314138 0
M  V30 1306 H 131.072 -3.90698 -1.57901 0
M  V30 1307 H 129.796 -2.69355 -1.84703 0
M  V30 1308 H 128.455 -3.66564 0.0510292 0
M  V30 1309 H 128.103 -4.47984 -2.28734 0
M  V30 1310 H 127.803 -5.77238 -1.09865 0
M  V30 1311 H 129.327 -5.75833 -2.03098 0
M  V30 1312 H 130.741 -5.72796 0.240257 0
M  V30 1313 H 129.138 -5.91559 1.00888 0
M  V30 1314 H 130.208 -4.60144 1.52957 0
M  V30 1315 N 131.551 -0.354651 -1.53558 0
M  V30 1316 C 132.481 0.489091 -2.2832 0
M  V30 1317 C 133.462 1.09324 -1.30316 0
M  V30 1318 O 134.647 1.11255 -1.59173 0
M  V30 1319 C 131.777 1.63456 -3.0643 0
M  V30 1320 C 130.731 1.1582 -4.12031 0
M  V30 1321 C 130.057 2.39305 -4.7816 0
M  V30 1322 C 131.357 0.250731 -5.21698 0
M  V30 1323 H 133.051 -0.134614 -2.99097 0
M  V30 1324 H 130.597 -0.0661826 -1.43848 0
M  V30 1325 H 132.55 2.23136 -3.57475 0
M  V30 1326 H 131.274 2.28533 -2.33325 0
M  V30 1327 H 129.933 0.584146 -3.61916 0
M  V30 1328 H 129.581 3.02814 -4.01637 0
M  V30 1329 H 129.281 2.08109 -5.49513 0
M  V30 1330 H 130.805 2.99691 -5.31994 0
M  V30 1331 H 132.219 0.754695 -5.68311 0
M  V30 1332 H 130.616 0.0301468 -6.00092 0
M  V30 1333 H 131.686 -0.710125 -4.79672 0
M  V30 1334 N 133.029 1.57378 -0.0835403 0
M  V30 1335 C 133.976 2.13384 0.879539 0
M  V30 1336 C 134.946 1.04936 1.28754 0
M  V30 1337 O 136.131 1.32662 1.37133 0
M  V30 1338 C 133.271 2.70932 2.13752 0
M  V30 1339 C 132.384 3.93575 1.7811 0
M  V30 1340 C 131.519 4.39326 2.98607 0
M  V30 1341 C 130.558 5.54587 2.59037 0
M  V30 1342 N 129.695 5.95243 3.72331 0
M  V30 1343 H 134.535 2.9537 0.395076 0
M  V30 1344 H 132.072 1.45953 0.183349 0
M  V30 1345 H 134.03 3.02411 2.87408 0
M  V30 1346 H 132.66 1.91693 2.59718 0
M  V30 1347 H 131.712 3.68483 0.94469 0
M  V30 1348 H 133.024 4.77258 1.45005 0
M  V30 1349 H 132.178 4.72528 3.80529 0
M  V30 1350 H 130.917 3.5452 3.34913 0
M  V30 1351 H 129.922 5.21024 1.75539 0
M  V30 1352 H 131.147 6.41133 2.23887 0
M  V30 1353 H 129.093 5.13385 4.08378 0
M  V30 1354 H 129.01 6.73694 3.43034 0
M  V30 1355 H 130.278 6.33072 4.54797 0
M  V30 1356 N 134.507 -0.190092 1.56449 0
M  V30 1357 C 135.918 -0.754312 1.70784 0
M  V30 1358 C 136.269 -1.83631 0.690951 0
M  V30 1359 O 135.394 -2.15868 -0.151604 0
M  V30 1360 C 135.989 -1.37503 3.09642 0
M  V30 1361 C 134.548 -1.88628 3.25725 0
M  V30 1362 C 133.695 -0.758098 2.66736 0
M  V30 1363 H 136.646 0.0350524 1.58661 0
M  V30 1364 H 136.667 -2.2445 3.0725 0
M  V30 1365 H 136.179 -0.587302 3.83631 0
M  V30 1366 H 134.28 -2.70103 2.56661 0
M  V30 1367 H 134.393 -2.04462 4.3328 0
M  V30 1368 H 132.757 -1.17369 2.26046 0
M  V30 1369 H 133.54 0.0174705 3.43296 0
M  V30 1370 N 135.985 -1.50799 -0.457987 0
M  V30 1371 C 136.935 -1.67003 -1.55222 0
M  V30 1372 C 137.919 -0.52434 -1.52117 0
M  V30 1373 O 139.111 -0.779345 -1.58919 0
M  V30 1374 C 136.24 -1.77956 -2.93576 0
M  V30 1375 C 135.326 -2.98243 -3.01516 0
M  V30 1376 N 135.717 -4.21732 -2.79241 0
M  V30 1377 C 134.015 -2.97072 -3.32662 0
M  V30 1378 C 134.716 -5.02817 -2.92489 0
M  V30 1379 N 133.692 -4.37038 -3.23262 0
M  V30 1380 H 137.494 -2.60163 -1.36721 0
M  V30 1381 H 135.008 -1.48163 -0.664952 0
M  V30 1382 H 137.005 -1.87671 -3.72271 0
M  V30 1383 H 135.665 -0.859634 -3.13114 0
M  V30 1384 H 136.676 -4.51016 -2.54567 0
M  V30 1385 H 133.353 -2.14631 -3.58106 0
M  V30 1386 H 134.743 -6.11054 -2.79396 0
M  V30 1387 N 137.463 0.71206 -1.40597 0
M  V30 1388 C 138.395 1.83704 -1.37061 0
M  V30 1389 C 139.408 1.60453 -0.275426 0
M  V30 1390 O 140.597 1.70262 -0.53602 0
M  V30 1391 C 137.697 3.20172 -1.11099 0
M  V30 1392 C 136.87 3.7059 -2.3234 0
M  V30 1393 C 135.929 4.85681 -2.02485 0
M  V30 1394 O 134.955 4.9815 -2.75382 0
M  V30 1395 N 136.157 5.71735 -1.00497 0
M  V30 1396 H 138.922 1.87235 -2.34016 0
M  V30 1397 H 136.483 0.893739 -1.34996 0
M  V30 1398 H 138.475 3.94768 -0.891064 0
M  V30 1399 H 137.045 3.11767 -0.227989 0
M  V30 1400 H 136.265 2.87085 -2.7014 0
M  V30 1401 H 137.553 4.01011 -3.13157 0
M  V30 1402 H 136.951 5.64275 -0.401298 0
M  V30 1403 H 135.508 6.463 -0.844942 0
M  V30 1404 N 138.941 1.26152 0.944643 0
M  V30 1405 C 140.357 1.03189 1.21754 0
M  V30 1406 C 140.557 -0.245112 2.00004 0
M  V30 1407 O 139.613 -0.955176 2.33736 0
M  V30 1408 C 140.926 2.26119 1.98219 0
M  V30 1409 C 142.474 2.30984 2.11224 0
M  V30 1410 C 142.949 3.53597 2.91089 0
M  V30 1411 N 144.44 3.54053 2.98664 0
M  V30 1412 C 145.175 4.45593 3.60881 0
M  V30 1413 N 144.671 5.47416 4.24626 0
M  V30 1414 N 146.464 4.33252 3.58119 0
M  V30 1415 H 138.615 2.08177 0.421437 0
M  V30 1416 H 140.878 0.914723 0.248969 0
M  V30 1417 H 140.584 3.18984 1.48128 0
M  V30 1418 H 140.458 2.3009 2.98895 0
M  V30 1419 H 142.845 1.38635 2.60508 0
M  V30 1420 H 142.926 2.31026 1.09821 0
M  V30 1421 H 142.57 4.46273 2.42493 0
M  V30 1422 H 142.5 3.50802 3.92741 0
M  V30 1423 H 144.991 2.80403 2.53343 0
M  V30 1424 H 145.304 6.13459 4.69987 0
M  V30 1425 H 143.649 5.51278 4.23223 0
M  V30 1426 H 146.84 3.52924 3.0751 0
M  V30 1427 H 147.013 5.04786 4.06319 0
M  V30 1428 N 140.419 -1.14872 1.07899 0
M  V30 1429 C 141.329 -2.2341 0.715915 0
M  V30 1430 C 142.345 -1.71808 -0.275306 0
M  V30 1431 O 143.521 -2.01039 -0.120545 0
M  V30 1432 C 140.586 -3.46474 0.125168 0
M  V30 1433 C 139.647 -4.13039 1.17034 0
M  V30 1434 C 138.88 -5.30229 0.607688 0
M  V30 1435 O 139.103 -5.675 -0.574497 0
M  V30 1436 O 138.037 -5.86444 1.35526 0
M  V30 1437 H 141.863 -2.56808 1.62121 0
M  V30 1438 H 139.448 -1.22702 0.852322 0
M  V30 1439 H 141.33 -4.20917 -0.201729 0
M  V30 1440 H 140.005 -3.14811 -0.753364 0
M  V30 1441 H 138.912 -3.40493 1.54968 0
M  V30 1442 H 140.245 -4.48796 2.02097 0
M  V30 1443 N 141.898 -0.863906 -1.31812 0
M  V30 1444 C 142.845 -0.313303 -2.28664 0
M  V30 1445 C 143.815 0.584868 -1.55462 0
M  V30 1446 O 145 0.517805 -1.83639 0
M  V30 1447 C 142.14 0.48441 -3.41683 0
M  V30 1448 C 141.253 -0.440594 -4.29747 0
M  V30 1449 C 140.388 0.370652 -5.29905 0
M  V30 1450 C 139.427 -0.551164 -6.09613 0
M  V30 1451 N 138.564 0.223462 -7.01744 0
M  V30 1452 H 143.404 -1.14444 -2.75148 0
M  V30 1453 H 140.941 -0.575769 -1.35364 0
M  V30 1454 H 142.899 0.962627 -4.05943 0
M  V30 1455 H 141.529 1.28029 -2.96325 0
M  V30 1456 H 140.581 -1.03724 -3.65986 0
M  V30 1457 H 141.893 -1.14767 -4.85417 0
M  V30 1458 H 141.047 0.911638 -5.99812 0
M  V30 1459 H 139.786 1.11105 -4.74876 0
M  V30 1460 H 138.791 -1.10396 -5.38603 0
M  V30 1461 H 140.016 -1.29032 -6.66729 0
M  V30 1462 H 137.962 0.946787 -6.49132 0
M  V30 1463 H 137.879 -0.424399 -7.54808 0
M  V30 1464 H 139.147 0.745876 -7.75923 0
M  V30 1465 N 143.376 1.44774 -0.622745 0
M  V30 1466 C 144.309 2.27792 0.136329 0
M  V30 1467 C 145.287 1.38041 0.859264 0
M  V30 1468 O 146.471 1.67478 0.86506 0
M  V30 1469 C 143.598 3.16776 1.19878 0
M  V30 1470 C 142.644 4.22575 0.57731 0
M  V30 1471 S 143.477 5.31825 -0.626294 0
M  V30 1472 C 144.633 6.24377 0.436378 0
M  V30 1473 H 144.866 2.91824 -0.567967 0
M  V30 1474 H 142.399 1.48838 -0.410677 0
M  V30 1475 H 144.357 3.68596 1.80686 0
M  V30 1476 H 143.018 2.5198 1.87523 0
M  V30 1477 H 142.211 4.84818 1.37721 0
M  V30 1478 H 141.813 3.73974 0.0440439 0
M  V30 1479 H 144.105 6.64689 1.31128 0
M  V30 1480 H 145.048 7.07941 -0.150271 0
M  V30 1481 H 145.456 5.59381 0.758513 0
M  V30 1482 N 144.854 0.36279 1.53368 0
M  V30 1483 C 146.079 -0.231226 2.06107 0
M  V30 1484 C 146.504 -1.419 1.23474 0
M  V30 1485 O 145.862 -1.79524 0.253128 0
M  V30 1486 C 145.91 -0.605523 3.5548 0
M  V30 1487 O 145.014 -1.70312 3.7559 0
M  V30 1488 H 144.355 -0.034327 0.663112 0
M  V30 1489 H 146.885 0.522584 1.97814 0
M  V30 1490 H 146.895 -0.877314 3.98456 0
M  V30 1491 H 145.57 0.263004 4.15068 0
M  V30 1492 H 144.147 -1.4271 3.44512 0
M  V30 1493 N 146.332 -1.57332 0.0918853 0
M  V30 1494 C 147.265 -2.09499 -0.904735 0
M  V30 1495 C 148.243 -1.00479 -1.27839 0
M  V30 1496 O 149.427 -1.27954 -1.38419 0
M  V30 1497 C 146.554 -2.56931 -2.2069 0
M  V30 1498 C 145.6 -3.77579 -1.98334 0
M  V30 1499 S 146.433 -5.21317 -1.22428 0
M  V30 1500 C 147.589 -5.72097 -2.53882 0
M  V30 1501 H 147.822 -2.93705 -0.460922 0
M  V30 1502 H 145.355 -1.53923 -0.121332 0
M  V30 1503 H 147.313 -2.84917 -2.95521 0
M  V30 1504 H 145.974 -1.72956 -2.62192 0
M  V30 1505 H 145.167 -4.08824 -2.94752 0
M  V30 1506 H 144.769 -3.5007 -1.31633 0
M  V30 1507 H 147.061 -5.80168 -3.49874 0
M  V30 1508 H 148.004 -6.70654 -2.27219 0
M  V30 1509 H 148.412 -5.00012 -2.62007 0
M  V30 1510 N 147.81 0.181792 -1.56548 0
M  V30 1511 C 148.72 1.24538 -1.98815 0
M  V30 1512 C 149.736 1.49045 -0.897861 0
M  V30 1513 O 150.912 1.61399 -1.20467 0
M  V30 1514 C 147.977 2.56683 -2.33055 0
M  V30 1515 C 147.038 2.40131 -3.55859 0
M  V30 1516 C 146.271 3.65975 -3.88456 0
M  V30 1517 O 146.494 4.70711 -3.22161 0
M  V30 1518 O 145.428 3.6071 -4.81842 0
M  V30 1519 H 149.254 0.916647 -2.89536 0
M  V30 1520 H 146.839 0.387842 -1.44278 0
M  V30 1521 H 148.721 3.34655 -2.56094 0
M  V30 1522 H 147.396 2.89157 -1.45498 0
M  V30 1523 H 146.303 1.60226 -3.38051 0
M  V30 1524 H 147.636 2.12585 -4.43924 0
M  V30 1525 N 149.288 1.51039 0.449983 0
M  V30 1526 C 150.537 1.62317 1.19733 0
M  V30 1527 C 150.85 0.339101 1.92638 0
M  V30 1528 O 152.056 0.331069 2.69474 0
M  V30 1529 C 150.512 2.86608 2.17678 0
M  V30 1530 C 150.12 4.21972 1.50479 0
M  V30 1531 C 151.864 3.07239 2.92924 0
M  V30 1532 C 149.771 5.37426 2.46834 0
M  V30 1533 H 148.701 0.604532 0.450619 0
M  V30 1534 H 151.352 1.77494 0.465625 0
M  V30 1535 H 149.734 2.65037 2.94231 0
M  V30 1536 H 150.908 4.53878 0.795716 0
M  V30 1537 H 149.223 4.07117 0.874344 0
M  V30 1538 H 151.82 3.90668 3.65079 0
M  V30 1539 H 152.163 2.19807 3.5354 0
M  V30 1540 H 152.696 3.29091 2.23481 0
M  V30 1541 H 149.435 6.27079 1.90926 0
M  V30 1542 H 148.955 5.09912 3.15832 0
M  V30 1543 H 150.634 5.68862 3.08228 0
M  V30 1544 N 150.766 -0.704594 1.40972 0
M  V30 1545 C 151.991 -1.49858 1.43378 0
M  V30 1546 C 152.416 -1.88061 0.038184 0
M  V30 1547 O 151.774 -1.5402 -0.956425 0
M  V30 1548 C 151.822 -2.74333 2.34038 0
M  V30 1549 O 150.926 -3.7147 1.7912 0
M  V30 1550 H 150.267 -0.45139 0.486974 0
M  V30 1551 H 152.797 -0.866832 1.8533 0
M  V30 1552 H 152.807 -3.22741 2.49604 0
M  V30 1553 H 151.482 -2.45863 3.35446 0
M  V30 1554 H 150.059 -3.30363 1.72958 0
M  V30 1555 N 152.244 -1.26651 -0.937939 0
M  V30 1556 C 153.493 -1.11775 -1.67897 0
M  V30 1557 C 153.806 0.33794 -1.92659 0
M  V30 1558 O 155.012 0.607434 -2.64618 0
M  V30 1559 C 153.468 -1.9523 -3.02346 0
M  V30 1560 C 153.076 -3.45393 -2.8532 0
M  V30 1561 C 154.82 -1.88972 -3.80118 0
M  V30 1562 C 152.727 -4.21083 -4.15263 0
M  V30 1563 H 151.657 -0.414696 -0.629717 0
M  V30 1564 H 154.308 -1.50988 -1.04283 0
M  V30 1565 H 152.69 -1.48853 -3.66959 0
M  V30 1566 H 153.864 -3.99561 -2.29537 0
M  V30 1567 H 152.179 -3.52921 -2.20988 0
M  V30 1568 H 154.776 -2.42805 -4.76392 0
M  V30 1569 H 155.119 -0.86113 -4.07296 0
M  V30 1570 H 155.652 -2.33189 -3.22285 0
M  V30 1571 H 152.391 -5.24425 -3.93267 0
M  V30 1572 H 151.911 -3.71695 -4.70747 0
M  V30 1573 H 153.59 -4.29706 -4.83696 0
M  V30 1574 N 153.722 1.14298 -1.08507 0
M  V30 1575 C 154.672 2.17449 -0.685569 0
M  V30 1576 C 155.656 1.58167 0.295315 0
M  V30 1577 O 156.848 1.76675 0.107172 0
M  V30 1578 C 153.977 3.43161 -0.0975318 0
M  V30 1579 C 153.063 4.09471 -1.10426 0
M  V30 1580 N 153.454 4.51089 -2.28806 0
M  V30 1581 C 151.752 4.35976 -0.940258 0
M  V30 1582 C 152.453 5.02654 -2.9277 0
M  V30 1583 N 151.429 4.96927 -2.20374 0
M  V30 1584 H 155.231 2.47369 -1.587 0
M  V30 1585 H 152.745 1.30992 -0.959936 0
M  V30 1586 H 154.742 4.16388 0.20664 0
M  V30 1587 H 153.402 3.14719 0.798872 0
M  V30 1588 H 154.413 4.44097 -2.66455 0
M  V30 1589 H 151.09 4.17386 -0.0977441 0
M  V30 1590 H 152.48 5.44723 -3.93352 0
M  V30 1591 N 155.201 0.870884 1.31352 0
M  V30 1592 C 156.617 0.562932 1.49343 0
M  V30 1593 C 156.817 -0.902725 1.80148 0
M  V30 1594 O 155.873 -1.68484 1.88067 0
M  V30 1595 C 157.186 1.46393 2.62659 0
M  V30 1596 C 158.734 1.46607 2.76542 0
M  V30 1597 C 159.209 2.35266 3.92955 0
M  V30 1598 N 160.7 2.33151 4.00243 0
M  V30 1599 C 161.435 2.98471 4.89594 0
M  V30 1600 N 160.931 3.72964 5.8384 0
M  V30 1601 N 162.724 2.87775 4.82848 0
M  V30 1602 H 154.875 1.81923 1.09626 0
M  V30 1603 H 157.138 0.777934 0.541777 0
M  V30 1604 H 156.844 2.50689 2.46674 0
M  V30 1605 H 156.718 1.16314 3.58819 0
M  V30 1606 H 159.105 0.43069 2.9194 0
M  V30 1607 H 159.186 1.8071 1.81046 0
M  V30 1608 H 158.83 3.38881 3.78315 0
M  V30 1609 H 158.76 1.98487 4.87761 0
M  V30 1610 H 161.251 1.79006 3.32814 0
M  V30 1611 H 161.564 4.19932 6.4875 0
M  V30 1612 H 159.909 3.77073 5.83816 0
M  V30 1613 H 163.1 2.29116 4.08195 0
M  V30 1614 H 163.273 3.38961 5.52277 0
M  V30 1615 N 156.679 -1.44442 0.630414 0
M  V30 1616 C 157.904 -2.06927 0.139944 0
M  V30 1617 C 158.329 -1.46795 -1.17613 0
M  V30 1618 O 157.687 -0.569144 -1.72135 0
M  V30 1619 C 157.735 -3.6058 0.0379581 0
M  V30 1620 O 156.839 -3.99937 -1.0062 0
M  V30 1621 H 156.18 -0.658608 0.0844483 0
M  V30 1622 H 158.71 -1.85327 0.866891 0
M  V30 1623 H 158.72 -4.07714 -0.152856 0
M  V30 1624 H 157.395 -4.03728 0.998809 0
M  V30 1625 H 155.972 -3.64436 -0.79001 0
M  V30 1626 N 158.157 -0.370918 -1.53173 0
M  V30 1627 C 159.087 0.464847 -2.28826 0
M  V30 1628 C 160.068 1.07936 -1.31468 0
M  V30 1629 O 161.253 1.0956 -1.60344 0
M  V30 1630 C 158.383 1.60196 -3.08147 0
M  V30 1631 C 157.337 1.11443 -4.13237 0
M  V30 1632 C 156.663 2.3422 -4.80672 0
M  V30 1633 C 157.963 0.195384 -5.21934 0
M  V30 1634 H 159.657 -0.166329 -2.98938 0
M  V30 1635 H 157.203 -0.0814359 -1.4377 0
M  V30 1636 H 159.156 2.19332 -3.59822 0
M  V30 1637 H 157.88 2.26045 -2.35735 0
M  V30 1638 H 156.539 0.545727 -3.62515 0
M  V30 1639 H 156.187 2.98537 -4.04827 0
M  V30 1640 H 155.887 2.02269 -5.51689 0
M  V30 1641 H 157.411 2.94032 -5.35143 0
M  V30 1642 H 158.825 0.694375 -5.69079 0
M  V30 1643 H 157.222 -0.0335027 -6.00091 0
M  V30 1644 H 158.292 -0.760961 -4.78892 0
M  V30 1645 N 159.635 1.57281 -0.100228 0
M  V30 1646 C 160.598 2.13158 0.842398 0
M  V30 1647 C 161.598 1.06202 1.20738 0
M  V30 1648 O 162.788 1.32066 1.13597 0
M  V30 1649 C 159.92 2.65639 2.13655 0
M  V30 1650 H 161.113 2.97766 0.357114 0
M  V30 1651 H 158.666 1.5559 0.148823 0
M  V30 1652 H 159.401 1.84566 2.66657 0
M  V30 1653 H 159.186 3.43844 1.88451 0
M  V30 1654 H 160.676 3.08846 2.81077 0
M  V30 1655 N 161.113 -0.173488 1.56642 0
M  V30 1656 C 162.063 -1.21941 1.92651 0
M  V30 1657 C 163.047 -1.39912 0.794577 0
M  V30 1658 O 164.239 -1.41919 1.05773 0
M  V30 1659 C 161.368 -2.55935 2.28806 0
M  V30 1660 C 160.454 -2.41667 3.48508 0
M  V30 1661 N 160.845 -1.9711 4.65813 0
M  V30 1662 C 159.143 -2.72499 3.53072 0
M  V30 1663 C 159.844 -1.95253 5.47952 0
M  V30 1664 N 158.82 -2.37575 4.88937 0
M  V30 1665 H 162.622 -0.866581 2.80834 0
M  V30 1666 H 160.136 -0.381776 1.57849 0
M  V30 1667 H 162.133 -3.31511 2.52797 0
M  V30 1668 H 160.793 -2.92022 1.41961 0
M  V30 1669 H 161.804 -1.67481 4.90072 0
M  V30 1670 H 158.481 -3.12639 2.767 0
M  V30 1671 H 159.871 -1.6252 6.51948 0
M  V30 1672 N 162.591 -1.51276 -0.441967 0
M  V30 1673 C 163.523 -1.68444 -1.55433 0
M  V30 1674 C 164.536 -0.565187 -1.52674 0
M  V30 1675 O 165.725 -0.839356 -1.57534 0
M  V30 1676 C 162.825 -1.67966 -2.94348 0
M  V30 1677 C 161.998 -2.964 -3.21661 0
M  V30 1678 C 161.057 -2.88171 -4.40277 0
M  V30 1679 O 160.083 -3.62119 -4.39157 0
M  V30 1680 N 161.285 -2.03706 -5.43584 0
M  V30 1681 H 164.05 -2.644 -1.41112 0
M  V30 1682 H 161.611 -1.49104 -0.630838 0
M  V30 1683 H 163.603 -1.60035 -3.71713 0
M  V30 1684 H 162.173 -0.796225 -3.0229 0
M  V30 1685 H 161.393 -3.18234 -2.32638 0
M  V30 1686 H 162.681 -3.81427 -3.36736 0
M  V30 1687 H 162.079 -1.42995 -5.47329 0
M  V30 1688 H 160.636 -2.01658 -6.1982 0
M  V30 1689 N 164.069 0.697108 -1.41344 0
M  V30 1690 C 165.019 1.80313 -1.39539 0
M  V30 1691 C 166.003 1.58618 -0.270001 0
M  V30 1692 O 167.195 1.69477 -0.510551 0
M  V30 1693 C 164.324 3.18606 -1.27848 0
M  V30 1694 C 163.41 3.46001 -2.45244 0
M  V30 1695 N 163.801 3.44103 -3.70711 0
M  V30 1696 C 162.099 3.76542 -2.39023 0
M  V30 1697 C 162.8 3.7036 -4.48563 0
M  V30 1698 N 161.776 3.90027 -3.78655 0
M  V30 1699 H 165.578 1.77207 -2.34468 0
M  V30 1700 H 163.092 0.897031 -1.35378 0
M  V30 1701 H 165.089 3.97833 -1.24637 0
M  V30 1702 H 163.749 3.22925 -0.339032 0
M  V30 1703 H 164.76 3.2452 -4.03618 0
M  V30 1704 H 161.437 3.88241 -1.53542 0
M  V30 1705 H 162.827 3.75042 -5.57488 0
M  V30 1706 N 165.547 1.27147 0.931209 0
M  V30 1707 C 166.793 1.13446 1.68101 0
M  V30 1708 C 167.126 -0.319628 1.91552 0
M  V30 1709 O 166.401 -1.23407 1.50336 0
M  V30 1710 C 166.684 1.91482 3.0497 0
M  V30 1711 C 166.537 3.44855 2.88782 0
M  V30 1712 C 167.856 1.71651 4.05246 0
M  V30 1713 H 164.975 0.413498 0.610072 0
M  V30 1714 H 167.617 1.56261 1.08086 0
M  V30 1715 H 165.767 1.55095 3.56199 0
M  V30 1716 H 167.439 3.9105 2.44698 0
M  V30 1717 H 165.682 3.71373 2.24198 0
M  V30 1718 H 166.353 3.94694 3.85902 0
M  V30 1719 H 168.829 2.0337 3.63015 0
M  V30 1720 H 167.705 2.28651 4.99009 0
M  V30 1721 H 167.966 0.663555 4.37092 0
M  V30 1722 N 167.025 -1.13721 1.09112 0
M  V30 1723 C 168.271 -1.85198 0.826414 0
M  V30 1724 C 168.604 -1.83129 -0.646319 0
M  V30 1725 O 167.879 -1.2671 -1.47563 0
M  V30 1726 C 168.162 -3.33507 1.35812 0
M  V30 1727 C 168.015 -3.44108 2.89672 0
M  V30 1728 C 169.334 -4.28838 0.989256 0
M  V30 1729 H 166.453 -0.67243 0.301675 0
M  V30 1730 H 169.095 -1.33499 1.35197 0
M  V30 1731 H 167.245 -3.77666 0.911082 0
M  V30 1732 H 168.917 -3.08684 3.428 0
M  V30 1733 H 167.16 -2.85087 3.26967 0
M  V30 1734 H 167.831 -4.48388 3.21951 0
M  V30 1735 H 170.307 -3.92734 1.37475 0
M  V30 1736 H 169.183 -5.31051 1.38838 0
M  V30 1737 H 169.444 -4.4198 -0.102924 0
M  V30 1738 N 168.503 -0.877838 -1.30888 0
M  V30 1739 C 169.751 -0.491723 -1.96027 0
M  V30 1740 C 170.072 0.960827 -1.69685 0
M  V30 1741 O 169.342 1.67462 -1.01654 0
M  V30 1742 H 167.922 -0.17885 -0.725273 0
M  V30 1743 H 170.584 -1.11935 -1.59551 0
M  V30 1744 H 169.68 -0.656016 -3.05128 0
M  V30 1745 N 169.982 1.44106 -0.638065 0
M  V30 1746 C 171.229 2.01978 -0.14533 0
M  V30 1747 C 171.557 1.50234 1.23532 0
M  V30 1748 O 170.812 0.679548 1.83523 0
M  V30 1749 C 171.111 3.5729 -0.0887327 0
M  V30 1750 C 170.777 4.28317 -1.40909 0
M  V30 1751 C 169.439 4.47437 -1.77069 0
M  V30 1752 C 171.791 4.6867 -2.28031 0
M  V30 1753 C 169.119 5.04171 -3.00047 0
M  V30 1754 C 171.471 5.26766 -3.50286 0
M  V30 1755 C 170.135 5.44104 -3.86661 0
M  V30 1756 H 169.405 0.739089 -0.0531801 0
M  V30 1757 H 172.052 1.72781 -0.825761 0
M  V30 1758 H 170.357 3.8594 0.675095 0
M  V30 1759 H 172.054 3.99807 0.309145 0
M  V30 1760 H 168.644 4.1377 -1.1177 0
M  V30 1761 H 172.828 4.53604 -2.01388 0
M  V30 1762 H 168.084 5.15782 -3.28298 0
M  V30 1763 H 172.258 5.56983 -4.18023 0
M  V30 1764 H 169.885 5.87832 -4.82034 0
M  V30 1765 N 171.46 0.379036 1.52974 0
M  V30 1766 C 172.41 -0.477772 2.22938 0
M  V30 1767 C 173.394 -1.03792 1.22948 0
M  V30 1768 O 174.586 -0.965725 1.48333 0
M  V30 1769 C 171.715 -1.60994 3.03209 0
M  V30 1770 C 170.801 -1.06203 4.10587 0
M  V30 1771 N 171.192 -0.238214 5.05239 0
M  V30 1772 C 169.49 -1.33554 4.25534 0
M  V30 1773 C 170.191 0.0633235 5.81666 0
M  V30 1774 N 169.167 -0.537901 5.40932 0
M  V30 1775 H 172.969 0.158295 2.93473 0
M  V30 1776 H 170.483 0.187778 1.61311 0
M  V30 1777 H 172.48 -2.23607 3.5186 0
M  V30 1778 H 171.14 -2.24893 2.34207 0
M  V30 1779 H 172.151 0.123695 5.17752 0
M  V30 1780 H 168.828 -1.97632 3.6776 0
M  V30 1781 H 170.218 0.730161 6.67921 0
M  V30 1782 N 172.938 -1.57226 0.108567 0
M  V30 1783 C 174.186 -1.94448 -0.550853 0
M  V30 1784 C 174.507 -0.992074 -1.67878 0
M  V30 1785 O 173.777 -0.0465 -1.95845 0
M  V30 1786 H 172.357 -0.717897 -0.206479 0
M  V30 1787 H 175.019 -1.94112 0.175062 0
M  V30 1788 H 174.115 -2.97218 -0.952259 0
M  V30 1789 N 174.416 0.165178 -1.56732 0
M  V30 1790 C 175.663 0.880807 -1.8234 0
M  V30 1791 C 175.991 1.81977 -0.686621 0
M  V30 1792 O 175.246 1.92971 0.325697 0
M  V30 1793 C 175.545 1.70405 -3.1416 0
M  V30 1794 C 175.211 0.913475 -4.4155 0
M  V30 1795 C 173.873 0.695303 -4.7615 0
M  V30 1796 C 176.225 0.359349 -5.1996 0
M  V30 1797 C 173.553 -0.0879947 -5.86634 0
M  V30 1798 C 175.905 -0.410893 -6.31264 0
M  V30 1799 C 174.569 -0.639808 -6.64427 0
M  V30 1800 H 173.839 0.32231 -0.667231 0
M  V30 1801 H 176.486 0.145402 -1.90947 0
M  V30 1802 H 174.791 2.50903 -3.00923 0
M  V30 1803 H 176.488 2.26091 -3.31186 0
M  V30 1804 H 173.078 1.09357 -4.14414 0
M  V30 1805 H 177.262 0.515228 -4.93618 0
M  V30 1806 H 172.518 -0.27503 -6.10781 0
M  V30 1807 H 176.692 -0.847494 -6.91224 0
M  V30 1808 H 174.319 -1.24864 -7.49875 0
M  V30 1809 N 175.894 1.51508 0.433938 0
M  V30 1810 C 177.141 1.64345 1.18309 0
M  V30 1811 C 177.469 0.361315 1.91115 0
M  V30 1812 O 176.724 -0.654753 1.84422 0
M  V30 1813 C 177.023 2.79928 2.22205 0
M  V30 1814 C 176.689 4.19078 1.66387 0
M  V30 1815 C 175.351 4.56932 1.50887 0
M  V30 1816 C 177.703 5.05894 1.25381 0
M  V30 1817 C 175.031 5.79305 0.928608 0
M  V30 1818 C 177.383 6.2885 0.687823 0
M  V30 1819 C 176.047 6.65473 0.519755 0
M  V30 1820 H 175.317 0.601381 0.432923 0
M  V30 1821 H 177.964 1.85549 0.473676 0
M  V30 1822 H 176.269 2.52959 2.99197 0
M  V30 1823 H 177.966 2.87059 2.79997 0
M  V30 1824 H 174.556 3.89234 1.79428 0
M  V30 1825 H 178.74 4.77253 1.36175 0
M  V30 1826 H 173.996 6.06324 0.786186 0
M  V30 1827 H 178.17 6.95461 0.361581 0
M  V30 1828 H 175.797 7.6017 0.0679979 0
M  V30 1829 N 177.372 -0.689602 1.41712 0
M  V30 1830 C 178.282 -1.83314 1.46401 0
M  V30 1831 C 179.298 -1.7036 0.35405 0
M  V30 1832 O 180.474 -1.92171 0.602692 0
M  V30 1833 C 177.539 -3.19344 1.34982 0
M  V30 1834 C 176.6 -3.44363 2.56344 0
M  V30 1835 C 175.833 -4.73904 2.45461 0
M  V30 1836 O 176.056 -5.508 1.48241 0
M  V30 1837 O 174.99 -4.99839 3.35328 0
M  V30 1838 H 178.816 -1.82314 2.42889 0
M  V30 1839 H 176.401 -0.843438 1.23315 0
M  V30 1840 H 178.283 -4.00547 1.3092 0
M  V30 1841 H 176.958 -3.21014 0.41612 0
M  V30 1842 H 175.865 -2.63067 2.65982 0
M  V30 1843 H 177.198 -3.47512 3.48563 0
M  V30 1844 N 178.85 -1.27639 -0.924453 0
M  V30 1845 C 180.127 -1.04887 -1.651 0
M  V30 1846 C 180.507 0.415327 -2.06974 0
M  V30 1847 O 179.855 1.39923 -1.80648 0
M  V30 1848 C 180.065 -2.01348 -2.85061 0
M  V30 1849 C 181.413 -2.30899 -3.56329 0
M  V30 1850 O 182.437 -1.99348 -2.95193 0
M  V30 1851 O 181.296 -2.84699 -4.66485 0
M  V30 1852 H 178.39 -0.400083 -0.723784 0
M  V30 1853 H 180.936 -1.38916 -0.974703 0
M  V30 1854 H 179.708 -3.0008 -2.51133 0
M  V30 1855 H 179.331 -1.679 -3.6041 0
M  V30 1856 N 180.328 1.1314 -1.09713 0
M  V30 1857 C 181.276 2.20717 -0.733934 0
M  V30 1858 C 182.27 1.6729 0.266506 0
M  V30 1859 O 183.476 1.79547 0.127656 0
M  V30 1860 H 179.851 0.719292 -0.21937 0
M  V30 1861 H 181.822 2.48611 -1.6503 0
M  V30 1862 C 180.571 3.47265 -0.173849 0
M  V30 1863 H 179.894 3.88716 -0.934873 0
M  V30 1864 H 181.334 4.23979 0.0423126 0
M  V30 1865 C 179.793 3.18724 1.09164 0
M  V30 1866 O 180.323 3.37762 2.17439 0
M  V30 1867 N 178.529 2.72583 1.00732 0
M  V30 1868 H 178.076 2.57291 0.126121 0
M  V30 1869 H 178.034 2.53862 1.85476 0
M  V30 1870 N 181.806 0.884767 1.30421 0
M  V30 1871 C 183.083 0.423185 1.90967 0
M  V30 1872 C 183.463 -1.09605 1.80416 0
M  V30 1873 O 182.811 -1.93126 1.22125 0
M  V30 1874 C 183.021 0.921056 3.36627 0
M  V30 1875 C 184.369 0.955903 4.137 0
M  V30 1876 O 185.393 0.867706 3.4547 0
M  V30 1877 O 184.252 1.08614 5.35598 0
M  V30 1878 H 181.346 0.129369 0.816819 0
M  V30 1879 H 183.892 0.973653 1.3899 0
M  V30 1880 H 182.664 1.96489 3.3839 0
M  V30 1881 H 182.287 0.349741 3.96059 0
M  V30 1882 N 183.284 -1.43765 0.645699 0
M  V30 1883 C 184.531 -2.01898 0.15604 0
M  V30 1884 C 184.859 -1.50887 -1.22733 0
M  V30 1885 O 184.114 -0.689271 -1.8316 0
M  V30 1886 C 184.413 -3.57238 0.107679 0
M  V30 1887 C 184.079 -4.27564 1.43178 0
M  V30 1888 C 182.741 -4.46492 1.7944 0
M  V30 1889 C 185.093 -4.67454 2.30513 0
M  V30 1890 C 182.421 -5.02573 3.02716 0
M  V30 1891 C 184.773 -5.24901 3.53074 0
M  V30 1892 C 183.437 -5.42046 3.89541 0
M  V30 1893 H 182.707 -0.738797 0.057099 0
M  V30 1894 H 185.354 -1.72341 0.834912 0
M  V30 1895 H 183.659 -3.86293 -0.654618 0
M  V30 1896 H 185.356 -3.99965 -0.287938 0
M  V30 1897 H 181.946 -4.13171 1.13963 0
M  V30 1898 H 186.13 -4.5253 2.0379 0
M  V30 1899 H 181.386 -5.14033 3.31028 0
M  V30 1900 H 185.56 -5.54758 4.20971 0
M  V30 1901 H 183.187 -5.85268 4.85145 0
M  V30 1902 N 184.763 -0.387143 -1.52771 0
M  V30 1903 C 186.009 0.196025 -2.0185 0
M  V30 1904 C 186.342 1.46641 -1.27319 0
M  V30 1905 O 185.617 1.90889 -0.373032 0
M  V30 1906 C 185.9 0.466136 -3.5707 0
M  V30 1907 C 185.753 -0.819385 -4.42274 0
M  V30 1908 C 187.072 1.25768 -4.21747 0
M  V30 1909 H 184.191 0.0697708 -0.73369 0
M  V30 1910 H 186.833 -0.516286 -1.82851 0
M  V30 1911 H 184.983 1.07293 -3.7339 0
M  V30 1912 H 186.655 -1.4563 -4.37709 0
M  V30 1913 H 184.898 -1.43517 -4.09372 0
M  V30 1914 H 185.569 -0.585065 -5.48891 0
M  V30 1915 H 188.045 0.744167 -4.09391 0
M  V30 1916 H 186.921 1.41541 -5.30337 0
M  V30 1917 H 187.182 2.27228 -3.79236 0
M  V30 1918 N 186.241 1.57166 -0.116904 0
M  V30 1919 C 187.488 1.95123 0.541603 0
M  V30 1920 C 187.816 1.00006 1.6682 0
M  V30 1921 O 187.071 0.0235658 1.95686 0
M  V30 1922 C 187.37 3.39508 1.11664 0
M  V30 1923 C 187.036 4.50762 0.111606 0
M  V30 1924 C 185.698 4.80918 -0.164758 0
M  V30 1925 C 188.05 5.18036 -0.573438 0
M  V30 1926 C 185.378 5.75666 -1.13249 0
M  V30 1927 C 187.73 6.13824 -1.52978 0
M  V30 1928 C 186.394 6.42374 -1.81415 0
M  V30 1929 H 185.664 0.714005 0.198187 0
M  V30 1930 H 188.311 1.9048 -0.197365 0
M  V30 1931 H 186.616 3.40835 1.93232 0
M  V30 1932 H 188.313 3.66189 1.63422 0
M  V30 1933 H 184.903 4.27272 0.337192 0
M  V30 1934 H 189.087 4.94896 -0.373092 0
M  V30 1935 H 184.343 5.96092 -1.35958 0
M  V30 1936 H 188.517 6.65039 -2.06629 0
M  V30 1937 H 186.144 7.15599 -2.56557 0
M  V30 1938 N 187.719 -0.156864 1.56817 0
M  V30 1939 C 188.965 -0.872416 1.83076 0
M  V30 1940 C 189.298 -1.81261 0.697001 0
M  V30 1941 O 188.573 -1.92171 -0.30008 0
M  V30 1942 C 188.856 -1.65551 3.19789 0
M  V30 1943 C 188.709 -0.737467 4.43713 0
M  V30 1944 C 190.028 -2.62012 3.53606 0
M  V30 1945 H 187.147 -0.315715 0.665953 0
M  V30 1946 H 189.789 -0.138004 1.89498 0
M  V30 1947 H 187.939 -2.28159 3.14445 0
M  V30 1948 H 189.611 -0.123143 4.61136 0
M  V30 1949 H 187.854 -0.0464067 4.33775 0
M  V30 1950 H 188.525 -1.32122 5.35955 0
M  V30 1951 H 191.001 -2.09525 3.59497 0
M  V30 1952 H 189.877 -3.13861 4.50314 0
M  V30 1953 H 190.138 -3.42902 2.79053 0
M  V30 1954 N 189.197 -1.51736 -0.425897 0
M  V30 1955 C 190.443 -1.65214 -1.1761 0
M  V30 1956 C 190.776 -0.372778 -1.90589 0
M  V30 1957 O 190.051 0.628139 -1.84078 0
M  V30 1958 C 190.334 -2.86312 -2.18398 0
M  V30 1959 C 190.187 -4.24254 -1.49426 0
M  V30 1960 C 191.506 -3.02925 -3.19256 0
M  V30 1961 H 188.625 -0.601263 -0.426206 0
M  V30 1962 H 191.267 -1.8425 -0.463882 0
M  V30 1963 H 189.417 -2.70213 -2.79137 0
M  V30 1964 H 191.089 -4.52046 -0.919362 0
M  V30 1965 H 189.332 -4.26426 -0.796432 0
M  V30 1966 H 190.003 -5.05001 -2.22885 0
M  V30 1967 H 192.479 -3.1781 -2.68581 0
M  V30 1968 H 191.355 -3.89199 -3.8706 0
M  V30 1969 H 191.616 -2.15497 -3.86023 0
M  V30 1970 N 190.675 0.682077 -1.42076 0
M  V30 1971 C 191.605 1.80796 -1.47767 0
M  V30 1972 C 192.586 1.6677 -0.334954 0
M  V30 1973 O 193.771 1.863 -0.548264 0
M  V30 1974 C 190.901 3.19038 -1.37229 0
M  V30 1975 C 189.855 3.47789 -2.49453 0
M  V30 1976 C 189.181 4.8553 -2.23975 0
M  V30 1977 C 190.481 3.45411 -3.91776 0
M  V30 1978 H 192.175 1.7629 -2.41997 0
M  V30 1979 H 189.721 0.846721 -1.16476 0
M  V30 1980 H 191.674 3.97528 -1.39821 0
M  V30 1981 H 190.398 3.24204 -0.394907 0
M  V30 1982 H 189.057 2.71657 -2.46166 0
M  V30 1983 H 188.705 4.87337 -1.24547 0
M  V30 1984 H 188.405 5.0573 -2.99184 0
M  V30 1985 H 189.929 5.66312 -2.28304 0
M  V30 1986 H 191.343 4.13882 -3.96705 0
M  V30 1987 H 189.74 3.77145 -4.66778 0
M  V30 1988 H 190.81 2.44122 -4.18966 0
M  V30 1989 N 192.153 1.28127 0.917671 0
M  V30 1990 C 193.063 1.13556 2.05286 0
M  V30 1991 C 194.079 0.0630914 1.73886 0
M  V30 1992 O 195.255 0.271598 1.9956 0
M  V30 1993 C 192.32 0.794676 3.3747 0
M  V30 1994 C 191.381 1.94909 3.82504 0
M  V30 1995 C 190.614 1.62437 5.0838 0
M  V30 1996 O 190.837 0.536905 5.67867 0
M  V30 1997 O 189.771 2.46677 5.4903 0
M  V30 1998 H 193.597 2.08844 2.20495 0
M  V30 1999 H 191.182 1.07409 1.03845 0
M  V30 2000 H 193.064 0.618344 4.16839 0
M  V30 2001 H 191.739 -0.128581 3.23445 0
M  V30 2002 H 190.646 2.18055 3.03978 0
M  V30 2003 H 191.979 2.85291 4.01086 0
M  V30 2004 N 193.631 -1.12557 1.10312 0
M  V30 2005 C 194.561 -2.20341 0.772798 0
M  V30 2006 C 195.542 -1.68198 -0.25365 0
M  V30 2007 O 196.727 -1.93831 -0.119699 0
M  V30 2008 C 193.857 -3.46709 0.202443 0
M  V30 2009 C 192.811 -4.11996 1.15943 0
M  V30 2010 C 192.137 -5.328 0.450345 0
M  V30 2011 C 193.437 -4.5828 2.50552 0
M  V30 2012 H 195.131 -2.48229 1.674 0
M  V30 2013 H 192.677 -1.19308 0.806326 0
M  V30 2014 H 194.63 -4.2138 -0.0407752 0
M  V30 2015 H 193.354 -3.18245 -0.734001 0
M  V30 2016 H 192.013 -3.39305 1.38808 0
M  V30 2017 H 191.661 -5.00602 -0.490531 0
M  V30 2018 H 191.361 -5.7743 1.08851 0
M  V30 2019 H 192.885 -6.10219 0.215642 0
M  V30 2020 H 194.299 -5.2433 2.31843 0
M  V30 2021 H 192.696 -5.13683 3.10242 0
M  V30 2022 H 193.766 -3.72329 3.10643 0
M  V30 2023 N 195.109 -0.891671 -1.2995 0
M  V30 2024 C 196.349 -0.520296 -1.97667 0
M  V30 2025 C 196.713 0.914797 -1.68806 0
M  V30 2026 O 197.914 1.39263 -2.29911 0
M  V30 2027 C 196.185 -0.795222 -3.48441 0
M  V30 2028 S 197.744 -0.526953 -4.35624 0
M  V30 2029 H 194.562 -0.19333 -0.684211 0
M  V30 2030 H 197.164 -1.15238 -1.57926 0
M  V30 2031 H 195.868 -1.83805 -3.66938 0
M  V30 2032 H 195.399 -0.15095 -3.9311 0
M  V30 2033 H 197.414 0.631533 -4.92165 0
M  V30 2034 N 196.587 1.43421 -0.653314 0
M  V30 2035 C 198.003 1.56341 -0.320886 0
M  V30 2036 C 198.203 1.63696 1.17499 0
M  V30 2037 O 197.259 1.59208 1.95982 0
M  V30 2038 C 198.572 2.82424 -1.03233 0
M  V30 2039 C 200.12 2.96168 -1.01259 0
M  V30 2040 C 200.595 4.25084 -1.70492 0
M  V30 2041 N 202.086 4.31948 -1.67257 0
M  V30 2042 C 202.821 5.30466 -2.17701 0
M  V30 2043 N 202.317 6.35261 -2.76434 0
M  V30 2044 N 204.11 5.2212 -2.082 0
M  V30 2045 H 196.261 1.3689 -1.62403 0
M  V30 2046 H 198.524 0.657455 -0.682977 0
M  V30 2047 H 198.23 2.83053 -2.08744 0
M  V30 2048 H 198.104 3.72653 -0.583948 0
M  V30 2049 H 200.491 2.9508 0.0341235 0
M  V30 2050 H 200.572 2.07229 -1.49966 0
M  V30 2051 H 200.216 4.26932 -2.7512 0
M  V30 2052 H 200.146 5.1292 -1.19251 0
M  V30 2053 H 202.637 3.56838 -1.24398 0
M  V30 2054 H 202.95 7.06754 -3.12601 0
M  V30 2055 H 201.295 6.35884 -2.80495 0
M  V30 2056 H 204.486 4.39166 -1.62021 0
M  V30 2057 H 204.659 5.98739 -2.47822 0
M  V30 2058 N 198.065 0.39524 1.52563 0
M  V30 2059 C 199.481 0.0454682 1.59535 0
M  V30 2060 C 199.681 -1.44056 1.4089 0
M  V30 2061 O 198.737 -2.20579 1.22888 0
M  V30 2062 C 200.05 0.527963 2.96029 0
M  V30 2063 C 201.598 0.484733 3.09224 0
M  V30 2064 C 202.073 0.943512 4.48176 0
M  V30 2065 N 203.564 0.899765 4.54377 0
M  V30 2066 C 204.299 1.22609 5.60138 0
M  V30 2067 N 203.795 1.62319 6.73516 0
M  V30 2068 N 205.588 1.14696 5.50274 0
M  V30 2069 H 197.739 1.36261 1.62931 0
M  V30 2070 H 200.002 0.558887 0.765735 0
M  V30 2071 H 199.708 1.56607 3.14908 0
M  V30 2072 H 199.582 -0.0698056 3.77135 0
M  V30 2073 H 201.969 -0.544298 2.90037 0
M  V30 2074 H 202.05 1.11838 2.30056 0
M  V30 2075 H 201.694 1.9708 4.68104 0
M  V30 2076 H 201.624 0.286817 5.25818 0
M  V30 2077 H 204.115 0.607632 3.72983 0
M  V30 2078 H 204.428 1.85567 7.5019 0
M  V30 2079 H 202.773 1.66211 6.74833 0
M  V30 2080 H 205.964 0.835701 4.6058 0
M  V30 2081 H 206.137 1.40459 6.32594 0
M  V30 2082 N 199.544 -1.57102 0.125237 0
M  V30 2083 C 200.96 -1.57915 -0.231322 0
M  V30 2084 C 201.16 -1.13833 -1.66266 0
M  V30 2085 O 200.216 -0.828581 -2.38518 0
M  V30 2086 C 201.529 -3.00699 0.00766489 0
M  V30 2087 C 203.077 -3.12947 -0.0577483 0
M  V30 2088 C 203.552 -4.57742 0.153626 0
M  V30 2089 N 205.043 -4.63092 0.0998073 0
M  V30 2090 C 205.778 -5.72905 0.238174 0
M  V30 2091 N 205.274 -6.91445 0.433057 0
M  V30 2092 N 207.067 -5.6182 0.177308 0
M  V30 2093 H 199.218 -1.84055 1.06007 0
M  V30 2094 H 201.481 -0.850905 0.417929 0
M  V30 2095 H 201.187 -3.3726 0.997431 0
M  V30 2096 H 201.061 -3.70236 -0.721452 0
M  V30 2097 H 203.448 -2.7624 -1.03804 0
M  V30 2098 H 203.529 -2.4594 0.70335 0
M  V30 2099 H 203.173 -4.95149 1.13092 0
M  V30 2100 H 203.103 -5.22848 -0.627534 0
M  V30 2101 H 205.594 -3.77871 -0.047051 0
M  V30 2102 H 205.907 -7.70985 0.529332 0
M  V30 2103 H 204.252 -6.93415 0.469109 0
M  V30 2104 H 207.443 -4.68093 0.0259748 0
M  V30 2105 H 207.616 -6.47357 0.288582 0
M  V30 2106 N 201.022 0.148545 -1.56898 0
M  V30 2107 C 202.247 0.880385 -1.87787 0
M  V30 2108 C 202.672 1.74018 -0.714093 0
M  V30 2109 O 202.03 1.78153 0.336343 0
M  V30 2110 C 202.078 1.71422 -3.17249 0
M  V30 2111 O 201.182 2.8183 -3.01074 0
M  V30 2112 H 200.523 0.245301 -0.617028 0
M  V30 2113 H 203.053 0.139826 -2.04122 0
M  V30 2114 H 203.063 2.10954 -3.49231 0
M  V30 2115 H 201.738 1.08284 -4.01556 0
M  V30 2116 H 200.315 2.45715 -2.80497 0
M  V30 2117 N 202.5 1.5196 0.417844 0
M  V30 2118 C 203.43 1.77634 1.51554 0
M  V30 2119 C 204.411 0.626918 1.58126 0
M  V30 2120 O 205.596 0.871632 1.7354 0
M  V30 2121 C 202.726 1.91911 2.8946 0
M  V30 2122 C 201.68 3.07463 2.97743 0
M  V30 2123 C 201.006 3.06951 4.37819 0
M  V30 2124 C 202.306 4.47082 2.70027 0
M  V30 2125 H 204 2.6955 1.3032 0
M  V30 2126 H 201.546 1.29706 0.625492 0
M  V30 2127 H 203.499 2.08455 3.6623 0
M  V30 2128 H 202.223 0.966598 3.11969 0
M  V30 2129 H 200.882 2.90656 2.23416 0
M  V30 2130 H 200.53 2.09438 4.57323 0
M  V30 2131 H 200.23 3.84556 4.44286 0
M  V30 2132 H 201.754 3.25613 5.16535 0
M  V30 2133 H 203.168 4.6414 3.36522 0
M  V30 2134 H 201.565 5.2654 2.87881 0
M  V30 2135 H 202.635 4.55777 1.65514 0
M  V30 2136 N 203.978 -0.674533 1.42435 0
M  V30 2137 C 204.908 -1.80009 1.48724 0
M  V30 2138 C 205.889 -1.6659 0.343793 0
M  V30 2139 O 207.074 -1.86007 0.558137 0
M  V30 2140 C 204.204 -3.18306 1.38919 0
M  V30 2141 C 203.158 -3.46461 2.51294 0
M  V30 2142 C 202.484 -4.84335 2.26547 0
M  V30 2143 C 203.784 -3.43328 3.93603 0
M  V30 2144 H 205.478 -1.75004 2.42928 0
M  V30 2145 H 203.024 -0.840533 1.16923 0
M  V30 2146 H 204.977 -3.9678 1.41927 0
M  V30 2147 H 203.701 -3.2399 0.412094 0
M  V30 2148 H 202.36 -2.70348 2.47604 0
M  V30 2149 H 202.008 -4.86669 1.2713 0
M  V30 2150 H 201.708 -5.04136 3.01861 0
M  V30 2151 H 203.232 -5.65094 2.31304 0
M  V30 2152 H 204.646 -4.11772 3.98894 0
M  V30 2153 H 203.043 -3.74664 4.68771 0
M  V30 2154 H 204.113 -2.41897 4.20255 0
M  V30 2155 N 205.456 -1.28612 -0.910864 0
M  V30 2156 C 206.366 -1.14643 -2.0468 0
M  V30 2157 C 207.382 -0.0723121 -1.7385 0
M  V30 2158 O 208.558 -0.282178 -1.99413 0
M  V30 2159 C 205.623 -0.812561 -3.37044 0
M  V30 2160 C 204.684 -1.96935 -3.81465 0
M  V30 2161 C 203.917 -1.65131 -5.07511 0
M  V30 2162 O 204.14 -0.567013 -5.67575 0
M  V30 2163 O 203.074 -2.49585 -5.47714 0
M  V30 2164 H 206.9 -2.1001 -2.19384 0
M  V30 2165 H 204.485 -1.07958 -1.03274 0
M  V30 2166 H 206.367 -0.640441 -4.16505 0
M  V30 2167 H 205.042 0.111426 -3.23508 0
M  V30 2168 H 203.949 -2.19664 -3.02818 0
M  V30 2169 H 205.282 -2.87414 -3.99567 0
M  V30 2170 N 206.934 1.1197 -1.10907 0
M  V30 2171 C 207.864 2.19928 -0.784473 0
M  V30 2172 C 208.845 1.6833 0.244726 0
M  V30 2173 O 210.03 1.93892 0.109418 0
M  V30 2174 C 207.16 3.46597 -0.220827 0
M  V30 2175 C 206.114 4.11376 -1.18127 0
M  V30 2176 C 205.44 5.32554 -0.478594 0
M  V30 2177 C 206.74 4.56945 -2.52979 0
M  V30 2178 H 208.434 2.47337 -1.68715 0
M  V30 2179 H 205.98 1.18879 -0.812642 0
M  V30 2180 H 207.933 4.21396 0.0184278 0
M  V30 2181 H 206.657 3.1863 0.717113 0
M  V30 2182 H 205.316 3.38564 -1.40606 0
M  V30 2183 H 204.964 5.00856 0.463976 0
M  V30 2184 H 204.664 5.76844 -1.11912 0
M  V30 2185 H 206.188 6.10096 -0.248 0
M  V30 2186 H 207.602 5.23093 -2.3462 0
M  V30 2187 H 205.999 5.1203 -3.12962 0
M  V30 2188 H 207.069 3.70676 -3.12614 0
M  V30 2189 N 208.412 0.89855 1.29475 0
M  V30 2190 C 209.362 0.346767 2.25348 0
M  V30 2191 C 210.346 -0.532509 1.51833 0
M  V30 2192 O 211.538 -0.374714 1.72988 0
M  V30 2193 C 208.667 -0.425681 3.40651 0
M  V30 2194 C 207.753 0.46845 4.21505 0
M  V30 2195 N 208.144 1.57514 4.80648 0
M  V30 2196 C 206.442 0.26603 4.45206 0
M  V30 2197 C 207.143 2.12889 5.41344 0
M  V30 2198 N 206.119 1.42208 5.24669 0
M  V30 2199 H 209.921 1.19219 2.68634 0
M  V30 2200 H 207.435 0.749473 1.44072 0
M  V30 2201 H 209.432 -0.837716 4.08397 0
M  V30 2202 H 208.092 -1.26838 2.98902 0
M  V30 2203 H 209.103 1.95789 4.79465 0
M  V30 2204 H 205.78 -0.538394 4.14014 0
M  V30 2205 H 207.17 3.05901 5.98226 0
M  V30 2206 N 209.89 -1.43072 0.660911 0
M  V30 2207 C 210.837 -2.30785 -0.0259884 0
M  V30 2208 C 211.807 -1.45184 -0.806888 0
M  V30 2209 O 212.992 -1.74041 -0.781943 0
M  V30 2210 C 210.132 -3.30861 -0.981067 0
M  V30 2211 C 209.245 -4.31558 -0.195458 0
M  V30 2212 C 208.38 -5.18712 -1.14503 0
M  V30 2213 C 207.419 -6.11097 -0.350299 0
M  V30 2214 N 206.556 -6.90849 -1.25186 0
M  V30 2215 H 211.396 -2.88975 0.727846 0
M  V30 2216 H 208.933 -1.42353 0.370682 0
M  V30 2217 H 210.891 -3.87399 -1.54849 0
M  V30 2218 H 209.521 -2.74304 -1.70169 0
M  V30 2219 H 208.573 -3.77252 0.488374 0
M  V30 2220 H 209.885 -4.9701 0.422176 0
M  V30 2221 H 209.039 -5.79914 -1.78284 0
M  V30 2222 H 207.778 -4.53404 -1.79656 0
M  V30 2223 H 206.783 -5.48976 0.300808 0
M  V30 2224 H 208.008 -6.7845 0.296941 0
M  V30 2225 H 205.954 -6.28182 -1.89005 0
M  V30 2226 H 205.871 -7.52854 -0.688971 0
M  V30 2227 H 207.139 -7.5655 -1.87757 0
M  V30 2228 N 211.368 -0.403325 -1.52352 0
M  V30 2229 C 212.784 -0.0539281 -1.59509 0
M  V30 2230 C 212.984 1.43307 -1.41652 0
M  V30 2231 O 212.04 2.19924 -1.24056 0
M  V30 2232 C 213.353 -0.543654 -2.95745 0
M  V30 2233 C 214.901 -0.501125 -3.08962 0
M  V30 2234 C 215.376 -0.967267 -4.47669 0
M  V30 2235 N 216.867 -0.923849 -4.53893 0
M  V30 2236 C 217.602 -1.25578 -5.5948 0
M  V30 2237 N 217.098 -1.65889 -6.72646 0
M  V30 2238 N 218.891 -1.17613 -5.49658 0
M  V30 2239 H 211.042 -1.37123 -1.62206 0
M  V30 2240 H 213.305 -0.56294 -0.76276 0
M  V30 2241 H 213.011 -1.58275 -3.14073 0
M  V30 2242 H 212.885 0.0498042 -3.77167 0
M  V30 2243 H 215.272 0.528909 -2.90321 0
M  V30 2244 H 215.353 -1.13056 -2.2946 0
M  V30 2245 H 214.997 -1.9956 -4.67053 0
M  V30 2246 H 214.927 -0.314698 -5.25659 0
M  V30 2247 H 217.418 -0.627403 -3.72655 0
M  V30 2248 H 217.731 -1.89543 -7.49195 0
M  V30 2249 H 216.076 -1.69787 -6.73942 0
M  V30 2250 H 219.267 -0.860115 -4.6013 0
M  V30 2251 H 219.44 -1.43812 -6.3184 0
M  V30 2252 N 212.846 1.57033 -0.133567 0
M  V30 2253 C 214.262 1.58035 0.222944 0
M  V30 2254 C 214.462 1.14713 1.6566 0
M  V30 2255 O 213.518 0.841218 2.38075 0
M  V30 2256 C 214.831 3.00691 -0.0236116 0
M  V30 2257 C 216.379 3.12973 0.0411512 0
M  V30 2258 C 216.854 4.57654 -0.177899 0
M  V30 2259 N 218.345 4.63033 -0.124365 0
M  V30 2260 C 219.08 5.72771 -0.268553 0
M  V30 2261 N 218.576 6.91206 -0.46972 0
M  V30 2262 N 220.369 5.61718 -0.2071 0
M  V30 2263 H 212.52 1.8349 -1.06981 0
M  V30 2264 H 214.783 0.848677 -0.422436 0
M  V30 2265 H 214.489 3.36726 -1.0153 0
M  V30 2266 H 214.363 3.70614 0.701808 0
M  V30 2267 H 216.75 2.76787 1.02338 0
M  V30 2268 H 216.831 2.45564 -0.716383 0
M  V30 2269 H 216.475 4.94542 -1.15717 0
M  V30 2270 H 216.405 5.23173 0.599797 0
M  V30 2271 H 218.896 3.7789 0.027011 0
M  V30 2272 H 219.209 7.70693 -0.570212 0
M  V30 2273 H 217.554 6.93156 -0.505876 0
M  V30 2274 H 220.745 4.68072 -0.0507986 0
M  V30 2275 H 220.918 6.47195 -0.322909 0
M  V30 2276 N 214.325 -0.140222 1.56975 0
M  V30 2277 C 215.272 -1.17292 1.98774 0
M  V30 2278 C 216.242 -1.4232 0.856408 0
M  V30 2279 O 217.427 -1.54541 1.119 0
M  V30 2280 C 214.567 -2.49973 2.37923 0
M  V30 2281 C 213.68 -2.32062 3.64378 0
M  V30 2282 C 212.815 -3.57825 3.926 0
M  V30 2283 C 211.854 -3.3498 5.12303 0
M  V30 2284 N 210.991 -4.52891 5.36502 0
M  V30 2285 H 215.831 -0.809472 2.86795 0
M  V30 2286 H 213.368 -0.388237 1.41884 0
M  V30 2287 H 215.326 -3.27346 2.58652 0
M  V30 2288 H 213.956 -2.84252 1.52972 0
M  V30 2289 H 213.008 -1.45711 3.51387 0
M  V30 2290 H 214.32 -2.11145 4.51906 0
M  V30 2291 H 213.474 -4.43624 4.13863 0
M  V30 2292 H 212.213 -3.81753 3.03506 0
M  V30 2293 H 211.218 -2.4757 4.90906 0
M  V30 2294 H 212.443 -3.12444 6.02956 0
M  V30 2295 H 210.389 -4.76979 4.50363 0
M  V30 2296 H 210.306 -4.35001 6.18312 0
M  V30 2297 H 211.574 -5.39884 5.62268 0
M  V30 2298 N 215.803 -1.52179 -0.40978 0
M  V30 2299 C 216.766 -1.74853 -1.48186 0
M  V30 2300 C 217.766 -0.618417 -1.48433 0
M  V30 2301 O 218.956 -0.886286 -1.49969 0
M  V30 2302 C 216.088 -1.8303 -2.87598 0
M  V30 2303 H 217.281 -2.70559 -1.29374 0
M  V30 2304 H 214.834 -1.42586 -0.640233 0
M  V30 2305 H 215.569 -0.89236 -3.11781 0
M  V30 2306 H 215.354 -2.65187 -2.88822 0
M  V30 2307 H 216.844 -2.02316 -3.65319 0
M  V30 2308 N 217.281 0.66697 -1.42791 0
M  V30 2309 C 218.211 1.79218 -1.49677 0
M  V30 2310 C 219.192 1.66405 -0.352623 0
M  V30 2311 O 220.377 1.85708 -0.567993 0
M  V30 2312 C 217.507 3.17565 -1.40605 0
M  V30 2313 C 216.461 3.45124 -2.53127 0
M  V30 2314 C 215.787 4.83127 -2.29112 0
M  V30 2315 C 217.087 3.41236 -3.95418 0
M  V30 2316 H 218.781 1.73713 -2.43853 0
M  V30 2317 H 216.327 0.83432 -1.17367 0
M  V30 2318 H 218.28 3.96022 -1.44029 0
M  V30 2319 H 217.004 3.23767 -0.429271 0
M  V30 2320 H 215.663 2.69031 -2.49034 0
M  V30 2321 H 215.311 4.85988 -1.29709 0
M  V30 2322 H 215.011 5.02528 -3.04531 0
M  V30 2323 H 216.535 5.63859 -2.34297 0
M  V30 2324 H 217.949 4.09651 -4.01073 0
M  V30 2325 H 216.346 3.72173 -4.70752 0
M  V30 2326 H 217.416 2.39665 -4.21532 0
M  V30 2327 N 218.759 1.29093 0.90403 0
M  V30 2328 C 219.987 1.19689 1.68766 0
M  V30 2329 C 220.402 -0.243113 1.87228 0
M  V30 2330 O 219.759 -1.16326 1.40621 0
M  V30 2331 C 219.81 1.90144 3.07453 0
M  V30 2332 O 219.531 3.2852 2.89838 0
M  V30 2333 C 221.032 1.87162 4.01852 0
M  V30 2334 H 218.252 0.415035 0.527244 0
M  V30 2335 H 220.796 1.7039 1.13082 0
M  V30 2336 H 218.951 1.43289 3.59926 0
M  V30 2337 H 219.365 3.63944 3.77684 0
M  V30 2338 H 220.839 2.41032 4.96596 0
M  V30 2339 H 221.316 0.84617 4.30972 0
M  V30 2340 H 221.922 2.33741 3.5531 0
M  V30 2341 N 220.237 -1.11381 1.11499 0
M  V30 2342 C 221.147 -2.21019 0.786628 0
M  V30 2343 C 222.163 -1.72597 -0.220507 0
M  V30 2344 O 223.339 -2.01321 -0.0565251 0
M  V30 2345 C 220.404 -3.459 0.235333 0
M  V30 2346 C 219.465 -4.09107 1.30115 0
M  V30 2347 C 218.698 -5.28027 0.776068 0
M  V30 2348 O 218.921 -5.6904 -0.393661 0
M  V30 2349 O 217.855 -5.81835 1.54114 0
M  V30 2350 H 221.681 -2.51521 1.70209 0
M  V30 2351 H 219.266 -1.19928 0.890928 0
M  V30 2352 H 221.148 -4.21346 -0.067715 0
M  V30 2353 H 219.823 -3.17049 -0.652828 0
M  V30 2354 H 218.73 -3.35391 1.65722 0
M  V30 2355 H 220.063 -4.42139 2.16273 0
M  V30 2356 N 221.715 -0.905404 -1.28997 0
M  V30 2357 C 223.126 -0.581953 -1.77398 0
M  V30 2358 C 223.477 0.902552 -1.74208 0
M  V30 2359 O 222.602 1.70584 -1.33154 0
M  V30 2360 C 223.197 -1.04961 -3.22131 0
M  V30 2361 C 221.756 -0.777229 -3.68288 0
M  V30 2362 C 220.903 -1.22109 -2.48967 0
M  V30 2363 H 223.854 -1.08754 -1.15578 0
M  V30 2364 H 223.875 -0.387387 -3.78523 0
M  V30 2365 H 223.387 -2.13008 -3.24421 0
M  V30 2366 H 221.488 0.290383 -3.71467 0
M  V30 2367 H 221.601 -1.37911 -4.58822 0
M  V30 2368 H 219.965 -0.639971 -2.46529 0
M  V30 2369 H 220.748 -2.30972 -2.53982 0
M  V30 2370 N 223.193 1.4272 -0.668489 0
M  V30 2371 C 224.103 2.34596 0.0139753 0
M  V30 2372 C 225.119 1.5474 0.795703 0
M  V30 2373 O 226.295 1.87334 0.739466 0
M  V30 2374 C 223.36 3.33202 0.957982 0
M  V30 2375 C 222.421 4.28957 0.17149 0
M  V30 2376 C 221.654 5.22853 1.07053 0
M  V30 2377 O 221.877 5.21531 2.31001 0
M  V30 2378 O 220.811 5.9952 0.534727 0
M  V30 2379 H 224.637 2.9448 -0.742661 0
M  V30 2380 H 222.222 1.43117 -0.428705 0
M  V30 2381 H 224.104 3.93796 1.50008 0
M  V30 2382 H 222.779 2.758 1.69458 0
M  V30 2383 H 221.686 3.71796 -0.414558 0
M  V30 2384 H 223.019 4.89383 -0.52586 0
M  V30 2385 N 224.671 0.411399 1.52136 0
M  V30 2386 C 225.634 -0.401089 2.25663 0
M  V30 2387 C 226.634 -0.971732 1.28117 0
M  V30 2388 O 227.824 -0.850254 1.52041 0
M  V30 2389 C 224.956 -1.56483 3.02863 0
M  V30 2390 H 226.149 0.24295 2.98914 0
M  V30 2391 H 223.702 0.163968 1.55438 0
M  V30 2392 H 224.437 -2.24567 2.33967 0
M  V30 2393 H 224.222 -1.16211 3.74483 0
M  V30 2394 H 225.712 -2.13951 3.58629 0
M  V30 2395 N 226.149 -1.5696 0.141893 0
M  V30 2396 C 227.565 -1.58151 -0.21456 0
M  V30 2397 C 227.765 -1.1559 -1.65049 0
M  V30 2398 O 226.821 -0.853832 -2.37626 0
M  V30 2399 C 228.134 -3.00674 0.0395576 0
M  V30 2400 C 229.682 -3.1299 -0.0245529 0
M  V30 2401 C 230.157 -4.57554 0.202167 0
M  V30 2402 N 231.648 -4.62961 0.148919 0
M  V30 2403 C 232.383 -5.7262 0.298924 0
M  V30 2404 N 231.879 -6.90947 0.50637 0
M  V30 2405 N 233.672 -5.61601 0.236886 0
M  V30 2406 H 225.823 -1.8292 1.07953 0
M  V30 2407 H 228.086 -0.846425 0.42693 0
M  V30 2408 H 227.792 -3.36183 1.03315 0
M  V30 2409 H 227.666 -3.70981 -0.682143 0
M  V30 2410 H 230.053 -2.77326 -1.00869 0
M  V30 2411 H 230.134 -2.4518 0.729396 0
M  V30 2412 H 229.778 -4.93922 1.18338 0
M  V30 2413 H 229.708 -5.23484 -0.572044 0
M  V30 2414 H 232.199 -3.77899 -0.00697015 0
M  V30 2415 H 232.512 -7.7038 0.611076 0
M  V30 2416 H 230.857 -6.92878 0.542628 0
M  V30 2417 H 234.048 -4.68039 0.0756209 0
M  V30 2418 H 234.221 -6.47015 0.357227 0
M  V30 2419 N 227.627 0.131896 -1.57047 0
M  V30 2420 C 228.857 0.855219 -1.88068 0
M  V30 2421 C 229.265 1.74557 -0.729817 0
M  V30 2422 O 228.608 1.81083 0.308962 0
M  V30 2423 C 228.67 1.75119 -3.13964 0
M  V30 2424 C 228.334 1.03646 -4.45091 0
M  V30 2425 C 229.331 0.383276 -5.18485 0
M  V30 2426 C 227.016 1.02148 -4.91804 0
M  V30 2427 C 229.01 -0.275347 -6.36805 0
M  V30 2428 C 226.697 0.359047 -6.10044 0
M  V30 2429 C 227.695 -0.288222 -6.82392 0
M  V30 2430 O 227.383 -0.94011 -7.98384 0
M  V30 2431 H 227.115 0.251864 -0.627328 0
M  V30 2432 H 229.669 0.124782 -2.05021 0
M  V30 2433 H 227.899 2.52295 -2.9306 0
M  V30 2434 H 229.588 2.3478 -3.31109 0
M  V30 2435 H 230.354 0.386562 -4.83457 0
M  V30 2436 H 226.233 1.5147 -4.35405 0
M  V30 2437 H 229.777 -0.781148 -6.93213 0
M  V30 2438 H 225.674 0.35348 -6.44531 0
M  V30 2439 H 226.442 -0.84329 -8.14144 0
M  V30 2440 N 229.106 1.52395 0.401703 0
M  V30 2441 C 230.336 1.70429 1.1678 0
M  V30 2442 C 230.744 0.416702 1.84554 0
M  V30 2443 O 230.087 -0.617697 1.73003 0
M  V30 2444 C 230.149 2.78919 2.26814 0
M  V30 2445 C 229.813 4.20437 1.79113 0
M  V30 2446 C 230.81 5.04028 1.27482 0
M  V30 2447 C 228.495 4.66704 1.85722 0
M  V30 2448 C 230.489 6.31961 0.830913 0
M  V30 2449 C 228.176 5.94625 1.40942 0
M  V30 2450 C 229.174 6.77082 0.897128 0
M  V30 2451 O 228.862 8.02607 0.455822 0
M  V30 2452 H 228.594 0.574272 0.356634 0
M  V30 2453 H 231.148 1.99767 0.477724 0
M  V30 2454 H 229.378 2.44973 2.99207 0
M  V30 2455 H 231.067 2.8548 2.88541 0
M  V30 2456 H 231.833 4.69471 1.21744 0
M  V30 2457 H 227.712 4.0262 2.24539 0
M  V30 2458 H 231.256 6.96271 0.430368 0
M  V30 2459 H 227.153 6.28688 1.46362 0
M  V30 2460 H 227.921 8.16453 0.578457 0
M  V30 2461 N 230.584 -0.659388 1.43143 0
M  V30 2462 C 231.514 -1.78422 1.50625 0
M  V30 2463 C 232.495 -1.66216 0.361443 0
M  V30 2464 O 233.68 -1.85404 0.577834 0
M  V30 2465 C 230.81 -3.16815 1.42287 0
M  V30 2466 C 229.764 -3.43777 2.54954 0
M  V30 2467 C 229.09 -4.81905 2.31671 0
M  V30 2468 C 230.39 -3.39134 3.97222 0
M  V30 2469 H 232.084 -1.72417 2.44771 0
M  V30 2470 H 229.63 -0.828084 1.17808 0
M  V30 2471 H 231.583 -3.95253 1.46127 0
M  V30 2472 H 230.307 -3.23534 0.446435 0
M  V30 2473 H 228.966 -2.67707 2.50457 0
M  V30 2474 H 228.614 -4.85294 1.32284 0
M  V30 2475 H 228.314 -5.00906 3.07192 0
M  V30 2476 H 229.838 -5.62609 2.37284 0
M  V30 2477 H 231.252 -4.07518 4.03239 0
M  V30 2478 H 229.649 -3.69671 4.72719 0
M  V30 2479 H 230.719 -2.37426 4.22797 0
M  V30 2480 N 232.062 -1.29571 -0.897171 0
M  V30 2481 C 233.478 -1.07637 -1.17841 0
M  V30 2482 C 233.678 0.170713 -2.00776 0
M  V30 2483 O 232.734 0.867768 -2.3712 0
M  V30 2484 C 234.047 -2.3332 -1.8969 0
M  V30 2485 C 235.595 -2.38664 -2.02505 0
M  V30 2486 C 236.07 -3.64157 -2.77765 0
M  V30 2487 N 237.561 -3.64894 -2.85318 0
M  V30 2488 C 238.296 -4.58679 -3.44094 0
M  V30 2489 N 237.792 -5.62799 -4.04017 0
M  V30 2490 N 239.585 -4.46245 -3.41793 0
M  V30 2491 H 231.736 -2.09598 -0.343883 0
M  V30 2492 H 233.999 -0.923333 -0.214848 0
M  V30 2493 H 233.705 -3.24262 -1.36187 0
M  V30 2494 H 233.579 -2.41025 -2.9015 0
M  V30 2495 H 235.966 -1.48208 -2.55183 0
M  V30 2496 H 236.047 -2.34943 -1.01171 0
M  V30 2497 H 235.691 -4.54965 -2.25763 0
M  V30 2498 H 235.621 -3.65137 -3.7945 0
M  V30 2499 H 238.112 -2.89613 -2.42761 0
M  V30 2500 H 238.425 -6.3048 -4.46895 0
M  V30 2501 H 236.77 -5.66605 -4.02472 0
M  V30 2502 H 239.961 -3.64094 -2.94199 0
M  V30 2503 H 240.134 -5.19518 -3.87304 0
M  V30 2504 N 233.54 1.10788 -1.12088 0
M  V30 2505 C 234.472 2.16816 -0.743213 0
M  V30 2506 C 235.485 1.6119 0.228412 0
M  V30 2507 O 236.674 1.78497 0.0102931 0
M  V30 2508 C 233.774 3.38809 -0.0787313 0
M  V30 2509 C 232.947 4.23885 -1.0789 0
M  V30 2510 C 232.006 5.24334 -0.442713 0
M  V30 2511 O 231.032 5.58497 -1.09864 0
M  V30 2512 N 232.234 5.75079 0.791457 0
M  V30 2513 H 234.999 2.49825 -1.65552 0
M  V30 2514 H 232.56 1.26373 -1.012 0
M  V30 2515 H 234.552 4.03107 0.358766 0
M  V30 2516 H 233.122 3.03805 0.736275 0
M  V30 2517 H 232.342 3.55939 -1.69414 0
M  V30 2518 H 233.63 4.77562 -1.75533 0
M  V30 2519 H 233.028 5.49517 1.3434 0
M  V30 2520 H 231.585 6.4118 1.17183 0
M  V30 2521 N 235.018 0.912232 1.28515 0
M  V30 2522 C 236.267 0.540504 1.94323 0
M  V30 2523 C 236.58 -0.920044 1.72611 0
M  V30 2524 O 237.786 -1.39986 2.32629 0
M  V30 2525 C 236.242 0.915803 3.48053 0
M  V30 2526 C 235.85 2.39598 3.78546 0
M  V30 2527 C 237.594 0.614588 4.20027 0
M  V30 2528 C 235.501 2.71148 5.25578 0
M  V30 2529 H 234.431 0.198418 0.727424 0
M  V30 2530 H 237.082 1.11094 1.46049 0
M  V30 2531 H 235.464 0.274168 3.9505 0
M  V30 2532 H 236.638 3.08422 3.42364 0
M  V30 2533 H 234.953 2.66749 3.1974 0
M  V30 2534 H 237.55 0.827002 5.28266 0
M  V30 2535 H 237.893 -0.447531 4.13887 0
M  V30 2536 H 238.426 1.21462 3.78803 0
M  V30 2537 H 235.165 3.76207 5.36794 0
M  V30 2538 H 234.685 2.0696 5.62963 0
M  V30 2539 H 236.364 2.58072 5.93302 0
M  V30 2540 N 236.496 -1.42363 0.676048 0
M  V30 2541 C 237.742 -2.0182 0.199125 0
M  V30 2542 C 238.075 -1.53339 -1.19168 0
M  V30 2543 O 237.35 -0.736124 -1.80032 0
M  V30 2544 C 237.633 -3.59331 0.235144 0
M  V30 2545 C 237.486 -4.17989 1.66149 0
M  V30 2546 C 238.805 -4.3813 -0.41595 0
M  V30 2547 H 235.924 -0.733293 0.0738311 0
M  V30 2548 H 238.566 -1.69368 0.86107 0
M  V30 2549 H 236.716 -3.87109 -0.328487 0
M  V30 2550 H 238.388 -4.0116 2.27747 0
M  V30 2551 H 236.631 -3.7377 2.20178 0
M  V30 2552 H 237.302 -5.27126 1.63837 0
M  V30 2553 H 239.778 -4.16051 0.0638529 0
M  V30 2554 H 238.654 -5.47717 -0.360115 0
M  V30 2555 H 238.915 -4.16101 -1.49373 0
M  V30 2556 N 237.974 -0.419461 -1.51915 0
M  V30 2557 C 238.904 0.391813 -2.30189 0
M  V30 2558 C 239.885 1.03699 -1.34836 0
M  V30 2559 O 241.07 1.04403 -1.63748 0
M  V30 2560 C 238.2 1.50312 -3.13087 0
M  V30 2561 C 237.154 0.9824 -4.16573 0
M  V30 2562 C 236.48 2.18809 -4.8788 0
M  V30 2563 C 237.78 0.0292356 -5.22292 0
M  V30 2564 H 239.474 -0.26135 -2.98257 0
M  V30 2565 H 237.02 -0.127134 -1.43438 0
M  V30 2566 H 238.973 2.07773 -3.66617 0
M  V30 2567 H 237.697 2.18431 -2.42807 0
M  V30 2568 H 236.356 0.430119 -3.64068 0
M  V30 2569 H 236.004 2.85507 -4.14119 0
M  V30 2570 H 235.704 1.84615 -5.57845 0
M  V30 2571 H 237.228 2.76858 -5.44226 0
M  V30 2572 H 238.642 0.512976 -5.71 0
M  V30 2573 H 237.039 -0.2244 -5.9968 0
M  V30 2574 H 238.109 -0.912931 -4.76228 0
M  V30 2575 N 239.452 1.56882 -0.150215 0
M  V30 2576 C 240.7 1.9584 0.499105 0
M  V30 2577 C 241.021 1.03623 1.65188 0
M  V30 2578 O 240.291 0.0984084 1.95653 0
M  V30 2579 H 238.871 0.723119 0.187373 0
M  V30 2580 H 241.533 1.9358 -0.226466 0
M  V30 2581 H 240.629 2.99638 0.873122 0
M  V30 2582 N 240.93 -0.123565 1.57115 0
M  V30 2583 C 242.17 -0.838097 1.86428 0
M  V30 2584 C 242.534 -1.77266 0.737611 0
M  V30 2585 O 243.735 -2.52842 0.912389 0
M  V30 2586 C 242.006 -1.57219 3.20962 0
M  V30 2587 S 243.565 -2.32893 3.71896 0
M  V30 2588 H 240.383 -0.279811 0.653626 0
M  V30 2589 H 242.985 -0.0967034 1.95261 0
M  V30 2590 H 241.689 -0.877522 4.00909 0
M  V30 2591 H 241.22 -2.35405 3.15195 0
M  V30 2592 H 243.235 -3.5853 3.43032 0
M  V30 2593 N 242.408 -1.52605 -0.393616 0
M  V30 2594 C 243.34 -1.73303 -1.49995 0
M  V30 2595 C 244.353 -0.613473 -1.50799 0
M  V30 2596 O 245.542 -0.889049 -1.54784 0
M  V30 2597 C 242.642 -1.77245 -2.88855 0
M  V30 2598 C 241.815 -3.06483 -3.12069 0
M  V30 2599 C 240.874 -3.02033 -4.30886 0
M  V30 2600 O 239.9 -3.75907 -4.27414 0
M  V30 2601 N 241.102 -2.20897 -5.36828 0
M  V30 2602 H 243.867 -2.68756 -1.32629 0
M  V30 2603 H 241.428 -1.51036 -0.583083 0
M  V30 2604 H 243.42 -1.7178 -3.66434 0
M  V30 2605 H 241.99 -0.891993 -2.99603 0
M  V30 2606 H 241.21 -3.25474 -2.22396 0
M  V30 2607 H 242.498 -3.91947 -3.2443 0
M  V30 2608 H 241.896 -1.60336 -5.42502 0
M  V30 2609 H 240.453 -2.21275 -6.13091 0
M  V30 2610 N 243.887 0.651787 -1.4349 0
M  V30 2611 C 245.117 1.43728 -1.48411 0
M  V30 2612 C 245.525 1.8893 -0.10103 0
M  V30 2613 O 244.868 1.60182 0.899307 0
M  V30 2614 C 244.93 2.70411 -2.36893 0
M  V30 2615 C 244.594 2.4714 -3.8441 0
M  V30 2616 C 245.591 2.10271 -4.75481 0
M  V30 2617 C 243.276 2.6142 -4.28912 0
M  V30 2618 C 245.27 1.87982 -6.0905 0
M  V30 2619 C 242.957 2.38746 -5.62533 0
M  V30 2620 C 243.955 2.02083 -6.5242 0
M  V30 2621 O 243.643 1.79647 -7.8357 0
M  V30 2622 H 243.375 0.447962 -0.506267 0
M  V30 2623 H 245.929 0.80624 -1.88915 0
M  V30 2624 H 244.159 3.36079 -1.91278 0
M  V30 2625 H 245.848 3.32364 -2.33 0
M  V30 2626 H 246.614 1.98814 -4.42378 0
M  V30 2627 H 242.493 2.88931 -3.59222 0
M  V30 2628 H 246.037 1.5929 -6.7917 0
M  V30 2629 H 241.934 2.49806 -5.95203 0
M  V30 2630 H 242.702 1.9406 -7.95162 0
M  V30 2631 N 245.365 1.30045 0.890287 0
M  V30 2632 C 246.295 1.18541 2.01172 0
M  V30 2633 C 247.276 0.0773356 1.69924 0
M  V30 2634 O 248.461 0.25845 1.92473 0
M  V30 2635 C 245.591 0.870941 3.36202 0
M  V30 2636 C 244.545 1.93637 3.81692 0
M  V30 2637 C 243.871 1.475 5.13953 0
M  V30 2638 C 245.171 3.34666 4.00994 0
M  V30 2639 H 246.865 2.12359 2.11054 0
M  V30 2640 H 244.411 1.02238 1.01407 0
M  V30 2641 H 246.364 0.777141 4.14172 0
M  V30 2642 H 245.088 -0.102926 3.26438 0
M  V30 2643 H 243.747 2.01972 3.05946 0
M  V30 2644 H 243.395 0.489551 5.00612 0
M  V30 2645 H 243.095 2.1876 5.4536 0
M  V30 2646 H 244.619 1.39489 5.94454 0
M  V30 2647 H 246.033 3.2912 4.69417 0
M  V30 2648 H 244.43 4.03966 4.43769 0
M  V30 2649 H 245.5 3.76949 3.05021 0
M  V30 2650 N 246.843 -1.10192 1.12674 0
M  V30 2651 C 247.793 -2.14754 0.765801 0
M  V30 2652 C 248.777 -1.59154 -0.236409 0
M  V30 2653 O 249.969 -1.76951 -0.0415261 0
M  V30 2654 C 247.098 -3.42563 0.224827 0
M  V30 2655 C 246.184 -4.05091 1.25548 0
M  V30 2656 N 246.575 -4.42287 2.4539 0
M  V30 2657 C 244.873 -4.32186 1.10142 0
M  V30 2658 C 245.574 -4.91441 3.11224 0
M  V30 2659 N 244.55 -4.88405 2.38666 0
M  V30 2660 H 248.352 -2.41309 1.67772 0
M  V30 2661 H 245.866 -1.27339 1.00789 0
M  V30 2662 H 247.863 -4.16868 -0.0519578 0
M  V30 2663 H 246.523 -3.17467 -0.681515 0
M  V30 2664 H 247.534 -4.33902 2.82754 0
M  V30 2665 H 244.211 -4.16735 0.252587 0
M  V30 2666 H 245.601 -5.29749 4.13298 0
M  V30 2667 N 248.321 -0.919034 -1.28029 0
M  V30 2668 C 249.737 -0.617972 -1.4715 0
M  V30 2669 C 249.937 0.835242 -1.83374 0
M  V30 2670 O 248.993 1.61388 -1.94191 0
M  V30 2671 C 250.306 -1.56041 -2.57044 0
M  V30 2672 C 251.854 -1.56769 -2.7091 0
M  V30 2673 C 252.329 -2.49688 -3.83953 0
M  V30 2674 N 253.82 -2.47845 -3.91314 0
M  V30 2675 C 254.555 -3.16437 -4.78179 0
M  V30 2676 N 254.051 -3.94376 -5.69596 0
M  V30 2677 N 255.844 -3.05498 -4.71834 0
M  V30 2678 H 247.995 -1.85866 -1.02798 0
M  V30 2679 H 250.258 -0.797506 -0.512531 0
M  V30 2680 H 249.964 -2.59671 -2.372 0
M  V30 2681 H 249.838 -1.29551 -3.54255 0
M  V30 2682 H 252.225 -0.538745 -2.90141 0
M  V30 2683 H 252.306 -1.87305 -1.74214 0
M  V30 2684 H 251.95 -3.52688 -3.65477 0
M  V30 2685 H 251.88 -2.16453 -4.80058 0
M  V30 2686 H 254.371 -1.91234 -3.25941 0
M  V30 2687 H 254.684 -4.43721 -6.32718 0
M  V30 2688 H 253.029 -3.98481 -5.69419 0
M  V30 2689 H 256.22 -2.44108 -3.99411 0
M  V30 2690 H 256.393 -3.59225 -5.39316 0
M  V30 2691 N 249.799 1.42003 -0.683588 0
M  V30 2692 C 250.747 2.326 0.000815408 0
M  V30 2693 C 251.741 1.50308 0.781278 0
M  V30 2694 O 252.947 1.66322 0.688251 0
M  V30 2695 H 249.322 0.751758 0.0190616 0
M  V30 2696 H 251.293 2.88011 -0.780528 0
M  V30 2697 C 250.042 3.34978 0.93195 0
M  V30 2698 H 249.365 3.98345 0.340817 0
M  V30 2699 H 250.805 4.00936 1.37936 0
M  V30 2700 C 249.264 2.67925 2.04249 0
M  V30 2701 O 249.794 2.51788 3.12995 0
M  V30 2702 N 248 2.2681 1.81675 0
M  V30 2703 H 247.547 2.40135 0.932363 0
M  V30 2704 H 247.505 1.8228 2.56167 0
M  V30 2705 N 251.277 0.427512 1.51691 0
M  V30 2706 C 252.693 0.0792977 1.59403 0
M  V30 2707 C 252.893 -1.41035 1.43914 0
M  V30 2708 O 251.949 -2.17922 1.27539 0
M  V30 2709 C 253.262 0.590636 2.94842 0
M  V30 2710 C 254.81 0.550215 3.08126 0
M  V30 2711 C 255.285 1.03836 4.46074 0
M  V30 2712 N 256.776 0.995943 4.52366 0
M  V30 2713 C 257.511 1.34463 5.57411 0
M  V30 2714 N 257.007 1.76569 6.69922 0
M  V30 2715 N 258.8 1.26343 5.47717 0
M  V30 2716 H 250.951 1.39687 1.60004 0
M  V30 2717 H 253.214 0.575003 0.753708 0
M  V30 2718 H 252.92 1.63251 3.11516 0
M  V30 2719 H 252.794 0.0102061 3.77199 0
M  V30 2720 H 255.181 -0.482654 2.91126 0
M  V30 2721 H 255.262 1.16693 2.27632 0
M  V30 2722 H 254.906 2.06965 4.63819 0
M  V30 2723 H 254.836 0.398286 5.25092 0
M  V30 2724 H 257.327 0.68661 3.7161 0
M  V30 2725 H 257.64 2.01438 7.46085 0
M  V30 2726 H 255.985 1.80488 6.71155 0
M  V30 2727 H 259.176 0.933209 4.58703 0
M  V30 2728 H 259.349 1.53846 6.29472 0
M  V30 2729 N 252.755 -1.56801 0.158532 0
M  V30 2730 C 254.001 -1.96781 -0.490405 0
M  V30 2731 C 254.334 -1.04397 -1.63753 0
M  V30 2732 O 253.609 -0.0885805 -1.94298 0
M  V30 2733 C 253.892 -3.4635 -0.985594 0
M  V30 2734 C 253.745 -4.49512 0.160824 0
M  V30 2735 C 255.064 -3.98697 -1.86355 0
M  V30 2736 H 252.183 -0.715482 -0.176788 0
M  V30 2737 H 254.825 -1.88451 0.242088 0
M  V30 2738 H 252.975 -3.53579 -1.60978 0
M  V30 2739 H 254.647 -4.54353 0.797537 0
M  V30 2740 H 252.89 -4.26013 0.818256 0
M  V30 2741 H 253.561 -5.51531 -0.227569 0
M  V30 2742 H 256.037 -3.94019 -1.33746 0
M  V30 2743 H 254.913 -5.03792 -2.17909 0
M  V30 2744 H 255.174 -3.41744 -2.8047 0
M  V30 2745 N 254.233 0.115231 -1.57178 0
M  V30 2746 C 255.482 0.820945 -1.84237 0
M  V30 2747 C 255.795 1.80866 -0.744761 0
M  V30 2748 O 257.001 2.56083 -0.901871 0
M  V30 2749 C 255.457 1.51072 -3.26658 0
M  V30 2750 C 255.065 0.563795 -4.44438 0
M  V30 2751 C 256.809 2.20134 -3.62962 0
M  V30 2752 C 254.716 1.25701 -5.77887 0
M  V30 2753 H 253.646 0.310328 -0.687177 0
M  V30 2754 H 256.297 0.0737134 -1.83352 0
M  V30 2755 H 254.679 2.30471 -3.22024 0
M  V30 2756 H 255.853 -0.197247 -4.60378 0
M  V30 2757 H 254.168 -0.0200638 -4.16395 0
M  V30 2758 H 256.765 2.72696 -4.59936 0
M  V30 2759 H 257.108 2.98107 -2.90582 0
M  V30 2760 H 257.641 1.47619 -3.69396 0
M  V30 2761 H 254.38 0.518493 -6.53446 0
M  V30 2762 H 253.9 1.98997 -5.65827 0
M  V30 2763 H 255.579 1.78915 -6.2177 0
M  V30 2764 N 255.711 1.52812 0.385517 0
M  V30 2765 C 256.661 1.74219 1.47078 0
M  V30 2766 C 257.645 0.59632 1.49442 0
M  V30 2767 O 258.837 0.85428 1.5502 0
M  V30 2768 C 255.966 1.9176 2.84751 0
M  V30 2769 C 255.052 3.12289 2.86943 0
M  V30 2770 N 255.443 4.34575 2.58802 0
M  V30 2771 C 253.741 3.12605 3.1811 0
M  V30 2772 C 254.442 5.162 2.68166 0
M  V30 2773 N 253.418 4.51964 3.02043 0
M  V30 2774 H 257.22 2.6639 1.24152 0
M  V30 2775 H 254.734 1.51166 0.593504 0
M  V30 2776 H 256.731 2.05218 3.62893 0
M  V30 2777 H 255.391 1.00805 3.08656 0
M  V30 2778 H 256.402 4.62649 2.32759 0
M  V30 2779 H 253.079 2.31472 3.47458 0
M  V30 2780 H 254.469 6.23689 2.49923 0
M  V30 2781 N 257.189 -0.644168 1.43834 0
M  V30 2782 C 258.605 -0.960875 1.27434 0
M  V30 2783 C 258.805 -2.00499 0.200618 0
M  V30 2784 O 257.861 -2.49018 -0.417906 0
M  V30 2785 C 259.174 -1.43653 2.64167 0
M  V30 2786 C 260.722 -1.55271 2.71772 0
M  V30 2787 C 261.197 -2.06224 4.08944 0
M  V30 2788 N 262.688 -2.13513 4.11055 0
M  V30 2789 C 263.423 -2.54081 5.14033 0
M  V30 2790 N 262.919 -2.9388 6.27381 0
M  V30 2791 N 264.712 -2.54101 5.01387 0
M  V30 2792 H 256.863 0.0465779 2.12349 0
M  V30 2793 H 259.126 -0.0417638 0.94708 0
M  V30 2794 H 258.832 -0.743706 3.43747 0
M  V30 2795 H 258.706 -2.40993 2.90176 0
M  V30 2796 H 261.093 -2.23653 1.92519 0
M  V30 2797 H 261.174 -0.563395 2.49519 0
M  V30 2798 H 260.818 -1.38441 4.88668 0
M  V30 2799 H 260.748 -3.06003 4.28567 0
M  V30 2800 H 263.239 -1.85493 3.29242 0
M  V30 2801 H 263.552 -3.2361 7.01781 0
M  V30 2802 H 261.897 -2.91663 6.30839 0
M  V30 2803 H 265.088 -2.22391 4.11898 0
M  V30 2804 H 265.261 -2.85394 5.81768 0
M  V30 2805 N 258.668 -1.30515 -0.883378 0
M  V30 2806 C 259.945 -1.10086 -1.6168 0
M  V30 2807 C 260.325 0.349269 -2.08191 0
M  V30 2808 O 259.673 1.34105 -1.85008 0
M  V30 2809 C 259.883 -2.10315 -2.78511 0
M  V30 2810 C 261.231 -2.42119 -3.48803 0
M  V30 2811 O 262.255 -2.08638 -2.88702 0
M  V30 2812 O 261.114 -2.99396 -4.57192 0
M  V30 2813 H 258.208 -0.422907 -0.710689 0
M  V30 2814 H 260.754 -1.41947 -0.930015 0
M  V30 2815 H 259.526 -3.07917 -2.41459 0
M  V30 2816 H 259.149 -1.79282 -3.54886 0
M  V30 2817 N 260.146 1.09593 -1.13257 0
M  V30 2818 C 261.076 2.18214 -0.830946 0
M  V30 2819 C 262.057 1.68812 0.208966 0
M  V30 2820 O 263.242 1.9408 0.0682666 0
M  V30 2821 C 260.372 3.46051 -0.294296 0
M  V30 2822 C 259.326 4.08778 -1.26826 0
M  V30 2823 C 258.652 5.31419 -0.591449 0
M  V30 2824 C 259.952 4.51476 -2.62615 0
M  V30 2825 H 261.646 2.43703 -1.73923 0
M  V30 2826 H 259.192 1.17128 -0.837675 0
M  V30 2827 H 261.145 4.2134 -0.0709606 0
M  V30 2828 H 259.869 3.20079 0.649366 0
M  V30 2829 H 258.528 3.35505 -1.47756 0
M  V30 2830 H 258.176 5.01727 0.357633 0
M  V30 2831 H 257.876 5.74341 -1.24123 0
M  V30 2832 H 259.4 6.09433 -0.377355 0
M  V30 2833 H 260.814 5.17999 -2.45663 0
M  V30 2834 H 259.211 5.05277 -3.23752 0
M  V30 2835 H 260.281 3.63962 -3.20406 0
M  V30 2836 N 261.624 0.925811 1.2754 0
M  V30 2837 C 262.571 0.422045 2.26908 0
M  V30 2838 C 263.541 -0.510029 1.58076 0
M  V30 2839 O 264.726 -0.429599 1.85901 0
M  V30 2840 C 261.866 -0.320837 3.43605 0
M  V30 2841 C 260.979 0.64513 4.27156 0
M  V30 2842 C 260.114 -0.117405 5.3107 0
M  V30 2843 C 259.153 0.841391 6.0629 0
M  V30 2844 N 258.29 0.111604 7.02011 0
M  V30 2845 H 263.13 1.27441 2.69375 0
M  V30 2846 H 260.667 0.639697 1.32462 0
M  V30 2847 H 262.625 -0.76785 4.10073 0
M  V30 2848 H 261.255 -1.13745 3.02096 0
M  V30 2849 H 260.307 1.21067 3.6062 0
M  V30 2850 H 261.619 1.37797 4.79389 0
M  V30 2851 H 260.773 -0.624422 6.03478 0
M  V30 2852 H 259.512 -0.883219 4.79636 0
M  V30 2853 H 258.517 1.35967 5.32722 0
M  V30 2854 H 259.742 1.60696 6.59813 0
M  V30 2855 H 257.688 -0.635999 6.5291 0
M  V30 2856 H 257.605 0.784044 7.51923 0
M  V30 2857 H 258.873 -0.374823 7.78598 0
M  V30 2858 N 263.102 -1.41638 0.69111 0
M  V30 2859 C 264.032 -2.3347 0.037248 0
M  V30 2860 C 265.013 -1.51575 -0.771947 0
M  V30 2861 O 266.198 -1.80126 -0.72582 0
M  V30 2862 C 263.328 -3.35354 -0.903064 0
M  V30 2863 C 262.282 -4.27526 -0.201288 0
M  V30 2864 C 261.608 -5.19747 -1.25565 0
M  V30 2865 C 262.908 -5.13959 0.929689 0
M  V30 2866 H 264.602 -2.88397 0.804227 0
M  V30 2867 H 262.148 -1.38669 0.388189 0
M  V30 2868 H 264.101 -3.98519 -1.36969 0
M  V30 2869 H 262.825 -2.78767 -1.70166 0
M  V30 2870 H 261.484 -3.65779 0.245265 0
M  V30 2871 H 261.132 -4.59479 -2.04666 0
M  V30 2872 H 260.832 -5.8225 -0.791128 0
M  V30 2873 H 262.356 -5.85789 -1.72288 0
M  V30 2874 H 263.77 -5.70718 0.543546 0
M  V30 2875 H 262.167 -5.85379 1.32103 0
M  V30 2876 H 263.237 -4.51389 1.77133 0
M  V30 2877 N 264.58 -0.43555 -1.51462 0
M  V30 2878 C 265.828 0.131254 -2.01673 0
M  V30 2879 C 266.149 1.43368 -1.32177 0
M  V30 2880 O 265.419 1.90524 -0.455769 0
M  V30 2881 H 263.999 0.0514954 -0.745223 0
M  V30 2882 H 266.661 -0.577847 -1.86137 0
M  V30 2883 H 265.757 0.308446 -3.10572 0
M  V30 2884 N 266.058 1.56714 -0.166846 0
M  V30 2885 C 267.006 2.19056 0.782123 0
M  V30 2886 C 268 1.15328 1.24079 0
M  V30 2887 O 269.206 1.33537 1.20697 0
M  V30 2888 H 265.581 0.70167 0.270486 0
M  V30 2889 H 267.552 2.97494 0.232322 0
M  V30 2890 C 266.301 2.84206 2.00306 0
M  V30 2891 H 265.624 3.63748 1.65914 0
M  V30 2892 H 267.064 3.31302 2.64604 0
M  V30 2893 C 265.523 1.83744 2.82382 0
M  V30 2894 O 266.053 1.32014 3.79388 0
M  V30 2895 N 264.259 1.52601 2.47308 0
M  V30 2896 H 263.806 1.9486 1.68485 0
M  V30 2897 H 263.764 0.856351 3.02513 0
M  V30 2898 N 267.536 -0.106894 1.57237 0
M  V30 2899 C 268.466 -1.13148 2.04254 0
M  V30 2900 C 269.447 -1.42476 0.929224 0
M  V30 2901 O 270.632 -1.52709 1.19973 0
M  V30 2902 C 267.762 -2.4545 2.45706 0
M  V30 2903 C 266.716 -2.30558 3.60592 0
M  V30 2904 C 266.042 -3.67931 3.87983 0
M  V30 2905 C 267.342 -1.75597 4.91897 0
M  V30 2906 H 269.036 -0.740374 2.90101 0
M  V30 2907 H 266.582 -0.354696 1.39563 0
M  V30 2908 H 268.535 -3.17389 2.77205 0
M  V30 2909 H 267.259 -2.86475 1.56843 0
M  V30 2910 H 265.918 -1.61067 3.29322 0
M  V30 2911 H 265.566 -4.06462 2.96306 0
M  V30 2912 H 265.266 -3.58817 4.65322 0
M  V30 2913 H 266.79 -4.41356 4.21945 0
M  V30 2914 H 268.204 -2.37364 5.21854 0
M  V30 2915 H 266.601 -1.77272 5.73319 0
M  V30 2916 H 267.671 -0.714451 4.79608 0
M  V30 2917 N 269.014 -1.53014 -0.377408 0
M  V30 2918 C 270.261 -1.68623 -1.12128 0
M  V30 2919 C 270.589 -0.431997 -1.89642 0
M  V30 2920 O 269.844 0.585855 -1.86725 0
M  V30 2921 C 270.143 -2.87982 -2.11663 0
M  V30 2922 C 269.809 -4.24964 -1.50719 0
M  V30 2923 C 268.471 -4.62217 -1.33825 0
M  V30 2924 C 270.823 -5.10199 -1.06519 0
M  V30 2925 C 268.151 -5.82352 -0.712963 0
M  V30 2926 C 270.503 -6.30969 -0.453955 0
M  V30 2927 C 269.167 -6.66944 -0.272411 0
M  V30 2928 H 268.437 -0.617034 -0.410305 0
M  V30 2929 H 271.084 -1.8718 -0.404484 0
M  V30 2930 H 269.389 -2.63889 -2.89603 0
M  V30 2931 H 271.086 -2.97253 -2.6915 0
M  V30 2932 H 267.676 -3.95626 -1.64858 0
M  V30 2933 H 271.86 -4.81978 -1.18368 0
M  V30 2934 H 267.116 -6.08824 -0.560611 0
M  V30 2935 H 271.29 -6.96324 -0.103217 0
M  V30 2936 H 268.917 -7.59898 0.214181 0
M  V30 2937 N 270.492 0.636531 -1.44174 0
M  V30 2938 C 271.422 1.76003 -1.53444 0
M  V30 2939 C 272.403 1.65619 -0.387841 0
M  V30 2940 O 273.588 1.84461 -0.607257 0
M  V30 2941 C 270.718 3.14511 -1.4731 0
M  V30 2942 C 269.672 3.39677 -2.60391 0
M  V30 2943 C 268.998 4.78159 -2.39308 0
M  V30 2944 C 270.298 3.32772 -4.02567 0
M  V30 2945 H 271.992 1.68501 -2.47483 0
M  V30 2946 H 269.538 0.809237 -1.19111 0
M  V30 2947 H 271.491 3.92878 -1.52397 0
M  V30 2948 H 270.215 3.22783 -0.49785 0
M  V30 2949 H 268.874 2.63688 -2.54684 0
M  V30 2950 H 268.522 4.83128 -1.39988 0
M  V30 2951 H 268.222 4.95956 -3.15122 0
M  V30 2952 H 269.746 5.58762 -2.46205 0
M  V30 2953 H 271.16 4.01051 -4.09672 0
M  V30 2954 H 269.557 3.62104 -4.7854 0
M  V30 2955 H 270.627 2.30669 -4.2652 0
M  V30 2956 N 271.97 1.30982 0.876444 0
M  V30 2957 C 272.918 1.18006 2.00443 0
M  V30 2958 C 273.912 0.0898871 1.69161 0
M  V30 2959 O 275.118 0.251333 1.78237 0
M  V30 2960 H 271.493 0.365196 0.65737 0
M  V30 2961 H 273.464 2.13453 2.0852 0
M  V30 2962 C 272.213 0.897521 3.35916 0
M  V30 2963 H 271.536 1.7285 3.60504 0
M  V30 2964 H 272.976 0.846874 4.15456 0
M  V30 2965 C 271.435 -0.399674 3.34521 0
M  V30 2966 O 271.965 -1.41852 3.7582 0
M  V30 2967 N 270.171 -0.413893 2.87637 0
M  V30 2968 H 269.718 0.41571 2.54224 0
M  V30 2969 H 269.676 -1.28175 2.87086 0
M  V30 2970 N 273.449 -1.08991 1.13837 0
M  V30 2971 C 274.359 -2.19301 0.833333 0
M  V30 2972 C 275.375 -1.73026 -0.183847 0
M  V30 2973 O 276.551 -2.01395 -0.0138092 0
M  V30 2974 C 273.616 -3.45323 0.308651 0
M  V30 2975 C 272.677 -4.06255 1.38764 0
M  V30 2976 C 271.91 -5.26262 0.887896 0
M  V30 2977 O 272.133 -5.69747 -0.27287 0
M  V30 2978 O 271.067 -5.78435 1.66421 0
M  V30 2979 H 274.893 -2.47854 1.75506 0
M  V30 2980 H 272.478 -1.18012 0.916166 0
M  V30 2981 H 274.36 -4.21394 0.0216739 0
M  V30 2982 H 273.035 -3.18362 -0.585431 0
M  V30 2983 H 271.942 -3.318 1.72799 0
M  V30 2984 H 273.275 -4.37452 2.25602 0
M  V30 2985 N 274.927 -0.932562 -1.27047 0
M  V30 2986 C 276.204 -0.49377 -1.89265 0
M  V30 2987 C 276.584 1.02833 -1.8436 0
M  V30 2988 O 275.932 1.88461 -1.29209 0
M  V30 2989 C 276.142 -1.04536 -3.32976 0
M  V30 2990 C 277.49 -1.10879 -4.09867 0
M  V30 2991 O 278.514 -0.995327 -3.42011 0
M  V30 2992 O 277.373 -1.28417 -5.31198 0
M  V30 2993 H 274.467 -0.159596 -0.811454 0
M  V30 2994 H 277.013 -1.02457 -1.3528 0
M  V30 2995 H 275.785 -2.08913 -3.30864 0
M  V30 2996 H 275.408 -0.496494 -3.94488 0
M  V30 2997 N 276.405 1.4127 -0.698611 0
M  V30 2998 C 277.335 2.33447 -0.049629 0
M  V30 2999 C 278.316 1.51982 0.763898 0
M  V30 3000 O 279.501 1.80509 0.716257 0
M  V30 3001 C 276.631 3.35828 0.885267 0
M  V30 3002 C 275.585 4.27627 0.178613 0
M  V30 3003 C 274.911 5.20406 1.22807 0
M  V30 3004 C 276.211 5.13459 -0.956933 0
M  V30 3005 H 277.905 2.87966 -0.81951 0
M  V30 3006 H 275.451 1.38461 -0.395538 0
M  V30 3007 H 277.404 3.9924 1.34854 0
M  V30 3008 H 276.128 2.79666 1.68685 0
M  V30 3009 H 274.787 3.65643 -0.26466 0
M  V30 3010 H 274.435 4.60558 2.02226 0
M  V30 3011 H 274.135 5.82661 0.760239 0
M  V30 3012 H 275.659 5.86695 1.69179 0
M  V30 3013 H 277.073 5.70421 -0.573805 0
M  V30 3014 H 275.47 5.8467 -1.35205 0
M  V30 3015 H 276.54 4.50443 -1.79524 0
M  V30 3016 N 277.883 0.443576 1.51229 0
M  V30 3017 C 278.793 -0.370721 2.31652 0
M  V30 3018 C 279.809 -1.02186 1.40833 0
M  V30 3019 O 280.985 -1.01586 1.73903 0
M  V30 3020 C 278.05 -1.45376 3.14749 0
M  V30 3021 C 277.111 -0.822099 4.21355 0
M  V30 3022 C 276.344 -1.85353 5.0048 0
M  V30 3023 O 276.567 -3.07656 4.80316 0
M  V30 3024 O 275.501 -1.4406 5.84406 0
M  V30 3025 H 279.327 0.286002 3.0235 0
M  V30 3026 H 276.912 0.20598 1.47973 0
M  V30 3027 H 278.794 -2.08173 3.66391 0
M  V30 3028 H 277.469 -2.09445 2.46809 0
M  V30 3029 H 276.376 -0.155909 3.73775 0
M  V30 3030 H 277.709 -0.224797 4.91686 0
M  V30 3031 N 279.361 -1.56624 0.175154 0
M  V30 3032 C 280.607 -1.9729 -0.469506 0
M  V30 3033 C 280.94 -1.06128 -1.62636 0
M  V30 3034 O 280.215 -0.109183 -1.94193 0
M  V30 3035 C 280.498 -3.47375 -0.948804 0
M  V30 3036 C 280.351 -4.49317 0.208491 0
M  V30 3037 C 281.67 -4.00652 -1.82116 0
M  V30 3038 H 278.789 -0.717317 -0.16919 0
M  V30 3039 H 281.431 -1.88184 0.262062 0
M  V30 3040 H 279.581 -3.55267 -1.57219 0
M  V30 3041 H 281.253 -4.53482 0.845682 0
M  V30 3042 H 279.496 -4.25121 0.863395 0
M  V30 3043 H 280.167 -5.51741 -0.169059 0
M  V30 3044 H 282.643 -3.95416 -1.2956 0
M  V30 3045 H 281.519 -5.06075 -2.12554 0
M  V30 3046 H 281.78 -3.44699 -2.7683 0
M  V30 3047 N 280.839 0.0985539 -1.57292 0
M  V30 3048 C 281.786 1.11981 -2.01814 0
M  V30 3049 C 282.756 1.39999 -0.89384 0
M  V30 3050 O 283.941 1.5152 -1.15958 0
M  V30 3051 C 281.081 2.43577 -2.44467 0
M  V30 3052 C 280.194 2.2232 -3.70402 0
M  V30 3053 C 279.329 3.4729 -4.01949 0
M  V30 3054 C 278.368 3.2128 -5.21005 0
M  V30 3055 N 277.505 4.38507 -5.48321 0
M  V30 3056 H 282.345 0.733149 -2.88841 0
M  V30 3057 H 279.882 0.350482 -1.42864 0
M  V30 3058 H 281.84 3.20373 -2.6724 0
M  V30 3059 H 280.47 2.80097 -1.60455 0
M  V30 3060 H 279.522 1.36343 -3.55126 0
M  V30 3061 H 280.834 1.99089 -4.57345 0
M  V30 3062 H 279.988 4.32495 -4.25479 0
M  V30 3063 H 278.727 3.73572 -3.13521 0
M  V30 3064 H 277.732 2.34468 -4.97298 0
M  V30 3065 H 278.957 2.96348 -6.11028 0
M  V30 3066 H 276.903 4.64871 -4.62851 0
M  V30 3067 H 276.82 4.18455 -6.29628 0
M  V30 3068 H 278.088 5.24787 -5.76385 0
M  V30 3069 N 282.317 1.53212 0.369288 0
M  V30 3070 C 283.566 1.68436 1.10961 0
M  V30 3071 C 283.879 0.440738 1.9057 0
M  V30 3072 O 285.085 0.473446 2.6734 0
M  V30 3073 C 283.541 2.97744 2.0218 0
M  V30 3074 C 283.149 4.29355 1.279 0
M  V30 3075 C 284.893 3.22334 2.76226 0
M  V30 3076 C 282.8 5.49755 2.17999 0
M  V30 3077 H 281.73 0.627568 0.41794 0
M  V30 3078 H 284.381 1.79713 0.370884 0
M  V30 3079 H 282.763 2.8026 2.79768 0
M  V30 3080 H 283.937 4.57458 0.554007 0
M  V30 3081 H 282.252 4.11179 0.657311 0
M  V30 3082 H 284.849 4.09471 3.43857 0
M  V30 3083 H 285.192 2.38238 3.41392 0
M  V30 3084 H 285.725 3.40475 2.05723 0
M  V30 3085 H 282.464 6.36318 1.57417 0
M  V30 3086 H 281.984 5.25937 2.88359 0
M  V30 3087 H 283.663 5.84401 2.77641 0
M  V30 3088 N 283.795 -0.628877 1.44509 0
M  V30 3089 C 285.043 -1.38565 1.4712 0
M  V30 3090 C 285.364 -1.94712 0.105899 0
M  V30 3091 O 284.634 -1.75912 -0.862079 0
M  V30 3092 H 283.214 -0.514333 0.541729 0
M  V30 3093 H 285.876 -0.740018 1.80305 0
M  V30 3094 H 284.972 -2.21583 2.19789 0
M  V30 3095 N 285.273 -1.31445 -0.869486 0
M  V30 3096 C 286.55 -1.11795 -1.60503 0
M  V30 3097 C 286.93 0.327168 -2.08549 0
M  V30 3098 O 286.278 1.32135 -1.8642 0
M  V30 3099 C 286.488 -2.13258 -2.76265 0
M  V30 3100 C 287.836 -2.45805 -3.46215 0
M  V30 3101 O 288.86 -2.11688 -2.86473 0
M  V30 3102 O 287.719 -3.04228 -4.5399 0
M  V30 3103 H 284.813 -0.430421 -0.706163 0
M  V30 3104 H 287.359 -1.42925 -0.914907 0
M  V30 3105 H 286.131 -3.10461 -2.3818 0
M  V30 3106 H 285.754 -1.83035 -3.52964 0
M  V30 3107 N 286.751 1.08385 -1.14413 0
M  V30 3108 C 287.998 1.80776 -0.912482 0
M  V30 3109 C 288.326 1.86236 0.560934 0
M  V30 3110 O 287.581 1.33431 1.43159 0
M  V30 3111 C 287.88 3.26273 -1.45879 0
M  V30 3112 C 287.546 3.4093 -2.95089 0
M  V30 3113 C 286.208 3.44638 -3.35824 0
M  V30 3114 C 288.56 3.44591 -3.91033 0
M  V30 3115 C 285.888 3.49597 -4.71167 0
M  V30 3116 C 288.24 3.51086 -5.26233 0
M  V30 3117 C 286.904 3.53067 -5.6648 0
M  V30 3118 H 286.174 0.661507 -0.333901 0
M  V30 3119 H 288.821 1.27613 -1.42784 0
M  V30 3120 H 287.126 3.82146 -0.864376 0
M  V30 3121 H 288.823 3.80839 -1.2555 0
M  V30 3122 H 285.413 3.38736 -2.62594 0
M  V30 3123 H 289.597 3.40957 -3.60641 0
M  V30 3124 H 284.853 3.49424 -5.0171 0
M  V30 3125 H 289.027 3.52864 -6.00383 0
M  V30 3126 H 286.654 3.56662 -6.71339 0
M  V30 3127 N 288.23 0.939286 1.26551 0
M  V30 3128 C 289.478 0.58469 1.93457 0
M  V30 3129 C 289.799 -0.878774 1.74076 0
M  V30 3130 O 289.069 -1.62421 1.09528 0
M  V30 3131 H 287.649 0.21325 0.715914 0
M  V30 3132 H 290.311 1.1942 1.54029 0
M  V30 3133 H 289.407 0.800849 3.0165 0
M  V30 3134 N 289.708 -1.40897 0.706093 0
M  V30 3135 C 290.638 -2.33418 0.0620085 0
M  V30 3136 C 291.619 -1.52385 -0.755827 0
M  V30 3137 O 292.804 -1.80886 -0.706674 0
M  V30 3138 C 289.934 -3.36293 -0.867445 0
M  V30 3139 C 288.888 -4.27716 -0.155932 0
M  V30 3140 C 288.214 -5.2105 -1.20046 0
M  V30 3141 C 289.514 -5.12944 0.984149 0
M  V30 3142 H 291.208 -2.87527 0.83477 0
M  V30 3143 H 288.754 -1.38249 0.402875 0
M  V30 3144 H 290.707 -3.99949 -1.32735 0
M  V30 3145 H 289.431 -2.80556 -1.67199 0
M  V30 3146 H 288.09 -3.65498 0.284047 0
M  V30 3147 H 287.738 -4.61624 -1.99781 0
M  V30 3148 H 287.438 -5.83056 -0.729328 0
M  V30 3149 H 288.962 -5.87584 -1.66066 0
M  V30 3150 H 290.376 -5.70109 0.604048 0
M  V30 3151 H 288.773 -5.83945 1.38304 0
M  V30 3152 H 289.843 -4.49485 1.81911 0
M  V30 3153 N 291.186 -0.45159 -1.50991 0
M  V30 3154 C 292.149 0.341117 -2.26647 0
M  V30 3155 C 293.149 0.937422 -1.30649 0
M  V30 3156 O 294.339 0.809644 -1.54241 0
M  V30 3157 C 291.471 1.48398 -3.06905 0
M  V30 3158 H 292.664 -0.322117 -2.98165 0
M  V30 3159 H 290.217 -0.205122 -1.54948 0
M  V30 3160 H 290.952 2.18284 -2.39838 0
M  V30 3161 H 290.737 1.06241 -3.77432 0
M  V30 3162 H 292.227 2.04367 -3.64176 0
M  V30 3163 N 292.664 1.56529 -0.183458 0
M  V30 3164 C 293.892 2.01623 0.464285 0
M  V30 3165 C 294.307 1.06366 1.55986 0
M  V30 3166 O 293.664 0.0665398 1.82379 0
M  V30 3167 C 293.715 3.46475 1.03139 0
M  V30 3168 O 293.436 4.38095 -0.0204675 0
M  V30 3169 C 294.937 4.0703 1.75617 0
M  V30 3170 H 292.157 0.660596 0.117704 0
M  V30 3171 H 294.701 2.02451 -0.288751 0
M  V30 3172 H 292.856 3.46383 1.73486 0
M  V30 3173 H 293.27 5.22973 0.399952 0
M  V30 3174 H 294.744 5.10271 2.10542 0
M  V30 3175 H 295.221 3.49819 2.65563 0
M  V30 3176 H 295.827 4.1086 1.09882 0
M  V30 3177 N 294.142 -0.090211 1.57342 0
M  V30 3178 C 295.089 -1.10909 2.02405 0
M  V30 3179 C 296.059 -1.39523 0.901252 0
M  V30 3180 O 297.244 -1.50903 1.1676 0
M  V30 3181 C 294.384 -2.42277 2.45755 0
M  V30 3182 C 293.497 -2.20352 3.71576 0
M  V30 3183 C 292.632 -3.45154 4.03785 0
M  V30 3184 C 291.671 -3.18512 5.22701 0
M  V30 3185 N 290.808 -4.35593 5.50639 0
M  V30 3186 H 295.648 -0.71782 2.89225 0
M  V30 3187 H 293.185 -0.342901 1.43048 0
M  V30 3188 H 295.143 -3.18951 2.68935 0
M  V30 3189 H 293.773 -2.79242 1.61938 0
M  V30 3190 H 292.825 -1.34458 3.55844 0
M  V30 3191 H 294.137 -1.96661 4.58395 0
M  V30 3192 H 293.291 -4.30233 4.27767 0
M  V30 3193 H 292.03 -3.71904 3.15498 0
M  V30 3194 H 291.035 -2.31827 4.98534 0
M  V30 3195 H 292.26 -2.93103 6.12591 0
M  V30 3196 H 290.206 -4.6241 4.6531 0
M  V30 3197 H 290.123 -4.1511 6.31838 0
M  V30 3198 H 291.391 -5.21723 5.7916 0
M  V30 3199 N 295.62 -1.53406 -0.361157 0
M  V30 3200 C 296.866 -1.70054 -1.10496 0
M  V30 3201 C 297.199 -0.453278 -1.88836 0
M  V30 3202 O 296.474 0.5495 -1.86576 0
M  V30 3203 C 296.757 -2.95317 -2.06058 0
M  V30 3204 C 296.61 -4.3021 -1.31298 0
M  V30 3205 C 297.929 -3.16193 -3.06121 0
M  V30 3206 H 295.048 -0.618799 -0.400321 0
M  V30 3207 H 297.69 -1.86052 -0.385318 0
M  V30 3208 H 295.84 -2.81809 -2.67425 0
M  V30 3209 H 297.512 -4.55538 -0.726807 0
M  V30 3210 H 295.755 -4.29421 -0.614853 0
M  V30 3211 H 296.426 -5.14 -2.01265 0
M  V30 3212 H 298.902 -3.28916 -2.5486 0
M  V30 3213 H 297.778 -4.05266 -3.70204 0
M  V30 3214 H 298.039 -2.31676 -3.76535 0
M  V30 3215 N 297.098 0.621204 -1.44841 0
M  V30 3216 C 298.008 1.7612 -1.5498 0
M  V30 3217 C 299.024 1.68477 -0.434927 0
M  V30 3218 O 300.2 1.89076 -0.693693 0
M  V30 3219 C 297.265 3.1254 -1.50065 0
M  V30 3220 C 296.326 3.31741 -2.72482 0
M  V30 3221 C 295.559 4.61653 -2.67792 0
M  V30 3222 O 295.782 5.431 -1.74352 0
M  V30 3223 O 294.716 4.83271 -3.58794 0
M  V30 3224 H 298.542 1.70518 -2.51311 0
M  V30 3225 H 296.127 0.783643 -1.27198 0
M  V30 3226 H 298.009 3.93844 -1.49882 0
M  V30 3227 H 296.684 3.18663 -0.568806 0
M  V30 3228 H 295.591 2.50077 -2.7823 0
M  V30 3229 H 296.924 3.30486 -3.64746 0
M  V30 3230 N 298.576 1.31904 0.862503 0
M  V30 3231 C 299.806 1.24817 1.64634 0
M  V30 3232 C 300.214 -0.187579 1.88268 0
M  V30 3233 O 299.557 -1.13253 1.44635 0
M  V30 3234 C 299.619 1.92996 3.03303 0
M  V30 3235 C 299.283 3.42336 3.02746 0
M  V30 3236 C 300.28 4.37956 2.80162 0
M  V30 3237 C 297.965 3.84147 3.2363 0
M  V30 3238 C 299.959 5.73361 2.78453 0
M  V30 3239 C 297.646 5.19663 3.21549 0
M  V30 3240 C 298.644 6.14081 2.98988 0
M  V30 3241 O 298.332 7.47118 2.96766 0
M  V30 3242 H 298.064 0.432222 0.519769 0
M  V30 3243 H 300.618 1.7445 1.08427 0
M  V30 3244 H 298.848 1.37922 3.61268 0
M  V30 3245 H 300.537 1.79723 3.63943 0
M  V30 3246 H 301.303 4.06981 2.63802 0
M  V30 3247 H 297.182 3.11083 3.40218 0
M  V30 3248 H 300.726 6.4703 2.60763 0
M  V30 3249 H 296.623 5.5027 3.37451 0
M  V30 3250 H 297.391 7.56382 3.12775 0
M  V30 3251 N 300.054 -1.07777 1.14986 0
M  V30 3252 C 301.331 -1.7699 0.832695 0
M  V30 3253 C 301.711 -2.001 -0.672561 0
M  V30 3254 O 301.059 -1.61598 -1.6155 0
M  V30 3255 C 301.269 -3.08139 1.63863 0
M  V30 3256 C 302.617 -3.8256 1.84208 0
M  V30 3257 O 303.641 -3.17939 1.60603 0
M  V30 3258 O 302.5 -4.98612 2.23714 0
M  V30 3259 H 299.594 -0.768389 0.305791 0
M  V30 3260 H 302.14 -1.14182 1.25541 0
M  V30 3261 H 300.912 -2.86909 2.6608 0
M  V30 3262 H 300.535 -3.78678 1.21197 0
M  V30 3263 N 301.532 -0.945985 -1.26051 0
M  V30 3264 C 302.78 -0.594941 -1.93145 0
M  V30 3265 C 303.101 0.86953 -1.7454 0
M  V30 3266 O 302.371 1.61838 -1.10387 0
M  V30 3267 H 300.951 -0.217044 -0.714773 0
M  V30 3268 H 303.613 -1.20235 -1.53393 0
M  V30 3269 H 302.709 -0.816835 -3.01221 0
M  V30 3270 N 303.011 1.40521 -0.713556 0
M  V30 3271 C 303.921 2.34522 -0.0606667 0
M  V30 3272 C 304.937 1.57193 0.74607 0
M  V30 3273 O 306.113 1.89591 0.679493 0
M  V30 3274 C 303.178 3.36081 0.851491 0
M  V30 3275 C 302.239 4.29286 0.0349339 0
M  V30 3276 C 301.472 5.25994 0.903649 0
M  V30 3277 O 301.695 5.28616 2.14292 0
M  V30 3278 O 300.629 6.00918 0.343723 0
M  V30 3279 H 304.455 2.91968 -0.835972 0
M  V30 3280 H 302.04 1.41681 -0.47402 0
M  V30 3281 H 303.922 3.98369 1.37404 0
M  V30 3282 H 302.597 2.81052 1.60598 0
M  V30 3283 H 301.504 3.70289 -0.532633 0
M  V30 3284 H 302.837 4.87462 -0.681287 0
M  V30 3285 N 304.489 0.459591 1.5075 0
M  V30 3286 C 305.905 0.113092 1.59199 0
M  V30 3287 C 306.105 -1.37951 1.46874 0
M  V30 3288 O 305.161 -2.15168 1.32132 0
M  V30 3289 C 306.474 0.653043 2.93523 0
M  V30 3290 C 308.022 0.615449 3.0689 0
M  V30 3291 C 308.497 1.13275 4.43771 0
M  V30 3292 N 309.988 1.09167 4.50152 0
M  V30 3293 C 310.723 1.46256 5.54434 0
M  V30 3294 N 310.219 1.90739 6.66026 0
M  V30 3295 N 312.012 1.37932 5.44914 0
M  V30 3296 H 304.163 1.43049 1.57005 0
M  V30 3297 H 306.426 0.590861 0.741341 0
M  V30 3298 H 306.132 1.69822 3.07983 0
M  V30 3299 H 306.006 0.0902132 3.77092 0
M  V30 3300 H 308.393 -0.420793 2.92084 0
M  V30 3301 H 308.474 1.21495 2.25106 0
M  V30 3302 H 308.118 2.16757 4.59324 0
M  V30 3303 H 308.048 0.509576 5.24129 0
M  V30 3304 H 310.539 0.76528 3.7007 0
M  V30 3305 H 310.852 2.17218 7.41644 0
M  V30 3306 H 309.197 1.94683 6.67176 0
M  V30 3307 H 312.388 1.0303 4.56621 0
M  V30 3308 H 312.561 1.67164 6.26067 0
M  V30 3309 N 305.967 -1.56429 0.191757 0
M  V30 3310 C 306.914 -2.18936 -0.730454 0
M  V30 3311 C 307.884 -1.13557 -1.21219 0
M  V30 3312 O 309.069 -1.41794 -1.27668 0
M  V30 3313 C 306.209 -2.85013 -1.9458 0
M  V30 3314 C 305.322 -4.04909 -1.50574 0
M  V30 3315 C 304.457 -4.58853 -2.67634 0
M  V30 3316 C 303.496 -5.71114 -2.20217 0
M  V30 3317 N 302.633 -6.19478 -3.30442 0
M  V30 3318 H 307.473 -2.97389 -0.190664 0
M  V30 3319 H 305.01 -1.46869 -0.0823694 0
M  V30 3320 H 306.968 -3.21492 -2.65893 0
M  V30 3321 H 305.598 -2.09129 -2.45896 0
M  V30 3322 H 304.65 -3.74115 -0.688605 0
M  V30 3323 H 305.962 -4.86113 -1.11784 0
M  V30 3324 H 305.116 -4.97619 -3.47074 0
M  V30 3325 H 303.855 -3.76749 -3.09696 0
M  V30 3326 H 302.86 -5.31879 -1.3923 0
M  V30 3327 H 304.085 -6.55033 -1.79189 0
M  V30 3328 H 302.031 -5.40297 -3.72041 0
M  V30 3329 H 301.948 -6.95725 -2.9581 0
M  V30 3330 H 303.216 -6.62898 -4.10106 0
M  V30 3331 N 307.445 0.0818655 -1.57387 0
M  V30 3332 C 308.392 1.09834 -2.0299 0
M  V30 3333 C 309.362 1.39043 -0.908639 0
M  V30 3334 O 310.547 1.50282 -1.17559 0
M  V30 3335 C 307.687 2.40971 -2.47037 0
M  V30 3336 C 306.8 2.18379 -3.7274 0
M  V30 3337 C 305.935 3.43008 -4.0561 0
M  V30 3338 C 304.974 3.15736 -5.24383 0
M  V30 3339 N 304.111 4.32667 -5.52941 0
M  V30 3340 H 308.951 0.702472 -2.89602 0
M  V30 3341 H 306.488 0.33531 -1.43227 0
M  V30 3342 H 308.446 3.1752 -2.70623 0
M  V30 3343 H 307.076 2.78379 -1.63417 0
M  V30 3344 H 306.128 1.32569 -3.56552 0
M  V30 3345 H 307.44 1.94227 -4.59431 0
M  V30 3346 H 306.594 4.27958 -4.30043 0
M  V30 3347 H 305.333 3.70225 -3.17466 0
M  V30 3348 H 304.338 2.2918 -4.99757 0
M  V30 3349 H 305.563 2.8985 -6.14136 0
M  V30 3350 H 303.509 4.59935 -4.67756 0
M  V30 3351 H 303.426 4.11753 -6.34031 0
M  V30 3352 H 304.694 5.18644 -5.81918 0
M  V30 3353 N 308.923 1.53595 0.353017 0
M  V30 3354 C 310.151 1.74311 1.1146 0
M  V30 3355 C 310.566 0.477854 1.82653 0
M  V30 3356 O 309.923 -0.549977 1.74016 0
M  V30 3357 C 309.974 2.91694 2.13534 0
M  V30 3358 O 309.695 4.13325 1.45238 0
M  V30 3359 C 311.196 3.24384 3.02142 0
M  V30 3360 H 308.416 0.582669 0.332773 0
M  V30 3361 H 310.96 2.00386 0.408107 0
M  V30 3362 H 309.115 2.67977 2.79763 0
M  V30 3363 H 309.529 4.79148 2.13349 0
M  V30 3364 H 311.003 4.09893 3.69718 0
M  V30 3365 H 311.48 2.40282 3.67643 0
M  V30 3366 H 312.086 3.50073 2.41514 0
M  V30 3367 N 310.401 -0.613514 1.45168 0
M  V30 3368 C 311.331 -1.7354 1.56225 0
M  V30 3369 C 312.312 -1.64981 0.41414 0
M  V30 3370 O 313.497 -1.83472 0.636526 0
M  V30 3371 C 310.627 -3.12128 1.52295 0
M  V30 3372 C 309.581 -3.35491 2.65762 0
M  V30 3373 C 308.907 -4.74291 2.46885 0
M  V30 3374 C 310.207 -3.26325 4.0781 0
M  V30 3375 H 311.901 -1.64543 2.50132 0
M  V30 3376 H 309.447 -0.790185 1.20383 0
M  V30 3377 H 311.4 -3.90404 1.58628 0
M  V30 3378 H 310.124 -3.2195 0.549139 0
M  V30 3379 H 308.783 -2.59603 2.58847 0
M  V30 3380 H 308.431 -4.80839 1.47657 0
M  V30 3381 H 308.131 -4.9088 3.22972 0
M  V30 3382 H 309.655 -5.54775 2.55063 0
M  V30 3383 H 311.069 -3.94483 4.16 0
M  V30 3384 H 309.466 -3.54445 4.8424 0
M  V30 3385 H 310.536 -2.23855 4.30136 0
M  V30 3386 N 311.879 -1.3236 -0.855495 0
M  V30 3387 C 313.119 -1.24187 -1.62348 0
M  V30 3388 C 313.483 0.193597 -1.91021 0
M  V30 3389 O 314.684 0.39904 -2.65822 0
M  V30 3390 C 312.955 -2.07661 -2.90881 0
M  V30 3391 S 314.514 -2.16505 -3.81669 0
M  V30 3392 H 311.332 -0.442076 -0.556857 0
M  V30 3393 H 313.934 -1.67198 -1.01317 0
M  V30 3394 H 312.638 -3.11018 -2.67761 0
M  V30 3395 H 312.169 -1.65425 -3.56929 0
M  V30 3396 H 314.184 -1.31394 -4.78487 0
M  V30 3397 N 313.357 1.07166 -1.15556 0
M  V30 3398 C 314.605 1.79443 -0.929764 0
M  V30 3399 C 314.926 1.87246 0.544414 0
M  V30 3400 O 314.196 1.37473 1.39564 0
M  V30 3401 H 312.776 0.664625 -0.341003 0
M  V30 3402 H 315.438 1.29499 -1.45657 0
M  V30 3403 H 314.534 2.81832 -1.34079 0
M  V30 3404 N 314.835 0.952656 1.25548 0
M  V30 3405 C 316.063 0.623496 1.97282 0
M  V30 3406 C 316.478 -0.803987 1.70826 0
M  V30 3407 O 315.835 -1.53755 0.983147 0
M  V30 3408 C 315.886 0.870209 3.5087 0
M  V30 3409 O 315.607 2.24156 3.76412 0
M  V30 3410 C 317.108 0.553164 4.39835 0
M  V30 3411 H 314.328 0.233931 0.628902 0
M  V30 3412 H 316.872 1.27649 1.59768 0
M  V30 3413 H 315.027 0.263652 3.86502 0
M  V30 3414 H 315.441 2.31021 4.70882 0
M  V30 3415 H 316.915 0.776342 5.46513 0
M  V30 3416 H 317.392 -0.512215 4.36203 0
M  V30 3417 H 317.998 1.13896 4.09766 0
M  V30 3418 N 316.313 -1.40141 0.720998 0
M  V30 3419 C 317.724 -1.83678 0.334553 0
M  V30 3420 C 318.075 -1.6027 -1.13173 0
M  V30 3421 O 317.2 -1.08643 -1.87152 0
M  V30 3422 C 317.795 -3.33437 0.600437 0
M  V30 3423 C 316.354 -3.75447 0.267642 0
M  V30 3424 C 315.501 -2.63296 0.870097 0
M  V30 3425 H 318.452 -1.29331 0.919732 0
M  V30 3426 H 318.473 -3.80269 -0.132517 0
M  V30 3427 H 317.985 -3.50442 1.66768 0
M  V30 3428 H 316.086 -3.64035 -0.794329 0
M  V30 3429 H 316.199 -4.73344 0.74042 0
M  V30 3430 H 314.563 -2.52954 0.297739 0
M  V30 3431 H 315.346 -2.83112 1.94172 0
M  V30 3432 N 317.792 -0.46758 -1.50504 0
M  V30 3433 C 318.74 0.342482 -2.30065 0
M  V30 3434 C 319.734 0.993596 -1.37201 0
M  V30 3435 O 320.94 0.925102 -1.54408 0
M  V30 3436 H 317.315 0.129283 -0.740803 0
M  V30 3437 H 319.286 -0.34899 -2.96352 0
M  V30 3438 C 318.035 1.4139 -3.17654 0
M  V30 3439 H 317.358 0.922264 -3.89017 0
M  V30 3440 H 318.798 1.95335 -3.76325 0
M  V30 3441 C 317.257 2.4139 -2.35016 0
M  V30 3442 O 317.787 3.46586 -2.03079 0
M  V30 3443 N 315.993 2.13021 -1.97662 0
M  V30 3444 H 315.54 1.27499 -2.23834 0
M  V30 3445 H 315.498 2.80164 -1.42673 0
M  V30 3446 N 319.27 1.56325 -0.20005 0
M  V30 3447 C 320.5 2.01811 0.442232 0
M  V30 3448 C 320.908 1.07932 1.55394 0
M  V30 3449 O 320.251 0.0772685 1.83537 0
M  V30 3450 C 320.313 3.43685 1.05457 0
M  V30 3451 C 319.977 4.56928 0.0809833 0
M  V30 3452 C 320.974 5.15009 -0.711471 0
M  V30 3453 C 318.659 5.0229 -0.0315364 0
M  V30 3454 C 320.653 6.16904 -1.60336 0
M  V30 3455 C 318.34 6.04028 -0.926981 0
M  V30 3456 C 319.338 6.6121 -1.71146 0
M  V30 3457 O 319.026 7.60971 -2.59189 0
M  V30 3458 H 318.758 0.666173 0.114848 0
M  V30 3459 H 321.312 2.03085 -0.307511 0
M  V30 3460 H 319.542 3.39413 1.85299 0
M  V30 3461 H 321.231 3.72948 1.60201 0
M  V30 3462 H 321.997 4.80827 -0.634873 0
M  V30 3463 H 317.876 4.57476 0.568902 0
M  V30 3464 H 321.42 6.61464 -2.21611 0
M  V30 3465 H 317.317 6.37634 -1.00468 0
M  V30 3466 H 318.085 7.7841 -2.53023 0
M  V30 3467 N 320.748 -0.0735177 1.57428 0
M  V30 3468 C 321.997 -0.771809 1.86349 0
M  V30 3469 C 322.31 -1.78828 0.792452 0
M  V30 3470 O 323.516 -2.53602 0.96945 0
M  V30 3471 C 321.972 -1.42358 3.30548 0
M  V30 3472 C 321.58 -0.445761 4.45777 0
M  V30 3473 C 323.324 -2.10434 3.6867 0
M  V30 3474 C 321.231 -1.10335 5.81016 0
M  V30 3475 H 320.161 -0.291999 0.695164 0
M  V30 3476 H 322.812 -0.0250749 1.83483 0
M  V30 3477 H 321.194 -2.21852 3.28021 0
M  V30 3478 H 322.368 0.319239 4.59693 0
M  V30 3479 H 320.683 0.130457 4.16196 0
M  V30 3480 H 323.28 -2.60405 4.67004 0
M  V30 3481 H 323.623 -2.90298 2.98383 0
M  V30 3482 H 324.156 -1.37773 3.7318 0
M  V30 3483 H 320.895 -0.345061 6.54591 0
M  V30 3484 H 320.415 -1.83925 5.70904 0
M  V30 3485 H 322.094 -1.62367 6.26295 0
M  V30 3486 N 322.226 -1.5378 -0.344866 0
M  V30 3487 C 323.189 -1.80981 -1.40637 0
M  V30 3488 C 324.189 -0.680816 -1.45676 0
M  V30 3489 O 325.379 -0.949095 -1.46075 0
M  V30 3490 C 322.511 -1.95063 -2.79577 0
M  V30 3491 H 323.704 -2.75803 -1.17783 0
M  V30 3492 H 321.257 -1.45173 -0.579181 0
M  V30 3493 H 321.992 -1.02379 -3.07716 0
M  V30 3494 H 321.777 -2.77198 -2.77315 0
M  V30 3495 H 323.267 -2.17629 -3.56409 0
M  V30 3496 N 323.704 0.605807 -1.45491 0
M  V30 3497 C 325.115 1.18777 -1.44045 0
M  V30 3498 C 325.466 1.95471 -0.169001 0
M  V30 3499 O 324.591 2.0374 0.729324 0
M  V30 3500 C 325.186 2.16064 -2.60963 0
M  V30 3501 C 323.745 2.69633 -2.62631 0
M  V30 3502 C 322.892 1.45072 -2.36325 0
M  V30 3503 H 325.843 0.395017 -1.53705 0
M  V30 3504 H 325.864 2.9913 -2.35163 0
M  V30 3505 H 325.376 1.60217 -3.53486 0
M  V30 3506 H 323.477 3.29414 -1.74119 0
M  V30 3507 H 323.59 3.13944 -3.61906 0
M  V30 3508 H 321.954 1.74089 -1.85917 0
M  V30 3509 H 322.737 0.910899 -3.30995 0
M  V30 3510 N 325.182 1.32811 0.848464 0
M  V30 3511 C 326.092 1.24278 1.98978 0
M  V30 3512 C 327.108 0.155176 1.73307 0
M  V30 3513 O 328.284 0.376999 1.9784 0
M  V30 3514 C 325.349 0.972444 3.32783 0
M  V30 3515 C 324.41 2.14911 3.71634 0
M  V30 3516 C 323.643 1.89157 4.99054 0
M  V30 3517 O 323.866 0.837165 5.64223 0
M  V30 3518 O 322.8 2.75433 5.35183 0
M  V30 3519 H 326.626 2.20238 2.09115 0
M  V30 3520 H 324.211 1.12762 0.980052 0
M  V30 3521 H 326.093 0.838432 4.12975 0
M  V30 3522 H 324.768 0.043051 3.23671 0
M  V30 3523 H 323.675 2.33862 2.91992 0
M  V30 3524 H 325.008 3.06151 3.85399 0
M  V30 3525 N 326.66 -1.06551 1.16123 0
M  V30 3526 C 327.906 -1.79567 0.94252 0
M  V30 3527 C 328.239 -1.86869 -0.528547 0
M  V30 3528 O 327.514 -1.35838 -1.39206 0
M  V30 3529 C 327.797 -3.24195 1.56747 0
M  V30 3530 C 327.65 -3.24989 3.10969 0
M  V30 3531 C 328.969 -4.21678 1.25998 0
M  V30 3532 H 326.088 -0.651883 0.343828 0
M  V30 3533 H 328.73 -1.2463 1.43413 0
M  V30 3534 H 326.88 -3.71107 1.14942 0
M  V30 3535 H 328.552 -2.86258 3.61737 0
M  V30 3536 H 326.795 -2.63716 3.44436 0
M  V30 3537 H 327.466 -4.27005 3.49815 0
M  V30 3538 H 329.942 -3.83196 1.62174 0
M  V30 3539 H 328.818 -5.21146 1.7233 0
M  V30 3540 H 329.079 -4.4174 0.178367 0
M  V30 3541 N 328.138 -0.959301 -1.25041 0
M  V30 3542 C 329.068 -0.501388 -2.28053 0
M  V30 3543 C 330.049 0.454673 -1.63911 0
M  V30 3544 O 331.234 0.352618 -1.90972 0
M  V30 3545 C 328.364 0.217224 -3.4662 0
M  V30 3546 C 327.318 -0.654034 -4.22973 0
M  V30 3547 C 326.644 0.195589 -5.34342 0
M  V30 3548 C 327.944 -1.93447 -4.85155 0
M  V30 3549 H 329.638 -1.36238 -2.66608 0
M  V30 3550 H 327.184 -0.656534 -1.28163 0
M  V30 3551 H 329.137 0.548732 -4.17812 0
M  V30 3552 H 327.861 1.1125 -3.07068 0
M  V30 3553 H 326.52 -0.968693 -3.5357 0
M  V30 3554 H 326.168 1.09076 -4.91031 0
M  V30 3555 H 325.868 -0.384091 -5.86343 0
M  V30 3556 H 327.392 0.521958 -6.08365 0
M  V30 3557 H 328.806 -1.66908 -5.48466 0
M  V30 3558 H 327.203 -2.46018 -5.47353 0
M  V30 3559 H 328.273 -2.63466 -4.07079 0
M  V30 3560 N 329.616 1.39756 -0.72842 0
M  V30 3561 C 330.841 2.05472 -0.282159 0
M  V30 3562 C 331.266 1.54549 1.07221 0
M  V30 3563 O 330.624 0.686372 1.67805 0
M  V30 3564 C 330.672 3.59462 -0.286264 0
M  V30 3565 O 329.776 4.05918 0.728298 0
M  V30 3566 H 329.117 0.651226 -0.129618 0
M  V30 3567 H 331.647 1.78915 -0.992499 0
M  V30 3568 H 331.657 4.07798 -0.128373 0
M  V30 3569 H 330.332 3.95889 -1.27456 0
M  V30 3570 H 328.909 3.69012 0.537081 0
M  V30 3571 N 331.094 0.475555 1.50254 0
M  V30 3572 C 332.041 -0.316293 2.28622 0
M  V30 3573 C 333.011 -0.983227 1.33873 0
M  V30 3574 O 334.196 -0.994805 1.62814 0
M  V30 3575 C 331.336 -1.38975 3.1588 0
M  V30 3576 C 330.449 -0.737146 4.25664 0
M  V30 3577 C 329.584 -1.78887 5.00173 0
M  V30 3578 C 328.623 -1.11676 6.01826 0
M  V30 3579 N 327.76 -2.11154 6.69596 0
M  V30 3580 H 332.6 0.358297 2.95838 0
M  V30 3581 H 330.137 0.188541 1.45887 0
M  V30 3582 H 332.095 -2.02383 3.64825 0
M  V30 3583 H 330.725 -2.03344 2.50701 0
M  V30 3584 H 329.777 0.0096065 3.80399 0
M  V30 3585 H 331.089 -0.206816 4.98371 0
M  V30 3586 H 330.243 -2.49865 5.52859 0
M  V30 3587 H 328.982 -2.35302 4.27182 0
M  V30 3588 H 327.987 -0.392633 5.48396 0
M  V30 3589 H 329.212 -0.55945 6.76792 0
M  V30 3590 H 327.158 -2.66577 5.99394 0
M  V30 3591 H 327.075 -1.63118 7.38193 0
M  V30 3592 H 328.343 -2.81497 7.26897 0
M  V30 3593 N 332.573 -1.56217 0.208337 0
M  V30 3594 C 333.52 -2.19699 -0.707192 0
M  V30 3595 C 334.49 -1.14836 -1.20008 0
M  V30 3596 O 335.675 -1.4314 -1.26157 0
M  V30 3597 C 332.815 -2.87061 -1.91546 0
M  V30 3598 C 331.928 -4.06483 -1.46271 0
M  V30 3599 C 331.063 -4.61665 -2.62752 0
M  V30 3600 C 330.102 -5.73417 -2.14147 0
M  V30 3601 N 329.239 -6.22948 -3.23853 0
M  V30 3602 H 334.079 -2.97575 -0.159111 0
M  V30 3603 H 331.616 -1.46948 -0.0667874 0
M  V30 3604 H 333.574 -3.24294 -2.62468 0
M  V30 3605 H 332.204 -2.11725 -2.43664 0
M  V30 3606 H 331.256 -3.74825 -0.648886 0
M  V30 3607 H 332.568 -4.87271 -1.06622 0
M  V30 3608 H 331.722 -5.01272 -3.41776 0
M  V30 3609 H 330.461 -3.80013 -3.05682 0
M  V30 3610 H 329.466 -5.33326 -1.33581 0
M  V30 3611 H 330.691 -6.56897 -1.72232 0
M  V30 3612 H 328.637 -5.44213 -3.6629 0
M  V30 3613 H 328.554 -6.98823 -2.88414 0
M  V30 3614 H 329.822 -6.6721 -4.03052 0
M  V30 3615 N 334.051 0.0651679 -1.57465 0
M  V30 3616 C 335.299 0.761555 -1.87202 0
M  V30 3617 C 335.62 1.77778 -0.801243 0
M  V30 3618 O 334.89 1.95166 0.16937 0
M  V30 3619 H 333.47 0.284251 -0.690804 0
M  V30 3620 H 336.132 0.0396827 -1.9486 0
M  V30 3621 H 335.228 1.27365 -2.84929 0
M  V30 3622 N 335.529 1.53961 0.336706 0
M  V30 3623 C 336.479 1.7881 1.41461 0
M  V30 3624 C 337.463 0.643561 1.47469 0
M  V30 3625 O 338.655 0.903166 1.52223 0
M  V30 3626 C 335.784 2.00722 2.78506 0
M  V30 3627 C 334.87 3.2126 2.76862 0
M  V30 3628 N 335.261 4.42588 2.44845 0
M  V30 3629 C 333.559 3.22568 3.08004 0
M  V30 3630 C 334.26 5.2447 2.51607 0
M  V30 3631 N 333.236 4.61344 2.87511 0
M  V30 3632 H 337.038 2.70205 1.15615 0
M  V30 3633 H 334.552 1.52978 0.545112 0
M  V30 3634 H 336.549 2.1666 3.5618 0
M  V30 3635 H 335.209 1.10573 3.05293 0
M  V30 3636 H 336.22 4.69819 2.17922 0
M  V30 3637 H 332.897 2.42409 3.39918 0
M  V30 3638 H 334.287 6.31324 2.29955 0
M  V30 3639 N 337.007 -0.598083 1.45811 0
M  V30 3640 C 338.232 -1.3881 1.54099 0
M  V30 3641 C 338.657 -1.8726 0.177578 0
M  V30 3642 O 338.015 -1.6069 -0.839541 0
M  V30 3643 C 338.063 -2.56217 2.53743 0
M  V30 3644 O 337.167 -3.5716 2.06182 0
M  V30 3645 H 336.508 -0.414024 0.519115 0
M  V30 3646 H 339.038 -0.726971 1.91249 0
M  V30 3647 H 339.048 -3.03337 2.72856 0
M  V30 3648 H 337.723 -2.20303 3.5276 0
M  V30 3649 H 336.3 -3.16624 1.96987 0
M  V30 3650 N 338.485 -1.33259 -0.841409 0
M  V30 3651 C 339.732 -1.24572 -1.5965 0
M  V30 3652 C 340.06 0.189137 -1.93578 0
M  V30 3653 O 339.315 1.14566 -1.5866 0
M  V30 3654 C 339.614 -2.06381 -2.9179 0
M  V30 3655 C 339.28 -3.556 -2.77235 0
M  V30 3656 C 337.942 -3.96282 -2.72973 0
M  V30 3657 C 340.294 -4.50433 -2.62221 0
M  V30 3658 C 337.622 -5.30017 -2.51592 0
M  V30 3659 C 339.974 -5.84327 -2.42374 0
M  V30 3660 C 338.638 -6.24194 -2.36512 0
M  V30 3661 H 337.908 -0.455842 -0.5842 0
M  V30 3662 H 340.555 -1.6482 -0.975016 0
M  V30 3663 H 338.86 -1.58903 -3.5813 0
M  V30 3664 H 340.557 -1.97019 -3.49263 0
M  V30 3665 H 337.147 -3.23298 -2.81384 0
M  V30 3666 H 341.331 -4.19914 -2.64549 0
M  V30 3667 H 336.587 -5.59947 -2.45499 0
M  V30 3668 H 340.761 -6.57414 -2.29739 0
M  V30 3669 H 338.388 -7.27759 -2.19706 0
M  V30 3670 N 339.963 1.05934 -1.16686 0
M  V30 3671 C 340.873 2.17014 -0.891183 0
M  V30 3672 C 341.889 1.73453 0.137907 0
M  V30 3673 O 343.065 2.01361 -0.039592 0
M  V30 3674 C 340.13 3.44384 -0.400099 0
M  V30 3675 C 339.191 4.02433 -1.49486 0
M  V30 3676 C 338.424 5.23723 -1.02711 0
M  V30 3677 O 338.647 5.7027 0.121716 0
M  V30 3678 O 337.581 5.7382 -1.81699 0
M  V30 3679 H 341.407 2.43113 -1.82015 0
M  V30 3680 H 338.992 1.15541 -0.947132 0
M  V30 3681 H 340.874 4.21189 -0.133392 0
M  V30 3682 H 339.549 3.19802 0.500817 0
M  V30 3683 H 338.456 3.27102 -1.81535 0
M  V30 3684 H 339.789 4.31317 -2.37121 0
M  V30 3685 N 341.441 0.965919 1.2453 0
M  V30 3686 C 342.687 0.62776 1.92839 0
M  V30 3687 C 343.02 -0.834694 1.75347 0
M  V30 3688 O 342.295 -1.60031 1.10546 0
M  V30 3689 C 342.578 1.00109 3.45905 0
M  V30 3690 C 342.431 2.52011 3.72573 0
M  V30 3691 C 343.75 0.53435 4.36844 0
M  V30 3692 H 340.869 0.229537 0.700344 0
M  V30 3693 H 343.511 1.2046 1.46933 0
M  V30 3694 H 341.661 0.510238 3.85135 0
M  V30 3695 H 343.333 3.08559 3.42912 0
M  V30 3696 H 341.576 2.95287 3.17786 0
M  V30 3697 H 342.247 2.73183 4.79661 0
M  V30 3698 H 344.723 0.955565 4.04979 0
M  V30 3699 H 343.599 0.824152 5.42678 0
M  V30 3700 H 343.86 -0.565589 4.38467 0
M  V30 3701 N 342.919 -1.39368 0.735821 0
M  V30 3702 C 344.196 -1.94465 0.210395 0
M  V30 3703 C 344.576 -1.67254 -1.28799 0
M  V30 3704 O 343.924 -1.00123 -2.05396 0
M  V30 3705 C 344.134 -3.4472 0.544897 0
M  V30 3706 C 345.482 -4.21708 0.494689 0
M  V30 3707 O 346.506 -3.52922 0.482136 0
M  V30 3708 O 345.365 -5.44299 0.489947 0
M  V30 3709 H 342.459 -0.826096 0.0386666 0
M  V30 3710 H 345.005 -1.48863 0.814735 0
M  V30 3711 H 343.777 -3.57963 1.58045 0
M  V30 3712 H 343.4 -3.97502 -0.08837 0
M  V30 3713 N 344.397 -0.483516 -1.5 0
M  V30 3714 C 345.643 0.0672592 -2.02688 0
M  V30 3715 C 345.976 1.38247 -1.36387 0
M  V30 3716 O 345.251 1.88131 -0.493675 0
M  V30 3717 C 345.534 0.238109 -3.59312 0
M  V30 3718 C 345.387 -1.099 -4.36168 0
M  V30 3719 C 346.706 0.986916 -4.28892 0
M  V30 3720 H 343.825 0.0229696 -0.736642 0
M  V30 3721 H 346.467 -0.631527 -1.79197 0
M  V30 3722 H 344.617 0.8333 -3.79458 0
M  V30 3723 H 346.289 -1.73172 -4.27562 0
M  V30 3724 H 344.532 -1.69261 -3.99416 0
M  V30 3725 H 345.203 -0.932954 -5.44059 0
M  V30 3726 H 347.679 0.482302 -4.13295 0
M  V30 3727 H 346.555 1.07527 -5.38265 0
M  V30 3728 H 346.816 2.0265 -3.92919 0
M  V30 3729 N 345.875 1.56104 -0.216619 0
M  V30 3730 C 347.121 1.99219 0.410301 0
M  V30 3731 C 347.476 1.10169 1.57735 0
M  V30 3732 O 346.769 0.150598 1.91007 0
M  V30 3733 C 346.963 3.45923 0.898464 0
M  V30 3734 C 346.792 4.49163 -0.219748 0
M  V30 3735 C 345.562 5.00642 -0.684516 0
M  V30 3736 C 347.76 5.03751 -1.03629 0
M  V30 3737 N 345.742 5.87579 -1.7783 0
M  V30 3738 C 347.113 5.87566 -1.97904 0
M  V30 3739 C 349.168 4.86128 -1.07629 0
M  V30 3740 C 347.871 6.5564 -2.95851 0
M  V30 3741 C 349.897 5.54958 -2.04392 0
M  V30 3742 C 349.259 6.38536 -2.97407 0
M  V30 3743 H 345.358 0.773206 0.11695 0
M  V30 3744 H 347.942 1.9193 -0.327258 0
M  V30 3745 H 346.113 3.53669 1.6054 0
M  V30 3746 H 347.845 3.75963 1.49779 0
M  V30 3747 H 344.6 4.72807 -0.27399 0
M  V30 3748 H 345.024 6.3575 -2.32705 0
M  V30 3749 H 349.666 4.21168 -0.371099 0
M  V30 3750 H 347.384 7.19785 -3.67335 0
M  V30 3751 H 350.97 5.43289 -2.08154 0
M  V30 3752 H 349.85 6.90858 -3.71059 0
M  V30 3753 N 347.353 -0.0568162 1.57498 0
M  V30 3754 C 348.578 -0.769402 1.92601 0
M  V30 3755 C 349.003 -1.69559 0.814336 0
M  V30 3756 O 348.361 -1.79811 -0.231903 0
M  V30 3757 C 348.409 -1.52634 3.26704 0
M  V30 3758 O 347.513 -2.63797 3.16994 0
M  V30 3759 H 346.854 -0.208909 0.63028 0
M  V30 3760 H 349.384 -0.0205798 2.0459 0
M  V30 3761 H 349.394 -1.90234 3.60936 0
M  V30 3762 H 348.069 -0.846875 4.07186 0
M  V30 3763 H 346.646 -2.28943 2.94346 0
M  V30 3764 N 348.832 -1.54138 -0.328536 0
M  V30 3765 C 350.081 -1.71318 -1.06456 0
M  V30 3766 C 350.394 -0.491109 -1.89334 0
M  V30 3767 O 351.6 -0.54416 -2.65991 0
M  V30 3768 C 350.056 -3.03 -1.94214 0
M  V30 3769 C 349.664 -4.32595 -1.16471 0
M  V30 3770 C 351.408 -3.29544 -2.67583 0
M  V30 3771 C 349.315 -5.55341 -2.03347 0
M  V30 3772 H 348.245 -0.638429 -0.401155 0
M  V30 3773 H 350.896 -1.80633 -0.323106 0
M  V30 3774 H 349.278 -2.87579 -2.72239 0
M  V30 3775 H 350.452 -4.58766 -0.432525 0
M  V30 3776 H 348.767 -4.12777 -0.548063 0
M  V30 3777 H 351.364 -4.18444 -3.3288 0
M  V30 3778 H 351.707 -2.47206 -3.34955 0
M  V30 3779 H 352.24 -3.45809 -1.96623 0
M  V30 3780 H 348.979 -6.40268 -1.40491 0
M  V30 3781 H 348.499 -5.33397 -2.74313 0
M  V30 3782 H 350.178 -5.91557 -2.62049 0
M  V30 3783 N 350.31 0.590341 -1.46126 0
M  V30 3784 C 351.558 1.34616 -1.50742 0
M  V30 3785 C 351.879 1.94363 -0.157486 0
M  V30 3786 O 351.149 1.78136 0.815136 0
M  V30 3787 H 349.729 0.499789 -0.555175 0
M  V30 3788 H 352.391 0.691953 -1.82203 0
M  V30 3789 H 351.487 2.15678 -2.25587 0
M  V30 3790 N 351.788 1.33704 0.83433 0
M  V30 3791 C 353.028 1.26754 1.60352 0
M  V30 3792 C 353.392 -0.163182 1.91305 0
M  V30 3793 O 354.593 -0.3567 2.66423 0
M  V30 3794 C 352.864 2.12262 2.8754 0
M  V30 3795 S 354.423 2.22549 3.78176 0
M  V30 3796 H 351.241 0.450879 0.549753 0
M  V30 3797 H 353.843 1.68788 0.986444 0
M  V30 3798 H 352.547 3.15238 2.62779 0
M  V30 3799 H 352.078 1.71082 3.54252 0
M  V30 3800 H 354.093 1.3899 4.76336 0
M  V30 3801 N 353.266 -1.05314 1.17247 0
M  V30 3802 C 354.515 -1.77685 0.954521 0
M  V30 3803 C 354.828 -1.88616 -0.518025 0
M  V30 3804 O 356.034 -2.57714 -0.854144 0
M  V30 3805 C 354.49 -3.19402 1.65863 0
M  V30 3806 C 354.098 -3.16605 3.16963 0
M  V30 3807 C 355.842 -3.96237 1.52303 0
M  V30 3808 C 353.749 -4.53103 3.80068 0
M  V30 3809 H 352.679 -0.666 0.353496 0
M  V30 3810 H 355.33 -1.1805 1.40486 0
M  V30 3811 H 353.712 -3.79355 1.13602 0
M  V30 3812 H 354.886 -2.66176 3.76148 0
M  V30 3813 H 353.201 -2.53268 3.30521 0
M  V30 3814 H 355.798 -4.97157 1.96822 0
M  V30 3815 H 356.141 -4.136 0.473401 0
M  V30 3816 H 356.674 -3.42829 2.01775 0
M  V30 3817 H 353.413 -4.40946 4.85023 0
M  V30 3818 H 352.933 -5.03686 3.2567 0
M  V30 3819 H 354.612 -5.22045 3.82202 0
M  V30 3820 N 354.744 -0.972509 -1.24016 0
M  V30 3821 C 355.677 -0.45117 -2.23696 0
M  V30 3822 C 356.655 0.477378 -1.55434 0
M  V30 3823 O 357.839 0.407647 -1.84039 0
M  V30 3824 C 354.966 0.34818 -3.36906 0
M  V30 3825 C 354.012 -0.523355 -4.23277 0
M  V30 3826 S 354.845 -1.96647 -4.98087 0
M  V30 3827 C 356.001 -1.17604 -6.14752 0
M  V30 3828 H 356.234 -1.29588 -2.67571 0
M  V30 3829 H 353.767 -0.777903 -1.33372 0
M  V30 3830 H 355.725 0.803387 -4.02562 0
M  V30 3831 H 354.386 1.16792 -2.91579 0
M  V30 3832 H 353.579 0.0906181 -5.03919 0
M  V30 3833 H 353.181 -0.914485 -3.62647 0
M  V30 3834 H 355.473 -0.433434 -6.76112 0
M  V30 3835 H 356.416 -1.95701 -6.8052 0
M  V30 3836 H 356.824 -0.698295 -5.60164 0
M  V30 3837 N 356.222 1.38976 -0.743202 0
M  V30 3838 C 357.452 2.04339 -0.304807 0
M  V30 3839 C 357.86 1.56162 1.06819 0
M  V30 3840 O 357.203 0.725284 1.68776 0
M  V30 3841 C 357.265 3.58716 -0.237369 0
M  V30 3842 C 356.929 4.29905 -1.55018 0
M  V30 3843 C 357.926 4.55987 -2.49744 0
M  V30 3844 C 355.611 4.68294 -1.81675 0
M  V30 3845 C 357.605 5.19478 -3.69353 0
M  V30 3846 C 355.292 5.31512 -3.0156 0
M  V30 3847 C 356.29 5.57037 -3.9522 0
M  V30 3848 O 355.978 6.18941 -5.12998 0
M  V30 3849 H 355.71 0.663439 -0.12971 0
M  V30 3850 H 358.264 1.78852 -1.01001 0
M  V30 3851 H 356.494 3.83133 0.524003 0
M  V30 3852 H 358.183 4.05543 0.170121 0
M  V30 3853 H 358.949 4.26767 -2.30423 0
M  V30 3854 H 354.828 4.47779 -1.09615 0
M  V30 3855 H 358.372 5.39318 -4.42473 0
M  V30 3856 H 354.269 5.60153 -3.20778 0
M  V30 3857 H 355.037 6.37433 -5.13441 0
M  V30 3858 N 357.7 0.491464 1.49741 0
M  V30 3859 C 358.928 -0.0535151 2.06831 0
M  V30 3860 C 359.343 -1.31683 1.35296 0
M  V30 3861 O 358.7 -1.77402 0.42836 0
M  V30 3862 C 358.751 -0.320835 3.60073 0
M  V30 3863 O 358.472 0.892394 4.28915 0
M  V30 3864 C 359.973 -0.910519 4.33848 0
M  V30 3865 H 357.193 0.0161909 0.670805 0
M  V30 3866 H 359.737 0.68609 1.92647 0
M  V30 3867 H 357.892 -1.0104 3.73991 0
M  V30 3868 H 358.306 0.649401 5.20464 0
M  V30 3869 H 359.78 -1.04721 5.41976 0
M  V30 3870 H 360.257 -1.90589 3.95692 0
M  V30 3871 H 360.863 -0.258712 4.24512 0
M  V30 3872 N 359.178 -1.55987 0.224894 0
M  V30 3873 C 360.108 -2.23426 -0.678457 0
M  V30 3874 C 361.089 -1.20709 -1.19847 0
M  V30 3875 O 362.274 -1.49304 -1.24186 0
M  V30 3876 C 359.404 -2.91676 -1.88527 0
M  V30 3877 C 358.358 -4.00893 -1.49896 0
M  V30 3878 C 357.684 -4.56455 -2.78483 0
M  V30 3879 C 358.984 -5.17769 -0.686461 0
M  V30 3880 H 360.678 -2.99175 -0.116173 0
M  V30 3881 H 358.224 -1.43897 -0.054436 0
M  V30 3882 H 360.177 -3.37547 -2.5227 0
M  V30 3883 H 358.901 -2.1338 -2.47258 0
M  V30 3884 H 357.56 -3.55758 -0.884985 0
M  V30 3885 H 357.208 -3.74886 -3.35365 0
M  V30 3886 H 356.908 -5.30169 -2.53368 0
M  V30 3887 H 358.432 -5.05047 -3.43162 0
M  V30 3888 H 359.846 -5.60001 -1.22767 0
M  V30 3889 H 358.243 -5.97735 -0.532259 0
M  V30 3890 H 359.313 -4.83932 0.306196 0
M  V30 3891 N 360.656 0.0484629 -1.57525 0
M  V30 3892 C 361.586 1.0549 -2.08313 0
M  V30 3893 C 362.567 1.38929 -0.981463 0
M  V30 3894 O 363.752 1.48151 -1.25558 0
M  V30 3895 C 360.882 2.36162 -2.54646 0
M  V30 3896 C 359.836 2.17016 -3.68901 0
M  V30 3897 C 359.162 3.53278 -4.01371 0
M  V30 3898 C 360.462 1.57219 -4.98076 0
M  V30 3899 H 362.156 0.632195 -2.92649 0
M  V30 3900 H 359.702 0.302654 -1.40784 0
M  V30 3901 H 361.655 3.06882 -2.88793 0
M  V30 3902 H 360.379 2.80456 -1.67368 0
M  V30 3903 H 359.038 1.48733 -3.35073 0
M  V30 3904 H 358.686 3.95185 -3.11188 0
M  V30 3905 H 358.386 3.41299 -4.78318 0
M  V30 3906 H 359.91 4.25391 -4.38035 0
M  V30 3907 H 361.324 2.17832 -5.30304 0
M  V30 3908 H 359.721 1.55871 -5.79503 0
M  V30 3909 H 360.791 0.535956 -4.81929 0
M  V30 3910 N 362.134 1.5431 0.320358 0
M  V30 3911 C 363.38 1.72924 1.05949 0
M  V30 3912 C 363.713 0.503185 1.87568 0
M  V30 3913 O 362.988 -0.499839 1.87968 0
M  V30 3914 C 363.271 3.00676 1.98156 0
M  V30 3915 C 363.124 4.3354 1.19845 0
M  V30 3916 C 364.443 3.24198 2.9763 0
M  V30 3917 H 361.562 0.629195 0.383774 0
M  V30 3918 H 364.204 1.87008 0.335854 0
M  V30 3919 H 362.354 2.888 2.59859 0
M  V30 3920 H 364.026 4.57305 0.605773 0
M  V30 3921 H 362.269 4.309 0.500784 0
M  V30 3922 H 362.94 5.19156 1.87567 0
M  V30 3923 H 365.416 3.35557 2.4605 0
M  V30 3924 H 364.292 4.14938 3.59329 0
M  V30 3925 H 364.553 2.41577 3.7026 0
M  V30 3926 N 363.613 -0.582584 1.46437 0
M  V30 3927 C 364.861 -1.33814 1.51453 0
M  V30 3928 C 365.182 -1.94277 0.167792 0
M  V30 3929 O 364.452 -1.78566 -0.805677 0
M  V30 3930 H 363.032 -0.496838 0.557818 0
M  V30 3931 H 365.694 -0.682281 1.82568 0
M  V30 3932 H 364.79 -2.14479 2.26728 0
M  V30 3933 N 365.091 -1.34144 -0.827227 0
M  V30 3934 C 366.038 -1.25364 -1.93785 0
M  V30 3935 C 367.008 -0.129774 -1.65592 0
M  V30 3936 O 368.193 -0.310024 -1.88264 0
M  V30 3937 C 365.333 -1.01064 -3.2997 0
M  V30 3938 C 364.446 -2.22185 -3.70484 0
M  V30 3939 C 363.581 -1.91203 -4.95595 0
M  V30 3940 C 362.62 -3.08491 -5.28677 0
M  V30 3941 N 361.757 -2.77421 -6.44967 0
M  V30 3942 H 366.597 -2.20347 -2.00627 0
M  V30 3943 H 364.134 -1.09558 -0.981608 0
M  V30 3944 H 366.092 -0.850139 -4.08446 0
M  V30 3945 H 364.722 -0.0975026 -3.22653 0
M  V30 3946 H 363.774 -2.4917 -2.87434 0
M  V30 3947 H 365.086 -3.0983 -3.90905 0
M  V30 3948 H 364.24 -1.71864 -5.81848 0
M  V30 3949 H 362.979 -1.00812 -4.77167 0
M  V30 3950 H 361.984 -3.28431 -4.40923 0
M  V30 3951 H 363.209 -3.99655 -5.49047 0
M  V30 3952 H 361.155 -1.89601 -6.28003 0
M  V30 3953 H 361.072 -3.58598 -6.6554 0
M  V30 3954 H 362.34 -2.61577 -7.34301 0
M  V30 3955 N 366.569 1.04691 -1.17803 0
M  V30 3956 C 367.98 1.59238 -0.974689 0
M  V30 3957 C 368.331 1.90306 0.477292 0
M  V30 3958 O 367.456 1.68846 1.35352 0
M  V30 3959 C 368.051 2.89318 -1.76296 0
M  V30 3960 C 366.61 3.40506 -1.60414 0
M  V30 3961 C 365.757 2.14172 -1.76141 0
M  V30 3962 H 368.708 0.874395 -1.32439 0
M  V30 3963 H 368.729 3.5944 -1.24833 0
M  V30 3964 H 368.241 2.66675 -2.81968 0
M  V30 3965 H 366.342 3.68175 -0.572519 0
M  V30 3966 H 366.455 4.14753 -2.39827 0
M  V30 3967 H 364.819 2.25176 -1.19028 0
M  V30 3968 H 365.602 1.93992 -2.83235 0
M  V30 3969 N 368.047 0.979072 1.23499 0
M  V30 3970 C 369.458 0.684391 1.73704 0
M  V30 3971 C 369.809 -0.799448 1.79174 0
M  V30 3972 O 368.934 -1.62531 1.42873 0
M  V30 3973 C 369.529 1.23564 3.15464 0
M  V30 3974 C 368.088 0.99063 3.6313 0
M  V30 3975 C 367.235 1.36416 2.41425 0
M  V30 3976 H 370.186 1.15307 1.09041 0
M  V30 3977 H 370.207 0.607417 3.7562 0
M  V30 3978 H 369.719 2.31561 3.1145 0
M  V30 3979 H 367.82 -0.0733136 3.72528 0
M  V30 3980 H 367.933 1.64427 4.5 0
M  V30 3981 H 366.297 0.782616 2.42378 0
M  V30 3982 H 367.08 2.45387 2.40083 0
M  V30 3983 N 369.525 -1.3858 0.750561 0
M  V30 3984 C 370.772 -2.00184 0.305373 0
M  V30 3985 C 371.1 -1.59575 -1.11203 0
M  V30 3986 O 370.355 -0.823236 -1.77542 0
M  V30 3987 C 370.654 -3.55455 0.372373 0
M  V30 3988 C 370.32 -4.15765 1.745 0
M  V30 3989 C 368.982 -4.31951 2.12065 0
M  V30 3990 C 371.334 -4.49067 2.64553 0
M  V30 3991 C 368.662 -4.78734 3.39162 0
M  V30 3992 C 371.014 -4.97265 3.91038 0
M  V30 3993 C 369.678 -5.11658 4.28676 0
M  V30 3994 H 368.948 -0.732526 0.111744 0
M  V30 3995 H 371.595 -1.65673 0.960451 0
M  V30 3996 H 369.9 -3.90084 -0.366272 0
M  V30 3997 H 371.597 -4.00999 0.00953918 0
M  V30 3998 H 368.187 -4.03579 1.44297 0
M  V30 3999 H 372.371 -4.36166 2.36796 0
M  V30 4000 H 367.627 -4.88062 3.68246 0
M  V30 4001 H 371.801 -5.22003 4.60962 0
M  V30 4002 H 369.428 -5.47668 5.27222 0
M  V30 4003 N 371.003 -0.499398 -1.49478 0
M  V30 4004 C 371.913 0.284489 -2.32869 0
M  V30 4005 C 372.929 0.968885 -1.44529 0
M  V30 4006 O 374.105 0.95062 -1.77553 0
M  V30 4007 C 371.17 1.33594 -3.19928 0
M  V30 4008 C 370.231 0.665149 -4.24116 0
M  V30 4009 C 369.464 1.6665 -5.07014 0
M  V30 4010 O 369.687 2.89618 -4.91404 0
M  V30 4011 O 368.621 1.22271 -5.8935 0
M  V30 4012 H 372.447 -0.39802 -3.01081 0
M  V30 4013 H 370.032 -0.260758 -1.47107 0
M  V30 4014 H 371.914 1.94431 -3.73864 0
M  V30 4015 H 370.589 2.0014 -2.54412 0
M  V30 4016 H 369.496 0.0170769 -3.74096 0
M  V30 4017 H 370.829 0.0421555 -4.92182 0
M  V30 4018 N 372.481 1.55866 -0.233164 0
M  V30 4019 C 373.709 2.02998 0.399905 0
M  V30 4020 C 374.124 1.11274 1.52524 0
M  V30 4021 O 373.481 0.124528 1.82075 0
M  V30 4022 C 373.532 3.4958 0.920639 0
M  V30 4023 O 373.253 4.37808 -0.159834 0
M  V30 4024 C 374.754 4.12411 1.62578 0
M  V30 4025 H 371.974 0.664006 0.0966281 0
M  V30 4026 H 374.518 2.0143 -0.353013 0
M  V30 4027 H 372.673 3.51727 1.62379 0
M  V30 4028 H 373.087 5.23981 0.23337 0
M  V30 4029 H 374.561 5.16711 1.94201 0
M  V30 4030 H 375.038 3.5809 2.54299 0
M  V30 4031 H 375.644 4.14148 0.967553 0
M  V30 4032 N 373.959 -0.0401083 1.57549 0
M  V30 4033 C 375.184 -0.748931 1.93406 0
M  V30 4034 C 375.609 -1.68686 0.832274 0
M  V30 4035 O 374.967 -1.80047 -0.212818 0
M  V30 4036 C 375.015 -1.4916 3.28304 0
M  V30 4037 O 374.119 -2.6042 3.19774 0
M  V30 4038 H 373.46 -0.202212 0.63246 0
M  V30 4039 H 375.99 0.00112086 2.046 0
M  V30 4040 H 376 -1.86395 3.62934 0
M  V30 4041 H 374.675 -0.80364 4.08062 0
M  V30 4042 H 373.252 -2.25808 2.96758 0
M  V30 4043 N 375.437 -1.54477 -0.31217 0
M  V30 4044 C 376.677 -1.74958 -1.05684 0
M  V30 4045 C 377.041 -0.518414 -1.84869 0
M  V30 4046 O 378.242 -0.600759 -2.62001 0
M  V30 4047 C 376.513 -2.99656 -1.94785 0
M  V30 4048 S 378.072 -3.4109 -2.76049 0
M  V30 4049 H 374.89 -0.615104 -0.356606 0
M  V30 4050 H 377.492 -1.92669 -0.331514 0
M  V30 4051 H 376.196 -3.87397 -1.35468 0
M  V30 4052 H 375.727 -2.845 -2.71704 0
M  V30 4053 H 377.742 -2.97283 -3.97287 0
M  V30 4054 N 376.915 0.57481 -1.46744 0
M  V30 4055 C 377.845 1.69337 -1.60771 0
M  V30 4056 C 378.826 1.63825 -0.457736 0
M  V30 4057 O 380.011 1.8172 -0.684947 0
M  V30 4058 C 377.141 3.0798 -1.60517 0
M  V30 4059 C 376.095 3.28327 -2.74564 0
M  V30 4060 C 375.421 4.67578 -2.59373 0
M  V30 4061 C 376.721 3.15398 -4.16319 0
M  V30 4062 H 378.415 1.57853 -2.54407 0
M  V30 4063 H 375.961 0.75799 -1.22436 0
M  V30 4064 H 377.914 3.86061 -1.68923 0
M  V30 4065 H 376.638 3.20381 -0.634305 0
M  V30 4066 H 375.297 2.52649 -2.65639 0
M  V30 4067 H 374.945 4.76755 -1.60353 0
M  V30 4068 H 374.645 4.82144 -3.35873 0
M  V30 4069 H 376.169 5.47817 -2.69682 0
M  V30 4070 H 377.583 3.83315 -4.26313 0
M  V30 4071 H 375.98 3.41482 -4.93468 0
M  V30 4072 H 377.05 2.12372 -4.3592 0
M  V30 4073 N 378.394 1.34581 0.820102 0
M  V30 4074 C 379.341 1.2639 1.93117 0
M  V30 4075 C 380.311 0.138554 1.65521 0
M  V30 4076 O 381.496 0.320004 1.88097 0
M  V30 4077 C 378.636 1.02812 3.29429 0
M  V30 4078 C 377.749 2.24146 3.693 0
M  V30 4079 C 376.884 1.93829 4.94574 0
M  V30 4080 C 375.923 3.1129 5.27034 0
M  V30 4081 N 375.06 2.80838 6.43486 0
M  V30 4082 H 379.9 2.21408 1.99455 0
M  V30 4083 H 377.437 1.10077 0.975784 0
M  V30 4084 H 379.395 0.871788 4.0799 0
M  V30 4085 H 378.025 0.114612 3.22596 0
M  V30 4086 H 377.077 2.50691 2.86109 0
M  V30 4087 H 378.389 3.11899 3.89257 0
M  V30 4088 H 377.543 1.74948 5.80929 0
M  V30 4089 H 376.282 1.03341 4.76626 0
M  V30 4090 H 375.287 3.30764 4.39175 0
M  V30 4091 H 376.512 4.02561 5.4692 0
M  V30 4092 H 374.458 1.92929 6.26988 0
M  V30 4093 H 374.375 3.62123 6.63629 0
M  V30 4094 H 375.643 2.65467 7.32903 0
M  V30 4095 N 379.872 -1.04064 1.18357 0
M  V30 4096 C 380.782 -2.15569 0.925596 0
M  V30 4097 C 381.798 -1.7365 -0.110295 0
M  V30 4098 O 382.974 -2.01273 0.0716218 0
M  V30 4099 C 380.039 -3.43704 0.454836 0
M  V30 4100 C 379.1 -4.00004 1.55869 0
M  V30 4101 C 378.333 -5.22023 1.1103 0
M  V30 4102 O 378.556 -5.70392 -0.0309756 0
M  V30 4103 O 377.49 -5.70856 1.90805 0
M  V30 4104 H 381.316 -2.40187 1.8586 0
M  V30 4105 H 378.901 -1.1402 0.965394 0
M  V30 4106 H 380.783 -4.20923 0.200382 0
M  V30 4107 H 379.458 -3.20559 -0.449876 0
M  V30 4108 H 378.365 -3.24172 1.86716 0
M  V30 4109 H 379.698 -4.2749 2.43953 0
M  V30 4110 N 381.35 -0.985608 -1.22978 0
M  V30 4111 C 382.578 -0.675582 -1.95559 0
M  V30 4112 C 382.993 0.758413 -1.72897 0
M  V30 4113 O 382.35 1.51094 -1.02357 0
M  V30 4114 C 382.401 -0.96293 -3.48439 0
M  V30 4115 O 382.122 -2.34057 -3.70336 0
M  V30 4116 C 383.623 -0.669585 -4.38214 0
M  V30 4117 H 380.843 -0.250523 -0.622478 0
M  V30 4118 H 383.387 -1.3184 -1.56328 0
M  V30 4119 H 381.542 -0.366033 -3.85667 0
M  V30 4120 H 381.956 -2.43424 -4.64591 0
M  V30 4121 H 383.43 -0.920967 -5.44263 0
M  V30 4122 H 383.907 0.396383 -4.37408 0
M  V30 4123 H 384.513 -1.2472 -4.06602 0
M  V30 4124 N 382.828 1.3818 -0.7579 0
M  V30 4125 C 384.058 2.04004 -0.326463 0
M  V30 4126 C 384.466 1.57286 1.05156 0
M  V30 4127 O 383.809 0.743144 1.67997 0
M  V30 4128 C 383.871 3.58444 -0.275402 0
M  V30 4129 C 383.535 4.28237 -1.59569 0
M  V30 4130 C 384.532 4.53312 -2.54566 0
M  V30 4131 C 382.217 4.66341 -1.86631 0
M  V30 4132 C 384.211 5.15531 -3.74842 0
M  V30 4133 C 381.898 5.28283 -3.0718 0
M  V30 4134 C 382.896 5.52814 -4.01106 0
M  V30 4135 O 382.584 6.13465 -5.19534 0
M  V30 4136 H 382.316 0.662026 -0.136739 0
M  V30 4137 H 384.87 1.7777 -1.02893 0
M  V30 4138 H 383.1 3.83667 0.483337 0
M  V30 4139 H 384.789 4.05701 0.127099 0
M  V30 4140 H 385.555 4.24299 -2.34936 0
M  V30 4141 H 381.434 4.46591 -1.14358 0
M  V30 4142 H 384.978 5.34594 -4.48168 0
M  V30 4143 H 380.875 5.56719 -3.26702 0
M  V30 4144 H 381.643 6.31951 -5.20173 0
M  V30 4145 N 384.306 0.507319 1.49211 0
M  V30 4146 C 385.236 -0.256939 2.32082 0
M  V30 4147 C 386.217 -0.956609 1.40652 0
M  V30 4148 O 387.402 -0.946788 1.69557 0
M  V30 4149 C 384.532 -1.31802 3.21318 0
M  V30 4150 C 383.486 -0.737855 4.21592 0
M  V30 4151 C 382.812 -1.89992 4.99807 0
M  V30 4152 C 384.112 0.275325 5.21574 0
M  V30 4153 H 385.806 0.434798 2.96226 0
M  V30 4154 H 383.352 0.210546 1.42452 0
M  V30 4155 H 385.305 -1.86045 3.78107 0
M  V30 4156 H 384.029 -2.03903 2.5513 0
M  V30 4157 H 382.688 -0.217126 3.65956 0
M  V30 4158 H 382.336 -2.60877 4.30061 0
M  V30 4159 H 382.036 -1.51777 5.6766 0
M  V30 4160 H 383.56 -2.44657 5.59442 0
M  V30 4161 H 384.974 -0.179193 5.7302 0
M  V30 4162 H 383.371 0.573649 5.97352 0
M  V30 4163 H 384.441 1.18903 4.70096 0
M  V30 4164 N 385.784 -1.5574 0.241426 0
M  V30 4165 C 387.2 -1.59196 -0.113548 0
M  V30 4166 C 387.4 -1.25852 -1.57364 0
M  V30 4167 O 386.456 -1.00322 -2.31715 0
M  V30 4168 C 387.769 -2.99814 0.230695 0
M  V30 4169 C 389.317 -3.12513 0.174547 0
M  V30 4170 C 389.792 -4.55342 0.492744 0
M  V30 4171 N 391.283 -4.61076 0.443043 0
M  V30 4172 C 392.018 -5.6956 0.662484 0
M  V30 4173 N 391.514 -6.86328 0.944761 0
M  V30 4174 N 393.307 -5.58957 0.593564 0
M  V30 4175 H 385.458 -1.75685 1.19368 0
M  V30 4176 H 387.721 -0.81756 0.479896 0
M  V30 4177 H 387.427 -3.28932 1.24485 0
M  V30 4178 H 387.301 -3.74568 -0.444833 0
M  V30 4179 H 389.688 -2.83179 -0.830277 0
M  V30 4180 H 389.769 -2.40045 0.883845 0
M  V30 4181 H 389.413 -4.85396 1.4951 0
M  V30 4182 H 389.343 -5.26062 -0.23797 0
M  V30 4183 H 391.834 -3.77179 0.233374 0
M  V30 4184 H 392.147 -7.64935 1.09977 0
M  V30 4185 H 390.492 -6.88025 0.982175 0
M  V30 4186 H 393.683 -4.66611 0.373123 0
M  V30 4187 H 393.856 -6.43433 0.767981 0
M  V30 4188 N 387.262 0.0317525 -1.57568 0
M  V30 4189 C 388.511 0.722131 -1.8833 0
M  V30 4190 C 388.824 1.76664 -0.839587 0
M  V30 4191 O 390.03 2.50942 -1.03635 0
M  V30 4192 C 388.486 1.33544 -3.34207 0
M  V30 4193 C 388.094 0.327415 -4.46802 0
M  V30 4194 C 389.838 2.00585 -3.7412 0
M  V30 4195 C 387.745 0.948915 -5.83738 0
M  V30 4196 H 386.675 0.273466 -0.702661 0
M  V30 4197 H 389.326 -0.0235811 -1.83485 0
M  V30 4198 H 387.708 2.13077 -3.33788 0
M  V30 4199 H 388.882 -0.441006 -4.58685 0
M  V30 4200 H 387.197 -0.240758 -4.15703 0
M  V30 4201 H 389.794 2.47932 -4.73744 0
M  V30 4202 H 390.137 2.82285 -3.05975 0
M  V30 4203 H 390.67 1.27831 -3.76702 0
M  V30 4204 H 387.409 0.171387 -6.55276 0
M  V30 4205 H 386.929 1.68724 -5.7558 0
M  V30 4206 H 388.608 1.45705 -6.3038 0
M  V30 4207 N 388.74 1.54641 0.303973 0
M  V30 4208 C 389.687 1.85386 1.37479 0
M  V30 4209 C 390.657 0.702528 1.50512 0
M  V30 4210 O 391.842 0.950867 1.65418 0
M  V30 4211 C 388.982 2.10413 2.73533 0
M  V30 4212 C 388.095 3.38049 2.68974 0
M  V30 4213 C 387.23 3.52934 3.97002 0
M  V30 4214 C 386.269 4.74373 3.86829 0
M  V30 4215 N 385.406 4.8608 5.06627 0
M  V30 4216 H 390.246 2.76732 1.1056 0
M  V30 4217 H 387.783 1.37034 0.534805 0
M  V30 4218 H 389.741 2.22919 3.52652 0
M  V30 4219 H 388.371 1.22338 2.98719 0
M  V30 4220 H 387.423 3.3418 1.81736 0
M  V30 4221 H 388.735 4.27288 2.57346 0
M  V30 4222 H 387.889 3.65088 4.84557 0
M  V30 4223 H 386.628 2.61824 4.1146 0
M  V30 4224 H 385.633 4.62255 2.97658 0
M  V30 4225 H 386.858 5.66888 3.73918 0
M  V30 4226 H 384.804 3.97891 5.21554 0
M  V30 4227 H 384.721 5.69315 4.9741 0
M  V30 4228 H 385.989 5.02587 5.95841 0
M  V30 4229 N 390.218 -0.567019 1.47046 0
M  V30 4230 C 391.165 -1.67489 1.58796 0
M  V30 4231 C 392.135 -1.60399 0.43144 0
M  V30 4232 O 393.32 -1.79378 0.650233 0
M  V30 4233 C 390.46 -3.05821 1.59899 0
M  V30 4234 C 389.573 -3.2342 2.86397 0
M  V30 4235 C 388.708 -4.52093 2.789 0
M  V30 4236 C 387.747 -4.6309 4.00267 0
M  V30 4237 N 386.884 -5.83106 3.91064 0
M  V30 4238 H 391.724 -1.56785 2.53422 0
M  V30 4239 H 389.261 -0.763896 1.2571 0
M  V30 4240 H 391.219 -3.8591 1.58522 0
M  V30 4241 H 389.849 -3.15384 0.687929 0
M  V30 4242 H 388.901 -2.3683 2.97684 0
M  V30 4243 H 390.213 -3.27412 3.76301 0
M  V30 4244 H 389.367 -5.4043 2.75718 0
M  V30 4245 H 388.106 -4.50565 1.86662 0
M  V30 4246 H 387.111 -3.73168 4.03765 0
M  V30 4247 H 388.336 -4.66386 4.93621 0
M  V30 4248 H 386.282 -5.82546 3.01623 0
M  V30 4249 H 386.199 -5.88434 4.74638 0
M  V30 4250 H 387.467 -6.73831 3.91882 0
M  V30 4251 N 391.696 -1.35014 -0.812953 0
M  V30 4252 C 392.644 -1.27435 -1.94585 0
M  V30 4253 C 393.638 -0.170494 -1.6854 0
M  V30 4254 O 394.844 -0.336085 -1.76835 0
M  V30 4255 H 391.219 -0.396144 -0.639198 0
M  V30 4256 H 393.19 -2.23158 -1.98098 0
M  V30 4257 C 391.939 -1.05677 -3.31252 0
M  V30 4258 H 391.262 -1.89853 -3.51846 0
M  V30 4259 H 392.702 -1.04413 -4.10943 0
M  V30 4260 C 391.161 0.239615 -3.36047 0
M  V30 4261 O 391.691 1.23759 -3.8216 0
M  V30 4262 N 389.897 0.276186 -2.89285 0
M  V30 4263 H 389.444 -0.53653 -2.51951 0
M  V30 4264 H 389.402 1.14332 -2.92875 0
M  V30 4265 N 393.175 1.03435 -1.18907 0
M  V30 4266 C 394.085 2.15075 -0.937015 0
M  V30 4267 C 395.101 1.73706 0.101085 0
M  V30 4268 O 396.277 2.01232 -0.0822948 0
M  V30 4269 C 393.342 3.43458 -0.473057 0
M  V30 4270 C 392.403 3.99172 -1.57989 0
M  V30 4271 C 391.636 5.21427 -1.13797 0
M  V30 4272 O 391.859 5.704 0.000725941 0
M  V30 4273 O 390.793 5.69837 -1.9383 0
M  V30 4274 H 394.619 2.39198 -1.87131 0
M  V30 4275 H 392.204 1.13506 -0.971427 0
M  V30 4276 H 394.086 4.20811 -0.222702 0
M  V30 4277 H 392.761 3.20793 0.432869 0
M  V30 4278 H 391.668 3.23178 -1.88433 0
M  V30 4279 H 393.001 4.2619 -2.46217 0
M  V30 4280 N 394.653 0.992116 1.22453 0
M  V30 4281 C 395.883 0.684949 1.94915 0
M  V30 4282 C 396.291 -0.754292 1.73514 0
M  V30 4283 O 395.634 -1.52056 1.03076 0
M  V30 4284 C 395.696 0.910054 3.47791 0
M  V30 4285 C 395.36 2.33363 3.92926 0
M  V30 4286 C 396.357 3.31308 4.00663 0
M  V30 4287 C 394.042 2.66785 4.25595 0
M  V30 4288 C 396.036 4.6075 4.40441 0
M  V30 4289 C 393.723 3.96446 4.65053 0
M  V30 4290 C 394.721 4.9324 4.72444 0
M  V30 4291 O 394.409 6.20584 5.1101 0
M  V30 4292 H 394.141 0.25258 0.62704 0
M  V30 4293 H 396.695 1.32939 1.56577 0
M  V30 4294 H 394.925 0.208443 3.86138 0
M  V30 4295 H 396.614 0.598257 4.01467 0
M  V30 4296 H 397.38 3.0682 3.75615 0
M  V30 4297 H 393.259 1.92148 4.19047 0
M  V30 4298 H 396.803 5.363 4.46126 0
M  V30 4299 H 392.7 4.20724 4.89552 0
M  V30 4300 H 393.468 6.24509 5.29085 0
M  V30 4301 N 396.131 -1.37776 0.765217 0
M  V30 4302 C 397.356 -2.04651 0.336537 0
M  V30 4303 C 397.781 -1.57337 -1.03086 0
M  V30 4304 O 397.139 -0.730621 -1.65927 0
M  V30 4305 C 397.187 -3.58577 0.381468 0
M  V30 4306 O 396.291 -4.07706 -0.62042 0
M  V30 4307 H 395.632 -0.64756 0.146838 0
M  V30 4308 H 398.162 -1.76221 1.03959 0
M  V30 4309 H 398.172 -4.07314 0.236448 0
M  V30 4310 H 396.847 -3.9237 1.37907 0
M  V30 4311 H 395.424 -3.70306 -0.439056 0
M  V30 4312 N 397.609 -0.515225 -1.4894 0
M  V30 4313 C 398.858 0.0261361 -2.01683 0
M  V30 4314 C 399.171 1.36719 -1.39883 0
M  V30 4315 O 400.377 1.99606 -1.84037 0
M  V30 4316 C 398.833 0.0970111 -3.59769 0
M  V30 4317 C 398.441 -1.23825 -4.30548 0
M  V30 4318 C 400.185 0.587981 -4.20408 0
M  V30 4319 C 398.092 -1.12877 -5.80528 0
M  V30 4320 H 397.022 0.0135398 -0.753878 0
M  V30 4321 H 399.673 -0.656787 -1.71343 0
M  V30 4322 H 398.055 0.844694 -3.86886 0
M  V30 4323 H 399.229 -2.00034 -4.15118 0
M  V30 4324 H 397.544 -1.66379 -3.81716 0
M  V30 4325 H 400.141 0.68763 -5.3026 0
M  V30 4326 H 400.484 1.59026 -3.84729 0
M  V30 4327 H 401.017 -0.103582 -3.97665 0
M  V30 4328 H 397.756 -2.10575 -6.20756 0
M  V30 4329 H 397.276 -0.407799 -5.98412 0
M  V30 4330 H 398.955 -0.813332 -6.41868 0
M  V30 4331 N 399.087 1.5561 -0.249682 0
M  V30 4332 C 400.498 1.84979 0.252949 0
M  V30 4333 C 400.849 1.17153 1.57384 0
M  V30 4334 O 399.974 0.450884 2.11651 0
M  V30 4335 C 400.569 3.35584 0.465732 0
M  V30 4336 C 399.128 3.65169 0.912624 0
M  V30 4337 C 398.275 2.77299 -0.00859085 0
M  V30 4338 H 401.226 1.51513 -0.47217 0
M  V30 4339 H 401.247 3.57313 1.30795 0
M  V30 4340 H 400.759 3.8492 -0.49579 0
M  V30 4341 H 398.86 3.21312 1.88652 0
M  V30 4342 H 398.973 4.72912 0.767559 0
M  V30 4343 H 397.337 2.49678 0.50327 0
M  V30 4344 H 398.12 3.29442 -0.965537 0
M  V30 4345 N 400.565 -0.0233959 1.57583 0
M  V30 4346 C 401.512 -1.02224 2.06927 0
M  V30 4347 C 402.482 -1.35575 0.959617 0
M  V30 4348 O 403.667 -1.45815 1.23055 0
M  V30 4349 C 400.807 -2.31636 2.5581 0
M  V30 4350 C 399.92 -2.04394 3.80588 0
M  V30 4351 C 399.055 -3.27717 4.18061 0
M  V30 4352 C 398.094 -2.96056 5.3574 0
M  V30 4353 N 397.231 -4.11847 5.68618 0
M  V30 4354 H 402.071 -0.594504 2.9201 0
M  V30 4355 H 399.608 -0.281921 1.44373 0
M  V30 4356 H 401.566 -3.07258 2.82221 0
M  V30 4357 H 400.196 -2.72122 1.73636 0
M  V30 4358 H 399.248 -1.19244 3.61227 0
M  V30 4359 H 400.56 -1.77042 4.66323 0
M  V30 4360 H 399.714 -4.11702 4.4563 0
M  V30 4361 H 398.453 -3.58188 3.30988 0
M  V30 4362 H 397.458 -2.10474 5.07918 0
M  V30 4363 H 398.683 -2.66857 6.24471 0
M  V30 4364 H 396.629 -4.42258 4.84504 0
M  V30 4365 H 396.546 -3.87938 6.48876 0
M  V30 4366 H 397.814 -4.96689 6.00766 0
M  V30 4367 N 402.043 -1.548 -0.295768 0
M  V30 4368 C 402.993 -1.82497 -1.3667 0
M  V30 4369 C 403.977 -0.682434 -1.45711 0
M  V30 4370 O 405.169 -0.943207 -1.49775 0
M  V30 4371 C 402.298 -2.08036 -2.73086 0
M  V30 4372 C 401.384 -3.28488 -2.68247 0
M  V30 4373 N 401.775 -4.48924 -2.33025 0
M  V30 4374 C 400.073 -3.3062 -2.99343 0
M  V30 4375 C 400.774 -5.30956 -2.37613 0
M  V30 4376 N 399.75 -4.68805 -2.75178 0
M  V30 4377 H 403.552 -2.73175 -1.0841 0
M  V30 4378 H 401.066 -1.5437 -0.504361 0
M  V30 4379 H 403.063 -2.26027 -3.5031 0
M  V30 4380 H 401.723 -1.18629 -3.02254 0
M  V30 4381 H 402.734 -4.75432 -2.05389 0
M  V30 4382 H 399.411 -2.51336 -3.33371 0
M  V30 4383 H 400.801 -6.37199 -2.13135 0
M  V30 4384 N 403.521 0.559213 -1.47345 0
M  V30 4385 C 404.77 1.31281 -1.53128 0
M  V30 4386 C 405.083 1.94602 -0.197344 0
M  V30 4387 O 406.289 2.71173 -0.133154 0
M  V30 4388 C 404.745 2.38051 -2.69925 0
M  V30 4389 C 404.353 1.8093 -4.0984 0
M  V30 4390 C 406.097 3.14604 -2.84999 0
M  V30 4391 C 404.004 2.85468 -5.1794 0
M  V30 4392 H 402.934 0.493614 -0.569966 0
M  V30 4393 H 405.585 0.594155 -1.73615 0
M  V30 4394 H 403.967 3.12822 -2.42814 0
M  V30 4395 H 405.141 1.12544 -4.46845 0
M  V30 4396 H 403.456 1.16967 -3.99634 0
M  V30 4397 H 406.053 3.92666 -3.62929 0
M  V30 4398 H 406.396 3.68665 -1.93369 0
M  V30 4399 H 406.929 2.46945 -3.1187 0
M  V30 4400 H 403.668 2.36264 -6.1144 0
M  V30 4401 H 403.188 3.52269 -4.85455 0
M  V30 4402 H 404.867 3.48996 -5.44803 0
M  V30 4403 N 404.999 1.35443 0.805782 0
M  V30 4404 C 405.947 1.28465 1.93906 0
M  V30 4405 C 406.941 0.17943 1.68447 0
M  V30 4406 O 408.147 0.345459 1.76654 0
M  V30 4407 H 404.522 0.399528 0.637088 0
M  V30 4408 H 406.493 2.24206 1.96912 0
M  V30 4409 C 405.242 1.07432 3.30687 0
M  V30 4410 H 404.565 1.91716 3.50835 0
M  V30 4411 H 406.005 1.06591 4.10383 0
M  V30 4412 C 404.464 -0.22179 3.36169 0
M  V30 4413 O 404.994 -1.21731 3.82811 0
M  V30 4414 N 403.2 -0.260841 2.89427 0
M  V30 4415 H 402.747 0.549884 2.51663 0
M  V30 4416 H 402.705 -1.12777 2.93477 0
M  V30 4417 N 406.477 -1.02803 1.19454 0
M  V30 4418 C 407.888 -1.57667 0.999899 0
M  V30 4419 C 408.239 -1.91041 -0.446956 0
M  V30 4420 O 407.364 -1.70978 -1.32648 0
M  V30 4421 C 407.959 -2.86477 1.80877 0
M  V30 4422 C 406.518 -3.37911 1.65811 0
M  V30 4423 C 405.665 -2.11343 1.79526 0
M  V30 4424 H 408.616 -0.853214 1.33813 0
M  V30 4425 H 408.637 -3.57408 1.30536 0
M  V30 4426 H 408.149 -2.62155 2.86175 0
M  V30 4427 H 406.25 -3.67218 0.63102 0
M  V30 4428 H 406.363 -4.10885 2.46395 0
M  V30 4429 H 404.727 -2.23254 1.22596 0
M  V30 4430 H 405.51 -1.89461 2.86285 0
M  V30 4431 N 407.956 -0.998596 -1.21925 0
M  V30 4432 C 409.202 -0.678667 -1.91107 0
M  V30 4433 C 409.535 0.78791 -1.77498 0
M  V30 4434 O 408.81 1.57043 -1.1475 0
M  V30 4435 C 409.093 -1.09245 -3.43129 0
M  V30 4436 C 408.946 -2.61801 -3.6576 0
M  V30 4437 C 410.265 -0.649984 -4.35274 0
M  V30 4438 H 407.384 -0.248025 -0.694012 0
M  V30 4439 H 410.026 -1.24314 -1.43688 0
M  V30 4440 H 408.176 -0.612171 -3.83647 0
M  V30 4441 H 409.848 -3.17543 -3.34611 0
M  V30 4442 H 408.091 -3.03609 -3.09845 0
M  V30 4443 H 408.762 -2.85804 -4.7225 0
M  V30 4444 H 411.238 -1.0626 -4.02303 0
M  V30 4445 H 410.114 -0.967743 -5.40302 0
M  V30 4446 H 410.375 0.449139 -4.39813 0
M  V30 4447 N 409.434 1.37368 -0.772513 0
M  V30 4448 C 410.397 2.28601 -0.165541 0
M  V30 4449 C 411.397 1.48062 0.627238 0
M  V30 4450 O 412.587 1.68268 0.450715 0
M  V30 4451 C 409.719 3.32023 0.772897 0
M  V30 4452 H 410.912 2.83787 -0.969787 0
M  V30 4453 H 408.465 1.46647 -0.540775 0
M  V30 4454 H 409.2 2.81962 1.60212 0
M  V30 4455 H 408.985 3.91555 0.206585 0
M  V30 4456 H 410.475 4.00197 1.19298 0
M  V30 4457 N 410.912 0.523116 1.48665 0
M  V30 4458 C 411.875 -0.232592 2.28017 0
M  V30 4459 C 412.875 -0.874021 1.34972 0
M  V30 4460 O 414.065 -0.735132 1.57929 0
M  V30 4461 C 411.197 -1.33586 3.13636 0
M  V30 4462 H 412.39 0.464008 2.96289 0
M  V30 4463 H 409.943 0.278816 1.53793 0
M  V30 4464 H 410.678 -2.06593 2.4998 0
M  V30 4465 H 410.463 -0.881125 3.82071 0
M  V30 4466 H 411.953 -1.86759 3.73511 0
M  V30 4467 N 412.39 -1.55475 0.257931 0
M  V30 4468 C 413.615 -2.04064 -0.370488 0
M  V30 4469 C 414.04 -1.13565 -1.49948 0
M  V30 4470 O 413.398 -0.130781 -1.80828 0
M  V30 4471 C 413.446 -3.50554 -0.845237 0
M  V30 4472 O 412.55 -3.63173 -1.95394 0
M  V30 4473 H 411.891 -0.659257 -0.0792243 0
M  V30 4474 H 414.421 -2.00903 0.387212 0
M  V30 4475 H 414.431 -3.91588 -1.14555 0
M  V30 4476 H 413.106 -4.15896 -0.0191259 0
M  V30 4477 H 411.683 -3.34039 -1.65748 0
M  V30 4478 N 413.868 0.0150385 -1.57593 0
M  V30 4479 C 414.798 1.01047 -2.10503 0
M  V30 4480 C 415.779 1.36816 -1.01071 0
M  V30 4481 O 416.964 1.45455 -1.28672 0
M  V30 4482 C 414.094 2.30708 -2.59598 0
M  V30 4483 C 413.048 2.09142 -3.73421 0
M  V30 4484 C 412.374 3.44685 -4.08774 0
M  V30 4485 C 413.674 1.46619 -5.01298 0
M  V30 4486 H 415.368 0.569978 -2.93925 0
M  V30 4487 H 412.914 0.272724 -1.41394 0
M  V30 4488 H 414.867 3.00687 -2.95238 0
M  V30 4489 H 413.591 2.76843 -1.73279 0
M  V30 4490 H 412.25 1.41592 -3.38153 0
M  V30 4491 H 411.898 3.88495 -3.195 0
M  V30 4492 H 411.598 3.31077 -4.8545 0
M  V30 4493 H 413.122 4.16004 -4.4696 0
M  V30 4494 H 414.536 2.06535 -5.34805 0
M  V30 4495 H 412.933 1.43544 -5.82679 0
M  V30 4496 H 414.003 0.433611 -4.82957 0
M  V30 4497 N 415.346 1.54954 0.287554 0
M  V30 4498 C 416.595 1.74081 1.01877 0
M  V30 4499 C 416.908 0.541135 1.87966 0
M  V30 4500 O 418.114 0.614491 2.64455 0
M  V30 4501 C 416.57 3.08042 1.86113 0
M  V30 4502 C 416.178 4.35531 1.04961 0
M  V30 4503 C 417.922 3.36523 2.58752 0
M  V30 4504 C 415.829 5.60538 1.88551 0
M  V30 4505 H 414.759 0.64884 0.384087 0
M  V30 4506 H 417.41 1.81426 0.275101 0
M  V30 4507 H 415.792 2.94696 2.64519 0
M  V30 4508 H 416.966 4.59751 0.31074 0
M  V30 4509 H 415.281 4.14085 0.43843 0
M  V30 4510 H 417.878 4.27122 3.21668 0
M  V30 4511 H 418.221 2.56 3.28283 0
M  V30 4512 H 418.754 3.50901 1.87386 0
M  V30 4513 H 415.493 6.43767 1.23466 0
M  V30 4514 H 415.013 5.40483 2.60074 0
M  V30 4515 H 416.692 5.98297 2.46273 0
M  V30 4516 N 416.824 -0.551391 1.4764 0
M  V30 4517 C 417.756 -1.67333 1.56628 0
M  V30 4518 C 418.769 -1.56398 0.452045 0
M  V30 4519 O 419.958 -1.6325 0.721926 0
M  V30 4520 C 417.058 -3.05841 1.45994 0
M  V30 4521 C 416.231 -3.42472 2.72088 0
M  V30 4522 C 415.29 -4.60168 2.55209 0
M  V30 4523 O 414.316 -4.64458 3.2904 0
M  V30 4524 N 415.518 -5.57024 1.63416 0
M  V30 4525 H 418.283 -1.60066 2.53375 0
M  V30 4526 H 415.844 -0.738169 1.44093 0
M  V30 4527 H 417.836 -3.8242 1.32428 0
M  V30 4528 H 416.406 -3.07302 0.573071 0
M  V30 4529 H 415.626 -2.55284 3.00373 0
M  V30 4530 H 416.914 -3.63723 3.55785 0
M  V30 4531 H 416.312 -5.56319 1.02594 0
M  V30 4532 H 414.869 -6.32906 1.558 0
M  V30 4533 N 418.302 -1.35869 -0.798587 0
M  V30 4534 C 419.249 -1.29446 -1.91082 0
M  V30 4535 C 420.219 -0.16487 -1.6528 0
M  V30 4536 O 421.404 -0.349888 -1.87564 0
M  V30 4537 C 418.544 -1.0804 -3.27752 0
M  V30 4538 C 417.657 -2.29993 -3.65687 0
M  V30 4539 C 416.792 -2.01673 -4.91428 0
M  V30 4540 C 415.831 -3.19636 -5.22015 0
M  V30 4541 N 414.968 -2.91039 -6.38937 0
M  V30 4542 H 419.808 -2.24553 -1.95907 0
M  V30 4543 H 417.345 -1.11615 -0.958148 0
M  V30 4544 H 419.303 -0.936586 -4.06551 0
M  V30 4545 H 417.933 -0.16592 -3.22373 0
M  V30 4546 H 416.985 -2.55211 -2.82085 0
M  V30 4547 H 418.297 -3.18052 -3.84245 0
M  V30 4548 H 417.451 -1.84168 -5.78072 0
M  V30 4549 H 416.19 -1.10911 -4.74921 0
M  V30 4550 H 415.195 -3.37709 -4.33858 0
M  V30 4551 H 416.42 -4.11211 -5.40447 0
M  V30 4552 H 414.366 -2.0288 -6.2384 0
M  V30 4553 H 414.283 -3.72635 -6.57784 0
M  V30 4554 H 415.551 -2.77093 -7.28587 0
M  V30 4555 N 419.78 1.02168 -1.19998 0
M  V30 4556 C 420.713 2.10232 -0.887558 0
M  V30 4557 C 421.691 1.61827 0.158317 0
M  V30 4558 O 422.875 1.88471 0.0330249 0
M  V30 4559 C 420.002 3.37092 -0.32964 0
M  V30 4560 C 419.048 4.0438 -1.3557 0
M  V30 4561 S 419.881 4.48956 -2.91888 0
M  V30 4562 C 421.037 5.79024 -2.37658 0
M  V30 4563 H 421.27 2.36409 -1.80272 0
M  V30 4564 H 418.803 1.15211 -1.0279 0
M  V30 4565 H 420.761 4.10498 -0.0142824 0
M  V30 4566 H 419.422 3.08996 0.563941 0
M  V30 4567 H 418.615 4.95632 -0.9146 0
M  V30 4568 H 418.217 3.37176 -1.61828 0
M  V30 4569 H 420.509 6.53942 -1.77103 0
M  V30 4570 H 421.452 6.27924 -3.27287 0
M  V30 4571 H 421.86 5.35043 -1.79971 0
M  V30 4572 N 421.258 1.00505 1.21394 0
M  V30 4573 C 422.188 0.585684 2.26035 0
M  V30 4574 C 423.169 -0.393525 1.65485 0
M  V30 4575 O 424.354 -0.281497 1.92149 0
M  V30 4576 C 421.484 -0.0884283 3.47187 0
M  V30 4577 C 420.438 0.810567 4.20254 0
M  V30 4578 C 419.764 0.00286382 5.347 0
M  V30 4579 C 421.064 2.1132 4.77641 0
M  V30 4580 H 422.758 1.46039 2.61368 0
M  V30 4581 H 420.304 0.703648 1.25638 0
M  V30 4582 H 422.257 -0.393286 4.19561 0
M  V30 4583 H 420.981 -0.997766 3.10986 0
M  V30 4584 H 419.64 1.09925 3.49731 0
M  V30 4585 H 419.288 -0.907765 4.94741 0
M  V30 4586 H 418.988 0.601444 5.84514 0
M  V30 4587 H 420.512 -0.295808 6.09883 0
M  V30 4588 H 421.926 1.87148 5.41893 0
M  V30 4589 H 420.323 2.66164 5.37845 0
M  V30 4590 H 421.393 2.78393 3.9702 0
M  V30 4591 N 422.737 -1.36956 0.779787 0
M  V30 4592 C 423.669 -2.28833 0.129639 0
M  V30 4593 C 424.682 -1.4902 -0.655511 0
M  V30 4594 O 425.871 -1.71578 -0.492279 0
M  V30 4595 C 422.971 -3.2833 -0.839792 0
M  V30 4596 C 422.144 -4.3727 -0.10675 0
M  V30 4597 C 421.203 -5.16789 -0.990717 0
M  V30 4598 O 420.229 -5.67406 -0.451516 0
M  V30 4599 N 421.431 -5.32294 -2.3161 0
M  V30 4600 H 424.196 -2.85268 0.918803 0
M  V30 4601 H 421.757 -1.49019 0.632841 0
M  V30 4602 H 423.749 -3.78413 -1.43477 0
M  V30 4603 H 422.319 -2.72605 -1.52988 0
M  V30 4604 H 421.539 -3.88478 0.669216 0
M  V30 4605 H 422.827 -5.07229 0.399464 0
M  V30 4606 H 422.225 -4.92768 -2.77843 0
M  V30 4607 H 420.782 -5.85656 -2.86095 0
M  V30 4608 N 424.215 -0.530993 -1.48385 0
M  V30 4609 C 425.443 -0.00134122 -2.069 0
M  V30 4610 C 425.858 1.2805 -1.3874 0
M  V30 4611 O 425.215 1.76204 -0.475244 0
M  V30 4612 C 425.266 0.225256 -3.60798 0
M  V30 4613 O 424.987 -1.0058 -4.26398 0
M  V30 4614 C 426.488 0.795172 -4.3611 0
M  V30 4615 H 423.708 -0.0339704 -0.67014 0
M  V30 4616 H 426.252 -0.736926 -1.90761 0
M  V30 4617 H 424.407 0.910891 -3.76539 0
M  V30 4618 H 424.821 -0.787165 -5.1856 0
M  V30 4619 H 426.295 0.903143 -5.44562 0
M  V30 4620 H 426.772 1.80031 -4.00606 0
M  V30 4621 H 427.378 0.146069 -4.25049 0
M  V30 4622 N 425.693 1.55336 -0.266172 0
M  V30 4623 C 426.97 1.91372 0.404486 0
M  V30 4624 C 427.35 1.18935 1.74407 0
M  V30 4625 O 426.698 0.3132 2.26343 0
M  V30 4626 C 426.908 3.44581 0.553593 0
M  V30 4627 C 428.256 4.16196 0.840618 0
M  V30 4628 O 429.28 3.50426 0.638739 0
M  V30 4629 O 428.139 5.32567 1.22618 0
M  V30 4630 H 425.233 0.797194 0.220025 0
M  V30 4631 H 427.779 1.66813 -0.311664 0
M  V30 4632 H 426.551 3.89357 -0.389498 0
M  V30 4633 H 426.174 3.75065 1.31955 0
M  V30 4634 N 427.171 -0.0066808 1.57599 0
M  V30 4635 C 428.582 -0.550379 1.78403 0
M  V30 4636 C 428.933 -1.74339 0.900014 0
M  V30 4637 O 428.058 -2.16166 0.100713 0
M  V30 4638 C 428.653 -1.00523 3.23544 0
M  V30 4639 C 427.212 -1.49428 3.45468 0
M  V30 4640 C 426.359 -0.442444 2.73748 0
M  V30 4641 H 429.31 0.219508 1.57175 0
M  V30 4642 H 429.331 -1.87157 3.31289 0
M  V30 4643 H 428.843 -0.136735 3.87859 0
M  V30 4644 H 426.944 -2.3839 2.86358 0
M  V30 4645 H 427.057 -1.52635 4.54136 0
M  V30 4646 H 425.421 -0.902578 2.38171 0
M  V30 4647 H 426.204 0.416973 3.40758 0
M  V30 4648 N 428.649 -1.55105 -0.279332 0
M  V30 4649 C 429.877 -1.7943 -1.03017 0
M  V30 4650 C 430.292 -0.564456 -1.80165 0
M  V30 4651 O 429.649 0.466326 -1.76442 0
M  V30 4652 C 429.7 -3.0155 -1.99374 0
M  V30 4653 O 429.421 -4.19784 -1.25352 0
M  V30 4654 C 430.922 -3.3843 -2.86321 0
M  V30 4655 H 428.142 -0.597882 -0.304594 0
M  V30 4656 H 430.686 -2.02105 -0.312035 0
M  V30 4657 H 428.841 -2.81019 -2.66659 0
M  V30 4658 H 429.255 -4.88781 -1.90246 0
M  V30 4659 H 430.729 -4.27066 -3.49741 0
M  V30 4660 H 431.206 -2.57549 -3.5576 0
M  V30 4661 H 431.812 -3.61197 -2.24536 0
M  V30 4662 N 430.127 0.543554 -1.4793 0
M  V30 4663 C 431.09 1.63156 -1.60975 0
M  V30 4664 C 432.09 1.53346 -0.483899 0
M  V30 4665 O 433.28 1.5726 -0.749339 0
M  V30 4666 C 430.412 3.02743 -1.56716 0
M  V30 4667 H 431.605 1.52934 -2.57975 0
M  V30 4668 H 429.158 0.764557 -1.36324 0
M  V30 4669 H 429.893 3.18484 -0.611418 0
M  V30 4670 H 429.678 3.11272 -2.38438 0
M  V30 4671 H 431.168 3.81871 -1.6901 0
M  V30 4672 N 431.605 1.3629 0.791371 0
M  V30 4673 C 433.021 1.16661 1.08914 0
M  V30 4674 C 433.221 -0.0106266 2.01497 0
M  V30 4675 O 432.277 -0.676596 2.43266 0
M  V30 4676 C 433.59 2.47656 1.70549 0
M  V30 4677 C 435.138 2.54002 1.82899 0
M  V30 4678 C 435.613 3.85078 2.47949 0
M  V30 4679 N 437.104 3.86413 2.5542 0
M  V30 4680 C 437.839 4.84572 3.06557 0
M  V30 4681 N 437.335 5.93124 3.58016 0
M  V30 4682 N 439.128 4.71994 3.05251 0
M  V30 4683 H 431.279 2.11668 0.176238 0
M  V30 4684 H 433.542 0.937486 0.140796 0
M  V30 4685 H 433.248 3.34059 1.09989 0
M  V30 4686 H 433.122 2.63319 2.70079 0
M  V30 4687 H 435.509 1.68018 2.42598 0
M  V30 4688 H 435.59 2.42239 0.821808 0
M  V30 4689 H 435.234 4.71467 1.88895 0
M  V30 4690 H 435.164 3.94135 3.49235 0
M  V30 4691 H 437.655 3.07988 2.18979 0
M  V30 4692 H 437.968 6.63999 3.95381 0
M  V30 4693 H 436.313 5.96796 3.56173 0
M  V30 4694 H 439.504 3.86321 2.64336 0
M  V30 4695 H 439.677 5.48653 3.44796 0
M  V30 4696 N 433.083 -1.0153 1.20538 0
M  V30 4697 C 434.494 -1.56598 1.01657 0
M  V30 4698 C 434.845 -1.91505 -0.426668 0
M  V30 4699 O 433.97 -1.72375 -1.30827 0
M  V30 4700 C 434.565 -2.84542 1.83905 0
M  V30 4701 C 433.124 -3.36133 1.69386 0
M  V30 4702 C 432.271 -2.09427 1.81757 0
M  V30 4703 H 435.222 -0.838974 1.34711 0
M  V30 4704 H 435.243 -3.56004 1.34319 0
M  V30 4705 H 434.755 -2.59105 2.8894 0
M  V30 4706 H 432.856 -3.66528 0.669933 0
M  V30 4707 H 432.969 -4.08248 2.50739 0
M  V30 4708 H 431.333 -2.21941 1.24957 0
M  V30 4709 H 432.116 -1.86414 2.88279 0
M  V30 4710 N 434.561 -1.01147 -1.20859 0
M  V30 4711 C 435.789 -0.716911 -1.94082 0
M  V30 4712 C 436.204 0.721568 -1.74467 0
M  V30 4713 O 435.561 1.48889 -1.05539 0
M  V30 4714 C 435.612 -1.03662 -3.46318 0
M  V30 4715 O 435.333 -2.4186 -3.65288 0
M  V30 4716 C 436.834 -0.762386 -4.36695 0
M  V30 4717 H 434.054 -0.26367 -0.617024 0
M  V30 4718 H 436.598 -1.35127 -1.53496 0
M  V30 4719 H 434.753 -0.447757 -3.84804 0
M  V30 4720 H 435.167 -2.53224 -4.59323 0
M  V30 4721 H 436.641 -1.03621 -5.42187 0
M  V30 4722 H 437.118 0.303514 -4.3815 0
M  V30 4723 H 437.724 -1.33316 -4.03865 0
M  V30 4724 N 436.039 1.36541 -0.78704 0
M  V30 4725 C 437.288 1.98552 -0.35494 0
M  V30 4726 C 437.601 1.63171 1.07864 0
M  V30 4727 O 438.807 2.18399 1.61289 0
M  V30 4728 C 437.263 3.55136 -0.583671 0
M  V30 4729 C 436.871 3.99444 -2.02851 0
M  V30 4730 C 438.615 4.2395 -0.215957 0
M  V30 4731 C 436.522 5.48796 -2.20403 0
M  V30 4732 H 435.452 0.742888 -0.128972 0
M  V30 4733 H 438.103 1.5587 -0.968337 0
M  V30 4734 H 436.485 3.95875 0.0994046 0
M  V30 4735 H 437.659 3.6991 -2.74779 0
M  V30 4736 H 435.974 3.43459 -2.35425 0
M  V30 4737 H 438.571 5.33709 -0.325405 0
M  V30 4738 H 438.914 4.07827 0.835646 0
M  V30 4739 H 439.447 3.88565 -0.852175 0
M  V30 4740 H 436.186 5.69864 -3.23937 0
M  V30 4741 H 435.706 5.79964 -1.52977 0
M  V30 4742 H 437.385 6.14986 -2.01002 0
M  V30 4743 N 437.518 0.538854 1.48102 0
M  V30 4744 C 438.466 -0.232325 2.31437 0
M  V30 4745 C 439.46 -0.927004 1.41785 0
M  V30 4746 O 440.666 -0.850378 1.58646 0
M  V30 4747 H 437.041 -0.0937916 0.746128 0
M  V30 4748 H 439.012 0.489986 2.9435 0
M  V30 4749 C 437.761 -1.26074 3.24038 0
M  V30 4750 H 437.084 -0.735609 3.92974 0
M  V30 4751 H 438.524 -1.77157 3.85216 0
M  V30 4752 C 436.983 -2.29902 2.46265 0
M  V30 4753 O 437.513 -3.36502 2.19384 0
M  V30 4754 N 435.719 -2.03348 2.07601 0
M  V30 4755 H 435.266 -1.16675 2.29662 0
M  V30 4756 H 435.224 -2.73038 1.55877 0
M  V30 4757 N 438.996 -1.55193 0.274407 0
M  V30 4758 C 439.906 -2.26164 -0.623473 0
M  V30 4759 C 440.922 -1.28729 -1.17068 0
M  V30 4760 O 442.098 -1.61663 -1.20112 0
M  V30 4761 C 439.163 -2.96833 -1.7914 0
M  V30 4762 C 438.224 -4.09745 -1.28093 0
M  V30 4763 C 437.457 -4.77034 -2.3932 0
M  V30 4764 O 437.68 -4.4353 -3.5866 0
M  V30 4765 O 436.614 -5.64996 -2.07516 0
M  V30 4766 H 440.44 -3.03661 -0.0485661 0
M  V30 4767 H 438.025 -1.49341 0.0418382 0
M  V30 4768 H 439.907 -3.41248 -2.4724 0
M  V30 4769 H 438.582 -2.22253 -2.35341 0
M  V30 4770 H 437.489 -3.69787 -0.566416 0
M  V30 4771 H 438.822 -4.86224 -0.764683 0
M  V30 4772 N 440.474 -0.00167713 -1.576 0
M  V30 4773 C 441.404 0.988091 -2.11563 0
M  V30 4774 C 442.385 1.35736 -1.02517 0
M  V30 4775 O 443.57 1.44082 -1.30208 0
M  V30 4776 C 440.7 2.27941 -2.62031 0
M  V30 4777 C 439.654 2.0517 -3.75619 0
M  V30 4778 C 438.98 3.4033 -4.12407 0
M  V30 4779 C 440.28 1.41294 -5.02825 0
M  V30 4780 H 441.974 0.538771 -2.94513 0
M  V30 4781 H 439.52 0.257712 -1.41675 0
M  V30 4782 H 441.473 2.97539 -2.9841 0
M  V30 4783 H 440.197 2.74989 -1.76205 0
M  V30 4784 H 438.856 1.37998 -3.39635 0
M  V30 4785 H 438.504 3.85085 -3.23603 0
M  V30 4786 H 438.204 3.25909 -4.88935 0
M  V30 4787 H 439.728 4.1124 -4.51347 0
M  V30 4788 H 441.142 2.00851 -5.36965 0
M  V30 4789 H 439.539 1.37356 -5.84169 0
M  V30 4790 H 440.609 0.382362 -4.8339 0
M  V30 4791 N 441.952 1.55251 0.271103 0
M  V30 4792 C 442.882 1.9127 1.33933 0
M  V30 4793 C 443.863 0.77478 1.5143 0
M  V30 4794 O 445.048 1.03307 1.64442 0
M  V30 4795 C 442.178 2.18627 2.69851 0
M  V30 4796 C 441.132 3.34442 2.67081 0
M  V30 4797 C 440.458 3.47284 4.06569 0
M  V30 4798 C 441.758 4.70784 2.26185 0
M  V30 4799 H 443.452 2.80744 1.04035 0
M  V30 4800 H 440.998 1.35077 0.499017 0
M  V30 4801 H 442.951 2.42413 3.44694 0
M  V30 4802 H 441.675 1.25955 3.01335 0
M  V30 4803 H 440.334 3.10627 1.94695 0
M  V30 4804 H 439.982 2.52074 4.35279 0
M  V30 4805 H 439.682 4.25152 4.0561 0
M  V30 4806 H 441.206 3.73363 4.83148 0
M  V30 4807 H 442.62 4.94102 2.90751 0
M  V30 4808 H 441.017 5.51582 2.36384 0
M  V30 4809 H 442.087 4.69478 1.21319 0
M  V30 4810 N 443.43 -0.535701 1.48216 0
M  V30 4811 C 444.378 -1.66179 1.62749 0
M  V30 4812 C 445.372 -1.62034 0.49409 0
M  V30 4813 O 446.578 -1.6696 0.672624 0
M  V30 4814 H 442.953 -0.550244 0.512578 0
M  V30 4815 H 444.924 -1.51063 2.57337 0
M  V30 4816 C 443.673 -3.04471 1.67907 0
M  V30 4817 H 442.996 -3.08351 2.54479 0
M  V30 4818 H 444.436 -3.82894 1.82121 0
M  V30 4819 C 442.895 -3.34314 0.416596 0
M  V30 4820 O 443.425 -3.98905 -0.473014 0
M  V30 4821 N 441.631 -2.89149 0.290038 0
M  V30 4822 H 441.178 -2.36764 1.01493 0
M  V30 4823 H 441.136 -3.09486 -0.55367 0
M  V30 4824 N 444.908 -1.36708 -0.784132 0
M  V30 4825 C 446.185 -1.21776 -1.53069 0
M  V30 4826 C 446.565 0.193876 -2.10208 0
M  V30 4827 O 445.913 1.20012 -1.94446 0
M  V30 4828 C 446.123 -2.30395 -2.62143 0
M  V30 4829 C 447.471 -2.67325 -3.29882 0
M  V30 4830 O 448.495 -2.29478 -2.7243 0
M  V30 4831 O 447.354 -3.32485 -4.33724 0
M  V30 4832 H 444.448 -0.474459 -0.677361 0
M  V30 4833 H 446.994 -1.48454 -0.82216 0
M  V30 4834 H 445.766 -3.2498 -2.17953 0
M  V30 4835 H 445.389 -2.05112 -3.40609 0
M  V30 4836 N 446.386 1.0089 -1.21074 0
M  V30 4837 C 447.296 2.13039 -0.982425 0
M  V30 4838 C 448.312 1.73881 0.0642161 0
M  V30 4839 O 449.488 2.01012 -0.12496 0
M  V30 4840 C 446.553 3.42377 -0.545803 0
M  V30 4841 C 445.614 3.95731 -1.6642 0
M  V30 4842 C 444.847 5.18896 -1.24832 0
M  V30 4843 O 445.07 5.70273 -0.120265 0
M  V30 4844 O 444.004 5.65597 -2.05873 0
M  V30 4845 H 447.83 2.35175 -1.92163 0
M  V30 4846 H 445.415 1.1142 -0.995285 0
M  V30 4847 H 447.297 4.20244 -0.311912 0
M  V30 4848 H 445.972 3.21639 0.364727 0
M  V30 4849 H 444.879 3.19108 -1.95246 0
M  V30 4850 H 446.212 4.20872 -2.55201 0
M  V30 4851 N 447.864 1.01787 1.20321 0
M  V30 4852 C 449.111 0.707936 1.89722 0
M  V30 4853 C 449.439 -0.762535 1.78929 0
M  V30 4854 O 448.694 -1.56977 1.16861 0
M  V30 4855 C 448.993 1.09076 3.40349 0
M  V30 4856 C 448.659 2.55765 3.71342 0
M  V30 4857 C 447.321 2.95845 3.79511 0
M  V30 4858 C 449.673 3.50723 3.85542 0
M  V30 4859 C 447.001 4.2982 3.99339 0
M  V30 4860 C 449.353 4.84387 4.06881 0
M  V30 4861 C 448.017 5.24172 4.1328 0
M  V30 4862 H 447.287 0.259052 0.694243 0
M  V30 4863 H 449.934 1.27868 1.42555 0
M  V30 4864 H 448.239 0.438453 3.89339 0
M  V30 4865 H 449.936 0.828636 3.92345 0
M  V30 4866 H 446.526 2.2371 3.65584 0
M  V30 4867 H 450.71 3.20916 3.78585 0
M  V30 4868 H 445.966 4.60196 4.02529 0
M  V30 4869 H 450.14 5.57891 4.1681 0
M  V30 4870 H 447.767 6.27997 4.28396 0
M  V30 4871 N 449.342 -1.36122 0.79427 0
M  V30 4872 C 450.589 -1.99111 0.368905 0
M  V30 4873 C 450.917 -1.63032 -1.0607 0
M  V30 4874 O 450.172 -0.879303 -1.74833 0
M  V30 4875 C 450.471 -3.5409 0.48527 0
M  V30 4876 C 450.137 -4.10003 1.87638 0
M  V30 4877 C 448.799 -4.24986 2.257 0
M  V30 4878 C 451.151 -4.40423 2.78706 0
M  V30 4879 C 448.479 -4.67701 3.54221 0
M  V30 4880 C 450.831 -4.84573 4.0666 0
M  V30 4881 C 449.495 -4.97761 4.44737 0
M  V30 4882 H 448.765 -0.7286 0.134992 0
M  V30 4883 H 451.412 -1.62534 1.01267 0
M  V30 4884 H 449.717 -3.91052 -0.241984 0
M  V30 4885 H 451.414 -4.00766 0.137109 0
M  V30 4886 H 448.004 -3.98784 1.57064 0
M  V30 4887 H 452.188 -4.28412 2.50553 0
M  V30 4888 H 447.444 -4.761 3.83587 0
M  V30 4889 H 451.618 -5.07074 4.77336 0
M  V30 4890 H 449.245 -5.30618 5.44379 0
M  V30 4891 N 450.82 -0.546701 -1.47814 0
M  V30 4892 C 452.048 -0.0232857 -2.06887 0
M  V30 4893 C 452.463 1.26571 -1.4009 0
M  V30 4894 O 451.82 1.7569 -0.493906 0
M  V30 4895 C 451.871 0.186975 -3.61016 0
M  V30 4896 O 451.592 -1.05097 -4.25307 0
M  V30 4897 C 453.093 0.748872 -4.36929 0
M  V30 4898 H 450.313 -0.0410763 -0.669742 0
M  V30 4899 H 452.857 -0.757117 -1.89968 0
M  V30 4900 H 451.012 0.870903 -3.77484 0
M  V30 4901 H 451.426 -0.842121 -5.17695 0
M  V30 4902 H 452.9 0.845334 -5.45489 0
M  V30 4903 H 453.377 1.75772 -4.02493 0
M  V30 4904 H 453.983 0.100979 -4.2518 0
M  V30 4905 N 452.299 1.55045 -0.282633 0
M  V30 4906 C 453.524 2.04628 0.337977 0
M  V30 4907 C 453.949 1.15937 1.48123 0
M  V30 4908 O 453.307 0.159532 1.80597 0
M  V30 4909 C 453.355 3.51854 0.78936 0
M  V30 4910 O 452.459 3.66236 1.89592 0
M  V30 4911 H 451.8 0.660434 0.0687261 0
M  V30 4912 H 454.33 2.00261 -0.419124 0
M  V30 4913 H 454.34 3.93361 1.08311 0
M  V30 4914 H 453.015 4.15873 -0.0470419 0
M  V30 4915 H 451.592 3.36633 1.60413 0
M  V30 4916 N 453.777 0.010035 1.57597 0
M  V30 4917 C 455.025 -0.671371 1.90623 0
M  V30 4918 C 455.346 -1.73753 0.885151 0
M  V30 4919 O 454.616 -1.95752 -0.0760611 0
M  V30 4920 H 453.196 -0.250968 0.703579 0
M  V30 4921 H 455.858 0.0533325 1.94827 0
M  V30 4922 H 454.954 -1.13626 2.90681 0
M  V30 4923 N 455.255 -1.55392 -0.262866 0
M  V30 4924 C 456.485 -1.80251 -1.00961 0
M  V30 4925 C 456.893 -0.58117 -1.80053 0
M  V30 4926 O 456.236 0.459427 -1.77862 0
M  V30 4927 C 456.298 -2.98207 -2.00781 0
M  V30 4928 C 455.962 -4.34856 -1.40533 0
M  V30 4929 C 456.959 -5.13459 -0.815853 0
M  V30 4930 C 454.644 -4.8153 -1.42948 0
M  V30 4931 C 456.638 -6.36875 -0.258562 0
M  V30 4932 C 454.325 -6.04899 -0.868334 0
M  V30 4933 C 455.323 -6.8241 -0.283884 0
M  V30 4934 O 455.011 -8.03451 0.268644 0
M  V30 4935 H 454.743 -0.604049 -0.303482 0
M  V30 4936 H 457.297 -2.03257 -0.295926 0
M  V30 4937 H 455.527 -2.70917 -2.75936 0
M  V30 4938 H 457.216 -3.10299 -2.61667 0
M  V30 4939 H 457.982 -4.78526 -0.789812 0
M  V30 4940 H 453.861 -4.21201 -1.87378 0
M  V30 4941 H 457.405 -6.97318 0.198257 0
M  V30 4942 H 453.302 -6.39312 -0.891649 0
M  V30 4943 H 454.07 -8.18346 0.158974 0
M  V30 4944 N 456.733 0.527833 -1.48498 0
M  V30 4945 C 457.982 1.28003 -1.55878 0
M  V30 4946 C 458.295 1.9414 -0.238577 0
M  V30 4947 O 459.501 2.7083 -0.190643 0
M  V30 4948 C 457.957 2.32272 -2.74914 0
M  V30 4949 C 457.565 1.72196 -4.13585 0
M  V30 4950 C 459.309 3.08488 -2.91608 0
M  V30 4951 C 457.216 2.74417 -5.23879 0
M  V30 4952 H 456.146 0.481413 -0.580308 0
M  V30 4953 H 458.797 0.557195 -1.74836 0
M  V30 4954 H 457.179 3.07601 -2.49395 0
M  V30 4955 H 458.353 1.03041 -4.49132 0
M  V30 4956 H 456.668 1.08464 -4.02025 0
M  V30 4957 H 459.265 3.84879 -3.71177 0
M  V30 4958 H 459.608 3.64481 -2.01145 0
M  V30 4959 H 460.141 2.40274 -3.17038 0
M  V30 4960 H 456.88 2.23242 -6.16314 0
M  V30 4961 H 456.4 3.41893 -4.92818 0
M  V30 4962 H 458.079 3.37362 -5.52083 0
M  V30 4963 N 458.211 1.37122 0.776871 0
M  V30 4964 C 459.622 1.28667 1.35284 0
M  V30 4965 C 459.973 -0.0680035 1.96082 0
M  V30 4966 O 459.098 -0.969743 1.93455 0
M  V30 4967 C 459.693 2.32997 2.45963 0
M  V30 4968 C 458.252 2.28191 2.99342 0
M  V30 4969 C 457.399 2.17101 1.72517 0
M  V30 4970 H 460.35 1.47819 0.577527 0
M  V30 4971 H 460.371 1.97366 3.2531 0
M  V30 4972 H 459.883 3.3158 2.01684 0
M  V30 4973 H 457.984 1.33115 3.4801 0
M  V30 4974 H 458.097 3.21397 3.55304 0
M  V30 4975 H 456.461 1.63562 1.95242 0
M  V30 4976 H 457.244 3.17591 1.30348 0
M  V30 4977 N 459.689 -1.00246 1.21608 0
M  V30 4978 C 460.652 -2.07233 0.979133 0
M  V30 4979 C 461.652 -1.6072 -0.0508219 0
M  V30 4980 O 462.842 -1.73196 0.186712 0
M  V30 4981 C 459.974 -3.37546 0.477016 0
M  V30 4982 H 461.167 -2.29687 1.92831 0
M  V30 4983 H 458.72 -1.17261 1.03342 0
M  V30 4984 H 459.455 -3.20773 -0.476966 0
M  V30 4985 H 459.24 -3.72638 1.21997 0
M  V30 4986 H 460.73 -4.16285 0.331181 0
M  V30 4987 N 461.167 -1.02423 -1.1978 0
M  V30 4988 C 462.583 -0.740459 -1.41384 0
M  V30 4989 C 462.783 0.676827 -1.89793 0
M  V30 4990 O 461.839 1.4435 -2.0717 0
M  V30 4991 C 463.152 -1.77264 -2.42895 0
M  V30 4992 C 464.7 -1.79165 -2.56649 0
M  V30 4993 C 465.175 -2.8133 -3.6141 0
M  V30 4994 N 466.666 -2.80118 -3.68901 0
M  V30 4995 C 467.401 -3.55824 -4.49641 0
M  V30 4996 N 466.897 -4.41231 -5.34123 0
M  V30 4997 N 468.69 -3.44387 -4.44246 0
M  V30 4998 H 460.841 -1.9391 -0.866764 0
M  V30 4999 H 463.104 -0.838074 -0.443098 0
M  V30 5000 H 462.81 -2.7884 -2.14339 0
M  V30 5001 H 462.684 -1.59108 -3.42001 0
M  V30 5002 H 465.071 -0.782702 -2.84531 0
M  V30 5003 H 465.152 -2.01396 -1.57713 0
M  V30 5004 H 464.796 -3.82394 -3.34271 0
M  V30 5005 H 464.726 -2.56359 -4.59986 0
M  V30 5006 H 467.217 -2.1817 -3.08562 0
M  V30 5007 H 467.53 -4.95747 -5.92836 0
M  V30 5008 H 465.875 -4.45306 -5.33599 0
M  V30 5009 H 469.066 -2.7708 -3.77285 0
M  V30 5010 H 469.239 -4.0364 -5.06931 0
M  V30 5011 N 462.645 1.35699 -0.801477 0
M  V30 5012 C 463.575 2.32436 -0.222658 0
M  V30 5013 C 464.556 1.5723 0.649057 0
M  V30 5014 O 465.741 1.85324 0.580387 0
M  V30 5015 C 462.871 3.41469 0.633719 0
M  V30 5016 C 461.825 4.27774 -0.139083 0
M  V30 5017 C 461.151 5.28082 0.838666 0
M  V30 5018 C 462.451 5.04946 -1.33517 0
M  V30 5019 H 464.145 2.81094 -1.03086 0
M  V30 5020 H 461.691 1.35146 -0.497155 0
M  V30 5021 H 463.644 4.08143 1.04868 0
M  V30 5022 H 462.368 2.91408 1.47475 0
M  V30 5023 H 461.027 3.62673 -0.535156 0
M  V30 5024 H 460.675 4.7429 1.67506 0
M  V30 5025 H 460.375 5.86695 0.32594 0
M  V30 5026 H 461.899 5.97628 1.25194 0
M  V30 5027 H 463.313 5.64593 -0.995349 0
M  V30 5028 H 461.71 5.7303 -1.78202 0
M  V30 5029 H 462.78 4.35886 -2.12442 0
M  V30 5030 N 464.123 0.554532 1.47522 0
M  V30 5031 C 465.534 0.120446 1.86311 0
M  V30 5032 C 465.885 -1.30904 1.46145 0
M  V30 5033 O 465.01 -1.98434 0.863294 0
M  V30 5034 C 465.605 0.211808 3.38137 0
M  V30 5035 C 464.164 -0.167224 3.76028 0
M  V30 5036 C 463.311 0.560576 2.71575 0
M  V30 5037 H 466.262 0.764408 1.39077 0
M  V30 5038 H 466.283 -0.570275 3.76202 0
M  V30 5039 H 465.795 1.25232 3.6734 0
M  V30 5040 H 463.896 -1.20894 3.52442 0
M  V30 5041 H 464.009 0.189473 4.78725 0
M  V30 5042 H 462.373 0.00396836 2.547 0
M  V30 5043 H 463.156 1.60219 3.0362 0
M  V30 5044 N 465.601 -1.54893 0.290851 0
M  V30 5045 C 466.85 -1.99111 -0.322113 0
M  V30 5046 C 467.163 -1.18283 -1.55784 0
M  V30 5047 O 468.369 -1.5272 -2.24475 0
M  V30 5048 C 466.825 -3.54442 -0.624438 0
M  V30 5049 C 466.433 -4.44066 0.592373 0
M  V30 5050 C 468.177 -4.07211 -1.19916 0
M  V30 5051 C 466.084 -5.90812 0.263762 0
M  V30 5052 H 465.014 -0.743712 -0.124133 0
M  V30 5053 H 467.665 -1.79132 0.39797 0
M  V30 5054 H 466.047 -3.70281 -1.40384 0
M  V30 5055 H 467.221 -4.39999 1.36886 0
M  V30 5056 H 465.536 -4.02015 1.08502 0
M  V30 5057 H 468.133 -5.14407 -1.45909 0
M  V30 5058 H 468.476 -3.57196 -2.13815 0
M  V30 5059 H 469.009 -3.94873 -0.481687 0
M  V30 5060 H 465.748 -6.44955 1.17105 0
M  V30 5061 H 465.268 -5.97911 -0.475655 0
M  V30 5062 H 466.947 -6.46852 -0.138354 0
M  V30 5063 N 467.08 -0.0183926 -1.57589 0
M  V30 5064 C 468.308 0.673046 -1.95647 0
M  V30 5065 C 468.723 1.66275 -0.894312 0
M  V30 5066 O 468.08 1.82072 0.124975 0
M  V30 5067 C 468.131 1.38884 -3.33756 0
M  V30 5068 O 467.852 0.438806 -4.35897 0
M  V30 5069 C 469.353 2.1731 -3.86383 0
M  V30 5070 H 466.573 0.186292 -0.644621 0
M  V30 5071 H 469.117 -0.0749748 -2.04363 0
M  V30 5072 H 467.272 2.08835 -3.26293 0
M  V30 5073 H 467.686 0.945869 -5.15901 0
M  V30 5074 H 469.16 2.62863 -4.85394 0
M  V30 5075 H 469.637 3.00764 -3.20059 0
M  V30 5076 H 470.243 1.52339 -3.97081 0
M  V30 5077 N 468.558 1.5553 0.254621 0
M  V30 5078 C 469.798 1.7876 0.991179 0
M  V30 5079 C 470.162 0.586669 1.82817 0
M  V30 5080 O 471.363 0.697585 2.5959 0
M  V30 5081 C 469.634 3.06679 1.83529 0
M  V30 5082 S 471.193 3.511 2.632 0
M  V30 5083 H 468.011 0.627916 0.333531 0
M  V30 5084 H 470.613 1.93766 0.259778 0
M  V30 5085 H 469.317 3.92158 1.20996 0
M  V30 5086 H 468.848 2.94388 2.60958 0
M  V30 5087 H 470.863 3.11823 3.8598 0
M  V30 5088 N 470.036 -0.519951 1.48776 0
M  V30 5089 C 470.966 -1.63253 1.66945 0
M  V30 5090 C 471.947 -1.62014 0.518224 0
M  V30 5091 O 473.132 -1.79053 0.751919 0
M  V30 5092 C 470.262 -3.0181 1.71836 0
M  V30 5093 C 469.216 -3.17911 2.8656 0
M  V30 5094 C 468.542 -4.5763 2.76548 0
M  V30 5095 C 469.842 -2.99729 4.27738 0
M  V30 5096 H 471.536 -1.48302 2.6009 0
M  V30 5097 H 469.082 -0.712026 1.25165 0
M  V30 5098 H 471.035 -3.79525 1.83135 0
M  V30 5099 H 469.759 -3.17806 0.752775 0
M  V30 5100 H 468.418 -2.42616 2.74833 0
M  V30 5101 H 468.066 -4.70476 1.77937 0
M  V30 5102 H 467.766 -4.69346 3.53536 0
M  V30 5103 H 469.29 -5.37431 2.89828 0
M  V30 5104 H 470.704 -3.67228 4.40246 0
M  V30 5105 H 469.101 -3.22932 5.05801 0
M  V30 5106 H 470.171 -1.96047 4.43502 0
M  V30 5107 N 471.514 -1.37532 -0.769588 0
M  V30 5108 C 472.742 -1.36059 -1.55871 0
M  V30 5109 C 473.157 0.053544 -1.88724 0
M  V30 5110 O 472.514 1.01591 -1.5161 0
M  V30 5111 C 472.565 -2.20107 -2.86767 0
M  V30 5112 O 472.286 -3.56009 -2.55321 0
M  V30 5113 C 473.787 -2.26636 -3.80987 0
M  V30 5114 H 471.007 -0.465967 -0.482821 0
M  V30 5115 H 473.551 -1.80901 -0.953686 0
M  V30 5116 H 471.706 -1.78768 -3.43687 0
M  V30 5117 H 472.12 -4.0009 -3.39158 0
M  V30 5118 H 473.594 -2.89763 -4.69831 0
M  V30 5119 H 474.071 -1.2754 -4.20274 0
M  V30 5120 H 474.677 -2.68296 -3.29996 0
M  V30 5121 N 472.992 0.995999 -1.22138 0
M  V30 5122 C 474.241 1.72928 -1.03821 0
M  V30 5123 C 474.554 1.90872 0.427444 0
M  V30 5124 O 475.76 2.61496 0.730212 0
M  V30 5125 C 474.216 3.11124 -1.80913 0
M  V30 5126 C 473.824 3.01122 -3.31707 0
M  V30 5127 C 475.568 3.8852 -1.71035 0
M  V30 5128 C 473.475 4.34453 -4.01253 0
M  V30 5129 H 472.405 0.648376 -0.384869 0
M  V30 5130 H 475.056 1.11213 -1.45959 0
M  V30 5131 H 473.438 3.73503 -1.31573 0
M  V30 5132 H 474.612 2.47926 -3.88419 0
M  V30 5133 H 472.927 2.3721 -3.42228 0
M  V30 5134 H 475.524 4.872 -2.20318 0
M  V30 5135 H 475.867 4.1087 -0.670196 0
M  V30 5136 H 476.4 3.32812 -2.17902 0
M  V30 5137 H 473.139 4.17303 -5.05508 0
M  V30 5138 H 472.659 4.87574 -3.49331 0
M  V30 5139 H 474.338 5.03215 -4.06674 0
M  V30 5140 N 474.47 1.03057 1.19235 0
M  V30 5141 C 475.881 0.757449 1.70645 0
M  V30 5142 C 476.232 -0.722735 1.82403 0
M  V30 5143 O 475.357 -1.56325 1.49638 0
M  V30 5144 C 475.952 1.36833 3.09939 0
M  V30 5145 C 474.511 1.14375 3.58602 0
M  V30 5146 C 473.658 1.46533 2.35422 0
M  V30 5147 H 476.609 1.19828 1.04052 0
M  V30 5148 H 476.63 0.766184 3.72706 0
M  V30 5149 H 476.142 2.44562 3.01349 0
M  V30 5150 H 474.243 0.0847542 3.72504 0
M  V30 5151 H 474.356 1.83366 4.42622 0
M  V30 5152 H 472.72 0.884712 2.38841 0
M  V30 5153 H 473.503 2.55349 2.2946 0
M  V30 5154 N 475.948 -1.35272 0.808662 0
M  V30 5155 C 477.359 -1.81179 0.450688 0
M  V30 5156 C 477.71 -1.67143 -1.02751 0
M  V30 5157 O 476.835 -1.20325 -1.79864 0
M  V30 5158 C 477.43 -3.28943 0.811275 0
M  V30 5159 C 475.989 -3.72985 0.505871 0
M  V30 5160 C 475.136 -2.57229 1.03578 0
M  V30 5161 H 478.087 -1.2322 1.00012 0
M  V30 5162 H 478.108 -3.80342 0.109588 0
M  V30 5163 H 477.62 -3.39127 1.88718 0
M  V30 5164 H 475.721 -3.68349 -0.561209 0
M  V30 5165 H 475.834 -4.67677 1.03995 0
M  V30 5166 H 474.198 -2.50548 0.458005 0
M  V30 5167 H 474.981 -2.7019 2.11784 0
M  V30 5168 N 477.426 -0.562348 -1.47226 0
M  V30 5169 C 478.842 -0.222492 -1.58042 0
M  V30 5170 C 479.042 1.27505 -1.56028 0
M  V30 5171 O 478.098 2.05555 -1.46641 0
M  V30 5172 C 479.411 -0.853694 -2.88327 0
M  V30 5173 C 480.959 -0.825397 -3.01921 0
M  V30 5174 C 481.434 -1.43576 -4.34914 0
M  V30 5175 N 482.925 -1.39918 -4.41562 0
M  V30 5176 C 483.66 -1.84103 -5.43041 0
M  V30 5177 N 483.156 -2.36167 -6.51304 0
M  V30 5178 N 484.949 -1.75142 -5.34118 0
M  V30 5179 H 477.1 -1.53525 -1.46778 0
M  V30 5180 H 479.363 -0.640527 -0.698877 0
M  V30 5181 H 479.069 -1.90635 -2.95552 0
M  V30 5182 H 478.943 -0.34977 -3.75575 0
M  V30 5183 H 481.33 0.218583 -2.94289 0
M  V30 5184 H 481.411 -1.36713 -2.16202 0
M  V30 5185 H 481.055 -2.47884 -4.43301 0
M  V30 5186 H 480.985 -0.869427 -5.19373 0
M  V30 5187 H 483.476 -1.0184 -3.63919 0
M  V30 5188 H 483.789 -2.67793 -7.24919 0
M  V30 5189 H 482.134 -2.40181 -6.52179 0
M  V30 5190 H 485.325 -1.34241 -4.48439 0
M  V30 5191 H 485.498 -2.09895 -6.13065 0
M  V30 5192 N 478.904 1.54736 -0.299062 0
M  V30 5193 C 480.151 2.00101 0.310784 0
M  V30 5194 C 480.479 1.18746 1.54045 0
M  V30 5195 O 479.734 0.251198 1.94081 0
M  V30 5196 C 480.033 3.50199 0.713835 0
M  V30 5197 C 479.699 4.48997 -0.413873 0
M  V30 5198 C 478.361 4.7573 -0.723462 0
M  V30 5199 C 480.713 5.07839 -1.17257 0
M  V30 5200 C 478.041 5.5857 -1.79491 0
M  V30 5201 C 480.393 5.91844 -2.23392 0
M  V30 5202 C 479.057 6.16889 -2.54959 0
M  V30 5203 H 478.327 0.732221 0.113724 0
M  V30 5204 H 480.974 1.86888 -0.417756 0
M  V30 5205 H 479.279 3.61012 1.52243 0
M  V30 5206 H 480.976 3.82723 1.19684 0
M  V30 5207 H 477.566 4.28292 -0.162476 0
M  V30 5208 H 481.75 4.87188 -0.946651 0
M  V30 5209 H 477.006 5.76213 -2.04423 0
M  V30 5210 H 481.18 6.36465 -2.8264 0
M  V30 5211 H 478.807 6.80869 -3.38114 0
M  V30 5212 N 480.382 0.0267497 1.57577 0
M  V30 5213 C 481.607 -0.666227 1.96408 0
M  V30 5214 C 482.032 -1.65004 0.903071 0
M  V30 5215 O 481.39 -1.80787 -0.136263 0
M  V30 5216 C 481.438 -1.35101 3.34335 0
M  V30 5217 O 480.542 -2.46623 3.30531 0
M  V30 5218 H 479.883 -0.175206 0.640468 0
M  V30 5219 H 482.413 0.0878977 2.04411 0
M  V30 5220 H 482.423 -1.70834 3.70513 0
M  V30 5221 H 481.098 -0.629844 4.11103 0
M  V30 5222 H 479.675 -2.13019 3.06068 0
M  V30 5223 N 481.861 -1.55662 -0.24637 0
M  V30 5224 C 483.11 -1.7672 -0.972254 0
M  V30 5225 C 483.423 -0.59078 -1.86465 0
M  V30 5226 O 484.629 -0.684391 -2.62732 0
M  V30 5227 C 483.085 -3.12869 -1.7788 0
M  V30 5228 C 482.693 -4.38161 -0.933768 0
M  V30 5229 C 484.437 -3.43265 -2.49738 0
M  V30 5230 C 482.344 -5.6534 -1.73623 0
M  V30 5231 H 481.274 -0.658795 -0.366749 0
M  V30 5232 H 483.925 -1.82092 -0.226902 0
M  V30 5233 H 482.307 -3.01606 -2.56612 0
M  V30 5234 H 483.481 -4.60413 -0.188736 0
M  V30 5235 H 481.796 -4.15102 -0.328488 0
M  V30 5236 H 484.393 -4.35501 -3.10231 0
M  V30 5237 H 484.736 -2.64614 -3.2138 0
M  V30 5238 H 485.269 -3.55746 -1.78016 0
M  V30 5239 H 482.008 -6.46814 -1.06354 0
M  V30 5240 H 481.528 -5.47188 -2.45653 0
M  V30 5241 H 483.207 -6.04616 -2.30323 0
M  V30 5242 N 483.339 0.512053 -1.4905 0
M  V30 5243 C 484.302 1.59704 -1.64399 0
M  V30 5244 C 485.302 1.52285 -0.516317 0
M  V30 5245 O 486.492 1.55635 -0.782527 0
M  V30 5246 C 483.624 2.9935 -1.63102 0
M  V30 5247 H 484.817 1.47428 -2.61161 0
M  V30 5248 H 482.37 0.735469 -1.37915 0
M  V30 5249 H 483.105 3.17116 -0.678836 0
M  V30 5250 H 482.89 3.06144 -2.44986 0
M  V30 5251 H 484.38 3.782 -1.77072 0
M  V30 5252 N 484.817 1.37938 0.762283 0
M  V30 5253 C 486.228 1.30094 1.33912 0
M  V30 5254 C 486.579 -0.0472026 1.96143 0
M  V30 5255 O 485.704 -0.94917 1.94473 0
M  V30 5256 C 486.299 2.35592 2.43478 0
M  V30 5257 C 484.858 2.31353 2.96905 0
M  V30 5258 C 484.005 2.18919 1.70205 0
M  V30 5259 H 486.956 1.48423 0.561816 0
M  V30 5260 H 486.977 2.00806 3.23199 0
M  V30 5261 H 486.489 3.33701 1.98155 0
M  V30 5262 H 484.59 1.36799 3.46579 0
M  V30 5263 H 484.703 3.25147 3.51875 0
M  V30 5264 H 483.067 1.65624 1.93496 0
M  V30 5265 H 483.85 3.18956 1.26973 0
M  V30 5266 N 486.295 -0.989507 1.22664 0
M  V30 5267 C 487.52 -1.77031 1.08051 0
M  V30 5268 C 487.945 -1.84535 -0.364483 0
M  V30 5269 O 487.303 -1.3003 -1.2634 0
M  V30 5270 C 487.351 -3.18 1.70024 0
M  V30 5271 O 486.455 -4.01161 0.956216 0
M  V30 5272 H 485.796 -0.545008 0.379292 0
M  V30 5273 H 488.326 -1.24277 1.62531 0
M  V30 5274 H 488.336 -3.68616 1.74888 0
M  V30 5275 H 487.011 -3.11853 2.75174 0
M  V30 5276 H 485.588 -3.59687 0.98384 0
M  V30 5277 N 487.773 -1.03688 -1.18687 0
M  V30 5278 C 488.998 -0.757819 -1.93059 0
M  V30 5279 C 489.423 0.678353 -1.75442 0
M  V30 5280 O 488.781 1.46938 -1.06203 0
M  V30 5281 C 488.829 -1.12423 -3.42627 0
M  V30 5282 O 487.933 -0.247505 -4.11657 0
M  V30 5283 H 487.274 -0.279245 -0.602427 0
M  V30 5284 H 489.804 -1.3857 -1.5053 0
M  V30 5285 H 489.814 -1.08454 -3.93322 0
M  V30 5286 H 488.489 -2.17049 -3.54771 0
M  V30 5287 H 487.066 -0.34649 -3.71287 0
M  V30 5288 N 489.251 1.34841 -0.815825 0
M  V30 5289 C 490.181 2.32187 -0.247298 0
M  V30 5290 C 491.162 1.5791 0.632344 0
M  V30 5291 O 492.347 1.8593 0.560698 0
M  V30 5292 C 489.477 3.42122 0.597466 0
M  V30 5293 C 488.431 4.27602 -0.184446 0
M  V30 5294 C 487.757 5.28942 0.782609 0
M  V30 5295 C 489.057 5.03502 -1.38865 0
M  V30 5296 H 490.751 2.79985 -1.06061 0
M  V30 5297 H 488.297 1.34611 -0.511461 0
M  V30 5298 H 490.25 4.09232 1.00533 0
M  V30 5299 H 488.974 2.92956 1.44376 0
M  V30 5300 H 487.633 3.62085 -0.573592 0
M  V30 5301 H 487.281 4.7604 1.62466 0
M  V30 5302 H 486.981 5.87008 0.263695 0
M  V30 5303 H 488.505 5.98922 1.18848 0
M  V30 5304 H 489.919 5.63506 -1.05518 0
M  V30 5305 H 488.316 5.71108 -1.8427 0
M  V30 5306 H 489.386 4.33608 -2.17054 0
M  V30 5307 N 490.729 0.570148 1.46925 0
M  V30 5308 C 492.006 -0.0153259 1.95594 0
M  V30 5309 C 492.386 -1.47232 1.51281 0
M  V30 5310 O 491.734 -2.15574 0.757624 0
M  V30 5311 C 491.944 0.143624 3.48704 0
M  V30 5312 C 493.292 0.00494484 4.246 0
M  V30 5313 O 494.316 0.0718214 3.56128 0
M  V30 5314 O 493.175 -0.141175 5.46318 0
M  V30 5315 H 490.269 -0.0568819 0.825041 0
M  V30 5316 H 492.815 0.637583 1.57267 0
M  V30 5317 H 491.587 1.15699 3.73804 0
M  V30 5318 H 491.21 -0.5463 3.93829 0
M  V30 5319 N 492.207 -1.54576 0.307264 0
M  V30 5320 C 493.618 -1.8579 -0.184121 0
M  V30 5321 C 493.969 -1.22914 -1.52927 0
M  V30 5322 O 493.094 -0.529126 -2.09831 0
M  V30 5323 C 493.689 -3.37081 -0.340862 0
M  V30 5324 C 492.248 -3.68304 -0.776465 0
M  V30 5325 C 491.395 -2.77076 0.111503 0
M  V30 5326 H 494.346 -1.49656 0.528078 0
M  V30 5327 H 494.367 -3.61922 -1.17443 0
M  V30 5328 H 493.879 -3.82815 0.638309 0
M  V30 5329 H 491.98 -3.28092 -1.76596 0
M  V30 5330 H 492.093 -4.75434 -0.591512 0
M  V30 5331 H 490.457 -2.51374 -0.410256 0
M  V30 5332 H 491.24 -3.25632 1.08714 0
M  V30 5333 N 493.685 -0.035106 -1.57561 0
M  V30 5334 C 494.91 0.655802 -1.96759 0
M  V30 5335 C 495.335 1.64523 -0.911809 0
M  V30 5336 O 494.693 1.80857 0.126673 0
M  V30 5337 C 494.741 1.33326 -3.35047 0
M  V30 5338 O 493.845 2.44866 -3.31835 0
M  V30 5339 H 493.186 0.171807 -0.641388 0
M  V30 5340 H 495.716 -0.0987369 -2.04362 0
M  V30 5341 H 495.726 1.68867 -3.71413 0
M  V30 5342 H 494.401 0.608033 -4.11431 0
M  V30 5343 H 492.978 2.11392 -3.07193 0
M  V30 5344 N 495.163 1.55791 0.238111 0
M  V30 5345 C 496.111 1.91885 1.31464 0
M  V30 5346 C 497.105 0.798929 1.49377 0
M  V30 5347 O 498.311 0.983626 1.50747 0
M  V30 5348 H 494.686 0.609551 0.440399 0
M  V30 5349 H 496.657 2.81747 0.982925 0
M  V30 5350 C 495.406 2.23763 2.6613 0
M  V30 5351 H 494.729 3.09444 2.53149 0
M  V30 5352 H 496.169 2.52915 3.40309 0
M  V30 5353 C 494.628 1.05699 3.1989 0
M  V30 5354 O 495.158 0.309524 4.00506 0
M  V30 5355 N 493.364 0.845251 2.78036 0
M  V30 5356 H 492.911 1.4548 2.12588 0
M  V30 5357 H 492.869 0.0569973 3.14348 0
M  V30 5358 N 496.642 -0.504142 1.49319 0
M  V30 5359 C 498.058 -0.835039 1.36012 0
M  V30 5360 C 498.258 -1.97674 0.390808 0
M  V30 5361 O 497.314 -2.51867 -0.178655 0
M  V30 5362 C 498.627 -1.17821 2.76656 0
M  V30 5363 C 500.175 -1.2866 2.85334 0
M  V30 5364 C 500.65 -1.66307 4.26739 0
M  V30 5365 N 502.141 -1.73362 4.29534 0
M  V30 5366 C 502.876 -2.0393 5.35911 0
M  V30 5367 N 502.372 -2.32744 6.52535 0
M  V30 5368 N 504.165 -2.05155 5.23324 0
M  V30 5369 H 496.316 0.248764 2.10938 0
M  V30 5370 H 498.579 0.0486962 0.946748 0
M  V30 5371 H 498.285 -0.412682 3.4927 0
M  V30 5372 H 498.159 -2.12239 3.11825 0
M  V30 5373 H 500.546 -2.04285 2.1296 0
M  V30 5374 H 500.627 -0.323004 2.53752 0
M  V30 5375 H 500.271 -0.91234 4.99639 0
M  V30 5376 H 500.201 -2.63761 4.55782 0
M  V30 5377 H 502.692 -1.53268 3.45424 0
M  V30 5378 H 503.005 -2.55248 7.2943 0
M  V30 5379 H 501.35 -2.30207 6.55767 0
M  V30 5380 H 504.541 -1.82119 4.3122 0
M  V30 5381 H 504.714 -2.28644 6.06322 0
M  V30 5382 N 498.12 -1.38341 -0.754957 0
M  V30 5383 C 499.067 -1.3546 -1.86867 0
M  V30 5384 C 500.037 -0.217369 -1.64672 0
M  V30 5385 O 501.222 -0.409383 -1.86356 0
M  V30 5386 C 498.362 -1.18413 -3.24149 0
M  V30 5387 C 497.475 -2.41511 -3.58185 0
M  V30 5388 C 496.61 -2.17205 -4.84763 0
M  V30 5389 C 495.649 -3.36081 -5.11582 0
M  V30 5390 N 494.786 -3.11219 -6.29354 0
M  V30 5391 H 499.626 -2.30672 -1.88664 0
M  V30 5392 H 497.163 -1.14607 -0.922154 0
M  V30 5393 H 499.121 -1.06545 -4.03366 0
M  V30 5394 H 497.751 -0.268397 -3.21682 0
M  V30 5395 H 496.803 -2.64056 -2.73822 0
M  V30 5396 H 498.115 -3.30115 -3.73932 0
M  V30 5397 H 497.269 -2.02465 -5.7192 0
M  V30 5398 H 496.008 -1.25964 -4.71152 0
M  V30 5399 H 495.013 -3.51341 -4.22894 0
M  V30 5400 H 496.238 -4.28196 -5.27091 0
M  V30 5401 H 494.184 -2.22624 -6.17069 0
M  V30 5402 H 494.101 -3.93373 -6.45596 0
M  V30 5403 H 495.369 -3.00132 -7.19403 0
M  V30 5404 N 499.598 0.982988 -1.23187 0
M  V30 5405 C 501.009 1.53847 -1.05773 0
M  V30 5406 C 501.36 1.92568 0.375744 0
M  V30 5407 O 500.485 1.75783 1.26211 0
M  V30 5408 C 501.08 2.79567 -1.91384 0
M  V30 5409 C 499.639 3.31524 -1.78238 0
M  V30 5410 C 498.786 2.04534 -1.87246 0
M  V30 5411 H 501.737 0.802962 -1.36888 0
M  V30 5412 H 501.758 3.52317 -1.43711 0
M  V30 5413 H 501.27 2.51353 -2.95708 0
M  V30 5414 H 499.371 3.64623 -0.766875 0
M  V30 5415 H 499.484 4.01457 -2.61475 0
M  V30 5416 H 497.848 2.1855 -1.30797 0
M  V30 5417 H 498.631 1.78706 -2.9312 0
M  V30 5418 N 501.076 1.04316 1.18135 0
M  V30 5419 C 502.006 0.657299 2.24058 0
M  V30 5420 C 502.987 -0.340678 1.66654 0
M  V30 5421 O 504.172 -0.220223 1.92947 0
M  V30 5422 C 501.302 0.0220715 3.47293 0
M  V30 5423 C 500.256 0.943857 4.17463 0
M  V30 5424 C 499.582 0.172973 5.3442 0
M  V30 5425 C 500.882 2.26409 4.70677 0
M  V30 5426 H 502.576 1.5428 2.56589 0
M  V30 5427 H 500.122 0.743263 1.23335 0
M  V30 5428 H 502.075 -0.259607 4.206 0
M  V30 5429 H 500.799 -0.898323 3.14003 0
M  V30 5430 H 499.458 1.20996 3.46057 0
M  V30 5431 H 499.106 -0.749907 4.97379 0
M  V30 5432 H 498.806 0.787098 5.82304 0
M  V30 5433 H 500.33 -0.101628 6.10515 0
M  V30 5434 H 501.744 2.04294 5.35665 0
M  V30 5435 H 500.141 2.8314 5.29105 0
M  V30 5436 H 501.211 2.90883 3.87962 0
M  V30 5437 N 502.554 -1.34406 0.822964 0
M  V30 5438 C 503.782 -2.02508 0.424039 0
M  V30 5439 C 504.197 -1.61975 -0.970022 0
M  V30 5440 O 503.554 -0.825228 -1.62777 0
M  V30 5441 C 503.605 -3.57789 0.516657 0
M  V30 5442 O 503.326 -3.96853 1.85577 0
M  V30 5443 C 504.827 -4.43157 0.112637 0
M  V30 5444 H 502.047 -0.649063 0.170173 0
M  V30 5445 H 504.591 -1.7168 1.11113 0
M  V30 5446 H 502.746 -3.87207 -0.122353 0
M  V30 5447 H 503.16 -4.91538 1.83005 0
M  V30 5448 H 504.634 -5.51527 0.228526 0
M  V30 5449 H 505.111 -4.28939 -0.943837 0
M  V30 5450 H 505.717 -4.19067 0.725449 0
M  V30 5451 N 504.032 -0.577932 -1.46621 0
M  V30 5452 C 505.278 -0.0617793 -2.02706 0
M  V30 5453 C 505.611 1.29294 -1.44903 0
M  V30 5454 O 504.886 1.8461 -0.61232 0
M  V30 5455 C 505.169 0.00911824 -3.60099 0
M  V30 5456 C 505.022 -1.37416 -4.28295 0
M  V30 5457 C 506.341 0.712159 -4.343 0
M  V30 5458 H 503.46 -0.0239246 -0.736612 0
M  V30 5459 H 506.102 -0.744211 -1.74818 0
M  V30 5460 H 504.252 0.590292 -3.83989 0
M  V30 5461 H 505.924 -2.00013 -4.15683 0
M  V30 5462 H 504.167 -1.94319 -3.87843 0
M  V30 5463 H 504.838 -1.27707 -5.37024 0
M  V30 5464 H 507.314 0.218486 -4.15526 0
M  V30 5465 H 506.19 0.730782 -5.44014 0
M  V30 5466 H 506.451 1.77251 -4.05012 0
M  V30 5467 N 505.51 1.54411 -0.315457 0
M  V30 5468 C 506.44 2.27002 0.547039 0
M  V30 5469 C 507.421 1.27492 1.12605 0
M  V30 5470 O 508.606 1.5629 1.15269 0
M  V30 5471 C 505.736 3.02171 1.71201 0
M  V30 5472 C 504.69 4.0895 1.26268 0
M  V30 5473 C 504.016 4.71915 2.51396 0
M  V30 5474 C 505.316 5.20891 0.383419 0
M  V30 5475 H 507.01 2.99343 -0.0584517 0
M  V30 5476 H 504.556 1.4397 -0.0295527 0
M  V30 5477 H 506.509 3.51681 2.32161 0
M  V30 5478 H 505.233 2.27433 2.34397 0
M  V30 5479 H 503.892 3.60312 0.676062 0
M  V30 5480 H 503.54 3.93801 3.12937 0
M  V30 5481 H 503.24 5.44039 2.22026 0
M  V30 5482 H 504.764 5.24195 3.13133 0
M  V30 5483 H 506.178 5.66206 0.899082 0
M  V30 5484 H 504.575 5.99821 0.182857 0
M  V30 5485 H 505.645 4.81324 -0.587821 0
M  V30 5486 N 506.988 0.0434614 1.5754 0
M  V30 5487 C 507.936 -0.951465 2.1225 0
M  V30 5488 C 508.93 -1.3274 1.05245 0
M  V30 5489 O 510.136 -1.30795 1.23663 0
M  V30 5490 H 506.511 -0.324667 0.678303 0
M  V30 5491 H 508.482 -0.464855 2.94757 0
M  V30 5492 C 507.231 -2.21972 2.67626 0
M  V30 5493 H 506.554 -1.93923 3.4962 0
M  V30 5494 H 507.994 -2.89765 3.09536 0
M  V30 5495 C 506.453 -2.95919 1.61038 0
M  V30 5496 O 506.983 -3.8857 1.01862 0
M  V30 5497 N 505.189 -2.58511 1.32741 0
M  V30 5498 H 504.736 -1.83244 1.81051 0
M  V30 5499 H 504.694 -3.08296 0.616531 0
M  V30 5500 N 508.466 -1.55915 -0.229846 0
M  V30 5501 C 509.413 -1.91734 -1.28478 0
M  V30 5502 C 510.383 -0.773539 -1.46988 0
M  V30 5503 O 511.568 -1.02871 -1.60693 0
M  V30 5504 C 508.708 -2.23224 -2.63182 0
M  V30 5505 C 507.821 -3.50497 -2.52539 0
M  V30 5506 C 506.956 -3.71474 -3.79711 0
M  V30 5507 C 505.995 -4.92289 -3.63755 0
M  V30 5508 N 505.132 -5.09698 -4.82858 0
M  V30 5509 H 509.972 -2.81692 -0.972308 0
M  V30 5510 H 507.509 -1.39429 -0.468815 0
M  V30 5511 H 509.467 -2.3949 -3.41614 0
M  V30 5512 H 508.097 -1.36451 -2.92542 0
M  V30 5513 H 507.149 -3.4247 -1.65585 0
M  V30 5514 H 508.461 -4.39079 -2.36666 0
M  V30 5515 H 507.615 -3.87791 -4.66586 0
M  V30 5516 H 506.354 -2.81157 -3.985 0
M  V30 5517 H 505.359 -4.7593 -2.75264 0
M  V30 5518 H 506.584 -5.84083 -3.46445 0
M  V30 5519 H 504.53 -4.22322 -5.01976 0
M  V30 5520 H 504.447 -5.92399 -4.69681 0
M  V30 5521 H 505.715 -5.30443 -5.71183 0
M  V30 5522 N 509.944 0.496216 -1.49584 0
M  V30 5523 C 511.192 1.24756 -1.58998 0
M  V30 5524 C 511.513 1.92968 -0.280775 0
M  V30 5525 O 510.783 1.82959 0.700198 0
M  V30 5526 H 509.363 0.463471 -0.585836 0
M  V30 5527 H 512.025 0.574678 -1.86235 0
M  V30 5528 H 511.121 2.00895 -2.38847 0
M  V30 5529 N 511.423 1.38739 0.74761 0
M  V30 5530 C 512.353 1.39173 1.87492 0
M  V30 5531 C 513.334 0.256794 1.6815 0
M  V30 5532 O 514.519 0.460762 1.88655 0
M  V30 5533 C 511.649 1.22197 3.25093 0
M  V30 5534 C 510.603 2.32957 3.59047 0
M  V30 5535 C 509.929 2.01082 4.95449 0
M  V30 5536 C 511.229 3.75237 3.6331 0
M  V30 5537 H 512.923 2.3351 1.87386 0
M  V30 5538 H 510.469 1.12399 0.900134 0
M  V30 5539 H 512.422 1.21124 4.03617 0
M  V30 5540 H 511.146 0.243241 3.25693 0
M  V30 5541 H 509.805 2.33226 2.82845 0
M  V30 5542 H 509.453 1.01678 4.92616 0
M  V30 5543 H 509.153 2.75267 5.19136 0
M  V30 5544 H 510.677 2.01638 5.76346 0
M  V30 5545 H 512.091 3.76966 4.31937 0
M  V30 5546 H 510.488 4.48677 3.98509 0
M  V30 5547 H 511.558 4.07122 2.634 0
M  V30 5548 N 512.901 -0.976442 1.23707 0
M  V30 5549 C 513.811 -2.10359 1.03856 0
M  V30 5550 C 514.827 -1.73991 -0.0180919 0
M  V30 5551 O 516.003 -2.0061 0.178211 0
M  V30 5552 C 513.068 -3.40809 0.636387 0
M  V30 5553 C 512.129 -3.91179 1.76854 0
M  V30 5554 C 511.362 -5.15404 1.38546 0
M  V30 5555 O 511.585 -5.69754 0.27142 0
M  V30 5556 O 510.519 -5.5994 2.20797 0
M  V30 5557 H 514.345 -2.29997 1.98331 0
M  V30 5558 H 511.93 -1.08742 1.02448 0
M  V30 5559 H 513.812 -4.19269 0.423223 0
M  V30 5560 H 512.487 -3.22493 -0.279322 0
M  V30 5561 H 511.394 -3.13819 2.03638 0
M  V30 5562 H 512.727 -4.13958 2.6627 0
M  V30 5563 N 514.379 -1.04941 -1.1758 0
M  V30 5564 C 515.327 -0.64204 -2.23563 0
M  V30 5565 C 516.321 0.335453 -1.66045 0
M  V30 5566 O 517.527 0.20179 -1.78865 0
M  V30 5567 H 513.902 -0.18944 -0.727748 0
M  V30 5568 H 515.873 -1.54609 -2.55223 0
M  V30 5569 C 514.622 -0.0301051 -3.47687 0
M  V30 5570 H 513.945 -0.773339 -3.92249 0
M  V30 5571 H 515.385 0.217592 -4.23441 0
M  V30 5572 C 513.844 1.2225 -3.13937 0
M  V30 5573 O 514.374 2.3122 -3.28482 0
M  V30 5574 N 512.58 1.11917 -2.68185 0
M  V30 5575 H 512.127 0.232403 -2.5655 0
M  V30 5576 H 512.085 1.95814 -2.45976 0
M  V30 5577 N 515.857 1.33968 -0.830081 0
M  V30 5578 C 517.268 1.80439 -0.479455 0
M  V30 5579 C 517.619 1.68756 1.00079 0
M  V30 5580 O 516.744 1.23171 1.77927 0
M  V30 5581 C 517.339 3.27611 -0.863505 0
M  V30 5582 C 515.898 3.72133 -0.565145 0
M  V30 5583 C 515.045 2.55549 -1.07657 0
M  V30 5584 H 517.996 1.21614 -1.0196 0
M  V30 5585 H 518.017 3.8012 -0.170083 0
M  V30 5586 H 517.529 3.36082 -1.94089 0
M  V30 5587 H 515.63 3.69196 0.502536 0
M  V30 5588 H 515.743 4.65963 -1.11422 0
M  V30 5589 H 514.107 2.49788 -0.497807 0
M  V30 5590 H 514.89 2.66786 -2.16055 0
M  V30 5591 N 517.335 0.585699 1.46312 0
M  V30 5592 C 518.265 -0.133556 2.33118 0
M  V30 5593 C 519.246 -0.880707 1.45525 0
M  V30 5594 O 520.431 -0.855579 1.74337 0
M  V30 5595 C 517.561 -1.14585 3.27853 0
M  V30 5596 C 516.515 -0.513341 4.2491 0
M  V30 5597 C 515.841 -1.63231 5.09175 0
M  V30 5598 C 517.141 0.551413 5.19381 0
M  V30 5599 H 518.835 0.59121 2.93505 0
M  V30 5600 H 516.381 0.285761 1.41136 0
M  V30 5601 H 518.334 -1.65741 3.87438 0
M  V30 5602 H 517.058 -1.90093 2.65579 0
M  V30 5603 H 515.717 -0.0228349 3.66593 0
M  V30 5604 H 515.365 -2.37713 4.43285 0
M  V30 5605 H 515.065 -1.21473 5.74907 0
M  V30 5606 H 516.589 -2.14658 5.71624 0
M  V30 5607 H 518.003 0.124804 5.73164 0
M  V30 5608 H 516.4 0.889486 5.93471 0
M  V30 5609 H 517.47 1.43655 4.63132 0
M  V30 5610 N 518.813 -1.54241 0.323641 0
M  V30 5611 C 520.224 -1.85975 -0.164405 0
M  V30 5612 C 520.575 -1.24529 -1.51615 0
M  V30 5613 O 519.7 -0.551351 -2.09258 0
M  V30 5614 C 520.295 -3.37424 -0.305091 0
M  V30 5615 C 518.854 -3.69107 -0.737358 0
M  V30 5616 C 518.001 -2.76942 0.140884 0
M  V30 5617 H 520.952 -1.49088 0.543922 0
M  V30 5618 H 520.973 -3.63147 -1.13598 0
M  V30 5619 H 520.485 -3.82116 0.678876 0
M  V30 5620 H 518.586 -3.29947 -1.73107 0
M  V30 5621 H 518.699 -4.76035 -0.541053 0
M  V30 5622 H 517.063 -2.51795 -0.383572 0
M  V30 5623 H 517.846 -3.24461 1.12162 0
M  V30 5624 N 520.291 -0.0518155 -1.57515 0
M  V30 5625 C 521.201 0.937539 -2.15052 0
M  V30 5626 C 522.217 1.34121 -1.10849 0
M  V30 5627 O 523.393 1.418 -1.4302 0
M  V30 5628 C 520.458 2.19379 -2.68466 0
M  V30 5629 C 519.519 1.84841 -3.87469 0
M  V30 5630 C 518.752 3.04477 -4.38326 0
M  V30 5631 O 518.975 4.17868 -3.88256 0
M  V30 5632 O 517.909 2.85453 -5.29906 0
M  V30 5633 H 521.735 0.478201 -2.99912 0
M  V30 5634 H 519.32 0.17012 -1.48428 0
M  V30 5635 H 521.202 2.93084 -3.02787 0
M  V30 5636 H 519.877 2.64449 -1.86677 0
M  V30 5637 H 518.784 1.08449 -3.58036 0
M  V30 5638 H 520.117 1.44569 -4.7049 0
M  V30 5639 N 521.769 1.56035 0.221574 0
M  V30 5640 C 523.185 1.49026 0.571271 0
M  V30 5641 C 523.385 0.746912 1.87146 0
M  V30 5642 O 522.441 0.286566 2.50869 0
M  V30 5643 C 523.754 2.93579 0.650522 0
M  V30 5644 C 525.302 3.04099 0.741151 0
M  V30 5645 C 525.777 4.5001 0.851747 0
M  V30 5646 N 527.268 4.54053 0.915968 0
M  V30 5647 C 528.003 5.64232 1.02125 0
M  V30 5648 N 527.499 6.84164 1.09049 0
M  V30 5649 N 529.292 5.52084 1.05639 0
M  V30 5650 H 521.443 2.02791 -0.63162 0
M  V30 5651 H 523.706 0.921736 -0.221602 0
M  V30 5652 H 523.412 3.50912 -0.235253 0
M  V30 5653 H 523.286 3.45476 1.51413 0
M  V30 5654 H 525.673 2.4683 1.61737 0
M  V30 5655 H 525.754 2.55371 -0.148128 0
M  V30 5656 H 525.398 5.07896 -0.0200117 0
M  V30 5657 H 525.328 4.96444 1.75644 0
M  V30 5658 H 527.819 3.67683 0.872782 0
M  V30 5659 H 528.132 7.63883 1.1706 0
M  V30 5660 H 526.477 6.86875 1.05962 0
M  V30 5661 H 529.668 4.57317 0.998953 0
M  V30 5662 H 529.841 6.37983 1.13498 0
M  V30 5663 N 523.247 -0.488276 1.49845 0
M  V30 5664 C 524.658 -1.06955 1.53028 0
M  V30 5665 C 525.009 -1.9351 0.323797 0
M  V30 5666 O 524.134 -2.08891 -0.565116 0
M  V30 5667 C 524.729 -1.94643 2.77307 0
M  V30 5668 C 523.288 -2.4791 2.83227 0
M  V30 5669 C 522.435 -1.25833 2.47106 0
M  V30 5670 H 525.386 -0.271626 1.56358 0
M  V30 5671 H 525.407 -2.79496 2.5819 0
M  V30 5672 H 524.919 -1.31621 3.65099 0
M  V30 5673 H 523.02 -3.14535 1.99745 0
M  V30 5674 H 523.133 -2.84193 3.85709 0
M  V30 5675 H 521.497 -1.58764 1.99163 0
M  V30 5676 H 522.28 -0.644993 3.37186 0
M  V30 5677 N 524.725 -1.39134 -0.740242 0
M  V30 5678 C 526.141 -1.20623 -1.0451 0
M  V30 5679 C 526.341 -0.0641651 -2.01398 0
M  V30 5680 O 525.397 0.585843 -2.4561 0
M  V30 5681 C 526.71 -2.53815 -1.6124 0
M  V30 5682 C 528.258 -2.60615 -1.73346 0
M  V30 5683 C 528.733 -3.94015 -2.33486 0
M  V30 5684 N 530.224 -3.95627 -2.40902 0
M  V30 5685 C 530.959 -4.95616 -2.88361 0
M  V30 5686 N 530.455 -6.06003 -3.35756 0
M  V30 5687 N 532.248 -4.82998 -2.87523 0
M  V30 5688 H 524.399 -2.12176 -0.0975576 0
M  V30 5689 H 526.662 -0.942066 -0.105904 0
M  V30 5690 H 526.368 -3.37911 -0.975144 0
M  V30 5691 H 526.242 -2.73162 -2.6012 0
M  V30 5692 H 528.629 -1.76906 -2.36195 0
M  V30 5693 H 528.71 -2.45123 -0.731336 0
M  V30 5694 H 528.354 -4.78153 -1.71267 0
M  V30 5695 H 528.284 -4.06825 -3.34366 0
M  V30 5696 H 530.775 -3.15903 -2.07398 0
M  V30 5697 H 531.088 -6.78215 -3.70464 0
M  V30 5698 H 529.433 -6.09604 -3.33778 0
M  V30 5699 H 532.624 -3.95866 -2.49816 0
M  V30 5700 H 532.797 -5.61072 -3.24196 0
M  V30 5701 N 526.204 0.969867 -1.24223 0
M  V30 5702 C 527.114 2.09806 -1.0497 0
M  V30 5703 C 528.13 1.73998 0.00886455 0
M  V30 5704 O 529.306 2.00513 -0.188848 0
M  V30 5705 C 526.371 3.40467 -0.654452 0
M  V30 5706 C 525.432 3.90236 -1.78926 0
M  V30 5707 C 524.665 5.14662 -1.41277 0
M  V30 5708 O 524.888 5.69602 -0.301632 0
M  V30 5709 O 523.822 5.58761 -2.23763 0
M  V30 5710 H 527.648 2.28942 -1.99548 0
M  V30 5711 H 525.233 1.08197 -1.03023 0
M  V30 5712 H 527.115 4.19039 -0.445452 0
M  V30 5713 H 525.79 3.22636 0.262216 0
M  V30 5714 H 524.697 3.12735 -2.05299 0
M  V30 5715 H 526.03 4.1254 -2.68462 0
M  V30 5716 N 527.682 1.05563 1.17022 0
M  V30 5717 C 528.629 0.659893 2.21165 0
M  V30 5718 C 529.599 -0.339813 1.62587 0
M  V30 5719 O 530.784 -0.230378 1.89404 0
M  V30 5720 C 527.924 0.0447297 3.45071 0
M  V30 5721 C 527.037 1.09372 4.17926 0
M  V30 5722 C 526.172 0.445481 5.29329 0
M  V30 5723 C 525.211 1.47852 5.93975 0
M  V30 5724 N 524.348 0.854172 6.96885 0
M  V30 5725 H 529.188 1.55243 2.54369 0
M  V30 5726 H 526.725 0.776336 1.24946 0
M  V30 5727 H 528.683 -0.329404 4.15898 0
M  V30 5728 H 527.313 -0.811244 3.1244 0
M  V30 5729 H 526.365 1.58564 3.45777 0
M  V30 5730 H 527.677 1.87773 4.62107 0
M  V30 5731 H 526.831 0.0179688 6.06697 0
M  V30 5732 H 525.57 -0.370481 4.86291 0
M  V30 5733 H 524.575 1.91601 5.15334 0
M  V30 5734 H 525.8 2.29645 6.39093 0
M  V30 5735 H 523.746 0.0587882 6.55974 0
M  V30 5736 H 523.663 1.57567 7.39397 0
M  V30 5737 H 524.931 0.451559 7.78191 0
M  V30 5738 N 529.16 -1.33526 0.837174 0
M  V30 5739 C 530.07 -2.33023 0.271568 0
M  V30 5740 C 531.086 -1.63272 -0.601514 0
M  V30 5741 O 532.262 -1.94939 -0.506038 0
M  V30 5742 C 529.327 -3.42382 -0.545448 0
M  V30 5743 C 528.388 -4.27857 0.351709 0
M  V30 5744 C 527.621 -5.31994 -0.426409 0
M  V30 5745 O 527.844 -5.45763 -1.65828 0
M  V30 5746 O 526.778 -6.01572 0.1987 0
M  V30 5747 H 530.604 -2.83256 1.09545 0
M  V30 5748 H 528.189 -1.36837 0.599655 0
M  V30 5749 H 530.071 -4.09122 -1.00979 0
M  V30 5750 H 528.746 -2.94369 -1.34641 0
M  V30 5751 H 527.653 -3.6399 0.863853 0
M  V30 5752 H 528.986 -4.79349 1.1174 0
M  V30 5753 N 530.638 -0.59345 -1.46 0
M  V30 5754 C 531.548 0.135817 -2.34207 0
M  V30 5755 C 532.564 0.875008 -1.50398 0
M  V30 5756 O 533.74 0.835778 -1.83239 0
M  V30 5757 C 530.805 1.12977 -3.27776 0
M  V30 5758 C 529.866 0.394081 -4.27487 0
M  V30 5759 C 529.099 1.34068 -5.16586 0
M  V30 5760 O 529.322 2.5778 -5.08828 0
M  V30 5761 O 528.256 0.845426 -5.95933 0
M  V30 5762 H 532.082 -0.588691 -2.9794 0
M  V30 5763 H 529.667 -0.353784 -1.45151 0
M  V30 5764 H 531.549 1.70261 -3.85473 0
M  V30 5765 H 530.224 1.83556 -2.66625 0
M  V30 5766 H 529.131 -0.220869 -3.73447 0
M  V30 5767 H 530.464 -0.270939 -4.91454 0
M  V30 5768 N 532.116 1.54067 -0.331816 0
M  V30 5769 C 533.527 1.86059 0.15454 0
M  V30 5770 C 533.878 1.25331 1.50952 0
M  V30 5771 O 533.003 0.562441 2.08963 0
M  V30 5772 C 533.598 3.37581 0.287192 0
M  V30 5773 C 532.157 3.69493 0.717773 0
M  V30 5774 C 531.304 2.76863 -0.155569 0
M  V30 5775 H 534.255 1.48797 -0.55182 0
M  V30 5776 H 534.276 3.63744 1.11671 0
M  V30 5777 H 533.788 3.81751 -0.699131 0
M  V30 5778 H 531.889 3.3086 1.71354 0
M  V30 5779 H 532.002 4.76315 0.5158 0
M  V30 5780 H 530.366 2.51995 0.370213 0
M  V30 5781 H 531.149 3.23861 -1.13881 0
M  V30 5782 N 533.594 0.0601682 1.57485 0
M  V30 5783 C 534.84 -0.612501 1.93329 0
M  V30 5784 C 535.173 -1.6996 0.939526 0
M  V30 5785 O 534.448 -1.94472 -0.0330957 0
M  V30 5786 C 534.731 -1.20025 3.39508 0
M  V30 5787 C 534.584 -0.12059 4.49638 0
M  V30 5788 C 535.903 -2.10923 3.86264 0
M  V30 5789 H 533.022 -0.221185 0.703027 0
M  V30 5790 H 535.664 0.123768 1.89596 0
M  V30 5791 H 533.814 -1.82774 3.42821 0
M  V30 5792 H 535.486 0.51185 4.58452 0
M  V30 5793 H 533.729 0.550251 4.30296 0
M  V30 5794 H 534.4 -0.572019 5.49028 0
M  V30 5795 H 536.876 -1.58124 3.84884 0
M  V30 5796 H 535.752 -2.48987 4.8918 0
M  V30 5797 H 536.013 -3.01292 3.23536 0
M  V30 5798 N 535.072 -1.5615 -0.213296 0
M  V30 5799 C 536.318 -1.79812 -0.937849 0
M  V30 5800 C 536.651 -0.631201 -1.83656 0
M  V30 5801 O 535.926 0.369165 -1.90964 0
M  V30 5802 C 536.209 -3.13613 -1.76972 0
M  V30 5803 C 536.062 -4.40766 -0.89695 0
M  V30 5804 C 537.381 -3.43931 -2.7459 0
M  V30 5805 H 534.5 -0.654138 -0.339518 0
M  V30 5806 H 537.142 -1.88877 -0.20623 0
M  V30 5807 H 535.292 -3.06015 -2.39347 0
M  V30 5808 H 536.964 -4.60392 -0.289306 0
M  V30 5809 H 535.207 -4.33326 -0.202756 0
M  V30 5810 H 535.878 -5.30843 -1.51358 0
M  V30 5811 H 538.354 -3.5171 -2.22349 0
M  V30 5812 H 537.23 -4.38706 -3.29891 0
M  V30 5813 H 537.491 -2.6651 -3.52739 0
M  V30 5814 N 536.55 0.480323 -1.50102 0
M  V30 5815 C 537.966 0.813295 -1.37323 0
M  V30 5816 C 538.166 1.97027 -0.422206 0
M  V30 5817 O 537.222 2.5212 0.138563 0
M  V30 5818 C 538.535 1.13404 -2.78496 0
M  V30 5819 C 540.083 1.24104 -2.87345 0
M  V30 5820 C 540.558 1.59497 -4.29331 0
M  V30 5821 N 542.049 1.66507 -4.32238 0
M  V30 5822 C 542.784 1.95378 -5.39087 0
M  V30 5823 N 542.28 2.22333 -6.56155 0
M  V30 5824 N 544.073 1.96803 -5.26522 0
M  V30 5825 H 536.224 -0.282291 -2.10516 0
M  V30 5826 H 538.487 -0.063752 -0.945854 0
M  V30 5827 H 538.193 0.357064 -3.49883 0
M  V30 5828 H 538.067 2.07251 -3.15162 0
M  V30 5829 H 540.454 2.00871 -2.16183 0
M  V30 5830 H 540.535 0.282593 -2.54234 0
M  V30 5831 H 540.179 0.832736 -5.01027 0
M  V30 5832 H 540.109 2.56477 -4.59921 0
M  V30 5833 H 542.6 1.47753 -3.47818 0
M  V30 5834 H 542.913 2.43611 -7.33399 0
M  V30 5835 H 541.258 2.19745 -6.59346 0
M  V30 5836 H 544.449 1.75235 -4.34062 0
M  V30 5837 H 544.622 2.18969 -6.09883 0
M  V30 5838 N 538.028 1.39524 0.732853 0
M  V30 5839 C 538.938 1.40695 1.87729 0
M  V30 5840 C 539.954 0.301496 1.71368 0
M  V30 5841 O 541.13 0.543313 1.93933 0
M  V30 5842 C 538.195 1.25098 3.23344 0
M  V30 5843 C 537.256 2.45634 3.52083 0
M  V30 5844 C 536.489 2.30772 4.81228 0
M  V30 5845 O 536.712 1.31233 5.55098 0
M  V30 5846 O 535.646 3.19799 5.09914 0
M  V30 5847 H 539.472 2.37168 1.89697 0
M  V30 5848 H 537.057 1.20663 0.880959 0
M  V30 5849 H 538.939 1.18541 4.04383 0
M  V30 5850 H 537.614 0.317209 3.22142 0
M  V30 5851 H 536.521 2.57767 2.71122 0
M  V30 5852 H 537.854 3.37712 3.58066 0
M  V30 5853 N 539.506 -0.963266 1.24736 0
M  V30 5854 C 540.734 -1.74166 1.11686 0
M  V30 5855 C 541.149 -1.8589 -0.330187 0
M  V30 5856 O 540.506 -1.35042 -1.2276 0
M  V30 5857 C 540.557 -3.15989 1.75595 0
M  V30 5858 O 540.278 -3.04847 3.14642 0
M  V30 5859 C 541.779 -4.10145 1.68213 0
M  V30 5860 H 538.999 -0.546031 0.389989 0
M  V30 5861 H 541.543 -1.20907 1.64929 0
M  V30 5862 H 539.698 -3.66219 1.26343 0
M  V30 5863 H 540.112 -3.9425 3.4593 0
M  V30 5864 H 541.586 -5.07299 2.17604 0
M  V30 5865 H 542.063 -4.3445 0.644208 0
M  V30 5866 H 542.669 -3.65827 2.16912 0
M  V30 5867 N 540.985 -1.06182 -1.16461 0
M  V30 5868 C 542.233 -0.776326 -1.86595 0
M  V30 5869 C 542.554 0.69921 -1.82033 0
M  V30 5870 O 541.824 1.50579 -1.2531 0
M  V30 5871 H 540.404 -0.284184 -0.690832 0
M  V30 5872 H 543.066 -1.34308 -1.41235 0
M  V30 5873 H 542.162 -1.10022 -2.92064 0
M  V30 5874 N 542.463 1.3308 -0.844243 0
M  V30 5875 C 543.373 2.32876 -0.283922 0
M  V30 5876 C 544.389 1.63589 0.592846 0
M  V30 5877 O 545.565 1.95205 0.495693 0
M  V30 5878 C 542.63 3.42667 0.527283 0
M  V30 5879 C 541.691 4.27664 -0.374394 0
M  V30 5880 C 540.924 5.32212 0.39819 0
M  V30 5881 O 541.147 5.46635 1.62932 0
M  V30 5882 O 540.081 6.01458 -0.2306 0
M  V30 5883 H 543.907 2.82671 -1.11045 0
M  V30 5884 H 541.492 1.36518 -0.606903 0
M  V30 5885 H 543.374 4.09652 0.988078 0
M  V30 5886 H 542.049 2.95079 1.33078 0
M  V30 5887 H 540.956 3.63526 -0.883144 0
M  V30 5888 H 542.289 4.78749 -1.1428 0
M  V30 5889 N 543.941 0.601185 1.45683 0
M  V30 5890 C 545.187 0.0940202 2.02582 0
M  V30 5891 C 545.52 -1.26972 1.46941 0
M  V30 5892 O 544.795 -1.83613 0.641612 0
M  V30 5893 C 545.078 0.0481715 3.60068 0
M  V30 5894 C 544.931 1.44212 4.26055 0
M  V30 5895 C 546.25 -0.642975 4.35378 0
M  V30 5896 H 543.369 0.0356404 0.736138 0
M  V30 5897 H 546.011 0.771929 1.73612 0
M  V30 5898 H 544.161 -0.529128 3.8488 0
M  V30 5899 H 545.833 2.06601 4.12449 0
M  V30 5900 H 544.076 2.00465 3.84703 0
M  V30 5901 H 544.747 1.36234 5.34925 0
M  V30 5902 H 547.223 -0.152351 4.15821 0
M  V30 5903 H 546.099 -0.644141 5.45107 0
M  V30 5904 H 546.36 -1.70785 4.0778 0
M  V30 5905 N 545.419 -1.53889 0.339982 0
M  V30 5906 C 546.665 -2.01152 -0.258003 0
M  V30 5907 C 546.998 -1.22749 -1.50487 0
M  V30 5908 O 546.273 -0.314156 -1.91946 0
M  V30 5909 C 546.556 -3.55468 -0.575717 0
M  V30 5910 C 546.409 -4.44584 0.682996 0
M  V30 5911 C 547.728 -4.1768 -1.38677 0
M  V30 5912 H 544.847 -0.731198 -0.0922992 0
M  V30 5913 H 547.489 -1.84352 0.459814 0
M  V30 5914 H 545.639 -3.69914 -1.18725 0
M  V30 5915 H 547.311 -4.41981 1.32102 0
M  V30 5916 H 545.554 -4.13592 1.3086 0
M  V30 5917 H 546.225 -5.5043 0.416001 0
M  V30 5918 H 548.701 -4.0691 -0.869705 0
M  V30 5919 H 547.577 -5.25734 -1.57783 0
M  V30 5920 H 547.838 -3.72069 -2.38782 0
M  V30 5921 N 546.897 -0.0685191 -1.57451 0
M  V30 5922 C 548.174 0.642167 -1.84758 0
M  V30 5923 C 548.554 1.87991 -0.960344 0
M  V30 5924 O 547.902 2.28485 -0.0257894 0
M  V30 5925 C 548.112 0.982946 -3.34872 0
M  V30 5926 C 549.46 1.35784 -4.02303 0
M  V30 5927 O 550.484 1.07477 -3.39598 0
M  V30 5928 O 549.343 1.88681 -5.12895 0
M  V30 5929 H 546.437 0.318625 -0.763156 0
M  V30 5930 H 548.983 -0.0992015 -1.6941 0
M  V30 5931 H 547.755 0.10372 -3.91163 0
M  V30 5932 H 547.378 1.78119 -3.55471 0
M  V30 5933 N 548.375 1.56261 0.205012 0
M  V30 5934 C 549.615 1.81823 0.933806 0
M  V30 5935 C 549.979 0.644534 1.80858 0
M  V30 5936 O 551.18 0.779819 2.5724 0
M  V30 5937 C 549.451 3.12362 1.7368 0
M  V30 5938 S 551.01 3.59296 2.51897 0
M  V30 5939 H 547.828 0.638209 0.313386 0
M  V30 5940 H 550.43 1.94495 0.198001 0
M  V30 5941 H 549.134 3.95809 1.08459 0
M  V30 5942 H 548.665 3.02542 2.5146 0
M  V30 5943 H 550.68 3.23945 3.75864 0
M  V30 5944 N 549.853 -0.472356 1.50355 0
M  V30 5945 C 550.803 -1.56809 1.65514 0
M  V30 5946 C 551.787 -1.5261 0.509801 0
M  V30 5947 O 552.979 -1.59655 0.764145 0
M  V30 5948 C 550.108 -2.9526 1.75146 0
M  V30 5949 C 549.194 -3.04348 2.95353 0
M  V30 5950 N 549.585 -2.83253 4.19048 0
M  V30 5951 C 547.883 -3.35482 2.93884 0
M  V30 5952 C 548.584 -2.97273 5.00003 0
M  V30 5953 N 547.56 -3.27418 4.33934 0
M  V30 5954 H 551.362 -1.39197 2.58846 0
M  V30 5955 H 548.876 -0.67906 1.47521 0
M  V30 5956 H 550.873 -3.74044 1.8411 0
M  V30 5957 H 549.533 -3.1392 0.829717 0
M  V30 5958 H 550.544 -2.5886 4.48567 0
M  V30 5959 H 547.221 -3.60138 2.11204 0
M  V30 5960 H 548.611 -2.85214 6.08361 0
M  V30 5961 N 551.331 -1.39911 -0.725443 0
M  V30 5962 C 552.261 -1.42138 -1.85254 0
M  V30 5963 C 553.242 -0.283513 -1.67721 0
M  V30 5964 O 554.427 -0.490717 -1.87898 0
M  V30 5965 C 551.557 -1.27354 -3.23107 0
M  V30 5966 C 550.511 -2.3864 -3.55296 0
M  V30 5967 C 549.837 -2.08939 -4.92188 0
M  V30 5968 C 551.137 -3.8097 -3.57295 0
M  V30 5969 H 552.831 -2.36461 -1.83648 0
M  V30 5970 H 550.377 -1.13817 -0.882138 0
M  V30 5971 H 552.33 -1.2753 -4.01639 0
M  V30 5972 H 551.054 -0.295025 -3.25265 0
M  V30 5973 H 549.713 -2.37696 -2.79099 0
M  V30 5974 H 549.361 -1.09502 -4.90936 0
M  V30 5975 H 549.061 -2.83491 -5.14691 0
M  V30 5976 H 550.585 -2.10781 -5.73065 0
M  V30 5977 H 551.999 -3.8379 -4.25885 0
M  V30 5978 H 550.396 -4.5496 -3.9132 0
M  V30 5979 H 551.466 -4.11261 -2.5689 0
M  V30 5980 N 552.809 0.956637 -1.25245 0
M  V30 5981 C 554.034 1.74104 -1.12706 0
M  V30 5982 C 554.459 1.85436 0.315429 0
M  V30 5983 O 553.817 1.33334 1.22848 0
M  V30 5984 C 553.865 3.1338 -1.78396 0
M  V30 5985 O 552.969 3.98485 -1.06224 0
M  V30 5986 H 552.31 0.53476 -0.393609 0
M  V30 5987 H 554.84 1.19924 -1.65769 0
M  V30 5988 H 554.85 3.6385 -1.846 0
M  V30 5989 H 553.525 3.04448 -2.83345 0
M  V30 5990 H 552.102 3.56952 -1.07886 0
M  V30 5991 N 554.287 1.06798 1.15896 0
M  V30 5992 C 555.564 0.701057 1.82605 0
M  V30 5993 C 555.944 -0.817066 1.94646 0
M  V30 5994 O 555.292 -1.72933 1.49353 0
M  V30 5995 C 555.502 1.40895 3.19296 0
M  V30 5996 C 556.85 1.55744 3.95005 0
M  V30 5997 O 557.874 1.36927 3.28831 0
M  V30 5998 O 556.733 1.86658 5.13635 0
M  V30 5999 H 553.827 0.248791 0.78869 0
M  V30 6000 H 556.373 1.16857 1.23055 0
M  V30 6001 H 555.145 2.4439 3.05596 0
M  V30 6002 H 554.768 0.931847 3.86526 0
M  V30 6003 N 555.766 -1.3263 0.851289 0
M  V30 6004 C 556.699 -2.26952 0.238318 0
M  V30 6005 C 557.677 -1.50243 -0.621757 0
M  V30 6006 O 558.861 -1.79378 -0.579298 0
M  V30 6007 C 555.988 -3.32124 -0.664178 0
M  V30 6008 C 555.034 -4.26325 0.122067 0
M  V30 6009 S 555.867 -5.14404 1.48824 0
M  V30 6010 C 557.023 -6.231 0.591372 0
M  V30 6011 H 557.256 -2.78594 1.03791 0
M  V30 6012 H 554.789 -1.4011 0.648731 0
M  V30 6013 H 556.747 -3.93197 -1.17924 0
M  V30 6014 H 555.408 -2.79273 -1.43755 0
M  V30 6015 H 554.601 -5.00821 -0.565181 0
M  V30 6016 H 554.203 -3.69652 0.568602 0
M  V30 6017 H 556.495 -6.77187 -0.205762 0
M  V30 6018 H 557.438 -6.95936 1.30687 0
M  V30 6019 H 557.846 -5.64252 0.167206 0
M  V30 6020 N 557.244 -0.608902 -1.45362 0
M  V30 6021 C 558.174 0.0964526 -2.33301 0
M  V30 6022 C 559.155 0.857444 -1.46908 0
M  V30 6023 O 560.34 0.827735 -1.75676 0
M  V30 6024 C 557.47 1.09354 -3.29635 0
M  V30 6025 C 556.424 0.445676 -4.25673 0
M  V30 6026 C 555.75 1.5511 -5.11708 0
M  V30 6027 C 557.05 -0.633972 -5.18438 0
M  V30 6028 H 558.744 -0.637829 -2.92527 0
M  V30 6029 H 556.29 -0.308178 -1.40664 0
M  V30 6030 H 558.243 1.59556 -3.90025 0
M  V30 6031 H 556.967 1.85843 -2.6857 0
M  V30 6032 H 555.626 -0.0354897 -3.66583 0
M  V30 6033 H 555.274 2.30631 -4.4701 0
M  V30 6034 H 554.974 1.12311 -5.76767 0
M  V30 6035 H 556.498 2.05537 -5.74967 0
M  V30 6036 H 557.912 -0.215974 -5.72893 0
M  V30 6037 H 556.309 -0.983789 -5.91981 0
M  V30 6038 H 557.379 -1.51005 -4.60788 0
M  V30 6039 N 558.722 1.53707 -0.348139 0
M  V30 6040 C 559.654 2.22725 0.540946 0
M  V30 6041 C 560.667 1.2354 1.06027 0
M  V30 6042 O 561.856 1.49867 0.96964 0
M  V30 6043 C 558.956 2.89756 1.75768 0
M  V30 6044 C 558.129 4.15297 1.37285 0
M  V30 6045 C 557.188 4.65697 2.44976 0
M  V30 6046 O 556.214 5.29798 2.08092 0
M  V30 6047 N 557.416 4.42017 3.763 0
M  V30 6048 H 560.181 2.99658 -0.0501592 0
M  V30 6049 H 557.742 1.60979 -0.17248 0
M  V30 6050 H 559.734 3.20388 2.47252 0
M  V30 6051 H 558.304 2.16382 2.25605 0
M  V30 6052 H 557.524 3.9116 0.488584 0
M  V30 6053 H 558.812 4.96948 1.09179 0
M  V30 6054 H 558.21 3.9076 4.09051 0
M  V30 6055 H 556.767 4.77242 4.4394 0
M  V30 6056 N 560.2 0.0768682 1.57412 0
M  V30 6057 C 561.132 -0.918248 2.10002 0
M  V30 6058 C 562.145 -1.25808 1.03325 0
M  V30 6059 O 563.334 -1.21438 1.30824 0
M  V30 6060 C 560.434 -2.23263 2.54964 0
M  V30 6061 C 559.607 -2.07088 3.8527 0
M  V30 6062 C 558.666 -3.21876 4.16272 0
M  V30 6063 O 557.692 -2.96643 4.8579 0
M  V30 6064 N 558.894 -4.4712 3.70221 0
M  V30 6065 H 561.659 -0.469209 2.96004 0
M  V30 6066 H 559.22 -0.108725 1.61535 0
M  V30 6067 H 561.212 -2.9897 2.72762 0
M  V30 6068 H 559.782 -2.59649 1.74072 0
M  V30 6069 H 559.002 -1.15818 3.76802 0
M  V30 6070 H 560.29 -1.93537 4.70554 0
M  V30 6071 H 559.688 -4.70506 3.1407 0
M  V30 6072 H 558.245 -5.19837 3.93209 0
M  V30 6073 N 561.678 -1.56367 -0.196722 0
M  V30 6074 C 562.608 -1.97442 -1.24655 0
M  V30 6075 C 563.589 -0.846147 -1.47561 0
M  V30 6076 O 564.774 -1.11035 -1.59326 0
M  V30 6077 C 561.904 -2.31253 -2.59112 0
M  V30 6078 C 560.858 -3.46804 -2.50821 0
M  V30 6079 C 560.184 -3.66286 -3.89536 0
M  V30 6080 C 561.484 -4.8104 -2.03465 0
M  V30 6081 H 563.178 -2.85388 -0.905216 0
M  V30 6082 H 560.724 -1.37304 -0.434002 0
M  V30 6083 H 562.677 -2.58583 -3.32736 0
M  V30 6084 H 561.401 -1.40188 -2.94983 0
M  V30 6085 H 560.06 -3.19563 -1.79653 0
M  V30 6086 H 559.708 -2.72555 -4.22756 0
M  V30 6087 H 559.408 -4.4402 -3.84864 0
M  V30 6088 H 560.932 -3.9599 -4.64784 0
M  V30 6089 H 562.346 -5.07411 -2.66846 0
M  V30 6090 H 560.743 -5.62232 -2.09798 0
M  V30 6091 H 561.813 -4.74732 -0.98781 0
M  V30 6092 N 563.156 0.464375 -1.50603 0
M  V30 6093 C 564.106 1.55929 -1.66343 0
M  V30 6094 C 565.09 1.52338 -0.517887 0
M  V30 6095 O 566.282 1.59248 -0.772601 0
M  V30 6096 C 563.411 2.94327 -1.7671 0
M  V30 6097 C 562.497 3.02777 -2.96962 0
M  V30 6098 N 562.888 2.81026 -4.20545 0
M  V30 6099 C 561.186 3.33919 -2.95659 0
M  V30 6100 C 561.887 2.94618 -5.01573 0
M  V30 6101 N 560.863 3.25112 -4.35664 0
M  V30 6102 H 564.665 1.37822 -2.59581 0
M  V30 6103 H 562.179 0.671227 -1.47879 0
M  V30 6104 H 564.176 3.73063 -1.86091 0
M  V30 6105 H 562.836 3.13476 -0.846353 0
M  V30 6106 H 563.847 2.56477 -4.49933 0
M  V30 6107 H 560.524 3.59013 -2.13111 0
M  V30 6108 H 561.914 2.81984 -6.09865 0
M  V30 6109 N 564.634 1.40294 0.718013 0
M  V30 6110 C 565.859 1.41941 1.5122 0
M  V30 6111 C 566.284 0.0202371 1.88089 0
M  V30 6112 O 565.642 -0.971078 1.53101 0
M  V30 6113 C 565.69 2.3141 2.76554 0
M  V30 6114 O 564.794 1.75567 3.73162 0
M  V30 6115 H 564.135 0.482644 0.456016 0
M  V30 6116 H 566.665 1.84494 0.884478 0
M  V30 6117 H 566.675 2.46513 3.25108 0
M  V30 6118 H 565.35 3.33085 2.49053 0
M  V30 6119 H 563.927 1.69798 3.31999 0
M  V30 6120 N 566.112 -0.949982 1.2575 0
M  V30 6121 C 567.358 -1.69766 1.10938 0
M  V30 6122 C 567.691 -1.91056 -0.348028 0
M  V30 6123 O 566.966 -1.48488 -1.25625 0
M  V30 6124 C 567.249 -3.07779 1.86933 0
M  V30 6125 C 567.102 -2.9387 3.4053 0
M  V30 6126 C 568.421 -4.07749 1.65616 0
M  V30 6127 H 565.54 -0.616144 0.404396 0
M  V30 6128 H 568.182 -1.10394 1.54639 0
M  V30 6129 H 566.332 -3.58462 1.4979 0
M  V30 6130 H 568.004 -2.50476 3.87375 0
M  V30 6131 H 566.247 -2.29686 3.68004 0
M  V30 6132 H 566.918 -3.91719 3.88922 0
M  V30 6133 H 569.394 -3.65994 1.97959 0
M  V30 6134 H 568.27 -5.02348 2.21218 0
M  V30 6135 H 568.531 -4.38029 0.598595 0
M  V30 6136 N 567.59 -1.07411 -1.15328 0
M  V30 6137 C 568.538 -0.689316 -2.22151 0
M  V30 6138 C 569.532 0.300156 -1.6672 0
M  V30 6139 O 570.738 0.163804 -1.79253 0
M  V30 6140 H 567.113 -0.204834 -0.723566 0
M  V30 6141 H 569.084 -1.59988 -2.51886 0
M  V30 6142 C 567.833 -0.103848 -3.47545 0
M  V30 6143 H 567.156 -0.856367 -3.90521 0
M  V30 6144 H 568.596 0.127725 -4.23808 0
M  V30 6145 C 567.055 1.15563 -3.1646 0
M  V30 6146 O 567.585 2.242 -3.33312 0
M  V30 6147 N 565.791 1.06203 -2.70498 0
M  V30 6148 H 565.338 0.177933 -2.56985 0
M  V30 6149 H 565.296 1.90553 -2.50074 0
M  V30 6150 N 569.068 1.32177 -0.85831 0
M  V30 6151 C 570.031 2.27086 -0.310588 0
M  V30 6152 C 571.031 1.51751 0.531806 0
M  V30 6153 O 572.221 1.70794 0.34279 0
M  V30 6154 C 569.353 3.36266 0.560179 0
M  V30 6155 H 570.546 2.77045 -1.1483 0
M  V30 6156 H 568.099 1.42911 -0.632942 0
M  V30 6157 H 568.834 2.9158 1.41956 0
M  V30 6158 H 568.619 3.92077 -0.0428473 0
M  V30 6159 H 570.109 4.06974 0.936056 0
M  V30 6160 N 570.547 0.616602 1.45037 0
M  V30 6161 C 571.772 0.120192 2.07051 0
M  V30 6162 C 572.197 -1.19008 1.45666 0
M  V30 6163 O 571.555 -1.7267 0.552692 0
M  V30 6164 C 571.603 0.00354901 3.606 0
M  V30 6165 O 570.707 -1.04431 3.98958 0
M  V30 6166 H 570.048 0.0781599 0.659384 0
M  V30 6167 H 572.578 0.849167 1.86146 0
M  V30 6168 H 572.588 -0.191754 4.07549 0
M  V30 6169 H 571.263 0.960239 4.04663 0
M  V30 6170 H 569.84 -0.824749 3.63665 0
M  V30 6171 N 572.025 -1.5352 0.356285 0
M  V30 6172 C 572.972 -2.25439 -0.494569 0
M  V30 6173 C 573.942 -1.25752 -1.08516 0
M  V30 6174 O 575.127 -1.54513 -1.1194 0
M  V30 6175 C 572.267 -3.04011 -1.63313 0
M  V30 6176 C 571.38 -4.18574 -1.06862 0
M  V30 6177 C 570.515 -4.84607 -2.17552 0
M  V30 6178 C 569.554 -5.91218 -1.58518 0
M  V30 6179 N 568.691 -6.50979 -2.63003 0
M  V30 6180 H 573.531 -2.97737 0.125244 0
M  V30 6181 H 571.068 -1.46916 0.0735789 0
M  V30 6182 H 573.026 -3.47834 -2.30363 0
M  V30 6183 H 571.656 -2.33986 -2.22374 0
M  V30 6184 H 570.708 -3.79303 -0.288672 0
M  V30 6185 H 572.02 -4.95215 -0.596924 0
M  V30 6186 H 571.174 -5.31566 -2.92442 0
M  V30 6187 H 569.913 -4.07418 -2.6807 0
M  V30 6188 H 568.918 -5.4363 -0.821391 0
M  V30 6189 H 570.143 -6.70322 -1.08836 0
M  V30 6190 H 568.089 -5.76648 -3.12751 0
M  V30 6191 H 568.006 -7.23131 -2.20493 0
M  V30 6192 H 569.274 -7.02589 -3.37623 0
M  V30 6193 N 573.503 -0.0852151 -1.57369 0
M  V30 6194 C 574.914 0.445428 -1.81309 0
M  V30 6195 C 575.265 1.68795 -1.00013 0
M  V30 6196 O 574.39 2.15211 -0.226573 0
M  V30 6197 C 574.985 0.814887 -3.28854 0
M  V30 6198 C 573.544 1.29032 -3.53592 0
M  V30 6199 C 572.691 0.282089 -2.75861 0
M  V30 6200 H 575.642 -0.310771 -1.55627 0
M  V30 6201 H 575.663 1.67524 -3.41637 0
M  V30 6202 H 575.175 -0.0896309 -3.87996 0
M  V30 6203 H 573.276 2.21289 -2.9977 0
M  V30 6204 H 573.389 1.25898 -4.62262 0
M  V30 6205 H 571.753 0.762182 -2.43029 0
M  V30 6206 H 572.536 -0.614936 -3.37748 0
M  V30 6207 N 574.981 1.5647 0.188427 0
M  V30 6208 C 576.206 1.85486 0.927891 0
M  V30 6209 C 576.631 0.669575 1.75779 0
M  V30 6210 O 575.989 -0.381573 1.77239 0
M  V30 6211 C 576.037 3.12784 1.7944 0
M  V30 6212 O 575.141 2.93805 2.894 0
M  V30 6213 H 574.482 0.610585 0.260925 0
M  V30 6214 H 577.012 2.037 0.191729 0
M  V30 6215 H 577.022 3.43749 2.19774 0
M  V30 6216 H 575.697 3.98671 1.18468 0
M  V30 6217 H 574.274 2.74153 2.52774 0
M  V30 6218 N 576.459 -0.456382 1.50847 0
M  V30 6219 C 577.369 -1.57805 1.73594 0
M  V30 6220 C 578.385 -1.62599 0.619476 0
M  V30 6221 O 579.561 -1.80195 0.899532 0
M  V30 6222 C 576.626 -2.93926 1.8387 0
M  V30 6223 C 575.687 -2.99402 3.07663 0
M  V30 6224 C 574.92 -4.29031 3.1744 0
M  V30 6225 O 575.143 -5.20358 2.33631 0
M  V30 6226 O 574.077 -4.40401 4.10281 0
M  V30 6227 H 577.903 -1.41531 2.68705 0
M  V30 6228 H 575.488 -0.637422 1.3512 0
M  V30 6229 H 577.37 -3.74747 1.92725 0
M  V30 6230 H 576.045 -3.10368 0.91944 0
M  V30 6231 H 574.952 -2.17606 3.043 0
M  V30 6232 H 576.285 -2.87901 3.99216 0
M  V30 6233 N 577.937 -1.40673 -0.710563 0
M  V30 6234 C 579.353 -1.22813 -1.01928 0
M  V30 6235 C 579.553 -0.10687 -2.01216 0
M  V30 6236 O 578.609 0.533614 -2.46797 0
M  V30 6237 C 579.922 -2.57178 -1.5582 0
M  V30 6238 C 581.47 -2.64233 -1.67779 0
M  V30 6239 C 581.945 -3.98879 -2.25076 0
M  V30 6240 N 583.436 -4.00647 -2.32456 0
M  V30 6241 C 584.171 -5.01621 -2.77784 0
M  V30 6242 N 583.667 -6.12989 -3.22826 0
M  V30 6243 N 585.46 -4.88988 -2.77213 0
M  V30 6244 H 577.611 -2.12335 -0.05253 0
M  V30 6245 H 579.874 -0.9441 -0.085898 0
M  V30 6246 H 579.58 -3.39903 -0.903249 0
M  V30 6247 H 579.454 -2.78618 -2.54267 0
M  V30 6248 H 581.841 -1.81876 -2.3239 0
M  V30 6249 H 581.922 -2.46619 -0.679178 0
M  V30 6250 H 581.566 -4.81678 -1.61086 0
M  V30 6251 H 581.496 -4.13826 -3.25661 0
M  V30 6252 H 583.987 -3.20231 -2.0065 0
M  V30 6253 H 584.3 -6.85921 -3.55995 0
M  V30 6254 H 582.645 -6.16547 -3.20773 0
M  V30 6255 H 585.836 -4.01075 -2.41363 0
M  V30 6256 H 586.009 -5.67822 -3.12221 0
M  V30 6257 N 579.415 0.9433 -1.26252 0
M  V30 6258 C 580.663 1.68592 -1.11451 0
M  V30 6259 C 580.984 1.91957 0.343123 0
M  V30 6260 O 580.254 1.51475 1.24226 0
M  V30 6261 H 578.834 0.624789 -0.409448 0
M  V30 6262 H 581.496 1.13351 -1.58548 0
M  V30 6263 H 580.592 2.66054 -1.63162 0
M  V30 6264 N 580.893 1.08022 1.14757 0
M  V30 6265 C 581.823 0.728248 2.21853 0
M  V30 6266 C 582.804 -0.287486 1.67653 0
M  V30 6267 O 583.989 -0.158727 1.9355 0
M  V30 6268 C 581.119 0.132549 3.47047 0
M  V30 6269 C 580.073 1.07619 4.14249 0
M  V30 6270 C 579.399 0.342907 5.33599 0
M  V30 6271 C 580.699 2.41268 4.63235 0
M  V30 6272 H 582.393 1.62365 2.51551 0
M  V30 6273 H 579.939 0.782125 1.20908 0
M  V30 6274 H 581.892 -0.125665 4.21213 0
M  V30 6275 H 580.616 -0.797971 3.16702 0
M  V30 6276 H 579.275 1.31944 3.42033 0
M  V30 6277 H 578.923 -0.59129 4.99513 0
M  V30 6278 H 578.623 0.971955 5.79506 0
M  V30 6279 H 580.147 0.0926538 6.1053 0
M  V30 6280 H 581.561 2.21232 5.28894 0
M  V30 6281 H 579.958 2.9983 5.19829 0
M  V30 6282 H 581.028 3.03079 3.78512 0
M  V30 6283 N 582.371 -1.3172 0.865308 0
M  V30 6284 C 583.617 -1.97168 0.474633 0
M  V30 6285 C 583.95 -1.68263 -0.969604 0
M  V30 6286 O 583.225 -0.976588 -1.68205 0
M  V30 6287 C 583.508 -3.52689 0.726808 0
M  V30 6288 C 583.361 -3.91185 2.22024 0
M  V30 6289 C 584.68 -4.39689 0.190201 0
M  V30 6290 H 581.799 -0.716185 0.17392 0
M  V30 6291 H 584.441 -1.55925 1.08569 0
M  V30 6292 H 582.591 -3.8795 0.206705 0
M  V30 6293 H 584.263 -3.66049 2.80724 0
M  V30 6294 H 582.506 -3.3996 2.69462 0
M  V30 6295 H 583.177 -4.99604 2.34735 0
M  V30 6296 H 585.653 -4.11225 0.635103 0
M  V30 6297 H 584.529 -5.47469 0.396132 0
M  V30 6298 H 584.79 -4.32683 -0.907625 0
M  V30 6299 N 583.85 -0.624285 -1.44708 0
M  V30 6300 C 585.266 -0.289322 -1.56956 0
M  V30 6301 C 585.466 1.20773 -1.61295 0
M  V30 6302 O 584.522 1.9915 -1.55227 0
M  V30 6303 C 585.835 -0.975215 -2.84447 0
M  V30 6304 C 587.383 -0.952709 -2.98148 0
M  V30 6305 C 587.858 -1.61893 -4.28433 0
M  V30 6306 N 589.349 -1.5852 -4.35231 0
M  V30 6307 C 590.084 -2.06969 -5.34744 0
M  V30 6308 N 589.58 -2.63579 -6.40701 0
M  V30 6309 N 591.373 -1.97638 -5.26209 0
M  V30 6310 H 583.524 -1.59612 -1.40135 0
M  V30 6311 H 585.787 -0.669592 -0.671081 0
M  V30 6312 H 585.493 -2.02999 -2.87201 0
M  V30 6313 H 585.367 -0.508749 -3.73753 0
M  V30 6314 H 587.754 0.093568 -2.94952 0
M  V30 6315 H 587.835 -1.4576 -2.10209 0
M  V30 6316 H 587.479 -2.66463 -4.32389 0
M  V30 6317 H 587.409 -1.08893 -5.15218 0
M  V30 6318 H 589.899 -1.17183 -3.59272 0
M  V30 6319 H 590.213 -2.98298 -7.12908 0
M  V30 6320 H 588.558 -2.67626 -6.41406 0
M  V30 6321 H 591.749 -1.5314 -4.42341 0
M  V30 6322 H 591.922 -2.35708 -6.03611 0
M  V30 6323 N 585.328 1.53329 -0.364422 0
M  V30 6324 C 586.26 2.23286 0.517293 0
M  V30 6325 C 587.273 1.24657 1.04711 0
M  V30 6326 O 588.462 1.50887 0.95369 0
M  V30 6327 C 585.562 2.91604 1.72685 0
M  V30 6328 C 584.735 4.1673 1.32873 0
M  V30 6329 C 583.794 4.68269 2.40022 0
M  V30 6330 O 582.82 5.31976 2.02461 0
M  V30 6331 N 584.022 4.45983 3.7159 0
M  V30 6332 H 586.787 2.99588 -0.0819391 0
M  V30 6333 H 584.348 1.60787 -0.189544 0
M  V30 6334 H 586.34 3.22992 2.4384 0
M  V30 6335 H 584.91 2.18763 2.23297 0
M  V30 6336 H 584.13 3.91657 0.447069 0
M  V30 6337 H 585.418 4.98078 1.03902 0
M  V30 6338 H 584.816 3.95077 4.04883 0
M  V30 6339 H 583.373 4.81924 4.38854 0
M  V30 6340 N 586.806 0.0935595 1.57322 0
M  V30 6341 C 587.716 -0.880192 2.17462 0
M  V30 6342 C 588.732 -1.31135 1.14366 0
M  V30 6343 O 589.908 -1.37958 1.46729 0
M  V30 6344 C 586.973 -2.12184 2.74188 0
M  V30 6345 C 586.034 -1.74503 3.92234 0
M  V30 6346 C 585.267 -2.92748 4.46245 0
M  V30 6347 O 585.49 -4.07427 3.99198 0
M  V30 6348 O 584.424 -2.71303 5.37288 0
M  V30 6349 H 588.25 -0.398516 3.01074 0
M  V30 6350 H 585.835 -0.130707 1.48827 0
M  V30 6351 H 587.717 -2.84953 3.10451 0
M  V30 6352 H 586.392 -2.59407 1.93623 0
M  V30 6353 H 585.299 -0.989186 3.60785 0
M  V30 6354 H 586.632 -1.32044 4.74157 0
M  V30 6355 N 588.284 -1.56567 -0.180126 0
M  V30 6356 C 589.194 -1.98947 -1.24327 0
M  V30 6357 C 590.21 -0.899446 -1.4895 0
M  V30 6358 O 591.386 -1.20639 -1.61271 0
M  V30 6359 C 588.451 -2.33328 -2.56435 0
M  V30 6360 C 587.512 -3.56114 -2.39752 0
M  V30 6361 C 586.745 -3.88845 -3.65561 0
M  V30 6362 O 586.968 -3.22662 -4.70368 0
M  V30 6363 O 585.902 -4.82226 -3.60197 0
M  V30 6364 H 589.728 -2.89634 -0.913565 0
M  V30 6365 H 587.313 -1.44319 -0.386306 0
M  V30 6366 H 589.195 -2.5645 -3.34382 0
M  V30 6367 H 587.87 -1.45806 -2.89002 0
M  V30 6368 H 586.777 -3.38221 -1.59866 0
M  V30 6369 H 588.11 -4.4415 -2.12113 0
M  V30 6370 N 589.762 0.448376 -1.51087 0
M  V30 6371 C 590.725 1.52588 -1.71025 0
M  V30 6372 C 591.725 1.49958 -0.580442 0
M  V30 6373 O 592.915 1.52176 -0.847833 0
M  V30 6374 C 590.047 2.92163 -1.75652 0
M  V30 6375 H 591.24 1.36218 -2.67179 0
M  V30 6376 H 588.793 0.676313 -1.4091 0
M  V30 6377 H 589.528 3.13951 -0.812724 0
M  V30 6378 H 589.313 2.95478 -2.57751 0
M  V30 6379 H 590.803 3.70349 -1.92953 0
M  V30 6380 N 591.24 1.41047 0.703093 0
M  V30 6381 C 592.15 1.44645 1.84703 0
M  V30 6382 C 593.166 0.337778 1.7069 0
M  V30 6383 O 594.342 0.584327 1.92737 0
M  V30 6384 C 591.407 1.31928 3.20618 0
M  V30 6385 C 590.468 2.53047 3.46794 0
M  V30 6386 C 589.701 2.40927 4.76224 0
M  V30 6387 O 589.924 1.42978 5.5219 0
M  V30 6388 O 588.858 3.30543 5.03016 0
M  V30 6389 H 592.684 2.41139 1.84624 0
M  V30 6390 H 590.269 1.22504 0.855167 0
M  V30 6391 H 592.151 1.27092 4.01778 0
M  V30 6392 H 590.826 0.385469 3.21397 0
M  V30 6393 H 589.733 2.6346 2.65593 0
M  V30 6394 H 591.066 3.45231 3.50822 0
M  V30 6395 N 592.718 -0.936591 1.26751 0
M  V30 6396 C 593.995 -1.66094 1.03306 0
M  V30 6397 C 594.375 -2.06568 -0.435058 0
M  V30 6398 O 593.723 -1.79305 -1.41641 0
M  V30 6399 C 593.933 -2.86969 1.98619 0
M  V30 6400 C 595.281 -3.58516 2.27489 0
M  V30 6401 O 596.305 -2.97082 1.96522 0
M  V30 6402 O 595.164 -4.69181 2.80235 0
M  V30 6403 H 592.258 -0.727568 0.393158 0
M  V30 6404 H 594.804 -0.987914 1.3798 0
M  V30 6405 H 593.576 -2.53985 2.9767 0
M  V30 6406 H 593.199 -3.61996 1.64454 0
M  V30 6407 N 594.196 -1.08629 -1.14182 0
M  V30 6408 C 595.607 -0.838003 -1.66836 0
M  V30 6409 C 595.958 0.634885 -1.85644 0
M  V30 6410 O 595.083 1.49008 -1.56926 0
M  V30 6411 C 595.678 -1.51465 -3.03058 0
M  V30 6412 C 594.237 -1.31355 -3.52736 0
M  V30 6413 C 593.384 -1.57599 -2.28162 0
M  V30 6414 H 596.335 -1.24656 -0.982165 0
M  V30 6415 H 596.356 -0.943134 -3.68626 0
M  V30 6416 H 595.868 -2.58661 -2.89337 0
M  V30 6417 H 593.969 -0.262384 -3.71675 0
M  V30 6418 H 594.082 -2.04275 -4.33369 0
M  V30 6419 H 592.446 -0.997659 -2.34348 0
M  V30 6420 H 593.229 -2.66006 -2.17015 0
M  V30 6421 N 595.674 1.31259 -0.872281 0
M  V30 6422 C 596.637 2.26744 -0.334656 0
M  V30 6423 C 597.637 1.52307 0.515681 0
M  V30 6424 O 598.827 1.71148 0.324656 0
M  V30 6425 C 595.959 3.36841 0.524482 0
M  V30 6426 H 597.152 2.75812 -1.17762 0
M  V30 6427 H 594.705 1.42232 -0.648064 0
M  V30 6428 H 595.44 2.93069 1.38855 0
M  V30 6429 H 595.225 3.92009 -0.0844299 0
M  V30 6430 H 596.715 4.07944 0.892838 0
M  V30 6431 N 597.152 0.631951 1.44375 0
M  V30 6432 C 598.392 0.14009 2.03919 0
M  V30 6433 C 598.756 -1.21534 1.48639 0
M  V30 6434 O 599.957 -1.79936 1.99691 0
M  V30 6435 C 598.228 0.127174 3.57174 0
M  V30 6436 S 599.787 -0.299946 4.37774 0
M  V30 6437 H 596.605 0.0614891 0.708336 0
M  V30 6438 H 599.207 0.835524 1.76746 0
M  V30 6439 H 597.911 1.11676 3.94913 0
M  V30 6440 H 597.442 -0.589482 3.88958 0
M  V30 6441 H 599.457 -1.54396 4.71568 0
M  V30 6442 N 598.631 -1.53133 0.372548 0
M  V30 6443 C 599.88 -2.00539 -0.216115 0
M  V30 6444 C 600.193 -1.26374 -1.49295 0
M  V30 6445 O 601.399 -1.64404 -2.16064 0
M  V30 6446 C 599.855 -3.57253 -0.435678 0
M  V30 6447 C 599.463 -4.40302 0.82693 0
M  V30 6448 C 601.207 -4.12995 -0.981618 0
M  V30 6449 C 599.114 -5.88583 0.576567 0
M  V30 6450 H 598.044 -0.749246 -0.084536 0
M  V30 6451 H 600.695 -1.76771 0.492364 0
M  V30 6452 H 599.077 -3.77202 -1.20559 0
M  V30 6453 H 600.251 -4.32124 1.60017 0
M  V30 6454 H 598.566 -3.95699 1.29659 0
M  V30 6455 H 601.163 -5.21418 -1.18436 0
M  V30 6456 H 601.506 -3.68027 -1.94581 0
M  V30 6457 H 602.039 -3.96871 -0.271696 0
M  V30 6458 H 598.778 -6.37841 1.51128 0
M  V30 6459 H 598.298 -5.99592 -0.158047 0
M  V30 6460 H 599.977 -6.46676 0.204722 0
M  V30 6461 N 600.109 -0.101901 -1.5727 0
M  V30 6462 C 601.52 0.426173 -1.81771 0
M  V30 6463 C 601.871 1.67725 -1.01797 0
M  V30 6464 O 600.996 2.14958 -0.249386 0
M  V30 6465 C 601.591 0.779962 -3.297 0
M  V30 6466 C 600.15 1.25275 -3.54941 0
M  V30 6467 C 599.297 0.252814 -2.76145 0
M  V30 6468 H 602.248 -0.32726 -1.55289 0
M  V30 6469 H 602.269 1.63891 -3.43395 0
M  V30 6470 H 601.781 -0.130778 -3.8788 0
M  V30 6471 H 599.882 2.18097 -3.021 0
M  V30 6472 H 599.995 1.20988 -4.63572 0
M  V30 6473 H 598.359 0.736362 -2.43823 0
M  V30 6474 H 599.142 -0.650724 -3.37076 0
M  V30 6475 N 601.587 1.56661 0.17182 0
M  V30 6476 C 602.836 1.81158 0.886831 0
M  V30 6477 C 603.149 0.679072 1.83434 0
M  V30 6478 O 604.355 0.808964 2.59168 0
M  V30 6479 C 602.811 3.20999 1.6275 0
M  V30 6480 C 602.419 4.42117 0.723652 0
M  V30 6481 C 604.163 3.5479 2.33076 0
M  V30 6482 C 602.07 5.7298 1.46452 0
M  V30 6483 H 601 0.675543 0.334899 0
M  V30 6484 H 603.651 1.82967 0.139765 0
M  V30 6485 H 602.033 3.13506 2.4193 0
M  V30 6486 H 603.207 4.60789 -0.0311485 0
M  V30 6487 H 601.522 4.16197 0.130063 0
M  V30 6488 H 604.119 4.49806 2.89099 0
M  V30 6489 H 604.462 2.79646 3.08389 0
M  V30 6490 H 604.995 3.63834 1.6084 0
M  V30 6491 H 601.734 6.51152 0.753729 0
M  V30 6492 H 601.254 5.58285 2.19266 0
M  V30 6493 H 602.933 6.14916 2.01214 0
M  V30 6494 N 603.065 -0.440357 1.51323 0
M  V30 6495 C 604.312 -1.19004 1.63842 0
M  V30 6496 C 604.64 -1.91266 0.35321 0
M  V30 6497 O 603.895 -1.84143 -0.662565 0
M  V30 6498 C 604.194 -2.2339 2.78984 0
M  V30 6499 C 603.86 -1.68162 4.18369 0
M  V30 6500 C 602.522 -1.52823 4.56288 0
M  V30 6501 C 604.874 -1.27524 5.05358 0
M  V30 6502 C 602.202 -0.953157 5.78906 0
M  V30 6503 C 604.554 -0.714474 6.28552 0
M  V30 6504 C 603.218 -0.547961 6.65247 0
M  V30 6505 H 602.488 -0.435468 0.59954 0
M  V30 6506 H 605.135 -0.481538 1.85347 0
M  V30 6507 H 603.44 -3.00267 2.51688 0
M  V30 6508 H 605.137 -2.81211 2.85869 0
M  V30 6509 H 601.727 -1.81077 3.8847 0
M  V30 6510 H 605.911 -1.38197 4.76671 0
M  V30 6511 H 601.167 -0.811882 6.05986 0
M  V30 6512 H 605.341 -0.391059 6.95301 0
M  V30 6513 H 602.968 -0.100222 7.60134 0
M  V30 6514 N 604.543 -1.41418 -0.695603 0
M  V30 6515 C 605.789 -1.41983 -1.45645 0
M  V30 6516 C 606.144 -0.0282216 -1.92379 0
M  V30 6517 O 605.437 0.945916 -1.66622 0
M  V30 6518 C 605.631 -2.36112 -2.68302 0
M  V30 6519 C 605.46 -3.84288 -2.33566 0
M  V30 6520 C 604.23 -4.52971 -2.23932 0
M  V30 6521 C 606.428 -4.75264 -1.96543 0
M  V30 6522 N 604.41 -5.86276 -1.82081 0
M  V30 6523 C 605.781 -5.97517 -1.6545 0
M  V30 6524 C 607.836 -4.62911 -1.83352 0
M  V30 6525 C 606.539 -7.08793 -1.22492 0
M  V30 6526 C 608.565 -5.74149 -1.41799 0
M  V30 6527 C 607.927 -6.95501 -1.11617 0
M  V30 6528 H 604.026 -0.574771 -0.530247 0
M  V30 6529 H 606.61 -1.77289 -0.804788 0
M  V30 6530 H 604.781 -2.02902 -3.31188 0
M  V30 6531 H 606.513 -2.27397 -3.34773 0
M  V30 6532 H 603.268 -4.06909 -2.42327 0
M  V30 6533 H 603.692 -6.56926 -1.63638 0
M  V30 6534 H 608.334 -3.69588 -2.05341 0
M  V30 6535 H 606.052 -8.01982 -0.992482 0
M  V30 6536 H 609.638 -5.66595 -1.32143 0
M  V30 6537 H 608.518 -7.80114 -0.799493 0
M  V30 6538 N 606.021 0.929856 -1.27246 0
M  V30 6539 C 607.267 1.6798 -1.13625 0
M  V30 6540 C 607.6 1.91586 0.317589 0
M  V30 6541 O 606.875 1.50467 1.23247 0
M  V30 6542 C 607.158 3.04766 -1.91806 0
M  V30 6543 C 607.011 2.88415 -3.45162 0
M  V30 6544 C 608.33 4.05063 -1.72082 0
M  V30 6545 H 605.449 0.609632 -0.414147 0
M  V30 6546 H 608.091 1.0792 -1.56376 0
M  V30 6547 H 606.241 3.56034 -1.55474 0
M  V30 6548 H 607.913 2.44282 -3.91311 0
M  V30 6549 H 606.156 2.23802 -3.71611 0
M  V30 6550 H 606.827 3.85482 -3.95105 0
M  V30 6551 H 609.303 3.62798 -2.03757 0
M  V30 6552 H 608.179 4.98765 -2.29182 0
M  V30 6553 H 608.44 4.37021 -0.668206 0
M  V30 6554 N 607.499 1.09233 1.13605 0
M  V30 6555 C 608.724 0.849067 1.89224 0
M  V30 6556 C 609.149 -0.593875 1.78479 0
M  V30 6557 O 608.507 -1.41703 1.13092 0
M  V30 6558 C 608.555 1.28642 3.36873 0
M  V30 6559 O 607.659 0.44363 4.10007 0
M  V30 6560 H 607 0.30767 0.588417 0
M  V30 6561 H 609.53 1.45595 1.43748 0
M  V30 6562 H 609.54 1.27096 3.87699 0
M  V30 6563 H 608.215 2.33729 3.44011 0
M  V30 6564 H 606.792 0.523241 3.69211 0
M  V30 6565 N 608.977 -1.30795 0.87923 0
M  V30 6566 C 609.924 -2.28282 0.339968 0
M  V30 6567 C 610.894 -1.56134 -0.566685 0
M  V30 6568 O 612.079 -1.84231 -0.496338 0
M  V30 6569 C 609.219 -3.42225 -0.444501 0
M  V30 6570 C 608.332 -4.29204 0.490717 0
M  V30 6571 C 607.467 -5.30302 -0.308784 0
M  V30 6572 C 606.506 -6.08929 0.622272 0
M  V30 6573 N 605.643 -7.01957 -0.14155 0
M  V30 6574 H 610.483 -2.73794 1.17647 0
M  V30 6575 H 608.02 -1.34682 0.591527 0
M  V30 6576 H 609.978 -4.07038 -0.915186 0
M  V30 6577 H 608.608 -2.97799 -1.24562 0
M  V30 6578 H 607.66 -3.6475 1.07988 0
M  V30 6579 H 608.972 -4.84045 1.20425 0
M  V30 6580 H 608.126 -6.00835 -0.841575 0
M  V30 6581 H 606.865 -4.7614 -1.05556 0
M  V30 6582 H 605.87 -5.37278 1.16674 0
M  V30 6583 H 607.095 -6.65178 1.36804 0
M  V30 6584 H 605.041 -6.50192 -0.870966 0
M  V30 6585 H 604.958 -7.54261 0.51246 0
M  V30 6586 H 606.226 -7.76741 -0.655271 0
M  V30 6587 N 610.455 -0.639598 -1.44038 0
M  V30 6588 C 611.701 -0.156248 -2.02799 0
M  V30 6589 C 612.056 1.21145 -1.49471 0
M  V30 6590 O 611.349 1.79406 -0.672608 0
M  V30 6591 C 611.543 -0.0925348 -3.5728 0
M  V30 6592 C 611.372 -1.45252 -4.25596 0
M  V30 6593 C 610.142 -2.04145 -4.62226 0
M  V30 6594 C 612.34 -2.38812 -4.55492 0
M  V30 6595 N 610.322 -3.3329 -5.15549 0
M  V30 6596 C 611.693 -3.52578 -5.09989 0
M  V30 6597 C 613.748 -2.37785 -4.3745 0
M  V30 6598 C 612.451 -4.65525 -5.48342 0
M  V30 6599 C 614.477 -3.49802 -4.76857 0
M  V30 6600 C 613.839 -4.62292 -5.31475 0
M  V30 6601 H 609.938 -0.101292 -0.775412 0
M  V30 6602 H 612.522 -0.844938 -1.75411 0
M  V30 6603 H 610.693 0.565459 -3.84262 0
M  V30 6604 H 612.425 0.400426 -4.02714 0
M  V30 6605 H 609.18 -1.56999 -4.4682 0
M  V30 6606 H 609.604 -3.9934 -5.46678 0
M  V30 6607 H 614.246 -1.52061 -3.94509 0
M  V30 6608 H 611.964 -5.51951 -5.90233 0
M  V30 6609 H 615.55 -3.50193 -4.64603 0
M  V30 6610 H 614.43 -5.47536 -5.61403 0
M  V30 6611 N 611.933 1.52934 -0.380664 0
M  V30 6612 C 613.179 2.01765 0.20458 0
M  V30 6613 C 613.512 1.26696 1.47179 0
M  V30 6614 O 612.787 0.364936 1.91046 0
M  V30 6615 C 613.07 3.56869 0.481269 0
M  V30 6616 C 612.923 4.42617 -0.800629 0
M  V30 6617 C 614.242 4.2121 1.27554 0
M  V30 6618 H 611.361 0.733388 0.0728803 0
M  V30 6619 H 614.003 1.83068 -0.50853 0
M  V30 6620 H 612.153 3.72932 1.08875 0
M  V30 6621 H 613.825 4.38323 -1.43773 0
M  V30 6622 H 612.068 4.09977 -1.4178 0
M  V30 6623 H 612.739 5.49134 -0.561791 0
M  V30 6624 H 615.215 4.09072 0.761514 0
M  V30 6625 H 614.091 5.29732 1.43788 0
M  V30 6626 H 614.352 3.78269 2.28833 0
M  V30 6627 N 613.412 0.11024 1.57214 0
M  V30 6628 C 614.689 -0.592956 1.86396 0
M  V30 6629 C 615.069 -1.85379 1.00985 0
M  V30 6630 O 614.417 -2.28337 0.0863592 0
M  V30 6631 C 614.627 -0.893816 3.3736 0
M  V30 6632 C 615.975 -1.25069 4.05762 0
M  V30 6633 O 616.999 -0.984356 3.42329 0
M  V30 6634 O 615.858 -1.75017 5.17718 0
M  V30 6635 H 612.952 -0.29828 0.771335 0
M  V30 6636 H 615.498 0.144083 1.69087 0
M  V30 6637 H 614.27 2.6031e-05 3.913 0
M  V30 6638 H 613.893 -1.68631 3.60068 0
M  V30 6639 N 614.89 -1.56749 -0.16351 0
M  V30 6640 C 616.12 -1.86307 -0.892936 0
M  V30 6641 C 616.528 -0.6945 -1.75992 0
M  V30 6642 O 615.871 0.345384 -1.80424 0
M  V30 6643 C 615.933 -3.10372 -1.81409 0
M  V30 6644 C 615.597 -4.42913 -1.12593 0
M  V30 6645 C 616.594 -5.17608 -0.487661 0
M  V30 6646 C 614.279 -4.89646 -1.12035 0
M  V30 6647 C 616.273 -6.3723 0.14699 0
M  V30 6648 C 613.96 -6.09197 -0.481883 0
M  V30 6649 C 614.958 -6.82834 0.150678 0
M  V30 6650 O 614.646 -8.00116 0.779065 0
M  V30 6651 H 614.378 -0.622126 -0.264452 0
M  V30 6652 H 616.932 -2.04728 -0.166063 0
M  V30 6653 H 615.162 -2.87917 -2.58148 0
M  V30 6654 H 616.851 -3.26312 -2.41403 0
M  V30 6655 H 617.617 -4.8258 -0.483888 0
M  V30 6656 H 613.496 -4.32265 -1.60212 0
M  V30 6657 H 617.04 -6.94646 0.641325 0
M  V30 6658 H 612.937 -6.43688 -0.483266 0
M  V30 6659 H 613.705 -8.15678 0.679089 0
M  V30 6660 N 616.368 0.432326 -1.51554 0
M  V30 6661 C 617.593 1.20824 -1.68571 0
M  V30 6662 C 618.018 1.84126 -0.384596 0
M  V30 6663 O 617.376 1.69025 0.655751 0
M  V30 6664 C 617.424 2.26429 -2.80646 0
M  V30 6665 O 616.528 3.32032 -2.44598 0
M  V30 6666 H 615.869 0.353765 -0.561913 0
M  V30 6667 H 618.399 0.509916 -1.98144 0
M  V30 6668 H 618.409 2.71133 -3.04878 0
M  V30 6669 H 617.084 1.79733 -3.75058 0
M  V30 6670 H 615.661 2.92769 -2.30956 0
M  V30 6671 N 617.846 1.41785 0.688094 0
M  V30 6672 C 619.123 1.32031 1.44316 0
M  V30 6673 C 619.503 -0.0486079 2.11044 0
M  V30 6674 O 618.851 -1.06332 2.02252 0
M  V30 6675 C 619.061 2.47906 2.45649 0
M  V30 6676 C 620.409 2.89415 3.10683 0
M  V30 6677 O 621.433 2.477 2.55975 0
M  V30 6678 O 620.292 3.61573 4.09789 0
M  V30 6679 H 617.386 0.519994 0.643067 0
M  V30 6680 H 619.932 1.53765 0.71794 0
M  V30 6681 H 618.704 3.39222 1.95048 0
M  V30 6682 H 618.327 2.28089 3.25671 0
M  V30 6683 N 619.324 -0.923095 1.27737 0
M  V30 6684 C 620.271 -2.02432 1.1086 0
M  V30 6685 C 621.241 -1.66098 0.00835195 0
M  V30 6686 O 622.426 -1.90027 0.171542 0
M  V30 6687 C 619.566 -3.36476 0.766671 0
M  V30 6688 C 618.679 -3.85737 1.94501 0
M  V30 6689 C 617.814 -5.08249 1.54455 0
M  V30 6690 C 616.853 -5.49818 2.6901 0
M  V30 6691 N 615.99 -6.63524 2.29521 0
M  V30 6692 H 620.83 -2.16201 2.05089 0
M  V30 6693 H 618.367 -1.05909 1.02087 0
M  V30 6694 H 620.325 -4.13569 0.549223 0
M  V30 6695 H 618.955 -3.22502 -0.13867 0
M  V30 6696 H 618.007 -3.04883 2.27487 0
M  V30 6697 H 619.319 -4.12513 2.80419 0
M  V30 6698 H 618.473 -5.92857 1.28862 0
M  V30 6699 H 617.212 -4.83261 0.656534 0
M  V30 6700 H 616.217 -4.63757 2.95313 0
M  V30 6701 H 617.442 -5.76799 3.5844 0
M  V30 6702 H 615.388 -6.40185 1.43177 0
M  V30 6703 H 615.305 -6.89978 3.08977 0
M  V30 6704 H 616.573 -7.51461 2.07187 0
M  V30 6705 N 620.802 -1.09834 -1.13024 0
M  V30 6706 C 622.032 -0.857657 -1.87957 0
M  V30 6707 C 622.44 0.595008 -1.796 0
M  V30 6708 O 621.783 1.42158 -1.16347 0
M  V30 6709 C 621.845 -1.21949 -3.38185 0
M  V30 6710 C 621.509 -2.67791 -3.7032 0
M  V30 6711 C 622.506 -3.66036 -3.69207 0
M  V30 6712 C 620.191 -3.04019 -3.99847 0
M  V30 6713 C 622.185 -4.98533 -3.9717 0
M  V30 6714 C 619.872 -4.36706 -4.27471 0
M  V30 6715 C 620.87 -5.33772 -4.26118 0
M  V30 6716 O 620.558 -6.64072 -4.53061 0
M  V30 6717 H 620.29 -0.308009 -0.601753 0
M  V30 6718 H 622.844 -1.46496 -1.43973 0
M  V30 6719 H 621.074 -0.555249 -3.82693 0
M  V30 6720 H 622.763 -0.957281 -3.9445 0
M  V30 6721 H 623.529 -3.39392 -3.46465 0
M  V30 6722 H 619.408 -2.29096 -4.00045 0
M  V30 6723 H 622.952 -5.74288 -3.96029 0
M  V30 6724 H 618.849 -4.63091 -4.49685 0
M  V30 6725 H 619.617 -6.69608 -4.7071 0
M  V30 6726 N 622.28 1.30327 -0.886154 0
M  V30 6727 C 623.528 1.9571 -0.504195 0
M  V30 6728 C 623.849 1.70294 0.950003 0
M  V30 6729 O 623.119 1.02718 1.66811 0
M  V30 6730 H 621.699 0.72412 -0.183465 0
M  V30 6731 H 624.361 1.58835 -1.12949 0
M  V30 6732 H 623.457 3.04704 -0.675431 0
M  V30 6733 N 623.758 0.647228 1.43697 0
M  V30 6734 C 624.688 -0.0345631 2.33474 0
M  V30 6735 C 625.669 -0.818193 1.4913 0
M  V30 6736 O 626.854 -0.780867 1.77809 0
M  V30 6737 C 623.984 -1.00576 3.32418 0
M  V30 6738 C 622.938 -0.33266 4.26705 0
M  V30 6739 C 622.264 -1.41489 5.1564 0
M  V30 6740 C 623.564 0.771204 5.16575 0
M  V30 6741 H 625.258 0.715163 2.90733 0
M  V30 6742 H 622.804 0.345364 1.39797 0
M  V30 6743 H 624.757 -1.49159 3.94119 0
M  V30 6744 H 623.481 -1.78657 2.73403 0
M  V30 6745 H 622.14 0.13267 3.6636 0
M  V30 6746 H 621.788 -2.18698 4.52968 0
M  V30 6747 H 621.488 -0.969799 5.79542 0
M  V30 6748 H 623.012 -1.9022 5.80214 0
M  V30 6749 H 624.426 0.36779 5.72119 0
M  V30 6750 H 622.823 1.1404 5.89165 0
M  V30 6751 H 623.893 1.63169 4.56622 0
M  V30 6752 N 625.236 -1.5273 0.388769 0
M  V30 6753 C 626.484 -2.01174 -0.193208 0
M  V30 6754 C 626.805 -1.27705 -1.47365 0
M  V30 6755 O 626.075 -0.396966 -1.91836 0
M  V30 6756 H 624.655 -0.743287 -0.0743871 0
M  V30 6757 H 627.317 -1.87826 0.520336 0
M  V30 6758 H 626.413 -3.09477 -0.403803 0
M  V30 6759 N 626.714 -0.118576 -1.57153 0
M  V30 6760 C 627.944 0.546466 -1.99242 0
M  V30 6761 C 628.352 1.60791 -0.997148 0
M  V30 6762 O 627.695 1.83691 0.0181745 0
M  V30 6763 C 627.757 1.23167 -3.37743 0
M  V30 6764 C 627.421 0.318226 -4.55891 0
M  V30 6765 C 628.418 -0.442988 -5.18009 0
M  V30 6766 C 626.103 0.229421 -5.01776 0
M  V30 6767 C 628.097 -1.28074 -6.244 0
M  V30 6768 C 625.784 -0.611966 -6.08028 0
M  V30 6769 C 626.782 -1.36568 -6.69207 0
M  V30 6770 O 626.47 -2.1931 -7.73407 0
M  V30 6771 H 626.202 0.149297 -0.659307 0
M  V30 6772 H 628.756 -0.201603 -2.04408 0
M  V30 6773 H 626.986 2.0268 -3.29329 0
M  V30 6774 H 628.675 1.79358 -3.64123 0
M  V30 6775 H 629.441 -0.38425 -4.83475 0
M  V30 6776 H 625.32 0.805771 -4.53903 0
M  V30 6777 H 628.864 -1.86952 -6.72082 0
M  V30 6778 H 624.761 -0.6721 -6.41991 0
M  V30 6779 H 625.529 -2.12247 -7.90502 0
M  V30 6780 N 628.193 1.56834 0.155195 0
M  V30 6781 C 629.125 1.94235 1.21677 0
M  V30 6782 C 630.138 0.83724 1.39621 0
M  V30 6783 O 631.327 1.11567 1.39338 0
M  V30 6784 C 628.427 2.19402 2.58294 0
M  V30 6785 C 627.6 3.50671 2.61436 0
M  V30 6786 C 626.659 3.64475 3.79532 0
M  V30 6787 O 625.685 4.36945 3.64784 0
M  V30 6788 N 626.887 3.00526 4.96653 0
M  V30 6789 H 629.652 2.85901 0.898932 0
M  V30 6790 H 627.213 1.58185 0.34483 0
M  V30 6791 H 629.205 2.25886 3.35794 0
M  V30 6792 H 627.775 1.34042 2.82403 0
M  V30 6793 H 626.995 3.55702 1.69912 0
M  V30 6794 H 628.283 4.3702 2.60559 0
M  V30 6795 H 627.681 2.41549 5.11538 0
M  V30 6796 H 626.238 3.12583 5.71958 0
M  V30 6797 N 629.671 -0.424282 1.51781 0
M  V30 6798 C 630.601 -1.52305 1.7699 0
M  V30 6799 C 631.582 -1.5839 0.620209 0
M  V30 6800 O 632.767 -1.73908 0.864268 0
M  V30 6801 C 629.897 -2.90271 1.90683 0
M  V30 6802 C 628.851 -2.99043 3.06198 0
M  V30 6803 C 628.177 -4.39116 3.05092 0
M  V30 6804 C 629.477 -2.7192 4.45934 0
M  V30 6805 H 631.171 -1.31461 2.68995 0
M  V30 6806 H 628.717 -0.630985 1.29439 0
M  V30 6807 H 630.67 -3.6711 2.06901 0
M  V30 6808 H 629.394 -3.12376 0.953365 0
M  V30 6809 H 628.053 -2.24646 2.89706 0
M  V30 6810 H 627.701 -4.58207 2.07498 0
M  V30 6811 H 627.401 -4.45912 3.82669 0
M  V30 6812 H 628.925 -5.17911 3.2342 0
M  V30 6813 H 630.339 -3.38487 4.62709 0
M  V30 6814 H 628.736 -2.90111 5.25315 0
M  V30 6815 H 629.806 -1.67445 4.55072 0
M  V30 6816 N 631.149 -1.42148 -0.680565 0
M  V30 6817 C 632.389 -1.4379 -1.45271 0
M  V30 6818 C 632.753 -0.0504426 -1.91934 0
M  V30 6819 O 633.954 0.0583916 -2.68737 0
M  V30 6820 C 632.225 -2.42904 -2.62168 0
M  V30 6821 S 633.784 -2.63201 -3.51099 0
M  V30 6822 H 630.602 -0.509185 -0.496237 0
M  V30 6823 H 633.204 -1.78706 -0.792744 0
M  V30 6824 H 631.908 -3.4249 -2.26116 0
M  V30 6825 H 631.439 -2.09394 -3.33043 0
M  V30 6826 H 633.454 -1.91068 -4.57938 0
M  V30 6827 N 632.627 0.916307 -1.28225 0
M  V30 6828 C 633.904 1.64429 -1.05936 0
M  V30 6829 C 634.284 2.07234 0.402139 0
M  V30 6830 O 633.632 1.81535 1.3877 0
M  V30 6831 C 633.842 2.83773 -2.03159 0
M  V30 6832 C 635.19 3.54852 -2.33164 0
M  V30 6833 O 636.214 2.93918 -2.01223 0
M  V30 6834 O 635.073 4.64663 -2.87664 0
M  V30 6835 H 632.167 0.721221 -0.404683 0
M  V30 6836 H 634.713 0.965838 -1.39534 0
M  V30 6837 H 633.485 2.49217 -3.01673 0
M  V30 6838 H 633.108 3.59333 -1.70192 0
M  V30 6839 N 634.105 1.10431 1.1244 0
M  V30 6840 C 635.053 0.747974 2.20246 0
M  V30 6841 C 636.047 -0.255848 1.67457 0
M  V30 6842 O 637.253 -0.116221 1.79624 0
M  V30 6843 H 633.628 0.223946 0.71788 0
M  V30 6844 H 635.599 1.6661 2.47556 0
M  V30 6845 C 634.348 0.195957 3.47147 0
M  V30 6846 H 633.671 0.959606 3.88113 0
M  V30 6847 H 635.111 -0.0153154 4.23997 0
M  V30 6848 C 633.57 -1.07132 3.19413 0
M  V30 6849 O 634.1 -2.15284 3.3914 0
M  V30 6850 N 632.306 -0.98994 2.73219 0
M  V30 6851 H 631.853 -0.109736 2.57366 0
M  V30 6852 H 631.811 -1.83856 2.55038 0
M  V30 6853 N 635.583 -1.29855 0.893053 0
M  V30 6854 C 636.808 -2.00512 0.530066 0
M  V30 6855 C 637.233 -1.66446 -0.876199 0
M  V30 6856 O 636.591 -0.885446 -1.58207 0
M  V30 6857 C 636.639 -3.53308 0.721505 0
M  V30 6858 O 635.743 -4.11764 -0.228994 0
M  V30 6859 H 635.084 -0.630617 0.207891 0
M  V30 6860 H 637.614 -1.6551 1.20282 0
M  V30 6861 H 637.624 -4.03206 0.623599 0
M  V30 6862 H 636.299 -3.77439 1.74678 0
M  V30 6863 H 634.876 -3.72805 -0.0841034 0
M  V30 6864 N 637.061 -0.65484 -1.43351 0
M  V30 6865 C 638.307 -0.169142 -2.02093 0
M  V30 6866 C 638.64 1.21431 -1.51553 0
M  V30 6867 O 637.915 1.81105 -0.709317 0
M  V30 6868 C 638.198 -0.181775 -3.59641 0
M  V30 6869 C 638.051 -1.59926 -4.20409 0
M  V30 6870 C 639.37 0.480945 -4.37464 0
M  V30 6871 H 636.489 -0.0629371 -0.734308 0
M  V30 6872 H 639.131 -0.835833 -1.70628 0
M  V30 6873 H 637.281 0.385918 -3.86578 0
M  V30 6874 H 638.953 -2.21766 -4.04497 0
M  V30 6875 H 637.196 -2.14605 -3.76998 0
M  V30 6876 H 637.867 -1.55994 -5.295 0
M  V30 6877 H 640.343 -0.00208273 -4.161 0
M  V30 6878 H 639.219 0.441384 -5.47122 0
M  V30 6879 H 639.48 1.55533 -4.13838 0
M  V30 6880 N 638.539 1.52521 -0.396863 0
M  V30 6881 C 639.787 2.01274 0.182536 0
M  V30 6882 C 640.108 1.28485 1.46685 0
M  V30 6883 O 639.378 0.407134 1.91623 0
M  V30 6884 H 637.958 0.743671 0.0704442 0
M  V30 6885 H 640.62 1.87547 -0.530289 0
M  V30 6886 H 639.716 3.09687 0.387385 0
M  V30 6887 N 640.017 0.126909 1.57088 0
M  V30 6888 C 641.263 -0.529952 1.95753 0
M  V30 6889 C 641.596 -1.65823 1.01077 0
M  V30 6890 O 640.871 -1.94437 0.0494162 0
M  V30 6891 C 641.154 -1.05517 3.44294 0
M  V30 6892 C 641.007 0.0702253 4.49745 0
M  V30 6893 C 642.326 -1.9435 3.94862 0
M  V30 6894 H 639.445 -0.191168 0.711775 0
M  V30 6895 H 642.087 0.204071 1.88901 0
M  V30 6896 H 640.237 -1.68069 3.50264 0
M  V30 6897 H 641.909 0.705834 4.55868 0
M  V30 6898 H 640.152 0.732259 4.27575 0
M  V30 6899 H 640.823 -0.338642 5.5096 0
M  V30 6900 H 643.299 -1.41658 3.91244 0
M  V30 6901 H 642.175 -2.28015 4.993 0
M  V30 6902 H 642.436 -2.87299 3.36024 0
M  V30 6903 N 641.495 -1.56914 -0.146875 0
M  V30 6904 C 642.425 -2.01308 -1.1831 0
M  V30 6905 C 643.406 -0.892664 -1.44795 0
M  V30 6906 O 644.591 -1.16048 -1.55713 0
M  V30 6907 C 641.721 -2.3938 -2.51624 0
M  V30 6908 C 640.675 -3.54608 -2.3966 0
M  V30 6909 C 640.001 -3.78493 -3.77686 0
M  V30 6910 C 641.301 -4.87269 -1.88058 0
M  V30 6911 H 642.995 -2.88123 -0.813964 0
M  V30 6912 H 640.541 -1.38615 -0.3901 0
M  V30 6913 H 642.494 -2.69037 -3.24341 0
M  V30 6914 H 641.218 -1.49502 -2.90373 0
M  V30 6915 H 639.877 -3.25116 -1.69396 0
M  V30 6916 H 639.525 -2.85866 -4.13871 0
M  V30 6917 H 639.225 -4.56039 -3.70543 0
M  V30 6918 H 640.749 -4.10576 -4.51951 0
M  V30 6919 H 642.163 -5.15644 -2.50568 0
M  V30 6920 H 640.56 -5.68622 -1.91805 0
M  V30 6921 H 641.63 -4.77634 -0.836277 0
M  V30 6922 N 642.974 0.416227 -1.52004 0
M  V30 6923 C 644.221 1.16383 -1.65714 0
M  V30 6924 C 644.549 1.9068 -0.383594 0
M  V30 6925 O 643.804 1.85174 0.633185 0
M  V30 6926 C 644.103 2.18923 -2.82502 0
M  V30 6927 C 643.769 1.61485 -4.20991 0
M  V30 6928 C 642.431 1.45545 -4.58661 0
M  V30 6929 C 644.783 1.19468 -5.07323 0
M  V30 6930 C 642.111 0.860937 -5.80349 0
M  V30 6931 C 644.463 0.614386 -6.29609 0
M  V30 6932 C 643.127 0.442056 -6.66035 0
M  V30 6933 H 642.397 0.425875 -0.606392 0
M  V30 6934 H 645.044 0.45199 -1.8609 0
M  V30 6935 H 643.349 2.96225 -2.56433 0
M  V30 6936 H 645.046 2.76628 -2.90307 0
M  V30 6937 H 641.636 1.74873 -3.91302 0
M  V30 6938 H 645.82 1.30596 -4.78809 0
M  V30 6939 H 641.076 0.715372 -6.072 0
M  V30 6940 H 645.25 0.280393 -6.95835 0
M  V30 6941 H 642.877 -0.0207218 -7.60197 0
M  V30 6942 N 644.452 1.42507 0.673017 0
M  V30 6943 C 645.4 1.46362 1.80779 0
M  V30 6944 C 646.394 0.339166 1.6597 0
M  V30 6945 O 647.6 0.512262 1.72557 0
M  V30 6946 H 643.975 0.458433 0.596107 0
M  V30 6947 H 645.946 2.41953 1.74646 0
M  V30 6948 C 644.695 1.38462 3.18941 0
M  V30 6949 H 644.018 2.24283 3.30964 0
M  V30 6950 H 645.458 1.45221 3.98355 0
M  V30 6951 C 643.917 0.0996354 3.36753 0
M  V30 6952 O 644.447 -0.846894 3.92671 0
M  V30 6953 N 642.653 0.016211 2.90595 0
M  V30 6954 H 642.2 0.78725 2.45276 0
M  V30 6955 H 642.158 -0.84291 3.0289 0
M  V30 6956 N 645.93 -0.909495 1.28709 0
M  V30 6957 C 647.207 -1.63865 1.06806 0
M  V30 6958 C 647.587 -2.07445 -0.391143 0
M  V30 6959 O 646.935 -1.82269 -1.37805 0
M  V30 6960 C 647.145 -2.82692 2.04661 0
M  V30 6961 C 648.493 -3.5361 2.35042 0
M  V30 6962 O 649.517 -2.92847 2.02779 0
M  V30 6963 O 648.376 -4.63131 2.90124 0
M  V30 6964 H 645.47 -0.719065 0.408502 0
M  V30 6965 H 648.016 -0.958424 1.40044 0
M  V30 6966 H 646.788 -2.47614 3.0299 0
M  V30 6967 H 646.411 -3.58426 1.72095 0
M  V30 6968 N 647.408 -1.11026 -1.11852 0
M  V30 6969 C 648.633 -0.879064 -1.87849 0
M  V30 6970 C 649.058 0.565406 -1.79401 0
M  V30 6971 O 648.416 1.39886 -1.15333 0
M  V30 6972 C 648.464 -1.33985 -3.34784 0
M  V30 6973 O 647.568 -0.508803 -4.09249 0
M  V30 6974 H 646.909 -0.316992 -0.583448 0
M  V30 6975 H 649.439 -1.47863 -1.41413 0
M  V30 6976 H 649.449 -1.33248 -3.85628 0
M  V30 6977 H 648.124 -2.39172 -3.40249 0
M  V30 6978 H 646.701 -0.581913 -3.68332 0
M  V30 6979 N 648.886 1.2938 -0.899927 0
M  V30 6980 C 650.114 1.99691 -0.541386 0
M  V30 6981 C 650.529 1.67355 0.873936 0
M  V30 6982 O 649.886 0.918728 1.57688 0
M  V30 6983 C 649.937 3.54168 -0.72438 0
M  V30 6984 O 649.658 3.85359 -2.08399 0
M  V30 6985 C 651.159 4.41746 -0.370819 0
M  V30 6986 H 648.379 0.638037 -0.207726 0
M  V30 6987 H 650.923 1.6491 -1.20934 0
M  V30 6988 H 649.078 3.87261 -0.103607 0
M  V30 6989 H 649.492 4.80032 -2.11352 0
M  V30 6990 H 650.966 5.49256 -0.549693 0
M  V30 6991 H 651.443 4.33712 0.692148 0
M  V30 6992 H 652.049 4.14125 -0.968543 0
M  V30 6993 N 650.364 0.662433 1.43002 0
M  V30 6994 C 651.78 0.330835 1.56133 0
M  V30 6995 C 651.98 -1.16454 1.64441 0
M  V30 6996 O 651.036 -1.94964 1.60453 0
M  V30 6997 C 652.349 1.05029 2.81761 0
M  V30 6998 C 653.897 1.03142 2.95518 0
M  V30 6999 C 654.372 1.73196 4.2399 0
M  V30 7000 N 655.863 1.70004 4.30875 0
M  V30 7001 C 656.598 2.21074 5.29069 0
M  V30 7002 N 656.094 2.80473 6.33488 0
M  V30 7003 N 657.887 2.1152 5.20784 0
M  V30 7004 H 650.038 1.63272 1.35853 0
M  V30 7005 H 652.301 0.687149 0.653092 0
M  V30 7006 H 652.007 2.10542 2.81718 0
M  V30 7007 H 651.881 0.607664 3.72273 0
M  V30 7008 H 654.268 -0.0153339 2.95096 0
M  V30 7009 H 654.349 1.51282 2.0627 0
M  V30 7010 H 653.993 2.77833 4.25172 0
M  V30 7011 H 653.923 1.22515 5.1215 0
M  V30 7012 H 656.414 1.26667 3.56039 0
M  V30 7013 H 656.727 3.17094 7.04749 0
M  V30 7014 H 655.072 2.84538 6.34085 0
M  V30 7015 H 658.263 1.64814 4.38126 0
M  V30 7016 H 658.436 2.51629 5.97149 0
M  V30 7017 N 651.842 -1.52309 0.404946 0
M  V30 7018 C 652.772 -2.29805 -0.41376 0
M  V30 7019 C 653.753 -1.3384 -1.0498 0
M  V30 7020 O 654.938 -1.62745 -1.05961 0
M  V30 7021 C 652.068 -3.11639 -1.53292 0
M  V30 7022 C 651.022 -4.15616 -1.02211 0
M  V30 7023 C 650.348 -4.8577 -2.23455 0
M  V30 7024 C 651.648 -5.2224 -0.0790725 0
M  V30 7025 H 653.342 -2.98493 0.232878 0
M  V30 7026 H 650.888 -1.43552 0.113441 0
M  V30 7027 H 652.841 -3.64618 -2.11262 0
M  V30 7028 H 651.565 -2.40712 -2.20738 0
M  V30 7029 H 650.224 -3.63641 -0.46484 0
M  V30 7030 H 649.872 -4.11376 -2.89445 0
M  V30 7031 H 649.572 -5.56058 -1.89929 0
M  V30 7032 H 651.096 -5.4156 -2.82038 0
M  V30 7033 H 652.51 -5.70485 -0.567438 0
M  V30 7034 H 650.907 -5.99867 0.167167 0
M  V30 7035 H 651.977 -4.77078 0.867447 0
M  V30 7036 N 653.32 -0.135238 -1.57019 0
M  V30 7037 C 654.569 0.518694 -1.94917 0
M  V30 7038 C 654.882 1.66783 -1.0219 0
M  V30 7039 O 656.088 2.38561 -1.29619 0
M  V30 7040 C 654.544 0.974123 -3.46466 0
M  V30 7041 C 654.152 -0.147439 -4.47757 0
M  V30 7042 C 655.896 1.59851 -3.93253 0
M  V30 7043 C 653.803 0.325599 -5.90503 0
M  V30 7044 H 652.733 0.19754 -0.727663 0
M  V30 7045 H 655.384 -0.217698 -1.82204 0
M  V30 7046 H 653.766 1.76542 -3.5447 0
M  V30 7047 H 654.94 -0.924122 -4.51438 0
M  V30 7048 H 653.255 -0.679496 -4.10818 0
M  V30 7049 H 655.852 1.96385 -4.9733 0
M  V30 7050 H 656.195 2.48306 -3.3414 0
M  V30 7051 H 656.728 0.872323 -3.88118 0
M  V30 7052 H 653.467 -0.523295 -6.53408 0
M  V30 7053 H 652.987 1.06841 -5.90208 0
M  V30 7054 H 654.666 0.781498 -6.42263 0
M  V30 7055 N 654.798 1.5699 0.138552 0
M  V30 7056 C 655.728 2.01933 1.17241 0
M  V30 7057 C 656.709 0.90033 1.44319 0
M  V30 7058 O 657.894 1.16872 1.55095 0
M  V30 7059 C 655.024 2.40711 2.50351 0
M  V30 7060 C 653.978 3.55874 2.37776 0
M  V30 7061 C 653.304 3.80491 3.75674 0
M  V30 7062 C 654.604 4.8826 1.85472 0
M  V30 7063 H 656.298 2.88551 0.798672 0
M  V30 7064 H 653.844 1.3882 0.382743 0
M  V30 7065 H 655.797 2.70754 3.22909 0
M  V30 7066 H 654.521 1.5104 2.89576 0
M  V30 7067 H 653.18 3.2601 1.67669 0
M  V30 7068 H 652.828 2.88057 4.12349 0
M  V30 7069 H 652.528 4.57998 3.68119 0
M  V30 7070 H 654.052 4.12967 4.49767 0
M  V30 7071 H 655.466 5.16965 2.4783 0
M  V30 7072 H 653.863 5.69631 1.88787 0
M  V30 7073 H 654.933 4.78071 0.810935 0
M  V30 7074 N 656.276 -0.40816 1.52223 0
M  V30 7075 C 657.506 -1.17501 1.69932 0
M  V30 7076 C 657.914 -1.84729 0.408874 0
M  V30 7077 O 657.257 -1.7274 -0.625025 0
M  V30 7078 C 657.319 -2.27994 2.77955 0
M  V30 7079 C 656.983 -1.80894 4.19674 0
M  V30 7080 C 657.98 -1.29618 5.03483 0
M  V30 7081 C 655.665 -1.87698 4.65913 0
M  V30 7082 C 657.659 -0.857695 6.31603 0
M  V30 7083 C 655.346 -1.43461 5.94022 0
M  V30 7084 C 656.344 -0.925822 6.76696 0
M  V30 7085 O 656.032 -0.489841 8.02406 0
M  V30 7086 H 655.764 -0.359065 0.572755 0
M  V30 7087 H 658.318 -0.486188 1.99563 0
M  V30 7088 H 656.548 -3.00243 2.43703 0
M  V30 7089 H 658.237 -2.89749 2.84254 0
M  V30 7090 H 659.003 -1.23733 4.68951 0
M  V30 7091 H 654.882 -2.26244 4.01665 0
M  V30 7092 H 658.426 -0.459879 6.96083 0
M  V30 7093 H 654.323 -1.49026 6.28062 0
M  V30 7094 H 655.091 -0.613062 8.16201 0
M  V30 7095 N 657.755 -1.42862 -0.66545 0
M  V30 7096 C 658.703 -1.47319 -1.8 0
M  V30 7097 C 659.697 -0.347963 -1.65788 0
M  V30 7098 O 660.903 -0.521406 -1.72283 0
M  V30 7099 H 657.278 -0.461588 -0.593667 0
M  V30 7100 H 659.249 -2.42876 -1.7336 0
M  V30 7101 C 657.998 -1.40152 -3.18203 0
M  V30 7102 H 657.321 -2.26035 -3.2977 0
M  V30 7103 H 658.761 -1.47331 -3.9758 0
M  V30 7104 C 657.22 -0.117493 -3.36695 0
M  V30 7105 O 657.75 0.826058 -3.93115 0
M  V30 7106 N 655.956 -0.0316218 -2.90583 0
M  V30 7107 H 655.503 -0.800247 -2.44855 0
M  V30 7108 H 655.461 0.826835 -3.03333 0
M  V30 7109 N 659.233 0.902656 -1.29189 0
M  V30 7110 C 660.51 1.63296 -1.07674 0
M  V30 7111 C 660.89 2.07649 0.380137 0
M  V30 7112 O 660.238 1.82997 1.36837 0
M  V30 7113 C 660.448 2.81603 -2.06158 0
M  V30 7114 C 661.796 3.52359 -2.36914 0
M  V30 7115 O 662.82 2.91767 -2.04329 0
M  V30 7116 O 661.679 4.61586 -2.92576 0
M  V30 7117 H 658.773 0.716889 -0.41231 0
M  V30 7118 H 661.319 0.950984 -1.4055 0
M  V30 7119 H 660.091 2.46004 -3.04299 0
M  V30 7120 H 659.714 3.57508 -1.73993 0
M  V30 7121 N 660.711 1.11618 1.11262 0
M  V30 7122 C 661.959 0.864469 1.82678 0
M  V30 7123 C 662.28 -0.611564 1.85162 0
M  V30 7124 O 661.55 -1.44429 1.32352 0
M  V30 7125 H 660.13 0.316821 0.676486 0
M  V30 7126 H 662.792 1.40894 1.34666 0
M  V30 7127 H 661.888 1.23832 2.86482 0
M  V30 7128 N 662.189 -1.289 0.906776 0
M  V30 7129 C 663.466 -1.90221 0.455537 0
M  V30 7130 C 663.846 -1.82251 -1.06527 0
M  V30 7131 O 663.194 -1.25385 -1.91026 0
M  V30 7132 C 663.404 -3.35015 0.97806 0
M  V30 7133 C 664.752 -4.12018 1.02598 0
M  V30 7134 O 665.776 -3.43947 0.926218 0
M  V30 7135 O 664.635 -5.33677 1.17689 0
M  V30 7136 H 661.729 -0.814505 0.143214 0
M  V30 7137 H 664.275 -1.37317 0.997104 0
M  V30 7138 H 663.047 -3.35006 2.02204 0
M  V30 7139 H 662.67 -3.95408 0.416914 0
M  V30 7140 N 663.667 -0.670007 -1.42649 0
M  V30 7141 C 664.892 -0.196955 -2.06463 0
M  V30 7142 C 665.317 1.1352 -1.49983 0
M  V30 7143 O 664.675 1.705 -0.616397 0
M  V30 7144 C 664.723 -0.137381 -3.60338 0
M  V30 7145 O 663.827 0.895523 -4.02559 0
M  V30 7146 H 663.168 -0.102579 -0.656029 0
M  V30 7147 H 665.698 -0.917669 -1.82866 0
M  V30 7148 H 665.708 0.0403625 -4.0798 0
M  V30 7149 H 664.383 -1.10977 -4.0082 0
M  V30 7150 H 662.96 0.689209 -3.66476 0
M  V30 7151 N 665.145 1.52092 -0.413018 0
M  V30 7152 C 666.075 2.30021 0.401567 0
M  V30 7153 C 667.056 1.34395 1.04269 0
M  V30 7154 O 668.241 1.63304 1.05097 0
M  V30 7155 C 665.371 3.12447 1.51638 0
M  V30 7156 C 664.325 4.16153 1.00005 0
M  V30 7157 C 663.651 4.86948 2.20875 0
M  V30 7158 C 664.951 5.22275 0.0513757 0
M  V30 7159 H 666.645 2.98365 -0.248704 0
M  V30 7160 H 664.191 1.4349 -0.121052 0
M  V30 7161 H 666.144 3.65733 2.09326 0
M  V30 7162 H 664.868 2.41879 2.19458 0
M  V30 7163 H 663.527 3.63882 0.445549 0
M  V30 7164 H 663.175 4.12905 2.8726 0
M  V30 7165 H 662.875 5.57057 1.86978 0
M  V30 7166 H 664.399 5.43048 2.79162 0
M  V30 7167 H 665.813 5.70778 0.537176 0
M  V30 7168 H 664.21 5.9977 -0.198977 0
M  V30 7169 H 665.28 4.76611 -0.892736 0
M  V30 7170 N 666.623 0.143563 1.56945 0
M  V30 7171 C 667.555 -0.828353 2.13708 0
M  V30 7172 C 668.568 -1.21313 1.08568 0
M  V30 7173 O 669.757 -1.1578 1.35857 0
M  V30 7174 C 666.857 -2.12248 2.64204 0
M  V30 7175 C 666.03 -1.90561 3.93707 0
M  V30 7176 C 665.089 -3.03931 4.29549 0
M  V30 7177 O 664.115 -2.75772 4.97934 0
M  V30 7178 N 665.317 -4.31016 3.88852 0
M  V30 7179 H 668.082 -0.343242 2.97728 0
M  V30 7180 H 665.643 -0.0401152 1.6185 0
M  V30 7181 H 667.635 -2.87132 2.85197 0
M  V30 7182 H 666.205 -2.52033 1.84928 0
M  V30 7183 H 665.425 -0.997327 3.81375 0
M  V30 7184 H 666.713 -1.73405 4.78339 0
M  V30 7185 H 666.111 -4.56762 3.33743 0
M  V30 7186 H 664.668 -5.02691 4.14903 0
M  V30 7187 N 668.101 -1.57061 -0.130224 0
M  V30 7188 C 669.331 -1.88159 -0.853217 0
M  V30 7189 C 669.739 -0.731675 -1.7448 0
M  V30 7190 O 669.082 0.307035 -1.81116 0
M  V30 7191 C 669.144 -3.1415 -1.74785 0
M  V30 7192 C 668.808 -4.45202 -1.03173 0
M  V30 7193 C 669.805 -5.18526 -0.377759 0
M  V30 7194 C 667.49 -4.91912 -1.01624 0
M  V30 7195 C 669.484 -6.36775 0.282123 0
M  V30 7196 C 667.171 -6.10082 -0.352555 0
M  V30 7197 C 668.169 -6.82361 0.295483 0
M  V30 7198 O 667.857 -7.98284 0.948606 0
M  V30 7199 H 667.589 -0.627596 -0.251197 0
M  V30 7200 H 670.143 -2.05034 -0.1226 0
M  V30 7201 H 668.373 -2.93328 -2.51983 0
M  V30 7202 H 670.062 -3.31359 -2.34427 0
M  V30 7203 H 670.828 -4.83498 -0.381417 0
M  V30 7204 H 666.707 -4.35566 -1.51007 0
M  V30 7205 H 670.251 -6.93129 0.788525 0
M  V30 7206 H 666.148 -6.44569 -0.346621 0
M  V30 7207 H 666.916 -8.14054 0.851954 0
M  V30 7208 N 669.579 0.400081 -1.52437 0
M  V30 7209 C 670.828 1.14332 -1.66166 0
M  V30 7210 C 671.141 1.91419 -0.402253 0
M  V30 7211 O 672.347 2.6824 -0.419487 0
M  V30 7212 C 670.803 2.08137 -2.9361 0
M  V30 7213 C 670.411 1.36524 -4.26691 0
M  V30 7214 C 672.155 2.82664 -3.16703 0
M  V30 7215 C 670.062 2.29031 -5.45251 0
M  V30 7216 H 668.992 0.430499 -0.61902 0
M  V30 7217 H 671.643 0.407017 -1.78929 0
M  V30 7218 H 670.025 2.85358 -2.74567 0
M  V30 7219 H 671.199 0.646061 -4.56249 0
M  V30 7220 H 669.514 0.74002 -4.09771 0
M  V30 7221 H 672.111 3.52037 -4.0246 0
M  V30 7222 H 672.454 3.46122 -2.31312 0
M  V30 7223 H 672.987 2.12541 -3.36261 0
M  V30 7224 H 669.726 1.70206 -6.33017 0
M  V30 7225 H 669.246 2.98896 -5.2002 0
M  V30 7226 H 670.925 2.89359 -5.78689 0
M  V30 7227 N 671.057 1.43213 0.657864 0
M  V30 7228 C 671.967 1.50448 1.80007 0
M  V30 7229 C 672.983 0.39191 1.69529 0
M  V30 7230 O 674.159 0.645349 1.90781 0
M  V30 7231 C 671.224 1.42062 3.16258 0
M  V30 7232 C 670.285 2.63951 3.38568 0
M  V30 7233 C 669.518 2.55956 4.68318 0
M  V30 7234 O 669.741 1.60473 5.47361 0
M  V30 7235 O 668.675 3.46378 4.92245 0
M  V30 7236 H 672.501 2.4689 1.76858 0
M  V30 7237 H 670.086 1.25163 0.81576 0
M  V30 7238 H 671.968 1.3981 3.97531 0
M  V30 7239 H 670.643 0.487524 3.20008 0
M  V30 7240 H 669.55 2.71776 2.57077 0
M  V30 7241 H 670.883 3.56217 3.39662 0
M  V30 7242 N 672.536 -0.895792 1.29666 0
M  V30 7243 C 673.952 -1.17726 1.07763 0
M  V30 7244 C 674.152 -2.00794 -0.168576 0
M  V30 7245 O 673.208 -2.37213 -0.865244 0
M  V30 7246 C 674.521 -1.89441 2.33522 0
M  V30 7247 C 676.069 -2.02251 2.3888 0
M  V30 7248 C 676.544 -2.77378 3.64452 0
M  V30 7249 N 678.035 -2.8493 3.65198 0
M  V30 7250 C 678.77 -3.43606 4.59045 0
M  V30 7251 N 678.266 -4.03417 5.63228 0
M  V30 7252 N 680.059 -3.41317 4.46608 0
M  V30 7253 H 672.21 -0.341652 2.09634 0
M  V30 7254 H 674.473 -0.213865 0.923561 0
M  V30 7255 H 674.179 -1.35842 3.24407 0
M  V30 7256 H 674.053 -2.89893 2.41334 0
M  V30 7257 H 676.44 -2.55025 1.4848 0
M  V30 7258 H 676.521 -1.0092 2.3505 0
M  V30 7259 H 676.165 -2.25279 4.55205 0
M  V30 7260 H 676.095 -3.79062 3.65541 0
M  V30 7261 H 678.586 -2.42453 2.89871 0
M  V30 7262 H 678.899 -4.46224 6.30955 0
M  V30 7263 H 677.244 -4.01868 5.67033 0
M  V30 7264 H 680.435 -2.93812 3.64407 0
M  V30 7265 H 680.608 -3.86751 5.1993 0
M  V30 7266 N 674.014 -1.12206 -1.10668 0
M  V30 7267 C 675.291 -0.787382 -1.79052 0
M  V30 7268 C 675.671 0.723267 -1.98323 0
M  V30 7269 O 675.019 1.6561 -1.57434 0
M  V30 7270 C 675.229 -1.55968 -3.1221 0
M  V30 7271 C 676.577 -1.74413 -3.87125 0
M  V30 7272 O 677.601 -1.5246 -3.21923 0
M  V30 7273 O 676.46 -2.10952 -5.04144 0
M  V30 7274 H 673.554 -0.286137 -0.775922 0
M  V30 7275 H 676.1 -1.22595 -1.1734 0
M  V30 7276 H 674.872 -2.58692 -2.93588 0
M  V30 7277 H 674.495 -1.1152 -3.8164 0
M  V30 7278 N 675.492 1.28418 -0.913599 0
M  V30 7279 C 676.74 1.94596 -0.545594 0
M  V30 7280 C 677.061 1.7227 0.913668 0
M  V30 7281 O 676.331 1.06233 1.64595 0
M  V30 7282 H 674.911 0.720065 -0.198783 0
M  V30 7283 H 677.573 1.56404 -1.16292 0
M  V30 7284 H 676.669 3.03202 -0.739911 0
M  V30 7285 N 676.97 0.677563 1.42291 0
M  V30 7286 C 678.198 0.209459 2.05837 0
M  V30 7287 C 678.613 -1.13444 1.50917 0
M  V30 7288 O 677.97 -1.70529 0.65008 0
M  V30 7289 C 678.021 0.138819 3.61233 0
M  V30 7290 O 677.742 1.42962 4.14118 0
M  V30 7291 C 679.243 -0.352449 4.41897 0
M  V30 7292 H 676.463 0.101209 0.663323 0
M  V30 7293 H 679.007 0.925077 1.8238 0
M  V30 7294 H 677.162 -0.527505 3.83792 0
M  V30 7295 H 677.576 1.3048 5.08011 0
M  V30 7296 H 679.05 -0.350778 5.50884 0
M  V30 7297 H 679.527 -1.3882 4.16684 0
M  V30 7298 H 680.133 0.282236 4.24362 0
M  V30 7299 N 678.448 -1.51871 0.421078 0
M  V30 7300 C 679.358 -2.31077 -0.405069 0
M  V30 7301 C 680.374 -1.39301 -1.04265 0
M  V30 7302 O 681.55 -1.72376 -1.04157 0
M  V30 7303 C 678.615 -3.12556 -1.50032 0
M  V30 7304 C 677.676 -4.20088 -0.884559 0
M  V30 7305 C 676.909 -4.97673 -1.92762 0
M  V30 7306 O 677.132 -4.75696 -3.14753 0
M  V30 7307 O 676.066 -5.82203 -1.52719 0
M  V30 7308 H 679.892 -3.02742 0.241086 0
M  V30 7309 H 677.477 -1.48263 0.183991 0
M  V30 7310 H 679.359 -3.6326 -2.13589 0
M  V30 7311 H 678.034 -2.43672 -2.13086 0
M  V30 7312 H 676.941 -3.73502 -0.211379 0
M  V30 7313 H 678.274 -4.91298 -0.297763 0
M  V30 7314 N 679.926 -0.151884 -1.56866 0
M  V30 7315 C 681.151 0.508044 -2.01081 0
M  V30 7316 C 681.576 1.57306 -1.03134 0
M  V30 7317 O 680.934 1.81298 -0.0078309 0
M  V30 7318 C 680.982 1.08106 -3.44014 0
M  V30 7319 O 680.086 2.19577 -3.49084 0
M  V30 7320 H 679.427 0.123757 -0.652365 0
M  V30 7321 H 681.957 -0.250055 -2.03066 0
M  V30 7322 H 681.967 1.40851 -3.82916 0
M  V30 7323 H 680.642 0.301168 -4.14808 0
M  V30 7324 H 679.219 1.88023 -3.22027 0
M  V30 7325 N 681.404 1.57128 0.121893 0
M  V30 7326 C 682.634 1.88609 0.843227 0
M  V30 7327 C 683.042 0.740917 1.74089 0
M  V30 7328 O 682.385 -0.297426 1.81276 0
M  V30 7329 C 682.447 3.15073 1.73117 0
M  V30 7330 C 682.111 4.45742 1.0081 0
M  V30 7331 C 683.108 5.18719 0.350255 0
M  V30 7332 C 680.793 4.92444 0.99014 0
M  V30 7333 C 682.787 6.36617 -0.315889 0
M  V30 7334 C 680.474 6.10261 0.320196 0
M  V30 7335 C 681.472 6.82194 -0.331666 0
M  V30 7336 O 681.16 7.97769 -0.990927 0
M  V30 7337 H 680.892 0.628919 0.247865 0
M  V30 7338 H 683.446 2.05096 0.111725 0
M  V30 7339 H 681.676 2.9466 2.50424 0
M  V30 7340 H 683.365 3.32597 2.32667 0
M  V30 7341 H 684.131 4.83693 0.35577 0
M  V30 7342 H 680.01 4.36361 1.48695 0
M  V30 7343 H 683.554 6.92701 -0.825272 0
M  V30 7344 H 679.451 6.44743 0.312433 0
M  V30 7345 H 680.219 8.13591 -0.895113 0
M  V30 7346 N 682.882 -0.391992 1.52647 0
M  V30 7347 C 683.812 -1.48517 1.8018 0
M  V30 7348 C 684.793 -1.57039 0.653667 0
M  V30 7349 O 685.978 -1.72036 0.900962 0
M  V30 7350 C 683.108 -2.86161 1.96797 0
M  V30 7351 C 682.062 -2.92481 3.12472 0
M  V30 7352 C 681.388 -4.32546 3.14338 0
M  V30 7353 C 682.688 -2.624 4.51601 0
M  V30 7354 H 684.382 -1.25726 2.71723 0
M  V30 7355 H 681.928 -0.603387 1.30749 0
M  V30 7356 H 683.881 -3.62639 2.14641 0
M  V30 7357 H 682.605 -3.10283 1.01941 0
M  V30 7358 H 681.264 -2.18451 2.94406 0
M  V30 7359 H 680.912 -4.53703 2.1717 0
M  V30 7360 H 680.612 -4.37695 3.92042 0
M  V30 7361 H 682.136 -5.10934 3.34333 0
M  V30 7362 H 683.55 -3.28596 4.69785 0
M  V30 7363 H 681.947 -2.78903 5.3135 0
M  V30 7364 H 683.017 -1.57754 4.58521 0
M  V30 7365 N 684.36 -1.4356 -0.65026 0
M  V30 7366 C 685.588 -1.48779 -1.43779 0
M  V30 7367 C 686.003 -0.106593 -1.88499 0
M  V30 7368 O 685.36 0.883766 -1.59674 0
M  V30 7369 C 685.411 -2.43618 -2.67081 0
M  V30 7370 O 685.132 -3.76367 -2.24231 0
M  V30 7371 C 686.633 -2.5811 -3.60409 0
M  V30 7372 H 683.853 -0.50521 -0.441593 0
M  V30 7373 H 686.397 -1.88332 -0.796941 0
M  V30 7374 H 684.552 -2.07253 -3.273 0
M  V30 7375 H 684.966 -4.27394 -3.0403 0
M  V30 7376 H 686.44 -3.28539 -4.43583 0
M  V30 7377 H 686.917 -1.627 -4.07953 0
M  V30 7378 H 687.523 -2.95298 -3.0607 0
M  V30 7379 N 685.838 0.888903 -1.30139 0
M  V30 7380 C 687.084 1.6428 -1.18912 0
M  V30 7381 C 687.417 1.92499 0.256477 0
M  V30 7382 O 686.692 1.54312 1.18397 0
M  V30 7383 C 686.975 2.9851 -2.01405 0
M  V30 7384 C 686.828 2.77288 -3.54163 0
M  V30 7385 C 688.147 3.99383 -1.84882 0
M  V30 7386 H 685.266 0.596148 -0.433333 0
M  V30 7387 H 687.908 1.0289 -1.5973 0
M  V30 7388 H 686.058 3.50907 -1.66722 0
M  V30 7389 H 687.73 2.31709 -3.98884 0
M  V30 7390 H 685.973 2.11867 -3.78543 0
M  V30 7391 H 686.644 3.72717 -4.07168 0
M  V30 7392 H 689.12 3.56132 -2.15196 0
M  V30 7393 H 687.996 4.91222 -2.44934 0
M  V30 7394 H 688.257 4.34674 -0.806902 0
M  V30 7395 N 687.317 1.12792 1.10072 0
M  V30 7396 C 688.542 0.908838 1.86427 0
M  V30 7397 C 688.967 -0.536793 1.80278 0
M  V30 7398 O 688.325 -1.38033 1.17543 0
M  V30 7399 C 688.373 1.39295 3.3261 0
M  V30 7400 O 687.477 0.573846 4.08388 0
M  V30 7401 H 686.818 0.326234 0.578331 0
M  V30 7402 H 689.348 1.50094 1.39043 0
M  V30 7403 H 689.358 1.39366 3.83459 0
M  V30 7404 H 688.033 2.44555 3.36401 0
M  V30 7405 H 686.61 0.640438 3.67359 0
M  V30 7406 N 688.795 -1.27931 0.920396 0
M  V30 7407 C 690.02 -1.99343 0.572478 0
M  V30 7408 C 690.445 -1.68267 -0.840696 0
M  V30 7409 O 689.803 -0.918805 -1.56294 0
M  V30 7410 C 689.851 -3.51698 0.796284 0
M  V30 7411 O 688.955 -4.12157 -0.141602 0
M  V30 7412 H 688.296 -0.626065 0.221221 0
M  V30 7413 H 690.826 -1.62921 1.23765 0
M  V30 7414 H 690.836 -4.01793 0.708984 0
M  V30 7415 H 689.511 -3.73649 1.82644 0
M  V30 7416 H 688.088 -3.729 -0.005007 0
M  V30 7417 N 690.273 -0.685099 -1.4193 0
M  V30 7418 C 691.223 0.00977295 -2.27998 0
M  V30 7419 C 692.207 0.763315 -1.41641 0
M  V30 7420 O 693.399 0.640532 -1.65004 0
M  V30 7421 C 690.528 0.952972 -3.29808 0
M  V30 7422 C 689.614 0.196231 -4.23646 0
M  V30 7423 N 690.005 -0.804401 -4.99363 0
M  V30 7424 C 688.303 0.433213 -4.43891 0
M  V30 7425 C 689.004 -1.25646 -5.67968 0
M  V30 7426 N 687.98 -0.5844 -5.4045 0
M  V30 7427 H 691.782 -0.757586 -2.83968 0
M  V30 7428 H 689.296 -0.515037 -1.54017 0
M  V30 7429 H 691.293 1.46585 -3.9028 0
M  V30 7430 H 689.953 1.72004 -2.75399 0
M  V30 7431 H 690.964 -1.18429 -5.04177 0
M  V30 7432 H 687.641 1.17899 -4.00507 0
M  V30 7433 H 689.031 -2.08622 -6.38691 0
M  V30 7434 N 691.751 1.51645 -0.429126 0
M  V30 7435 C 693.162 1.86665 0.0359003 0
M  V30 7436 C 693.513 1.34677 1.42676 0
M  V30 7437 O 692.638 0.694195 2.04963 0
M  V30 7438 C 693.233 3.38724 0.0719221 0
M  V30 7439 C 691.792 3.7331 0.481336 0
M  V30 7440 C 690.939 2.75313 -0.331329 0
M  V30 7441 H 693.89 1.44987 -0.645333 0
M  V30 7442 H 693.911 3.7011 0.883118 0
M  V30 7443 H 693.423 3.76532 -0.940495 0
M  V30 7444 H 691.524 3.41088 1.49966 0
M  V30 7445 H 691.637 4.78631 0.211837 0
M  V30 7446 H 690.001 2.53839 0.209204 0
M  V30 7447 H 690.784 3.15963 -1.34247 0
M  V30 7448 N 693.229 0.160201 1.56784 0
M  V30 7449 C 694.177 -0.791402 2.18723 0
M  V30 7450 C 695.171 -1.24567 1.14801 0
M  V30 7451 O 696.377 -1.21262 1.33025 0
M  V30 7452 H 692.752 -0.273458 0.700517 0
M  V30 7453 H 694.723 -0.244931 2.97393 0
M  V30 7454 C 693.472 -2.01509 2.83354 0
M  V30 7455 H 692.795 -1.67454 3.63041 0
M  V30 7456 H 694.235 -2.66006 3.30177 0
M  V30 7457 C 692.694 -2.83159 1.82545 0
M  V30 7458 O 693.224 -3.79944 1.30405 0
M  V30 7459 N 691.43 -2.47953 1.51552 0
M  V30 7460 H 690.977 -1.69309 1.94144 0
M  V30 7461 H 690.935 -3.02873 0.843519 0
M  V30 7462 N 694.707 -1.5719 -0.113559 0
M  V30 7463 C 695.932 -1.89702 -0.838336 0
M  V30 7464 C 696.357 -0.752679 -1.72384 0
M  V30 7465 O 695.715 0.296575 -1.78858 0
M  V30 7466 C 695.763 -3.20989 -1.64312 0
M  V30 7467 O 694.867 -3.07278 -2.75053 0
M  V30 7468 H 694.208 -0.622339 -0.231496 0
M  V30 7469 H 696.738 -2.04382 -0.0943228 0
M  V30 7470 H 696.748 -3.53843 -2.03123 0
M  V30 7471 H 695.423 -4.03869 -0.993119 0
M  V30 7472 H 694 -2.85901 -2.39406 0
M  V30 7473 N 696.185 0.383891 -1.52853 0
M  V30 7474 C 697.115 1.47559 -1.80965 0
M  V30 7475 C 698.096 1.5669 -0.661986 0
M  V30 7476 O 699.281 1.71556 -0.910072 0
M  V30 7477 C 696.411 2.85114 -1.98312 0
M  V30 7478 C 695.365 2.9082 -3.14019 0
M  V30 7479 C 694.691 4.30873 -3.16627 0
M  V30 7480 C 695.991 2.60001 -4.52986 0
M  V30 7481 H 697.685 1.24283 -2.72386 0
M  V30 7482 H 695.231 0.596445 -1.31067 0
M  V30 7483 H 697.184 3.61496 -2.16561 0
M  V30 7484 H 695.908 3.09738 -1.03585 0
M  V30 7485 H 694.567 2.16886 -2.9556 0
M  V30 7486 H 694.215 4.52545 -2.19573 0
M  V30 7487 H 693.915 4.3561 -3.94357 0
M  V30 7488 H 695.439 5.09154 -3.37038 0
M  V30 7489 H 696.853 3.261 -4.71521 0
M  V30 7490 H 695.25 2.76081 -5.32822 0
M  V30 7491 H 696.32 1.5532 -4.59351 0
M  V30 7492 N 697.663 1.43903 0.642637 0
M  V30 7493 C 698.596 1.44339 1.76753 0
M  V30 7494 C 699.574 0.303558 1.59741 0
M  V30 7495 O 700.758 0.498775 1.81781 0
M  V30 7496 C 697.885 1.26508 3.14187 0
M  V30 7497 C 696.931 2.43905 3.49875 0
M  V30 7498 S 697.764 4.0645 3.48653 0
M  V30 7499 C 698.92 3.91021 4.88726 0
M  V30 7500 H 699.153 2.39523 1.76113 0
M  V30 7501 H 696.686 1.31061 0.81623 0
M  V30 7502 H 698.644 1.16908 3.93501 0
M  V30 7503 H 697.305 0.328548 3.12377 0
M  V30 7504 H 696.498 2.27262 4.49853 0
M  V30 7505 H 696.1 2.50186 2.77998 0
M  V30 7506 H 698.392 3.54 5.77659 0
M  V30 7507 H 699.335 4.9079 5.10423 0
M  V30 7508 H 699.743 3.23287 4.62759 0
M  V30 7509 N 699.141 -0.881989 1.30609 0
M  V30 7510 C 700.088 -1.98803 1.17244 0
M  V30 7511 C 701.058 -1.65987 0.0611905 0
M  V30 7512 O 702.243 -1.89385 0.231911 0
M  V30 7513 C 699.383 -3.33867 0.87333 0
M  V30 7514 C 698.496 -3.79354 2.06675 0
M  V30 7515 C 697.631 -5.03078 1.70547 0
M  V30 7516 C 696.67 -5.40981 2.86366 0
M  V30 7517 N 695.807 -6.55886 2.50514 0
M  V30 7518 H 700.647 -2.09566 2.11863 0
M  V30 7519 H 698.184 -1.02607 1.05405 0
M  V30 7520 H 700.142 -4.11612 0.680519 0
M  V30 7521 H 698.772 -3.2278 -0.0359983 0
M  V30 7522 H 697.824 -2.97492 2.37071 0
M  V30 7523 H 699.136 -4.03382 2.93401 0
M  V30 7524 H 698.29 -5.88457 1.47658 0
M  V30 7525 H 697.029 -4.80927 0.809947 0
M  V30 7526 H 696.034 -4.54127 3.09917 0
M  V30 7527 H 697.259 -5.65104 3.76609 0
M  V30 7528 H 695.205 -6.35306 1.63471 0
M  V30 7529 H 695.122 -6.79799 3.30771 0
M  V30 7530 H 696.39 -7.44489 2.30989 0
M  V30 7531 N 700.619 -1.13374 -1.09472 0
M  V30 7532 C 701.566 -0.810682 -2.16094 0
M  V30 7533 C 702.536 0.227003 -1.64541 0
M  V30 7534 O 703.721 0.0993538 -1.90541 0
M  V30 7535 C 700.861 -0.282336 -3.43943 0
M  V30 7536 C 699.974 -1.37902 -4.09398 0
M  V30 7537 C 699.109 -0.809066 -5.25002 0
M  V30 7538 C 698.148 -1.88419 -5.82379 0
M  V30 7539 N 697.285 -1.33221 -6.89345 0
M  V30 7540 H 702.125 -1.72397 -2.43071 0
M  V30 7541 H 699.662 -0.860564 -1.19301 0
M  V30 7542 H 701.62 0.0421189 -4.17179 0
M  V30 7543 H 700.25 0.594083 -3.17286 0
M  V30 7544 H 699.302 -1.82008 -3.34032 0
M  V30 7545 H 700.614 -2.19161 -4.48074 0
M  V30 7546 H 699.768 -0.435867 -6.05132 0
M  V30 7547 H 698.507 0.0346058 -4.87688 0
M  V30 7548 H 697.512 -2.26646 -5.00911 0
M  V30 7549 H 698.737 -2.73125 -6.21755 0
M  V30 7550 H 696.683 -0.510535 -6.5401 0
M  V30 7551 H 696.6 -2.08129 -7.26786 0
M  V30 7552 H 697.868 -0.986565 -7.73232 0
M  V30 7553 N 702.098 1.27442 -0.927168 0
M  V30 7554 C 703.347 1.93679 -0.563146 0
M  V30 7555 C 703.66 1.73673 0.899837 0
M  V30 7556 O 704.866 2.34247 1.37262 0
M  V30 7557 C 703.322 3.46961 -0.95636 0
M  V30 7558 C 702.93 3.75724 -2.43999 0
M  V30 7559 C 704.674 4.19282 -0.663565 0
M  V30 7560 C 702.581 5.22378 -2.77263 0
M  V30 7561 H 701.511 0.725059 -0.206894 0
M  V30 7562 H 704.162 1.44743 -1.12791 0
M  V30 7563 H 702.544 3.94703 -0.320254 0
M  V30 7564 H 703.718 3.38741 -3.12396 0
M  V30 7565 H 702.033 3.16605 -2.70463 0
M  V30 7566 H 704.63 5.27265 -0.888596 0
M  V30 7567 H 704.973 4.14382 0.399198 0
M  V30 7568 H 705.506 3.7736 -1.25875 0
M  V30 7569 H 702.245 5.32367 -3.82446 0
M  V30 7570 H 701.765 5.6051 -2.13516 0
M  V30 7571 H 703.444 5.9025 -2.64979 0
M  V30 7572 N 703.576 0.692616 1.41565 0
M  V30 7573 C 704.804 0.231279 2.05603 0
M  V30 7574 C 705.219 -1.11837 1.52111 0
M  V30 7575 O 704.576 -1.6983 0.66813 0
M  V30 7576 C 704.627 0.177125 3.61066 0
M  V30 7577 O 704.348 1.47346 4.12578 0
M  V30 7578 C 705.849 -0.30556 4.42246 0
M  V30 7579 H 703.069 0.108238 0.662213 0
M  V30 7580 H 705.613 0.944369 1.81389 0
M  V30 7581 H 703.768 -0.486769 3.8433 0
M  V30 7582 H 704.182 1.35861 5.06599 0
M  V30 7583 H 705.656 -0.29233 5.51225 0
M  V30 7584 H 706.133 -1.34393 4.18133 0
M  V30 7585 H 706.739 0.327229 4.24039 0
M  V30 7586 N 705.054 -1.51416 0.437162 0
M  V30 7587 C 705.984 -2.30631 -0.364922 0
M  V30 7588 C 706.965 -1.36037 -1.02118 0
M  V30 7589 O 708.15 -1.64956 -1.02485 0
M  V30 7590 C 705.28 -3.1482 -1.46648 0
M  V30 7591 C 704.234 -4.17691 -0.933717 0
M  V30 7592 C 703.56 -4.904 -2.13101 0
M  V30 7593 C 704.86 -5.2229 0.0317201 0
M  V30 7594 H 706.554 -2.97932 0.29614 0
M  V30 7595 H 704.1 -1.4328 0.143865 0
M  V30 7596 H 706.053 -3.69017 -2.03481 0
M  V30 7597 H 704.777 -2.4534 -2.15583 0
M  V30 7598 H 703.436 -3.64545 -0.387602 0
M  V30 7599 H 703.084 -4.17423 -2.80654 0
M  V30 7600 H 702.784 -5.59962 -1.78092 0
M  V30 7601 H 704.308 -5.4742 -2.70487 0
M  V30 7602 H 705.722 -5.7156 -0.446302 0
M  V30 7603 H 704.119 -5.99378 0.29437 0
M  V30 7604 H 705.189 -4.75131 0.968447 0
M  V30 7605 N 706.532 -0.168513 -1.56696 0
M  V30 7606 C 707.462 0.758563 -2.20835 0
M  V30 7607 C 708.443 1.24121 -1.1631 0
M  V30 7608 O 709.628 1.29487 -1.4473 0
M  V30 7609 C 706.758 1.9892 -2.8469 0
M  V30 7610 C 705.712 1.64252 -3.95228 0
M  V30 7611 C 705.038 2.94757 -4.46119 0
M  V30 7612 C 706.338 0.872675 -5.14958 0
M  V30 7613 H 708.032 0.223953 -2.98561 0
M  V30 7614 H 705.578 0.106277 -1.43607 0
M  V30 7615 H 707.531 2.64275 -3.28233 0
M  V30 7616 H 706.255 2.5479 -2.04327 0
M  V30 7617 H 704.914 1.01266 -3.52336 0
M  V30 7618 H 704.562 3.48662 -3.62552 0
M  V30 7619 H 704.262 2.72316 -5.2069 0
M  V30 7620 H 705.786 3.61147 -4.92347 0
M  V30 7621 H 707.2 1.42875 -5.55211 0
M  V30 7622 H 705.597 0.747402 -5.95428 0
M  V30 7623 H 706.667 -0.131535 -4.84722 0
M  V30 7624 N 708.01 1.57248 0.105221 0
M  V30 7625 C 708.957 2.01338 1.12835 0
M  V30 7626 C 709.927 0.887897 1.40377 0
M  V30 7627 O 711.112 1.15315 1.5201 0
M  V30 7628 C 708.252 2.43432 2.44611 0
M  V30 7629 C 707.365 3.69457 2.23888 0
M  V30 7630 C 706.5 4.00473 3.48991 0
M  V30 7631 C 705.539 5.19638 3.23485 0
M  V30 7632 N 704.676 5.46457 4.40828 0
M  V30 7633 H 709.516 2.88527 0.745386 0
M  V30 7634 H 707.053 1.42714 0.356535 0
M  V30 7635 H 709.011 2.65879 3.21503 0
M  V30 7636 H 707.641 1.59266 2.80774 0
M  V30 7637 H 706.693 3.54545 1.37847 0
M  V30 7638 H 708.005 4.56497 2.01026 0
M  V30 7639 H 707.159 4.23642 4.34295 0
M  V30 7640 H 705.898 3.11935 3.74897 0
M  V30 7641 H 704.903 4.96299 2.36574 0
M  V30 7642 H 706.128 6.09766 2.98935 0
M  V30 7643 H 704.074 4.60876 4.66829 0
M  V30 7644 H 703.991 6.27849 4.2112 0
M  V30 7645 H 705.259 5.74155 5.27225 0
M  V30 7646 N 709.488 -0.375779 1.53054 0
M  V30 7647 C 710.718 -1.1387 1.72386 0
M  V30 7648 C 711.126 -1.8382 0.447966 0
M  V30 7649 O 710.469 -1.74027 -0.588244 0
M  V30 7650 C 710.531 -2.22047 2.82728 0
M  V30 7651 C 710.195 -1.71951 4.23417 0
M  V30 7652 C 711.192 -1.18909 5.06119 0
M  V30 7653 C 708.877 -1.77773 4.69789 0
M  V30 7654 C 710.871 -0.723529 6.3328 0
M  V30 7655 C 708.558 -1.30829 5.96931 0
M  V30 7656 C 709.556 -0.782077 6.78508 0
M  V30 7657 O 709.244 -0.319529 8.03265 0
M  V30 7658 H 708.976 -0.346835 0.580242 0
M  V30 7659 H 711.53 -0.443748 2.00549 0
M  V30 7660 H 709.76 -2.95006 2.50017 0
M  V30 7661 H 711.449 -2.83654 2.90336 0
M  V30 7662 H 712.215 -1.13758 4.7147 0
M  V30 7663 H 708.094 -2.17673 4.06373 0
M  V30 7664 H 711.638 -0.312126 6.96901 0
M  V30 7665 H 707.535 -1.3567 6.31081 0
M  V30 7666 H 708.303 -0.439796 8.17318 0
M  V30 7667 N 710.966 -1.44241 -0.634997 0
M  V30 7668 C 712.213 -1.46821 -1.39463 0
M  V30 7669 C 712.541 -0.0993362 -1.94246 0
M  V30 7670 O 711.796 0.898325 -1.73864 0
M  V30 7671 C 712.095 -2.47279 -2.58046 0
M  V30 7672 C 711.761 -3.92703 -2.21574 0
M  V30 7673 C 710.423 -4.32306 -2.1134 0
M  V30 7674 C 712.775 -4.84271 -1.92695 0
M  V30 7675 C 710.103 -5.61407 -1.70409 0
M  V30 7676 C 712.455 -6.13755 -1.53258 0
M  V30 7677 C 711.119 -6.52316 -1.41562 0
M  V30 7678 H 710.389 -0.537256 -0.51033 0
M  V30 7679 H 713.036 -1.77431 -0.720441 0
M  V30 7680 H 711.341 -2.10138 -3.3068 0
M  V30 7681 H 713.038 -2.46523 -3.16271 0
M  V30 7682 H 709.628 -3.61369 -2.30456 0
M  V30 7683 H 713.812 -4.54432 -1.99513 0
M  V30 7684 H 709.068 -5.90105 -1.59955 0
M  V30 7685 H 713.242 -6.84168 -1.29949 0
M  V30 7686 H 710.869 -7.52255 -1.09619 0
M  V30 7687 N 712.444 0.87505 -1.31075 0
M  V30 7688 C 713.86 1.15997 -1.09622 0
M  V30 7689 C 714.06 2.01036 0.136611 0
M  V30 7690 O 713.116 2.38559 0.827397 0
M  V30 7691 C 714.429 1.85702 -2.36506 0
M  V30 7692 C 715.977 1.98425 -2.42067 0
M  V30 7693 C 716.452 2.71544 -3.68819 0
M  V30 7694 N 717.943 2.79084 -3.69684 0
M  V30 7695 C 718.678 3.36259 -4.64454 0
M  V30 7696 N 718.174 3.94406 -5.69575 0
M  V30 7697 N 719.967 3.34169 -4.51982 0
M  V30 7698 H 712.118 0.308258 -2.10151 0
M  V30 7699 H 714.381 0.199145 -0.926847 0
M  V30 7700 H 714.087 1.30663 -3.26527 0
M  V30 7701 H 713.961 2.86017 -2.45915 0
M  V30 7702 H 716.348 2.5263 -1.52518 0
M  V30 7703 H 716.429 0.971682 -2.36626 0
M  V30 7704 H 716.073 2.18008 -4.58732 0
M  V30 7705 H 716.003 3.73198 -3.71525 0
M  V30 7706 H 718.494 2.3781 -2.93691 0
M  V30 7707 H 718.807 4.36129 -6.37974 0
M  V30 7708 H 717.152 3.92797 -5.73355 0
M  V30 7709 H 720.343 2.87977 -3.69035 0
M  V30 7710 H 720.516 3.78431 -5.26017 0
M  V30 7711 N 713.922 1.13953 1.08869 0
M  V30 7712 C 714.87 0.817664 2.17754 0
M  V30 7713 C 715.864 -0.202444 1.68186 0
M  V30 7714 O 717.07 -0.0590159 1.79903 0
M  V30 7715 H 713.445 0.246671 0.710392 0
M  V30 7716 H 715.416 1.74401 2.4213 0
M  V30 7717 C 714.165 0.3063 3.46348 0
M  V30 7718 H 713.488 1.08259 3.84864 0
M  V30 7719 H 714.928 0.119584 4.23831 0
M  V30 7720 C 713.387 -0.969158 3.22659 0
M  V30 7721 O 713.917 -2.04386 3.45817 0
M  V30 7722 N 712.123 -0.902516 2.7623 0
M  V30 7723 H 711.67 -0.027801 2.57585 0
M  V30 7724 H 711.628 -1.75649 2.60758 0
M  V30 7725 N 715.4 -1.26948 0.933913 0
M  V30 7726 C 716.63 -1.97898 0.593279 0
M  V30 7727 C 717.038 -1.69806 -0.834412 0
M  V30 7728 O 716.381 -0.958704 -1.56699 0
M  V30 7729 C 716.443 -3.51657 0.746825 0
M  V30 7730 C 716.107 -4.03384 2.14779 0
M  V30 7731 C 717.104 -4.15682 3.12257 0
M  V30 7732 C 714.789 -4.37577 2.46641 0
M  V30 7733 C 716.783 -4.61455 4.39702 0
M  V30 7734 C 714.47 -4.8304 3.7432 0
M  V30 7735 C 715.468 -4.94939 4.70664 0
M  V30 7736 O 715.156 -5.39403 5.96071 0
M  V30 7737 H 714.888 -0.63814 0.223055 0
M  V30 7738 H 717.442 -1.62608 1.2549 0
M  V30 7739 H 715.672 -3.8669 0.0280889 0
M  V30 7740 H 717.361 -4.03821 0.410328 0
M  V30 7741 H 718.127 -3.89519 2.88964 0
M  V30 7742 H 714.006 -4.27554 1.72391 0
M  V30 7743 H 717.55 -4.70658 5.14905 0
M  V30 7744 H 713.447 -5.08646 3.97429 0
M  V30 7745 H 714.215 -5.57641 5.99148 0
M  V30 7746 N 716.879 -0.700114 -1.41195 0
M  V30 7747 C 717.812 0.0129614 -2.28196 0
M  V30 7748 C 718.79 0.783367 -1.42486 0
M  V30 7749 O 719.974 0.773238 -1.71911 0
M  V30 7750 C 717.101 1.02575 -3.22794 0
M  V30 7751 C 716.147 0.347977 -4.25078 0
M  V30 7752 S 716.98 -0.912938 -5.27661 0
M  V30 7753 C 718.136 0.0981362 -6.25823 0
M  V30 7754 H 718.369 -0.724927 -2.88326 0
M  V30 7755 H 715.902 -0.490554 -1.464 0
M  V30 7756 H 717.86 1.60491 -3.77826 0
M  V30 7757 H 716.521 1.73624 -2.61751 0
M  V30 7758 H 715.714 1.11305 -4.91556 0
M  V30 7759 H 715.316 -0.15823 -3.73665 0
M  V30 7760 H 717.608 0.949965 -6.70807 0
M  V30 7761 H 718.551 -0.532838 -7.06092 0
M  V30 7762 H 718.959 0.454944 -5.62664 0
M  V30 7763 N 718.357 1.51182 -0.445186 0
M  V30 7764 C 719.582 2.07056 0.119445 0
M  V30 7765 C 720.007 1.30966 1.35016 0
M  V30 7766 O 719.365 0.349827 1.77893 0
M  V30 7767 C 719.413 3.58234 0.412428 0
M  V30 7768 O 718.517 3.84249 1.49754 0
M  V30 7769 H 717.858 0.663998 -0.00157797 0
M  V30 7770 H 720.388 1.94699 -0.628779 0
M  V30 7771 H 720.398 4.02617 0.660583 0
M  V30 7772 H 719.073 4.13038 -0.487049 0
M  V30 7773 H 717.65 3.51724 1.23873 0
M  V30 7774 N 719.835 0.176821 1.56605 0
M  V30 7775 C 720.745 -0.763682 2.21822 0
M  V30 7776 C 721.761 -1.24889 1.21156 0
M  V30 7777 O 722.937 -1.29987 1.53836 0
M  V30 7778 C 720.002 -1.97352 2.8505 0
M  V30 7779 C 719.063 -1.53466 4.00932 0
M  V30 7780 C 718.296 -2.68682 4.61135 0
M  V30 7781 O 718.519 -3.85694 4.20234 0
M  V30 7782 O 717.453 -2.42442 5.50913 0
M  V30 7783 H 721.279 -0.238363 3.02763 0
M  V30 7784 H 718.864 -0.0516331 1.49311 0
M  V30 7785 H 720.746 -2.68096 3.25119 0
M  V30 7786 H 719.421 -2.48779 2.07101 0
M  V30 7787 H 718.328 -0.796551 3.65521 0
M  V30 7788 H 719.661 -1.06724 4.8049 0
M  V30 7789 N 721.313 -1.57302 -0.09688 0
M  V30 7790 C 722.263 -1.98369 -1.12399 0
M  V30 7791 C 723.247 -0.861872 -1.3587 0
M  V30 7792 O 724.439 -1.1257 -1.36591 0
M  V30 7793 C 721.568 -2.41017 -2.4447 0
M  V30 7794 C 720.654 -3.59881 -2.24381 0
M  V30 7795 N 721.045 -4.74872 -1.74155 0
M  V30 7796 C 719.343 -3.65943 -2.54954 0
M  V30 7797 C 720.044 -5.56823 -1.68294 0
M  V30 7798 N 719.02 -4.99942 -2.13444 0
M  V30 7799 H 722.822 -2.84726 -0.728575 0
M  V30 7800 H 720.336 -1.59523 -0.304332 0
M  V30 7801 H 722.333 -2.68665 -3.18786 0
M  V30 7802 H 720.993 -1.56036 -2.84751 0
M  V30 7803 H 722.004 -4.97657 -1.43379 0
M  V30 7804 H 718.681 -2.9162 -2.98771 0
M  V30 7805 H 720.071 -6.59099 -1.30528 0
M  V30 7806 N 722.791 0.367657 -1.53252 0
M  V30 7807 C 723.721 1.45632 -1.8252 0
M  V30 7808 C 724.702 1.55979 -0.678568 0
M  V30 7809 O 725.887 1.70581 -0.928217 0
M  V30 7810 C 723.017 2.82994 -2.01325 0
M  V30 7811 C 721.971 2.87473 -3.17086 0
M  V30 7812 C 721.297 4.2749 -3.21179 0
M  V30 7813 C 722.597 2.55182 -4.55719 0
M  V30 7814 H 724.291 1.21387 -2.73689 0
M  V30 7815 H 721.837 0.58251 -1.31692 0
M  V30 7816 H 723.79 3.59179 -2.20383 0
M  V30 7817 H 722.514 3.08622 -1.06864 0
M  V30 7818 H 721.173 2.13739 -2.97844 0
M  V30 7819 H 720.821 4.5019 -2.24361 0
M  V30 7820 H 720.521 4.31403 -3.98955 0
M  V30 7821 H 722.045 5.0555 -3.42419 0
M  V30 7822 H 723.459 3.21081 -4.74953 0
M  V30 7823 H 721.856 2.70414 -5.3572 0
M  V30 7824 H 722.926 1.5044 -4.60973 0
M  V30 7825 N 724.269 1.44576 0.627338 0
M  V30 7826 C 725.199 1.54562 1.75022 0
M  V30 7827 C 726.18 0.398378 1.65369 0
M  V30 7828 O 727.365 0.61899 1.84071 0
M  V30 7829 C 724.495 1.49309 3.13567 0
M  V30 7830 C 723.449 2.62549 3.38012 0
M  V30 7831 C 722.775 2.42348 4.76625 0
M  V30 7832 C 724.075 4.04678 3.30202 0
M  V30 7833 H 725.769 2.4855 1.66922 0
M  V30 7834 H 723.315 1.19624 0.801636 0
M  V30 7835 H 725.268 1.54895 3.919 0
M  V30 7836 H 723.992 0.518392 3.2246 0
M  V30 7837 H 722.651 2.56358 2.62061 0
M  V30 7838 H 722.299 1.43062 4.82226 0
M  V30 7839 H 721.999 3.18273 4.93939 0
M  V30 7840 H 723.523 2.49758 5.57183 0
M  V30 7841 H 724.937 4.12217 3.98435 0
M  V30 7842 H 723.334 4.80836 3.5905 0
M  V30 7843 H 724.404 4.2798 2.27949 0
M  V30 7844 N 725.747 -0.868086 1.31537 0
M  V30 7845 C 726.694 -1.97548 1.19346 0
M  V30 7846 C 727.664 -1.65913 0.0787922 0
M  V30 7847 O 728.849 -1.89129 0.251985 0
M  V30 7848 C 725.989 -3.32922 0.908692 0
M  V30 7849 C 725.102 -3.77141 2.10687 0
M  V30 7850 C 724.237 -5.01241 1.75873 0
M  V30 7851 C 723.276 -5.37914 2.92088 0
M  V30 7852 N 722.413 -6.53192 2.57457 0
M  V30 7853 H 727.253 -2.07307 2.14074 0
M  V30 7854 H 724.79 -1.01483 1.06487 0
M  V30 7855 H 726.748 -4.10867 0.724138 0
M  V30 7856 H 725.378 -3.228 -0.0017611 0
M  V30 7857 H 724.43 -2.94961 2.40213 0
M  V30 7858 H 725.742 -4.00248 2.97663 0
M  V30 7859 H 724.896 -5.86858 1.53891 0
M  V30 7860 H 723.635 -4.80041 0.86091 0
M  V30 7861 H 722.64 -4.50814 3.14717 0
M  V30 7862 H 723.865 -5.61077 3.82582 0
M  V30 7863 H 721.811 -6.33536 1.702 0
M  V30 7864 H 721.728 -6.76252 3.37963 0
M  V30 7865 H 722.996 -7.41997 2.38873 0
M  V30 7866 N 727.225 -1.14528 -1.08264 0
M  V30 7867 C 728.188 -0.83632 -2.13397 0
M  V30 7868 C 729.188 0.159715 -1.60005 0
M  V30 7869 O 730.378 -0.0688098 -1.74064 0
M  V30 7870 C 727.51 -0.246973 -3.40004 0
M  V30 7871 H 728.703 -1.76808 -2.42237 0
M  V30 7872 H 726.256 -0.951509 -1.24 0
M  V30 7873 H 726.991 0.693436 -3.168 0
M  V30 7874 H 726.776 -0.964412 -3.80055 0
M  V30 7875 H 728.266 -0.0480679 -4.17572 0
M  V30 7876 N 728.703 1.26451 -0.940633 0
M  V30 7877 C 729.951 1.93395 -0.586748 0
M  V30 7878 C 730.272 1.7417 0.876921 0
M  V30 7879 O 729.542 1.097 1.62304 0
M  V30 7880 H 728.122 0.715687 -0.214012 0
M  V30 7881 H 730.784 1.53902 -1.19584 0
M  V30 7882 H 729.88 3.01565 -0.804059 0
M  V30 7883 N 730.181 0.707592 1.40822 0
M  V30 7884 C 731.144 0.0587224 2.29125 0
M  V30 7885 C 732.144 -0.695624 1.44975 0
M  V30 7886 O 733.334 -0.528718 1.65983 0
M  V30 7887 C 730.466 -0.926939 3.28056 0
M  V30 7888 H 731.659 0.836349 2.88002 0
M  V30 7889 H 729.212 0.471778 1.4901 0
M  V30 7890 H 729.947 -1.7319 2.74182 0
M  V30 7891 H 729.732 -0.389015 3.90165 0
M  V30 7892 H 731.222 -1.37837 3.94196 0
M  V30 7893 N 731.66 -1.50943 0.453197 0
M  V30 7894 C 732.608 -2.29728 -0.364419 0
M  V30 7895 C 733.602 -1.36246 -1.00664 0
M  V30 7896 O 734.808 -1.53518 -0.939794 0
M  V30 7897 H 731.183 -0.739536 -0.136347 0
M  V30 7898 H 733.154 -2.96672 0.320696 0
M  V30 7899 C 731.903 -3.1629 -1.44415 0
M  V30 7900 H 731.226 -3.88119 -0.959343 0
M  V30 7901 H 732.666 -3.74444 -1.98917 0
M  V30 7902 C 731.125 -2.32702 -2.43622 0
M  V30 7903 O 731.655 -1.99763 -3.48508 0
M  V30 7904 N 729.861 -1.95621 -2.14897 0
M  V30 7905 H 729.408 -2.22607 -1.29629 0
M  V30 7906 H 729.366 -1.39993 -2.81513 0
M  V30 7907 N 733.138 -0.185124 -1.56509 0
M  V30 7908 C 734.387 0.456421 -1.96468 0
M  V30 7909 C 734.7 1.63448 -1.07444 0
M  V30 7910 O 735.906 2.34316 -1.37143 0
M  V30 7911 C 734.362 0.863404 -3.4939 0
M  V30 7912 C 733.97 -0.289815 -4.47062 0
M  V30 7913 C 735.714 1.47259 -3.98139 0
M  V30 7914 C 733.621 0.137571 -5.9124 0
M  V30 7915 H 732.551 0.17429 -0.733579 0
M  V30 7916 H 735.202 -0.275554 -1.81419 0
M  V30 7917 H 733.584 1.65176 -3.59907 0
M  V30 7918 H 734.758 -1.06728 -4.4827 0
M  V30 7919 H 733.073 -0.809851 -4.08449 0
M  V30 7920 H 735.67 1.80463 -5.03326 0
M  V30 7921 H 736.013 2.3755 -3.41871 0
M  V30 7922 H 736.546 0.748405 -3.90696 0
M  V30 7923 H 733.285 -0.730907 -6.51412 0
M  V30 7924 H 732.805 0.8801 -5.93308 0
M  V30 7925 H 734.484 0.576771 -6.44424 0
M  V30 7926 N 734.616 1.57351 0.0885366 0
M  V30 7927 C 735.844 1.90631 0.804196 0
M  V30 7928 C 736.259 0.779474 1.71958 0
M  V30 7929 O 735.616 -0.248179 1.80805 0
M  V30 7930 C 735.667 3.23568 1.61202 0
M  V30 7931 O 735.388 4.31917 0.733447 0
M  V30 7932 C 736.889 3.70753 2.43016 0
M  V30 7933 H 734.109 0.630501 0.229585 0
M  V30 7934 H 736.653 2.044 0.0638092 0
M  V30 7935 H 734.808 3.11377 2.30485 0
M  V30 7936 H 735.222 5.08297 1.29361 0
M  V30 7937 H 736.696 4.66447 2.9518 0
M  V30 7938 H 737.173 2.98922 3.2178 0
M  V30 7939 H 737.779 3.85834 1.7892 0
M  V30 7940 N 736.094 -0.359525 1.53444 0
M  V30 7941 C 737.505 -0.936009 1.61542 0
M  V30 7942 C 737.856 -1.90069 0.486633 0
M  V30 7943 O 736.981 -2.12929 -0.386047 0
M  V30 7944 C 737.576 -1.70441 2.92806 0
M  V30 7945 C 736.135 -2.23015 3.03218 0
M  V30 7946 C 735.282 -1.04438 2.56881 0
M  V30 7947 H 738.233 -0.138134 1.58098 0
M  V30 7948 H 738.254 -2.56609 2.80948 0
M  V30 7949 H 737.766 -1.00205 3.74941 0
M  V30 7950 H 735.867 -2.96475 2.25684 0
M  V30 7951 H 735.98 -2.50481 4.08407 0
M  V30 7952 H 734.344 -1.41314 2.11902 0
M  V30 7953 H 735.127 -0.356905 3.4144 0
M  V30 7954 N 737.572 -1.44907 -0.619662 0
M  V30 7955 C 738.988 -1.29046 -0.939107 0
M  V30 7956 C 739.188 -0.23462 -2.00129 0
M  V30 7957 O 738.244 0.37558 -2.49691 0
M  V30 7958 C 739.557 -2.66567 -1.39149 0
M  V30 7959 C 741.105 -2.74368 -1.50635 0
M  V30 7960 C 741.58 -4.12386 -1.99253 0
M  V30 7961 N 743.071 -4.1462 -2.06506 0
M  V30 7962 C 743.806 -5.18272 -2.4532 0
M  V30 7963 N 743.302 -6.32278 -2.83189 0
M  V30 7964 N 745.095 -5.05628 -2.45554 0
M  V30 7965 H 737.246 -2.12239 0.0826135 0
M  V30 7966 H 739.509 -0.947652 -0.0256829 0
M  V30 7967 H 739.215 -3.4496 -0.685254 0
M  V30 7968 H 739.089 -2.94224 -2.36034 0
M  V30 7969 H 741.476 -1.96287 -2.20353 0
M  V30 7970 H 741.557 -2.50439 -0.520963 0
M  V30 7971 H 741.201 -4.90947 -1.30127 0
M  V30 7972 H 741.131 -4.33699 -2.98684 0
M  V30 7973 H 743.622 -3.32343 -1.79878 0
M  V30 7974 H 743.935 -7.07172 -3.11652 0
M  V30 7975 H 742.28 -6.35699 -2.80913 0
M  V30 7976 H 745.471 -4.15613 -2.15367 0
M  V30 7977 H 745.644 -5.86529 -2.75478 0
M  V30 7978 N 739.05 0.861098 -1.31996 0
M  V30 7979 C 739.96 2.00154 -1.22374 0
M  V30 7980 C 740.976 1.73447 -0.138631 0
M  V30 7981 O 742.152 1.98191 -0.358104 0
M  V30 7982 C 739.217 3.33696 -0.940645 0
M  V30 7983 C 738.278 3.73668 -2.11355 0
M  V30 7984 C 737.511 5.00837 -1.84386 0
M  V30 7985 O 737.734 5.64996 -0.783287 0
M  V30 7986 O 736.668 5.37787 -2.70313 0
M  V30 7987 H 740.494 2.11207 -2.18233 0
M  V30 7988 H 738.079 0.990768 -1.11822 0
M  V30 7989 H 739.961 4.13756 -0.798987 0
M  V30 7990 H 738.636 3.23698 -0.0121636 0
M  V30 7991 H 737.543 2.94211 -2.31065 0
M  V30 7992 H 738.876 3.88303 -3.02459 0
M  V30 7993 N 740.528 1.15101 1.07655 0
M  V30 7994 C 741.776 0.922149 1.79836 0
M  V30 7995 C 742.097 -0.552346 1.87014 0
M  V30 7996 O 741.367 -1.40145 1.3688 0
M  V30 7997 H 739.947 0.338182 0.666064 0
M  V30 7998 H 742.609 1.45107 1.30115 0
M  V30 7999 H 741.705 1.32883 2.82398 0
M  V30 8000 N 742.006 -1.2595 0.947325 0
M  V30 8001 C 743.283 -1.88676 0.515824 0
M  V30 8002 C 743.663 -1.85547 -1.00675 0
M  V30 8003 O 743.011 -1.31399 -1.8694 0
M  V30 8004 C 743.221 -3.31734 1.08415 0
M  V30 8005 C 744.569 -4.08545 1.15654 0
M  V30 8006 O 745.593 -3.40826 1.03517 0
M  V30 8007 O 744.452 -5.29663 1.34608 0
M  V30 8008 H 741.546 -0.809537 0.169055 0
M  V30 8009 H 744.092 -1.34075 1.04029 0
M  V30 8010 H 742.864 -3.28404 2.1276 0
M  V30 8011 H 742.487 -3.93882 0.542499 0
M  V30 8012 N 743.484 -0.715051 -1.40445 0
M  V30 8013 C 744.394 -0.0631624 -2.34515 0
M  V30 8014 C 745.41 0.744397 -1.57273 0
M  V30 8015 O 746.586 0.677475 -1.89663 0
M  V30 8016 C 743.651 0.847915 -3.36172 0
M  V30 8017 C 742.712 0.0303655 -4.29289 0
M  V30 8018 C 741.945 0.898051 -5.2609 0
M  V30 8019 O 742.168 2.13729 -5.28844 0
M  V30 8020 O 741.102 0.337328 -6.00954 0
M  V30 8021 H 744.928 -0.839078 -2.91879 0
M  V30 8022 H 742.513 -0.475527 -1.4163 0
M  V30 8023 H 744.395 1.3698 -3.98515 0
M  V30 8024 H 743.07 1.60299 -2.81222 0
M  V30 8025 H 741.977 -0.536573 -3.70232 0
M  V30 8026 H 743.31 -0.686474 -4.87389 0
M  V30 8027 N 744.962 1.50701 -0.461195 0
M  V30 8028 C 745.892 2.31182 0.328184 0
M  V30 8029 C 746.873 1.37644 0.999408 0
M  V30 8030 O 748.058 1.66565 0.99848 0
M  V30 8031 C 745.188 3.17113 1.41621 0
M  V30 8032 C 744.142 4.19124 0.867148 0
M  V30 8033 C 743.468 4.93728 2.05272 0
M  V30 8034 C 744.768 5.22174 -0.114808 0
M  V30 8035 H 746.462 2.97423 -0.343501 0
M  V30 8036 H 744.008 1.43033 -0.166641 0
M  V30 8037 H 745.961 3.72208 1.97584 0
M  V30 8038 H 744.685 2.48739 2.11652 0
M  V30 8039 H 743.344 3.65116 0.329557 0
M  V30 8040 H 742.992 4.21835 2.73978 0
M  V30 8041 H 742.692 5.62724 1.69161 0
M  V30 8042 H 744.216 5.51654 2.61744 0
M  V30 8043 H 745.63 5.72198 0.355316 0
M  V30 8044 H 744.027 5.98833 -0.389689 0
M  V30 8045 H 745.097 4.7353 -1.04391 0
M  V30 8046 N 746.441 0.193421 1.56409 0
M  V30 8047 C 747.404 -0.714371 2.17783 0
M  V30 8048 C 748.404 -1.1422 1.13183 0
M  V30 8049 O 749.594 -1.05557 1.38576 0
M  V30 8050 C 746.726 -1.97509 2.77855 0
M  V30 8051 H 747.919 -0.179714 2.99361 0
M  V30 8052 H 745.472 -0.0561944 1.56199 0
M  V30 8053 H 746.207 -2.5523 2.0007 0
M  V30 8054 H 745.992 -1.67706 3.54425 0
M  V30 8055 H 747.482 -2.62246 3.24987 0
M  V30 8056 N 747.919 -1.57396 -0.0801906 0
M  V30 8057 C 749.335 -1.53564 -0.434778 0
M  V30 8058 C 749.535 -0.912372 -1.79661 0
M  V30 8059 O 748.591 -0.511268 -2.4727 0
M  V30 8060 C 749.904 -2.98244 -0.383561 0
M  V30 8061 C 751.452 -3.09536 -0.46435 0
M  V30 8062 C 751.927 -4.55851 -0.443128 0
M  V30 8063 N 753.418 -4.60456 -0.503448 0
M  V30 8064 C 754.153 -5.71135 -0.509106 0
M  V30 8065 N 753.649 -6.91203 -0.47008 0
M  V30 8066 N 755.442 -5.59353 -0.555035 0
M  V30 8067 H 747.593 -1.96281 0.811635 0
M  V30 8068 H 749.856 -0.898041 0.303689 0
M  V30 8069 H 749.562 -3.47369 0.550236 0
M  V30 8070 H 749.436 -3.57705 -1.19694 0
M  V30 8071 H 751.823 -2.6039 -1.38857 0
M  V30 8072 H 751.904 -2.53 0.377445 0
M  V30 8073 H 751.548 -5.05653 0.477207 0
M  V30 8074 H 751.478 -5.10242 -1.30234 0
M  V30 8075 H 753.969 -3.74048 -0.538199 0
M  V30 8076 H 754.282 -7.7132 -0.478091 0
M  V30 8077 H 752.627 -6.93625 -0.436897 0
M  V30 8078 H 755.818 -4.64453 -0.583158 0
M  V30 8079 H 755.991 -6.4561 -0.555976 0
M  V30 8080 N 749.397 0.351382 -1.53633 0
M  V30 8081 C 750.327 1.43688 -1.84055 0
M  V30 8082 C 751.308 1.55251 -0.695073 0
M  V30 8083 O 752.493 1.69587 -0.946257 0
M  V30 8084 C 749.623 2.80843 -2.04315 0
M  V30 8085 C 748.577 2.84094 -3.20117 0
M  V30 8086 C 747.903 4.2406 -3.25696 0
M  V30 8087 C 749.203 2.50334 -4.58399 0
M  V30 8088 H 750.897 1.18478 -2.74961 0
M  V30 8089 H 748.443 0.568509 -1.32303 0
M  V30 8090 H 750.396 3.56821 -2.2418 0
M  V30 8091 H 749.12 3.07471 -1.10132 0
M  V30 8092 H 747.779 2.10568 -3.00094 0
M  V30 8093 H 747.427 4.47785 -2.29123 0
M  V30 8094 H 747.127 4.27147 -4.03509 0
M  V30 8095 H 748.651 5.0189 -3.47762 0
M  V30 8096 H 750.065 3.16025 -4.78332 0
M  V30 8097 H 748.462 2.64717 -5.38558 0
M  V30 8098 H 749.532 1.45542 -4.62543 0
M  V30 8099 N 750.875 1.45233 0.611969 0
M  V30 8100 C 752.286 1.4354 1.19387 0
M  V30 8101 C 752.637 0.160713 1.95541 0
M  V30 8102 O 751.762 -0.737954 2.03429 0
M  V30 8103 C 752.357 2.60045 2.17169 0
M  V30 8104 C 750.916 2.61486 2.70744 0
M  V30 8105 C 750.063 2.35708 1.46072 0
M  V30 8106 H 753.014 1.53536 0.401529 0
M  V30 8107 H 753.035 2.33893 3.00124 0
M  V30 8108 H 752.547 3.52803 1.61714 0
M  V30 8109 H 750.648 1.72721 3.30149 0
M  V30 8110 H 750.761 3.60572 3.15476 0
M  V30 8111 H 749.125 1.85178 1.74875 0
M  V30 8112 H 749.908 3.30606 0.924922 0
M  V30 8113 N 752.353 -0.854086 1.3245 0
M  V30 8114 C 753.583 -1.63836 1.25862 0
M  V30 8115 C 753.991 -1.88383 -0.175588 0
M  V30 8116 O 753.334 -1.45353 -1.1233 0
M  V30 8117 C 753.396 -3.02068 1.94923 0
M  V30 8118 C 753.06 -3.0056 3.44257 0
M  V30 8119 C 754.057 -2.77368 4.39731 0
M  V30 8120 C 751.742 -3.21177 3.862 0
M  V30 8121 C 753.736 -2.74797 5.75122 0
M  V30 8122 C 751.423 -3.18234 5.217 0
M  V30 8123 C 752.421 -2.95072 6.15972 0
M  V30 8124 O 752.109 -2.92003 7.48992 0
M  V30 8125 H 751.841 -0.517007 0.435523 0
M  V30 8126 H 754.395 -1.07314 1.75137 0
M  V30 8127 H 752.625 -3.60382 1.40219 0
M  V30 8128 H 754.314 -3.62791 1.82037 0
M  V30 8129 H 755.08 -2.61205 4.08653 0
M  V30 8130 H 750.959 -3.38231 3.13243 0
M  V30 8131 H 754.503 -2.56638 6.48678 0
M  V30 8132 H 750.4 -3.33941 5.52407 0
M  V30 8133 H 751.168 -3.07953 7.58358 0
M  V30 8134 N 753.831 -1.1567 -1.07043 0
M  V30 8135 C 754.761 -0.879348 -2.16309 0
M  V30 8136 C 755.742 0.171311 -1.69235 0
M  V30 8137 O 756.927 0.0250175 -1.94184 0
M  V30 8138 C 754.057 -0.371307 -3.45309 0
M  V30 8139 C 753.011 -1.359 -4.05851 0
M  V30 8140 C 752.337 -0.709678 -5.29969 0
M  V30 8141 C 753.637 -2.72606 -4.45514 0
M  V30 8142 H 755.331 -1.79308 -2.39768 0
M  V30 8143 H 752.877 -0.863558 -1.15233 0
M  V30 8144 H 754.83 -0.164798 -4.21078 0
M  V30 8145 H 753.554 0.577906 -3.21446 0
M  V30 8146 H 752.213 -1.55193 -3.32131 0
M  V30 8147 H 751.861 0.245782 -5.02399 0
M  V30 8148 H 751.561 -1.36886 -5.71433 0
M  V30 8149 H 753.085 -0.513015 -6.08441 0
M  V30 8150 H 754.499 -2.57141 -5.12398 0
M  V30 8151 H 752.896 -3.34927 -4.97939 0
M  V30 8152 H 753.966 -3.28434 -3.56734 0
M  V30 8153 N 755.309 1.25446 -0.953992 0
M  V30 8154 C 756.725 1.4539 -0.658316 0
M  V30 8155 C 756.925 1.85607 0.784356 0
M  V30 8156 O 755.981 1.98568 1.55972 0
M  V30 8157 C 757.294 2.52643 -1.6307 0
M  V30 8158 C 758.842 2.66484 -1.64181 0
M  V30 8159 C 759.317 3.76921 -2.60182 0
M  V30 8160 N 760.808 3.84331 -2.58542 0
M  V30 8161 C 761.543 4.69271 -3.29503 0
M  V30 8162 N 761.039 5.58503 -4.09934 0
M  V30 8163 N 762.832 4.6323 -3.18393 0
M  V30 8164 H 754.983 0.976337 -1.8863 0
M  V30 8165 H 757.246 0.490343 -0.811337 0
M  V30 8166 H 756.952 2.29949 -2.66114 0
M  V30 8167 H 756.826 3.50547 -1.39271 0
M  V30 8168 H 759.213 2.88545 -0.618552 0
M  V30 8169 H 759.294 1.68982 -1.92038 0
M  V30 8170 H 758.938 3.55612 -3.62633 0
M  V30 8171 H 758.868 4.73906 -2.29609 0
M  V30 8172 H 761.359 3.20544 -2.0015 0
M  V30 8173 H 761.672 6.20241 -4.61 0
M  V30 8174 H 760.017 5.58214 -4.14032 0
M  V30 8175 H 763.208 3.92527 -2.5503 0
M  V30 8176 H 763.381 5.29204 -3.73961 0
M  V30 8177 N 756.787 0.722489 1.40064 0
M  V30 8178 C 758.015 0.274838 2.05066 0
M  V30 8179 C 758.43 -1.08586 1.54449 0
M  V30 8180 O 757.787 -1.68375 0.704003 0
M  V30 8181 C 757.838 0.253673 3.60609 0
M  V30 8182 O 757.559 1.56064 4.0936 0
M  V30 8183 C 759.06 -0.211684 4.42794 0
M  V30 8184 H 756.28 0.12226 0.659768 0
M  V30 8185 H 758.824 0.982632 1.79345 0
M  V30 8186 H 756.979 -0.405137 3.85276 0
M  V30 8187 H 757.393 1.46576 5.03603 0
M  V30 8188 H 758.867 -0.175341 5.51721 0
M  V30 8189 H 759.344 -1.25493 4.2089 0
M  V30 8190 H 759.95 0.4171 4.2325 0
M  V30 8191 N 758.265 -1.50454 0.469181 0
M  V30 8192 C 759.511 -2.03248 -0.0787241 0
M  V30 8193 C 759.866 -1.34499 -1.37578 0
M  V30 8194 O 759.159 -0.461173 -1.85967 0
M  V30 8195 C 759.353 -3.55963 -0.320207 0
M  V30 8196 C 759.182 -4.3951 0.951893 0
M  V30 8197 C 757.952 -4.82689 1.49465 0
M  V30 8198 C 760.15 -4.79999 1.84677 0
M  V30 8199 N 758.132 -5.50553 2.71597 0
M  V30 8200 C 759.503 -5.47254 2.91398 0
M  V30 8201 C 761.558 -4.61959 1.85738 0
M  V30 8202 C 760.261 -5.98381 3.99166 0
M  V30 8203 C 762.287 -5.14024 2.92461 0
M  V30 8204 C 761.649 -5.81253 3.97901 0
M  V30 8205 H 757.748 -0.78192 0.0111715 0
M  V30 8206 H 760.332 -1.83986 0.636961 0
M  V30 8207 H 758.503 -3.75174 -1.00493 0
M  V30 8208 H 760.235 -3.95407 -0.862285 0
M  V30 8209 H 756.99 -4.61948 1.0441 0
M  V30 8210 H 757.414 -5.89093 3.33615 0
M  V30 8211 H 762.056 -4.09416 1.05539 0
M  V30 8212 H 759.774 -6.49961 4.80183 0
M  V30 8213 H 763.36 -5.01897 2.94263 0
M  V30 8214 H 762.24 -6.20814 4.79123 0
M  V30 8215 N 759.743 -0.201713 -1.56304 0
M  V30 8216 C 760.99 0.435307 -1.97766 0
M  V30 8217 C 761.318 1.61169 -1.0888 0
M  V30 8218 O 760.573 1.95272 -0.12934 0
M  V30 8219 C 760.872 0.931432 -3.45049 0
M  V30 8220 C 760.538 -0.132287 -4.50706 0
M  V30 8221 C 759.2 -0.424552 -4.79323 0
M  V30 8222 C 761.552 -0.852703 -5.14177 0
M  V30 8223 C 758.88 -1.4421 -5.68701 0
M  V30 8224 C 761.232 -1.85944 -6.04655 0
M  V30 8225 C 759.896 -2.15884 -6.31625 0
M  V30 8226 H 759.166 0.15929 -0.723676 0
M  V30 8227 H 761.813 -0.300069 -1.89134 0
M  V30 8228 H 760.118 1.7452 -3.50785 0
M  V30 8229 H 761.815 1.43383 -3.74489 0
M  V30 8230 H 758.405 0.105671 -4.2847 0
M  V30 8231 H 762.589 -0.640139 -4.92154 0
M  V30 8232 H 757.845 -1.6799 -5.87869 0
M  V30 8233 H 762.019 -2.42286 -6.52894 0
M  V30 8234 H 759.646 -2.94875 -7.0068 0
M  V30 8235 N 761.222 1.57436 0.0718424 0
M  V30 8236 C 762.638 1.53792 0.426628 0
M  V30 8237 C 762.838 0.921887 1.79174 0
M  V30 8238 O 761.894 0.524374 2.46995 0
M  V30 8239 C 763.207 2.98443 0.367739 0
M  V30 8240 C 764.755 3.09778 0.447928 0
M  V30 8241 C 765.23 4.5608 0.418946 0
M  V30 8242 N 766.721 4.60716 0.479022 0
M  V30 8243 C 767.456 5.71397 0.47881 0
M  V30 8244 N 766.952 6.91443 0.433417 0
M  V30 8245 N 768.745 5.59639 0.525364 0
M  V30 8246 H 760.896 1.95848 -0.822033 0
M  V30 8247 H 763.159 0.896418 -0.308447 0
M  V30 8248 H 762.865 3.47072 -0.56865 0
M  V30 8249 H 762.739 3.58335 1.17795 0
M  V30 8250 H 765.126 2.61122 1.37474 0
M  V30 8251 H 765.207 2.52796 -0.390857 0
M  V30 8252 H 764.851 5.05393 -0.504016 0
M  V30 8253 H 764.781 5.10925 1.27526 0
M  V30 8254 H 767.272 3.74328 0.518355 0
M  V30 8255 H 767.585 7.71562 0.43718 0
M  V30 8256 H 765.93 6.93847 0.400106 0
M  V30 8257 H 769.121 4.64756 0.558519 0
M  V30 8258 H 769.294 6.45896 0.52173 0
M  V30 8259 N 762.7 -0.34323 1.53817 0
M  V30 8260 C 763.928 -1.10348 1.75017 0
M  V30 8261 C 764.343 -1.82345 0.489475 0
M  V30 8262 O 763.7 -1.74362 -0.538886 0
M  V30 8263 C 763.751 -2.11672 2.93048 0
M  V30 8264 O 763.472 -1.42603 4.14241 0
M  V30 8265 C 764.973 -3.0007 3.26301 0
M  V30 8266 H 762.193 -0.329056 0.584776 0
M  V30 8267 H 764.737 -0.395339 2.00642 0
M  V30 8268 H 762.892 -2.78051 2.69753 0
M  V30 8269 H 763.306 -2.10294 4.80496 0
M  V30 8270 H 764.78 -3.67101 4.12239 0
M  V30 8271 H 765.257 -3.66105 2.42618 0
M  V30 8272 H 765.863 -2.3928 3.51604 0
M  V30 8273 N 764.178 -1.45556 -0.604258 0
M  V30 8274 C 765.594 -1.30035 -0.925368 0
M  V30 8275 C 765.794 -0.255833 -1.99869 0
M  V30 8276 O 764.85 0.349076 -2.50075 0
M  V30 8277 C 766.163 -2.68028 -1.36314 0
M  V30 8278 C 767.711 -2.75951 -1.47717 0
M  V30 8279 C 768.186 -4.14476 -1.94868 0
M  V30 8280 N 769.677 -4.16787 -2.02097 0
M  V30 8281 C 770.412 -5.20845 -2.39809 0
M  V30 8282 N 769.908 -6.35246 -2.76467 0
M  V30 8283 N 771.701 -5.08204 -2.40177 0
M  V30 8284 H 763.852 -2.1214 0.10512 0
M  V30 8285 H 766.115 -0.947871 -0.0156303 0
M  V30 8286 H 765.821 -3.45667 -0.648628 0
M  V30 8287 H 765.695 -2.96711 -2.329 0
M  V30 8288 H 768.082 -1.98613 -2.18258 0
M  V30 8289 H 768.163 -2.50977 -0.494371 0
M  V30 8290 H 767.807 -4.923 -1.24912 0
M  V30 8291 H 767.737 -4.36843 -2.94068 0
M  V30 8292 H 770.228 -3.34233 -1.76343 0
M  V30 8293 H 770.541 -7.10438 -3.04134 0
M  V30 8294 H 768.886 -6.38642 -2.74155 0
M  V30 8295 H 772.077 -4.17874 -2.10947 0
M  V30 8296 H 772.25 -5.89417 -2.69242 0
M  V30 8297 N 765.656 0.84705 -1.32902 0
M  V30 8298 C 766.881 1.63925 -1.27056 0
M  V30 8299 C 767.306 1.87443 0.157136 0
M  V30 8300 O 766.664 1.43266 1.11106 0
M  V30 8301 C 766.712 2.97134 -2.04313 0
M  V30 8302 O 765.816 3.88049 -1.39614 0
M  V30 8303 H 765.157 0.499477 -0.437514 0
M  V30 8304 H 767.687 1.05443 -1.75336 0
M  V30 8305 H 767.697 3.46896 -2.14772 0
M  V30 8306 H 766.372 2.79339 -3.08128 0
M  V30 8307 H 764.949 3.46525 -1.3775 0
M  V30 8308 N 767.134 1.16236 1.06428 0
M  V30 8309 C 768.097 0.870163 2.1204 0
M  V30 8310 C 769.097 -0.134239 1.60239 0
M  V30 8311 O 770.287 0.0964932 1.73933 0
M  V30 8312 C 767.419 0.301033 3.39568 0
M  V30 8313 H 768.612 1.8064 2.39394 0
M  V30 8314 H 766.165 0.971116 1.2247 0
M  V30 8315 H 766.9 -0.642948 3.17863 0
M  V30 8316 H 766.685 1.02475 3.78472 0
M  V30 8317 H 768.175 0.114494 4.17443 0
M  V30 8318 N 768.612 -1.24939 0.960631 0
M  V30 8319 C 769.861 -1.92118 0.614298 0
M  V30 8320 C 770.174 -1.75998 -0.853474 0
M  V30 8321 O 771.38 -2.37804 -1.31003 0
M  V30 8322 C 769.836 -3.44303 1.04801 0
M  V30 8323 C 769.444 -3.69123 2.53875 0
M  V30 8324 C 771.188 -4.17375 0.774497 0
M  V30 8325 C 769.095 -5.14843 2.91016 0
M  V30 8326 H 768.025 -0.719319 0.226045 0
M  V30 8327 H 770.676 -1.41701 1.16589 0
M  V30 8328 H 769.058 -3.93715 0.42479 0
M  V30 8329 H 770.232 -3.30339 3.21267 0
M  V30 8330 H 768.547 -3.09323 2.78762 0
M  V30 8331 H 771.144 -5.24723 1.02808 0
M  V30 8332 H 771.487 -4.15294 -0.289192 0
M  V30 8333 H 772.02 -3.7389 1.35835 0
M  V30 8334 H 768.759 -5.2204 3.96427 0
M  V30 8335 H 768.279 -5.54652 2.28302 0
M  V30 8336 H 769.958 -5.83017 2.80535 0
M  V30 8337 N 770.09 -0.729906 -1.39679 0
M  V30 8338 C 771.339 -0.272534 -1.9985 0
M  V30 8339 C 771.652 1.14519 -1.58571 0
M  V30 8340 O 772.858 1.70182 -2.11543 0
M  V30 8341 C 771.314 -0.436322 -3.57245 0
M  V30 8342 C 770.922 -1.86161 -4.0749 0
M  V30 8343 C 772.666 -0.0404679 -4.24481 0
M  V30 8344 C 770.573 -1.97522 -5.5744 0
M  V30 8345 H 769.503 -0.0981428 -0.747585 0
M  V30 8346 H 772.154 -0.903056 -1.59741 0
M  V30 8347 H 770.536 0.263015 -3.95126 0
M  V30 8348 H 771.71 -2.59248 -3.80955 0
M  V30 8349 H 770.025 -2.21021 -3.529 0
M  V30 8350 H 772.622 -0.104437 -5.34598 0
M  V30 8351 H 772.965 1.00357 -4.04023 0
M  V30 8352 H 773.498 -0.690774 -3.91757 0
M  V30 8353 H 770.237 -3.00096 -5.82771 0
M  V30 8354 H 769.757 -1.28864 -5.85794 0
M  V30 8355 H 771.436 -1.754 -6.22771 0
M  V30 8356 N 771.568 1.50203 -0.477153 0
M  V30 8357 C 772.498 2.31517 0.303646 0
M  V30 8358 C 773.479 1.38696 0.984753 0
M  V30 8359 O 774.664 1.67615 0.980758 0
M  V30 8360 C 771.794 3.18598 1.38249 0
M  V30 8361 C 770.748 4.2002 0.822645 0
M  V30 8362 C 770.074 4.95878 2.00024 0
M  V30 8363 C 771.374 5.22023 -0.170185 0
M  V30 8364 H 773.068 2.97042 -0.375027 0
M  V30 8365 H 770.614 1.42848 -0.181802 0
M  V30 8366 H 772.567 3.74282 1.93625 0
M  V30 8367 H 771.291 2.5097 2.09002 0
M  V30 8368 H 769.95 3.65445 0.290813 0
M  V30 8369 H 769.598 4.24717 2.69489 0
M  V30 8370 H 769.298 5.64487 1.63183 0
M  V30 8371 H 770.822 5.54399 2.55878 0
M  V30 8372 H 772.236 5.72543 0.294606 0
M  V30 8373 H 770.633 5.98386 -0.453181 0
M  V30 8374 H 771.703 4.72396 -1.09408 0
M  V30 8375 N 773.046 0.209999 1.56195 0
M  V30 8376 C 773.996 -0.717978 2.164 0
M  V30 8377 C 774.98 -1.16577 1.10899 0
M  V30 8378 O 776.172 -1.12169 1.3692 0
M  V30 8379 C 773.301 -1.93091 2.8385 0
M  V30 8380 C 772.387 -1.50333 3.96561 0
M  V30 8381 N 772.778 -0.787621 4.9963 0
M  V30 8382 C 771.076 -1.79151 4.08437 0
M  V30 8383 C 771.777 -0.571204 5.78889 0
M  V30 8384 N 770.753 -1.12444 5.31843 0
M  V30 8385 H 774.555 -0.162603 2.9345 0
M  V30 8386 H 772.069 0.0107928 1.62396 0
M  V30 8387 H 774.066 -2.60635 3.25384 0
M  V30 8388 H 772.726 -2.49087 2.08293 0
M  V30 8389 H 773.737 -0.441513 5.16015 0
M  V30 8390 H 770.414 -2.36549 3.44022 0
M  V30 8391 H 771.804 -0.00237941 6.719 0
M  V30 8392 N 774.524 -1.57472 -0.0634922 0
M  V30 8393 C 775.454 -2.07297 -1.07473 0
M  V30 8394 C 776.435 -0.968162 -1.39859 0
M  V30 8395 O 777.62 -1.24139 -1.49343 0
M  V30 8396 C 774.75 -2.52381 -2.38581 0
M  V30 8397 C 773.704 -3.66813 -2.20526 0
M  V30 8398 C 773.03 -3.97982 -3.57092 0
M  V30 8399 C 774.33 -4.96553 -1.61965 0
M  V30 8400 H 776.024 -2.92033 -0.660092 0
M  V30 8401 H 773.57 -1.40488 -0.316074 0
M  V30 8402 H 775.523 -2.85852 -3.09624 0
M  V30 8403 H 774.247 -1.64684 -2.8204 0
M  V30 8404 H 772.906 -3.33639 -1.51924 0
M  V30 8405 H 772.554 -3.07403 -3.98136 0
M  V30 8406 H 772.254 -4.7504 -3.45848 0
M  V30 8407 H 773.778 -4.33956 -4.29552 0
M  V30 8408 H 775.192 -5.28201 -2.22883 0
M  V30 8409 H 773.589 -5.7799 -1.61394 0
M  V30 8410 H 774.659 -4.81396 -0.581918 0
M  V30 8411 N 776.003 0.335068 -1.53997 0
M  V30 8412 C 777.228 1.09859 -1.75914 0
M  V30 8413 C 777.653 1.81308 -0.500915 0
M  V30 8414 O 777.011 1.72854 0.54693 0
M  V30 8415 C 777.059 2.08122 -2.94478 0
M  V30 8416 O 776.163 3.15805 -2.65219 0
M  V30 8417 H 775.504 0.317313 -0.583274 0
M  V30 8418 H 778.034 0.382872 -2.00986 0
M  V30 8419 H 778.044 2.51195 -3.21504 0
M  V30 8420 H 776.719 1.55517 -3.8573 0
M  V30 8421 H 775.296 2.77489 -2.49107 0
M  V30 8422 N 777.481 1.45874 0.596531 0
M  V30 8423 C 778.429 1.55739 1.72766 0
M  V30 8424 C 779.423 0.426666 1.63939 0
M  V30 8425 O 780.629 0.60301 1.69599 0
M  V30 8426 H 777.004 0.489386 0.570968 0
M  V30 8427 H 778.975 2.50871 1.61575 0
M  V30 8428 C 777.724 1.55174 3.11153 0
M  V30 8429 H 777.047 2.41511 3.1861 0
M  V30 8430 H 778.487 1.66133 3.90097 0
M  V30 8431 C 776.946 0.278001 3.35751 0
M  V30 8432 O 777.476 -0.637557 3.96608 0
M  V30 8433 N 775.682 0.170227 2.90101 0
M  V30 8434 H 775.229 0.916159 2.40758 0
M  V30 8435 H 775.187 -0.68117 3.06932 0
M  V30 8436 N 778.959 -0.83999 1.33349 0
M  V30 8437 C 780.207 -1.59202 1.24496 0
M  V30 8438 C 780.528 -1.94077 -0.189499 0
M  V30 8439 O 779.798 -1.60868 -1.11796 0
M  V30 8440 H 778.378 -0.590276 0.457802 0
M  V30 8441 H 781.04 -1.00394 1.67054 0
M  V30 8442 H 780.136 -2.52247 1.83788 0
M  V30 8443 N 780.437 -1.16799 -1.0581 0
M  V30 8444 C 781.662 -0.977402 -1.82925 0
M  V30 8445 C 782.087 0.469514 -1.82146 0
M  V30 8446 O 781.445 1.33576 -1.22585 0
M  V30 8447 C 781.493 -1.51543 -3.27211 0
M  V30 8448 O 780.597 -0.725021 -4.05977 0
M  V30 8449 H 779.938 -0.347474 -0.565825 0
M  V30 8450 H 782.468 -1.55151 -1.33376 0
M  V30 8451 H 782.478 -1.53502 -3.78023 0
M  V30 8452 H 781.153 -2.56872 -3.27093 0
M  V30 8453 H 779.73 -0.77634 -3.64729 0
M  V30 8454 N 781.915 1.24427 -0.967243 0
M  V30 8455 C 783.161 1.92772 -0.629812 0
M  V30 8456 C 783.494 1.75436 0.832827 0
M  V30 8457 O 782.769 1.10716 1.59913 0
M  V30 8458 C 783.052 3.45798 -1.00477 0
M  V30 8459 C 782.905 3.72304 -2.52407 0
M  V30 8460 C 784.224 4.36787 -0.538999 0
M  V30 8461 H 781.343 0.700099 -0.230282 0
M  V30 8462 H 783.985 1.46805 -1.20616 0
M  V30 8463 H 782.135 3.8508 -0.514336 0
M  V30 8464 H 783.807 3.42584 -3.08924 0
M  V30 8465 H 782.05 3.17472 -2.95625 0
M  V30 8466 H 782.721 4.7937 -2.73693 0
M  V30 8467 H 785.197 4.04877 -0.959874 0
M  V30 8468 H 784.073 5.4259 -0.829926 0
M  V30 8469 H 784.334 4.38527 0.560923 0
M  V30 8470 N 783.393 0.737304 1.3929 0
M  V30 8471 C 784.325 0.0592106 2.29124 0
M  V30 8472 C 785.338 -0.701026 1.46934 0
M  V30 8473 O 786.527 -0.544808 1.69983 0
M  V30 8474 C 783.627 -0.940358 3.25592 0
M  V30 8475 C 782.8 -0.241163 4.36735 0
M  V30 8476 C 781.859 -1.14916 5.13498 0
M  V30 8477 O 780.885 -0.625783 5.6575 0
M  V30 8478 N 782.087 -2.47869 5.2492 0
M  V30 8479 H 784.852 0.830647 2.87959 0
M  V30 8480 H 782.413 0.586718 1.50895 0
M  V30 8481 H 784.405 -1.55046 3.73822 0
M  V30 8482 H 782.975 -1.61299 2.67771 0
M  V30 8483 H 782.195 0.549441 3.90352 0
M  V30 8484 H 783.483 0.243299 5.08218 0
M  V30 8485 H 782.881 -2.92864 4.83991 0
M  V30 8486 H 781.438 -3.03969 5.76581 0
M  V30 8487 N 784.871 -1.49948 0.485112 0
M  V30 8488 C 786.12 -2.01589 -0.066765 0
M  V30 8489 C 786.433 -1.371 -1.39509 0
M  V30 8490 O 787.639 -1.79978 -2.03274 0
M  V30 8491 C 786.095 -3.59501 -0.169476 0
M  V30 8492 C 785.703 -4.32955 1.15126 0
M  V30 8493 C 787.447 -4.19138 -0.672564 0
M  V30 8494 C 785.354 -5.82684 1.01158 0
M  V30 8495 H 784.284 -0.753453 -0.0287259 0
M  V30 8496 H 786.935 -1.72632 0.622132 0
M  V30 8497 H 785.317 -3.85106 -0.922471 0
M  V30 8498 H 786.491 -4.19064 1.9163 0
M  V30 8499 H 784.806 -3.84991 1.58654 0
M  V30 8500 H 787.403 -5.28767 -0.794325 0
M  V30 8501 H 787.746 -3.81447 -1.66745 0
M  V30 8502 H 788.279 -3.97793 0.0234415 0
M  V30 8503 H 785.018 -6.24873 1.98025 0
M  V30 8504 H 784.538 -5.99112 0.287151 0
M  V30 8505 H 786.217 -6.43376 0.683847 0
M  V30 8506 N 786.349 -0.21828 -1.56081 0
M  V30 8507 C 787.297 0.709679 -2.21509 0
M  V30 8508 C 788.291 1.20221 -1.19346 0
M  V30 8509 O 789.497 1.16241 -1.37433 0
M  V30 8510 H 785.872 0.247271 -0.710184 0
M  V30 8511 H 787.843 0.134386 -2.98097 0
M  V30 8512 C 786.592 1.90853 -2.90638 0
M  V30 8513 H 785.915 1.53865 -3.69006 0
M  V30 8514 H 787.355 2.53568 -3.39822 0
M  V30 8515 C 785.814 2.76189 -1.92929 0
M  V30 8516 O 786.344 3.74842 -1.44416 0
M  V30 8517 N 784.55 2.42157 -1.6065 0
M  V30 8518 H 784.097 1.61987 -2.00294 0
M  V30 8519 H 784.055 2.99534 -0.955347 0
M  V30 8520 N 787.827 1.57504 0.0551401 0
M  V30 8521 C 789.074 1.88055 0.751104 0
M  V30 8522 C 789.402 0.812231 1.76729 0
M  V30 8523 O 788.657 -0.189918 1.94776 0
M  V30 8524 C 788.956 3.25311 1.48013 0
M  V30 8525 C 788.622 4.46858 0.602375 0
M  V30 8526 C 787.284 4.79847 0.360536 0
M  V30 8527 C 789.636 5.212 -0.00524047 0
M  V30 8528 C 786.964 5.84582 -0.498127 0
M  V30 8529 C 789.316 6.26844 -0.851453 0
M  V30 8530 C 787.98 6.58324 -1.103 0
M  V30 8531 H 787.25 0.688142 0.274848 0
M  V30 8532 H 789.897 1.91497 0.0114795 0
M  V30 8533 H 788.202 3.17737 2.29239 0
M  V30 8534 H 789.899 3.46189 2.02371 0
M  V30 8535 H 786.489 4.21049 0.801007 0
M  V30 8536 H 790.673 4.96013 0.168682 0
M  V30 8537 H 785.929 6.07361 -0.701594 0
M  V30 8538 H 790.103 6.83603 -1.32893 0
M  V30 8539 H 787.73 7.39304 -1.77011 0
M  V30 8540 N 789.305 -0.326896 1.54172 0
M  V30 8541 C 790.552 -1.06523 1.72218 0
M  V30 8542 C 790.88 -1.88119 0.494114 0
M  V30 8543 O 790.135 -1.8855 -0.524147 0
M  V30 8544 C 790.434 -2.0208 2.94785 0
M  V30 8545 C 790.1 -1.36665 4.2969 0
M  V30 8546 C 788.762 -1.18556 4.66367 0
M  V30 8547 C 791.114 -0.896868 5.13425 0
M  V30 8548 C 788.442 -0.521113 5.84381 0
M  V30 8549 C 790.794 -0.246261 6.3212 0
M  V30 8550 C 789.458 -0.052987 6.67479 0
M  V30 8551 H 788.728 -0.389796 0.63019 0
M  V30 8552 H 791.375 -0.342725 1.88408 0
M  V30 8553 H 789.68 -2.8077 2.73268 0
M  V30 8554 H 791.377 -2.59231 3.05941 0
M  V30 8555 H 787.967 -1.51762 4.00832 0
M  V30 8556 H 792.151 -1.02458 4.85609 0
M  V30 8557 H 787.407 -0.36014 6.10338 0
M  V30 8558 H 791.581 0.125775 6.96286 0
M  V30 8559 H 789.208 0.463903 7.58783 0
M  V30 8560 N 790.784 -1.46188 -0.588786 0
M  V30 8561 C 791.716 -1.52319 -1.71265 0
M  V30 8562 C 792.729 -0.412096 -1.57498 0
M  V30 8563 O 793.918 -0.680146 -1.65034 0
M  V30 8564 C 791.018 -1.38164 -3.09458 0
M  V30 8565 C 790.191 -2.63284 -3.49286 0
M  V30 8566 C 789.25 -2.43415 -4.66514 0
M  V30 8567 O 788.276 -3.17113 -4.72682 0
M  V30 8568 N 789.478 -1.49187 -5.61002 0
M  V30 8569 H 792.243 -2.49219 -1.66463 0
M  V30 8570 H 789.804 -1.42167 -0.774601 0
M  V30 8571 H 791.796 -1.22653 -3.85666 0
M  V30 8572 H 790.366 -0.494678 -3.08661 0
M  V30 8573 H 789.586 -2.93779 -2.62845 0
M  V30 8574 H 790.874 -3.46413 -3.7266 0
M  V30 8575 H 790.272 -0.884027 -5.5875 0
M  V30 8576 H 788.829 -1.39642 -6.36666 0
M  V30 8577 N 792.262 0.832906 -1.33792 0
M  V30 8578 C 793.539 1.57359 -1.16178 0
M  V30 8579 C 793.919 2.09372 0.269532 0
M  V30 8580 O 793.267 1.89993 1.26944 0
M  V30 8581 C 793.477 2.70279 -2.20795 0
M  V30 8582 C 794.825 3.39305 -2.55259 0
M  V30 8583 O 795.849 2.80526 -2.19508 0
M  V30 8584 O 794.708 4.45428 -3.16632 0
M  V30 8585 H 791.802 0.694025 -0.449731 0
M  V30 8586 H 794.348 0.875144 -1.45394 0
M  V30 8587 H 793.12 2.29527 -3.16911 0
M  V30 8588 H 792.743 3.47782 -1.927 0
M  V30 8589 N 793.74 1.17359 1.05189 0
M  V30 8590 C 794.69 0.858445 2.11222 0
M  V30 8591 C 795.674 -0.166991 1.60031 0
M  V30 8592 O 796.866 0.0354456 1.76965 0
M  V30 8593 C 793.995 0.373549 3.41262 0
M  V30 8594 C 793.081 1.43041 3.99249 0
M  V30 8595 N 793.472 2.64387 4.312 0
M  V30 8596 C 791.77 1.28828 4.26989 0
M  V30 8597 C 792.471 3.32296 4.77446 0
M  V30 8598 N 791.447 2.59674 4.77567 0
M  V30 8599 H 795.249 1.78104 2.33786 0
M  V30 8600 H 792.763 1.0623 1.22837 0
M  V30 8601 H 794.76 0.129331 4.16699 0
M  V30 8602 H 793.42 -0.542847 3.2013 0
M  V30 8603 H 794.431 3.01351 4.21198 0
M  V30 8604 H 791.108 0.43353 4.15243 0
M  V30 8605 H 792.498 4.35939 5.11279 0
M  V30 8606 N 795.218 -1.23913 0.973828 0
M  V30 8607 C 796.446 -1.96195 0.656891 0
M  V30 8608 C 796.861 -1.72166 -0.774876 0
M  V30 8609 O 796.218 -1.0091 -1.52064 0
M  V30 8610 C 796.269 -3.49342 0.929638 0
M  V30 8611 O 795.99 -3.72553 2.30512 0
M  V30 8612 C 797.491 -4.38833 0.627739 0
M  V30 8613 H 794.711 -0.624841 0.244572 0
M  V30 8614 H 797.255 -1.57579 1.30343 0
M  V30 8615 H 795.41 -3.85999 0.329216 0
M  V30 8616 H 795.824 -4.66893 2.3898 0
M  V30 8617 H 797.298 -5.45117 0.868991 0
M  V30 8618 H 797.775 -4.37009 -0.438104 0
M  V30 8619 H 798.381 -4.07773 1.20834 0
M  V30 8620 N 796.696 -0.74468 -1.38897 0
M  V30 8621 C 797.643 -0.111064 -2.30533 0
M  V30 8622 C 798.613 0.719276 -1.49719 0
M  V30 8623 O 799.798 0.677244 -1.78376 0
M  V30 8624 C 796.938 0.78292 -3.36102 0
M  V30 8625 C 796.051 -0.0610817 -4.31957 0
M  V30 8626 C 795.186 0.835075 -5.24595 0
M  V30 8627 C 794.225 -0.0130974 -6.12099 0
M  V30 8628 N 793.362 0.839525 -6.97063 0
M  V30 8629 H 798.202 -0.898113 -2.84144 0
M  V30 8630 H 795.739 -0.454537 -1.39901 0
M  V30 8631 H 797.697 1.31578 -3.95908 0
M  V30 8632 H 796.327 1.53585 -2.83922 0
M  V30 8633 H 795.379 -0.711469 -3.73687 0
M  V30 8634 H 796.691 -0.716482 -4.93627 0
M  V30 8635 H 795.845 1.43542 -5.89475 0
M  V30 8636 H 794.584 1.52423 -4.63269 0
M  V30 8637 H 793.589 -0.626179 -5.46223 0
M  V30 8638 H 794.814 -0.699181 -6.75491 0
M  V30 8639 H 792.76 1.5138 -6.38295 0
M  V30 8640 H 792.677 0.240823 -7.55616 0
M  V30 8641 H 793.945 1.42513 -7.66362 0
M  V30 8642 N 798.174 1.49689 -0.493057 0
M  V30 8643 C 799.104 2.31826 0.279073 0
M  V30 8644 C 800.085 1.39733 0.969987 0
M  V30 8645 O 801.27 1.68646 0.962925 0
M  V30 8646 C 798.4 3.20046 1.34862 0
M  V30 8647 C 797.354 4.20869 0.77805 0
M  V30 8648 C 796.68 4.97971 1.94753 0
M  V30 8649 C 797.98 5.21813 -0.225543 0
M  V30 8650 H 799.674 2.96627 -0.406512 0
M  V30 8651 H 797.22 1.42647 -0.196943 0
M  V30 8652 H 799.173 3.76315 1.89645 0
M  V30 8653 H 797.897 2.53172 2.06328 0
M  V30 8654 H 796.556 3.65733 0.252036 0
M  V30 8655 H 796.204 4.27552 2.64969 0
M  V30 8656 H 795.904 5.66186 1.57187 0
M  V30 8657 H 797.428 5.57082 2.49984 0
M  V30 8658 H 798.842 5.72823 0.233864 0
M  V30 8659 H 797.239 5.97872 -0.516622 0
M  V30 8660 H 798.309 4.71209 -1.14412 0
M  V30 8661 N 799.652 0.226554 1.55963 0
M  V30 8662 C 800.901 -0.40417 1.97609 0
M  V30 8663 C 801.214 -1.60541 1.1174 0
M  V30 8664 O 802.42 -2.30598 1.43307 0
M  V30 8665 C 800.876 -0.770466 3.51556 0
M  V30 8666 C 800.484 0.408244 4.46136 0
M  V30 8667 C 802.228 -1.36651 4.01904 0
M  V30 8668 C 800.135 0.0192347 5.91397 0
M  V30 8669 H 799.065 -0.15478 0.737943 0
M  V30 8670 H 801.716 0.323558 1.80625 0
M  V30 8671 H 800.098 -1.55575 3.6416 0
M  V30 8672 H 801.272 1.18575 4.45283 0
M  V30 8673 H 799.587 0.917859 4.06158 0
M  V30 8674 H 802.184 -1.67055 5.07934 0
M  V30 8675 H 802.527 -2.28403 3.48049 0
M  V30 8676 H 803.06 -0.644556 3.92543 0
M  V30 8677 H 799.799 0.90336 6.49245 0
M  V30 8678 H 799.319 -0.722485 5.95433 0
M  V30 8679 H 800.998 -0.405711 6.45727 0
M  V30 8680 N 801.13 -1.57531 -0.0467866 0
M  V30 8681 C 802.06 -2.08425 -1.05268 0
M  V30 8682 C 803.041 -0.982941 -1.38825 0
M  V30 8683 O 804.226 -1.25716 -1.48018 0
M  V30 8684 C 801.356 -2.54897 -2.35891 0
M  V30 8685 C 800.31 -3.69132 -2.16623 0
M  V30 8686 C 799.636 -4.01747 -3.52851 0
M  V30 8687 C 800.936 -4.98243 -1.56689 0
M  V30 8688 H 802.63 -2.92716 -0.62908 0
M  V30 8689 H 800.176 -1.40816 -0.301156 0
M  V30 8690 H 802.129 -2.8912 -3.06574 0
M  V30 8691 H 800.853 -1.67666 -2.80278 0
M  V30 8692 H 799.512 -3.35231 -1.48377 0
M  V30 8693 H 799.16 -3.11608 -3.94853 0
M  V30 8694 H 798.86 -4.78681 -3.4079 0
M  V30 8695 H 800.384 -4.38487 -4.24925 0
M  V30 8696 H 801.798 -5.30535 -2.17268 0
M  V30 8697 H 800.195 -5.79669 -1.55255 0
M  V30 8698 H 801.265 -4.81986 -0.530827 0
M  V30 8699 N 802.608 0.318715 -1.54344 0
M  V30 8700 C 803.848 1.06425 -1.74508 0
M  V30 8701 C 804.212 1.85087 -0.510572 0
M  V30 8702 O 805.413 2.62253 -0.589647 0
M  V30 8703 C 803.684 1.96054 -2.98827 0
M  V30 8704 S 805.243 2.77493 -3.39916 0
M  V30 8705 H 802.061 0.35921 -0.613587 0
M  V30 8706 H 804.663 0.339679 -1.92526 0
M  V30 8707 H 803.367 1.37109 -3.8682 0
M  V30 8708 H 802.898 2.72908 -2.83346 0
M  V30 8709 H 804.913 3.98544 -2.95596 0
M  V30 8710 N 804.086 1.46499 0.581025 0
M  V30 8711 C 805.497 1.4604 1.16315 0
M  V30 8712 C 805.848 0.202154 1.95156 0
M  V30 8713 O 804.973 -0.694638 2.04948 0
M  V30 8714 C 805.568 2.64593 2.11604 0
M  V30 8715 C 804.127 2.6717 2.65136 0
M  V30 8716 C 803.274 2.38753 1.4104 0
M  V30 8717 H 806.225 1.54354 0.368871 0
M  V30 8718 H 806.246 2.40207 2.95095 0
M  V30 8719 H 805.758 3.56154 1.54194 0
M  V30 8720 H 803.859 1.79685 3.26411 0
M  V30 8721 H 803.972 3.67182 3.07757 0
M  V30 8722 H 802.336 1.88845 1.70908 0
M  V30 8723 H 803.119 3.32493 0.854588 0
M  V30 8724 N 805.565 -0.825799 1.34232 0
M  V30 8725 C 806.495 -1.95151 1.28212 0
M  V30 8726 C 807.476 -1.69345 0.160123 0
M  V30 8727 O 808.661 -1.90983 0.352019 0
M  V30 8728 C 805.791 -3.31554 1.03388 0
M  V30 8729 C 804.745 -3.71793 2.12023 0
M  V30 8730 C 804.071 -5.06147 1.72392 0
M  V30 8731 C 805.371 -3.84193 3.53826 0
M  V30 8732 H 807.065 -2.00445 2.22401 0
M  V30 8733 H 804.611 -0.962996 1.07063 0
M  V30 8734 H 806.564 -4.09889 0.978225 0
M  V30 8735 H 805.288 -3.26551 0.0564142 0
M  V30 8736 H 803.947 -2.95731 2.16654 0
M  V30 8737 H 803.595 -4.97628 0.733137 0
M  V30 8738 H 803.295 -5.34041 2.451 0
M  V30 8739 H 804.819 -5.86943 1.68317 0
M  V30 8740 H 806.233 -4.52806 3.51624 0
M  V30 8741 H 804.63 -4.23538 4.2513 0
M  V30 8742 H 805.7 -2.86272 3.91377 0
M  V30 8743 N 807.043 -1.17915 -1.04565 0
M  V30 8744 C 807.976 -0.845021 -2.11978 0
M  V30 8745 C 808.954 0.19089 -1.61476 0
M  V30 8746 O 810.138 0.0709905 -1.88366 0
M  V30 8747 C 807.265 -0.261657 -3.37688 0
M  V30 8748 C 806.311 -1.27396 -4.07029 0
M  V30 8749 S 807.144 -2.82783 -4.54746 0
M  V30 8750 C 808.3 -2.25944 -5.83695 0
M  V30 8751 H 808.533 -1.75472 -2.39993 0
M  V30 8752 H 806.066 -1.00447 -1.17259 0
M  V30 8753 H 808.024 0.0684257 -4.10443 0
M  V30 8754 H 806.685 0.626082 -3.07797 0
M  V30 8755 H 805.878 -0.814557 -4.97374 0
M  V30 8756 H 805.48 -1.55002 -3.40368 0
M  V30 8757 H 807.772 -1.63892 -6.57378 0
M  V30 8758 H 808.715 -3.14569 -6.34391 0
M  V30 8759 H 809.123 -1.69155 -5.3856 0
M  V30 8760 N 808.521 1.23394 -0.980386 0
M  V30 8761 C 809.484 2.23092 -0.525619 0
M  V30 8762 C 810.484 1.56129 0.384745 0
M  V30 8763 O 811.674 1.73284 0.178439 0
M  V30 8764 C 808.806 3.40074 0.23712 0
M  V30 8765 H 809.999 2.64839 -1.40714 0
M  V30 8766 H 807.552 1.36227 -0.766275 0
M  V30 8767 H 808.287 3.03783 1.13518 0
M  V30 8768 H 808.072 3.89883 -0.416356 0
M  V30 8769 H 809.562 4.14043 0.543892 0
M  V30 8770 N 809.999 0.752036 1.385 0
M  V30 8771 C 810.962 0.131587 2.28822 0
M  V30 8772 C 811.962 -0.649149 1.47115 0
M  V30 8773 O 813.152 -0.475645 1.67581 0
M  V30 8774 C 810.284 -0.822101 3.30839 0
M  V30 8775 H 811.477 0.927551 2.85196 0
M  V30 8776 H 809.03 0.518945 1.47434 0
M  V30 8777 H 809.765 -1.6438 2.79553 0
M  V30 8778 H 809.55 -0.264689 3.91206 0
M  V30 8779 H 811.04 -1.25226 3.98382 0
M  V30 8780 N 811.477 -1.49425 0.500989 0
M  V30 8781 C 812.723 -2.02753 -0.0436 0
M  V30 8782 C 813.056 -1.37991 -1.36646 0
M  V30 8783 O 812.331 -0.515597 -1.87542 0
M  V30 8784 C 812.614 -3.59565 -0.19616 0
M  V30 8785 C 812.467 -4.34855 1.14982 0
M  V30 8786 C 813.786 -4.30014 -0.936795 0
M  V30 8787 H 810.905 -0.73686 -0.0143711 0
M  V30 8788 H 813.547 -1.78448 0.652397 0
M  V30 8789 H 811.697 -3.80405 -0.788959 0
M  V30 8790 H 813.369 -4.25512 1.7815 0
M  V30 8791 H 811.612 -3.97414 1.73911 0
M  V30 8792 H 812.283 -5.42933 0.996385 0
M  V30 8793 H 814.759 -4.1383 -0.434036 0
M  V30 8794 H 813.635 -5.39483 -1.01238 0
M  V30 8795 H 813.896 -3.95257 -1.9805 0
M  V30 8796 N 812.955 -0.234822 -1.55841 0
M  V30 8797 C 814.183 0.397745 -2.03041 0
M  V30 8798 C 814.598 1.52405 -1.11437 0
M  V30 8799 O 813.955 1.82061 -0.126466 0
M  V30 8800 C 814.006 0.916919 -3.49678 0
M  V30 8801 O 813.727 -0.164493 -4.37791 0
M  V30 8802 C 815.228 1.62139 -4.12584 0
M  V30 8803 H 812.448 0.0959214 -0.664108 0
M  V30 8804 H 814.992 -0.355156 -2.01392 0
M  V30 8805 H 813.147 1.62004 -3.519 0
M  V30 8806 H 813.561 0.227794 -5.24005 0
M  V30 8807 H 815.035 1.93651 -5.16917 0
M  V30 8808 H 815.512 2.53918 -3.58361 0
M  V30 8809 H 816.118 0.963145 -4.14251 0
M  V30 8810 N 814.433 1.57553 0.0384317 0
M  V30 8811 C 815.663 1.92813 0.742064 0
M  V30 8812 C 816.071 0.832157 1.69917 0
M  V30 8813 O 815.414 -0.200917 1.82598 0
M  V30 8814 C 815.476 3.23806 1.56172 0
M  V30 8815 C 815.14 4.50459 0.770407 0
M  V30 8816 C 816.137 5.19846 0.0748006 0
M  V30 8817 C 813.822 4.97001 0.727714 0
M  V30 8818 C 815.816 6.34047 -0.652902 0
M  V30 8819 C 813.503 6.111 -0.00373992 0
M  V30 8820 C 814.501 6.79477 -0.692816 0
M  V30 8821 O 814.189 7.91395 -1.41241 0
M  V30 8822 H 813.921 0.641174 0.214179 0
M  V30 8823 H 816.475 2.054 0.00285095 0
M  V30 8824 H 814.705 3.0752 2.34453 0
M  V30 8825 H 816.394 3.44463 2.14709 0
M  V30 8826 H 817.16 4.84899 0.098875 0
M  V30 8827 H 813.039 4.43629 1.25355 0
M  V30 8828 H 816.583 6.87353 -1.1913 0
M  V30 8829 H 812.48 6.45493 -0.0297703 0
M  V30 8830 H 813.248 8.07702 -1.32512 0
M  V30 8831 N 815.911 -0.310526 1.54511 0
M  V30 8832 C 817.16 -1.0445 1.72549 0
M  V30 8833 C 817.473 -1.88748 0.513172 0
M  V30 8834 O 818.679 -2.65338 0.575165 0
M  V30 8835 C 817.135 -1.90665 3.05246 0
M  V30 8836 C 816.743 -1.11415 4.33925 0
M  V30 8837 C 818.487 -2.63719 3.32645 0
M  V30 8838 C 816.394 -1.96852 5.57677 0
M  V30 8839 H 815.324 -0.393676 0.643067 0
M  V30 8840 H 817.975 -0.302003 1.80998 0
M  V30 8841 H 816.357 -2.68864 2.90737 0
M  V30 8842 H 817.531 -0.378956 4.59239 0
M  V30 8843 H 815.846 -0.499853 4.13389 0
M  V30 8844 H 818.443 -3.27974 4.223 0
M  V30 8845 H 818.786 -3.32047 2.51098 0
M  V30 8846 H 819.319 -1.92574 3.48081 0
M  V30 8847 H 816.058 -1.33009 6.41864 0
M  V30 8848 H 815.578 -2.68069 5.36562 0
M  V30 8849 H 817.257 -2.55127 5.94575 0
M  V30 8850 N 817.389 -1.46805 -0.573248 0
M  V30 8851 C 818.666 -1.43082 -1.33368 0
M  V30 8852 C 819.046 -0.119252 -2.10763 0
M  V30 8853 O 818.394 0.899239 -2.10062 0
M  V30 8854 C 818.604 -2.66643 -2.25172 0
M  V30 8855 C 819.952 -3.13188 -2.86702 0
M  V30 8856 O 820.976 -2.67258 -2.35482 0
M  V30 8857 O 819.835 -3.92994 -3.79761 0
M  V30 8858 H 816.929 -0.569451 -0.599712 0
M  V30 8859 H 819.475 -1.58984 -0.59348 0
M  V30 8860 H 818.247 -3.53649 -1.67475 0
M  V30 8861 H 817.87 -2.53247 -3.06516 0
M  V30 8862 N 818.867 0.818669 -1.34668 0
M  V30 8863 C 819.777 1.9616 -1.2868 0
M  V30 8864 C 820.793 1.72918 -0.193742 0
M  V30 8865 O 821.969 1.96951 -0.420975 0
M  V30 8866 C 819.034 3.30534 -1.04633 0
M  V30 8867 C 818.095 3.66755 -2.23136 0
M  V30 8868 C 817.328 4.94717 -2.00227 0
M  V30 8869 O 817.551 5.62218 -0.96264 0
M  V30 8870 O 816.485 5.28915 -2.87286 0
M  V30 8871 H 820.311 2.04157 -2.24842 0
M  V30 8872 H 817.896 0.954691 -1.14917 0
M  V30 8873 H 819.778 4.11005 -0.930216 0
M  V30 8874 H 818.453 3.23495 -0.115139 0
M  V30 8875 H 817.36 2.8671 -2.40308 0
M  V30 8876 H 818.693 3.78484 -3.1466 0
M  V30 8877 N 820.346 1.18468 1.03938 0
M  V30 8878 C 821.293 0.912859 2.1198 0
M  V30 8879 C 822.263 -0.14824 1.65437 0
M  V30 8880 O 823.448 -0.008331 1.90798 0
M  V30 8881 C 820.588 0.446114 3.42204 0
M  V30 8882 C 819.701 1.57278 4.02353 0
M  V30 8883 C 818.836 1.05863 5.20544 0
M  V30 8884 C 817.875 2.1599 5.72726 0
M  V30 8885 N 817.012 1.65959 6.82204 0
M  V30 8886 H 821.852 1.83798 2.34569 0
M  V30 8887 H 819.389 0.916504 1.15059 0
M  V30 8888 H 821.347 0.15697 4.16905 0
M  V30 8889 H 819.977 -0.442025 3.19759 0
M  V30 8890 H 819.029 1.97737 3.24968 0
M  V30 8891 H 820.341 2.40289 4.37107 0
M  V30 8892 H 819.495 0.724087 6.02364 0
M  V30 8893 H 818.234 0.198116 4.87297 0
M  V30 8894 H 817.239 2.50287 4.89527 0
M  V30 8895 H 818.464 3.02479 6.08016 0
M  V30 8896 H 816.41 0.82199 6.5083 0
M  V30 8897 H 816.327 2.42567 7.16029 0
M  V30 8898 H 817.595 1.35436 7.67644 0
M  V30 8899 N 821.824 -1.22873 0.986916 0
M  V30 8900 C 823.24 -1.43594 0.696633 0
M  V30 8901 C 823.44 -1.87622 -0.734869 0
M  V30 8902 O 822.496 -2.02633 -1.50652 0
M  V30 8903 C 823.809 -2.48231 1.69711 0
M  V30 8904 C 825.357 -2.62037 1.71188 0
M  V30 8905 C 825.832 -3.6989 2.70084 0
M  V30 8906 N 827.323 -3.77341 2.68641 0
M  V30 8907 C 828.058 -4.6037 3.41829 0
M  V30 8908 N 827.554 -5.47438 4.24598 0
M  V30 8909 N 829.347 -4.54626 3.30563 0
M  V30 8910 H 821.498 -0.925982 1.91153 0
M  V30 8911 H 823.761 -0.46866 0.824052 0
M  V30 8912 H 823.467 -2.22812 2.72117 0
M  V30 8913 H 823.341 -3.46731 1.48516 0
M  V30 8914 H 825.728 -2.86803 0.694837 0
M  V30 8915 H 825.809 -1.63831 1.96451 0
M  V30 8916 H 825.453 -3.45872 3.71934 0
M  V30 8917 H 825.383 -4.67652 2.42093 0
M  V30 8918 H 827.874 -3.15124 2.08578 0
M  V30 8919 H 828.187 -6.078 4.77283 0
M  V30 8920 H 826.532 -5.4704 4.28687 0
M  V30 8921 H 829.723 -3.85627 2.65347 0
M  V30 8922 H 829.896 -5.19103 3.8786 0
M  V30 8923 N 823.302 -0.75937 -1.38099 0
M  V30 8924 C 824.579 -0.243371 -1.9408 0
M  V30 8925 C 824.959 1.25942 -1.69416 0
M  V30 8926 O 824.307 2.03667 -1.03595 0
M  V30 8927 C 824.517 -0.603328 -3.43745 0
M  V30 8928 C 825.865 -0.566195 -4.20808 0
M  V30 8929 O 826.889 -0.541969 -3.52053 0
M  V30 8930 O 825.748 -0.582261 -5.43389 0
M  V30 8931 H 822.842 -0.0526825 -0.82532 0
M  V30 8932 H 825.388 -0.839884 -1.47459 0
M  V30 8933 H 824.16 -1.64098 -3.55229 0
M  V30 8934 H 823.783 0.0208887 -3.97595 0
M  V30 8935 N 824.78 1.49157 -0.508906 0
M  V30 8936 C 826.027 2.02473 0.0327983 0
M  V30 8937 C 826.355 1.38792 1.36261 0
M  V30 8938 O 825.61 0.515576 1.88786 0
M  V30 8939 C 825.909 3.56687 0.225717 0
M  V30 8940 C 825.575 4.39046 -1.02708 0
M  V30 8941 C 824.237 4.61271 -1.37048 0
M  V30 8942 C 826.589 4.86902 -1.85946 0
M  V30 8943 C 823.917 5.28598 -2.54562 0
M  V30 8944 C 826.269 5.55521 -3.0262 0
M  V30 8945 C 824.933 5.7599 -3.3733 0
M  V30 8946 H 824.203 0.740903 0.0120017 0
M  V30 8947 H 826.85 1.79372 -0.670665 0
M  V30 8948 H 825.155 3.78511 1.01177 0
M  V30 8949 H 826.852 3.95541 0.659433 0
M  V30 8950 H 823.442 4.21994 -0.749615 0
M  V30 8951 H 827.626 4.69553 -1.6073 0
M  V30 8952 H 822.882 5.42646 -2.81682 0
M  V30 8953 H 827.056 5.91576 -3.67438 0
M  V30 8954 H 824.683 6.27934 -4.2849 0
M  V30 8955 N 826.258 0.243083 1.55714 0
M  V30 8956 C 827.674 -0.111853 1.59208 0
M  V30 8957 C 827.874 -1.5723 1.2602 0
M  V30 8958 O 826.93 -2.31608 1.00569 0
M  V30 8959 C 828.243 0.233885 2.99789 0
M  V30 8960 C 829.791 0.177873 3.12494 0
M  V30 8961 C 830.266 0.49759 4.55289 0
M  V30 8962 N 831.757 0.447949 4.61029 0
M  V30 8963 C 832.492 0.668545 5.69489 0
M  V30 8964 N 831.988 0.952064 6.86227 0
M  V30 8965 N 833.781 0.599512 5.58894 0
M  V30 8966 H 825.932 1.19554 1.75558 0
M  V30 8967 H 828.195 0.480765 0.817049 0
M  V30 8968 H 827.901 1.24835 3.28799 0
M  V30 8969 H 827.775 -0.440846 3.74615 0
M  V30 8970 H 830.162 -0.827263 2.83267 0
M  V30 8971 H 830.243 0.886399 2.39951 0
M  V30 8972 H 829.887 1.50026 4.85237 0
M  V30 8973 H 829.817 -0.232371 5.26087 0
M  V30 8974 H 832.308 0.237388 3.77154 0
M  V30 8975 H 832.621 1.10791 7.64817 0
M  V30 8976 H 830.966 0.989496 6.8792 0
M  V30 8977 H 834.157 0.378088 4.66571 0
M  V30 8978 H 834.33 0.774828 6.43351 0
M  V30 8979 N 827.736 -1.57571 -0.0300757 0
M  V30 8980 C 828.964 -1.93485 -0.732891 0
M  V30 8981 C 829.379 -0.842758 -1.68947 0
M  V30 8982 O 828.736 0.180904 -1.81601 0
M  V30 8983 C 828.787 -3.29328 -1.49082 0
M  V30 8984 O 828.508 -4.34341 -0.572639 0
M  V30 8985 C 830.009 -3.79517 -2.29088 0
M  V30 8986 H 827.229 -0.638588 -0.206026 0
M  V30 8987 H 829.773 -2.04496 0.0120966 0
M  V30 8988 H 827.928 -3.19716 -2.1877 0
M  V30 8989 H 828.342 -5.12748 -1.10406 0
M  V30 8990 H 829.816 -4.77081 -2.77665 0
M  V30 8991 H 830.293 -3.10659 -3.10464 0
M  V30 8992 H 830.899 -3.92208 -1.64477 0
M  V30 8993 N 829.214 0.302327 -1.54673 0
M  V30 8994 C 830.444 1.05516 -1.77623 0
M  V30 8995 C 830.852 1.81474 -0.535159 0
M  V30 8996 O 830.195 1.76635 0.504543 0
M  V30 8997 C 830.257 2.08305 -2.93001 0
M  V30 8998 C 829.921 1.51554 -4.31139 0
M  V30 8999 C 830.918 0.946261 -5.11216 0
M  V30 9000 C 828.603 1.55157 -4.77736 0
M  V30 9001 C 830.597 0.420559 -6.36011 0
M  V30 9002 C 828.284 1.022 -6.02494 0
M  V30 9003 C 829.282 0.457461 -6.81466 0
M  V30 9004 O 828.97 -0.064083 -8.03874 0
M  V30 9005 H 828.702 0.318756 -0.59613 0
M  V30 9006 H 831.256 0.347558 -2.02438 0
M  V30 9007 H 829.486 2.82742 -2.63807 0
M  V30 9008 H 831.175 2.69479 -3.03539 0
M  V30 9009 H 831.941 0.911338 -4.76361 0
M  V30 9010 H 827.82 1.98037 -4.16296 0
M  V30 9011 H 831.364 -0.0207298 -6.97597 0
M  V30 9012 H 827.261 1.05406 -6.36836 0
M  V30 9013 H 828.029 0.0493422 -8.18485 0
M  V30 9014 N 830.692 1.47107 0.565454 0
M  V30 9015 C 832.108 1.32443 0.890566 0
M  V30 9016 C 832.308 0.308735 1.99121 0
M  V30 9017 O 831.364 -0.28265 2.50913 0
M  V30 9018 C 832.677 2.71548 1.2916 0
M  V30 9019 C 834.225 2.7977 1.40349 0
M  V30 9020 C 834.7 4.19497 1.83811 0
M  V30 9021 N 836.191 4.21998 1.90975 0
M  V30 9022 C 836.926 5.2702 2.25916 0
M  V30 9023 N 836.422 6.42353 2.59527 0
M  V30 9024 N 838.215 5.14393 2.26619 0
M  V30 9025 H 830.366 2.11786 -0.161328 0
M  V30 9026 H 832.629 0.947952 -0.00950631 0
M  V30 9027 H 832.335 3.47265 0.556753 0
M  V30 9028 H 832.209 3.02782 2.24951 0
M  V30 9029 H 834.596 2.0433 2.12916 0
M  V30 9030 H 834.677 2.522 0.427655 0
M  V30 9031 H 834.321 4.95439 1.11816 0
M  V30 9032 H 834.251 4.44486 2.82382 0
M  V30 9033 H 836.742 3.38791 1.6742 0
M  V30 9034 H 837.055 7.18252 2.85191 0
M  V30 9035 H 835.4 6.45687 2.57126 0
M  V30 9036 H 838.591 4.2332 1.99794 0
M  V30 9037 H 838.764 5.96349 2.5352 0
M  V30 9038 N 832.17 -0.811516 1.35101 0
M  V30 9039 C 833.1 -1.9378 1.30275 0
M  V30 9040 C 834.081 -1.69165 0.178075 0
M  V30 9041 O 835.266 -1.90599 0.372256 0
M  V30 9042 C 832.396 -3.30439 1.06899 0
M  V30 9043 C 831.35 -3.69523 2.15955 0
M  V30 9044 C 830.676 -5.0429 1.77751 0
M  V30 9045 C 831.976 -3.80419 3.57881 0
M  V30 9046 H 833.67 -1.98075 2.24514 0
M  V30 9047 H 831.216 -0.951586 1.08078 0
M  V30 9048 H 833.169 -4.08828 1.02164 0
M  V30 9049 H 831.893 -3.26473 0.0910462 0
M  V30 9050 H 830.552 -2.93416 2.19778 0
M  V30 9051 H 830.2 -4.96823 0.785876 0
M  V30 9052 H 829.9 -5.31411 2.5075 0
M  V30 9053 H 831.424 -5.85125 1.74533 0
M  V30 9054 H 832.838 -4.49051 3.56407 0
M  V30 9055 H 831.235 -4.19005 4.29598 0
M  V30 9056 H 832.305 -2.82105 3.94391 0
M  V30 9057 N 833.648 -1.19017 -1.03309 0
M  V30 9058 C 834.873 -1.01598 -1.80811 0
M  V30 9059 C 835.298 0.430773 -1.83101 0
M  V30 9060 O 834.656 1.30946 -1.25391 0
M  V30 9061 C 834.704 -1.5845 -3.23923 0
M  V30 9062 O 833.808 -0.810972 -4.04348 0
M  V30 9063 H 833.149 -0.359398 -0.558327 0
M  V30 9064 H 835.679 -1.57945 -1.30055 0
M  V30 9065 H 835.689 -1.61486 -3.74682 0
M  V30 9066 H 834.364 -2.63752 -3.21571 0
M  V30 9067 H 832.941 -0.85353 -3.63 0
M  V30 9068 N 835.127 1.22348 -0.993418 0
M  V30 9069 C 836.057 2.26584 -0.564088 0
M  V30 9070 C 837.038 1.65102 0.409298 0
M  V30 9071 O 838.223 1.91872 0.299819 0
M  V30 9072 C 835.353 3.47087 0.121554 0
M  V30 9073 C 834.307 4.21009 -0.770429 0
M  V30 9074 C 833.633 5.34678 0.0481586 0
M  V30 9075 C 834.933 4.79636 -2.06752 0
M  V30 9076 H 836.627 2.62749 -1.43538 0
M  V30 9077 H 834.173 1.26303 -0.691628 0
M  V30 9078 H 836.126 4.19166 0.433303 0
M  V30 9079 H 834.85 3.1002 1.0274 0
M  V30 9080 H 833.509 3.50764 -1.06583 0
M  V30 9081 H 833.157 4.93852 0.954933 0
M  V30 9082 H 832.857 5.85061 -0.545641 0
M  V30 9083 H 834.381 6.09573 0.353991 0
M  V30 9084 H 835.795 5.43654 -1.81969 0
M  V30 9085 H 834.192 5.4036 -2.61019 0
M  V30 9086 H 835.262 3.99659 -2.74592 0
M  V30 9087 N 836.605 0.766683 1.37694 0
M  V30 9088 C 837.535 0.163432 2.32927 0
M  V30 9089 C 838.516 -0.688861 1.55527 0
M  V30 9090 O 839.701 -0.627363 1.83787 0
M  V30 9091 C 836.831 -0.720416 3.39746 0
M  V30 9092 C 835.785 0.0301718 4.27989 0
M  V30 9093 C 835.111 -0.972788 5.25776 0
M  V30 9094 C 836.411 1.20623 5.0818 0
M  V30 9095 H 838.105 0.958988 2.83626 0
M  V30 9096 H 835.651 0.462601 1.36367 0
M  V30 9097 H 837.604 -1.15221 4.05342 0
M  V30 9098 H 836.328 -1.54844 2.8756 0
M  V30 9099 H 834.987 0.442685 3.63917 0
M  V30 9100 H 834.635 -1.79522 4.69873 0
M  V30 9101 H 834.335 -0.475145 5.85676 0
M  V30 9102 H 835.859 -1.40362 5.94248 0
M  V30 9103 H 837.273 0.851341 5.66944 0
M  V30 9104 H 835.67 1.63561 5.7738 0
M  V30 9105 H 836.74 2.01281 4.41151 0
M  V30 9106 N 838.083 -1.48885 0.516809 0
M  V30 9107 C 838.993 -2.33185 -0.257293 0
M  V30 9108 C 840.009 -1.4565 -0.951952 0
M  V30 9109 O 841.185 -1.78651 -0.929834 0
M  V30 9110 C 838.25 -3.21465 -1.29851 0
M  V30 9111 C 837.311 -4.24863 -0.615608 0
M  V30 9112 C 836.544 -5.08925 -1.60722 0
M  V30 9113 O 836.767 -4.9475 -2.83863 0
M  V30 9114 O 835.701 -5.90737 -1.15384 0
M  V30 9115 H 839.527 -3.00596 0.433131 0
M  V30 9116 H 837.112 -1.46792 0.277908 0
M  V30 9117 H 838.994 -3.76108 -1.90055 0
M  V30 9118 H 837.669 -2.5673 -1.97158 0
M  V30 9119 H 836.576 -3.74091 0.0265829 0
M  V30 9120 H 837.909 -4.92198 0.0152871 0
M  V30 9121 N 839.561 -0.251338 -1.55583 0
M  V30 9122 C 840.471 0.656978 -2.25213 0
M  V30 9123 C 841.487 1.18966 -1.26977 0
M  V30 9124 O 842.663 1.22499 -1.59862 0
M  V30 9125 C 839.728 1.83527 -2.94141 0
M  V30 9126 C 838.789 1.34162 -4.07798 0
M  V30 9127 C 838.022 2.46375 -4.73429 0
M  V30 9128 O 838.245 3.65205 -4.38157 0
M  V30 9129 O 837.179 2.15881 -5.61853 0
M  V30 9130 H 841.005 0.0936395 -3.03556 0
M  V30 9131 H 838.59 -0.0196638 -1.49387 0
M  V30 9132 H 840.472 2.52279 -3.3754 0
M  V30 9133 H 839.147 2.38614 -2.18735 0
M  V30 9134 H 838.054 0.621249 -3.68906 0
M  V30 9135 H 839.387 0.836779 -4.85035 0
M  V30 9136 N 841.039 1.57585 0.0217189 0
M  V30 9137 C 842.269 1.9359 0.721572 0
M  V30 9138 C 842.677 0.850132 1.69025 0
M  V30 9139 O 842.02 -0.181539 1.82801 0
M  V30 9140 C 842.082 3.25445 1.52729 0
M  V30 9141 C 841.746 4.51251 0.722586 0
M  V30 9142 C 842.743 5.19896 0.0196598 0
M  V30 9143 C 840.428 4.97745 0.674959 0
M  V30 9144 C 842.422 6.33319 -0.720114 0
M  V30 9145 C 840.109 6.11062 -0.068555 0
M  V30 9146 C 841.107 6.78704 -0.764845 0
M  V30 9147 O 840.795 7.89852 -1.49627 0
M  V30 9148 H 840.527 0.643409 0.207366 0
M  V30 9149 H 843.081 2.05391 -0.0189346 0
M  V30 9150 H 841.311 3.0999 2.31178 0
M  V30 9151 H 843 3.46721 2.11044 0
M  V30 9152 H 843.766 4.84977 0.0474394 0
M  V30 9153 H 839.645 4.44934 1.20643 0
M  V30 9154 H 843.189 6.86051 -1.26413 0
M  V30 9155 H 839.086 6.45425 -0.0982318 0
M  V30 9156 H 839.854 8.06251 -1.41071 0
M  V30 9157 N 842.517 -0.29412 1.54831 0
M  V30 9158 C 843.765 -1.02643 1.74094 0
M  V30 9159 C 844.086 -1.87563 0.533402 0
M  V30 9160 O 843.356 -1.9061 -0.452192 0
M  V30 9161 H 841.936 -0.381959 0.641963 0
M  V30 9162 H 844.598 -0.323444 1.92197 0
M  V30 9163 H 843.694 -1.67558 2.63307 0
M  V30 9164 N 843.995 -1.47404 -0.557645 0
M  V30 9165 C 845.235 -1.55585 -1.32562 0
M  V30 9166 C 845.599 -0.212926 -1.90816 0
M  V30 9167 O 846.8 -0.169574 -2.68265 0
M  V30 9168 C 845.071 -2.64249 -2.40639 0
M  V30 9169 S 846.63 -2.9201 -3.2753 0
M  V30 9170 H 843.448 -0.549409 -0.451298 0
M  V30 9171 H 846.05 -1.84782 -0.638438 0
M  V30 9172 H 844.754 -3.60421 -1.96277 0
M  V30 9173 H 844.285 -2.36866 -3.14099 0
M  V30 9174 H 846.3 -2.29191 -4.40098 0
M  V30 9175 N 845.473 0.80434 -1.35529 0
M  V30 9176 C 846.713 1.57489 -1.30295 0
M  V30 9177 C 847.077 1.91621 0.120528 0
M  V30 9178 O 848.278 2.67151 0.297265 0
M  V30 9179 C 846.549 2.82741 -2.18615 0
M  V30 9180 S 848.108 3.73125 -2.30918 0
M  V30 9181 H 844.926 0.539573 -0.463014 0
M  V30 9182 H 847.528 0.948601 -1.70944 0
M  V30 9183 H 846.232 2.55692 -3.21014 0
M  V30 9184 H 845.763 3.50353 -1.78931 0
M  V30 9185 H 847.778 4.73122 -1.49566 0
M  V30 9186 N 846.951 1.19563 1.02676 0
M  V30 9187 C 847.898 0.935291 2.11 0
M  V30 9188 C 848.868 -0.130685 1.65585 0
M  V30 9189 O 850.053 0.0119062 1.90796 0
M  V30 9190 C 847.193 0.482384 3.41712 0
M  V30 9191 C 846.306 1.61537 4.00662 0
M  V30 9192 C 845.441 1.11378 5.19392 0
M  V30 9193 C 844.48 2.22052 5.70403 0
M  V30 9194 N 843.617 1.73185 6.80405 0
M  V30 9195 H 848.457 1.86275 2.32606 0
M  V30 9196 H 845.994 0.928656 1.14081 0
M  V30 9197 H 847.952 0.20118 4.16715 0
M  V30 9198 H 846.582 -0.408086 3.2021 0
M  V30 9199 H 845.634 2.01173 3.22852 0
M  V30 9200 H 846.946 2.44912 4.34534 0
M  V30 9201 H 846.1 0.787935 6.01562 0
M  V30 9202 H 844.839 0.249789 4.8706 0
M  V30 9203 H 843.844 2.55465 4.86845 0
M  V30 9204 H 845.069 3.08911 6.04774 0
M  V30 9205 H 843.015 0.890973 6.49921 0
M  V30 9206 H 842.932 2.50148 7.13416 0
M  V30 9207 H 844.2 1.4357 7.66164 0
M  V30 9208 N 848.429 -1.21819 0.999893 0
M  V30 9209 C 849.339 -2.27691 0.565159 0
M  V30 9210 C 850.355 -1.69587 -0.389398 0
M  V30 9211 O 851.531 -1.99786 -0.254499 0
M  V30 9212 C 848.596 -3.46537 -0.106432 0
M  V30 9213 C 847.657 -4.19932 0.891964 0
M  V30 9214 C 846.89 -5.33103 0.252327 0
M  V30 9215 O 847.113 -5.62398 -0.952103 0
M  V30 9216 O 846.047 -5.94184 0.960698 0
M  V30 9217 H 849.873 -2.67059 1.44613 0
M  V30 9218 H 847.458 -1.28119 0.768499 0
M  V30 9219 H 849.34 -4.18631 -0.482301 0
M  V30 9220 H 848.015 -3.09079 -0.961865 0
M  V30 9221 H 846.922 -3.5008 1.3189 0
M  V30 9222 H 848.255 -4.61287 1.71682 0
M  V30 9223 N 849.908 -0.773975 -1.37286 0
M  V30 9224 C 850.838 -0.175782 -2.32837 0
M  V30 9225 C 851.819 0.680603 -1.5589 0
M  V30 9226 O 853.004 0.617607 -1.84117 0
M  V30 9227 C 850.134 0.702388 -3.40123 0
M  V30 9228 C 849.088 -0.0528687 -4.27967 0
M  V30 9229 C 848.414 0.944891 -5.26285 0
M  V30 9230 C 849.714 -1.23316 -5.07534 0
M  V30 9231 H 851.408 -0.974016 -2.83114 0
M  V30 9232 H 848.954 -0.469826 -1.3612 0
M  V30 9233 H 850.907 1.13069 -4.05947 0
M  V30 9234 H 849.631 1.53316 -2.88378 0
M  V30 9235 H 848.29 -0.461978 -3.63678 0
M  V30 9236 H 847.938 1.77028 -4.70819 0
M  V30 9237 H 847.638 0.444079 -5.8592 0
M  V30 9238 H 849.162 1.37209 -5.94984 0
M  V30 9239 H 850.576 -0.881395 -5.66484 0
M  V30 9240 H 848.973 -1.66621 -5.76504 0
M  V30 9241 H 850.043 -2.03617 -4.40077 0
M  V30 9242 N 851.386 1.48609 -0.524698 0
M  V30 9243 C 852.349 2.28041 0.230166 0
M  V30 9244 C 853.349 1.35065 0.872584 0
M  V30 9245 O 854.539 1.58007 0.73345 0
M  V30 9246 C 851.671 3.13778 1.33252 0
M  V30 9247 H 852.864 2.96239 -0.467161 0
M  V30 9248 H 850.417 1.53763 -0.280452 0
M  V30 9249 H 851.152 2.502 2.06327 0
M  V30 9250 H 850.937 3.82165 0.877058 0
M  V30 9251 H 852.427 3.7371 1.86362 0
M  V30 9252 N 852.864 0.259585 1.55447 0
M  V30 9253 C 854.089 -0.368317 2.04103 0
M  V30 9254 C 854.514 -1.49827 1.13725 0
M  V30 9255 O 853.872 -1.80814 0.132705 0
M  V30 9256 C 853.92 -0.841506 3.50644 0
M  V30 9257 O 853.024 -1.95008 3.63381 0
M  V30 9258 H 852.365 -0.0785227 0.659341 0
M  V30 9259 H 854.895 0.389349 2.00861 0
M  V30 9260 H 854.905 -1.14138 3.9171 0
M  V30 9261 H 853.58 -0.0147001 4.15897 0
M  V30 9262 H 852.157 -1.65393 3.34215 0
M  V30 9263 N 854.342 -1.57594 -0.0133615 0
M  V30 9264 C 855.758 -1.5527 -0.369255 0
M  V30 9265 C 855.958 -0.987751 -1.7563 0
M  V30 9266 O 855.014 -0.615683 -2.44879 0
M  V30 9267 C 856.327 -2.99602 -0.25672 0
M  V30 9268 C 857.875 -3.11227 -0.332647 0
M  V30 9269 C 858.35 -4.57321 -0.249387 0
M  V30 9270 N 859.841 -4.62177 -0.3077 0
M  V30 9271 C 860.576 -5.72781 -0.26641 0
M  V30 9272 N 860.072 -6.92575 -0.176494 0
M  V30 9273 N 861.865 -5.61204 -0.317295 0
M  V30 9274 H 854.016 -1.92662 0.894154 0
M  V30 9275 H 856.279 -0.884352 0.341505 0
M  V30 9276 H 855.985 -3.44723 0.697072 0
M  V30 9277 H 855.859 -3.6246 -1.04415 0
M  V30 9278 H 858.246 -2.66045 -1.27688 0
M  V30 9279 H 858.327 -2.51171 0.484412 0
M  V30 9280 H 857.971 -5.03174 0.691242 0
M  V30 9281 H 857.901 -5.15306 -1.08476 0
M  V30 9282 H 860.392 -3.75994 -0.379069 0
M  V30 9283 H 860.705 -7.72653 -0.150518 0
M  V30 9284 H 859.05 -6.94854 -0.142314 0
M  V30 9285 H 862.241 -4.66509 -0.385643 0
M  V30 9286 H 862.414 -6.47388 -0.28165 0
M  V30 9287 N 855.82 0.285905 -1.54985 0
M  V30 9288 C 856.75 1.35752 -1.89983 0
M  V30 9289 C 857.731 1.52163 -0.760295 0
M  V30 9290 O 858.916 1.65421 -1.01733 0
M  V30 9291 C 856.046 2.71925 -2.16042 0
M  V30 9292 C 855 2.70261 -3.31878 0
M  V30 9293 C 854.326 4.09864 -3.43388 0
M  V30 9294 C 855.626 2.30667 -4.68604 0
M  V30 9295 H 857.32 1.06709 -2.79738 0
M  V30 9296 H 854.866 0.511884 -1.34595 0
M  V30 9297 H 856.819 3.46992 -2.39113 0
M  V30 9298 H 855.543 3.02523 -1.23074 0
M  V30 9299 H 854.202 1.97651 -3.08755 0
M  V30 9300 H 853.85 4.37664 -2.47909 0
M  V30 9301 H 853.55 4.09648 -4.21262 0
M  V30 9302 H 855.074 4.86689 -3.68736 0
M  V30 9303 H 856.488 2.95453 -4.91305 0
M  V30 9304 H 854.885 2.41637 -5.49301 0
M  V30 9305 H 855.955 1.25793 -4.68299 0
M  V30 9306 N 857.298 1.47698 0.54982 0
M  V30 9307 C 858.714 1.3338 0.876468 0
M  V30 9308 C 858.914 0.329837 1.98782 0
M  V30 9309 O 857.97 -0.256022 2.51199 0
M  V30 9310 C 859.283 2.72903 1.26272 0
M  V30 9311 C 860.831 2.81243 1.37373 0
M  V30 9312 C 861.306 4.21423 1.79351 0
M  V30 9313 N 862.797 4.24 1.86489 0
M  V30 9314 C 863.532 5.29386 2.20313 0
M  V30 9315 N 863.028 6.4507 2.527 0
M  V30 9316 N 864.821 5.16768 2.2115 0
M  V30 9317 H 856.972 2.11603 -0.183781 0
M  V30 9318 H 859.235 0.947798 -0.0195601 0
M  V30 9319 H 858.941 3.47836 0.519889 0
M  V30 9320 H 858.815 3.05151 2.21727 0
M  V30 9321 H 861.202 2.06577 2.10737 0
M  V30 9322 H 861.283 2.52639 0.400882 0
M  V30 9323 H 860.927 4.96597 1.06555 0
M  V30 9324 H 860.857 4.47456 2.77652 0
M  V30 9325 H 863.348 3.40547 1.63817 0
M  V30 9326 H 863.661 7.21236 2.77557 0
M  V30 9327 H 862.006 6.48377 2.50263 0
M  V30 9328 H 865.197 4.25416 1.95293 0
M  V30 9329 H 865.37 5.99004 2.4718 0
M  V30 9330 N 858.776 -0.797141 1.35954 0
M  V30 9331 C 860.006 -1.5835 1.32698 0
M  V30 9332 C 860.414 -1.88959 -0.0955298 0
M  V30 9333 O 859.757 -1.49987 -1.06064 0
M  V30 9334 C 859.819 -2.93529 2.0756 0
M  V30 9335 C 859.483 -2.85688 3.56695 0
M  V30 9336 C 860.48 -2.58467 4.51099 0
M  V30 9337 C 858.165 -3.04508 3.99475 0
M  V30 9338 C 860.159 -2.50157 5.8626 0
M  V30 9339 C 857.846 -2.9582 5.34728 0
M  V30 9340 C 858.844 -2.68681 6.27933 0
M  V30 9341 O 858.532 -2.59973 7.60703 0
M  V30 9342 H 858.264 -0.49807 0.457059 0
M  V30 9343 H 860.818 -0.997889 1.79531 0
M  V30 9344 H 859.048 -3.54111 1.55378 0
M  V30 9345 H 860.737 -3.54744 1.9726 0
M  V30 9346 H 861.503 -2.43638 4.19363 0
M  V30 9347 H 857.382 -3.24641 3.27306 0
M  V30 9348 H 860.926 -2.28894 6.58979 0
M  V30 9349 H 856.823 -3.10211 5.66074 0
M  V30 9350 H 857.591 -2.75511 7.70737 0
M  V30 9351 N 860.254 -1.20106 -1.0204 0
M  V30 9352 C 861.217 -0.948261 -2.08664 0
M  V30 9353 C 862.217 0.0746753 -1.60627 0
M  V30 9354 O 863.407 -0.160981 -1.73455 0
M  V30 9355 C 860.539 -0.426854 -3.38217 0
M  V30 9356 H 861.732 -1.894 -2.32524 0
M  V30 9357 H 859.285 -1.0159 -1.18782 0
M  V30 9358 H 860.02 0.524532 -3.2003 0
M  V30 9359 H 859.805 -1.16451 -3.74408 0
M  V30 9360 H 861.295 -0.269346 -4.1673 0
M  V30 9361 N 861.732 1.21287 -1.00634 0
M  V30 9362 C 863.148 1.42467 -0.719389 0
M  V30 9363 C 863.348 1.88767 0.704927 0
M  V30 9364 O 862.404 2.05004 1.47409 0
M  V30 9365 C 863.717 2.455 -1.73639 0
M  V30 9366 C 865.265 2.59281 -1.75335 0
M  V30 9367 C 865.74 3.65547 -2.75934 0
M  V30 9368 N 867.231 3.73019 -2.74611 0
M  V30 9369 C 867.966 4.54873 -3.4911 0
M  V30 9370 N 867.462 5.40614 -4.33253 0
M  V30 9371 N 869.255 4.49309 -3.37754 0
M  V30 9372 H 861.406 0.895454 -1.92602 0
M  V30 9373 H 863.669 0.455491 -0.831404 0
M  V30 9374 H 863.375 2.18455 -2.75627 0
M  V30 9375 H 863.249 3.44325 -1.54014 0
M  V30 9376 H 865.636 2.85661 -0.740377 0
M  V30 9377 H 865.717 1.60685 -1.99032 0
M  V30 9378 H 865.361 3.39911 -3.77389 0
M  V30 9379 H 865.291 4.63741 -2.49503 0
M  V30 9380 H 867.782 3.11766 -2.13565 0
M  V30 9381 H 868.095 6.0013 -4.86892 0
M  V30 9382 H 866.44 5.40151 -4.37335 0
M  V30 9383 H 869.631 3.81357 -2.71449 0
M  V30 9384 H 869.804 5.12867 -3.9607 0
M  V30 9385 N 863.21 0.781244 1.36873 0
M  V30 9386 C 864.438 0.361566 2.03716 0
M  V30 9387 C 864.853 -1.01937 1.58916 0
M  V30 9388 O 864.21 -1.65237 0.774783 0
M  V30 9389 C 864.261 0.406391 3.59208 0
M  V30 9390 O 863.982 1.73286 4.02372 0
M  V30 9391 C 865.483 -0.0236894 4.43294 0
M  V30 9392 H 862.703 0.150133 0.653988 0
M  V30 9393 H 865.247 1.05781 1.75016 0
M  V30 9394 H 863.402 -0.241364 3.86647 0
M  V30 9395 H 863.816 1.67804 4.96933 0
M  V30 9396 H 865.29 0.0588205 5.51969 0
M  V30 9397 H 865.767 -1.07529 4.25833 0
M  V30 9398 H 866.373 0.59624 4.211 0
M  V30 9399 N 864.689 -1.48329 0.532571 0
M  V30 9400 C 865.622 -2.26524 -0.2761 0
M  V30 9401 C 866.6 -1.32498 -0.942496 0
M  V30 9402 O 867.784 -1.61844 -0.966376 0
M  V30 9403 C 864.911 -3.08808 -1.39124 0
M  V30 9404 C 863.957 -4.18227 -0.835984 0
M  V30 9405 S 864.79 -5.34669 0.298186 0
M  V30 9406 C 865.946 -6.20514 -0.81937 0
M  V30 9407 H 866.179 -2.94764 0.387502 0
M  V30 9408 H 863.712 -1.51081 0.318407 0
M  V30 9409 H 865.67 -3.56792 -2.03002 0
M  V30 9410 H 864.331 -2.39976 -2.02658 0
M  V30 9411 H 863.524 -4.75435 -1.67264 0
M  V30 9412 H 863.126 -3.72996 -0.27385 0
M  V30 9413 H 865.418 -6.55371 -1.7174 0
M  V30 9414 H 866.361 -7.07525 -0.285199 0
M  V30 9415 H 866.769 -5.5366 -1.10094 0
M  V30 9416 N 866.167 -0.267825 -1.55308 0
M  V30 9417 C 867.413 0.351556 -1.9973 0
M  V30 9418 C 867.746 1.56049 -1.15596 0
M  V30 9419 O 867.021 1.93203 -0.224274 0
M  V30 9420 C 867.304 0.74091 -3.52395 0
M  V30 9421 C 867.157 -0.474861 -4.47286 0
M  V30 9422 C 868.476 1.5801 -4.10756 0
M  V30 9423 H 865.595 0.126308 -0.726096 0
M  V30 9424 H 868.237 -0.373316 -1.86296 0
M  V30 9425 H 866.387 1.35851 -3.63973 0
M  V30 9426 H 868.059 -1.1134 -4.47662 0
M  V30 9427 H 866.302 -1.11425 -4.19246 0
M  V30 9428 H 866.973 -0.158782 -5.51772 0
M  V30 9429 H 869.449 1.05857 -4.0241 0
M  V30 9430 H 868.325 1.82135 -5.17801 0
M  V30 9431 H 868.586 2.55878 -3.60526 0
M  V30 9432 N 867.645 1.57599 0.00500368 0
M  V30 9433 C 868.922 1.81561 0.727654 0
M  V30 9434 C 869.302 0.871604 1.92266 0
M  V30 9435 O 868.65 -0.0808232 2.28357 0
M  V30 9436 C 868.86 3.29922 1.13809 0
M  V30 9437 C 870.208 3.95531 1.54403 0
M  V30 9438 O 871.232 3.34215 1.23202 0
M  V30 9439 O 870.091 5.03535 2.12402 0
M  V30 9440 H 867.185 0.747462 0.353878 0
M  V30 9441 H 869.731 1.69688 -0.0200667 0
M  V30 9442 H 868.503 3.90253 0.286078 0
M  V30 9443 H 868.126 3.46775 1.94507 0
M  V30 9444 N 869.123 -0.277682 1.55134 0
M  V30 9445 C 870.07 -1.34313 1.87693 0
M  V30 9446 C 871.04 -1.49298 0.727973 0
M  V30 9447 O 872.225 -1.6378 0.978807 0
M  V30 9448 C 869.365 -2.69922 2.15026 0
M  V30 9449 C 868.478 -2.63197 3.42565 0
M  V30 9450 C 867.613 -3.90955 3.59622 0
M  V30 9451 C 866.652 -3.78722 4.8087 0
M  V30 9452 N 865.789 -4.98303 4.94609 0
M  V30 9453 H 870.629 -1.05847 2.78569 0
M  V30 9454 H 868.166 -0.511469 1.37922 0
M  V30 9455 H 870.124 -3.48817 2.28872 0
M  V30 9456 H 868.754 -2.966 1.2739 0
M  V30 9457 H 867.806 -1.76038 3.37216 0
M  V30 9458 H 869.118 -2.50056 4.31594 0
M  V30 9459 H 868.272 -4.78291 3.7326 0
M  V30 9460 H 867.011 -4.06957 2.6877 0
M  V30 9461 H 866.016 -2.89769 4.67241 0
M  V30 9462 H 867.241 -3.64242 5.73153 0
M  V30 9463 H 865.187 -5.14725 4.06687 0
M  V30 9464 H 865.104 -4.87675 5.77676 0
M  V30 9465 H 866.372 -5.87225 5.12628 0
M  V30 9466 N 870.601 -1.47988 -0.541979 0
M  V30 9467 C 871.531 -1.64503 -1.65713 0
M  V30 9468 C 872.512 -0.494116 -1.62765 0
M  V30 9469 O 873.697 -0.725256 -1.80149 0
M  V30 9470 C 870.827 -1.67337 -3.04328 0
M  V30 9471 C 869.781 -2.81809 -3.2213 0
M  V30 9472 C 869.107 -2.69724 -4.61685 0
M  V30 9473 C 870.407 -4.23241 -3.06046 0
M  V30 9474 H 872.101 -2.5786 -1.52147 0
M  V30 9475 H 869.647 -1.24094 -0.730529 0
M  V30 9476 H 871.6 -1.77481 -3.82202 0
M  V30 9477 H 870.324 -0.705514 -3.18889 0
M  V30 9478 H 868.983 -2.71201 -2.46669 0
M  V30 9479 H 868.631 -1.70934 -4.73065 0
M  V30 9480 H 868.331 -3.4653 -4.74543 0
M  V30 9481 H 869.855 -2.81818 -5.41674 0
M  V30 9482 H 871.269 -4.34746 -3.73723 0
M  V30 9483 H 869.666 -5.00952 -3.30405 0
M  V30 9484 H 870.736 -4.40543 -2.02609 0
M  V30 9485 N 872.079 0.78992 -1.36375 0
M  V30 9486 C 873.009 1.91683 -1.33341 0
M  V30 9487 C 873.99 1.68861 -0.204965 0
M  V30 9488 O 875.175 1.89982 -0.402531 0
M  V30 9489 C 872.305 3.28696 -1.12143 0
M  V30 9490 C 871.259 3.66041 -2.21806 0
M  V30 9491 C 870.585 5.01399 -1.85751 0
M  V30 9492 C 871.885 3.74677 -3.63888 0
M  V30 9493 H 873.579 1.94478 -2.27637 0
M  V30 9494 H 871.125 0.934271 -1.09578 0
M  V30 9495 H 873.078 4.07151 -1.08656 0
M  V30 9496 H 871.802 3.26287 -0.142974 0
M  V30 9497 H 870.461 2.89883 -2.24418 0
M  V30 9498 H 870.109 4.9551 -0.864817 0
M  V30 9499 H 869.809 5.27355 -2.59173 0
M  V30 9500 H 871.333 5.82274 -1.83819 0
M  V30 9501 H 872.747 4.43324 -3.63506 0
M  V30 9502 H 871.144 4.12118 -4.3621 0
M  V30 9503 H 872.214 2.75795 -3.9883 0
M  V30 9504 N 873.557 1.20646 1.01402 0
M  V30 9505 C 874.782 1.04462 1.79172 0
M  V30 9506 C 875.207 -0.401588 1.83763 0
M  V30 9507 O 874.565 -1.28934 1.27459 0
M  V30 9508 C 874.613 1.63583 3.21361 0
M  V30 9509 O 873.717 0.875198 4.03006 0
M  V30 9510 H 873.058 0.368235 0.552539 0
M  V30 9511 H 875.588 1.59994 1.27526 0
M  V30 9512 H 875.598 1.67426 3.72065 0
M  V30 9513 H 874.273 2.68835 3.17334 0
M  V30 9514 H 872.85 0.911172 3.61597 0
M  V30 9515 N 875.035 -1.20752 1.01276 0
M  V30 9516 C 876.26 -1.94547 0.718769 0
M  V30 9517 C 876.685 -1.7404 -0.713563 0
M  V30 9518 O 876.043 -1.03221 -1.49047 0
M  V30 9519 C 876.091 -3.44823 1.05497 0
M  V30 9520 O 875.195 -4.12072 0.164516 0
M  V30 9521 H 874.536 -0.607931 0.267051 0
M  V30 9522 H 877.066 -1.53292 1.35509 0
M  V30 9523 H 877.076 -3.95427 1.00507 0
M  V30 9524 H 875.751 -3.59072 2.09858 0
M  V30 9525 H 874.328 -3.71909 0.271615 0
M  V30 9526 N 876.513 -0.788492 -1.36457 0
M  V30 9527 C 877.929 -0.470063 -1.52521 0
M  V30 9528 C 878.129 1.01176 -1.74258 0
M  V30 9529 O 877.185 1.79726 -1.77355 0
M  V30 9530 C 878.498 -1.2997 -2.71161 0
M  V30 9531 C 880.046 -1.2933 -2.85031 0
M  V30 9532 C 880.521 -2.10665 -4.06674 0
M  V30 9533 N 882.012 -2.08107 -4.13819 0
M  V30 9534 C 882.747 -2.6781 -5.07016 0
M  V30 9535 N 882.243 -3.36369 -6.05663 0
M  V30 9536 N 884.036 -2.57549 -4.99625 0
M  V30 9537 H 876.187 -1.7484 -1.20602 0
M  V30 9538 H 878.45 -0.743159 -0.588574 0
M  V30 9539 H 878.156 -2.35051 -2.61618 0
M  V30 9540 H 878.03 -0.940367 -3.6529 0
M  V30 9541 H 880.417 -0.250414 -2.94036 0
M  V30 9542 H 880.498 -1.69239 -1.91812 0
M  V30 9543 H 880.142 -3.14984 -3.98431 0
M  V30 9544 H 880.072 -1.68128 -4.9904 0
M  V30 9545 H 882.563 -1.58208 -3.43189 0
M  V30 9546 H 882.876 -3.79258 -6.73338 0
M  V30 9547 H 881.221 -3.40471 -6.05891 0
M  V30 9548 H 884.412 -2.0359 -4.21508 0
M  V30 9549 H 884.585 -3.0437 -5.72069 0
M  V30 9550 N 877.991 1.48044 -0.54043 0
M  V30 9551 C 879.216 2.07396 -0.0124765 0
M  V30 9552 C 879.641 1.39288 1.26414 0
M  V30 9553 O 878.999 0.462252 1.75308 0
M  V30 9554 C 879.047 3.60131 0.18377 0
M  V30 9555 O 878.151 3.92995 1.25014 0
M  V30 9556 H 877.492 0.662554 -0.0438026 0
M  V30 9557 H 880.022 1.90306 -0.751327 0
M  V30 9558 H 880.032 4.06003 0.403197 0
M  V30 9559 H 878.707 4.09105 -0.74874 0
M  V30 9560 H 877.284 3.5889 1.01254 0
M  V30 9561 N 879.47 0.276058 1.55163 0
M  V30 9562 C 880.433 -0.597924 2.21263 0
M  V30 9563 C 881.433 -1.0806 1.19078 0
M  V30 9564 O 882.623 -0.980626 1.43977 0
M  V30 9565 C 879.755 -1.82503 2.87933 0
M  V30 9566 H 880.948 -0.0207769 2.99893 0
M  V30 9567 H 878.501 0.0266823 1.56277 0
M  V30 9568 H 879.236 -2.44266 2.13318 0
M  V30 9569 H 879.021 -1.48683 3.62816 0
M  V30 9570 H 880.511 -2.44651 3.38431 0
M  V30 9571 N 880.948 -1.576 0.00335426 0
M  V30 9572 C 882.173 -1.95398 -0.695311 0
M  V30 9573 C 882.598 -0.878476 -1.66326 0
M  V30 9574 O 881.956 0.163086 -1.80565 0
M  V30 9575 C 882.004 -3.32293 -1.40049 0
M  V30 9576 O 881.108 -3.26834 -2.51502 0
M  V30 9577 H 880.449 -0.637796 -0.184694 0
M  V30 9578 H 882.979 -2.04519 0.057543 0
M  V30 9579 H 882.989 -3.67936 -1.76316 0
M  V30 9580 H 881.664 -4.10123 -0.690803 0
M  V30 9581 H 880.241 -3.02872 -2.17539 0
M  V30 9582 N 882.426 0.269451 -1.5528 0
M  V30 9583 C 883.374 1.35303 -1.89198 0
M  V30 9584 C 884.368 1.50956 -0.768671 0
M  V30 9585 O 885.574 1.52699 -0.953054 0
M  V30 9586 H 881.949 0.452591 -0.600554 0
M  V30 9587 H 883.92 1.03949 -2.79709 0
M  V30 9588 C 882.669 2.70585 -2.18356 0
M  V30 9589 H 881.992 2.59332 -3.04281 0
M  V30 9590 H 883.432 3.45335 -2.46007 0
M  V30 9591 C 881.891 3.21954 -0.992327 0
M  V30 9592 O 882.421 4.01048 -0.228769 0
M  V30 9593 N 880.627 2.79682 -0.789062 0
M  V30 9594 H 880.174 2.15475 -1.41167 0
M  V30 9595 H 880.132 3.14399 0.00634776 0
M  V30 9596 N 883.904 1.48273 0.534124 0
M  V30 9597 C 885.32 1.34302 0.862272 0
M  V30 9598 C 885.52 0.350902 1.98421 0
M  V30 9599 O 884.576 -0.229364 2.51456 0
M  V30 9600 C 885.889 2.74227 1.23371 0
M  V30 9601 C 887.437 2.82684 1.34383 0
M  V30 9602 C 887.912 4.23301 1.74871 0
M  V30 9603 N 889.403 4.25954 1.81981 0
M  V30 9604 C 890.138 5.31693 2.14686 0
M  V30 9605 N 889.634 6.47714 2.45844 0
M  V30 9606 N 891.427 5.19084 2.15657 0
M  V30 9607 H 883.578 2.11397 -0.206215 0
M  V30 9608 H 885.841 0.947537 -0.0296116 0
M  V30 9609 H 885.547 3.48368 0.482967 0
M  V30 9610 H 885.421 3.07485 2.18478 0
M  V30 9611 H 887.808 2.08801 2.08534 0
M  V30 9612 H 887.889 2.5305 0.374063 0
M  V30 9613 H 887.533 4.97699 1.01282 0
M  V30 9614 H 887.463 4.50376 2.7289 0
M  V30 9615 H 889.954 3.42266 1.60196 0
M  V30 9616 H 890.267 7.2414 2.69892 0
M  V30 9617 H 888.612 6.50995 2.43372 0
M  V30 9618 H 891.803 4.27463 1.9077 0
M  V30 9619 H 891.976 6.01592 2.40813 0
M  V30 9620 N 885.382 -0.782676 1.36792 0
M  V30 9621 C 886.312 -1.90973 1.34356 0
M  V30 9622 C 887.293 -1.6875 0.213917 0
M  V30 9623 O 888.478 -1.89766 0.412601 0
M  V30 9624 C 885.608 -3.28097 1.13884 0
M  V30 9625 C 884.562 -3.6486 2.23744 0
M  V30 9626 C 883.888 -5.00406 1.88408 0
M  V30 9627 C 885.188 -3.72742 3.6587 0
M  V30 9628 H 886.882 -1.93268 2.28665 0
M  V30 9629 H 884.428 -0.928447 1.10072 0
M  V30 9630 H 886.381 -4.06569 1.10813 0
M  V30 9631 H 885.105 -3.26206 0.160275 0
M  V30 9632 H 883.764 -2.88689 2.25952 0
M  V30 9633 H 883.412 -4.95044 0.891083 0
M  V30 9634 H 883.112 -5.25973 2.61966 0
M  V30 9635 H 884.636 -5.81291 1.86905 0
M  V30 9636 H 886.05 -4.4139 3.65852 0
M  V30 9637 H 884.447 -4.09798 4.38389 0
M  V30 9638 H 885.517 -2.73676 4.00287 0
M  V30 9639 N 886.86 -1.21182 -1.00761 0
M  V30 9640 C 887.807 -0.968741 -2.09485 0
M  V30 9641 C 888.777 0.104325 -1.65772 0
M  V30 9642 O 889.962 -0.0422587 -1.90753 0
M  V30 9643 C 887.102 -0.536686 -3.40901 0
M  V30 9644 C 886.215 -1.6789 -3.98041 0
M  V30 9645 C 885.35 -1.19627 -5.17555 0
M  V30 9646 C 884.389 -2.31099 -5.66798 0
M  V30 9647 N 883.526 -1.83988 -6.77564 0
M  V30 9648 H 888.366 -1.89952 -2.29613 0
M  V30 9649 H 885.903 -0.946688 -1.12589 0
M  V30 9650 H 887.861 -0.26745 -4.16342 0
M  V30 9651 H 886.491 0.357092 -3.20819 0
M  V30 9652 H 885.543 -2.06284 -3.19611 0
M  V30 9653 H 886.855 -2.51794 -4.30582 0
M  V30 9654 H 886.009 -0.883539 -6.00232 0
M  V30 9655 H 884.748 -0.327244 -4.86601 0
M  V30 9656 H 883.753 -2.63178 -4.82719 0
M  V30 9657 H 884.978 -3.18493 -5.99782 0
M  V30 9658 H 882.924 -0.994257 -6.48422 0
M  V30 9659 H 882.841 -2.61466 -7.09346 0
M  V30 9660 H 884.109 -1.55741 -7.63783 0
M  V30 9661 N 888.338 1.20213 -1.01915 0
M  V30 9662 C 889.301 2.21307 -0.596327 0
M  V30 9663 C 890.301 1.57274 0.334879 0
M  V30 9664 O 891.491 1.73764 0.12322 0
M  V30 9665 C 888.623 3.40657 0.128808 0
M  V30 9666 H 889.816 2.60228 -1.49068 0
M  V30 9667 H 887.369 1.33721 -0.809226 0
M  V30 9668 H 888.104 3.07241 1.03796 0
M  V30 9669 H 887.889 3.88361 -0.540183 0
M  V30 9670 H 889.379 4.15564 0.411892 0
M  V30 9671 N 889.816 0.795718 1.36037 0
M  V30 9672 C 891.041 0.38204 2.03851 0
M  V30 9673 C 891.466 -0.995553 1.59594 0
M  V30 9674 O 890.824 -1.64258 0.767401 0
M  V30 9675 C 890.872 0.461248 3.57638 0
M  V30 9676 O 889.976 -0.529448 4.08987 0
M  V30 9677 H 889.317 0.161227 0.644129 0
M  V30 9678 H 891.847 1.07858 1.73861 0
M  V30 9679 H 891.857 0.32712 4.06687 0
M  V30 9680 H 890.532 1.46613 3.89201 0
M  V30 9681 H 889.109 -0.35646 3.71192 0
M  V30 9682 O 891.333 -1.46044 0.689439 0
M  V30 9683 H 892.024 -1.92374 0.226226 0
M  V30 END ATOM
M  V30 BEGIN BOND
M  V30 END BOND
M  V30 END CTAB
M  END
$$$$
