drugbank_target|O15075 Serine/threonine-protein kinase DCLK1 (DB12010)
 OpenBabel12092121153D

  0  0  0     0  0            999 V3000
M  V30 BEGIN CTAB
M  V30 COUNTS 11562 11675 0 0 0
M  V30 BEGIN ATOM
M  V30 1 H -0.908 1.98254 -0.117106 0
M  V30 2 N 0 1.576 0 0
M  V30 3 C 0.933 2.03868 1.02534 0
M  V30 4 C 1.911 0.928543 1.3348 0
M  V30 5 O 3.095 1.19667 1.45644 0
M  V30 6 C 0.222 2.43627 2.35294 0
M  V30 7 C -0.732 3.65373 2.2001 0
M  V30 8 S 0.101 5.13292 1.52614 0
M  V30 9 C 1.257 5.56322 2.86805 0
M  V30 10 H 1.49 2.90518 0.631377 0
M  V30 11 H -0.977 1.52953 0.210867 0
M  V30 12 H 0.981 2.67203 3.11629 0
M  V30 13 H -0.358 1.57376 2.7183 0
M  V30 14 H -1.165 3.90944 3.18086 0
M  V30 15 H -1.563 3.418 1.51819 0
M  V30 16 H 0.729 5.58782 3.83104 0
M  V30 17 H 1.672 6.56266 2.65933 0
M  V30 18 H 2.08 4.83886 2.90714 0
M  V30 19 N 1.4781 -0.272755 1.55222 0
M  V30 20 C 2.7031 -1.02683 1.80197 0
M  V30 21 C 3.1281 -1.79142 0.573551 0
M  V30 22 O 2.4861 -1.74917 -0.476849 0
M  V30 23 C 2.5341 -1.9609 3.02624 0
M  V30 24 O 1.6381 -3.04863 2.77727 0
M  V30 25 H 0.9791 -0.293557 0.595584 0
M  V30 26 H 3.5091 -0.30159 2.02365 0
M  V30 27 H 3.5191 -2.38039 3.31363 0
M  V30 28 H 2.1941 -1.39851 3.91682 0
M  V30 29 H 0.7711 -2.67228 2.60084 0
M  V30 30 N 2.9562 -1.48159 -0.537278 0
M  V30 31 C 4.2032 -1.55804 -1.29349 0
M  V30 32 C 4.5312 -0.228802 -1.9315 0
M  V30 33 O 3.7862 0.780242 -1.79473 0
M  V30 34 C 4.0852 -2.63956 -2.40961 0
M  V30 35 C 3.7512 -4.0662 -1.94861 0
M  V30 36 C 2.4132 -4.45452 -1.82006 0
M  V30 37 C 4.7652 -4.96055 -1.59933 0
M  V30 38 C 2.0932 -5.71531 -1.32547 0
M  V30 39 C 4.4452 -6.22617 -1.11939 0
M  V30 40 C 3.1092 -6.60312 -0.976951 0
M  V30 41 H 2.3792 -0.570129 -0.473322 0
M  V30 42 H 5.0262 -1.81845 -0.600372 0
M  V30 43 H 3.3312 -2.31747 -3.15912 0
M  V30 44 H 5.0282 -2.67089 -2.99107 0
M  V30 45 H 1.6182 -3.75949 -2.05815 0
M  V30 46 H 5.8022 -4.66738 -1.68728 0
M  V30 47 H 1.0582 -5.99468 -1.202 0
M  V30 48 H 5.2322 -6.91318 -0.839811 0
M  V30 49 H 2.8592 -7.57895 -0.591501 0
M  V30 50 N 4.4343 0.785586 -1.36625 0
M  V30 51 C 5.6823 1.54057 -1.30808 0
M  V30 52 C 6.0033 1.94683 0.111157 0
M  V30 53 O 5.2733 1.65241 1.05224 0
M  V30 54 H 3.8533 0.571354 -0.481211 0
M  V30 55 H 6.5153 0.935821 -1.70963 0
M  V30 56 H 5.6113 2.44637 -1.93801 0
M  V30 57 N 5.9124 1.20967 1.01018 0
M  V30 58 C 7.3284 0.965905 1.27053 0
M  V30 59 C 7.5284 -0.350785 1.98423 0
M  V30 60 O 6.5844 -1.07773 2.28344 0
M  V30 61 C 7.8974 2.15294 2.09926 0
M  V30 62 C 9.4454 2.19463 2.23171 0
M  V30 63 C 9.9204 3.3767 3.09424 0
M  V30 64 N 11.4114 3.37724 3.17012 0
M  V30 65 C 12.1464 4.25837 3.83993 0
M  V30 66 N 11.6424 5.24138 4.53047 0
M  V30 67 N 13.4354 4.1366 3.80581 0
M  V30 68 H 5.5864 2.0565 0.531194 0
M  V30 69 H 7.8494 0.90024 0.297106 0
M  V30 70 H 7.5554 3.10684 1.64828 0
M  V30 71 H 7.4294 2.13923 3.10672 0
M  V30 72 H 9.8164 1.24632 2.6749 0
M  V30 73 H 9.8974 2.2488 1.21912 0
M  V30 74 H 9.5414 4.32791 2.65808 0
M  V30 75 H 9.4714 3.29491 4.10784 0
M  V30 76 H 11.9624 2.6658 2.6785 0
M  V30 77 H 12.2754 5.87684 5.01844 0
M  V30 78 H 10.6204 5.28068 4.5185 0
M  V30 79 H 13.8114 3.36127 3.25785 0
M  V30 80 H 13.9844 4.82538 4.32505 0
M  V30 81 N 7.3905 -1.2043 1.01659 0
M  V30 82 C 8.6675 -1.8548 0.621004 0
M  V30 83 C 9.0475 -1.9091 -0.900919 0
M  V30 84 O 8.3955 -1.41694 -1.79263 0
M  V30 85 C 8.6055 -3.25119 1.2688 0
M  V30 86 C 9.9535 -4.01403 1.38423 0
M  V30 87 O 10.9775 -3.34473 1.22501 0
M  V30 88 O 9.8365 -5.21265 1.64151 0
M  V30 89 H 6.9305 -0.798761 0.214266 0
M  V30 90 H 9.4765 -1.28019 1.11396 0
M  V30 91 H 8.2485 -3.15932 2.30873 0
M  V30 92 H 7.8715 -3.90212 0.762917 0
M  V30 93 N 8.8686 -0.792821 -1.36206 0
M  V30 94 C 9.8016 -0.139422 -2.27774 0
M  V30 95 C 10.7796 0.68649 -1.47398 0
M  V30 96 O 11.9636 0.656738 -1.7669 0
M  V30 97 C 9.0906 0.807947 -3.28922 0
M  V30 98 C 8.1366 0.0633999 -4.26453 0
M  V30 99 S 8.9696 -1.26319 -5.20388 0
M  V30 100 C 10.1256 -0.31991 -6.25082 0
M  V30 101 H 10.3586 -0.915809 -2.82843 0
M  V30 102 H 7.8916 -0.587203 -1.42798 0
M  V30 103 H 9.8496 1.34908 -3.87699 0
M  V30 104 H 8.5106 1.55761 -2.72759 0
M  V30 105 H 7.7036 0.782386 -4.9789 0
M  V30 106 H 7.3056 -0.407352 -3.71775 0
M  V30 107 H 9.5976 0.499985 -6.75653 0
M  V30 108 H 10.5406 -1.00307 -7.00959 0
M  V30 109 H 10.9486 0.0782694 -5.64446 0
M  V30 110 N 10.3467 1.47872 -0.545128 0
M  V30 111 C 11.2567 2.33633 0.212746 0
M  V30 112 C 12.2727 1.4744 0.923983 0
M  V30 113 O 13.4487 1.80393 0.895572 0
M  V30 114 C 10.5137 3.23884 1.23693 0
M  V30 115 C 9.5747 4.25961 0.534417 0
M  V30 116 C 8.8077 5.11899 1.5098 0
M  V30 117 O 9.0307 5.00077 2.7437 0
M  V30 118 O 7.9647 5.92831 1.0409 0
M  V30 119 H 11.7907 2.99714 -0.490416 0
M  V30 120 H 9.3757 1.46235 -0.305871 0
M  V30 121 H 11.2577 3.79666 1.82843 0
M  V30 122 H 9.9327 2.60446 1.92222 0
M  V30 123 H 8.8397 3.73972 -0.0979679 0
M  V30 124 H 10.1727 4.92079 -0.109213 0
M  V30 125 N 11.8248 0.280983 1.55075 0
M  V30 126 C 12.7548 -0.597469 2.25727 0
M  V30 127 C 13.7358 -1.15417 1.24952 0
M  V30 128 O 14.9208 -1.18722 1.53684 0
M  V30 129 C 12.0508 -1.7789 2.98283 0
M  V30 130 C 11.0048 -1.35347 4.06036 0
M  V30 131 C 10.3308 -2.61846 4.66198 0
M  V30 132 C 11.6308 -0.499354 5.19907 0
M  V30 133 H 13.3248 -0.00824265 2.99399 0
M  V30 134 H 10.8708 -0.0025244 1.44 0
M  V30 135 H 12.8238 -2.39937 3.46422 0
M  V30 136 H 11.5478 -2.39405 2.22155 0
M  V30 137 H 10.2068 -0.756156 3.58717 0
M  V30 138 H 9.8548 -3.21632 3.86732 0
M  V30 139 H 9.5548 -2.3409 5.38958 0
M  V30 140 H 11.0788 -3.24732 5.1709 0
M  V30 141 H 12.4928 -1.02498 5.64063 0
M  V30 142 H 10.8898 -0.316424 5.99265 0
M  V30 143 H 11.9598 0.480459 4.82514 0
M  V30 144 N 13.3029 -1.57598 0.00835791 0
M  V30 145 C 14.2129 -2.12385 -0.996487 0
M  V30 146 C 15.2289 -1.07108 -1.37127 0
M  V30 147 O 16.4049 -1.39055 -1.4569 0
M  V30 148 C 13.4699 -2.62314 -2.26699 0
M  V30 149 C 12.5309 -3.82225 -1.95456 0
M  V30 150 C 11.7639 -4.29763 -3.16449 0
M  V30 151 O 11.9869 -3.76584 -4.28416 0
M  V30 152 O 10.9209 -5.21832 -2.99958 0
M  V30 153 H 14.7469 -2.98479 -0.560725 0
M  V30 154 H 12.3319 -1.47903 -0.210987 0
M  V30 155 H 14.2139 -2.94589 -3.01322 0
M  V30 156 H 12.8889 -1.79313 -2.69497 0
M  V30 157 H 11.7959 -3.54909 -1.18282 0
M  V30 158 H 13.1289 -4.66324 -1.57489 0
M  V30 159 N 14.781 0.264519 -1.55364 0
M  V30 160 C 15.731 1.32966 -1.85214 0
M  V30 161 C 16.715 1.44306 -0.711653 0
M  V30 162 O 17.907 1.47844 -0.973192 0
M  V30 163 C 15.036 2.68839 -2.13495 0
M  V30 164 C 14.122 2.61575 -3.33825 0
M  V30 165 N 14.513 2.23933 -4.53528 0
M  V30 166 C 12.811 2.92621 -3.36584 0
M  V30 167 C 13.512 2.26868 -5.35636 0
M  V30 168 N 12.488 2.65677 -4.74254 0
M  V30 169 H 16.29 1.02884 -2.75304 0
M  V30 170 H 13.804 0.473157 -1.55354 0
M  V30 171 H 15.801 3.45685 -2.33039 0
M  V30 172 H 14.461 2.99802 -1.24694 0
M  V30 173 H 15.472 1.95769 -4.79474 0
M  V30 174 H 12.149 3.2824 -2.58002 0
M  V30 175 H 13.539 2.00254 -6.41364 0
M  V30 176 N 16.2591 1.48442 0.529413 0
M  V30 177 C 17.5061 1.56488 1.28521 0
M  V30 178 C 17.8341 0.239042 1.93025 0
M  V30 179 O 17.0891 -0.770713 1.79885 0
M  V30 180 C 17.3881 2.6523 2.39558 0
M  V30 181 C 17.0541 4.07648 1.92702 0
M  V30 182 C 15.7161 4.46411 1.79641 0
M  V30 183 C 18.0681 4.96896 1.573 0
M  V30 184 C 15.3961 5.72226 1.29514 0
M  V30 185 C 17.7481 6.23202 1.08636 0
M  V30 186 C 16.4121 6.60821 0.941919 0
M  V30 187 H 15.6821 0.572631 0.470292 0
M  V30 188 H 18.3291 1.82161 0.59072 0
M  V30 189 H 16.6341 2.33419 3.14679 0
M  V30 190 H 18.3311 2.68671 2.97686 0
M  V30 191 H 14.9211 3.77036 2.03819 0
M  V30 192 H 19.1051 4.67626 1.66251 0
M  V30 193 H 14.3611 6.00097 1.17019 0
M  V30 194 H 18.5351 6.91753 0.803136 0
M  V30 195 H 16.1621 7.58198 0.5513 0
M  V30 196 N 17.7372 -0.778329 1.37039 0
M  V30 197 C 19.0142 -1.52551 1.22424 0
M  V30 198 C 19.3942 -2.10288 -0.184964 0
M  V30 199 O 18.7422 -1.94953 -1.19187 0
M  V30 200 C 18.9522 -2.61164 2.31504 0
M  V30 201 C 20.3002 -3.28746 2.68721 0
M  V30 202 O 21.3242 -2.71455 2.30631 0
M  V30 203 O 20.1832 -4.3231 3.3432 0
M  V30 204 H 17.2772 -0.675343 0.477326 0
M  V30 205 H 19.8232 -0.815859 1.48801 0
M  V30 206 H 18.5952 -2.16574 3.25901 0
M  V30 207 H 18.2182 -3.39737 2.06554 0
M  V30 208 N 19.2153 -1.21501 -1.00376 0
M  V30 209 C 20.1253 -0.991447 -2.12621 0
M  V30 210 C 21.1413 0.0568446 -1.73907 0
M  V30 211 O 22.3173 -0.13348 -2.00957 0
M  V30 212 C 19.3823 -0.560312 -3.42142 0
M  V30 213 C 18.4433 -1.68096 -3.95022 0
M  V30 214 C 17.6763 -1.2703 -5.18362 0
M  V30 215 O 17.8993 -0.144438 -5.70217 0
M  V30 216 O 16.8333 -2.08269 -5.64719 0
M  V30 217 H 20.6593 -1.93158 -2.34358 0
M  V30 218 H 18.2443 -0.999999 -1.10997 0
M  V30 219 H 20.1263 -0.329724 -4.20108 0
M  V30 220 H 18.8013 0.351089 -3.2179 0
M  V30 221 H 17.7083 -1.96597 -3.18278 0
M  V30 222 H 19.0413 -2.56983 -4.19786 0
M  V30 223 N 20.6934 1.19889 -1.02296 0
M  V30 224 C 22.1094 1.41462 -0.738954 0
M  V30 225 C 22.3094 1.89721 0.678846 0
M  V30 226 O 21.3654 2.07016 1.4457 0
M  V30 227 C 22.6784 2.43083 -1.77005 0
M  V30 228 C 24.2264 2.5684 -1.78892 0
M  V30 229 C 24.7014 3.61709 -2.80945 0
M  V30 230 N 26.1924 3.69199 -2.79725 0
M  V30 231 C 26.9274 4.50019 -3.55345 0
M  V30 232 N 26.4234 5.34592 -4.40662 0
M  V30 233 N 28.2164 4.44612 -3.43914 0
M  V30 234 H 20.3674 0.868827 -1.93817 0
M  V30 235 H 22.6304 0.44399 -0.837602 0
M  V30 236 H 22.3364 2.14636 -2.78612 0
M  V30 237 H 22.2104 3.4217 -1.58744 0
M  V30 238 H 24.5974 2.84614 -0.779674 0
M  V30 239 H 24.6784 1.57927 -2.01228 0
M  V30 240 H 24.3224 3.34678 -3.82038 0
M  V30 241 H 24.2524 4.60259 -2.5587 0
M  V30 242 H 26.7434 3.08794 -2.17842 0
M  V30 243 H 27.0564 5.93363 -4.95116 0
M  V30 244 H 25.4014 5.34073 -4.44737 0
M  V30 245 H 28.5924 3.7758 -2.76679 0
M  V30 246 H 28.7654 5.0736 -4.031 0
M  V30 247 N 22.1715 0.800033 1.35784 0
M  V30 248 C 23.4485 0.30088 1.93272 0
M  V30 249 C 23.8285 -1.20857 1.73081 0
M  V30 250 O 23.1765 -2.00502 1.09596 0
M  V30 251 C 23.3865 0.70511 3.41803 0
M  V30 252 C 24.7345 0.690871 4.18942 0
M  V30 253 O 25.7585 0.646244 3.50289 0
M  V30 254 O 24.6175 0.74332 5.41421 0
M  V30 255 H 21.7115 0.0771605 0.823393 0
M  V30 256 H 24.2575 0.88329 1.449 0
M  V30 257 H 23.0295 1.74571 3.50201 0
M  V30 258 H 22.6525 0.0971541 3.97481 0
M  V30 259 N 23.6496 -1.47581 0.552962 0
M  V30 260 C 24.5966 -2.29957 -0.197108 0
M  V30 261 C 25.5666 -1.38799 -0.912359 0
M  V30 262 O 26.7516 -1.67761 -0.908888 0
M  V30 263 C 23.8916 -3.22672 -1.22379 0
M  V30 264 C 23.0046 -4.28919 -0.515038 0
M  V30 265 C 22.1396 -5.0879 -1.52664 0
M  V30 266 C 21.1786 -6.06815 -0.802631 0
M  V30 267 N 20.3156 -6.7966 -1.76086 0
M  V30 268 H 25.1556 -2.93578 0.511486 0
M  V30 269 H 22.6926 -1.4471 0.264067 0
M  V30 270 H 24.6506 -3.74845 -1.83159 0
M  V30 271 H 23.2806 -2.60925 -1.90047 0
M  V30 272 H 22.3326 -3.79835 0.207192 0
M  V30 273 H 23.6446 -4.98773 0.0523425 0
M  V30 274 H 22.7986 -5.65091 -2.20809 0
M  V30 275 H 21.5376 -4.38828 -2.12794 0
M  V30 276 H 20.5426 -5.49695 -0.107238 0
M  V30 277 H 21.7676 -6.78784 -0.207135 0
M  V30 278 H 19.7136 -6.12432 -2.35081 0
M  V30 279 H 19.6306 -7.45669 -1.24552 0
M  V30 280 H 20.8986 -7.40538 -2.43359 0
M  V30 281 N 25.1277 -0.289203 -1.54924 0
M  V30 282 C 26.0907 0.579144 -2.21762 0
M  V30 283 C 27.0907 1.07047 -1.1999 0
M  V30 284 O 28.2807 0.968384 -1.44803 0
M  V30 285 C 25.4127 1.80055 -2.8947 0
M  V30 286 H 26.6057 -0.00464908 -2.999 0
M  V30 287 H 24.1587 -0.0399306 -1.56249 0
M  V30 288 H 24.8937 2.42449 -2.15381 0
M  V30 289 H 24.6787 1.45602 -3.64064 0
M  V30 290 H 26.1687 2.41773 -3.40493 0
M  V30 291 N 26.6058 1.57591 -0.0167156 0
M  V30 292 C 27.5378 2.06343 0.997753 0
M  V30 293 C 28.5508 0.984469 1.29661 0
M  V30 294 O 29.7398 1.26093 1.26344 0
M  V30 295 C 26.8398 2.46255 2.32834 0
M  V30 296 C 26.0128 3.77083 2.21646 0
M  V30 297 C 25.0718 4.0368 3.37534 0
M  V30 298 O 24.0978 4.7411 3.14973 0
M  V30 299 N 25.2998 3.52881 4.60929 0
M  V30 300 H 28.0648 2.93997 0.581875 0
M  V30 301 H 25.6258 1.61002 0.170316 0
M  V30 302 H 27.6178 2.61149 3.09166 0
M  V30 303 H 26.1878 1.64032 2.66106 0
M  V30 304 H 25.4078 3.72106 1.30119 0
M  V30 305 H 26.6958 4.62822 2.11361 0
M  V30 306 H 26.0938 2.95878 4.82154 0
M  V30 307 H 24.6508 3.73076 5.34469 0
M  V30 308 N 28.0839 -0.256276 1.55502 0
M  V30 309 C 29.4999 -0.604325 1.47716 0
M  V30 310 C 29.6999 -1.88763 0.705039 0
M  V30 311 O 28.7559 -2.51445 0.230613 0
M  V30 312 C 30.0689 -0.715756 2.92057 0
M  V30 313 C 31.6169 -0.808706 3.02372 0
M  V30 314 C 32.0919 -0.951777 4.48001 0
M  V30 315 N 33.5829 -1.01688 4.519 0
M  V30 316 C 34.3179 -1.14668 5.61817 0
M  V30 317 N 33.8139 -1.24261 6.81565 0
M  V30 318 N 35.6069 -1.1791 5.49594 0
M  V30 319 H 27.7579 0.586291 2.04148 0
M  V30 320 H 30.0209 0.201015 0.926443 0
M  V30 321 H 29.7269 0.157027 3.51349 0
M  V30 322 H 29.6009 -1.59071 3.42018 0
M  V30 323 H 31.9879 -1.67195 2.43166 0
M  V30 324 H 32.0689 0.0912063 2.55637 0
M  V30 325 H 31.7129 -0.0931291 5.07815 0
M  V30 326 H 31.6429 -1.86659 4.92408 0
M  V30 327 H 34.1339 -0.954468 3.65648 0
M  V30 328 H 34.4469 -1.34046 7.61086 0
M  V30 329 H 32.7919 -1.21236 6.84344 0
M  V30 330 H 35.9829 -1.10057 4.54978 0
M  V30 331 H 36.1559 -1.27681 6.35296 0
M  V30 332 N 29.562 -1.4872 -0.521534 0
M  V30 333 C 30.792 -1.6061 -1.29954 0
M  V30 334 C 31.2 -0.268728 -1.87282 0
M  V30 335 O 30.543 0.753221 -1.67548 0
M  V30 336 C 30.605 -2.60013 -2.48261 0
M  V30 337 C 30.269 -4.04874 -2.11957 0
M  V30 338 C 31.266 -4.92304 -1.67132 0
M  V30 339 C 28.951 -4.5047 -2.22221 0
M  V30 340 C 30.945 -6.2336 -1.33047 0
M  V30 341 C 28.632 -5.81544 -1.87748 0
M  V30 342 C 29.63 -6.67812 -1.43234 0
M  V30 343 O 29.318 -7.96446 -1.09217 0
M  V30 344 H 29.05 -0.544116 -0.401141 0
M  V30 345 H 31.604 -1.95339 -0.634958 0
M  V30 346 H 29.834 -2.20422 -3.17728 0
M  V30 347 H 31.523 -2.61648 -3.10315 0
M  V30 348 H 32.289 -4.58312 -1.58665 0
M  V30 349 H 28.168 -3.83504 -2.55823 0
M  V30 350 H 31.712 -6.90649 -0.982299 0
M  V30 351 H 27.609 -6.15069 -1.95858 0
M  V30 352 H 28.377 -8.09275 -1.22542 0
M  V30 353 N 31.0401 0.771051 -1.3745 0
M  V30 354 C 32.2651 1.56529 -1.36065 0
M  V30 355 C 32.6901 1.88029 0.0515859 0
M  V30 356 O 32.0481 1.49282 1.02882 0
M  V30 357 C 32.0961 2.85187 -2.20683 0
M  V30 358 O 31.2001 3.79593 -1.61193 0
M  V30 359 H 30.5411 0.47411 -0.464883 0
M  V30 360 H 33.0711 0.954269 -1.80983 0
M  V30 361 H 33.0811 3.34283 -2.33921 0
M  V30 362 H 31.7561 2.61588 -3.23334 0
M  V30 363 H 30.3331 3.38239 -1.56999 0
M  V30 364 N 32.5182 1.22032 0.997298 0
M  V30 365 C 33.9342 0.979326 1.26021 0
M  V30 366 C 34.1342 -0.32972 1.98784 0
M  V30 367 O 33.1902 -1.05345 2.29475 0
M  V30 368 C 34.5032 2.17509 2.07631 0
M  V30 369 C 36.0512 2.21817 2.2083 0
M  V30 370 C 36.5262 3.40933 3.05825 0
M  V30 371 N 38.0172 3.41067 3.13412 0
M  V30 372 C 38.7522 4.29885 3.79455 0
M  V30 373 N 38.2482 5.28914 4.47462 0
M  V30 374 N 40.0412 4.17673 3.76173 0
M  V30 375 H 32.1922 2.06202 0.509352 0
M  V30 376 H 34.4552 0.90334 0.287541 0
M  V30 377 H 34.1612 3.12415 1.61524 0
M  V30 378 H 34.0352 2.17206 3.08385 0
M  V30 379 H 36.4222 1.27462 2.66153 0
M  V30 380 H 36.5032 2.2616 1.1952 0
M  V30 381 H 36.1472 4.35586 2.61203 0
M  V30 382 H 36.0772 3.33829 4.07266 0
M  V30 383 H 38.5682 2.69406 2.65007 0
M  V30 384 H 38.8812 5.92973 4.95583 0
M  V30 385 H 37.2262 5.32831 4.46224 0
M  V30 386 H 40.4172 3.39564 3.22202 0
M  V30 387 H 40.5902 4.87098 4.27363 0
M  V30 388 N 33.9963 -1.19345 1.0293 0
M  V30 389 C 35.2443 -1.88665 0.724574 0
M  V30 390 C 35.5653 -1.80036 -0.749144 0
M  V30 391 O 34.8353 -1.2111 -1.53978 0
M  V30 392 H 33.4153 -0.698406 0.265025 0
M  V30 393 H 36.0773 -1.44885 1.30362 0
M  V30 394 H 35.1733 -2.94987 1.01926 0
M  V30 395 N 35.4744 -0.807222 -1.35358 0
M  V30 396 C 36.6994 -0.399309 -2.0352 0
M  V30 397 C 37.1244 0.981986 -1.60433 0
M  V30 398 O 36.4824 1.63601 -0.781299 0
M  V30 399 C 36.5304 -0.491552 -3.57234 0
M  V30 400 O 35.6344 0.494754 -4.09421 0
M  V30 401 H 34.9754 -0.166682 -0.642739 0
M  V30 402 H 37.5054 -1.09328 -1.72941 0
M  V30 403 H 37.5154 -0.361588 -4.06395 0
M  V30 404 H 36.1904 -1.49907 -3.87944 0
M  V30 405 H 34.7674 0.324977 -3.71481 0
M  V30 406 N 36.9525 1.47285 -0.560781 0
M  V30 407 C 38.3685 1.58065 -0.22081 0
M  V30 408 C 38.5685 1.55892 1.27671 0
M  V30 409 O 37.6245 1.46422 2.0571 0
M  V30 410 C 38.9375 2.88418 -0.850625 0
M  V30 411 C 40.4855 3.02009 -0.822184 0
M  V30 412 C 40.9605 4.35066 -1.43113 0
M  V30 413 N 42.4515 4.41711 -1.39448 0
M  V30 414 C 43.1865 5.43237 -1.83525 0
M  V30 415 N 42.6825 6.51555 -2.35474 0
M  V30 416 N 44.4755 5.34304 -1.74574 0
M  V30 417 H 36.6265 1.46941 -1.53369 0
M  V30 418 H 38.8895 0.699558 -0.639783 0
M  V30 419 H 38.5955 2.95755 -1.9032 0
M  V30 420 H 38.4695 3.75612 -0.345773 0
M  V30 421 H 40.8565 2.94266 0.221714 0
M  V30 422 H 40.9375 2.16347 -1.36483 0
M  V30 423 H 40.5815 4.43565 -2.47412 0
M  V30 424 H 40.5115 5.19465 -0.863899 0
M  V30 425 H 43.0025 3.64027 -1.01452 0
M  V30 426 H 43.3155 7.25203 -2.67021 0
M  V30 427 H 41.6605 6.52435 -2.39487 0
M  V30 428 H 44.8515 4.48581 -1.33763 0
M  V30 429 H 45.0245 6.13288 -2.09242 0
M  V30 430 N 38.4306 0.297415 1.54768 0
M  V30 431 C 39.6766 -0.313376 2.00364 0
M  V30 432 C 40.0096 -1.53815 1.18553 0
M  V30 433 O 39.2846 -1.92739 0.261103 0
M  V30 434 C 39.5676 -0.673525 3.53745 0
M  V30 435 C 39.4206 0.560133 4.46299 0
M  V30 436 C 40.7396 -1.50143 4.13697 0
M  V30 437 H 37.8586 -0.112428 0.728374 0
M  V30 438 H 40.5006 0.4088 1.8555 0
M  V30 439 H 38.6506 -1.28881 3.665 0
M  V30 440 H 40.3226 1.19863 4.45455 0
M  V30 441 H 38.5656 1.19405 4.17043 0
M  V30 442 H 39.2366 0.26405 5.51368 0
M  V30 443 H 41.7126 -0.981588 4.04356 0
M  V30 444 H 40.5886 -1.72221 5.21182 0
M  V30 445 H 40.8496 -2.48952 3.65343 0
M  V30 446 N 39.9087 -1.5758 0.0250728 0
M  V30 447 C 40.8567 -2.11125 -0.97617 0
M  V30 448 C 41.8507 -1.03689 -1.33959 0
M  V30 449 O 43.0567 -1.22128 -1.3223 0
M  V30 450 H 39.4317 -0.674468 -0.332561 0
M  V30 451 H 41.4027 -2.94194 -0.499223 0
M  V30 452 C 40.1517 -2.65017 -2.2508 0
M  V30 453 H 39.4747 -3.47333 -1.9799 0
M  V30 454 H 40.9147 -3.06133 -2.93357 0
M  V30 455 C 39.3737 -1.57574 -2.97779 0
M  V30 456 O 39.9037 -0.973203 -3.89733 0
M  V30 457 N 38.1097 -1.29716 -2.60043 0
M  V30 458 H 37.6567 -1.789 -1.85345 0
M  V30 459 H 37.6147 -0.58051 -3.08994 0
M  V30 460 N 41.3868 0.248026 -1.55636 0
M  V30 461 C 42.6348 0.974295 -1.77065 0
M  V30 462 C 42.9558 1.85897 -0.588849 0
M  V30 463 O 42.2258 1.91868 0.395407 0
M  V30 464 H 40.8058 0.362733 -0.653019 0
M  V30 465 H 43.4678 0.266244 -1.93073 0
M  V30 466 H 42.5638 1.59667 -2.68166 0
M  V30 467 N 42.8649 1.48995 0.513639 0
M  V30 468 C 43.7949 1.67636 1.62544 0
M  V30 469 C 44.7759 0.525087 1.61793 0
M  V30 470 O 45.9609 0.759502 1.78732 0
M  V30 471 C 43.0909 1.73114 3.01079 0
M  V30 472 C 42.0449 2.87905 3.16693 0
M  V30 473 C 41.3709 2.78486 4.56453 0
M  V30 474 C 42.6709 4.29005 2.97913 0
M  V30 475 H 44.3649 2.60716 1.47198 0
M  V30 476 H 41.9109 1.25465 0.706714 0
M  V30 477 H 43.8639 1.84742 3.78746 0
M  V30 478 H 42.5879 0.766241 3.17484 0
M  V30 479 H 41.2469 2.75859 2.41448 0
M  V30 480 H 40.8949 1.7993 4.69717 0
M  V30 481 H 40.5949 3.55523 4.67843 0
M  V30 482 H 42.1189 2.92104 5.36197 0
M  V30 483 H 43.5329 4.41798 3.65359 0
M  V30 484 H 41.9299 5.07166 3.20785 0
M  V30 485 H 42.9999 4.44329 1.94165 0
M  V30 486 N 44.343 -0.763751 1.37857 0
M  V30 487 C 45.754 -1.3405 1.29952 0
M  V30 488 C 46.105 -1.96138 -0.0492898 0
M  V30 489 O 45.23 -1.94372 -0.951239 0
M  V30 490 C 45.825 -2.43729 2.35333 0
M  V30 491 C 44.384 -2.97151 2.31037 0
M  V30 492 C 43.531 -1.70438 2.18738 0
M  V30 493 H 46.482 -0.563396 1.48363 0
M  V30 494 H 46.503 -3.23412 2.00462 0
M  V30 495 H 46.015 -1.9851 3.33489 0
M  V30 496 H 44.116 -3.46724 1.3643 0
M  V30 497 H 44.229 -3.52221 3.24772 0
M  V30 498 H 42.593 -1.93673 1.65418 0
M  V30 499 H 43.376 -1.27312 3.18821 0
M  V30 500 N 45.8211 -1.22559 -0.990812 0
M  V30 501 C 47.0461 -1.07862 -1.77145 0
M  V30 502 C 47.4711 0.366447 -1.84496 0
M  V30 503 O 46.8291 1.26478 -1.29896 0
M  V30 504 C 46.8771 -1.69686 -3.18181 0
M  V30 505 O 45.9811 -0.951946 -4.01263 0
M  V30 506 H 45.3221 -0.378712 -0.545411 0
M  V30 507 H 47.8521 -1.62399 -1.2445 0
M  V30 508 H 47.8621 -1.74496 -3.68802 0
M  V30 509 H 46.5371 -2.74841 -3.12146 0
M  V30 510 H 45.1141 -0.980011 -3.59792 0
M  V30 511 N 47.2992 1.18797 -1.03562 0
M  V30 512 C 48.7102 1.70322 -0.764676 0
M  V30 513 C 49.0612 1.82708 0.714996 0
M  V30 514 O 48.1862 1.50299 1.55689 0
M  V30 515 C 48.7812 3.09356 -1.38145 0
M  V30 516 C 47.3402 3.58114 -1.15895 0
M  V30 517 C 46.4872 2.34798 -1.4753 0
M  V30 518 H 49.4382 1.03543 -1.20268 0
M  V30 519 H 49.4592 3.72378 -0.781977 0
M  V30 520 H 48.9712 3.00309 -2.45837 0
M  V30 521 H 47.0722 3.72464 -0.100544 0
M  V30 522 H 47.1852 4.4184 -1.8524 0
M  V30 523 H 45.5492 2.38464 -0.894829 0
M  V30 524 H 46.3322 2.28375 -2.56319 0
M  V30 525 N 48.7773 0.814389 1.34928 0
M  V30 526 C 50.0053 0.411136 2.02774 0
M  V30 527 C 50.4203 -0.980316 1.61354 0
M  V30 528 O 49.7773 -1.63299 0.814847 0
M  V30 529 C 49.8283 0.493865 3.58111 0
M  V30 530 O 49.5493 1.83047 3.98027 0
M  V30 531 C 51.0503 0.0844174 4.4322 0
M  V30 532 H 48.2703 0.166037 0.650133 0
M  V30 533 H 50.8143 1.10018 1.72384 0
M  V30 534 H 48.9693 -0.147006 3.87121 0
M  V30 535 H 49.3833 1.79872 4.92693 0
M  V30 536 H 50.8573 0.193404 5.51661 0
M  V30 537 H 51.3343 -0.97113 4.28329 0
M  V30 538 H 51.9403 0.69875 4.19521 0
M  V30 539 N 50.2554 -1.46986 0.568584 0
M  V30 540 C 51.2054 -2.27179 -0.193339 0
M  V30 541 C 52.1894 -1.35035 -0.874895 0
M  V30 542 O 53.3814 -1.5931 -0.771322 0
M  V30 543 C 50.5104 -3.21063 -1.21546 0
M  V30 544 C 49.5964 -4.2069 -0.536738 0
M  V30 545 N 49.9874 -5.04218 0.399673 0
M  V30 546 C 48.2854 -4.38961 -0.789254 0
M  V30 547 C 48.9864 -5.76242 0.795017 0
M  V30 548 N 47.9624 -5.434 0.1473 0
M  V30 549 H 51.7644 -2.89146 0.526458 0
M  V30 550 H 49.2784 -1.57664 0.389342 0
M  V30 551 H 51.2754 -3.77209 -1.77536 0
M  V30 552 H 49.9354 -2.60654 -1.93623 0
M  V30 553 H 50.9464 -5.12077 0.774454 0
M  V30 554 H 47.6234 -3.89713 -1.49767 0
M  V30 555 H 49.0134 -6.53417 1.56513 0
M  V30 556 N 51.7335 -0.305618 -1.54608 0
M  V30 557 C 52.9585 0.307562 -2.05107 0
M  V30 558 C 53.3835 1.46385 -1.18123 0
M  V30 559 O 52.7415 1.8034 -0.186324 0
M  V30 560 C 52.7895 0.73704 -3.52987 0
M  V30 561 O 51.8935 1.84134 -3.6901 0
M  V30 562 H 51.2345 0.0589143 -0.661381 0
M  V30 563 H 53.7645 -0.448807 -1.99617 0
M  V30 564 H 53.7745 1.02459 -3.94925 0
M  V30 565 H 52.4495 -0.108773 -4.15758 0
M  V30 566 H 51.0265 1.55398 -3.38978 0
M  V30 567 N 53.2116 1.57565 -0.0334293 0
M  V30 568 C 54.1746 2.09393 0.932048 0
M  V30 569 C 55.1746 1.00986 1.25134 0
M  V30 570 O 56.3646 1.27129 1.19096 0
M  V30 571 C 53.4966 2.56338 2.2473 0
M  V30 572 H 54.6896 2.95984 0.483085 0
M  V30 573 H 52.2426 1.54819 0.21468 0
M  V30 574 H 52.9776 1.7309 2.74245 0
M  V30 575 H 52.7626 3.35542 2.02865 0
M  V30 576 H 54.2526 2.96646 2.93923 0
M  V30 577 N 54.6897 -0.239769 1.55765 0
M  V30 578 C 55.6397 -1.30002 1.87306 0
M  V30 579 C 56.6237 -1.43156 0.73452 0
M  V30 580 O 57.8157 -1.46277 0.99659 0
M  V30 581 C 54.9447 -2.65409 2.17745 0
M  V30 582 C 54.0307 -2.56231 3.37945 0
M  V30 583 N 54.4217 -2.16689 4.57033 0
M  V30 584 C 52.7197 -2.87229 3.41197 0
M  V30 585 C 53.4207 -2.18318 5.39177 0
M  V30 586 N 52.3967 -2.58098 4.78421 0
M  V30 587 H 56.1987 -0.984912 2.76906 0
M  V30 588 H 53.7127 -0.448381 1.56087 0
M  V30 589 H 55.7097 -3.41934 2.38509 0
M  V30 590 H 54.3697 -2.97781 1.29448 0
M  V30 591 H 55.3807 -1.88116 4.82528 0
M  V30 592 H 52.0577 -3.24094 2.63191 0
M  V30 593 H 53.4477 -1.90025 6.44469 0
M  V30 594 N 56.1678 -1.49265 -0.50573 0
M  V30 595 C 57.4078 -1.60128 -1.27038 0
M  V30 596 C 57.7718 -0.279557 -1.89954 0
M  V30 597 O 58.9728 -0.263329 -2.67507 0
M  V30 598 C 57.2438 -2.72507 -2.31246 0
M  V30 599 S 58.8028 -3.0329 -3.17113 0
M  V30 600 H 55.6208 -0.564863 -0.4318 0
M  V30 601 H 58.2228 -1.86902 -0.573397 0
M  V30 602 H 56.9268 -3.67068 -1.83546 0
M  V30 603 H 56.4578 -2.4771 -3.05619 0
M  V30 604 H 58.4728 -2.44448 -4.31809 0
M  V30 605 N 57.6459 0.756429 -1.3826 0
M  V30 606 C 58.8709 1.55077 -1.37717 0
M  V30 607 C 59.2959 1.88073 0.03164 0
M  V30 608 O 58.6539 1.50364 1.01293 0
M  V30 609 C 58.7019 2.8283 -2.23695 0
M  V30 610 O 57.8059 3.77862 -1.6521 0
M  V30 611 H 57.1469 0.469152 -0.469885 0
M  V30 612 H 59.6769 0.935019 -1.81985 0
M  V30 613 H 59.6869 3.31783 -2.37453 0
M  V30 614 H 58.3619 2.58144 -3.2609 0
M  V30 615 H 56.9389 3.36555 -1.60578 0
M  V30 616 N 59.124 1.23083 0.984299 0
M  V30 617 C 60.371 1.06057 1.72505 0
M  V30 618 C 60.699 -0.403105 1.90277 0
M  V30 619 O 59.954 -1.3149 1.44944 0
M  V30 620 C 60.253 1.72673 3.1292 0
M  V30 621 C 59.919 3.22586 3.15038 0
M  V30 622 C 58.581 3.63489 3.15324 0
M  V30 623 C 60.933 4.185 3.10657 0
M  V30 624 C 58.261 4.98772 3.08939 0
M  V30 625 C 60.613 5.53769 3.05814 0
M  V30 626 C 59.277 5.94041 3.04419 0
M  V30 627 H 58.547 0.388091 0.631242 0
M  V30 628 H 61.194 1.52963 1.15215 0
M  V30 629 H 59.499 1.18116 3.73572 0
M  V30 630 H 61.196 1.56982 3.68996 0
M  V30 631 H 57.786 2.90022 3.15571 0
M  V30 632 H 61.97 3.87911 3.09579 0
M  V30 633 H 57.226 5.29193 3.0621 0
M  V30 634 H 61.4 6.27808 3.0138 0
M  V30 635 H 59.027 6.98833 2.99227 0
M  V30 636 N 60.6021 -1.18246 1.0419 0
M  V30 637 C 61.8321 -1.91916 0.764961 0
M  V30 638 C 62.2401 -1.76485 -0.681898 0
M  V30 639 O 61.5831 -1.09275 -1.47664 0
M  V30 640 C 61.6451 -3.4373 1.05309 0
M  V30 641 C 61.3091 -3.8294 2.4941 0
M  V30 642 C 62.3061 -3.86621 3.47592 0
M  V30 643 C 59.9911 -4.142 2.84155 0
M  V30 644 C 61.9851 -4.21013 4.78568 0
M  V30 645 C 59.6721 -4.48262 4.15337 0
M  V30 646 C 60.6701 -4.51645 5.12353 0
M  V30 647 O 60.3581 -4.84911 6.41183 0
M  V30 648 H 60.0901 -0.61606 0.278292 0
M  V30 649 H 62.6441 -1.50947 1.39299 0
M  V30 650 H 60.8741 -3.84946 0.367933 0
M  V30 651 H 62.5631 -3.9865 0.763752 0
M  V30 652 H 63.3291 -3.62607 3.22089 0
M  V30 653 H 59.2081 -4.10743 2.09311 0
M  V30 654 H 62.7521 -4.23568 5.54289 0
M  V30 655 H 58.6491 -4.71737 4.40607 0
M  V30 656 H 59.4171 -5.02809 6.45852 0
M  V30 657 N 62.0802 -0.821533 -1.34494 0
M  V30 658 C 63.4962 -0.507117 -1.51329 0
M  V30 659 C 63.6962 0.968964 -1.76673 0
M  V30 660 O 62.7522 1.75348 -1.81685 0
M  V30 661 C 64.0652 -1.36544 -2.67911 0
M  V30 662 C 65.6132 -1.36242 -2.81793 0
M  V30 663 C 66.0882 -2.2052 -4.01416 0
M  V30 664 N 67.5792 -2.18136 -4.08621 0
M  V30 665 C 68.3142 -2.80095 -5.00334 0
M  V30 666 N 67.8102 -3.51039 -5.9728 0
M  V30 667 N 69.6032 -2.69656 -4.93196 0
M  V30 668 H 61.7542 -1.77729 -1.16302 0
M  V30 669 H 64.0172 -0.757291 -0.570276 0
M  V30 670 H 63.7232 -2.41361 -2.55808 0
M  V30 671 H 63.5972 -1.02917 -3.62888 0
M  V30 672 H 65.9842 -0.322041 -2.93338 0
M  V30 673 H 66.0652 -1.73866 -1.87628 0
M  V30 674 H 65.7092 -3.24607 -3.90631 0
M  V30 675 H 65.6392 -1.80247 -4.94791 0
M  V30 676 H 68.1302 -1.6653 -3.39229 0
M  V30 677 H 68.4432 -3.95565 -6.63889 0
M  V30 678 H 66.7882 -3.55145 -5.97409 0
M  V30 679 H 69.9792 -2.13808 -4.16418 0
M  V30 680 H 70.1522 -3.1823 -5.64476 0
M  V30 681 N 63.5583 1.46682 -0.576371 0
M  V30 682 C 64.7863 2.06798 -0.0649635 0
M  V30 683 C 65.2013 1.42612 1.23723 0
M  V30 684 O 64.5583 0.529203 1.74659 0
M  V30 685 C 64.6093 3.6132 0.114202 0
M  V30 686 O 64.3303 4.23104 -1.13644 0
M  V30 687 C 65.8313 4.38349 0.66069 0
M  V30 688 H 63.0513 0.668778 -0.0545616 0
M  V30 689 H 65.5953 1.88404 -0.795237 0
M  V30 690 H 63.7503 3.79162 0.794673 0
M  V30 691 H 64.1643 5.15894 -0.946253 0
M  V30 692 H 65.6383 5.47081 0.73526 0
M  V30 693 H 66.1153 4.05953 1.67627 0
M  V30 694 H 66.7213 4.25297 0.0152951 0
M  V30 695 N 65.0364 0.313813 1.54444 0
M  V30 696 C 66.4524 -0.0391619 1.59552 0
M  V30 697 C 66.6524 -1.51322 1.33056 0
M  V30 698 O 65.7084 -2.26782 1.11022 0
M  V30 699 C 67.0214 0.370302 2.98411 0
M  V30 700 C 68.5694 0.320139 3.11358 0
M  V30 701 C 69.0444 0.704617 4.52547 0
M  V30 702 N 70.5354 0.657645 4.58508 0
M  V30 703 C 71.2704 0.927453 5.6585 0
M  V30 704 N 70.7664 1.26389 6.81174 0
M  V30 705 N 72.5594 0.853662 5.5558 0
M  V30 706 H 64.7104 1.27433 1.69925 0
M  V30 707 H 66.9734 0.517511 0.794284 0
M  V30 708 H 66.6794 1.39694 3.22767 0
M  V30 709 H 66.5534 -0.269619 3.76235 0
M  V30 710 H 68.9404 -0.697275 2.86744 0
M  V30 711 H 69.0214 0.99486 2.35661 0
M  V30 712 H 68.6654 1.7199 4.77893 0
M  V30 713 H 68.5954 0.00768843 5.26599 0
M  V30 714 H 71.0864 0.409067 3.75679 0
M  V30 715 H 71.3994 1.4554 7.58972 0
M  V30 716 H 69.7444 1.30206 6.82694 0
M  V30 717 H 72.9354 0.590383 4.64362 0
M  V30 718 H 73.1084 1.0673 6.3915 0
M  V30 719 N 66.5145 -1.57545 0.0417849 0
M  V30 720 C 67.7425 -1.96624 -0.643928 0
M  V30 721 C 68.1575 -0.918897 -1.64929 0
M  V30 722 O 67.5145 0.0979323 -1.82237 0
M  V30 723 C 67.5655 -3.35781 -1.33914 0
M  V30 724 O 67.2865 -4.365 -0.374048 0
M  V30 725 C 68.7875 -3.89566 -2.1155 0
M  V30 726 H 66.0075 -0.647316 -0.176702 0
M  V30 727 H 68.5515 -2.04229 0.105304 0
M  V30 728 H 66.7065 -3.29357 -2.03968 0
M  V30 729 H 67.1205 -5.17248 -0.869179 0
M  V30 730 H 68.5945 -4.89242 -2.55628 0
M  V30 731 H 69.0715 -3.24488 -2.9598 0
M  V30 732 H 69.6775 -3.99298 -1.46427 0
M  V30 733 N 67.9926 0.231505 -1.5589 0
M  V30 734 C 68.9226 1.29022 -1.94617 0
M  V30 735 C 69.9036 1.4941 -0.813067 0
M  V30 736 O 71.0886 1.6176 -1.07459 0
M  V30 737 C 68.2186 2.64199 -2.25424 0
M  V30 738 C 67.1726 2.58484 -3.41131 0
M  V30 739 C 66.4986 3.97599 -3.57518 0
M  V30 740 C 67.7986 2.1413 -4.76388 0
M  V30 741 H 69.4926 0.968563 -2.83301 0
M  V30 742 H 67.0386 0.464479 -1.36303 0
M  V30 743 H 68.9916 3.38413 -2.51107 0
M  V30 744 H 67.7156 2.98032 -1.33583 0
M  V30 745 H 66.3746 1.86727 -3.15481 0
M  V30 746 H 66.0226 4.28723 -2.6307 0
M  V30 747 H 65.7226 3.94659 -4.35337 0
M  V30 748 H 67.2466 4.7349 -3.85538 0
M  V30 749 H 68.6606 2.78083 -5.01341 0
M  V30 750 H 67.0576 2.2227 -5.57419 0
M  V30 751 H 68.1276 1.09331 -4.72414 0
M  V30 752 N 69.4707 1.49531 0.497807 0
M  V30 753 C 70.4027 1.62559 1.61578 0
M  V30 754 C 71.4157 0.508134 1.54667 0
M  V30 755 O 72.6047 0.780309 1.60541 0
M  V30 756 C 69.7047 1.56925 3.00379 0
M  V30 757 C 68.8777 2.84257 3.3244 0
M  V30 758 C 67.9367 2.71632 4.50669 0
M  V30 759 O 66.9627 3.4557 4.52294 0
M  V30 760 N 68.1647 1.83391 5.5077 0
M  V30 761 H 70.9297 2.58981 1.50828 0
M  V30 762 H 68.4907 1.4666 0.685743 0
M  V30 763 H 70.4827 1.46129 3.77397 0
M  V30 764 H 69.0527 0.683483 3.05037 0
M  V30 765 H 68.2727 3.09381 2.44289 0
M  V30 766 H 69.5607 3.68666 3.5066 0
M  V30 767 H 68.9587 1.22583 5.52259 0
M  V30 768 H 67.5157 1.78515 6.26878 0
M  V30 769 N 70.9488 -0.749086 1.3866 0
M  V30 770 C 72.1768 -1.53834 1.38358 0
M  V30 771 C 72.5918 -1.88783 -0.0255219 0
M  V30 772 O 71.9488 -1.53101 -0.993292 0
M  V30 773 C 71.9998 -2.83468 2.2434 0
M  V30 774 O 71.7208 -2.50008 3.5976 0
M  V30 775 C 73.2218 -3.7758 2.32267 0
M  V30 776 H 70.4418 -0.47585 0.473083 0
M  V30 777 H 72.9858 -0.926726 1.82297 0
M  V30 778 H 71.1408 -3.40995 1.83851 0
M  V30 779 H 71.5548 -3.33182 4.05081 0
M  V30 780 H 73.0288 -4.65478 2.96706 0
M  V30 781 H 73.5058 -4.18334 1.33765 0
M  V30 782 H 74.1118 -3.25976 2.73166 0
M  V30 783 N 72.4269 -1.23603 -0.977757 0
M  V30 784 C 73.3569 -1.04401 -2.0886 0
M  V30 785 C 74.3379 0.0399052 -1.70053 0
M  V30 786 O 75.5229 -0.125246 -1.93796 0
M  V30 787 C 72.6529 -0.637269 -3.41403 0
M  V30 788 C 71.6069 -1.66883 -3.94124 0
M  V30 789 C 70.9329 -1.11745 -5.22893 0
M  V30 790 C 72.2329 -3.06247 -4.23096 0
M  V30 791 H 73.9269 -1.97316 -2.25182 0
M  V30 792 H 71.4729 -0.950096 -1.08209 0
M  V30 793 H 73.4259 -0.48998 -4.18542 0
M  V30 794 H 72.1499 0.327557 -3.24953 0
M  V30 795 H 70.8089 -1.80416 -3.19133 0
M  V30 796 H 70.4569 -0.143527 -5.02795 0
M  V30 797 H 70.1569 -1.80672 -5.59134 0
M  V30 798 H 71.6809 -0.982067 -6.02651 0
M  V30 799 H 73.0949 -2.96001 -4.90975 0
M  V30 800 H 71.4919 -3.72436 -4.70544 0
M  V30 801 H 72.5619 -3.55041 -3.30263 0
M  V30 802 N 73.905 1.17692 -1.04816 0
M  V30 803 C 75.13 1.92327 -0.776207 0
M  V30 804 C 75.555 1.76082 0.661581 0
M  V30 805 O 74.913 1.076 1.45917 0
M  V30 806 C 74.961 3.41539 -1.15687 0
M  V30 807 O 74.065 4.11402 -0.286775 0
M  V30 808 H 73.406 0.599735 -0.284981 0
M  V30 809 H 75.936 1.49201 -1.4 0
M  V30 810 H 75.946 3.92269 -1.12202 0
M  V30 811 H 74.621 3.52684 -2.20425 0
M  V30 812 H 73.198 3.70939 -0.381903 0
M  V30 813 N 75.3831 0.828654 1.34056 0
M  V30 814 C 76.6081 0.431637 2.02859 0
M  V30 815 C 77.0331 -0.956339 1.61975 0
M  V30 816 O 76.3911 -1.62338 0.807228 0
M  V30 817 C 76.4391 0.548323 3.56407 0
M  V30 818 O 75.5431 -0.429556 4.10157 0
M  V30 819 H 74.8841 0.176886 0.640006 0
M  V30 820 H 77.4141 1.12066 1.71179 0
M  V30 821 H 77.4241 0.426196 4.05768 0
M  V30 822 H 76.0991 1.5606 3.8551 0
M  V30 823 H 74.6761 -0.265836 3.71951 0
M  V30 824 N 76.8612 -1.46375 0.584142 0
M  V30 825 C 77.7712 -2.34115 -0.150728 0
M  V30 826 C 78.7872 -1.49838 -0.884567 0
M  V30 827 O 79.9632 -1.82704 -0.847429 0
M  V30 828 C 77.0282 -3.2705 -1.15062 0
M  V30 829 C 76.0892 -4.27228 -0.421293 0
M  V30 830 C 75.3222 -5.15722 -1.37355 0
M  V30 831 O 75.5452 -5.07176 -2.61014 0
M  V30 832 O 74.4792 -5.95383 -0.883355 0
M  V30 833 H 78.3052 -2.98309 0.569708 0
M  V30 834 H 75.8902 -1.45373 0.344535 0
M  V30 835 H 77.7722 -3.84381 -1.72712 0
M  V30 836 H 76.4472 -2.65451 -1.8525 0
M  V30 837 H 75.3542 -3.7358 0.197085 0
M  V30 838 H 76.6872 -4.91616 0.239641 0
M  V30 839 N 78.3393 -0.321999 -1.54275 0
M  V30 840 C 79.2863 0.544664 -2.24281 0
M  V30 841 C 80.2563 1.1129 -1.23303 0
M  V30 842 O 81.4413 1.15354 -1.51981 0
M  V30 843 C 78.5813 1.70045 -3.00298 0
M  V30 844 C 77.6943 1.16159 -4.1609 0
M  V30 845 C 76.8293 2.28293 -4.79641 0
M  V30 846 C 75.8683 1.71648 -5.8754 0
M  V30 847 N 75.0053 2.77438 -6.44959 0
M  V30 848 H 79.8453 -0.0588907 -2.97942 0
M  V30 849 H 77.3823 -0.0408345 -1.47043 0
M  V30 850 H 79.3403 2.38054 -3.42616 0
M  V30 851 H 77.9703 2.27531 -2.28975 0
M  V30 852 H 77.0223 0.373092 -3.78566 0
M  V30 853 H 78.3343 0.707087 -4.93763 0
M  V30 854 H 77.4883 3.0421 -5.2492 0
M  V30 855 H 76.2273 2.77079 -4.01346 0
M  V30 856 H 75.2323 0.942282 -5.41665 0
M  V30 857 H 76.4573 1.23741 -6.67731 0
M  V30 858 H 74.4033 3.25519 -5.69538 0
M  V30 859 H 74.3203 2.36547 -7.1804 0
M  V30 860 H 75.5883 3.53189 -6.94894 0
M  V30 861 N 79.8174 1.5752 -0.0501392 0
M  V30 862 C 80.7644 2.1147 0.924603 0
M  V30 863 C 81.7344 1.02182 1.30951 0
M  V30 864 O 82.9194 1.29723 1.39916 0
M  V30 865 C 80.0594 2.66337 2.19451 0
M  V30 866 C 79.1724 3.89708 1.86418 0
M  V30 867 C 78.3074 4.32893 3.07859 0
M  V30 868 C 77.3464 5.48967 2.70742 0
M  V30 869 N 76.4834 5.87211 3.84874 0
M  V30 870 H 81.3234 2.94465 0.457639 0
M  V30 871 H 78.8604 1.45531 0.214266 0
M  V30 872 H 80.8184 2.96247 2.93758 0
M  V30 873 H 79.4484 1.86141 2.63726 0
M  V30 874 H 78.5004 3.66396 1.02264 0
M  V30 875 H 79.8124 4.74074 1.55096 0
M  V30 876 H 78.9664 4.6435 3.90466 0
M  V30 877 H 77.7054 3.47336 3.42358 0
M  V30 878 H 76.7104 5.17183 1.86551 0
M  V30 879 H 77.9354 6.3624 2.37436 0
M  V30 880 H 75.8814 5.04607 4.19175 0
M  V30 881 H 75.7984 6.66266 3.57247 0
M  V30 882 H 77.0664 6.23282 4.68123 0
M  V30 883 N 81.2955 -0.223234 1.56011 0
M  V30 884 C 82.2585 -1.26014 1.9145 0
M  V30 885 C 83.2585 -1.3989 0.792937 0
M  V30 886 O 84.4485 -1.38184 1.0607 0
M  V30 887 C 81.5805 -2.63422 2.16383 0
M  V30 888 H 82.7735 -0.95796 2.84189 0
M  V30 889 H 80.3265 -0.463576 1.49267 0
M  V30 890 H 81.0615 -2.98741 1.2619 0
M  V30 891 H 80.8465 -2.54728 2.98088 0
M  V30 892 H 82.3365 -3.38249 2.44903 0
M  V30 893 N 82.7736 -1.49793 -0.48987 0
M  V30 894 C 83.7206 -1.67281 -1.59014 0
M  V30 895 C 84.6906 -0.514177 -1.57941 0
M  V30 896 O 85.8756 -0.742533 -1.75759 0
M  V30 897 C 83.0156 -1.75569 -2.97102 0
M  V30 898 C 82.1286 -3.0281 -3.08107 0
M  V30 899 C 81.2636 -3.02008 -4.36995 0
M  V30 900 C 80.3026 -4.23782 -4.41673 0
M  V30 901 N 79.4396 -4.20826 -5.62005 0
M  V30 902 H 84.2796 -2.61224 -1.43409 0
M  V30 903 H 81.8166 -1.29508 -0.697565 0
M  V30 904 H 83.7746 -1.78354 -3.77155 0
M  V30 905 H 82.4046 -0.850827 -3.11385 0
M  V30 906 H 81.4566 -3.09584 -2.21047 0
M  V30 907 H 82.7686 -3.92801 -3.07423 0
M  V30 908 H 81.9226 -3.03418 -5.25378 0
M  V30 909 H 80.6616 -2.09815 -4.4026 0
M  V30 910 H 79.6666 -4.22604 -3.5169 0
M  V30 911 H 80.8916 -5.17181 -4.40115 0
M  V30 912 H 78.8376 -3.31476 -5.66091 0
M  V30 913 H 78.7546 -5.04564 -5.62984 0
M  V30 914 H 80.0226 -4.26355 -6.52565 0
M  V30 915 N 84.2517 0.741722 -1.39055 0
M  V30 916 C 85.1987 1.85566 -1.37237 0
M  V30 917 C 86.1687 1.64457 -0.233072 0
M  V30 918 O 87.3537 1.85957 -0.427147 0
M  V30 919 C 84.4937 3.23004 -1.215 0
M  V30 920 C 83.6067 3.55864 -2.44918 0
M  V30 921 C 82.7417 4.82669 -2.21821 0
M  V30 922 C 81.7807 5.08351 -3.40948 0
M  V30 923 N 80.9177 6.26356 -3.17211 0
M  V30 924 H 85.7577 1.86455 -2.32462 0
M  V30 925 H 83.2947 0.911176 -1.15482 0
M  V30 926 H 85.2527 4.02331 -1.10389 0
M  V30 927 H 83.8827 3.21411 -0.29908 0
M  V30 928 H 82.9347 2.7129 -2.66657 0
M  V30 929 H 84.2467 3.70765 -3.33668 0
M  V30 930 H 83.4007 5.69962 -2.07914 0
M  V30 931 H 82.1397 4.69929 -1.30454 0
M  V30 932 H 81.1447 4.19522 -3.55361 0
M  V30 933 H 82.3697 5.22981 -4.33207 0
M  V30 934 H 80.3157 6.14917 -2.28502 0
M  V30 935 H 80.2327 6.41813 -3.99515 0
M  V30 936 H 81.5007 7.16506 -3.06984 0
M  V30 937 N 85.7298 1.2412 0.971189 0
M  V30 938 C 86.9758 1.08041 1.71625 0
M  V30 939 C 87.3088 -0.380407 1.90438 0
M  V30 940 O 86.5838 -1.28127 1.46334 0
M  V30 941 C 86.8668 1.81682 3.10908 0
M  V30 942 C 86.7198 3.35493 2.99608 0
M  V30 943 C 88.0388 1.58671 4.10501 0
M  V30 944 H 85.1578 0.39388 0.622919 0
M  V30 945 H 87.7998 1.52743 1.13003 0
M  V30 946 H 85.9498 1.43684 3.60953 0
M  V30 947 H 87.6218 3.83068 2.57015 0
M  V30 948 H 85.8648 3.64052 2.35899 0
M  V30 949 H 86.5358 3.82217 3.98264 0
M  V30 950 H 89.0118 1.91719 3.69301 0
M  V30 951 H 87.8878 2.1266 5.06031 0
M  V30 952 H 88.1488 0.524161 4.38982 0
M  V30 953 N 87.2079 -1.17134 1.05439 0
M  V30 954 C 88.6239 -1.39454 0.776201 0
M  V30 955 C 88.8239 -1.91454 -0.628307 0
M  V30 956 O 87.8799 -2.10777 -1.39031 0
M  V30 957 C 89.1929 -2.38305 1.83388 0
M  V30 958 C 90.7409 -2.52006 1.85639 0
M  V30 959 C 91.2159 -3.54133 2.90437 0
M  V30 960 N 92.7069 -3.61653 2.89415 0
M  V30 961 C 93.4419 -4.4044 3.67152 0
M  V30 962 N 92.9379 -5.22721 4.54681 0
M  V30 963 N 94.7309 -4.35337 3.55581 0
M  V30 964 H 86.8819 -0.817134 1.96053 0
M  V30 965 H 89.1449 -0.421626 0.849079 0
M  V30 966 H 88.8509 -2.07173 2.84204 0
M  V30 967 H 88.7249 -3.37841 1.67761 0
M  V30 968 H 91.1119 -2.82447 0.85486 0
M  V30 969 H 91.1929 -1.52537 2.05344 0
M  V30 970 H 90.8369 -3.24431 3.90777 0
M  V30 971 H 90.7669 -4.53313 2.67983 0
M  V30 972 H 93.2579 -3.02909 2.25952 0
M  V30 973 H 93.5709 -5.80027 5.10674 0
M  V30 974 H 91.9159 -5.22093 4.58741 0
M  V30 975 H 95.1069 -3.70112 2.86592 0
M  V30 976 H 95.2799 -4.96494 4.1641 0
M  V30 977 N 88.686 -0.835752 -1.33615 0
M  V30 978 C 89.933 -0.429959 -1.97883 0
M  V30 979 C 90.261 1.01006 -1.66217 0
M  V30 980 O 89.516 1.72047 -0.93265 0
M  V30 981 C 89.815 -0.593925 -3.52431 0
M  V30 982 C 89.481 -2.00158 -4.04039 0
M  V30 983 C 88.143 -2.38662 -4.17844 0
M  V30 984 C 90.495 -2.92117 -4.31644 0
M  V30 985 C 87.823 -3.68435 -4.56588 0
M  V30 986 C 90.175 -4.21368 -4.71838 0
M  V30 987 C 88.839 -4.59833 -4.83849 0
M  V30 988 H 88.109 -0.157333 -0.724104 0
M  V30 989 H 90.756 -1.06217 -1.59343 0
M  V30 990 H 89.061 0.121619 -3.91611 0
M  V30 991 H 90.758 -0.260282 -4.00154 0
M  V30 992 H 87.348 -1.69252 -3.93766 0
M  V30 993 H 91.532 -2.63608 -4.20505 0
M  V30 994 H 86.788 -3.98046 -4.64079 0
M  V30 995 H 90.962 -4.92703 -4.92155 0
M  V30 996 H 88.589 -5.60438 -5.13627 0
M  V30 997 N 90.1641 1.46063 -0.591896 0
M  V30 998 C 91.3941 2.06418 -0.0867676 0
M  V30 999 C 91.8021 1.43975 1.22751 0
M  V30 1000 O 91.1451 0.542531 1.75506 0
M  V30 1001 C 91.2071 3.59213 0.143725 0
M  V30 1002 C 90.8711 4.439 -1.08635 0
M  V30 1003 C 91.8681 4.79864 -2.00067 0
M  V30 1004 C 89.5531 4.84896 -1.31077 0
M  V30 1005 C 91.5471 5.55661 -3.12282 0
M  V30 1006 C 89.2341 5.6045 -2.43596 0
M  V30 1007 C 90.2321 5.95747 -3.34027 0
M  V30 1008 O 89.9201 6.69772 -4.4459 0
M  V30 1009 H 89.6521 0.673443 -0.0587447 0
M  V30 1010 H 92.2061 1.88539 -0.814994 0
M  V30 1011 H 90.4361 3.75433 0.926668 0
M  V30 1012 H 92.1251 4.01463 0.5985 0
M  V30 1013 H 92.8911 4.48763 -1.83947 0
M  V30 1014 H 88.7701 4.56867 -0.61594 0
M  V30 1015 H 92.3141 5.8313 -3.82891 0
M  V30 1016 H 88.2111 5.90965 -2.59674 0
M  V30 1017 H 88.9791 6.88207 -4.43073 0
M  V30 1018 N 91.6422 0.330177 1.54103 0
M  V30 1019 C 93.0582 -0.0222371 1.59585 0
M  V30 1020 C 93.2582 -1.49902 1.34654 0
M  V30 1021 O 92.3142 -2.25592 1.13421 0
M  V30 1022 C 93.6272 0.401932 2.98002 0
M  V30 1023 C 95.1752 0.353145 3.11001 0
M  V30 1024 C 95.6502 0.752576 4.51775 0
M  V30 1025 N 97.1412 0.706239 4.57784 0
M  V30 1026 C 97.8762 0.987417 5.64834 0
M  V30 1027 N 97.3722 1.33607 6.79795 0
M  V30 1028 N 99.1652 0.91254 5.54643 0
M  V30 1029 H 91.3162 1.29228 1.68564 0
M  V30 1030 H 93.5792 0.525906 0.78875 0
M  V30 1031 H 93.2852 1.4311 3.21267 0
M  V30 1032 H 93.1592 -0.229699 3.765 0
M  V30 1033 H 95.5462 -0.666822 2.87467 0
M  V30 1034 H 95.6272 1.0198 2.34593 0
M  V30 1035 H 95.2712 1.77049 4.76042 0
M  V30 1036 H 95.2012 0.0635409 5.26562 0
M  V30 1037 H 97.6922 0.44889 3.75224 0
M  V30 1038 H 98.0052 1.53582 7.57385 0
M  V30 1039 H 96.3502 1.37439 6.81275 0
M  V30 1040 H 99.5412 0.639601 4.6371 0
M  V30 1041 H 99.7142 1.13503 6.37982 0
M  V30 1042 N 93.1203 -1.57491 0.0584922 0
M  V30 1043 C 94.0683 -2.13148 -0.931168 0
M  V30 1044 C 95.0623 -1.06507 -1.31729 0
M  V30 1045 O 96.2683 -1.24906 -1.29609 0
M  V30 1046 H 92.6433 -0.68137 -0.31818 0
M  V30 1047 H 94.6143 -2.95187 -0.436707 0
M  V30 1048 C 93.3633 -2.69732 -2.19408 0
M  V30 1049 H 92.6863 -3.51454 -1.90578 0
M  V30 1050 H 94.1263 -3.12287 -2.86798 0
M  V30 1051 C 92.5853 -1.63855 -2.94369 0
M  V30 1052 O 93.1153 -1.05565 -3.87581 0
M  V30 1053 N 91.3213 -1.35202 -2.57233 0
M  V30 1054 H 90.8683 -1.82791 -1.81508 0
M  V30 1055 H 90.8263 -0.645922 -3.07693 0
M  V30 1056 N 94.5984 0.214957 -1.56127 0
M  V30 1057 C 95.8464 0.936518 -1.79091 0
M  V30 1058 C 96.1674 1.84606 -0.628148 0
M  V30 1059 O 95.4374 1.92664 0.35462 0
M  V30 1060 H 94.0174 0.3488 -0.660566 0
M  V30 1061 H 96.6794 0.22523 -1.93594 0
M  V30 1062 H 95.7754 1.53943 -2.71492 0
M  V30 1063 N 96.0765 1.50051 0.48192 0
M  V30 1064 C 97.3535 1.51009 1.2432 0
M  V30 1065 C 97.7335 0.248587 2.09631 0
M  V30 1066 O 97.0815 -0.768409 2.15192 0
M  V30 1067 C 97.2915 2.79981 2.08355 0
M  V30 1068 C 98.6395 3.3022 2.66908 0
M  V30 1069 O 99.6635 2.81228 2.18607 0
M  V30 1070 O 98.5225 4.15595 3.54884 0
M  V30 1071 H 95.6165 0.605239 0.563573 0
M  V30 1072 H 98.1625 1.62332 0.494627 0
M  V30 1073 H 96.9345 3.63275 1.45419 0
M  V30 1074 H 96.5575 2.7161 2.90368 0
M  V30 1075 N 97.5546 -0.734337 1.39446 0
M  V30 1076 C 98.9706 -1.03997 1.21065 0
M  V30 1077 C 99.1706 -2.01369 0.0727019 0
M  V30 1078 O 98.2266 -2.45856 -0.575426 0
M  V30 1079 C 99.5396 -1.60163 2.54496 0
M  V30 1080 C 101.088 -1.7224 2.61347 0
M  V30 1081 C 101.563 -2.31814 3.95002 0
M  V30 1082 N 103.054 -2.39223 3.96644 0
M  V30 1083 C 103.789 -2.86258 4.96834 0
M  V30 1084 N 103.285 -3.33184 6.07421 0
M  V30 1085 N 105.078 -2.85473 4.84213 0
M  V30 1086 H 97.2286 -0.0885624 2.12215 0
M  V30 1087 H 99.4916 -0.10191 0.942506 0
M  V30 1088 H 99.1976 -0.960811 3.38321 0
M  V30 1089 H 99.0716 -2.5896 2.74262 0
M  V30 1090 H 101.459 -2.35443 1.77906 0
M  V30 1091 H 101.54 -0.720939 2.4543 0
M  V30 1092 H 101.184 -1.69238 4.78875 0
M  V30 1093 H 101.114 -3.32638 4.08239 0
M  V30 1094 H 103.605 -2.06057 3.16779 0
M  V30 1095 H 103.918 -3.67586 6.7978 0
M  V30 1096 H 102.263 -3.31191 6.11013 0
M  V30 1097 H 105.454 -2.48136 3.96921 0
M  V30 1098 H 105.627 -3.21814 5.62441 0
M  V30 1099 N 99.0327 -1.24633 -0.964593 0
M  V30 1100 C 100.263 -1.11339 -1.74032 0
M  V30 1101 C 100.671 0.336593 -1.86182 0
M  V30 1102 O 100.014 1.24389 -1.35178 0
M  V30 1103 C 100.076 -1.68284 -3.1768 0
M  V30 1104 C 99.7397 -3.17196 -3.28992 0
M  V30 1105 C 100.737 -4.14308 -3.14078 0
M  V30 1106 C 98.4217 -3.57215 -3.53133 0
M  V30 1107 C 100.416 -5.4942 -3.23135 0
M  V30 1108 C 98.1027 -4.92468 -3.61827 0
M  V30 1109 C 99.1007 -5.8838 -3.46841 0
M  V30 1110 O 98.7887 -7.21173 -3.55197 0
M  V30 1111 H 98.5207 -0.389551 -0.552472 0
M  V30 1112 H 101.075 -1.65282 -1.21946 0
M  V30 1113 H 99.3047 -1.08777 -3.71085 0
M  V30 1114 H 100.994 -1.50234 -3.77074 0
M  V30 1115 H 101.76 -3.84731 -2.95308 0
M  V30 1116 H 97.6387 -2.83063 -3.63863 0
M  V30 1117 H 101.183 -6.24263 -3.11355 0
M  V30 1118 H 97.0797 -5.21714 -3.80111 0
M  V30 1119 H 97.8477 -7.29135 -3.71892 0
M  V30 1120 N 100.511 1.16574 -1.06058 0
M  V30 1121 C 101.758 1.87047 -0.775873 0
M  V30 1122 C 102.086 1.81562 0.697534 0
M  V30 1123 O 101.341 1.22445 1.52662 0
M  V30 1124 C 101.64 3.36195 -1.21275 0
M  V30 1125 C 101.306 3.6188 -2.68986 0
M  V30 1126 C 99.9678 3.68599 -3.09335 0
M  V30 1127 C 102.32 3.72648 -3.64394 0
M  V30 1128 C 99.6478 3.83584 -4.43937 0
M  V30 1129 C 102 3.89154 -4.98741 0
M  V30 1130 C 100.664 3.94114 -5.3873 0
M  V30 1131 H 99.9338 0.684452 -0.283912 0
M  V30 1132 H 102.581 1.37853 -1.32925 0
M  V30 1133 H 100.886 3.87505 -0.578528 0
M  V30 1134 H 102.583 3.89103 -0.969542 0
M  V30 1135 H 99.1728 3.57281 -2.36744 0
M  V30 1136 H 103.357 3.66769 -3.34356 0
M  V30 1137 H 98.6128 3.85677 -4.74409 0
M  V30 1138 H 102.787 3.96427 -5.72554 0
M  V30 1139 H 100.414 4.05478 -6.43033 0
M  V30 1140 N 101.989 0.842826 1.3317 0
M  V30 1141 C 102.936 0.276885 2.29133 0
M  V30 1142 C 103.906 -0.609527 1.54512 0
M  V30 1143 O 105.091 -0.546955 1.82792 0
M  V30 1144 C 102.231 -0.538707 3.40869 0
M  V30 1145 C 101.344 0.372169 4.30394 0
M  V30 1146 C 100.479 -0.454908 5.29249 0
M  V30 1147 C 99.5179 0.45411 6.10413 0
M  V30 1148 N 98.6549 -0.335075 7.013 0
M  V30 1149 H 103.495 1.10052 2.76934 0
M  V30 1150 H 101.032 0.554161 1.36262 0
M  V30 1151 H 102.99 -1.02709 4.0436 0
M  V30 1152 H 101.62 -1.32727 2.9425 0
M  V30 1153 H 100.672 0.97888 3.6759 0
M  V30 1154 H 101.984 1.0703 4.87182 0
M  V30 1155 H 101.138 -1.00695 5.98285 0
M  V30 1156 H 99.8769 -1.18646 4.73048 0
M  V30 1157 H 98.8819 1.01813 5.40291 0
M  V30 1158 H 100.107 1.18409 6.68697 0
M  V30 1159 H 98.0529 -1.04994 6.47543 0
M  V30 1160 H 97.9699 0.304262 7.55387 0
M  V30 1161 H 99.2379 -0.869224 7.74638 0
M  V30 1162 N 103.467 -1.45747 0.599634 0
M  V30 1163 C 104.715 -2.01893 0.0915472 0
M  V30 1164 C 105.036 -1.47155 -1.27946 0
M  V30 1165 O 104.306 -0.66273 -1.84349 0
M  V30 1166 H 102.886 -0.746363 0.0308524 0
M  V30 1167 H 105.548 -1.78645 0.779237 0
M  V30 1168 H 104.644 -3.1208 0.0353086 0
M  V30 1169 N 104.945 -0.338344 -1.53925 0
M  V30 1170 C 106.194 0.260732 -2.00008 0
M  V30 1171 C 106.507 1.52073 -1.23017 0
M  V30 1172 O 107.713 2.19672 -1.5955 0
M  V30 1173 C 106.169 0.51515 -3.56194 0
M  V30 1174 C 105.777 -0.728645 -4.42035 0
M  V30 1175 C 107.521 1.07337 -4.10706 0
M  V30 1176 C 105.428 -0.445315 -5.89721 0
M  V30 1177 H 104.358 0.101205 -0.747177 0
M  V30 1178 H 107.009 -0.452866 -1.77824 0
M  V30 1179 H 105.391 1.28932 -3.74423 0
M  V30 1180 H 106.565 -1.50352 -4.35581 0
M  V30 1181 H 104.88 -1.20813 -3.98489 0
M  V30 1182 H 107.477 1.30022 -5.18651 0
M  V30 1183 H 107.82 2.0273 -3.63602 0
M  V30 1184 H 108.353 0.360034 -3.96167 0
M  V30 1185 H 105.092 -1.36883 -6.41049 0
M  V30 1186 H 104.612 0.291569 -5.99091 0
M  V30 1187 H 106.291 -0.0606218 -6.46972 0
M  V30 1188 N 106.423 1.57458 -0.0668435 0
M  V30 1189 C 107.669 1.93587 0.6043 0
M  V30 1190 C 108.002 0.946722 1.69561 0
M  V30 1191 O 107.277 -0.0248516 1.94484 0
M  V30 1192 C 107.56 3.40014 1.18585 0
M  V30 1193 C 107.413 4.49685 0.101529 0
M  V30 1194 C 108.732 3.87154 2.09284 0
M  V30 1195 H 105.851 0.703958 0.218202 0
M  V30 1196 H 108.493 1.89542 -0.131804 0
M  V30 1197 H 106.643 3.43592 1.81319 0
M  V30 1198 H 108.315 4.5823 -0.531279 0
M  V30 1199 H 106.558 4.30059 -0.568487 0
M  V30 1200 H 107.229 5.49266 0.54874 0
M  V30 1201 H 109.705 3.85551 1.56491 0
M  V30 1202 H 108.581 4.90231 2.46911 0
M  V30 1203 H 108.842 3.2481 2.99918 0
M  V30 1204 N 107.901 -0.206675 1.56239 0
M  V30 1205 C 109.131 -0.943975 1.83773 0
M  V30 1206 C 109.539 -1.77841 0.645703 0
M  V30 1207 O 108.882 -1.79403 -0.395008 0
M  V30 1208 C 108.944 -1.899 3.05251 0
M  V30 1209 C 108.608 -1.24764 4.39639 0
M  V30 1210 C 109.605 -0.630216 5.16066 0
M  V30 1211 C 107.29 -1.25496 4.8637 0
M  V30 1212 C 109.284 -0.0287946 6.37393 0
M  V30 1213 C 106.971 -0.649698 6.07637 0
M  V30 1214 C 107.969 -0.0376845 6.8299 0
M  V30 1215 O 107.657 0.55812 8.0196 0
M  V30 1216 H 107.389 -0.281508 0.614597 0
M  V30 1217 H 109.943 -0.222458 2.04192 0
M  V30 1218 H 108.173 -2.6599 2.80689 0
M  V30 1219 H 109.862 -2.5031 3.1953 0
M  V30 1220 H 110.628 -0.616785 4.81062 0
M  V30 1221 H 106.507 -1.72072 4.27683 0
M  V30 1222 H 110.051 0.449518 6.9615 0
M  V30 1223 H 105.948 -0.660592 6.42111 0
M  V30 1224 H 106.716 0.453891 8.17241 0
M  V30 1225 N 109.379 -1.50304 -0.473955 0
M  V30 1226 C 110.342 -1.6841 -1.55469 0
M  V30 1227 C 111.342 -0.554905 -1.50922 0
M  V30 1228 O 112.532 -0.821882 -1.53593 0
M  V30 1229 C 109.664 -1.70667 -2.95102 0
M  V30 1230 H 110.857 -2.64828 -1.40733 0
M  V30 1231 H 108.41 -1.39742 -0.700132 0
M  V30 1232 H 109.145 -0.75932 -3.15285 0
M  V30 1233 H 108.93 -2.52698 -2.9981 0
M  V30 1234 H 110.42 -1.8664 -3.73571 0
M  V30 1235 N 110.857 0.726932 -1.39834 0
M  V30 1236 C 112.106 1.48214 -1.36805 0
M  V30 1237 C 112.419 1.95576 0.0305291 0
M  V30 1238 O 113.625 2.7088 0.183417 0
M  V30 1239 C 112.081 2.67854 -2.40379 0
M  V30 1240 C 111.689 2.27408 -3.85992 0
M  V30 1241 C 113.433 3.45641 -2.46439 0
M  V30 1242 C 111.34 3.43819 -4.81189 0
M  V30 1243 H 110.27 0.556606 -0.508631 0
M  V30 1244 H 112.921 0.792216 -1.65518 0
M  V30 1245 H 111.303 3.3896 -2.04749 0
M  V30 1246 H 112.477 1.63795 -4.30706 0
M  V30 1247 H 110.792 1.62692 -3.83302 0
M  V30 1248 H 113.389 4.32244 -3.14753 0
M  V30 1249 H 113.732 3.88669 -1.49139 0
M  V30 1250 H 114.265 2.8157 -2.81004 0
M  V30 1251 H 111.004 3.05834 -5.79781 0
M  V30 1252 H 110.524 4.06385 -4.41148 0
M  V30 1253 H 112.203 4.10043 -5.00474 0
M  V30 1254 N 112.336 1.25143 0.95797 0
M  V30 1255 C 113.561 1.12521 1.74223 0
M  V30 1256 C 113.986 -0.317402 1.85403 0
M  V30 1257 O 113.344 -1.2299 1.33204 0
M  V30 1258 C 113.392 1.78062 3.1357 0
M  V30 1259 O 112.496 1.058 3.98598 0
M  V30 1260 H 111.837 0.39304 0.535178 0
M  V30 1261 H 114.367 1.65641 1.201 0
M  V30 1262 H 114.377 1.84213 3.64046 0
M  V30 1263 H 113.052 2.83021 3.04749 0
M  V30 1264 H 111.629 1.07506 3.57067 0
M  V30 1265 N 113.814 -1.1601 1.06675 0
M  V30 1266 C 115.225 -1.68235 0.809565 0
M  V30 1267 C 115.576 -1.8454 -0.666303 0
M  V30 1268 O 114.701 -1.54374 -1.5165 0
M  V30 1269 C 115.296 -3.05585 1.46299 0
M  V30 1270 C 113.855 -3.54915 1.25349 0
M  V30 1271 C 113.002 -2.30804 1.53703 0
M  V30 1272 H 115.953 -1.00318 1.22971 0
M  V30 1273 H 115.974 -3.70174 0.880431 0
M  V30 1274 H 115.486 -2.93686 2.53713 0
M  V30 1275 H 113.587 -3.72067 0.199261 0
M  V30 1276 H 113.7 -4.36774 1.9689 0
M  V30 1277 H 112.064 -2.36007 0.957739 0
M  V30 1278 H 112.847 -2.21499 2.62284 0
M  V30 1279 N 115.292 -0.849877 -1.32721 0
M  V30 1280 C 116.569 -0.372405 -1.92022 0
M  V30 1281 C 116.949 1.1435 -1.77447 0
M  V30 1282 O 116.297 1.96296 -1.16962 0
M  V30 1283 C 116.507 -0.831482 -3.3895 0
M  V30 1284 C 117.855 -0.845882 -4.16089 0
M  V30 1285 O 118.879 -0.775806 -3.47649 0
M  V30 1286 O 117.738 -0.943753 -5.38289 0
M  V30 1287 H 114.832 -0.107667 -0.819961 0
M  V30 1288 H 117.378 -0.93646 -1.41522 0
M  V30 1289 H 116.15 -1.87448 -3.4348 0
M  V30 1290 H 115.773 -0.24461 -3.96847 0
M  V30 1291 N 116.77 1.45427 -0.607355 0
M  V30 1292 C 118.186 1.57283 -0.270985 0
M  V30 1293 C 118.386 1.59875 1.22647 0
M  V30 1294 O 117.442 1.52893 2.00948 0
M  V30 1295 C 118.755 2.85566 -0.941952 0
M  V30 1296 C 120.303 2.9924 -0.917849 0
M  V30 1297 C 120.778 4.30293 -1.56882 0
M  V30 1298 N 122.269 4.37051 -1.5343 0
M  V30 1299 C 123.004 5.37123 -2.00715 0
M  V30 1300 N 122.5 6.43734 -2.56084 0
M  V30 1301 N 124.293 5.28479 -1.91484 0
M  V30 1302 H 116.444 1.41988 -1.57966 0
M  V30 1303 H 118.707 0.67885 -0.661715 0
M  V30 1304 H 118.413 2.8955 -1.99633 0
M  V30 1305 H 118.287 3.74322 -0.465096 0
M  V30 1306 H 120.674 2.94822 0.127984 0
M  V30 1307 H 120.755 2.11895 -1.43297 0
M  V30 1308 H 120.399 4.35469 -2.61398 0
M  V30 1309 H 120.329 5.16454 -1.02873 0
M  V30 1310 H 122.82 3.60615 -1.12982 0
M  V30 1311 H 123.133 7.16341 -2.89958 0
M  V30 1312 H 121.478 6.44485 -2.60122 0
M  V30 1313 H 124.669 4.44098 -1.47967 0
M  V30 1314 H 124.842 6.0632 -2.28648 0
M  V30 1315 N 118.248 0.346503 1.53744 0
M  V30 1316 C 119.495 -0.249104 2.00962 0
M  V30 1317 C 119.823 -1.5032 1.23426 0
M  V30 1318 O 119.078 -1.93217 0.310761 0
M  V30 1319 C 119.377 -0.605809 3.52228 0
M  V30 1320 C 119.043 0.551747 4.47512 0
M  V30 1321 C 117.705 0.86941 4.73281 0
M  V30 1322 C 120.057 1.32818 5.03993 0
M  V30 1323 C 117.385 1.96582 5.52786 0
M  V30 1324 C 119.737 2.41486 5.84694 0
M  V30 1325 C 118.401 2.73808 6.08757 0
M  V30 1326 H 117.671 -0.0911538 0.735372 0
M  V30 1327 H 120.318 0.475027 1.85515 0
M  V30 1328 H 118.623 -1.4107 3.65522 0
M  V30 1329 H 120.32 -1.07858 3.86222 0
M  V30 1330 H 116.91 0.294102 4.2759 0
M  V30 1331 H 121.094 1.09602 4.84047 0
M  V30 1332 H 116.35 2.22045 5.69654 0
M  V30 1333 H 120.524 3.02078 6.27473 0
M  V30 1334 H 118.151 3.58892 6.7015 0
M  V30 1335 N 119.726 -1.57421 0.075193 0
M  V30 1336 C 121.142 -1.57099 -0.281444 0
M  V30 1337 C 121.342 -1.08486 -1.69803 0
M  V30 1338 O 120.398 -0.752279 -2.41033 0
M  V30 1339 C 121.711 -3.00571 -0.0880041 0
M  V30 1340 C 123.259 -3.12605 -0.157281 0
M  V30 1341 C 123.734 -4.57999 0.0079207 0
M  V30 1342 N 125.225 -4.63176 -0.0475725 0
M  V30 1343 C 125.96 -5.73373 0.0557876 0
M  V30 1344 N 125.456 -6.92473 0.21286 0
M  V30 1345 N 127.249 -5.621 -0.00152098 0
M  V30 1346 H 119.4 -1.87335 1.00098 0
M  V30 1347 H 121.663 -0.86377 0.390646 0
M  V30 1348 H 121.369 -3.40262 0.889629 0
M  V30 1349 H 121.243 -3.67754 -0.838875 0
M  V30 1350 H 123.63 -2.72798 -1.1254 0
M  V30 1351 H 123.711 -2.48053 0.62475 0
M  V30 1352 H 123.355 -4.98496 0.972824 0
M  V30 1353 H 123.285 -5.20586 -0.793556 0
M  V30 1354 H 125.776 -3.7753 -0.167244 0
M  V30 1355 H 126.089 -7.72279 0.283781 0
M  V30 1356 H 124.434 -6.94556 0.248267 0
M  V30 1357 H 127.625 -4.67938 -0.122958 0
M  V30 1358 H 127.798 -6.47948 0.0824844 0
M  V30 1359 N 121.204 0.198386 -1.56346 0
M  V30 1360 C 122.429 0.939682 -1.84891 0
M  V30 1361 C 122.854 1.76202 -0.658369 0
M  V30 1362 O 122.212 1.76993 0.392851 0
M  V30 1363 C 122.26 1.81428 -3.11635 0
M  V30 1364 O 121.364 2.91265 -2.91956 0
M  V30 1365 H 120.705 0.264807 -0.608912 0
M  V30 1366 H 123.235 0.204695 -2.03573 0
M  V30 1367 H 123.245 2.21958 -3.42343 0
M  V30 1368 H 121.92 1.21004 -3.97908 0
M  V30 1369 H 120.497 2.54514 -2.72538 0
M  V30 1370 N 122.682 1.50554 0.465978 0
M  V30 1371 C 123.929 1.61798 1.21768 0
M  V30 1372 C 124.257 0.320696 1.91838 0
M  V30 1373 O 123.512 -0.693724 1.82992 0
M  V30 1374 C 123.811 2.75152 2.28093 0
M  V30 1375 C 123.477 4.15454 1.75239 0
M  V30 1376 C 122.139 4.53628 1.60546 0
M  V30 1377 C 124.491 5.03121 1.36083 0
M  V30 1378 C 121.819 5.77204 1.05128 0
M  V30 1379 C 124.171 6.27249 0.821056 0
M  V30 1380 C 122.835 6.64221 0.660795 0
M  V30 1381 H 122.105 0.592063 0.445582 0
M  V30 1382 H 124.752 1.84503 0.512927 0
M  V30 1383 H 123.057 2.46556 3.04496 0
M  V30 1384 H 124.754 2.81055 2.86023 0
M  V30 1385 H 121.344 3.85341 1.87644 0
M  V30 1386 H 125.528 4.74257 1.46267 0
M  V30 1387 H 120.784 6.0452 0.91462 0
M  V30 1388 H 124.958 6.94537 0.509018 0
M  V30 1389 H 122.585 7.59854 0.229226 0
M  V30 1390 N 124.16 -0.719506 1.40217 0
M  V30 1391 C 125.07 -1.86378 1.42479 0
M  V30 1392 C 126.086 -1.71073 0.317834 0
M  V30 1393 O 127.262 -1.93406 0.561794 0
M  V30 1394 C 124.327 -3.22136 1.28178 0
M  V30 1395 C 123.388 -3.49723 2.48982 0
M  V30 1396 C 122.621 -4.79004 2.35353 0
M  V30 1397 O 122.844 -5.53821 1.36524 0
M  V30 1398 O 121.778 -5.06839 3.2465 0
M  V30 1399 H 125.604 -1.87425 2.38968 0
M  V30 1400 H 123.189 -0.869405 1.21498 0
M  V30 1401 H 125.071 -4.03234 1.22395 0
M  V30 1402 H 123.746 -3.21825 0.347934 0
M  V30 1403 H 122.653 -2.6865 2.60342 0
M  V30 1404 H 123.986 -3.54828 3.41113 0
M  V30 1405 N 125.638 -1.25649 -0.95132 0
M  V30 1406 C 126.601 -1.06399 -2.03007 0
M  V30 1407 C 127.601 -0.0156794 -1.60792 0
M  V30 1408 O 128.791 -0.25817 -1.72276 0
M  V30 1409 C 125.923 -0.616184 -3.35285 0
M  V30 1410 H 127.116 -2.02164 -2.21517 0
M  V30 1411 H 124.669 -1.08103 -1.12887 0
M  V30 1412 H 125.404 0.343917 -3.22471 0
M  V30 1413 H 125.189 -1.37301 -3.67275 0
M  V30 1414 H 126.679 -0.503032 -4.14559 0
M  V30 1415 N 127.117 1.15442 -1.07289 0
M  V30 1416 C 128.047 2.22312 -0.714107 0
M  V30 1417 C 129.028 1.67467 0.298155 0
M  V30 1418 O 130.213 1.93445 0.171048 0
M  V30 1419 C 127.343 3.47124 -0.110448 0
M  V30 1420 C 126.297 4.14926 -1.04979 0
M  V30 1421 C 125.623 5.33807 -0.308924 0
M  V30 1422 C 126.923 4.64762 -2.38314 0
M  V30 1423 H 128.617 2.5258 -1.6076 0
M  V30 1424 H 126.163 1.21404 -0.77441 0
M  V30 1425 H 128.116 4.21124 0.152482 0
M  V30 1426 H 126.84 3.16187 0.81812 0
M  V30 1427 H 125.499 3.42866 -1.29764 0
M  V30 1428 H 125.147 4.99126 0.623084 0
M  V30 1429 H 124.847 5.80113 -0.935036 0
M  V30 1430 H 126.371 6.10576 -0.0537771 0
M  V30 1431 H 127.785 5.30292 -2.1786 0
M  V30 1432 H 126.182 5.21728 -2.96514 0
M  V30 1433 H 127.252 3.80434 -3.00663 0
M  V30 1434 N 128.595 0.856903 1.32268 0
M  V30 1435 C 129.525 0.31858 2.31316 0
M  V30 1436 C 130.506 -0.583487 1.59779 0
M  V30 1437 O 131.691 -0.503259 1.87566 0
M  V30 1438 C 128.821 -0.491979 3.43798 0
M  V30 1439 C 127.775 0.315849 4.26833 0
M  V30 1440 C 127.101 -0.619586 5.31098 0
M  V30 1441 C 128.401 1.54282 4.98993 0
M  V30 1442 H 130.095 1.14621 2.76591 0
M  V30 1443 H 127.641 0.552613 1.32974 0
M  V30 1444 H 129.594 -0.879012 4.1213 0
M  V30 1445 H 128.318 -1.35299 2.97257 0
M  V30 1446 H 126.977 0.684664 3.6015 0
M  V30 1447 H 126.625 -1.47751 4.8081 0
M  V30 1448 H 126.325 -0.0830621 5.87541 0
M  V30 1449 H 127.849 -1.00375 6.02293 0
M  V30 1450 H 129.263 1.22796 5.59995 0
M  V30 1451 H 127.66 2.01745 5.65172 0
M  V30 1452 H 128.73 2.30285 4.26728 0
M  V30 1453 N 130.073 -1.45103 0.615059 0
M  V30 1454 C 131.036 -2.29025 -0.0895485 0
M  V30 1455 C 132.036 -1.40174 -0.787906 0
M  V30 1456 O 133.226 -1.62217 -0.634933 0
M  V30 1457 C 130.358 -3.21376 -1.13711 0
M  V30 1458 H 131.551 -2.92807 0.648382 0
M  V30 1459 H 129.104 -1.51749 0.374444 0
M  V30 1460 H 129.839 -2.6241 -1.90556 0
M  V30 1461 H 129.624 -3.86834 -0.640475 0
M  V30 1462 H 131.114 -3.84459 -1.63036 0
M  V30 1463 N 131.551 -0.354651 -1.53558 0
M  V30 1464 C 132.828 0.294281 -1.93374 0
M  V30 1465 C 133.208 1.67313 -1.28723 0
M  V30 1466 O 132.556 2.24179 -0.442247 0
M  V30 1467 C 132.766 0.355445 -3.47185 0
M  V30 1468 C 134.114 0.601007 -4.20325 0
M  V30 1469 O 135.138 0.437106 -3.53508 0
M  V30 1470 O 133.997 0.919322 -5.38712 0
M  V30 1471 H 131.091 0.174033 -0.808481 0
M  V30 1472 H 133.637 -0.406638 -1.64756 0
M  V30 1473 H 132.409 -0.611729 -3.86489 0
M  V30 1474 H 132.032 1.1027 -3.82003 0
M  V30 1475 N 133.029 1.57378 -0.0835403 0
M  V30 1476 C 133.959 2.1641 0.87686 0
M  V30 1477 C 134.94 1.09429 1.30228 0
M  V30 1478 O 136.125 1.37516 1.37124 0
M  V30 1479 C 133.255 2.73517 2.14022 0
M  V30 1480 C 132.209 3.85769 1.85381 0
M  V30 1481 C 131.535 4.29529 3.18448 0
M  V30 1482 C 132.835 5.09486 1.14984 0
M  V30 1483 H 134.529 2.96914 0.385059 0
M  V30 1484 H 132.075 1.42823 0.18377 0
M  V30 1485 H 134.028 3.13463 2.81636 0
M  V30 1486 H 132.752 1.90252 2.65465 0
M  V30 1487 H 131.411 3.46345 1.20169 0
M  V30 1488 H 131.059 3.43169 3.67755 0
M  V30 1489 H 130.759 5.05204 3.00071 0
M  V30 1490 H 132.283 4.72099 3.8724 0
M  V30 1491 H 133.697 5.46674 1.72687 0
M  V30 1492 H 132.094 5.90515 1.06826 0
M  V30 1493 H 133.164 4.84724 0.130749 0
M  V30 1494 N 134.507 -0.190092 1.56449 0
M  V30 1495 C 135.735 -0.925772 1.85033 0
M  V30 1496 C 136.15 -1.76638 0.666658 0
M  V30 1497 O 135.507 -1.78822 -0.364565 0
M  V30 1498 C 135.558 -1.81786 3.12468 0
M  V30 1499 O 135.279 -1.01118 4.26271 0
M  V30 1500 C 136.78 -2.6648 3.54265 0
M  V30 1501 H 134 -0.269872 0.614337 0
M  V30 1502 H 136.544 -0.195837 2.0356 0
M  V30 1503 H 134.699 -2.50136 2.95822 0
M  V30 1504 H 135.113 -1.61956 4.98869 0
M  V30 1505 H 136.587 -3.24722 4.46385 0
M  V30 1506 H 137.064 -3.40434 2.77491 0
M  V30 1507 H 137.67 -2.03493 3.73458 0
M  V30 1508 N 135.985 -1.50799 -0.457987 0
M  V30 1509 C 137.401 -1.38515 -0.792819 0
M  V30 1510 C 137.601 -0.451409 -1.96379 0
M  V30 1511 O 136.657 0.10112 -2.52297 0
M  V30 1512 C 137.97 -2.80149 -1.09258 0
M  V30 1513 C 139.518 -2.89156 -1.19825 0
M  V30 1514 C 139.993 -4.31651 -1.53106 0
M  V30 1515 N 141.484 -4.34662 -1.60072 0
M  V30 1516 C 142.219 -5.41928 -1.87354 0
M  V30 1517 N 141.715 -6.59384 -2.12568 0
M  V30 1518 N 143.508 -5.29385 -1.88965 0
M  V30 1519 H 135.659 -2.10073 0.313511 0
M  V30 1520 H 137.922 -0.944803 0.0777862 0
M  V30 1521 H 137.628 -3.50374 -0.305084 0
M  V30 1522 H 137.502 -3.18204 -2.02549 0
M  V30 1523 H 139.889 -2.19141 -1.97639 0
M  V30 1524 H 139.97 -2.54626 -0.244821 0
M  V30 1525 H 139.614 -5.02208 -0.758266 0
M  V30 1526 H 139.544 -4.63678 -2.49621 0
M  V30 1527 H 142.035 -3.49973 -1.42573 0
M  V30 1528 H 142.348 -7.36934 -2.32696 0
M  V30 1529 H 140.693 -6.62535 -2.09933 0
M  V30 1530 H 143.884 -4.36616 -1.68772 0
M  V30 1531 H 144.057 -6.13066 -2.09891 0
M  V30 1532 N 137.463 0.71206 -1.40597 0
M  V30 1533 C 138.691 1.50111 -1.42388 0
M  V30 1534 C 139.106 1.88784 -0.0245395 0
M  V30 1535 O 138.463 1.55681 0.952351 0
M  V30 1536 C 138.514 2.7742 -2.31776 0
M  V30 1537 O 138.235 2.40382 -3.66262 0
M  V30 1538 C 139.736 3.7129 -2.42196 0
M  V30 1539 H 136.956 0.46314 -0.485533 0
M  V30 1540 H 139.5 0.878068 -1.8469 0
M  V30 1541 H 137.655 3.36001 -1.92827 0
M  V30 1542 H 138.069 3.22324 -4.13772 0
M  V30 1543 H 139.543 4.57448 -3.08943 0
M  V30 1544 H 140.02 4.14641 -1.44809 0
M  V30 1545 H 140.626 3.18619 -2.81712 0
M  V30 1546 N 138.941 1.26152 0.944643 0
M  V30 1547 C 139.871 1.09902 2.06019 0
M  V30 1548 C 140.852 0.00519538 1.70099 0
M  V30 1549 O 142.037 0.176583 1.93396 0
M  V30 1550 C 139.167 0.727562 3.39594 0
M  V30 1551 C 138.121 1.77274 3.89561 0
M  V30 1552 C 137.447 1.25569 5.19747 0
M  V30 1553 C 138.747 3.17357 4.14827 0
M  V30 1554 H 140.441 2.03217 2.19871 0
M  V30 1555 H 137.987 0.978452 1.05652 0
M  V30 1556 H 139.94 0.600777 4.17095 0
M  V30 1557 H 138.664 -0.241287 3.25707 0
M  V30 1558 H 137.323 1.88814 3.14237 0
M  V30 1559 H 136.971 0.276783 5.02238 0
M  V30 1560 H 136.671 1.95433 5.54148 0
M  V30 1561 H 138.195 1.1415 5.99835 0
M  V30 1562 H 139.609 3.08914 4.82954 0
M  V30 1563 H 138.006 3.84781 4.60504 0
M  V30 1564 H 139.076 3.63673 3.20734 0
M  V30 1565 N 140.419 -1.14872 1.07899 0
M  V30 1566 C 141.644 -1.90202 0.826926 0
M  V30 1567 C 142.069 -1.77774 -0.614664 0
M  V30 1568 O 141.427 -1.11431 -1.43013 0
M  V30 1569 C 141.475 -3.38352 1.24702 0
M  V30 1570 O 140.579 -4.10497 0.39575 0
M  V30 1571 H 139.92 -0.591968 0.300782 0
M  V30 1572 H 142.45 -1.45437 1.43907 0
M  V30 1573 H 142.46 -3.89156 1.22563 0
M  V30 1574 H 141.135 -3.46715 2.29698 0
M  V30 1575 H 139.712 -3.69796 0.480117 0
M  V30 1576 N 141.898 -0.863906 -1.31812 0
M  V30 1577 C 143.175 -0.39275 -1.91616 0
M  V30 1578 C 143.555 1.12461 -1.7865 0
M  V30 1579 O 142.903 1.95045 -1.19037 0
M  V30 1580 C 143.113 -0.867385 -3.38049 0
M  V30 1581 C 144.461 -0.889966 -4.15168 0
M  V30 1582 O 145.485 -0.812635 -3.46806 0
M  V30 1583 O 144.344 -1.00079 -5.37258 0
M  V30 1584 H 141.438 -0.116358 -0.818773 0
M  V30 1585 H 143.984 -0.951418 -1.40521 0
M  V30 1586 H 142.756 -1.91081 -3.41473 0
M  V30 1587 H 142.379 -0.286687 -3.96565 0
M  V30 1588 N 143.376 1.44774 -0.622745 0
M  V30 1589 C 144.324 2.32387 0.0994683 0
M  V30 1590 C 145.318 1.46859 0.844326 0
M  V30 1591 O 146.524 1.63254 0.758174 0
M  V30 1592 H 142.899 0.750273 0.0509291 0
M  V30 1593 H 144.87 2.91062 -0.65767 0
M  V30 1594 C 143.619 3.30723 1.07319 0
M  V30 1595 H 142.942 3.96541 0.509462 0
M  V30 1596 H 144.382 3.94725 1.54817 0
M  V30 1597 C 142.841 2.59021 2.15429 0
M  V30 1598 O 143.371 2.38286 3.23393 0
M  V30 1599 N 141.577 2.189 1.91131 0
M  V30 1600 H 141.124 2.35964 1.03337 0
M  V30 1601 H 141.082 1.71251 2.63668 0
M  V30 1602 N 144.854 0.36279 1.53368 0
M  V30 1603 C 146.1 -0.228113 2.01513 0
M  V30 1604 C 146.433 -1.48648 1.2497 0
M  V30 1605 O 145.708 -1.91459 0.342616 0
M  V30 1606 C 145.991 -0.522884 3.56284 0
M  V30 1607 C 145.844 0.74892 4.43521 0
M  V30 1608 C 147.163 -1.32461 4.19693 0
M  V30 1609 H 144.282 -0.0814343 0.732487 0
M  V30 1610 H 146.924 0.48713 1.83649 0
M  V30 1611 H 145.074 -1.1322 3.71636 0
M  V30 1612 H 146.746 1.38648 4.39971 0
M  V30 1613 H 144.989 1.36986 4.11603 0
M  V30 1614 H 145.66 0.497667 5.49752 0
M  V30 1615 H 148.136 -0.809203 4.08156 0
M  V30 1616 H 147.012 -1.49961 5.28018 0
M  V30 1617 H 147.273 -2.33232 3.75573 0
M  V30 1618 N 146.332 -1.57332 0.0918853 0
M  V30 1619 C 147.28 -2.15075 -0.885747 0
M  V30 1620 C 148.274 -1.09277 -1.29441 0
M  V30 1621 O 149.48 -1.27627 -1.26931 0
M  V30 1622 H 145.855 -0.687966 -0.303656 0
M  V30 1623 H 147.826 -2.96047 -0.373995 0
M  V30 1624 C 146.575 -2.74325 -2.13638 0
M  V30 1625 H 145.898 -3.55418 -1.8308 0
M  V30 1626 H 147.338 -3.183 -2.80109 0
M  V30 1627 C 145.797 -1.70062 -2.90827 0
M  V30 1628 O 146.327 -1.13763 -3.85254 0
M  V30 1629 N 144.533 -1.40628 -2.54307 0
M  V30 1630 H 144.08 -1.866 -1.7759 0
M  V30 1631 H 144.038 -0.711043 -3.06254 0
M  V30 1632 N 147.81 0.181792 -1.56548 0
M  V30 1633 C 148.74 1.22765 -1.98623 0
M  V30 1634 C 149.721 1.46747 -0.860189 0
M  V30 1635 O 150.906 1.58259 -1.12551 0
M  V30 1636 C 148.036 2.56894 -2.33715 0
M  V30 1637 C 146.99 2.475 -3.49182 0
M  V30 1638 C 146.316 3.86023 -3.69986 0
M  V30 1639 C 147.616 1.98866 -4.82959 0
M  V30 1640 H 149.31 0.877942 -2.86239 0
M  V30 1641 H 146.856 0.42088 -1.37712 0
M  V30 1642 H 148.809 3.30253 -2.61746 0
M  V30 1643 H 147.533 2.93632 -1.42997 0
M  V30 1644 H 146.192 1.76596 -3.21262 0
M  V30 1645 H 145.84 4.20136 -2.76576 0
M  V30 1646 H 145.54 3.80609 -4.47672 0
M  V30 1647 H 147.064 4.60984 -4.00407 0
M  V30 1648 H 148.478 2.61992 -5.09934 0
M  V30 1649 H 146.875 2.04424 -5.64208 0
M  V30 1650 H 147.945 0.942465 -4.75653 0
M  V30 1651 N 149.288 1.51039 0.449983 0
M  V30 1652 C 150.699 1.557 1.03026 0
M  V30 1653 C 151.05 0.372939 1.92623 0
M  V30 1654 O 150.175 -0.511771 2.10261 0
M  V30 1655 C 150.77 2.82171 1.87523 0
M  V30 1656 C 149.329 2.89444 2.40622 0
M  V30 1657 C 148.476 2.50228 1.19504 0
M  V30 1658 H 151.427 1.56999 0.231745 0
M  V30 1659 H 151.448 2.65219 2.72835 0
M  V30 1660 H 150.96 3.68331 1.22286 0
M  V30 1661 H 149.061 2.07685 3.0935 0
M  V30 1662 H 149.174 3.92816 2.74285 0
M  V30 1663 H 147.538 2.03139 1.53644 0
M  V30 1664 H 148.321 3.38719 0.558972 0
M  V30 1665 N 150.766 -0.704594 1.40972 0
M  V30 1666 C 151.698 -1.82974 1.38033 0
M  V30 1667 C 152.711 -1.60305 0.283931 0
M  V30 1668 O 153.9 -1.69975 0.545042 0
M  V30 1669 C 151 -3.19578 1.12795 0
M  V30 1670 C 150.173 -3.69352 2.34302 0
M  V30 1671 C 149.232 -4.84601 2.05058 0
M  V30 1672 O 148.258 -4.96682 2.7802 0
M  V30 1673 N 149.46 -5.71194 1.03528 0
M  V30 1674 H 152.225 -1.85991 2.35005 0
M  V30 1675 H 149.786 -0.886567 1.35468 0
M  V30 1676 H 151.778 -3.9429 0.911987 0
M  V30 1677 H 150.348 -3.11642 0.24452 0
M  V30 1678 H 149.568 -2.85649 2.71659 0
M  V30 1679 H 150.856 -3.99345 3.1528 0
M  V30 1680 H 150.254 -5.64054 0.431217 0
M  V30 1681 H 148.811 -6.45843 0.879205 0
M  V30 1682 N 152.244 -1.26651 -0.937939 0
M  V30 1683 C 153.492 -1.12165 -1.68118 0
M  V30 1684 C 153.813 0.334983 -1.92101 0
M  V30 1685 O 153.083 1.23583 -1.52 0
M  V30 1686 H 151.663 -0.412093 -0.623048 0
M  V30 1687 H 154.325 -1.59027 -1.12678 0
M  V30 1688 H 153.421 -1.64289 -2.6536 0
M  V30 1689 N 153.722 1.14298 -1.08507 0
M  V30 1690 C 154.968 1.85633 -0.816581 0
M  V30 1691 C 155.301 1.82784 0.656021 0
M  V30 1692 O 154.576 1.25926 1.48233 0
M  V30 1693 C 154.859 3.34223 -1.34041 0
M  V30 1694 C 154.712 3.45639 -2.87843 0
M  V30 1695 C 156.031 4.29356 -0.9665 0
M  V30 1696 H 153.15 0.67402 -0.298104 0
M  V30 1697 H 155.792 1.34214 -1.34487 0
M  V30 1698 H 153.942 3.78144 -0.89104 0
M  V30 1699 H 155.614 3.10498 -3.41158 0
M  V30 1700 H 153.857 2.86817 -3.25451 0
M  V30 1701 H 154.528 4.50089 -3.19569 0
M  V30 1702 H 157.004 3.93457 -1.35391 0
M  V30 1703 H 155.88 5.3178 -1.3602 0
M  V30 1704 H 156.141 4.41919 0.126362 0
M  V30 1705 N 155.201 0.870884 1.31352 0
M  V30 1706 C 156.617 0.562932 1.49343 0
M  V30 1707 C 156.817 -0.902725 1.80148 0
M  V30 1708 O 155.873 -1.68484 1.88067 0
M  V30 1709 C 157.186 1.46393 2.62659 0
M  V30 1710 C 158.734 1.46607 2.76542 0
M  V30 1711 C 159.209 2.35266 3.92955 0
M  V30 1712 N 160.7 2.33151 4.00243 0
M  V30 1713 C 161.435 2.98471 4.89594 0
M  V30 1714 N 160.931 3.72964 5.8384 0
M  V30 1715 N 162.724 2.87775 4.82848 0
M  V30 1716 H 154.875 1.81923 1.09626 0
M  V30 1717 H 157.138 0.777934 0.541777 0
M  V30 1718 H 156.844 2.50689 2.46674 0
M  V30 1719 H 156.718 1.16314 3.58819 0
M  V30 1720 H 159.105 0.43069 2.9194 0
M  V30 1721 H 159.186 1.8071 1.81046 0
M  V30 1722 H 158.83 3.38881 3.78315 0
M  V30 1723 H 158.76 1.98487 4.87761 0
M  V30 1724 H 161.251 1.79006 3.32814 0
M  V30 1725 H 161.564 4.19932 6.4875 0
M  V30 1726 H 159.909 3.77073 5.83816 0
M  V30 1727 H 163.1 2.29116 4.08195 0
M  V30 1728 H 163.273 3.38961 5.52277 0
M  V30 1729 N 156.679 -1.44442 0.630414 0
M  V30 1730 C 157.907 -2.06414 0.141671 0
M  V30 1731 C 158.322 -1.47105 -1.18345 0
M  V30 1732 O 157.679 -0.593662 -1.72574 0
M  V30 1733 C 157.73 -3.61494 0.0199784 0
M  V30 1734 O 157.451 -4.18594 1.29269 0
M  V30 1735 C 158.952 -4.40499 -0.497544 0
M  V30 1736 H 156.172 -0.666292 0.0793452 0
M  V30 1737 H 158.716 -1.85323 0.864614 0
M  V30 1738 H 156.871 -3.8185 -0.653402 0
M  V30 1739 H 157.285 -5.12026 1.13707 0
M  V30 1740 H 158.759 -5.49433 -0.531708 0
M  V30 1741 H 159.236 -4.11895 -1.52445 0
M  V30 1742 H 159.842 -4.25061 0.142562 0
M  V30 1743 N 158.157 -0.370918 -1.53173 0
M  V30 1744 C 159.406 0.218249 -2.00516 0
M  V30 1745 C 159.719 1.49429 -1.26215 0
M  V30 1746 O 160.925 2.16239 -1.64174 0
M  V30 1747 C 159.381 0.43948 -3.57207 0
M  V30 1748 C 158.989 -0.822244 -4.4039 0
M  V30 1749 C 160.733 0.986012 -4.1289 0
M  V30 1750 C 158.64 -0.570304 -5.88644 0
M  V30 1751 H 157.57 0.0853333 -0.749156 0
M  V30 1752 H 160.221 -0.490483 -1.76823 0
M  V30 1753 H 158.603 1.20961 -3.77074 0
M  V30 1754 H 159.777 -1.59557 -4.32294 0
M  V30 1755 H 158.092 -1.29238 -3.95836 0
M  V30 1756 H 160.689 1.18991 -5.21292 0
M  V30 1757 H 161.032 1.94972 -3.6782 0
M  V30 1758 H 161.565 0.27592 -3.96842 0
M  V30 1759 H 158.304 -1.50449 -6.38001 0
M  V30 1760 H 157.824 0.164427 -5.99575 0
M  V30 1761 H 159.503 -0.19784 -6.46697 0
M  V30 1762 N 159.635 1.57281 -0.100228 0
M  V30 1763 C 160.865 1.98591 0.569681 0
M  V30 1764 C 161.273 0.978315 1.61943 0
M  V30 1765 O 160.616 -0.0396108 1.83657 0
M  V30 1766 C 160.678 3.36282 1.271 0
M  V30 1767 C 160.342 4.55488 0.371409 0
M  V30 1768 C 161.339 5.18491 -0.382504 0
M  V30 1769 C 159.024 5.01474 0.287965 0
M  V30 1770 C 161.018 6.25852 -1.20779 0
M  V30 1771 C 158.705 6.08701 -0.540965 0
M  V30 1772 C 159.703 6.70755 -1.28749 0
M  V30 1773 O 159.391 7.75914 -2.10269 0
M  V30 1774 H 159.123 0.65752 0.156982 0
M  V30 1775 H 161.677 2.0463 -0.177734 0
M  V30 1776 H 159.907 3.26941 2.0651 0
M  V30 1777 H 161.596 3.62005 1.83595 0
M  V30 1778 H 162.362 4.83891 -0.3278 0
M  V30 1779 H 158.241 4.52932 0.858689 0
M  V30 1780 H 161.785 6.74218 -1.79096 0
M  V30 1781 H 157.682 6.42732 -0.597131 0
M  V30 1782 H 158.45 7.92925 -2.03007 0
M  V30 1783 N 161.113 -0.173488 1.56642 0
M  V30 1784 C 162.341 -0.906095 1.86004 0
M  V30 1785 C 162.756 -1.75921 0.685355 0
M  V30 1786 O 162.113 -1.79198 -0.345578 0
M  V30 1787 C 162.164 -1.78462 3.14378 0
M  V30 1788 O 161.885 -0.965914 4.27319 0
M  V30 1789 C 163.386 -2.62707 3.57071 0
M  V30 1790 H 160.606 -0.263341 0.617165 0
M  V30 1791 H 163.15 -0.174236 2.03756 0
M  V30 1792 H 161.305 -2.46984 2.98459 0
M  V30 1793 H 161.719 -1.56655 5.00559 0
M  V30 1794 H 163.193 -3.19969 4.49804 0
M  V30 1795 H 163.67 -3.37472 2.81086 0
M  V30 1796 H 164.276 -1.99521 3.75595 0
M  V30 1797 N 162.591 -1.51276 -0.441967 0
M  V30 1798 C 163.84 -1.6295 -1.18871 0
M  V30 1799 C 164.153 -0.349312 -1.92456 0
M  V30 1800 O 165.359 -0.345355 -2.69295 0
M  V30 1801 C 163.815 -2.87759 -2.16155 0
M  V30 1802 C 163.423 -4.22764 -1.48239 0
M  V30 1803 C 165.167 -3.08788 -2.91291 0
M  V30 1804 C 163.074 -5.38728 -2.4398 0
M  V30 1805 H 162.004 -0.606913 -0.447406 0
M  V30 1806 H 164.655 -1.77739 -0.456205 0
M  V30 1807 H 163.037 -2.66593 -2.92821 0
M  V30 1808 H 164.211 -4.54293 -0.771635 0
M  V30 1809 H 162.526 -4.07575 -0.852741 0
M  V30 1810 H 165.123 -3.92599 -3.63002 0
M  V30 1811 H 165.466 -2.21679 -3.5237 0
M  V30 1812 H 165.999 -3.30272 -2.21733 0
M  V30 1813 H 162.738 -6.28082 -1.87598 0
M  V30 1814 H 162.258 -5.1158 -3.13123 0
M  V30 1815 H 163.937 -5.70489 -3.05207 0
M  V30 1816 N 164.069 0.697108 -1.41344 0
M  V30 1817 C 165.346 1.45154 -1.31109 0
M  V30 1818 C 165.726 2.11009 0.0620449 0
M  V30 1819 O 165.074 2.01571 1.07618 0
M  V30 1820 C 165.284 2.47223 -2.46337 0
M  V30 1821 C 166.632 3.1252 -2.87431 0
M  V30 1822 O 167.656 2.57547 -2.46065 0
M  V30 1823 O 166.515 4.12083 -3.58957 0
M  V30 1824 H 163.609 0.646365 -0.515889 0
M  V30 1825 H 166.155 0.727716 -1.53305 0
M  V30 1826 H 164.927 1.97204 -3.37974 0
M  V30 1827 H 164.55 3.27116 -2.2601 0
M  V30 1828 N 165.547 1.27147 0.931209 0
M  V30 1829 C 166.795 1.13055 1.6752 0
M  V30 1830 C 167.116 -0.324791 1.92276 0
M  V30 1831 O 166.386 -1.22775 1.52654 0
M  V30 1832 H 164.966 0.415391 0.620854 0
M  V30 1833 H 167.628 1.59623 1.11833 0
M  V30 1834 H 166.724 1.65694 2.64485 0
M  V30 1835 N 167.025 -1.13721 1.09112 0
M  V30 1836 C 167.955 -2.21148 0.749385 0
M  V30 1837 C 168.936 -1.6792 -0.271475 0
M  V30 1838 O 170.121 -1.93693 -0.140251 0
M  V30 1839 C 167.251 -3.46905 0.165659 0
M  V30 1840 C 166.205 -4.13203 1.11567 0
M  V30 1841 C 165.531 -5.33248 0.393809 0
M  V30 1842 C 166.831 -4.60912 2.45678 0
M  V30 1843 H 168.525 -2.4999 1.64758 0
M  V30 1844 H 166.071 -1.20156 0.793626 0
M  V30 1845 H 168.024 -4.21313 -0.085466 0
M  V30 1846 H 166.748 -3.17449 -0.767714 0
M  V30 1847 H 165.407 -3.40758 1.35202 0
M  V30 1848 H 165.055 -5.00054 -0.543599 0
M  V30 1849 H 164.755 -5.78552 1.02721 0
M  V30 1850 H 166.279 -6.10413 0.150908 0
M  V30 1851 H 167.693 -5.26759 2.26269 0
M  V30 1852 H 166.09 -5.16944 3.04776 0
M  V30 1853 H 167.16 -3.75603 3.06677 0
M  V30 1854 N 168.503 -0.877838 -1.30888 0
M  V30 1855 C 169.45 -0.337538 -2.28318 0
M  V30 1856 C 170.42 0.568346 -1.56074 0
M  V30 1857 O 171.605 0.498298 -1.84178 0
M  V30 1858 C 168.745 0.448142 -3.42178 0
M  V30 1859 C 167.858 -0.48615 -4.29256 0
M  V30 1860 C 166.993 0.314427 -5.30269 0
M  V30 1861 C 166.032 -0.615791 -6.08995 0
M  V30 1862 N 165.169 0.14902 -7.01942 0
M  V30 1863 H 170.009 -1.17356 -2.73919 0
M  V30 1864 H 167.546 -0.590094 -1.34745 0
M  V30 1865 H 169.504 0.919517 -4.06941 0
M  V30 1866 H 168.134 1.24879 -2.97666 0
M  V30 1867 H 167.186 -1.076 -3.64865 0
M  V30 1868 H 168.498 -1.19909 -4.84173 0
M  V30 1869 H 167.652 0.847969 -6.00745 0
M  V30 1870 H 166.391 1.06062 -4.76027 0
M  V30 1871 H 165.396 -1.16102 -5.37401 0
M  V30 1872 H 166.621 -1.36097 -6.65323 0
M  V30 1873 H 164.567 0.877884 -6.50099 0
M  V30 1874 H 164.484 -0.504433 -7.54315 0
M  V30 1875 H 165.752 0.663537 -7.76671 0
M  V30 1876 N 169.982 1.44106 -0.638065 0
M  V30 1877 C 170.929 2.30715 0.062701 0
M  V30 1878 C 171.899 1.43882 0.829883 0
M  V30 1879 O 173.084 1.72775 0.809532 0
M  V30 1880 C 170.224 3.29258 1.03358 0
M  V30 1881 C 169.337 4.31192 0.26409 0
M  V30 1882 C 168.472 5.16825 1.22741 0
M  V30 1883 C 167.511 6.10462 0.447475 0
M  V30 1884 N 166.648 6.8877 1.36161 0
M  V30 1885 H 171.488 2.90096 -0.681781 0
M  V30 1886 H 169.025 1.42925 -0.347988 0
M  V30 1887 H 170.983 3.84886 1.60992 0
M  V30 1888 H 169.613 2.71562 1.74511 0
M  V30 1889 H 168.665 3.77981 -0.428295 0
M  V30 1890 H 169.977 4.97619 -0.343052 0
M  V30 1891 H 169.131 5.77004 1.87487 0
M  V30 1892 H 167.87 4.50488 1.86847 0
M  V30 1893 H 166.875 5.49386 -0.213433 0
M  V30 1894 H 168.1 6.78837 -0.188968 0
M  V30 1895 H 166.046 6.25096 1.98975 0
M  V30 1896 H 165.963 7.51663 0.808656 0
M  V30 1897 H 167.231 7.53467 1.99769 0
M  V30 1898 N 171.46 0.379036 1.52974 0
M  V30 1899 C 172.709 -0.207612 2.00629 0
M  V30 1900 C 173.022 -1.48758 1.27006 0
M  V30 1901 O 174.228 -2.15365 1.65318 0
M  V30 1902 C 172.684 -0.42053 3.57435 0
M  V30 1903 C 172.292 0.845587 4.39948 0
M  V30 1904 C 174.036 -0.964102 4.13407 0
M  V30 1905 C 171.943 0.601513 5.88333 0
M  V30 1906 H 170.873 -0.0813591 0.749598 0
M  V30 1907 H 173.524 0.499853 1.76561 0
M  V30 1908 H 171.906 -1.18959 3.7771 0
M  V30 1909 H 173.08 1.61848 4.31442 0
M  V30 1910 H 171.395 1.31336 3.95145 0
M  V30 1911 H 173.992 -1.16225 5.21916 0
M  V30 1912 H 174.335 -1.93019 3.68849 0
M  V30 1913 H 174.868 -0.25487 3.96983 0
M  V30 1914 H 171.607 1.53831 6.37194 0
M  V30 1915 H 171.127 -0.132628 5.99653 0
M  V30 1916 H 172.806 0.232134 6.46583 0
M  V30 1917 N 172.938 -1.57226 0.108567 0
M  V30 1918 C 174.163 -1.99604 -0.563303 0
M  V30 1919 C 174.588 -0.987563 -1.6009 0
M  V30 1920 O 173.946 0.0421687 -1.81251 0
M  V30 1921 C 173.994 -3.40902 -1.17552 0
M  V30 1922 O 173.098 -3.42896 -2.2912 0
M  V30 1923 H 172.439 -0.648704 -0.1417 0
M  V30 1924 H 174.969 -2.03679 0.193961 0
M  V30 1925 H 174.979 -3.78886 -1.51357 0
M  V30 1926 H 173.654 -4.1382 -0.415445 0
M  V30 1927 H 172.231 -3.1672 -1.96832 0
M  V30 1928 N 174.416 0.165178 -1.56732 0
M  V30 1929 C 175.641 0.900253 -1.86843 0
M  V30 1930 C 176.066 1.74766 -0.695596 0
M  V30 1931 O 175.424 1.77786 0.35522 0
M  V30 1932 C 175.472 1.74777 -3.15413 0
M  V30 1933 O 174.576 2.85007 -2.98068 0
M  V30 1934 H 173.917 0.251832 -0.614391 0
M  V30 1935 H 176.447 0.161468 -2.03962 0
M  V30 1936 H 176.457 2.14646 -3.46974 0
M  V30 1937 H 175.132 1.12537 -4.00385 0
M  V30 1938 H 173.709 2.48676 -2.77875 0
M  V30 1939 N 175.894 1.51508 0.433938 0
M  V30 1940 C 176.824 1.76016 1.53429 0
M  V30 1941 C 177.805 0.610112 1.58782 0
M  V30 1942 O 178.99 0.853177 1.74455 0
M  V30 1943 C 176.12 1.88831 2.9148 0
M  V30 1944 C 175.074 3.04288 3.00987 0
M  V30 1945 C 174.4 3.0229 4.4105 0
M  V30 1946 C 175.7 4.44193 2.74754 0
M  V30 1947 H 177.394 2.68152 1.33171 0
M  V30 1948 H 174.94 1.29035 0.639214 0
M  V30 1949 H 176.893 2.04559 3.6842 0
M  V30 1950 H 175.617 0.933455 3.12976 0
M  V30 1951 H 174.276 2.8827 2.26486 0
M  V30 1952 H 173.924 2.04576 4.59519 0
M  V30 1953 H 173.624 3.79822 4.4834 0
M  V30 1954 H 175.148 3.20116 5.1996 0
M  V30 1955 H 176.562 4.60544 3.41426 0
M  V30 1956 H 174.959 5.23457 2.9345 0
M  V30 1957 H 176.029 4.53996 1.70339 0
M  V30 1958 N 177.372 -0.689602 1.41712 0
M  V30 1959 C 178.649 -1.44457 1.31877 0
M  V30 1960 C 179.029 -2.11039 -0.0508537 0
M  V30 1961 O 178.377 -2.02138 -1.06547 0
M  V30 1962 C 178.587 -2.45913 2.47645 0
M  V30 1963 C 179.935 -3.10991 2.89084 0
M  V30 1964 O 180.959 -2.56238 2.47428 0
M  V30 1965 O 179.818 -4.10174 3.61137 0
M  V30 1966 H 176.912 -0.64362 0.519309 0
M  V30 1967 H 179.458 -0.719576 1.53689 0
M  V30 1968 H 178.23 -1.95409 3.39015 0
M  V30 1969 H 177.853 -3.25913 2.27742 0
M  V30 1970 N 178.85 -1.27639 -0.924453 0
M  V30 1971 C 179.782 -1.06442 -2.02985 0
M  V30 1972 C 180.795 -0.0194771 -1.62788 0
M  V30 1973 O 181.984 -0.261388 -1.76576 0
M  V30 1974 C 179.084 -0.59327 -3.33667 0
M  V30 1975 C 178.257 -1.71123 -4.02537 0
M  V30 1976 C 177.316 -1.23527 -5.11495 0
M  V30 1977 O 176.342 -1.93553 -5.35281 0
M  V30 1978 N 177.544 -0.0926678 -5.80426 0
M  V30 1979 H 180.309 -2.01633 -2.2173 0
M  V30 1980 H 177.87 -1.19248 -1.09505 0
M  V30 1981 H 179.862 -0.258686 -4.03872 0
M  V30 1982 H 178.432 0.265502 -3.1147 0
M  V30 1983 H 177.652 -2.21593 -3.26022 0
M  V30 1984 H 178.94 -2.46145 -4.45298 0
M  V30 1985 H 178.338 0.491741 -5.63559 0
M  V30 1986 H 176.895 0.182714 -6.51544 0
M  V30 1987 N 180.328 1.1314 -1.09713 0
M  V30 1988 C 181.258 2.20748 -0.761102 0
M  V30 1989 C 182.239 1.68061 0.262566 0
M  V30 1990 O 183.424 1.93765 0.129977 0
M  V30 1991 C 180.554 3.46812 -0.184054 0
M  V30 1992 C 179.508 4.12606 -1.13757 0
M  V30 1993 C 178.834 5.33031 -0.422083 0
M  V30 1994 C 180.134 4.59603 -2.48118 0
M  V30 1995 H 181.828 2.49113 -1.66082 0
M  V30 1996 H 179.374 1.19734 -0.799987 0
M  V30 1997 H 181.327 4.21353 0.0631215 0
M  V30 1998 H 180.051 3.17851 0.750868 0
M  V30 1999 H 178.71 3.40036 -1.37007 0
M  V30 2000 H 178.358 5.00335 0.517072 0
M  V30 2001 H 178.058 5.77999 -1.05788 0
M  V30 2002 H 179.582 6.10325 -0.183277 0
M  V30 2003 H 180.996 5.25552 -2.29059 0
M  V30 2004 H 179.393 5.15321 -3.07514 0
M  V30 2005 H 180.463 3.73971 -3.08665 0
M  V30 2006 N 181.806 0.884767 1.30421 0
M  V30 2007 C 183.052 0.503851 1.96441 0
M  V30 2008 C 183.385 -0.944518 1.69684 0
M  V30 2009 O 182.66 -1.66737 1.00145 0
M  V30 2010 C 182.943 0.779085 3.51571 0
M  V30 2011 C 182.796 2.27807 3.87846 0
M  V30 2012 C 184.115 0.255452 4.39358 0
M  V30 2013 H 181.234 0.184533 0.713524 0
M  V30 2014 H 183.876 1.10872 1.54297 0
M  V30 2015 H 182.026 0.264274 3.876 0
M  V30 2016 H 183.698 2.86127 3.61841 0
M  V30 2017 H 181.941 2.74479 3.35922 0
M  V30 2018 H 182.612 2.42125 4.96064 0
M  V30 2019 H 185.088 0.696079 4.10236 0
M  V30 2020 H 183.964 0.477361 5.4682 0
M  V30 2021 H 184.225 -0.843293 4.33983 0
M  V30 2022 N 183.284 -1.43765 0.645699 0
M  V30 2023 C 184.194 -2.34544 -0.0512957 0
M  V30 2024 C 185.21 -1.53455 -0.82022 0
M  V30 2025 O 186.386 -1.86133 -0.769176 0
M  V30 2026 C 183.451 -3.31636 -1.01087 0
M  V30 2027 C 182.512 -4.2863 -0.239712 0
M  V30 2028 C 181.745 -5.21084 -1.15358 0
M  V30 2029 O 181.968 -5.1779 -2.39269 0
M  V30 2030 O 180.902 -5.98593 -0.630038 0
M  V30 2031 H 184.728 -2.95624 0.695718 0
M  V30 2032 H 182.313 -1.43781 0.405882 0
M  V30 2033 H 184.195 -3.9136 -1.56254 0
M  V30 2034 H 182.87 -2.73069 -1.73824 0
M  V30 2035 H 181.777 -3.72408 0.355356 0
M  V30 2036 H 183.11 -4.90157 0.447936 0
M  V30 2037 N 184.763 -0.387143 -1.52771 0
M  V30 2038 C 186.011 0.195349 -2.01154 0
M  V30 2039 C 186.332 1.475 -1.27549 0
M  V30 2040 O 185.602 1.91878 -0.394924 0
M  V30 2041 H 184.182 0.075178 -0.743207 0
M  V30 2042 H 186.844 -0.518337 -1.87881 0
M  V30 2043 H 185.94 0.407096 -3.09434 0
M  V30 2044 N 186.241 1.57166 -0.116904 0
M  V30 2045 C 187.151 2.18745 0.847812 0
M  V30 2046 C 188.167 1.163 1.29423 0
M  V30 2047 O 189.343 1.48761 1.35765 0
M  V30 2048 C 186.408 2.77307 2.0809 0
M  V30 2049 C 185.469 3.94781 1.68661 0
M  V30 2050 C 184.702 4.50541 2.86091 0
M  V30 2051 O 184.925 4.05202 4.01456 0
M  V30 2052 O 183.859 5.41256 2.63298 0
M  V30 2053 H 187.685 3.01632 0.353778 0
M  V30 2054 H 185.27 1.49005 0.108599 0
M  V30 2055 H 187.152 3.14647 2.80313 0
M  V30 2056 H 185.827 1.97452 2.56504 0
M  V30 2057 H 184.734 3.62214 0.935518 0
M  V30 2058 H 186.067 4.76065 1.24991 0
M  V30 2059 N 187.719 -0.156864 1.56817 0
M  V30 2060 C 188.944 -0.890331 1.87318 0
M  V30 2061 C 189.369 -1.74394 0.704855 0
M  V30 2062 O 188.727 -1.77972 -0.345786 0
M  V30 2063 C 188.775 -1.73102 3.16336 0
M  V30 2064 O 187.879 -2.83422 2.99576 0
M  V30 2065 H 187.22 -0.24857 0.615718 0
M  V30 2066 H 189.75 -0.150649 2.04045 0
M  V30 2067 H 189.76 -2.12803 3.48107 0
M  V30 2068 H 188.435 -1.10412 4.00976 0
M  V30 2069 H 187.012 -2.47199 2.7919 0
M  V30 2070 N 189.197 -1.51736 -0.425897 0
M  V30 2071 C 190.427 -1.68549 -1.19476 0
M  V30 2072 C 190.835 -0.387288 -1.85194 0
M  V30 2073 O 190.178 0.645142 -1.71999 0
M  V30 2074 C 190.24 -2.75275 -2.31223 0
M  V30 2075 C 189.904 -4.17534 -1.8578 0
M  V30 2076 C 190.901 -5.01936 -1.35485 0
M  V30 2077 C 188.586 -4.6369 -1.93123 0
M  V30 2078 C 190.58 -6.30559 -0.931347 0
M  V30 2079 C 188.267 -5.92307 -1.50384 0
M  V30 2080 C 189.265 -6.75569 -1.00473 0
M  V30 2081 O 188.953 -8.0178 -0.583452 0
M  V30 2082 H 188.685 -0.568525 -0.365725 0
M  V30 2083 H 191.239 -1.98982 -0.509444 0
M  V30 2084 H 189.469 -2.40182 -3.03067 0
M  V30 2085 H 191.158 -2.80853 -2.93047 0
M  V30 2086 H 191.924 -4.67475 -1.29197 0
M  V30 2087 H 187.803 -3.98997 -2.30916 0
M  V30 2088 H 191.347 -6.95498 -0.541084 0
M  V30 2089 H 187.244 -6.2628 -1.56346 0
M  V30 2090 H 188.012 -8.1543 -0.708275 0
M  V30 2091 N 190.675 0.682077 -1.42076 0
M  V30 2092 C 191.921 1.44428 -1.42367 0
M  V30 2093 C 192.254 1.94164 -0.0373056 0
M  V30 2094 O 191.529 1.70429 0.937239 0
M  V30 2095 C 191.812 2.64654 -2.44194 0
M  V30 2096 C 191.665 2.20596 -3.91991 0
M  V30 2097 C 192.984 3.66865 -2.431 0
M  V30 2098 H 190.103 0.523834 -0.518428 0
M  V30 2099 H 192.745 0.77576 -1.73442 0
M  V30 2100 H 190.895 3.2169 -2.17826 0
M  V30 2101 H 192.567 1.68783 -4.29313 0
M  V30 2102 H 190.81 1.52242 -4.06208 0
M  V30 2103 H 191.481 3.06921 -4.58807 0
M  V30 2104 H 193.957 3.19531 -2.66532 0
M  V30 2105 H 192.833 4.48577 -3.16339 0
M  V30 2106 H 193.094 4.17493 -1.45437 0
M  V30 2107 N 192.153 1.28127 0.917671 0
M  V30 2108 C 193.393 1.163 1.68088 0
M  V30 2109 C 193.757 -0.284515 1.8988 0
M  V30 2110 O 194.958 -0.525413 2.63615 0
M  V30 2111 C 193.229 1.93546 3.00457 0
M  V30 2112 S 194.788 1.98048 3.91564 0
M  V30 2113 H 191.606 0.415005 0.577315 0
M  V30 2114 H 194.208 1.62173 1.09179 0
M  V30 2115 H 192.912 2.97888 2.82295 0
M  V30 2116 H 192.443 1.48207 3.64415 0
M  V30 2117 H 194.458 1.08415 4.84211 0
M  V30 2118 N 193.631 -1.12557 1.10312 0
M  V30 2119 C 194.879 -1.83675 0.843091 0
M  V30 2120 C 195.2 -1.84435 -0.633131 0
M  V30 2121 O 194.47 -1.30657 -1.45964 0
M  V30 2122 H 193.05 -0.680138 0.308904 0
M  V30 2123 H 195.712 -1.36301 1.39313 0
M  V30 2124 H 194.808 -2.87908 1.2048 0
M  V30 2125 N 195.109 -0.891671 -1.2995 0
M  V30 2126 C 196.334 -0.527932 -2.00568 0
M  V30 2127 C 196.759 0.877969 -1.66353 0
M  V30 2128 O 196.117 1.58301 -0.883762 0
M  V30 2129 C 196.165 -0.717745 -3.53385 0
M  V30 2130 O 195.269 0.233376 -4.11739 0
M  V30 2131 H 194.61 -0.20722 -0.630837 0
M  V30 2132 H 197.14 -1.20105 -1.65638 0
M  V30 2133 H 197.15 -0.619307 -4.03272 0
M  V30 2134 H 195.825 -1.74276 -3.77625 0
M  V30 2135 H 194.402 0.0880706 -3.72796 0
M  V30 2136 N 196.587 1.43421 -0.653314 0
M  V30 2137 C 197.836 2.01032 -0.164076 0
M  V30 2138 C 198.149 1.52147 1.22926 0
M  V30 2139 O 199.355 2.02031 1.81371 0
M  V30 2140 C 197.811 3.59082 -0.24252 0
M  V30 2141 C 197.419 4.1696 -1.63855 0
M  V30 2142 C 199.163 4.24079 0.18911 0
M  V30 2143 C 197.07 5.67304 -1.67092 0
M  V30 2144 H 196 0.751798 -0.0575769 0
M  V30 2145 H 198.651 1.6439 -0.815362 0
M  V30 2146 H 197.033 3.93125 0.476276 0
M  V30 2147 H 198.207 3.94416 -2.38271 0
M  V30 2148 H 196.522 3.64335 -2.01616 0
M  V30 2149 H 199.119 5.34381 0.184775 0
M  V30 2150 H 199.462 3.98005 1.22056 0
M  V30 2151 H 199.995 3.94918 -0.477938 0
M  V30 2152 H 196.734 5.98145 -2.68146 0
M  V30 2153 H 196.254 5.91904 -0.970014 0
M  V30 2154 H 197.933 6.31344 -1.4147 0
M  V30 2155 N 198.065 0.39524 1.52563 0
M  V30 2156 C 198.975 -0.444232 2.30356 0
M  V30 2157 C 199.991 -1.06615 1.37511 0
M  V30 2158 O 201.167 -1.07067 1.70583 0
M  V30 2159 C 198.232 -1.55315 3.09964 0
M  V30 2160 C 197.293 -0.955734 4.18526 0
M  V30 2161 C 196.526 -2.01181 4.9433 0
M  V30 2162 O 196.749 -3.22781 4.70285 0
M  V30 2163 O 195.683 -1.62579 5.79527 0
M  V30 2164 H 199.509 0.189667 3.03107 0
M  V30 2165 H 197.094 0.1588 1.48554 0
M  V30 2166 H 198.976 -2.19724 3.59582 0
M  V30 2167 H 197.651 -2.17191 2.4002 0
M  V30 2168 H 196.558 -0.274743 3.7309 0
M  V30 2169 H 197.891 -0.381109 4.90722 0
M  V30 2170 N 199.544 -1.57102 0.125237 0
M  V30 2171 C 200.955 -1.82384 -0.399142 0
M  V30 2172 C 201.306 -1.04276 -1.66195 0
M  V30 2173 O 200.431 -0.281269 -2.14564 0
M  V30 2174 C 201.026 -3.30821 -0.730932 0
M  V30 2175 C 199.585 -3.56762 -1.19992 0
M  V30 2176 C 198.732 -2.7649 -0.211792 0
M  V30 2177 H 201.683 -1.54786 0.350277 0
M  V30 2178 H 201.704 -3.4579 -1.58775 0
M  V30 2179 H 201.216 -3.87643 0.188345 0
M  V30 2180 H 199.317 -3.05305 -2.13588 0
M  V30 2181 H 199.43 -4.65317 -1.14093 0
M  V30 2182 H 197.794 -2.4489 -0.700085 0
M  V30 2183 H 198.577 -3.36073 0.700691 0
M  V30 2184 N 201.022 0.148545 -1.56898 0
M  V30 2185 C 202.269 0.861418 -1.83264 0
M  V30 2186 C 202.597 1.81239 -0.705883 0
M  V30 2187 O 201.852 1.93305 0.305212 0
M  V30 2188 C 202.151 1.67064 -3.1595 0
M  V30 2189 C 201.817 0.866591 -4.42494 0
M  V30 2190 C 200.479 0.644762 -4.76861 0
M  V30 2191 C 202.831 0.30418 -5.20312 0
M  V30 2192 C 200.159 -0.15021 -5.86508 0
M  V30 2193 C 202.511 -0.477824 -6.30793 0
M  V30 2194 C 201.175 -0.710244 -6.63711 0
M  V30 2195 H 200.445 0.315215 -0.670612 0
M  V30 2196 H 203.092 0.125142 -1.91091 0
M  V30 2197 H 201.397 2.47698 -3.03567 0
M  V30 2198 H 203.094 2.22566 -3.33565 0
M  V30 2199 H 199.684 1.04955 -4.15551 0
M  V30 2200 H 203.868 0.462844 -4.94137 0
M  V30 2201 H 199.124 -0.339796 -6.10455 0
M  V30 2202 H 203.298 -0.92076 -6.90286 0
M  V30 2203 H 200.925 -1.3281 -7.48509 0
M  V30 2204 N 202.5 1.5196 0.417844 0
M  V30 2205 C 203.447 1.74678 1.50852 0
M  V30 2206 C 204.417 0.588947 1.55308 0
M  V30 2207 O 205.602 0.825544 1.72016 0
M  V30 2208 C 202.742 1.89544 2.88387 0
M  V30 2209 C 201.855 3.17166 2.93309 0
M  V30 2210 C 200.99 3.22513 4.22088 0
M  V30 2211 C 200.029 4.44372 4.20951 0
M  V30 2212 N 199.166 4.47161 5.41287 0
M  V30 2213 H 204.006 2.67768 1.30783 0
M  V30 2214 H 201.543 1.32689 0.63498 0
M  V30 2215 H 203.501 1.96146 3.68216 0
M  V30 2216 H 202.131 0.998424 3.06971 0
M  V30 2217 H 201.183 3.19778 2.06024 0
M  V30 2218 H 202.495 4.07021 2.88332 0
M  V30 2219 H 201.649 3.28139 5.10303 0
M  V30 2220 H 200.388 2.30581 4.29748 0
M  V30 2221 H 199.393 4.38902 3.31127 0
M  V30 2222 H 200.618 5.3759 4.14938 0
M  V30 2223 H 198.564 3.58108 5.49632 0
M  V30 2224 H 198.481 5.3085 5.3827 0
M  V30 2225 H 199.749 4.57005 6.3148 0
M  V30 2226 N 203.978 -0.674533 1.42435 0
M  V30 2227 C 204.925 -1.78807 1.45934 0
M  V30 2228 C 205.895 -1.63157 0.311271 0
M  V30 2229 O 207.08 -1.83707 0.515383 0
M  V30 2230 C 204.22 -3.16839 1.36773 0
M  V30 2231 C 203.333 -3.43774 2.61617 0
M  V30 2232 C 202.468 -4.71536 2.44597 0
M  V30 2233 C 201.507 -4.91505 3.64814 0
M  V30 2234 N 200.644 -6.10508 3.46734 0
M  V30 2235 H 205.484 -1.75151 2.41093 0
M  V30 2236 H 203.021 -0.85504 1.19697 0
M  V30 2237 H 204.979 -3.96606 1.29459 0
M  V30 2238 H 203.609 -3.19619 0.452089 0
M  V30 2239 H 202.661 -2.58259 2.79297 0
M  V30 2240 H 203.973 -3.54423 3.50978 0
M  V30 2241 H 203.127 -5.59393 2.3487 0
M  V30 2242 H 201.866 -4.6317 1.52726 0
M  V30 2243 H 200.871 -4.0209 3.74972 0
M  V30 2244 H 202.096 -5.01716 4.57665 0
M  V30 2245 H 200.042 -6.03315 2.5758 0
M  V30 2246 H 199.959 -6.2202 4.29682 0
M  V30 2247 H 201.227 -7.01044 3.40819 0
M  V30 2248 N 205.456 -1.28612 -0.910864 0
M  V30 2249 C 206.386 -1.15326 -2.03032 0
M  V30 2250 C 207.367 -0.0502924 -1.70026 0
M  V30 2251 O 208.552 -0.227797 -1.92859 0
M  V30 2252 C 205.682 -0.817343 -3.37545 0
M  V30 2253 C 204.636 -1.8754 -3.84724 0
M  V30 2254 C 203.962 -1.39305 -5.16235 0
M  V30 2255 C 205.262 -3.28244 -4.06267 0
M  V30 2256 H 206.956 -2.08975 -2.14406 0
M  V30 2257 H 204.502 -1.00612 -1.03021 0
M  V30 2258 H 206.455 -0.711151 -4.15356 0
M  V30 2259 H 205.179 0.154846 -3.26233 0
M  V30 2260 H 203.838 -1.97079 -3.09121 0
M  V30 2261 H 203.486 -0.409846 -5.01328 0
M  V30 2262 H 203.186 -2.10057 -5.48771 0
M  V30 2263 H 204.71 -1.30014 -5.96598 0
M  V30 2264 H 206.124 -3.21611 -4.74594 0
M  V30 2265 H 204.521 -3.96855 -4.5014 0
M  V30 2266 H 205.591 -3.72048 -3.10979 0
M  V30 2267 N 206.934 1.1197 -1.10907 0
M  V30 2268 C 207.844 2.21433 -0.774896 0
M  V30 2269 C 208.86 1.72478 0.229657 0
M  V30 2270 O 210.036 2.01288 0.0672008 0
M  V30 2271 C 207.101 3.4602 -0.216986 0
M  V30 2272 C 206.162 4.09791 -1.27944 0
M  V30 2273 C 205.395 5.28431 -0.748055 0
M  V30 2274 O 205.618 5.68823 0.423833 0
M  V30 2275 O 204.552 5.82644 -1.51027 0
M  V30 2276 H 208.378 2.5242 -1.68873 0
M  V30 2277 H 205.963 1.20399 -0.884555 0
M  V30 2278 H 207.845 4.21304 0.090059 0
M  V30 2279 H 206.52 3.16698 0.669633 0
M  V30 2280 H 205.427 3.36265 -1.63941 0
M  V30 2281 H 206.76 4.4328 -2.13925 0
M  V30 2282 N 208.412 0.89855 1.29475 0
M  V30 2283 C 209.642 0.538479 1.99459 0
M  V30 2284 C 210.05 -0.880922 1.67441 0
M  V30 2285 O 209.393 -1.59283 0.915127 0
M  V30 2286 C 209.455 0.649564 3.53583 0
M  V30 2287 C 209.119 2.03573 4.09154 0
M  V30 2288 C 210.116 3.00675 4.24135 0
M  V30 2289 C 207.801 2.3448 4.44212 0
M  V30 2290 C 209.795 4.26809 4.73405 0
M  V30 2291 C 207.482 3.60857 4.93179 0
M  V30 2292 C 208.48 4.56836 5.0773 0
M  V30 2293 O 208.168 5.80969 5.55635 0
M  V30 2294 H 207.9 0.205372 0.644048 0
M  V30 2295 H 210.454 1.20958 1.66007 0
M  V30 2296 H 208.684 -0.0785592 3.8662 0
M  V30 2297 H 210.373 0.29881 4.04799 0
M  V30 2298 H 211.139 2.78112 3.97339 0
M  V30 2299 H 207.018 1.60534 4.32145 0
M  V30 2300 H 210.562 5.0173 4.84678 0
M  V30 2301 H 206.459 3.83251 5.19412 0
M  V30 2302 H 207.227 5.83542 5.73952 0
M  V30 2303 N 209.89 -1.43072 0.660911 0
M  V30 2304 C 211.118 -2.06067 0.185422 0
M  V30 2305 C 211.533 -1.49582 -1.15198 0
M  V30 2306 O 210.89 -0.630134 -1.71276 0
M  V30 2307 C 210.941 -3.61371 0.0966523 0
M  V30 2308 O 210.662 -4.15758 1.38119 0
M  V30 2309 C 212.163 -4.41455 -0.403996 0
M  V30 2310 H 209.383 -0.664459 0.0934604 0
M  V30 2311 H 211.927 -1.83447 0.90373 0
M  V30 2312 H 210.082 -3.8315 -0.572259 0
M  V30 2313 H 210.496 -5.09499 1.24542 0
M  V30 2314 H 211.97 -5.50437 -0.415045 0
M  V30 2315 H 212.447 -4.15036 -1.43674 0
M  V30 2316 H 213.053 -4.24663 0.232691 0
M  V30 2317 N 211.368 -0.403325 -1.52352 0
M  V30 2318 C 212.315 0.425011 -2.26853 0
M  V30 2319 C 213.285 1.04598 -1.29029 0
M  V30 2320 O 214.47 1.07135 -1.57882 0
M  V30 2321 C 211.61 1.53888 -3.08889 0
M  V30 2322 C 210.723 0.939396 -4.21663 0
M  V30 2323 C 209.858 2.02547 -4.91068 0
M  V30 2324 C 208.897 1.40263 -5.95813 0
M  V30 2325 N 208.034 2.4286 -6.58759 0
M  V30 2326 H 212.874 -0.21674 -2.97211 0
M  V30 2327 H 210.411 -0.118722 -1.4662 0
M  V30 2328 H 212.369 2.19558 -3.54753 0
M  V30 2329 H 210.999 2.15074 -2.40714 0
M  V30 2330 H 210.051 0.171898 -3.80011 0
M  V30 2331 H 211.363 0.44436 -4.96817 0
M  V30 2332 H 210.517 2.75958 -5.40308 0
M  V30 2333 H 209.256 2.55415 -4.15469 0
M  V30 2334 H 208.261 0.653833 -5.45898 0
M  V30 2335 H 209.486 0.881719 -6.73352 0
M  V30 2336 H 207.432 2.94871 -5.85992 0
M  V30 2337 H 207.349 1.98152 -7.2957 0
M  V30 2338 H 208.617 3.15858 -7.12639 0
M  V30 2339 N 212.846 1.57033 -0.133567 0
M  V30 2340 C 213.794 2.17348 0.828412 0
M  V30 2341 C 214.788 1.12671 1.26498 0
M  V30 2342 O 215.994 1.30947 1.23502 0
M  V30 2343 H 212.369 0.695775 0.285309 0
M  V30 2344 H 214.34 2.96935 0.295372 0
M  V30 2345 C 213.089 2.79893 2.06289 0
M  V30 2346 H 212.412 3.60147 1.73592 0
M  V30 2347 H 213.852 3.25615 2.71572 0
M  V30 2348 C 212.311 1.77713 2.86216 0
M  V30 2349 O 212.841 1.23937 3.82103 0
M  V30 2350 N 211.047 1.47321 2.50489 0
M  V30 2351 H 210.594 1.91243 1.7258 0
M  V30 2352 H 210.552 0.79199 3.04261 0
M  V30 2353 N 214.325 -0.140222 1.56975 0
M  V30 2354 C 215.571 -0.852949 1.83991 0
M  V30 2355 C 215.904 -1.80512 0.716187 0
M  V30 2356 O 215.179 -1.92479 -0.279681 0
M  V30 2357 C 215.462 -1.6215 3.21527 0
M  V30 2358 C 215.315 -0.690363 4.4447 0
M  V30 2359 C 216.634 -2.58247 3.56366 0
M  V30 2360 H 213.753 -0.308634 0.669264 0
M  V30 2361 H 216.395 -0.117898 1.89634 0
M  V30 2362 H 214.545 -2.24812 3.16847 0
M  V30 2363 H 216.217 -0.0742264 4.6124 0
M  V30 2364 H 214.46 -0.000396433 4.338 0
M  V30 2365 H 215.131 -1.2643 5.37326 0
M  V30 2366 H 217.607 -2.05701 3.61699 0
M  V30 2367 H 216.483 -3.09067 4.53617 0
M  V30 2368 H 216.744 -3.39923 2.82674 0
M  V30 2369 N 215.803 -1.52179 -0.40978 0
M  V30 2370 C 216.751 -1.76086 -1.51975 0
M  V30 2371 C 217.745 -0.627964 -1.57331 0
M  V30 2372 O 218.951 -0.809993 -1.60745 0
M  V30 2373 H 215.326 -0.556829 -0.505416 0
M  V30 2374 H 217.297 -2.69077 -1.28996 0
M  V30 2375 C 216.046 -1.92799 -2.8935 0
M  V30 2376 H 215.369 -2.79392 -2.85972 0
M  V30 2377 H 216.809 -2.13527 -3.66309 0
M  V30 2378 C 215.268 -0.694923 -3.29655 0
M  V30 2379 O 215.798 0.13751 -4.01465 0
M  V30 2380 N 214.004 -0.53101 -2.85707 0
M  V30 2381 H 213.551 -1.20952 -2.27439 0
M  V30 2382 H 213.509 0.292718 -3.13034 0
M  V30 2383 N 217.281 0.66697 -1.42791 0
M  V30 2384 C 218.692 1.2478 -1.38877 0
M  V30 2385 C 219.043 1.96012 -0.0859426 0
M  V30 2386 O 218.168 2.00463 0.815081 0
M  V30 2387 C 218.763 2.26938 -2.51564 0
M  V30 2388 C 217.322 2.80529 -2.50959 0
M  V30 2389 C 216.469 1.54965 -2.29959 0
M  V30 2390 H 219.42 0.459853 -1.51892 0
M  V30 2391 H 219.441 3.08834 -2.22265 0
M  V30 2392 H 218.953 1.75065 -3.46372 0
M  V30 2393 H 217.054 3.36502 -1.59991 0
M  V30 2394 H 217.167 3.29012 -3.48265 0
M  V30 2395 H 215.531 1.81817 -1.78366 0
M  V30 2396 H 216.314 1.05047 -3.26833 0
M  V30 2397 N 218.759 1.29093 0.90403 0
M  V30 2398 C 219.707 1.13727 2.02901 0
M  V30 2399 C 220.701 0.0539853 1.69314 0
M  V30 2400 O 221.907 0.213469 1.7873 0
M  V30 2401 H 218.282 0.35117 0.664969 0
M  V30 2402 H 220.253 2.08982 2.13001 0
M  V30 2403 C 219.002 0.826066 3.37745 0
M  V30 2404 H 218.325 1.65164 3.64089 0
M  V30 2405 H 219.765 0.758559 4.17159 0
M  V30 2406 C 218.224 -0.470541 3.33598 0
M  V30 2407 O 218.754 -1.49792 3.72727 0
M  V30 2408 N 216.96 -0.474812 2.86695 0
M  V30 2409 H 216.507 0.361692 2.55048 0
M  V30 2410 H 216.465 -1.34236 2.84303 0
M  V30 2411 N 220.237 -1.11381 1.11499 0
M  V30 2412 C 221.483 -1.83597 0.875423 0
M  V30 2413 C 221.838 -1.83048 -0.592555 0
M  V30 2414 O 221.131 -1.27304 -1.43193 0
M  V30 2415 C 221.325 -3.30026 1.37177 0
M  V30 2416 C 221.154 -3.44837 2.88647 0
M  V30 2417 C 219.924 -3.57825 3.56776 0
M  V30 2418 C 222.122 -3.3907 3.86699 0
M  V30 2419 N 220.104 -3.61113 4.96458 0
M  V30 2420 C 221.475 -3.48986 5.12454 0
M  V30 2421 C 223.53 -3.22605 3.7925 0
M  V30 2422 C 222.233 -3.44135 6.31636 0
M  V30 2423 C 224.259 -3.19072 4.97943 0
M  V30 2424 C 223.621 -3.29559 6.22551 0
M  V30 2425 H 219.72 -0.687044 0.37349 0
M  V30 2426 H 222.304 -1.33265 1.41946 0
M  V30 2427 H 220.475 -3.78874 0.854919 0
M  V30 2428 H 222.207 -3.90153 1.07529 0
M  V30 2429 H 218.962 -3.60414 3.07244 0
M  V30 2430 H 219.386 -3.66394 5.69284 0
M  V30 2431 H 224.028 -3.13382 2.83816 0
M  V30 2432 H 221.746 -3.52126 7.27347 0
M  V30 2433 H 225.332 -3.07498 4.93899 0
M  V30 2434 H 224.212 -3.26815 7.12855 0
M  V30 2435 N 221.715 -0.905404 -1.28997 0
M  V30 2436 C 222.94 -0.549175 -1.99997 0
M  V30 2437 C 223.365 0.860276 -1.67275 0
M  V30 2438 O 222.723 1.57355 -0.900502 0
M  V30 2439 C 222.771 -0.755185 -3.52604 0
M  V30 2440 O 221.875 0.189692 -4.11964 0
M  V30 2441 H 221.216 -0.213899 -0.628604 0
M  V30 2442 H 223.746 -1.21856 -1.64354 0
M  V30 2443 H 223.756 -0.662045 -4.02593 0
M  V30 2444 H 222.431 -1.78271 -3.75755 0
M  V30 2445 H 221.008 0.0485257 -3.72868 0
M  V30 2446 N 223.193 1.4272 -0.668489 0
M  V30 2447 C 224.439 2.01923 -0.188419 0
M  V30 2448 C 224.772 1.52704 1.19979 0
M  V30 2449 O 224.047 0.726566 1.8042 0
M  V30 2450 C 224.33 3.59451 -0.216085 0
M  V30 2451 C 224.183 4.18864 -1.6393 0
M  V30 2452 C 225.502 4.37903 0.439179 0
M  V30 2453 H 222.621 0.733674 -0.0699412 0
M  V30 2454 H 225.263 1.69822 -0.852076 0
M  V30 2455 H 223.413 3.86929 0.349012 0
M  V30 2456 H 225.085 4.02362 -2.25616 0
M  V30 2457 H 223.328 3.74933 -2.18193 0
M  V30 2458 H 223.999 5.27987 -1.61039 0
M  V30 2459 H 226.475 4.16079 -0.0417878 0
M  V30 2460 H 225.351 5.47519 0.389157 0
M  V30 2461 H 225.612 4.15303 1.51577 0
M  V30 2462 N 224.671 0.411399 1.52136 0
M  V30 2463 C 225.619 -0.427633 2.28635 0
M  V30 2464 C 226.613 -1.04383 1.33419 0
M  V30 2465 O 227.819 -0.981772 1.50868 0
M  V30 2466 H 224.194 -0.156689 0.735495 0
M  V30 2467 H 226.165 0.238761 2.97443 0
M  V30 2468 C 224.914 -1.53082 3.12188 0
M  V30 2469 H 224.237 -1.06601 3.85326 0
M  V30 2470 H 225.677 -2.09167 3.68816 0
M  V30 2471 C 224.136 -2.49946 2.25895 0
M  V30 2472 O 224.666 -3.53884 1.90076 0
M  V30 2473 N 222.872 -2.2021 1.8962 0
M  V30 2474 H 222.419 -1.35719 2.18948 0
M  V30 2475 H 222.377 -2.85266 1.32176 0
M  V30 2476 N 226.149 -1.5696 0.141893 0
M  V30 2477 C 227.395 -1.9625 -0.511248 0
M  V30 2478 C 227.728 -1.02654 -1.64851 0
M  V30 2479 O 227.003 -0.0679676 -1.94381 0
M  V30 2480 C 227.286 -3.45285 -1.02227 0
M  V30 2481 C 227.139 -4.49658 0.113138 0
M  V30 2482 C 228.458 -3.96698 -1.90574 0
M  V30 2483 H 225.577 -0.713567 -0.184367 0
M  V30 2484 H 228.219 -1.88698 0.222087 0
M  V30 2485 H 226.369 -3.51852 -1.64719 0
M  V30 2486 H 228.041 -4.55174 0.749302 0
M  V30 2487 H 226.284 -4.26857 0.773026 0
M  V30 2488 H 226.955 -5.51258 -0.286053 0
M  V30 2489 H 229.431 -3.92578 -1.37918 0
M  V30 2490 H 228.307 -5.01453 -2.2324 0
M  V30 2491 H 228.568 -3.3875 -2.84079 0
M  V30 2492 N 227.627 0.131896 -1.57047 0
M  V30 2493 C 228.574 1.16236 -1.99393 0
M  V30 2494 C 229.544 1.41863 -0.863943 0
M  V30 2495 O 230.729 1.53946 -1.12718 0
M  V30 2496 C 227.869 2.48708 -2.39245 0
M  V30 2497 C 226.982 2.30127 -3.65603 0
M  V30 2498 C 226.117 3.55738 -3.94492 0
M  V30 2499 C 225.156 3.32259 -5.14073 0
M  V30 2500 N 224.293 4.50039 -5.38896 0
M  V30 2501 H 229.133 0.794251 -2.87221 0
M  V30 2502 H 226.67 0.380707 -1.42088 0
M  V30 2503 H 228.628 3.25969 -2.60384 0
M  V30 2504 H 227.258 2.83437 -1.54478 0
M  V30 2505 H 226.31 1.43845 -3.52154 0
M  V30 2506 H 227.622 2.08746 -4.5302 0
M  V30 2507 H 226.776 4.41423 -4.1621 0
M  V30 2508 H 225.515 3.80138 -3.05526 0
M  V30 2509 H 224.52 2.44963 -4.92212 0
M  V30 2510 H 225.745 3.09242 -6.04604 0
M  V30 2511 H 223.691 4.74584 -4.52886 0
M  V30 2512 H 223.608 4.31716 -6.2061 0
M  V30 2513 H 224.876 5.36895 -5.65123 0
M  V30 2514 N 229.106 1.52395 0.401703 0
M  V30 2515 C 230.334 1.70676 1.16949 0
M  V30 2516 C 230.749 0.419503 1.8408 0
M  V30 2517 O 230.106 -0.605061 1.72178 0
M  V30 2518 C 230.157 2.84753 2.22706 0
M  V30 2519 O 229.878 4.08495 1.58314 0
M  V30 2520 C 231.379 3.14608 3.12309 0
M  V30 2521 H 228.599 0.571787 0.351142 0
M  V30 2522 H 231.143 1.98987 0.471652 0
M  V30 2523 H 229.298 2.58941 2.88147 0
M  V30 2524 H 229.712 4.72117 2.28485 0
M  V30 2525 H 231.186 3.97923 3.82572 0
M  V30 2526 H 231.663 2.28464 3.75101 0
M  V30 2527 H 232.269 3.42212 2.52529 0
M  V30 2528 N 230.584 -0.659388 1.43143 0
M  V30 2529 C 231.812 -1.44723 1.47861 0
M  V30 2530 C 232.227 -1.88563 0.0945886 0
M  V30 2531 O 231.584 -1.59108 -0.893915 0
M  V30 2532 C 231.635 -2.68627 2.41913 0
M  V30 2533 O 231.356 -2.26623 3.74932 0
M  V30 2534 C 232.857 -3.62045 2.55809 0
M  V30 2535 H 230.077 -0.444801 0.502387 0
M  V30 2536 H 232.621 -0.808916 1.87821 0
M  V30 2537 H 230.776 -3.28613 2.05164 0
M  V30 2538 H 231.19 -3.06745 4.2545 0
M  V30 2539 H 232.664 -4.45666 3.25708 0
M  V30 2540 H 233.141 -4.08981 1.60099 0
M  V30 2541 H 233.747 -3.07944 2.93344 0
M  V30 2542 N 232.062 -1.29571 -0.897171 0
M  V30 2543 C 233.287 -1.20705 -1.68656 0
M  V30 2544 C 233.712 0.228582 -1.86706 0
M  V30 2545 O 233.07 1.16494 -1.3892 0
M  V30 2546 C 233.118 -1.9282 -3.04717 0
M  V30 2547 O 232.222 -1.24697 -3.93096 0
M  V30 2548 H 231.563 -0.418126 -0.515816 0
M  V30 2549 H 234.093 -1.71183 -1.12061 0
M  V30 2550 H 234.103 -2.01372 -3.54843 0
M  V30 2551 H 232.778 -2.97239 -2.90899 0
M  V30 2552 H 231.355 -1.2442 -3.51531 0
M  V30 2553 N 233.54 1.10788 -1.12088 0
M  V30 2554 C 234.503 2.15207 -0.788577 0
M  V30 2555 C 235.503 1.59609 0.195317 0
M  V30 2556 O 236.693 1.74174 -0.0300193 0
M  V30 2557 C 233.825 3.4047 -0.171174 0
M  V30 2558 H 235.018 2.46116 -1.71368 0
M  V30 2559 H 232.571 1.26089 -0.923652 0
M  V30 2560 H 233.306 3.15176 0.763832 0
M  V30 2561 H 233.091 3.82109 -0.879514 0
M  V30 2562 H 234.581 4.17576 0.04496 0
M  V30 2563 N 235.018 0.912232 1.28515 0
M  V30 2564 C 236.243 0.559774 1.99703 0
M  V30 2565 C 236.668 -0.851393 1.67729 0
M  V30 2566 O 236.026 -1.56875 0.908834 0
M  V30 2567 C 236.074 0.773874 3.52198 0
M  V30 2568 O 235.178 -0.167842 4.12058 0
M  V30 2569 H 234.519 0.21723 0.627461 0
M  V30 2570 H 237.049 1.22725 1.63706 0
M  V30 2571 H 237.059 0.683386 4.02236 0
M  V30 2572 H 235.734 1.80261 3.74805 0
M  V30 2573 H 234.311 -0.0287509 3.72889 0
M  V30 2574 N 236.496 -1.42363 0.676048 0
M  V30 2575 C 237.912 -1.55811 0.345718 0
M  V30 2576 C 238.112 -1.65544 -1.14879 0
M  V30 2577 O 237.168 -1.62306 -1.93424 0
M  V30 2578 C 238.481 -2.80746 1.07713 0
M  V30 2579 C 240.029 -2.9452 1.05958 0
M  V30 2580 C 240.504 -4.22318 1.77233 0
M  V30 2581 N 241.995 -4.29233 1.74108 0
M  V30 2582 C 242.73 -5.26935 2.26113 0
M  V30 2583 N 242.226 -6.30783 2.86505 0
M  V30 2584 N 244.019 -5.18741 2.1648 0
M  V30 2585 H 236.17 -1.34289 1.6456 0
M  V30 2586 H 238.433 -0.646506 0.69335 0
M  V30 2587 H 238.139 -2.79696 2.13221 0
M  V30 2588 H 238.013 -3.71676 0.64316 0
M  V30 2589 H 240.4 -2.95097 0.0128255 0
M  V30 2590 H 240.481 -2.04817 1.53244 0
M  V30 2591 H 240.125 -4.22502 2.81877 0
M  V30 2592 H 240.055 -5.10958 1.27396 0
M  V30 2593 H 242.546 -3.54814 1.30059 0
M  V30 2594 H 242.859 -7.01691 3.23805 0
M  V30 2595 H 241.204 -6.31341 2.90575 0
M  V30 2596 H 244.395 -4.36533 1.68987 0
M  V30 2597 H 244.568 -5.94721 2.57316 0
M  V30 2598 N 237.974 -0.419461 -1.51915 0
M  V30 2599 C 238.937 0.389116 -2.25873 0
M  V30 2600 C 239.937 0.964924 -1.28631 0
M  V30 2601 O 241.127 0.842179 -1.52489 0
M  V30 2602 C 238.259 1.54874 -3.03689 0
M  V30 2603 H 239.452 -0.258799 -2.98781 0
M  V30 2604 H 237.005 -0.172209 -1.55348 0
M  V30 2605 H 237.74 2.23323 -2.35154 0
M  V30 2606 H 237.525 1.14223 -3.75094 0
M  V30 2607 H 239.015 2.12046 -3.59759 0
M  V30 2608 N 239.452 1.56882 -0.150215 0
M  V30 2609 C 240.698 1.96518 0.500834 0
M  V30 2610 C 241.031 1.03527 1.64304 0
M  V30 2611 O 240.306 0.0782751 1.94342 0
M  V30 2612 C 240.589 3.45822 1.00395 0
M  V30 2613 C 240.442 4.49591 -0.136983 0
M  V30 2614 C 241.761 3.97704 1.88467 0
M  V30 2615 H 238.88 0.714535 0.18058 0
M  V30 2616 H 241.522 1.88577 -0.232091 0
M  V30 2617 H 239.672 3.5272 1.62851 0
M  V30 2618 H 241.344 4.5477 -0.77343 0
M  V30 2619 H 239.587 4.26441 -0.795652 0
M  V30 2620 H 240.258 5.51402 0.256815 0
M  V30 2621 H 242.734 3.93304 1.35834 0
M  V30 2622 H 241.61 5.0263 2.20578 0
M  V30 2623 H 241.871 3.40252 2.82279 0
M  V30 2624 N 240.93 -0.123565 1.57115 0
M  V30 2625 C 242.155 -0.850398 1.89164 0
M  V30 2626 C 242.58 -1.7286 0.741688 0
M  V30 2627 O 241.938 -1.78665 -0.307958 0
M  V30 2628 C 241.986 -1.66353 3.19936 0
M  V30 2629 O 241.09 -2.77004 3.0552 0
M  V30 2630 H 240.431 -0.235454 0.620852 0
M  V30 2631 H 242.961 -0.107335 2.04318 0
M  V30 2632 H 242.971 -2.05372 3.52543 0
M  V30 2633 H 241.646 -1.01881 4.03228 0
M  V30 2634 H 240.223 -2.41221 2.84371 0
M  V30 2635 N 242.408 -1.52605 -0.393616 0
M  V30 2636 C 243.633 -1.71592 -1.16495 0
M  V30 2637 C 244.058 -0.43133 -1.83088 0
M  V30 2638 O 243.416 0.612523 -1.7064 0
M  V30 2639 C 243.464 -2.86318 -2.19213 0
M  V30 2640 O 242.568 -2.52969 -3.257 0
M  V30 2641 H 241.909 -0.570734 -0.33935 0
M  V30 2642 H 244.439 -1.99377 -0.459324 0
M  V30 2643 H 244.449 -3.1168 -2.63286 0
M  V30 2644 H 243.124 -3.79511 -1.7013 0
M  V30 2645 H 241.701 -2.38332 -2.86797 0
M  V30 2646 N 243.887 0.651787 -1.4349 0
M  V30 2647 C 244.817 1.77621 -1.51569 0
M  V30 2648 C 245.798 1.66022 -0.370253 0
M  V30 2649 O 246.983 1.85095 -0.587658 0
M  V30 2650 C 244.113 3.16056 -1.43966 0
M  V30 2651 C 243.067 3.4242 -2.56774 0
M  V30 2652 C 242.393 4.8067 -2.34223 0
M  V30 2653 C 243.693 3.37023 -3.99015 0
M  V30 2654 H 245.387 1.71117 -2.45681 0
M  V30 2655 H 242.933 0.821825 -1.18246 0
M  V30 2656 H 244.886 3.94472 -1.48221 0
M  V30 2657 H 243.61 3.23293 -0.463586 0
M  V30 2658 H 242.269 2.66375 -2.51873 0
M  V30 2659 H 241.917 4.84585 -1.34856 0
M  V30 2660 H 241.617 4.9927 -3.09844 0
M  V30 2661 H 243.141 5.61342 -2.40265 0
M  V30 2662 H 244.555 4.05374 -4.05395 0
M  V30 2663 H 242.952 3.67159 -4.74673 0
M  V30 2664 H 244.022 2.3518 -4.2405 0
M  V30 2665 N 245.365 1.30045 0.890287 0
M  V30 2666 C 246.328 1.15963 1.977 0
M  V30 2667 C 247.328 0.0923777 1.60534 0
M  V30 2668 O 248.518 0.340071 1.70848 0
M  V30 2669 C 245.65 0.775451 3.31963 0
M  V30 2670 H 246.843 2.12502 2.11619 0
M  V30 2671 H 244.396 1.13366 1.07601 0
M  V30 2672 H 245.131 -0.189671 3.23745 0
M  V30 2673 H 244.916 1.54668 3.60306 0
M  V30 2674 H 246.406 0.700251 4.11687 0
M  V30 2675 N 246.843 -1.10192 1.12674 0
M  V30 2676 C 248.071 -1.85983 0.906527 0
M  V30 2677 C 248.486 -1.80783 -0.544333 0
M  V30 2678 O 247.843 -1.19834 -1.37645 0
M  V30 2679 C 247.894 -3.34281 1.37618 0
M  V30 2680 O 247.615 -3.39401 2.77017 0
M  V30 2681 C 249.116 -4.26938 1.19325 0
M  V30 2682 H 246.336 -0.587716 0.323775 0
M  V30 2683 H 248.88 -1.39284 1.49734 0
M  V30 2684 H 247.035 -3.78436 0.828539 0
M  V30 2685 H 247.449 -4.31838 2.97684 0
M  V30 2686 H 248.923 -5.29181 1.57071 0
M  V30 2687 H 249.4 -4.38995 0.134097 0
M  V30 2688 H 250.006 -3.8859 1.72852 0
M  V30 2689 N 248.321 -0.919034 -1.28029 0
M  V30 2690 C 249.284 -0.416182 -2.2539 0
M  V30 2691 C 250.284 0.460438 -1.54067 0
M  V30 2692 O 251.474 0.262744 -1.72207 0
M  V30 2693 C 248.606 0.402707 -3.38513 0
M  V30 2694 H 249.799 -1.27629 -2.71387 0
M  V30 2695 H 247.352 -0.698919 -1.39803 0
M  V30 2696 H 248.087 1.282 -2.97885 0
M  V30 2697 H 247.872 -0.225698 -3.9145 0
M  V30 2698 H 249.362 0.745191 -4.10897 0
M  V30 2699 N 249.799 1.42003 -0.683588 0
M  V30 2700 C 250.746 2.30798 -0.0107309 0
M  V30 2701 C 251.716 1.4645 0.783688 0
M  V30 2702 O 252.901 1.75263 0.754156 0
M  V30 2703 C 250.041 3.3238 0.928306 0
M  V30 2704 C 249.154 4.31814 0.126776 0
M  V30 2705 C 248.289 5.20468 1.06236 0
M  V30 2706 C 247.328 6.11577 0.253035 0
M  V30 2707 N 246.465 6.92754 1.14179 0
M  V30 2708 H 251.305 2.8778 -0.773727 0
M  V30 2709 H 248.842 1.41745 -0.393283 0
M  V30 2710 H 250.8 3.89813 1.48666 0
M  V30 2711 H 249.43 2.76976 1.65783 0
M  V30 2712 H 248.482 3.76427 -0.54833 0
M  V30 2713 H 249.794 4.96276 -0.501192 0
M  V30 2714 H 248.948 5.82677 1.69035 0
M  V30 2715 H 247.687 4.56204 1.7242 0
M  V30 2716 H 246.692 5.48428 -0.388108 0
M  V30 2717 H 247.917 6.77892 -0.404839 0
M  V30 2718 H 245.863 6.3111 1.78987 0
M  V30 2719 H 245.78 7.53855 0.569111 0
M  V30 2720 H 247.048 7.59441 1.75697 0
M  V30 2721 N 251.277 0.427512 1.51691 0
M  V30 2722 C 252.525 -0.141948 2.01601 0
M  V30 2723 C 252.846 -1.44067 1.31414 0
M  V30 2724 O 252.116 -1.90763 0.445658 0
M  V30 2725 H 250.696 -0.0554468 0.744939 0
M  V30 2726 H 253.358 0.567968 1.86441 0
M  V30 2727 H 252.454 -0.324913 3.10404 0
M  V30 2728 N 252.755 -1.56801 0.158532 0
M  V30 2729 C 253.98 -2.01295 -0.499516 0
M  V30 2730 C 254.405 -1.03799 -1.56867 0
M  V30 2731 O 253.763 -0.0155162 -1.81293 0
M  V30 2732 C 253.811 -3.44469 -1.06647 0
M  V30 2733 O 252.915 -3.50012 -2.18095 0
M  V30 2734 H 252.256 -0.652884 -0.12099 0
M  V30 2735 H 254.786 -2.02958 0.258661 0
M  V30 2736 H 254.796 -3.8351 -1.39227 0
M  V30 2737 H 253.471 -4.14932 -0.283581 0
M  V30 2738 H 252.048 -3.22822 -1.86656 0
M  V30 2739 N 254.233 0.115231 -1.57178 0
M  V30 2740 C 255.644 0.67197 -1.74188 0
M  V30 2741 C 255.995 1.80125 -0.777777 0
M  V30 2742 O 255.12 2.16346 0.0484376 0
M  V30 2743 C 255.715 1.22573 -3.1585 0
M  V30 2744 C 254.274 1.72872 -3.34353 0
M  V30 2745 C 253.421 0.629972 -2.70049 0
M  V30 2746 H 256.372 -0.110712 -1.58313 0
M  V30 2747 H 256.393 2.09535 -3.17609 0
M  V30 2748 H 255.905 0.403598 -3.85996 0
M  V30 2749 H 254.006 2.5755 -2.69256 0
M  V30 2750 H 254.119 1.83557 -4.42542 0
M  V30 2751 H 252.483 1.0645 -2.31388 0
M  V30 2752 H 253.266 -0.181241 -3.42821 0
M  V30 2753 N 255.711 1.52812 0.385517 0
M  V30 2754 C 256.936 1.72207 1.15583 0
M  V30 2755 C 257.361 0.441034 1.82857 0
M  V30 2756 O 256.719 -0.603465 1.70962 0
M  V30 2757 C 256.767 2.87476 2.17692 0
M  V30 2758 O 255.871 2.54693 3.24354 0
M  V30 2759 H 255.212 0.572526 0.336319 0
M  V30 2760 H 257.742 1.99618 0.448744 0
M  V30 2761 H 257.752 3.13072 2.6163 0
M  V30 2762 H 256.427 3.80408 1.68115 0
M  V30 2763 H 255.004 2.3985 2.85529 0
M  V30 2764 N 257.189 -0.644168 1.43834 0
M  V30 2765 C 258.099 -1.78563 1.52159 0
M  V30 2766 C 259.115 -1.69147 0.408069 0
M  V30 2767 O 260.291 -1.90156 0.663524 0
M  V30 2768 C 257.356 -3.14888 1.45073 0
M  V30 2769 C 256.417 -3.36034 2.6717 0
M  V30 2770 C 255.65 -4.65855 2.60413 0
M  V30 2771 O 255.873 -5.45805 1.65689 0
M  V30 2772 O 254.807 -4.88918 3.5106 0
M  V30 2773 H 258.633 -1.74494 2.48567 0
M  V30 2774 H 256.218 -0.80378 1.25935 0
M  V30 2775 H 258.1 -3.96179 1.43597 0
M  V30 2776 H 256.775 -3.19528 0.518037 0
M  V30 2777 H 255.682 -2.54472 2.74217 0
M  V30 2778 H 257.015 -3.36247 3.59442 0
M  V30 2779 N 258.668 -1.30515 -0.883378 0
M  V30 2780 C 259.914 -1.19607 -1.63774 0
M  V30 2781 C 260.247 0.248314 -1.92606 0
M  V30 2782 O 259.522 1.17742 -1.54813 0
M  V30 2783 C 259.805 -2.02669 -2.97653 0
M  V30 2784 C 259.658 -3.55335 -2.75784 0
M  V30 2785 C 260.977 -1.86573 -3.98596 0
M  V30 2786 H 258.096 -0.435856 -0.594305 0
M  V30 2787 H 260.738 -1.60165 -1.02212 0
M  V30 2788 H 258.888 -1.68208 -3.50197 0
M  V30 2789 H 260.56 -3.99863 -2.30016 0
M  V30 2790 H 258.803 -3.79438 -2.1026 0
M  V30 2791 H 259.474 -4.08745 -3.70988 0
M  V30 2792 H 261.95 -2.16703 -3.55217 0
M  V30 2793 H 260.826 -2.47014 -4.90179 0
M  V30 2794 H 261.087 -0.825321 -4.34328 0
M  V30 2795 N 260.146 1.09593 -1.13257 0
M  V30 2796 C 261.562 1.33775 -0.870423 0
M  V30 2797 C 261.762 1.95327 0.494926 0
M  V30 2798 O 260.818 2.19853 1.2418 0
M  V30 2799 C 262.131 2.25106 -1.99369 0
M  V30 2800 C 263.679 2.3862 -2.02558 0
M  V30 2801 C 264.154 3.33285 -3.14142 0
M  V30 2802 N 265.645 3.40857 -3.13641 0
M  V30 2803 C 266.38 4.14101 -3.96621 0
M  V30 2804 N 265.876 4.90157 -4.8961 0
M  V30 2805 N 267.669 4.09808 -3.84726 0
M  V30 2806 H 259.82 0.680136 -2.01216 0
M  V30 2807 H 262.083 0.362133 -0.876107 0
M  V30 2808 H 261.789 1.87103 -2.97801 0
M  V30 2809 H 261.663 3.25481 -1.90635 0
M  V30 2810 H 264.05 2.75887 -1.0474 0
M  V30 2811 H 264.131 1.38028 -2.15364 0
M  V30 2812 H 263.775 2.96741 -4.12198 0
M  V30 2813 H 263.705 4.33776 -2.98574 0
M  V30 2814 H 266.196 2.86624 -2.46282 0
M  V30 2815 H 266.509 5.4347 -5.49418 0
M  V30 2816 H 264.854 4.89251 -4.93617 0
M  V30 2817 H 268.045 3.4949 -3.11408 0
M  V30 2818 H 268.218 4.66629 -4.49623 0
M  V30 2819 N 261.624 0.925811 1.2754 0
M  V30 2820 C 262.534 0.428993 2.30644 0
M  V30 2821 C 263.55 -0.489387 1.66976 0
M  V30 2822 O 264.726 -0.372653 1.97922 0
M  V30 2823 C 261.791 -0.311967 3.45294 0
M  V30 2824 C 260.852 0.641098 4.24486 0
M  V30 2825 C 260.085 -0.0645955 5.33661 0
M  V30 2826 O 260.308 -1.28429 5.55754 0
M  V30 2827 O 259.242 0.606265 5.98839 0
M  V30 2828 H 263.068 1.28504 2.75173 0
M  V30 2829 H 260.653 0.691086 1.32455 0
M  V30 2830 H 262.535 -0.729972 4.15029 0
M  V30 2831 H 261.21 -1.14365 3.02824 0
M  V30 2832 H 260.117 1.10874 3.57292 0
M  V30 2833 H 261.45 1.43995 4.70666 0
M  V30 2834 N 263.102 -1.41638 0.69111 0
M  V30 2835 C 264.05 -2.32597 0.0115199 0
M  V30 2836 C 265.044 -1.5072 -0.773296 0
M  V30 2837 O 266.25 -1.66685 -0.67942 0
M  V30 2838 H 262.625 -0.751849 -0.0150746 0
M  V30 2839 H 264.596 -2.87593 0.795791 0
M  V30 2840 C 263.345 -3.35467 -0.914172 0
M  V30 2841 H 262.668 -3.9852 -0.319687 0
M  V30 2842 H 264.108 -4.01662 -1.35808 0
M  V30 2843 C 262.567 -2.69004 -2.02826 0
M  V30 2844 O 263.097 -2.53444 -3.11655 0
M  V30 2845 N 261.303 -2.2777 -1.80469 0
M  V30 2846 H 260.85 -2.40626 -0.919615 0
M  V30 2847 H 260.808 -1.83635 -2.55197 0
M  V30 2848 N 264.58 -0.43555 -1.51462 0
M  V30 2849 C 265.527 0.376797 -2.27703 0
M  V30 2850 C 266.497 1.01838 -1.31219 0
M  V30 2851 O 267.682 1.03762 -1.60119 0
M  V30 2852 C 264.822 1.47301 -3.12084 0
M  V30 2853 C 263.935 0.849744 -4.2356 0
M  V30 2854 C 263.07 1.92086 -4.95254 0
M  V30 2855 C 262.109 1.27593 -5.98654 0
M  V30 2856 N 261.246 2.28833 -6.63762 0
M  V30 2857 H 266.086 -0.279734 -2.96684 0
M  V30 2858 H 263.623 -0.149795 -1.46335 0
M  V30 2859 H 265.581 2.11984 -3.59331 0
M  V30 2860 H 264.211 2.0992 -2.45221 0
M  V30 2861 H 263.263 0.0912529 -3.80291 0
M  V30 2862 H 264.575 0.338878 -4.97648 0
M  V30 2863 H 263.729 2.64435 -5.46039 0
M  V30 2864 H 262.468 2.46545 -4.20793 0
M  V30 2865 H 261.473 0.537893 -5.47162 0
M  V30 2866 H 262.698 0.738693 -6.7507 0
M  V30 2867 H 260.644 2.82375 -5.92115 0
M  V30 2868 H 260.561 1.82632 -7.33608 0
M  V30 2869 H 261.829 3.00671 -7.19178 0
M  V30 2870 N 266.058 1.56714 -0.166846 0
M  V30 2871 C 267.335 1.88412 0.525373 0
M  V30 2872 C 267.715 1.07602 1.81618 0
M  V30 2873 O 267.063 0.168621 2.27877 0
M  V30 2874 C 267.273 3.40363 0.771613 0
M  V30 2875 C 268.621 4.10007 1.1036 0
M  V30 2876 O 269.645 3.45655 0.860304 0
M  V30 2877 O 268.504 5.2369 1.56239 0
M  V30 2878 H 265.598 0.781587 0.270278 0
M  V30 2879 H 268.144 1.68458 -0.204946 0
M  V30 2880 H 266.916 3.91046 -0.141093 0
M  V30 2881 H 266.539 3.65914 1.55541 0
M  V30 2882 N 267.536 -0.106894 1.57237 0
M  V30 2883 C 268.783 -0.812526 1.85484 0
M  V30 2884 C 269.111 -1.79304 0.753687 0
M  V30 2885 O 268.366 -1.94047 -0.253853 0
M  V30 2886 C 268.665 -1.58628 3.20268 0
M  V30 2887 C 268.331 -0.748967 4.44636 0
M  V30 2888 C 266.993 -0.518104 4.78403 0
M  V30 2889 C 269.345 -0.166122 5.20935 0
M  V30 2890 C 266.673 0.305659 5.85903 0
M  V30 2891 C 269.025 0.644899 6.29304 0
M  V30 2892 C 267.689 0.885965 6.61594 0
M  V30 2893 H 266.959 -0.297324 0.678734 0
M  V30 2894 H 269.606 -0.0744332 1.91355 0
M  V30 2895 H 267.911 -2.39562 3.10028 0
M  V30 2896 H 269.608 -2.13643 3.39349 0
M  V30 2897 H 266.198 -0.939006 4.18187 0
M  V30 2898 H 270.382 -0.33167 4.95191 0
M  V30 2899 H 265.638 0.501528 6.0934 0
M  V30 2900 H 269.812 1.10345 6.87602 0
M  V30 2901 H 267.439 1.52609 7.44725 0
M  V30 2902 N 269.014 -1.53014 -0.377408 0
M  V30 2903 C 270.263 -1.67845 -1.11853 0
M  V30 2904 C 270.576 -0.430625 -1.90801 0
M  V30 2905 O 271.782 -0.459261 -2.67587 0
M  V30 2906 C 270.238 -2.96668 -2.03756 0
M  V30 2907 C 269.846 -4.28671 -1.30175 0
M  V30 2908 C 271.59 -3.20865 -2.77932 0
M  V30 2909 C 269.497 -5.48591 -2.20911 0
M  V30 2910 H 268.427 -0.625343 -0.421263 0
M  V30 2911 H 271.078 -1.79514 -0.380409 0
M  V30 2912 H 269.46 -2.78773 -2.8125 0
M  V30 2913 H 270.634 -4.57157 -0.578259 0
M  V30 2914 H 268.949 -4.10825 -0.679108 0
M  V30 2915 H 271.546 -4.07642 -3.46024 0
M  V30 2916 H 271.889 -2.36424 -3.4265 0
M  V30 2917 H 272.422 -3.39379 -2.07525 0
M  V30 2918 H 269.161 -6.35474 -1.6079 0
M  V30 2919 H 268.681 -5.244 -2.91144 0
M  V30 2920 H 270.36 -5.8292 -2.80736 0
M  V30 2921 N 270.492 0.636531 -1.44174 0
M  V30 2922 C 271.908 0.954104 -1.27941 0
M  V30 2923 C 272.108 2.0039 -0.211248 0
M  V30 2924 O 271.164 2.49236 0.404695 0
M  V30 2925 C 272.477 1.4225 -2.64925 0
M  V30 2926 C 274.025 1.53827 -2.72592 0
M  V30 2927 C 274.5 2.04053 -4.10032 0
M  V30 2928 N 275.991 2.11331 -4.12182 0
M  V30 2929 C 276.726 2.51352 -5.15374 0
M  V30 2930 N 276.222 2.90549 -6.2893 0
M  V30 2931 N 278.015 2.51438 -5.02728 0
M  V30 2932 H 270.166 -0.0578386 -2.12321 0
M  V30 2933 H 272.429 0.0367406 -0.947288 0
M  V30 2934 H 272.135 0.725466 -3.44136 0
M  V30 2935 H 272.009 2.39451 -2.9145 0
M  V30 2936 H 274.396 2.22628 -1.93702 0
M  V30 2937 H 274.477 0.550154 -2.49814 0
M  V30 2938 H 274.121 1.35848 -4.89395 0
M  V30 2939 H 274.051 3.03726 -4.30184 0
M  V30 2940 H 276.542 1.83745 -3.30222 0
M  V30 2941 H 276.855 3.19884 -7.03487 0
M  V30 2942 H 275.2 2.88313 -6.32377 0
M  V30 2943 H 278.391 2.20203 -4.13072 0
M  V30 2944 H 278.564 2.82304 -5.83274 0
M  V30 2945 N 271.97 1.30982 0.876444 0
M  V30 2946 C 273.381 1.18277 1.44456 0
M  V30 2947 C 273.732 -0.213265 1.95037 0
M  V30 2948 O 272.857 -1.11057 1.85729 0
M  V30 2949 C 273.452 2.1411 2.62569 0
M  V30 2950 C 272.011 2.05358 3.15444 0
M  V30 2951 C 271.158 2.03706 1.88146 0
M  V30 2952 H 274.109 1.43127 0.685584 0
M  V30 2953 H 274.13 1.72692 3.39054 0
M  V30 2954 H 273.642 3.15706 2.25724 0
M  V30 2955 H 271.743 1.06934 3.56926 0
M  V30 2956 H 271.856 2.94156 3.78166 0
M  V30 2957 H 270.22 1.48629 2.06837 0
M  V30 2958 H 271.003 3.07047 1.53547 0
M  V30 2959 N 273.449 -1.08991 1.13837 0
M  V30 2960 C 274.396 -2.15748 0.819835 0
M  V30 2961 C 275.366 -1.64636 -0.220026 0
M  V30 2962 O 276.551 -1.90582 -0.0912757 0
M  V30 2963 C 273.691 -3.4382 0.296913 0
M  V30 2964 C 272.804 -4.0881 1.39636 0
M  V30 2965 C 271.939 -5.24655 0.831314 0
M  V30 2966 C 270.978 -5.81575 1.90886 0
M  V30 2967 N 270.115 -6.88774 1.36142 0
M  V30 2968 H 274.955 -2.42338 1.73426 0
M  V30 2969 H 272.492 -1.18935 0.865613 0
M  V30 2970 H 274.45 -4.17193 -0.0244339 0
M  V30 2971 H 273.08 -3.17535 -0.580628 0
M  V30 2972 H 272.132 -3.33258 1.83422 0
M  V30 2973 H 273.444 -4.47141 2.21058 0
M  V30 2974 H 272.598 -6.04942 0.461515 0
M  V30 2975 H 271.337 -4.87698 -0.013932 0
M  V30 2976 H 270.342 -4.99946 2.28767 0
M  V30 2977 H 271.567 -6.20592 2.75758 0
M  V30 2978 H 269.513 -6.53788 0.538254 0
M  V30 2979 H 269.43 -7.25898 2.11208 0
M  V30 2980 H 270.698 -7.72806 1.01933 0
M  V30 2981 N 274.927 -0.932562 -1.27047 0
M  V30 2982 C 275.857 -0.452902 -2.29066 0
M  V30 2983 C 276.838 0.489338 -1.62909 0
M  V30 2984 O 278.023 0.393046 -1.90181 0
M  V30 2985 C 275.153 0.290698 -3.46081 0
M  V30 2986 C 274.107 -0.564168 -4.24265 0
M  V30 2987 C 273.433 0.308886 -5.33807 0
M  V30 2988 C 274.733 -1.83112 -4.89149 0
M  V30 2989 H 276.427 -1.30552 -2.69437 0
M  V30 2990 H 273.973 -0.629201 -1.29526 0
M  V30 2991 H 275.926 0.637233 -4.16554 0
M  V30 2992 H 274.65 1.17738 -3.0464 0
M  V30 2993 H 273.309 -0.893477 -3.55545 0
M  V30 2994 H 272.957 1.19467 -4.88607 0
M  V30 2995 H 272.657 -0.259633 -5.87026 0
M  V30 2996 H 274.181 0.650884 -6.07121 0
M  V30 2997 H 275.595 -1.55236 -5.51883 0
M  V30 2998 H 273.992 -2.34353 -5.52448 0
M  V30 2999 H 275.062 -2.54772 -4.12576 0
M  V30 3000 N 276.405 1.4127 -0.698611 0
M  V30 3001 C 277.651 2.01478 -0.231207 0
M  V30 3002 C 277.984 1.55215 1.16713 0
M  V30 3003 O 277.259 0.764672 1.78838 0
M  V30 3004 C 277.542 3.58912 -0.292281 0
M  V30 3005 C 277.395 4.15293 -1.72778 0
M  V30 3006 C 278.714 4.38736 0.346194 0
M  V30 3007 H 275.833 0.732025 -0.0854878 0
M  V30 3008 H 278.475 1.67977 -0.887906 0
M  V30 3009 H 276.625 3.87582 0.26686 0
M  V30 3010 H 278.297 3.97486 -2.341 0
M  V30 3011 H 276.54 3.7022 -2.26096 0
M  V30 3012 H 277.211 5.24452 -1.72202 0
M  V30 3013 H 279.687 4.15897 -0.130035 0
M  V30 3014 H 278.563 5.48221 0.272932 0
M  V30 3015 H 278.824 4.18425 1.42734 0
M  V30 3016 N 277.883 0.443576 1.51229 0
M  V30 3017 C 279.111 -0.11929 2.06556 0
M  V30 3018 C 279.526 -1.35921 1.31038 0
M  V30 3019 O 278.883 -1.78675 0.371704 0
M  V30 3020 C 278.934 -0.435228 3.5887 0
M  V30 3021 O 278.655 0.755486 4.31537 0
M  V30 3022 C 280.156 -1.04808 4.30732 0
M  V30 3023 H 277.376 -0.0051584 0.67098 0
M  V30 3024 H 279.92 0.624453 1.94733 0
M  V30 3025 H 278.075 -1.12887 3.70588 0
M  V30 3026 H 278.489 0.483491 5.22267 0
M  V30 3027 H 279.963 -1.2191 5.3837 0
M  V30 3028 H 280.44 -2.03081 3.89429 0
M  V30 3029 H 281.046 -0.393637 4.23474 0
M  V30 3030 N 279.361 -1.56624 0.175154 0
M  V30 3031 C 280.61 -1.96173 -0.468921 0
M  V30 3032 C 280.923 -1.06401 -1.64128 0
M  V30 3033 O 282.129 -1.35648 -2.35185 0
M  V30 3034 C 280.585 -3.48833 -0.885633 0
M  V30 3035 C 280.193 -4.47237 0.261343 0
M  V30 3036 C 281.937 -3.97194 -1.49791 0
M  V30 3037 C 279.844 -5.9114 -0.175214 0
M  V30 3038 H 278.774 -0.732455 -0.178958 0
M  V30 3039 H 281.425 -1.81591 0.263997 0
M  V30 3040 H 279.807 -3.58848 -1.67464 0
M  V30 3041 H 280.981 -4.4894 1.03871 0
M  V30 3042 H 279.296 -4.08956 0.783827 0
M  V30 3043 H 281.893 -5.02167 -1.83665 0
M  V30 3044 H 282.236 -3.40351 -2.39722 0
M  V30 3045 H 282.769 -3.90212 -0.773267 0
M  V30 3046 H 279.508 -6.51865 0.689414 0
M  V30 3047 H 279.028 -5.92735 -0.91786 0
M  V30 3048 H 280.707 -6.44044 -0.617792 0
M  V30 3049 N 280.839 0.0985539 -1.57292 0
M  V30 3050 C 282.088 0.801358 -1.85098 0
M  V30 3051 C 282.401 1.80066 -0.763902 0
M  V30 3052 O 283.607 2.55112 -0.928981 0
M  V30 3053 C 282.063 1.47599 -3.28242 0
M  V30 3054 C 281.671 0.516624 -4.45011 0
M  V30 3055 C 283.415 2.16272 -3.65276 0
M  V30 3056 C 281.322 1.19564 -5.79188 0
M  V30 3057 H 280.252 0.303022 -0.69043 0
M  V30 3058 H 282.903 0.0542623 -1.8342 0
M  V30 3059 H 281.285 2.27042 -3.2445 0
M  V30 3060 H 282.459 -0.246065 -4.60143 0
M  V30 3061 H 280.774 -0.064227 -4.1635 0
M  V30 3062 H 283.371 2.67802 -4.62803 0
M  V30 3063 H 283.714 2.95009 -2.93727 0
M  V30 3064 H 284.247 1.43693 -3.70941 0
M  V30 3065 H 280.986 0.449157 -6.53959 0
M  V30 3066 H 280.506 1.92984 -5.67906 0
M  V30 3067 H 282.185 1.7231 -6.23633 0
M  V30 3068 N 282.317 1.53212 0.369288 0
M  V30 3069 C 283.733 1.42902 0.710712 0
M  V30 3070 C 283.933 0.565135 1.93413 0
M  V30 3071 O 282.989 0.0461484 2.52458 0
M  V30 3072 C 284.302 2.86042 0.927382 0
M  V30 3073 C 285.85 2.9565 1.02762 0
M  V30 3074 C 286.325 4.39843 1.27679 0
M  V30 3075 N 287.816 4.43256 1.34457 0
M  V30 3076 C 288.551 5.51929 1.55439 0
M  V30 3077 N 288.047 6.70655 1.73762 0
M  V30 3078 N 289.84 5.39502 1.57779 0
M  V30 3079 H 281.991 2.07888 -0.435457 0
M  V30 3080 H 284.254 0.938661 -0.132739 0
M  V30 3081 H 283.96 3.51557 0.100287 0
M  V30 3082 H 283.834 3.29472 1.83653 0
M  V30 3083 H 286.221 2.30291 1.84527 0
M  V30 3084 H 286.302 2.5562 0.0959504 0
M  V30 3085 H 285.946 5.05774 0.464175 0
M  V30 3086 H 285.876 4.77443 2.22162 0
M  V30 3087 H 288.367 3.5769 1.21926 0
M  V30 3088 H 288.68 7.49248 1.89335 0
M  V30 3089 H 287.025 6.73648 1.70948 0
M  V30 3090 H 290.216 4.45713 1.43029 0
M  V30 3091 H 290.389 6.2426 1.7379 0
M  V30 3092 N 283.795 -0.628877 1.44509 0
M  V30 3093 C 285.02 -1.42048 1.5112 0
M  V30 3094 C 285.445 -1.87594 0.137818 0
M  V30 3095 O 284.803 -1.58873 -0.873437 0
M  V30 3096 C 284.851 -2.61541 2.48251 0
M  V30 3097 O 283.955 -3.61453 1.98559 0
M  V30 3098 H 283.296 -0.424942 0.510216 0
M  V30 3099 H 285.826 -0.767374 1.89664 0
M  V30 3100 H 285.836 -3.09057 2.66361 0
M  V30 3101 H 284.511 -2.27736 3.48007 0
M  V30 3102 H 283.088 -3.20731 1.90227 0
M  V30 3103 N 285.273 -1.31445 -0.869486 0
M  V30 3104 C 286.521 -1.20918 -1.61936 0
M  V30 3105 C 286.842 0.232683 -1.93607 0
M  V30 3106 O 286.112 1.15352 -1.58338 0
M  V30 3107 H 284.692 -0.44454 -0.600328 0
M  V30 3108 H 287.354 -1.64776 -1.0409 0
M  V30 3109 H 286.45 -1.78124 -2.56278 0
M  V30 3110 N 286.751 1.08385 -1.14413 0
M  V30 3111 C 287.997 1.81044 -0.913834 0
M  V30 3112 C 288.33 1.86004 0.558209 0
M  V30 3113 O 287.605 1.33606 1.4135 0
M  V30 3114 C 287.888 3.26648 -1.51569 0
M  V30 3115 C 287.741 3.29895 -3.0576 0
M  V30 3116 C 289.06 4.23629 -1.19273 0
M  V30 3117 H 286.179 0.65727 -0.333414 0
M  V30 3118 H 288.821 1.26896 -1.41412 0
M  V30 3119 H 286.971 3.72889 -1.09023 0
M  V30 3120 H 288.643 2.91977 -3.57137 0
M  V30 3121 H 286.886 2.69163 -3.40197 0
M  V30 3122 H 287.557 4.32516 -3.42977 0
M  V30 3123 H 290.033 3.85727 -1.56057 0
M  V30 3124 H 288.909 5.23822 -1.64017 0
M  V30 3125 H 289.17 4.41968 -0.108068 0
M  V30 3126 N 288.23 0.939286 1.26551 0
M  V30 3127 C 289.177 0.446088 2.26448 0
M  V30 3128 C 290.147 -0.493234 1.58608 0
M  V30 3129 O 291.332 -0.409857 1.86346 0
M  V30 3130 C 288.472 -0.284375 3.43926 0
M  V30 3131 C 287.585 0.690399 4.26448 0
M  V30 3132 C 286.72 -0.0610712 5.31165 0
M  V30 3133 C 285.759 0.905649 6.05363 0
M  V30 3134 N 284.896 0.186055 7.01853 0
M  V30 3135 H 289.736 1.30291 2.68008 0
M  V30 3136 H 287.273 0.65371 1.31776 0
M  V30 3137 H 289.231 -0.724313 4.10864 0
M  V30 3138 H 287.861 -1.10535 3.03285 0
M  V30 3139 H 286.913 1.24885 3.59316 0
M  V30 3140 H 288.225 1.42873 4.779 0
M  V30 3141 H 287.379 -0.56038 6.04106 0
M  V30 3142 H 286.118 -0.832297 4.80546 0
M  V30 3143 H 285.123 1.4161 5.3125 0
M  V30 3144 H 286.348 1.67685 6.58072 0
M  V30 3145 H 284.294 -0.566714 6.53548 0
M  V30 3146 H 284.211 0.863752 7.51049 0
M  V30 3147 H 285.479 -0.292221 7.78952 0
M  V30 3148 N 289.708 -1.40897 0.706093 0
M  V30 3149 C 291.119 -1.84023 0.315052 0
M  V30 3150 C 291.47 -1.5906 -1.14866 0
M  V30 3151 O 290.595 -1.06651 -1.88293 0
M  V30 3152 C 291.19 -3.34055 0.565038 0
M  V30 3153 C 289.749 -3.7571 0.227806 0
M  V30 3154 C 288.896 -2.64204 0.842122 0
M  V30 3155 H 291.847 -1.303 0.905963 0
M  V30 3156 H 291.868 -3.80107 -0.172843 0
M  V30 3157 H 291.38 -3.52192 1.63042 0
M  V30 3158 H 289.481 -3.63172 -0.832895 0
M  V30 3159 H 289.594 -4.74103 0.690174 0
M  V30 3160 H 287.958 -2.53255 0.270893 0
M  V30 3161 H 288.741 -2.85155 1.91158 0
M  V30 3162 N 291.186 -0.45159 -1.50991 0
M  V30 3163 C 292.602 -0.104647 -1.59257 0
M  V30 3164 C 292.802 1.38728 -1.4614 0
M  V30 3165 O 291.858 2.15866 -1.30989 0
M  V30 3166 C 293.171 -0.637468 -2.93865 0
M  V30 3167 C 294.719 -0.599166 -3.07212 0
M  V30 3168 C 295.194 -1.1092 -4.44366 0
M  V30 3169 N 296.685 -1.06778 -4.50725 0
M  V30 3170 C 297.42 -1.43314 -5.55201 0
M  V30 3171 N 296.916 -1.87204 -6.67028 0
M  V30 3172 N 298.709 -1.3504 -5.45638 0
M  V30 3173 H 290.86 -1.42214 -1.57762 0
M  V30 3174 H 293.123 -0.586921 -0.744465 0
M  V30 3175 H 292.829 -1.68187 -3.08879 0
M  V30 3176 H 292.703 -0.0702139 -3.77135 0
M  V30 3177 H 295.09 0.436277 -2.91857 0
M  V30 3178 H 295.171 -1.20299 -2.25747 0
M  V30 3179 H 294.815 -2.14318 -4.60467 0
M  V30 3180 H 294.745 -0.481773 -5.24392 0
M  V30 3181 H 297.236 -0.745643 -3.70471 0
M  V30 3182 H 297.549 -2.13282 -7.42786 0
M  V30 3183 H 295.894 -1.91142 -6.68199 0
M  V30 3184 H 299.085 -1.00607 -4.57161 0
M  V30 3185 H 299.258 -1.63841 -6.26945 0
M  V30 3186 N 292.664 1.56529 -0.183458 0
M  V30 3187 C 293.611 2.18546 0.742055 0
M  V30 3188 C 294.581 1.12912 1.2182 0
M  V30 3189 O 295.766 1.41115 1.28418 0
M  V30 3190 C 292.906 2.83977 1.96089 0
M  V30 3191 C 292.019 4.04105 1.52719 0
M  V30 3192 C 291.154 4.57427 2.70063 0
M  V30 3193 C 290.193 5.69938 2.23243 0
M  V30 3194 N 289.33 6.17717 3.33722 0
M  V30 3195 H 294.17 2.97284 0.206432 0
M  V30 3196 H 291.707 1.46823 0.0901571 0
M  V30 3197 H 293.665 3.20077 2.67594 0
M  V30 3198 H 292.295 2.07822 2.47002 0
M  V30 3199 H 291.347 3.73745 0.708436 0
M  V30 3200 H 292.659 4.85513 1.1436 0
M  V30 3201 H 291.813 4.95772 3.49708 0
M  V30 3202 H 290.552 3.75101 3.11689 0
M  V30 3203 H 289.557 5.31133 1.42048 0
M  V30 3204 H 290.782 6.54073 1.82661 0
M  V30 3205 H 288.728 5.38317 3.74902 0
M  V30 3206 H 288.645 6.94146 2.99495 0
M  V30 3207 H 289.913 6.60713 4.13616 0
M  V30 3208 N 294.142 -0.090211 1.57342 0
M  V30 3209 C 295.105 -1.09335 2.01441 0
M  V30 3210 C 296.105 -1.32666 0.908641 0
M  V30 3211 O 297.295 -1.28697 1.174 0
M  V30 3212 C 294.427 -2.44136 2.3793 0
M  V30 3213 H 295.62 -0.713662 2.91285 0
M  V30 3214 H 293.173 -0.335404 1.52659 0
M  V30 3215 H 293.908 -2.86972 1.51055 0
M  V30 3216 H 293.693 -2.28548 3.18603 0
M  V30 3217 H 295.183 -3.16277 2.72688 0
M  V30 3218 N 295.62 -1.53406 -0.361157 0
M  V30 3219 C 296.866 -1.70054 -1.10496 0
M  V30 3220 C 297.199 -0.453278 -1.88836 0
M  V30 3221 O 296.474 0.5495 -1.86576 0
M  V30 3222 C 296.757 -2.95317 -2.06058 0
M  V30 3223 C 296.61 -4.3021 -1.31298 0
M  V30 3224 C 297.929 -3.16193 -3.06121 0
M  V30 3225 H 295.048 -0.618799 -0.400321 0
M  V30 3226 H 297.69 -1.86052 -0.385318 0
M  V30 3227 H 295.84 -2.81809 -2.67425 0
M  V30 3228 H 297.512 -4.55538 -0.726807 0
M  V30 3229 H 295.755 -4.29421 -0.614853 0
M  V30 3230 H 296.426 -5.14 -2.01265 0
M  V30 3231 H 298.902 -3.28916 -2.5486 0
M  V30 3232 H 297.778 -4.05266 -3.70204 0
M  V30 3233 H 298.039 -2.31676 -3.76535 0
M  V30 3234 N 297.098 0.621204 -1.44841 0
M  V30 3235 C 298.514 0.94048 -1.28946 0
M  V30 3236 C 298.714 2.00154 -0.23249 0
M  V30 3237 O 297.77 2.49651 0.378237 0
M  V30 3238 C 299.083 1.39433 -2.66419 0
M  V30 3239 C 300.631 1.50927 -2.74208 0
M  V30 3240 C 301.106 1.99692 -4.12174 0
M  V30 3241 N 302.597 2.06947 -4.144 0
M  V30 3242 C 303.332 2.45871 -5.1801 0
M  V30 3243 N 302.828 2.83862 -6.31977 0
M  V30 3244 N 304.621 2.46092 -5.05366 0
M  V30 3245 H 296.772 -0.0803548 -2.12248 0
M  V30 3246 H 299.035 0.0266913 -0.947624 0
M  V30 3247 H 298.741 0.688925 -3.44887 0
M  V30 3248 H 298.615 2.36347 -2.93973 0
M  V30 3249 H 301.002 2.20561 -1.96053 0
M  V30 3250 H 301.083 0.523627 -2.50383 0
M  V30 3251 H 300.727 1.30649 -4.90809 0
M  V30 3252 H 300.657 2.99146 -4.33381 0
M  V30 3253 H 303.148 1.80232 -3.32152 0
M  V30 3254 H 303.461 3.12405 -7.0684 0
M  V30 3255 H 301.806 2.8159 -6.35399 0
M  V30 3256 H 304.997 2.1581 -4.15384 0
M  V30 3257 H 305.17 2.76102 -5.86235 0
M  V30 3258 N 298.576 1.31904 0.862503 0
M  V30 3259 C 299.825 1.21373 1.61094 0
M  V30 3260 C 300.138 -0.22504 1.94301 0
M  V30 3261 O 301.344 -0.452121 2.67709 0
M  V30 3262 C 299.8 2.12525 2.9045 0
M  V30 3263 C 299.408 3.61441 2.64697 0
M  V30 3264 C 301.152 2.10813 3.68454 0
M  V30 3265 C 299.059 4.44578 3.90006 0
M  V30 3266 H 297.989 0.450705 0.604468 0
M  V30 3267 H 300.64 1.56811 0.953027 0
M  V30 3268 H 299.022 1.69994 3.57656 0
M  V30 3269 H 300.196 4.12264 2.05851 0
M  V30 3270 H 298.511 3.65205 2.00036 0
M  V30 3271 H 301.108 2.70167 4.61426 0
M  V30 3272 H 301.451 1.09713 4.01583 0
M  V30 3273 H 301.984 2.51583 3.08141 0
M  V30 3274 H 298.723 5.46461 3.62023 0
M  V30 3275 H 298.243 3.98508 4.48276 0
M  V30 3276 H 299.922 4.57176 4.5782 0
M  V30 3277 N 300.054 -1.07777 1.14986 0
M  V30 3278 C 300.984 -2.16865 0.865557 0
M  V30 3279 C 301.965 -1.69123 -0.182083 0
M  V30 3280 O 303.15 -1.94164 -0.0373815 0
M  V30 3281 C 300.28 -3.45539 0.349313 0
M  V30 3282 C 299.234 -4.06708 1.33313 0
M  V30 3283 C 298.56 -5.30411 0.675918 0
M  V30 3284 C 299.86 -4.47241 2.69764 0
M  V30 3285 H 301.554 -2.40905 1.77778 0
M  V30 3286 H 299.1 -1.15781 0.856203 0
M  V30 3287 H 301.053 -4.21174 0.137983 0
M  V30 3288 H 299.777 -3.21072 -0.598362 0
M  V30 3289 H 298.436 -3.33112 1.53075 0
M  V30 3290 H 298.084 -5.02232 -0.277767 0
M  V30 3291 H 297.784 -5.72293 1.33244 0
M  V30 3292 H 299.308 -6.08755 0.474262 0
M  V30 3293 H 300.722 -5.14025 2.53873 0
M  V30 3294 H 299.119 -5.00062 3.3175 0
M  V30 3295 H 300.189 -3.58818 3.26156 0
M  V30 3296 N 301.532 -0.945985 -1.26051 0
M  V30 3297 C 302.462 -0.477172 -2.28572 0
M  V30 3298 C 303.443 0.472032 -1.63419 0
M  V30 3299 O 304.628 0.372853 -1.90587 0
M  V30 3300 C 301.758 0.253975 -3.4637 0
M  V30 3301 C 300.712 -0.609135 -4.23643 0
M  V30 3302 C 300.038 0.252252 -5.34105 0
M  V30 3303 C 301.338 -1.8829 -4.8718 0
M  V30 3304 H 303.032 -1.33402 -2.68038 0
M  V30 3305 H 300.578 -0.642904 -1.28852 0
M  V30 3306 H 302.531 0.593016 -4.17207 0
M  V30 3307 H 301.255 1.145 -3.05871 0
M  V30 3308 H 299.914 -0.931138 -3.54578 0
M  V30 3309 H 299.562 1.14278 -4.89846 0
M  V30 3310 H 299.262 -0.32188 -5.86718 0
M  V30 3311 H 300.786 0.586454 -6.07777 0
M  V30 3312 H 302.2 -1.61081 -5.50205 0
M  V30 3313 H 300.597 -2.40199 -5.49931 0
M  V30 3314 H 301.667 -2.59134 -4.09851 0
M  V30 3315 N 303.011 1.40521 -0.713556 0
M  V30 3316 C 303.959 2.32549 -0.0485227 0
M  V30 3317 C 304.953 1.51931 0.74922 0
M  V30 3318 O 306.159 1.67745 0.652816 0
M  V30 3319 H 302.534 0.751994 0.00311138 0
M  V30 3320 H 304.505 2.86291 -0.841443 0
M  V30 3321 C 303.254 3.36879 0.860687 0
M  V30 3322 H 302.577 3.98978 0.256246 0
M  V30 3323 H 304.017 4.03772 1.294 0
M  V30 3324 C 302.476 2.72197 1.9852 0
M  V30 3325 O 303.006 2.5837 3.07584 0
M  V30 3326 N 301.212 2.30612 1.76823 0
M  V30 3327 H 300.759 2.42059 0.881217 0
M  V30 3328 H 300.717 1.87672 2.52243 0
M  V30 3329 N 304.489 0.459591 1.5075 0
M  V30 3330 C 305.436 -0.340524 2.28274 0
M  V30 3331 C 306.406 -0.997371 1.32822 0
M  V30 3332 O 307.591 -1.01202 1.61749 0
M  V30 3333 C 304.731 -1.42317 3.14388 0
M  V30 3334 C 303.844 -0.782251 4.24859 0
M  V30 3335 C 302.979 -1.84182 4.98247 0
M  V30 3336 C 302.018 -1.18053 6.00608 0
M  V30 3337 N 301.155 -2.18244 6.67319 0
M  V30 3338 H 305.995 0.326899 2.96202 0
M  V30 3339 H 303.532 0.173057 1.46078 0
M  V30 3340 H 305.49 -2.06241 3.62658 0
M  V30 3341 H 304.12 -2.05992 2.4853 0
M  V30 3342 H 303.172 -0.0307404 3.80388 0
M  V30 3343 H 304.484 -0.259663 4.98124 0
M  V30 3344 H 303.638 -2.55714 5.50177 0
M  V30 3345 H 302.377 -2.39819 4.24662 0
M  V30 3346 H 301.382 -0.450776 5.47949 0
M  V30 3347 H 302.607 -0.631202 6.7616 0
M  V30 3348 H 300.553 -2.72919 5.96533 0
M  V30 3349 H 300.47 -1.70938 7.36421 0
M  V30 3350 H 301.738 -2.89191 7.23871 0
M  V30 3351 N 305.967 -1.56429 0.191757 0
M  V30 3352 C 306.914 -2.18936 -0.730454 0
M  V30 3353 C 307.884 -1.13557 -1.21219 0
M  V30 3354 O 309.069 -1.41794 -1.27668 0
M  V30 3355 C 306.209 -2.85013 -1.9458 0
M  V30 3356 C 305.322 -4.04909 -1.50574 0
M  V30 3357 C 304.457 -4.58853 -2.67634 0
M  V30 3358 C 303.496 -5.71114 -2.20217 0
M  V30 3359 N 302.633 -6.19478 -3.30442 0
M  V30 3360 H 307.473 -2.97389 -0.190664 0
M  V30 3361 H 305.01 -1.46869 -0.0823694 0
M  V30 3362 H 306.968 -3.21492 -2.65893 0
M  V30 3363 H 305.598 -2.09129 -2.45896 0
M  V30 3364 H 304.65 -3.74115 -0.688605 0
M  V30 3365 H 305.962 -4.86113 -1.11784 0
M  V30 3366 H 305.116 -4.97619 -3.47074 0
M  V30 3367 H 303.855 -3.76749 -3.09696 0
M  V30 3368 H 302.86 -5.31879 -1.3923 0
M  V30 3369 H 304.085 -6.55033 -1.79189 0
M  V30 3370 H 302.031 -5.40297 -3.72041 0
M  V30 3371 H 301.948 -6.95725 -2.9581 0
M  V30 3372 H 303.216 -6.62898 -4.10106 0
M  V30 3373 N 307.445 0.0818655 -1.57387 0
M  V30 3374 C 308.673 0.796108 -1.9097 0
M  V30 3375 C 309.088 1.71626 -0.786757 0
M  V30 3376 O 308.445 1.80908 0.240513 0
M  V30 3377 C 308.496 1.59829 -3.24248 0
M  V30 3378 O 308.217 0.715131 -4.32224 0
M  V30 3379 C 309.718 2.41442 -3.7178 0
M  V30 3380 H 306.938 0.22691 -0.631469 0
M  V30 3381 H 309.482 0.0551439 -2.04426 0
M  V30 3382 H 307.637 2.29163 -3.12351 0
M  V30 3383 H 308.051 1.27205 -5.08841 0
M  V30 3384 H 309.525 2.932 -4.67694 0
M  V30 3385 H 310.002 3.2051 -3.00283 0
M  V30 3386 H 310.608 1.77283 -3.86589 0
M  V30 3387 N 308.923 1.53595 0.353017 0
M  V30 3388 C 309.886 1.80232 1.41594 0
M  V30 3389 C 310.886 0.673081 1.46035 0
M  V30 3390 O 312.076 0.941335 1.46576 0
M  V30 3391 C 309.208 1.93578 2.80607 0
M  V30 3392 H 310.401 2.75174 1.19244 0
M  V30 3393 H 307.954 1.44864 0.586872 0
M  V30 3394 H 308.689 1.00746 3.08254 0
M  V30 3395 H 308.474 2.75724 2.78781 0
M  V30 3396 H 309.964 2.15735 3.57558 0
M  V30 3397 N 310.401 -0.613514 1.45168 0
M  V30 3398 C 311.351 -1.71871 1.49815 0
M  V30 3399 C 312.335 -1.56774 0.362021 0
M  V30 3400 O 313.527 -1.66212 0.608493 0
M  V30 3401 C 310.656 -3.1061 1.46207 0
M  V30 3402 C 309.742 -3.31114 2.64999 0
M  V30 3403 N 310.133 -3.21904 3.90143 0
M  V30 3404 C 308.431 -3.61966 2.6057 0
M  V30 3405 C 309.132 -3.43577 4.69393 0
M  V30 3406 N 308.108 -3.67287 4.00751 0
M  V30 3407 H 311.91 -1.63235 2.444 0
M  V30 3408 H 309.424 -0.816577 1.40377 0
M  V30 3409 H 311.421 -3.8989 1.4762 0
M  V30 3410 H 310.081 -3.20399 0.52673 0
M  V30 3411 H 311.092 -3.00436 4.21852 0
M  V30 3412 H 307.769 -3.78629 1.75916 0
M  V30 3413 H 309.159 -3.41901 5.78406 0
M  V30 3414 N 311.879 -1.3236 -0.855495 0
M  V30 3415 C 313.104 -1.2601 -1.64731 0
M  V30 3416 C 313.529 0.169068 -1.87339 0
M  V30 3417 O 312.887 1.12016 -1.42556 0
M  V30 3418 C 312.935 -2.02417 -2.98429 0
M  V30 3419 O 312.039 -1.3714 -3.8893 0
M  V30 3420 H 311.38 -0.434325 -0.502253 0
M  V30 3421 H 313.91 -1.74661 -1.06558 0
M  V30 3422 H 313.92 -2.12559 -3.48257 0
M  V30 3423 H 312.595 -3.06343 -2.81295 0
M  V30 3424 H 311.172 -1.3554 -3.47395 0
M  V30 3425 N 313.357 1.07166 -1.15556 0
M  V30 3426 C 314.604 1.79798 -0.931604 0
M  V30 3427 C 314.932 1.8682 0.54115 0
M  V30 3428 O 314.187 1.34942 1.41736 0
M  V30 3429 C 314.486 3.24707 -1.49332 0
M  V30 3430 C 314.152 3.37781 -2.98688 0
M  V30 3431 C 312.814 3.41057 -3.39461 0
M  V30 3432 C 315.166 3.40424 -3.94665 0
M  V30 3433 C 312.494 3.4458 -4.74849 0
M  V30 3434 C 314.846 3.45485 -5.29927 0
M  V30 3435 C 313.51 3.47039 -5.70193 0
M  V30 3436 H 312.78 0.657928 -0.340898 0
M  V30 3437 H 315.427 1.26091 -1.44129 0
M  V30 3438 H 313.732 3.81208 -0.904859 0
M  V30 3439 H 315.429 3.79486 -1.29582 0
M  V30 3440 H 312.019 3.35932 -2.66172 0
M  V30 3441 H 316.203 3.37113 -3.64237 0
M  V30 3442 H 311.459 3.44083 -5.05388 0
M  V30 3443 H 315.633 3.46476 -6.04092 0
M  V30 3444 H 313.26 3.49522 -6.75084 0
M  V30 3445 N 314.835 0.952656 1.25548 0
M  V30 3446 C 315.745 0.47782 2.29682 0
M  V30 3447 C 316.761 -0.453859 1.67977 0
M  V30 3448 O 317.937 -0.330587 1.98668 0
M  V30 3449 C 315.002 -0.238655 3.45878 0
M  V30 3450 C 314.063 0.730994 4.23031 0
M  V30 3451 C 313.296 0.0486165 5.33678 0
M  V30 3452 O 313.519 -1.16612 5.58353 0
M  V30 3453 O 312.453 0.733152 5.97418 0
M  V30 3454 H 316.279 1.34312 2.72386 0
M  V30 3455 H 313.864 0.719026 1.30959 0
M  V30 3456 H 315.746 -0.641774 4.16484 0
M  V30 3457 H 314.421 -1.07916 3.05181 0
M  V30 3458 H 313.328 1.18428 3.5486 0
M  V30 3459 H 314.661 1.53946 4.67506 0
M  V30 3460 N 316.313 -1.40141 0.720998 0
M  V30 3461 C 317.245 -2.29177 0.0324669 0
M  V30 3462 C 318.258 -1.46105 -0.718126 0
M  V30 3463 O 319.447 -1.69335 -0.564608 0
M  V30 3464 C 316.547 -3.24473 -0.978292 0
M  V30 3465 C 315.72 -4.36423 -0.292115 0
M  V30 3466 C 314.779 -5.12122 -1.20901 0
M  V30 3467 O 313.805 -5.64981 -0.691766 0
M  V30 3468 N 315.007 -5.21992 -2.53978 0
M  V30 3469 H 317.772 -2.88909 0.796984 0
M  V30 3470 H 315.333 -1.51569 0.569068 0
M  V30 3471 H 317.325 -3.71987 -1.59398 0
M  V30 3472 H 315.895 -2.65871 -1.64413 0
M  V30 3473 H 315.115 -3.90967 0.503847 0
M  V30 3474 H 316.403 -5.08467 0.183971 0
M  V30 3475 H 315.801 -4.8054 -2.98493 0
M  V30 3476 H 314.358 -5.72995 -3.10677 0
M  V30 3477 N 317.792 -0.46758 -1.50504 0
M  V30 3478 C 319.038 0.0887532 -2.02606 0
M  V30 3479 C 319.371 1.39686 -1.34913 0
M  V30 3480 O 318.646 1.88644 -0.473694 0
M  V30 3481 C 318.929 0.276206 -3.59039 0
M  V30 3482 C 318.782 -1.05267 -4.37309 0
M  V30 3483 C 320.101 1.03235 -4.27821 0
M  V30 3484 H 317.22 0.0307814 -0.736357 0
M  V30 3485 H 319.862 -0.612485 -1.79857 0
M  V30 3486 H 318.012 0.8735 -3.78553 0
M  V30 3487 H 319.684 -1.68628 -4.29374 0
M  V30 3488 H 317.927 -1.65015 -4.01189 0
M  V30 3489 H 318.598 -0.875197 -5.45018 0
M  V30 3490 H 321.074 0.526111 -4.12761 0
M  V30 3491 H 319.95 1.1323 -5.37094 0
M  V30 3492 H 320.211 2.06806 -3.90748 0
M  V30 3493 N 319.27 1.56325 -0.20005 0
M  V30 3494 C 320.2 2.22318 0.713916 0
M  V30 3495 C 321.181 1.18788 1.21752 0
M  V30 3496 O 322.366 1.47309 1.26545 0
M  V30 3497 C 319.496 2.88639 1.93144 0
M  V30 3498 C 318.45 3.98457 1.56255 0
M  V30 3499 C 317.776 4.51967 2.85709 0
M  V30 3500 C 319.076 5.16612 0.768747 0
M  V30 3501 H 320.77 2.98952 0.163755 0
M  V30 3502 H 318.316 1.43792 0.0773219 0
M  V30 3503 H 320.269 3.33491 2.57608 0
M  V30 3504 H 318.993 2.09419 2.50621 0
M  V30 3505 H 317.652 3.54305 0.941471 0
M  V30 3506 H 317.3 3.69503 3.41287 0
M  V30 3507 H 317 5.26071 2.6177 0
M  V30 3508 H 318.524 4.99523 3.51154 0
M  V30 3509 H 319.938 5.57977 1.3166 0
M  V30 3510 H 318.335 5.96812 0.627286 0
M  V30 3511 H 319.405 4.84358 -0.229168 0
M  V30 3512 N 320.748 -0.0735177 1.57428 0
M  V30 3513 C 321.976 -0.785969 1.9139 0
M  V30 3514 C 322.391 -1.71207 0.795847 0
M  V30 3515 O 321.748 -1.81033 -0.230915 0
M  V30 3516 C 321.799 -1.58107 3.25091 0
M  V30 3517 O 321.52 -0.6922 4.32597 0
M  V30 3518 C 323.021 -2.39467 3.73055 0
M  V30 3519 H 320.241 -0.223558 0.632663 0
M  V30 3520 H 322.785 -0.044302 2.04452 0
M  V30 3521 H 320.94 -2.27503 3.13562 0
M  V30 3522 H 321.354 -1.24504 5.09508 0
M  V30 3523 H 322.828 -2.90716 4.69242 0
M  V30 3524 H 323.305 -3.18913 3.01979 0
M  V30 3525 H 323.911 -1.7523 3.87523 0
M  V30 3526 N 322.226 -1.5378 -0.344866 0
M  V30 3527 C 323.503 -1.61589 -1.10219 0
M  V30 3528 C 323.883 -0.436316 -2.06542 0
M  V30 3529 O 323.231 0.571543 -2.21237 0
M  V30 3530 C 323.441 -2.97602 -1.82301 0
M  V30 3531 C 324.789 -3.5291 -2.36093 0
M  V30 3532 O 325.813 -2.99768 -1.924 0
M  V30 3533 O 324.672 -4.45859 -3.16026 0
M  V30 3534 H 321.766 -0.653522 -0.506792 0
M  V30 3535 H 324.312 -1.66126 -0.346465 0
M  V30 3536 H 323.084 -3.74893 -1.12121 0
M  V30 3537 H 322.707 -2.9665 -2.64735 0
M  V30 3538 N 323.704 0.605807 -1.45491 0
M  V30 3539 C 324.953 1.36086 -1.48874 0
M  V30 3540 C 325.266 1.95131 -0.135333 0
M  V30 3541 O 326.472 2.7146 -0.0468144 0
M  V30 3542 C 324.928 2.46518 -2.62215 0
M  V30 3543 C 324.536 1.93877 -4.03876 0
M  V30 3544 C 326.28 3.23512 -2.74846 0
M  V30 3545 C 324.187 3.01801 -5.08596 0
M  V30 3546 H 323.117 0.511497 -0.553974 0
M  V30 3547 H 325.768 0.649089 -1.71636 0
M  V30 3548 H 324.15 3.20388 -2.32739 0
M  V30 3549 H 325.324 1.26704 -4.43038 0
M  V30 3550 H 323.639 1.29622 -3.95711 0
M  V30 3551 H 326.236 4.04013 -3.50253 0
M  V30 3552 H 326.579 3.74631 -1.81542 0
M  V30 3553 H 327.112 2.56742 -3.03856 0
M  V30 3554 H 323.851 2.55597 -6.03614 0
M  V30 3555 H 323.371 3.67535 -4.74002 0
M  V30 3556 H 325.05 3.66152 -5.33424 0
M  V30 3557 N 325.182 1.32811 0.848464 0
M  V30 3558 C 326.41 1.26739 1.63538 0
M  V30 3559 C 326.825 -0.163484 1.88091 0
M  V30 3560 O 326.182 -1.10258 1.45429 0
M  V30 3561 C 326.233 2.03013 2.99112 0
M  V30 3562 O 325.954 3.40518 2.75643 0
M  V30 3563 C 327.455 2.04038 3.93552 0
M  V30 3564 H 324.675 0.437024 0.509167 0
M  V30 3565 H 327.219 1.75033 1.05753 0
M  V30 3566 H 325.374 1.58426 3.53525 0
M  V30 3567 H 325.788 3.79635 3.61908 0
M  V30 3568 H 327.262 2.61877 4.85926 0
M  V30 3569 H 327.739 1.0282 4.26995 0
M  V30 3570 H 328.345 2.486 3.45077 0
M  V30 3571 N 326.66 -1.06551 1.16123 0
M  V30 3572 C 327.937 -1.76097 0.85142 0
M  V30 3573 C 328.317 -2.00802 -0.6513 0
M  V30 3574 O 327.665 -1.63302 -1.59827 0
M  V30 3575 C 327.875 -3.06384 1.67122 0
M  V30 3576 C 329.223 -3.80585 1.88255 0
M  V30 3577 O 330.247 -3.16218 1.63966 0
M  V30 3578 O 329.106 -4.96212 2.2899 0
M  V30 3579 H 326.2 -0.765102 0.313923 0
M  V30 3580 H 328.746 -1.12844 1.26745 0
M  V30 3581 H 327.518 -2.84071 2.69108 0
M  V30 3582 H 327.141 -3.77371 1.25206 0
M  V30 3583 N 328.138 -0.959301 -1.25041 0
M  V30 3584 C 329.101 -0.487677 -2.23952 0
M  V30 3585 C 330.101 0.41119 -1.55454 0
M  V30 3586 O 331.291 0.207825 -1.72956 0
M  V30 3587 C 328.423 0.294807 -3.39623 0
M  V30 3588 H 329.616 -1.36198 -2.67189 0
M  V30 3589 H 327.169 -0.743042 -1.37508 0
M  V30 3590 H 327.904 1.18658 -3.01813 0
M  V30 3591 H 327.689 -0.35012 -3.90534 0
M  V30 3592 H 329.179 0.614089 -4.1306 0
M  V30 3593 N 329.616 1.39756 -0.72842 0
M  V30 3594 C 330.865 1.99879 -0.270407 0
M  V30 3595 C 331.178 1.58449 1.14688 0
M  V30 3596 O 332.384 2.11362 1.70407 0
M  V30 3597 C 330.84 3.57292 -0.43252 0
M  V30 3598 C 330.448 4.07688 -1.85727 0
M  V30 3599 C 332.192 4.24485 -0.0359507 0
M  V30 3600 C 330.099 5.5765 -1.96928 0
M  V30 3601 H 329.029 0.747689 -0.0973472 0
M  V30 3602 H 331.68 1.59837 -0.901355 0
M  V30 3603 H 330.062 3.95097 0.267219 0
M  V30 3604 H 331.236 3.81231 -2.58843 0
M  V30 3605 H 329.551 3.53135 -2.20646 0
M  V30 3606 H 332.148 5.34609 -0.0987484 0
M  V30 3607 H 332.491 4.03915 1.00787 0
M  V30 3608 H 333.024 3.9183 -0.686604 0
M  V30 3609 H 329.763 5.8309 -2.99476 0
M  V30 3610 H 329.283 5.8593 -1.28241 0
M  V30 3611 H 330.962 6.22957 -1.74737 0
M  V30 3612 N 331.094 0.475555 1.50254 0
M  V30 3613 C 332.041 -0.316293 2.28622 0
M  V30 3614 C 333.011 -0.983227 1.33873 0
M  V30 3615 O 334.196 -0.994805 1.62814 0
M  V30 3616 C 331.336 -1.38975 3.1588 0
M  V30 3617 C 330.449 -0.737146 4.25664 0
M  V30 3618 C 329.584 -1.78887 5.00173 0
M  V30 3619 C 328.623 -1.11676 6.01826 0
M  V30 3620 N 327.76 -2.11154 6.69596 0
M  V30 3621 H 332.6 0.358297 2.95838 0
M  V30 3622 H 330.137 0.188541 1.45887 0
M  V30 3623 H 332.095 -2.02383 3.64825 0
M  V30 3624 H 330.725 -2.03344 2.50701 0
M  V30 3625 H 329.777 0.0096065 3.80399 0
M  V30 3626 H 331.089 -0.206816 4.98371 0
M  V30 3627 H 330.243 -2.49865 5.52859 0
M  V30 3628 H 328.982 -2.35302 4.27182 0
M  V30 3629 H 327.987 -0.392633 5.48396 0
M  V30 3630 H 329.212 -0.55945 6.76792 0
M  V30 3631 H 327.158 -2.66577 5.99394 0
M  V30 3632 H 327.075 -1.63118 7.38193 0
M  V30 3633 H 328.343 -2.81497 7.26897 0
M  V30 3634 N 332.573 -1.56217 0.208337 0
M  V30 3635 C 333.503 -2.22694 -0.702116 0
M  V30 3636 C 334.484 -1.19432 -1.2112 0
M  V30 3637 O 335.669 -1.47978 -1.25762 0
M  V30 3638 C 332.799 -2.8966 -1.9161 0
M  V30 3639 C 331.753 -3.9928 -1.5414 0
M  V30 3640 C 331.079 -4.53476 -2.83308 0
M  V30 3641 C 332.379 -5.17012 -0.741339 0
M  V30 3642 H 334.073 -2.99034 -0.147898 0
M  V30 3643 H 331.619 -1.43831 -0.0696951 0
M  V30 3644 H 333.572 -3.34852 -2.55836 0
M  V30 3645 H 332.296 -2.10746 -2.49507 0
M  V30 3646 H 330.955 -3.54799 -0.922668 0
M  V30 3647 H 330.603 -3.71308 -3.39322 0
M  V30 3648 H 330.303 -5.27451 -2.58976 0
M  V30 3649 H 331.827 -5.01378 -3.485 0
M  V30 3650 H 333.241 -5.58667 -1.28699 0
M  V30 3651 H 331.638 -5.97137 -0.595627 0
M  V30 3652 H 332.708 -4.8423 0.254851 0
M  V30 3653 N 334.051 0.0651679 -1.57465 0
M  V30 3654 C 335.328 0.79644 -1.78651 0
M  V30 3655 C 335.708 1.95454 -0.797566 0
M  V30 3656 O 335.056 2.27882 0.167946 0
M  V30 3657 C 335.266 1.26322 -3.25337 0
M  V30 3658 C 336.614 1.6939 -3.89348 0
M  V30 3659 O 337.638 1.35872 -3.29268 0
M  V30 3660 O 336.497 2.31471 -4.95059 0
M  V30 3661 H 333.591 0.382157 -0.733407 0
M  V30 3662 H 336.137 0.0447311 -1.69641 0
M  V30 3663 H 334.909 0.434859 -3.88876 0
M  V30 3664 H 334.532 2.07604 -3.39096 0
M  V30 3665 N 335.529 1.53961 0.336706 0
M  V30 3666 C 336.754 1.75797 1.10046 0
M  V30 3667 C 337.179 0.498985 1.81361 0
M  V30 3668 O 336.537 -0.548769 1.72795 0
M  V30 3669 C 336.585 2.94257 2.08436 0
M  V30 3670 O 335.689 2.64883 3.16087 0
M  V30 3671 H 335.03 0.582936 0.317934 0
M  V30 3672 H 337.56 2.00945 0.38501 0
M  V30 3673 H 337.57 3.21237 2.51537 0
M  V30 3674 H 336.245 3.85564 1.55927 0
M  V30 3675 H 334.822 2.48812 2.77753 0
M  V30 3676 N 337.007 -0.598083 1.45811 0
M  V30 3677 C 338.255 -1.35413 1.50026 0
M  V30 3678 C 338.576 -1.94444 0.147177 0
M  V30 3679 O 337.846 -1.77701 -0.824571 0
M  V30 3680 H 336.426 -0.502727 0.552517 0
M  V30 3681 H 339.088 -0.701606 1.81834 0
M  V30 3682 H 338.184 -2.16871 2.2444 0
M  V30 3683 N 338.485 -1.33259 -0.841409 0
M  V30 3684 C 339.731 -1.24757 -1.59886 0
M  V30 3685 C 340.064 0.186913 -1.93298 0
M  V30 3686 O 339.339 1.12757 -1.5848 0
M  V30 3687 C 339.622 -2.12036 -2.91055 0
M  V30 3688 C 339.475 -3.63929 -2.6434 0
M  V30 3689 C 340.794 -1.9916 -3.92458 0
M  V30 3690 H 337.913 -0.454542 -0.580138 0
M  V30 3691 H 340.555 -1.63335 -0.970647 0
M  V30 3692 H 338.705 -1.79265 -3.44669 0
M  V30 3693 H 340.377 -4.06978 -2.17178 0
M  V30 3694 H 338.62 -3.85935 -1.98082 0
M  V30 3695 H 339.291 -4.20341 -3.57796 0
M  V30 3696 H 341.767 -2.27895 -3.48143 0
M  V30 3697 H 340.643 -2.62484 -4.82072 0
M  V30 3698 H 340.904 -0.963082 -4.31482 0
M  V30 3699 N 339.963 1.05934 -1.16686 0
M  V30 3700 C 341.209 1.79065 -0.95203 0
M  V30 3701 C 341.542 1.87147 0.518629 0
M  V30 3702 O 340.817 1.36574 1.38484 0
M  V30 3703 C 341.1 3.23359 -1.58464 0
M  V30 3704 C 340.953 3.23336 -3.12689 0
M  V30 3705 C 342.272 4.21004 -1.28232 0
M  V30 3706 H 339.391 0.65005 -0.34728 0
M  V30 3707 H 342.033 1.23868 -1.44072 0
M  V30 3708 H 340.183 3.70493 -1.16908 0
M  V30 3709 H 341.855 2.84336 -3.6325 0
M  V30 3710 H 340.098 2.61886 -3.4583 0
M  V30 3711 H 340.769 4.25144 -3.52075 0
M  V30 3712 H 343.245 3.8233 -1.64203 0
M  V30 3713 H 342.121 5.20225 -1.75092 0
M  V30 3714 H 342.382 4.41639 -0.201791 0
M  V30 3715 N 341.441 0.965919 1.2453 0
M  V30 3716 C 342.388 0.49402 2.25451 0
M  V30 3717 C 343.358 -0.45948 1.59618 0
M  V30 3718 O 344.543 -0.370238 1.87173 0
M  V30 3719 C 341.683 -0.211359 3.44452 0
M  V30 3720 C 340.796 0.7807 4.24887 0
M  V30 3721 C 339.931 0.0516105 5.31175 0
M  V30 3722 C 338.97 1.03385 6.03306 0
M  V30 3723 N 338.107 0.334887 7.01301 0
M  V30 3724 H 342.947 1.35946 2.65184 0
M  V30 3725 H 340.484 0.681515 1.3036 0
M  V30 3726 H 342.442 -0.637 4.12308 0
M  V30 3727 H 341.072 -1.04077 3.05562 0
M  V30 3728 H 340.124 1.32479 3.56586 0
M  V30 3729 H 341.436 1.52978 4.74762 0
M  V30 3730 H 340.59 -0.432114 6.05159 0
M  V30 3731 H 339.329 -0.730179 4.82203 0
M  V30 3732 H 338.334 1.52847 5.28127 0
M  V30 3733 H 339.559 1.81606 6.54367 0
M  V30 3734 H 337.505 -0.427959 6.54603 0
M  V30 3735 H 337.422 1.02287 7.49048 0
M  V30 3736 H 338.69 -0.126928 7.79397 0
M  V30 3737 N 342.919 -1.39368 0.735821 0
M  V30 3738 C 344.335 -1.54204 0.411492 0
M  V30 3739 C 344.535 -1.70268 -1.07755 0
M  V30 3740 O 343.591 -1.70364 -1.86366 0
M  V30 3741 C 344.904 -2.75925 1.19523 0
M  V30 3742 C 346.452 -2.89761 1.18354 0
M  V30 3743 C 346.927 -4.14421 1.94986 0
M  V30 3744 N 348.418 -4.21462 1.92156 0
M  V30 3745 C 349.153 -5.16871 2.48258 0
M  V30 3746 N 348.649 -6.18063 3.13001 0
M  V30 3747 N 350.442 -5.09093 2.38287 0
M  V30 3748 H 342.593 -1.27189 1.70108 0
M  V30 3749 H 344.856 -0.616517 0.720147 0
M  V30 3750 H 344.562 -2.70401 2.24892 0
M  V30 3751 H 344.436 -3.68614 0.800222 0
M  V30 3752 H 346.823 -2.94777 0.137975 0
M  V30 3753 H 346.904 -1.98133 1.61793 0
M  V30 3754 H 346.548 -4.10166 2.99543 0
M  V30 3755 H 346.478 -5.05095 1.48953 0
M  V30 3756 H 348.969 -3.48979 1.44991 0
M  V30 3757 H 349.282 -6.87326 3.53275 0
M  V30 3758 H 347.627 -6.18448 3.17091 0
M  V30 3759 H 350.818 -4.28973 1.8735 0
M  V30 3760 H 350.991 -5.83272 2.82308 0
M  V30 3761 N 344.397 -0.483516 -1.5 0
M  V30 3762 C 345.327 0.293829 -2.31644 0
M  V30 3763 C 346.308 0.978864 -1.39112 0
M  V30 3764 O 347.493 0.973644 -1.68029 0
M  V30 3765 C 344.623 1.36897 -3.19181 0
M  V30 3766 C 343.577 0.804833 -4.20365 0
M  V30 3767 C 342.903 1.9792 -4.96721 0
M  V30 3768 C 344.203 -0.192313 -5.21946 0
M  V30 3769 H 345.897 -0.387616 -2.9688 0
M  V30 3770 H 343.443 -0.187856 -1.42769 0
M  V30 3771 H 345.396 1.92037 -3.751 0
M  V30 3772 H 344.12 2.07936 -2.51853 0
M  V30 3773 H 342.779 0.275319 -3.65565 0
M  V30 3774 H 342.427 2.67686 -4.25856 0
M  V30 3775 H 342.127 1.60789 -5.65173 0
M  V30 3776 H 343.651 2.53526 -5.55479 0
M  V30 3777 H 345.065 0.270333 -5.72662 0
M  V30 3778 H 343.462 -0.478543 -5.98189 0
M  V30 3779 H 344.532 -1.11409 -4.71928 0
M  V30 3780 N 345.875 1.56104 -0.216619 0
M  V30 3781 C 347.105 2.02269 0.420802 0
M  V30 3782 C 347.513 1.09575 1.5424 0
M  V30 3783 O 346.856 0.0967308 1.83445 0
M  V30 3784 C 346.918 3.44784 1.01806 0
M  V30 3785 C 346.582 4.56988 0.0325154 0
M  V30 3786 C 347.579 5.14225 -0.766055 0
M  V30 3787 C 345.264 5.02228 -0.0848092 0
M  V30 3788 C 347.258 6.15169 -1.6687 0
M  V30 3789 C 344.945 6.03011 -0.990994 0
M  V30 3790 C 345.943 6.59357 -1.78149 0
M  V30 3791 O 345.631 7.58179 -2.67245 0
M  V30 3792 H 345.363 0.667353 0.107776 0
M  V30 3793 H 347.917 2.02747 -0.329034 0
M  V30 3794 H 346.147 3.41359 1.81689 0
M  V30 3795 H 347.836 3.74626 1.56237 0
M  V30 3796 H 348.602 4.80126 -0.685836 0
M  V30 3797 H 344.481 4.58054 0.520349 0
M  V30 3798 H 348.025 6.59076 -2.28615 0
M  V30 3799 H 343.922 6.36532 -1.07225 0
M  V30 3800 H 344.69 7.75682 -2.61265 0
M  V30 3801 N 347.353 -0.0568162 1.57498 0
M  V30 3802 C 348.581 -0.765626 1.92213 0
M  V30 3803 C 348.996 -1.70353 0.813961 0
M  V30 3804 O 348.353 -1.81268 -0.211701 0
M  V30 3805 C 348.404 -1.5465 3.2675 0
M  V30 3806 O 348.125 -0.646278 4.33307 0
M  V30 3807 C 349.626 -2.35497 3.75574 0
M  V30 3808 H 346.846 -0.216835 0.634999 0
M  V30 3809 H 349.39 -0.0226146 2.04487 0
M  V30 3810 H 347.545 -2.24165 3.15957 0
M  V30 3811 H 347.959 -1.19093 5.108 0
M  V30 3812 H 349.433 -2.85722 4.72299 0
M  V30 3813 H 349.91 -3.15692 3.05344 0
M  V30 3814 H 350.516 -1.7111 3.8936 0
M  V30 3815 N 348.832 -1.54138 -0.328536 0
M  V30 3816 C 349.762 -1.86167 -1.40939 0
M  V30 3817 C 350.743 -0.718044 -1.54202 0
M  V30 3818 O 351.928 -0.971328 -1.68163 0
M  V30 3819 C 349.058 -2.08461 -2.77779 0
M  V30 3820 C 348.012 -3.24299 -2.7931 0
M  V30 3821 C 347.338 -3.31955 -4.19178 0
M  V30 3822 C 348.638 -4.62065 -2.43502 0
M  V30 3823 H 350.332 -2.76689 -1.14383 0
M  V30 3824 H 347.878 -1.33132 -0.548806 0
M  V30 3825 H 349.831 -2.29453 -3.53454 0
M  V30 3826 H 348.555 -1.14684 -3.05802 0
M  V30 3827 H 347.214 -3.03187 -2.0609 0
M  V30 3828 H 346.862 -2.35745 -4.44335 0
M  V30 3829 H 346.562 -4.09805 -4.2111 0
M  V30 3830 H 348.086 -3.55175 -4.96672 0
M  V30 3831 H 349.5 -4.8297 -3.08889 0
M  V30 3832 H 347.897 -5.42429 -2.56693 0
M  V30 3833 H 348.967 -4.64652 -1.38659 0
M  V30 3834 N 350.31 0.590341 -1.46126 0
M  V30 3835 C 351.587 1.35029 -1.41515 0
M  V30 3836 C 351.967 2.10888 -0.0946472 0
M  V30 3837 O 351.315 2.08998 0.923693 0
M  V30 3838 C 351.525 2.28269 -2.63997 0
M  V30 3839 C 352.873 2.90338 -3.09821 0
M  V30 3840 O 353.897 2.38585 -2.64492 0
M  V30 3841 O 352.756 3.84321 -3.88535 0
M  V30 3842 H 349.85 0.606317 -0.562413 0
M  V30 3843 H 352.396 0.611994 -1.58281 0
M  V30 3844 H 351.168 1.71591 -3.51671 0
M  V30 3845 H 350.791 3.0945 -2.49652 0
M  V30 3846 N 351.788 1.33704 0.83433 0
M  V30 3847 C 353.036 1.25169 1.58673 0
M  V30 3848 C 353.357 -0.18127 1.94156 0
M  V30 3849 O 352.627 -1.11113 1.6134 0
M  V30 3850 H 351.207 0.4603 0.58833 0
M  V30 3851 H 353.869 1.67478 0.996847 0
M  V30 3852 H 352.965 1.84856 2.51465 0
M  V30 3853 N 353.266 -1.05314 1.17247 0
M  V30 3854 C 354.213 -2.13031 0.888058 0
M  V30 3855 C 355.183 -1.65253 -0.167537 0
M  V30 3856 O 356.368 -1.90775 -0.0305974 0
M  V30 3857 C 353.508 -3.42702 0.406147 0
M  V30 3858 C 352.621 -4.04161 1.52572 0
M  V30 3859 C 351.756 -5.21744 0.997808 0
M  V30 3860 C 350.795 -5.75207 2.09291 0
M  V30 3861 N 349.932 -6.84094 1.57986 0
M  V30 3862 H 354.772 -2.36698 1.81048 0
M  V30 3863 H 352.309 -1.16121 0.903013 0
M  V30 3864 H 354.267 -4.17059 0.108305 0
M  V30 3865 H 352.897 -3.19222 -0.479313 0
M  V30 3866 H 351.949 -3.27253 1.93931 0
M  V30 3867 H 353.261 -4.39881 2.35172 0
M  V30 3868 H 352.415 -6.03168 0.653739 0
M  V30 3869 H 351.154 -4.87495 0.141232 0
M  V30 3870 H 350.159 -4.92414 2.44557 0
M  V30 3871 H 351.384 -6.11505 2.95362 0
M  V30 3872 H 349.33 -6.51745 0.74598 0
M  V30 3873 H 349.247 -7.18811 2.34195 0
M  V30 3874 H 350.515 -7.69172 1.26468 0
M  V30 3875 N 354.744 -0.972509 -1.24016 0
M  V30 3876 C 355.676 -0.464375 -2.24446 0
M  V30 3877 C 356.689 0.4295 -1.57032 0
M  V30 3878 O 357.878 0.234902 -1.76948 0
M  V30 3879 C 354.978 0.348385 -3.37105 0
M  V30 3880 C 354.151 -0.53673 -4.34094 0
M  V30 3881 C 353.21 0.220838 -5.25736 0
M  V30 3882 O 352.236 -0.386867 -5.67884 0
M  V30 3883 N 353.438 1.50907 -5.60542 0
M  V30 3884 H 356.203 -1.32788 -2.68677 0
M  V30 3885 H 353.764 -0.844877 -1.38107 0
M  V30 3886 H 355.756 0.863341 -3.95384 0
M  V30 3887 H 354.326 1.11285 -2.92121 0
M  V30 3888 H 353.546 -1.23261 -3.74433 0
M  V30 3889 H 354.834 -1.14022 -4.95859 0
M  V30 3890 H 354.232 2.02444 -5.28236 0
M  V30 3891 H 352.789 1.96962 -6.21329 0
M  V30 3892 N 356.222 1.38976 -0.743202 0
M  V30 3893 C 357.468 2.0064 -0.295189 0
M  V30 3894 C 357.801 1.5885 1.11716 0
M  V30 3895 O 357.076 0.821181 1.76315 0
M  V30 3896 C 357.359 3.578 -0.406318 0
M  V30 3897 C 357.212 4.09586 -1.85903 0
M  V30 3898 C 358.531 4.39616 0.206439 0
M  V30 3899 H 355.65 0.728935 -0.108733 0
M  V30 3900 H 358.292 1.65067 -0.940897 0
M  V30 3901 H 356.442 3.88235 0.143419 0
M  V30 3902 H 358.114 3.89837 -2.46627 0
M  V30 3903 H 356.357 3.6284 -2.3776 0
M  V30 3904 H 357.028 5.18708 -1.888 0
M  V30 3905 H 359.504 4.15273 -0.262283 0
M  V30 3906 H 358.38 5.48812 0.0983819 0
M  V30 3907 H 358.641 4.22754 1.2935 0
M  V30 3908 N 357.7 0.491464 1.49741 0
M  V30 3909 C 358.633 -0.338464 2.25676 0
M  V30 3910 C 359.611 -0.978676 1.29849 0
M  V30 3911 O 360.795 -1.01064 1.59117 0
M  V30 3912 C 357.922 -1.47588 3.04853 0
M  V30 3913 C 356.968 -0.951 4.15762 0
M  V30 3914 S 357.801 0.150626 5.35288 0
M  V30 3915 C 358.957 -0.990178 6.18018 0
M  V30 3916 H 359.19 0.306068 2.9572 0
M  V30 3917 H 356.723 0.276622 1.51902 0
M  V30 3918 H 358.681 -2.12764 3.51058 0
M  V30 3919 H 357.342 -2.09199 2.34296 0
M  V30 3920 H 356.535 -1.80311 4.70642 0
M  V30 3921 H 356.137 -0.376607 3.72099 0
M  V30 3922 H 358.429 -1.89748 6.50386 0
M  V30 3923 H 359.372 -0.480205 7.0647 0
M  V30 3924 H 359.78 -1.25321 5.50413 0
M  V30 3925 N 359.178 -1.55987 0.224894 0
M  V30 3926 C 360.418 -2.00293 -0.407706 0
M  V30 3927 C 360.782 -1.1093 -1.56711 0
M  V30 3928 O 361.983 -1.44597 -2.26595 0
M  V30 3929 C 360.254 -3.47675 -0.82805 0
M  V30 3930 S 361.813 -4.14 -1.45429 0
M  V30 3931 H 358.631 -0.699152 -0.129256 0
M  V30 3932 H 361.233 -1.92609 0.334967 0
M  V30 3933 H 359.937 -4.10392 0.0253964 0
M  V30 3934 H 359.468 -3.59239 -1.60345 0
M  V30 3935 H 361.483 -4.13465 -2.74337 0
M  V30 3936 N 360.656 0.0484629 -1.57525 0
M  V30 3937 C 361.586 1.0549 -2.08313 0
M  V30 3938 C 362.567 1.38929 -0.981463 0
M  V30 3939 O 363.752 1.48151 -1.25558 0
M  V30 3940 C 360.882 2.36162 -2.54646 0
M  V30 3941 C 359.836 2.17016 -3.68901 0
M  V30 3942 C 359.162 3.53278 -4.01371 0
M  V30 3943 C 360.462 1.57219 -4.98076 0
M  V30 3944 H 362.156 0.632195 -2.92649 0
M  V30 3945 H 359.702 0.302654 -1.40784 0
M  V30 3946 H 361.655 3.06882 -2.88793 0
M  V30 3947 H 360.379 2.80456 -1.67368 0
M  V30 3948 H 359.038 1.48733 -3.35073 0
M  V30 3949 H 358.686 3.95185 -3.11188 0
M  V30 3950 H 358.386 3.41299 -4.78318 0
M  V30 3951 H 359.91 4.25391 -4.38035 0
M  V30 3952 H 361.324 2.17832 -5.30304 0
M  V30 3953 H 359.721 1.55871 -5.79503 0
M  V30 3954 H 360.791 0.535956 -4.81929 0
M  V30 3955 N 362.134 1.5431 0.320358 0
M  V30 3956 C 363.066 1.80262 1.41556 0
M  V30 3957 C 364.079 0.684723 1.477 0
M  V30 3958 O 365.268 0.961886 1.50366 0
M  V30 3959 C 362.368 1.90825 2.8007 0
M  V30 3960 C 361.541 3.21023 2.97091 0
M  V30 3961 C 360.6 3.22247 4.15985 0
M  V30 3962 O 359.626 3.95871 4.08992 0
M  V30 3963 N 360.828 2.46258 5.25678 0
M  V30 3964 H 363.593 2.74778 1.19655 0
M  V30 3965 H 361.154 1.53646 0.510358 0
M  V30 3966 H 363.146 1.89067 3.57821 0
M  V30 3967 H 361.716 1.03392 2.95006 0
M  V30 3968 H 360.936 3.35715 2.06614 0
M  V30 3969 H 362.224 4.0698 3.05361 0
M  V30 3970 H 361.622 1.86037 5.34235 0
M  V30 3971 H 360.179 2.50275 6.01835 0
M  V30 3972 N 363.613 -0.582584 1.46437 0
M  V30 3973 C 364.89 -1.34276 1.4223 0
M  V30 3974 C 365.27 -2.10835 0.10583 0
M  V30 3975 O 364.618 -2.09485 -0.912596 0
M  V30 3976 C 364.828 -2.26865 2.65204 0
M  V30 3977 C 366.176 -2.88691 3.11356 0
M  V30 3978 O 367.2 -2.37178 2.65753 0
M  V30 3979 O 366.059 -3.82255 3.90568 0
M  V30 3980 H 363.153 -0.603326 0.565621 0
M  V30 3981 H 365.699 -0.603591 1.58603 0
M  V30 3982 H 364.471 -1.69724 3.52576 0
M  V30 3983 H 364.094 -3.08122 2.5129 0
M  V30 3984 N 365.091 -1.34144 -0.827227 0
M  V30 3985 C 366.338 -1.26258 -1.58319 0
M  V30 3986 C 366.666 0.168595 -1.93768 0
M  V30 3987 O 365.921 1.12877 -1.59866 0
M  V30 3988 C 366.22 -2.09464 -2.89585 0
M  V30 3989 C 365.886 -3.58521 -2.73448 0
M  V30 3990 C 364.548 -3.99155 -2.68754 0
M  V30 3991 C 366.9 -4.53189 -2.57428 0
M  V30 3992 C 364.228 -5.32656 -2.45957 0
M  V30 3993 C 366.58 -5.86864 -2.36163 0
M  V30 3994 C 365.244 -6.26667 -2.29879 0
M  V30 3995 H 364.514 -0.462013 -0.579332 0
M  V30 3996 H 367.161 -1.65845 -0.95748 0
M  V30 3997 H 365.466 -1.62692 -3.56425 0
M  V30 3998 H 367.163 -2.00712 -3.47154 0
M  V30 3999 H 363.753 -3.26264 -2.77939 0
M  V30 4000 H 367.937 -4.22696 -2.60081 0
M  V30 4001 H 363.193 -5.62519 -2.39546 0
M  V30 4002 H 367.367 -6.59813 -2.22754 0
M  V30 4003 H 364.994 -7.30049 -2.11975 0
M  V30 4004 N 366.569 1.04691 -1.17803 0
M  V30 4005 C 367.816 1.77782 -0.969532 0
M  V30 4006 C 368.144 1.87926 0.501401 0
M  V30 4007 O 367.399 1.37918 1.38842 0
M  V30 4008 C 367.698 3.21467 -1.56186 0
M  V30 4009 C 367.364 3.3137 -3.05786 0
M  V30 4010 C 366.026 3.3378 -3.46619 0
M  V30 4011 C 368.378 3.31976 -4.01797 0
M  V30 4012 C 365.706 3.34431 -4.82051 0
M  V30 4013 C 368.058 3.34167 -5.37136 0
M  V30 4014 C 366.722 3.34866 -5.77426 0
M  V30 4015 H 365.992 0.650549 -0.354777 0
M  V30 4016 H 368.639 1.23006 -1.46772 0
M  V30 4017 H 366.944 3.79203 -0.985515 0
M  V30 4018 H 368.641 3.76652 -1.37602 0
M  V30 4019 H 365.231 3.3021 -2.73238 0
M  V30 4020 H 369.415 3.29311 -3.71306 0
M  V30 4021 H 364.671 3.33285 -5.12573 0
M  V30 4022 H 368.845 3.33585 -6.11305 0
M  V30 4023 H 366.472 3.35124 -6.82346 0
M  V30 4024 N 368.047 0.979072 1.23499 0
M  V30 4025 C 369.295 0.645941 1.91499 0
M  V30 4026 C 369.616 -0.822948 1.76784 0
M  V30 4027 O 368.886 -1.58854 1.14639 0
M  V30 4028 H 367.466 0.235919 0.708767 0
M  V30 4029 H 370.128 1.2426 1.50152 0
M  V30 4030 H 369.224 0.896411 2.9895 0
M  V30 4031 N 369.525 -1.3858 0.750561 0
M  V30 4032 C 370.802 -1.94231 0.231009 0
M  V30 4033 C 371.182 -1.68611 -1.27018 0
M  V30 4034 O 370.53 -1.02296 -2.04323 0
M  V30 4035 C 370.74 -3.44123 0.581428 0
M  V30 4036 C 372.088 -4.2116 0.539389 0
M  V30 4037 O 373.112 -3.52391 0.519541 0
M  V30 4038 O 371.971 -5.43749 0.54765 0
M  V30 4039 H 369.065 -0.825639 0.0474263 0
M  V30 4040 H 371.611 -1.4799 0.830478 0
M  V30 4041 H 370.383 -3.56267 1.61833 0
M  V30 4042 H 370.006 -3.97573 -0.0462047 0
M  V30 4043 N 371.003 -0.499398 -1.49478 0
M  V30 4044 C 372.28 0.108629 -1.95298 0
M  V30 4045 C 372.66 1.54282 -1.44084 0
M  V30 4046 O 372.008 2.18944 -0.653908 0
M  V30 4047 C 372.218 0.0229111 -3.48992 0
M  V30 4048 C 373.566 0.197643 -4.2414 0
M  V30 4049 O 374.59 0.0981735 -3.56065 0
M  V30 4050 O 373.449 0.401669 -5.45022 0
M  V30 4051 H 370.543 0.096181 -0.821388 0
M  V30 4052 H 373.089 -0.561822 -1.6013 0
M  V30 4053 H 371.861 -0.977321 -3.78899 0
M  V30 4054 H 371.484 0.733579 -3.90774 0
M  V30 4055 N 372.481 1.55866 -0.233164 0
M  V30 4056 C 373.758 1.90471 0.444988 0
M  V30 4057 C 374.138 1.15209 1.7689 0
M  V30 4058 O 373.486 0.265119 2.26957 0
M  V30 4059 C 373.696 3.4333 0.626559 0
M  V30 4060 C 375.044 4.14319 0.92871 0
M  V30 4061 O 376.068 3.48993 0.712926 0
M  V30 4062 O 374.927 5.29846 1.33887 0
M  V30 4063 H 372.021 0.792347 0.236885 0
M  V30 4064 H 374.567 1.67437 -0.276211 0
M  V30 4065 H 373.339 3.90095 -0.306822 0
M  V30 4066 H 372.962 3.72181 1.39881 0
M  V30 4067 N 373.959 -0.0401083 1.57549 0
M  V30 4068 C 375.208 -0.732108 1.87944 0
M  V30 4069 C 375.521 -1.77107 0.830206 0
M  V30 4070 O 376.727 -2.51488 1.02302 0
M  V30 4071 C 375.183 -1.35315 3.33494 0
M  V30 4072 C 374.791 -0.351105 4.46622 0
M  V30 4073 C 376.535 -2.02566 3.73051 0
M  V30 4074 C 374.442 -0.979859 5.83226 0
M  V30 4075 H 373.372 -0.277188 0.701201 0
M  V30 4076 H 376.023 0.0138501 1.83495 0
M  V30 4077 H 374.405 -2.14844 3.32653 0
M  V30 4078 H 375.579 0.416674 4.58912 0
M  V30 4079 H 373.894 0.218708 4.15825 0
M  V30 4080 H 376.491 -2.50441 4.72423 0
M  V30 4081 H 376.834 -2.83904 3.04474 0
M  V30 4082 H 377.367 -1.29827 3.76018 0
M  V30 4083 H 374.106 -0.206135 6.55176 0
M  V30 4084 H 373.626 -1.71774 5.74677 0
M  V30 4085 H 375.305 -1.49046 6.29599 0
M  V30 4086 N 375.437 -1.54477 -0.31217 0
M  V30 4087 C 376.684 -1.73227 -1.04875 0
M  V30 4088 C 377.012 -0.512042 -1.87639 0
M  V30 4089 O 376.267 0.506131 -1.89042 0
M  V30 4090 C 376.566 -2.967 -1.99258 0
M  V30 4091 C 376.232 -4.30974 -1.32559 0
M  V30 4092 C 374.894 -4.67477 -1.141 0
M  V30 4093 C 377.246 -5.14258 -0.847835 0
M  V30 4094 C 374.574 -5.84852 -0.465326 0
M  V30 4095 C 376.926 -6.32327 -0.185931 0
M  V30 4096 C 375.59 -6.67499 0.0107077 0
M  V30 4097 H 374.86 -0.633881 -0.383765 0
M  V30 4098 H 377.507 -1.88727 -0.324731 0
M  V30 4099 H 375.812 -2.75935 -2.7815 0
M  V30 4100 H 377.509 -3.08401 -2.563 0
M  V30 4101 H 374.099 -4.02262 -1.4793 0
M  V30 4102 H 378.283 -4.86565 -0.978192 0
M  V30 4103 H 373.539 -6.10654 -0.301883 0
M  V30 4104 H 377.713 -6.96135 0.192211 0
M  V30 4105 H 375.34 -7.58306 0.536287 0
M  V30 4106 N 376.915 0.57481 -1.46744 0
M  V30 4107 C 378.164 1.32898 -1.51727 0
M  V30 4108 C 378.477 1.948 -0.176692 0
M  V30 4109 O 379.683 2.71299 -0.104385 0
M  V30 4110 C 378.139 2.40901 -2.67385 0
M  V30 4111 C 377.747 1.85266 -4.07898 0
M  V30 4112 C 379.491 3.17609 -2.81646 0
M  V30 4113 C 377.398 2.90945 -5.14883 0
M  V30 4114 H 376.328 0.499631 -0.564699 0
M  V30 4115 H 378.979 0.612536 -1.72975 0
M  V30 4116 H 377.361 3.15379 -2.39483 0
M  V30 4117 H 378.535 1.17278 -4.45626 0
M  V30 4118 H 376.85 1.21199 -3.98371 0
M  V30 4119 H 379.447 3.96493 -3.58744 0
M  V30 4120 H 379.79 3.70696 -1.89448 0
M  V30 4121 H 380.323 2.50239 -3.09233 0
M  V30 4122 H 377.062 2.42736 -6.089 0
M  V30 4123 H 376.582 3.57398 -4.81691 0
M  V30 4124 H 378.261 3.54755 -5.41071 0
M  V30 4125 N 378.394 1.34581 0.820102 0
M  V30 4126 C 379.357 1.2628 1.91275 0
M  V30 4127 C 380.357 0.177344 1.59819 0
M  V30 4128 O 381.547 0.430156 1.68806 0
M  V30 4129 C 378.679 0.950327 3.27386 0
M  V30 4130 H 379.872 2.23421 2.00057 0
M  V30 4131 H 377.425 1.1891 1.0144 0
M  V30 4132 H 378.16 -0.0177938 3.24295 0
M  V30 4133 H 377.945 1.73549 3.51601 0
M  V30 4134 H 379.435 0.917492 4.07396 0
M  V30 4135 N 379.872 -1.04064 1.18357 0
M  V30 4136 C 381.112 -1.78829 0.989921 0
M  V30 4137 C 381.476 -1.86106 -0.472095 0
M  V30 4138 O 382.677 -2.57076 -0.785187 0
M  V30 4139 C 380.948 -3.1823 1.6268 0
M  V30 4140 S 382.507 -4.09332 1.58091 0
M  V30 4141 H 379.325 -0.615754 0.355482 0
M  V30 4142 H 381.927 -1.24778 1.50501 0
M  V30 4143 H 380.631 -3.10543 2.68311 0
M  V30 4144 H 380.162 -3.77357 1.112 0
M  V30 4145 H 382.177 -4.92598 0.596817 0
M  V30 4146 N 381.35 -0.985608 -1.22978 0
M  V30 4147 C 382.598 -0.656087 -1.91154 0
M  V30 4148 C 382.919 0.813561 -1.77218 0
M  V30 4149 O 382.189 1.58244 -1.1548 0
M  V30 4150 H 380.769 -0.239674 -0.707506 0
M  V30 4151 H 383.431 -1.25054 -1.49491 0
M  V30 4152 H 382.527 -0.912253 -2.9847 0
M  V30 4153 N 382.828 1.3818 -0.7579 0
M  V30 4154 C 384.239 1.82726 -0.383134 0
M  V30 4155 C 384.59 1.63214 1.08884 0
M  V30 4156 O 383.715 1.13566 1.84205 0
M  V30 4157 C 384.31 3.31728 -0.688631 0
M  V30 4158 C 382.869 3.74606 -0.367091 0
M  V30 4159 C 382.016 2.60896 -0.939599 0
M  V30 4160 H 384.967 1.26847 -0.953699 0
M  V30 4161 H 384.988 3.80487 0.0316492 0
M  V30 4162 H 384.5 3.45898 -1.76001 0
M  V30 4163 H 382.601 3.66013 0.697532 0
M  V30 4164 H 382.714 4.71215 -0.865658 0
M  V30 4165 H 381.078 2.52075 -0.3647 0
M  V30 4166 H 381.861 2.77864 -2.0161 0
M  V30 4167 N 384.306 0.507319 1.49211 0
M  V30 4168 C 385.216 -0.272136 2.33016 0
M  V30 4169 C 386.232 -0.961206 1.45041 0
M  V30 4170 O 387.408 -0.941191 1.78055 0
M  V30 4171 C 384.473 -1.31895 3.20631 0
M  V30 4172 C 383.534 -0.642648 4.24463 0
M  V30 4173 C 382.767 -1.63959 5.07891 0
M  V30 4174 O 382.99 -2.87007 4.92933 0
M  V30 4175 O 381.924 -1.19143 5.8999 0
M  V30 4176 H 385.75 0.413982 3.00865 0
M  V30 4177 H 383.335 0.268556 1.46966 0
M  V30 4178 H 385.217 -1.92446 3.7489 0
M  V30 4179 H 383.892 -1.98788 2.5547 0
M  V30 4180 H 382.799 0.00276252 3.741 0
M  V30 4181 H 384.132 -0.0160534 4.92197 0
M  V30 4182 N 385.784 -1.5574 0.241426 0
M  V30 4183 C 386.731 -2.21149 -0.660432 0
M  V30 4184 C 387.701 -1.17356 -1.17545 0
M  V30 4185 O 388.886 -1.45784 -1.23093 0
M  V30 4186 C 386.026 -2.91059 -1.85414 0
M  V30 4187 C 385.139 -4.09495 -1.37616 0
M  V30 4188 C 384.274 -4.67135 -2.529 0
M  V30 4189 C 383.313 -5.77831 -2.01936 0
M  V30 4190 N 382.45 -6.29677 -3.10566 0
M  V30 4191 H 387.29 -2.97845 -0.095955 0
M  V30 4192 H 384.827 -1.47057 -0.0356024 0
M  V30 4193 H 386.785 -3.29788 -2.5553 0
M  V30 4194 H 385.415 -2.16846 -2.39118 0
M  V30 4195 H 384.467 -3.76117 -0.569235 0
M  V30 4196 H 385.779 -4.89423 -0.962618 0
M  V30 4197 H 384.933 -5.08409 -3.31067 0
M  V30 4198 H 383.672 -3.86411 -2.97553 0
M  V30 4199 H 382.677 -5.36039 -1.22238 0
M  V30 4200 H 383.902 -6.60402 -1.58259 0
M  V30 4201 H 381.848 -5.5186 -3.54664 0
M  V30 4202 H 381.765 -7.04783 -2.73526 0
M  V30 4203 H 383.033 -6.75609 -3.88809 0
M  V30 4204 N 387.262 0.0317525 -1.57568 0
M  V30 4205 C 388.509 0.723104 -1.89149 0
M  V30 4206 C 388.837 1.75504 -0.838377 0
M  V30 4207 O 388.092 1.95037 0.160982 0
M  V30 4208 C 388.391 1.43167 -3.27472 0
M  V30 4209 C 388.057 0.535972 -4.47703 0
M  V30 4210 C 386.719 0.289262 -4.8033 0
M  V30 4211 C 389.071 -0.0826125 -5.21135 0
M  V30 4212 C 386.399 -0.584853 -5.83778 0
M  V30 4213 C 388.751 -0.944414 -6.25511 0
M  V30 4214 C 387.415 -1.20061 -6.56614 0
M  V30 4215 H 386.685 0.264602 -0.692146 0
M  V30 4216 H 389.332 -0.0169496 -1.91492 0
M  V30 4217 H 387.637 2.24497 -3.21105 0
M  V30 4218 H 389.334 1.97209 -3.49155 0
M  V30 4219 H 385.924 0.738414 -4.22191 0
M  V30 4220 H 390.108 0.0950302 -4.96209 0
M  V30 4221 H 385.364 -0.79168 -6.06253 0
M  V30 4222 H 389.538 -1.43026 -6.81554 0
M  V30 4223 H 387.165 -1.87967 -7.36595 0
M  V30 4224 N 388.74 1.54641 0.303973 0
M  V30 4225 C 390.156 1.45788 0.649463 0
M  V30 4226 C 390.356 0.64666 1.90842 0
M  V30 4227 O 389.412 0.153183 2.52035 0
M  V30 4228 C 390.725 2.89718 0.805227 0
M  V30 4229 C 392.273 2.99742 0.901305 0
M  V30 4230 C 392.748 4.44863 1.08909 0
M  V30 4231 N 394.239 4.48559 1.15536 0
M  V30 4232 C 394.974 5.58026 1.3189 0
M  V30 4233 N 394.47 6.77422 1.45161 0
M  V30 4234 N 396.263 5.45708 1.34755 0
M  V30 4235 H 388.414 2.05854 -0.523237 0
M  V30 4236 H 390.677 0.932186 -0.172431 0
M  V30 4237 H 390.383 3.51666 -0.0489108 0
M  V30 4238 H 390.257 3.36964 1.69513 0
M  V30 4239 H 392.644 2.3791 1.74593 0
M  V30 4240 H 392.725 2.55797 -0.0125531 0
M  V30 4241 H 392.369 5.07288 0.249241 0
M  V30 4242 H 392.299 4.86436 2.01713 0
M  V30 4243 H 394.79 3.6254 1.06646 0
M  V30 4244 H 395.103 7.56604 1.57387 0
M  V30 4245 H 393.448 6.80292 1.42223 0
M  V30 4246 H 396.639 4.51378 1.23996 0
M  V30 4247 H 396.812 6.3107 1.47157 0
M  V30 4248 N 390.218 -0.567019 1.47046 0
M  V30 4249 C 391.448 -1.34831 1.56538 0
M  V30 4250 C 391.856 -1.8802 0.21101 0
M  V30 4251 O 391.199 -1.65152 -0.804387 0
M  V30 4252 C 391.261 -2.56139 2.52256 0
M  V30 4253 C 390.925 -2.24307 3.98165 0
M  V30 4254 C 391.922 -1.82192 4.86931 0
M  V30 4255 C 389.607 -2.35968 4.43423 0
M  V30 4256 C 391.601 -1.52153 6.18973 0
M  V30 4257 C 389.288 -2.05542 5.75496 0
M  V30 4258 C 390.286 -1.63701 6.63092 0
M  V30 4259 O 389.974 -1.33657 7.92711 0
M  V30 4260 H 389.706 -0.417683 0.531523 0
M  V30 4261 H 392.26 -0.694726 1.93294 0
M  V30 4262 H 390.49 -3.24356 2.10548 0
M  V30 4263 H 392.179 -3.18214 2.51982 0
M  V30 4264 H 392.945 -1.72684 4.53217 0
M  V30 4265 H 388.824 -2.67495 3.75456 0
M  V30 4266 H 392.368 -1.19421 6.87302 0
M  V30 4267 H 388.265 -2.14679 6.08755 0
M  V30 4268 H 389.033 -1.4737 8.05124 0
M  V30 4269 N 391.696 -1.35014 -0.812953 0
M  V30 4270 C 392.628 -1.23262 -1.93233 0
M  V30 4271 C 393.641 -0.157371 -1.62038 0
M  V30 4272 O 394.83 -0.410096 -1.73725 0
M  V30 4273 C 391.93 -0.87392 -3.27438 0
M  V30 4274 C 391.103 -2.04622 -3.86586 0
M  V30 4275 C 390.162 -1.66432 -4.99186 0
M  V30 4276 O 389.188 -2.38222 -5.16951 0
M  V30 4277 N 390.39 -0.584248 -5.77552 0
M  V30 4278 H 393.155 -2.19699 -2.03844 0
M  V30 4279 H 390.716 -1.281 -0.99005 0
M  V30 4280 H 392.708 -0.600039 -4.00227 0
M  V30 4281 H 391.278 0.00057392 -3.126 0
M  V30 4282 H 390.498 -2.48427 -3.06068 0
M  V30 4283 H 391.786 -2.82999 -4.22835 0
M  V30 4284 H 391.184 0.0123526 -5.65699 0
M  V30 4285 H 389.741 -0.37013 -6.50748 0
M  V30 4286 N 393.175 1.03435 -1.18907 0
M  V30 4287 C 394.452 1.73778 -0.89781 0
M  V30 4288 C 394.832 2.02458 0.597832 0
M  V30 4289 O 394.18 1.67482 1.55441 0
M  V30 4290 C 394.39 3.01845 -1.75187 0
M  V30 4291 C 395.738 3.7546 -1.9828 0
M  V30 4292 O 396.762 3.11759 -1.72293 0
M  V30 4293 O 395.621 4.89966 -2.42065 0
M  V30 4294 H 392.715 0.75651 -0.334098 0
M  V30 4295 H 395.261 1.09444 -1.29693 0
M  V30 4296 H 394.033 2.76836 -2.76545 0
M  V30 4297 H 393.656 3.73919 -1.35167 0
M  V30 4298 N 394.653 0.992116 1.22453 0
M  V30 4299 C 395.93 0.583508 1.86694 0
M  V30 4300 C 396.31 -0.9392 1.89056 0
M  V30 4301 O 395.658 -1.82081 1.38053 0
M  V30 4302 C 395.868 1.20304 3.2761 0
M  V30 4303 C 397.216 1.30308 4.0411 0
M  V30 4304 O 398.24 1.15737 3.36873 0
M  V30 4305 O 397.099 1.53615 5.24466 0
M  V30 4306 H 394.193 0.198129 0.802916 0
M  V30 4307 H 396.739 1.08794 1.30238 0
M  V30 4308 H 395.511 2.24461 3.2052 0
M  V30 4309 H 395.134 0.684144 3.9167 0
M  V30 4310 N 396.131 -1.37776 0.765217 0
M  V30 4311 C 397.378 -1.99849 0.326588 0
M  V30 4312 C 397.706 -1.60746 -1.09504 0
M  V30 4313 O 396.961 -0.84202 -1.76659 0
M  V30 4314 C 397.26 -3.5504 0.410053 0
M  V30 4315 C 396.926 -4.13891 1.78899 0
M  V30 4316 C 395.588 -4.29678 2.16635 0
M  V30 4317 C 397.94 -4.46236 2.69301 0
M  V30 4318 C 395.268 -4.7511 3.44221 0
M  V30 4319 C 397.62 -4.93089 3.9629 0
M  V30 4320 C 396.284 -5.07082 4.34078 0
M  V30 4321 H 395.554 -0.7313 0.119507 0
M  V30 4322 H 398.201 -1.64645 0.977968 0
M  V30 4323 H 396.506 -3.90451 -0.324878 0
M  V30 4324 H 398.203 -4.00966 0.0520699 0
M  V30 4325 H 394.793 -4.02026 1.48569 0
M  V30 4326 H 398.977 -4.3363 2.41409 0
M  V30 4327 H 394.233 -4.84129 3.73402 0
M  V30 4328 H 398.407 -5.17084 4.66472 0
M  V30 4329 H 396.034 -5.42046 5.33001 0
M  V30 4330 N 397.609 -0.515225 -1.4894 0
M  V30 4331 C 398.539 0.244628 -2.32215 0
M  V30 4332 C 399.52 0.949136 -1.41157 0
M  V30 4333 O 400.705 0.937783 -1.70057 0
M  V30 4334 C 397.835 1.30096 -3.22013 0
M  V30 4335 C 396.789 0.715486 -4.21977 0
M  V30 4336 C 396.115 1.87339 -5.00808 0
M  V30 4337 C 397.415 -0.302982 -5.2142 0
M  V30 4338 H 399.109 -0.450501 -2.95991 0
M  V30 4339 H 396.655 -0.218098 -1.42339 0
M  V30 4340 H 398.608 1.84037 -3.79089 0
M  V30 4341 H 397.332 2.02547 -2.56207 0
M  V30 4342 H 395.991 0.197715 -3.66066 0
M  V30 4343 H 395.639 2.58592 -4.31438 0
M  V30 4344 H 395.339 1.48764 -5.68457 0
M  V30 4345 H 396.863 2.41686 -5.60732 0
M  V30 4346 H 398.277 0.148802 -5.73107 0
M  V30 4347 H 396.674 -0.60532 -5.97039 0
M  V30 4348 H 397.744 -1.21395 -4.69459 0
M  V30 4349 N 399.087 1.5561 -0.249682 0
M  V30 4350 C 400.017 2.24477 0.642826 0
M  V30 4351 C 400.998 1.22601 1.17911 0
M  V30 4352 O 402.183 1.5126 1.21795 0
M  V30 4353 C 399.313 2.94638 1.83863 0
M  V30 4354 C 398.267 4.03227 1.435 0
M  V30 4355 C 397.593 4.60828 2.71186 0
M  V30 4356 C 398.893 5.18796 0.604002 0
M  V30 4357 H 400.587 2.99321 0.0685625 0
M  V30 4358 H 398.133 1.43965 0.0315363 0
M  V30 4359 H 400.086 3.41517 2.46868 0
M  V30 4360 H 398.81 2.17287 2.43832 0
M  V30 4361 H 397.469 3.57121 0.828275 0
M  V30 4362 H 397.117 3.80174 3.29358 0
M  V30 4363 H 396.817 5.34132 2.44901 0
M  V30 4364 H 398.341 5.10442 3.35084 0
M  V30 4365 H 399.755 5.61883 1.13842 0
M  V30 4366 H 398.152 5.98506 0.437097 0
M  V30 4367 H 399.222 4.83384 -0.383147 0
M  V30 4368 N 400.565 -0.0233959 1.57583 0
M  V30 4369 C 401.842 -0.748794 1.807 0
M  V30 4370 C 402.222 -1.9327 0.849106 0
M  V30 4371 O 401.57 -2.28247 -0.107468 0
M  V30 4372 C 401.78 -1.17651 3.28571 0
M  V30 4373 C 403.128 -1.59008 3.93702 0
M  V30 4374 O 404.152 -1.27094 3.32755 0
M  V30 4375 O 403.011 -2.18264 5.01022 0
M  V30 4376 H 400.105 -0.362578 0.743281 0
M  V30 4377 H 402.651 0.000261958 1.697 0
M  V30 4378 H 401.423 -0.331603 3.89892 0
M  V30 4379 H 401.046 -1.98541 3.44481 0
M  V30 4380 N 402.043 -1.548 -0.295768 0
M  V30 4381 C 402.953 -1.89177 -1.38742 0
M  V30 4382 C 403.969 -0.786481 -1.55211 0
M  V30 4383 O 405.145 -1.08344 -1.69775 0
M  V30 4384 C 402.21 -2.13663 -2.73036 0
M  V30 4385 C 401.271 -3.37349 -2.65508 0
M  V30 4386 C 400.504 -3.60658 -3.93398 0
M  V30 4387 O 400.727 -2.86882 -4.93006 0
M  V30 4388 O 399.661 -4.54179 -3.94975 0
M  V30 4389 H 403.487 -2.82059 -1.12589 0
M  V30 4390 H 401.072 -1.41056 -0.492295 0
M  V30 4391 H 402.954 -2.3094 -3.52484 0
M  V30 4392 H 401.629 -1.23967 -2.99022 0
M  V30 4393 H 400.536 -3.25431 -1.84514 0
M  V30 4394 H 401.869 -4.27192 -2.44474 0
M  V30 4395 N 403.521 0.559213 -1.47345 0
M  V30 4396 C 404.746 1.34676 -1.57725 0
M  V30 4397 C 405.171 1.86723 -0.227164 0
M  V30 4398 O 404.529 1.6286 0.796642 0
M  V30 4399 C 404.577 2.49399 -2.60447 0
M  V30 4400 O 403.681 3.51567 -2.15578 0
M  V30 4401 H 403.022 0.400115 -0.52991 0
M  V30 4402 H 405.552 0.676009 -1.93109 0
M  V30 4403 H 405.562 2.95996 -2.80803 0
M  V30 4404 H 404.237 2.10873 -3.58477 0
M  V30 4405 H 402.814 3.11289 -2.05313 0
M  V30 4406 N 404.999 1.35443 0.805782 0
M  V30 4407 C 405.909 1.30546 1.94923 0
M  V30 4408 C 406.925 0.210233 1.72725 0
M  V30 4409 O 408.101 0.43975 1.9654 0
M  V30 4410 C 405.166 1.07782 3.29521 0
M  V30 4411 C 404.227 2.26625 3.64609 0
M  V30 4412 C 403.46 2.04938 4.92784 0
M  V30 4413 O 403.683 1.01624 5.61274 0
M  V30 4414 O 402.617 2.9232 5.26149 0
M  V30 4415 H 406.443 2.26779 2.02002 0
M  V30 4416 H 404.028 1.15823 0.943682 0
M  V30 4417 H 405.91 0.969392 4.10098 0
M  V30 4418 H 404.585 0.146003 3.23371 0
M  V30 4419 H 403.492 2.43033 2.84404 0
M  V30 4420 H 404.825 3.18257 3.75464 0
M  V30 4421 N 406.477 -1.02803 1.19454 0
M  V30 4422 C 407.717 -1.77769 1.00883 0
M  V30 4423 C 408.081 -1.86596 -0.45233 0
M  V30 4424 O 409.282 -2.57895 -0.757877 0
M  V30 4425 C 407.553 -3.16486 1.66046 0
M  V30 4426 S 409.112 -4.07632 1.62424 0
M  V30 4427 H 405.93 -0.611949 0.361993 0
M  V30 4428 H 408.532 -1.23175 1.51816 0
M  V30 4429 H 407.236 -3.0768 2.7159 0
M  V30 4430 H 406.767 -3.76156 1.15196 0
M  V30 4431 H 408.782 -4.91937 0.64903 0
M  V30 4432 N 407.956 -0.998596 -1.21925 0
M  V30 4433 C 409.372 -0.710303 -1.42923 0
M  V30 4434 C 409.572 0.716933 -1.88314 0
M  V30 4435 O 408.628 1.48712 -2.04062 0
M  V30 4436 C 409.941 -1.72072 -2.466 0
M  V30 4437 C 411.489 -1.73681 -2.60392 0
M  V30 4438 C 411.964 -2.73601 -3.67296 0
M  V30 4439 N 413.455 -2.7223 -3.7476 0
M  V30 4440 C 414.19 -3.46206 -4.57087 0
M  V30 4441 N 413.686 -4.29802 -5.43362 0
M  V30 4442 N 415.479 -3.34886 -4.51451 0
M  V30 4443 H 407.63 -1.92028 -0.9077 0
M  V30 4444 H 409.893 -0.828487 -0.460775 0
M  V30 4445 H 409.599 -2.74231 -2.20206 0
M  V30 4446 H 409.473 -1.51818 -3.45299 0
M  V30 4447 H 411.86 -0.722173 -2.86127 0
M  V30 4448 H 411.941 -1.98005 -1.61949 0
M  V30 4449 H 411.585 -3.75217 -3.42307 0
M  V30 4450 H 411.515 -2.46545 -4.65321 0
M  V30 4451 H 414.006 -2.11576 -3.1312 0
M  V30 4452 H 414.319 -4.83061 -6.03218 0
M  V30 4453 H 412.664 -4.33887 -5.42925 0
M  V30 4454 H 415.855 -2.69015 -3.83078 0
M  V30 4455 H 416.028 -3.92796 -5.15379 0
M  V30 4456 N 409.434 1.37368 -0.772513 0
M  V30 4457 C 410.68 1.99969 -0.337681 0
M  V30 4458 C 411.013 1.61184 1.08321 0
M  V30 4459 O 410.288 0.858395 1.74533 0
M  V30 4460 C 410.571 3.56858 -0.482121 0
M  V30 4461 C 410.424 4.0555 -1.94549 0
M  V30 4462 C 411.743 4.39955 0.113143 0
M  V30 4463 H 408.862 0.726464 -0.124171 0
M  V30 4464 H 411.504 1.63034 -0.975699 0
M  V30 4465 H 409.654 3.88452 0.0610361 0
M  V30 4466 H 411.326 3.84518 -2.54841 0
M  V30 4467 H 409.569 3.57715 -2.45403 0
M  V30 4468 H 410.24 5.14587 -1.9976 0
M  V30 4469 H 412.716 4.14623 -0.35031 0
M  V30 4470 H 411.592 5.48897 -0.0180514 0
M  V30 4471 H 411.853 4.25403 1.20354 0
M  V30 4472 N 410.912 0.523116 1.48665 0
M  V30 4473 C 412.158 -0.0134963 2.02796 0
M  V30 4474 C 412.491 -1.34582 1.40004 0
M  V30 4475 O 411.766 -1.86756 0.543381 0
M  V30 4476 C 412.049 -0.14276 3.59817 0
M  V30 4477 C 411.902 1.21425 4.331 0
M  V30 4478 C 413.221 -0.872856 4.31357 0
M  V30 4479 H 410.34 -0.00343074 0.736992 0
M  V30 4480 H 412.982 0.678816 1.7746 0
M  V30 4481 H 411.132 -0.732401 3.81534 0
M  V30 4482 H 412.804 1.84447 4.2282 0
M  V30 4483 H 411.047 1.79791 3.94788 0
M  V30 4484 H 411.718 1.07687 5.41394 0
M  V30 4485 H 414.194 -0.372555 4.14429 0
M  V30 4486 H 413.07 -0.932185 5.40927 0
M  V30 4487 H 413.331 -1.92161 3.98154 0
M  V30 4488 N 412.39 -1.55475 0.257931 0
M  V30 4489 C 413.337 -2.21837 -0.636939 0
M  V30 4490 C 414.307 -1.18596 -1.16294 0
M  V30 4491 O 415.492 -1.47081 -1.21539 0
M  V30 4492 C 412.632 -2.9301 -1.82317 0
M  V30 4493 C 411.745 -4.10931 -1.33265 0
M  V30 4494 C 410.88 -4.69791 -2.47931 0
M  V30 4495 C 409.919 -5.7994 -1.95796 0
M  V30 4496 N 409.056 -6.32935 -3.0387 0
M  V30 4497 H 413.896 -2.9793 -0.0643591 0
M  V30 4498 H 411.433 -1.47086 -0.0200031 0
M  V30 4499 H 413.391 -3.3248 -2.52018 0
M  V30 4500 H 412.021 -2.1937 -2.36805 0
M  V30 4501 H 411.073 -3.76699 -0.52931 0
M  V30 4502 H 412.385 -4.90417 -0.910654 0
M  V30 4503 H 411.539 -5.11892 -3.25656 0
M  V30 4504 H 410.278 -3.89545 -2.93438 0
M  V30 4505 H 409.283 -5.37305 -1.16546 0
M  V30 4506 H 410.508 -6.62043 -1.51246 0
M  V30 4507 H 408.454 -5.55591 -3.48791 0
M  V30 4508 H 408.371 -7.07645 -2.66035 0
M  V30 4509 H 409.639 -6.79695 -3.81621 0
M  V30 4510 N 413.868 0.0150385 -1.57593 0
M  V30 4511 C 415.093 0.718067 -1.94573 0
M  V30 4512 C 415.518 1.6734 -0.859005 0
M  V30 4513 O 414.876 1.80362 0.184147 0
M  V30 4514 C 414.924 1.43918 -3.30636 0
M  V30 4515 O 414.028 2.55299 -3.23876 0
M  V30 4516 H 413.369 0.192125 -0.635597 0
M  V30 4517 H 415.899 -0.0336708 -2.04572 0
M  V30 4518 H 415.909 1.80598 -3.65853 0
M  V30 4519 H 414.584 0.738619 -4.09289 0
M  V30 4520 H 413.161 2.21058 -3.00312 0
M  V30 4521 N 415.346 1.54954 0.287554 0
M  V30 4522 C 416.574 1.78881 1.03967 0
M  V30 4523 C 416.989 0.554894 1.80462 0
M  V30 4524 O 416.346 -0.475676 1.76192 0
M  V30 4525 C 416.397 3.00488 2.0097 0
M  V30 4526 O 416.118 4.19113 1.27577 0
M  V30 4527 C 417.619 3.36907 2.88112 0
M  V30 4528 H 414.839 0.596259 0.307761 0
M  V30 4529 H 417.383 2.01937 0.322749 0
M  V30 4530 H 415.538 2.79601 2.68145 0
M  V30 4531 H 415.952 4.87765 1.92835 0
M  V30 4532 H 417.426 4.25205 3.52001 0
M  V30 4533 H 417.903 2.55659 3.57121 0
M  V30 4534 H 418.509 3.60001 2.26449 0
M  V30 4535 N 416.824 -0.551391 1.4764 0
M  V30 4536 C 418.049 -1.33837 1.58437 0
M  V30 4537 C 418.474 -1.866 0.237063 0
M  V30 4538 O 417.832 -1.6328 -0.787994 0
M  V30 4539 C 417.88 -2.48014 2.61766 0
M  V30 4540 O 416.984 -3.50419 2.1744 0
M  V30 4541 H 416.325 -0.397299 0.532024 0
M  V30 4542 H 418.855 -0.665759 1.93465 0
M  V30 4543 H 418.865 -2.94503 2.82369 0
M  V30 4544 H 417.54 -2.08969 3.5959 0
M  V30 4545 H 416.117 -3.10196 2.06961 0
M  V30 4546 N 418.302 -1.35869 -0.798587 0
M  V30 4547 C 419.532 -1.32529 -1.58491 0
M  V30 4548 C 419.94 0.0975405 -1.88948 0
M  V30 4549 O 419.283 1.06224 -1.49874 0
M  V30 4550 C 419.345 -2.07247 -2.9375 0
M  V30 4551 C 419.009 -3.56391 -2.86068 0
M  V30 4552 C 420.006 -4.50824 -2.58947 0
M  V30 4553 C 417.691 -3.9915 -3.04933 0
M  V30 4554 C 419.685 -5.85993 -2.5078 0
M  V30 4555 C 417.372 -5.34413 -2.96389 0
M  V30 4556 C 418.37 -6.27646 -2.69349 0
M  V30 4557 O 418.058 -7.60426 -2.60782 0
M  V30 4558 H 417.79 -0.456529 -0.498556 0
M  V30 4559 H 420.344 -1.79425 -0.999799 0
M  V30 4560 H 418.574 -1.55001 -3.54276 0
M  V30 4561 H 420.263 -1.96883 -3.54954 0
M  V30 4562 H 421.029 -4.19104 -2.44084 0
M  V30 4563 H 416.908 -3.26961 -3.24989 0
M  V30 4564 H 420.452 -6.58735 -2.29595 0
M  V30 4565 H 416.349 -5.65743 -3.10813 0
M  V30 4566 H 417.117 -7.70444 -2.76331 0
M  V30 4567 N 419.78 1.02168 -1.19998 0
M  V30 4568 C 421.008 1.79296 -1.03249 0
M  V30 4569 C 421.423 1.84103 0.418502 0
M  V30 4570 O 420.78 1.29031 1.29063 0
M  V30 4571 C 420.831 3.24007 -1.60319 0
M  V30 4572 O 420.552 3.19512 -2.99739 0
M  V30 4573 C 422.053 4.17704 -1.48453 0
M  V30 4574 H 419.273 0.564016 -0.363493 0
M  V30 4575 H 421.817 1.28639 -1.58973 0
M  V30 4576 H 419.972 3.7183 -1.08727 0
M  V30 4577 H 420.386 4.10306 -3.26725 0
M  V30 4578 H 421.86 5.17104 -1.93153 0
M  V30 4579 H 422.337 4.37029 -0.436193 0
M  V30 4580 H 422.943 3.7576 -1.99211 0
M  V30 4581 N 421.258 1.00505 1.21394 0
M  V30 4582 C 422.205 0.565496 2.23765 0
M  V30 4583 C 423.175 -0.408466 1.60999 0
M  V30 4584 O 424.36 -0.310503 1.88257 0
M  V30 4585 C 421.5 -0.101667 3.4495 0
M  V30 4586 C 420.613 0.915479 4.22188 0
M  V30 4587 C 419.748 0.220574 5.30742 0
M  V30 4588 C 418.787 1.22527 5.99711 0
M  V30 4589 N 417.924 0.557831 6.9988 0
M  V30 4590 H 422.764 1.44314 2.60725 0
M  V30 4591 H 420.301 0.722643 1.28126 0
M  V30 4592 H 422.259 -0.505504 4.14126 0
M  V30 4593 H 420.889 -0.94303 3.08718 0
M  V30 4594 H 419.941 1.43756 3.52191 0
M  V30 4595 H 421.253 1.68005 4.69655 0
M  V30 4596 H 420.407 -0.239368 6.06228 0
M  V30 4597 H 419.146 -0.576401 4.84282 0
M  V30 4598 H 418.151 1.69571 5.22997 0
M  V30 4599 H 419.376 2.02332 6.48258 0
M  V30 4600 H 417.322 -0.219486 6.55633 0
M  V30 4601 H 417.239 1.26065 7.45415 0
M  V30 4602 H 418.507 0.121095 7.79406 0
M  V30 4603 N 422.737 -1.36956 0.779787 0
M  V30 4604 C 423.986 -1.98738 0.344405 0
M  V30 4605 C 424.299 -1.62596 -1.08728 0
M  V30 4606 O 425.505 -2.1754 -1.62445 0
M  V30 4607 C 423.961 -3.5544 0.564829 0
M  V30 4608 C 423.569 -4.00514 2.0073 0
M  V30 4609 C 425.313 -4.24059 0.193471 0
M  V30 4610 C 423.22 -5.49957 2.17489 0
M  V30 4611 H 422.15 -0.743561 0.12503 0
M  V30 4612 H 424.801 -1.56381 0.960057 0
M  V30 4613 H 423.183 -3.95817 -0.120397 0
M  V30 4614 H 424.357 -3.71362 2.72814 0
M  V30 4615 H 422.672 -3.44703 2.336 0
M  V30 4616 H 425.269 -5.33874 0.297097 0
M  V30 4617 H 425.612 -4.07378 -0.857263 0
M  V30 4618 H 426.145 -3.89012 0.831556 0
M  V30 4619 H 422.884 -5.71574 3.2091 0
M  V30 4620 H 422.404 -5.80767 1.49899 0
M  V30 4621 H 424.083 -6.16043 1.97738 0
M  V30 4622 N 424.215 -0.530993 -1.48385 0
M  V30 4623 C 425.178 0.220497 -2.28137 0
M  V30 4624 C 426.178 0.866851 -1.35434 0
M  V30 4625 O 427.368 0.726746 -1.58316 0
M  V30 4626 C 424.5 1.31921 -3.1434 0
M  V30 4627 H 425.693 -0.479714 -2.96038 0
M  V30 4628 H 423.246 -0.286968 -1.53643 0
M  V30 4629 H 423.981 2.05264 -2.51072 0
M  V30 4630 H 423.766 0.86085 -3.82533 0
M  V30 4631 H 425.256 1.84776 -3.74497 0
M  V30 4632 N 425.693 1.55336 -0.266172 0
M  V30 4633 C 426.918 2.04258 0.359661 0
M  V30 4634 C 427.343 1.14359 1.49344 0
M  V30 4635 O 426.701 0.140369 1.80756 0
M  V30 4636 C 426.749 3.50997 0.826635 0
M  V30 4637 O 425.853 3.64204 1.93466 0
M  V30 4638 H 425.194 0.659668 0.075727 0
M  V30 4639 H 427.724 2.00694 -0.39786 0
M  V30 4640 H 427.734 3.9219 1.12477 0
M  V30 4641 H 426.409 4.159 -0.00293032 0
M  V30 4642 H 424.986 3.34913 1.63974 0
M  V30 4643 N 427.171 -0.0066808 1.57599 0
M  V30 4644 C 428.396 -0.707738 1.94951 0
M  V30 4645 C 428.821 -1.66882 0.867868 0
M  V30 4646 O 428.179 -1.80457 -0.17458 0
M  V30 4647 C 428.227 -1.42162 3.31394 0
M  V30 4648 O 427.331 -2.53578 3.25226 0
M  V30 4649 H 426.672 -0.188752 0.636607 0
M  V30 4650 H 429.202 0.0445193 2.04552 0
M  V30 4651 H 429.212 -1.78655 3.66806 0
M  V30 4652 H 427.887 -0.716903 4.09675 0
M  V30 4653 H 426.464 -2.19463 3.01481 0
M  V30 4654 N 428.649 -1.55105 -0.279332 0
M  V30 4655 C 429.874 -1.7976 -1.03446 0
M  V30 4656 C 430.299 -0.565952 -1.79384 0
M  V30 4657 O 429.657 0.484259 -1.74713 0
M  V30 4658 C 429.705 -3.0179 -1.97371 0
M  V30 4659 O 428.809 -2.76432 -3.06038 0
M  V30 4660 H 428.15 -0.594334 -0.29608 0
M  V30 4661 H 430.68 -2.02235 -0.310165 0
M  V30 4662 H 430.69 -3.30351 -2.39441 0
M  V30 4663 H 429.365 -3.91085 -1.4151 0
M  V30 4664 H 427.942 -2.58949 -2.68328 0
M  V30 4665 N 430.127 0.543554 -1.4793 0
M  V30 4666 C 431.543 0.870806 -1.3375 0
M  V30 4667 C 431.743 1.9864 -0.338261 0
M  V30 4668 O 430.799 2.51305 0.245371 0
M  V30 4669 C 432.112 1.25114 -2.73435 0
M  V30 4670 C 433.66 1.3618 -2.81823 0
M  V30 4671 C 434.135 1.77563 -4.22179 0
M  V30 4672 N 435.626 1.8469 -4.24787 0
M  V30 4673 C 436.361 2.18067 -5.30315 0
M  V30 4674 N 435.857 2.49963 -6.46135 0
M  V30 4675 N 437.65 2.18958 -5.17701 0
M  V30 4676 H 429.801 -0.19275 -2.11524 0
M  V30 4677 H 432.064 -0.0235777 -0.947707 0
M  V30 4678 H 431.77 0.50514 -3.48053 0
M  V30 4679 H 431.644 2.20431 -3.06088 0
M  V30 4680 H 434.031 2.09859 -2.07468 0
M  V30 4681 H 434.112 0.390169 -2.52807 0
M  V30 4682 H 433.756 1.04449 -4.97044 0
M  V30 4683 H 433.686 2.75753 -4.48629 0
M  V30 4684 H 436.177 1.62372 -3.41239 0
M  V30 4685 H 436.49 2.74497 -7.22406 0
M  V30 4686 H 434.835 2.47513 -6.49432 0
M  V30 4687 H 438.026 1.93488 -4.2624 0
M  V30 4688 H 438.199 2.44639 -6.00047 0
M  V30 4689 N 431.605 1.3629 0.791371 0
M  V30 4690 C 433.021 1.16661 1.08914 0
M  V30 4691 C 433.221 -0.0106266 2.01497 0
M  V30 4692 O 432.277 -0.676596 2.43266 0
M  V30 4693 C 433.59 2.47656 1.70549 0
M  V30 4694 C 435.138 2.54002 1.82899 0
M  V30 4695 C 435.613 3.85078 2.47949 0
M  V30 4696 N 437.104 3.86413 2.5542 0
M  V30 4697 C 437.839 4.84572 3.06557 0
M  V30 4698 N 437.335 5.93124 3.58016 0
M  V30 4699 N 439.128 4.71994 3.05251 0
M  V30 4700 H 431.279 2.11668 0.176238 0
M  V30 4701 H 433.542 0.937486 0.140796 0
M  V30 4702 H 433.248 3.34059 1.09989 0
M  V30 4703 H 433.122 2.63319 2.70079 0
M  V30 4704 H 435.509 1.68018 2.42598 0
M  V30 4705 H 435.59 2.42239 0.821808 0
M  V30 4706 H 435.234 4.71467 1.88895 0
M  V30 4707 H 435.164 3.94135 3.49235 0
M  V30 4708 H 437.655 3.07988 2.18979 0
M  V30 4709 H 437.968 6.63999 3.95381 0
M  V30 4710 H 436.313 5.96796 3.56173 0
M  V30 4711 H 439.504 3.86321 2.64336 0
M  V30 4712 H 439.677 5.48653 3.44796 0
M  V30 4713 N 433.083 -1.0153 1.20538 0
M  V30 4714 C 434.308 -1.79283 1.04271 0
M  V30 4715 C 434.733 -1.8372 -0.403544 0
M  V30 4716 O 434.091 -1.27321 -1.2907 0
M  V30 4717 C 434.139 -3.21535 1.63241 0
M  V30 4718 O 433.243 -4.03099 0.870908 0
M  V30 4719 H 432.584 -0.55293 0.367647 0
M  V30 4720 H 435.114 -1.27696 1.59859 0
M  V30 4721 H 435.124 -3.72243 1.6703 0
M  V30 4722 H 433.799 -3.1762 2.68497 0
M  V30 4723 H 432.376 -3.61693 0.907323 0
M  V30 4724 N 434.561 -1.01147 -1.20859 0
M  V30 4725 C 435.789 -0.716911 -1.94082 0
M  V30 4726 C 436.204 0.721568 -1.74467 0
M  V30 4727 O 435.561 1.48889 -1.05539 0
M  V30 4728 C 435.612 -1.03662 -3.46318 0
M  V30 4729 O 435.333 -2.4186 -3.65288 0
M  V30 4730 C 436.834 -0.762386 -4.36695 0
M  V30 4731 H 434.054 -0.26367 -0.617024 0
M  V30 4732 H 436.598 -1.35127 -1.53496 0
M  V30 4733 H 434.753 -0.447757 -3.84804 0
M  V30 4734 H 435.167 -2.53224 -4.59323 0
M  V30 4735 H 436.641 -1.03621 -5.42187 0
M  V30 4736 H 437.118 0.303514 -4.3815 0
M  V30 4737 H 437.724 -1.33316 -4.03865 0
M  V30 4738 N 436.039 1.36541 -0.78704 0
M  V30 4739 C 437.267 2.03561 -0.370199 0
M  V30 4740 C 437.682 1.59347 1.01263 0
M  V30 4741 O 437.039 0.781781 1.64907 0
M  V30 4742 C 437.09 3.59033 -0.421614 0
M  V30 4743 O 436.811 4.01634 -1.7499 0
M  V30 4744 C 438.312 4.433 0.00489763 0
M  V30 4745 H 435.532 0.653346 -0.152904 0
M  V30 4746 H 438.076 1.74566 -1.06522 0
M  V30 4747 H 436.231 3.86746 0.224971 0
M  V30 4748 H 436.645 4.96217 -1.69909 0
M  V30 4749 H 438.119 5.51939 -0.0822184 0
M  V30 4750 H 438.596 4.26285 1.05723 0
M  V30 4751 H 439.202 4.20843 -0.614085 0
M  V30 4752 N 437.518 0.538854 1.48102 0
M  V30 4753 C 438.465 -0.219042 2.29758 0
M  V30 4754 C 439.435 -0.925562 1.37922 0
M  V30 4755 O 440.62 -0.924855 1.66886 0
M  V30 4756 C 437.76 -1.25452 3.2149 0
M  V30 4757 C 436.873 -0.555943 4.28408 0
M  V30 4758 C 436.008 -1.57512 5.0731 0
M  V30 4759 C 435.047 -0.860498 6.06021 0
M  V30 4760 N 434.184 -1.82564 6.77949 0
M  V30 4761 H 439.024 0.483449 2.94052 0
M  V30 4762 H 436.561 0.250247 1.44956 0
M  V30 4763 H 438.519 -1.86727 3.7308 0
M  V30 4764 H 437.149 -1.92528 2.591 0
M  V30 4765 H 436.201 0.170938 3.80016 0
M  V30 4766 H 437.513 0.00474616 4.988 0
M  V30 4767 H 436.667 -2.26191 5.62959 0
M  V30 4768 H 435.406 -2.16972 4.36778 0
M  V30 4769 H 434.411 -0.159686 5.49568 0
M  V30 4770 H 435.636 -0.271897 6.78555 0
M  V30 4771 H 433.582 -2.40915 6.10161 0
M  V30 4772 H 433.499 -1.31662 7.44447 0
M  V30 4773 H 434.767 -2.50414 7.38182 0
M  V30 4774 N 438.996 -1.55193 0.274407 0
M  V30 4775 C 440.221 -2.04446 -0.348824 0
M  V30 4776 C 440.646 -1.15149 -1.48735 0
M  V30 4777 O 440.004 -0.149952 -1.80679 0
M  V30 4778 C 440.052 -3.51431 -0.808009 0
M  V30 4779 O 439.156 -3.65225 -1.91531 0
M  V30 4780 H 438.497 -0.66006 -0.0722276 0
M  V30 4781 H 441.027 -2.00481 0.408498 0
M  V30 4782 H 441.037 -3.92781 -1.10395 0
M  V30 4783 H 439.712 -4.15892 0.0249865 0
M  V30 4784 H 438.289 -3.35778 -1.62196 0
M  V30 4785 N 440.474 -0.00167713 -1.576 0
M  V30 4786 C 441.885 0.54091 -1.78693 0
M  V30 4787 C 442.236 1.7386 -0.909247 0
M  V30 4788 O 441.361 2.16109 -0.112176 0
M  V30 4789 C 441.956 0.98806 -3.24072 0
M  V30 4790 C 440.515 1.47594 -3.46256 0
M  V30 4791 C 439.662 0.42792 -2.73978 0
M  V30 4792 H 442.613 -0.22784 -1.57056 0
M  V30 4793 H 442.634 1.85398 -3.32277 0
M  V30 4794 H 442.146 0.116164 -3.87926 0
M  V30 4795 H 440.247 2.36868 -2.87618 0
M  V30 4796 H 440.36 1.50225 -4.54939 0
M  V30 4797 H 438.724 0.889934 -2.38647 0
M  V30 4798 H 439.507 -0.435038 -3.40532 0
M  V30 4799 N 441.952 1.55251 0.271103 0
M  V30 4800 C 443.2 1.75599 1.00047 0
M  V30 4801 C 443.521 0.561188 1.8675 0
M  V30 4802 O 442.791 -0.423846 1.9126 0
M  V30 4803 H 441.371 0.647562 0.372387 0
M  V30 4804 H 444.033 1.92656 0.294876 0
M  V30 4805 H 443.129 2.65766 1.6363 0
M  V30 4806 N 443.43 -0.535701 1.48216 0
M  V30 4807 C 444.841 -1.11769 1.49548 0
M  V30 4808 C 445.192 -1.94442 0.26207 0
M  V30 4809 O 444.317 -2.06987 -0.631287 0
M  V30 4810 C 444.912 -2.03367 2.70975 0
M  V30 4811 C 443.471 -2.56795 2.75196 0
M  V30 4812 C 442.618 -1.33631 2.42977 0
M  V30 4813 H 445.569 -0.321232 1.55415 0
M  V30 4814 H 445.59 -2.87569 2.49167 0
M  V30 4815 H 445.102 -1.43169 3.60727 0
M  V30 4816 H 443.203 -3.20731 1.89638 0
M  V30 4817 H 443.316 -2.9632 3.76472 0
M  V30 4818 H 441.68 -1.6502 1.94012 0
M  V30 4819 H 442.463 -0.75194 3.34964 0
M  V30 4820 N 444.908 -1.36708 -0.784132 0
M  V30 4821 C 446.133 -1.34565 -1.5782 0
M  V30 4822 C 446.558 0.0695257 -1.87971 0
M  V30 4823 O 445.916 1.04302 -1.48293 0
M  V30 4824 C 445.964 -2.17952 -2.87279 0
M  V30 4825 O 445.068 -1.57563 -3.81114 0
M  V30 4826 H 444.409 -0.460337 -0.478524 0
M  V30 4827 H 446.939 -1.80064 -0.971495 0
M  V30 4828 H 446.949 -2.30721 -3.365 0
M  V30 4829 H 445.624 -3.20823 -2.64661 0
M  V30 4830 H 444.201 -1.53764 -3.39722 0
M  V30 4831 N 446.386 1.0089 -1.21074 0
M  V30 4832 C 447.802 1.2695 -0.967257 0
M  V30 4833 C 448.002 1.9846 0.348673 0
M  V30 4834 O 447.058 2.28459 1.0753 0
M  V30 4835 C 448.371 2.09697 -2.15517 0
M  V30 4836 C 449.919 2.22937 -2.197 0
M  V30 4837 C 450.394 3.09064 -3.37999 0
M  V30 4838 N 451.885 3.16653 -3.38061 0
M  V30 4839 C 452.62 3.8354 -4.26245 0
M  V30 4840 N 452.116 4.52488 -5.2462 0
M  V30 4841 N 453.909 3.80141 -4.14064 0
M  V30 4842 H 446.06 0.529005 -2.05707 0
M  V30 4843 H 448.323 0.296148 -0.900556 0
M  V30 4844 H 448.029 1.64497 -3.10859 0
M  V30 4845 H 447.903 3.10444 -2.14253 0
M  V30 4846 H 450.29 2.67357 -1.24916 0
M  V30 4847 H 450.371 1.21673 -2.2501 0
M  V30 4848 H 450.015 2.65347 -4.33074 0
M  V30 4849 H 449.945 4.10433 -3.29928 0
M  V30 4850 H 452.436 2.67566 -2.66865 0
M  V30 4851 H 452.749 5.01219 -5.88217 0
M  V30 4852 H 451.094 4.51288 -5.28549 0
M  V30 4853 H 454.285 3.25427 -3.36474 0
M  V30 4854 H 454.458 4.31992 -4.82998 0
M  V30 4855 N 447.864 1.01787 1.20321 0
M  V30 4856 C 449.28 0.732951 1.41774 0
M  V30 4857 C 449.48 -0.686883 1.89431 0
M  V30 4858 O 448.536 -1.45446 2.06402 0
M  V30 4859 C 449.849 1.75973 2.43832 0
M  V30 4860 C 451.397 1.77802 2.57596 0
M  V30 4861 C 451.872 2.7941 3.62897 0
M  V30 4862 N 453.363 2.78157 3.70382 0
M  V30 4863 C 454.098 3.53434 4.51521 0
M  V30 4864 N 453.594 4.38392 5.36455 0
M  V30 4865 N 455.387 3.42026 4.46066 0
M  V30 4866 H 447.538 1.93447 0.877035 0
M  V30 4867 H 449.801 0.835712 0.447536 0
M  V30 4868 H 449.507 2.77699 2.15815 0
M  V30 4869 H 449.381 1.57292 3.4284 0
M  V30 4870 H 451.768 0.767602 2.84942 0
M  V30 4871 H 451.849 2.00557 1.58779 0
M  V30 4872 H 451.493 3.80616 3.36295 0
M  V30 4873 H 451.423 2.53916 4.61339 0
M  V30 4874 H 453.914 2.16531 3.09714 0
M  V30 4875 H 454.227 4.92596 5.95457 0
M  V30 4876 H 452.572 4.4247 5.35953 0
M  V30 4877 H 455.763 2.75075 3.78749 0
M  V30 4878 H 455.936 4.00946 5.09064 0
M  V30 4879 N 449.342 -1.36122 0.79427 0
M  V30 4880 C 450.567 -2.03891 0.379871 0
M  V30 4881 C 450.992 -1.59488 -0.997251 0
M  V30 4882 O 450.35 -0.765652 -1.64339 0
M  V30 4883 C 450.398 -3.57687 0.457442 0
M  V30 4884 O 449.502 -4.08931 -0.5338 0
M  V30 4885 H 448.843 -0.6443 0.160541 0
M  V30 4886 H 451.373 -1.73976 1.07673 0
M  V30 4887 H 451.383 -4.06721 0.322792 0
M  V30 4888 H 450.058 -3.89357 1.46199 0
M  V30 4889 H 448.635 -3.71154 -0.360409 0
M  V30 4890 N 450.82 -0.546701 -1.47814 0
M  V30 4891 C 451.767 0.206854 -2.29871 0
M  V30 4892 C 452.737 0.918235 -1.38411 0
M  V30 4893 O 453.922 0.915991 -1.67375 0
M  V30 4894 C 451.062 1.23746 -3.22151 0
M  V30 4895 C 450.175 0.533216 -4.28697 0
M  V30 4896 C 449.31 1.5482 -5.08138 0
M  V30 4897 C 448.349 0.828347 -6.06469 0
M  V30 4898 N 447.486 1.78966 -6.78908 0
M  V30 4899 H 452.326 -0.499037 -2.93792 0
M  V30 4900 H 449.863 -0.25793 -1.44821 0
M  V30 4901 H 451.821 1.84746 -3.74065 0
M  V30 4902 H 450.451 1.91151 -2.60117 0
M  V30 4903 H 449.503 -0.191089 -3.7992 0
M  V30 4904 H 450.815 -0.0311987 -4.9879 0
M  V30 4905 H 449.969 2.23202 -5.6415 0
M  V30 4906 H 448.708 2.14652 -4.37922 0
M  V30 4907 H 447.713 0.130539 -5.49645 0
M  V30 4908 H 448.938 0.235907 -6.7869 0
M  V30 4909 H 446.884 2.37675 -6.1143 0
M  V30 4910 H 446.801 1.27712 -7.45135 0
M  V30 4911 H 448.069 2.46496 -7.395 0
M  V30 4912 N 452.299 1.55045 -0.282633 0
M  V30 4913 C 453.524 2.04628 0.337977 0
M  V30 4914 C 453.949 1.15937 1.48123 0
M  V30 4915 O 453.307 0.159532 1.80597 0
M  V30 4916 C 453.355 3.51854 0.78936 0
M  V30 4917 O 452.459 3.66236 1.89592 0
M  V30 4918 H 451.8 0.660434 0.0687261 0
M  V30 4919 H 454.33 2.00261 -0.419124 0
M  V30 4920 H 454.34 3.93361 1.08311 0
M  V30 4921 H 453.015 4.15873 -0.0470419 0
M  V30 4922 H 451.592 3.36633 1.60413 0
M  V30 4923 N 453.777 0.010035 1.57597 0
M  V30 4924 C 455.188 -0.531426 1.78977 0
M  V30 4925 C 455.539 -1.73375 0.918454 0
M  V30 4926 O 454.664 -2.16047 0.123635 0
M  V30 4927 C 455.259 -0.97086 3.24592 0
M  V30 4928 C 453.818 -1.45756 3.47033 0
M  V30 4929 C 452.965 -0.413384 2.74201 0
M  V30 4930 H 455.916 0.236166 1.56933 0
M  V30 4931 H 455.937 -1.83633 3.33255 0
M  V30 4932 H 455.449 -0.0955893 3.87982 0
M  V30 4933 H 453.55 -2.35339 2.88871 0
M  V30 4934 H 453.663 -1.4781 4.55729 0
M  V30 4935 H 452.027 -0.877266 2.39115 0
M  V30 4936 H 452.81 0.453092 3.40297 0
M  V30 4937 N 455.255 -1.55392 -0.262866 0
M  V30 4938 C 456.218 -1.88181 -1.30846 0
M  V30 4939 C 457.218 -0.757079 -1.41862 0
M  V30 4940 O 458.408 -1.02519 -1.40838 0
M  V30 4941 C 455.54 -2.09609 -2.68844 0
M  V30 4942 H 456.733 -2.81659 -1.02997 0
M  V30 4943 H 454.286 -1.48039 -0.501414 0
M  V30 4944 H 455.021 -1.18547 -3.01856 0
M  V30 4945 H 454.806 -2.91508 -2.62231 0
M  V30 4946 H 456.296 -2.36215 -3.44372 0
M  V30 4947 N 456.733 0.527833 -1.48498 0
M  V30 4948 C 457.958 1.313 -1.60546 0
M  V30 4949 C 458.383 1.86199 -0.26672 0
M  V30 4950 O 457.741 1.64513 0.761918 0
M  V30 4951 C 457.789 2.43818 -2.65678 0
M  V30 4952 O 456.893 3.46916 -2.22987 0
M  V30 4953 H 456.234 0.388784 -0.538277 0
M  V30 4954 H 458.764 0.634896 -1.945 0
M  V30 4955 H 458.774 2.89973 -2.87018 0
M  V30 4956 H 457.449 2.03222 -3.62869 0
M  V30 4957 H 456.026 3.06864 -2.11869 0
M  V30 4958 N 458.211 1.37122 0.776871 0
M  V30 4959 C 459.439 1.3523 1.5659 0
M  V30 4960 C 459.854 -0.0635518 1.88693 0
M  V30 4961 O 459.211 -1.02394 1.51069 0
M  V30 4962 C 459.262 2.18583 2.8793 0
M  V30 4963 O 458.983 3.5465 2.57206 0
M  V30 4964 C 460.484 2.24612 3.82183 0
M  V30 4965 H 457.704 0.4634 0.485285 0
M  V30 4966 H 460.248 1.80392 0.963266 0
M  V30 4967 H 458.403 1.76943 3.4463 0
M  V30 4968 H 458.817 3.98286 3.41275 0
M  V30 4969 H 460.291 2.87267 4.71361 0
M  V30 4970 H 460.768 1.25309 4.20944 0
M  V30 4971 H 461.374 2.66543 3.31414 0
M  V30 4972 N 459.689 -1.00246 1.21608 0
M  V30 4973 C 460.914 -1.78167 1.06167 0
M  V30 4974 C 461.339 -1.84138 -0.384035 0
M  V30 4975 O 460.697 -1.28683 -1.27712 0
M  V30 4976 C 460.745 -3.19786 1.66642 0
M  V30 4977 O 459.849 -4.02153 0.913613 0
M  V30 4978 H 459.19 -0.549 0.37349 0
M  V30 4979 H 461.72 -1.25994 1.61204 0
M  V30 4980 H 461.73 -3.70451 1.70969 0
M  V30 4981 H 460.405 -3.14754 2.7185 0
M  V30 4982 H 458.982 -3.60711 0.945635 0
M  V30 4983 N 461.167 -1.02423 -1.1978 0
M  V30 4984 C 462.392 -0.7373 -1.93852 0
M  V30 4985 C 462.817 0.696923 -1.74713 0
M  V30 4986 O 462.175 1.48056 -1.04638 0
M  V30 4987 C 462.223 -1.08783 -3.438 0
M  V30 4988 O 461.327 -0.20383 -4.11896 0
M  V30 4989 H 460.668 -0.27284 -0.605355 0
M  V30 4990 H 463.198 -1.36966 -1.51992 0
M  V30 4991 H 463.208 -1.04276 -3.9445 0
M  V30 4992 H 461.883 -2.13274 -3.57053 0
M  V30 4993 H 460.46 -0.307091 -3.71633 0
M  V30 4994 N 462.645 1.35699 -0.801477 0
M  V30 4995 C 463.891 1.99208 -0.380022 0
M  V30 4996 C 464.224 1.63445 1.04878 0
M  V30 4997 O 463.499 0.895223 1.72673 0
M  V30 4998 C 463.782 3.55755 -0.557708 0
M  V30 4999 C 463.635 4.01332 -2.03107 0
M  V30 5000 C 464.954 4.40096 0.0197968 0
M  V30 5001 H 462.073 0.723667 -0.139552 0
M  V30 5002 H 464.715 1.60928 -1.01006 0
M  V30 5003 H 462.865 3.88494 -0.0213741 0
M  V30 5004 H 464.537 3.79026 -2.62939 0
M  V30 5005 H 462.78 3.52429 -2.52936 0
M  V30 5006 H 463.451 5.10234 -2.1063 0
M  V30 5007 H 465.927 4.13786 -0.438179 0
M  V30 5008 H 464.803 5.48735 -0.134477 0
M  V30 5009 H 465.064 4.2786 1.11303 0
M  V30 5010 N 464.123 0.554532 1.47522 0
M  V30 5011 C 465.071 -0.207765 2.3167 0
M  V30 5012 C 466.065 -0.911914 1.4276 0
M  V30 5013 O 467.271 -0.833504 1.59539 0
M  V30 5014 H 463.646 -0.0858726 0.747081 0
M  V30 5015 H 465.617 0.521178 2.93813 0
M  V30 5016 C 464.366 -1.2263 3.25357 0
M  V30 5017 H 463.689 -0.693887 3.93732 0
M  V30 5018 H 465.129 -1.73062 3.87073 0
M  V30 5019 C 463.588 -2.27278 2.4869 0
M  V30 5020 O 464.118 -3.34156 2.22941 0
M  V30 5021 N 462.324 -2.01134 2.09746 0
M  V30 5022 H 461.871 -1.14232 2.30887 0
M  V30 5023 H 461.829 -2.71369 1.58765 0
M  V30 5024 N 465.601 -1.54893 0.290851 0
M  V30 5025 C 466.849 -1.99538 -0.320756 0
M  V30 5026 C 467.17 -1.18075 -1.55188 0
M  V30 5027 O 466.44 -0.274162 -1.93972 0
M  V30 5028 H 465.02 -0.737052 -0.121507 0
M  V30 5029 H 467.682 -1.90755 0.399832 0
M  V30 5030 H 466.778 -3.06282 -0.599802 0
M  V30 5031 N 467.08 -0.0183926 -1.57589 0
M  V30 5032 C 468.308 0.673046 -1.95647 0
M  V30 5033 C 468.723 1.66275 -0.894312 0
M  V30 5034 O 468.08 1.82072 0.124975 0
M  V30 5035 C 468.131 1.38884 -3.33756 0
M  V30 5036 O 467.852 0.438806 -4.35897 0
M  V30 5037 C 469.353 2.1731 -3.86383 0
M  V30 5038 H 466.573 0.186292 -0.644621 0
M  V30 5039 H 469.117 -0.0749748 -2.04363 0
M  V30 5040 H 467.272 2.08835 -3.26293 0
M  V30 5041 H 467.686 0.945869 -5.15901 0
M  V30 5042 H 469.16 2.62863 -4.85394 0
M  V30 5043 H 469.637 3.00764 -3.20059 0
M  V30 5044 H 470.243 1.52339 -3.97081 0
M  V30 5045 N 468.558 1.5553 0.254621 0
M  V30 5046 C 469.969 1.67518 0.824286 0
M  V30 5047 C 470.32 0.614429 1.86331 0
M  V30 5048 O 469.445 -0.240736 2.15057 0
M  V30 5049 C 470.04 3.03692 1.50189 0
M  V30 5050 C 468.599 3.17646 2.01935 0
M  V30 5051 C 467.746 2.63373 0.867746 0
M  V30 5052 H 470.697 1.58671 0.0305843 0
M  V30 5053 H 470.718 2.97706 2.36962 0
M  V30 5054 H 470.23 3.80874 0.745431 0
M  V30 5055 H 468.331 2.45273 2.80485 0
M  V30 5056 H 468.444 4.24455 2.22204 0
M  V30 5057 H 466.808 2.20999 1.26616 0
M  V30 5058 H 467.591 3.43074 0.124498 0
M  V30 5059 N 470.036 -0.519951 1.48776 0
M  V30 5060 C 471.284 -1.2727 1.56993 0
M  V30 5061 C 471.605 -1.9339 0.25004 0
M  V30 5062 O 470.875 -1.81822 -0.729216 0
M  V30 5063 H 469.455 -0.472732 0.578389 0
M  V30 5064 H 472.117 -0.604234 1.85297 0
M  V30 5065 H 471.213 -2.04669 2.3562 0
M  V30 5066 N 471.514 -1.37532 -0.769588 0
M  V30 5067 C 472.739 -1.36231 -1.56384 0
M  V30 5068 C 473.164 0.0495849 -1.88035 0
M  V30 5069 O 472.522 1.02723 -1.49391 0
M  V30 5070 C 472.57 -2.20986 -2.84952 0
M  V30 5071 O 471.674 -1.61597 -3.79421 0
M  V30 5072 H 471.015 -0.465387 -0.473615 0
M  V30 5073 H 473.545 -1.81085 -0.952342 0
M  V30 5074 H 473.555 -2.34277 -3.34034 0
M  V30 5075 H 472.23 -3.23612 -2.61243 0
M  V30 5076 H 470.807 -1.57359 -3.38072 0
M  V30 5077 N 472.992 0.995999 -1.22138 0
M  V30 5078 C 473.924 2.08745 -0.946485 0
M  V30 5079 C 474.937 1.62633 0.0737356 0
M  V30 5080 O 476.126 1.77782 -0.159886 0
M  V30 5081 C 473.226 3.36516 -0.401305 0
M  V30 5082 C 472.399 4.11672 -1.47801 0
M  V30 5083 C 471.458 5.17728 -0.940461 0
M  V30 5084 O 470.484 5.45482 -1.62596 0
M  V30 5085 N 471.686 5.80005 0.239723 0
M  V30 5086 H 474.451 2.32908 -1.88611 0
M  V30 5087 H 472.012 1.16152 -1.12785 0
M  V30 5088 H 474.004 4.04691 -0.0270837 0
M  V30 5089 H 472.574 3.0944 0.443354 0
M  V30 5090 H 471.794 3.38171 -2.02568 0
M  V30 5091 H 473.082 4.58657 -2.20253 0
M  V30 5092 H 472.48 5.5982 0.813518 0
M  V30 5093 H 471.037 6.4943 0.555361 0
M  V30 5094 N 474.47 1.03057 1.19235 0
M  V30 5095 C 475.4 0.633497 2.24742 0
M  V30 5096 C 476.381 -0.358335 1.66283 0
M  V30 5097 O 477.566 -0.240676 1.92703 0
M  V30 5098 C 474.696 -0.0147648 3.47297 0
M  V30 5099 C 473.65 0.899527 4.18441 0
M  V30 5100 C 472.976 0.116281 5.34574 0
M  V30 5101 C 474.276 2.21404 4.73051 0
M  V30 5102 H 475.97 1.5155 2.58211 0
M  V30 5103 H 473.516 0.73014 1.24117 0
M  V30 5104 H 475.469 -0.304202 4.20301 0
M  V30 5105 H 474.193 -0.931577 3.13032 0
M  V30 5106 H 472.852 1.17319 3.47321 0
M  V30 5107 H 472.5 -0.802619 4.96555 0
M  V30 5108 H 472.2 0.725293 5.83107 0
M  V30 5109 H 473.724 -0.166376 6.10373 0
M  V30 5110 H 475.138 1.98601 5.37802 0
M  V30 5111 H 473.535 2.77512 5.32078 0
M  V30 5112 H 474.605 2.86752 3.91026 0
M  V30 5113 N 475.948 -1.35272 0.808662 0
M  V30 5114 C 477.173 -2.03477 0.401475 0
M  V30 5115 C 477.598 -1.60537 -0.980279 0
M  V30 5116 O 476.956 -0.78304 -1.63518 0
M  V30 5117 C 477.004 -3.57181 0.495354 0
M  V30 5118 O 476.108 -4.09474 -0.490397 0
M  V30 5119 H 475.449 -0.642561 0.167366 0
M  V30 5120 H 477.979 -1.72824 1.09512 0
M  V30 5121 H 477.989 -4.06356 0.365912 0
M  V30 5122 H 476.664 -3.87784 1.5032 0
M  V30 5123 H 475.241 -3.71516 -0.321023 0
M  V30 5124 N 477.426 -0.562348 -1.47226 0
M  V30 5125 C 478.654 -0.0452275 -2.06851 0
M  V30 5126 C 479.069 1.25078 -1.41424 0
M  V30 5127 O 478.426 1.75156 -0.512513 0
M  V30 5128 C 478.477 0.148674 -3.61194 0
M  V30 5129 O 478.198 -1.09602 -4.24169 0
M  V30 5130 C 479.699 0.702488 -4.37699 0
M  V30 5131 H 476.919 -0.0481775 -0.669268 0
M  V30 5132 H 479.463 -0.777223 -1.89155 0
M  V30 5133 H 477.618 0.830817 -3.78386 0
M  V30 5134 H 478.032 -0.896982 -5.16773 0
M  V30 5135 H 479.506 0.78743 -5.46355 0
M  V30 5136 H 479.983 1.71493 -4.04335 0
M  V30 5137 H 480.589 0.0558772 -4.25263 0
M  V30 5138 N 478.904 1.54736 -0.299062 0
M  V30 5139 C 480.315 1.8569 0.193971 0
M  V30 5140 C 480.666 1.22101 1.53577 0
M  V30 5141 O 479.791 0.51799 2.10109 0
M  V30 5142 C 480.386 3.36895 0.358733 0
M  V30 5143 C 478.945 3.67887 0.795986 0
M  V30 5144 C 478.092 2.77131 -0.096807 0
M  V30 5145 H 481.043 1.49934 -0.520134 0
M  V30 5146 H 481.064 3.61294 1.19361 0
M  V30 5147 H 480.576 3.83148 -0.617998 0
M  V30 5148 H 478.677 3.27151 1.78334 0
M  V30 5149 H 478.79 4.75114 0.616718 0
M  V30 5150 H 477.154 2.51153 0.423581 0
M  V30 5151 H 477.937 3.26204 -1.06986 0
M  V30 5152 N 480.382 0.0267497 1.57577 0
M  V30 5153 C 481.798 -0.32962 1.56159 0
M  V30 5154 C 481.998 -1.73059 1.03213 0
M  V30 5155 O 481.054 -2.43233 0.677804 0
M  V30 5156 C 482.367 -0.18039 3.00158 0
M  V30 5157 C 483.915 -0.253334 3.11973 0
M  V30 5158 C 484.39 -0.132921 4.57807 0
M  V30 5159 N 485.881 -0.189979 4.6281 0
M  V30 5160 C 486.616 -0.120554 5.73273 0
M  V30 5161 N 486.112 -0.000180315 6.928 0
M  V30 5162 N 487.905 -0.174369 5.61829 0
M  V30 5163 H 480.056 0.942896 1.90324 0
M  V30 5164 H 482.319 0.3639 0.875375 0
M  V30 5165 H 482.025 0.784576 3.42837 0
M  V30 5166 H 481.899 -0.951565 3.65 0
M  V30 5167 H 484.286 -1.20876 2.69208 0
M  V30 5168 H 484.367 0.548177 2.49857 0
M  V30 5169 H 484.011 0.819073 5.01252 0
M  V30 5170 H 483.941 -0.953264 5.179 0
M  V30 5171 H 486.432 -0.283257 3.76837 0
M  V30 5172 H 486.745 0.0461666 7.72786 0
M  V30 5173 H 485.09 0.034569 6.94991 0
M  V30 5174 H 488.281 -0.266794 4.67339 0
M  V30 5175 H 488.454 -0.116802 6.47895 0
M  V30 5176 N 481.861 -1.55662 -0.24637 0
M  V30 5177 C 483.086 -1.81914 -0.996093 0
M  V30 5178 C 483.511 -0.603875 -1.78143 0
M  V30 5179 O 482.869 0.447091 -1.75701 0
M  V30 5180 C 482.917 -3.05908 -1.90925 0
M  V30 5181 O 482.021 -2.82861 -3.00105 0
M  V30 5182 H 481.362 -0.600481 -0.283406 0
M  V30 5183 H 483.892 -2.02848 -0.267199 0
M  V30 5184 H 483.902 -3.35356 -2.3238 0
M  V30 5185 H 482.577 -3.93999 -1.33183 0
M  V30 5186 H 481.154 -2.64583 -2.62775 0
M  V30 5187 N 483.339 0.512053 -1.4905 0
M  V30 5188 C 484.587 1.26436 -1.57665 0
M  V30 5189 C 484.908 1.93255 -0.260293 0
M  V30 5190 O 484.178 1.82206 0.719564 0
M  V30 5191 H 482.758 0.469658 -0.580888 0
M  V30 5192 H 485.42 0.594398 -1.85615 0
M  V30 5193 H 484.516 2.03417 -2.36702 0
M  V30 5194 N 484.817 1.37938 0.762283 0
M  V30 5195 C 485.764 1.34467 1.87583 0
M  V30 5196 C 486.734 0.208633 1.64785 0
M  V30 5197 O 487.919 0.399494 1.86571 0
M  V30 5198 C 485.059 1.16692 3.24772 0
M  V30 5199 C 484.172 2.39608 3.59461 0
M  V30 5200 C 483.307 2.14631 4.85908 0
M  V30 5201 C 482.346 3.33364 5.13357 0
M  V30 5202 N 481.483 3.07877 6.30996 0
M  V30 5203 H 486.323 2.29669 1.89885 0
M  V30 5204 H 483.86 1.14116 0.928219 0
M  V30 5205 H 485.818 1.04405 4.03925 0
M  V30 5206 H 484.448 0.251333 3.2182 0
M  V30 5207 H 483.5 2.626 2.75219 0
M  V30 5208 H 484.812 3.28128 3.75678 0
M  V30 5209 H 483.966 1.99429 5.72986 0
M  V30 5210 H 482.705 1.23463 4.71814 0
M  V30 5211 H 481.71 3.49094 4.24751 0
M  V30 5212 H 482.935 4.25395 5.29354 0
M  V30 5213 H 480.881 2.19348 6.18241 0
M  V30 5214 H 480.798 3.89944 6.47673 0
M  V30 5215 H 482.066 2.96313 7.20985 0
M  V30 5216 N 486.295 -0.989507 1.22664 0
M  V30 5217 C 487.52 -1.77031 1.08051 0
M  V30 5218 C 487.945 -1.84535 -0.364483 0
M  V30 5219 O 487.303 -1.3003 -1.2634 0
M  V30 5220 C 487.351 -3.18 1.70024 0
M  V30 5221 O 486.455 -4.01161 0.956216 0
M  V30 5222 H 485.796 -0.545008 0.379292 0
M  V30 5223 H 488.326 -1.24277 1.62531 0
M  V30 5224 H 488.336 -3.68616 1.74888 0
M  V30 5225 H 487.011 -3.11853 2.75174 0
M  V30 5226 H 485.588 -3.59687 0.98384 0
M  V30 5227 N 487.773 -1.03688 -1.18687 0
M  V30 5228 C 489.184 -0.766488 -1.70241 0
M  V30 5229 C 489.535 0.713052 -1.82784 0
M  V30 5230 O 488.66 1.55529 -1.50465 0
M  V30 5231 C 489.255 -1.38475 -3.09209 0
M  V30 5232 C 487.814 -1.16276 -3.5799 0
M  V30 5233 C 486.961 -1.4778 -2.34641 0
M  V30 5234 H 489.912 -1.20378 -1.03415 0
M  V30 5235 H 489.933 -0.785939 -3.72295 0
M  V30 5236 H 489.445 -2.46157 -3.00048 0
M  V30 5237 H 487.546 -0.104508 -3.72453 0
M  V30 5238 H 487.659 -1.8571 -4.41643 0
M  V30 5239 H 486.023 -0.897366 -2.38368 0
M  V30 5240 H 486.806 -2.56562 -2.28102 0
M  V30 5241 N 489.251 1.34841 -0.815825 0
M  V30 5242 C 490.476 2.03261 -0.41226 0
M  V30 5243 C 490.901 1.61055 0.971751 0
M  V30 5244 O 490.259 0.7917 1.63101 0
M  V30 5245 C 490.307 3.56914 -0.514289 0
M  V30 5246 O 489.411 4.09728 0.468675 0
M  V30 5247 H 488.752 0.641664 -0.170771 0
M  V30 5248 H 491.282 1.72241 -1.10427 0
M  V30 5249 H 491.292 4.06156 -0.387457 0
M  V30 5250 H 489.967 3.86982 -1.52375 0
M  V30 5251 H 488.544 3.71681 0.301316 0
M  V30 5252 N 490.729 0.570148 1.46925 0
M  V30 5253 C 492.14 0.1402 1.86173 0
M  V30 5254 C 492.491 -1.29347 1.47526 0
M  V30 5255 O 491.616 -1.97508 0.884292 0
M  V30 5256 C 492.211 0.247661 3.37894 0
M  V30 5257 C 490.77 -0.127332 3.76185 0
M  V30 5258 C 489.917 0.589349 2.70965 0
M  V30 5259 H 492.868 0.779117 1.38259 0
M  V30 5260 H 492.889 -0.530341 3.76786 0
M  V30 5261 H 492.401 1.29121 3.65991 0
M  V30 5262 H 490.502 -1.17149 3.53704 0
M  V30 5263 H 490.615 0.240238 4.78497 0
M  V30 5264 H 488.979 0.0309824 2.54681 0
M  V30 5265 H 489.762 1.6343 3.01903 0
M  V30 5266 N 492.207 -1.54576 0.307264 0
M  V30 5267 C 493.432 -2.05139 -0.305379 0
M  V30 5268 C 493.857 -1.18278 -1.46259 0
M  V30 5269 O 493.215 -0.188243 -1.8032 0
M  V30 5270 C 493.263 -3.53066 -0.733283 0
M  V30 5271 O 492.367 -3.69206 -1.83741 0
M  V30 5272 H 491.708 -0.661444 -0.0582105 0
M  V30 5273 H 494.238 -1.99569 0.450931 0
M  V30 5274 H 494.248 -3.95034 -1.02039 0
M  V30 5275 H 492.923 -4.15746 0.113198 0
M  V30 5276 H 491.5 -3.39143 -1.55037 0
M  V30 5277 N 493.685 -0.035106 -1.57561 0
M  V30 5278 C 495.096 0.502885 -1.798 0
M  V30 5279 C 495.447 1.71892 -0.945921 0
M  V30 5280 O 494.572 2.15822 -0.157991 0
M  V30 5281 C 495.167 0.919097 -3.26095 0
M  V30 5282 C 493.726 1.40216 -3.49308 0
M  V30 5283 C 492.873 0.369709 -2.74824 0
M  V30 5284 H 495.824 -0.261102 -1.56537 0
M  V30 5285 H 495.845 1.78308 -3.36135 0
M  V30 5286 H 495.357 0.0338526 -3.88085 0
M  V30 5287 H 493.458 2.30714 -2.92578 0
M  V30 5288 H 493.571 1.40541 -4.58023 0
M  V30 5289 H 491.935 0.839113 -2.40481 0
M  V30 5290 H 492.718 -0.507173 -3.39533 0
M  V30 5291 N 495.163 1.55791 0.238111 0
M  V30 5292 C 496.391 1.82098 0.982233 0
M  V30 5293 C 496.806 0.612025 1.78605 0
M  V30 5294 O 496.163 -0.419381 1.77616 0
M  V30 5295 C 496.214 3.0673 1.91309 0
M  V30 5296 O 495.935 4.2296 1.14179 0
M  V30 5297 C 497.436 3.45903 2.77248 0
M  V30 5298 H 494.656 0.605748 0.288635 0
M  V30 5299 H 497.2 2.02862 0.258341 0
M  V30 5300 H 495.355 2.87991 2.59114 0
M  V30 5301 H 495.769 4.93653 1.7722 0
M  V30 5302 H 497.243 4.36189 3.38295 0
M  V30 5303 H 497.72 2.66891 3.48806 0
M  V30 5304 H 498.326 3.67024 2.14881 0
M  V30 5305 N 496.642 -0.504142 1.49319 0
M  V30 5306 C 497.867 -1.28729 1.62615 0
M  V30 5307 C 498.292 -1.85752 0.296309 0
M  V30 5308 O 497.65 -1.65704 -0.735649 0
M  V30 5309 C 497.698 -2.39561 2.69524 0
M  V30 5310 O 496.802 -3.43324 2.28478 0
M  V30 5311 H 496.143 -0.380172 0.544395 0
M  V30 5312 H 498.673 -0.603872 1.95485 0
M  V30 5313 H 498.683 -2.8537 2.91595 0
M  V30 5314 H 497.358 -1.97423 3.66056 0
M  V30 5315 H 495.935 -3.03455 2.16725 0
M  V30 5316 N 498.12 -1.38341 -0.754957 0
M  V30 5317 C 499.531 -1.30803 -1.3322 0
M  V30 5318 C 499.882 0.0368 -1.96165 0
M  V30 5319 O 499.007 0.938844 -1.94974 0
M  V30 5320 C 499.602 -2.3688 -2.42225 0
M  V30 5321 C 498.161 -2.32925 -2.95674 0
M  V30 5322 C 497.308 -2.19819 -1.69042 0
M  V30 5323 H 500.259 -1.48719 -0.553937 0
M  V30 5324 H 500.28 -2.02517 -3.22129 0
M  V30 5325 H 499.792 -3.34747 -1.96383 0
M  V30 5326 H 497.893 -1.38635 -3.45848 0
M  V30 5327 H 498.006 -3.27008 -3.50146 0
M  V30 5328 H 496.37 -1.66648 -1.92615 0
M  V30 5329 H 497.153 -3.19625 -1.25279 0
M  V30 5330 N 499.598 0.982988 -1.23187 0
M  V30 5331 C 500.846 1.72052 -1.06031 0
M  V30 5332 C 501.167 1.90769 0.404019 0
M  V30 5333 O 500.437 1.47446 1.28982 0
M  V30 5334 H 499.017 0.637499 -0.389363 0
M  V30 5335 H 501.679 1.18338 -1.54862 0
M  V30 5336 H 500.775 2.7111 -1.54615 0
M  V30 5337 N 501.076 1.04316 1.18135 0
M  V30 5338 C 502.301 0.768047 1.92655 0
M  V30 5339 C 502.726 -0.66904 1.758 0
M  V30 5340 O 502.084 -1.46372 1.06981 0
M  V30 5341 C 502.132 1.14239 3.42026 0
M  V30 5342 O 501.236 0.269333 4.1152 0
M  V30 5343 H 500.577 0.282436 0.600937 0
M  V30 5344 H 503.107 1.39367 1.49793 0
M  V30 5345 H 503.117 1.10538 3.92741 0
M  V30 5346 H 501.792 2.18928 3.53615 0
M  V30 5347 H 500.369 0.366175 3.71098 0
M  V30 5348 N 502.554 -1.34406 0.822964 0
M  V30 5349 C 503.484 -2.32052 0.259608 0
M  V30 5350 C 504.465 -1.58243 -0.623961 0
M  V30 5351 O 505.65 -1.86224 -0.55083 0
M  V30 5352 C 502.78 -3.42434 -0.579314 0
M  V30 5353 C 501.734 -4.27499 0.20712 0
M  V30 5354 C 501.06 -5.29349 -0.754547 0
M  V30 5355 C 502.36 -5.02758 1.41533 0
M  V30 5356 H 504.054 -2.79418 1.07545 0
M  V30 5357 H 501.6 -1.34338 0.518593 0
M  V30 5358 H 503.553 -4.0976 -0.983612 0
M  V30 5359 H 502.277 -2.93717 -1.4282 0
M  V30 5360 H 500.936 -3.61776 0.592787 0
M  V30 5361 H 500.584 -4.76895 -1.59939 0
M  V30 5362 H 500.284 -5.8714 -0.232561 0
M  V30 5363 H 501.808 -5.99544 -1.1567 0
M  V30 5364 H 503.222 -5.62938 1.08504 0
M  V30 5365 H 501.619 -5.70123 1.87296 0
M  V30 5366 H 502.689 -4.32451 2.1935 0
M  V30 5367 N 504.032 -0.577932 -1.46621 0
M  V30 5368 C 505.448 -0.239242 -1.57797 0
M  V30 5369 C 505.648 1.25843 -1.57371 0
M  V30 5370 O 504.704 2.03988 -1.48813 0
M  V30 5371 C 506.017 -0.884227 -2.87405 0
M  V30 5372 C 507.565 -0.857373 -3.01028 0
M  V30 5373 C 508.04 -1.48181 -4.33366 0
M  V30 5374 N 509.531 -1.44593 -4.40053 0
M  V30 5375 C 510.266 -1.89852 -5.41058 0
M  V30 5376 N 509.762 -2.43062 -6.48762 0
M  V30 5377 N 511.555 -1.80797 -5.3223 0
M  V30 5378 H 503.706 -1.55073 -1.45142 0
M  V30 5379 H 505.969 -0.647903 -0.692044 0
M  V30 5380 H 505.675 -1.93759 -2.93514 0
M  V30 5381 H 505.549 -0.389585 -3.75183 0
M  V30 5382 H 507.936 0.187357 -2.94505 0
M  V30 5383 H 508.017 -1.38999 -2.14739 0
M  V30 5384 H 507.661 -2.52572 -4.40647 0
M  V30 5385 H 507.591 -0.924464 -5.18422 0
M  V30 5386 H 510.082 -1.05694 -3.62819 0
M  V30 5387 H 510.395 -2.75466 -7.22038 0
M  V30 5388 H 508.74 -2.47085 -6.49595 0
M  V30 5389 H 511.931 -1.38989 -4.46989 0
M  V30 5390 H 512.104 -2.16385 -6.10804 0
M  V30 5391 N 505.51 1.54411 -0.315457 0
M  V30 5392 C 506.457 2.24048 0.554166 0
M  V30 5393 C 507.427 1.2283 1.11812 0
M  V30 5394 O 508.612 1.51491 1.15997 0
M  V30 5395 C 505.752 2.99574 1.71316 0
M  V30 5396 C 504.865 4.15594 1.17922 0
M  V30 5397 C 504 4.78669 2.30324 0
M  V30 5398 C 503.039 5.86807 1.74137 0
M  V30 5399 N 502.176 6.43777 2.8017 0
M  V30 5400 H 507.016 2.97964 -0.0462602 0
M  V30 5401 H 504.553 1.47059 -0.0346009 0
M  V30 5402 H 506.511 3.41604 2.39505 0
M  V30 5403 H 505.141 2.28008 2.285 0
M  V30 5404 H 504.193 3.78404 0.389136 0
M  V30 5405 H 505.505 4.93459 0.728012 0
M  V30 5406 H 504.659 5.23626 3.06433 0
M  V30 5407 H 503.398 4.00168 2.78778 0
M  V30 5408 H 502.403 5.41261 0.965236 0
M  V30 5409 H 503.628 6.67201 1.2657 0
M  V30 5410 H 501.574 5.68153 3.2793 0
M  V30 5411 H 501.491 7.17031 2.39588 0
M  V30 5412 H 502.759 6.9339 3.56132 0
M  V30 5413 N 506.988 0.0434614 1.5754 0
M  V30 5414 C 507.92 -0.962586 2.08007 0
M  V30 5415 C 508.933 -1.27972 1.00634 0
M  V30 5416 O 510.122 -1.24186 1.28219 0
M  V30 5417 C 507.222 -2.28621 2.50171 0
M  V30 5418 C 506.395 -2.15214 3.80791 0
M  V30 5419 C 505.454 -3.30633 4.09351 0
M  V30 5420 O 504.48 -3.0688 4.79388 0
M  V30 5421 N 505.682 -4.54873 3.60654 0
M  V30 5422 H 508.447 -0.531891 2.94942 0
M  V30 5423 H 506.008 -0.142965 1.61268 0
M  V30 5424 H 508 -3.04689 2.66359 0
M  V30 5425 H 506.57 -2.63283 1.68525 0
M  V30 5426 H 505.79 -1.23785 3.74261 0
M  V30 5427 H 507.078 -2.03475 4.66343 0
M  V30 5428 H 506.476 -4.77063 3.04019 0
M  V30 5429 H 505.033 -5.2806 3.82094 0
M  V30 5430 N 508.466 -1.55915 -0.229846 0
M  V30 5431 C 509.882 -1.48721 -0.579166 0
M  V30 5432 C 510.082 -0.736976 -1.87539 0
M  V30 5433 O 509.138 -0.273258 -2.51017 0
M  V30 5434 C 510.451 -2.9323 -0.666082 0
M  V30 5435 C 511.999 -3.03701 -0.757267 0
M  V30 5436 C 512.474 -4.49552 -0.8756 0
M  V30 5437 N 513.965 -4.53561 -0.940035 0
M  V30 5438 C 514.7 -5.63683 -1.05116 0
M  V30 5439 N 514.196 -6.83576 -1.12675 0
M  V30 5440 N 515.989 -5.51516 -1.08565 0
M  V30 5441 H 508.14 -2.03123 0.620857 0
M  V30 5442 H 510.403 -0.922898 0.21671 0
M  V30 5443 H 510.109 -3.51032 0.21664 0
M  V30 5444 H 509.983 -3.44668 -1.53243 0
M  V30 5445 H 512.37 -2.45969 -1.63043 0
M  V30 5446 H 512.451 -2.55446 0.134583 0
M  V30 5447 H 512.095 -5.079 -0.00692351 0
M  V30 5448 H 512.025 -4.95506 -1.78274 0
M  V30 5449 H 514.516 -3.67215 -0.892269 0
M  V30 5450 H 514.829 -7.63251 -1.21109 0
M  V30 5451 H 513.174 -6.86303 -1.09603 0
M  V30 5452 H 516.365 -4.5678 -1.02319 0
M  V30 5453 H 516.538 -6.37372 -1.1688 0
M  V30 5454 N 509.944 0.496216 -1.49584 0
M  V30 5455 C 511.169 1.27865 -1.63295 0
M  V30 5456 C 511.594 1.85592 -0.306156 0
M  V30 5457 O 510.952 1.66092 0.726851 0
M  V30 5458 C 511 2.38128 -2.7079 0
M  V30 5459 O 510.104 3.42108 -2.30296 0
M  V30 5460 H 509.445 0.377279 -0.546403 0
M  V30 5461 H 511.975 0.593497 -1.95803 0
M  V30 5462 H 511.985 2.8382 -2.93104 0
M  V30 5463 H 510.66 1.95479 -3.67098 0
M  V30 5464 H 509.237 3.02301 -2.18331 0
M  V30 5465 N 511.423 1.38739 0.74761 0
M  V30 5466 C 512.648 1.38702 1.54197 0
M  V30 5467 C 513.073 -0.019664 1.8809 0
M  V30 5468 O 512.431 -1.00333 1.51006 0
M  V30 5469 C 512.479 2.25492 2.814 0
M  V30 5470 O 511.583 1.67613 3.76802 0
M  V30 5471 H 510.924 0.472863 0.466151 0
M  V30 5472 H 513.454 1.82577 0.923413 0
M  V30 5473 H 513.464 2.39561 3.30264 0
M  V30 5474 H 512.139 3.27727 2.56062 0
M  V30 5475 H 510.716 1.62718 3.35526 0
M  V30 5476 N 512.901 -0.976442 1.23707 0
M  V30 5477 C 513.833 -2.07212 0.979574 0
M  V30 5478 C 514.846 -1.6273 -0.0478528 0
M  V30 5479 O 516.035 -1.77506 0.18815 0
M  V30 5480 C 513.135 -3.35835 0.45479 0
M  V30 5481 C 512.308 -4.09268 1.54331 0
M  V30 5482 C 511.367 -5.16166 1.02271 0
M  V30 5483 O 510.393 -5.42827 1.71254 0
M  V30 5484 N 511.595 -5.80313 -0.147419 0
M  V30 5485 H 514.36 -2.29878 1.92292 0
M  V30 5486 H 511.921 -1.14343 1.14618 0
M  V30 5487 H 513.913 -4.04597 0.0914631 0
M  V30 5488 H 512.483 -3.10106 -0.394068 0
M  V30 5489 H 511.703 -3.34906 2.07923 0
M  V30 5490 H 512.991 -4.55095 2.27522 0
M  V30 5491 H 512.389 -5.61043 -0.724353 0
M  V30 5492 H 510.946 -6.50231 -0.451972 0
M  V30 5493 N 514.379 -1.04941 -1.1758 0
M  V30 5494 C 515.329 -0.618378 -2.19454 0
M  V30 5495 C 516.313 0.343813 -1.57184 0
M  V30 5496 O 517.505 0.16145 -1.76262 0
M  V30 5497 C 514.634 0.00803847 -3.43299 0
M  V30 5498 C 513.72 -0.977827 -4.12673 0
M  V30 5499 N 514.111 -2.14826 -4.57912 0
M  V30 5500 C 512.409 -0.805748 -4.38661 0
M  V30 5501 C 513.11 -2.77174 -5.11419 0
M  V30 5502 N 512.086 -2.04989 -5.03468 0
M  V30 5503 H 515.888 -1.51018 -2.52132 0
M  V30 5504 H 513.402 -0.919201 -1.33882 0
M  V30 5505 H 515.399 0.334584 -4.15555 0
M  V30 5506 H 514.059 0.895272 -3.12114 0
M  V30 5507 H 515.07 -2.52673 -4.52081 0
M  V30 5508 H 511.747 0.0306506 -4.17489 0
M  V30 5509 H 513.137 -3.76416 -5.56562 0
M  V30 5510 N 515.857 1.33968 -0.830081 0
M  V30 5511 C 517.105 1.97672 -0.420734 0
M  V30 5512 C 517.426 1.66111 1.02138 0
M  V30 5513 O 516.696 0.955503 1.71017 0
M  V30 5514 H 515.276 0.73125 -0.152587 0
M  V30 5515 H 517.938 1.63483 -1.0611 0
M  V30 5516 H 517.034 3.07294 -0.545588 0
M  V30 5517 N 517.335 0.585699 1.46312 0
M  V30 5518 C 518.583 0.072278 2.01971 0
M  V30 5519 C 518.904 -1.29345 1.45928 0
M  V30 5520 O 518.174 -1.84973 0.645109 0
M  V30 5521 H 516.754 0.023729 0.746623 0
M  V30 5522 H 519.416 0.762155 1.7938 0
M  V30 5523 H 518.512 0.00552767 3.121 0
M  V30 5524 N 518.813 -1.54241 0.323641 0
M  V30 5525 C 520.038 -2.05452 -0.283605 0
M  V30 5526 C 520.463 -1.19823 -1.44997 0
M  V30 5527 O 519.821 -0.207358 -1.8011 0
M  V30 5528 C 519.869 -3.53823 -0.695795 0
M  V30 5529 O 518.973 -3.71134 -1.79815 0
M  V30 5530 H 518.314 -0.662024 -0.0511917 0
M  V30 5531 H 520.844 -1.99079 0.472073 0
M  V30 5532 H 520.854 -3.96094 -0.978434 0
M  V30 5533 H 519.529 -4.15602 0.157287 0
M  V30 5534 H 518.106 -3.40768 -1.51431 0
M  V30 5535 N 520.291 -0.0518155 -1.57515 0
M  V30 5536 C 521.516 0.634896 -1.97443 0
M  V30 5537 C 521.941 1.63546 -0.929207 0
M  V30 5538 O 521.299 1.80981 0.107484 0
M  V30 5539 C 521.347 1.29765 -3.36442 0
M  V30 5540 O 520.451 2.41333 -3.34413 0
M  V30 5541 H 519.792 0.164994 -0.643174 0
M  V30 5542 H 522.322 -0.120407 -2.04245 0
M  V30 5543 H 522.332 1.64918 -3.73184 0
M  V30 5544 H 521.007 0.564361 -4.12053 0
M  V30 5545 H 519.584 2.08122 -3.09418 0
M  V30 5546 N 521.769 1.56035 0.221574 0
M  V30 5547 C 522.997 1.8313 0.962864 0
M  V30 5548 C 523.412 0.630934 1.77946 0
M  V30 5549 O 522.769 -0.400519 1.78051 0
M  V30 5550 C 522.82 3.08742 1.88045 0
M  V30 5551 O 522.541 4.24147 1.09686 0
M  V30 5552 C 524.042 3.48824 2.73563 0
M  V30 5553 H 521.262 0.608775 0.282194 0
M  V30 5554 H 523.806 2.03124 0.23681 0
M  V30 5555 H 521.961 2.90723 2.56045 0
M  V30 5556 H 522.375 4.95505 1.71974 0
M  V30 5557 H 523.849 4.39752 3.3365 0
M  V30 5558 H 524.326 2.70575 3.45956 0
M  V30 5559 H 524.932 3.69282 2.10976 0
M  V30 5560 N 523.247 -0.488276 1.49845 0
M  V30 5561 C 524.472 -1.26997 1.63971 0
M  V30 5562 C 524.897 -1.85427 0.315994 0
M  V30 5563 O 524.255 -1.66475 -0.718032 0
M  V30 5564 C 524.303 -2.36689 2.72049 0
M  V30 5565 O 523.407 -3.40882 2.32107 0
M  V30 5566 H 522.748 -0.374376 0.548396 0
M  V30 5567 H 525.278 -0.583104 1.96115 0
M  V30 5568 H 525.288 -2.82262 2.94605 0
M  V30 5569 H 523.963 -1.93529 3.68129 0
M  V30 5570 H 522.54 -3.01139 2.19931 0
M  V30 5571 N 524.725 -1.39134 -0.740242 0
M  V30 5572 C 525.655 -1.40165 -1.86751 0
M  V30 5573 C 526.636 -0.265708 -1.68012 0
M  V30 5574 O 527.821 -0.47076 -1.88408 0
M  V30 5575 C 524.951 -1.2392 -3.2444 0
M  V30 5576 C 523.905 -2.34858 -3.57807 0
M  V30 5577 C 523.231 -2.03707 -4.94376 0
M  V30 5578 C 524.531 -3.77159 -3.61315 0
M  V30 5579 H 526.225 -2.345 -1.86145 0
M  V30 5580 H 523.771 -1.12875 -0.89416 0
M  V30 5581 H 525.724 -1.23263 -4.02969 0
M  V30 5582 H 524.448 -0.26051 -3.25559 0
M  V30 5583 H 523.107 -2.34723 -2.81604 0
M  V30 5584 H 522.755 -1.04289 -4.9207 0
M  V30 5585 H 522.455 -2.78016 -5.17669 0
M  V30 5586 H 523.979 -2.04691 -5.75268 0
M  V30 5587 H 525.393 -3.79252 -4.29931 0
M  V30 5588 H 523.79 -4.50784 -3.96124 0
M  V30 5589 H 524.86 -4.08513 -2.61238 0
M  V30 5590 N 526.204 0.969867 -1.24223 0
M  V30 5591 C 527.167 2.04564 -1.03373 0
M  V30 5592 C 528.167 1.60798 0.00819206 0
M  V30 5593 O 529.357 1.72641 -0.232567 0
M  V30 5594 C 526.489 3.36163 -0.566343 0
M  V30 5595 H 527.682 2.24494 -1.98853 0
M  V30 5596 H 525.235 1.1448 -1.06415 0
M  V30 5597 H 525.97 3.21925 0.391751 0
M  V30 5598 H 525.755 3.69273 -1.31834 0
M  V30 5599 H 527.245 4.1526 -0.441435 0
M  V30 5600 N 527.682 1.05563 1.17022 0
M  V30 5601 C 528.907 0.788437 1.91829 0
M  V30 5602 C 529.332 -0.650356 1.76499 0
M  V30 5603 O 528.69 -1.45229 1.08527 0
M  V30 5604 C 528.738 1.1786 3.40795 0
M  V30 5605 O 527.842 0.312965 4.11211 0
M  V30 5606 H 527.183 0.288794 0.597908 0
M  V30 5607 H 529.713 1.40948 1.48307 0
M  V30 5608 H 529.723 1.14697 3.91546 0
M  V30 5609 H 528.398 2.22666 3.51273 0
M  V30 5610 H 526.975 0.405515 3.70689 0
M  V30 5611 N 529.16 -1.33526 0.837174 0
M  V30 5612 C 530.388 -2.02047 0.445494 0
M  V30 5613 C 530.803 -1.62995 -0.952788 0
M  V30 5614 O 530.16 -0.842447 -1.61892 0
M  V30 5615 C 530.211 -3.57221 0.554577 0
M  V30 5616 O 529.932 -3.94863 1.89776 0
M  V30 5617 C 531.433 -4.43012 0.159634 0
M  V30 5618 H 528.653 -0.647221 0.177048 0
M  V30 5619 H 531.197 -1.70492 1.12928 0
M  V30 5620 H 529.352 -3.87315 -0.0812781 0
M  V30 5621 H 529.766 -4.89569 1.88208 0
M  V30 5622 H 531.24 -5.51253 0.28701 0
M  V30 5623 H 531.717 -4.29916 -0.898289 0
M  V30 5624 H 532.323 -4.18274 0.769855 0
M  V30 5625 N 530.638 -0.59345 -1.46 0
M  V30 5626 C 531.585 0.133618 -2.30413 0
M  V30 5627 C 532.555 0.873736 -1.41262 0
M  V30 5628 O 533.74 0.862279 -1.70204 0
M  V30 5629 C 530.88 1.13434 -3.25924 0
M  V30 5630 C 529.993 0.39656 -4.30176 0
M  V30 5631 C 529.128 1.38575 -5.12806 0
M  V30 5632 C 528.167 0.634984 -6.08797 0
M  V30 5633 N 527.304 1.57276 -6.84258 0
M  V30 5634 H 532.144 -0.592252 -2.92055 0
M  V30 5635 H 529.681 -0.303874 -1.43927 0
M  V30 5636 H 531.639 1.72752 -3.79753 0
M  V30 5637 H 530.269 1.82779 -2.66067 0
M  V30 5638 H 529.321 -0.311861 -3.79119 0
M  V30 5639 H 530.633 -0.189869 -4.98438 0
M  V30 5640 H 529.787 2.05141 -5.70966 0
M  V30 5641 H 528.526 2.00611 -4.44529 0
M  V30 5642 H 527.531 -0.0443925 -5.49782 0
M  V30 5643 H 528.756 0.0198678 -6.79097 0
M  V30 5644 H 526.702 2.18103 -6.18682 0
M  V30 5645 H 526.619 1.03941 -7.48821 0
M  V30 5646 H 527.887 2.22844 -7.46968 0
M  V30 5647 N 532.116 1.54067 -0.331816 0
M  V30 5648 C 533.362 2.01012 0.268667 0
M  V30 5649 C 533.695 1.2195 1.51136 0
M  V30 5650 O 532.97 0.303972 1.9211 0
M  V30 5651 C 533.253 3.55158 0.59456 0
M  V30 5652 C 533.106 4.4494 -0.659409 0
M  V30 5653 C 534.425 4.16939 1.4089 0
M  V30 5654 H 531.544 0.730698 0.0961756 0
M  V30 5655 H 534.186 1.84593 -0.450031 0
M  V30 5656 H 532.336 3.6928 1.20685 0
M  V30 5657 H 534.008 4.42675 -1.29756 0
M  V30 5658 H 532.251 4.1428 -1.28665 0
M  V30 5659 H 532.922 5.50643 -0.386804 0
M  V30 5660 H 535.398 4.06443 0.891272 0
M  V30 5661 H 534.274 5.24889 1.60569 0
M  V30 5662 H 534.535 3.70798 2.40752 0
M  V30 5663 N 533.594 0.0601682 1.57485 0
M  V30 5664 C 534.834 -0.615384 1.94916 0
M  V30 5665 C 535.198 -1.67475 0.938948 0
M  V30 5666 O 536.399 -2.40502 1.20051 0
M  V30 5667 C 534.67 -1.18788 3.37082 0
M  V30 5668 S 536.229 -1.88018 3.96478 0
M  V30 5669 H 533.047 -0.201821 0.681754 0
M  V30 5670 H 535.649 0.131252 1.95059 0
M  V30 5671 H 534.353 -0.404869 4.08398 0
M  V30 5672 H 533.884 -1.97114 3.40455 0
M  V30 5673 H 535.899 -3.16161 3.82435 0
M  V30 5674 N 535.072 -1.5615 -0.213296 0
M  V30 5675 C 536.297 -1.83986 -0.957282 0
M  V30 5676 C 536.722 -0.641526 -1.76822 0
M  V30 5677 O 536.08 0.409722 -1.7661 0
M  V30 5678 C 536.128 -3.09889 -1.84393 0
M  V30 5679 O 535.232 -2.89163 -2.94038 0
M  V30 5680 H 534.573 -0.606357 -0.270605 0
M  V30 5681 H 537.103 -2.03369 -0.224111 0
M  V30 5682 H 537.113 -3.40209 -2.25215 0
M  V30 5683 H 535.788 -3.96735 -1.24795 0
M  V30 5684 H 534.365 -2.70097 -2.57103 0
M  V30 5685 N 536.55 0.480323 -1.50102 0
M  V30 5686 C 537.775 1.26126 -1.64642 0
M  V30 5687 C 538.2 1.85257 -0.325823 0
M  V30 5688 O 537.558 1.66854 0.709194 0
M  V30 5689 C 537.606 2.35243 -2.73301 0
M  V30 5690 O 536.71 3.39646 -2.33911 0
M  V30 5691 H 536.051 0.371463 -0.550374 0
M  V30 5692 H 538.581 0.572696 -1.96421 0
M  V30 5693 H 538.591 2.80695 -2.96098 0
M  V30 5694 H 537.266 1.91574 -3.6915 0
M  V30 5695 H 535.843 2.99969 -2.21525 0
M  V30 5696 N 538.028 1.39524 0.732853 0
M  V30 5697 C 538.961 1.32806 1.85574 0
M  V30 5698 C 539.939 0.201354 1.61348 0
M  V30 5699 O 541.123 0.38216 1.84585 0
M  V30 5700 C 538.25 1.06271 3.21596 0
M  V30 5701 C 537.296 2.21161 3.64678 0
M  V30 5702 S 538.129 3.83454 3.73796 0
M  V30 5703 C 539.285 3.59149 5.12604 0
M  V30 5704 H 539.518 2.27838 1.9099 0
M  V30 5705 H 537.051 1.25605 0.897927 0
M  V30 5706 H 539.009 0.916461 4.00139 0
M  V30 5707 H 537.67 0.129223 3.13834 0
M  V30 5708 H 536.863 1.98193 4.63396 0
M  V30 5709 H 536.465 2.32 2.93346 0
M  V30 5710 H 538.757 3.16547 5.99003 0
M  V30 5711 H 539.7 4.57335 5.40602 0
M  V30 5712 H 540.108 2.93203 4.82382 0
M  V30 5713 N 539.506 -0.963266 1.24736 0
M  V30 5714 C 540.783 -1.68248 0.9976 0
M  V30 5715 C 541.163 -2.05599 -0.478776 0
M  V30 5716 O 540.511 -1.7626 -1.45412 0
M  V30 5717 C 540.721 -2.91118 1.92487 0
M  V30 5718 C 542.069 -3.63261 2.19833 0
M  V30 5719 O 543.093 -3.01184 1.90176 0
M  V30 5720 O 541.952 -4.75019 2.7022 0
M  V30 5721 H 539.046 -0.735744 0.377637 0
M  V30 5722 H 541.592 -1.01696 1.35853 0
M  V30 5723 H 540.364 -2.60242 2.92215 0
M  V30 5724 H 539.987 -3.65402 1.56738 0
M  V30 5725 N 540.985 -1.06182 -1.16461 0
M  V30 5726 C 541.895 -0.682671 -2.24448 0
M  V30 5727 C 542.911 0.30078 -1.71381 0
M  V30 5728 O 544.087 0.150376 -2.00838 0
M  V30 5729 C 541.152 -0.0737202 -3.46622 0
M  V30 5730 C 540.213 -1.10889 -4.14731 0
M  V30 5731 C 539.446 -0.528908 -5.31073 0
M  V30 5732 O 539.669 0.65868 -5.66584 0
M  V30 5733 O 538.603 -1.26805 -5.88391 0
M  V30 5734 H 542.429 -1.58291 -2.59187 0
M  V30 5735 H 540.014 -0.834013 -1.23954 0
M  V30 5736 H 541.896 0.264192 -4.20571 0
M  V30 5737 H 540.571 0.800015 -3.13658 0
M  V30 5738 H 539.478 -1.49896 -3.42756 0
M  V30 5739 H 540.811 -1.95412 -4.51747 0
M  V30 5740 N 542.463 1.3308 -0.844243 0
M  V30 5741 C 543.411 2.31028 -0.269954 0
M  V30 5742 C 544.405 1.58381 0.600997 0
M  V30 5743 O 545.611 1.73203 0.48996 0
M  V30 5744 H 541.986 0.748866 -0.0685782 0
M  V30 5745 H 543.957 2.76967 -1.11049 0
M  V30 5746 C 542.706 3.43549 0.535676 0
M  V30 5747 H 542.029 3.99604 -0.125202 0
M  V30 5748 H 543.469 4.14267 0.903262 0
M  V30 5749 C 541.928 2.8988 1.71672 0
M  V30 5750 O 542.458 2.86511 2.81557 0
M  V30 5751 N 540.664 2.46416 1.54037 0
M  V30 5752 H 540.211 2.49356 0.64649 0
M  V30 5753 H 540.169 2.1086 2.33207 0
M  V30 5754 N 543.941 0.601185 1.45683 0
M  V30 5755 C 545.218 0.0261659 1.95582 0
M  V30 5756 C 545.598 -1.4399 1.5437 0
M  V30 5757 O 544.946 -2.13919 0.80318 0
M  V30 5758 C 545.156 0.217557 3.48321 0
M  V30 5759 C 546.504 0.0950076 4.24494 0
M  V30 5760 O 547.528 0.147345 3.55895 0
M  V30 5761 O 546.387 -0.025261 5.46494 0
M  V30 5762 H 543.481 -0.0393688 0.826062 0
M  V30 5763 H 546.027 0.670798 1.55879 0
M  V30 5764 H 544.799 1.23601 3.71266 0
M  V30 5765 H 544.422 -0.46264 3.94899 0
M  V30 5766 N 545.419 -1.53889 0.339982 0
M  V30 5767 C 546.667 -2.00458 -0.257112 0
M  V30 5768 C 546.988 -1.22953 -1.51353 0
M  V30 5769 O 546.258 -0.335734 -1.93002 0
M  V30 5770 H 544.838 -0.740544 -0.0979965 0
M  V30 5771 H 547.5 -1.89386 0.460317 0
M  V30 5772 H 546.596 -3.08035 -0.502057 0
M  V30 5773 N 546.897 -0.0685191 -1.57451 0
M  V30 5774 C 548.308 0.464634 -1.80826 0
M  V30 5775 C 548.659 1.69847 -0.982169 0
M  V30 5776 O 547.784 2.15439 -0.203734 0
M  V30 5777 C 548.379 0.849721 -3.27971 0
M  V30 5778 C 546.938 1.32776 -3.52204 0
M  V30 5779 C 546.085 0.311332 -2.75547 0
M  V30 5780 H 549.036 -0.294248 -1.55948 0
M  V30 5781 H 549.057 1.71138 -3.39841 0
M  V30 5782 H 548.569 -0.0484736 -3.8807 0
M  V30 5783 H 546.67 2.24456 -2.97406 0
M  V30 5784 H 546.783 1.30794 -4.60901 0
M  V30 5785 H 545.147 0.787915 -2.42206 0
M  V30 5786 H 545.93 -0.579078 -3.38381 0
M  V30 5787 N 548.375 1.56261 0.205012 0
M  V30 5788 C 549.623 1.79684 0.925096 0
M  V30 5789 C 549.944 0.63989 1.84202 0
M  V30 5790 O 549.214 -0.342345 1.92885 0
M  V30 5791 H 547.794 0.662774 0.344587 0
M  V30 5792 H 550.456 1.93734 0.212899 0
M  V30 5793 H 549.552 2.72467 1.52211 0
M  V30 5794 N 549.853 -0.472356 1.50355 0
M  V30 5795 C 550.763 -1.59637 1.7191 0
M  V30 5796 C 551.779 -1.63247 0.602195 0
M  V30 5797 O 552.955 -1.81139 0.880369 0
M  V30 5798 C 550.02 -2.9586 1.80742 0
M  V30 5799 C 549.081 -3.02649 3.04471 0
M  V30 5800 C 548.314 -4.32374 3.12872 0
M  V30 5801 O 548.537 -5.22807 2.28099 0
M  V30 5802 O 547.471 -4.44728 4.05587 0
M  V30 5803 H 551.297 -1.44373 2.67189 0
M  V30 5804 H 548.882 -0.651717 1.34436 0
M  V30 5805 H 550.764 -3.7677 1.88739 0
M  V30 5806 H 549.439 -3.11325 0.88647 0
M  V30 5807 H 548.346 -2.20821 3.01975 0
M  V30 5808 H 549.679 -2.92119 3.9614 0
M  V30 5809 N 551.331 -1.39911 -0.725443 0
M  V30 5810 C 552.241 -1.41688 -1.8698 0
M  V30 5811 C 553.257 -0.310579 -1.71206 0
M  V30 5812 O 554.433 -0.55359 -1.93642 0
M  V30 5813 C 551.498 -1.26811 -3.22676 0
M  V30 5814 C 550.559 -2.47497 -3.50776 0
M  V30 5815 C 549.792 -2.3332 -4.79997 0
M  V30 5816 O 550.015 -1.34175 -5.54394 0
M  V30 5817 O 548.949 -3.22498 -5.08211 0
M  V30 5818 H 552.775 -2.38171 -1.88436 0
M  V30 5819 H 550.36 -1.21128 -0.874548 0
M  V30 5820 H 552.242 -1.20684 -4.03749 0
M  V30 5821 H 550.917 -0.334289 -3.21969 0
M  V30 5822 H 549.824 -2.59201 -2.69751 0
M  V30 5823 H 551.157 -3.39606 -3.5627 0
M  V30 5824 N 552.809 0.956637 -1.25245 0
M  V30 5825 C 554.055 1.70352 -1.10036 0
M  V30 5826 C 554.388 1.90869 0.358156 0
M  V30 5827 O 553.663 1.47819 1.26411 0
M  V30 5828 C 553.946 3.08766 -1.85298 0
M  V30 5829 C 553.799 2.95672 -3.38966 0
M  V30 5830 C 555.118 4.08622 -1.63451 0
M  V30 5831 H 552.237 0.618279 -0.401123 0
M  V30 5832 H 554.879 1.11212 -1.54051 0
M  V30 5833 H 553.029 3.59252 -1.47887 0
M  V30 5834 H 554.701 2.52527 -3.86041 0
M  V30 5835 H 552.944 2.31634 -3.6678 0
M  V30 5836 H 553.615 3.93776 -3.86839 0
M  V30 5837 H 556.091 3.67038 -1.96015 0
M  V30 5838 H 554.967 5.03514 -2.18551 0
M  V30 5839 H 555.228 4.3834 -0.575357 0
M  V30 5840 N 554.287 1.06798 1.15896 0
M  V30 5841 C 555.512 0.808739 1.90982 0
M  V30 5842 C 555.937 -0.6316 1.77179 0
M  V30 5843 O 555.295 -1.4407 1.10061 0
M  V30 5844 C 555.343 1.21468 3.39526 0
M  V30 5845 O 554.447 0.356562 4.10856 0
M  V30 5846 H 553.788 0.29512 0.594811 0
M  V30 5847 H 556.318 1.42513 1.46804 0
M  V30 5848 H 556.328 1.18844 3.90308 0
M  V30 5849 H 555.003 2.26379 3.48891 0
M  V30 5850 H 553.58 0.444808 3.70238 0
M  V30 5851 N 555.766 -1.3263 0.851289 0
M  V30 5852 C 556.676 -2.32722 0.296268 0
M  V30 5853 C 557.692 -1.63901 -0.584162 0
M  V30 5854 O 558.868 -1.95465 -0.485334 0
M  V30 5855 C 555.933 -3.42942 -0.509103 0
M  V30 5856 C 554.994 -4.2746 0.397069 0
M  V30 5857 C 554.227 -5.32416 -0.36996 0
M  V30 5858 O 554.45 -5.47491 -1.6003 0
M  V30 5859 O 553.384 -6.01327 0.262493 0
M  V30 5860 H 557.21 -2.82078 1.12543 0
M  V30 5861 H 554.795 -1.36194 0.614135 0
M  V30 5862 H 556.677 -4.1017 -0.96634 0
M  V30 5863 H 555.352 -2.95781 -1.31512 0
M  V30 5864 H 554.259 -3.63053 0.902411 0
M  V30 5865 H 555.592 -4.78136 1.16818 0
M  V30 5866 N 557.244 -0.608902 -1.45362 0
M  V30 5867 C 558.154 0.110969 -2.34337 0
M  V30 5868 C 559.17 0.859007 -1.51318 0
M  V30 5869 O 560.346 0.816296 -1.84116 0
M  V30 5870 C 557.411 1.09494 -3.28956 0
M  V30 5871 C 556.472 0.348718 -4.27881 0
M  V30 5872 C 555.705 1.28582 -5.17979 0
M  V30 5873 O 555.928 2.52369 -5.11533 0
M  V30 5874 O 554.862 0.782172 -5.96796 0
M  V30 5875 H 558.688 -0.620258 -2.97299 0
M  V30 5876 H 556.273 -0.36916 -1.44767 0
M  V30 5877 H 558.155 1.66163 -3.87257 0
M  V30 5878 H 556.83 1.80717 -2.68557 0
M  V30 5879 H 555.737 -0.260465 -3.73192 0
M  V30 5880 H 557.07 -0.323049 -4.91139 0
M  V30 5881 N 558.722 1.53707 -0.348139 0
M  V30 5882 C 559.97 2.00591 0.246478 0
M  V30 5883 C 560.291 1.23753 1.50699 0
M  V30 5884 O 559.561 0.345964 1.92821 0
M  V30 5885 H 558.141 0.741053 0.0940679 0
M  V30 5886 H 560.803 1.89139 -0.470354 0
M  V30 5887 H 559.899 3.08297 0.485714 0
M  V30 5888 N 560.2 0.0768682 1.57412 0
M  V30 5889 C 561.447 -0.591085 1.93681 0
M  V30 5890 C 561.775 -1.69311 0.957286 0
M  V30 5891 O 561.03 -1.95682 -0.0262428 0
M  V30 5892 C 561.329 -1.20268 3.36557 0
M  V30 5893 C 560.995 -0.226286 4.50332 0
M  V30 5894 C 559.657 0.0423142 4.81181 0
M  V30 5895 C 562.009 0.441415 5.19327 0
M  V30 5896 C 559.337 0.985616 5.78362 0
M  V30 5897 C 561.689 1.37307 6.17519 0
M  V30 5898 C 560.353 1.65009 6.46783 0
M  V30 5899 H 559.623 -0.216293 0.70873 0
M  V30 5900 H 562.27 0.148824 1.90921 0
M  V30 5901 H 560.575 -2.01844 3.35807 0
M  V30 5902 H 562.272 -1.72688 3.61911 0
M  V30 5903 H 558.862 -0.445821 4.26275 0
M  V30 5904 H 563.046 0.247023 4.95685 0
M  V30 5905 H 558.302 1.20743 5.99359 0
M  V30 5906 H 562.476 1.89637 6.70083 0
M  V30 5907 H 560.103 2.38263 7.21897 0
M  V30 5908 N 561.678 -1.56367 -0.196722 0
M  V30 5909 C 562.61 -1.90941 -1.26784 0
M  V30 5910 C 563.623 -0.799928 -1.41792 0
M  V30 5911 O 564.812 -1.07833 -1.42247 0
M  V30 5912 C 561.912 -2.12477 -2.6402 0
M  V30 5913 C 561.085 -3.43616 -2.70641 0
M  V30 5914 C 560.144 -3.54284 -3.89062 0
M  V30 5915 O 559.17 -4.2712 -3.76241 0
M  V30 5916 N 560.372 -2.87252 -5.04447 0
M  V30 5917 H 563.137 -2.83417 -0.974417 0
M  V30 5918 H 560.698 -1.57215 -0.386649 0
M  V30 5919 H 562.69 -2.16904 -3.41665 0
M  V30 5920 H 561.26 -1.26508 -2.85857 0
M  V30 5921 H 560.48 -3.51072 -1.79283 0
M  V30 5922 H 561.768 -4.29958 -2.72054 0
M  V30 5923 H 561.166 -2.27901 -5.17762 0
M  V30 5924 H 559.723 -2.97308 -5.80044 0
M  V30 5925 N 563.156 0.464375 -1.50603 0
M  V30 5926 C 564.405 1.21277 -1.61167 0
M  V30 5927 C 564.718 1.92953 -0.320704 0
M  V30 5928 O 565.924 2.69778 -0.30534 0
M  V30 5929 C 564.38 2.20403 -2.84518 0
M  V30 5930 C 563.988 1.54499 -4.20516 0
M  V30 5931 C 565.732 2.95843 -3.0443 0
M  V30 5932 C 563.639 2.51951 -5.35047 0
M  V30 5933 H 562.569 0.456367 -0.600204 0
M  V30 5934 H 565.22 0.48254 -1.77042 0
M  V30 5935 H 563.602 2.96746 -2.62217 0
M  V30 5936 H 564.776 0.83899 -4.53098 0
M  V30 5937 H 563.091 0.913152 -4.06264 0
M  V30 5938 H 565.688 3.6879 -3.87167 0
M  V30 5939 H 566.031 3.55622 -2.16423 0
M  V30 5940 H 566.564 2.26611 -3.26944 0
M  V30 5941 H 563.303 1.96901 -6.25228 0
M  V30 5942 H 562.823 3.20683 -5.06875 0
M  V30 5943 H 564.502 3.13643 -5.65895 0
M  V30 5944 N 564.634 1.40294 0.718013 0
M  V30 5945 C 566.045 1.34289 1.29705 0
M  V30 5946 C 566.396 0.0152228 1.96194 0
M  V30 5947 O 565.521 -0.88682 1.97394 0
M  V30 5948 C 566.116 2.43219 2.3586 0
M  V30 5949 C 564.675 2.40682 2.89394 0
M  V30 5950 C 563.822 2.24223 1.63154 0
M  V30 5951 H 566.773 1.50135 0.514312 0
M  V30 5952 H 566.794 2.10986 3.16647 0
M  V30 5953 H 566.306 3.39836 1.87439 0
M  V30 5954 H 564.407 1.47756 3.42051 0
M  V30 5955 H 564.52 3.36177 3.41353 0
M  V30 5956 H 562.884 1.71696 1.88129 0
M  V30 5957 H 563.667 3.22834 1.16761 0
M  V30 5958 N 566.112 -0.949982 1.2575 0
M  V30 5959 C 567.075 -2.02894 1.06615 0
M  V30 5960 C 568.075 -1.60791 0.0173905 0
M  V30 5961 O 569.265 -1.72249 0.260003 0
M  V30 5962 C 566.397 -3.35219 0.619751 0
M  V30 5963 H 567.59 -2.21302 2.02399 0
M  V30 5964 H 565.143 -1.12772 1.08223 0
M  V30 5965 H 565.878 -3.22508 -0.340486 0
M  V30 5966 H 565.663 -3.67129 1.37692 0
M  V30 5967 H 567.153 -4.14505 0.507443 0
M  V30 5968 N 567.59 -1.07411 -1.15328 0
M  V30 5969 C 568.818 -0.818782 -1.90009 0
M  V30 5970 C 569.233 0.628072 -1.78047 0
M  V30 5971 O 568.59 1.43085 -1.13282 0
M  V30 5972 C 568.641 -1.21874 -3.40337 0
M  V30 5973 O 568.362 -2.60883 -3.51954 0
M  V30 5974 C 569.863 -0.992796 -4.3204 0
M  V30 5975 H 567.083 -0.296007 -0.60218 0
M  V30 5976 H 569.627 -1.43073 -1.46117 0
M  V30 5977 H 567.782 -0.651103 -3.81889 0
M  V30 5978 H 568.196 -2.77216 -4.45255 0
M  V30 5979 H 569.67 -1.32215 -5.35932 0
M  V30 5980 H 570.147 0.0708331 -4.39143 0
M  V30 5981 H 570.753 -1.54537 -3.9623 0
M  V30 5982 N 569.068 1.32177 -0.85831 0
M  V30 5983 C 570.317 1.96392 -0.459689 0
M  V30 5984 C 570.63 1.68659 0.990632 0
M  V30 5985 O 571.836 2.26641 1.49485 0
M  V30 5986 C 570.292 3.51542 -0.7711 0
M  V30 5987 C 569.9 3.8813 -2.2374 0
M  V30 5988 C 571.644 4.2221 -0.44038 0
M  V30 5989 C 569.551 5.36341 -2.49183 0
M  V30 5990 H 568.481 0.735007 -0.168169 0
M  V30 5991 H 571.132 1.50518 -1.0496 0
M  V30 5992 H 569.514 3.95846 -0.11058 0
M  V30 5993 H 570.688 3.54824 -2.94001 0
M  V30 5994 H 569.003 3.30497 -2.533 0
M  V30 5995 H 571.6 5.31234 -0.607855 0
M  V30 5996 H 571.943 4.11683 0.618291 0
M  V30 5997 H 572.476 3.83502 -1.05695 0
M  V30 5998 H 569.215 5.51892 -3.53689 0
M  V30 5999 H 568.735 5.7104 -1.83504 0
M  V30 6000 H 570.414 6.03466 -2.33318 0
M  V30 6001 N 570.547 0.616602 1.45037 0
M  V30 6002 C 571.775 0.121968 2.0654 0
M  V30 6003 C 572.19 -1.19743 1.45969 0
M  V30 6004 O 571.547 -1.73133 0.577168 0
M  V30 6005 C 571.598 -0.0145171 3.61497 0
M  V30 6006 O 571.319 1.25269 4.19809 0
M  V30 6007 C 572.82 -0.539555 4.40004 0
M  V30 6008 H 570.04 0.0729837 0.667019 0
M  V30 6009 H 572.584 0.846891 1.8614 0
M  V30 6010 H 570.739 -0.689809 3.81209 0
M  V30 6011 H 571.153 1.08816 5.13088 0
M  V30 6012 H 572.627 -0.584112 5.48901 0
M  V30 6013 H 573.104 -1.56368 4.10421 0
M  V30 6014 H 573.71 0.101995 4.25178 0
M  V30 6015 N 572.025 -1.5352 0.356285 0
M  V30 6016 C 572.935 -2.29151 -0.502712 0
M  V30 6017 C 573.951 -1.34753 -1.1008 0
M  V30 6018 O 575.127 -1.67803 -1.11374 0
M  V30 6019 C 572.192 -3.05911 -1.63154 0
M  V30 6020 C 571.253 -4.15958 -1.06194 0
M  V30 6021 C 570.486 -4.8905 -2.13696 0
M  V30 6022 O 570.709 -4.61919 -3.34645 0
M  V30 6023 O 569.643 -5.75202 -1.77275 0
M  V30 6024 H 573.469 -3.03492 0.112466 0
M  V30 6025 H 571.054 -1.4891 0.120942 0
M  V30 6026 H 572.936 -3.53874 -2.28804 0
M  V30 6027 H 571.611 -2.34415 -2.23229 0
M  V30 6028 H 570.518 -3.7227 -0.369603 0
M  V30 6029 H 571.851 -4.89593 -0.505872 0
M  V30 6030 N 573.503 -0.0852151 -1.57369 0
M  V30 6031 C 574.919 0.271436 -1.57275 0
M  V30 6032 C 575.119 1.69109 -1.09565 0
M  V30 6033 O 574.175 2.40549 -0.767611 0
M  V30 6034 C 575.488 0.0688638 -3.00621 0
M  V30 6035 C 577.036 0.137373 -3.12698 0
M  V30 6036 C 577.511 -0.0370832 -4.57985 0
M  V30 6037 N 579.002 0.0180794 -4.63196 0
M  V30 6038 C 579.737 -0.0922953 -5.73326 0
M  V30 6039 N 579.233 -0.256948 -6.92323 0
M  V30 6040 N 581.026 -0.0342702 -5.6209 0
M  V30 6041 H 573.177 -1.01288 -1.86693 0
M  V30 6042 H 575.44 -0.396138 -0.861266 0
M  V30 6043 H 575.146 -0.911277 -3.39689 0
M  V30 6044 H 575.02 0.815442 -3.6828 0
M  V30 6045 H 577.407 1.10801 -2.73509 0
M  V30 6046 H 577.488 -0.640532 -2.47651 0
M  V30 6047 H 577.132 -1.00455 -4.97867 0
M  V30 6048 H 577.062 0.760392 -5.21081 0
M  V30 6049 H 579.553 0.143202 -3.77629 0
M  V30 6050 H 579.866 -0.332949 -7.72082 0
M  V30 6051 H 578.211 -0.292487 -6.94384 0
M  V30 6052 H 581.402 0.0931605 -4.68007 0
M  V30 6053 H 581.575 -0.12374 -6.47882 0
M  V30 6054 N 574.981 1.5647 0.188427 0
M  V30 6055 C 576.211 1.84863 0.922463 0
M  V30 6056 C 576.619 0.666413 1.77075 0
M  V30 6057 O 575.962 -0.374044 1.79852 0
M  V30 6058 C 576.024 3.07447 1.86324 0
M  V30 6059 C 575.688 4.41066 1.19625 0
M  V30 6060 C 576.685 5.16767 0.569946 0
M  V30 6061 C 574.37 4.87802 1.19811 0
M  V30 6062 C 576.364 6.37384 -0.045594 0
M  V30 6063 C 574.051 6.08353 0.57874 0
M  V30 6064 C 575.049 6.82987 -0.0420259 0
M  V30 6065 O 574.737 8.01254 -0.651675 0
M  V30 6066 H 574.469 0.61784 0.274316 0
M  V30 6067 H 577.023 2.04437 0.198613 0
M  V30 6068 H 575.253 2.83774 2.62696 0
M  V30 6069 H 576.942 3.2243 2.46564 0
M  V30 6070 H 577.708 4.81749 0.560601 0
M  V30 6071 H 573.587 4.29662 1.67069 0
M  V30 6072 H 577.131 6.95578 -0.530731 0
M  V30 6073 H 573.028 6.42838 0.58561 0
M  V30 6074 H 573.796 8.16655 -0.549236 0
M  V30 6075 N 576.459 -0.456382 1.50847 0
M  V30 6076 C 577.406 -1.55249 1.70782 0
M  V30 6077 C 578.376 -1.56757 0.549231 0
M  V30 6078 O 579.561 -1.74061 0.7815 0
M  V30 6079 C 576.701 -2.93118 1.82143 0
M  V30 6080 C 575.814 -3.01285 3.09598 0
M  V30 6081 C 574.949 -4.30159 3.11667 0
M  V30 6082 C 573.988 -4.32124 4.33515 0
M  V30 6083 N 573.125 -5.52492 4.3324 0
M  V30 6084 H 577.965 -1.37555 2.64353 0
M  V30 6085 H 575.502 -0.668543 1.3103 0
M  V30 6086 H 577.46 -3.73088 1.86711 0
M  V30 6087 H 576.09 -3.09413 0.919978 0
M  V30 6088 H 575.142 -2.14096 3.14431 0
M  V30 6089 H 576.454 -2.98597 3.99551 0
M  V30 6090 H 575.608 -5.18489 3.15046 0
M  V30 6091 H 574.347 -4.35477 2.1957 0
M  V30 6092 H 573.352 -3.42189 4.30333 0
M  V30 6093 H 574.577 -4.28485 5.26856 0
M  V30 6094 H 572.523 -5.58567 3.44004 0
M  V30 6095 H 572.44 -5.51605 5.16979 0
M  V30 6096 H 573.708 -6.42906 4.40786 0
M  V30 6097 N 577.937 -1.40673 -0.710563 0
M  V30 6098 C 579.183 -1.39428 -1.47267 0
M  V30 6099 C 579.516 0.00182129 -1.942 0
M  V30 6100 O 578.791 0.971387 -1.68506 0
M  V30 6101 C 579.074 -2.38812 -2.6952 0
M  V30 6102 C 578.927 -3.87467 -2.28449 0
M  V30 6103 C 580.246 -2.3566 -3.71689 0
M  V30 6104 H 577.365 -0.507768 -0.534173 0
M  V30 6105 H 580.007 -1.71843 -0.810547 0
M  V30 6106 H 578.157 -2.113 -3.26013 0
M  V30 6107 H 579.829 -4.25825 -1.77399 0
M  V30 6108 H 578.072 -4.03058 -1.60395 0
M  V30 6109 H 578.743 -4.5253 -3.16103 0
M  V30 6110 H 581.219 -2.6004 -3.24836 0
M  V30 6111 H 580.095 -3.07237 -4.54859 0
M  V30 6112 H 580.356 -1.36996 -4.20339 0
M  V30 6113 N 579.415 0.9433 -1.26252 0
M  V30 6114 C 580.663 1.68592 -1.11451 0
M  V30 6115 C 580.984 1.91957 0.343123 0
M  V30 6116 O 580.254 1.51475 1.24226 0
M  V30 6117 H 578.834 0.624789 -0.409448 0
M  V30 6118 H 581.496 1.13351 -1.58548 0
M  V30 6119 H 580.592 2.66054 -1.63162 0
M  V30 6120 N 580.893 1.08022 1.14757 0
M  V30 6121 C 582.309 0.807072 1.3769 0
M  V30 6122 C 582.509 -0.585504 1.92806 0
M  V30 6123 O 581.565 -1.34301 2.13821 0
M  V30 6124 C 582.878 1.88651 2.34161 0
M  V30 6125 C 584.426 1.91206 2.47809 0
M  V30 6126 C 584.901 2.98253 3.47576 0
M  V30 6127 N 586.392 2.974 3.55117 0
M  V30 6128 C 587.127 3.76872 4.32152 0
M  V30 6129 N 586.623 4.66212 5.12463 0
M  V30 6130 N 588.416 3.6519 4.27309 0
M  V30 6131 H 580.567 1.97824 0.77326 0
M  V30 6132 H 582.83 0.85826 0.402608 0
M  V30 6133 H 582.536 2.88749 2.00791 0
M  V30 6134 H 582.41 1.75244 3.3402 0
M  V30 6135 H 584.797 0.917564 2.80472 0
M  V30 6136 H 584.878 2.08691 1.47925 0
M  V30 6137 H 584.522 3.97907 3.15646 0
M  V30 6138 H 584.452 2.78014 4.47231 0
M  V30 6139 H 586.943 2.32643 2.97801 0
M  V30 6140 H 587.256 5.23468 5.68508 0
M  V30 6141 H 585.601 4.70257 5.11745 0
M  V30 6142 H 588.792 2.94765 3.63636 0
M  V30 6143 H 588.965 4.27366 4.87095 0
M  V30 6144 N 582.371 -1.3172 0.865308 0
M  V30 6145 C 583.599 -2.01057 0.488251 0
M  V30 6146 C 584.014 -1.64979 -0.918 0
M  V30 6147 O 583.371 -0.876597 -1.60069 0
M  V30 6148 C 583.422 -3.55964 0.630224 0
M  V30 6149 O 583.143 -3.90749 1.98109 0
M  V30 6150 C 584.644 -4.42574 0.253567 0
M  V30 6151 H 581.864 -0.64332 0.190736 0
M  V30 6152 H 584.408 -1.68058 1.16519 0
M  V30 6153 H 582.563 -3.874 0.000895422 0
M  V30 6154 H 582.977 -4.85467 1.9855 0
M  V30 6155 H 584.451 -5.50521 0.403875 0
M  V30 6156 H 584.928 -4.31724 -0.806895 0
M  V30 6157 H 585.534 -4.16547 0.858404 0
M  V30 6158 N 583.85 -0.624285 -1.44708 0
M  V30 6159 C 585.099 -0.123539 -2.01321 0
M  V30 6160 C 585.412 1.25966 -1.49639 0
M  V30 6161 O 586.618 1.85405 -1.98336 0
M  V30 6162 C 585.074 -0.170124 -3.59498 0
M  V30 6163 C 584.682 -1.55421 -4.20176 0
M  V30 6164 C 586.426 0.274513 -4.23611 0
M  V30 6165 C 584.332 -1.55628 -5.70556 0
M  V30 6166 H 583.263 -0.0424183 -0.752806 0
M  V30 6167 H 585.913 -0.782076 -1.65999 0
M  V30 6168 H 584.296 0.555385 -3.92086 0
M  V30 6169 H 585.47 -2.30276 -3.99136 0
M  V30 6170 H 583.784 -1.94235 -3.68323 0
M  V30 6171 H 586.382 0.292402 -5.339 0
M  V30 6172 H 586.725 1.3005 -3.95465 0
M  V30 6173 H 587.258 -0.398275 -3.95801 0
M  V30 6174 H 583.997 -2.56041 -6.03426 0
M  V30 6175 H 583.517 -0.850563 -5.93739 0
M  V30 6176 H 585.196 -1.28721 -6.34066 0
M  V30 6177 N 585.328 1.53329 -0.364422 0
M  V30 6178 C 586.576 2.00842 0.225189 0
M  V30 6179 C 586.897 1.25345 1.49378 0
M  V30 6180 O 586.167 0.366396 1.92443 0
M  V30 6181 H 584.747 0.742009 0.0862027 0
M  V30 6182 H 587.409 1.8863 -0.490389 0
M  V30 6183 H 586.505 3.08795 0.452987 0
M  V30 6184 N 586.806 0.0935595 1.57322 0
M  V30 6185 C 588.083 -0.612692 1.85756 0
M  V30 6186 C 588.463 -1.86439 0.99013 0
M  V30 6187 O 587.811 -2.28416 0.0621362 0
M  V30 6188 C 588.021 -0.929547 3.36393 0
M  V30 6189 C 589.369 -1.29366 4.04413 0
M  V30 6190 O 590.393 -1.02061 3.41265 0
M  V30 6191 O 589.252 -1.80498 5.15832 0
M  V30 6192 H 586.346 -0.306444 0.768128 0
M  V30 6193 H 588.892 0.126141 1.69231 0
M  V30 6194 H 587.664 -0.0414766 3.91278 0
M  V30 6195 H 587.287 -1.72441 3.5826 0
M  V30 6196 N 588.284 -1.56567 -0.180126 0
M  V30 6197 C 589.532 -1.81133 -0.896392 0
M  V30 6198 C 589.853 -0.669114 -1.83161 0
M  V30 6199 O 589.123 0.311616 -1.93406 0
M  V30 6200 H 587.703 -0.668172 -0.333999 0
M  V30 6201 H 590.365 -1.94048 -0.182051 0
M  V30 6202 H 589.461 -2.74854 -1.47857 0
M  V30 6203 N 589.762 0.448376 -1.51087 0
M  V30 6204 C 590.71 1.56407 -1.72161 0
M  V30 6205 C 591.704 1.58878 -0.587721 0
M  V30 6206 O 592.91 1.62755 -0.768822 0
M  V30 6207 H 589.285 0.519423 -0.543786 0
M  V30 6208 H 591.256 1.35803 -2.65707 0
M  V30 6209 C 590.005 2.94163 -1.85373 0
M  V30 6210 H 589.328 2.9299 -2.72024 0
M  V30 6211 H 590.768 3.71625 -2.04135 0
M  V30 6212 C 589.227 3.31317 -0.610803 0
M  V30 6213 O 589.757 4.00985 0.239636 0
M  V30 6214 N 587.963 2.86966 -0.458127 0
M  V30 6215 H 587.51 2.30443 -1.15124 0
M  V30 6216 H 587.468 3.12188 0.372289 0
M  V30 6217 N 591.24 1.41047 0.703093 0
M  V30 6218 C 592.487 1.4 1.46309 0
M  V30 6219 C 592.815 0.00654574 1.94499 0
M  V30 6220 O 592.07 -0.980255 1.6938 0
M  V30 6221 C 592.369 2.34686 2.6955 0
M  V30 6222 C 592.035 3.81684 2.40058 0
M  V30 6223 C 590.697 4.21731 2.31725 0
M  V30 6224 C 593.049 4.74525 2.15581 0
M  V30 6225 C 590.377 5.52637 1.97001 0
M  V30 6226 C 592.729 6.05744 1.82366 0
M  V30 6227 C 591.393 6.44819 1.72524 0
M  V30 6228 H 590.663 0.512295 0.535382 0
M  V30 6229 H 593.31 1.73792 0.804275 0
M  V30 6230 H 591.615 1.94122 3.40329 0
M  V30 6231 H 593.312 2.31152 3.27673 0
M  V30 6232 H 589.902 3.49963 2.47435 0
M  V30 6233 H 594.086 4.44395 2.20968 0
M  V30 6234 H 589.342 5.81802 1.87928 0
M  V30 6235 H 593.516 6.77189 1.62444 0
M  V30 6236 H 591.143 7.46168 1.45385 0
M  V30 6237 N 592.718 -0.936591 1.26751 0
M  V30 6238 C 593.681 -2.01752 1.08761 0
M  V30 6239 C 594.681 -1.60763 0.0344435 0
M  V30 6240 O 595.871 -1.71963 0.278258 0
M  V30 6241 C 593.003 -3.34543 0.655271 0
M  V30 6242 H 594.196 -2.19143 2.04735 0
M  V30 6243 H 591.749 -1.11618 1.09413 0
M  V30 6244 H 592.484 -3.22851 -0.30626 0
M  V30 6245 H 592.269 -3.65647 1.41578 0
M  V30 6246 H 593.759 -4.13944 0.551378 0
M  V30 6247 N 594.196 -1.08629 -1.14182 0
M  V30 6248 C 595.442 -0.818556 -1.85546 0
M  V30 6249 C 595.775 0.654076 -1.82854 0
M  V30 6250 O 595.05 1.48099 -1.26083 0
M  V30 6251 C 595.333 -1.34397 -3.3408 0
M  V30 6252 C 595.186 -2.8821 -3.45333 0
M  V30 6253 C 596.505 -0.971069 -4.29253 0
M  V30 6254 H 593.624 -0.298821 -0.673702 0
M  V30 6255 H 596.266 -1.34629 -1.34071 0
M  V30 6256 H 594.416 -0.895064 -3.78049 0
M  V30 6257 H 596.088 -3.41488 -3.10134 0
M  V30 6258 H 594.331 -3.25756 -2.86471 0
M  V30 6259 H 595.002 -3.20047 -4.49749 0
M  V30 6260 H 597.478 -1.35809 -3.93313 0
M  V30 6261 H 596.354 -1.36586 -5.31635 0
M  V30 6262 H 596.615 0.121659 -4.41933 0
M  V30 6263 N 595.674 1.31259 -0.872281 0
M  V30 6264 C 596.92 1.96913 -0.485083 0
M  V30 6265 C 597.253 1.68774 0.960667 0
M  V30 6266 O 596.528 0.985495 1.67685 0
M  V30 6267 C 596.811 3.52299 -0.745502 0
M  V30 6268 C 596.664 3.90002 -2.24095 0
M  V30 6269 C 597.983 4.39582 -0.213516 0
M  V30 6270 H 595.102 0.715252 -0.177716 0
M  V30 6271 H 597.744 1.55347 -1.09395 0
M  V30 6272 H 595.894 3.87835 -0.227276 0
M  V30 6273 H 597.566 3.64555 -2.82661 0
M  V30 6274 H 595.809 3.38526 -2.71261 0
M  V30 6275 H 596.48 4.98352 -2.37381 0
M  V30 6276 H 598.956 4.10882 -0.656902 0
M  V30 6277 H 597.832 5.47251 -0.42516 0
M  V30 6278 H 598.093 4.33158 0.884666 0
M  V30 6279 N 597.152 0.631951 1.44375 0
M  V30 6280 C 598.099 -0.0724807 2.30686 0
M  V30 6281 C 599.069 -0.835975 1.43529 0
M  V30 6282 O 600.254 -0.816849 1.7243 0
M  V30 6283 C 597.394 -1.04753 3.28817 0
M  V30 6284 C 596.507 -0.282367 4.31076 0
M  V30 6285 C 595.642 -1.2493 5.163 0
M  V30 6286 C 594.681 -0.473349 6.10267 0
M  V30 6287 N 593.818 -1.39079 6.88187 0
M  V30 6288 H 598.658 0.669477 2.90383 0
M  V30 6289 H 596.195 0.341927 1.43071 0
M  V30 6290 H 598.153 -1.62623 3.842 0
M  V30 6291 H 596.783 -1.75661 2.70819 0
M  V30 6292 H 595.835 0.412268 3.78159 0
M  V30 6293 H 597.147 0.321955 4.9776 0
M  V30 6294 H 596.301 -1.89931 5.76204 0
M  V30 6295 H 595.04 -1.88755 4.49692 0
M  V30 6296 H 594.045 0.190142 5.49471 0
M  V30 6297 H 595.27 0.16019 6.78911 0
M  V30 6298 H 593.216 -2.01623 6.24247 0
M  V30 6299 H 593.133 -0.840513 7.51313 0
M  V30 6300 H 594.401 -2.02961 7.52613 0
M  V30 6301 N 598.631 -1.53133 0.372548 0
M  V30 6302 C 599.541 -2.29671 -0.478379 0
M  V30 6303 C 600.557 -1.35913 -1.08644 0
M  V30 6304 O 601.733 -1.68975 -1.09588 0
M  V30 6305 C 598.798 -3.07625 -1.599 0
M  V30 6306 C 597.859 -4.17061 -1.01776 0
M  V30 6307 C 597.092 -4.91289 -2.08497 0
M  V30 6308 O 597.315 -4.65442 -3.29727 0
M  V30 6309 O 596.249 -5.7705 -1.71164 0
M  V30 6310 H 600.075 -3.03355 0.144649 0
M  V30 6311 H 597.66 -1.48773 0.136729 0
M  V30 6312 H 599.542 -3.56281 -2.25038 0
M  V30 6313 H 598.217 -2.3677 -2.2073 0
M  V30 6314 H 597.124 -3.72641 -0.330098 0
M  V30 6315 H 598.457 -4.90102 -0.453915 0
M  V30 6316 N 600.109 -0.101901 -1.5727 0
M  V30 6317 C 601.349 0.563489 -1.96479 0
M  V30 6318 C 601.713 1.64926 -0.983021 0
M  V30 6319 O 602.914 2.37234 -1.26386 0
M  V30 6320 C 601.185 1.09809 -3.40113 0
M  V30 6321 S 602.744 1.7744 -4.01323 0
M  V30 6322 H 599.562 0.183675 -0.686866 0
M  V30 6323 H 602.164 -0.182922 -1.94642 0
M  V30 6324 H 600.868 0.296447 -4.09328 0
M  V30 6325 H 600.399 1.88018 -3.45562 0
M  V30 6326 H 602.414 3.0591 -3.90683 0
M  V30 6327 N 601.587 1.56661 0.17182 0
M  V30 6328 C 602.833 1.82235 0.889845 0
M  V30 6329 C 603.166 0.679673 1.81918 0
M  V30 6330 O 602.441 -0.318404 1.91876 0
M  V30 6331 C 602.724 3.18195 1.68595 0
M  V30 6332 C 602.577 4.42989 0.779773 0
M  V30 6333 C 603.896 3.5109 2.65375 0
M  V30 6334 H 601.015 0.66291 0.322056 0
M  V30 6335 H 603.657 1.89358 0.15608 0
M  V30 6336 H 601.807 3.12253 2.3115 0
M  V30 6337 H 603.479 4.60997 0.16714 0
M  V30 6338 H 601.722 4.33711 0.0877964 0
M  V30 6339 H 602.393 5.3467 1.3723 0
M  V30 6340 H 604.869 3.57482 2.12946 0
M  V30 6341 H 603.745 4.47298 3.18144 0
M  V30 6342 H 604.006 2.75768 3.45549 0
M  V30 6343 N 603.065 -0.440357 1.51323 0
M  V30 6344 C 603.975 -1.55955 1.75258 0
M  V30 6345 C 604.991 -1.61933 0.636687 0
M  V30 6346 O 606.167 -1.79231 0.918593 0
M  V30 6347 C 603.232 -2.9196 1.86977 0
M  V30 6348 C 602.293 -2.96122 3.10822 0
M  V30 6349 C 601.526 -4.2564 3.21973 0
M  V30 6350 O 601.749 -5.17851 2.39137 0
M  V30 6351 O 600.683 -4.36025 4.14929 0
M  V30 6352 H 604.509 -1.38673 2.70191 0
M  V30 6353 H 602.094 -0.623055 1.35788 0
M  V30 6354 H 603.976 -3.72682 1.96688 0
M  V30 6355 H 602.651 -3.09375 0.952307 0
M  V30 6356 H 601.558 -2.14366 3.06591 0
M  V30 6357 H 602.891 -2.83651 4.02247 0
M  V30 6358 N 604.543 -1.41418 -0.695603 0
M  V30 6359 C 605.959 -1.23887 -1.00619 0
M  V30 6360 C 606.159 -0.128206 -2.01092 0
M  V30 6361 O 605.215 0.507408 -2.47349 0
M  V30 6362 C 606.528 -2.58816 -1.53083 0
M  V30 6363 C 608.076 -2.65998 -1.64967 0
M  V30 6364 C 608.551 -4.01244 -2.20833 0
M  V30 6365 N 610.042 -4.0309 -2.28194 0
M  V30 6366 C 610.777 -5.04539 -2.72448 0
M  V30 6367 N 610.273 -6.16378 -3.16306 0
M  V30 6368 N 612.066 -4.91901 -2.72011 0
M  V30 6369 H 604.217 -2.12379 -0.0300061 0
M  V30 6370 H 606.48 -0.944958 -0.0758797 0
M  V30 6371 H 606.186 -3.40842 -0.867147 0
M  V30 6372 H 606.06 -2.81299 -2.51298 0
M  V30 6373 H 608.447 -1.84331 -2.30448 0
M  V30 6374 H 608.528 -2.47325 -0.652982 0
M  V30 6375 H 608.172 -4.83359 -1.55968 0
M  V30 6376 H 608.102 -4.17257 -3.21254 0
M  V30 6377 H 610.593 -3.22341 -1.97242 0
M  V30 6378 H 610.906 -6.89658 -3.487 0
M  V30 6379 H 609.251 -6.19914 -3.14215 0
M  V30 6380 H 612.442 -4.03613 -2.37095 0
M  V30 6381 H 612.615 -5.71102 -3.06181 0
M  V30 6382 N 606.021 0.929856 -1.27246 0
M  V30 6383 C 607.246 1.71674 -1.16374 0
M  V30 6384 C 607.671 1.86064 0.276024 0
M  V30 6385 O 607.029 1.3591 1.19992 0
M  V30 6386 C 607.077 3.09526 -1.85003 0
M  V30 6387 O 606.181 3.96142 -1.14653 0
M  V30 6388 H 605.522 0.52629 -0.404863 0
M  V30 6389 H 608.052 1.16381 -1.68276 0
M  V30 6390 H 608.062 3.59852 -1.92276 0
M  V30 6391 H 606.737 2.98369 -2.89739 0
M  V30 6392 H 605.314 3.54584 -1.15433 0
M  V30 6393 N 607.499 1.09233 1.13605 0
M  V30 6394 C 608.727 0.848908 1.88683 0
M  V30 6395 C 609.142 -0.599667 1.79024 0
M  V30 6396 O 608.499 -1.41265 1.15544 0
M  V30 6397 C 608.55 1.27273 3.38355 0
M  V30 6398 O 608.271 2.66449 3.47759 0
M  V30 6399 C 609.772 1.0614 4.30406 0
M  V30 6400 H 606.992 0.305549 0.597395 0
M  V30 6401 H 609.536 1.4538 1.43823 0
M  V30 6402 H 607.691 0.711776 3.80805 0
M  V30 6403 H 608.105 2.84264 4.40788 0
M  V30 6404 H 609.579 1.40725 5.33761 0
M  V30 6405 H 610.056 -0.000960332 4.392 0
M  V30 6406 H 610.662 1.60821 3.93722 0
M  V30 6407 N 608.977 -1.30795 0.87923 0
M  V30 6408 C 609.94 -2.26563 0.346676 0
M  V30 6409 C 610.94 -1.52578 -0.507597 0
M  V30 6410 O 612.13 -1.71318 -0.315575 0
M  V30 6411 C 609.262 -3.37115 -0.506611 0
M  V30 6412 H 610.455 -2.75183 1.19223 0
M  V30 6413 H 608.008 -1.41886 0.655598 0
M  V30 6414 H 608.743 -2.93802 -1.37299 0
M  V30 6415 H 608.528 -3.91959 0.105218 0
M  V30 6416 H 610.018 -4.08412 -0.871192 0
M  V30 6417 N 610.455 -0.639598 -1.44038 0
M  V30 6418 C 611.871 -0.305953 -1.5664 0
M  V30 6419 C 612.071 1.19055 -1.62567 0
M  V30 6420 O 611.127 1.97492 -1.57331 0
M  V30 6421 C 612.44 -1.00533 -2.83397 0
M  V30 6422 C 613.988 -0.984278 -2.97121 0
M  V30 6423 C 614.463 -1.66428 -4.26691 0
M  V30 6424 N 615.954 -1.63127 -4.33525 0
M  V30 6425 C 616.689 -2.12629 -5.32519 0
M  V30 6426 N 616.185 -2.70359 -6.3787 0
M  V30 6427 N 617.978 -2.03208 -5.24083 0
M  V30 6428 H 610.129 -1.6109 -1.38434 0
M  V30 6429 H 612.392 -0.676672 -0.663942 0
M  V30 6430 H 612.098 -2.06034 -2.85032 0
M  V30 6431 H 611.972 -0.548362 -3.73193 0
M  V30 6432 H 614.359 0.0622792 -2.95034 0
M  V30 6433 H 614.44 -1.47981 -2.08651 0
M  V30 6434 H 614.084 -2.71034 -4.29538 0
M  V30 6435 H 614.014 -1.14351 -5.14034 0
M  V30 6436 H 616.505 -1.20987 -3.58009 0
M  V30 6437 H 616.818 -3.05842 -7.09704 0
M  V30 6438 H 615.163 -2.74414 -6.38531 0
M  V30 6439 H 618.354 -1.57823 -4.40692 0
M  V30 6440 H 618.527 -2.42097 -6.01077 0
M  V30 6441 N 611.933 1.52934 -0.380664 0
M  V30 6442 C 612.843 2.29921 0.466192 0
M  V30 6443 C 613.859 1.36488 1.07922 0
M  V30 6444 O 615.035 1.69553 1.0869 0
M  V30 6445 C 612.1 3.08468 1.58266 0
M  V30 6446 C 611.161 4.17595 0.995627 0
M  V30 6447 C 610.394 4.92387 2.05889 0
M  V30 6448 O 610.617 4.67184 3.27254 0
M  V30 6449 O 609.551 5.77949 1.68102 0
M  V30 6450 H 613.377 3.03274 -0.160735 0
M  V30 6451 H 610.962 1.48698 -0.144617 0
M  V30 6452 H 612.844 3.57469 2.23145 0
M  V30 6453 H 611.519 2.37937 2.19471 0
M  V30 6454 H 610.426 3.72811 0.310332 0
M  V30 6455 H 611.759 4.90336 0.427918 0
M  V30 6456 N 613.412 0.11024 1.57214 0
M  V30 6457 C 614.642 -0.557025 1.98949 0
M  V30 6458 C 615.05 -1.61317 0.988606 0
M  V30 6459 O 614.393 -1.83679 -0.0279159 0
M  V30 6460 C 614.455 -1.24956 3.37085 0
M  V30 6461 C 614.119 -0.342398 4.55716 0
M  V30 6462 C 615.116 0.415511 5.18237 0
M  V30 6463 C 612.801 -0.256029 5.01647 0
M  V30 6464 C 614.795 1.24761 6.25071 0
M  V30 6465 C 612.482 0.579713 6.08344 0
M  V30 6466 C 613.48 1.33017 6.69922 0
M  V30 6467 O 613.168 2.15205 7.74559 0
M  V30 6468 H 612.9 -0.152792 0.658506 0
M  V30 6469 H 615.454 0.19076 2.04512 0
M  V30 6470 H 613.684 -2.04424 3.2825 0
M  V30 6471 H 615.373 -1.81286 3.63167 0
M  V30 6472 H 616.139 0.358605 4.83672 0
M  V30 6473 H 612.018 -0.829831 4.5347 0
M  V30 6474 H 615.562 1.83386 6.73064 0
M  V30 6475 H 611.459 0.638044 6.42339 0
M  V30 6476 H 612.227 2.08052 7.91617 0
M  V30 6477 N 614.89 -1.56749 -0.16351 0
M  V30 6478 C 615.853 -1.96121 -1.18613 0
M  V30 6479 C 616.853 -0.845765 -1.36761 0
M  V30 6480 O 618.043 -1.11268 -1.34033 0
M  V30 6481 C 615.175 -2.26282 -2.54969 0
M  V30 6482 H 616.368 -2.87639 -0.848764 0
M  V30 6483 H 613.921 -1.50928 -0.406251 0
M  V30 6484 H 614.656 -1.37504 -2.93706 0
M  V30 6485 H 614.441 -3.07595 -2.43162 0
M  V30 6486 H 615.931 -2.57638 -3.28653 0
M  V30 6487 N 616.368 0.432326 -1.51554 0
M  V30 6488 C 617.298 1.53242 -1.76179 0
M  V30 6489 C 618.279 1.58717 -0.611801 0
M  V30 6490 O 619.464 1.74364 -0.855033 0
M  V30 6491 C 616.594 2.91278 -1.89141 0
M  V30 6492 C 615.548 3.00663 -3.04608 0
M  V30 6493 C 614.874 4.40728 -3.02759 0
M  V30 6494 C 616.174 2.74281 -4.44485 0
M  V30 6495 H 617.868 1.32886 -2.68294 0
M  V30 6496 H 615.414 0.637841 -1.29103 0
M  V30 6497 H 617.367 3.68203 -2.04951 0
M  V30 6498 H 616.091 3.12877 -0.936785 0
M  V30 6499 H 614.75 2.26179 -2.88511 0
M  V30 6500 H 614.398 4.59301 -2.05065 0
M  V30 6501 H 614.098 4.47936 -3.80299 0
M  V30 6502 H 615.622 5.19619 -3.20669 0
M  V30 6503 H 617.036 3.40936 -4.60907 0
M  V30 6504 H 615.433 2.92893 -5.23769 0
M  V30 6505 H 616.503 1.69856 -4.54177 0
M  V30 6506 N 617.846 1.41785 0.688094 0
M  V30 6507 C 618.793 1.44221 1.80191 0
M  V30 6508 C 619.763 0.295688 1.63447 0
M  V30 6509 O 620.948 0.49783 1.84191 0
M  V30 6510 C 618.088 1.33743 3.1813 0
M  V30 6511 C 617.201 2.58325 3.46254 0
M  V30 6512 C 616.336 2.40086 4.73848 0
M  V30 6513 C 615.375 3.60107 4.94964 0
M  V30 6514 N 614.512 3.40892 6.13789 0
M  V30 6515 H 619.352 2.39411 1.77444 0
M  V30 6516 H 616.889 1.18876 0.866423 0
M  V30 6517 H 618.847 1.25669 3.97823 0
M  V30 6518 H 617.477 0.42157 3.20035 0
M  V30 6519 H 616.529 2.7682 2.60912 0
M  V30 6520 H 617.841 3.4758 3.57756 0
M  V30 6521 H 616.995 2.29522 5.61609 0
M  V30 6522 H 615.734 1.483 4.64606 0
M  V30 6523 H 614.739 3.71118 4.05649 0
M  V30 6524 H 615.964 4.52857 5.06061 0
M  V30 6525 H 613.91 2.51812 6.05745 0
M  V30 6526 H 613.827 4.23727 6.26092 0
M  V30 6527 H 615.095 3.34114 7.04264 0
M  V30 6528 N 619.324 -0.923095 1.27737 0
M  V30 6529 C 620.573 -1.66581 1.13727 0
M  V30 6530 C 620.886 -1.9304 -0.315433 0
M  V30 6531 O 622.092 -2.65309 -0.57651 0
M  V30 6532 C 620.548 -3.00047 1.98745 0
M  V30 6533 C 620.156 -2.8127 3.48699 0
M  V30 6534 C 621.9 -3.77887 1.93395 0
M  V30 6535 C 619.807 -4.1032 4.25901 0
M  V30 6536 H 618.737 -0.624834 0.422017 0
M  V30 6537 H 621.388 -1.02514 1.52194 0
M  V30 6538 H 619.77 -3.65197 1.53125 0
M  V30 6539 H 620.944 -2.24859 4.02213 0
M  V30 6540 H 619.259 -2.16854 3.55476 0
M  V30 6541 H 621.856 -4.73526 2.48348 0
M  V30 6542 H 622.199 -4.06264 0.908605 0
M  V30 6543 H 622.732 -3.19541 2.36935 0
M  V30 6544 H 619.471 -3.8712 5.28978 0
M  V30 6545 H 618.991 -4.66377 3.77163 0
M  V30 6546 H 620.67 -4.78648 4.35321 0
M  V30 6547 N 620.802 -1.09834 -1.13024 0
M  V30 6548 C 622.051 -0.831806 -1.83749 0
M  V30 6549 C 622.364 0.644763 -1.84668 0
M  V30 6550 O 623.57 1.02697 -2.51327 0
M  V30 6551 C 622.026 -1.43817 -3.29916 0
M  V30 6552 C 621.634 -2.94759 -3.37374 0
M  V30 6553 C 623.378 -1.25077 -4.05655 0
M  V30 6554 C 621.285 -3.48461 -4.77838 0
M  V30 6555 H 620.215 -0.30751 -0.688443 0
M  V30 6556 H 622.866 -1.32156 -1.27307 0
M  V30 6557 H 621.248 -0.876106 -3.86187 0
M  V30 6558 H 622.422 -3.57228 -2.91076 0
M  V30 6559 H 620.737 -3.12581 -2.75103 0
M  V30 6560 H 623.334 -1.62649 -5.09362 0
M  V30 6561 H 623.677 -0.191782 -4.15858 0
M  V30 6562 H 624.21 -1.78057 -3.55725 0
M  V30 6563 H 620.949 -4.53998 -4.72828 0
M  V30 6564 H 620.469 -2.90757 -5.24615 0
M  V30 6565 H 622.148 -3.45914 -5.46766 0
M  V30 6566 N 622.28 1.30327 -0.886154 0
M  V30 6567 C 623.227 2.28099 -0.352069 0
M  V30 6568 C 624.197 1.56433 0.558397 0
M  V30 6569 O 625.382 1.84492 0.486561 0
M  V30 6570 C 622.522 3.42456 0.426346 0
M  V30 6571 C 621.635 4.28938 -0.513472 0
M  V30 6572 C 620.77 5.30458 0.280657 0
M  V30 6573 C 619.809 6.0859 -0.654556 0
M  V30 6574 N 618.946 7.02022 0.104322 0
M  V30 6575 H 623.786 2.73166 -1.19097 0
M  V30 6576 H 621.323 1.34367 -0.598662 0
M  V30 6577 H 623.281 4.07518 0.893587 0
M  V30 6578 H 621.911 2.98455 1.22981 0
M  V30 6579 H 620.963 3.64173 -1.09921 0
M  V30 6580 H 622.275 4.83399 -1.2299 0
M  V30 6581 H 621.429 6.01273 0.8097 0
M  V30 6582 H 620.168 4.76693 1.03029 0
M  V30 6583 H 619.173 5.36651 -1.19522 0
M  V30 6584 H 620.398 6.64443 -1.4033 0
M  V30 6585 H 618.344 6.50645 0.836472 0
M  V30 6586 H 618.261 7.53979 -0.552453 0
M  V30 6587 H 619.529 7.77077 0.614069 0
M  V30 6588 N 623.758 0.647228 1.43697 0
M  V30 6589 C 624.705 -0.0480092 2.3075 0
M  V30 6590 C 625.675 -0.820705 1.44408 0
M  V30 6591 O 626.86 -0.798515 1.73287 0
M  V30 6592 C 624 -1.01259 3.2991 0
M  V30 6593 C 623.113 -0.236629 4.31351 0
M  V30 6594 C 622.248 -1.19447 5.17596 0
M  V30 6595 C 621.287 -0.408595 6.10735 0
M  V30 6596 N 620.424 -1.31772 6.89623 0
M  V30 6597 H 625.264 0.700238 2.89656 0
M  V30 6598 H 622.801 0.357082 1.427 0
M  V30 6599 H 624.759 -1.58538 3.85903 0
M  V30 6600 H 623.389 -1.72778 2.72667 0
M  V30 6601 H 622.441 0.452353 3.77701 0
M  V30 6602 H 623.753 0.374731 4.9739 0
M  V30 6603 H 622.907 -1.83809 5.78186 0
M  V30 6604 H 621.646 -1.83975 4.51669 0
M  V30 6605 H 620.651 0.24841 5.49239 0
M  V30 6606 H 621.876 0.232188 6.78703 0
M  V30 6607 H 619.822 -1.94991 6.2635 0
M  V30 6608 H 619.739 -0.760779 7.52162 0
M  V30 6609 H 621.007 -1.94967 7.54724 0
M  V30 6610 N 625.236 -1.5273 0.388769 0
M  V30 6611 C 626.461 -2.0647 -0.19621 0
M  V30 6612 C 626.886 -1.25865 -1.39784 0
M  V30 6613 O 626.244 -0.283562 -1.79069 0
M  V30 6614 C 626.292 -3.56456 -0.5451 0
M  V30 6615 O 625.396 -3.78426 -1.63912 0
M  V30 6616 H 624.737 -0.663599 -0.023067 0
M  V30 6617 H 627.267 -1.96898 0.556084 0
M  V30 6618 H 627.277 -3.99888 -0.809557 0
M  V30 6619 H 625.952 -4.14561 0.333417 0
M  V30 6620 H 624.529 -3.46884 -1.36842 0
M  V30 6621 N 626.714 -0.118576 -1.57153 0
M  V30 6622 C 627.661 0.831789 -2.1529 0
M  V30 6623 C 628.631 1.26385 -1.07778 0
M  V30 6624 O 629.816 1.34144 -1.35684 0
M  V30 6625 C 626.956 2.07664 -2.75626 0
M  V30 6626 C 626.069 1.69298 -3.97444 0
M  V30 6627 C 625.204 2.88747 -4.45868 0
M  V30 6628 C 624.243 2.46619 -5.60219 0
M  V30 6629 N 623.38 3.5898 -6.03389 0
M  V30 6630 H 628.22 0.329183 -2.96176 0
M  V30 6631 H 625.757 0.150792 -1.46325 0
M  V30 6632 H 627.715 2.80601 -3.08738 0
M  V30 6633 H 626.345 2.55384 -1.97431 0
M  V30 6634 H 625.397 0.862374 -3.70496 0
M  V30 6635 H 626.709 1.34338 -4.80369 0
M  V30 6636 H 625.863 3.69909 -4.80887 0
M  V30 6637 H 624.602 3.26933 -3.61892 0
M  V30 6638 H 623.607 1.63889 -5.24805 0
M  V30 6639 H 624.832 2.0955 -6.45961 0
M  V30 6640 H 622.778 3.9684 -5.22354 0
M  V30 6641 H 622.695 3.27942 -6.81168 0
M  V30 6642 H 623.963 4.40583 -6.43045 0
M  V30 6643 N 628.193 1.56834 0.155195 0
M  V30 6644 C 629.433 1.84701 0.875488 0
M  V30 6645 C 629.797 0.701747 1.78716 0
M  V30 6646 O 630.998 0.861263 2.54629 0
M  V30 6647 C 629.269 3.1773 1.63654 0
M  V30 6648 S 630.828 3.67128 2.40338 0
M  V30 6649 H 627.646 0.647856 0.292923 0
M  V30 6650 H 630.248 1.95026 0.136024 0
M  V30 6651 H 628.952 3.99059 0.958117 0
M  V30 6652 H 628.483 3.10388 2.41708 0
M  V30 6653 H 630.498 3.35739 3.65368 0
M  V30 6654 N 629.671 -0.424282 1.51781 0
M  V30 6655 C 631.087 -0.761768 1.40247 0
M  V30 6656 C 631.287 -1.95324 0.495041 0
M  V30 6657 O 630.343 -2.5246 -0.0448949 0
M  V30 6658 C 631.656 -1.0299 2.82513 0
M  V30 6659 C 633.204 -1.13354 2.91753 0
M  V30 6660 C 633.679 -1.43453 4.34954 0
M  V30 6661 N 635.17 -1.5035 4.3812 0
M  V30 6662 C 635.905 -1.75236 5.45967 0
M  V30 6663 N 635.401 -1.97827 6.63955 0
M  V30 6664 N 637.194 -1.77126 5.33463 0
M  V30 6665 H 629.345 0.360228 2.09323 0
M  V30 6666 H 631.608 0.0988128 0.942836 0
M  V30 6667 H 631.314 -0.226961 3.50967 0
M  V30 6668 H 631.188 -1.95411 3.22637 0
M  V30 6669 H 633.575 -1.92709 2.23489 0
M  V30 6670 H 633.656 -0.188041 2.55108 0
M  V30 6671 H 633.3 -0.646209 5.03772 0
M  V30 6672 H 633.23 -2.3923 4.69123 0
M  V30 6673 H 635.721 -1.34742 3.53062 0
M  V30 6674 H 636.034 -2.16223 7.41935 0
M  V30 6675 H 634.379 -1.95123 6.67047 0
M  V30 6676 H 637.57 -1.59005 4.40267 0
M  V30 6677 H 637.743 -1.96182 6.17589 0
M  V30 6678 N 631.149 -1.42148 -0.680565 0
M  V30 6679 C 632.397 -1.42029 -1.43779 0
M  V30 6680 C 632.718 -0.0356347 -1.94967 0
M  V30 6681 O 631.988 0.924936 -1.7269 0
M  V30 6682 H 630.568 -0.522835 -0.533529 0
M  V30 6683 H 633.23 -1.7752 -0.804538 0
M  V30 6684 H 632.326 -2.11658 -2.29363 0
M  V30 6685 N 632.627 0.916307 -1.28225 0
M  V30 6686 C 633.574 2.01841 -1.11932 0
M  V30 6687 C 634.544 1.66091 -0.0171604 0
M  V30 6688 O 635.729 1.89934 -0.181617 0
M  V30 6689 C 632.869 3.36065 -0.784504 0
M  V30 6690 C 631.982 3.847 -1.96544 0
M  V30 6691 C 631.117 5.07423 -1.57149 0
M  V30 6692 C 630.156 5.48384 -2.71922 0
M  V30 6693 N 629.293 6.62298 -2.33037 0
M  V30 6694 H 634.133 2.1511 -2.06232 0
M  V30 6695 H 631.67 1.05366 -1.02647 0
M  V30 6696 H 633.628 4.13272 -0.571148 0
M  V30 6697 H 632.258 3.22571 0.121565 0
M  V30 6698 H 631.31 3.03673 -2.291 0
M  V30 6699 H 632.622 4.1102 -2.82603 0
M  V30 6700 H 631.776 5.92165 -1.32004 0
M  V30 6701 H 630.515 4.82906 -0.682153 0
M  V30 6702 H 629.52 4.62184 -2.97768 0
M  V30 6703 H 630.745 5.7489 -3.61494 0
M  V30 6704 H 628.691 6.39416 -1.4657 0
M  V30 6705 H 628.608 6.8833 -3.12631 0
M  V30 6706 H 629.876 7.50352 -2.11169 0
M  V30 6707 N 634.105 1.10431 1.1244 0
M  V30 6708 C 635.015 0.765502 2.21759 0
M  V30 6709 C 636.031 -0.236966 1.72379 0
M  V30 6710 O 637.207 -0.0757329 2.01258 0
M  V30 6711 C 634.272 0.202316 3.46109 0
M  V30 6712 C 633.333 1.26205 4.1033 0
M  V30 6713 C 632.566 0.725648 5.28744 0
M  V30 6714 O 632.789 -0.447942 5.68638 0
M  V30 6715 O 631.723 1.48555 5.83279 0
M  V30 6716 H 635.549 1.67801 2.53133 0
M  V30 6717 H 633.134 0.879443 1.20773 0
M  V30 6718 H 635.016 -0.107918 4.21262 0
M  V30 6719 H 633.691 -0.683052 3.16411 0
M  V30 6720 H 632.598 1.62514 3.36957 0
M  V30 6721 H 633.931 2.12044 4.44183 0
M  V30 6722 N 635.583 -1.29855 0.893053 0
M  V30 6723 C 636.533 -2.25493 0.337211 0
M  V30 6724 C 637.517 -1.51606 -0.53894 0
M  V30 6725 O 638.709 -1.72828 -0.382043 0
M  V30 6726 C 635.838 -3.40467 -0.440117 0
M  V30 6727 C 634.924 -4.217 0.450578 0
M  V30 6728 N 635.315 -4.81312 1.55476 0
M  V30 6729 C 633.613 -4.45315 0.247154 0
M  V30 6730 C 634.314 -5.42241 2.10593 0
M  V30 6731 N 633.29 -5.25267 1.39982 0
M  V30 6732 H 637.092 -2.69137 1.18079 0
M  V30 6733 H 634.606 -1.44388 0.743359 0
M  V30 6734 H 636.603 -4.08038 -0.855021 0
M  V30 6735 H 635.263 -2.98361 -1.28104 0
M  V30 6736 H 636.274 -4.80291 1.93755 0
M  V30 6737 H 632.951 -4.13782 -0.555939 0
M  V30 6738 H 634.341 -5.99517 3.03362 0
M  V30 6739 N 637.061 -0.65484 -1.43351 0
M  V30 6740 C 637.994 0.0855537 -2.2804 0
M  V30 6741 C 638.972 0.828301 -1.39921 0
M  V30 6742 O 640.156 0.827539 -1.69364 0
M  V30 6743 C 637.283 1.12792 -3.19368 0
M  V30 6744 C 636.329 0.483037 -4.23756 0
M  V30 6745 S 637.162 -0.744605 -5.30298 0
M  V30 6746 C 638.318 0.297187 -6.25194 0
M  V30 6747 H 638.551 -0.632831 -2.90487 0
M  V30 6748 H 636.084 -0.44373 -1.47886 0
M  V30 6749 H 638.042 1.7243 -3.72529 0
M  V30 6750 H 636.703 1.81863 -2.56095 0
M  V30 6751 H 635.896 1.26888 -4.87766 0
M  V30 6752 H 635.498 -0.0392713 -3.73979 0
M  V30 6753 H 637.79 1.1629 -6.67445 0
M  V30 6754 H 638.733 -0.30793 -7.0743 0
M  V30 6755 H 639.141 0.633721 -5.60932 0
M  V30 6756 N 638.539 1.52521 -0.396863 0
M  V30 6757 C 639.788 2.00857 0.184184 0
M  V30 6758 C 640.101 1.28733 1.47265 0
M  V30 6759 O 641.307 1.67821 2.13421 0
M  V30 6760 C 639.763 3.57901 0.378787 0
M  V30 6761 C 639.371 4.38931 -0.896873 0
M  V30 6762 C 641.115 4.14504 0.915789 0
M  V30 6763 C 639.022 5.87591 -0.670133 0
M  V30 6764 H 637.952 0.750496 0.0726055 0
M  V30 6765 H 640.603 1.75965 -0.520425 0
M  V30 6766 H 638.985 3.79072 1.14543 0
M  V30 6767 H 640.159 4.29524 -1.66872 0
M  V30 6768 H 638.474 3.93586 -1.35938 0
M  V30 6769 H 641.071 5.23236 1.10126 0
M  V30 6770 H 641.414 3.71076 1.88701 0
M  V30 6771 H 641.947 3.97253 0.208523 0
M  V30 6772 H 638.686 6.35355 -1.61257 0
M  V30 6773 H 638.206 5.99767 0.0626368 0
M  V30 6774 H 639.885 6.46268 -0.307577 0
M  V30 6775 N 640.017 0.126909 1.57088 0
M  V30 6776 C 640.949 -0.850973 2.12817 0
M  V30 6777 C 641.962 -1.22457 1.07276 0
M  V30 6778 O 643.151 -1.17215 1.34622 0
M  V30 6779 C 640.251 -2.15039 2.61938 0
M  V30 6780 C 639.424 -1.94726 3.91664 0
M  V30 6781 C 638.483 -3.0847 4.26301 0
M  V30 6782 O 637.509 -2.81038 4.94981 0
M  V30 6783 N 638.711 -4.35116 3.84259 0
M  V30 6784 H 641.476 -0.3748 2.97347 0
M  V30 6785 H 639.037 -0.0572793 1.61799 0
M  V30 6786 H 641.029 -2.90141 2.82135 0
M  V30 6787 H 639.599 -2.5398 1.82244 0
M  V30 6788 H 638.819 -1.03772 3.80296 0
M  V30 6789 H 640.107 -1.78469 4.76473 0
M  V30 6790 H 639.505 -4.60276 3.2888 0
M  V30 6791 H 638.062 -5.07064 4.09548 0
M  V30 6792 N 641.495 -1.56914 -0.146875 0
M  V30 6793 C 642.443 -1.99224 -1.20053 0
M  V30 6794 C 643.437 -0.884661 -1.44465 0
M  V30 6795 O 644.643 -1.06984 -1.44756 0
M  V30 6796 H 641.018 -0.634191 -0.404112 0
M  V30 6797 H 642.989 -2.86998 -0.816987 0
M  V30 6798 C 641.738 -2.38899 -2.52632 0
M  V30 6799 H 641.061 -3.23677 -2.34677 0
M  V30 6800 H 642.501 -2.72326 -3.24984 0
M  V30 6801 C 640.96 -1.2417 -3.13183 0
M  V30 6802 O 641.49 -0.542503 -3.9802 0
M  V30 6803 N 639.696 -1.00592 -2.72635 0
M  V30 6804 H 639.243 -1.57627 -2.03744 0
M  V30 6805 H 639.201 -0.240174 -3.13481 0
M  V30 6806 N 642.974 0.416227 -1.52004 0
M  V30 6807 C 643.884 1.53147 -1.77717 0
M  V30 6808 C 644.9 1.609 -0.662368 0
M  V30 6809 O 646.076 1.77747 -0.946991 0
M  V30 6810 C 643.141 2.88948 -1.91598 0
M  V30 6811 C 642.202 2.9114 -3.15493 0
M  V30 6812 C 641.435 4.20464 -3.28703 0
M  V30 6813 O 641.658 5.13981 -2.47345 0
M  V30 6814 O 640.592 4.29368 -4.21813 0
M  V30 6815 H 644.418 1.34357 -2.72363 0
M  V30 6816 H 642.003 0.601373 -1.36762 0
M  V30 6817 H 643.885 3.69505 -2.02593 0
M  V30 6818 H 642.56 3.07821 -1.00141 0
M  V30 6819 H 641.467 2.09461 -3.09962 0
M  V30 6820 H 642.8 2.77216 -4.06709 0
M  V30 6821 N 644.452 1.42507 0.673017 0
M  V30 6822 C 645.698 1.43284 1.43519 0
M  V30 6823 C 646.031 0.049668 1.94136 0
M  V30 6824 O 645.306 -0.926369 1.71022 0
M  V30 6825 C 645.589 2.45874 2.63093 0
M  V30 6826 C 645.442 3.93388 2.18096 0
M  V30 6827 C 646.761 2.45431 3.6531 0
M  V30 6828 H 643.88 0.521752 0.520522 0
M  V30 6829 H 646.522 1.73932 0.764701 0
M  V30 6830 H 644.672 2.19869 3.20296 0
M  V30 6831 H 646.344 4.30379 1.66046 0
M  V30 6832 H 644.587 4.07169 1.49652 0
M  V30 6833 H 645.258 4.60752 3.03993 0
M  V30 6834 H 647.734 2.68561 3.17827 0
M  V30 6835 H 646.61 3.19189 4.46553 0
M  V30 6836 H 646.871 1.48092 4.16559 0
M  V30 6837 N 645.93 -0.909495 1.28709 0
M  V30 6838 C 647.155 -1.69801 1.1909 0
M  V30 6839 C 647.58 -1.86479 -0.246388 0
M  V30 6840 O 646.938 -1.37802 -1.17815 0
M  V30 6841 C 646.986 -3.06543 1.89904 0
M  V30 6842 O 646.09 -3.94268 1.2094 0
M  V30 6843 H 645.431 -0.519783 0.413185 0
M  V30 6844 H 647.961 -1.13689 1.70106 0
M  V30 6845 H 647.971 -3.56748 1.97977 0
M  V30 6846 H 646.646 -2.93722 2.94449 0
M  V30 6847 H 645.223 -3.52702 1.2106 0
M  V30 6848 N 647.408 -1.11026 -1.11852 0
M  V30 6849 C 648.657 -0.851249 -1.82857 0
M  V30 6850 C 648.97 0.62514 -1.85341 0
M  V30 6851 O 650.176 1.00026 -2.52403 0
M  V30 6852 C 648.632 -1.47309 -3.28372 0
M  V30 6853 C 648.24 -2.9832 -3.34229 0
M  V30 6854 C 649.984 -1.29373 -4.04306 0
M  V30 6855 C 647.891 -3.53509 -4.74115 0
M  V30 6856 H 646.821 -0.314794 -0.685143 0
M  V30 6857 H 649.472 -1.33499 -1.25898 0
M  V30 6858 H 647.854 -0.917017 -3.85236 0
M  V30 6859 H 649.028 -3.60295 -2.87271 0
M  V30 6860 H 647.343 -3.15482 -2.71772 0
M  V30 6861 H 649.94 -1.68042 -5.07608 0
M  V30 6862 H 650.283 -0.235879 -4.15631 0
M  V30 6863 H 650.816 -1.8182 -3.53817 0
M  V30 6864 H 647.555 -4.58987 -4.67986 0
M  V30 6865 H 647.075 -2.96305 -5.21501 0
M  V30 6866 H 648.754 -3.51693 -5.43066 0
M  V30 6867 N 648.886 1.2938 -0.899927 0
M  V30 6868 C 649.816 2.30144 -0.39446 0
M  V30 6869 C 650.797 1.61611 0.530639 0
M  V30 6870 O 651.982 1.89119 0.441319 0
M  V30 6871 C 649.112 3.45229 0.37868 0
M  V30 6872 C 648.066 4.25564 -0.456012 0
M  V30 6873 C 647.392 5.32848 0.444637 0
M  V30 6874 C 648.692 4.93651 -1.70605 0
M  V30 6875 H 650.386 2.72673 -1.23653 0
M  V30 6876 H 647.932 1.31086 -0.596034 0
M  V30 6877 H 649.885 4.14797 0.743037 0
M  V30 6878 H 648.609 3.01545 1.25453 0
M  V30 6879 H 647.268 3.57704 -0.802704 0
M  V30 6880 H 646.916 4.85408 1.31863 0
M  V30 6881 H 646.616 5.87497 -0.110154 0
M  V30 6882 H 648.14 6.05268 0.805182 0
M  V30 6883 H 649.554 5.55655 -1.41141 0
M  V30 6884 H 647.951 5.58233 -2.20217 0
M  V30 6885 H 649.021 4.18926 -2.4419 0
M  V30 6886 N 650.364 0.662433 1.43002 0
M  V30 6887 C 651.78 0.330835 1.56133 0
M  V30 6888 C 651.98 -1.16454 1.64441 0
M  V30 6889 O 651.036 -1.94964 1.60453 0
M  V30 6890 C 652.349 1.05029 2.81761 0
M  V30 6891 C 653.897 1.03142 2.95518 0
M  V30 6892 C 654.372 1.73196 4.2399 0
M  V30 6893 N 655.863 1.70004 4.30875 0
M  V30 6894 C 656.598 2.21074 5.29069 0
M  V30 6895 N 656.094 2.80473 6.33488 0
M  V30 6896 N 657.887 2.1152 5.20784 0
M  V30 6897 H 650.038 1.63272 1.35853 0
M  V30 6898 H 652.301 0.687149 0.653092 0
M  V30 6899 H 652.007 2.10542 2.81718 0
M  V30 6900 H 651.881 0.607664 3.72273 0
M  V30 6901 H 654.268 -0.0153339 2.95096 0
M  V30 6902 H 654.349 1.51282 2.0627 0
M  V30 6903 H 653.993 2.77833 4.25172 0
M  V30 6904 H 653.923 1.22515 5.1215 0
M  V30 6905 H 656.414 1.26667 3.56039 0
M  V30 6906 H 656.727 3.17094 7.04749 0
M  V30 6907 H 655.072 2.84538 6.34085 0
M  V30 6908 H 658.263 1.64814 4.38126 0
M  V30 6909 H 658.436 2.51629 5.97149 0
M  V30 6910 N 651.842 -1.52309 0.404946 0
M  V30 6911 C 653.258 -1.59503 0.0556255 0
M  V30 6912 C 653.458 -1.41805 -1.43156 0
M  V30 6913 O 652.514 -1.2429 -2.19792 0
M  V30 6914 C 653.827 -2.95687 0.546801 0
M  V30 6915 C 655.375 -3.08909 0.504413 0
M  V30 6916 C 655.85 -4.47566 0.97203 0
M  V30 6917 N 657.341 -4.53795 0.928679 0
M  V30 6918 C 658.076 -5.59346 1.26174 0
M  V30 6919 N 657.572 -6.72469 1.66604 0
M  V30 6920 N 659.365 -5.49532 1.18198 0
M  V30 6921 H 651.516 -1.6206 1.37296 0
M  V30 6922 H 653.779 -0.762161 0.563751 0
M  V30 6923 H 653.485 -3.13905 1.58609 0
M  V30 6924 H 653.359 -3.77172 -0.0457905 0
M  V30 6925 H 655.746 -2.90378 -0.525819 0
M  V30 6926 H 655.827 -2.2934 1.13301 0
M  V30 6927 H 655.471 -4.6684 2.00057 0
M  V30 6928 H 655.401 -5.25625 0.320292 0
M  V30 6929 H 657.892 -3.72588 0.631369 0
M  V30 6930 H 658.205 -7.48993 1.9034 0
M  V30 6931 H 656.55 -6.73761 1.70504 0
M  V30 6932 H 659.741 -4.60038 0.865011 0
M  V30 6933 H 659.914 -6.31687 1.44485 0
M  V30 6934 N 653.32 -0.135238 -1.57019 0
M  V30 6935 C 654.566 0.519563 -1.96032 0
M  V30 6936 C 654.899 1.65284 -1.01955 0
M  V30 6937 O 654.174 1.94408 -0.059727 0
M  V30 6938 C 654.457 1.0369 -3.44848 0
M  V30 6939 C 654.31 -0.0940754 -4.49702 0
M  V30 6940 C 655.629 1.92254 -3.95887 0
M  V30 6941 H 652.748 0.18739 -0.712779 0
M  V30 6942 H 655.39 -0.214086 -1.8879 0
M  V30 6943 H 653.54 1.66209 -3.5115 0
M  V30 6944 H 655.212 -0.73 -4.55487 0
M  V30 6945 H 653.455 -0.754924 -4.27181 0
M  V30 6946 H 654.126 0.309419 -5.51132 0
M  V30 6947 H 656.602 1.39581 -3.9199 0
M  V30 6948 H 655.478 2.25364 -5.00502 0
M  V30 6949 H 655.739 2.85513 -3.37543 0
M  V30 6950 N 654.798 1.5699 0.138552 0
M  V30 6951 C 655.745 1.98899 1.17081 0
M  V30 6952 C 656.715 0.857922 1.42228 0
M  V30 6953 O 657.9 1.12065 1.54422 0
M  V30 6954 C 655.04 2.38189 2.4972 0
M  V30 6955 C 654.153 3.64624 2.31674 0
M  V30 6956 C 653.288 3.9298 3.57407 0
M  V30 6957 C 652.327 5.1266 3.34435 0
M  V30 6958 N 651.464 5.36983 4.5232 0
M  V30 6959 H 656.304 2.86881 0.80642 0
M  V30 6960 H 653.841 1.41925 0.386727 0
M  V30 6961 H 655.799 2.59 3.2707 0
M  V30 6962 H 654.429 1.53275 2.84089 0
M  V30 6963 H 653.481 3.51542 1.45337 0
M  V30 6964 H 654.793 4.52131 2.10664 0
M  V30 6965 H 653.947 4.14335 4.43183 0
M  V30 6966 H 652.686 3.03912 3.8143 0
M  V30 6967 H 651.691 4.9117 2.47048 0
M  V30 6968 H 652.916 6.03288 3.11802 0
M  V30 6969 H 650.862 4.50871 4.76499 0
M  V30 6970 H 650.779 6.18775 4.34343 0
M  V30 6971 H 652.047 5.62842 5.39285 0
M  V30 6972 N 656.276 -0.40816 1.52223 0
M  V30 6973 C 657.226 -1.49648 1.72016 0
M  V30 6974 C 658.21 -1.50311 0.574069 0
M  V30 6975 O 659.402 -1.56271 0.831173 0
M  V30 6976 C 656.531 -2.87566 1.87512 0
M  V30 6977 C 655.617 -2.91547 3.07995 0
M  V30 6978 N 656.008 -2.65225 4.30685 0
M  V30 6979 C 654.306 -3.22715 3.07849 0
M  V30 6980 C 655.007 -2.75799 5.12162 0
M  V30 6981 N 653.983 -3.08719 4.4743 0
M  V30 6982 H 657.785 -1.28093 2.64517 0
M  V30 6983 H 655.299 -0.61588 1.50269 0
M  V30 6984 H 657.296 -3.65899 1.99809 0
M  V30 6985 H 655.956 -3.10118 0.962114 0
M  V30 6986 H 656.967 -2.39601 4.59142 0
M  V30 6987 H 653.644 -3.50856 2.26289 0
M  V30 6988 H 655.034 -2.59155 6.1991 0
M  V30 6989 N 657.755 -1.42862 -0.66545 0
M  V30 6990 C 659.166 -1.3901 -1.24632 0
M  V30 6991 C 659.517 -0.0880285 -1.96002 0
M  V30 6992 O 658.642 0.812947 -2.0055 0
M  V30 6993 C 659.237 -2.51806 -2.2667 0
M  V30 6994 C 657.796 -2.51257 -2.80262 0
M  V30 6995 C 656.943 -2.30124 -1.5472 0
M  V30 6996 H 659.894 -1.5194 -0.458237 0
M  V30 6997 H 659.915 -2.22593 -3.08598 0
M  V30 6998 H 659.427 -3.46558 -1.74697 0
M  V30 6999 H 657.528 -1.60349 -3.36332 0
M  V30 7000 H 657.641 -3.48614 -3.28641 0
M  V30 7001 H 656.005 -1.7856 -1.81627 0
M  V30 7002 H 656.788 -3.26945 -1.04699 0
M  V30 7003 N 659.233 0.902656 -1.29189 0
M  V30 7004 C 660.181 2.0278 -1.13943 0
M  V30 7005 C 661.175 1.69308 -0.055787 0
M  V30 7006 O 662.381 1.78707 -0.215371 0
M  V30 7007 H 658.756 0.664595 -0.351877 0
M  V30 7008 H 660.727 2.12778 -2.09208 0
M  V30 7009 C 659.476 3.37657 -0.82966 0
M  V30 7010 H 658.799 3.63913 -1.65551 0
M  V30 7011 H 660.239 4.17078 -0.762998 0
M  V30 7012 C 658.698 3.33648 0.466991 0
M  V30 7013 O 659.228 3.72886 1.49395 0
M  V30 7014 N 657.434 2.86745 0.471761 0
M  V30 7015 H 656.981 2.55009 -0.364406 0
M  V30 7016 H 656.939 2.84446 1.33933 0
M  V30 7017 N 660.711 1.11618 1.11262 0
M  V30 7018 C 661.96 0.860934 1.82403 0
M  V30 7019 C 662.273 -0.615303 1.8567 0
M  V30 7020 O 663.479 -0.986861 2.52929 0
M  V30 7021 C 661.935 1.49048 3.27586 0
M  V30 7022 C 661.543 3.00089 3.32642 0
M  V30 7023 C 663.287 1.31515 4.03614 0
M  V30 7024 C 661.194 3.56019 4.72234 0
M  V30 7025 H 660.124 0.318423 0.683464 0
M  V30 7026 H 662.775 1.34165 1.25188 0
M  V30 7027 H 661.157 0.937434 3.84744 0
M  V30 7028 H 662.331 3.61813 2.85356 0
M  V30 7029 H 660.646 3.16919 2.70096 0
M  V30 7030 H 663.243 1.70732 5.0671 0
M  V30 7031 H 663.586 0.257917 4.155 0
M  V30 7032 H 664.119 1.83694 3.52848 0
M  V30 7033 H 660.858 4.61463 4.65545 0
M  V30 7034 H 660.378 2.99066 5.19923 0
M  V30 7035 H 662.057 3.54568 5.41193 0
M  V30 7036 N 662.189 -1.289 0.906776 0
M  V30 7037 C 663.435 -1.95558 0.53712 0
M  V30 7038 C 663.768 -1.71262 -0.915582 0
M  V30 7039 O 663.043 -1.02961 -1.65013 0
M  V30 7040 C 663.326 -3.50198 0.838645 0
M  V30 7041 C 663.179 -3.83923 2.34357 0
M  V30 7042 C 664.498 -4.38861 0.329988 0
M  V30 7043 H 661.617 -0.710289 0.196617 0
M  V30 7044 H 664.259 -1.52392 1.13475 0
M  V30 7045 H 662.409 -3.87096 0.330024 0
M  V30 7046 H 664.081 -3.56933 2.92227 0
M  V30 7047 H 662.324 -3.31215 2.80141 0
M  V30 7048 H 662.995 -4.91883 2.5051 0
M  V30 7049 H 665.471 -4.08996 0.765609 0
M  V30 7050 H 664.347 -5.45931 0.570105 0
M  V30 7051 H 664.608 -4.35352 -0.769511 0
M  V30 7052 N 663.667 -0.670007 -1.42649 0
M  V30 7053 C 664.597 -0.00258501 -2.335 0
M  V30 7054 C 665.578 0.794364 -1.50412 0
M  V30 7055 O 666.763 0.75248 -1.79029 0
M  V30 7056 C 663.893 0.952748 -3.33976 0
M  V30 7057 C 662.847 0.264733 -4.2718 0
M  V30 7058 C 662.173 1.33267 -5.17826 0
M  V30 7059 C 663.473 -0.853289 -5.15283 0
M  V30 7060 H 665.167 -0.761326 -2.89559 0
M  V30 7061 H 662.713 -0.367561 -1.3923 0
M  V30 7062 H 664.666 1.4287 -3.96442 0
M  V30 7063 H 663.39 1.74285 -2.7621 0
M  V30 7064 H 662.049 -0.190938 -3.66102 0
M  V30 7065 H 661.697 2.11464 -4.5639 0
M  V30 7066 H 661.397 0.877476 -5.81011 0
M  V30 7067 H 662.921 1.80965 -5.83167 0
M  V30 7068 H 664.335 -0.458763 -5.71462 0
M  V30 7069 H 662.732 -1.23398 -5.87276 0
M  V30 7070 H 663.802 -1.70412 -4.53969 0
M  V30 7071 N 665.145 1.52092 -0.413018 0
M  V30 7072 C 666.075 2.30021 0.401567 0
M  V30 7073 C 667.056 1.34395 1.04269 0
M  V30 7074 O 668.241 1.63304 1.05097 0
M  V30 7075 C 665.371 3.12447 1.51638 0
M  V30 7076 C 664.325 4.16153 1.00005 0
M  V30 7077 C 663.651 4.86948 2.20875 0
M  V30 7078 C 664.951 5.22275 0.0513757 0
M  V30 7079 H 666.645 2.98365 -0.248704 0
M  V30 7080 H 664.191 1.4349 -0.121052 0
M  V30 7081 H 666.144 3.65733 2.09326 0
M  V30 7082 H 664.868 2.41879 2.19458 0
M  V30 7083 H 663.527 3.63882 0.445549 0
M  V30 7084 H 663.175 4.12905 2.8726 0
M  V30 7085 H 662.875 5.57057 1.86978 0
M  V30 7086 H 664.399 5.43048 2.79162 0
M  V30 7087 H 665.813 5.70778 0.537176 0
M  V30 7088 H 664.21 5.9977 -0.198977 0
M  V30 7089 H 665.28 4.76611 -0.892736 0
M  V30 7090 N 666.623 0.143563 1.56945 0
M  V30 7091 C 667.872 -0.50835 1.95189 0
M  V30 7092 C 668.185 -1.66239 1.03073 0
M  V30 7093 O 669.391 -2.3787 1.30882 0
M  V30 7094 C 667.847 -0.955735 3.46978 0
M  V30 7095 C 667.455 0.171183 4.47673 0
M  V30 7096 C 669.199 -1.57763 3.94095 0
M  V30 7097 C 667.106 -0.294279 5.90667 0
M  V30 7098 H 666.036 -0.193679 0.728701 0
M  V30 7099 H 668.687 0.227357 1.82086 0
M  V30 7100 H 667.069 -1.7466 3.55401 0
M  V30 7101 H 668.243 0.948049 4.50942 0
M  V30 7102 H 666.558 0.701273 4.10452 0
M  V30 7103 H 669.155 -1.93745 4.98364 0
M  V30 7104 H 669.498 -2.46531 3.35452 0
M  V30 7105 H 670.031 -0.851728 3.88575 0
M  V30 7106 H 666.77 0.557939 6.53121 0
M  V30 7107 H 666.29 -1.0371 5.90766 0
M  V30 7108 H 667.969 -0.747426 6.42668 0
M  V30 7109 N 668.101 -1.57061 -0.130224 0
M  V30 7110 C 669.011 -2.02802 -1.17934 0
M  V30 7111 C 670.027 -0.946378 -1.46013 0
M  V30 7112 O 671.203 -1.25708 -1.57351 0
M  V30 7113 C 668.268 -2.41368 -2.48882 0
M  V30 7114 C 667.329 -3.63561 -2.28301 0
M  V30 7115 C 666.562 -4.00279 -3.53005 0
M  V30 7116 O 666.785 -3.37463 -4.59864 0
M  V30 7117 O 665.719 -4.93441 -3.44673 0
M  V30 7118 H 669.545 -2.92394 -0.820958 0
M  V30 7119 H 667.13 -1.45475 -0.340197 0
M  V30 7120 H 669.012 -2.66958 -3.26054 0
M  V30 7121 H 667.687 -1.54926 -2.84217 0
M  V30 7122 H 666.594 -3.43136 -1.49025 0
M  V30 7123 H 667.927 -4.50673 -1.97875 0
M  V30 7124 N 669.579 0.400081 -1.52437 0
M  V30 7125 C 670.489 1.51253 -1.79331 0
M  V30 7126 C 671.505 1.60188 -0.679396 0
M  V30 7127 O 672.681 1.76733 -0.965791 0
M  V30 7128 C 669.746 2.869 -1.94652 0
M  V30 7129 C 668.807 2.87777 -3.18564 0
M  V30 7130 C 668.04 4.16954 -3.33145 0
M  V30 7131 O 668.263 5.11329 -2.52783 0
M  V30 7132 O 667.197 4.2487 -4.26343 0
M  V30 7133 H 671.023 1.31461 -2.73773 0
M  V30 7134 H 668.608 0.586834 -1.37392 0
M  V30 7135 H 670.49 3.67336 -2.065 0
M  V30 7136 H 669.165 3.06741 -1.034 0
M  V30 7137 H 668.072 2.06162 -3.12167 0
M  V30 7138 H 669.405 2.72886 -4.09627 0
M  V30 7139 N 671.057 1.43213 0.657864 0
M  V30 7140 C 671.99 1.42456 1.78273 0
M  V30 7141 C 672.968 0.286598 1.60054 0
M  V30 7142 O 674.152 0.479467 1.823 0
M  V30 7143 C 671.279 1.23169 3.15511 0
M  V30 7144 C 670.325 2.40181 3.52442 0
M  V30 7145 S 671.158 4.02729 3.52944 0
M  V30 7146 C 672.314 3.85816 4.92846 0
M  V30 7147 H 672.547 2.37642 1.78644 0
M  V30 7148 H 670.08 1.30188 0.830084 0
M  V30 7149 H 672.038 1.12728 3.94719 0
M  V30 7150 H 670.699 0.295398 3.12708 0
M  V30 7151 H 669.892 2.22478 4.52239 0
M  V30 7152 H 669.494 2.47224 2.80636 0
M  V30 7153 H 671.786 3.47853 5.81381 0
M  V30 7154 H 672.729 4.85348 5.15599 0
M  V30 7155 H 673.137 3.18361 4.66162 0
M  V30 7156 N 672.536 -0.895792 1.29666 0
M  V30 7157 C 673.813 -1.62723 1.08538 0
M  V30 7158 C 674.193 -2.07848 -0.369119 0
M  V30 7159 O 673.541 -1.8372 -1.35864 0
M  V30 7160 C 673.751 -2.80505 2.07648 0
M  V30 7161 C 675.099 -3.51098 2.3878 0
M  V30 7162 O 676.123 -2.90679 2.05874 0
M  V30 7163 O 674.982 -4.60028 2.9502 0
M  V30 7164 H 672.076 -0.714692 0.416106 0
M  V30 7165 H 674.622 -0.943517 1.41053 0
M  V30 7166 H 673.394 -2.44386 3.05599 0
M  V30 7167 H 673.017 -3.5658 1.75887 0
M  V30 7168 N 674.014 -1.12206 -1.10668 0
M  V30 7169 C 675.26 -0.877172 -1.82848 0
M  V30 7170 C 675.593 0.595571 -1.84842 0
M  V30 7171 O 674.868 1.44013 -1.30731 0
M  V30 7172 C 675.151 -1.44957 -3.29635 0
M  V30 7173 C 675.004 -2.99051 -3.35989 0
M  V30 7174 C 676.323 -1.10714 -4.25946 0
M  V30 7175 H 673.442 -0.320103 -0.663854 0
M  V30 7176 H 676.084 -1.38827 -1.2972 0
M  V30 7177 H 674.234 -1.01488 -3.7501 0
M  V30 7178 H 675.906 -3.51182 -2.99113 0
M  V30 7179 H 674.149 -3.34705 -2.75962 0
M  V30 7180 H 674.82 -3.34194 -4.39339 0
M  V30 7181 H 677.296 -1.48254 -3.88793 0
M  V30 7182 H 676.172 -1.5343 -5.2702 0
M  V30 7183 H 676.433 -0.019 -4.42096 0
M  V30 7184 N 675.492 1.28418 -0.913599 0
M  V30 7185 C 676.903 1.77024 -0.593237 0
M  V30 7186 C 677.254 1.74779 0.891441 0
M  V30 7187 O 676.379 1.34237 1.69733 0
M  V30 7188 C 676.974 3.21456 -1.07011 0
M  V30 7189 C 675.533 3.67786 -0.800664 0
M  V30 7190 C 674.68 2.48185 -1.23691 0
M  V30 7191 H 677.631 1.14883 -1.09487 0
M  V30 7192 H 677.652 3.78269 -0.411481 0
M  V30 7193 H 677.164 3.23058 -2.1507 0
M  V30 7194 H 675.265 3.71644 0.266725 0
M  V30 7195 H 675.378 4.57934 -1.4083 0
M  V30 7196 H 673.742 2.46116 -0.655655 0
M  V30 7197 H 674.525 2.52506 -2.32585 0
M  V30 7198 N 676.97 0.677563 1.42291 0
M  V30 7199 C 678.198 0.209459 2.05837 0
M  V30 7200 C 678.613 -1.13444 1.50917 0
M  V30 7201 O 677.97 -1.70529 0.65008 0
M  V30 7202 C 678.021 0.138819 3.61233 0
M  V30 7203 O 677.742 1.42962 4.14118 0
M  V30 7204 C 679.243 -0.352449 4.41897 0
M  V30 7205 H 676.463 0.101209 0.663323 0
M  V30 7206 H 679.007 0.925077 1.8238 0
M  V30 7207 H 677.162 -0.527505 3.83792 0
M  V30 7208 H 677.576 1.3048 5.08011 0
M  V30 7209 H 679.05 -0.350778 5.50884 0
M  V30 7210 H 679.527 -1.3882 4.16684 0
M  V30 7211 H 680.133 0.282236 4.24362 0
M  V30 7212 N 678.448 -1.51871 0.421078 0
M  V30 7213 C 679.358 -2.31077 -0.405069 0
M  V30 7214 C 680.374 -1.39301 -1.04265 0
M  V30 7215 O 681.55 -1.72376 -1.04157 0
M  V30 7216 C 678.615 -3.12556 -1.50032 0
M  V30 7217 C 677.676 -4.20088 -0.884559 0
M  V30 7218 C 676.909 -4.97673 -1.92762 0
M  V30 7219 O 677.132 -4.75696 -3.14753 0
M  V30 7220 O 676.066 -5.82203 -1.52719 0
M  V30 7221 H 679.892 -3.02742 0.241086 0
M  V30 7222 H 677.477 -1.48263 0.183991 0
M  V30 7223 H 679.359 -3.6326 -2.13589 0
M  V30 7224 H 678.034 -2.43672 -2.13086 0
M  V30 7225 H 676.941 -3.73502 -0.211379 0
M  V30 7226 H 678.274 -4.91298 -0.297763 0
M  V30 7227 N 679.926 -0.151884 -1.56866 0
M  V30 7228 C 680.856 0.781943 -2.20018 0
M  V30 7229 C 681.837 1.25347 -1.14987 0
M  V30 7230 O 683.022 1.31015 -1.43348 0
M  V30 7231 C 680.152 2.01928 -2.82564 0
M  V30 7232 C 679.106 1.68434 -3.93464 0
M  V30 7233 C 678.432 2.99472 -4.42968 0
M  V30 7234 C 679.732 0.927244 -5.14003 0
M  V30 7235 H 681.426 0.255607 -2.98307 0
M  V30 7236 H 678.972 0.121502 -1.43486 0
M  V30 7237 H 680.925 2.67741 -3.25411 0
M  V30 7238 H 679.649 2.56943 -2.01614 0
M  V30 7239 H 678.308 1.04998 -3.51242 0
M  V30 7240 H 677.956 3.52488 -3.58834 0
M  V30 7241 H 677.656 2.77823 -5.17772 0
M  V30 7242 H 679.18 3.66348 -4.88489 0
M  V30 7243 H 680.594 1.48756 -5.53665 0
M  V30 7244 H 678.991 0.810513 -5.94601 0
M  V30 7245 H 680.061 -0.0801163 -4.84834 0
M  V30 7246 N 681.404 1.57128 0.121893 0
M  V30 7247 C 682.634 1.88609 0.843227 0
M  V30 7248 C 683.042 0.740917 1.74089 0
M  V30 7249 O 682.385 -0.297426 1.81276 0
M  V30 7250 C 682.447 3.15073 1.73117 0
M  V30 7251 C 682.111 4.45742 1.0081 0
M  V30 7252 C 683.108 5.18719 0.350255 0
M  V30 7253 C 680.793 4.92444 0.99014 0
M  V30 7254 C 682.787 6.36617 -0.315889 0
M  V30 7255 C 680.474 6.10261 0.320196 0
M  V30 7256 C 681.472 6.82194 -0.331666 0
M  V30 7257 O 681.16 7.97769 -0.990927 0
M  V30 7258 H 680.892 0.628919 0.247865 0
M  V30 7259 H 683.446 2.05096 0.111725 0
M  V30 7260 H 681.676 2.9466 2.50424 0
M  V30 7261 H 683.365 3.32597 2.32667 0
M  V30 7262 H 684.131 4.83693 0.35577 0
M  V30 7263 H 680.01 4.36361 1.48695 0
M  V30 7264 H 683.554 6.92701 -0.825272 0
M  V30 7265 H 679.451 6.44743 0.312433 0
M  V30 7266 H 680.219 8.13591 -0.895113 0
M  V30 7267 N 682.882 -0.391992 1.52647 0
M  V30 7268 C 683.812 -1.48517 1.8018 0
M  V30 7269 C 684.793 -1.57039 0.653667 0
M  V30 7270 O 685.978 -1.72036 0.900962 0
M  V30 7271 C 683.108 -2.86161 1.96797 0
M  V30 7272 C 682.062 -2.92481 3.12472 0
M  V30 7273 C 681.388 -4.32546 3.14338 0
M  V30 7274 C 682.688 -2.624 4.51601 0
M  V30 7275 H 684.382 -1.25726 2.71723 0
M  V30 7276 H 681.928 -0.603387 1.30749 0
M  V30 7277 H 683.881 -3.62639 2.14641 0
M  V30 7278 H 682.605 -3.10283 1.01941 0
M  V30 7279 H 681.264 -2.18451 2.94406 0
M  V30 7280 H 680.912 -4.53703 2.1717 0
M  V30 7281 H 680.612 -4.37695 3.92042 0
M  V30 7282 H 682.136 -5.10934 3.34333 0
M  V30 7283 H 683.55 -3.28596 4.69785 0
M  V30 7284 H 681.947 -2.78903 5.3135 0
M  V30 7285 H 683.017 -1.57754 4.58521 0
M  V30 7286 N 684.36 -1.4356 -0.65026 0
M  V30 7287 C 685.606 -1.45549 -1.41221 0
M  V30 7288 C 685.939 -0.0805472 -1.94033 0
M  V30 7289 O 685.214 0.899043 -1.72475 0
M  V30 7290 C 685.497 -2.50028 -2.59148 0
M  V30 7291 C 685.35 -3.96808 -2.1181 0
M  V30 7292 C 686.669 -2.51212 -3.61359 0
M  V30 7293 H 683.788 -0.529967 -0.512156 0
M  V30 7294 H 686.43 -1.75127 -0.736933 0
M  V30 7295 H 684.58 -2.24937 -3.16758 0
M  V30 7296 H 686.252 -4.32966 -1.59178 0
M  V30 7297 H 684.495 -4.09498 -1.43156 0
M  V30 7298 H 685.166 -4.6553 -2.96625 0
M  V30 7299 H 687.642 -2.73583 -3.13515 0
M  V30 7300 H 686.518 -3.26252 -4.41419 0
M  V30 7301 H 686.779 -1.54701 -4.1415 0
M  V30 7302 N 685.838 0.888903 -1.30139 0
M  V30 7303 C 686.771 1.99655 -1.10514 0
M  V30 7304 C 687.749 1.62594 -0.0138934 0
M  V30 7305 O 688.933 1.87762 -0.166689 0
M  V30 7306 C 686.06 3.31708 -0.684655 0
M  V30 7307 C 685.106 3.87755 -1.77619 0
M  V30 7308 S 685.939 4.15532 -3.37777 0
M  V30 7309 C 687.095 5.5061 -2.97622 0
M  V30 7310 H 687.328 2.15996 -2.04287 0
M  V30 7311 H 684.861 1.03682 -1.14409 0
M  V30 7312 H 686.819 4.08039 -0.448782 0
M  V30 7313 H 685.48 3.1323 0.233648 0
M  V30 7314 H 684.673 4.83164 -1.43417 0
M  V30 7315 H 684.275 3.18149 -1.96614 0
M  V30 7316 H 686.567 6.31518 -2.45338 0
M  V30 7317 H 687.51 5.89747 -3.91924 0
M  V30 7318 H 687.918 5.12983 -2.35603 0
M  V30 7319 N 687.317 1.12792 1.10072 0
M  V30 7320 C 688.227 0.812369 2.20086 0
M  V30 7321 C 689.243 -0.200349 1.72843 0
M  V30 7322 O 690.419 -0.0330262 2.01373 0
M  V30 7323 C 687.484 0.275685 3.45602 0
M  V30 7324 C 686.545 1.34881 4.07561 0
M  V30 7325 C 685.778 0.837639 5.27086 0
M  V30 7326 O 686.001 -0.327224 5.69461 0
M  V30 7327 O 684.935 1.60894 5.79997 0
M  V30 7328 H 688.761 1.73133 2.49517 0
M  V30 7329 H 686.346 0.904863 1.18881 0
M  V30 7330 H 688.228 -0.0185375 4.21396 0
M  V30 7331 H 686.903 -0.615783 3.17789 0
M  V30 7332 H 685.81 1.69625 3.33434 0
M  V30 7333 H 687.143 2.21418 4.39585 0
M  V30 7334 N 688.795 -1.27931 0.920396 0
M  V30 7335 C 689.725 -2.29487 0.431024 0
M  V30 7336 C 690.706 -1.62435 -0.504861 0
M  V30 7337 O 691.891 -1.89797 -0.411176 0
M  V30 7338 C 689.021 -3.45788 -0.323709 0
M  V30 7339 C 687.975 -4.24784 0.523658 0
M  V30 7340 C 687.301 -5.33488 -0.359809 0
M  V30 7341 C 688.601 -4.90874 1.78437 0
M  V30 7342 H 690.295 -2.70671 1.27975 0
M  V30 7343 H 687.841 -1.30121 0.616813 0
M  V30 7344 H 689.794 -4.15927 -0.676952 0
M  V30 7345 H 688.518 -3.03502 -1.2064 0
M  V30 7346 H 687.177 -3.56382 0.85951 0
M  V30 7347 H 686.825 -4.87445 -1.24124 0
M  V30 7348 H 686.525 -5.87247 0.203605 0
M  V30 7349 H 688.049 -6.06472 -0.708787 0
M  V30 7350 H 689.463 -5.53339 1.49963 0
M  V30 7351 H 687.86 -5.54659 2.29071 0
M  V30 7352 H 688.93 -4.14988 2.50824 0
M  V30 7353 N 690.273 -0.685099 -1.4193 0
M  V30 7354 C 691.519 -0.211971 -2.01689 0
M  V30 7355 C 691.852 1.18189 -1.54094 0
M  V30 7356 O 691.127 1.79559 -0.747572 0
M  V30 7357 C 691.41 -0.258019 -3.59174 0
M  V30 7358 C 691.263 -1.68807 -4.16922 0
M  V30 7359 C 692.582 0.388044 -4.38386 0
M  V30 7360 H 689.701 -0.0784987 -0.732808 0
M  V30 7361 H 692.343 -0.871837 -1.68816 0
M  V30 7362 H 690.493 0.303832 -3.8731 0
M  V30 7363 H 692.165 -2.30296 -3.99702 0
M  V30 7364 H 690.408 -2.22553 -3.72361 0
M  V30 7365 H 691.079 -1.6719 -5.26072 0
M  V30 7366 H 693.555 -0.0903432 -4.16002 0
M  V30 7367 H 692.431 0.325232 -5.47936 0
M  V30 7368 H 692.692 1.4672 -4.17044 0
M  V30 7369 N 691.751 1.51645 -0.429126 0
M  V30 7370 C 692.698 2.27542 0.386446 0
M  V30 7371 C 693.668 1.30786 1.02393 0
M  V30 7372 O 694.853 1.59678 1.0444 0
M  V30 7373 C 691.993 3.11457 1.48623 0
M  V30 7374 C 691.106 4.23196 0.867691 0
M  V30 7375 C 690.241 4.94435 1.94183 0
M  V30 7376 C 689.28 5.98108 1.30129 0
M  V30 7377 N 688.417 6.62786 2.31644 0
M  V30 7378 H 693.257 2.968 -0.267155 0
M  V30 7379 H 690.794 1.46397 -0.143591 0
M  V30 7380 H 692.752 3.58429 2.13506 0
M  V30 7381 H 691.382 2.44329 2.10957 0
M  V30 7382 H 690.434 3.80248 0.107373 0
M  V30 7383 H 691.746 4.97499 0.35997 0
M  V30 7384 H 690.9 5.44914 2.66747 0
M  V30 7385 H 689.639 4.19744 2.48326 0
M  V30 7386 H 688.644 5.4693 0.561082 0
M  V30 7387 H 689.869 6.74751 0.767303 0
M  V30 7388 H 687.815 5.90913 2.84883 0
M  V30 7389 H 687.732 7.32828 1.85741 0
M  V30 7390 H 689 7.17897 3.03717 0
M  V30 7391 N 693.229 0.160201 1.56784 0
M  V30 7392 C 694.477 -0.486625 1.96154 0
M  V30 7393 C 694.798 -1.64525 1.04673 0
M  V30 7394 O 694.068 -1.95586 0.110864 0
M  V30 7395 H 692.648 -0.182764 0.724297 0
M  V30 7396 H 695.31 0.238787 1.93432 0
M  V30 7397 H 694.406 -0.854025 3.00188 0
M  V30 7398 N 694.707 -1.5719 -0.113559 0
M  V30 7399 C 695.955 -1.84772 -0.818761 0
M  V30 7400 C 696.276 -0.746196 -1.80158 0
M  V30 7401 O 695.546 0.229305 -1.94553 0
M  V30 7402 H 694.126 -0.681737 -0.305359 0
M  V30 7403 H 696.788 -1.94645 -0.0995845 0
M  V30 7404 H 695.884 -2.80878 -1.36067 0
M  V30 7405 N 696.185 0.383891 -1.52853 0
M  V30 7406 C 697.462 1.14296 -1.58732 0
M  V30 7407 C 697.842 2.07585 -0.383611 0
M  V30 7408 O 697.19 2.1971 0.627661 0
M  V30 7409 C 697.4 1.89816 -2.92867 0
M  V30 7410 C 698.748 2.44998 -3.46787 0
M  V30 7411 O 699.772 1.99966 -2.94774 0
M  V30 7412 O 698.631 3.2727 -4.37672 0
M  V30 7413 H 695.725 0.52326 -0.640413 0
M  V30 7414 H 698.271 0.388631 -1.6519 0
M  V30 7415 H 697.043 1.21626 -3.71918 0
M  V30 7416 H 696.666 2.72199 -2.89816 0
M  V30 7417 N 697.663 1.43903 0.642637 0
M  V30 7418 C 698.593 1.52697 1.76652 0
M  V30 7419 C 699.574 0.380816 1.65782 0
M  V30 7420 O 700.759 0.599432 1.84717 0
M  V30 7421 C 697.889 1.45975 3.15133 0
M  V30 7422 C 696.843 2.58949 3.40778 0
M  V30 7423 C 696.169 2.37279 4.79169 0
M  V30 7424 C 697.469 4.01153 3.34475 0
M  V30 7425 H 699.163 2.46766 1.69549 0
M  V30 7426 H 696.709 1.18767 0.814279 0
M  V30 7427 H 698.662 1.5073 3.93521 0
M  V30 7428 H 697.386 0.484162 3.22991 0
M  V30 7429 H 696.045 2.53564 2.64765 0
M  V30 7430 H 695.693 1.37939 4.83717 0
M  V30 7431 H 695.393 3.13016 4.97287 0
M  V30 7432 H 696.917 2.43834 5.59801 0
M  V30 7433 H 698.331 4.07968 4.02784 0
M  V30 7434 H 696.728 4.77001 3.64129 0
M  V30 7435 H 697.798 4.25539 2.32475 0
M  V30 7436 N 699.141 -0.881989 1.30609 0
M  V30 7437 C 700.388 -1.63405 1.19604 0
M  V30 7438 C 700.716 -1.92905 -0.248574 0
M  V30 7439 O 699.971 -1.55062 -1.19391 0
M  V30 7440 C 700.27 -2.97999 1.97311 0
M  V30 7441 C 699.936 -2.88039 3.46907 0
M  V30 7442 C 698.598 -2.85029 3.877 0
M  V30 7443 C 700.95 -2.75948 4.42156 0
M  V30 7444 C 698.278 -2.67772 5.2203 0
M  V30 7445 C 700.63 -2.60228 5.76597 0
M  V30 7446 C 699.294 -2.55595 6.16626 0
M  V30 7447 H 698.564 -0.597941 0.437662 0
M  V30 7448 H 701.211 -1.02524 1.61744 0
M  V30 7449 H 699.516 -3.62847 1.47815 0
M  V30 7450 H 701.213 -3.55156 1.86186 0
M  V30 7451 H 697.803 -2.91192 3.14492 0
M  V30 7452 H 701.987 -2.77337 4.1158 0
M  V30 7453 H 697.243 -2.62601 5.52133 0
M  V30 7454 H 701.417 -2.49847 6.50038 0
M  V30 7455 H 699.044 -2.41981 7.20659 0
M  V30 7456 N 700.619 -1.13374 -1.09472 0
M  V30 7457 C 701.896 -0.806329 -1.78207 0
M  V30 7458 C 702.276 0.702191 -1.99079 0
M  V30 7459 O 701.624 1.63931 -1.59182 0
M  V30 7460 C 701.834 -1.59271 -3.10538 0
M  V30 7461 C 703.182 -1.78509 -3.85253 0
M  V30 7462 O 704.206 -1.55866 -3.20288 0
M  V30 7463 O 703.065 -2.16287 -5.01879 0
M  V30 7464 H 700.159 -0.29435 -0.772843 0
M  V30 7465 H 702.705 -1.23833 -1.16033 0
M  V30 7466 H 701.477 -2.61792 -2.90828 0
M  V30 7467 H 701.1 -1.15562 -3.80436 0
M  V30 7468 N 702.098 1.27442 -0.927168 0
M  V30 7469 C 703.061 2.2512 -0.430525 0
M  V30 7470 C 704.061 1.54357 0.450619 0
M  V30 7471 O 705.251 1.72371 0.251774 0
M  V30 7472 C 702.383 3.38763 0.381144 0
M  V30 7473 H 703.576 2.70569 -1.29354 0
M  V30 7474 H 701.129 1.39355 -0.707806 0
M  V30 7475 H 701.864 2.98695 1.263 0
M  V30 7476 H 701.649 3.91298 -0.250618 0
M  V30 7477 H 703.139 4.11364 0.719012 0
M  V30 7478 N 703.576 0.692616 1.41565 0
M  V30 7479 C 704.825 0.219452 2.00503 0
M  V30 7480 C 705.138 -1.18683 1.55479 0
M  V30 7481 O 706.344 -1.75731 2.06956 0
M  V30 7482 C 704.8 0.341451 3.58277 0
M  V30 7483 C 704.408 1.75291 4.12283 0
M  V30 7484 C 706.152 -0.0720899 4.24439 0
M  V30 7485 C 704.059 1.82673 5.62481 0
M  V30 7486 H 702.989 0.0782874 0.749925 0
M  V30 7487 H 705.64 0.860386 1.62079 0
M  V30 7488 H 704.022 -0.367683 3.94289 0
M  V30 7489 H 705.196 2.49057 3.87695 0
M  V30 7490 H 703.511 2.11587 3.58636 0
M  V30 7491 H 706.108 -0.0373385 5.34687 0
M  V30 7492 H 706.451 -1.11034 4.0122 0
M  V30 7493 H 706.984 0.586663 3.9345 0
M  V30 7494 H 703.723 2.84539 5.90523 0
M  V30 7495 H 703.243 1.13288 5.89004 0
M  V30 7496 H 704.922 1.58827 6.27203 0
M  V30 7497 N 705.054 -1.51416 0.437162 0
M  V30 7498 C 706.282 -2.06503 -0.128045 0
M  V30 7499 C 706.697 -1.30461 -1.36475 0
M  V30 7500 O 706.054 -0.364127 -1.78831 0
M  V30 7501 C 706.105 -3.58683 -0.450437 0
M  V30 7502 O 705.826 -4.31853 0.737186 0
M  V30 7503 C 707.327 -4.30284 -1.06633 0
M  V30 7504 H 704.547 -0.670952 -0.00800269 0
M  V30 7505 H 707.091 -1.94996 0.616193 0
M  V30 7506 H 705.246 -3.70106 -1.14457 0
M  V30 7507 H 705.66 -5.22467 0.461347 0
M  V30 7508 H 707.134 -5.37848 -1.24191 0
M  V30 7509 H 707.611 -3.88564 -2.0473 0
M  V30 7510 H 708.217 -4.23304 -0.411585 0
M  V30 7511 N 706.532 -0.168513 -1.56696 0
M  V30 7512 C 707.757 0.486688 -2.01609 0
M  V30 7513 C 708.182 1.56203 -1.04796 0
M  V30 7514 O 707.54 1.8128 -0.0270596 0
M  V30 7515 C 707.588 1.04451 -3.45141 0
M  V30 7516 O 706.692 2.15862 -3.51393 0
M  V30 7517 H 706.033 0.116831 -0.653641 0
M  V30 7518 H 708.563 -0.271579 -2.0279 0
M  V30 7519 H 708.573 1.36782 -3.84389 0
M  V30 7520 H 707.248 0.257155 -4.15104 0
M  V30 7521 H 705.825 1.84597 -3.24004 0
M  V30 7522 N 708.01 1.57248 0.105221 0
M  V30 7523 C 709.238 1.89768 0.82437 0
M  V30 7524 C 709.653 0.761192 1.72775 0
M  V30 7525 O 709.01 -0.267342 1.80531 0
M  V30 7526 C 709.061 3.2184 1.64625 0
M  V30 7527 O 708.782 4.31115 0.779217 0
M  V30 7528 C 710.283 3.68155 2.46935 0
M  V30 7529 H 707.503 0.628031 0.236259 0
M  V30 7530 H 710.047 2.04321 0.085485 0
M  V30 7531 H 708.202 3.08915 2.33775 0
M  V30 7532 H 708.616 5.06897 1.34745 0
M  V30 7533 H 710.09 4.6329 3.00111 0
M  V30 7534 H 710.567 2.95492 3.24932 0
M  V30 7535 H 711.173 3.83914 1.83002 0
M  V30 7536 N 709.488 -0.375779 1.53054 0
M  V30 7537 C 710.436 -1.48015 1.79428 0
M  V30 7538 C 711.43 -1.55893 0.662854 0
M  V30 7539 O 712.636 -1.58901 0.845599 0
M  V30 7540 H 709.011 -0.492887 0.56795 0
M  V30 7541 H 710.982 -1.22971 2.71884 0
M  V30 7542 C 709.731 -2.84984 1.99197 0
M  V30 7543 H 709.054 -2.79677 2.85693 0
M  V30 7544 H 710.494 -3.61462 2.21633 0
M  V30 7545 C 708.953 -3.28025 0.768183 0
M  V30 7546 O 709.483 -4.01671 -0.0480482 0
M  V30 7547 N 707.689 -2.84454 0.594521 0
M  V30 7548 H 707.236 -2.24688 1.25988 0
M  V30 7549 H 707.194 -3.13609 -0.222916 0
M  V30 7550 N 710.966 -1.44241 -0.634997 0
M  V30 7551 C 711.913 -1.5081 -1.74714 0
M  V30 7552 C 712.883 -0.356147 -1.62237 0
M  V30 7553 O 714.068 -0.565848 -1.82216 0
M  V30 7554 C 711.208 -1.45458 -3.12947 0
M  V30 7555 C 710.321 -2.70998 -3.36428 0
M  V30 7556 C 709.456 -2.57507 -4.64611 0
M  V30 7557 C 708.495 -3.78229 -4.81258 0
M  V30 7558 N 707.632 -3.63438 -6.00714 0
M  V30 7559 H 712.472 -2.45832 -1.68436 0
M  V30 7560 H 710.009 -1.2201 -0.821706 0
M  V30 7561 H 711.967 -1.40347 -3.92885 0
M  V30 7562 H 710.597 -0.540058 -3.1825 0
M  V30 7563 H 709.649 -2.86312 -2.50458 0
M  V30 7564 H 710.961 -3.60619 -3.44609 0
M  V30 7565 H 710.115 -2.50207 -5.52703 0
M  V30 7566 H 708.854 -1.65441 -4.58782 0
M  V30 7567 H 707.859 -3.85918 -3.91596 0
M  V30 7568 H 709.084 -4.71327 -4.88904 0
M  V30 7569 H 707.03 -2.7412 -5.95982 0
M  V30 7570 H 706.947 -4.46672 -6.09934 0
M  V30 7571 H 708.215 -3.60022 -6.91378 0
M  V30 7572 N 712.444 0.87505 -1.31075 0
M  V30 7573 C 713.674 1.65818 -1.2324 0
M  V30 7574 C 714.082 1.8808 0.205536 0
M  V30 7575 O 713.425 1.43548 1.14628 0
M  V30 7576 C 713.487 3.05131 -1.90093 0
M  V30 7577 C 713.151 3.05999 -3.39432 0
M  V30 7578 C 714.148 2.84328 -4.35263 0
M  V30 7579 C 711.833 3.27281 -3.81041 0
M  V30 7580 C 713.827 2.83912 -5.70678 0
M  V30 7581 C 711.514 3.26493 -5.16571 0
M  V30 7582 C 712.512 3.04834 -6.112 0
M  V30 7583 O 712.2 3.03882 -7.44252 0
M  V30 7584 H 711.932 0.52387 -0.427242 0
M  V30 7585 H 714.486 1.10086 -1.73408 0
M  V30 7586 H 712.716 3.62568 -1.34468 0
M  V30 7587 H 714.405 3.65641 -1.76242 0
M  V30 7588 H 715.171 2.67673 -4.04445 0
M  V30 7589 H 711.05 3.43171 -3.07822 0
M  V30 7590 H 714.594 2.66925 -6.44513 0
M  V30 7591 H 710.491 3.42687 -5.47025 0
M  V30 7592 H 711.259 3.19979 -7.53363 0
M  V30 7593 N 713.922 1.13953 1.08869 0
M  V30 7594 C 715.15 0.92817 1.84912 0
M  V30 7595 C 715.565 -0.523197 1.81406 0
M  V30 7596 O 714.922 -1.36237 1.21432 0
M  V30 7597 C 714.973 1.41509 3.32652 0
M  V30 7598 O 714.694 2.80959 3.36145 0
M  V30 7599 C 716.195 1.243 4.25517 0
M  V30 7600 H 713.415 0.330612 0.583898 0
M  V30 7601 H 715.959 1.51349 1.37527 0
M  V30 7602 H 714.114 0.872648 3.77444 0
M  V30 7603 H 714.528 3.02704 4.28335 0
M  V30 7604 H 716.002 1.63237 5.27312 0
M  V30 7605 H 716.479 0.18532 4.38809 0
M  V30 7606 H 717.085 1.77375 3.86546 0
M  V30 7607 N 715.4 -1.26948 0.933913 0
M  V30 7608 C 716.31 -2.30366 0.443671 0
M  V30 7609 C 717.326 -1.67284 -0.478745 0
M  V30 7610 O 718.502 -1.98156 -0.360043 0
M  V30 7611 C 715.567 -3.45485 -0.289974 0
M  V30 7612 C 714.628 -4.24069 0.668114 0
M  V30 7613 C 713.861 -5.33691 -0.0306138 0
M  V30 7614 O 714.084 -5.5656 -1.24888 0
M  V30 7615 O 713.018 -5.98441 0.644384 0
M  V30 7616 H 716.844 -2.74349 1.30254 0
M  V30 7617 H 714.429 -1.32012 0.699506 0
M  V30 7618 H 716.311 -4.15486 -0.70353 0
M  V30 7619 H 714.986 -3.03546 -1.12435 0
M  V30 7620 H 713.893 -3.56579 1.13147 0
M  V30 7621 H 715.226 -4.69739 1.46989 0
M  V30 7622 N 716.879 -0.700114 -1.41195 0
M  V30 7623 C 718.295 -0.372114 -1.55201 0
M  V30 7624 C 718.495 1.12053 -1.6747 0
M  V30 7625 O 717.551 1.90642 -1.65566 0
M  V30 7626 C 718.864 -1.12462 -2.78878 0
M  V30 7627 C 720.412 -1.10941 -2.92679 0
M  V30 7628 C 720.887 -1.84376 -4.19249 0
M  V30 7629 N 722.378 -1.81368 -4.26216 0
M  V30 7630 C 723.113 -2.35024 -5.23021 0
M  V30 7631 N 722.609 -2.9717 -6.25829 0
M  V30 7632 N 724.402 -2.25254 -5.14992 0
M  V30 7633 H 716.553 -1.66816 -1.31477 0
M  V30 7634 H 718.816 -0.704223 -0.634644 0
M  V30 7635 H 718.522 -2.17937 -2.76037 0
M  V30 7636 H 718.396 -0.706152 -3.70531 0
M  V30 7637 H 720.783 -0.062911 -2.95033 0
M  V30 7638 H 720.864 -1.56698 -2.02187 0
M  V30 7639 H 720.508 -2.89008 -4.17656 0
M  V30 7640 H 720.438 -1.3605 -5.08722 0
M  V30 7641 H 722.929 -1.36062 -3.52556 0
M  V30 7642 H 723.242 -3.35668 -6.96094 0
M  V30 7643 H 721.587 -3.01249 -6.26318 0
M  V30 7644 H 724.778 -1.76372 -4.33602 0
M  V30 7645 H 724.951 -2.67373 -5.90268 0
M  V30 7646 N 718.357 1.51182 -0.445186 0
M  V30 7647 C 719.634 1.9478 0.178965 0
M  V30 7648 C 720.014 1.38428 1.59376 0
M  V30 7649 O 719.362 0.574552 2.21159 0
M  V30 7650 C 719.572 3.48683 0.148711 0
M  V30 7651 C 720.92 4.23152 0.35042 0
M  V30 7652 O 721.944 3.55479 0.226474 0
M  V30 7653 O 720.803 5.4322 0.597893 0
M  V30 7654 H 717.897 0.817387 0.12573 0
M  V30 7655 H 720.443 1.62051 -0.503729 0
M  V30 7656 H 719.215 3.82176 -0.84009 0
M  V30 7657 H 718.838 3.87875 0.873979 0
M  V30 7658 N 719.835 0.176821 1.56605 0
M  V30 7659 C 720.798 -0.737429 2.17013 0
M  V30 7660 C 721.798 -1.15414 1.11965 0
M  V30 7661 O 722.988 -1.0702 1.37449 0
M  V30 7662 C 720.12 -2.00445 2.75744 0
M  V30 7663 H 721.313 -0.211455 2.99154 0
M  V30 7664 H 718.866 -0.0727582 1.56131 0
M  V30 7665 H 719.601 -2.57338 1.97352 0
M  V30 7666 H 719.386 -1.71456 3.52626 0
M  V30 7667 H 720.876 -2.65679 3.22187 0
M  V30 7668 N 721.313 -1.57302 -0.09688 0
M  V30 7669 C 722.538 -1.9058 -0.818169 0
M  V30 7670 C 722.963 -0.770921 -1.71576 0
M  V30 7671 O 722.321 0.277588 -1.79162 0
M  V30 7672 C 722.369 -3.22714 -1.60898 0
M  V30 7673 O 721.473 -3.10178 -2.71779 0
M  V30 7674 H 720.814 -0.624759 -0.224882 0
M  V30 7675 H 723.344 -2.04471 -0.07264 0
M  V30 7676 H 723.354 -3.55978 -1.99358 0
M  V30 7677 H 722.029 -4.04899 -0.950227 0
M  V30 7678 H 720.606 -2.88424 -2.3636 0
M  V30 7679 N 722.791 0.367657 -1.53252 0
M  V30 7680 C 724.039 1.10832 -1.68999 0
M  V30 7681 C 724.36 1.89894 -0.443306 0
M  V30 7682 O 723.63 1.88235 0.54262 0
M  V30 7683 H 722.21 0.412153 -0.623008 0
M  V30 7684 H 724.872 0.414775 -1.90435 0
M  V30 7685 H 723.968 1.7993 -2.55013 0
M  V30 7686 N 724.269 1.44576 0.627338 0
M  V30 7687 C 725.202 1.46206 1.75212 0
M  V30 7688 C 726.18 0.320483 1.5941 0
M  V30 7689 O 727.364 0.518028 1.81242 0
M  V30 7690 C 724.491 1.29834 3.12827 0
M  V30 7691 C 723.537 2.47603 3.47268 0
M  V30 7692 S 724.37 4.10125 3.44322 0
M  V30 7693 C 725.526 3.96183 4.84551 0
M  V30 7694 H 725.759 2.41378 1.73563 0
M  V30 7695 H 723.292 1.3192 0.802283 0
M  V30 7696 H 725.25 1.21075 3.92239 0
M  V30 7697 H 723.911 0.361662 3.12011 0
M  V30 7698 H 723.104 2.3202 4.47418 0
M  V30 7699 H 722.706 2.53121 2.75329 0
M  V30 7700 H 724.998 3.60107 5.73872 0
M  V30 7701 H 725.941 4.96176 5.05188 0
M  V30 7702 H 726.349 3.28177 4.59304 0
M  V30 7703 N 725.747 -0.868086 1.31537 0
M  V30 7704 C 726.677 -1.99131 1.21939 0
M  V30 7705 C 727.658 -1.69768 0.106166 0
M  V30 7706 O 728.843 -1.92006 0.291081 0
M  V30 7707 C 725.973 -3.34676 0.927879 0
M  V30 7708 C 724.927 -3.7835 2.00088 0
M  V30 7709 C 724.253 -5.11375 1.56203 0
M  V30 7710 C 725.553 -3.95256 3.41424 0
M  V30 7711 H 727.247 -2.07419 2.15911 0
M  V30 7712 H 724.793 -0.996569 1.03945 0
M  V30 7713 H 726.746 -4.12793 0.847327 0
M  V30 7714 H 725.47 -3.26565 -0.0475042 0
M  V30 7715 H 724.129 -3.02474 2.07135 0
M  V30 7716 H 723.777 -4.99709 0.57445 0
M  V30 7717 H 723.477 -5.41568 2.27985 0
M  V30 7718 H 725.001 -5.92001 1.49558 0
M  V30 7719 H 726.415 -4.63764 3.3704 0
M  V30 7720 H 724.812 -4.36849 4.1144 0
M  V30 7721 H 725.882 -2.98579 3.82072 0
M  V30 7722 N 727.225 -1.14528 -1.08264 0
M  V30 7723 C 728.455 -0.936604 -1.8415 0
M  V30 7724 C 728.863 0.518298 -1.81962 0
M  V30 7725 O 728.206 1.37096 -1.22272 0
M  V30 7726 C 728.268 -1.36182 -3.32708 0
M  V30 7727 C 727.932 -2.83257 -3.58629 0
M  V30 7728 C 728.929 -3.81366 -3.5335 0
M  V30 7729 C 726.614 -3.20704 -3.86593 0
M  V30 7730 C 728.608 -5.14929 -3.75668 0
M  V30 7731 C 726.295 -4.54443 -4.08564 0
M  V30 7732 C 727.293 -5.51365 -4.03095 0
M  V30 7733 O 726.981 -6.8269 -4.24488 0
M  V30 7734 H 726.713 -0.333254 -0.588148 0
M  V30 7735 H 729.267 -1.5247 -1.3763 0
M  V30 7736 H 727.497 -0.717063 -3.79994 0
M  V30 7737 H 729.186 -1.12372 -3.90035 0
M  V30 7738 H 729.952 -3.53781 -3.31759 0
M  V30 7739 H 725.831 -2.45857 -3.89969 0
M  V30 7740 H 729.375 -5.90568 -3.71315 0
M  V30 7741 H 725.272 -4.81747 -4.29639 0
M  V30 7742 H 726.04 -6.8897 -4.41886 0
M  V30 7743 N 728.703 1.26451 -0.940633 0
M  V30 7744 C 729.651 2.28389 -0.440581 0
M  V30 7745 C 730.645 1.62402 0.481859 0
M  V30 7746 O 731.851 1.76361 0.360132 0
M  V30 7747 H 728.226 0.741716 -0.123938 0
M  V30 7748 H 730.197 2.67967 -1.31288 0
M  V30 7749 C 728.946 3.46576 0.279364 0
M  V30 7750 H 728.269 3.97574 -0.421274 0
M  V30 7751 H 729.709 4.19826 0.59348 0
M  V30 7752 C 728.168 3.01815 1.49697 0
M  V30 7753 O 728.698 3.06607 2.59529 0
M  V30 7754 N 726.904 2.57163 1.35334 0
M  V30 7755 H 726.451 2.53464 0.459743 0
M  V30 7756 H 726.409 2.27578 2.16923 0
M  V30 7757 N 730.181 0.707592 1.40822 0
M  V30 7758 C 731.111 0.0644925 2.33411 0
M  V30 7759 C 732.092 -0.754205 1.52466 0
M  V30 7760 O 733.277 -0.704749 1.80961 0
M  V30 7761 C 730.407 -0.863865 3.36385 0
M  V30 7762 C 729.361 -0.15138 4.27732 0
M  V30 7763 C 728.687 -1.19491 5.21177 0
M  V30 7764 C 729.987 0.989607 5.12839 0
M  V30 7765 H 731.681 0.837829 2.87438 0
M  V30 7766 H 729.227 0.404346 1.38207 0
M  V30 7767 H 731.18 -1.32309 4.0009 0
M  V30 7768 H 729.904 -1.66901 2.80734 0
M  V30 7769 H 728.563 0.287937 3.65467 0
M  V30 7770 H 728.211 -1.9929 4.61836 0
M  V30 7771 H 727.911 -0.723123 5.83134 0
M  V30 7772 H 729.435 -1.6544 5.8776 0
M  V30 7773 H 730.849 0.610114 5.70044 0
M  V30 7774 H 729.246 1.38926 5.83798 0
M  V30 7775 H 730.316 1.82389 4.49291 0
M  V30 7776 N 731.66 -1.50943 0.453197 0
M  V30 7777 C 732.623 -2.26684 -0.338705 0
M  V30 7778 C 733.623 -1.30748 -0.936032 0
M  V30 7779 O 734.813 -1.54327 -0.808002 0
M  V30 7780 C 731.945 -3.07063 -1.48071 0
M  V30 7781 H 733.138 -2.98131 0.325289 0
M  V30 7782 H 730.691 -1.54926 0.206771 0
M  V30 7783 H 731.426 -2.4007 -2.18029 0
M  V30 7784 H 731.211 -3.77545 -1.0584 0
M  V30 7785 H 732.701 -3.64393 -2.0398 0
M  V30 7786 N 733.138 -0.185124 -1.56509 0
M  V30 7787 C 734.363 0.465278 -2.02114 0
M  V30 7788 C 734.788 1.55083 -1.06447 0
M  V30 7789 O 734.146 1.81241 -0.0462852 0
M  V30 7790 C 734.194 1.00784 -3.46229 0
M  V30 7791 O 733.298 2.12123 -3.53663 0
M  V30 7792 H 732.639 0.109891 -0.654843 0
M  V30 7793 H 735.169 -0.293072 -2.0249 0
M  V30 7794 H 735.179 1.32697 -3.85818 0
M  V30 7795 H 733.854 0.213113 -4.15354 0
M  V30 7796 H 732.431 1.8115 -3.25943 0
M  V30 7797 N 734.616 1.57351 0.0885366 0
M  V30 7798 C 735.579 2.01557 1.09121 0
M  V30 7799 C 736.579 0.910052 1.3257 0
M  V30 7800 O 737.769 1.17537 1.28572 0
M  V30 7801 C 734.901 2.38189 2.43883 0
M  V30 7802 H 736.094 2.91361 0.710562 0
M  V30 7803 H 733.647 1.52694 0.333779 0
M  V30 7804 H 734.382 1.5136 2.86811 0
M  V30 7805 H 734.167 3.18846 2.28209 0
M  V30 7806 H 735.657 2.73025 3.15986 0
M  V30 7807 N 736.094 -0.359525 1.53444 0
M  V30 7808 C 737.343 -1.09886 1.69139 0
M  V30 7809 C 737.656 -1.90285 0.452863 0
M  V30 7810 O 738.862 -2.67033 0.490459 0
M  V30 7811 C 737.318 -2.0028 2.99025 0
M  V30 7812 C 736.926 -1.25164 4.30161 0
M  V30 7813 C 738.67 -2.74168 3.24086 0
M  V30 7814 C 736.577 -2.14494 5.51132 0
M  V30 7815 H 735.507 -0.413936 0.630217 0
M  V30 7816 H 738.158 -0.359434 1.79945 0
M  V30 7817 H 736.54 -2.77978 2.82036 0
M  V30 7818 H 737.714 -0.524867 4.57801 0
M  V30 7819 H 736.029 -0.631116 4.11589 0
M  V30 7820 H 738.626 -3.41243 4.11652 0
M  V30 7821 H 738.969 -3.39868 2.40407 0
M  V30 7822 H 739.502 -2.0355 3.41778 0
M  V30 7823 H 736.241 -1.53362 6.37307 0
M  V30 7824 H 735.761 -2.85004 5.27762 0
M  V30 7825 H 737.44 -2.73914 5.86157 0
M  V30 7826 N 737.572 -1.44907 -0.619662 0
M  V30 7827 C 738.519 -1.52654 -1.73105 0
M  V30 7828 C 739.489 -0.373334 -1.6185 0
M  V30 7829 O 740.674 -0.585143 -1.81606 0
M  V30 7830 C 737.814 -1.48769 -3.11387 0
M  V30 7831 C 736.927 -2.74551 -3.33535 0
M  V30 7832 C 736.062 -2.62421 -4.61854 0
M  V30 7833 C 735.101 -3.83312 -4.77219 0
M  V30 7834 N 734.238 -3.69789 -5.96826 0
M  V30 7835 H 739.078 -2.47605 -1.65819 0
M  V30 7836 H 736.615 -1.22875 -0.808719 0
M  V30 7837 H 738.573 -1.44507 -3.91374 0
M  V30 7838 H 737.203 -0.573783 -3.1766 0
M  V30 7839 H 736.255 -2.88953 -2.47408 0
M  V30 7840 H 737.567 -3.64253 -3.40765 0
M  V30 7841 H 736.721 -2.56056 -5.50019 0
M  V30 7842 H 735.46 -1.70298 -4.57001 0
M  V30 7843 H 734.465 -3.90049 -3.87481 0
M  V30 7844 H 735.69 -4.76486 -4.83878 0
M  V30 7845 H 733.636 -2.80426 -5.93041 0
M  V30 7846 H 733.553 -4.53116 -6.05163 0
M  V30 7847 H 734.821 -3.67335 -6.87521 0
M  V30 7848 N 739.05 0.861098 -1.31996 0
M  V30 7849 C 740.28 1.64501 -1.24992 0
M  V30 7850 C 740.688 1.88288 0.185576 0
M  V30 7851 O 740.031 1.44756 1.131 0
M  V30 7852 C 740.093 3.03098 -1.93319 0
M  V30 7853 C 739.757 3.02381 -3.42658 0
M  V30 7854 C 740.754 2.79696 -4.38254 0
M  V30 7855 C 738.439 3.23221 -3.84491 0
M  V30 7856 C 740.433 2.77843 -5.73657 0
M  V30 7857 C 738.12 3.20996 -5.20005 0
M  V30 7858 C 739.118 2.98335 -6.14398 0
M  V30 7859 O 738.806 2.95971 -7.47433 0
M  V30 7860 H 738.538 0.519309 -0.432775 0
M  V30 7861 H 741.092 1.08241 -1.74565 0
M  V30 7862 H 739.322 3.61121 -1.38306 0
M  V30 7863 H 741.011 3.63751 -1.8011 0
M  V30 7864 H 741.777 2.63368 -4.07262 0
M  V30 7865 H 737.656 3.39887 -3.11445 0
M  V30 7866 H 741.2 2.60074 -6.47308 0
M  V30 7867 H 737.097 3.36865 -5.50629 0
M  V30 7868 H 737.865 3.1197 -7.56714 0
M  V30 7869 N 740.528 1.15101 1.07655 0
M  V30 7870 C 741.458 0.867864 2.16773 0
M  V30 7871 C 742.439 -0.180283 1.69142 0
M  V30 7872 O 743.624 -0.0353152 1.94168 0
M  V30 7873 C 740.754 0.35299 3.45501 0
M  V30 7874 C 739.708 1.33746 4.06566 0
M  V30 7875 C 739.034 0.681562 5.30338 0
M  V30 7876 C 740.334 2.7024 4.46954 0
M  V30 7877 H 742.028 1.78034 2.40716 0
M  V30 7878 H 739.574 0.857435 1.15689 0
M  V30 7879 H 741.527 0.142465 4.21159 0
M  V30 7880 H 740.251 -0.594945 3.21135 0
M  V30 7881 H 738.91 1.53429 3.32949 0
M  V30 7882 H 738.558 -0.272422 5.02262 0
M  V30 7883 H 738.258 1.33853 5.72151 0
M  V30 7884 H 739.782 0.48074 6.08705 0
M  V30 7885 H 741.196 2.5442 5.13754 0
M  V30 7886 H 739.593 3.32282 4.99709 0
M  V30 7887 H 740.663 3.26537 3.58471 0
M  V30 7888 N 742.006 -1.2595 0.947325 0
M  V30 7889 C 742.956 -2.23859 0.432547 0
M  V30 7890 C 743.94 -1.53755 -0.474154 0
M  V30 7891 O 745.132 -1.74293 -0.308397 0
M  V30 7892 C 742.261 -3.42027 -0.295318 0
M  V30 7893 C 741.347 -4.19409 0.62903 0
M  V30 7894 N 741.738 -4.74284 1.7575 0
M  V30 7895 C 740.036 -4.43866 0.435805 0
M  V30 7896 C 740.737 -5.32821 2.33401 0
M  V30 7897 N 739.713 -5.18858 1.62135 0
M  V30 7898 H 743.515 -2.63886 1.29388 0
M  V30 7899 H 741.029 -1.41105 0.80393 0
M  V30 7900 H 743.026 -4.11297 -0.681188 0
M  V30 7901 H 741.686 -3.03526 -1.15334 0
M  V30 7902 H 742.697 -4.71641 2.13952 0
M  V30 7903 H 739.374 -4.15768 -0.37994 0
M  V30 7904 H 740.764 -5.86111 3.28517 0
M  V30 7905 N 743.484 -0.715051 -1.40445 0
M  V30 7906 C 744.709 -0.26254 -2.05732 0
M  V30 7907 C 745.134 1.08691 -1.53519 0
M  V30 7908 O 744.492 1.68453 -0.670328 0
M  V30 7909 C 744.54 -0.25195 -3.59719 0
M  V30 7910 O 743.644 0.766998 -4.05205 0
M  V30 7911 H 742.985 -0.123398 -0.652433 0
M  V30 7912 H 745.515 -0.975382 -1.79854 0
M  V30 7913 H 745.525 -0.0894537 -4.07902 0
M  V30 7914 H 744.2 -1.23672 -3.97087 0
M  V30 7915 H 742.777 0.572269 -3.68483 0
M  V30 7916 N 744.962 1.50701 -0.461195 0
M  V30 7917 C 745.892 2.31182 0.328184 0
M  V30 7918 C 746.873 1.37644 0.999408 0
M  V30 7919 O 748.058 1.66565 0.99848 0
M  V30 7920 C 745.188 3.17113 1.41621 0
M  V30 7921 C 744.142 4.19124 0.867148 0
M  V30 7922 C 743.468 4.93728 2.05272 0
M  V30 7923 C 744.768 5.22174 -0.114808 0
M  V30 7924 H 746.462 2.97423 -0.343501 0
M  V30 7925 H 744.008 1.43033 -0.166641 0
M  V30 7926 H 745.961 3.72208 1.97584 0
M  V30 7927 H 744.685 2.48739 2.11652 0
M  V30 7928 H 743.344 3.65116 0.329557 0
M  V30 7929 H 742.992 4.21835 2.73978 0
M  V30 7930 H 742.692 5.62724 1.69161 0
M  V30 7931 H 744.216 5.51654 2.61744 0
M  V30 7932 H 745.63 5.72198 0.355316 0
M  V30 7933 H 744.027 5.98833 -0.389689 0
M  V30 7934 H 745.097 4.7353 -1.04391 0
M  V30 7935 N 746.441 0.193421 1.56409 0
M  V30 7936 C 747.389 -0.744829 2.20352 0
M  V30 7937 C 748.383 -1.22104 1.17418 0
M  V30 7938 O 749.589 -1.18413 1.35567 0
M  V30 7939 H 745.964 -0.258538 0.70616 0
M  V30 7940 H 747.935 -0.181794 2.97846 0
M  V30 7941 C 746.684 -1.95453 2.87565 0
M  V30 7942 H 746.007 -1.59716 3.66512 0
M  V30 7943 H 747.447 -2.58942 3.35745 0
M  V30 7944 C 745.906 -2.79223 1.8851 0
M  V30 7945 O 746.436 -3.77093 1.38434 0
M  V30 7946 N 744.642 -2.44682 1.56777 0
M  V30 7947 H 744.189 -1.65153 1.97692 0
M  V30 7948 H 744.147 -3.01016 0.907573 0
M  V30 7949 N 747.919 -1.57396 -0.0801906 0
M  V30 7950 C 749.168 -1.8602 -0.779702 0
M  V30 7951 C 749.481 -0.784864 -1.79163 0
M  V30 7952 O 750.687 -0.958691 -2.54011 0
M  V30 7953 C 749.143 -3.29942 -1.43758 0
M  V30 7954 C 748.751 -4.45584 -0.464654 0
M  V30 7955 C 750.495 -3.67775 -2.11995 0
M  V30 7956 C 748.402 -5.80544 -1.12797 0
M  V30 7957 H 747.332 -0.69392 -0.294943 0
M  V30 7958 H 749.983 -1.83471 -0.0328527 0
M  V30 7959 H 748.365 -3.27078 -2.2324 0
M  V30 7960 H 749.539 -4.59824 0.299749 0
M  V30 7961 H 747.854 -4.16247 0.112813 0
M  V30 7962 H 750.451 -4.65896 -2.62383 0
M  V30 7963 H 750.794 -2.9715 -2.91561 0
M  V30 7964 H 751.327 -3.72593 -1.39354 0
M  V30 7965 H 748.066 -6.54439 -0.372807 0
M  V30 7966 H 747.586 -5.70119 -1.86344 0
M  V30 7967 H 749.265 -6.25602 -1.6502 0
M  V30 7968 N 749.397 0.351382 -1.53633 0
M  V30 7969 C 750.643 1.09411 -1.70754 0
M  V30 7970 C 750.976 1.88544 -0.465293 0
M  V30 7971 O 750.251 1.86923 0.537608 0
M  V30 7972 C 750.534 2.04173 -2.96623 0
M  V30 7973 C 750.387 1.28556 -4.31038 0
M  V30 7974 C 751.706 3.04102 -3.18136 0
M  V30 7975 H 748.825 0.396373 -0.621335 0
M  V30 7976 H 751.467 0.373464 -1.86293 0
M  V30 7977 H 749.617 2.65625 -2.83506 0
M  V30 7978 H 751.289 0.697786 -4.55992 0
M  V30 7979 H 749.532 0.587498 -4.29803 0
M  V30 7980 H 750.203 1.97989 -5.15271 0
M  V30 7981 H 752.679 2.5276 -3.30532 0
M  V30 7982 H 751.555 3.67616 -4.07615 0
M  V30 7983 H 751.816 3.75053 -2.34068 0
M  V30 7984 N 750.875 1.45233 0.611969 0
M  V30 7985 C 751.825 1.49997 1.71711 0
M  V30 7986 C 752.809 0.363689 1.56736 0
M  V30 7987 O 754.001 0.610261 1.66147 0
M  V30 7988 C 751.13 1.46537 3.10454 0
M  V30 7989 C 750.216 2.65351 3.30831 0
M  V30 7990 N 750.607 3.90485 3.21489 0
M  V30 7991 C 748.905 2.60955 3.61688 0
M  V30 7992 C 749.606 4.69758 3.43078 0
M  V30 7993 N 748.582 4.01141 3.66861 0
M  V30 7994 H 752.384 2.44574 1.62975 0
M  V30 7995 H 749.898 1.40464 0.815082 0
M  V30 7996 H 751.895 1.48035 3.89732 0
M  V30 7997 H 750.555 0.530139 3.20343 0
M  V30 7998 H 751.566 4.22171 2.99987 0
M  V30 7999 H 748.243 1.76319 3.78441 0
M  V30 8000 H 749.633 5.7877 3.41285 0
M  V30 8001 N 752.353 -0.854086 1.3245 0
M  V30 8002 C 753.769 -1.14238 1.11453 0
M  V30 8003 C 753.969 -2.01228 -0.10461 0
M  V30 8004 O 753.025 -2.39845 -0.789339 0
M  V30 8005 C 754.338 -1.81916 2.39431 0
M  V30 8006 C 755.886 -1.94549 2.45193 0
M  V30 8007 C 756.361 -2.65642 3.73093 0
M  V30 8008 N 757.852 -2.73167 3.74078 0
M  V30 8009 C 758.587 -3.28828 4.69744 0
M  V30 8010 N 758.083 -3.85295 5.75778 0
M  V30 8011 N 759.876 -3.26936 4.57241 0
M  V30 8012 H 752.027 -0.274786 2.10615 0
M  V30 8013 H 754.29 -0.184375 0.929898 0
M  V30 8014 H 753.996 -1.25452 3.28565 0
M  V30 8015 H 753.87 -2.82068 2.50434 0
M  V30 8016 H 756.257 -2.50172 1.56518 0
M  V30 8017 H 756.338 -0.933914 2.38142 0
M  V30 8018 H 755.982 -2.10683 4.62142 0
M  V30 8019 H 755.912 -3.6724 3.77415 0
M  V30 8020 H 758.403 -2.33108 2.97438 0
M  V30 8021 H 758.716 -4.25925 6.44832 0
M  V30 8022 H 757.061 -3.83625 5.79531 0
M  V30 8023 H 760.252 -2.8207 3.7357 0
M  V30 8024 H 760.425 -3.70014 5.31971 0
M  V30 8025 N 753.831 -1.1567 -1.07043 0
M  V30 8026 C 755.108 -0.843948 -1.76456 0
M  V30 8027 C 755.488 0.659806 -2.00524 0
M  V30 8028 O 754.836 1.60518 -1.62623 0
M  V30 8029 C 755.046 -1.65822 -3.0709 0
M  V30 8030 C 756.394 -1.8664 -3.8138 0
M  V30 8031 O 757.418 -1.62624 -3.1691 0
M  V30 8032 O 756.277 -2.26884 -4.97178 0
M  V30 8033 H 753.371 -0.310677 -0.766426 0
M  V30 8034 H 755.917 -1.26266 -1.1338 0
M  V30 8035 H 754.689 -2.67902 -2.85209 0
M  V30 8036 H 754.312 -1.23605 -3.77899 0
M  V30 8037 N 755.309 1.25446 -0.953992 0
M  V30 8038 C 756.558 1.92441 -0.604101 0
M  V30 8039 C 756.871 1.75543 0.862796 0
M  V30 8040 O 758.077 2.37106 1.32262 0
M  V30 8041 C 756.533 3.44854 -1.02974 0
M  V30 8042 C 756.141 3.70464 -2.51914 0
M  V30 8043 C 757.885 4.1778 -0.752352 0
M  V30 8044 C 755.792 5.1638 -2.88281 0
M  V30 8045 H 754.722 0.720508 -0.222227 0
M  V30 8046 H 757.373 1.42318 -1.15836 0
M  V30 8047 H 755.755 3.93935 -0.403904 0
M  V30 8048 H 756.929 3.32038 -3.19511 0
M  V30 8049 H 755.244 3.10797 -2.77117 0
M  V30 8050 H 757.841 5.25261 -1.00024 0
M  V30 8051 H 758.184 4.15135 0.311212 0
M  V30 8052 H 758.717 3.74605 -1.33851 0
M  V30 8053 H 755.456 5.24135 -3.93653 0
M  V30 8054 H 754.976 5.55855 -2.25357 0
M  V30 8055 H 756.655 5.84497 -2.77439 0
M  V30 8056 N 756.787 0.722489 1.40064 0
M  V30 8057 C 757.734 0.0743738 2.3068 0
M  V30 8058 C 758.704 -0.743004 1.48555 0
M  V30 8059 O 759.889 -0.705536 1.77276 0
M  V30 8060 C 757.029 -0.836292 3.34814 0
M  V30 8061 C 756.142 -0.00764663 4.31999 0
M  V30 8062 C 755.277 -0.918428 5.232 0
M  V30 8063 C 754.316 -0.0842838 6.12042 0
M  V30 8064 N 753.453 -0.950316 6.95639 0
M  V30 8065 H 758.293 0.852794 2.85537 0
M  V30 8066 H 755.83 0.432222 1.40607 0
M  V30 8067 H 757.788 -1.3786 3.93765 0
M  V30 8068 H 756.418 -1.58082 2.81443 0
M  V30 8069 H 755.47 0.651928 3.74772 0
M  V30 8070 H 756.782 0.63786 4.94705 0
M  V30 8071 H 755.936 -1.52902 5.87116 0
M  V30 8072 H 754.675 -1.59774 4.60786 0
M  V30 8073 H 753.68 0.5392 5.4715 0
M  V30 8074 H 754.905 0.591628 6.76518 0
M  V30 8075 H 752.851 -1.61515 6.35806 0
M  V30 8076 H 752.768 -0.361004 7.55138 0
M  V30 8077 H 754.036 -1.54687 7.63997 0
M  V30 8078 N 758.265 -1.50454 0.469181 0
M  V30 8079 C 759.676 -1.86695 0.0136034 0
M  V30 8080 C 760.027 -1.38413 -1.39055 0
M  V30 8081 O 759.152 -0.748294 -2.03051 0
M  V30 8082 C 759.747 -3.38795 0.0179098 0
M  V30 8083 C 758.306 -3.74455 -0.382191 0
M  V30 8084 C 757.453 -2.74338 0.404207 0
M  V30 8085 H 760.404 -1.43225 0.683547 0
M  V30 8086 H 760.425 -3.72321 -0.78468 0
M  V30 8087 H 759.937 -3.73906 1.04 0
M  V30 8088 H 758.038 -3.44944 -1.4087 0
M  V30 8089 H 758.151 -4.79025 -0.084862 0
M  V30 8090 H 756.515 -2.54305 -0.141829 0
M  V30 8091 H 757.298 -3.12293 1.42577 0
M  V30 8092 N 759.743 -0.201713 -1.56304 0
M  V30 8093 C 760.653 0.728296 -2.23009 0
M  V30 8094 C 761.669 1.22945 -1.23128 0
M  V30 8095 O 762.845 1.27523 -1.55884 0
M  V30 8096 C 759.91 1.92792 -2.88153 0
M  V30 8097 C 758.971 1.47068 -4.03323 0
M  V30 8098 C 758.204 2.61312 -4.65351 0
M  V30 8099 O 758.427 3.7896 -4.26317 0
M  V30 8100 O 757.361 2.33646 -5.54701 0
M  V30 8101 H 761.187 0.190166 -3.03104 0
M  V30 8102 H 758.772 0.0278725 -1.49374 0
M  V30 8103 H 760.654 2.6289 -3.29343 0
M  V30 8104 H 759.329 2.45452 -2.11033 0
M  V30 8105 H 758.236 0.738299 -3.66742 0
M  V30 8106 H 759.569 0.990666 -4.82127 0
M  V30 8107 N 761.222 1.57436 0.0718424 0
M  V30 8108 C 762.17 2.04725 1.10411 0
M  V30 8109 C 763.164 0.952579 1.4008 0
M  V30 8110 O 764.37 1.13769 1.39487 0
M  V30 8111 H 760.745 0.652749 0.373393 0
M  V30 8112 H 762.716 2.90569 0.679126 0
M  V30 8113 C 761.465 2.5068 2.40946 0
M  V30 8114 H 760.788 3.34505 2.18967 0
M  V30 8115 H 762.228 2.87521 3.11621 0
M  V30 8116 C 760.687 1.38971 3.06902 0
M  V30 8117 O 761.217 0.731786 3.94978 0
M  V30 8118 N 759.423 1.13485 2.67525 0
M  V30 8119 H 758.97 1.67168 1.95991 0
M  V30 8120 H 758.928 0.389467 3.11978 0
M  V30 8121 N 762.7 -0.34323 1.53817 0
M  V30 8122 C 763.63 -1.42709 1.84814 0
M  V30 8123 C 764.611 -1.5488 0.703297 0
M  V30 8124 O 765.796 -1.69082 0.955237 0
M  V30 8125 C 762.926 -2.79756 2.05801 0
M  V30 8126 C 761.88 -2.82392 3.21619 0
M  V30 8127 C 761.206 -4.22326 3.2794 0
M  V30 8128 C 762.506 -2.479 4.59721 0
M  V30 8129 H 764.2 -1.17018 2.75585 0
M  V30 8130 H 761.746 -0.561485 1.32602 0
M  V30 8131 H 763.699 -3.55627 2.26069 0
M  V30 8132 H 762.423 -3.06883 1.11761 0
M  V30 8133 H 761.082 -2.08974 3.01207 0
M  V30 8134 H 760.73 -4.46564 2.31494 0
M  V30 8135 H 760.43 -4.25001 4.05768 0
M  V30 8136 H 761.954 -5.00039 3.50419 0
M  V30 8137 H 763.368 -3.13484 4.80001 0
M  V30 8138 H 761.765 -2.61857 5.39954 0
M  V30 8139 H 762.835 -1.43087 4.63308 0
M  V30 8140 N 764.178 -1.45556 -0.604258 0
M  V30 8141 C 765.108 -1.57327 -1.72541 0
M  V30 8142 C 766.089 -0.424637 -1.64714 0
M  V30 8143 O 767.274 -0.648196 -1.83063 0
M  V30 8144 C 764.404 -1.54279 -3.11152 0
M  V30 8145 C 763.358 -2.67893 -3.33792 0
M  V30 8146 C 762.684 -2.499 -4.72709 0
M  V30 8147 C 763.984 -4.0988 -3.23722 0
M  V30 8148 H 765.678 -2.51175 -1.62947 0
M  V30 8149 H 763.224 -1.20884 -0.782504 0
M  V30 8150 H 765.177 -1.6111 -3.89386 0
M  V30 8151 H 763.901 -0.569627 -3.21594 0
M  V30 8152 H 762.56 -2.60495 -2.57949 0
M  V30 8153 H 762.208 -1.50715 -4.79889 0
M  V30 8154 H 761.908 -3.26091 -4.88813 0
M  V30 8155 H 763.432 -2.5859 -5.5314 0
M  V30 8156 H 764.846 -4.18503 -3.91826 0
M  V30 8157 H 763.243 -4.86487 -3.51355 0
M  V30 8158 H 764.313 -4.31553 -2.21111 0
M  V30 8159 N 765.656 0.84705 -1.32902 0
M  V30 8160 C 766.902 1.60414 -1.24078 0
M  V30 8161 C 767.235 1.93217 0.195105 0
M  V30 8162 O 766.51 1.58001 1.13428 0
M  V30 8163 C 766.793 2.91951 -2.108 0
M  V30 8164 C 766.646 2.6588 -3.62805 0
M  V30 8165 C 767.965 3.93299 -1.97494 0
M  V30 8166 H 765.084 0.58206 -0.452079 0
M  V30 8167 H 767.726 0.977562 -1.62922 0
M  V30 8168 H 765.876 3.45425 -1.77802 0
M  V30 8169 H 767.548 2.18902 -4.06054 0
M  V30 8170 H 765.791 1.99716 -3.85092 0
M  V30 8171 H 766.462 3.59574 -4.1882 0
M  V30 8172 H 768.938 3.49105 -2.26417 0
M  V30 8173 H 767.814 4.8318 -2.60438 0
M  V30 8174 H 768.075 4.31887 -0.944782 0
M  V30 8175 N 767.134 1.16236 1.06428 0
M  V30 8176 C 768.364 0.965782 1.82637 0
M  V30 8177 C 768.772 -0.489284 1.82764 0
M  V30 8178 O 768.115 -1.35133 1.24438 0
M  V30 8179 C 768.177 1.41458 3.30499 0
M  V30 8180 C 767.841 2.88926 3.54077 0
M  V30 8181 C 768.838 3.86939 3.47238 0
M  V30 8182 C 766.523 3.26814 3.81442 0
M  V30 8183 C 768.517 5.20841 3.67428 0
M  V30 8184 C 766.204 4.60886 4.01282 0
M  V30 8185 C 767.202 5.57708 3.94272 0
M  V30 8186 O 766.89 6.89357 4.13573 0
M  V30 8187 H 766.622 0.342569 0.582772 0
M  V30 8188 H 769.176 1.54641 1.35187 0
M  V30 8189 H 767.406 0.777426 3.78805 0
M  V30 8190 H 769.095 1.18563 3.88198 0
M  V30 8191 H 769.861 3.59014 3.26089 0
M  V30 8192 H 765.74 2.5203 3.86008 0
M  V30 8193 H 769.284 5.96401 3.61873 0
M  V30 8194 H 765.181 4.88522 4.21921 0
M  V30 8195 H 765.949 6.95913 4.30869 0
M  V30 8196 N 768.612 -1.24939 0.960631 0
M  V30 8197 C 769.522 -2.29374 0.492435 0
M  V30 8198 C 770.538 -1.68262 -0.443154 0
M  V30 8199 O 771.714 -1.98875 -0.31793 0
M  V30 8200 C 768.779 -3.46023 -0.216626 0
M  V30 8201 C 767.84 -4.22557 0.757915 0
M  V30 8202 C 767.073 -5.33636 0.0825969 0
M  V30 8203 O 767.296 -5.59084 -1.13054 0
M  V30 8204 O 766.23 -5.96939 0.771177 0
M  V30 8205 H 770.056 -2.71525 1.36044 0
M  V30 8206 H 767.641 -1.30499 0.72735 0
M  V30 8207 H 769.523 -4.16885 -0.615241 0
M  V30 8208 H 768.198 -3.05862 -1.05971 0
M  V30 8209 H 767.105 -3.54099 1.20685 0
M  V30 8210 H 768.438 -4.66516 1.5692 0
M  V30 8211 N 770.09 -0.729906 -1.39679 0
M  V30 8212 C 771.04 -0.0627678 -2.27914 0
M  V30 8213 C 772.024 0.717867 -1.43998 0
M  V30 8214 O 773.216 0.587713 -1.66958 0
M  V30 8215 C 770.345 0.847564 -3.32673 0
M  V30 8216 C 769.431 0.0613515 -4.24056 0
M  V30 8217 N 769.822 -0.962863 -4.96551 0
M  V30 8218 C 768.12 0.291773 -4.45045 0
M  V30 8219 C 768.821 -1.43652 -5.63683 0
M  V30 8220 N 767.797 -0.756044 -5.38317 0
M  V30 8221 H 771.599 -0.847545 -2.81414 0
M  V30 8222 H 769.113 -0.563776 -1.523 0
M  V30 8223 H 771.11 1.34094 -3.94746 0
M  V30 8224 H 769.77 1.63156 -2.80732 0
M  V30 8225 H 770.781 -1.34409 -5.00154 0
M  V30 8226 H 767.458 1.05097 -4.04056 0
M  V30 8227 H 768.848 -2.28835 -6.31731 0
M  V30 8228 N 771.568 1.50203 -0.477153 0
M  V30 8229 C 772.5 2.26508 0.350239 0
M  V30 8230 C 773.513 1.32081 0.95176 0
M  V30 8231 O 774.702 1.57546 0.839139 0
M  V30 8232 C 771.802 3.0361 1.50579 0
M  V30 8233 C 770.975 4.25438 1.01595 0
M  V30 8234 C 770.034 4.84783 2.04626 0
M  V30 8235 O 769.06 5.45528 1.62442 0
M  V30 8236 N 770.262 4.72318 3.37485 0
M  V30 8237 H 773.027 2.98155 -0.30394 0
M  V30 8238 H 770.588 1.58938 -0.308289 0
M  V30 8239 H 772.58 3.4019 2.1921 0
M  V30 8240 H 771.15 2.34724 2.06455 0
M  V30 8241 H 770.37 3.93894 0.155316 0
M  V30 8242 H 771.658 5.04413 0.666694 0
M  V30 8243 H 771.056 4.24022 3.74462 0
M  V30 8244 H 769.613 5.13149 4.01897 0
M  V30 8245 N 773.046 0.209999 1.56195 0
M  V30 8246 C 774.323 -0.473214 1.89789 0
M  V30 8247 C 774.703 -1.78581 1.1257 0
M  V30 8248 O 774.051 -2.27325 0.231398 0
M  V30 8249 C 774.261 -0.677458 3.42362 0
M  V30 8250 C 775.609 -0.990114 4.12895 0
M  V30 8251 O 776.633 -0.764655 3.47896 0
M  V30 8252 O 775.492 -1.41737 5.278 0
M  V30 8253 H 772.586 -0.248622 0.788743 0
M  V30 8254 H 775.132 0.251324 1.67829 0
M  V30 8255 H 773.904 0.248878 3.90508 0
M  V30 8256 H 773.527 -1.45391 3.70064 0
M  V30 8257 N 774.524 -1.57472 -0.0634922 0
M  V30 8258 C 775.772 -1.87283 -0.759563 0
M  V30 8259 C 776.093 -0.803135 -1.77693 0
M  V30 8260 O 775.363 0.167293 -1.95184 0
M  V30 8261 H 773.943 -0.691106 -0.283516 0
M  V30 8262 H 776.605 -1.94864 -0.0376091 0
M  V30 8263 H 775.701 -2.85064 -1.27062 0
M  V30 8264 N 776.003 0.335068 -1.53997 0
M  V30 8265 C 777.228 1.09859 -1.75914 0
M  V30 8266 C 777.653 1.81308 -0.500915 0
M  V30 8267 O 777.011 1.72854 0.54693 0
M  V30 8268 C 777.059 2.08122 -2.94478 0
M  V30 8269 O 776.163 3.15805 -2.65219 0
M  V30 8270 H 775.504 0.317313 -0.583274 0
M  V30 8271 H 778.034 0.382872 -2.00986 0
M  V30 8272 H 778.044 2.51195 -3.21504 0
M  V30 8273 H 776.719 1.55517 -3.8573 0
M  V30 8274 H 775.296 2.77489 -2.49107 0
M  V30 8275 N 777.481 1.45874 0.596531 0
M  V30 8276 C 778.428 1.55389 1.70655 0
M  V30 8277 C 779.398 0.399036 1.61236 0
M  V30 8278 O 780.583 0.61396 1.80652 0
M  V30 8279 C 777.723 1.53705 3.0898 0
M  V30 8280 C 776.836 2.79823 3.29125 0
M  V30 8281 C 775.971 2.69735 4.5762 0
M  V30 8282 C 775.01 3.90856 4.71061 0
M  V30 8283 N 774.147 3.79237 5.90867 0
M  V30 8284 H 778.987 2.50211 1.61859 0
M  V30 8285 H 776.524 1.24146 0.789069 0
M  V30 8286 H 778.482 1.50715 3.89026 0
M  V30 8287 H 777.112 0.624247 3.16706 0
M  V30 8288 H 776.164 2.92852 2.42779 0
M  V30 8289 H 777.476 3.69628 3.34927 0
M  V30 8290 H 776.63 2.64773 5.45875 0
M  V30 8291 H 775.369 1.77547 4.54234 0
M  V30 8292 H 774.374 3.96164 3.81227 0
M  V30 8293 H 775.599 4.84124 4.76236 0
M  V30 8294 H 773.545 2.89825 5.88504 0
M  V30 8295 H 773.462 4.62686 5.97877 0
M  V30 8296 H 774.73 3.78227 6.8159 0
M  V30 8297 N 778.959 -0.83999 1.33349 0
M  V30 8298 C 780.184 -1.63249 1.27924 0
M  V30 8299 C 780.609 -1.87523 -0.147193 0
M  V30 8300 O 779.967 -1.43853 -1.10345 0
M  V30 8301 C 780.015 -2.96046 2.05886 0
M  V30 8302 O 779.119 -3.87303 1.4167 0
M  V30 8303 H 778.46 -0.49715 0.440157 0
M  V30 8304 H 780.99 -1.04512 1.75893 0
M  V30 8305 H 781 -3.45752 2.16609 0
M  V30 8306 H 779.675 -2.77701 3.09605 0
M  V30 8307 H 778.252 -3.45789 1.39585 0
M  V30 8308 N 780.437 -1.16799 -1.0581 0
M  V30 8309 C 781.367 -0.902241 -2.15364 0
M  V30 8310 C 782.348 0.153351 -1.69407 0
M  V30 8311 O 783.533 0.00442032 -1.94199 0
M  V30 8312 C 780.663 -0.407911 -3.44896 0
M  V30 8313 C 779.617 -1.40197 -4.04387 0
M  V30 8314 C 778.943 -0.765848 -5.29187 0
M  V30 8315 C 780.243 -2.77316 -4.42598 0
M  V30 8316 H 781.937 -1.81841 -2.37853 0
M  V30 8317 H 779.483 -0.875731 -1.14311 0
M  V30 8318 H 781.436 -0.20945 -4.20879 0
M  V30 8319 H 780.16 0.54378 -3.22041 0
M  V30 8320 H 778.819 -1.58707 -3.30466 0
M  V30 8321 H 778.467 0.192482 -5.02632 0
M  V30 8322 H 778.167 -1.42939 -5.69949 0
M  V30 8323 H 779.691 -0.577519 -6.07863 0
M  V30 8324 H 781.105 -2.62561 -5.09642 0
M  V30 8325 H 779.502 -3.4019 -4.94359 0
M  V30 8326 H 780.572 -3.32199 -3.53231 0
M  V30 8327 N 781.915 1.24427 -0.967243 0
M  V30 8328 C 782.862 2.25398 -0.496419 0
M  V30 8329 C 783.832 1.59667 0.457781 0
M  V30 8330 O 785.017 1.87213 0.368246 0
M  V30 8331 C 782.157 3.44474 0.207693 0
M  V30 8332 C 781.27 4.24804 -0.785221 0
M  V30 8333 C 780.405 5.31169 -0.0572631 0
M  V30 8334 C 779.444 6.03195 -1.04027 0
M  V30 8335 N 778.581 7.01265 -0.34235 0
M  V30 8336 H 783.421 2.65039 -1.36229 0
M  V30 8337 H 780.958 1.30288 -0.682902 0
M  V30 8338 H 782.916 4.12376 0.632612 0
M  V30 8339 H 781.546 3.05672 1.03752 0
M  V30 8340 H 780.598 3.56445 -1.32858 0
M  V30 8341 H 781.91 4.74599 -1.53483 0
M  V30 8342 H 781.064 6.05205 0.425674 0
M  V30 8343 H 779.803 4.8228 0.725047 0
M  V30 8344 H 778.808 5.27964 -1.53409 0
M  V30 8345 H 780.033 6.54173 -1.82302 0
M  V30 8346 H 777.979 6.54648 0.420993 0
M  V30 8347 H 777.896 7.48939 -1.03084 0
M  V30 8348 H 779.164 7.7941 0.118634 0
M  V30 8349 N 783.393 0.737304 1.3929 0
M  V30 8350 C 784.323 0.113988 2.33222 0
M  V30 8351 C 785.304 -0.721695 1.54031 0
M  V30 8352 O 786.489 -0.666206 1.82415 0
M  V30 8353 C 783.619 -0.792319 3.38141 0
M  V30 8354 C 782.573 -0.0606178 4.27957 0
M  V30 8355 C 781.899 -1.08409 5.23595 0
M  V30 8356 C 783.199 1.09817 5.10625 0
M  V30 8357 H 784.893 0.898611 2.85596 0
M  V30 8358 H 782.439 0.433571 1.37318 0
M  V30 8359 H 784.392 -1.23793 4.02807 0
M  V30 8360 H 783.116 -1.60908 2.84211 0
M  V30 8361 H 781.775 0.365393 3.64775 0
M  V30 8362 H 781.423 -1.89449 4.6596 0
M  V30 8363 H 781.123 -0.599269 5.84536 0
M  V30 8364 H 782.647 -1.52936 5.91137 0
M  V30 8365 H 784.061 0.730892 5.68622 0
M  V30 8366 H 782.458 1.51278 5.80719 0
M  V30 8367 H 783.528 1.91878 4.45321 0
M  V30 8368 N 784.871 -1.49948 0.485112 0
M  V30 8369 C 786.119 -2.01996 -0.0648775 0
M  V30 8370 C 786.44 -1.36819 -1.38945 0
M  V30 8371 O 785.71 -0.518163 -1.88923 0
M  V30 8372 H 784.29 -0.746513 -0.0269662 0
M  V30 8373 H 786.952 -1.84136 0.638733 0
M  V30 8374 H 786.048 -3.11418 -0.20617 0
M  V30 8375 N 786.349 -0.21828 -1.56081 0
M  V30 8376 C 787.626 0.463143 -1.90038 0
M  V30 8377 C 788.006 1.77982 -1.13515 0
M  V30 8378 O 787.354 2.27199 -0.24345 0
M  V30 8379 C 787.564 0.659292 -3.42716 0
M  V30 8380 C 788.912 0.968203 -4.13414 0
M  V30 8381 O 789.936 0.746195 -3.48296 0
M  V30 8382 O 788.795 1.38936 -5.28544 0
M  V30 8383 H 785.889 0.244435 -0.790051 0
M  V30 8384 H 788.435 -0.260221 -1.67693 0
M  V30 8385 H 787.207 -0.269584 -3.9037 0
M  V30 8386 H 786.83 1.43426 -3.7083 0
M  V30 8387 N 787.827 1.57504 0.0551401 0
M  V30 8388 C 789.074 1.88055 0.751104 0
M  V30 8389 C 789.402 0.812231 1.76729 0
M  V30 8390 O 788.657 -0.189918 1.94776 0
M  V30 8391 C 788.956 3.25311 1.48013 0
M  V30 8392 C 788.622 4.46858 0.602375 0
M  V30 8393 C 787.284 4.79847 0.360536 0
M  V30 8394 C 789.636 5.212 -0.00524047 0
M  V30 8395 C 786.964 5.84582 -0.498127 0
M  V30 8396 C 789.316 6.26844 -0.851453 0
M  V30 8397 C 787.98 6.58324 -1.103 0
M  V30 8398 H 787.25 0.688142 0.274848 0
M  V30 8399 H 789.897 1.91497 0.0114795 0
M  V30 8400 H 788.202 3.17737 2.29239 0
M  V30 8401 H 789.899 3.46189 2.02371 0
M  V30 8402 H 786.489 4.21049 0.801007 0
M  V30 8403 H 790.673 4.96013 0.168682 0
M  V30 8404 H 785.929 6.07361 -0.701594 0
M  V30 8405 H 790.103 6.83603 -1.32893 0
M  V30 8406 H 787.73 7.39304 -1.77011 0
M  V30 8407 N 789.305 -0.326896 1.54172 0
M  V30 8408 C 790.553 -1.06313 1.71878 0
M  V30 8409 C 790.874 -1.88652 0.493498 0
M  V30 8410 O 790.144 -1.89608 -0.492522 0
M  V30 8411 H 788.724 -0.39549 0.633716 0
M  V30 8412 H 791.386 -0.364139 1.91468 0
M  V30 8413 H 790.482 -1.73105 2.59694 0
M  V30 8414 N 790.784 -1.46188 -0.588786 0
M  V30 8415 C 791.714 -1.59148 -1.70863 0
M  V30 8416 C 792.695 -0.442083 -1.64255 0
M  V30 8417 O 793.88 -0.667575 -1.82365 0
M  V30 8418 C 791.01 -1.5757 -3.09498 0
M  V30 8419 C 789.964 -2.71418 -3.30932 0
M  V30 8420 C 789.29 -2.549 -4.70032 0
M  V30 8421 C 790.59 -4.1329 -3.19356 0
M  V30 8422 H 792.284 -2.52889 -1.60274 0
M  V30 8423 H 789.83 -1.21707 -0.769638 0
M  V30 8424 H 791.783 -1.65231 -3.87655 0
M  V30 8425 H 790.507 -0.603705 -3.20972 0
M  V30 8426 H 789.166 -2.63216 -2.55172 0
M  V30 8427 H 788.814 -1.55797 -4.78264 0
M  V30 8428 H 788.514 -3.31257 -4.85327 0
M  V30 8429 H 790.038 -2.64443 -5.50366 0
M  V30 8430 H 791.452 -4.22636 -3.87365 0
M  V30 8431 H 789.849 -4.90187 -3.46175 0
M  V30 8432 H 790.919 -4.33874 -2.16522 0
M  V30 8433 N 792.262 0.832906 -1.33792 0
M  V30 8434 C 793.225 1.92471 -1.24449 0
M  V30 8435 C 794.225 1.59981 -0.162085 0
M  V30 8436 O 795.415 1.69208 -0.414029 0
M  V30 8437 C 792.547 3.28278 -0.919044 0
M  V30 8438 H 793.74 2.0218 -2.21502 0
M  V30 8439 H 791.293 1.0257 -1.17936 0
M  V30 8440 H 792.028 3.24263 0.048738 0
M  V30 8441 H 791.813 3.53241 -1.70187 0
M  V30 8442 H 793.303 4.08253 -0.878576 0
M  V30 8443 N 793.74 1.17359 1.05189 0
M  V30 8444 C 794.968 0.986529 1.81866 0
M  V30 8445 C 795.383 -0.46522 1.82979 0
M  V30 8446 O 794.74 -1.32305 1.25705 0
M  V30 8447 C 794.791 1.52021 3.27982 0
M  V30 8448 O 794.512 2.91511 3.27037 0
M  V30 8449 C 796.013 1.37774 4.21347 0
M  V30 8450 H 793.233 0.349021 0.573084 0
M  V30 8451 H 795.777 1.55648 1.32643 0
M  V30 8452 H 793.932 0.992287 3.74476 0
M  V30 8453 H 794.346 3.16178 4.18488 0
M  V30 8454 H 795.82 1.7993 5.21852 0
M  V30 8455 H 796.297 0.32483 4.37997 0
M  V30 8456 H 796.903 1.89583 3.80708 0
M  V30 8457 N 795.218 -1.23913 0.973828 0
M  V30 8458 C 796.467 -1.91455 0.63464 0
M  V30 8459 C 796.78 -1.76893 -0.834759 0
M  V30 8460 O 797.986 -2.3918 -1.28473 0
M  V30 8461 C 796.442 -3.43172 1.08447 0
M  V30 8462 C 796.05 -3.66409 2.57776 0
M  V30 8463 C 797.794 -4.1653 0.818721 0
M  V30 8464 C 795.701 -5.11728 2.9646 0
M  V30 8465 H 794.631 -0.716881 0.233661 0
M  V30 8466 H 797.282 -1.40457 1.18085 0
M  V30 8467 H 795.664 -3.93242 0.466524 0
M  V30 8468 H 796.838 -3.26913 3.24753 0
M  V30 8469 H 795.153 -3.06349 2.82027 0
M  V30 8470 H 797.75 -5.23603 1.08367 0
M  V30 8471 H 798.093 -4.15578 -0.245128 0
M  V30 8472 H 798.626 -3.72428 1.39793 0
M  V30 8473 H 795.365 -5.17806 4.01941 0
M  V30 8474 H 794.885 -5.52199 2.34172 0
M  V30 8475 H 796.564 -5.80009 2.86703 0
M  V30 8476 N 796.696 -0.74468 -1.38897 0
M  V30 8477 C 797.942 -0.297324 -2.00609 0
M  V30 8478 C 798.275 1.11547 -1.58968 0
M  V30 8479 O 797.55 1.76227 -0.823057 0
M  V30 8480 C 797.833 -0.410125 -3.57757 0
M  V30 8481 C 797.686 -1.86338 -4.09387 0
M  V30 8482 C 799.005 0.20176 -4.39637 0
M  V30 8483 H 796.124 -0.109509 -0.728819 0
M  V30 8484 H 798.766 -0.942653 -1.64967 0
M  V30 8485 H 796.916 0.139287 -3.8825 0
M  V30 8486 H 798.588 -2.47042 -3.89574 0
M  V30 8487 H 796.831 -2.38146 -3.62586 0
M  V30 8488 H 797.502 -1.89352 -5.18507 0
M  V30 8489 H 799.978 -0.266703 -4.15244 0
M  V30 8490 H 798.854 0.0925415 -5.48822 0
M  V30 8491 H 799.115 1.289 -4.22891 0
M  V30 8492 N 798.174 1.49689 -0.493057 0
M  V30 8493 C 799.451 1.9525 0.116907 0
M  V30 8494 C 799.831 1.43429 1.54892 0
M  V30 8495 O 799.179 0.644621 2.19219 0
M  V30 8496 C 799.389 3.4898 0.037705 0
M  V30 8497 C 800.737 4.24052 0.215621 0
M  V30 8498 O 801.761 3.5602 0.113266 0
M  V30 8499 O 800.62 5.44847 0.42477 0
M  V30 8500 H 797.714 0.820973 0.099662 0
M  V30 8501 H 800.26 1.60367 -0.555029 0
M  V30 8502 H 799.032 3.79309 -0.961251 0
M  V30 8503 H 798.655 3.9046 0.750137 0
M  V30 8504 N 799.652 0.226554 1.55963 0
M  V30 8505 C 800.9 -0.402991 1.98041 0
M  V30 8506 C 801.221 -1.59938 1.11557 0
M  V30 8507 O 800.491 -1.9494 0.193719 0
M  V30 8508 H 799.071 -0.15188 0.731397 0
M  V30 8509 H 801.733 0.320613 1.92245 0
M  V30 8510 H 800.829 -0.725937 3.0354 0
M  V30 8511 N 801.13 -1.57531 -0.0467866 0
M  V30 8512 C 802.541 -1.76945 -0.595603 0
M  V30 8513 C 802.892 -0.855354 -1.76573 0
M  V30 8514 O 802.017 -0.045668 -2.16352 0
M  V30 8515 C 802.612 -3.20881 -1.08725 0
M  V30 8516 C 801.171 -3.41553 -1.58172 0
M  V30 8517 C 800.318 -2.72533 -0.511968 0
M  V30 8518 H 803.269 -1.57682 0.179436 0
M  V30 8519 H 803.29 -3.26419 -1.95528 0
M  V30 8520 H 802.802 -3.87385 -0.235398 0
M  V30 8521 H 800.903 -2.80199 -2.456 0
M  V30 8522 H 801.016 -4.50104 -1.64143 0
M  V30 8523 H 799.38 -2.35797 -0.962899 0
M  V30 8524 H 800.163 -3.41709 0.330117 0
M  V30 8525 N 802.608 0.318715 -1.54344 0
M  V30 8526 C 803.538 1.39751 -1.87061 0
M  V30 8527 C 804.519 1.53741 -0.727848 0
M  V30 8528 O 805.704 1.67541 -0.982016 0
M  V30 8529 C 802.834 2.76446 -2.10226 0
M  V30 8530 C 801.788 2.77239 -3.26071 0
M  V30 8531 C 801.114 4.17056 -3.34617 0
M  V30 8532 C 802.414 2.40555 -4.63606 0
M  V30 8533 H 804.108 1.12619 -2.77412 0
M  V30 8534 H 801.654 0.540318 -1.33479 0
M  V30 8535 H 803.607 3.51985 -2.31699 0
M  V30 8536 H 802.331 3.05066 -1.16629 0
M  V30 8537 H 800.99 2.04155 -3.04493 0
M  V30 8538 H 800.638 4.42824 -2.3857 0
M  V30 8539 H 800.338 4.18492 -4.12478 0
M  V30 8540 H 801.862 4.94401 -3.5833 0
M  V30 8541 H 803.276 3.05808 -4.84927 0
M  V30 8542 H 801.673 2.53234 -5.44052 0
M  V30 8543 H 802.743 1.35698 -4.65526 0
M  V30 8544 N 804.086 1.46499 0.581025 0
M  V30 8545 C 805.316 1.55244 1.36319 0
M  V30 8546 C 805.724 0.193059 1.88212 0
M  V30 8547 O 805.067 -0.820109 1.64377 0
M  V30 8548 C 805.129 2.498 2.58535 0
M  V30 8549 C 804.793 3.96007 2.28096 0
M  V30 8550 C 805.79 4.85171 1.8683 0
M  V30 8551 C 803.475 4.41152 2.40189 0
M  V30 8552 C 805.469 6.17493 1.58053 0
M  V30 8553 C 803.156 5.73508 2.11024 0
M  V30 8554 C 804.154 6.615 1.70021 0
M  V30 8555 O 803.842 7.914 1.41215 0
M  V30 8556 H 803.574 0.527513 0.422736 0
M  V30 8557 H 806.128 1.92623 0.713139 0
M  V30 8558 H 804.358 2.07443 3.2635 0
M  V30 8559 H 806.047 2.48934 3.20604 0
M  V30 8560 H 806.813 4.51548 1.77001 0
M  V30 8561 H 802.692 3.72886 2.71066 0
M  V30 8562 H 806.236 6.86131 1.25974 0
M  V30 8563 H 802.133 6.06679 2.20478 0
M  V30 8564 H 802.901 8.03681 1.55046 0
M  V30 8565 N 805.565 -0.825799 1.34232 0
M  V30 8566 C 806.793 -1.61363 1.29497 0
M  V30 8567 C 807.208 -1.88341 -0.131536 0
M  V30 8568 O 806.565 -1.47279 -1.07773 0
M  V30 8569 C 806.616 -2.95623 2.08061 0
M  V30 8570 O 806.337 -2.69824 3.45147 0
M  V30 8571 C 807.838 -3.90032 2.10688 0
M  V30 8572 H 805.058 -0.501676 0.445603 0
M  V30 8573 H 807.602 -1.02767 1.76803 0
M  V30 8574 H 805.757 -3.50785 1.64404 0
M  V30 8575 H 806.171 -3.55412 3.85723 0
M  V30 8576 H 807.645 -4.81411 2.70087 0
M  V30 8577 H 808.122 -4.25188 1.10052 0
M  V30 8578 H 808.728 -3.40807 2.54422 0
M  V30 8579 N 807.043 -1.17915 -1.04565 0
M  V30 8580 C 808.289 -0.972863 -1.77942 0
M  V30 8581 C 808.622 0.496753 -1.87739 0
M  V30 8582 O 807.897 1.3688 -1.38181 0
M  V30 8583 C 808.18 -1.62227 -3.21488 0
M  V30 8584 C 808.033 -3.16441 -3.19664 0
M  V30 8585 C 809.352 -1.33137 -4.19479 0
M  V30 8586 H 806.471 -0.354843 -0.645953 0
M  V30 8587 H 809.113 -1.45508 -1.22178 0
M  V30 8588 H 807.263 -1.21224 -3.69103 0
M  V30 8589 H 808.935 -3.66544 -2.80077 0
M  V30 8590 H 807.178 -3.48863 -2.57832 0
M  V30 8591 H 807.849 -3.57012 -4.21006 0
M  V30 8592 H 810.325 -1.68654 -3.80388 0
M  V30 8593 H 809.201 -1.81151 -5.18146 0
M  V30 8594 H 809.462 -0.253319 -4.41374 0
M  V30 8595 N 808.521 1.23394 -0.980386 0
M  V30 8596 C 809.761 1.93543 -0.657288 0
M  V30 8597 C 810.125 1.74791 0.794477 0
M  V30 8598 O 811.326 2.39089 1.2284 0
M  V30 8599 C 809.597 3.42025 -1.03701 0
M  V30 8600 S 811.156 4.30871 -0.830379 0
M  V30 8601 H 807.974 0.669012 -0.240717 0
M  V30 8602 H 810.576 1.49478 -1.26002 0
M  V30 8603 H 809.28 3.53183 -2.09022 0
M  V30 8604 H 808.811 3.91091 -0.425559 0
M  V30 8605 H 810.826 4.95377 0.285719 0
M  V30 8606 N 809.999 0.752036 1.385 0
M  V30 8607 C 811.247 0.306895 1.99756 0
M  V30 8608 C 811.568 -1.11478 1.59992 0
M  V30 8609 O 810.838 -1.76206 0.856045 0
M  V30 8610 H 809.418 0.11048 0.738785 0
M  V30 8611 H 812.08 0.965785 1.69289 0
M  V30 8612 H 811.176 0.368797 3.09913 0
M  V30 8613 N 811.477 -1.49425 0.500989 0
M  V30 8614 C 812.705 -2.06861 -0.0403443 0
M  V30 8615 C 813.12 -1.36132 -1.30819 0
M  V30 8616 O 812.477 -0.439647 -1.77125 0
M  V30 8617 C 812.528 -3.6027 -0.297902 0
M  V30 8618 O 812.249 -4.28338 0.919686 0
M  V30 8619 C 813.75 -4.34419 -0.882876 0
M  V30 8620 H 810.97 -0.670688 0.0204619 0
M  V30 8621 H 813.514 -1.92207 0.698342 0
M  V30 8622 H 811.669 -3.74627 -0.98657 0
M  V30 8623 H 812.083 -5.2004 0.682528 0
M  V30 8624 H 813.557 -5.42631 -1.01268 0
M  V30 8625 H 814.034 -3.96898 -1.88066 0
M  V30 8626 H 814.64 -4.24669 -0.231677 0
M  V30 8627 N 812.955 -0.234822 -1.55841 0
M  V30 8628 C 814.366 0.270588 -1.84729 0
M  V30 8629 C 814.717 1.58494 -1.15646 0
M  V30 8630 O 813.842 2.12071 -0.430667 0
M  V30 8631 C 814.437 0.497733 -3.35124 0
M  V30 8632 C 812.996 0.947428 -3.64281 0
M  V30 8633 C 812.143 0.01787 -2.77294 0
M  V30 8634 H 815.094 -0.457691 -1.51957 0
M  V30 8635 H 815.115 1.34199 -3.56049 0
M  V30 8636 H 814.627 -0.459037 -3.85376 0
M  V30 8637 H 812.728 1.91709 -3.19497 0
M  V30 8638 H 812.841 0.812651 -4.72158 0
M  V30 8639 H 811.205 0.527071 -2.49187 0
M  V30 8640 H 811.988 -0.934056 -3.30349 0
M  V30 8641 N 814.433 1.57553 0.0384317 0
M  V30 8642 C 815.661 1.93093 0.743141 0
M  V30 8643 C 816.076 0.833787 1.69391 0
M  V30 8644 O 815.433 -0.190532 1.81503 0
M  V30 8645 C 815.484 3.28533 1.50826 0
M  V30 8646 O 815.205 4.34032 0.595665 0
M  V30 8647 C 816.706 3.78297 2.31098 0
M  V30 8648 H 813.926 0.637486 0.20941 0
M  V30 8649 H 816.47 2.045 -0.00125154 0
M  V30 8650 H 814.625 3.18552 2.20462 0
M  V30 8651 H 815.039 5.12155 1.13124 0
M  V30 8652 H 816.513 4.75602 2.80191 0
M  V30 8653 H 816.99 3.09008 3.12107 0
M  V30 8654 H 817.596 3.91331 1.66555 0
M  V30 8655 N 815.911 -0.310526 1.54511 0
M  V30 8656 C 817.141 -1.06456 1.77061 0
M  V30 8657 C 817.549 -1.81755 0.525528 0
M  V30 8658 O 816.892 -1.76365 -0.513904 0
M  V30 8659 C 816.954 -2.09856 2.91892 0
M  V30 8660 C 816.618 -1.53838 4.30329 0
M  V30 8661 C 817.615 -0.973358 5.10707 0
M  V30 8662 C 815.3 -1.57688 4.76906 0
M  V30 8663 C 817.294 -0.454283 6.35779 0
M  V30 8664 C 814.981 -1.05393 6.01943 0
M  V30 8665 C 815.979 -0.493595 6.81214 0
M  V30 8666 O 815.667 0.0214506 8.03897 0
M  V30 8667 H 815.399 -0.321913 0.594431 0
M  V30 8668 H 817.953 -0.358289 2.02251 0
M  V30 8669 H 816.183 -2.84137 2.62304 0
M  V30 8670 H 817.872 -2.71085 3.02106 0
M  V30 8671 H 818.638 -0.936588 4.75871 0
M  V30 8672 H 814.517 -2.00242 4.1524 0
M  V30 8673 H 818.061 -0.0162657 6.97598 0
M  V30 8674 H 813.958 -1.08782 6.36268 0
M  V30 8675 H 814.726 -0.0927478 8.18447 0
M  V30 8676 N 817.389 -1.46805 -0.573248 0
M  V30 8677 C 818.635 -1.5283 -1.33307 0
M  V30 8678 C 818.968 -0.183287 -1.93333 0
M  V30 8679 O 818.243 0.806354 -1.76998 0
M  V30 8680 C 818.526 -2.63414 -2.45531 0
M  V30 8681 C 818.379 -4.07478 -1.90478 0
M  V30 8682 C 819.698 -2.70014 -3.47535 0
M  V30 8683 H 816.817 -0.556371 -0.483343 0
M  V30 8684 H 819.459 -1.78787 -0.643066 0
M  V30 8685 H 817.609 -2.41412 -3.04389 0
M  V30 8686 H 819.281 -4.40795 -1.36004 0
M  V30 8687 H 817.524 -4.16511 -1.21248 0
M  V30 8688 H 818.195 -4.80598 -2.71531 0
M  V30 8689 H 820.671 -2.89817 -2.98572 0
M  V30 8690 H 819.547 -3.49192 -4.23504 0
M  V30 8691 H 819.808 -1.76436 -4.05367 0
M  V30 8692 N 818.867 0.818669 -1.34668 0
M  V30 8693 C 819.83 1.9114 -1.26483 0
M  V30 8694 C 820.83 1.598 -0.179044 0
M  V30 8695 O 822.02 1.6876 -0.431952 0
M  V30 8696 C 819.152 3.27285 -0.95381 0
M  V30 8697 H 820.345 1.9982 -2.23634 0
M  V30 8698 H 817.898 1.01314 -1.19018 0
M  V30 8699 H 818.633 3.24297 0.0143428 0
M  V30 8700 H 818.418 3.51416 -1.73924 0
M  V30 8701 H 819.908 4.07299 -0.921827 0
M  V30 8702 N 820.346 1.18468 1.03938 0
M  V30 8703 C 821.757 0.984808 1.58614 0
M  V30 8704 C 822.108 -0.465165 1.90606 0
M  V30 8705 O 821.233 -1.34274 1.69704 0
M  V30 8706 C 821.828 1.78135 2.8819 0
M  V30 8707 C 820.387 1.62579 3.39478 0
M  V30 8708 C 819.534 1.77501 2.13046 0
M  V30 8709 H 822.485 1.32993 0.865944 0
M  V30 8710 H 822.506 1.27119 3.58638 0
M  V30 8711 H 822.018 2.83661 2.64874 0
M  V30 8712 H 820.119 0.59595 3.67803 0
M  V30 8713 H 820.232 2.42463 4.13217 0
M  V30 8714 H 818.596 1.2046 2.24414 0
M  V30 8715 H 819.379 2.84464 1.92185 0
M  V30 8716 N 821.824 -1.22873 0.986916 0
M  V30 8717 C 822.734 -2.28277 0.540978 0
M  V30 8718 C 823.75 -1.69164 -0.407363 0
M  V30 8719 O 824.926 -1.99504 -0.275674 0
M  V30 8720 C 821.991 -3.46404 -0.143181 0
M  V30 8721 C 821.052 -4.20854 0.847375 0
M  V30 8722 C 820.285 -5.33341 0.19577 0
M  V30 8723 O 820.508 -5.61356 -1.0117 0
M  V30 8724 O 819.442 -5.95169 0.897623 0
M  V30 8725 H 823.268 -2.68578 1.41773 0
M  V30 8726 H 820.853 -1.28927 0.754867 0
M  V30 8727 H 822.735 -4.18096 -0.526676 0
M  V30 8728 H 821.41 -3.08041 -0.994593 0
M  V30 8729 H 820.317 -3.51459 1.28169 0
M  V30 8730 H 821.65 -4.63082 1.6678 0
M  V30 8731 N 823.302 -0.75937 -1.38099 0
M  V30 8732 C 824.551 -0.314864 -1.99227 0
M  V30 8733 C 824.864 1.1113 -1.60964 0
M  V30 8734 O 826.07 1.65657 -2.15105 0
M  V30 8735 C 824.526 -0.512001 -3.56239 0
M  V30 8736 C 824.134 -1.94762 -4.0345 0
M  V30 8737 C 825.878 -0.130497 -4.24299 0
M  V30 8738 C 823.785 -2.09301 -5.53125 0
M  V30 8739 H 822.715 -0.113978 -0.745335 0
M  V30 8740 H 825.366 -0.936736 -1.57789 0
M  V30 8741 H 823.748 0.179144 -3.95595 0
M  V30 8742 H 824.922 -2.67271 -3.75371 0
M  V30 8743 H 823.237 -2.28457 -3.48133 0
M  V30 8744 H 825.834 -0.21781 -5.34256 0
M  V30 8745 H 826.177 0.917644 -4.0606 0
M  V30 8746 H 826.71 -0.773716 -3.90203 0
M  V30 8747 H 823.449 -3.1239 -5.76275 0
M  V30 8748 H 822.969 -1.41261 -5.82928 0
M  V30 8749 H 824.648 -1.88571 -6.1891 0
M  V30 8750 N 824.78 1.49157 -0.508906 0
M  V30 8751 C 826.029 2.0167 0.0346854 0
M  V30 8752 C 826.342 1.39302 1.37311 0
M  V30 8753 O 827.548 1.83189 2.00385 0
M  V30 8754 C 826.004 3.59725 0.112261 0
M  V30 8755 C 825.612 4.31069 -1.21999 0
M  V30 8756 C 827.356 4.20155 0.605798 0
M  V30 8757 C 825.263 5.81001 -1.10415 0
M  V30 8758 H 824.193 0.753814 0.0167355 0
M  V30 8759 H 826.844 1.7162 -0.649518 0
M  V30 8760 H 825.226 3.86525 0.861087 0
M  V30 8761 H 826.4 4.15962 -1.98273 0
M  V30 8762 H 824.715 3.82418 -1.64759 0
M  V30 8763 H 827.312 5.29964 0.710102 0
M  V30 8764 H 827.655 3.84051 1.60656 0
M  V30 8765 H 828.188 3.97705 -0.0867239 0
M  V30 8766 H 824.927 6.21643 -2.07941 0
M  V30 8767 H 824.447 5.9858 -0.382428 0
M  V30 8768 H 826.126 6.42207 -0.786116 0
M  V30 8769 N 826.258 0.243083 1.55714 0
M  V30 8770 C 827.221 -0.644723 2.19945 0
M  V30 8771 C 828.221 -1.10562 1.16759 0
M  V30 8772 O 829.411 -1.01095 1.41865 0
M  V30 8773 C 826.543 -1.88569 2.83997 0
M  V30 8774 H 827.736 -0.0843839 2.99781 0
M  V30 8775 H 825.289 -0.00647246 1.56299 0
M  V30 8776 H 826.024 -2.48736 2.08089 0
M  V30 8777 H 825.809 -1.56345 3.59581 0
M  V30 8778 H 827.299 -2.51774 3.33166 0
M  V30 8779 N 827.736 -1.57571 -0.0300757 0
M  V30 8780 C 828.646 -2.09892 -1.04798 0
M  V30 8781 C 829.662 -1.03732 -1.39698 0
M  V30 8782 O 830.838 -1.35461 -1.49038 0
M  V30 8783 C 827.903 -2.56707 -2.33028 0
M  V30 8784 C 826.964 -3.77345 -2.04718 0
M  V30 8785 C 826.197 -4.21918 -3.26834 0
M  V30 8786 O 826.42 -3.66025 -4.37472 0
M  V30 8787 O 825.354 -5.14362 -3.12594 0
M  V30 8788 H 829.18 -2.97023 -0.633344 0
M  V30 8789 H 826.765 -1.47344 -0.246991 0
M  V30 8790 H 828.647 -2.87154 -3.08417 0
M  V30 8791 H 827.322 -1.72688 -2.73789 0
M  V30 8792 H 826.229 -3.51919 -1.26901 0
M  V30 8793 H 827.562 -4.62345 -1.68813 0
M  V30 8794 N 829.214 0.302327 -1.54673 0
M  V30 8795 C 830.442 1.05669 -1.77881 0
M  V30 8796 C 830.857 1.80983 -0.537648 0
M  V30 8797 O 830.214 1.7573 0.492467 0
M  V30 8798 C 830.265 2.03828 -2.98557 0
M  V30 8799 O 829.986 1.3157 -4.17877 0
M  V30 8800 C 831.487 2.91314 -3.34143 0
M  V30 8801 H 828.707 0.313436 -0.593295 0
M  V30 8802 H 831.251 0.342003 -2.0162 0
M  V30 8803 H 829.406 2.70801 -2.7703 0
M  V30 8804 H 829.82 1.97481 -4.85903 0
M  V30 8805 H 831.294 3.56042 -4.21827 0
M  V30 8806 H 831.771 3.59544 -2.52239 0
M  V30 8807 H 832.377 2.29874 -3.57824 0
M  V30 8808 N 830.692 1.47107 0.565454 0
M  V30 8809 C 831.94 1.53005 1.32038 0
M  V30 8810 C 832.261 0.190453 1.94068 0
M  V30 8811 O 831.531 -0.784783 1.79494 0
M  V30 8812 H 830.111 0.563578 0.490294 0
M  V30 8813 H 832.773 1.83351 0.660928 0
M  V30 8814 H 831.869 2.29215 2.11818 0
M  V30 8815 N 832.17 -0.811516 1.35101 0
M  V30 8816 C 833.4 -1.59749 1.31011 0
M  V30 8817 C 833.808 -1.88847 -0.115566 0
M  V30 8818 O 833.151 -1.48854 -1.07649 0
M  V30 8819 C 833.213 -2.95714 2.04435 0
M  V30 8820 C 832.877 -2.89456 3.53645 0
M  V30 8821 C 833.874 -2.63237 4.48333 0
M  V30 8822 C 831.559 -3.08728 3.96222 0
M  V30 8823 C 833.553 -2.56361 5.83573 0
M  V30 8824 C 831.24 -3.01475 5.3156 0
M  V30 8825 C 832.238 -2.75326 6.25048 0
M  V30 8826 O 831.926 -2.68026 7.57903 0
M  V30 8827 H 831.658 -0.502889 0.45175 0
M  V30 8828 H 834.212 -1.01687 1.78462 0
M  V30 8829 H 832.442 -3.55739 1.51613 0
M  V30 8830 H 834.131 -3.56816 1.93487 0
M  V30 8831 H 834.897 -2.48072 4.16756 0
M  V30 8832 H 830.776 -3.28094 3.23845 0
M  V30 8833 H 834.32 -2.35871 6.56514 0
M  V30 8834 H 830.217 -3.16197 5.62752 0
M  V30 8835 H 830.985 -2.8367 7.67772 0
M  V30 8836 N 833.648 -1.19017 -1.03309 0
M  V30 8837 C 834.896 -0.988258 -1.76289 0
M  V30 8838 C 835.217 0.482557 -1.88935 0
M  V30 8839 O 834.487 1.34969 -1.41987 0
M  V30 8840 H 833.067 -0.36267 -0.653054 0
M  V30 8841 H 835.729 -1.49836 -1.2464 0
M  V30 8842 H 834.825 -1.43273 -2.77271 0
M  V30 8843 N 835.127 1.22348 -0.993418 0
M  V30 8844 C 836.057 2.26584 -0.564088 0
M  V30 8845 C 837.038 1.65102 0.409298 0
M  V30 8846 O 838.223 1.91872 0.299819 0
M  V30 8847 C 835.353 3.47087 0.121554 0
M  V30 8848 C 834.307 4.21009 -0.770429 0
M  V30 8849 C 833.633 5.34678 0.0481586 0
M  V30 8850 C 834.933 4.79636 -2.06752 0
M  V30 8851 H 836.627 2.62749 -1.43538 0
M  V30 8852 H 834.173 1.26303 -0.691628 0
M  V30 8853 H 836.126 4.19166 0.433303 0
M  V30 8854 H 834.85 3.1002 1.0274 0
M  V30 8855 H 833.509 3.50764 -1.06583 0
M  V30 8856 H 833.157 4.93852 0.954933 0
M  V30 8857 H 832.857 5.85061 -0.545641 0
M  V30 8858 H 834.381 6.09573 0.353991 0
M  V30 8859 H 835.795 5.43654 -1.81969 0
M  V30 8860 H 834.192 5.4036 -2.61019 0
M  V30 8861 H 835.262 3.99659 -2.74592 0
M  V30 8862 N 836.605 0.766683 1.37694 0
M  V30 8863 C 837.552 0.147725 2.30327 0
M  V30 8864 C 838.522 -0.695366 1.50844 0
M  V30 8865 O 839.707 -0.64878 1.79431 0
M  V30 8866 C 836.847 -0.72935 3.37305 0
M  V30 8867 C 835.96 0.129795 4.31805 0
M  V30 8868 C 835.095 -0.751511 5.25857 0
M  V30 8869 C 834.134 0.110475 6.12 0
M  V30 8870 N 833.271 -0.728522 6.9831 0
M  V30 8871 H 838.111 0.943204 2.82679 0
M  V30 8872 H 835.648 0.476736 1.3916 0
M  V30 8873 H 837.606 -1.25263 3.97951 0
M  V30 8874 H 836.236 -1.49048 2.86329 0
M  V30 8875 H 835.288 0.770829 3.72508 0
M  V30 8876 H 836.6 0.794923 4.92425 0
M  V30 8877 H 835.754 -1.34146 5.91684 0
M  V30 8878 H 834.493 -1.45034 4.65636 0
M  V30 8879 H 833.498 0.712999 5.45157 0
M  V30 8880 H 834.723 0.806557 6.74293 0
M  V30 8881 H 832.669 -1.41206 6.40622 0
M  V30 8882 H 832.586 -0.12058 7.55904 0
M  V30 8883 H 833.854 -1.30303 7.68532 0
M  V30 8884 N 838.083 -1.48885 0.516809 0
M  V30 8885 C 839.329 -2.02788 -0.0220928 0
M  V30 8886 C 839.662 -1.39433 -1.35175 0
M  V30 8887 O 838.937 -0.535459 -1.86984 0
M  V30 8888 C 839.22 -3.59753 -0.158012 0
M  V30 8889 C 839.073 -4.33611 1.19588 0
M  V30 8890 C 840.392 -4.30984 -0.891133 0
M  V30 8891 H 837.511 -0.736971 -0.00655488 0
M  V30 8892 H 840.153 -1.77746 0.671287 0
M  V30 8893 H 838.303 -3.8122 -0.748568 0
M  V30 8894 H 839.975 -4.23598 1.82653 0
M  V30 8895 H 838.218 -3.95547 1.78116 0
M  V30 8896 H 838.889 -5.41846 1.05391 0
M  V30 8897 H 841.365 -4.14267 -0.39012 0
M  V30 8898 H 840.241 -5.40527 -0.955107 0
M  V30 8899 H 840.502 -3.97336 -1.93847 0
M  V30 8900 N 839.561 -0.251338 -1.55583 0
M  V30 8901 C 840.838 0.422729 -1.90977 0
M  V30 8902 C 841.218 1.75534 -1.17265 0
M  V30 8903 O 840.566 2.26632 -0.291588 0
M  V30 8904 C 840.776 0.586448 -3.44037 0
M  V30 8905 C 842.124 0.880294 -4.15375 0
M  V30 8906 O 843.148 0.672148 -3.49801 0
M  V30 8907 O 842.007 1.27694 -5.31372 0
M  V30 8908 H 839.101 0.227622 -0.795058 0
M  V30 8909 H 841.647 -0.295733 -1.67103 0
M  V30 8910 H 840.419 -0.352327 -3.89711 0
M  V30 8911 H 840.042 1.35528 -3.73789 0
M  V30 8912 N 841.039 1.57585 0.0217189 0
M  V30 8913 C 842.288 1.88786 0.710125 0
M  V30 8914 C 842.601 0.850819 1.76126 0
M  V30 8915 O 843.807 1.0523 2.50277 0
M  V30 8916 C 842.263 3.3505 1.31413 0
M  V30 8917 C 841.871 4.47001 0.298959 0
M  V30 8918 C 843.615 3.7539 1.98199 0
M  V30 8919 C 841.522 5.8433 0.911727 0
M  V30 8920 H 840.452 0.704388 0.268986 0
M  V30 8921 H 843.103 1.83466 -0.0352638 0
M  V30 8922 H 841.485 3.35138 2.10947 0
M  V30 8923 H 842.659 4.58395 -0.470203 0
M  V30 8924 H 840.974 4.15542 -0.267222 0
M  V30 8925 H 843.571 4.75314 2.4491 0
M  V30 8926 H 843.914 3.07766 2.80331 0
M  V30 8927 H 844.447 3.77508 1.2543 0
M  V30 8928 H 841.186 6.55372 0.129659 0
M  V30 8929 H 840.706 5.76643 1.65056 0
M  V30 8930 H 842.385 6.31295 1.41688 0
M  V30 8931 N 842.517 -0.29412 1.54831 0
M  V30 8932 C 843.763 -1.02602 1.75626 0
M  V30 8933 C 844.118 -1.84689 0.539232 0
M  V30 8934 O 843.411 -1.85788 -0.468322 0
M  V30 8935 C 843.605 -1.95782 2.99006 0
M  V30 8936 C 843.434 -1.22861 4.32591 0
M  V30 8937 C 842.204 -0.95294 4.96233 0
M  V30 8938 C 844.402 -0.629592 5.10432 0
M  V30 8939 N 842.384 -0.194728 6.13591 0
M  V30 8940 C 843.755 -0.00449586 6.2 0
M  V30 8941 C 845.81 -0.535327 4.95014 0
M  V30 8942 C 844.513 0.705754 7.15829 0
M  V30 8943 C 846.539 0.161284 5.9118 0
M  V30 8944 C 845.901 0.775203 7.00121 0
M  V30 8945 H 842 -0.358143 0.695167 0
M  V30 8946 H 844.584 -0.303896 1.92314 0
M  V30 8947 H 842.755 -2.65238 2.83731 0
M  V30 8948 H 844.487 -2.62175 3.08296 0
M  V30 8949 H 841.242 -1.25285 4.56728 0
M  V30 8950 H 841.666 0.171093 6.76784 0
M  V30 8951 H 846.308 -0.995662 4.10909 0
M  V30 8952 H 844.026 1.17784 7.9947 0
M  V30 8953 H 847.612 0.234256 5.81328 0
M  V30 8954 H 846.492 1.30566 7.73254 0
M  V30 8955 N 843.995 -1.47404 -0.557645 0
M  V30 8956 C 844.958 -1.59411 -1.64684 0
M  V30 8957 C 845.958 -0.469244 -1.53801 0
M  V30 8958 O 847.148 -0.734298 -1.57967 0
M  V30 8959 C 844.28 -1.5382 -3.04224 0
M  V30 8960 H 845.473 -2.56504 -1.55389 0
M  V30 8961 H 843.026 -1.35588 -0.777531 0
M  V30 8962 H 843.761 -0.581 -3.19053 0
M  V30 8963 H 843.546 -2.35456 -3.13533 0
M  V30 8964 H 845.036 -1.65358 -3.83466 0
M  V30 8965 N 845.473 0.80434 -1.35529 0
M  V30 8966 C 846.436 1.89788 -1.28503 0
M  V30 8967 C 847.436 1.59601 -0.195983 0
M  V30 8968 O 848.626 1.68292 -0.449827 0
M  V30 8969 C 845.758 3.26255 -0.98847 0
M  V30 8970 H 846.951 1.97436 -2.25741 0
M  V30 8971 H 844.504 1.00046 -1.20086 0
M  V30 8972 H 845.239 3.24294 -0.0200541 0
M  V30 8973 H 845.024 3.49551 -1.77641 0
M  V30 8974 H 846.514 4.06298 -0.964975 0
M  V30 8975 N 846.951 1.19563 1.02676 0
M  V30 8976 C 848.199 0.997593 1.75763 0
M  V30 8977 C 848.52 -0.47253 1.89188 0
M  V30 8978 O 847.79 -1.34214 1.42701 0
M  V30 8979 H 846.37 0.366128 0.651122 0
M  V30 8980 H 849.032 1.50495 1.23844 0
M  V30 8981 H 848.128 1.44741 2.76508 0
M  V30 8982 N 848.429 -1.21819 0.999893 0
M  V30 8983 C 849.675 -1.91035 0.680701 0
M  V30 8984 C 850.008 -1.77582 -0.786021 0
M  V30 8985 O 849.283 -1.14917 -1.56921 0
M  V30 8986 C 849.566 -3.43013 1.0961 0
M  V30 8987 C 849.419 -3.65481 2.6219 0
M  V30 8988 C 850.738 -4.35204 0.654616 0
M  V30 8989 H 847.857 -0.693748 0.248763 0
M  V30 8990 H 850.499 -1.43555 1.24466 0
M  V30 8991 H 848.649 -3.83581 0.616253 0
M  V30 8992 H 850.321 -3.34273 3.17899 0
M  V30 8993 H 848.564 -3.09522 3.03938 0
M  V30 8994 H 849.235 -4.71945 2.86307 0
M  V30 8995 H 851.711 -4.0219 1.06688 0
M  V30 8996 H 850.587 -5.40198 0.973492 0
M  V30 8997 H 850.848 -4.3986 -0.444458 0
M  V30 8998 N 849.908 -0.773975 -1.37286 0
M  V30 8999 C 851.157 -0.335977 -1.98882 0
M  V30 9000 C 851.47 1.09416 -1.62134 0
M  V30 9001 O 852.676 1.63366 -2.1685 0
M  V30 9002 C 851.132 -0.549756 -3.55676 0
M  V30 9003 C 850.74 -1.9903 -4.01361 0
M  V30 9004 C 852.484 -0.175493 -4.24137 0
M  V30 9005 C 850.391 -2.15156 -5.50874 0
M  V30 9006 H 849.321 -0.121877 -0.744085 0
M  V30 9007 H 851.972 -0.953419 -1.56787 0
M  V30 9008 H 850.354 0.137175 -3.95762 0
M  V30 9009 H 851.528 -2.71237 -3.72515 0
M  V30 9010 H 849.843 -2.32137 -3.4569 0
M  V30 9011 H 852.44 -0.274463 -5.33995 0
M  V30 9012 H 852.783 0.874524 -4.07011 0
M  V30 9013 H 853.316 -0.815058 -3.89361 0
M  V30 9014 H 850.055 -3.18485 -5.72929 0
M  V30 9015 H 849.575 -1.47435 -5.81397 0
M  V30 9016 H 851.254 -1.95124 -6.16876 0
M  V30 9017 N 851.386 1.48609 -0.524698 0
M  V30 9018 C 852.614 2.06899 0.00742946 0
M  V30 9019 C 853.029 1.38196 1.28637 0
M  V30 9020 O 852.386 0.467771 1.76403 0
M  V30 9021 C 852.437 3.60699 0.240548 0
M  V30 9022 O 852.158 4.26821 -0.987715 0
M  V30 9023 C 853.659 4.35769 0.813652 0
M  V30 9024 H 850.879 0.670278 -0.0311294 0
M  V30 9025 H 853.423 1.91071 -0.728832 0
M  V30 9026 H 851.578 3.76149 0.926845 0
M  V30 9027 H 851.992 5.18889 -0.765175 0
M  V30 9028 H 853.466 5.44174 0.926219 0
M  V30 9029 H 853.943 3.9984 1.81728 0
M  V30 9030 H 854.549 4.24983 0.164086 0
M  V30 9031 N 852.864 0.259585 1.55447 0
M  V30 9032 C 854.094 -0.364863 2.03353 0
M  V30 9033 C 854.502 -1.5116 1.13786 0
M  V30 9034 O 853.845 -1.83109 0.147283 0
M  V30 9035 C 853.907 -0.922587 3.4746 0
M  V30 9036 C 853.571 0.0935207 4.56904 0
M  V30 9037 C 854.568 0.907571 5.11917 0
M  V30 9038 C 852.253 0.223276 5.01804 0
M  V30 9039 C 854.247 1.83771 6.10333 0
M  V30 9040 C 851.934 1.15691 6.00049 0
M  V30 9041 C 852.932 1.96264 6.54194 0
M  V30 9042 O 852.62 2.88052 7.50521 0
M  V30 9043 H 852.352 -0.0893313 0.670072 0
M  V30 9044 H 854.906 0.384821 2.01763 0
M  V30 9045 H 853.136 -1.72206 3.4624 0
M  V30 9046 H 854.825 -1.45846 3.78792 0
M  V30 9047 H 855.591 0.817979 4.78052 0
M  V30 9048 H 851.47 -0.393834 4.59315 0
M  V30 9049 H 855.014 2.46703 6.52521 0
M  V30 9050 H 850.911 1.24738 6.33333 0
M  V30 9051 H 851.679 2.82557 7.68182 0
M  V30 9052 N 854.342 -1.57594 -0.0133615 0
M  V30 9053 C 855.591 -1.8916 -0.700103 0
M  V30 9054 C 855.904 -0.860147 -1.75673 0
M  V30 9055 O 857.11 -1.06556 -2.49716 0
M  V30 9056 C 855.566 -3.35742 -1.29635 0
M  V30 9057 C 855.174 -4.47154 -0.275249 0
M  V30 9058 C 856.918 -3.76436 -1.96205 0
M  V30 9059 C 854.825 -5.84805 -0.880726 0
M  V30 9060 H 853.755 -0.705805 -0.265247 0
M  V30 9061 H 856.406 -1.83445 0.044993 0
M  V30 9062 H 854.788 -3.36252 -2.09167 0
M  V30 9063 H 855.962 -4.58139 0.494506 0
M  V30 9064 H 854.277 -4.15394 0.289256 0
M  V30 9065 H 856.874 -4.76606 -2.42386 0
M  V30 9066 H 857.217 -3.09249 -2.78695 0
M  V30 9067 H 857.75 -3.78168 -1.23426 0
M  V30 9068 H 854.489 -6.55431 -0.0949013 0
M  V30 9069 H 854.009 -5.7751 -1.61995 0
M  V30 9070 H 855.688 -6.32038 -1.38338 0
M  V30 9071 N 855.82 0.285905 -1.54985 0
M  V30 9072 C 856.75 1.35752 -1.89983 0
M  V30 9073 C 857.731 1.52163 -0.760295 0
M  V30 9074 O 858.916 1.65421 -1.01733 0
M  V30 9075 C 856.046 2.71925 -2.16042 0
M  V30 9076 C 855 2.70261 -3.31878 0
M  V30 9077 C 854.326 4.09864 -3.43388 0
M  V30 9078 C 855.626 2.30667 -4.68604 0
M  V30 9079 H 857.32 1.06709 -2.79738 0
M  V30 9080 H 854.866 0.511884 -1.34595 0
M  V30 9081 H 856.819 3.46992 -2.39113 0
M  V30 9082 H 855.543 3.02523 -1.23074 0
M  V30 9083 H 854.202 1.97651 -3.08755 0
M  V30 9084 H 853.85 4.37664 -2.47909 0
M  V30 9085 H 853.55 4.09648 -4.21262 0
M  V30 9086 H 855.074 4.86689 -3.68736 0
M  V30 9087 H 856.488 2.95453 -4.91305 0
M  V30 9088 H 854.885 2.41637 -5.49301 0
M  V30 9089 H 855.955 1.25793 -4.68299 0
M  V30 9090 N 857.298 1.47698 0.54982 0
M  V30 9091 C 858.228 1.63622 1.66583 0
M  V30 9092 C 859.209 0.485477 1.63025 0
M  V30 9093 O 860.394 0.715692 1.80531 0
M  V30 9094 C 857.524 1.65721 3.05211 0
M  V30 9095 C 856.478 2.80097 3.2362 0
M  V30 9096 C 855.804 2.67272 4.63109 0
M  V30 9097 C 857.104 4.21612 3.08286 0
M  V30 9098 H 858.798 2.57049 1.53512 0
M  V30 9099 H 856.344 1.23705 0.737099 0
M  V30 9100 H 858.297 1.75451 3.83138 0
M  V30 9101 H 857.021 0.688593 3.19258 0
M  V30 9102 H 855.68 2.69889 2.48104 0
M  V30 9103 H 855.328 1.68422 4.73965 0
M  V30 9104 H 855.028 3.44008 4.76374 0
M  V30 9105 H 856.552 2.78942 5.43161 0
M  V30 9106 H 857.966 4.32758 3.76024 0
M  V30 9107 H 856.363 4.99193 3.33057 0
M  V30 9108 H 857.433 4.39462 2.04942 0
M  V30 9109 N 858.776 -0.797141 1.35954 0
M  V30 9110 C 860.016 -1.56795 1.31128 0
M  V30 9111 C 860.38 -1.91683 -0.110364 0
M  V30 9112 O 861.581 -2.67305 -0.283093 0
M  V30 9113 C 859.852 -2.81577 2.20111 0
M  V30 9114 S 861.411 -3.71895 2.32894 0
M  V30 9115 H 858.229 -0.53711 0.465869 0
M  V30 9116 H 860.831 -0.939522 1.71445 0
M  V30 9117 H 859.535 -2.53986 3.22365 0
M  V30 9118 H 859.066 -3.49399 1.80786 0
M  V30 9119 H 861.081 -4.72322 1.52073 0
M  V30 9120 N 860.254 -1.20106 -1.0204 0
M  V30 9121 C 861.502 -1.0069 -1.75231 0
M  V30 9122 C 861.823 0.462491 -1.89436 0
M  V30 9123 O 861.093 1.33455 -1.4341 0
M  V30 9124 H 859.673 -0.369576 -0.649171 0
M  V30 9125 H 862.335 -1.51149 -1.23044 0
M  V30 9126 H 861.431 -1.46205 -2.75736 0
M  V30 9127 N 861.732 1.21287 -1.00634 0
M  V30 9128 C 862.979 1.90389 -0.6898 0
M  V30 9129 C 863.307 1.78193 0.779574 0
M  V30 9130 O 862.562 1.15358 1.58085 0
M  V30 9131 C 862.861 3.41374 -1.05824 0
M  V30 9132 C 862.527 3.73766 -2.5221 0
M  V30 9133 C 861.189 3.82317 -2.92211 0
M  V30 9134 C 863.541 3.88871 -3.47028 0
M  V30 9135 C 860.869 4.03423 -4.2599 0
M  V30 9136 C 863.221 4.11484 -4.80483 0
M  V30 9137 C 861.885 4.18263 -5.20204 0
M  V30 9138 H 861.155 0.696683 -0.252416 0
M  V30 9139 H 863.802 1.43769 -1.26502 0
M  V30 9140 H 862.107 3.8974 -0.401281 0
M  V30 9141 H 863.804 3.93118 -0.79116 0
M  V30 9142 H 860.394 3.67702 -2.20212 0
M  V30 9143 H 864.578 3.8163 -3.17289 0
M  V30 9144 H 859.834 4.06902 -4.56334 0
M  V30 9145 H 864.008 4.22115 -5.53888 0
M  V30 9146 H 861.635 4.34369 -6.23881 0
M  V30 9147 N 863.21 0.781244 1.36873 0
M  V30 9148 C 864.621 0.414093 1.8205 0
M  V30 9149 C 864.972 -1.06098 1.65039 0
M  V30 9150 O 864.097 -1.82251 1.16677 0
M  V30 9151 C 864.692 0.744837 3.30511 0
M  V30 9152 C 863.251 0.430621 3.73929 0
M  V30 9153 C 862.398 0.983746 2.59264 0
M  V30 9154 H 865.349 0.975091 1.2521 0
M  V30 9155 H 865.37 0.032936 3.80486 0
M  V30 9156 H 864.882 1.81847 3.42861 0
M  V30 9157 H 862.983 -0.635308 3.67144 0
M  V30 9158 H 863.096 0.945514 4.69677 0
M  V30 9159 H 861.46 0.407433 2.5142 0
M  V30 9160 H 862.243 2.06297 2.74402 0
M  V30 9161 N 864.689 -1.48329 0.532571 0
M  V30 9162 C 866.1 -1.86469 0.0927749 0
M  V30 9163 C 866.451 -1.44186 -1.3306 0
M  V30 9164 O 865.576 -0.833741 -1.99694 0
M  V30 9165 C 866.171 -3.38414 0.161588 0
M  V30 9166 C 864.73 -3.75739 -0.223028 0
M  V30 9167 C 863.877 -2.72377 0.520199 0
M  V30 9168 H 866.828 -1.40197 0.743678 0
M  V30 9169 H 866.849 -3.75314 -0.626059 0
M  V30 9170 H 866.361 -3.69159 1.19765 0
M  V30 9171 H 864.462 -3.50608 -1.26113 0
M  V30 9172 H 864.575 -4.78954 0.118385 0
M  V30 9173 H 862.939 -2.54678 -0.0338425 0
M  V30 9174 H 863.722 -3.05965 1.55694 0
M  V30 9175 N 866.167 -0.267825 -1.55308 0
M  V30 9176 C 867.414 0.351036 -1.99434 0
M  V30 9177 C 867.742 1.56406 -1.15618 0
M  V30 9178 O 866.997 1.94548 -0.212045 0
M  V30 9179 C 867.296 0.784247 -3.48689 0
M  V30 9180 C 866.962 -0.323328 -4.49739 0
M  V30 9181 C 865.624 -0.627467 -4.77091 0
M  V30 9182 C 867.976 -1.07002 -5.10098 0
M  V30 9183 C 865.304 -1.682 -5.62073 0
M  V30 9184 C 867.656 -2.11422 -5.96224 0
M  V30 9185 C 866.32 -2.42479 -6.21901 0
M  V30 9186 H 865.59 0.128453 -0.729781 0
M  V30 9187 H 868.237 -0.380018 -1.87692 0
M  V30 9188 H 866.542 1.59485 -3.57871 0
M  V30 9189 H 868.239 1.2737 -3.80234 0
M  V30 9190 H 864.829 -0.0761528 -4.28532 0
M  V30 9191 H 869.013 -0.848302 -4.88996 0
M  V30 9192 H 864.269 -1.92772 -5.80215 0
M  V30 9193 H 868.443 -2.69759 -6.4203 0
M  V30 9194 H 866.07 -3.24328 -6.87543 0
M  V30 9195 N 867.645 1.57599 0.00500368 0
M  V30 9196 C 869.061 1.55463 0.361015 0
M  V30 9197 C 869.261 0.997051 1.75103 0
M  V30 9198 O 868.317 0.628661 2.44549 0
M  V30 9199 C 869.63 2.99734 0.240828 0
M  V30 9200 C 871.178 3.11399 0.316138 0
M  V30 9201 C 871.653 4.57446 0.22513 0
M  V30 9202 N 873.144 4.62334 0.283186 0
M  V30 9203 C 873.879 5.72914 0.23603 0
M  V30 9204 N 873.375 6.92659 0.139762 0
M  V30 9205 N 875.168 5.61364 0.287529 0
M  V30 9206 H 867.319 1.92185 -0.904359 0
M  V30 9207 H 869.582 0.882529 -0.34619 0
M  V30 9208 H 869.288 3.44348 -0.715343 0
M  V30 9209 H 869.162 3.63009 1.02491 0
M  V30 9210 H 871.549 2.66718 1.26275 0
M  V30 9211 H 871.63 2.50911 -0.497725 0
M  V30 9212 H 871.274 5.02801 -0.717917 0
M  V30 9213 H 871.204 5.15874 1.05742 0
M  V30 9214 H 873.695 3.7619 0.359123 0
M  V30 9215 H 874.008 7.72722 0.10954 0
M  V30 9216 H 872.353 6.9492 0.105462 0
M  V30 9217 H 875.544 4.66707 0.360897 0
M  V30 9218 H 875.717 6.47528 0.247313 0
M  V30 9219 N 869.123 -0.277682 1.55134 0
M  V30 9220 C 870.371 -1.00791 1.75173 0
M  V30 9221 C 870.692 -1.86987 0.553266 0
M  V30 9222 O 869.962 -1.91079 -0.43195 0
M  V30 9223 H 868.542 -0.375129 0.645978 0
M  V30 9224 H 871.204 -0.303041 1.9253 0
M  V30 9225 H 870.3 -1.64756 2.6507 0
M  V30 9226 N 870.601 -1.47988 -0.541979 0
M  V30 9227 C 871.826 -1.59286 -1.32826 0
M  V30 9228 C 872.251 -0.24894 -1.86445 0
M  V30 9229 O 871.609 0.777581 -1.63778 0
M  V30 9230 C 871.657 -2.6334 -2.46343 0
M  V30 9231 O 870.761 -2.19667 -3.49028 0
M  V30 9232 H 870.102 -0.534543 -0.393903 0
M  V30 9233 H 872.632 -1.93885 -0.653427 0
M  V30 9234 H 872.642 -2.84238 -2.92699 0
M  V30 9235 H 871.317 -3.60913 -2.06675 0
M  V30 9236 H 869.894 -2.08932 -3.08872 0
M  V30 9237 N 872.079 0.78992 -1.36375 0
M  V30 9238 C 873.327 1.54472 -1.30319 0
M  V30 9239 C 873.648 1.94647 0.117338 0
M  V30 9240 O 872.918 1.64906 1.05748 0
M  V30 9241 H 871.498 0.572879 -0.479394 0
M  V30 9242 H 874.16 0.941245 -1.70665 0
M  V30 9243 H 873.256 2.45252 -1.93024 0
M  V30 9244 N 873.557 1.20646 1.01402 0
M  V30 9245 C 874.834 0.927176 1.72229 0
M  V30 9246 C 875.214 -0.563382 2.03443 0
M  V30 9247 O 874.562 -1.52576 1.70096 0
M  V30 9248 C 874.772 1.80285 2.98828 0
M  V30 9249 C 876.12 2.04624 3.72041 0
M  V30 9250 O 877.144 1.77559 3.0879 0
M  V30 9251 O 876.003 2.50347 4.85787 0
M  V30 9252 H 873.097 0.346891 0.75073 0
M  V30 9253 H 875.643 1.31532 1.07227 0
M  V30 9254 H 874.415 2.81204 2.72102 0
M  V30 9255 H 874.038 1.41495 3.71571 0
M  V30 9256 N 875.035 -1.20752 1.01276 0
M  V30 9257 C 876.312 -1.85676 0.615112 0
M  V30 9258 C 876.692 -1.90623 -0.906976 0
M  V30 9259 O 876.04 -1.41124 -1.79712 0
M  V30 9260 C 876.25 -3.2552 1.25847 0
M  V30 9261 C 877.598 -4.0184 1.37148 0
M  V30 9262 O 878.622 -3.3486 1.21438 0
M  V30 9263 O 877.481 -5.21783 1.62495 0
M  V30 9264 H 874.575 -0.799437 0.211729 0
M  V30 9265 H 877.121 -1.28372 1.10989 0
M  V30 9266 H 875.893 -3.16664 2.29869 0
M  V30 9267 H 875.516 -3.90452 0.750524 0
M  V30 9268 N 876.513 -0.788492 -1.36457 0
M  V30 9269 C 877.445 -0.144208 -2.28746 0
M  V30 9270 C 878.458 0.646009 -1.49434 0
M  V30 9271 O 879.647 0.481344 -1.71888 0
M  V30 9272 C 876.747 0.818869 -3.28858 0
M  V30 9273 C 875.92 0.0789055 -4.37329 0
M  V30 9274 C 874.979 0.957791 -5.1741 0
M  V30 9275 O 874.005 0.415378 -5.67682 0
M  V30 9276 N 875.207 2.28216 -5.33758 0
M  V30 9277 H 877.972 -0.936949 -2.84678 0
M  V30 9278 H 875.533 -0.642317 -1.48613 0
M  V30 9279 H 877.525 1.41065 -3.79319 0
M  V30 9280 H 876.095 1.51249 -2.73573 0
M  V30 9281 H 875.315 -0.693939 -3.88044 0
M  V30 9282 H 876.603 -0.431753 -5.06965 0
M  V30 9283 H 876.001 2.747 -4.94527 0
M  V30 9284 H 874.558 2.8236 -5.87466 0
M  V30 9285 N 877.991 1.48044 -0.54043 0
M  V30 9286 C 878.901 2.33565 0.220163 0
M  V30 9287 C 879.917 1.47146 0.928659 0
M  V30 9288 O 881.093 1.80107 0.901295 0
M  V30 9289 C 878.158 3.2349 1.2472 0
M  V30 9290 C 877.219 4.25789 0.547938 0
M  V30 9291 C 876.452 5.11417 1.52605 0
M  V30 9292 O 876.675 4.99204 2.75956 0
M  V30 9293 O 875.609 5.92498 1.05972 0
M  V30 9294 H 879.435 2.99868 -0.480898 0
M  V30 9295 H 877.02 1.46332 -0.301226 0
M  V30 9296 H 878.902 3.79084 1.84047 0
M  V30 9297 H 877.577 2.59835 1.93048 0
M  V30 9298 H 876.484 3.74001 -0.0860941 0
M  V30 9299 H 877.817 4.92111 -0.0935896 0
M  V30 9300 N 879.47 0.276058 1.55163 0
M  V30 9301 C 880.716 -0.340959 1.99913 0
M  V30 9302 C 881.049 -1.55434 1.16422 0
M  V30 9303 O 880.324 -1.93081 0.234517 0
M  V30 9304 C 880.607 -0.722211 3.52783 0
M  V30 9305 C 880.46 0.498575 4.47028 0
M  V30 9306 C 881.779 -1.5583 4.11589 0
M  V30 9307 H 878.898 -0.122455 0.726756 0
M  V30 9308 H 881.54 0.38319 1.86096 0
M  V30 9309 H 879.69 -1.33919 3.64689 0
M  V30 9310 H 881.362 1.13713 4.47065 0
M  V30 9311 H 879.605 1.13646 4.18649 0
M  V30 9312 H 880.276 0.188041 5.5168 0
M  V30 9313 H 882.752 -1.03722 4.02965 0
M  V30 9314 H 881.628 -1.79387 5.1876 0
M  V30 9315 H 881.889 -2.53963 3.61877 0
M  V30 9316 N 880.948 -1.576 0.00335426 0
M  V30 9317 C 881.878 -2.11668 -0.985839 0
M  V30 9318 C 882.859 -1.02661 -1.35627 0
M  V30 9319 O 884.044 -1.30361 -1.43943 0
M  V30 9320 C 881.174 -2.62273 -2.27662 0
M  V30 9321 C 880.128 -3.75837 -2.0477 0
M  V30 9322 C 879.454 -4.12769 -3.39891 0
M  V30 9323 C 880.754 -5.02975 -1.40759 0
M  V30 9324 H 882.448 -2.9457 -0.535637 0
M  V30 9325 H 879.994 -1.41702 -0.256204 0
M  V30 9326 H 881.947 -2.98727 -2.97221 0
M  V30 9327 H 880.671 -1.76498 -2.74802 0
M  V30 9328 H 879.33 -3.39782 -1.37636 0
M  V30 9329 H 878.978 -3.24013 -3.8474 0
M  V30 9330 H 878.678 -4.89281 -3.25389 0
M  V30 9331 H 880.202 -4.51784 -4.1076 0
M  V30 9332 H 881.616 -5.37179 -2.00279 0
M  V30 9333 H 880.013 -5.84315 -1.36734 0
M  V30 9334 H 881.083 -4.83431 -0.377218 0
M  V30 9335 N 882.426 0.269451 -1.5528 0
M  V30 9336 C 883.673 1.00058 -1.76053 0
M  V30 9337 C 884.001 1.86156 -0.563592 0
M  V30 9338 O 883.256 1.90366 0.453806 0
M  V30 9339 C 883.555 1.91 -3.02082 0
M  V30 9340 C 883.221 1.20623 -4.34466 0
M  V30 9341 C 881.883 1.01165 -4.70446 0
M  V30 9342 C 884.235 0.705695 -5.164 0
M  V30 9343 C 881.563 0.303865 -5.85913 0
M  V30 9344 C 883.915 0.0114838 -6.32599 0
M  V30 9345 C 882.579 -0.19478 -6.67216 0
M  V30 9346 H 881.849 0.366138 -0.644223 0
M  V30 9347 H 884.496 0.272563 -1.8955 0
M  V30 9348 H 882.801 2.70435 -2.835 0
M  V30 9349 H 884.498 2.47698 -3.15352 0
M  V30 9350 H 881.088 1.36781 -4.06188 0
M  V30 9351 H 885.272 0.84364 -4.89077 0
M  V30 9352 H 880.528 0.133368 -6.11255 0
M  V30 9353 H 884.702 -0.384111 -6.9534 0
M  V30 9354 H 882.329 -0.745201 -7.56539 0
M  V30 9355 N 883.904 1.48273 0.534124 0
M  V30 9356 C 885.181 1.46567 1.29528 0
M  V30 9357 C 885.561 0.17509 2.10373 0
M  V30 9358 O 884.909 -0.843228 2.12372 0
M  V30 9359 C 885.119 2.72519 2.18023 0
M  V30 9360 C 886.467 3.2068 2.78298 0
M  V30 9361 O 887.491 2.73408 2.28313 0
M  V30 9362 O 886.35 4.02924 3.69208 0
M  V30 9363 H 883.444 0.585151 0.584403 0
M  V30 9364 H 885.99 1.60502 0.551119 0
M  V30 9365 H 884.762 3.57965 1.5804 0
M  V30 9366 H 884.385 2.61285 2.99693 0
M  V30 9367 N 885.382 -0.782676 1.36792 0
M  V30 9368 C 886.314 -1.9044 1.27536 0
M  V30 9369 C 887.327 -1.61647 0.193426 0
M  V30 9370 O 888.516 -1.72769 0.448692 0
M  V30 9371 C 885.616 -3.2541 0.946641 0
M  V30 9372 C 884.789 -3.81932 2.13183 0
M  V30 9373 C 883.848 -4.95355 1.7751 0
M  V30 9374 O 882.874 -5.11517 2.49678 0
M  V30 9375 N 884.076 -5.76108 0.712755 0
M  V30 9376 H 886.841 -1.98899 2.24186 0
M  V30 9377 H 884.402 -0.96127 1.30274 0
M  V30 9378 H 886.394 -3.98791 0.689043 0
M  V30 9379 H 884.964 -3.12524 0.0690591 0
M  V30 9380 H 884.184 -3.00459 2.55183 0
M  V30 9381 H 885.472 -4.16426 2.92347 0
M  V30 9382 H 884.87 -5.65586 0.113662 0
M  V30 9383 H 883.427 -6.49762 0.514995 0
M  V30 9384 N 886.86 -1.21182 -1.00761 0
M  V30 9385 C 888.109 -1.02166 -1.73911 0
M  V30 9386 C 888.422 0.445638 -1.90456 0
M  V30 9387 O 889.628 0.755132 -2.60787 0
M  V30 9388 C 888.084 -1.77936 -3.12837 0
M  V30 9389 C 887.692 -3.28819 -3.04273 0
M  V30 9390 C 889.436 -1.67319 -3.90134 0
M  V30 9391 C 887.343 -3.97089 -4.38262 0
M  V30 9392 H 886.273 -0.378665 -0.652019 0
M  V30 9393 H 888.924 -1.44891 -1.12601 0
M  V30 9394 H 887.306 -1.28003 -3.74742 0
M  V30 9395 H 888.48 -3.86035 -2.51622 0
M  V30 9396 H 886.795 -3.39949 -2.40465 0
M  V30 9397 H 889.392 -2.15659 -4.8928 0
M  V30 9398 H 889.735 -0.630959 -4.11491 0
M  V30 9399 H 890.268 -2.14716 -3.34876 0
M  V30 9400 H 887.007 -5.01503 -4.22107 0
M  V30 9401 H 886.527 -3.44662 -4.90885 0
M  V30 9402 H 888.206 -4.01854 -5.07072 0
M  V30 9403 N 888.338 1.20213 -1.01915 0
M  V30 9404 C 889.268 2.25336 -0.612023 0
M  V30 9405 C 890.249 1.65933 0.374186 0
M  V30 9406 O 891.434 1.92464 0.259053 0
M  V30 9407 C 888.564 3.47267 0.047904 0
M  V30 9408 C 887.518 4.1928 -0.859557 0
M  V30 9409 C 886.844 5.3466 -0.0652655 0
M  V30 9410 C 888.144 4.75143 -2.1688 0
M  V30 9411 H 889.838 2.59645 -1.49079 0
M  V30 9412 H 887.384 1.24808 -0.718263 0
M  V30 9413 H 889.337 4.19991 0.344294 0
M  V30 9414 H 888.061 3.12129 0.961404 0
M  V30 9415 H 886.72 3.48425 -1.13999 0
M  V30 9416 H 886.368 4.95767 0.849964 0
M  V30 9417 H 886.068 5.83772 -0.669618 0
M  V30 9418 H 887.592 6.10187 0.224612 0
M  V30 9419 H 889.006 5.39672 -1.9346 0
M  V30 9420 H 887.403 5.34702 -2.72422 0
M  V30 9421 H 888.473 3.93744 -2.83008 0
M  V30 9422 N 889.816 0.795718 1.36037 0
M  V30 9423 C 890.749 0.144269 2.27744 0
M  V30 9424 C 891.727 -0.683351 1.47543 0
M  V30 9425 O 892.911 -0.652976 1.76829 0
M  V30 9426 C 890.038 -0.800944 3.29094 0
M  V30 9427 C 889.084 -0.0543234 4.26465 0
M  V30 9428 S 889.917 1.27426 5.20118 0
M  V30 9429 C 891.073 0.333213 6.25012 0
M  V30 9430 H 891.306 0.921827 2.82648 0
M  V30 9431 H 888.839 0.590241 1.42673 0
M  V30 9432 H 890.797 -1.34082 3.87985 0
M  V30 9433 H 889.458 -1.5518 2.7309 0
M  V30 9434 H 888.651 -0.771788 4.98056 0
M  V30 9435 H 888.253 0.415264 3.71687 0
M  V30 9436 H 890.545 -0.485604 6.75757 0
M  V30 9437 H 891.488 1.01798 7.00744 0
M  V30 9438 H 891.896 -0.066256 5.64461 0
M  V30 9439 N 891.294 -1.47756 0.548274 0
M  V30 9440 C 892.542 -2.02089 0.0208542 0
M  V30 9441 C 892.863 -1.42589 -1.33017 0
M  V30 9442 O 892.133 -0.597825 -1.86555 0
M  V30 9443 H 890.713 -0.746985 0.00472023 0
M  V30 9444 H 893.375 -1.81262 0.716257 0
M  V30 9445 H 892.471 -3.12012 -0.0739016 0
M  V30 9446 N 892.772 -0.284283 -1.55015 0
M  V30 9447 C 893.704 0.63258 -2.20298 0
M  V30 9448 C 894.717 1.11045 -1.1905 0
M  V30 9449 O 895.906 1.03078 -1.4573 0
M  V30 9450 C 893.006 1.87599 -2.82241 0
M  V30 9451 C 892.179 1.5434 -4.09265 0
M  V30 9452 C 891.238 2.64023 -4.55169 0
M  V30 9453 O 890.264 2.29821 -5.20741 0
M  V30 9454 N 891.466 3.94255 -4.26079 0
M  V30 9455 H 894.231 0.0737928 -2.99609 0
M  V30 9456 H 891.792 -0.105767 -1.61554 0
M  V30 9457 H 893.784 2.60289 -3.0989 0
M  V30 9458 H 892.354 2.3436 -2.06868 0
M  V30 9459 H 891.574 0.649912 -3.88806 0
M  V30 9460 H 892.862 1.29634 -4.92009 0
M  V30 9461 H 892.26 4.24859 -3.73512 0
M  V30 9462 H 890.817 4.63295 -4.58477 0
M  V30 9463 N 894.251 1.57596 -0.0117121 0
M  V30 9464 C 895.497 1.91355 0.671661 0
M  V30 9465 C 895.83 0.886818 1.72769 0
M  V30 9466 O 895.105 -0.0928813 1.94278 0
M  V30 9467 C 895.388 3.35657 1.30409 0
M  V30 9468 C 895.241 4.49055 0.2588 0
M  V30 9469 C 896.56 3.79595 2.22701 0
M  V30 9470 H 893.679 0.695893 0.242698 0
M  V30 9471 H 896.321 1.89887 -0.0654071 0
M  V30 9472 H 894.471 3.37038 1.9323 0
M  V30 9473 H 896.143 4.59809 -0.370631 0
M  V30 9474 H 894.386 4.31785 -0.417672 0
M  V30 9475 H 895.057 5.4701 0.740578 0
M  V30 9476 H 897.533 3.7984 1.69885 0
M  V30 9477 H 896.409 4.81292 2.63912 0
M  V30 9478 H 896.67 3.14118 3.11098 0
M  V30 9479 N 895.729 -0.261212 1.5542 0
M  V30 9480 C 897.006 -1.01321 1.67312 0
M  V30 9481 C 897.386 -2.0388 0.547356 0
M  V30 9482 O 896.734 -2.24003 -0.451083 0
M  V30 9483 C 896.944 -1.65943 3.07024 0
M  V30 9484 C 898.292 -2.16666 3.65159 0
M  V30 9485 O 899.316 -1.75909 3.09733 0
M  V30 9486 O 898.175 -2.91455 4.62294 0
M  V30 9487 H 895.269 -0.470714 0.679968 0
M  V30 9488 H 897.815 -0.256133 1.67756 0
M  V30 9489 H 896.587 -0.916868 3.80407 0
M  V30 9490 H 896.21 -2.48308 3.1053 0
M  V30 9491 N 897.207 -1.48554 -0.526253 0
M  V30 9492 C 898.454 -1.56761 -1.28188 0
M  V30 9493 C 898.782 -0.24315 -1.92974 0
M  V30 9494 O 898.037 0.766883 -1.80048 0
M  V30 9495 C 898.336 -2.65739 -2.38993 0
M  V30 9496 C 898.002 -4.08057 -1.91834 0
M  V30 9497 C 896.664 -4.46792 -1.78691 0
M  V30 9498 C 899.016 -4.9723 -1.56242 0
M  V30 9499 C 896.344 -5.72501 -1.28296 0
M  V30 9500 C 898.696 -6.23432 -1.07309 0
M  V30 9501 C 897.36 -6.6102 -0.927853 0
M  V30 9502 H 896.63 -0.573631 -0.469072 0
M  V30 9503 H 899.277 -1.82287 -0.586842 0
M  V30 9504 H 897.582 -2.34088 -3.14181 0
M  V30 9505 H 899.279 -2.69304 -2.97113 0
M  V30 9506 H 895.869 -3.77469 -2.03016 0
M  V30 9507 H 900.053 -4.67979 -1.65255 0
M  V30 9508 H 895.309 -6.00345 -1.15742 0
M  V30 9509 H 899.483 -6.91923 -0.788412 0
M  V30 9510 H 897.11 -7.58314 -0.535162 0
M  V30 9511 N 898.685 0.775411 -1.37205 0
M  V30 9512 C 900.096 1.35147 -1.28811 0
M  V30 9513 C 900.447 1.96089 0.0659168 0
M  V30 9514 O 899.572 1.93558 0.967684 0
M  V30 9515 C 900.167 2.45715 -2.33258 0
M  V30 9516 C 898.726 2.99099 -2.2851 0
M  V30 9517 C 897.873 1.72286 -2.17285 0
M  V30 9518 H 900.824 0.575954 -1.4788 0
M  V30 9519 H 900.845 3.251 -1.97712 0
M  V30 9520 H 900.357 2.01331 -3.31795 0
M  V30 9521 H 898.458 3.47868 -1.33485 0
M  V30 9522 H 898.571 3.54962 -3.21774 0
M  V30 9523 H 896.935 1.95068 -1.6377 0
M  V30 9524 H 897.718 1.3001 -3.1773 0
M  V30 9525 N 900.163 1.21714 1.00117 0
M  V30 9526 C 901.388 1.06357 1.78054 0
M  V30 9527 C 901.813 -0.382075 1.84179 0
M  V30 9528 O 901.171 -1.27575 1.28819 0
M  V30 9529 C 901.219 1.66982 3.19608 0
M  V30 9530 O 900.323 0.917892 4.02055 0
M  V30 9531 H 899.664 0.374074 0.548602 0
M  V30 9532 H 902.194 1.61338 1.25822 0
M  V30 9533 H 902.204 1.71363 3.70268 0
M  V30 9534 H 900.879 2.72185 3.14465 0
M  V30 9535 H 899.456 0.949473 3.6061 0
M  V30 9536 N 901.641 -1.19671 1.02551 0
M  V30 9537 C 903.052 -1.70964 0.750208 0
M  V30 9538 C 903.403 -1.82095 -0.730461 0
M  V30 9539 O 902.528 -1.48974 -1.56958 0
M  V30 9540 C 903.123 -3.10516 1.35518 0
M  V30 9541 C 901.682 -3.59083 1.12854 0
M  V30 9542 C 900.829 -2.36041 1.45534 0
M  V30 9543 H 903.78 -1.04559 1.19386 0
M  V30 9544 H 903.801 -3.73028 0.750378 0
M  V30 9545 H 903.313 -3.02383 2.43282 0
M  V30 9546 H 901.414 -3.72536 0.0689627 0
M  V30 9547 H 901.527 -4.43395 1.81488 0
M  V30 9548 H 899.891 -2.39214 0.87458 0
M  V30 9549 H 900.674 -2.3054 2.54374 0
M  V30 9550 N 903.119 -0.802921 -1.35613 0
M  V30 9551 C 904.349 -0.393359 -2.02821 0
M  V30 9552 C 904.757 0.999282 -1.60658 0
M  V30 9553 O 904.1 1.65463 -0.797977 0
M  V30 9554 C 904.162 -0.393102 -3.57344 0
M  V30 9555 C 903.826 -1.73563 -4.22759 0
M  V30 9556 C 904.823 -2.69333 -4.44698 0
M  V30 9557 C 902.508 -2.01863 -4.59953 0
M  V30 9558 C 904.502 -3.91589 -5.02928 0
M  V30 9559 C 902.189 -3.24383 -5.17898 0
M  V30 9560 C 903.187 -4.19064 -5.39328 0
M  V30 9561 O 902.875 -5.39422 -5.96053 0
M  V30 9562 H 902.607 -0.158431 -0.657172 0
M  V30 9563 H 905.161 -1.08682 -1.74291 0
M  V30 9564 H 903.391 0.356934 -3.85049 0
M  V30 9565 H 905.08 -0.00635596 -4.059 0
M  V30 9566 H 905.846 -2.48759 -4.16346 0
M  V30 9567 H 901.725 -1.28979 -4.42589 0
M  V30 9568 H 905.269 -4.65502 -5.1957 0
M  V30 9569 H 901.166 -3.44829 -5.45677 0
M  V30 9570 H 901.934 -5.40669 -6.14507 0
M  V30 9571 N 904.597 1.47463 -0.556102 0
M  V30 9572 C 905.843 2.03361 -0.039909 0
M  V30 9573 C 906.198 1.42292 1.29502 0
M  V30 9574 O 905.491 0.568813 1.82962 0
M  V30 9575 C 905.685 3.57224 0.112126 0
M  V30 9576 C 905.514 4.33213 -1.20652 0
M  V30 9577 C 904.284 4.73153 -1.77352 0
M  V30 9578 C 906.482 4.68415 -2.12348 0
M  V30 9579 N 904.464 5.33781 -3.03233 0
M  V30 9580 C 905.835 5.29334 -3.22808 0
M  V30 9581 C 907.89 4.50344 -2.12356 0
M  V30 9582 C 906.593 5.7409 -4.33374 0
M  V30 9583 C 908.619 4.96098 -3.21933 0
M  V30 9584 C 907.981 5.57065 -4.31112 0
M  V30 9585 H 904.08 0.779939 -0.0567407 0
M  V30 9586 H 906.664 1.79959 -0.743147 0
M  V30 9587 H 904.835 3.80395 0.784485 0
M  V30 9588 H 906.567 3.99762 0.630285 0
M  V30 9589 H 903.322 4.55074 -1.31165 0
M  V30 9590 H 903.746 5.6864 -3.67393 0
M  V30 9591 H 908.388 4.02566 -1.29229 0
M  V30 9592 H 906.106 6.2086 -5.17261 0
M  V30 9593 H 909.692 4.83887 -3.23024 0
M  V30 9594 H 908.572 5.91824 -5.14504 0
M  V30 9595 N 906.075 0.2925 1.54862 0
M  V30 9596 C 907.352 -0.371946 1.92031 0
M  V30 9597 C 907.732 -1.72363 1.21878 0
M  V30 9598 O 907.08 -2.25779 0.351573 0
M  V30 9599 C 907.29 -0.495027 3.45471 0
M  V30 9600 C 908.638 -0.769855 4.17562 0
M  V30 9601 O 909.662 -0.579168 3.5146 0
M  V30 9602 O 908.521 -1.13561 5.34571 0
M  V30 9603 H 905.615 -0.206463 0.800813 0
M  V30 9604 H 908.161 0.339933 1.6626 0
M  V30 9605 H 906.933 0.455528 3.88639 0
M  V30 9606 H 906.556 -1.2557 3.7725 0
M  V30 9607 N 907.553 -1.57587 0.0200696 0
M  V30 9608 C 908.501 -2.10814 -0.982868 0
M  V30 9609 C 909.495 -1.03263 -1.34287 0
M  V30 9610 O 910.701 -1.21708 -1.32617 0
M  V30 9611 H 907.076 -0.673409 -0.334701 0
M  V30 9612 H 909.047 -2.94034 -0.50856 0
M  V30 9613 C 907.796 -2.64301 -2.25921 0
M  V30 9614 H 907.119 -3.46703 -1.99091 0
M  V30 9615 H 908.559 -3.052 -2.94328 0
M  V30 9616 C 907.018 -1.56628 -2.98277 0
M  V30 9617 O 907.548 -0.960825 -3.9004 0
M  V30 9618 N 905.754 -1.28889 -2.60453 0
M  V30 9619 H 905.301 -1.7831 -1.85912 0
M  V30 9620 H 905.259 -0.570697 -3.09177 0
M  V30 9621 N 909.032 0.252966 -1.55557 0
M  V30 9622 C 910.278 0.983306 -1.77367 0
M  V30 9623 C 910.611 1.85203 -0.584258 0
M  V30 9624 O 909.886 1.89963 0.417644 0
M  V30 9625 C 910.169 1.84896 -3.09007 0
M  V30 9626 C 910.022 1.00883 -4.38341 0
M  V30 9627 C 911.341 2.83254 -3.36831 0
M  V30 9628 H 908.46 0.356056 -0.645286 0
M  V30 9629 H 911.102 0.254232 -1.88291 0
M  V30 9630 H 909.252 2.47058 -2.99825 0
M  V30 9631 H 910.924 0.40638 -4.59507 0
M  V30 9632 H 909.167 0.31297 -4.3267 0
M  V30 9633 H 909.838 1.64818 -5.2682 0
M  V30 9634 H 912.314 2.31228 -3.45937 0
M  V30 9635 H 911.19 3.40949 -4.30169 0
M  V30 9636 H 911.451 3.59407 -2.57447 0
M  V30 9637 N 910.51 1.48831 0.518367 0
M  V30 9638 C 911.735 1.61379 1.30275 0
M  V30 9639 C 912.16 0.278571 1.86026 0
M  V30 9640 O 911.518 -0.751427 1.64995 0
M  V30 9641 C 911.566 2.67225 2.42122 0
M  V30 9642 O 910.67 2.25192 3.45489 0
M  V30 9643 H 910.011 0.540742 0.385349 0
M  V30 9644 H 912.541 1.949 0.622498 0
M  V30 9645 H 912.551 2.88859 2.8814 0
M  V30 9646 H 911.226 3.64155 2.00907 0
M  V30 9647 H 909.803 2.13819 3.05509 0
M  V30 9648 N 911.988 -0.768124 1.37614 0
M  V30 9649 C 913.265 -1.51637 1.23554 0
M  V30 9650 C 913.645 -2.1042 -0.169331 0
M  V30 9651 O 912.993 -1.95834 -1.17735 0
M  V30 9652 C 913.203 -2.59436 2.33439 0
M  V30 9653 C 914.551 -3.2674 2.71157 0
M  V30 9654 O 915.575 -2.69733 2.32642 0
M  V30 9655 O 914.434 -4.29814 3.37524 0
M  V30 9656 H 911.528 -0.671778 0.482332 0
M  V30 9657 H 914.074 -0.804779 1.49403 0
M  V30 9658 H 912.846 -2.14146 3.27502 0
M  V30 9659 H 912.469 -3.38192 2.09073 0
M  V30 9660 N 913.466 -1.22244 -0.994698 0
M  V30 9661 C 914.691 -1.07299 -1.77487 0
M  V30 9662 C 915.116 0.372302 -1.84379 0
M  V30 9663 O 914.474 1.2689 -1.29494 0
M  V30 9664 C 914.522 -1.68675 -3.18718 0
M  V30 9665 O 913.626 -0.939202 -4.01563 0
M  V30 9666 H 912.967 -0.376979 -0.546611 0
M  V30 9667 H 915.497 -1.62003 -1.24965 0
M  V30 9668 H 915.507 -1.73324 -3.69354 0
M  V30 9669 H 914.182 -2.73849 -3.13017 0
M  V30 9670 H 912.759 -0.968583 -3.60101 0
M  V30 9671 N 914.944 1.19125 -1.03184 0
M  V30 9672 C 915.907 2.20662 -0.619766 0
M  V30 9673 C 916.907 1.57621 0.318179 0
M  V30 9674 O 918.097 1.73885 0.104783 0
M  V30 9675 C 915.229 3.40774 0.0926696 0
M  V30 9676 H 916.422 2.58633 -1.5182 0
M  V30 9677 H 913.975 1.32855 -0.823364 0
M  V30 9678 H 914.71 3.08324 1.00531 0
M  V30 9679 H 914.495 3.87766 -0.581344 0
M  V30 9680 H 915.985 4.15977 0.367792 0
M  V30 9681 N 916.422 0.810101 1.35185 0
M  V30 9682 C 917.369 0.220927 2.2974 0
M  V30 9683 C 918.339 -0.647024 1.5298 0
M  V30 9684 O 919.524 -0.591367 1.81404 0
M  V30 9685 C 916.664 -0.62167 3.39454 0
M  V30 9686 C 915.777 0.267104 4.31173 0
M  V30 9687 C 914.912 -0.583833 5.27982 0
M  V30 9688 C 913.951 0.305123 6.11339 0
M  V30 9689 N 913.088 -0.505992 7.00274 0
M  V30 9690 H 917.928 1.03266 2.79536 0
M  V30 9691 H 915.465 0.520768 1.37573 0
M  V30 9692 H 917.423 -1.12539 4.01735 0
M  V30 9693 H 916.053 -1.39863 2.90926 0
M  V30 9694 H 915.105 0.88895 3.69867 0
M  V30 9695 H 916.417 0.951182 4.89647 0
M  V30 9696 H 915.571 -1.15254 5.95652 0
M  V30 9697 H 914.31 -1.30146 4.70014 0
M  V30 9698 H 913.315 0.886075 5.42613 0
M  V30 9699 H 914.54 1.02067 6.71386 0
M  V30 9700 H 912.486 -1.20753 6.4479 0
M  V30 9701 H 912.403 0.119966 7.55905 0
M  V30 9702 H 913.671 -1.05787 7.72288 0
M  V30 9703 N 917.9 -1.47166 0.563914 0
M  V30 9704 C 918.81 -2.33885 -0.182977 0
M  V30 9705 C 919.826 -1.48605 -0.905132 0
M  V30 9706 O 921.002 -1.81518 -0.872527 0
M  V30 9707 C 918.067 -3.25433 -1.19558 0
M  V30 9708 C 917.128 -4.26607 -0.480129 0
M  V30 9709 C 916.361 -5.1378 -1.44449 0
M  V30 9710 O 916.584 -5.03531 -2.67979 0
M  V30 9711 O 915.518 -5.94109 -0.965321 0
M  V30 9712 H 919.344 -2.99065 0.528544 0
M  V30 9713 H 916.929 -1.45834 0.324468 0
M  V30 9714 H 918.811 -3.81964 -1.77993 0
M  V30 9715 H 917.486 -2.62873 -1.8889 0
M  V30 9716 H 916.393 -3.73817 0.145583 0
M  V30 9717 H 917.726 -4.919 0.171868 0
M  V30 9718 N 919.378 -0.300708 -1.54705 0
M  V30 9719 C 920.308 0.568675 -2.26469 0
M  V30 9720 C 921.289 1.13817 -1.26411 0
M  V30 9721 O 922.474 1.16756 -1.55183 0
M  V30 9722 C 919.604 1.74077 -3.00524 0
M  V30 9723 C 918.558 1.30165 -4.07727 0
M  V30 9724 C 917.884 2.55888 -4.69495 0
M  V30 9725 C 919.184 0.433106 -5.20501 0
M  V30 9726 H 920.878 -0.0298851 -2.99385 0
M  V30 9727 H 918.424 -0.0158135 -1.43991 0
M  V30 9728 H 920.377 2.35506 -3.49449 0
M  V30 9729 H 919.101 2.36556 -2.25186 0
M  V30 9730 H 917.76 0.710414 -3.59651 0
M  V30 9731 H 917.408 3.16681 -3.90797 0
M  V30 9732 H 917.108 2.27207 -5.41895 0
M  V30 9733 H 918.632 3.18121 -5.21183 0
M  V30 9734 H 920.046 0.95307 -5.65322 0
M  V30 9735 H 918.443 0.240085 -5.9962 0
M  V30 9736 H 919.513 -0.541866 -4.81863 0
M  V30 9737 N 920.856 1.57574 -0.0284266 0
M  V30 9738 C 922.105 1.9095 0.649704 0
M  V30 9739 C 922.418 0.906421 1.7333 0
M  V30 9740 O 923.624 1.1314 2.46803 0
M  V30 9741 C 922.08 3.39061 1.20687 0
M  V30 9742 C 921.688 4.47726 0.156597 0
M  V30 9743 C 923.432 3.81505 1.86156 0
M  V30 9744 C 921.339 5.86935 0.725365 0
M  V30 9745 H 920.269 0.712589 0.24644 0
M  V30 9746 H 922.92 1.83261 -0.0936143 0
M  V30 9747 H 921.302 3.41679 2.00178 0
M  V30 9748 H 922.476 4.56667 -0.6158 0
M  V30 9749 H 920.791 4.14481 -0.399288 0
M  V30 9750 H 923.388 4.82865 2.29665 0
M  V30 9751 H 923.731 3.16529 2.70398 0
M  V30 9752 H 924.264 3.81307 1.13356 0
M  V30 9753 H 921.003 6.55453 -0.0789081 0
M  V30 9754 H 920.523 5.81602 1.46627 0
M  V30 9755 H 922.202 6.35483 1.21532 0
M  V30 9756 N 922.334 -0.244713 1.55689 0
M  V30 9757 C 923.562 -0.989944 1.8168 0
M  V30 9758 C 923.977 -1.78863 0.604449 0
M  V30 9759 O 923.334 -1.77437 -0.426907 0
M  V30 9760 C 923.385 -1.92607 3.05916 0
M  V30 9761 O 923.106 -1.1597 4.22472 0
M  V30 9762 C 924.607 -2.78711 3.44724 0
M  V30 9763 H 921.827 -0.2912 0.604519 0
M  V30 9764 H 924.371 -0.266938 2.0275 0
M  V30 9765 H 922.526 -2.60333 2.8689 0
M  V30 9766 H 922.94 -1.79311 4.92898 0
M  V30 9767 H 924.414 -3.40141 4.34751 0
M  V30 9768 H 924.891 -3.49935 2.6541 0
M  V30 9769 H 925.497 -2.16435 3.66109 0
M  V30 9770 N 923.813 -1.49104 -0.510467 0
M  V30 9771 C 924.746 -1.59667 -1.63039 0
M  V30 9772 C 925.724 -0.446145 -1.5636 0
M  V30 9773 O 926.908 -0.660414 -1.76552 0
M  V30 9774 C 924.035 -1.54282 -3.01521 0
M  V30 9775 C 923.081 -2.74415 -3.26494 0
M  V30 9776 S 923.914 -4.3619 -3.10643 0
M  V30 9777 C 925.07 -4.33435 -4.51536 0
M  V30 9778 H 925.303 -2.54407 -1.53833 0
M  V30 9779 H 922.836 -1.37878 -0.694916 0
M  V30 9780 H 924.794 -1.51861 -3.81377 0
M  V30 9781 H 923.455 -0.608458 -3.0815 0
M  V30 9782 H 922.648 -2.66841 -4.27565 0
M  V30 9783 H 922.25 -2.74199 -2.54344 0
M  V30 9784 H 924.542 -4.04571 -5.43441 0
M  V30 9785 H 925.485 -5.34752 -4.64162 0
M  V30 9786 H 925.893 -3.63638 -4.31773 0
M  V30 9787 N 925.291 0.760815 -1.38019 0
M  V30 9788 C 926.224 1.88212 -1.2904 0
M  V30 9789 C 927.202 1.61721 -0.168805 0
M  V30 9790 O 928.386 1.85318 -0.344893 0
M  V30 9791 C 925.513 3.23672 -0.997702 0
M  V30 9792 C 924.559 3.6906 -2.13769 0
M  V30 9793 S 925.392 3.81445 -3.75845 0
M  V30 9794 C 926.548 5.19736 -3.48748 0
M  V30 9795 H 926.781 1.95541 -2.23944 0
M  V30 9796 H 924.314 0.923051 -1.2377 0
M  V30 9797 H 926.272 4.01904 -0.835657 0
M  V30 9798 H 924.933 3.14031 -0.065967 0
M  V30 9799 H 924.126 4.67295 -1.88816 0
M  V30 9800 H 923.728 2.97961 -2.26043 0
M  V30 9801 H 926.02 6.05259 -3.04414 0
M  V30 9802 H 926.963 5.49706 -4.46351 0
M  V30 9803 H 927.371 4.88191 -2.83425 0
M  V30 9804 N 926.769 1.22769 0.988202 0
M  V30 9805 C 927.699 1.02627 2.09738 0
M  V30 9806 C 928.68 -0.0543211 1.70013 0
M  V30 9807 O 929.865 0.108811 1.93895 0
M  V30 9808 C 926.995 0.608302 3.41931 0
M  V30 9809 C 925.949 1.63536 3.95525 0
M  V30 9810 C 925.275 1.07308 5.23822 0
M  V30 9811 C 926.575 3.02649 4.25677 0
M  V30 9812 H 928.269 1.954 2.26847 0
M  V30 9813 H 925.815 0.940888 1.09011 0
M  V30 9814 H 927.768 0.454478 4.18942 0
M  V30 9815 H 926.492 -0.355095 3.24664 0
M  V30 9816 H 925.151 1.77704 3.20651 0
M  V30 9817 H 924.799 0.100894 5.02899 0
M  V30 9818 H 924.499 1.75925 5.60646 0
M  V30 9819 H 926.023 0.930938 6.03462 0
M  V30 9820 H 927.437 2.91828 4.93467 0
M  V30 9821 H 925.834 3.68434 4.73684 0
M  V30 9822 H 926.904 3.52228 3.33262 0
M  V30 9823 N 928.247 -1.18576 1.03814 0
M  V30 9824 C 929.177 -2.24334 0.647795 0
M  V30 9825 C 930.158 -1.66508 -0.34774 0
M  V30 9826 O 931.343 -1.92852 -0.228401 0
M  V30 9827 C 928.473 -3.47299 0.00734922 0
M  V30 9828 C 927.427 -4.17859 0.926152 0
M  V30 9829 C 926.753 -5.34489 0.150317 0
M  V30 9830 C 928.053 -4.71632 2.24411 0
M  V30 9831 H 929.747 -2.57241 1.53191 0
M  V30 9832 H 927.293 -1.23649 0.738028 0
M  V30 9833 H 929.246 -4.20486 -0.277434 0
M  V30 9834 H 927.97 -3.13619 -0.911626 0
M  V30 9835 H 926.629 -3.46567 1.19528 0
M  V30 9836 H 926.277 -4.97056 -0.770985 0
M  V30 9837 H 925.977 -5.82633 0.762407 0
M  V30 9838 H 927.501 -6.10467 -0.127508 0
M  V30 9839 H 928.915 -5.36526 2.02021 0
M  V30 9840 H 927.312 -5.303 2.80894 0
M  V30 9841 H 928.382 -3.89192 2.89236 0
M  V30 9842 N 929.725 -0.817259 -1.34754 0
M  V30 9843 C 930.971 -0.403244 -1.98751 0
M  V30 9844 C 931.304 1.02963 -1.64658 0
M  V30 9845 O 930.579 1.71617 -0.915314 0
M  V30 9846 C 930.862 -0.599188 -3.5508 0
M  V30 9847 C 930.715 -2.07777 -3.98934 0
M  V30 9848 C 932.034 -0.0315656 -4.40089 0
M  V30 9849 H 929.153 -0.147988 -0.721989 0
M  V30 9850 H 931.795 -1.02877 -1.59738 0
M  V30 9851 H 929.945 -0.0667116 -3.88443 0
M  V30 9852 H 931.617 -2.67345 -3.75931 0
M  V30 9853 H 929.86 -2.57031 -3.49453 0
M  V30 9854 H 930.531 -2.16571 -5.07741 0
M  V30 9855 H 933.007 -0.48644 -4.13247 0
M  V30 9856 H 931.883 -0.198507 -5.48541 0
M  V30 9857 H 932.144 1.06302 -4.2913 0
M  V30 9858 N 931.203 1.46865 -0.571711 0
M  V30 9859 C 932.48 1.95596 0.0132445 0
M  V30 9860 C 932.86 1.51438 1.47071 0
M  V30 9861 O 932.208 0.759917 2.15494 0
M  V30 9862 C 932.418 3.48689 -0.147335 0
M  V30 9863 C 933.766 4.24599 -0.00946329 0
M  V30 9864 O 934.79 3.5612 -0.0756112 0
M  V30 9865 O 933.649 5.46332 0.135361 0
M  V30 9866 H 930.743 0.825102 0.0560039 0
M  V30 9867 H 933.289 1.57199 -0.639256 0
M  V30 9868 H 932.061 3.73681 -1.16096 0
M  V30 9869 H 931.684 3.93887 0.542109 0
M  V30 9870 N 932.681 0.308908 1.54543 0
M  V30 9871 C 933.927 -0.298478 2.00592 0
M  V30 9872 C 934.26 -1.52929 1.19692 0
M  V30 9873 O 933.535 -1.9254 0.27542 0
M  V30 9874 C 933.818 -0.647218 3.54236 0
M  V30 9875 C 933.671 0.593284 4.4587 0
M  V30 9876 C 934.99 -1.47064 4.14801 0
M  V30 9877 H 932.109 -0.107012 0.72919 0
M  V30 9878 H 934.751 0.422578 1.85241 0
M  V30 9879 H 932.901 -1.26153 3.67447 0
M  V30 9880 H 934.573 1.2317 4.44552 0
M  V30 9881 H 932.816 1.22501 4.16144 0
M  V30 9882 H 933.487 0.305018 5.51157 0
M  V30 9883 H 935.963 -0.951511 4.05075 0
M  V30 9884 H 934.839 -1.68343 5.22448 0
M  V30 9885 H 935.1 -2.4623 3.67183 0
M  V30 9886 N 934.159 -1.57557 0.0367827 0
M  V30 9887 C 935.436 -1.83427 -0.679261 0
M  V30 9888 C 935.816 -0.922274 -1.89888 0
M  V30 9889 O 935.164 0.02025 -2.28491 0
M  V30 9890 C 935.374 -3.32823 -1.05022 0
M  V30 9891 C 936.722 -3.99486 -1.43861 0
M  V30 9892 O 937.746 -3.37364 -1.14297 0
M  V30 9893 O 936.605 -5.0899 -1.98977 0
M  V30 9894 H 933.699 -0.756581 -0.333936 0
M  V30 9895 H 936.245 -1.69575 0.0650494 0
M  V30 9896 H 935.017 -3.90874 -0.182509 0
M  V30 9897 H 934.64 -3.5181 -1.85244 0
M  V30 9898 N 935.637 0.236453 -1.55816 0
M  V30 9899 C 936.569 1.31602 -1.87653 0
M  V30 9900 C 937.582 1.43782 -0.763584 0
M  V30 9901 O 938.771 1.44945 -1.04178 0
M  V30 9902 C 935.871 2.69342 -2.05689 0
M  V30 9903 C 935.044 2.79298 -3.36617 0
M  V30 9904 C 934.103 3.97952 -3.44268 0
M  V30 9905 O 933.129 3.86989 -4.17406 0
M  V30 9906 N 934.331 5.11594 -2.74321 0
M  V30 9907 H 937.096 1.04623 -2.80845 0
M  V30 9908 H 934.657 0.426534 -1.5618 0
M  V30 9909 H 936.649 3.47074 -2.08138 0
M  V30 9910 H 935.219 2.88984 -1.19192 0
M  V30 9911 H 934.439 1.8816 -3.46395 0
M  V30 9912 H 935.727 2.82908 -4.22895 0
M  V30 9913 H 935.125 5.23394 -2.14651 0
M  V30 9914 H 933.682 5.87422 -2.8245 0
M  V30 9915 N 937.115 1.49373 0.502552 0
M  V30 9916 C 938.531 1.36101 0.833591 0
M  V30 9917 C 938.731 0.392911 1.97632 0
M  V30 9918 O 937.787 -0.175975 2.51886 0
M  V30 9919 C 939.1 2.76782 1.17526 0
M  V30 9920 C 940.648 2.85471 1.28356 0
M  V30 9921 C 941.123 4.26915 1.65853 0
M  V30 9922 N 942.614 4.29719 1.72905 0
M  V30 9923 C 943.349 5.36127 2.0336 0
M  V30 9924 N 942.845 6.52782 2.32049 0
M  V30 9925 N 944.638 5.23542 2.04598 0
M  V30 9926 H 936.789 2.10912 -0.251008 0
M  V30 9927 H 939.052 0.946696 -0.0497037 0
M  V30 9928 H 938.758 3.49314 0.408965 0
M  V30 9929 H 938.632 3.1205 2.11907 0
M  V30 9930 H 941.019 2.13177 2.04058 0
M  V30 9931 H 941.1 2.53787 0.320304 0
M  V30 9932 H 940.744 4.99735 0.907022 0
M  V30 9933 H 940.674 4.56063 2.63276 0
M  V30 9934 H 943.165 3.45586 1.529 0
M  V30 9935 H 943.478 7.29701 2.54471 0
M  V30 9936 H 941.823 6.56011 2.29509 0
M  V30 9937 H 945.014 4.31413 1.8166 0
M  V30 9938 H 945.187 6.06565 2.27998 0
M  V30 9939 N 938.594 -0.753485 1.38421 0
M  V30 9940 C 939.841 -1.51261 1.34634 0
M  V30 9941 C 940.169 -1.94396 -0.0635771 0
M  V30 9942 O 939.424 -1.65736 -1.04068 0
M  V30 9943 C 939.723 -2.77836 2.24816 0
M  V30 9944 C 939.389 -2.53662 3.72782 0
M  V30 9945 C 938.051 -2.46779 4.13103 0
M  V30 9946 C 940.403 -2.32548 4.66445 0
M  V30 9947 C 937.731 -2.16796 5.45176 0
M  V30 9948 C 940.083 -2.04085 5.98775 0
M  V30 9949 C 938.747 -1.95658 6.3818 0
M  V30 9950 H 938.017 -0.553503 0.492661 0
M  V30 9951 H 940.664 -0.866406 1.7078 0
M  V30 9952 H 938.969 -3.47106 1.81726 0
M  V30 9953 H 940.666 -3.35793 2.19189 0
M  V30 9954 H 937.256 -2.59891 3.40815 0
M  V30 9955 H 941.44 -2.36845 4.3614 0
M  V30 9956 H 936.696 -2.0878 5.74648 0
M  V30 9957 H 940.87 -1.86751 6.70893 0
M  V30 9958 H 938.497 -1.7219 7.40442 0
M  V30 9959 N 940.072 -1.23292 -0.981677 0
M  V30 9960 C 941.297 -1.09176 -1.76339 0
M  V30 9961 C 941.722 0.352726 -1.84763 0
M  V30 9962 O 941.08 1.25509 -1.30832 0
M  V30 9963 C 941.128 -1.72046 -3.16911 0
M  V30 9964 O 940.232 -0.98174 -4.00544 0
M  V30 9965 H 939.573 -0.382755 -0.542581 0
M  V30 9966 H 942.103 -1.63319 -1.23239 0
M  V30 9967 H 942.113 -1.77232 -3.67495 0
M  V30 9968 H 940.788 -2.77154 -3.10095 0
M  V30 9969 H 939.365 -1.00672 -3.59054 0
M  V30 9970 N 941.55 1.18024 -1.04442 0
M  V30 9971 C 942.513 2.19992 -0.643136 0
M  V30 9972 C 943.513 1.57949 0.301444 0
M  V30 9973 O 944.703 1.73986 0.0863341 0
M  V30 9974 C 941.835 3.40853 0.0565208 0
M  V30 9975 H 943.028 2.57008 -1.54554 0
M  V30 9976 H 940.581 1.31974 -0.837408 0
M  V30 9977 H 941.316 3.09373 0.972553 0
M  V30 9978 H 941.101 3.87128 -0.622439 0
M  V30 9979 H 942.591 4.16344 0.323652 0
M  V30 9980 N 943.028 0.824394 1.34319 0
M  V30 9981 C 944.274 0.413779 1.98534 0
M  V30 9982 C 944.607 -1.02089 1.65201 0
M  V30 9983 O 943.882 -1.71129 0.924402 0
M  V30 9984 C 944.165 0.61801 3.54757 0
M  V30 9985 C 944.018 2.0989 3.97827 0
M  V30 9986 C 945.337 0.0549041 4.40066 0
M  V30 9987 H 942.456 0.151815 0.721194 0
M  V30 9988 H 945.098 1.03723 1.5919 0
M  V30 9989 H 943.248 0.0873107 3.88402 0
M  V30 9990 H 944.92 2.69335 3.74508 0
M  V30 9991 H 943.163 2.58881 3.48085 0
M  V30 9992 H 943.834 2.1926 5.06586 0
M  V30 9993 H 946.31 0.508348 4.12983 0
M  V30 9994 H 945.186 0.227595 5.48428 0
M  V30 9995 H 945.447 -1.04025 4.29687 0
M  V30 9996 N 944.506 -1.46559 0.579492 0
M  V30 9997 C 945.438 -2.28383 -0.19337 0
M  V30 9998 C 946.451 -1.38324 -0.858511 0
M  V30 9999 O 947.64 -1.62952 -0.728615 0
M  V30 10000 C 944.74 -3.13262 -1.29306 0
M  V30 10001 C 943.913 -4.31426 -0.720459 0
M  V30 10002 C 942.972 -4.97728 -1.70744 0
M  V30 10003 O 941.998 -5.55423 -1.24476 0
M  V30 10004 N 943.2 -4.94445 -3.04146 0
M  V30 10005 H 945.965 -2.95353 0.508611 0
M  V30 10006 H 943.526 -1.56436 0.417046 0
M  V30 10007 H 945.518 -3.54483 -1.95254 0
M  V30 10008 H 944.088 -2.48388 -1.89795 0
M  V30 10009 H 943.308 -3.94028 0.116398 0
M  V30 10010 H 944.596 -5.07808 -0.31763 0
M  V30 10011 H 943.994 -4.4881 -3.44363 0
M  V30 10012 H 942.551 -5.39616 -3.65592 0
M  V30 10013 N 945.984 -0.3171 -1.54377 0
M  V30 10014 C 947.23 0.287836 -2.00747 0
M  V30 10015 C 947.563 1.52292 -1.20502 0
M  V30 10016 O 946.838 1.92391 -0.285626 0
M  V30 10017 C 947.121 0.628423 -3.54574 0
M  V30 10018 C 946.974 -0.616922 -4.45549 0
M  V30 10019 C 948.293 1.44862 -4.15575 0
M  V30 10020 H 945.412 0.103144 -0.729747 0
M  V30 10021 H 948.054 -0.432396 -1.85014 0
M  V30 10022 H 946.204 1.24203 -3.68111 0
M  V30 10023 H 947.876 -1.25526 -4.43893 0
M  V30 10024 H 946.119 -1.24706 -4.15489 0
M  V30 10025 H 946.79 -0.334243 -5.50987 0
M  V30 10026 H 949.266 0.930015 -4.05574 0
M  V30 10027 H 948.142 1.6557 -5.23333 0
M  V30 10028 H 948.403 2.44279 -3.68484 0
M  V30 10029 N 947.462 1.57535 -0.0451378 0
M  V30 10030 C 948.392 2.14208 0.929372 0
M  V30 10031 C 949.373 1.06221 1.32858 0
M  V30 10032 O 950.558 1.34132 1.40436 0
M  V30 10033 C 947.688 2.68217 2.20629 0
M  V30 10034 C 946.642 3.81134 1.94734 0
M  V30 10035 C 945.968 4.21636 3.28828 0
M  V30 10036 C 947.268 5.06531 1.27374 0
M  V30 10037 H 948.962 2.95886 0.457348 0
M  V30 10038 H 946.508 1.42332 0.218544 0
M  V30 10039 H 948.461 3.06502 2.89196 0
M  V30 10040 H 947.185 1.83722 2.70026 0
M  V30 10041 H 945.844 3.43312 1.28579 0
M  V30 10042 H 945.492 3.34099 3.76014 0
M  V30 10043 H 945.192 4.97736 3.12302 0
M  V30 10044 H 946.716 4.62516 3.98637 0
M  V30 10045 H 948.13 5.423 1.85967 0
M  V30 10046 H 946.527 5.87735 1.21194 0
M  V30 10047 H 947.597 4.84261 0.248913 0
M  V30 10048 N 948.94 -0.228186 1.55939 0
M  V30 10049 C 949.85 -1.30386 1.9503 0
M  V30 10050 C 950.866 -1.51645 0.853218 0
M  V30 10051 O 952.042 -1.64904 1.15623 0
M  V30 10052 C 949.107 -2.63489 2.25332 0
M  V30 10053 C 948.168 -2.5059 3.48573 0
M  V30 10054 C 947.401 -3.77345 3.7742 0
M  V30 10055 O 947.624 -4.80067 3.08045 0
M  V30 10056 O 946.558 -3.74855 4.70922 0
M  V30 10057 H 950.384 -1.0022 2.86687 0
M  V30 10058 H 947.969 -0.430503 1.43063 0
M  V30 10059 H 949.851 -3.4211 2.46046 0
M  V30 10060 H 948.526 -2.93349 1.3685 0
M  V30 10061 H 947.433 -1.70191 3.33145 0
M  V30 10062 H 948.766 -2.2567 4.37417 0
M  V30 10063 N 950.418 -1.49637 -0.494624 0
M  V30 10064 C 951.368 -1.63168 -1.59249 0
M  V30 10065 C 952.352 -0.487089 -1.5335 0
M  V30 10066 O 953.544 -0.74036 -1.60772 0
M  V30 10067 C 950.673 -1.70744 -2.97828 0
M  V30 10068 C 949.759 -2.90802 -3.08699 0
M  V30 10069 N 950.15 -4.14797 -2.89442 0
M  V30 10070 C 948.448 -2.88871 -3.39808 0
M  V30 10071 C 949.149 -4.95535 -3.04663 0
M  V30 10072 N 948.125 -4.29025 -3.33824 0
M  V30 10073 H 951.927 -2.56751 -1.43024 0
M  V30 10074 H 949.441 -1.46497 -0.700885 0
M  V30 10075 H 951.438 -1.78537 -3.76736 0
M  V30 10076 H 950.098 -0.783024 -3.15117 0
M  V30 10077 H 951.109 -4.44675 -2.6549 0
M  V30 10078 H 947.786 -2.05834 -3.63233 0
M  V30 10079 H 949.176 -6.0406 -2.94214 0
M  V30 10080 N 951.896 0.746133 -1.38819 0
M  V30 10081 C 953.307 1.32384 -1.31648 0
M  V30 10082 C 953.658 1.96185 0.0243086 0
M  V30 10083 O 952.783 1.95567 0.92641 0
M  V30 10084 C 953.378 2.40712 -2.38418 0
M  V30 10085 C 951.937 2.94185 -2.34803 0
M  V30 10086 C 951.084 1.67639 -2.20891 0
M  V30 10087 H 954.035 0.544457 -1.49068 0
M  V30 10088 H 954.056 3.20833 -2.04564 0
M  V30 10089 H 953.568 1.94247 -3.3599 0
M  V30 10090 H 951.669 3.44959 -1.40834 0
M  V30 10091 H 951.782 3.48057 -3.29231 0
M  V30 10092 H 950.146 1.9155 -1.67871 0
M  V30 10093 H 950.929 1.23242 -3.20416 0
M  V30 10094 N 953.375 1.23811 0.975125 0
M  V30 10095 C 954.621 1.08502 1.72043 0
M  V30 10096 C 954.976 -0.373437 1.88741 0
M  V30 10097 O 954.269 -1.27248 1.43243 0
M  V30 10098 C 954.463 1.74994 3.11628 0
M  V30 10099 C 954.292 3.27155 3.08544 0
M  V30 10100 C 953.062 3.96338 3.1344 0
M  V30 10101 C 955.26 4.23851 2.91299 0
M  V30 10102 N 953.242 5.35439 3.00297 0
M  V30 10103 C 954.613 5.499 2.86375 0
M  V30 10104 C 956.668 4.14519 2.75824 0
M  V30 10105 C 955.371 6.67687 2.67558 0
M  V30 10106 C 957.397 5.31975 2.58372 0
M  V30 10107 C 956.759 6.56953 2.5415 0
M  V30 10108 H 952.858 0.451607 0.638416 0
M  V30 10109 H 955.442 1.56617 1.15669 0
M  V30 10110 H 953.613 1.29404 3.66209 0
M  V30 10111 H 955.345 1.52614 3.74822 0
M  V30 10112 H 952.1 3.47453 3.21828 0
M  V30 10113 H 952.524 6.08381 2.96987 0
M  V30 10114 H 957.166 3.18662 2.77874 0
M  V30 10115 H 954.884 7.63673 2.64251 0
M  V30 10116 H 958.47 5.266 2.47354 0
M  V30 10117 H 957.35 7.46309 2.40817 0
M  V30 10118 N 954.853 -1.17469 1.05066 0
M  V30 10119 C 956.099 -1.87976 0.761113 0
M  V30 10120 C 956.432 -1.80756 -0.709995 0
M  V30 10121 O 955.707 -1.21469 -1.51906 0
M  V30 10122 C 955.99 -3.38055 1.2406 0
M  V30 10123 C 955.843 -3.54032 2.77455 0
M  V30 10124 C 957.162 -4.32036 0.838612 0
M  V30 10125 H 954.281 -0.682573 0.277963 0
M  V30 10126 H 956.923 -1.38147 1.30443 0
M  V30 10127 H 955.073 -3.80622 0.778388 0
M  V30 10128 H 956.745 -3.20489 3.3179 0
M  V30 10129 H 954.988 -2.96352 3.16793 0
M  V30 10130 H 955.659 -4.59377 3.06066 0
M  V30 10131 H 958.135 -3.97303 1.23651 0
M  V30 10132 H 957.011 -5.35583 1.20173 0
M  V30 10133 H 957.272 -4.41349 -0.257498 0
M  V30 10134 N 956.331 -0.831506 -1.3388 0
M  V30 10135 C 957.279 -0.247896 -2.31275 0
M  V30 10136 C 958.273 0.616083 -1.578 0
M  V30 10137 O 959.479 0.506465 -1.72728 0
M  V30 10138 H 955.854 -0.0614293 -0.749487 0
M  V30 10139 H 957.825 -1.08401 -2.78014 0
M  V30 10140 C 956.574 0.568434 -3.43022 0
M  V30 10141 H 955.897 -0.0870654 -3.99705 0
M  V30 10142 H 957.337 0.942751 -4.13386 0
M  V30 10143 C 955.796 1.74431 -2.88228 0
M  V30 10144 O 956.326 2.84278 -2.83811 0
M  V30 10145 N 954.532 1.56382 -2.44935 0
M  V30 10146 H 954.079 0.670255 -2.48727 0
M  V30 10147 H 954.037 2.35208 -2.08625 0
M  V30 10148 N 957.809 1.4625 -0.587256 0
M  V30 10149 C 959.086 1.95599 -0.00750181 0
M  V30 10150 C 959.466 1.52989 1.45457 0
M  V30 10151 O 958.814 0.782731 2.14676 0
M  V30 10152 C 959.024 3.48513 -0.184309 0
M  V30 10153 C 960.372 4.24565 -0.0544972 0
M  V30 10154 O 961.396 3.5602 -0.113378 0
M  V30 10155 O 960.255 5.46445 0.0774075 0
M  V30 10156 H 957.349 0.825649 0.0472495 0
M  V30 10157 H 959.895 1.56512 -0.655893 0
M  V30 10158 H 958.667 3.72428 -1.20053 0
M  V30 10159 H 958.29 3.9444 0.500301 0
M  V30 10160 N 959.287 0.325282 1.54207 0
M  V30 10161 C 960.564 -0.33113 1.92777 0
M  V30 10162 C 960.944 -1.69739 1.25506 0
M  V30 10163 O 960.292 -2.24983 0.399385 0
M  V30 10164 C 960.502 -0.421636 3.46444 0
M  V30 10165 C 961.85 -0.681111 4.19101 0
M  V30 10166 O 962.874 -0.504488 3.52609 0
M  V30 10167 O 961.733 -1.02196 5.3686 0
M  V30 10168 H 958.827 -0.18943 0.805013 0
M  V30 10169 H 961.373 0.375123 1.65502 0
M  V30 10170 H 960.145 0.537862 3.87586 0
M  V30 10171 H 959.768 -1.1754 3.79829 0
M  V30 10172 N 960.765 -1.57509 0.0534917 0
M  V30 10173 C 962.013 -1.92402 -0.618548 0
M  V30 10174 C 962.334 -0.93273 -1.71246 0
M  V30 10175 O 961.604 0.0220495 -1.95888 0
M  V30 10176 H 960.184 -0.710233 -0.23147 0
M  V30 10177 H 962.846 -1.94606 0.10704 0
M  V30 10178 H 961.942 -2.93704 -1.05566 0
M  V30 10179 N 962.243 0.219913 -1.56058 0
M  V30 10180 C 963.173 1.27572 -1.9557 0
M  V30 10181 C 964.154 1.48801 -0.824148 0
M  V30 10182 O 965.339 1.60957 -1.08658 0
M  V30 10183 C 962.469 2.62517 -2.27381 0
M  V30 10184 C 961.423 2.55941 -3.43042 0
M  V30 10185 C 960.749 3.94931 -3.60463 0
M  V30 10186 C 962.049 2.10584 -4.77966 0
M  V30 10187 H 963.743 0.947482 -2.84013 0
M  V30 10188 H 961.289 0.454337 -1.36645 0
M  V30 10189 H 963.242 3.36538 -2.53615 0
M  V30 10190 H 961.966 2.97031 -1.35794 0
M  V30 10191 H 960.625 1.84377 -3.1686 0
M  V30 10192 H 960.273 4.26756 -2.66249 0
M  V30 10193 H 959.973 3.91413 -4.38258 0
M  V30 10194 H 961.497 4.70611 -3.89046 0
M  V30 10195 H 962.911 2.74349 -5.03394 0
M  V30 10196 H 961.308 2.18122 -5.59055 0
M  V30 10197 H 962.378 1.05818 -4.73213 0
M  V30 10198 N 963.721 1.49897 0.486681 0
M  V30 10199 C 965.132 1.53142 1.06792 0
M  V30 10200 C 965.483 0.325856 1.93475 0
M  V30 10201 O 964.608 -0.562893 2.08951 0
M  V30 10202 C 965.203 2.77514 1.94348 0
M  V30 10203 C 963.762 2.83491 2.47609 0
M  V30 10204 C 962.909 2.47239 1.2557 0
M  V30 10205 H 965.86 1.56387 0.269962 0
M  V30 10206 H 965.881 2.58487 2.79221 0
M  V30 10207 H 965.393 3.65239 1.31232 0
M  V30 10208 H 963.494 2.0008 3.14323 0
M  V30 10209 H 963.607 3.86011 2.83782 0
M  V30 10210 H 961.971 1.99332 1.58552 0
M  V30 10211 H 962.754 3.37255 0.641404 0
M  V30 10212 N 965.199 -0.738761 1.39212 0
M  V30 10213 C 966.109 -1.88324 1.39897 0
M  V30 10214 C 967.125 -1.71494 0.294229 0
M  V30 10215 O 968.301 -1.94162 0.535087 0
M  V30 10216 C 965.366 -3.23871 1.23726 0
M  V30 10217 C 964.427 -3.53121 2.44139 0
M  V30 10218 C 963.66 -4.82202 2.2873 0
M  V30 10219 O 963.883 -5.55649 1.28879 0
M  V30 10220 O 962.817 -5.11265 3.17634 0
M  V30 10221 H 966.643 -1.90701 2.36362 0
M  V30 10222 H 964.228 -0.886067 1.20288 0
M  V30 10223 H 966.11 -4.04882 1.16826 0
M  V30 10224 H 964.785 -3.22274 0.303551 0
M  V30 10225 H 963.692 -2.72212 2.56615 0
M  V30 10226 H 965.025 -3.59495 3.36191 0
M  V30 10227 N 966.677 -1.24326 -0.968545 0
M  V30 10228 C 967.625 -1.03256 -2.08425 0
M  V30 10229 C 968.619 0.0322356 -1.69369 0
M  V30 10230 O 969.825 -0.122251 -1.79584 0
M  V30 10231 H 966.2 -0.31688 -0.681976 0
M  V30 10232 H 968.171 -1.97873 -2.23358 0
M  V30 10233 C 966.92 -0.653144 -3.4151 0
M  V30 10234 H 966.243 -1.46424 -3.72021 0
M  V30 10235 H 967.683 -0.545316 -4.20479 0
M  V30 10236 C 966.142 0.639674 -3.30771 0
M  V30 10237 O 966.672 1.68563 -3.64622 0
M  V30 10238 N 964.878 0.620074 -2.83907 0
M  V30 10239 H 964.425 -0.231449 -2.56558 0
M  V30 10240 H 964.383 1.48528 -2.77104 0
M  V30 10241 N 968.156 1.1691 -1.05688 0
M  V30 10242 C 969.066 2.24735 -0.67315 0
M  V30 10243 C 970.082 1.71252 0.308043 0
M  V30 10244 O 971.258 2.00772 0.158889 0
M  V30 10245 C 968.323 3.4665 -0.059026 0
M  V30 10246 C 967.384 4.15198 -1.0913 0
M  V30 10247 C 966.617 5.31292 -0.50639 0
M  V30 10248 O 966.84 5.663 0.682692 0
M  V30 10249 O 965.774 5.88923 -1.2431 0
M  V30 10250 H 969.6 2.59855 -1.57191 0
M  V30 10251 H 967.185 1.24306 -0.828751 0
M  V30 10252 H 969.067 4.20455 0.282018 0
M  V30 10253 H 967.742 3.13316 0.813304 0
M  V30 10254 H 966.649 3.43389 -1.48442 0
M  V30 10255 H 967.982 4.52571 -1.93495 0
M  V30 10256 N 969.634 0.838594 1.33437 0
M  V30 10257 C 970.584 0.243681 2.26694 0
M  V30 10258 C 971.568 -0.601168 1.49247 0
M  V30 10259 O 972.76 -0.453181 1.711 0
M  V30 10260 C 969.889 -0.580525 3.38356 0
M  V30 10261 C 968.975 0.275819 4.23202 0
M  V30 10262 N 969.366 1.3544 4.87329 0
M  V30 10263 C 967.664 0.0628047 4.45956 0
M  V30 10264 C 968.365 1.87991 5.50486 0
M  V30 10265 N 967.341 1.18143 5.30607 0
M  V30 10266 H 971.143 1.06849 2.73789 0
M  V30 10267 H 968.657 0.683019 1.47338 0
M  V30 10268 H 970.654 -1.02301 4.04153 0
M  V30 10269 H 969.314 -1.40331 2.92809 0
M  V30 10270 H 970.325 1.73729 4.87892 0
M  V30 10271 H 967.002 -0.726563 4.11129 0
M  V30 10272 H 968.392 2.78312 6.11549 0
M  V30 10273 N 971.112 -1.45937 0.595003 0
M  V30 10274 C 972.044 -2.28575 -0.169137 0
M  V30 10275 C 973.057 -1.39226 -0.843792 0
M  V30 10276 O 974.246 -1.63716 -0.711291 0
M  V30 10277 C 971.346 -3.14616 -1.25976 0
M  V30 10278 C 970.519 -4.32166 -0.67466 0
M  V30 10279 C 969.578 -4.99511 -1.65456 0
M  V30 10280 O 968.604 -5.56712 -1.18578 0
M  V30 10281 N 969.806 -4.97643 -2.98885 0
M  V30 10282 H 972.571 -2.94797 0.539908 0
M  V30 10283 H 970.132 -1.55985 0.433614 0
M  V30 10284 H 972.124 -3.56534 -1.91483 0
M  V30 10285 H 970.694 -2.50387 -1.8715 0
M  V30 10286 H 969.914 -3.93882 0.158184 0
M  V30 10287 H 971.202 -5.08116 -0.263753 0
M  V30 10288 H 970.6 -4.52438 -3.39583 0
M  V30 10289 H 969.157 -5.43463 -3.59848 0
M  V30 10290 N 972.59 -0.333456 -1.54032 0
M  V30 10291 C 973.52 0.52051 -2.27625 0
M  V30 10292 C 974.501 1.1111 -1.28797 0
M  V30 10293 O 975.686 1.13438 -1.57625 0
M  V30 10294 C 972.816 1.67663 -3.04149 0
M  V30 10295 C 971.77 1.21487 -4.10396 0
M  V30 10296 C 971.096 2.45872 -4.74817 0
M  V30 10297 C 972.396 0.322603 -5.21303 0
M  V30 10298 H 974.09 -0.0933823 -2.99254 0
M  V30 10299 H 971.636 -0.0463526 -1.43925 0
M  V30 10300 H 973.589 2.28041 -3.54366 0
M  V30 10301 H 972.313 2.31727 -2.30153 0
M  V30 10302 H 970.972 0.633966 -3.61077 0
M  V30 10303 H 970.62 3.0832 -3.97426 0
M  V30 10304 H 970.32 2.15662 -5.46593 0
M  V30 10305 H 971.844 3.06994 -5.27814 0
M  V30 10306 H 973.258 0.832942 -5.67217 0
M  V30 10307 H 971.655 0.112843 -5.99994 0
M  V30 10308 H 972.725 -0.643954 -4.80605 0
M  V30 10309 N 974.068 1.57479 -0.061844 0
M  V30 10310 C 975.293 1.97843 0.622311 0
M  V30 10311 C 975.718 0.939602 1.62951 0
M  V30 10312 O 975.076 -0.095958 1.81046 0
M  V30 10313 C 975.124 3.37262 1.2762 0
M  V30 10314 O 974.228 3.35943 2.39199 0
M  V30 10315 H 973.569 0.644212 0.160896 0
M  V30 10316 H 976.099 2.04165 -0.133409 0
M  V30 10317 H 976.109 3.74226 1.62539 0
M  V30 10318 H 974.784 4.12404 0.538112 0
M  V30 10319 H 973.361 3.10737 2.06148 0
M  V30 10320 N 975.546 -0.211634 1.56173 0
M  V30 10321 C 976.792 -0.935935 1.79911 0
M  V30 10322 C 977.125 -1.83589 0.633155 0
M  V30 10323 O 976.4 -1.91004 -0.367132 0
M  V30 10324 C 976.683 -1.76638 3.13801 0
M  V30 10325 C 976.536 -0.892259 4.40861 0
M  V30 10326 C 977.855 -2.74224 3.44223 0
M  V30 10327 H 974.974 -0.338822 0.654499 0
M  V30 10328 H 977.616 -0.20422 1.88899 0
M  V30 10329 H 975.766 -2.39021 3.0627 0
M  V30 10330 H 977.438 -0.284407 4.60422 0
M  V30 10331 H 975.681 -0.198145 4.33347 0
M  V30 10332 H 976.352 -1.50793 5.31004 0
M  V30 10333 H 978.828 -2.21975 3.51946 0
M  V30 10334 H 977.704 -3.29424 4.39057 0
M  V30 10335 H 977.965 -3.52455 2.66885 0
M  V30 10336 N 977.024 -1.50153 -0.478725 0
M  V30 10337 C 977.987 -1.67916 -1.56003 0
M  V30 10338 C 978.987 -0.550111 -1.51097 0
M  V30 10339 O 980.177 -0.817001 -1.53853 0
M  V30 10340 C 977.309 -1.6973 -2.95643 0
M  V30 10341 H 978.502 -2.6438 -1.41573 0
M  V30 10342 H 976.055 -1.39519 -0.704565 0
M  V30 10343 H 976.79 -0.749306 -3.15525 0
M  V30 10344 H 976.575 -2.51745 -3.00611 0
M  V30 10345 H 978.065 -1.85453 -3.74162 0
M  V30 10346 N 978.502 0.731368 -1.39602 0
M  V30 10347 C 979.75 1.48805 -1.36753 0
M  V30 10348 C 980.071 1.94969 0.034676 0
M  V30 10349 O 979.341 1.69243 0.986591 0
M  V30 10350 H 977.921 0.55203 -0.503261 0
M  V30 10351 H 980.583 0.868013 -1.74504 0
M  V30 10352 H 979.679 2.36844 -2.03252 0
M  V30 10353 N 979.98 1.24838 0.961938 0
M  V30 10354 C 980.927 1.04582 2.05745 0
M  V30 10355 C 981.897 -0.0427281 1.66045 0
M  V30 10356 O 983.082 0.113026 1.90465 0
M  V30 10357 C 980.222 0.66284 3.38675 0
M  V30 10358 C 979.335 1.82548 3.91536 0
M  V30 10359 C 978.47 1.38753 5.12758 0
M  V30 10360 C 977.509 2.51976 5.5783 0
M  V30 10361 N 976.646 2.09009 6.70268 0
M  V30 10362 H 981.486 1.98343 2.22405 0
M  V30 10363 H 979.023 0.987822 1.08998 0
M  V30 10364 H 980.981 0.421788 4.15062 0
M  V30 10365 H 979.611 -0.237776 3.21923 0
M  V30 10366 H 978.663 2.18004 3.11735 0
M  V30 10367 H 979.975 2.67601 4.20941 0
M  V30 10368 H 979.129 1.1057 5.96539 0
M  V30 10369 H 977.868 0.507618 4.85051 0
M  V30 10370 H 976.873 2.80912 4.72619 0
M  V30 10371 H 978.098 3.40534 5.87549 0
M  V30 10372 H 976.044 1.23423 6.44285 0
M  V30 10373 H 975.961 2.87613 6.99153 0
M  V30 10374 H 977.229 1.83981 7.57477 0
M  V30 10375 N 981.458 -1.16348 1.06306 0
M  V30 10376 C 982.707 -1.8622 0.774909 0
M  V30 10377 C 983.02 -1.82598 -0.701245 0
M  V30 10378 O 984.226 -2.48051 -1.10377 0
M  V30 10379 C 982.682 -3.34182 1.33604 0
M  V30 10380 C 982.29 -3.46279 2.84245 0
M  V30 10381 C 984.034 -4.09309 1.12544 0
M  V30 10382 C 981.941 -4.88327 3.33602 0
M  V30 10383 H 980.871 -0.697574 0.286194 0
M  V30 10384 H 983.522 -1.31311 1.28179 0
M  V30 10385 H 981.904 -3.88698 0.756937 0
M  V30 10386 H 983.078 -3.01923 3.48108 0
M  V30 10387 H 981.393 -2.84585 3.03974 0
M  V30 10388 H 983.99 -5.14123 1.46909 0
M  V30 10389 H 984.333 -4.16251 0.0638129 0
M  V30 10390 H 984.866 -3.61032 1.67034 0
M  V30 10391 H 981.605 -4.86565 4.39244 0
M  V30 10392 H 981.125 -5.33307 2.74487 0
M  V30 10393 H 982.804 -5.57144 3.28937 0
M  V30 10394 N 982.937 -0.845659 -1.3299 0
M  V30 10395 C 983.884 -0.281761 -2.29074 0
M  V30 10396 C 984.854 0.606237 -1.54641 0
M  V30 10397 O 986.039 0.543063 -1.82908 0
M  V30 10398 C 983.179 0.531451 -3.40983 0
M  V30 10399 C 982.292 -0.381328 -4.30314 0
M  V30 10400 C 981.427 0.443643 -5.29344 0
M  V30 10401 C 980.466 -0.467101 -6.10315 0
M  V30 10402 N 979.603 0.320148 -7.0137 0
M  V30 10403 H 984.443 -1.10641 -2.76699 0
M  V30 10404 H 981.98 -0.55706 -1.36144 0
M  V30 10405 H 983.938 1.01848 -4.04577 0
M  V30 10406 H 982.568 1.32101 -2.94532 0
M  V30 10407 H 981.62 -0.986701 -3.6738 0
M  V30 10408 H 982.932 -1.08067 -4.86953 0
M  V30 10409 H 982.086 0.994212 -5.98498 0
M  V30 10410 H 980.825 1.17639 -4.73299 0
M  V30 10411 H 979.83 -1.02963 -5.40073 0
M  V30 10412 H 981.055 -1.19832 -6.68444 0
M  V30 10413 H 979.001 1.03615 -6.47765 0
M  V30 10414 H 978.918 -0.320338 -7.55321 0
M  V30 10415 H 980.186 0.852735 -7.74822 0
M  V30 10416 N 984.415 1.45619 -0.602734 0
M  V30 10417 C 985.362 2.30493 0.118944 0
M  V30 10418 C 986.332 1.41816 0.864723 0
M  V30 10419 O 987.517 1.7075 0.851424 0
M  V30 10420 C 984.657 3.2664 1.11356 0
M  V30 10421 C 983.77 4.3042 0.369161 0
M  V30 10422 C 982.905 5.13678 1.35307 0
M  V30 10423 C 981.944 6.09189 0.596207 0
M  V30 10424 N 981.081 6.85245 1.52916 0
M  V30 10425 H 985.921 2.91672 -0.610836 0
M  V30 10426 H 983.458 1.43731 -0.313032 0
M  V30 10427 H 985.416 3.80846 1.7033 0
M  V30 10428 H 984.046 2.67225 1.81081 0
M  V30 10429 H 983.098 3.78913 -0.335994 0
M  V30 10430 H 984.41 4.98307 -0.221603 0
M  V30 10431 H 983.564 5.7226 2.01502 0
M  V30 10432 H 982.303 4.45798 1.97777 0
M  V30 10433 H 981.308 5.49743 -0.0793984 0
M  V30 10434 H 982.533 6.79096 -0.0233734 0
M  V30 10435 H 980.479 6.20058 2.14159 0
M  V30 10436 H 980.396 7.49467 0.991713 0
M  V30 10437 H 981.664 7.48371 2.18083 0
M  V30 10438 N 985.893 0.34162 1.53853 0
M  V30 10439 C 986.843 -0.531995 2.21707 0
M  V30 10440 C 987.827 -1.06759 1.2038 0
M  V30 10441 O 989.019 -1.00161 1.45934 0
M  V30 10442 C 986.148 -1.6834 2.99193 0
M  V30 10443 C 985.234 -1.16184 4.07875 0
M  V30 10444 N 985.625 -0.361348 5.04508 0
M  V30 10445 C 983.923 -1.43891 4.22151 0
M  V30 10446 C 984.624 -0.0785378 5.81647 0
M  V30 10447 N 983.6 -0.669651 5.3946 0
M  V30 10448 H 987.402 0.0866825 2.93772 0
M  V30 10449 H 984.916 0.148386 1.61721 0
M  V30 10450 H 986.913 -2.32121 3.46303 0
M  V30 10451 H 985.573 -2.30538 2.28653 0
M  V30 10452 H 986.584 -0.00259906 5.179 0
M  V30 10453 H 983.261 -2.06542 3.62832 0
M  V30 10454 H 984.651 0.567068 6.69503 0
M  V30 10455 N 987.371 -1.57444 0.0701946 0
M  V30 10456 C 988.618 -1.93429 -0.59929 0
M  V30 10457 C 988.946 -0.9501 -1.69715 0
M  V30 10458 O 988.201 0.0345377 -1.9567 0
M  V30 10459 C 988.5 -3.36044 -1.21694 0
M  V30 10460 C 988.166 -4.50232 -0.245374 0
M  V30 10461 C 986.828 -4.81195 0.0219161 0
M  V30 10462 C 989.18 -5.1951 0.419396 0
M  V30 10463 C 986.508 -5.78775 0.96109 0
M  V30 10464 C 988.86 -6.18095 1.34688 0
M  V30 10465 C 987.524 -6.47477 1.62265 0
M  V30 10466 H 986.794 -0.707807 -0.219296 0
M  V30 10467 H 989.441 -1.90982 0.14073 0
M  V30 10468 H 987.746 -3.34948 -2.03265 0
M  V30 10469 H 989.443 -3.61176 -1.74221 0
M  V30 10470 H 986.033 -4.26082 -0.463887 0
M  V30 10471 H 990.217 -4.95785 0.226009 0
M  V30 10472 H 985.473 -5.99865 1.18202 0
M  V30 10473 H 989.647 -6.7088 1.86795 0
M  V30 10474 H 987.274 -7.229 2.352 0
M  V30 10475 N 988.849 0.203349 -1.56283 0
M  V30 10476 C 989.797 1.27157 -1.94766 0
M  V30 10477 C 990.791 1.4756 -0.832005 0
M  V30 10478 O 991.997 1.48519 -1.01696 0
M  V30 10479 H 988.372 0.426712 -0.61921 0
M  V30 10480 H 990.343 0.919921 -2.83866 0
M  V30 10481 C 989.092 2.6108 -2.29636 0
M  V30 10482 H 988.415 2.46193 -3.15006 0
M  V30 10483 H 989.855 3.34591 -2.60433 0
M  V30 10484 C 988.314 3.17456 -1.12799 0
M  V30 10485 O 988.844 3.99717 -0.398661 0
M  V30 10486 N 987.05 2.76084 -0.906975 0
M  V30 10487 H 986.597 2.09294 -1.50179 0
M  V30 10488 H 986.555 3.14143 -0.127005 0
M  V30 10489 N 990.327 1.50405 0.470755 0
M  V30 10490 C 991.555 1.65168 1.24608 0
M  V30 10491 C 991.97 0.335153 1.85801 0
M  V30 10492 O 991.327 -0.682919 1.69241 0
M  V30 10493 C 991.378 2.74305 2.35455 0
M  V30 10494 O 991.099 4.00854 1.76771 0
M  V30 10495 C 992.6 3.00044 3.26326 0
M  V30 10496 H 989.82 0.555186 0.376842 0
M  V30 10497 H 992.364 1.9663 0.56187 0
M  V30 10498 H 990.519 2.45536 2.99651 0
M  V30 10499 H 990.933 4.61211 2.49769 0
M  V30 10500 H 992.407 3.8007 4.00313 0
M  V30 10501 H 992.884 2.11128 3.85126 0
M  V30 10502 H 993.49 3.30345 2.67866 0
M  V30 10503 N 991.805 -0.723954 1.39988 0
M  V30 10504 C 993.053 -1.48078 1.3754 0
M  V30 10505 C 993.374 -1.94985 -0.0243358 0
M  V30 10506 O 992.644 -1.69764 -0.977602 0
M  V30 10507 H 991.224 -0.549354 0.506181 0
M  V30 10508 H 993.886 -0.858746 1.74962 0
M  V30 10509 H 992.982 -2.35763 2.04505 0
M  V30 10510 N 993.283 -1.25346 -0.955304 0
M  V30 10511 C 994.694 -1.09173 -1.51453 0
M  V30 10512 C 995.045 0.332755 -1.93358 0
M  V30 10513 O 994.17 1.22264 -1.78551 0
M  V30 10514 C 994.765 -1.97564 -2.75234 0
M  V30 10515 C 993.324 -1.85579 -3.27471 0
M  V30 10516 C 992.471 -1.91755 -2.00313 0
M  V30 10517 H 995.422 -1.38642 -0.772271 0
M  V30 10518 H 995.443 -1.51523 -3.49029 0
M  V30 10519 H 994.955 -3.01233 -2.44704 0
M  V30 10520 H 993.056 -0.847906 -3.62824 0
M  V30 10521 H 993.169 -2.70353 -3.95533 0
M  V30 10522 H 991.533 -1.35633 -2.15582 0
M  V30 10523 H 992.316 -2.97028 -1.72132 0
M  V30 10524 N 994.761 1.15782 -1.06922 0
M  V30 10525 C 995.708 2.2038 -0.685659 0
M  V30 10526 C 996.678 1.62972 0.320816 0
M  V30 10527 O 997.863 1.8966 0.208258 0
M  V30 10528 C 995.003 3.44995 -0.084998 0
M  V30 10529 C 994.116 4.16621 -1.14242 0
M  V30 10530 C 993.251 5.28773 -0.507226 0
M  V30 10531 C 992.29 5.92209 -1.54774 0
M  V30 10532 N 991.427 6.9584 -0.935443 0
M  V30 10533 H 996.267 2.5254 -1.58201 0
M  V30 10534 H 993.804 1.24031 -0.790864 0
M  V30 10535 H 995.762 4.16254 0.280845 0
M  V30 10536 H 994.392 3.13365 0.774725 0
M  V30 10537 H 993.444 3.43903 -1.62589 0
M  V30 10538 H 994.756 4.59884 -1.93154 0
M  V30 10539 H 993.91 6.06635 -0.0887719 0
M  V30 10540 H 992.649 4.8669 0.313704 0
M  V30 10541 H 991.654 5.13063 -1.97602 0
M  V30 10542 H 992.879 6.3637 -2.37088 0
M  V30 10543 H 990.825 6.5586 -0.135339 0
M  V30 10544 H 990.742 7.37508 -1.66186 0
M  V30 10545 H 992.01 7.77611 -0.542346 0
M  V30 10546 N 996.239 0.8527 1.3254 0
M  V30 10547 C 997.65 0.510012 1.79599 0
M  V30 10548 C 998.001 -0.972002 1.70431 0
M  V30 10549 O 997.126 -1.7581 1.26173 0
M  V30 10550 C 997.721 0.918986 3.26098 0
M  V30 10551 C 996.28 0.628227 3.7112 0
M  V30 10552 C 995.427 1.11979 2.53685 0
M  V30 10553 H 998.378 1.04009 1.19866 0
M  V30 10554 H 998.399 0.234577 3.79776 0
M  V30 10555 H 997.911 1.99765 3.32739 0
M  V30 10556 H 996.012 -0.4398 3.69995 0
M  V30 10557 H 996.125 1.19315 4.64005 0
M  V30 10558 H 994.489 0.540133 2.48907 0
M  V30 10559 H 995.272 2.20552 2.63081 0
M  V30 10560 N 997.718 -1.45297 0.610449 0
M  V30 10561 C 998.666 -2.32295 -0.119167 0
M  V30 10562 C 999.66 -1.46138 -0.856746 0
M  V30 10563 O 1000.87 -1.62605 -0.771988 0
M  V30 10564 H 997.241 -0.749815 -0.0572881 0
M  V30 10565 H 999.212 -2.91609 0.63297 0
M  V30 10566 C 997.961 -3.29802 -1.10119 0
M  V30 10567 H 997.284 -3.96095 -0.543063 0
M  V30 10568 H 998.724 -3.93398 -1.58158 0
M  V30 10569 C 997.183 -2.57185 -2.17617 0
M  V30 10570 O 997.713 -2.35535 -3.25401 0
M  V30 10571 N 995.919 -2.17272 -1.9298 0
M  V30 10572 H 995.466 -2.3508 -1.05334 0
M  V30 10573 H 995.424 -1.69009 -2.6511 0
M  V30 10574 N 999.196 -0.349774 -1.5367 0
M  V30 10575 C 1000.42 0.248692 -2.05904 0
M  V30 10576 C 1000.85 1.42942 -1.22267 0
M  V30 10577 O 1000.2 1.79732 -0.237899 0
M  V30 10578 C 1000.25 0.635639 -3.54953 0
M  V30 10579 O 999.356 1.7349 -3.74132 0
M  V30 10580 H 998.697 0.0399477 -0.662797 0
M  V30 10581 H 1001.23 -0.505795 -1.9825 0
M  V30 10582 H 1001.24 0.911064 -3.97698 0
M  V30 10583 H 999.912 -0.227805 -4.15276 0
M  V30 10584 H 998.489 1.45626 -3.43289 0
M  V30 10585 N 1000.67 1.57404 -0.0785433 0
M  V30 10586 C 1001.9 1.98074 0.597862 0
M  V30 10587 C 1002.32 0.95714 1.6274 0
M  V30 10588 O 1001.67 -0.0553728 1.82416 0
M  V30 10589 C 1001.72 3.38815 1.26041 0
M  V30 10590 O 1001.45 4.37254 0.27207 0
M  V30 10591 C 1002.95 3.94397 2.024 0
M  V30 10592 H 1000.17 0.651263 0.161546 0
M  V30 10593 H 1002.71 2.03927 -0.152941 0
M  V30 10594 H 1000.87 3.34028 1.96225 0
M  V30 10595 H 1001.28 5.19136 0.74822 0
M  V30 10596 H 1002.75 4.95075 2.4414 0
M  V30 10597 H 1003.23 3.31308 2.88326 0
M  V30 10598 H 1003.84 4.02607 1.37068 0
M  V30 10599 N 1002.15 -0.195058 1.56388 0
M  V30 10600 C 1003.11 -1.2254 1.93692 0
M  V30 10601 C 1004.11 -1.38437 0.81804 0
M  V30 10602 O 1005.3 -1.36248 1.08545 0
M  V30 10603 C 1002.44 -2.59476 2.21099 0
M  V30 10604 H 1003.63 -0.906544 2.8587 0
M  V30 10605 H 1001.18 -0.436577 1.50079 0
M  V30 10606 H 1001.92 -2.96417 1.31558 0
M  V30 10607 H 1001.7 -2.4931 3.02634 0
M  V30 10608 H 1003.19 -3.33777 2.50964 0
M  V30 10609 N 1003.63 -1.50653 -0.462772 0
M  V30 10610 C 1004.59 -1.69561 -1.54213 0
M  V30 10611 C 1005.59 -0.566106 -1.50505 0
M  V30 10612 O 1006.78 -0.833273 -1.52978 0
M  V30 10613 C 1003.91 -1.72856 -2.93826 0
M  V30 10614 H 1005.11 -2.65867 -1.38761 0
M  V30 10615 H 1002.66 -1.40259 -0.689728 0
M  V30 10616 H 1003.4 -0.78273 -3.14712 0
M  V30 10617 H 1003.18 -2.54919 -2.97924 0
M  V30 10618 H 1004.67 -1.89411 -3.72174 0
M  V30 10619 N 1005.11 0.71652 -1.4037 0
M  V30 10620 C 1006.36 1.47347 -1.38324 0
M  V30 10621 C 1006.68 1.94995 0.0139949 0
M  V30 10622 O 1005.95 1.7028 0.968585 0
M  V30 10623 H 1004.53 0.546662 -0.509087 0
M  V30 10624 H 1007.19 0.849455 -1.75415 0
M  V30 10625 H 1006.29 2.34675 -2.05752 0
M  V30 10626 N 1006.59 1.25851 0.948643 0
M  V30 10627 C 1007.83 1.11119 1.69648 0
M  V30 10628 C 1008.17 -0.345995 1.91093 0
M  V30 10629 O 1007.44 -1.25467 1.48621 0
M  V30 10630 C 1007.72 1.87261 3.0758 0
M  V30 10631 C 1007.58 3.40842 2.93507 0
M  V30 10632 C 1008.9 1.6605 4.07573 0
M  V30 10633 H 1006.01 0.405052 0.615713 0
M  V30 10634 H 1008.66 1.54756 1.10229 0
M  V30 10635 H 1006.81 1.50172 3.58303 0
M  V30 10636 H 1008.48 3.87641 2.50064 0
M  V30 10637 H 1006.72 3.68248 2.29294 0
M  V30 10638 H 1007.39 3.89339 3.91305 0
M  V30 10639 H 1009.87 1.98348 3.65783 0
M  V30 10640 H 1008.74 2.21753 5.02113 0
M  V30 10641 H 1009.01 0.603256 4.37965 0
M  V30 10642 N 1008.06 -1.15214 1.07534 0
M  V30 10643 C 1009.29 -1.90463 0.820883 0
M  V30 10644 C 1009.71 -1.77578 -0.620305 0
M  V30 10645 O 1009.07 -1.10976 -1.43366 0
M  V30 10646 C 1009.12 -3.38746 1.23627 0
M  V30 10647 O 1008.22 -4.1062 0.382715 0
M  V30 10648 H 1007.57 -0.59292 0.298901 0
M  V30 10649 H 1010.1 -1.45893 1.43445 0
M  V30 10650 H 1010.11 -3.89543 1.21327 0
M  V30 10651 H 1008.78 -3.47443 2.28596 0
M  V30 10652 H 1007.36 -3.69947 0.468374 0
M  V30 10653 N 1009.54 -0.859717 -1.32086 0
M  V30 10654 C 1010.79 -0.466271 -1.97367 0
M  V30 10655 C 1011.12 0.976728 -1.6785 0
M  V30 10656 O 1010.4 1.68618 -0.969449 0
M  V30 10657 C 1010.68 -0.711851 -3.52994 0
M  V30 10658 C 1010.53 -2.20364 -3.92122 0
M  V30 10659 C 1011.85 -0.17156 -4.39765 0
M  V30 10660 H 1008.97 -0.170883 -0.716916 0
M  V30 10661 H 1011.61 -1.07907 -1.56384 0
M  V30 10662 H 1009.76 -0.190258 -3.88034 0
M  V30 10663 H 1011.43 -2.7917 -3.67236 0
M  V30 10664 H 1009.68 -2.68019 -3.41099 0
M  V30 10665 H 1010.35 -2.32615 -5.00594 0
M  V30 10666 H 1012.82 -0.617665 -4.1149 0
M  V30 10667 H 1011.7 -0.372921 -5.47632 0
M  V30 10668 H 1011.96 0.925959 -4.32294 0
M  V30 10669 N 1011.02 1.44971 -0.618145 0
M  V30 10670 C 1012.27 2.01372 -0.115004 0
M  V30 10671 C 1012.58 1.49104 1.26599 0
M  V30 10672 O 1013.79 1.97549 1.86244 0
M  V30 10673 C 1012.24 3.59567 -0.154883 0
M  V30 10674 C 1011.85 4.20832 -1.53639 0
M  V30 10675 C 1013.6 4.23491 0.292468 0
M  V30 10676 C 1011.5 5.7121 -1.53208 0
M  V30 10677 H 1010.43 0.752979 -0.0392267 0
M  V30 10678 H 1013.08 1.66329 -0.775032 0
M  V30 10679 H 1011.47 3.91847 0.572001 0
M  V30 10680 H 1012.64 4.00109 -2.28582 0
M  V30 10681 H 1010.96 3.69143 -1.92672 0
M  V30 10682 H 1013.55 5.33771 0.315032 0
M  V30 10683 H 1013.9 3.9491 1.31725 0
M  V30 10684 H 1014.43 3.95967 -0.381493 0
M  V30 10685 H 1011.17 6.04506 -2.53481 0
M  V30 10686 H 1010.69 5.94094 -0.825387 0
M  V30 10687 H 1012.37 6.34606 -1.26032 0
M  V30 10688 N 1012.5 0.357919 1.53482 0
M  V30 10689 C 1013.46 -0.479797 2.24122 0
M  V30 10690 C 1014.46 -1.01596 1.24639 0
M  V30 10691 O 1015.65 -0.902928 1.48973 0
M  V30 10692 C 1012.78 -1.66983 2.97203 0
M  V30 10693 H 1013.98 0.138219 2.99581 0
M  V30 10694 H 1011.53 0.109484 1.55916 0
M  V30 10695 H 1012.26 -2.32615 2.25966 0
M  V30 10696 H 1012.05 -1.29242 3.70188 0
M  V30 10697 H 1013.54 -2.26367 3.50924 0
M  V30 10698 N 1013.98 -1.5736 0.0868897 0
M  V30 10699 C 1015.2 -1.98388 -0.587349 0
M  V30 10700 C 1015.62 -0.965757 -1.6223 0
M  V30 10701 O 1014.98 0.0456981 -1.82443 0
M  V30 10702 C 1015.03 -3.39479 -1.24242 0
M  V30 10703 O 1014.75 -4.37393 -0.248878 0
M  V30 10704 C 1016.25 -3.95465 -2.00305 0
M  V30 10705 H 1013.47 -0.652111 -0.15809 0
M  V30 10706 H 1016.01 -2.03843 0.163754 0
M  V30 10707 H 1014.17 -3.35063 -1.94451 0
M  V30 10708 H 1014.58 -5.19525 -0.720678 0
M  V30 10709 H 1016.06 -4.96363 -2.41511 0
M  V30 10710 H 1016.53 -3.32832 -2.86565 0
M  V30 10711 H 1017.14 -4.03328 -1.34931 0
M  V30 10712 N 1015.45 0.186762 -1.56489 0
M  V30 10713 C 1016.68 0.921832 -1.85229 0
M  V30 10714 C 1017.1 1.76496 -0.670416 0
M  V30 10715 O 1016.45 1.78899 0.360758 0
M  V30 10716 C 1016.51 1.81121 -3.12854 0
M  V30 10717 O 1016.23 1.00211 -4.26485 0
M  V30 10718 C 1017.73 2.65725 -3.54831 0
M  V30 10719 H 1014.95 0.268563 -0.61491 0
M  V30 10720 H 1017.49 0.191505 -2.03601 0
M  V30 10721 H 1015.65 2.49506 -2.96354 0
M  V30 10722 H 1016.06 1.60893 -4.99213 0
M  V30 10723 H 1017.53 3.23771 -4.47075 0
M  V30 10724 H 1018.01 3.39843 -2.78215 0
M  V30 10725 H 1018.62 2.02698 -3.7389 0
M  V30 10726 N 1016.93 1.50896 0.454776 0
M  V30 10727 C 1017.9 1.70377 1.53312 0
M  V30 10728 C 1018.9 0.57408 1.50203 0
M  V30 10729 O 1020.09 0.841374 1.52534 0
M  V30 10730 C 1017.22 1.74411 2.92905 0
M  V30 10731 H 1018.41 2.66599 1.37349 0
M  V30 10732 H 1015.96 1.40622 0.68228 0
M  V30 10733 H 1016.7 0.799408 3.14293 0
M  V30 10734 H 1016.48 2.56496 2.96568 0
M  V30 10735 H 1017.97 1.91382 3.71164 0
M  V30 10736 N 1018.41 -0.709066 1.40748 0
M  V30 10737 C 1019.34 -1.83583 1.4429 0
M  V30 10738 C 1020.32 -1.67378 0.303067 0
M  V30 10739 O 1021.51 -1.87312 0.512612 0
M  V30 10740 C 1018.64 -3.21599 1.31116 0
M  V30 10741 C 1017.59 -3.52486 2.4277 0
M  V30 10742 C 1016.92 -4.89716 2.14668 0
M  V30 10743 C 1018.22 -3.52824 3.85113 0
M  V30 10744 H 1019.91 -1.80876 2.38588 0
M  V30 10745 H 1017.46 -0.868795 1.14839 0
M  V30 10746 H 1019.41 -4.00123 1.32209 0
M  V30 10747 H 1018.13 -3.24898 0.332965 0
M  V30 10748 H 1016.79 -2.76305 2.40937 0
M  V30 10749 H 1016.44 -4.89625 1.15224 0
M  V30 10750 H 1016.14 -5.11347 2.89478 0
M  V30 10751 H 1017.66 -5.70566 2.17455 0
M  V30 10752 H 1019.08 -4.21377 3.88734 0
M  V30 10753 H 1017.48 -3.85984 4.59496 0
M  V30 10754 H 1018.55 -2.52073 4.14231 0
M  V30 10755 N 1019.89 -1.26353 -0.941956 0
M  V30 10756 C 1021.17 -1.02601 -1.6653 0
M  V30 10757 C 1021.55 0.44381 -2.06382 0
M  V30 10758 O 1020.89 1.42399 -1.78703 0
M  V30 10759 C 1021.1 -1.97401 -2.87809 0
M  V30 10760 C 1022.45 -2.25967 -3.59478 0
M  V30 10761 O 1023.48 -1.95261 -2.97912 0
M  V30 10762 O 1022.34 -2.78244 -4.70364 0
M  V30 10763 H 1019.43 -0.39007 -0.729228 0
M  V30 10764 H 1021.98 -1.37559 -0.993754 0
M  V30 10765 H 1020.75 -2.9659 -2.55245 0
M  V30 10766 H 1020.37 -1.62918 -3.62689 0
M  V30 10767 N 1021.37 1.14642 -1.08144 0
M  V30 10768 C 1022.31 2.1964 -0.708995 0
M  V30 10769 C 1023.28 1.63303 0.303512 0
M  V30 10770 O 1024.47 1.8987 0.18813 0
M  V30 10771 C 1021.61 3.44886 -0.121585 0
M  V30 10772 C 1020.72 4.15386 -1.18654 0
M  V30 10773 C 1019.86 5.28205 -0.56328 0
M  V30 10774 C 1018.9 5.90534 -1.61046 0
M  V30 10775 N 1018.03 6.94809 -1.00919 0
M  V30 10776 H 1022.87 2.50848 -1.6087 0
M  V30 10777 H 1020.41 1.23185 -0.803975 0
M  V30 10778 H 1022.37 4.16528 0.23668 0
M  V30 10779 H 1021 3.14169 0.741445 0
M  V30 10780 H 1020.05 3.42159 -1.66227 0
M  V30 10781 H 1021.36 4.57809 -1.9802 0
M  V30 10782 H 1020.52 6.06507 -0.153109 0
M  V30 10783 H 1019.26 4.86995 0.262066 0
M  V30 10784 H 1018.26 5.10938 -2.03033 0
M  V30 10785 H 1019.49 6.33819 -2.43824 0
M  V30 10786 H 1017.43 6.5568 -0.204894 0
M  V30 10787 H 1017.35 7.35704 -1.73999 0
M  V30 10788 H 1018.62 7.76992 -0.624792 0
M  V30 10789 N 1022.85 0.866709 1.31628 0
M  V30 10790 C 1023.76 0.323408 2.3236 0
M  V30 10791 C 1024.77 -0.564995 1.64572 0
M  V30 10792 O 1025.95 -0.462489 1.96018 0
M  V30 10793 C 1023.01 -0.469045 3.43513 0
M  V30 10794 C 1022.07 0.446928 4.26967 0
M  V30 10795 C 1021.31 -0.307799 5.32812 0
M  V30 10796 O 1021.53 -1.5363 5.49321 0
M  V30 10797 O 1020.46 0.332653 6.0098 0
M  V30 10798 H 1024.29 1.15827 2.80745 0
M  V30 10799 H 1021.87 0.629987 1.35468 0
M  V30 10800 H 1023.76 -0.918405 4.1127 0
M  V30 10801 H 1022.43 -1.28051 2.97296 0
M  V30 10802 H 1021.34 0.944719 3.61975 0
M  V30 10803 H 1022.67 1.2239 4.76741 0
M  V30 10804 N 1024.32 -1.44642 0.625825 0
M  V30 10805 C 1025.74 -1.56925 0.290992 0
M  V30 10806 C 1025.94 -1.61424 -1.20601 0
M  V30 10807 O 1025 -1.55439 -1.98985 0
M  V30 10808 C 1026.31 -2.84343 0.978242 0
M  V30 10809 C 1027.86 -2.98047 0.955882 0
M  V30 10810 C 1028.33 -4.2826 1.62349 0
M  V30 10811 N 1029.82 -4.35062 1.58983 0
M  V30 10812 C 1030.56 -5.34524 2.07538 0
M  V30 10813 N 1030.05 -6.4042 2.6426 0
M  V30 10814 N 1031.85 -5.25998 1.98198 0
M  V30 10815 H 1024 -1.39965 1.59761 0
M  V30 10816 H 1026.26 -0.670368 0.670306 0
M  V30 10817 H 1025.97 -2.86985 2.03304 0
M  V30 10818 H 1025.84 -3.73699 0.512726 0
M  V30 10819 H 1028.23 -2.94961 -0.0904292 0
M  V30 10820 H 1028.31 -2.10053 1.45984 0
M  V30 10821 H 1027.95 -4.32105 2.66923 0
M  V30 10822 H 1027.88 -5.15102 1.09441 0
M  V30 10823 H 1030.37 -3.59147 1.17565 0
M  V30 10824 H 1030.69 -7.1259 2.99056 0
M  V30 10825 H 1029.03 -6.41121 2.68308 0
M  V30 10826 H 1032.22 -4.42178 1.5361 0
M  V30 10827 H 1032.4 -6.03359 2.3635 0
M  V30 10828 N 1025.8 -0.366053 -1.5329 0
M  V30 10829 C 1026.73 0.514916 -2.23341 0
M  V30 10830 C 1027.75 1.04579 -1.24768 0
M  V30 10831 O 1028.94 0.952084 -1.50989 0
M  V30 10832 C 1026.04 1.72374 -2.91788 0
M  V30 10833 C 1025.21 1.32429 -4.16871 0
M  V30 10834 C 1024.27 2.39524 -4.68524 0
M  V30 10835 O 1023.29 2.01895 -5.32191 0
M  V30 10836 N 1024.5 3.71116 -4.46378 0
M  V30 10837 H 1027.26 -0.0851272 -2.99579 0
M  V30 10838 H 1024.82 -0.191255 -1.60766 0
M  V30 10839 H 1026.81 2.43496 -3.23252 0
M  V30 10840 H 1025.38 2.23064 -2.19 0
M  V30 10841 H 1024.6 0.442901 -3.91704 0
M  V30 10842 H 1025.89 1.03372 -4.98188 0
M  V30 10843 H 1025.29 4.04463 -3.95508 0
M  V30 10844 H 1023.85 4.38341 -4.82391 0
M  V30 10845 N 1027.28 1.57312 -0.0952337 0
M  V30 10846 C 1028.53 1.94646 0.569284 0
M  V30 10847 C 1028.86 0.977152 1.67825 0
M  V30 10848 O 1028.13 0.0102318 1.94497 0
M  V30 10849 C 1028.42 3.42098 1.12433 0
M  V30 10850 C 1028.27 4.49795 0.0204016 0
M  V30 10851 C 1029.59 3.90866 2.02266 0
M  V30 10852 H 1026.71 0.707779 0.205469 0
M  V30 10853 H 1029.35 1.89274 -0.16597 0
M  V30 10854 H 1027.5 3.46807 1.75092 0
M  V30 10855 H 1029.17 4.57198 -0.613845 0
M  V30 10856 H 1027.41 4.28964 -0.645965 0
M  V30 10857 H 1028.09 5.50166 0.449579 0
M  V30 10858 H 1030.56 3.88311 1.49512 0
M  V30 10859 H 1029.44 4.94604 2.38029 0
M  V30 10860 H 1029.7 3.30167 2.9401 0
M  V30 10861 N 1028.76 -0.17846 1.56586 0
M  V30 10862 C 1030 -0.896235 1.81587 0
M  V30 10863 C 1030.33 -1.82553 0.671168 0
M  V30 10864 O 1029.59 -1.92688 -0.342046 0
M  V30 10865 C 1029.89 -1.73063 3.12704 0
M  V30 10866 C 1029.55 -0.950877 4.4076 0
M  V30 10867 C 1028.21 -0.735647 4.75544 0
M  V30 10868 C 1030.57 -0.403419 5.19636 0
M  V30 10869 C 1027.89 0.0382562 5.86688 0
M  V30 10870 C 1030.25 0.357359 6.3159 0
M  V30 10871 C 1028.91 0.583455 6.64945 0
M  V30 10872 H 1028.18 -0.327956 0.664474 0
M  V30 10873 H 1030.83 -0.161586 1.90817 0
M  V30 10874 H 1029.13 -2.53446 2.98785 0
M  V30 10875 H 1030.83 -2.28891 3.29257 0
M  V30 10876 H 1027.42 -1.12866 4.13472 0
M  V30 10877 H 1031.6 -0.557059 4.93164 0
M  V30 10878 H 1026.86 0.223237 6.10992 0
M  V30 10879 H 1031.03 0.788861 6.91918 0
M  V30 10880 H 1028.66 1.18502 7.50907 0
M  V30 10881 N 1030.24 -1.51135 -0.446768 0
M  V30 10882 C 1031.65 -1.39101 -0.782504 0
M  V30 10883 C 1031.85 -0.46599 -1.96038 0
M  V30 10884 O 1030.91 0.0823679 -2.52366 0
M  V30 10885 C 1032.22 -2.80953 -1.07173 0
M  V30 10886 C 1033.77 -2.90038 -1.17673 0
M  V30 10887 C 1034.24 -4.32777 -1.49894 0
M  V30 10888 N 1035.73 -4.3584 -1.56837 0
M  V30 10889 C 1036.47 -5.43305 -1.83322 0
M  V30 10890 N 1035.97 -6.60945 -2.07662 0
M  V30 10891 N 1037.76 -5.30775 -1.85026 0
M  V30 10892 H 1029.91 -2.09835 0.329114 0
M  V30 10893 H 1032.17 -0.944199 0.0848054 0
M  V30 10894 H 1031.88 -3.50591 -0.279037 0
M  V30 10895 H 1031.75 -3.197 -2.00179 0
M  V30 10896 H 1034.14 -2.20603 -1.96005 0
M  V30 10897 H 1034.22 -2.54801 -0.225892 0
M  V30 10898 H 1033.86 -5.02757 -0.720924 0
M  V30 10899 H 1033.79 -4.6552 -2.46168 0
M  V30 10900 H 1036.29 -3.51023 -1.39968 0
M  V30 10901 H 1036.6 -7.38643 -2.27214 0
M  V30 10902 H 1034.94 -6.64077 -2.05003 0
M  V30 10903 H 1038.13 -4.37858 -1.65523 0
M  V30 10904 H 1038.31 -6.14609 -2.05329 0
M  V30 10905 N 1031.71 0.701592 -1.41122 0
M  V30 10906 C 1033.13 1.01143 -1.23459 0
M  V30 10907 C 1033.33 2.01144 -0.11968 0
M  V30 10908 O 1032.39 2.47132 0.517889 0
M  V30 10909 C 1033.7 1.54179 -2.58165 0
M  V30 10910 C 1035.25 1.66093 -2.65296 0
M  V30 10911 C 1035.72 2.22532 -4.00304 0
M  V30 10912 N 1037.21 2.299 -4.0212 0
M  V30 10913 C 1037.95 2.74584 -5.0338 0
M  V30 10914 N 1037.44 3.18917 -6.15032 0
M  V30 10915 N 1039.24 2.74094 -4.90743 0
M  V30 10916 H 1031.39 0.0390087 -2.12364 0
M  V30 10917 H 1033.65 0.0798848 -0.944628 0
M  V30 10918 H 1033.36 0.881587 -3.40472 0
M  V30 10919 H 1033.23 2.52488 -2.80231 0
M  V30 10920 H 1035.62 2.31227 -1.83352 0
M  V30 10921 H 1035.7 0.663461 -2.47046 0
M  V30 10922 H 1035.34 1.58016 -4.82694 0
M  V30 10923 H 1035.27 3.2302 -4.15891 0
M  V30 10924 H 1037.76 1.98607 -3.21502 0
M  V30 10925 H 1038.08 3.5162 -6.88174 0
M  V30 10926 H 1036.42 3.1684 -6.18577 0
M  V30 10927 H 1039.61 2.38804 -4.02604 0
M  V30 10928 H 1039.79 3.086 -5.69798 0
M  V30 10929 N 1033.19 1.2685 0.935242 0
M  V30 10930 C 1034.61 1.04091 1.20984 0
M  V30 10931 C 1034.81 -0.230242 2.0018 0
M  V30 10932 O 1033.86 -0.93778 2.3444 0
M  V30 10933 C 1035.18 2.27586 1.96533 0
M  V30 10934 C 1036.72 2.32547 2.09501 0
M  V30 10935 C 1037.2 3.55751 2.88454 0
M  V30 10936 N 1038.69 3.56263 2.96025 0
M  V30 10937 C 1039.43 4.48262 3.57559 0
M  V30 10938 N 1038.92 5.50557 4.20546 0
M  V30 10939 N 1040.71 4.35901 3.5489 0
M  V30 10940 H 1032.87 2.08484 0.405954 0
M  V30 10941 H 1035.13 0.916548 0.242164 0
M  V30 10942 H 1034.83 3.20076 1.45753 0
M  V30 10943 H 1034.71 2.32305 2.97177 0
M  V30 10944 H 1037.1 1.40568 2.5947 0
M  V30 10945 H 1037.18 2.31836 1.08101 0
M  V30 10946 H 1036.82 4.48063 2.3917 0
M  V30 10947 H 1036.75 3.53711 3.90123 0
M  V30 10948 H 1039.24 2.82278 2.51252 0
M  V30 10949 H 1039.55 6.16935 4.65415 0
M  V30 10950 H 1037.9 5.54407 4.19115 0
M  V30 10951 H 1041.09 3.552 3.04879 0
M  V30 10952 H 1041.26 5.07792 4.02557 0
M  V30 10953 N 1034.67 -1.14067 1.0875 0
M  V30 10954 C 1036.09 -1.37173 0.815823 0
M  V30 10955 C 1036.29 -1.93175 -0.573215 0
M  V30 10956 O 1035.34 -2.14672 -1.32937 0
M  V30 10957 C 1036.66 -2.32955 1.90138 0
M  V30 10958 C 1038.2 -2.46586 1.9278 0
M  V30 10959 C 1038.68 -3.4567 3.0046 0
M  V30 10960 N 1040.17 -3.53216 2.99655 0
M  V30 10961 C 1040.9 -4.29743 3.79616 0
M  V30 10962 N 1040.4 -5.09484 4.69466 0
M  V30 10963 N 1042.19 -4.24975 3.67903 0
M  V30 10964 H 1034.34 -0.760648 1.98313 0
M  V30 10965 H 1036.61 -0.397135 0.860807 0
M  V30 10966 H 1036.31 -1.98949 2.90021 0
M  V30 10967 H 1036.19 -3.32897 1.77368 0
M  V30 10968 H 1038.57 -2.79882 0.935404 0
M  V30 10969 H 1038.66 -1.46593 2.09629 0
M  V30 10970 H 1038.3 -3.13106 3.99909 0
M  V30 10971 H 1038.23 -4.45452 2.80856 0
M  V30 10972 H 1040.72 -2.96314 2.34535 0
M  V30 10973 H 1041.03 -5.65163 5.27077 0
M  V30 10974 H 1039.38 -5.08741 4.73506 0
M  V30 10975 H 1042.57 -3.61751 2.97075 0
M  V30 10976 H 1042.74 -4.84364 4.30459 0
M  V30 10977 N 1036.15 -0.873678 -1.31166 0
M  V30 10978 C 1037.1 -0.321349 -2.3037 0
M  V30 10979 C 1038.09 0.565568 -1.5968 0
M  V30 10980 O 1039.3 0.451257 -1.74252 0
M  V30 10981 H 1035.67 -0.0852425 -0.747153 0
M  V30 10982 H 1037.64 -1.17191 -2.74425 0
M  V30 10983 C 1036.39 0.459016 -3.44657 0
M  V30 10984 H 1035.71 -0.214185 -3.99226 0
M  V30 10985 H 1037.15 0.810758 -4.16176 0
M  V30 10986 C 1035.61 1.65173 -2.93632 0
M  V30 10987 O 1036.14 2.75105 -2.92711 0
M  V30 10988 N 1034.35 1.4851 -2.49786 0
M  V30 10989 H 1033.9 0.590785 -2.50734 0
M  V30 10990 H 1033.85 2.28452 -2.16002 0
M  V30 10991 N 1037.63 1.44308 -0.633487 0
M  V30 10992 C 1038.56 2.28943 0.108474 0
M  V30 10993 C 1039.57 1.41415 0.806582 0
M  V30 10994 O 1040.76 1.65544 0.667634 0
M  V30 10995 C 1037.86 3.17845 1.1759 0
M  V30 10996 C 1037.03 4.33802 0.559842 0
M  V30 10997 C 1036.09 5.03722 1.52154 0
M  V30 10998 O 1035.12 5.5966 1.03776 0
M  V30 10999 N 1036.32 5.05392 2.85586 0
M  V30 11000 H 1039.09 2.93262 -0.617879 0
M  V30 11001 H 1036.65 1.54781 -0.474819 0
M  V30 11002 H 1038.64 3.61485 1.81963 0
M  V30 11003 H 1037.21 2.55261 1.80445 0
M  V30 11004 H 1036.43 3.93325 -0.262559 0
M  V30 11005 H 1037.72 5.08637 0.128942 0
M  V30 11006 H 1037.11 4.61282 3.27468 0
M  V30 11007 H 1035.67 5.52813 3.45313 0
M  V30 11008 N 1039.1 0.374177 1.53094 0
M  V30 11009 C 1040.38 -0.269632 1.93733 0
M  V30 11010 C 1040.76 -1.6566 1.30843 0
M  V30 11011 O 1040.11 -2.23598 0.470759 0
M  V30 11012 C 1040.32 -0.311204 3.4761 0
M  V30 11013 C 1041.67 -0.547432 4.21056 0
M  V30 11014 O 1042.69 -0.392053 3.54036 0
M  V30 11015 O 1041.55 -0.850645 5.39839 0
M  V30 11016 H 1038.64 -0.163723 0.810632 0
M  V30 11017 H 1041.19 0.427586 1.64225 0
M  V30 11018 H 1039.96 0.660897 3.85678 0
M  V30 11019 H 1039.59 -1.05397 3.83376 0
M  V30 11020 N 1040.58 -1.57259 0.103575 0
M  V30 11021 C 1041.83 -1.94945 -0.558953 0
M  V30 11022 C 1042.16 -0.986038 -1.67305 0
M  V30 11023 O 1041.44 -0.0205464 -1.94489 0
M  V30 11024 C 1041.72 -3.42689 -1.10617 0
M  V30 11025 C 1041.57 -4.498 0.00345246 0
M  V30 11026 C 1042.89 -3.91933 -2.00191 0
M  V30 11027 H 1040.01 -0.708859 -0.201713 0
M  V30 11028 H 1042.65 -1.89183 0.176006 0
M  V30 11029 H 1040.8 -3.4773 -1.73251 0
M  V30 11030 H 1042.47 -4.56866 0.638082 0
M  V30 11031 H 1040.72 -4.28615 0.668705 0
M  V30 11032 H 1041.39 -5.50397 -0.420396 0
M  V30 11033 H 1043.86 -3.89098 -1.4745 0
M  V30 11034 H 1042.74 -4.9586 -2.35402 0
M  V30 11035 H 1043 -3.31722 -2.92255 0
M  V30 11036 N 1042.06 0.170153 -1.56679 0
M  V30 11037 C 1043.48 0.521966 -1.50823 0
M  V30 11038 C 1043.68 1.84589 -0.808037 0
M  V30 11039 O 1042.73 2.49791 -0.368891 0
M  V30 11040 C 1044.05 0.553648 -2.95559 0
M  V30 11041 C 1045.59 0.640769 -3.06371 0
M  V30 11042 C 1046.07 0.703332 -4.52567 0
M  V30 11043 N 1047.56 0.76619 -4.56819 0
M  V30 11044 C 1048.29 0.835192 -5.67285 0
M  V30 11045 N 1047.79 0.864957 -6.87379 0
M  V30 11046 N 1049.58 0.874302 -5.55259 0
M  V30 11047 H 1041.73 -0.697952 -2.00605 0
M  V30 11048 H 1044 -0.251787 -0.913952 0
M  V30 11049 H 1043.7 -0.350498 -3.49949 0
M  V30 11050 H 1043.58 1.39973 -3.50268 0
M  V30 11051 H 1045.96 1.53534 -2.52015 0
M  V30 11052 H 1046.05 -0.232008 -2.54746 0
M  V30 11053 H 1045.69 -0.186986 -5.07556 0
M  V30 11054 H 1045.62 1.59227 -5.0195 0
M  V30 11055 H 1048.11 0.751424 -3.70354 0
M  V30 11056 H 1048.42 0.918814 -7.67318 0
M  V30 11057 H 1046.77 0.833215 -6.89987 0
M  V30 11058 H 1049.96 0.848057 -4.60354 0
M  V30 11059 H 1050.13 0.924615 -6.4137 0
M  V30 11060 N 1043.54 1.5137 0.438746 0
M  V30 11061 C 1044.76 1.68058 1.21537 0
M  V30 11062 C 1045.19 0.376787 1.84288 0
M  V30 11063 O 1044.55 -0.662911 1.68746 0
M  V30 11064 C 1044.59 2.79684 2.27616 0
M  V30 11065 O 1043.7 2.43189 3.33066 0
M  V30 11066 H 1043.04 0.560408 0.356144 0
M  V30 11067 H 1045.57 1.97926 0.518311 0
M  V30 11068 H 1045.58 3.03726 2.72423 0
M  V30 11069 H 1044.25 3.74293 1.81321 0
M  V30 11070 H 1042.83 2.29713 2.93746 0
M  V30 11071 N 1045.02 -0.694098 1.41492 0
M  V30 11072 C 1046.43 -1.00487 1.23994 0
M  V30 11073 C 1046.63 -2.01078 0.130346 0
M  V30 11074 O 1045.69 -2.47403 -0.504775 0
M  V30 11075 C 1047 -1.52808 2.58979 0
M  V30 11076 C 1048.55 -1.64684 2.66173 0
M  V30 11077 C 1049.02 -2.20406 4.01479 0
M  V30 11078 N 1050.52 -2.27765 4.03333 0
M  V30 11079 C 1051.25 -2.7191 5.04829 0
M  V30 11080 N 1050.75 -3.1565 6.16714 0
M  V30 11081 N 1052.54 -2.71487 4.9219 0
M  V30 11082 H 1044.69 -0.027746 2.12382 0
M  V30 11083 H 1046.95 -0.0748741 0.945039 0
M  V30 11084 H 1046.66 -0.863519 3.40934 0
M  V30 11085 H 1046.53 -2.50998 2.81566 0
M  V30 11086 H 1048.92 -2.30251 1.84576 0
M  V30 11087 H 1049 -0.65035 2.47395 0
M  V30 11088 H 1048.65 -1.55454 4.83525 0
M  V30 11089 H 1048.58 -3.2081 4.17599 0
M  V30 11090 H 1051.07 -1.96899 3.22551 0
M  V30 11091 H 1051.38 -3.47966 6.90029 0
M  V30 11092 H 1049.72 -3.13555 6.20248 0
M  V30 11093 H 1052.92 -2.36666 4.03865 0
M  V30 11094 H 1053.09 -3.05573 5.71427 0
M  V30 11095 N 1046.49 -1.27344 -0.928501 0
M  V30 11096 C 1047.72 -1.16278 -1.70772 0
M  V30 11097 C 1048.13 0.283131 -1.8707 0
M  V30 11098 O 1047.48 1.20466 -1.38685 0
M  V30 11099 C 1047.54 -1.77313 -3.1273 0
M  V30 11100 C 1047.2 -3.26488 -3.19773 0
M  V30 11101 C 1048.2 -4.23133 -3.02083 0
M  V30 11102 C 1045.88 -3.67182 -3.42757 0
M  V30 11103 C 1047.88 -5.5845 -3.07267 0
M  V30 11104 C 1045.56 -5.02629 -3.47574 0
M  V30 11105 C 1046.56 -5.98072 -3.29847 0
M  V30 11106 O 1046.25 -7.3105 -3.34397 0
M  V30 11107 H 1045.98 -0.405215 -0.541089 0
M  V30 11108 H 1048.54 -1.68707 -1.17163 0
M  V30 11109 H 1046.77 -1.19361 -3.67818 0
M  V30 11110 H 1048.46 -1.60972 -3.72616 0
M  V30 11111 H 1049.22 -3.93031 -2.84168 0
M  V30 11112 H 1045.1 -2.93369 -3.55606 0
M  V30 11113 H 1048.64 -6.32924 -2.93348 0
M  V30 11114 H 1044.54 -5.32387 -3.65013 0
M  V30 11115 H 1045.31 -7.39488 -3.50857 0
M  V30 11116 N 1047.97 1.13488 -1.09353 0
M  V30 11117 C 1048.92 2.18876 -0.732251 0
M  V30 11118 C 1049.89 1.63616 0.286175 0
M  V30 11119 O 1051.07 1.90059 0.167981 0
M  V30 11120 C 1048.21 3.44737 -0.158157 0
M  V30 11121 C 1047.33 4.14104 -1.23053 0
M  V30 11122 C 1046.46 5.27578 -0.619272 0
M  V30 11123 C 1045.5 5.88793 -1.67301 0
M  V30 11124 N 1044.64 6.937 -1.08283 0
M  V30 11125 H 1049.48 2.49128 -1.63522 0
M  V30 11126 H 1047.02 1.22326 -0.816995 0
M  V30 11127 H 1048.97 4.16756 0.192488 0
M  V30 11128 H 1047.6 3.14938 0.708082 0
M  V30 11129 H 1046.66 3.40376 -1.69847 0
M  V30 11130 H 1047.97 4.55683 -2.02865 0
M  V30 11131 H 1047.12 6.0631 -0.217428 0
M  V30 11132 H 1045.86 4.87246 0.210399 0
M  V30 11133 H 1044.87 5.08756 -2.0844 0
M  V30 11134 H 1046.09 6.31197 -2.50533 0
M  V30 11135 H 1044.04 6.55426 -0.274426 0
M  V30 11136 H 1043.95 7.33817 -1.81792 0
M  V30 11137 H 1045.22 7.76286 -0.707167 0
M  V30 11138 N 1049.45 0.880621 1.30701 0
M  V30 11139 C 1050.41 0.349087 2.26526 0
M  V30 11140 C 1051.41 -0.505973 1.52632 0
M  V30 11141 O 1052.6 -0.313751 1.71351 0
M  V30 11142 C 1049.74 -0.503023 3.37168 0
M  V30 11143 H 1050.93 1.19516 2.75056 0
M  V30 11144 H 1048.48 0.657107 1.41816 0
M  V30 11145 H 1049.22 -1.36986 2.93948 0
M  V30 11146 H 1049 0.109389 3.91947 0
M  V30 11147 H 1050.49 -0.866845 4.08504 0
M  V30 11148 N 1050.93 -1.4397 0.641131 0
M  V30 11149 C 1051.86 -2.28997 -0.0963315 0
M  V30 11150 C 1052.87 -1.4184 -0.799071 0
M  V30 11151 O 1054.06 -1.65896 -0.658846 0
M  V30 11152 C 1051.16 -3.18465 -1.15903 0
M  V30 11153 C 1050.34 -4.34093 -0.536828 0
M  V30 11154 C 1049.4 -5.04522 -1.4948 0
M  V30 11155 O 1048.42 -5.60202 -1.00807 0
M  V30 11156 N 1049.62 -5.06899 -2.82901 0
M  V30 11157 H 1052.39 -2.9293 0.633422 0
M  V30 11158 H 1049.95 -1.54527 0.48302 0
M  V30 11159 H 1051.94 -3.62445 -1.80044 0
M  V30 11160 H 1050.51 -2.56214 -1.79089 0
M  V30 11161 H 1049.73 -3.9318 0.283414 0
M  V30 11162 H 1051.02 -5.08698 -0.101966 0
M  V30 11163 H 1050.42 -4.63012 -3.25017 0
M  V30 11164 H 1048.97 -5.54637 -3.42376 0
M  V30 11165 N 1052.41 -0.382291 -1.52893 0
M  V30 11166 C 1053.82 0.0932841 -1.86467 0
M  V30 11167 C 1054.17 1.4675 -1.30226 0
M  V30 11168 O 1053.29 2.07001 -0.63084 0
M  V30 11169 C 1053.89 0.176048 -3.38342 0
M  V30 11170 C 1052.45 0.595904 -3.71653 0
M  V30 11171 C 1051.6 -0.246511 -2.76202 0
M  V30 11172 H 1054.55 -0.600443 -1.46903 0
M  V30 11173 H 1054.57 0.996512 -3.67219 0
M  V30 11174 H 1054.08 -0.824264 -3.79246 0
M  V30 11175 H 1052.18 1.60384 -3.36315 0
M  V30 11176 H 1052.29 0.358919 -4.77754 0
M  V30 11177 H 1050.66 0.287162 -2.53076 0
M  V30 11178 H 1051.44 -1.24467 -3.19942 0
M  V30 11179 N 1053.89 1.57202 -0.111913 0
M  V30 11180 C 1054.85 2.13778 0.826534 0
M  V30 11181 C 1055.85 1.07097 1.19945 0
M  V30 11182 O 1057.04 1.32906 1.12613 0
M  V30 11183 C 1054.17 2.6722 2.11675 0
M  V30 11184 H 1055.36 2.98023 0.334975 0
M  V30 11185 H 1052.92 1.55696 0.137256 0
M  V30 11186 H 1053.65 1.86542 2.65278 0
M  V30 11187 H 1053.44 3.45235 1.8589 0
M  V30 11188 H 1054.93 3.10926 2.78774 0
M  V30 11189 N 1055.36 -0.161842 1.56767 0
M  V30 11190 C 1056.77 -0.723385 1.72116 0
M  V30 11191 C 1057.13 -1.82355 0.723961 0
M  V30 11192 O 1056.25 -2.16107 -0.112643 0
M  V30 11193 C 1056.85 -1.31895 3.12072 0
M  V30 11194 C 1055.4 -1.82722 3.29074 0
M  V30 11195 C 1054.55 -0.709863 2.6806 0
M  V30 11196 H 1057.5 0.0636647 1.58572 0
M  V30 11197 H 1057.52 -2.18871 3.11249 0
M  V30 11198 H 1057.04 -0.51801 3.84627 0
M  V30 11199 H 1055.14 -2.6543 2.61491 0
M  V30 11200 H 1055.25 -1.96614 4.36898 0
M  V30 11201 H 1053.61 -1.13273 2.28126 0
M  V30 11202 H 1054.4 0.0793884 3.43208 0
M  V30 11203 N 1056.84 -1.516 -0.430713 0
M  V30 11204 C 1058.25 -1.57 -1.01035 0
M  V30 11205 C 1058.6 -0.397439 -1.92132 0
M  V30 11206 O 1057.73 0.484954 -2.10896 0
M  V30 11207 C 1058.32 -2.84536 -1.83915 0
M  V30 11208 C 1056.88 -2.92485 -2.36917 0
M  V30 11209 C 1056.03 -2.5173 -1.16308 0
M  V30 11210 H 1058.98 -1.57281 -0.211734 0
M  V30 11211 H 1059 -2.68672 -2.69435 0
M  V30 11212 H 1058.51 -3.69858 -1.17586 0
M  V30 11213 H 1056.61 -2.11608 -3.0668 0
M  V30 11214 H 1056.73 -3.96277 -2.6926 0
M  V30 11215 H 1055.09 -2.05079 -1.51045 0
M  V30 11216 H 1055.87 -3.39403 -0.515793 0
M  V30 11217 N 1058.32 0.686584 -1.41858 0
M  V30 11218 C 1059.23 1.83002 -1.46791 0
M  V30 11219 C 1060.25 1.70284 -0.357675 0
M  V30 11220 O 1061.42 1.92042 -0.606781 0
M  V30 11221 C 1058.49 3.19056 -1.35661 0
M  V30 11222 C 1057.55 3.43817 -2.57077 0
M  V30 11223 C 1056.78 4.7338 -2.46469 0
M  V30 11224 O 1057 5.50483 -1.49413 0
M  V30 11225 O 1055.94 4.99124 -3.36391 0
M  V30 11226 H 1059.76 1.81797 -2.43277 0
M  V30 11227 H 1057.35 0.840812 -1.23494 0
M  V30 11228 H 1059.23 4.00267 -1.31773 0
M  V30 11229 H 1057.91 3.20925 -0.422951 0
M  V30 11230 H 1056.81 2.625 -2.66541 0
M  V30 11231 H 1058.15 3.4677 -3.49302 0
M  V30 11232 N 1059.8 1.27835 0.921735 0
M  V30 11233 C 1060.73 1.136 2.04003 0
M  V30 11234 C 1061.71 0.0358756 1.70062 0
M  V30 11235 O 1062.89 0.211438 1.93046 0
M  V30 11236 C 1060.02 0.788697 3.38226 0
M  V30 11237 C 1058.98 1.84272 3.863 0
M  V30 11238 C 1058.3 1.34923 5.17397 0
M  V30 11239 C 1059.6 3.24788 4.09035 0
M  V30 11240 H 1061.3 2.07149 2.1617 0
M  V30 11241 H 1058.84 0.997349 1.0387 0
M  V30 11242 H 1060.8 0.675911 4.15944 0
M  V30 11243 H 1059.52 -0.182499 3.2609 0
M  V30 11244 H 1058.18 1.94451 3.1078 0
M  V30 11245 H 1057.83 0.367328 5.01657 0
M  V30 11246 H 1057.53 2.05397 5.50532 0
M  V30 11247 H 1059.05 1.24951 5.97678 0
M  V30 11248 H 1060.47 3.17575 4.77304 0
M  V30 11249 H 1058.86 3.93025 4.53488 0
M  V30 11250 H 1059.93 3.69398 3.14122 0
M  V30 11251 N 1061.28 -1.12907 1.09954 0
M  V30 11252 C 1062.22 -2.20561 0.73863 0
M  V30 11253 C 1063.22 -1.67347 -0.262944 0
M  V30 11254 O 1064.42 -1.79574 -0.123834 0
M  V30 11255 H 1060.8 -0.718823 0.220901 0
M  V30 11256 H 1062.77 -2.4826 1.65559 0
M  V30 11257 C 1061.52 -3.47227 0.181239 0
M  V30 11258 H 1060.84 -3.88516 0.943144 0
M  V30 11259 H 1062.28 -4.23987 -0.0332888 0
M  V30 11260 C 1060.74 -3.18956 -1.08485 0
M  V30 11261 O 1061.27 -3.38224 -2.1672 0
M  V30 11262 N 1059.48 -2.72797 -1.00151 0
M  V30 11263 H 1059.02 -2.57317 -0.120645 0
M  V30 11264 H 1058.98 -2.54256 -1.84935 0
M  V30 11265 N 1062.75 -0.88754 -1.30232 0
M  V30 11266 C 1063.98 -0.521562 -2.00735 0
M  V30 11267 C 1064.4 0.883247 -1.66073 0
M  V30 11268 O 1063.76 1.58581 -0.878731 0
M  V30 11269 C 1063.81 -0.706521 -3.53611 0
M  V30 11270 O 1062.91 0.246447 -4.11663 0
M  V30 11271 H 1062.25 -0.205216 -0.631492 0
M  V30 11272 H 1064.78 -1.19579 -1.66018 0
M  V30 11273 H 1064.79 -0.606501 -4.03467 0
M  V30 11274 H 1063.47 -1.73076 -3.78177 0
M  V30 11275 H 1062.05 0.0999062 -3.72766 0
M  V30 11276 N 1064.23 1.43628 -0.648757 0
M  V30 11277 C 1065.14 2.34554 0.0463037 0
M  V30 11278 C 1066.16 1.53629 0.816952 0
M  V30 11279 O 1067.33 1.86297 0.765212 0
M  V30 11280 C 1064.4 3.3185 1.00381 0
M  V30 11281 C 1063.46 4.2868 0.230589 0
M  V30 11282 C 1062.69 5.21328 1.14249 0
M  V30 11283 O 1062.92 5.18298 2.38166 0
M  V30 11284 O 1061.85 5.98726 0.617296 0
M  V30 11285 H 1065.68 2.95475 -0.702008 0
M  V30 11286 H 1063.26 1.43694 -0.408942 0
M  V30 11287 H 1065.14 3.91692 1.5542 0
M  V30 11288 H 1063.82 2.73439 1.73243 0
M  V30 11289 H 1062.73 3.72332 -0.363282 0
M  V30 11290 H 1064.06 4.90061 -0.458368 0
M  V30 11291 N 1065.71 0.390394 1.52688 0
M  V30 11292 C 1066.94 -0.194013 2.06491 0
M  V30 11293 C 1067.36 -1.3965 1.26014 0
M  V30 11294 O 1066.72 -1.79038 0.285468 0
M  V30 11295 C 1066.77 -0.541306 3.56514 0
M  V30 11296 O 1065.87 -1.63509 3.78601 0
M  V30 11297 H 1065.21 -0.0223608 0.663623 0
M  V30 11298 H 1067.74 0.558179 1.96839 0
M  V30 11299 H 1067.75 -0.805301 3.99974 0
M  V30 11300 H 1066.43 0.337828 4.14526 0
M  V30 11301 H 1065 -1.36473 3.4703 0
M  V30 11302 N 1067.19 -1.57141 0.120249 0
M  V30 11303 C 1068.1 -2.18925 -0.843155 0
M  V30 11304 C 1069.11 -1.16575 -1.29175 0
M  V30 11305 O 1070.29 -1.4905 -1.35448 0
M  V30 11306 C 1067.36 -2.7775 -2.075 0
M  V30 11307 C 1066.42 -3.95139 -1.6782 0
M  V30 11308 C 1065.65 -4.51149 -2.85132 0
M  V30 11309 O 1065.87 -4.06056 -4.00593 0
M  V30 11310 O 1064.81 -5.41815 -2.62145 0
M  V30 11311 H 1068.63 -3.01707 -0.347357 0
M  V30 11312 H 1066.22 -1.49028 -0.105427 0
M  V30 11313 H 1068.1 -3.15243 -2.79643 0
M  V30 11314 H 1066.77 -1.97998 -2.56083 0
M  V30 11315 H 1065.68 -3.62412 -0.927807 0
M  V30 11316 H 1067.01 -4.7633 -1.23977 0
M  V30 11317 N 1068.67 0.153526 -1.5685 0
M  V30 11318 C 1069.94 0.895545 -1.73895 0
M  V30 11319 C 1070.32 1.99625 -0.686504 0
M  V30 11320 O 1069.67 2.26579 0.2957 0
M  V30 11321 C 1069.88 1.44399 -3.17726 0
M  V30 11322 C 1071.23 1.90996 -3.79217 0
M  V30 11323 O 1072.25 1.54155 -3.21115 0
M  V30 11324 O 1071.11 2.58917 -4.81274 0
M  V30 11325 H 1068.21 0.422755 -0.710779 0
M  V30 11326 H 1070.75 0.139961 -1.69122 0
M  V30 11327 H 1069.52 0.652635 -3.85819 0
M  V30 11328 H 1069.15 2.26326 -3.26898 0
M  V30 11329 N 1070.14 1.51827 0.422667 0
M  V30 11330 C 1071.37 1.68803 1.19117 0
M  V30 11331 C 1071.78 0.391228 1.85111 0
M  V30 11332 O 1071.13 -0.64148 1.72136 0
M  V30 11333 C 1071.19 2.75767 2.30636 0
M  V30 11334 C 1070.85 4.17929 1.8489 0
M  V30 11335 C 1071.85 5.02223 1.34416 0
M  V30 11336 C 1069.53 4.641 1.92136 0
M  V30 11337 C 1071.53 6.30756 0.917925 0
M  V30 11338 C 1069.21 5.92626 1.49123 0
M  V30 11339 C 1070.21 6.75782 0.990352 0
M  V30 11340 O 1069.9 8.01902 0.566386 0
M  V30 11341 H 1069.63 0.569303 0.364514 0
M  V30 11342 H 1072.19 1.9909 0.505208 0
M  V30 11343 H 1070.42 2.40827 3.02555 0
M  V30 11344 H 1072.11 2.81476 2.92448 0
M  V30 11345 H 1072.87 4.67749 1.28202 0
M  V30 11346 H 1068.75 3.99488 2.30066 0
M  V30 11347 H 1072.29 6.95612 0.52628 0
M  V30 11348 H 1068.19 6.26611 1.55012 0
M  V30 11349 H 1068.96 8.15579 0.690918 0
M  V30 11350 N 1071.62 -0.679052 1.4222 0
M  V30 11351 C 1072.85 -1.47248 1.46058 0
M  V30 11352 C 1073.27 -1.87962 0.0720987 0
M  V30 11353 O 1072.63 -1.5572 -0.928488 0
M  V30 11354 C 1072.68 -2.70067 2.38948 0
M  V30 11355 O 1071.78 -3.68178 1.85791 0
M  V30 11356 H 1071.12 -0.442533 0.495036 0
M  V30 11357 H 1073.65 -0.833263 1.86863 0
M  V30 11358 H 1073.66 -3.18187 2.55385 0
M  V30 11359 H 1072.34 -2.39773 3.39826 0
M  V30 11360 H 1070.92 -3.2719 1.78889 0
M  V30 11361 N 1073.1 -1.28322 -0.914942 0
M  V30 11362 C 1074.51 -1.13937 -1.47903 0
M  V30 11363 C 1074.86 0.271072 -1.94318 0
M  V30 11364 O 1073.99 1.16522 -1.8235 0
M  V30 11365 C 1074.58 -2.06221 -2.68809 0
M  V30 11366 C 1073.14 -1.95903 -3.21402 0
M  V30 11367 C 1072.29 -1.98031 -1.94111 0
M  V30 11368 H 1075.24 -1.41029 -0.727772 0
M  V30 11369 H 1075.26 -1.6255 -3.44031 0
M  V30 11370 H 1074.77 -3.08866 -2.34997 0
M  V30 11371 H 1072.87 -0.962907 -3.59943 0
M  V30 11372 H 1072.99 -2.82799 -3.86732 0
M  V30 11373 H 1071.35 -1.42423 -2.11158 0
M  V30 11374 H 1072.13 -3.02354 -1.62595 0
M  V30 11375 N 1074.58 1.12322 -1.10551 0
M  V30 11376 C 1075.8 1.8822 -0.871093 0
M  V30 11377 C 1076.23 1.7916 0.573005 0
M  V30 11378 O 1075.59 1.14738 1.40374 0
M  V30 11379 C 1075.63 3.35349 -1.32565 0
M  V30 11380 O 1074.74 4.09461 -0.49145 0
M  V30 11381 H 1074.08 0.584787 -0.314516 0
M  V30 11382 H 1076.61 1.42039 -1.47262 0
M  V30 11383 H 1076.62 3.86189 -1.31612 0
M  V30 11384 H 1075.29 3.4126 -2.37728 0
M  V30 11385 H 1073.87 3.68575 -0.566294 0
M  V30 11386 N 1076.06 0.894434 1.2976 0
M  V30 11387 C 1077.28 0.5322 2.00455 0
M  V30 11388 C 1077.71 -0.874427 1.66539 0
M  V30 11389 O 1077.06 -1.58113 0.887129 0
M  V30 11390 C 1077.11 0.725264 3.53231 0
M  V30 11391 O 1076.22 -0.224612 4.11788 0
M  V30 11392 H 1075.56 0.208562 0.630395 0
M  V30 11393 H 1078.09 1.20458 1.65382 0
M  V30 11394 H 1078.1 0.627889 4.0314 0
M  V30 11395 H 1076.77 1.75079 3.77253 0
M  V30 11396 H 1075.35 -0.0801361 3.72814 0
M  V30 11397 N 1077.53 -1.43282 0.656365 0
M  V30 11398 C 1078.76 -2.06641 0.177245 0
M  V30 11399 C 1079.18 -1.48893 -1.14946 0
M  V30 11400 O 1078.54 -0.600099 -1.7108 0
M  V30 11401 C 1078.59 -3.60453 0.10299 0
M  V30 11402 O 1077.69 -4.01687 -0.933895 0
M  V30 11403 H 1077.04 -0.656978 0.096314 0
M  V30 11404 H 1079.57 -1.83733 0.900178 0
M  V30 11405 H 1079.58 -4.07923 -0.079291 0
M  V30 11406 H 1078.25 -4.01861 1.07147 0
M  V30 11407 H 1076.83 -3.65801 -0.724148 0
M  V30 11408 N 1079.01 -0.398486 -1.52479 0
M  V30 11409 C 1079.92 0.439328 -2.3045 0
M  V30 11410 C 1080.94 1.06322 -1.37738 0
M  V30 11411 O 1082.12 1.06704 -1.7081 0
M  V30 11412 C 1079.18 1.54655 -3.10294 0
M  V30 11413 C 1078.24 0.946824 -4.18729 0
M  V30 11414 C 1077.47 2.00129 -4.94757 0
M  V30 11415 O 1077.7 3.2178 -4.70971 0
M  V30 11416 O 1076.63 1.61345 -5.79872 0
M  V30 11417 H 1080.46 -0.196118 -3.03066 0
M  V30 11418 H 1078.04 -0.161961 -1.4852 0
M  V30 11419 H 1079.92 2.18958 -3.60049 0
M  V30 11420 H 1078.6 2.1668 -2.40482 0
M  V30 11421 H 1077.51 0.266802 -3.73147 0
M  V30 11422 H 1078.84 0.370664 -4.90802 0
M  V30 11423 N 1080.49 1.57075 -0.12858 0
M  V30 11424 C 1081.72 1.99876 0.534544 0
M  V30 11425 C 1082.13 1.00843 1.59612 0
M  V30 11426 O 1081.49 0.00268947 1.825 0
M  V30 11427 C 1081.54 3.42654 1.15198 0
M  V30 11428 O 1081.26 4.37899 0.132823 0
M  V30 11429 C 1082.76 4.00637 1.8975 0
M  V30 11430 H 1079.98 0.656073 0.140744 0
M  V30 11431 H 1082.53 2.03337 -0.217742 0
M  V30 11432 H 1080.68 3.40101 1.85499 0
M  V30 11433 H 1081.1 5.21253 0.582682 0
M  V30 11434 H 1082.57 5.02592 2.28266 0
M  V30 11435 H 1083.05 3.40313 2.7764 0
M  V30 11436 H 1083.65 4.06764 1.2419 0
M  V30 11437 N 1081.97 -0.145205 1.5693 0
M  V30 11438 C 1083.22 -0.858786 1.83719 0
M  V30 11439 C 1083.55 -1.80738 0.710452 0
M  V30 11440 O 1082.82 -1.92389 -0.285791 0
M  V30 11441 C 1083.11 -1.6317 3.2101 0
M  V30 11442 C 1082.96 -0.704472 4.44249 0
M  V30 11443 C 1084.28 -2.59377 3.55544 0
M  V30 11444 H 1081.4 -0.310757 0.66828 0
M  V30 11445 H 1084.04 -0.123918 1.89595 0
M  V30 11446 H 1082.19 -2.25816 3.16132 0
M  V30 11447 H 1083.86 -0.08887 4.61214 0
M  V30 11448 H 1082.1 -0.0141693 4.33798 0
M  V30 11449 H 1082.78 -1.28135 5.36922 0
M  V30 11450 H 1085.25 -2.06848 3.61044 0
M  V30 11451 H 1084.13 -3.10506 4.52634 0
M  V30 11452 H 1084.39 -3.40819 2.81594 0
M  V30 11453 N 1083.45 -1.52049 -0.414609 0
M  V30 11454 C 1084.86 -1.40729 -0.752822 0
M  V30 11455 C 1085.06 -0.507468 -1.95005 0
M  V30 11456 O 1084.12 0.0288189 -2.52484 0
M  V30 11457 C 1085.43 -2.83163 -1.01189 0
M  V30 11458 C 1086.98 -2.92469 -1.11494 0
M  V30 11459 C 1087.46 -4.35859 -1.4068 0
M  V30 11460 N 1088.95 -4.39069 -1.47557 0
M  V30 11461 C 1089.68 -5.47072 -1.71756 0
M  V30 11462 N 1089.18 -6.65201 -1.93595 0
M  V30 11463 N 1090.97 -5.3458 -1.73726 0
M  V30 11464 H 1083.12 -2.09089 0.373549 0
M  V30 11465 H 1085.38 -0.942188 0.104814 0
M  V30 11466 H 1085.09 -3.51104 -0.204609 0
M  V30 11467 H 1084.96 -3.23874 -1.93353 0
M  V30 11468 H 1087.35 -2.24711 -1.91282 0
M  V30 11469 H 1087.43 -2.55222 -0.171794 0
M  V30 11470 H 1087.08 -5.04174 -0.614119 0
M  V30 11471 H 1087.01 -4.70637 -2.36238 0
M  V30 11472 H 1089.5 -3.53913 -1.32491 0
M  V30 11473 H 1089.81 -7.43297 -2.11495 0
M  V30 11474 H 1088.16 -6.68276 -1.90871 0
M  V30 11475 H 1091.35 -4.41271 -1.56198 0
M  V30 11476 H 1091.52 -6.18826 -1.92246 0
M  V30 11477 N 1084.93 0.6715 -1.42579 0
M  V30 11478 C 1086.15 1.46471 -1.46836 0
M  V30 11479 C 1086.58 1.87921 -0.0820658 0
M  V30 11480 O 1085.93 1.5621 0.920217 0
M  V30 11481 C 1085.98 2.68796 -2.40377 0
M  V30 11482 O 1085.09 3.67188 -1.87741 0
M  V30 11483 H 1084.43 0.439901 -0.497376 0
M  V30 11484 H 1086.96 0.823342 -1.87303 0
M  V30 11485 H 1086.97 3.16828 -2.57068 0
M  V30 11486 H 1085.64 2.37967 -3.41093 0
M  V30 11487 H 1084.22 3.26237 -1.80621 0
M  V30 11488 N 1086.4 1.28806 0.908124 0
M  V30 11489 C 1087.81 1.14719 1.47297 0
M  V30 11490 C 1088.17 -0.260763 1.94459 0
M  V30 11491 O 1087.29 -1.15553 1.82966 0
M  V30 11492 C 1087.89 2.07643 2.67712 0
M  V30 11493 C 1086.44 1.97605 3.20358 0
M  V30 11494 C 1085.59 1.99058 1.93058 0
M  V30 11495 H 1088.54 1.41413 0.720283 0
M  V30 11496 H 1088.56 1.64372 3.43165 0
M  V30 11497 H 1088.08 3.10108 2.33355 0
M  V30 11498 H 1086.18 0.981982 3.59427 0
M  V30 11499 H 1086.29 2.84846 3.85226 0
M  V30 11500 H 1084.65 1.43541 2.104 0
M  V30 11501 H 1085.44 3.03212 1.60989 0
M  V30 11502 N 1087.88 -1.11734 1.11145 0
M  V30 11503 C 1088.83 -2.19765 0.761982 0
M  V30 11504 C 1089.82 -1.67616 -0.24518 0
M  V30 11505 O 1091.03 -1.79695 -0.104781 0
M  V30 11506 H 1087.4 -0.71644 0.228513 0
M  V30 11507 H 1089.38 -2.4649 1.68183 0
M  V30 11508 C 1088.12 -3.47016 0.218057 0
M  V30 11509 H 1087.45 -3.87494 0.984299 0
M  V30 11510 H 1088.89 -4.23998 0.0116825 0
M  V30 11511 C 1087.35 -3.20088 -1.05096 0
M  V30 11512 O 1087.88 -3.40503 -2.1312 0
M  V30 11513 N 1086.08 -2.73844 -0.972523 0
M  V30 11514 H 1085.63 -2.57431 -0.0933459 0
M  V30 11515 H 1085.59 -2.56204 -1.82228 0
M  V30 11516 N 1089.36 -0.901303 -1.29284 0
M  V30 11517 C 1090.58 -0.542823 -2.0017 0
M  V30 11518 C 1091.01 0.865583 -1.67001 0
M  V30 11519 O 1090.37 1.5764 -0.895502 0
M  V30 11520 C 1090.42 -0.743987 -3.52842 0
M  V30 11521 O 1089.52 0.202771 -4.11901 0
M  V30 11522 H 1088.86 -0.211903 -0.62928 0
M  V30 11523 H 1091.39 -1.21333 -1.64741 0
M  V30 11524 H 1091.4 -0.64926 -4.02801 0
M  V30 11525 H 1090.08 -1.77077 -3.7632 0
M  V30 11526 H 1088.65 0.0603637 -3.72851 0
M  V30 11527 N 1090.84 1.42931 -0.663954 0
M  V30 11528 C 1092.25 1.84877 -0.260283 0
M  V30 11529 C 1092.6 1.5558 1.19538 0
M  V30 11530 O 1091.72 1.01015 1.91377 0
M  V30 11531 C 1092.32 3.35585 -0.465618 0
M  V30 11532 C 1090.88 3.76221 -0.116169 0
M  V30 11533 C 1090.03 2.66587 -0.763317 0
M  V30 11534 H 1092.98 1.32932 -0.866882 0
M  V30 11535 H 1093 3.79427 0.285608 0
M  V30 11536 H 1092.51 3.56877 -1.52515 0
M  V30 11537 H 1090.61 3.60539 0.940342 0
M  V30 11538 H 1090.72 4.75943 -0.549123 0
M  V30 11539 H 1089.09 2.53948 -0.19559 0
M  V30 11540 H 1089.87 2.90704 -1.82609 0
M  V30 11541 N 1092.32 0.406567 1.52266 0
M  V30 11542 C 1093.56 -0.170053 2.01785 0
M  V30 11543 C 1093.89 -1.45361 1.2923 0
M  V30 11544 O 1093.15 -1.91849 0.386342 0
M  V30 11545 C 1093.44 -0.467124 3.54334 0
M  V30 11546 C 1093.11 0.72693 4.45002 0
M  V30 11547 C 1091.77 1.05446 4.69505 0
M  V30 11548 C 1094.12 1.52493 4.98393 0
M  V30 11549 C 1091.45 2.18123 5.44646 0
M  V30 11550 C 1093.8 2.64244 5.74768 0
M  V30 11551 C 1092.47 2.97486 5.97544 0
M  V30 11552 H 1091.74 -0.0622267 0.738383 0
M  V30 11553 H 1094.39 0.54746 1.83508 0
M  V30 11554 H 1092.69 -1.26617 3.70777 0
M  V30 11555 H 1094.39 -0.926194 3.90157 0
M  V30 11556 H 1090.98 0.461666 4.26106 0
M  V30 11557 H 1095.16 1.28512 4.79373 0
M  V30 11558 H 1090.42 2.44228 5.60502 0
M  V30 11559 H 1094.59 3.26468 6.15136 0
M  V30 11560 H 1092.22 3.84913 6.5555 0
M  V30 11561 O 1093.83 -1.59097 0.277559 0
M  V30 11562 H 1094.52 -1.91488 -0.291912 0
M  V30 END ATOM
M  V30 BEGIN BOND
M  V30 END BOND
M  V30 END CTAB
M  END
$$$$
