drugbank_target|Q8I487 Skeleton-binding protein 1 (DB11638)
 OpenBabel12092121113D

  0  0  0     0  0            999 V3000
M  V30 BEGIN CTAB
M  V30 COUNTS 4998 5033 0 0 0
M  V30 BEGIN ATOM
M  V30 1 H -0.908 1.98254 -0.117106 0
M  V30 2 N 0 1.576 0 0
M  V30 3 C 0.933 2.03868 1.02534 0
M  V30 4 C 1.911 0.928543 1.3348 0
M  V30 5 O 3.095 1.19667 1.45644 0
M  V30 6 C 0.222 2.43627 2.35294 0
M  V30 7 C -0.732 3.65373 2.2001 0
M  V30 8 S 0.101 5.13292 1.52614 0
M  V30 9 C 1.257 5.56322 2.86805 0
M  V30 10 H 1.49 2.90518 0.631377 0
M  V30 11 H -0.977 1.52953 0.210867 0
M  V30 12 H 0.981 2.67203 3.11629 0
M  V30 13 H -0.358 1.57376 2.7183 0
M  V30 14 H -1.165 3.90944 3.18086 0
M  V30 15 H -1.563 3.418 1.51819 0
M  V30 16 H 0.729 5.58782 3.83104 0
M  V30 17 H 1.672 6.56266 2.65933 0
M  V30 18 H 2.08 4.83886 2.90714 0
M  V30 19 N 1.4781 -0.272755 1.55222 0
M  V30 20 C 2.7181 -1.01197 1.77591 0
M  V30 21 C 3.0821 -1.8349 0.565294 0
M  V30 22 O 4.2831 -2.60387 0.667242 0
M  V30 23 C 2.5541 -1.87096 3.04516 0
M  V30 24 S 4.1131 -2.67279 3.48004 0
M  V30 25 H 0.9311 -0.340836 0.62398 0
M  V30 26 H 3.5331 -0.282374 1.9345 0
M  V30 27 H 2.2371 -1.25565 3.90719 0
M  V30 28 H 1.7681 -2.64376 2.91323 0
M  V30 29 H 3.7831 -3.89593 3.07297 0
M  V30 30 N 2.9562 -1.48159 -0.537278 0
M  V30 31 C 4.1812 -1.59707 -1.32319 0
M  V30 32 C 4.6062 -0.254859 -1.86365 0
M  V30 33 O 3.9642 0.772378 -1.64024 0
M  V30 34 C 4.0122 -2.6412 -2.45505 0
M  V30 35 O 3.1162 -2.20774 -3.48328 0
M  V30 36 H 2.4572 -0.535791 -0.392204 0
M  V30 37 H 4.9872 -1.94092 -0.647268 0
M  V30 38 H 4.9972 -2.85166 -2.91795 0
M  V30 39 H 3.6722 -3.61567 -2.05528 0
M  V30 40 H 2.2492 -2.09911 -3.08207 0
M  V30 41 N 4.4343 0.785586 -1.36625 0
M  V30 42 C 5.3973 1.87999 -1.31107 0
M  V30 43 C 6.3973 1.59316 -0.217959 0
M  V30 44 O 7.5873 1.67656 -0.472977 0
M  V30 45 C 4.7193 3.24861 -1.03334 0
M  V30 46 H 5.9123 1.94307 -2.2844 0
M  V30 47 H 3.4653 0.983813 -1.21453 0
M  V30 48 H 4.2003 3.24235 -0.0647432 0
M  V30 49 H 3.9853 3.4707 -1.82441 0
M  V30 50 H 5.4753 4.04929 -1.02088 0
M  V30 51 N 5.9124 1.20967 1.01018 0
M  V30 52 C 6.8754 0.965918 2.07853 0
M  V30 53 C 7.8754 -0.0610545 1.60684 0
M  V30 54 O 9.0654 0.175681 1.73312 0
M  V30 55 C 6.1974 0.455513 3.37843 0
M  V30 56 H 7.3904 1.91365 2.3091 0
M  V30 57 H 4.9434 1.02594 1.17916 0
M  V30 58 H 5.6784 -0.497381 3.20463 0
M  V30 59 H 5.4634 1.19622 3.73407 0
M  V30 60 H 6.9534 0.304667 4.16487 0
M  V30 61 N 7.3905 -1.2043 1.01659 0
M  V30 62 C 8.8065 -1.41852 0.731442 0
M  V30 63 C 9.0065 -1.89358 -0.688898 0
M  V30 64 O 8.0625 -2.06247 -1.45666 0
M  V30 65 C 9.3755 -2.44019 1.75714 0
M  V30 66 C 10.9235 -2.57785 1.77527 0
M  V30 67 C 11.3985 -3.63194 2.79023 0
M  V30 68 N 12.8895 -3.70678 2.77763 0
M  V30 69 C 13.6245 -4.51897 3.52954 0
M  V30 70 N 13.1205 -5.36921 4.37821 0
M  V30 71 N 14.9135 -4.4643 3.41551 0
M  V30 72 H 7.0645 -0.879093 1.93354 0
M  V30 73 H 9.3275 -0.448425 0.835236 0
M  V30 74 H 9.0335 -2.1611 2.77469 0
M  V30 75 H 8.9075 -3.43007 1.56927 0
M  V30 76 H 11.2945 -2.85023 0.764569 0
M  V30 77 H 11.3755 -1.58992 2.00387 0
M  V30 78 H 11.0195 -3.36699 3.80258 0
M  V30 79 H 10.9495 -4.61609 2.53425 0
M  V30 80 H 13.4405 -3.09944 2.16201 0
M  V30 81 H 13.7535 -5.95981 4.91962 0
M  V30 82 H 12.0985 -5.36424 4.41899 0
M  V30 83 H 15.2895 -3.79042 2.74672 0
M  V30 84 H 15.4625 -5.09491 4.00404 0
M  V30 85 N 8.8686 -0.792821 -1.36206 0
M  V30 86 C 9.8316 -0.199459 -2.2833 0
M  V30 87 C 10.8316 0.605189 -1.48977 0
M  V30 88 O 12.0216 0.425685 -1.68919 0
M  V30 89 C 9.1536 0.723523 -3.33134 0
M  V30 90 H 10.3466 -1.01181 -2.82316 0
M  V30 91 H 7.8996 -0.562485 -1.45828 0
M  V30 92 H 8.6346 1.56008 -2.84309 0
M  V30 93 H 8.4196 0.148436 -3.91819 0
M  V30 94 H 9.9096 1.13344 -4.01924 0
M  V30 95 N 10.3467 1.47872 -0.545128 0
M  V30 96 C 11.5937 2.02493 -0.0165858 0
M  V30 97 C 11.9217 1.42073 1.32836 0
M  V30 98 O 11.1767 0.561459 1.87473 0
M  V30 99 C 11.4757 3.57131 0.13867 0
M  V30 100 C 11.1417 4.36411 -1.13384 0
M  V30 101 C 9.8037 4.57792 -1.48256 0
M  V30 102 C 12.1557 4.82223 -1.97764 0
M  V30 103 C 9.4837 5.22233 -2.67376 0
M  V30 104 C 11.8357 5.47977 -3.16076 0
M  V30 105 C 10.4997 5.67593 -3.51275 0
M  V30 106 H 9.7697 0.740975 -0.00606918 0
M  V30 107 H 12.4167 1.77683 -0.714207 0
M  V30 108 H 10.7217 3.80865 0.919172 0
M  V30 109 H 12.4187 3.97031 0.562782 0
M  V30 110 H 9.0087 4.2004 -0.852297 0
M  V30 111 H 13.1927 4.65493 -1.72132 0
M  V30 112 H 8.4487 5.35616 -2.94831 0
M  V30 113 H 12.6227 5.8244 -3.81755 0
M  V30 114 H 10.2497 6.17298 -4.43675 0
M  V30 115 N 11.8248 0.280983 1.55075 0
M  V30 116 C 13.1018 -0.386207 1.91749 0
M  V30 117 C 13.4818 -1.73264 1.20594 0
M  V30 118 O 12.8298 -2.26034 0.334784 0
M  V30 119 C 13.0398 -0.520687 3.45094 0
M  V30 120 C 14.3878 -0.800865 4.16979 0
M  V30 121 O 15.4118 -0.605271 3.5102 0
M  V30 122 O 14.2708 -1.1753 5.33712 0
M  V30 123 H 11.3648 -0.212408 0.799257 0
M  V30 124 H 13.9108 0.327568 1.66509 0
M  V30 125 H 12.6828 0.426633 3.88967 0
M  V30 126 H 12.3058 -1.2837 3.76307 0
M  V30 127 N 13.3029 -1.57598 0.00835791 0
M  V30 128 C 14.5499 -1.90928 -0.674732 0
M  V30 129 C 14.8779 -0.88277 -1.73313 0
M  V30 130 O 14.1329 0.111294 -1.95383 0
M  V30 131 C 14.4319 -3.3101 -1.34787 0
M  V30 132 C 14.0979 -4.48922 -0.421861 0
M  V30 133 C 12.7599 -4.8091 -0.166927 0
M  V30 134 C 15.1119 -5.20755 0.215211 0
M  V30 135 C 12.4399 -5.821 0.733232 0
M  V30 136 C 14.7919 -6.22905 1.1033 0
M  V30 137 C 13.4559 -6.53346 1.36733 0
M  V30 138 H 12.7259 -0.698656 -0.246902 0
M  V30 139 H 15.3729 -1.91387 0.0656779 0
M  V30 140 H 13.6779 -3.26714 -2.16253 0
M  V30 141 H 15.3749 -3.54061 -1.8826 0
M  V30 142 H 11.9649 -4.23934 -0.630729 0
M  V30 143 H 16.1489 -4.9629 0.0312829 0
M  V30 144 H 11.4049 -6.04042 0.945712 0
M  V30 145 H 15.5789 -6.77694 1.60325 0
M  V30 146 H 13.2059 -7.31573 2.06652 0
M  V30 147 N 14.781 0.264519 -1.55364 0
M  V30 148 C 16.028 0.994986 -1.7637 0
M  V30 149 C 16.356 1.85976 -0.5695 0
M  V30 150 O 15.611 1.90509 0.44776 0
M  V30 151 C 15.91 1.9004 -3.02687 0
M  V30 152 C 15.576 1.19243 -4.34847 0
M  V30 153 C 14.238 0.996709 -4.70764 0
M  V30 154 C 16.59 0.689296 -5.16622 0
M  V30 155 C 13.918 0.285261 -5.86006 0
M  V30 156 C 16.27 -0.00860079 -6.32599 0
M  V30 157 C 14.934 -0.215963 -6.67151 0
M  V30 158 H 14.204 0.364091 -0.645383 0
M  V30 159 H 16.851 0.266543 -1.89636 0
M  V30 160 H 15.156 2.69533 -2.84357 0
M  V30 161 H 16.853 2.46695 -3.16137 0
M  V30 162 H 13.443 1.3549 -4.06621 0
M  V30 163 H 17.627 0.828108 -4.89342 0
M  V30 164 H 12.883 0.113961 -6.11294 0
M  V30 165 H 17.057 -0.406186 -6.95214 0
M  V30 166 H 14.684 -0.769217 -7.56298 0
M  V30 167 N 16.2591 1.48442 0.529413 0
M  V30 168 C 17.4871 1.60151 1.30994 0
M  V30 169 C 17.9021 0.261985 1.86973 0
M  V30 170 O 17.2591 -0.748805 1.66431 0
M  V30 171 C 17.3101 2.64854 2.46038 0
M  V30 172 O 17.0311 3.93608 1.92365 0
M  V30 173 C 18.5321 2.87007 3.37849 0
M  V30 174 H 15.7521 0.539971 0.398338 0
M  V30 175 H 18.2961 1.94273 0.638597 0
M  V30 176 H 16.4511 2.33589 3.09055 0
M  V30 177 H 16.8651 4.51055 2.67675 0
M  V30 178 H 18.3391 3.64068 4.14919 0
M  V30 179 H 18.8161 1.95852 3.93114 0
M  V30 180 H 19.4221 3.19579 2.80623 0
M  V30 181 N 17.7372 -0.778329 1.37039 0
M  V30 182 C 19.0142 -1.52551 1.22424 0
M  V30 183 C 19.3942 -2.10288 -0.184964 0
M  V30 184 O 18.7422 -1.94953 -1.19187 0
M  V30 185 C 18.9522 -2.61164 2.31504 0
M  V30 186 C 20.3002 -3.28746 2.68721 0
M  V30 187 O 21.3242 -2.71455 2.30631 0
M  V30 188 O 20.1832 -4.3231 3.3432 0
M  V30 189 H 17.2772 -0.675343 0.477326 0
M  V30 190 H 19.8232 -0.815859 1.48801 0
M  V30 191 H 18.5952 -2.16574 3.25901 0
M  V30 192 H 18.2182 -3.39737 2.06554 0
M  V30 193 N 19.2153 -1.21501 -1.00376 0
M  V30 194 C 20.1453 -0.999478 -2.11028 0
M  V30 195 C 21.1263 0.0759671 -1.6993 0
M  V30 196 O 22.3113 -0.0841106 -1.94018 0
M  V30 197 C 19.4413 -0.564709 -3.42678 0
M  V30 198 C 18.3953 -1.58486 -3.97576 0
M  V30 199 C 17.7213 -1.00628 -5.25146 0
M  V30 200 C 19.0213 -2.97204 -4.29496 0
M  V30 201 H 20.7153 -1.92495 -2.29317 0
M  V30 202 H 18.2613 -0.92693 -1.102 0
M  V30 203 H 20.2143 -0.401091 -4.19487 0
M  V30 204 H 18.9383 0.396411 -3.24185 0
M  V30 205 H 17.5973 -1.73606 -3.22888 0
M  V30 206 H 17.2453 -0.0368439 -5.02987 0
M  V30 207 H 16.9453 -1.68771 -5.62841 0
M  V30 208 H 18.4693 -0.854015 -6.04598 0
M  V30 209 H 19.8833 -2.8552 -4.97143 0
M  V30 210 H 18.2803 -3.62372 -4.78338 0
M  V30 211 H 19.3503 -3.47956 -3.3772 0
M  V30 212 N 20.6934 1.19889 -1.02296 0
M  V30 213 C 21.6564 2.21116 -0.603351 0
M  V30 214 C 22.6564 1.5738 0.329884 0
M  V30 215 O 23.8464 1.73802 0.117702 0
M  V30 216 C 20.9784 3.40696 0.117992 0
M  V30 217 H 22.1714 2.59754 -1.49893 0
M  V30 218 H 19.7244 1.33463 -0.813468 0
M  V30 219 H 20.4594 3.07569 1.0282 0
M  V30 220 H 20.2444 3.88188 -0.552511 0
M  V30 221 H 21.7344 4.15692 0.398696 0
M  V30 222 N 22.1715 0.800033 1.35784 0
M  V30 223 C 23.4485 0.30088 1.93272 0
M  V30 224 C 23.8285 -1.20857 1.73081 0
M  V30 225 O 23.1765 -2.00502 1.09596 0
M  V30 226 C 23.3865 0.70511 3.41803 0
M  V30 227 C 24.7345 0.690871 4.18942 0
M  V30 228 O 25.7585 0.646244 3.50289 0
M  V30 229 O 24.6175 0.74332 5.41421 0
M  V30 230 H 21.7115 0.0771605 0.823393 0
M  V30 231 H 24.2575 0.88329 1.449 0
M  V30 232 H 23.0295 1.74571 3.50201 0
M  V30 233 H 22.6525 0.0971541 3.97481 0
M  V30 234 N 23.6496 -1.47581 0.552962 0
M  V30 235 C 24.5596 -2.33743 -0.200353 0
M  V30 236 C 25.5756 -1.47928 -0.916151 0
M  V30 237 O 26.7516 -1.80865 -0.885993 0
M  V30 238 C 23.8166 -3.24536 -1.21973 0
M  V30 239 C 22.8776 -4.26238 -0.511819 0
M  V30 240 C 22.1106 -5.12693 -1.48263 0
M  V30 241 O 22.3336 -5.01525 -2.71714 0
M  V30 242 O 21.2676 -5.93375 -1.00945 0
M  V30 243 H 25.0936 -2.9945 0.506304 0
M  V30 244 H 22.6786 -1.46071 0.313622 0
M  V30 245 H 24.5606 -3.80631 -1.80827 0
M  V30 246 H 23.2356 -2.61462 -1.90839 0
M  V30 247 H 22.1426 -3.73914 0.117799 0
M  V30 248 H 23.4756 -4.92014 0.135308 0
M  V30 249 N 25.1277 -0.289203 -1.54924 0
M  V30 250 C 26.5387 0.205791 -1.85562 0
M  V30 251 C 26.8897 1.54351 -1.2112 0
M  V30 252 O 26.0147 2.10435 -0.504601 0
M  V30 253 C 26.6097 0.380177 -3.3666 0
M  V30 254 C 25.1687 0.819395 -3.67373 0
M  V30 255 C 24.3157 -0.079159 -2.77187 0
M  V30 256 H 27.2667 -0.510577 -1.50262 0
M  V30 257 H 27.2877 1.21659 -3.60526 0
M  V30 258 H 26.7997 -0.593589 -3.83534 0
M  V30 259 H 24.9007 1.80413 -3.26009 0
M  V30 260 H 25.0137 0.646957 -4.74712 0
M  V30 261 H 23.3777 0.439565 -2.50878 0
M  V30 262 H 24.1607 -1.04906 -3.26878 0
M  V30 263 N 26.6058 1.57591 -0.0167156 0
M  V30 264 C 27.8338 1.95575 0.675128 0
M  V30 265 C 28.2488 0.892542 1.6637 0
M  V30 266 O 27.6058 -0.126912 1.82058 0
M  V30 267 C 27.6568 3.33608 1.39239 0
M  V30 268 O 27.3778 4.3585 0.443444 0
M  V30 269 C 28.8788 3.86151 2.17721 0
M  V30 270 H 26.0988 0.644423 0.186978 0
M  V30 271 H 28.6428 2.0437 -0.0728 0
M  V30 272 H 26.7978 3.2607 2.09182 0
M  V30 273 H 27.2118 5.158 0.951358 0
M  V30 274 H 28.6858 4.85114 2.63379 0
M  V30 275 H 29.1628 3.19738 3.01105 0
M  V30 276 H 29.7688 3.96918 1.52761 0
M  V30 277 N 28.0839 -0.256276 1.55502 0
M  V30 278 C 29.0159 -1.33981 1.85962 0
M  V30 279 C 30.0289 -1.44743 0.745212 0
M  V30 280 O 31.2179 -1.4626 1.02324 0
M  V30 281 C 28.3179 -2.7194 2.02242 0
M  V30 282 C 27.4909 -2.83562 3.33033 0
M  V30 283 C 26.5499 -4.02304 3.39172 0
M  V30 284 O 25.5759 -3.92273 4.12444 0
M  V30 285 N 26.7779 -5.15045 2.67784 0
M  V30 286 H 29.5429 -1.08191 2.7949 0
M  V30 287 H 27.1039 -0.446388 1.55624 0
M  V30 288 H 29.0959 -3.49697 2.03701 0
M  V30 289 H 27.6659 -2.90479 1.15502 0
M  V30 290 H 26.8859 -1.92555 3.43971 0
M  V30 291 H 28.1739 -2.88271 4.19258 0
M  V30 292 H 27.5719 -5.26085 2.07968 0
M  V30 293 H 26.1289 -5.90972 2.74947 0
M  V30 294 N 29.562 -1.4872 -0.521534 0
M  V30 295 C 30.492 -1.66771 -1.63431 0
M  V30 296 C 31.473 -0.516499 -1.62069 0
M  V30 297 O 32.658 -0.750013 -1.79132 0
M  V30 298 C 29.788 -1.71515 -3.01993 0
M  V30 299 C 28.742 -2.86222 -3.18216 0
M  V30 300 C 28.068 -2.76061 -4.57924 0
M  V30 301 C 29.368 -4.27419 -3.00184 0
M  V30 302 H 31.062 -2.59932 -1.48579 0
M  V30 303 H 28.608 -1.25089 -0.713358 0
M  V30 304 H 30.561 -1.82731 -3.7972 0
M  V30 305 H 29.285 -0.749393 -3.17886 0
M  V30 306 H 27.944 -2.74575 -2.42908 0
M  V30 307 H 27.592 -1.77437 -4.70665 0
M  V30 308 H 27.292 -3.53037 -4.69722 0
M  V30 309 H 28.816 -2.89256 -5.37739 0
M  V30 310 H 30.23 -4.39855 -3.67697 0
M  V30 311 H 28.627 -5.05458 -3.2347 0
M  V30 312 H 29.697 -4.43293 -1.96518 0
M  V30 313 N 31.0401 0.771051 -1.3745 0
M  V30 314 C 31.9721 1.89352 -1.29146 0
M  V30 315 C 32.9851 1.61477 -0.207124 0
M  V30 316 O 34.1741 1.72382 -0.463324 0
M  V30 317 C 31.2741 3.24596 -0.974195 0
M  V30 318 C 30.4471 3.80111 -2.16413 0
M  V30 319 C 29.5061 4.93832 -1.81703 0
M  V30 320 O 28.5321 5.09382 -2.54006 0
M  V30 321 N 29.7341 5.75483 -0.761573 0
M  V30 322 H 32.4991 1.96991 -2.25864 0
M  V30 323 H 30.0601 0.950191 -1.31084 0
M  V30 324 H 32.0521 3.98193 -0.722828 0
M  V30 325 H 30.6221 3.12454 -0.0955527 0
M  V30 326 H 29.8421 2.98284 -2.57721 0
M  V30 327 H 31.1301 4.13932 -2.95867 0
M  V30 328 H 30.5281 5.65469 -0.161609 0
M  V30 329 H 29.0851 6.49302 -0.570064 0
M  V30 330 N 32.5182 1.22032 0.997298 0
M  V30 331 C 33.7952 0.950823 1.70935 0
M  V30 332 C 34.1752 -0.535292 2.042 0
M  V30 333 O 33.5232 -1.50217 1.72183 0
M  V30 334 C 33.7332 1.84386 2.96315 0
M  V30 335 C 35.0812 2.09732 3.69185 0
M  V30 336 O 36.1052 1.81798 3.06314 0
M  V30 337 O 34.9642 2.57018 4.82291 0
M  V30 338 H 32.0582 0.357204 0.745878 0
M  V30 339 H 34.6042 1.32997 1.05404 0
M  V30 340 H 33.3762 2.84928 2.68201 0
M  V30 341 H 32.9992 1.46602 3.69586 0
M  V30 342 N 33.9963 -1.19345 1.0293 0
M  V30 343 C 34.9593 -2.20793 0.615069 0
M  V30 344 C 35.9593 -1.57553 -0.321533 0
M  V30 345 O 37.1493 -1.73862 -0.108483 0
M  V30 346 C 34.2813 -3.40754 -0.0999222 0
M  V30 347 H 35.4743 -2.58955 1.51269 0
M  V30 348 H 33.0273 -1.3303 0.820534 0
M  V30 349 H 33.7623 -3.0811 -1.01187 0
M  V30 350 H 33.5473 -3.87889 0.57309 0
M  V30 351 H 35.0373 -4.15898 -0.376645 0
M  V30 352 N 35.4744 -0.807222 -1.35358 0
M  V30 353 C 36.7204 -0.388463 -1.99045 0
M  V30 354 C 37.0534 1.04184 -1.63888 0
M  V30 355 O 36.3284 1.72292 -0.902535 0
M  V30 356 C 36.6114 -0.572783 -3.55515 0
M  V30 357 C 36.4644 -2.04807 -4.00468 0
M  V30 358 C 37.7834 0.00114064 -4.401 0
M  V30 359 H 34.9024 -0.142619 -0.723069 0
M  V30 360 H 37.5444 -1.01687 -1.60498 0
M  V30 361 H 35.6944 -0.0378425 -3.88482 0
M  V30 362 H 37.3664 -2.64544 -3.77908 0
M  V30 363 H 35.6094 -2.54427 -3.51353 0
M  V30 364 H 36.2804 -2.12792 -5.09337 0
M  V30 365 H 38.7564 -0.455716 -4.13597 0
M  V30 366 H 37.6324 -0.157737 -5.48673 0
M  V30 367 H 37.8934 1.09488 -4.28328 0
M  V30 368 N 36.9525 1.47285 -0.560781 0
M  V30 369 C 38.3635 1.86258 -0.128343 0
M  V30 370 C 38.7145 1.46699 1.30284 0
M  V30 371 O 37.8395 0.871698 1.98067 0
M  V30 372 C 38.4345 3.38044 -0.22614 0
M  V30 373 C 36.9935 3.76096 0.151283 0
M  V30 374 C 36.1405 2.71335 -0.572084 0
M  V30 375 H 39.0915 1.38752 -0.770297 0
M  V30 376 H 39.1125 3.76441 0.554322 0
M  V30 377 H 38.6245 3.66806 -1.26788 0
M  V30 378 H 36.7255 3.52951 1.19399 0
M  V30 379 H 36.8385 4.78641 -0.209765 0
M  V30 380 H 35.2025 2.54696 -0.0147653 0
M  V30 381 H 35.9855 3.02938 -1.61504 0
M  V30 382 N 38.4306 0.297415 1.54768 0
M  V30 383 C 39.3406 -0.58983 2.27064 0
M  V30 384 C 40.3566 -1.15144 1.30453 0
M  V30 385 O 41.5326 -1.17699 1.63428 0
M  V30 386 C 38.5976 -1.74714 2.9946 0
M  V30 387 C 37.6586 -1.21997 4.11601 0
M  V30 388 C 36.8916 -2.32212 4.80535 0
M  V30 389 O 37.1146 -3.52036 4.48806 0
M  V30 390 O 36.0486 -1.99106 5.68014 0
M  V30 391 H 39.8746 -0.00348199 3.037 0
M  V30 392 H 37.4596 0.0640035 1.49263 0
M  V30 393 H 39.3416 -2.42147 3.44881 0
M  V30 394 H 38.0166 -2.32016 2.25722 0
M  V30 395 H 36.9236 -0.511458 3.70587 0
M  V30 396 H 38.2566 -0.692419 4.87305 0
M  V30 397 N 39.9087 -1.5758 0.0250728 0
M  V30 398 C 41.1367 -1.9593 -0.664747 0
M  V30 399 C 41.5517 -0.901352 -1.65895 0
M  V30 400 O 40.9087 0.117255 -1.82123 0
M  V30 401 C 40.9597 -3.34342 -1.37468 0
M  V30 402 O 40.6807 -4.36079 -0.420324 0
M  V30 403 C 42.1817 -3.873 -2.1567 0
M  V30 404 H 39.4017 -0.645405 -0.183557 0
M  V30 405 H 41.9457 -2.04329 0.0836372 0
M  V30 406 H 40.1007 -3.27175 -2.0745 0
M  V30 407 H 40.5147 -5.16297 -0.923991 0
M  V30 408 H 41.9887 -4.86504 -2.60803 0
M  V30 409 H 42.4657 -3.21331 -2.99405 0
M  V30 410 H 43.0717 -3.97723 -1.50654 0
M  V30 411 N 41.3868 0.248026 -1.55636 0
M  V30 412 C 42.6148 0.993808 -1.81469 0
M  V30 413 C 43.0298 1.78991 -0.60064 0
M  V30 414 O 42.3868 1.77345 0.430682 0
M  V30 415 C 42.4378 1.93258 -3.05506 0
M  V30 416 O 42.1588 1.16869 -4.22224 0
M  V30 417 C 43.6598 2.79444 -3.4413 0
M  V30 418 H 40.8798 0.292486 -0.603898 0
M  V30 419 H 43.4238 0.271253 -2.02693 0
M  V30 420 H 41.5788 2.60943 -2.86335 0
M  V30 421 H 41.9928 1.80359 -4.92515 0
M  V30 422 H 43.4668 3.41066 -4.34026 0
M  V30 423 H 43.9438 3.50499 -2.64665 0
M  V30 424 H 44.5498 2.17214 -3.65648 0
M  V30 425 N 42.8649 1.48995 0.513639 0
M  V30 426 C 43.7749 1.67443 1.64317 0
M  V30 427 C 44.7909 0.556947 1.64846 0
M  V30 428 O 45.9669 0.830082 1.83498 0
M  V30 429 C 43.0319 1.72515 3.00732 0
M  V30 430 C 42.0929 2.96009 3.1093 0
M  V30 431 C 41.3259 3.00829 4.40837 0
M  V30 432 O 41.5489 2.13594 5.28898 0
M  V30 433 O 40.4829 3.93168 4.55744 0
M  V30 434 H 44.3089 2.63106 1.51687 0
M  V30 435 H 41.8939 1.32588 0.688543 0
M  V30 436 H 43.7759 1.78277 3.81831 0
M  V30 437 H 42.4509 0.800278 3.13651 0
M  V30 438 H 41.3579 2.9577 2.29065 0
M  V30 439 H 42.6909 3.87934 3.02933 0
M  V30 440 N 44.343 -0.763751 1.37857 0
M  V30 441 C 45.29 -1.87726 1.34267 0
M  V30 442 C 46.26 -1.64807 0.206879 0
M  V30 443 O 47.445 -1.86613 0.397508 0
M  V30 444 C 44.585 -3.24896 1.16346 0
M  V30 445 C 43.698 -3.59716 2.39225 0
M  V30 446 C 42.833 -4.86137 2.14114 0
M  V30 447 C 41.872 -5.13711 3.32817 0
M  V30 448 N 41.009 -6.31323 3.07206 0
M  V30 449 H 45.849 -1.90129 2.29466 0
M  V30 450 H 43.386 -0.929433 1.14017 0
M  V30 451 H 45.344 -4.04036 1.03975 0
M  V30 452 H 43.974 -3.21847 0.247909 0
M  V30 453 H 43.026 -2.75498 2.62307 0
M  V30 454 H 44.338 -3.76027 3.27728 0
M  V30 455 H 43.492 -5.73198 1.9882 0
M  V30 456 H 42.231 -4.71945 1.22961 0
M  V30 457 H 41.236 -4.25123 3.48641 0
M  V30 458 H 42.461 -5.29807 4.24832 0
M  V30 459 H 40.407 -6.18474 2.1869 0
M  V30 460 H 40.324 -6.48087 3.89254 0
M  V30 461 H 41.592 -7.213 2.95546 0
M  V30 462 N 45.8211 -1.22559 -0.990812 0
M  V30 463 C 46.7511 -1.0218 -2.09956 0
M  V30 464 C 47.7321 0.0579394 -1.70001 0
M  V30 465 O 48.9171 -0.104684 -1.93918 0
M  V30 466 C 46.0471 -0.601023 -3.4206 0
M  V30 467 C 45.0011 -1.62694 -3.95872 0
M  V30 468 C 44.3271 -1.06193 -5.24049 0
M  V30 469 C 45.6271 -3.01743 -4.2632 0
M  V30 470 H 47.3211 -1.94916 -2.27262 0
M  V30 471 H 44.8671 -0.938566 -1.09211 0
M  V30 472 H 46.8201 -0.445561 -4.19038 0
M  V30 473 H 45.5441 0.362005 -3.24588 0
M  V30 474 H 44.2031 -1.77021 -3.21028 0
M  V30 475 H 43.8511 -0.0901903 -5.02919 0
M  V30 476 H 43.5511 -1.74732 -5.61019 0
M  V30 477 H 45.0751 -0.918092 -6.03658 0
M  V30 478 H 46.4891 -2.90777 -4.94087 0
M  V30 479 H 44.8861 -3.67425 -4.74467 0
M  V30 480 H 45.9561 -3.51518 -3.34011 0
M  V30 481 N 47.2992 1.18797 -1.03562 0
M  V30 482 C 48.2622 2.20464 -0.626769 0
M  V30 483 C 49.2622 1.57721 0.313173 0
M  V30 484 O 50.4522 1.73917 0.0992615 0
M  V30 485 C 47.5842 3.40802 0.0818498 0
M  V30 486 H 48.7772 2.58149 -1.5264 0
M  V30 487 H 46.3302 1.32593 -0.827578 0
M  V30 488 H 47.0652 3.08642 0.995518 0
M  V30 489 H 46.8502 3.8758 -0.593652 0
M  V30 490 H 48.3402 4.16092 0.354584 0
M  V30 491 N 48.7773 0.814389 1.34928 0
M  V30 492 C 49.6873 0.231978 2.3345 0
M  V30 493 C 50.7033 -0.629139 1.62228 0
M  V30 494 O 51.8793 -0.539052 1.94052 0
M  V30 495 C 48.9443 -0.603482 3.41407 0
M  V30 496 C 48.0053 0.279037 4.28392 0
M  V30 497 C 47.2383 -0.516643 5.31193 0
M  V30 498 O 47.4613 -1.75068 5.4287 0
M  V30 499 O 46.3953 0.0965652 6.01823 0
M  V30 500 H 50.2213 1.04721 2.85074 0
M  V30 501 H 47.8063 0.576343 1.37836 0
M  V30 502 H 49.6883 -1.07908 4.0735 0
M  V30 503 H 48.3633 -1.39618 2.92042 0
M  V30 504 H 47.2703 0.801948 3.65403 0
M  V30 505 H 48.6033 1.03588 4.81176 0
M  V30 506 N 50.2554 -1.46986 0.568584 0
M  V30 507 C 51.5014 -2.02741 0.0488709 0
M  V30 508 C 51.8344 -1.44077 -1.30214 0
M  V30 509 O 51.1094 -0.600552 -1.84996 0
M  V30 510 C 51.3924 -3.60086 -0.032047 0
M  V30 511 C 51.2454 -4.29162 1.34686 0
M  V30 512 C 52.5644 -4.33838 -0.739798 0
M  V30 513 H 49.6834 -0.736749 0.0192338 0
M  V30 514 H 52.3254 -1.75289 0.733065 0
M  V30 515 H 50.4754 -3.83606 -0.61473 0
M  V30 516 H 52.1474 -4.16948 1.97362 0
M  V30 517 H 50.3904 -3.89073 1.91846 0
M  V30 518 H 51.0614 -5.37826 1.24285 0
M  V30 519 H 53.5374 -4.15378 -0.244939 0
M  V30 520 H 52.4134 -5.43537 -0.765406 0
M  V30 521 H 52.6744 -4.03875 -1.79827 0
M  V30 522 N 51.7335 -0.305618 -1.54608 0
M  V30 523 C 52.9795 0.302746 -2.00528 0
M  V30 524 C 53.3125 1.53184 -1.19367 0
M  V30 525 O 52.5875 1.92598 -0.271321 0
M  V30 526 C 52.8705 0.654756 -3.54097 0
M  V30 527 C 52.7235 -0.583793 -4.45995 0
M  V30 528 C 54.0425 1.47947 -4.14487 0
M  V30 529 H 51.1615 0.108564 -0.72896 0
M  V30 530 H 53.8035 -0.418634 -1.85331 0
M  V30 531 H 51.9535 1.26935 -3.67178 0
M  V30 532 H 53.6255 -1.22224 -4.44814 0
M  V30 533 H 51.8685 -1.21615 -4.16404 0
M  V30 534 H 52.5395 -0.293287 -5.5122 0
M  V30 535 H 55.0155 0.96013 -4.04871 0
M  V30 536 H 53.8915 1.69454 -5.22088 0
M  V30 537 H 54.1525 2.47011 -3.66658 0
M  V30 538 N 53.2116 1.57565 -0.0334293 0
M  V30 539 C 54.4366 1.96689 0.657895 0
M  V30 540 C 54.8616 0.910057 1.64619 0
M  V30 541 O 54.2196 -0.128598 1.80843 0
M  V30 542 C 54.2676 3.34905 1.33683 0
M  V30 543 O 53.3716 3.31574 2.45219 0
M  V30 544 H 52.7126 0.641205 0.172489 0
M  V30 545 H 55.2426 2.04372 -0.0965621 0
M  V30 546 H 55.2526 3.71234 1.69262 0
M  V30 547 H 53.9276 4.11366 0.612411 0
M  V30 548 H 52.5046 3.06968 2.11719 0
M  V30 549 N 54.6897 -0.239769 1.55765 0
M  V30 550 C 55.9667 -0.990056 1.68693 0
M  V30 551 C 56.3467 -2.03107 0.5754 0
M  V30 552 O 55.6947 -2.24604 -0.42017 0
M  V30 553 C 55.9047 -1.61696 3.09282 0
M  V30 554 C 57.2527 -2.11613 3.6811 0
M  V30 555 O 58.2767 -1.71624 3.12127 0
M  V30 556 O 57.1357 -2.85057 4.66267 0
M  V30 557 H 54.2297 -0.461299 0.686391 0
M  V30 558 H 56.7757 -0.232991 1.68093 0
M  V30 559 H 55.5477 -0.864357 3.81634 0
M  V30 560 H 55.1707 -2.44005 3.13923 0
M  V30 561 N 56.1678 -1.49265 -0.50573 0
M  V30 562 C 57.1308 -1.65075 -1.59006 0
M  V30 563 C 58.1308 -0.522768 -1.52065 0
M  V30 564 O 59.3208 -0.789117 -1.55302 0
M  V30 565 C 56.4528 -1.64369 -2.98656 0
M  V30 566 H 57.6458 -2.61784 -1.46319 0
M  V30 567 H 55.1988 -1.38226 -0.729616 0
M  V30 568 H 55.9338 -0.692272 -3.16825 0
M  V30 569 H 55.7188 -2.46282 -3.05103 0
M  V30 570 H 57.2088 -1.78674 -3.77446 0
M  V30 571 N 57.6459 0.756429 -1.3826 0
M  V30 572 C 58.6089 1.85176 -1.35065 0
M  V30 573 C 59.6089 1.58818 -0.251703 0
M  V30 574 O 60.7989 1.66615 -0.508433 0
M  V30 575 C 57.9309 3.22596 -1.10201 0
M  V30 576 H 59.1239 1.89417 -2.3251 0
M  V30 577 H 56.6769 0.95783 -1.23512 0
M  V30 578 H 57.4119 3.24025 -0.133504 0
M  V30 579 H 57.1969 3.43122 -1.89762 0
M  V30 580 H 58.6869 4.02673 -1.10654 0
M  V30 581 N 59.124 1.23083 0.984299 0
M  V30 582 C 60.352 1.08714 1.76037 0
M  V30 583 C 60.767 -0.361691 1.85303 0
M  V30 584 O 60.124 -1.25034 1.32939 0
M  V30 585 C 60.175 1.70206 3.18923 0
M  V30 586 O 59.896 3.09423 3.10144 0
M  V30 587 C 61.397 1.61227 4.12941 0
M  V30 588 H 58.617 0.380664 0.552572 0
M  V30 589 H 61.161 1.62853 1.23689 0
M  V30 590 H 59.316 1.20109 3.6831 0
M  V30 591 H 59.73 3.39188 4.00065 0
M  V30 592 H 61.204 2.08962 5.10919 0
M  V30 593 H 61.681 0.570375 4.35481 0
M  V30 594 H 62.287 2.10671 3.69456 0
M  V30 595 N 60.6021 -1.18246 1.0419 0
M  V30 596 C 61.5501 -2.23968 0.627792 0
M  V30 597 C 62.5441 -1.65828 -0.346019 0
M  V30 598 O 63.7501 -1.78733 -0.213175 0
M  V30 599 H 60.1251 -0.728939 0.184802 0
M  V30 600 H 62.0961 -2.56202 1.52981 0
M  V30 601 C 60.8451 -3.47699 0.00796591 0
M  V30 602 H 60.1681 -3.92734 0.748347 0
M  V30 603 H 61.6081 -4.23294 -0.24455 0
M  V30 604 C 60.0671 -3.13153 -1.24246 0
M  V30 605 O 60.5971 -3.27003 -2.33307 0
M  V30 606 N 58.8031 -2.67467 -1.13622 0
M  V30 607 H 58.3501 -2.56396 -0.248734 0
M  V30 608 H 58.3081 -2.44724 -1.97377 0
M  V30 609 N 62.0802 -0.821533 -1.34494 0
M  V30 610 C 63.3262 -0.409552 -1.98622 0
M  V30 611 C 63.6592 1.0244 -1.64984 0
M  V30 612 O 62.9342 1.71325 -0.920758 0
M  V30 613 C 63.2172 -0.610458 -3.54888 0
M  V30 614 C 63.0702 -2.09043 -3.98273 0
M  V30 615 C 64.3892 -0.0455379 -4.40076 0
M  V30 616 H 61.5082 -0.15028 -0.721516 0
M  V30 617 H 64.1502 -1.03384 -1.59411 0
M  V30 618 H 62.3002 -0.079044 -3.8842 0
M  V30 619 H 63.9722 -2.68537 -3.75081 0
M  V30 620 H 62.2152 -2.58139 -3.48635 0
M  V30 621 H 62.8862 -2.18182 -5.07051 0
M  V30 622 H 65.3622 -0.499557 -4.1309 0
M  V30 623 H 64.2382 -0.215922 -5.48475 0
M  V30 624 H 64.4992 1.04939 -4.29465 0
M  V30 625 N 63.5583 1.46682 -0.576371 0
M  V30 626 C 64.7863 2.06798 -0.0649635 0
M  V30 627 C 65.2013 1.42612 1.23723 0
M  V30 628 O 64.5583 0.529203 1.74659 0
M  V30 629 C 64.6093 3.6132 0.114202 0
M  V30 630 O 64.3303 4.23104 -1.13644 0
M  V30 631 C 65.8313 4.38349 0.66069 0
M  V30 632 H 63.0513 0.668778 -0.0545616 0
M  V30 633 H 65.5953 1.88404 -0.795237 0
M  V30 634 H 63.7503 3.79162 0.794673 0
M  V30 635 H 64.1643 5.15894 -0.946253 0
M  V30 636 H 65.6383 5.47081 0.73526 0
M  V30 637 H 66.1153 4.05953 1.67627 0
M  V30 638 H 66.7213 4.25297 0.0152951 0
M  V30 639 N 65.0364 0.313813 1.54444 0
M  V30 640 C 66.3134 -0.345447 1.92525 0
M  V30 641 C 66.6934 -1.70667 1.24242 0
M  V30 642 O 66.0414 -2.25273 0.382654 0
M  V30 643 C 66.2514 -0.44737 3.46121 0
M  V30 644 C 67.5994 -0.712238 4.18584 0
M  V30 645 O 68.6234 -0.530678 3.52225 0
M  V30 646 O 67.4824 -1.06183 5.36085 0
M  V30 647 H 64.5764 -0.195407 0.803583 0
M  V30 648 H 67.1224 0.362813 1.65776 0
M  V30 649 H 65.8944 0.509043 3.87975 0
M  V30 650 H 65.5174 -1.20359 3.78945 0
M  V30 651 N 66.5145 -1.57545 0.0417849 0
M  V30 652 C 67.4775 -2.09885 -0.92093 0
M  V30 653 C 68.4775 -1.01648 -1.24596 0
M  V30 654 O 69.6675 -1.27759 -1.1842 0
M  V30 655 C 66.7995 -2.57527 -2.23367 0
M  V30 656 H 67.9925 -2.96236 -0.467382 0
M  V30 657 H 65.5455 -1.5493 -0.206467 0
M  V30 658 H 66.2805 -1.74542 -2.73323 0
M  V30 659 H 66.0655 -3.36613 -2.01083 0
M  V30 660 H 67.5555 -2.98201 -2.92346 0
M  V30 661 N 67.9926 0.231505 -1.5589 0
M  V30 662 C 69.2386 0.95877 -1.78705 0
M  V30 663 C 69.5716 1.8438 -0.609725 0
M  V30 664 O 68.8466 1.90521 0.391426 0
M  V30 665 C 69.1296 1.8062 -3.11526 0
M  V30 666 C 68.9826 0.948328 -4.39689 0
M  V30 667 C 70.3016 2.78585 -3.40703 0
M  V30 668 H 67.4206 0.347129 -0.650131 0
M  V30 669 H 70.0626 0.228259 -1.88624 0
M  V30 670 H 68.2126 2.42902 -3.03201 0
M  V30 671 H 69.8846 0.343016 -4.60023 0
M  V30 672 H 68.1276 0.253314 -4.3306 0
M  V30 673 H 68.7986 1.57543 -5.29041 0
M  V30 674 H 71.2746 2.26439 -3.49091 0
M  V30 675 H 70.1506 3.34988 -4.34826 0
M  V30 676 H 70.4116 3.55825 -2.62375 0
M  V30 677 N 69.4707 1.49531 0.497807 0
M  V30 678 C 70.6957 1.63159 1.28039 0
M  V30 679 C 71.1207 0.30418 1.85624 0
M  V30 680 O 70.4787 -0.728618 1.66015 0
M  V30 681 C 70.5267 2.70537 2.38416 0
M  V30 682 O 69.6307 2.29931 3.42353 0
M  V30 683 H 68.9717 0.546001 0.377861 0
M  V30 684 H 71.5017 1.9574 0.59558 0
M  V30 685 H 71.5117 2.92802 2.84132 0
M  V30 686 H 70.1867 3.6689 1.95869 0
M  V30 687 H 68.7637 2.18009 3.02533 0
M  V30 688 N 70.9488 -0.749086 1.3866 0
M  V30 689 C 72.2258 -1.4992 1.25632 0
M  V30 690 C 72.6058 -2.10633 -0.140317 0
M  V30 691 O 71.9538 -1.97437 -1.15025 0
M  V30 692 C 72.1638 -2.56195 2.36992 0
M  V30 693 C 73.5118 -3.22972 2.75634 0
M  V30 694 O 74.5358 -2.66502 2.36337 0
M  V30 695 O 73.3948 -4.25122 3.43415 0
M  V30 696 H 70.4888 -0.665067 0.491544 0
M  V30 697 H 73.0348 -0.784113 1.50498 0
M  V30 698 H 71.8068 -2.09612 3.30422 0
M  V30 699 H 71.4298 -3.35279 2.13714 0
M  V30 700 N 72.4269 -1.23603 -0.977757 0
M  V30 701 C 73.6549 -1.09646 -1.75458 0
M  V30 702 C 74.0699 0.351859 -1.85492 0
M  V30 703 O 73.4269 1.24327 -1.336 0
M  V30 704 C 73.4779 -1.71895 -3.18016 0
M  V30 705 O 73.1989 -3.11063 -3.08498 0
M  V30 706 C 74.6999 -1.63415 -4.12081 0
M  V30 707 H 71.9199 -0.38359 -0.550545 0
M  V30 708 H 74.4639 -1.63507 -1.22824 0
M  V30 709 H 72.6189 -1.22061 -3.67668 0
M  V30 710 H 73.0329 -3.41305 -3.9826 0
M  V30 711 H 74.5069 -2.11669 -5.09804 0
M  V30 712 H 74.9839 -0.593462 -4.35172 0
M  V30 713 H 75.5899 -2.12628 -3.68334 0
M  V30 714 N 73.905 1.17692 -1.04816 0
M  V30 715 C 74.868 2.19787 -0.650117 0
M  V30 716 C 75.868 1.58044 0.296427 0
M  V30 717 O 77.058 1.74012 0.0808097 0
M  V30 718 C 74.19 3.40869 0.0456987 0
M  V30 719 H 75.383 2.56516 -1.5537 0
M  V30 720 H 72.936 1.31708 -0.841594 0
M  V30 721 H 73.671 3.09681 0.962726 0
M  V30 722 H 73.456 3.86928 -0.634727 0
M  V30 723 H 74.946 4.16445 0.310432 0
M  V30 724 N 75.3831 0.828654 1.34056 0
M  V30 725 C 76.6081 0.431637 2.02859 0
M  V30 726 C 77.0331 -0.956339 1.61975 0
M  V30 727 O 76.3911 -1.62338 0.807228 0
M  V30 728 C 76.4391 0.548323 3.56407 0
M  V30 729 O 75.5431 -0.429556 4.10157 0
M  V30 730 H 74.8841 0.176886 0.640006 0
M  V30 731 H 77.4141 1.12066 1.71179 0
M  V30 732 H 77.4241 0.426196 4.05768 0
M  V30 733 H 76.0991 1.5606 3.8551 0
M  V30 734 H 74.6761 -0.265836 3.71951 0
M  V30 735 N 76.8612 -1.46375 0.584142 0
M  V30 736 C 78.1092 -2.01978 0.0701287 0
M  V30 737 C 78.4302 -1.4579 -1.295 0
M  V30 738 O 77.7002 -0.64314 -1.85042 0
M  V30 739 H 76.2802 -0.746648 0.0229345 0
M  V30 740 H 78.9422 -1.79461 0.760245 0
M  V30 741 H 78.0382 -3.121 0.0022064 0
M  V30 742 N 78.3393 -0.321999 -1.54275 0
M  V30 743 C 79.5883 0.281931 -1.9972 0
M  V30 744 C 79.9013 1.53369 -1.21397 0
M  V30 745 O 81.1073 2.21352 -1.57211 0
M  V30 746 C 79.5633 0.5529 -3.55628 0
M  V30 747 C 79.1713 -0.681721 -4.42783 0
M  V30 748 C 80.9153 1.11687 -4.09544 0
M  V30 749 C 78.8223 -0.382742 -5.9016 0
M  V30 750 H 77.7523 0.109124 -0.746062 0
M  V30 751 H 80.4033 -0.43398 -1.78294 0
M  V30 752 H 78.7853 1.32896 -3.73035 0
M  V30 753 H 79.9593 -1.45723 -4.37151 0
M  V30 754 H 78.2743 -1.1658 -3.99748 0
M  V30 755 H 80.8713 1.35515 -5.17242 0
M  V30 756 H 81.2143 2.06575 -3.61431 0
M  V30 757 H 81.7473 0.402032 -3.95763 0
M  V30 758 H 78.4863 -1.30076 -6.42464 0
M  V30 759 H 78.0063 0.355094 -5.98748 0
M  V30 760 H 79.6853 0.00800157 -6.47 0
M  V30 761 N 79.8174 1.5752 -0.0501392 0
M  V30 762 C 81.0654 1.9227 0.622642 0
M  V30 763 C 81.3864 0.929083 1.71444 0
M  V30 764 O 80.6564 -0.0262186 1.95882 0
M  V30 765 H 79.2364 0.709739 0.232981 0
M  V30 766 H 81.8984 1.94628 -0.102898 0
M  V30 767 H 80.9944 2.93479 1.06191 0
M  V30 768 N 81.2955 -0.223234 1.56011 0
M  V30 769 C 82.5205 -0.968978 1.83373 0
M  V30 770 C 82.9455 -1.77227 0.630254 0
M  V30 771 O 82.3035 -1.76345 -0.420959 0
M  V30 772 C 82.3515 -1.86363 3.08709 0
M  V30 773 O 81.4555 -2.95873 2.87285 0
M  V30 774 H 80.7965 -0.274461 0.604622 0
M  V30 775 H 83.3265 -0.237056 2.03222 0
M  V30 776 H 83.3365 -2.27376 3.38768 0
M  V30 777 H 82.0115 -1.27319 3.95933 0
M  V30 778 H 80.5885 -2.58818 2.68454 0
M  V30 779 N 82.7736 -1.49793 -0.48987 0
M  V30 780 C 83.7036 -1.70201 -1.59856 0
M  V30 781 C 84.6846 -0.55076 -1.60937 0
M  V30 782 O 85.8696 -0.787841 -1.77501 0
M  V30 783 C 82.9996 -1.77882 -2.98287 0
M  V30 784 C 81.9536 -2.92907 -3.12073 0
M  V30 785 C 81.2796 -2.85712 -4.51965 0
M  V30 786 C 82.5796 -4.3369 -2.91051 0
M  V30 787 H 84.2736 -2.63025 -1.43032 0
M  V30 788 H 81.8196 -1.26574 -0.686664 0
M  V30 789 H 83.7726 -1.90744 -3.75759 0
M  V30 790 H 82.4966 -0.816653 -3.16225 0
M  V30 791 H 81.1556 -2.79665 -2.37029 0
M  V30 792 H 80.8036 -1.8738 -4.66795 0
M  V30 793 H 80.5036 -3.62921 -4.62128 0
M  V30 794 H 82.0276 -3.00598 -5.31482 0
M  V30 795 H 83.4416 -4.47555 -3.58284 0
M  V30 796 H 81.8386 -5.12205 -3.12675 0
M  V30 797 H 82.9086 -4.47362 -1.87071 0
M  V30 798 N 84.2517 0.741722 -1.39055 0
M  V30 799 C 85.4977 1.50336 -1.36113 0
M  V30 800 C 85.8307 1.94148 0.0450796 0
M  V30 801 O 85.1057 1.66301 1.00868 0
M  V30 802 C 85.3887 2.74773 -2.32749 0
M  V30 803 C 85.2417 2.37023 -3.82283 0
M  V30 804 C 86.5607 3.76846 -2.27322 0
M  V30 805 H 83.6797 0.545351 -0.495743 0
M  V30 806 H 86.3217 0.848624 -1.69995 0
M  V30 807 H 84.4717 3.30639 -2.03986 0
M  V30 808 H 86.1437 1.8684 -4.21768 0
M  V30 809 H 84.3867 1.69334 -3.99385 0
M  V30 810 H 85.0577 3.26104 -4.45376 0
M  V30 811 H 87.5337 3.30548 -2.5274 0
M  V30 812 H 86.4097 4.6159 -2.97028 0
M  V30 813 H 86.6707 4.23286 -1.27599 0
M  V30 814 N 85.7298 1.2412 0.971189 0
M  V30 815 C 86.9778 1.07668 1.71032 0
M  V30 816 C 87.2988 -0.385797 1.91146 0
M  V30 817 O 86.5688 -1.27569 1.4867 0
M  V30 818 H 85.1488 0.395429 0.633755 0
M  V30 819 H 87.8108 1.55984 1.16855 0
M  V30 820 H 86.9068 1.57195 2.69622 0
M  V30 821 N 87.2079 -1.17134 1.05439 0
M  V30 822 C 88.1179 -2.24878 0.668365 0
M  V30 823 C 89.1339 -1.71186 -0.311687 0
M  V30 824 O 90.3099 -2.00738 -0.163161 0
M  V30 825 C 87.3749 -3.46662 0.051648 0
M  V30 826 C 86.4359 -4.15429 1.08246 0
M  V30 827 C 85.6689 -5.31399 0.495082 0
M  V30 828 O 85.8919 -5.66153 -0.694743 0
M  V30 829 O 84.8259 -5.89187 1.23056 0
M  V30 830 H 88.6519 -2.60189 1.56637 0
M  V30 831 H 86.2369 -1.24482 0.826104 0
M  V30 832 H 88.1189 -4.20394 -0.290966 0
M  V30 833 H 86.7939 -3.13142 -0.819971 0
M  V30 834 H 85.7009 -3.43704 1.47711 0
M  V30 835 H 87.0339 -4.52982 1.92532 0
M  V30 836 N 88.686 -0.835752 -1.33615 0
M  V30 837 C 89.649 -0.272 -2.2758 0
M  V30 838 C 90.649 0.557487 -1.50827 0
M  V30 839 O 91.839 0.37173 -1.70188 0
M  V30 840 C 88.971 0.617173 -3.35267 0
M  V30 841 H 90.164 -1.10111 -2.78954 0
M  V30 842 H 87.717 -0.608594 -1.43965 0
M  V30 843 H 88.452 1.46884 -2.89129 0
M  V30 844 H 88.237 0.0237066 -3.92093 0
M  V30 845 H 89.727 1.005 -4.05326 0
M  V30 846 N 90.1641 1.46063 -0.591896 0
M  V30 847 C 91.1271 2.28854 0.125973 0
M  V30 848 C 92.1271 1.38903 0.810107 0
M  V30 849 O 93.3171 1.61186 0.66066 0
M  V30 850 C 90.4491 3.19526 1.1881 0
M  V30 851 H 91.6421 2.93802 -0.601717 0
M  V30 852 H 89.1951 1.52325 -0.350254 0
M  V30 853 H 89.9301 2.59345 1.94707 0
M  V30 854 H 89.7151 3.85766 0.701936 0
M  V30 855 H 91.2051 3.81817 1.69132 0
M  V30 856 N 91.6422 0.330177 1.54103 0
M  V30 857 C 92.8672 -0.274893 2.0557 0
M  V30 858 C 93.2922 -1.44487 1.20437 0
M  V30 859 O 92.6502 -1.80021 0.214991 0
M  V30 860 C 92.6982 -0.68079 3.54115 0
M  V30 861 O 91.8022 -1.7824 3.71893 0
M  V30 862 H 91.1432 -0.0483849 0.662235 0
M  V30 863 H 93.6732 0.480508 1.98878 0
M  V30 864 H 93.6832 -0.961635 3.96505 0
M  V30 865 H 92.3582 0.174903 4.15532 0
M  V30 866 H 90.9352 -1.49985 3.41407 0
M  V30 867 N 93.1203 -1.57491 0.0584922 0
M  V30 868 C 94.3453 -1.97711 -0.62652 0
M  V30 869 C 94.7703 -0.936132 -1.63151 0
M  V30 870 O 94.1283 0.099811 -1.81025 0
M  V30 871 C 94.1763 -3.36989 -1.28338 0
M  V30 872 O 93.2803 -3.35433 -2.39913 0
M  V30 873 H 92.6213 -0.643868 -0.162266 0
M  V30 874 H 95.1513 -2.04193 0.129064 0
M  V30 875 H 95.1613 -3.73879 -1.63335 0
M  V30 876 H 93.8363 -4.12289 -0.546889 0
M  V30 877 H 92.4133 -3.10298 -2.06809 0
M  V30 878 N 94.5984 0.214957 -1.56127 0
M  V30 879 C 95.5284 1.2695 -1.95974 0
M  V30 880 C 96.5094 1.48539 -0.828868 0
M  V30 881 O 97.6944 1.60611 -1.09168 0
M  V30 882 C 94.8244 2.61794 -2.28214 0
M  V30 883 C 93.7784 2.54851 -3.43853 0
M  V30 884 C 93.1044 3.93785 -3.61715 0
M  V30 885 C 94.4044 2.09065 -4.78632 0
M  V30 886 H 96.0984 0.93846 -2.84312 0
M  V30 887 H 93.6444 0.449996 -1.36788 0
M  V30 888 H 95.5974 3.35731 -2.54682 0
M  V30 889 H 94.3214 2.96599 -1.36736 0
M  V30 890 H 92.9804 1.8337 -3.17444 0
M  V30 891 H 92.6284 4.25908 -2.67602 0
M  V30 892 H 92.3284 3.90019 -4.39498 0
M  V30 893 H 93.8524 4.69374 -3.90539 0
M  V30 894 H 95.2664 2.7275 -5.04262 0
M  V30 895 H 93.6634 2.16346 -5.59745 0
M  V30 896 H 94.7334 1.04315 -4.73547 0
M  V30 897 N 96.0765 1.50051 0.48192 0
M  V30 898 C 97.3245 1.60181 1.23234 0
M  V30 899 C 97.6455 0.299176 1.92691 0
M  V30 900 O 96.9155 -0.682708 1.83619 0
M  V30 901 H 95.4955 0.590232 0.457859 0
M  V30 902 H 98.1575 1.86775 0.556881 0
M  V30 903 H 97.2535 2.40753 1.98607 0
M  V30 904 N 97.5546 -0.734337 1.39446 0
M  V30 905 C 98.5026 -1.86971 1.38364 0
M  V30 906 C 99.4966 -1.67288 0.266687 0
M  V30 907 O 100.703 -1.74621 0.436755 0
M  V30 908 H 97.0776 -0.615474 0.432082 0
M  V30 909 H 99.0486 -1.85 2.34132 0
M  V30 910 C 97.7976 -3.2466 1.24465 0
M  V30 911 H 97.1206 -3.40402 2.09682 0
M  V30 912 H 98.5606 -4.04292 1.27764 0
M  V30 913 C 97.0196 -3.36867 -0.0468674 0
M  V30 914 O 97.5496 -3.88618 -1.01681 0
M  V30 915 N 95.7556 -2.90391 -0.110145 0
M  V30 916 H 95.3026 -2.48466 0.679868 0
M  V30 917 H 95.2606 -2.98939 -0.973799 0
M  V30 918 N 99.0327 -1.24633 -0.964593 0
M  V30 919 C 99.9627 -1.06611 -2.07741 0
M  V30 920 C 100.944 0.0218666 -1.70086 0
M  V30 921 O 102.129 -0.145793 -1.93652 0
M  V30 922 C 99.2587 -0.673444 -3.40708 0
M  V30 923 C 98.2127 -1.71054 -3.92332 0
M  V30 924 C 97.5387 -1.17285 -5.21678 0
M  V30 925 C 98.8387 -3.10718 -4.19824 0
M  V30 926 H 100.533 -1.99693 -2.23076 0
M  V30 927 H 98.0787 -0.96152 -1.07195 0
M  V30 928 H 100.032 -0.534345 -4.17998 0
M  V30 929 H 98.7557 0.293073 -3.25282 0
M  V30 930 H 97.4147 -1.83791 -3.17201 0
M  V30 931 H 97.0627 -0.196847 -5.02615 0
M  V30 932 H 96.7627 -1.86592 -5.57187 0
M  V30 933 H 98.2867 -1.04593 -6.01575 0
M  V30 934 H 99.7007 -3.01192 -4.87808 0
M  V30 935 H 98.0977 -3.77406 -4.66567 0
M  V30 936 H 99.1677 -3.58524 -3.26479 0
M  V30 937 N 100.511 1.16574 -1.06058 0
M  V30 938 C 101.757 1.87324 -0.777022 0
M  V30 939 C 102.09 1.81351 0.694645 0
M  V30 940 O 101.365 1.22753 1.50871 0
M  V30 941 C 101.648 3.36991 -1.26922 0
M  V30 942 C 101.501 3.51667 -2.80447 0
M  V30 943 C 102.82 4.3131 -0.87521 0
M  V30 944 H 99.9388 0.680191 -0.28374 0
M  V30 945 H 102.581 1.37036 -1.3161 0
M  V30 946 H 100.731 3.79949 -0.81063 0
M  V30 947 H 102.403 3.17664 -3.34495 0
M  V30 948 H 100.646 2.93656 -3.19294 0
M  V30 949 H 101.317 4.56766 -3.0995 0
M  V30 950 H 103.793 3.9624 -1.27014 0
M  V30 951 H 102.669 5.34545 -1.2471 0
M  V30 952 H 102.93 4.41552 0.220071 0
M  V30 953 N 101.989 0.842826 1.3317 0
M  V30 954 C 103.237 0.439577 1.97262 0
M  V30 955 C 103.558 -1.00548 1.67078 0
M  V30 956 O 102.828 -1.70098 0.971779 0
M  V30 957 H 101.408 0.159558 0.72976 0
M  V30 958 H 104.07 1.07665 1.62463 0
M  V30 959 H 103.166 0.574886 3.0676 0
M  V30 960 N 103.467 -1.45747 0.599634 0
M  V30 961 C 104.377 -2.34262 -0.125888 0
M  V30 962 C 105.393 -1.50768 -0.868625 0
M  V30 963 O 106.569 -1.83592 -0.828003 0
M  V30 964 C 103.634 -3.28252 -1.11587 0
M  V30 965 C 102.695 -4.27651 -0.375956 0
M  V30 966 C 101.928 -5.1715 -1.31877 0
M  V30 967 O 102.151 -5.09916 -2.55621 0
M  V30 968 O 101.085 -5.96286 -0.820157 0
M  V30 969 H 104.911 -2.97688 0.601315 0
M  V30 970 H 102.496 -1.44999 0.359934 0
M  V30 971 H 104.378 -3.86191 -1.68626 0
M  V30 972 H 103.053 -2.67401 -1.82424 0
M  V30 973 H 101.96 -3.7335 0.236698 0
M  V30 974 H 103.293 -4.91334 0.29177 0
M  V30 975 N 104.945 -0.338344 -1.53925 0
M  V30 976 C 105.908 0.508299 -2.23493 0
M  V30 977 C 106.908 1.03175 -1.23335 0
M  V30 978 O 108.098 0.921826 -1.47811 0
M  V30 979 C 105.23 1.70754 -2.95052 0
M  V30 980 H 106.423 -0.100058 -2.99733 0
M  V30 981 H 103.976 -0.0896198 -1.56043 0
M  V30 982 H 104.711 2.35474 -2.22986 0
M  V30 983 H 104.496 1.33946 -3.68512 0
M  V30 984 H 105.986 2.30818 -3.48013 0
M  V30 985 N 106.423 1.57458 -0.0668435 0
M  V30 986 C 107.386 2.11323 0.887422 0
M  V30 987 C 108.386 1.03618 1.22964 0
M  V30 988 O 109.576 1.29626 1.16373 0
M  V30 989 C 106.708 2.61048 2.19242 0
M  V30 990 H 107.901 2.96942 0.420194 0
M  V30 991 H 105.454 1.55239 0.181793 0
M  V30 992 H 106.189 1.78868 2.70512 0
M  V30 993 H 105.974 3.39769 1.95702 0
M  V30 994 H 107.464 3.02814 2.87565 0
M  V30 995 N 107.901 -0.206675 1.56239 0
M  V30 996 C 109.126 -0.949474 1.8439 0
M  V30 997 C 109.551 -1.76549 0.649016 0
M  V30 998 O 108.909 -1.76782 -0.402231 0
M  V30 999 C 108.957 -1.83078 3.10668 0
M  V30 1000 O 108.061 -2.9281 2.90407 0
M  V30 1001 H 107.402 -0.268033 0.607499 0
M  V30 1002 H 109.932 -0.215488 2.03462 0
M  V30 1003 H 109.942 -2.2377 3.41161 0
M  V30 1004 H 108.617 -1.23112 3.97261 0
M  V30 1005 H 107.194 -2.55956 2.71184 0
M  V30 1006 N 109.379 -1.50304 -0.473955 0
M  V30 1007 C 110.627 -1.60832 -1.22382 0
M  V30 1008 C 110.948 -0.30939 -1.9253 0
M  V30 1009 O 110.218 0.67296 -1.83978 0
M  V30 1010 H 108.798 -0.592652 -0.454723 0
M  V30 1011 H 111.46 -1.87068 -0.546968 0
M  V30 1012 H 110.556 -2.41803 -1.97327 0
M  V30 1013 N 110.857 0.726932 -1.39834 0
M  V30 1014 C 112.106 1.48214 -1.36805 0
M  V30 1015 C 112.419 1.95576 0.0305291 0
M  V30 1016 O 113.625 2.7088 0.183417 0
M  V30 1017 C 112.081 2.67854 -2.40379 0
M  V30 1018 C 111.689 2.27408 -3.85992 0
M  V30 1019 C 113.433 3.45641 -2.46439 0
M  V30 1020 C 111.34 3.43819 -4.81189 0
M  V30 1021 H 110.27 0.556606 -0.508631 0
M  V30 1022 H 112.921 0.792216 -1.65518 0
M  V30 1023 H 111.303 3.3896 -2.04749 0
M  V30 1024 H 112.477 1.63795 -4.30706 0
M  V30 1025 H 110.792 1.62692 -3.83302 0
M  V30 1026 H 113.389 4.32244 -3.14753 0
M  V30 1027 H 113.732 3.88669 -1.49139 0
M  V30 1028 H 114.265 2.8157 -2.81004 0
M  V30 1029 H 111.004 3.05834 -5.79781 0
M  V30 1030 H 110.524 4.06385 -4.41148 0
M  V30 1031 H 112.203 4.10043 -5.00474 0
M  V30 1032 N 112.336 1.25143 0.95797 0
M  V30 1033 C 113.584 1.09476 1.69881 0
M  V30 1034 C 113.905 -0.365502 1.91544 0
M  V30 1035 O 113.175 -1.25985 1.50015 0
M  V30 1036 H 111.755 0.402128 0.629525 0
M  V30 1037 H 114.417 1.57214 1.15194 0
M  V30 1038 H 113.513 1.60046 2.6794 0
M  V30 1039 N 113.814 -1.1601 1.06675 0
M  V30 1040 C 114.762 -2.22586 0.675157 0
M  V30 1041 C 115.756 -1.66525 -0.310766 0
M  V30 1042 O 116.962 -1.79145 -0.175215 0
M  V30 1043 H 113.337 -0.724855 0.200223 0
M  V30 1044 H 115.308 -2.52899 1.58381 0
M  V30 1045 C 114.057 -3.47604 0.0817162 0
M  V30 1046 H 113.38 -3.91058 0.831484 0
M  V30 1047 H 114.82 -4.23718 -0.154708 0
M  V30 1048 C 113.279 -3.15718 -1.17576 0
M  V30 1049 O 113.809 -3.31878 -2.26318 0
M  V30 1050 N 112.015 -2.69816 -1.07923 0
M  V30 1051 H 111.562 -2.56866 -0.194293 0
M  V30 1052 H 111.52 -2.48855 -1.92141 0
M  V30 1053 N 115.292 -0.849877 -1.32721 0
M  V30 1054 C 116.541 -0.447175 -1.96681 0
M  V30 1055 C 116.854 1.00135 -1.68025 0
M  V30 1056 O 118.06 1.50926 -2.25685 0
M  V30 1057 C 116.516 -0.7487 -3.52026 0
M  V30 1058 C 116.124 -2.21264 -3.89546 0
M  V30 1059 C 117.868 -0.413487 -4.22481 0
M  V30 1060 C 115.775 -2.45763 -5.37917 0
M  V30 1061 H 114.705 -0.163486 -0.736063 0
M  V30 1062 H 117.356 -1.03999 -1.51183 0
M  V30 1063 H 115.738 -0.0853727 -3.95908 0
M  V30 1064 H 116.912 -2.91736 -3.56689 0
M  V30 1065 H 115.227 -2.5119 -3.32103 0
M  V30 1066 H 117.824 -0.574017 -5.3161 0
M  V30 1067 H 118.167 0.644492 -4.11281 0
M  V30 1068 H 118.7 -1.03251 -3.84167 0
M  V30 1069 H 115.439 -3.50168 -5.54132 0
M  V30 1070 H 114.959 -1.79864 -5.72197 0
M  V30 1071 H 116.638 -2.29471 -6.0494 0
M  V30 1072 N 116.77 1.45427 -0.607355 0
M  V30 1073 C 118.016 2.0254 -0.102607 0
M  V30 1074 C 118.349 1.47478 1.26348 0
M  V30 1075 O 117.624 0.64939 1.83339 0
M  V30 1076 C 117.907 3.60044 -0.0634347 0
M  V30 1077 C 117.76 4.2544 -1.46017 0
M  V30 1078 C 119.079 4.35646 0.624514 0
M  V30 1079 H 116.198 0.73598 -0.0387607 0
M  V30 1080 H 118.84 1.73284 -0.779282 0
M  V30 1081 H 116.99 3.85101 0.512808 0
M  V30 1082 H 118.662 4.11569 -2.08347 0
M  V30 1083 H 116.905 3.83849 -2.02094 0
M  V30 1084 H 117.576 5.34342 -1.385 0
M  V30 1085 H 120.052 4.15882 0.134723 0
M  V30 1086 H 118.928 5.45376 0.621028 0
M  V30 1087 H 119.189 4.08501 1.69055 0
M  V30 1088 N 118.248 0.346503 1.53744 0
M  V30 1089 C 119.496 -0.248612 2.00565 0
M  V30 1090 C 119.817 -1.5083 1.23593 0
M  V30 1091 O 119.087 -1.92858 0.343912 0
M  V30 1092 H 117.667 -0.0948564 0.740953 0
M  V30 1093 H 120.329 0.468341 1.89189 0
M  V30 1094 H 119.425 -0.488994 3.08245 0
M  V30 1095 N 119.726 -1.57421 0.075193 0
M  V30 1096 C 120.974 -1.93236 -0.591974 0
M  V30 1097 C 121.295 -0.956241 -1.69944 0
M  V30 1098 O 120.565 -0.00494792 -1.95899 0
M  V30 1099 H 119.145 -0.713355 -0.22166 0
M  V30 1100 H 121.807 -1.9444 0.133848 0
M  V30 1101 H 120.903 -2.95131 -1.01509 0
M  V30 1102 N 121.204 0.198386 -1.56346 0
M  V30 1103 C 122.167 1.22952 -1.93431 0
M  V30 1104 C 123.167 1.38611 -0.815092 0
M  V30 1105 O 124.357 1.36479 -1.08255 0
M  V30 1106 C 121.489 2.59946 -2.20546 0
M  V30 1107 H 122.682 0.912626 -2.85677 0
M  V30 1108 H 120.235 0.43977 -1.49986 0
M  V30 1109 H 120.97 2.96696 -1.30927 0
M  V30 1110 H 120.755 2.49953 -3.02102 0
M  V30 1111 H 122.245 3.3431 -2.50253 0
M  V30 1112 N 122.682 1.50554 0.465978 0
M  V30 1113 C 123.645 1.69233 1.54574 0
M  V30 1114 C 124.645 0.562901 1.50626 0
M  V30 1115 O 125.835 0.830016 1.53155 0
M  V30 1116 C 122.967 1.7223 2.94193 0
M  V30 1117 H 124.16 2.65571 1.39327 0
M  V30 1118 H 121.713 1.40111 0.692711 0
M  V30 1119 H 122.448 0.77603 3.14878 0
M  V30 1120 H 122.233 2.54285 2.98466 0
M  V30 1121 H 123.723 1.88618 3.72576 0
M  V30 1122 N 124.16 -0.719506 1.40217 0
M  V30 1123 C 125.385 -1.51371 1.4178 0
M  V30 1124 C 125.81 -1.88091 0.0182355 0
M  V30 1125 O 125.168 -1.52997 -0.972707 0
M  V30 1126 C 125.216 -2.768 2.31115 0
M  V30 1127 O 124.32 -3.73349 1.7517 0
M  V30 1128 H 123.661 -0.456529 0.482159 0
M  V30 1129 H 126.191 -0.88644 1.844 0
M  V30 1130 H 126.201 -3.25371 2.46167 0
M  V30 1131 H 124.876 -2.49407 3.3282 0
M  V30 1132 H 123.453 -3.32179 1.69444 0
M  V30 1133 N 125.638 -1.25649 -0.95132 0
M  V30 1134 C 126.886 -1.10375 -1.69298 0
M  V30 1135 C 127.207 0.355339 -1.91735 0
M  V30 1136 O 126.477 1.25188 -1.50681 0
M  V30 1137 H 125.057 -0.405461 -0.627384 0
M  V30 1138 H 127.719 -1.57823 -1.14358 0
M  V30 1139 H 126.815 -1.61465 -2.67087 0
M  V30 1140 N 127.117 1.15442 -1.07289 0
M  V30 1141 C 128.366 1.85557 -0.790669 0
M  V30 1142 C 128.679 1.83186 0.685739 0
M  V30 1143 O 129.885 2.48977 1.0827 0
M  V30 1144 C 128.341 3.33038 -1.36433 0
M  V30 1145 C 127.949 3.43856 -2.8717 0
M  V30 1146 C 129.693 4.0834 -1.1601 0
M  V30 1147 C 127.6 4.85482 -3.3773 0
M  V30 1148 H 126.53 0.695122 -0.292098 0
M  V30 1149 H 129.181 1.30219 -1.29287 0
M  V30 1150 H 127.563 3.88043 -0.789864 0
M  V30 1151 H 128.737 2.98961 -3.50655 0
M  V30 1152 H 127.052 2.81998 -3.06376 0
M  V30 1153 H 129.649 5.12859 -1.51262 0
M  V30 1154 H 129.992 4.16182 -0.0991007 0
M  V30 1155 H 130.525 3.59603 -1.70089 0
M  V30 1156 H 127.264 4.82823 -4.43353 0
M  V30 1157 H 126.784 5.30961 -2.78999 0
M  V30 1158 H 128.463 5.54335 -3.33648 0
M  V30 1159 N 128.595 0.856903 1.32268 0
M  V30 1160 C 129.843 0.460474 1.96784 0
M  V30 1161 C 130.164 -0.987701 1.68135 0
M  V30 1162 O 129.434 -1.69058 0.989765 0
M  V30 1163 H 128.014 0.167289 0.728027 0
M  V30 1164 H 130.676 1.09383 1.61312 0
M  V30 1165 H 129.772 0.60739 3.06133 0
M  V30 1166 N 130.073 -1.45103 0.615059 0
M  V30 1167 C 131.021 -2.32331 -0.111791 0
M  V30 1168 C 132.015 -1.46409 -0.852102 0
M  V30 1169 O 133.221 -1.62849 -0.766821 0
M  V30 1170 H 129.596 -0.749993 -0.0549072 0
M  V30 1171 H 131.567 -2.91407 0.642225 0
M  V30 1172 C 130.316 -3.3015 -1.09071 0
M  V30 1173 H 129.639 -3.96265 -0.530485 0
M  V30 1174 H 131.079 -3.93898 -1.56908 0
M  V30 1175 C 129.538 -2.57875 -2.168 0
M  V30 1176 O 130.068 -2.36567 -3.24652 0
M  V30 1177 N 128.274 -2.17884 -1.92289 0
M  V30 1178 H 127.821 -2.35413 -1.04587 0
M  V30 1179 H 127.779 -1.6985 -2.64572 0
M  V30 1180 N 131.551 -0.354651 -1.53558 0
M  V30 1181 C 132.8 0.239504 -2.00273 0
M  V30 1182 C 133.113 1.50759 -1.24623 0
M  V30 1183 O 134.319 2.17968 -1.61871 0
M  V30 1184 C 132.775 0.477341 -3.5672 0
M  V30 1185 C 132.383 -0.775488 -4.41237 0
M  V30 1186 C 134.127 1.02975 -4.11821 0
M  V30 1187 C 132.034 -0.507838 -5.89216 0
M  V30 1188 H 130.964 0.0932743 -0.748208 0
M  V30 1189 H 133.615 -0.471701 -1.77334 0
M  V30 1190 H 131.997 1.24953 -3.7577 0
M  V30 1191 H 133.171 -1.54963 -4.33962 0
M  V30 1192 H 131.486 -1.25033 -3.97185 0
M  V30 1193 H 134.083 1.24513 -5.2 0
M  V30 1194 H 134.426 1.98862 -3.65731 0
M  V30 1195 H 134.959 0.317994 -3.96527 0
M  V30 1196 H 131.698 -1.43674 -6.39561 0
M  V30 1197 H 131.218 0.228011 -5.99366 0
M  V30 1198 H 132.897 -0.129238 -6.46871 0
M  V30 1199 N 133.029 1.57378 -0.0835403 0
M  V30 1200 C 134.275 1.94217 0.583733 0
M  V30 1201 C 134.608 0.964653 1.68547 0
M  V30 1202 O 133.883 -0.00422258 1.945 0
M  V30 1203 C 134.166 3.41253 1.14972 0
M  V30 1204 C 134.019 4.49768 0.0538277 0
M  V30 1205 C 135.338 3.89352 2.05166 0
M  V30 1206 H 132.457 0.706233 0.210724 0
M  V30 1207 H 135.099 1.89392 -0.1519 0
M  V30 1208 H 133.249 3.45496 1.77665 0
M  V30 1209 H 134.921 4.57641 -0.579851 0
M  V30 1210 H 133.164 4.29432 -0.614068 0
M  V30 1211 H 133.835 5.49817 0.490452 0
M  V30 1212 H 136.311 3.87189 1.52393 0
M  V30 1213 H 135.187 4.92822 2.41698 0
M  V30 1214 H 135.448 3.27973 2.96456 0
M  V30 1215 N 134.507 -0.190092 1.56449 0
M  V30 1216 C 135.755 -0.907908 1.80559 0
M  V30 1217 C 136.076 -1.83583 0.657438 0
M  V30 1218 O 135.346 -1.93203 -0.323924 0
M  V30 1219 H 133.926 -0.338247 0.666032 0
M  V30 1220 H 136.588 -0.194403 1.93928 0
M  V30 1221 H 135.684 -1.49604 2.73907 0
M  V30 1222 N 135.985 -1.50799 -0.457987 0
M  V30 1223 C 137.233 -1.62121 -1.2067 0
M  V30 1224 C 137.554 -0.329793 -1.92191 0
M  V30 1225 O 136.824 0.653409 -1.84682 0
M  V30 1226 H 135.404 -0.597441 -0.448411 0
M  V30 1227 H 138.066 -1.87637 -0.527096 0
M  V30 1228 H 137.162 -2.43882 -1.94751 0
M  V30 1229 N 137.463 0.71206 -1.40597 0
M  V30 1230 C 138.426 1.80785 -1.40888 0
M  V30 1231 C 139.426 1.57937 -0.302103 0
M  V30 1232 O 140.616 1.64913 -0.561182 0
M  V30 1233 C 137.748 3.18927 -1.20409 0
M  V30 1234 H 138.941 1.81924 -2.38419 0
M  V30 1235 H 136.494 0.91805 -1.26497 0
M  V30 1236 H 137.229 3.23436 -0.236522 0
M  V30 1237 H 137.014 3.36911 -2.00582 0
M  V30 1238 H 138.504 3.98949 -1.23408 0
M  V30 1239 N 138.941 1.26152 0.944643 0
M  V30 1240 C 139.904 1.07474 2.0244 0
M  V30 1241 C 140.904 0.0242064 1.60782 0
M  V30 1242 O 142.094 0.267302 1.72137 0
M  V30 1243 C 139.226 0.633956 3.34953 0
M  V30 1244 H 140.419 2.03336 2.20442 0
M  V30 1245 H 137.972 1.087 1.12312 0
M  V30 1246 H 138.707 -0.326811 3.22649 0
M  V30 1247 H 138.492 1.39247 3.66542 0
M  V30 1248 H 139.982 0.52501 4.14287 0
M  V30 1249 N 140.419 -1.14872 1.07899 0
M  V30 1250 C 141.644 -1.90202 0.826926 0
M  V30 1251 C 142.069 -1.77774 -0.614664 0
M  V30 1252 O 141.427 -1.11431 -1.43013 0
M  V30 1253 C 141.475 -3.38352 1.24702 0
M  V30 1254 O 140.579 -4.10497 0.39575 0
M  V30 1255 H 139.92 -0.591968 0.300782 0
M  V30 1256 H 142.45 -1.45437 1.43907 0
M  V30 1257 H 142.46 -3.89156 1.22563 0
M  V30 1258 H 141.135 -3.46715 2.29698 0
M  V30 1259 H 139.712 -3.69796 0.480117 0
M  V30 1260 N 141.898 -0.863906 -1.31812 0
M  V30 1261 C 143.146 -0.470904 -1.96537 0
M  V30 1262 C 143.467 0.978771 -1.68657 0
M  V30 1263 O 142.737 1.6853 -0.998717 0
M  V30 1264 H 141.317 -0.171148 -0.72713 0
M  V30 1265 H 143.979 -1.10236 -1.60729 0
M  V30 1266 H 143.075 -0.623616 -3.05806 0
M  V30 1267 N 143.376 1.44774 -0.622745 0
M  V30 1268 C 144.625 2.01334 -0.121397 0
M  V30 1269 C 144.938 1.49505 1.26125 0
M  V30 1270 O 146.144 1.98139 1.85616 0
M  V30 1271 C 144.6 3.59516 -0.166298 0
M  V30 1272 C 144.208 4.20342 -1.54974 0
M  V30 1273 C 145.952 4.23582 0.279021 0
M  V30 1274 C 143.859 5.70721 -1.55021 0
M  V30 1275 H 142.789 0.752851 -0.0416172 0
M  V30 1276 H 145.44 1.66083 -0.780309 0
M  V30 1277 H 143.822 3.92027 0.559557 0
M  V30 1278 H 144.996 3.99381 -2.29851 0
M  V30 1279 H 143.311 3.68529 -1.93843 0
M  V30 1280 H 145.908 5.33868 0.298083 0
M  V30 1281 H 146.251 3.95327 1.30471 0
M  V30 1282 H 146.784 3.95843 -0.394063 0
M  V30 1283 H 143.523 6.03698 -2.55399 0
M  V30 1284 H 143.043 5.93829 -0.844245 0
M  V30 1285 H 144.722 6.34203 -1.28047 0
M  V30 1286 N 144.854 0.36279 1.53368 0
M  V30 1287 C 146.102 -0.227326 2.00817 0
M  V30 1288 C 146.423 -1.49511 1.25186 0
M  V30 1289 O 145.693 -1.92482 0.364348 0
M  V30 1290 H 144.273 -0.0869923 0.741917 0
M  V30 1291 H 146.935 0.488381 1.88682 0
M  V30 1292 H 146.031 -0.456273 3.08747 0
M  V30 1293 N 146.332 -1.57332 0.0918853 0
M  V30 1294 C 147.557 -1.98995 -0.584442 0
M  V30 1295 C 147.982 -0.970528 -1.61128 0
M  V30 1296 O 147.34 0.0613904 -1.81196 0
M  V30 1297 C 147.388 -3.39636 -1.21161 0
M  V30 1298 O 146.492 -3.40447 -2.32744 0
M  V30 1299 H 145.833 -0.647165 -0.148572 0
M  V30 1300 H 148.363 -2.03873 0.172347 0
M  V30 1301 H 148.373 -3.7726 -1.55367 0
M  V30 1302 H 147.048 -4.13356 -0.459313 0
M  V30 1303 H 145.625 -3.14614 -2.0018 0
M  V30 1304 N 147.81 0.181792 -1.56548 0
M  V30 1305 C 148.74 1.22765 -1.98623 0
M  V30 1306 C 149.721 1.46747 -0.860189 0
M  V30 1307 O 150.906 1.58259 -1.12551 0
M  V30 1308 C 148.036 2.56894 -2.33715 0
M  V30 1309 C 146.99 2.475 -3.49182 0
M  V30 1310 C 146.316 3.86023 -3.69986 0
M  V30 1311 C 147.616 1.98866 -4.82959 0
M  V30 1312 H 149.31 0.877942 -2.86239 0
M  V30 1313 H 146.856 0.42088 -1.37712 0
M  V30 1314 H 148.809 3.30253 -2.61746 0
M  V30 1315 H 147.533 2.93632 -1.42997 0
M  V30 1316 H 146.192 1.76596 -3.21262 0
M  V30 1317 H 145.84 4.20136 -2.76576 0
M  V30 1318 H 145.54 3.80609 -4.47672 0
M  V30 1319 H 147.064 4.60984 -4.00407 0
M  V30 1320 H 148.478 2.61992 -5.09934 0
M  V30 1321 H 146.875 2.04424 -5.64208 0
M  V30 1322 H 147.945 0.942465 -4.75653 0
M  V30 1323 N 149.288 1.51039 0.449983 0
M  V30 1324 C 150.534 1.63322 1.20223 0
M  V30 1325 C 150.867 0.34241 1.91158 0
M  V30 1326 O 150.142 -0.657344 1.83055 0
M  V30 1327 C 150.425 2.82801 2.22925 0
M  V30 1328 C 150.278 4.21823 1.56157 0
M  V30 1329 C 151.597 2.97807 3.24035 0
M  V30 1330 H 148.716 0.594407 0.435718 0
M  V30 1331 H 151.358 1.83489 0.493136 0
M  V30 1332 H 149.508 2.65738 2.834 0
M  V30 1333 H 151.18 4.50526 0.991162 0
M  V30 1334 H 149.423 4.25105 0.864172 0
M  V30 1335 H 150.094 5.01391 2.30891 0
M  V30 1336 H 152.57 3.13497 2.73603 0
M  V30 1337 H 151.446 3.82992 3.93202 0
M  V30 1338 H 151.707 2.09328 3.89402 0
M  V30 1339 N 150.766 -0.704594 1.40972 0
M  V30 1340 C 152.014 -1.46169 1.39568 0
M  V30 1341 C 152.335 -1.95 0.00253745 0
M  V30 1342 O 151.605 -1.71095 -0.954114 0
M  V30 1343 H 150.185 -0.542326 0.513704 0
M  V30 1344 H 152.847 -0.834553 1.76128 0
M  V30 1345 H 151.943 -2.32922 2.07735 0
M  V30 1346 N 152.244 -1.26651 -0.937939 0
M  V30 1347 C 153.521 -1.0313 -1.66204 0
M  V30 1348 C 153.901 0.437256 -2.06522 0
M  V30 1349 O 153.249 1.41831 -1.79154 0
M  V30 1350 C 153.459 -1.98314 -2.87181 0
M  V30 1351 C 154.807 -2.27107 -3.58758 0
M  V30 1352 O 155.831 -1.96205 -2.97291 0
M  V30 1353 O 154.69 -2.79736 -4.69479 0
M  V30 1354 H 151.784 -0.392384 -0.727986 0
M  V30 1355 H 154.33 -1.37874 -0.989382 0
M  V30 1356 H 153.102 -2.97399 -2.54302 0
M  V30 1357 H 152.725 -1.64068 -3.6217 0
M  V30 1358 N 153.722 1.14298 -1.08507 0
M  V30 1359 C 154.685 2.17607 -0.719711 0
M  V30 1360 C 155.685 1.58907 0.245997 0
M  V30 1361 O 156.875 1.74181 0.0254081 0
M  V30 1362 C 154.007 3.40842 -0.0627695 0
M  V30 1363 H 155.2 2.51443 -1.63452 0
M  V30 1364 H 152.753 1.28963 -0.88307 0
M  V30 1365 H 153.488 3.12587 0.863716 0
M  V30 1366 H 153.273 3.84713 -0.757504 0
M  V30 1367 H 154.763 4.17221 0.177786 0
M  V30 1368 N 155.201 0.870884 1.31352 0
M  V30 1369 C 156.164 0.332243 2.26779 0
M  V30 1370 C 157.164 -0.517302 1.52252 0
M  V30 1371 O 158.354 -0.326477 1.71113 0
M  V30 1372 C 155.486 -0.528066 3.36785 0
M  V30 1373 H 156.679 1.17469 2.75937 0
M  V30 1374 H 154.232 0.64655 1.423 0
M  V30 1375 H 154.967 -1.39167 2.92922 0
M  V30 1376 H 154.752 0.0802582 3.92018 0
M  V30 1377 H 156.242 -0.897179 4.07849 0
M  V30 1378 N 156.679 -1.44442 0.630414 0
M  V30 1379 C 157.904 -2.06927 0.139944 0
M  V30 1380 C 158.329 -1.46795 -1.17613 0
M  V30 1381 O 157.687 -0.569144 -1.72135 0
M  V30 1382 C 157.735 -3.6058 0.0379581 0
M  V30 1383 O 156.839 -3.99937 -1.0062 0
M  V30 1384 H 156.18 -0.658608 0.0844483 0
M  V30 1385 H 158.71 -1.85327 0.866891 0
M  V30 1386 H 158.72 -4.07714 -0.152856 0
M  V30 1387 H 157.395 -4.03728 0.998809 0
M  V30 1388 H 155.972 -3.64436 -0.79001 0
M  V30 1389 N 158.157 -0.370918 -1.53173 0
M  V30 1390 C 159.405 0.216673 -2.00935 0
M  V30 1391 C 159.726 1.48845 -1.25977 0
M  V30 1392 O 158.996 1.92286 -0.374551 0
M  V30 1393 H 157.576 0.0830565 -0.742368 0
M  V30 1394 H 160.238 -0.49838 -1.8842 0
M  V30 1395 H 159.334 0.439893 -3.08984 0
M  V30 1396 N 159.635 1.57281 -0.100228 0
M  V30 1397 C 160.565 2.17328 0.853857 0
M  V30 1398 C 161.546 1.10804 1.2906 0
M  V30 1399 O 162.731 1.38963 1.35657 0
M  V30 1400 C 159.861 2.75772 2.11109 0
M  V30 1401 C 158.815 3.87713 1.81279 0
M  V30 1402 C 158.141 4.32882 3.13874 0
M  V30 1403 C 159.441 5.10677 1.09574 0
M  V30 1404 H 161.135 2.97305 0.353545 0
M  V30 1405 H 158.681 1.43009 0.168612 0
M  V30 1406 H 160.634 3.16433 2.78296 0
M  V30 1407 H 159.358 1.93057 2.63432 0
M  V30 1408 H 158.017 3.476 1.16489 0
M  V30 1409 H 157.665 3.47051 3.64095 0
M  V30 1410 H 157.365 5.08358 2.94696 0
M  V30 1411 H 158.889 4.7618 3.82211 0
M  V30 1412 H 160.303 5.48474 1.66879 0
M  V30 1413 H 158.7 5.91615 1.00557 0
M  V30 1414 H 159.77 4.84835 0.0793299 0
M  V30 1415 N 161.113 -0.173488 1.56642 0
M  V30 1416 C 162.361 -0.888706 1.81512 0
M  V30 1417 C 162.682 -1.82875 0.676872 0
M  V30 1418 O 161.952 -1.93536 -0.303414 0
M  V30 1419 H 160.532 -0.331164 0.669582 0
M  V30 1420 H 163.194 -0.173823 1.94123 0
M  V30 1421 H 162.29 -1.46691 2.75478 0
M  V30 1422 N 162.591 -1.51276 -0.441967 0
M  V30 1423 C 163.539 -1.72823 -1.55676 0
M  V30 1424 C 164.533 -0.59445 -1.58627 0
M  V30 1425 O 165.739 -0.775715 -1.62427 0
M  V30 1426 H 162.114 -0.545983 -0.517113 0
M  V30 1427 H 164.085 -2.6628 -1.34675 0
M  V30 1428 C 162.834 -1.86619 -2.93375 0
M  V30 1429 H 162.157 -2.73264 -2.91834 0
M  V30 1430 H 163.597 -2.05709 -3.70756 0
M  V30 1431 C 162.056 -0.624842 -3.31055 0
M  V30 1432 O 162.586 0.222636 -4.01083 0
M  V30 1433 N 160.792 -0.470288 -2.86769 0
M  V30 1434 H 160.339 -1.161 -2.29953 0
M  V30 1435 H 160.297 0.359051 -3.12343 0
M  V30 1436 N 164.069 0.697108 -1.41344 0
M  V30 1437 C 164.999 1.82353 -1.45841 0
M  V30 1438 C 165.98 1.67115 -0.317247 0
M  V30 1439 O 167.165 1.86871 -0.528474 0
M  V30 1440 C 164.295 3.20476 -1.33838 0
M  V30 1441 C 163.249 3.50415 -2.4575 0
M  V30 1442 C 162.575 4.87878 -2.18813 0
M  V30 1443 C 163.875 3.49546 -3.88091 0
M  V30 1444 H 165.569 1.78846 -2.40113 0
M  V30 1445 H 163.115 0.859028 -1.15571 0
M  V30 1446 H 165.068 3.98988 -1.35596 0
M  V30 1447 H 163.792 3.24604 -0.360498 0
M  V30 1448 H 162.451 2.74253 -2.43271 0
M  V30 1449 H 162.099 4.8863 -1.19371 0
M  V30 1450 H 161.799 5.08875 -2.93803 0
M  V30 1451 H 163.323 5.68702 -2.22284 0
M  V30 1452 H 164.737 4.18066 -3.92293 0
M  V30 1453 H 163.134 3.82075 -4.62751 0
M  V30 1454 H 164.204 2.48552 -4.16353 0
M  V30 1455 N 165.547 1.27147 0.931209 0
M  V30 1456 C 166.793 1.13446 1.68101 0
M  V30 1457 C 167.126 -0.319628 1.91552 0
M  V30 1458 O 166.401 -1.23407 1.50336 0
M  V30 1459 C 166.684 1.91482 3.0497 0
M  V30 1460 C 166.537 3.44855 2.88782 0
M  V30 1461 C 167.856 1.71651 4.05246 0
M  V30 1462 H 164.975 0.413498 0.610072 0
M  V30 1463 H 167.617 1.56261 1.08086 0
M  V30 1464 H 165.767 1.55095 3.56199 0
M  V30 1465 H 167.439 3.9105 2.44698 0
M  V30 1466 H 165.682 3.71373 2.24198 0
M  V30 1467 H 166.353 3.94694 3.85902 0
M  V30 1468 H 168.829 2.0337 3.63015 0
M  V30 1469 H 167.705 2.28651 4.99009 0
M  V30 1470 H 167.966 0.663555 4.37092 0
M  V30 1471 N 167.025 -1.13721 1.09112 0
M  V30 1472 C 168.273 -1.84559 0.823562 0
M  V30 1473 C 168.594 -1.83754 -0.652658 0
M  V30 1474 O 167.864 -1.29102 -1.47342 0
M  V30 1475 H 166.444 -0.683376 0.301673 0
M  V30 1476 H 169.106 -1.37771 1.37859 0
M  V30 1477 H 168.202 -2.8917 1.17419 0
M  V30 1478 N 168.503 -0.877838 -1.30888 0
M  V30 1479 C 169.78 -0.413052 -1.91189 0
M  V30 1480 C 170.16 1.1056 -1.79832 0
M  V30 1481 O 169.508 1.93771 -1.21099 0
M  V30 1482 C 169.718 -0.903191 -3.3711 0
M  V30 1483 C 171.066 -0.93395 -4.14201 0
M  V30 1484 O 172.09 -0.849373 -3.45925 0
M  V30 1485 O 170.949 -1.05772 -5.36167 0
M  V30 1486 H 168.043 -0.125035 -0.817493 0
M  V30 1487 H 170.589 -0.966269 -1.39504 0
M  V30 1488 H 169.361 -1.94692 -3.39427 0
M  V30 1489 H 168.984 -0.328732 -3.96239 0
M  V30 1490 N 169.982 1.44106 -0.638065 0
M  V30 1491 C 170.945 2.29138 0.0531013 0
M  V30 1492 C 171.945 1.41409 0.765506 0
M  V30 1493 O 173.135 1.63206 0.609046 0
M  V30 1494 C 170.267 3.23144 1.08584 0
M  V30 1495 H 171.46 2.91739 -0.694883 0
M  V30 1496 H 169.013 1.51134 -0.398538 0
M  V30 1497 H 169.748 2.65408 1.86357 0
M  V30 1498 H 169.533 3.87804 0.578852 0
M  V30 1499 H 171.023 3.87004 1.56899 0
M  V30 1500 N 171.46 0.379036 1.52974 0
M  V30 1501 C 172.423 -0.448865 2.24762 0
M  V30 1502 C 173.423 -0.998689 1.26027 0
M  V30 1503 O 174.613 -0.882313 1.50203 0
M  V30 1504 C 171.745 -1.62872 2.99476 0
M  V30 1505 H 172.938 0.179491 2.99362 0
M  V30 1506 H 170.491 0.13096 1.5575 0
M  V30 1507 H 171.226 -2.29479 2.29151 0
M  V30 1508 H 171.011 -1.24128 3.71934 0
M  V30 1509 H 172.501 -2.2151 3.5401 0
M  V30 1510 N 172.938 -1.57226 0.108567 0
M  V30 1511 C 173.848 -2.18292 -0.859401 0
M  V30 1512 C 174.864 -1.15612 -1.30038 0
M  V30 1513 O 176.04 -1.48039 -1.36552 0
M  V30 1514 C 173.105 -2.762 -2.09558 0
M  V30 1515 C 172.166 -3.93881 -1.70752 0
M  V30 1516 C 171.399 -4.49018 -2.88477 0
M  V30 1517 O 171.622 -4.03068 -4.036 0
M  V30 1518 O 170.556 -5.39852 -2.66164 0
M  V30 1519 H 174.382 -3.01441 -0.369769 0
M  V30 1520 H 171.967 -1.48945 -0.1165 0
M  V30 1521 H 173.849 -3.13156 -2.81978 0
M  V30 1522 H 172.524 -1.96089 -2.57548 0
M  V30 1523 H 171.431 -3.61713 -0.954714 0
M  V30 1524 H 172.764 -4.75396 -1.27513 0
M  V30 1525 N 174.416 0.165178 -1.56732 0
M  V30 1526 C 175.379 1.18822 -1.95995 0
M  V30 1527 C 176.379 1.3685 -0.84431 0
M  V30 1528 O 177.569 1.34152 -1.11126 0
M  V30 1529 C 174.701 2.5521 -2.26011 0
M  V30 1530 H 175.894 0.851825 -2.87548 0
M  V30 1531 H 173.447 0.407857 -1.50885 0
M  V30 1532 H 174.182 2.93852 -1.37191 0
M  V30 1533 H 173.967 2.43489 -3.07336 0
M  V30 1534 H 175.457 3.28927 -2.57288 0
M  V30 1535 N 175.894 1.51508 0.433938 0
M  V30 1536 C 176.824 1.76016 1.53429 0
M  V30 1537 C 177.805 0.610112 1.58782 0
M  V30 1538 O 178.99 0.853177 1.74455 0
M  V30 1539 C 176.12 1.88831 2.9148 0
M  V30 1540 C 175.074 3.04288 3.00987 0
M  V30 1541 C 174.4 3.0229 4.4105 0
M  V30 1542 C 175.7 4.44193 2.74754 0
M  V30 1543 H 177.394 2.68152 1.33171 0
M  V30 1544 H 174.94 1.29035 0.639214 0
M  V30 1545 H 176.893 2.04559 3.6842 0
M  V30 1546 H 175.617 0.933455 3.12976 0
M  V30 1547 H 174.276 2.8827 2.26486 0
M  V30 1548 H 173.924 2.04576 4.59519 0
M  V30 1549 H 173.624 3.79822 4.4834 0
M  V30 1550 H 175.148 3.20116 5.1996 0
M  V30 1551 H 176.562 4.60544 3.41426 0
M  V30 1552 H 174.959 5.23457 2.9345 0
M  V30 1553 H 176.029 4.53996 1.70339 0
M  V30 1554 N 177.372 -0.689602 1.41712 0
M  V30 1555 C 178.335 -1.78521 1.43746 0
M  V30 1556 C 179.335 -1.57436 0.327191 0
M  V30 1557 O 180.525 -1.64 0.587348 0
M  V30 1558 C 177.657 -3.16971 1.25467 0
M  V30 1559 H 178.85 -1.78108 2.41283 0
M  V30 1560 H 176.403 -0.89781 1.27942 0
M  V30 1561 H 177.138 -3.23019 0.287948 0
M  V30 1562 H 176.923 -3.33678 2.05917 0
M  V30 1563 H 178.413 -3.96935 1.2974 0
M  V30 1564 N 178.85 -1.27639 -0.924453 0
M  V30 1565 C 180.078 -1.16989 -1.70649 0
M  V30 1566 C 180.493 0.272869 -1.86818 0
M  V30 1567 O 179.85 1.18549 -1.38753 0
M  V30 1568 C 179.901 -1.85229 -3.10439 0
M  V30 1569 O 179.622 -3.23868 -2.95028 0
M  V30 1570 C 181.123 -1.80746 -4.04779 0
M  V30 1571 H 178.343 -0.406595 -0.53378 0
M  V30 1572 H 180.887 -1.68569 -1.15778 0
M  V30 1573 H 179.042 -1.37545 -3.6216 0
M  V30 1574 H 179.456 -3.57889 -3.83426 0
M  V30 1575 H 180.93 -2.33101 -5.00368 0
M  V30 1576 H 181.407 -0.777499 -4.32263 0
M  V30 1577 H 182.013 -2.28059 -3.58984 0
M  V30 1578 N 180.328 1.1314 -1.09713 0
M  V30 1579 C 181.556 1.88321 -0.856898 0
M  V30 1580 C 181.971 1.79276 0.592073 0
M  V30 1581 O 181.328 1.16142 1.40774 0
M  V30 1582 C 181.379 3.37812 -1.28706 0
M  V30 1583 O 181.1 3.46627 -2.67921 0
M  V30 1584 C 182.601 4.29952 -1.07964 0
M  V30 1585 H 179.821 0.596094 -0.308079 0
M  V30 1586 H 182.365 1.43205 -1.45988 0
M  V30 1587 H 180.52 3.805 -0.727912 0
M  V30 1588 H 180.934 4.39579 -2.8613 0
M  V30 1589 H 182.408 5.33159 -1.42986 0
M  V30 1590 H 182.885 4.39196 -0.0176577 0
M  V30 1591 H 183.491 3.93036 -1.62489 0
M  V30 1592 N 181.806 0.884767 1.30421 0
M  V30 1593 C 182.716 0.355398 2.31892 0
M  V30 1594 C 183.732 -0.542261 1.65335 0
M  V30 1595 O 184.908 -0.435432 1.96637 0
M  V30 1596 C 181.973 -0.421661 3.44126 0
M  V30 1597 C 181.034 0.505727 4.26311 0
M  V30 1598 C 180.267 -0.234343 5.33185 0
M  V30 1599 O 180.49 -1.46045 5.51386 0
M  V30 1600 O 179.424 0.415443 6.00465 0
M  V30 1601 H 183.25 1.19685 2.79122 0
M  V30 1602 H 180.835 0.648596 1.34587 0
M  V30 1603 H 182.717 -0.861641 4.12497 0
M  V30 1604 H 181.392 -1.23942 2.99032 0
M  V30 1605 H 180.299 0.994513 3.60639 0
M  V30 1606 H 181.632 1.28948 4.75009 0
M  V30 1607 N 183.284 -1.43765 0.645699 0
M  V30 1608 C 184.214 -2.33471 -0.0370477 0
M  V30 1609 C 185.195 -1.49042 -0.819779 0
M  V30 1610 O 186.38 -1.77726 -0.782758 0
M  V30 1611 C 183.51 -3.32311 -1.0093 0
M  V30 1612 C 182.464 -4.2667 -0.337201 0
M  V30 1613 C 181.79 -5.1549 -1.42037 0
M  V30 1614 C 183.09 -5.16657 0.765706 0
M  V30 1615 H 184.784 -2.90809 0.712069 0
M  V30 1616 H 182.33 -1.39834 0.343876 0
M  V30 1617 H 184.283 -3.9396 -1.49578 0
M  V30 1618 H 183.007 -2.73213 -1.78948 0
M  V30 1619 H 181.666 -3.66374 0.128771 0
M  V30 1620 H 181.314 -4.52735 -2.1918 0
M  V30 1621 H 181.014 -5.79438 -0.975966 0
M  V30 1622 H 182.538 -5.80012 -1.90838 0
M  V30 1623 H 183.952 -5.72158 0.361702 0
M  V30 1624 H 182.349 -5.89286 1.13413 0
M  V30 1625 H 183.419 -4.56796 1.62683 0
M  V30 1626 N 184.763 -0.387143 -1.52771 0
M  V30 1627 C 185.71 0.449048 -2.26389 0
M  V30 1628 C 186.68 1.05961 -1.27912 0
M  V30 1629 O 187.865 1.08804 -1.56737 0
M  V30 1630 C 185.005 1.57155 -3.0724 0
M  V30 1631 C 184.118 0.984066 -4.20643 0
M  V30 1632 C 183.253 2.07745 -4.88892 0
M  V30 1633 C 182.292 1.46574 -5.94292 0
M  V30 1634 N 181.429 2.49834 -6.56146 0
M  V30 1635 H 186.269 -0.185205 -2.97424 0
M  V30 1636 H 183.806 -0.103164 -1.46738 0
M  V30 1637 H 185.764 2.23309 -3.52405 0
M  V30 1638 H 184.394 2.17615 -2.38419 0
M  V30 1639 H 183.446 0.212193 -3.79808 0
M  V30 1640 H 184.758 0.497029 -4.96318 0
M  V30 1641 H 183.912 2.81673 -5.3735 0
M  V30 1642 H 182.651 2.59807 -4.12737 0
M  V30 1643 H 181.656 0.711696 -5.45174 0
M  V30 1644 H 182.881 0.953088 -6.72379 0
M  V30 1645 H 180.827 3.0107 -5.82832 0
M  V30 1646 H 180.744 2.05879 -7.27427 0
M  V30 1647 H 182.012 3.23399 -7.09249 0
M  V30 1648 N 186.241 1.57166 -0.116904 0
M  V30 1649 C 187.518 1.86645 0.585049 0
M  V30 1650 C 187.898 1.0177 1.84949 0
M  V30 1651 O 187.246 0.0960379 2.28298 0
M  V30 1652 C 187.456 3.37736 0.879507 0
M  V30 1653 C 188.804 4.06289 1.23348 0
M  V30 1654 O 189.828 3.42743 0.969836 0
M  V30 1655 O 188.687 5.18455 1.7282 0
M  V30 1656 H 185.781 0.772593 0.295007 0
M  V30 1657 H 188.327 1.69025 -0.151249 0
M  V30 1658 H 187.099 3.91296 -0.0166136 0
M  V30 1659 H 186.722 3.6078 1.67103 0
M  V30 1660 N 187.719 -0.156864 1.56817 0
M  V30 1661 C 188.965 -0.872416 1.83076 0
M  V30 1662 C 189.298 -1.81261 0.697001 0
M  V30 1663 O 188.573 -1.92171 -0.30008 0
M  V30 1664 C 188.856 -1.65551 3.19789 0
M  V30 1665 C 188.709 -0.737467 4.43713 0
M  V30 1666 C 190.028 -2.62012 3.53606 0
M  V30 1667 H 187.147 -0.315715 0.665953 0
M  V30 1668 H 189.789 -0.138004 1.89498 0
M  V30 1669 H 187.939 -2.28159 3.14445 0
M  V30 1670 H 189.611 -0.123143 4.61136 0
M  V30 1671 H 187.854 -0.0464067 4.33775 0
M  V30 1672 H 188.525 -1.32122 5.35955 0
M  V30 1673 H 191.001 -2.09525 3.59497 0
M  V30 1674 H 189.877 -3.13861 4.50314 0
M  V30 1675 H 190.138 -3.42902 2.79053 0
M  V30 1676 N 189.197 -1.51736 -0.425897 0
M  V30 1677 C 190.446 -1.64201 -1.17136 0
M  V30 1678 C 190.759 -0.369705 -1.92074 0
M  V30 1679 O 191.965 -0.373898 -2.68913 0
M  V30 1680 C 190.421 -2.90035 -2.13091 0
M  V30 1681 C 190.029 -4.24312 -1.43747 0
M  V30 1682 C 191.773 -3.1186 -2.87999 0
M  V30 1683 C 189.68 -5.41285 -2.38253 0
M  V30 1684 H 188.61 -0.611624 -0.440944 0
M  V30 1685 H 191.261 -1.78212 -0.437328 0
M  V30 1686 H 189.643 -2.69684 -2.89977 0
M  V30 1687 H 190.817 -4.55086 -0.723408 0
M  V30 1688 H 189.132 -4.08456 -0.809465 0
M  V30 1689 H 191.729 -3.96427 -3.58817 0
M  V30 1690 H 192.072 -2.25403 -3.49999 0
M  V30 1691 H 192.605 -3.32605 -2.18217 0
M  V30 1692 H 189.344 -6.30037 -1.80925 0
M  V30 1693 H 188.864 -5.14872 -3.0768 0
M  V30 1694 H 190.543 -5.73694 -2.99139 0
M  V30 1695 N 190.675 0.682077 -1.42076 0
M  V30 1696 C 192.086 1.26246 -1.37546 0
M  V30 1697 C 192.437 1.96092 -0.0651481 0
M  V30 1698 O 191.562 1.99587 0.836297 0
M  V30 1699 C 192.157 2.29594 -2.49143 0
M  V30 1700 C 190.716 2.83175 -2.47969 0
M  V30 1701 C 189.863 1.57395 -2.28303 0
M  V30 1702 H 192.814 0.475937 -1.51395 0
M  V30 1703 H 192.835 3.11175 -2.18976 0
M  V30 1704 H 192.347 1.78729 -3.44496 0
M  V30 1705 H 190.448 3.3818 -1.56413 0
M  V30 1706 H 190.561 3.32687 -3.44755 0
M  V30 1707 H 188.925 1.83699 -1.76428 0
M  V30 1708 H 189.708 1.08507 -3.25701 0
M  V30 1709 N 192.153 1.28127 0.917671 0
M  V30 1710 C 193.063 1.13556 2.05286 0
M  V30 1711 C 194.079 0.0630914 1.73886 0
M  V30 1712 O 195.255 0.271598 1.9956 0
M  V30 1713 C 192.32 0.794676 3.3747 0
M  V30 1714 C 191.381 1.94909 3.82504 0
M  V30 1715 C 190.614 1.62437 5.0838 0
M  V30 1716 O 190.837 0.536905 5.67867 0
M  V30 1717 O 189.771 2.46677 5.4903 0
M  V30 1718 H 193.597 2.08844 2.20495 0
M  V30 1719 H 191.182 1.07409 1.03845 0
M  V30 1720 H 193.064 0.618344 4.16839 0
M  V30 1721 H 191.739 -0.128581 3.23445 0
M  V30 1722 H 190.646 2.18055 3.03978 0
M  V30 1723 H 191.979 2.85291 4.01086 0
M  V30 1724 N 193.631 -1.12557 1.10312 0
M  V30 1725 C 194.579 -2.20325 0.745629 0
M  V30 1726 C 195.573 -1.67429 -0.25763 0
M  V30 1727 O 196.779 -1.79612 -0.118132 0
M  V30 1728 H 193.154 -0.718118 0.223182 0
M  V30 1729 H 195.125 -2.47733 1.66346 0
M  V30 1730 C 193.874 -3.47168 0.192262 0
M  V30 1731 H 193.197 -3.88215 0.955475 0
M  V30 1732 H 194.637 -4.23995 -0.0198274 0
M  V30 1733 C 193.096 -3.19298 -1.07472 0
M  V30 1734 O 193.626 -3.3891 -2.15645 0
M  V30 1735 N 191.832 -2.73113 -0.992847 0
M  V30 1736 H 191.379 -2.57354 -0.112474 0
M  V30 1737 H 191.337 -2.54842 -1.84127 0
M  V30 1738 N 195.109 -0.891671 -1.2995 0
M  V30 1739 C 196.337 -0.52866 -2.00032 0
M  V30 1740 C 196.752 0.884574 -1.66795 0
M  V30 1741 O 196.109 1.5827 -0.908669 0
M  V30 1742 C 196.16 -0.701814 -3.54622 0
M  V30 1743 O 195.881 -2.05942 -3.86678 0
M  V30 1744 C 197.382 -0.342683 -4.41973 0
M  V30 1745 H 194.602 -0.203659 -0.639347 0
M  V30 1746 H 197.146 -1.19881 -1.65677 0
M  V30 1747 H 195.301 -0.0789468 -3.8732 0
M  V30 1748 H 195.715 -2.08291 -4.81368 0
M  V30 1749 H 197.189 -0.514709 -5.49595 0
M  V30 1750 H 197.666 0.71975 -4.33262 0
M  V30 1751 H 198.272 -0.942154 -4.14733 0
M  V30 1752 N 196.587 1.43421 -0.653314 0
M  V30 1753 C 197.497 2.34568 0.0388565 0
M  V30 1754 C 198.513 1.53888 0.81207 0
M  V30 1755 O 199.689 1.86539 0.759294 0
M  V30 1756 C 196.754 3.32167 0.993269 0
M  V30 1757 C 195.815 4.28751 0.216977 0
M  V30 1758 C 195.048 5.21688 1.12593 0
M  V30 1759 O 195.271 5.19052 2.36519 0
M  V30 1760 O 194.205 5.98919 0.598284 0
M  V30 1761 H 198.031 2.95251 -0.711386 0
M  V30 1762 H 195.616 1.43564 -0.413502 0
M  V30 1763 H 197.498 3.92183 1.54176 0
M  V30 1764 H 196.173 2.73987 1.72374 0
M  V30 1765 H 195.08 3.72215 -0.375101 0
M  V30 1766 H 196.413 4.89913 -0.473924 0
M  V30 1767 N 198.065 0.39524 1.52563 0
M  V30 1768 C 199.29 -0.187456 2.06551 0
M  V30 1769 C 199.715 -1.39249 1.26457 0
M  V30 1770 O 199.073 -1.78947 0.291151 0
M  V30 1771 C 199.121 -0.529985 3.56684 0
M  V30 1772 O 198.225 -1.62307 3.79118 0
M  V30 1773 H 197.566 -0.0202537 0.663691 0
M  V30 1774 H 200.096 0.564426 1.96661 0
M  V30 1775 H 200.106 -0.792598 4.00227 0
M  V30 1776 H 198.781 0.350987 4.14416 0
M  V30 1777 H 197.358 -1.3537 3.47461 0
M  V30 1778 N 199.544 -1.57102 0.125237 0
M  V30 1779 C 200.772 -1.99761 -0.538797 0
M  V30 1780 C 201.187 -1.00503 -1.59827 0
M  V30 1781 O 200.544 0.00119474 -1.825 0
M  V30 1782 C 200.595 -3.42408 -1.15927 0
M  V30 1783 O 200.316 -4.37869 -0.142143 0
M  V30 1784 C 201.817 -4.00232 -1.90602 0
M  V30 1785 H 199.037 -0.655772 -0.14214 0
M  V30 1786 H 201.581 -2.03383 0.213413 0
M  V30 1787 H 199.736 -3.39706 -1.86223 0
M  V30 1788 H 200.15 -5.21128 -0.593775 0
M  V30 1789 H 201.624 -5.02105 -2.29335 0
M  V30 1790 H 202.101 -3.39721 -2.78363 0
M  V30 1791 H 202.707 -4.06499 -1.25055 0
M  V30 1792 N 201.022 0.148545 -1.56898 0
M  V30 1793 C 202.25 0.876389 -1.87422 0
M  V30 1794 C 202.665 1.74809 -0.713256 0
M  V30 1795 O 202.022 1.79725 0.317025 0
M  V30 1796 C 202.073 1.73438 -3.17178 0
M  V30 1797 O 201.794 0.897809 -4.28802 0
M  V30 1798 C 203.295 2.56993 -3.61205 0
M  V30 1799 H 200.515 0.253489 -0.621277 0
M  V30 1800 H 203.059 0.141798 -2.04008 0
M  V30 1801 H 201.214 2.42205 -3.0235 0
M  V30 1802 H 201.628 1.48672 -5.02988 0
M  V30 1803 H 203.102 3.12773 -4.54838 0
M  V30 1804 H 203.579 3.32958 -2.86419 0
M  V30 1805 H 204.185 1.9352 -3.78722 0
M  V30 1806 N 202.5 1.5196 0.417844 0
M  V30 1807 C 203.777 1.56146 1.17803 0
M  V30 1808 C 204.157 0.337275 2.08388 0
M  V30 1809 O 203.505 -0.676447 2.18258 0
M  V30 1810 C 203.715 2.88566 1.96293 0
M  V30 1811 C 205.063 3.41244 2.52662 0
M  V30 1812 O 206.087 2.90247 2.06483 0
M  V30 1813 O 204.946 4.30273 3.36938 0
M  V30 1814 H 202.04 0.628598 0.537395 0
M  V30 1815 H 204.586 1.64283 0.425331 0
M  V30 1816 H 203.358 3.69116 1.2988 0
M  V30 1817 H 202.981 2.83681 2.78587 0
M  V30 1818 N 203.978 -0.674533 1.42435 0
M  V30 1819 C 204.908 -1.80009 1.48724 0
M  V30 1820 C 205.889 -1.6659 0.343793 0
M  V30 1821 O 207.074 -1.86007 0.558137 0
M  V30 1822 C 204.204 -3.18306 1.38919 0
M  V30 1823 C 203.158 -3.46461 2.51294 0
M  V30 1824 C 202.484 -4.84335 2.26547 0
M  V30 1825 C 203.784 -3.43328 3.93603 0
M  V30 1826 H 205.478 -1.75004 2.42928 0
M  V30 1827 H 203.024 -0.840533 1.16923 0
M  V30 1828 H 204.977 -3.9678 1.41927 0
M  V30 1829 H 203.701 -3.2399 0.412094 0
M  V30 1830 H 202.36 -2.70348 2.47604 0
M  V30 1831 H 202.008 -4.86669 1.2713 0
M  V30 1832 H 201.708 -5.04136 3.01861 0
M  V30 1833 H 203.232 -5.65094 2.31304 0
M  V30 1834 H 204.646 -4.11772 3.98894 0
M  V30 1835 H 203.043 -3.74664 4.68771 0
M  V30 1836 H 204.113 -2.41897 4.20255 0
M  V30 1837 N 205.456 -1.28612 -0.910864 0
M  V30 1838 C 206.702 -1.16106 -1.66274 0
M  V30 1839 C 207.035 0.289113 -1.92036 0
M  V30 1840 O 206.31 1.21 -1.52281 0
M  V30 1841 C 206.593 -1.96309 -3.01885 0
M  V30 1842 C 206.446 -3.49405 -2.8326 0
M  V30 1843 C 207.765 -1.78076 -4.02463 0
M  V30 1844 H 204.884 -0.423152 -0.603417 0
M  V30 1845 H 207.526 -1.57961 -1.05586 0
M  V30 1846 H 205.676 -1.60742 -3.53687 0
M  V30 1847 H 207.348 -3.94894 -2.38446 0
M  V30 1848 H 205.591 -3.74893 -2.18261 0
M  V30 1849 H 206.262 -4.00784 -3.79574 0
M  V30 1850 H 208.738 -2.0912 -3.59733 0
M  V30 1851 H 207.614 -2.36561 -4.95308 0
M  V30 1852 H 207.875 -0.733008 -4.35981 0
M  V30 1853 N 206.934 1.1197 -1.10907 0
M  V30 1854 C 208.345 1.65114 -0.871446 0
M  V30 1855 C 208.696 1.86885 0.597353 0
M  V30 1856 O 207.821 1.59896 1.45816 0
M  V30 1857 C 208.416 2.99944 -1.5754 0
M  V30 1858 C 206.975 3.50018 -1.38435 0
M  V30 1859 C 206.122 2.24941 -1.62164 0
M  V30 1860 H 209.073 0.956851 -1.2661 0
M  V30 1861 H 209.094 3.66651 -1.01721 0
M  V30 1862 H 208.606 2.84067 -2.64438 0
M  V30 1863 H 206.707 3.71071 -0.337214 0
M  V30 1864 H 206.82 4.29165 -2.12965 0
M  V30 1865 H 205.184 2.3229 -1.04467 0
M  V30 1866 H 205.967 2.11612 -2.70324 0
M  V30 1867 N 208.412 0.89855 1.29475 0
M  V30 1868 C 209.637 0.538561 2.00285 0
M  V30 1869 C 210.062 -0.869135 1.66816 0
M  V30 1870 O 209.42 -1.57831 0.892145 0
M  V30 1871 C 209.468 0.736475 3.52999 0
M  V30 1872 O 208.572 -0.211537 4.11857 0
M  V30 1873 H 207.913 0.210563 0.62973 0
M  V30 1874 H 210.443 1.20982 1.64998 0
M  V30 1875 H 210.453 0.640685 4.02938 0
M  V30 1876 H 209.128 1.76276 3.76696 0
M  V30 1877 H 207.705 -0.0682991 3.72837 0
M  V30 1878 N 209.89 -1.43072 0.660911 0
M  V30 1879 C 210.8 -2.34585 -0.0264163 0
M  V30 1880 C 211.816 -1.54316 -0.803898 0
M  V30 1881 O 212.992 -1.86939 -0.749391 0
M  V30 1882 C 210.057 -3.32689 -0.975639 0
M  V30 1883 C 209.118 -4.2886 -0.194236 0
M  V30 1884 C 208.351 -5.22278 -1.09825 0
M  V30 1885 O 208.574 -5.20299 -2.33763 0
M  V30 1886 O 207.508 -5.99228 -0.566513 0
M  V30 1887 H 211.334 -2.94869 0.727034 0
M  V30 1888 H 208.919 -1.43342 0.42111 0
M  V30 1889 H 210.801 -3.92995 -1.52094 0
M  V30 1890 H 209.476 -2.74898 -1.70918 0
M  V30 1891 H 208.383 -3.72011 0.394835 0
M  V30 1892 H 209.716 -4.89655 0.499899 0
M  V30 1893 N 211.368 -0.403325 -1.52352 0
M  V30 1894 C 212.614 0.174605 -2.02047 0
M  V30 1895 C 212.947 1.45282 -1.28867 0
M  V30 1896 O 212.222 1.90483 -0.393257 0
M  V30 1897 C 212.505 0.428238 -3.57545 0
M  V30 1898 C 212.358 -0.866248 -4.4138 0
M  V30 1899 C 213.677 1.21287 -4.23057 0
M  V30 1900 H 210.796 0.0619851 -0.734389 0
M  V30 1901 H 213.438 -0.53565 -1.82293 0
M  V30 1902 H 211.588 1.03327 -3.74507 0
M  V30 1903 H 213.26 -1.50265 -4.3614 0
M  V30 1904 H 211.503 -1.47851 -4.07827 0
M  V30 1905 H 212.174 -0.643249 -5.48239 0
M  V30 1906 H 214.65 0.700703 -4.10158 0
M  V30 1907 H 213.526 1.35909 -5.31808 0
M  V30 1908 H 213.787 2.23193 -3.81625 0
M  V30 1909 N 212.846 1.57033 -0.133567 0
M  V30 1910 C 214.071 2.00475 0.531477 0
M  V30 1911 C 214.496 1.01291 1.58499 0
M  V30 1912 O 213.854 -0.0133279 1.81295 0
M  V30 1913 C 213.902 3.42729 1.12113 0
M  V30 1914 O 213.006 3.46498 2.23636 0
M  V30 1915 H 212.347 0.650876 0.131362 0
M  V30 1916 H 214.877 2.03344 -0.22634 0
M  V30 1917 H 214.887 3.81246 1.4531 0
M  V30 1918 H 213.562 4.14428 0.349557 0
M  V30 1919 H 212.139 3.19811 1.91769 0
M  V30 1920 N 214.325 -0.140222 1.56975 0
M  V30 1921 C 215.736 -0.699596 1.73097 0
M  V30 1922 C 216.087 -1.8134 0.749022 0
M  V30 1923 O 215.212 -2.16241 -0.0828503 0
M  V30 1924 C 215.807 -1.27582 3.1386 0
M  V30 1925 C 214.366 -1.78169 3.31561 0
M  V30 1926 C 213.513 -0.672855 2.69013 0
M  V30 1927 H 216.464 0.0855115 1.58469 0
M  V30 1928 H 216.485 -2.14561 3.14235 0
M  V30 1929 H 215.997 -0.464955 3.85305 0
M  V30 1930 H 214.098 -2.61801 2.65124 0
M  V30 1931 H 214.211 -1.90574 4.39566 0
M  V30 1932 H 212.575 -1.10118 2.29665 0
M  V30 1933 H 213.358 0.126679 3.43066 0
M  V30 1934 N 215.803 -1.52179 -0.40978 0
M  V30 1935 C 217.214 -1.58377 -0.988615 0
M  V30 1936 C 217.565 -0.423879 -1.91566 0
M  V30 1937 O 216.69 0.455844 -2.11544 0
M  V30 1938 C 217.285 -2.87044 -1.79976 0
M  V30 1939 C 215.844 -2.95722 -2.32863 0
M  V30 1940 C 214.991 -2.53309 -1.12828 0
M  V30 1941 H 217.942 -1.57558 -0.190039 0
M  V30 1942 H 217.963 -2.7236 -2.65707 0
M  V30 1943 H 217.475 -3.71444 -1.12478 0
M  V30 1944 H 215.576 -2.15814 -3.03735 0
M  V30 1945 H 215.689 -3.99951 -2.63773 0
M  V30 1946 H 214.053 -2.07142 -1.48204 0
M  V30 1947 H 214.836 -3.40082 -0.46897 0
M  V30 1948 N 217.281 0.66697 -1.42791 0
M  V30 1949 C 218.527 1.4291 -1.43891 0
M  V30 1950 C 218.86 1.94114 -0.0578972 0
M  V30 1951 O 218.135 1.71414 0.91911 0
M  V30 1952 C 218.418 2.62049 -2.46987 0
M  V30 1953 C 218.271 2.16426 -3.94309 0
M  V30 1954 C 219.59 3.64266 -2.46978 0
M  V30 1955 H 216.709 0.518306 -0.523954 0
M  V30 1956 H 219.351 0.757321 -1.74255 0
M  V30 1957 H 217.501 3.19361 -2.21225 0
M  V30 1958 H 219.173 1.64221 -4.31079 0
M  V30 1959 H 217.416 1.47925 -4.078 0
M  V30 1960 H 218.087 3.02038 -4.62036 0
M  V30 1961 H 220.563 3.16686 -2.69906 0
M  V30 1962 H 219.439 4.45196 -3.21079 0
M  V30 1963 H 219.7 4.15927 -1.49857 0
M  V30 1964 N 218.759 1.29093 0.90403 0
M  V30 1965 C 220.036 1.075 1.63411 0
M  V30 1966 C 220.416 -0.382346 2.07609 0
M  V30 1967 O 219.764 -1.37031 1.82851 0
M  V30 1968 C 219.974 2.05858 2.81822 0
M  V30 1969 C 221.322 2.36539 3.52611 0
M  V30 1970 O 222.346 2.04019 2.91984 0
M  V30 1971 O 221.205 2.92085 4.61897 0
M  V30 1972 H 218.299 0.411547 0.717327 0
M  V30 1973 H 220.845 1.40449 0.952479 0
M  V30 1974 H 219.617 3.04037 2.46327 0
M  V30 1975 H 219.24 1.73613 3.57693 0
M  V30 1976 N 220.237 -1.11381 1.11499 0
M  V30 1977 C 221.514 -1.7955 0.775965 0
M  V30 1978 C 221.894 -1.97859 -0.73588 0
M  V30 1979 O 221.242 -1.56376 -1.66609 0
M  V30 1980 C 221.452 -3.13196 1.53977 0
M  V30 1981 C 222.8 -3.88227 1.71944 0
M  V30 1982 O 223.824 -3.22887 1.50407 0
M  V30 1983 O 222.683 -5.05477 2.07738 0
M  V30 1984 H 219.777 -0.777728 0.28119 0
M  V30 1985 H 222.323 -1.18118 1.21845 0
M  V30 1986 H 221.095 -2.95229 2.56818 0
M  V30 1987 H 220.718 -3.82342 1.09088 0
M  V30 1988 N 221.715 -0.905404 -1.28997 0
M  V30 1989 C 222.945 -0.549049 -1.99171 0
M  V30 1990 C 223.353 0.87203 -1.67906 0
M  V30 1991 O 222.696 1.58796 -0.923561 0
M  V30 1992 C 222.758 -0.668306 -3.53234 0
M  V30 1993 C 222.422 -2.0574 -4.08069 0
M  V30 1994 C 223.419 -3.0292 -4.22534 0
M  V30 1995 C 221.104 -2.36833 -4.42962 0
M  V30 1996 C 223.098 -4.29314 -4.71135 0
M  V30 1997 C 220.785 -3.63467 -4.91258 0
M  V30 1998 C 221.783 -4.59522 -5.053 0
M  V30 1999 O 221.471 -5.83907 -5.52546 0
M  V30 2000 H 221.203 -0.208784 -0.64295 0
M  V30 2001 H 223.757 -1.21836 -1.65363 0
M  V30 2002 H 221.987 0.0580547 -3.86656 0
M  V30 2003 H 223.676 -0.320273 -4.04634 0
M  V30 2004 H 224.442 -2.80216 -3.95859 0
M  V30 2005 H 220.321 -1.62824 -4.31288 0
M  V30 2006 H 223.865 -5.04293 -4.8201 0
M  V30 2007 H 219.762 -3.86 -5.17372 0
M  V30 2008 H 220.53 -5.86578 -5.70849 0
M  V30 2009 N 223.193 1.4272 -0.668489 0
M  V30 2010 C 224.123 2.335 -0.000100175 0
M  V30 2011 C 225.104 1.50328 0.795964 0
M  V30 2012 O 226.289 1.78949 0.754385 0
M  V30 2013 C 223.419 3.33874 0.956302 0
M  V30 2014 C 222.373 4.27152 0.269278 0
M  V30 2015 C 221.699 5.17684 1.33818 0
M  V30 2016 C 222.999 5.15373 -0.847805 0
M  V30 2017 H 224.693 2.89639 -0.758244 0
M  V30 2018 H 222.239 1.39269 -0.366079 0
M  V30 2019 H 224.192 3.9629 1.43292 0
M  V30 2020 H 222.916 2.76025 1.74579 0
M  V30 2021 H 221.575 3.66123 -0.187042 0
M  V30 2022 H 221.223 4.56165 2.1195 0
M  V30 2023 H 220.923 5.80918 0.883659 0
M  V30 2024 H 222.447 5.82974 1.81586 0
M  V30 2025 H 223.861 5.7151 -0.452681 0
M  V30 2026 H 222.258 5.87407 -1.22773 0
M  V30 2027 H 223.328 4.5415 -1.69929 0
M  V30 2028 N 224.671 0.411399 1.52136 0
M  V30 2029 C 225.948 -0.222308 1.94333 0
M  V30 2030 C 226.328 -1.6242 1.34844 0
M  V30 2031 O 225.676 -2.22384 0.525145 0
M  V30 2032 C 225.886 -0.226345 3.48265 0
M  V30 2033 C 227.234 -0.444592 4.22266 0
M  V30 2034 O 228.258 -0.305602 3.54887 0
M  V30 2035 O 227.117 -0.718749 5.41753 0
M  V30 2036 H 224.211 -0.143907 0.814383 0
M  V30 2037 H 226.757 0.467506 1.63133 0
M  V30 2038 H 225.529 0.75475 3.83952 0
M  V30 2039 H 225.152 -0.960163 3.85832 0
M  V30 2040 N 226.149 -1.5696 0.141893 0
M  V30 2041 C 227.426 -1.87553 -0.555281 0
M  V30 2042 C 227.806 -1.04699 -1.83306 0
M  V30 2043 O 227.154 -0.132346 -2.28116 0
M  V30 2044 C 227.364 -3.39093 -0.825664 0
M  V30 2045 C 228.712 -4.08199 -1.16869 0
M  V30 2046 O 229.736 -3.44242 -0.915185 0
M  V30 2047 O 228.595 -5.21139 -1.6455 0
M  V30 2048 H 225.689 -0.777188 -0.282679 0
M  V30 2049 H 228.235 -1.68763 0.17812 0
M  V30 2050 H 227.007 -3.91221 0.0788633 0
M  V30 2051 H 226.63 -3.63393 -1.61343 0
M  V30 2052 N 227.627 0.131896 -1.57047 0
M  V30 2053 C 228.904 0.871495 -1.75112 0
M  V30 2054 C 229.284 1.9866 -0.713949 0
M  V30 2055 O 228.632 2.26965 0.264447 0
M  V30 2056 C 228.842 1.40007 -3.19686 0
M  V30 2057 C 230.19 1.85752 -3.81813 0
M  V30 2058 O 231.214 1.49715 -3.23209 0
M  V30 2059 O 230.073 2.5226 -4.84796 0
M  V30 2060 H 227.167 0.412919 -0.716538 0
M  V30 2061 H 229.713 0.116641 -1.69299 0
M  V30 2062 H 228.485 0.599404 -3.86682 0
M  V30 2063 H 228.108 2.218 -3.29986 0
M  V30 2064 N 229.106 1.52395 0.401703 0
M  V30 2065 C 230.354 1.66488 1.14569 0
M  V30 2066 C 230.675 0.400897 1.90835 0
M  V30 2067 O 229.945 -0.584415 1.8698 0
M  V30 2068 H 228.525 0.613672 0.425929 0
M  V30 2069 H 231.187 1.89464 0.457093 0
M  V30 2070 H 230.283 2.50942 1.85566 0
M  V30 2071 N 230.584 -0.659388 1.43143 0
M  V30 2072 C 231.831 -1.41935 1.44433 0
M  V30 2073 C 232.159 -1.94387 0.0663522 0
M  V30 2074 O 231.414 -1.72314 -0.927706 0
M  V30 2075 C 231.713 -2.62206 2.42864 0
M  V30 2076 C 231.379 -2.28208 3.88886 0
M  V30 2077 C 230.041 -2.18647 4.28657 0
M  V30 2078 C 232.393 -2.00887 4.8093 0
M  V30 2079 C 229.721 -1.79914 5.58433 0
M  V30 2080 C 232.073 -1.63653 6.11065 0
M  V30 2081 C 230.737 -1.52614 6.49819 0
M  V30 2082 H 230.007 -0.519376 0.528517 0
M  V30 2083 H 232.654 -0.750453 1.76183 0
M  V30 2084 H 230.959 -3.34199 2.04495 0
M  V30 2085 H 232.656 -3.2041 2.41119 0
M  V30 2086 H 229.246 -2.36557 3.57406 0
M  V30 2087 H 233.43 -2.07198 4.5098 0
M  V30 2088 H 228.686 -1.69948 5.87305 0
M  V30 2089 H 232.86 -1.41543 6.81864 0
M  V30 2090 H 230.487 -1.22371 7.50286 0
M  V30 2091 N 232.062 -1.29571 -0.897171 0
M  V30 2092 C 233.287 -1.20705 -1.68656 0
M  V30 2093 C 233.712 0.228582 -1.86706 0
M  V30 2094 O 233.07 1.16494 -1.3892 0
M  V30 2095 C 233.118 -1.9282 -3.04717 0
M  V30 2096 O 232.222 -1.24697 -3.93096 0
M  V30 2097 H 231.563 -0.418126 -0.515816 0
M  V30 2098 H 234.093 -1.71183 -1.12061 0
M  V30 2099 H 234.103 -2.01372 -3.54843 0
M  V30 2100 H 232.778 -2.97239 -2.90899 0
M  V30 2101 H 231.355 -1.2442 -3.51531 0
M  V30 2102 N 233.54 1.10788 -1.12088 0
M  V30 2103 C 234.765 1.87002 -0.896949 0
M  V30 2104 C 235.19 1.79933 0.548261 0
M  V30 2105 O 234.548 1.16662 1.38779 0
M  V30 2106 C 234.596 3.3349 -1.37174 0
M  V30 2107 O 233.7 4.08745 -0.547831 0
M  V30 2108 H 233.041 0.580397 -0.322545 0
M  V30 2109 H 235.571 1.39996 -1.49206 0
M  V30 2110 H 235.581 3.84339 -1.36922 0
M  V30 2111 H 234.256 3.37951 -2.42408 0
M  V30 2112 H 232.833 3.6776 -0.617034 0
M  V30 2113 N 235.018 0.912232 1.28515 0
M  V30 2114 C 236.265 0.544599 1.95039 0
M  V30 2115 C 236.593 -0.911435 1.71823 0
M  V30 2116 O 235.848 -1.66317 1.03137 0
M  V30 2117 C 236.147 0.798392 3.48368 0
M  V30 2118 C 235.813 2.23374 3.91682 0
M  V30 2119 C 234.475 2.62617 4.03219 0
M  V30 2120 C 236.827 3.16786 4.13879 0
M  V30 2121 C 234.155 3.94429 4.3433 0
M  V30 2122 C 236.507 4.48161 4.46469 0
M  V30 2123 C 235.171 4.8726 4.56217 0
M  V30 2124 H 234.441 0.199283 0.7137 0
M  V30 2125 H 237.088 1.15327 1.52879 0
M  V30 2126 H 235.393 0.106908 3.91654 0
M  V30 2127 H 237.09 0.493141 3.97956 0
M  V30 2128 H 233.68 1.91922 3.83228 0
M  V30 2129 H 237.864 2.87677 4.0442 0
M  V30 2130 H 233.12 4.24426 4.40082 0
M  V30 2131 H 237.294 5.20559 4.62592 0
M  V30 2132 H 234.921 5.89431 4.80078 0
M  V30 2133 N 236.496 -1.42363 0.676048 0
M  V30 2134 C 237.912 -1.55811 0.345718 0
M  V30 2135 C 238.112 -1.65544 -1.14879 0
M  V30 2136 O 237.168 -1.62306 -1.93424 0
M  V30 2137 C 238.481 -2.80746 1.07713 0
M  V30 2138 C 240.029 -2.9452 1.05958 0
M  V30 2139 C 240.504 -4.22318 1.77233 0
M  V30 2140 N 241.995 -4.29233 1.74108 0
M  V30 2141 C 242.73 -5.26935 2.26113 0
M  V30 2142 N 242.226 -6.30783 2.86505 0
M  V30 2143 N 244.019 -5.18741 2.1648 0
M  V30 2144 H 236.17 -1.34289 1.6456 0
M  V30 2145 H 238.433 -0.646506 0.69335 0
M  V30 2146 H 238.139 -2.79696 2.13221 0
M  V30 2147 H 238.013 -3.71676 0.64316 0
M  V30 2148 H 240.4 -2.95097 0.0128255 0
M  V30 2149 H 240.481 -2.04817 1.53244 0
M  V30 2150 H 240.125 -4.22502 2.81877 0
M  V30 2151 H 240.055 -5.10958 1.27396 0
M  V30 2152 H 242.546 -3.54814 1.30059 0
M  V30 2153 H 242.859 -7.01691 3.23805 0
M  V30 2154 H 241.204 -6.31341 2.90575 0
M  V30 2155 H 244.395 -4.36533 1.68987 0
M  V30 2156 H 244.568 -5.94721 2.57316 0
M  V30 2157 N 237.974 -0.419461 -1.51915 0
M  V30 2158 C 238.884 0.407528 -2.31033 0
M  V30 2159 C 239.9 1.04413 -1.3919 0
M  V30 2160 O 241.076 1.0434 -1.72265 0
M  V30 2161 C 238.141 1.50365 -3.12396 0
M  V30 2162 C 237.202 0.889029 -4.19994 0
M  V30 2163 C 236.435 1.93291 -4.97468 0
M  V30 2164 O 236.658 3.15259 -4.75361 0
M  V30 2165 O 235.592 1.53339 -5.8204 0
M  V30 2166 H 239.418 -0.237865 -3.02767 0
M  V30 2167 H 237.003 -0.182413 -1.48282 0
M  V30 2168 H 238.885 2.13975 -3.63032 0
M  V30 2169 H 237.56 2.13345 -2.43445 0
M  V30 2170 H 236.467 0.215353 -3.7348 0
M  V30 2171 H 237.8 0.302991 -4.91267 0
M  V30 2172 N 239.452 1.56882 -0.150215 0
M  V30 2173 C 240.699 1.96228 0.500093 0
M  V30 2174 C 241.027 1.03522 1.64661 0
M  V30 2175 O 240.282 0.0650683 1.95592 0
M  V30 2176 C 240.581 3.41801 1.04437 0
M  V30 2177 C 240.247 4.50897 0.0159671 0
M  V30 2178 C 238.909 4.8046 -0.266731 0
M  V30 2179 C 241.261 5.16703 -0.683192 0
M  V30 2180 C 238.589 5.73135 -1.25434 0
M  V30 2181 C 240.941 6.10441 -1.65964 0
M  V30 2182 C 239.605 6.38382 -1.95 0
M  V30 2183 H 238.875 0.718048 0.182997 0
M  V30 2184 H 241.522 1.90019 -0.237724 0
M  V30 2185 H 239.827 3.44857 1.85959 0
M  V30 2186 H 241.524 3.69573 1.55618 0
M  V30 2187 H 238.114 4.27891 0.246485 0
M  V30 2188 H 242.298 4.93993 -0.477983 0
M  V30 2189 H 237.554 5.93074 -1.48571 0
M  V30 2190 H 241.728 6.60507 -2.20689 0
M  V30 2191 H 239.355 7.09996 -2.71679 0
M  V30 2192 N 240.93 -0.123565 1.57115 0
M  V30 2193 C 241.86 -1.15309 2.03042 0
M  V30 2194 C 242.841 -1.43454 0.914061 0
M  V30 2195 O 244.026 -1.53973 1.18347 0
M  V30 2196 C 241.156 -2.48043 2.43089 0
M  V30 2197 C 240.11 -2.3437 3.58127 0
M  V30 2198 C 239.436 -3.72026 3.84059 0
M  V30 2199 C 240.736 -1.80804 4.90007 0
M  V30 2200 H 242.43 -0.771102 2.893 0
M  V30 2201 H 239.976 -0.369479 1.39179 0
M  V30 2202 H 241.929 -3.20311 2.73823 0
M  V30 2203 H 240.653 -2.88122 1.53796 0
M  V30 2204 H 239.312 -1.64551 3.27595 0
M  V30 2205 H 238.96 -4.09582 2.91979 0
M  V30 2206 H 238.66 -3.63732 4.6149 0
M  V30 2207 H 240.184 -4.45806 4.1724 0
M  V30 2208 H 241.598 -2.42886 5.19307 0
M  V30 2209 H 239.995 -1.83343 5.71407 0
M  V30 2210 H 241.065 -0.76528 4.78823 0
M  V30 2211 N 242.408 -1.52605 -0.393616 0
M  V30 2212 C 243.318 -1.79971 -1.50492 0
M  V30 2213 C 244.334 -0.686181 -1.59899 0
M  V30 2214 O 245.51 -0.973274 -1.76322 0
M  V30 2215 C 242.575 -1.95867 -2.86072 0
M  V30 2216 C 241.636 -3.19781 -2.86424 0
M  V30 2217 C 240.869 -3.34909 -4.15538 0
M  V30 2218 O 241.092 -2.54948 -5.10253 0
M  V30 2219 O 240.026 -4.28141 -4.23059 0
M  V30 2220 H 243.852 -2.74328 -1.30299 0
M  V30 2221 H 241.437 -1.3764 -0.581005 0
M  V30 2222 H 243.319 -2.08056 -3.66457 0
M  V30 2223 H 241.994 -1.04699 -3.063 0
M  V30 2224 H 240.901 -3.13038 -2.04837 0
M  V30 2225 H 242.234 -4.1078 -2.71147 0
M  V30 2226 N 243.887 0.651787 -1.4349 0
M  V30 2227 C 245.112 1.44434 -1.48841 0
M  V30 2228 C 245.537 1.8779 -0.107955 0
M  V30 2229 O 244.895 1.57464 0.898602 0
M  V30 2230 C 244.943 2.65458 -2.44059 0
M  V30 2231 O 244.047 3.64566 -1.92784 0
M  V30 2232 H 243.388 0.433005 -0.503391 0
M  V30 2233 H 245.918 0.797451 -1.88419 0
M  V30 2234 H 245.928 3.13255 -2.6141 0
M  V30 2235 H 244.603 2.33244 -3.4434 0
M  V30 2236 H 243.18 3.23716 -1.851 0
M  V30 2237 N 245.365 1.30045 0.890287 0
M  V30 2238 C 246.593 1.21472 1.67487 0
M  V30 2239 C 247.008 -0.223241 1.87476 0
M  V30 2240 O 246.365 -1.14828 1.41847 0
M  V30 2241 C 246.416 1.93394 3.05419 0
M  V30 2242 O 246.137 3.31576 2.86337 0
M  V30 2243 C 247.638 1.91414 3.99844 0
M  V30 2244 H 244.858 0.420604 0.522813 0
M  V30 2245 H 247.402 1.7158 1.11268 0
M  V30 2246 H 245.557 1.47099 3.58386 0
M  V30 2247 H 245.971 3.67929 3.73802 0
M  V30 2248 H 247.445 2.46285 4.94012 0
M  V30 2249 H 247.922 0.891833 4.3005 0
M  V30 2250 H 248.528 2.37496 3.52811 0
M  V30 2251 N 246.843 -1.10192 1.12674 0
M  V30 2252 C 248.254 -1.63707 0.897604 0
M  V30 2253 C 248.605 -1.87812 -0.567546 0
M  V30 2254 O 247.73 -1.62196 -1.43253 0
M  V30 2255 C 248.325 -2.974 1.62292 0
M  V30 2256 C 246.884 -3.47772 1.43986 0
M  V30 2257 C 246.031 -2.22332 1.65722 0
M  V30 2258 H 248.982 -0.936587 1.28116 0
M  V30 2259 H 249.003 -3.64986 1.07541 0
M  V30 2260 H 248.515 -2.79824 2.68924 0
M  V30 2261 H 246.616 -3.70487 0.396206 0
M  V30 2262 H 246.729 -4.25723 2.19765 0
M  V30 2263 H 245.093 -2.30599 1.08149 0
M  V30 2264 H 245.876 -2.07285 2.73657 0
M  V30 2265 N 248.321 -0.919034 -1.28029 0
M  V30 2266 C 249.561 -0.562107 -1.96519 0
M  V30 2267 C 249.925 0.878784 -1.70708 0
M  V30 2268 O 251.126 1.34355 -2.32813 0
M  V30 2269 C 249.397 -0.868953 -3.46676 0
M  V30 2270 S 250.956 -0.619237 -4.34409 0
M  V30 2271 H 247.774 -0.2078 -0.679956 0
M  V30 2272 H 250.376 -1.18562 -1.55446 0
M  V30 2273 H 249.08 -1.91547 -3.62957 0
M  V30 2274 H 248.611 -0.234301 -3.92702 0
M  V30 2275 H 250.626 0.526995 -4.93394 0
M  V30 2276 N 249.799 1.42003 -0.683588 0
M  V30 2277 C 251.045 2.02223 -0.218536 0
M  V30 2278 C 251.4 1.53126 1.16492 0
M  V30 2279 O 250.693 0.727459 1.77253 0
M  V30 2280 C 250.887 3.56827 -0.202357 0
M  V30 2281 C 250.716 4.20928 -1.5827 0
M  V30 2282 C 249.486 4.5573 -2.18262 0
M  V30 2283 C 251.684 4.47933 -2.52706 0
M  V30 2284 N 249.666 5.05056 -3.48986 0
M  V30 2285 C 251.037 4.98906 -3.68094 0
M  V30 2286 C 253.092 4.29931 -2.51125 0
M  V30 2287 C 251.795 5.33768 -4.82166 0
M  V30 2288 C 253.821 4.65875 -3.643 0
M  V30 2289 C 253.183 5.17008 -4.78417 0
M  V30 2290 H 249.282 0.771931 -0.125088 0
M  V30 2291 H 251.866 1.72729 -0.898479 0
M  V30 2292 H 250.037 3.85819 0.447029 0
M  V30 2293 H 251.769 4.03755 0.276399 0
M  V30 2294 H 248.524 4.41781 -1.70665 0
M  V30 2295 H 248.948 5.34139 -4.15962 0
M  V30 2296 H 253.59 3.89647 -1.6412 0
M  V30 2297 H 251.308 5.72981 -5.6984 0
M  V30 2298 H 254.894 4.53615 -3.64314 0
M  V30 2299 H 253.774 5.44301 -5.64541 0
M  V30 2300 N 251.277 0.427512 1.51691 0
M  V30 2301 C 252.209 -0.424521 2.25234 0
M  V30 2302 C 253.222 -0.994671 1.2888 0
M  V30 2303 O 254.411 -0.890483 1.54702 0
M  V30 2304 C 251.511 -1.60479 2.98496 0
M  V30 2305 C 250.684 -1.15527 4.21868 0
M  V30 2306 C 249.743 -2.20454 4.77793 0
M  V30 2307 O 248.769 -1.8029 5.39893 0
M  V30 2308 N 249.971 -3.52831 4.60967 0
M  V30 2309 H 252.736 0.205749 2.98993 0
M  V30 2310 H 250.297 0.255867 1.59865 0
M  V30 2311 H 252.289 -2.30276 3.32799 0
M  V30 2312 H 250.859 -2.14061 2.27809 0
M  V30 2313 H 250.079 -0.284736 3.9317 0
M  V30 2314 H 251.367 -0.832173 5.01949 0
M  V30 2315 H 250.765 -3.88201 4.11481 0
M  V30 2316 H 249.322 -4.18551 4.99658 0
M  V30 2317 N 252.755 -1.56801 0.158532 0
M  V30 2318 C 254.171 -1.5837 -0.197774 0
M  V30 2319 C 254.371 -1.17334 -1.63814 0
M  V30 2320 O 253.427 -0.878988 -2.36707 0
M  V30 2321 C 254.74 -3.00615 0.0714459 0
M  V30 2322 C 256.288 -3.12999 0.00864533 0
M  V30 2323 C 256.763 -4.57313 0.250685 0
M  V30 2324 N 258.254 -4.62777 0.198014 0
M  V30 2325 C 258.989 -5.72271 0.359642 0
M  V30 2326 N 258.485 -6.90371 0.579625 0
M  V30 2327 N 260.278 -5.61318 0.296438 0
M  V30 2328 H 252.429 -1.81765 1.09887 0
M  V30 2329 H 254.692 -0.841849 0.435884 0
M  V30 2330 H 254.398 -3.35068 1.06874 0
M  V30 2331 H 254.272 -3.71683 -0.642757 0
M  V30 2332 H 256.659 -2.7838 -0.979217 0
M  V30 2333 H 256.74 -2.44393 0.755359 0
M  V30 2334 H 256.384 -4.92639 1.2357 0
M  V30 2335 H 256.314 -5.24061 -0.516489 0
M  V30 2336 H 258.805 -3.77885 0.0331115 0
M  V30 2337 H 259.118 -7.69689 0.69275 0
M  V30 2338 H 257.463 -6.92264 0.616087 0
M  V30 2339 H 260.654 -4.67932 0.125258 0
M  V30 2340 H 260.827 -6.46599 0.425831 0
M  V30 2341 N 254.233 0.115231 -1.57178 0
M  V30 2342 C 255.649 0.468877 -1.52557 0
M  V30 2343 C 255.849 1.81649 -0.872125 0
M  V30 2344 O 254.905 2.48347 -0.45606 0
M  V30 2345 C 256.218 0.4499 -2.97315 0
M  V30 2346 C 257.766 0.533185 -3.08425 0
M  V30 2347 C 258.241 0.54456 -4.54751 0
M  V30 2348 N 259.732 0.605892 -4.5922 0
M  V30 2349 C 260.467 0.636203 -5.6986 0
M  V30 2350 N 259.963 0.623931 -6.89985 0
M  V30 2351 N 261.756 0.679496 -5.57978 0
M  V30 2352 H 253.907 -0.767712 -1.9804 0
M  V30 2353 H 256.17 -0.283609 -0.904583 0
M  V30 2354 H 255.876 -0.472721 -3.48509 0
M  V30 2355 H 255.75 1.27632 -3.5495 0
M  V30 2356 H 258.137 1.44623 -2.57232 0
M  V30 2357 H 258.218 -0.320995 -2.53778 0
M  V30 2358 H 257.862 -0.364452 -5.06591 0
M  V30 2359 H 257.792 1.41568 -5.07214 0
M  V30 2360 H 260.283 0.621386 -3.72756 0
M  V30 2361 H 260.596 0.649787 -7.70063 0
M  V30 2362 H 258.941 0.591296 -6.9248 0
M  V30 2363 H 262.132 0.686472 -4.63039 0
M  V30 2364 H 262.305 0.69965 -6.44212 0
M  V30 2365 N 255.711 1.52812 0.385517 0
M  V30 2366 C 256.644 1.72592 1.49289 0
M  V30 2367 C 257.622 0.573819 1.52138 0
M  V30 2368 O 258.806 0.80404 1.70492 0
M  V30 2369 C 255.933 1.78669 2.87741 0
M  V30 2370 C 254.979 3.00455 3.02703 0
M  V30 2371 S 255.812 4.60366 2.73538 0
M  V30 2372 C 256.968 4.69263 4.14177 0
M  V30 2373 H 257.201 2.66248 1.32285 0
M  V30 2374 H 254.734 1.43148 0.578611 0
M  V30 2375 H 256.692 1.82855 3.67524 0
M  V30 2376 H 255.353 0.861 3.02069 0
M  V30 2377 H 254.546 3.01258 4.04054 0
M  V30 2378 H 254.148 2.94278 2.30817 0
M  V30 2379 H 256.44 4.48092 5.08153 0
M  V30 2380 H 257.383 5.71276 4.18388 0
M  V30 2381 H 257.791 3.98072 4.00249 0
M  V30 2382 N 257.189 -0.644168 1.43834 0
M  V30 2383 C 258.152 -1.73857 1.49353 0
M  V30 2384 C 259.152 -1.56315 0.377112 0
M  V30 2385 O 260.342 -1.62048 0.639226 0
M  V30 2386 C 257.474 -3.12819 1.35488 0
M  V30 2387 H 258.667 -1.70342 2.46827 0
M  V30 2388 H 256.22 -0.856652 1.30733 0
M  V30 2389 H 256.955 -3.2194 0.390569 0
M  V30 2390 H 256.74 -3.26958 2.16428 0
M  V30 2391 H 258.23 -3.92606 1.42302 0
M  V30 2392 N 258.668 -1.30515 -0.883378 0
M  V30 2393 C 259.6 -1.12846 -1.99496 0
M  V30 2394 C 260.613 -0.0712571 -1.62644 0
M  V30 2395 O 261.802 -0.317432 -1.75655 0
M  V30 2396 C 258.902 -0.699123 -3.3161 0
M  V30 2397 C 258.075 -1.83842 -3.96889 0
M  V30 2398 C 257.134 -1.39737 -5.07307 0
M  V30 2399 O 256.16 -2.10485 -5.28852 0
M  V30 2400 N 257.362 -0.277279 -5.79837 0
M  V30 2401 H 260.127 -2.08585 -2.15203 0
M  V30 2402 H 257.688 -1.22672 -1.05656 0
M  V30 2403 H 259.68 -0.387044 -4.02845 0
M  V30 2404 H 258.25 0.166276 -3.12157 0
M  V30 2405 H 257.47 -2.31853 -3.18807 0
M  V30 2406 H 258.758 -2.60187 -4.37241 0
M  V30 2407 H 258.156 0.3122 -5.64838 0
M  V30 2408 H 256.713 -0.0246623 -6.51795 0
M  V30 2409 N 260.146 1.09593 -1.13257 0
M  V30 2410 C 261.056 2.19739 -0.821691 0
M  V30 2411 C 262.072 1.72926 0.19302 0
M  V30 2412 O 263.248 2.01385 0.0244895 0
M  V30 2413 C 260.313 3.45482 -0.290333 0
M  V30 2414 C 259.374 4.06985 -1.36607 0
M  V30 2415 C 258.607 5.26726 -0.859975 0
M  V30 2416 O 258.83 5.69594 0.303082 0
M  V30 2417 O 257.764 5.7931 -1.63351 0
M  V30 2418 H 261.59 2.48781 -1.74189 0
M  V30 2419 H 259.175 1.18496 -0.909894 0
M  V30 2420 H 261.057 4.214 0.000674022 0
M  V30 2421 H 259.732 3.18047 0.602306 0
M  V30 2422 H 258.639 3.32712 -1.71037 0
M  V30 2423 H 259.972 4.38643 -2.23279 0
M  V30 2424 N 261.624 0.925811 1.2754 0
M  V30 2425 C 262.587 0.428129 2.25166 0
M  V30 2426 C 263.587 -0.452261 1.54309 0
M  V30 2427 O 264.777 -0.253608 1.72344 0
M  V30 2428 C 261.909 -0.384749 3.38722 0
M  V30 2429 H 263.102 1.29066 2.70706 0
M  V30 2430 H 260.655 0.706323 1.3943 0
M  V30 2431 H 261.39 -1.26618 2.98561 0
M  V30 2432 H 261.175 0.246454 3.91325 0
M  V30 2433 H 262.665 -0.723389 4.11287 0
M  V30 2434 N 263.102 -1.41638 0.69111 0
M  V30 2435 C 264.032 -2.3347 0.037248 0
M  V30 2436 C 265.013 -1.51575 -0.771947 0
M  V30 2437 O 266.198 -1.80126 -0.72582 0
M  V30 2438 C 263.328 -3.35354 -0.903064 0
M  V30 2439 C 262.282 -4.27526 -0.201288 0
M  V30 2440 C 261.608 -5.19747 -1.25565 0
M  V30 2441 C 262.908 -5.13959 0.929689 0
M  V30 2442 H 264.602 -2.88397 0.804227 0
M  V30 2443 H 262.148 -1.38669 0.388189 0
M  V30 2444 H 264.101 -3.98519 -1.36969 0
M  V30 2445 H 262.825 -2.78767 -1.70166 0
M  V30 2446 H 261.484 -3.65779 0.245265 0
M  V30 2447 H 261.132 -4.59479 -2.04666 0
M  V30 2448 H 260.832 -5.8225 -0.791128 0
M  V30 2449 H 262.356 -5.85789 -1.72288 0
M  V30 2450 H 263.77 -5.70718 0.543546 0
M  V30 2451 H 262.167 -5.85379 1.32103 0
M  V30 2452 H 263.237 -4.51389 1.77133 0
M  V30 2453 N 264.58 -0.43555 -1.51462 0
M  V30 2454 C 265.51 0.367376 -2.30592 0
M  V30 2455 C 266.491 1.02263 -1.35928 0
M  V30 2456 O 267.676 1.02661 -1.64847 0
M  V30 2457 C 264.806 1.46983 -3.14664 0
M  V30 2458 C 263.76 0.938161 -4.17591 0
M  V30 2459 C 263.086 2.13622 -4.90173 0
M  V30 2460 C 264.386 -0.0261621 -5.22293 0
M  V30 2461 H 266.08 -0.292969 -2.97963 0
M  V30 2462 H 263.626 -0.14234 -1.43295 0
M  V30 2463 H 265.579 2.03873 -3.688 0
M  V30 2464 H 264.303 2.15843 -2.4511 0
M  V30 2465 H 262.962 0.391481 -3.64504 0
M  V30 2466 H 262.61 2.81098 -4.17124 0
M  V30 2467 H 262.31 1.78688 -5.59772 0
M  V30 2468 H 263.834 2.7107 -5.47132 0
M  V30 2469 H 265.248 0.452384 -5.71512 0
M  V30 2470 H 263.645 -0.287992 -5.99409 0
M  V30 2471 H 264.715 -0.963391 -4.75233 0
M  V30 2472 N 266.058 1.56714 -0.166846 0
M  V30 2473 C 267.006 2.19056 0.782123 0
M  V30 2474 C 268 1.15328 1.24079 0
M  V30 2475 O 269.206 1.33537 1.20697 0
M  V30 2476 H 265.581 0.70167 0.270486 0
M  V30 2477 H 267.552 2.97494 0.232322 0
M  V30 2478 C 266.301 2.84206 2.00306 0
M  V30 2479 H 265.624 3.63748 1.65914 0
M  V30 2480 H 267.064 3.31302 2.64604 0
M  V30 2481 C 265.523 1.83744 2.82382 0
M  V30 2482 O 266.053 1.32014 3.79388 0
M  V30 2483 N 264.259 1.52601 2.47308 0
M  V30 2484 H 263.806 1.9486 1.68485 0
M  V30 2485 H 263.764 0.856351 3.02513 0
M  V30 2486 N 267.536 -0.106894 1.57237 0
M  V30 2487 C 268.446 -1.14911 2.0453 0
M  V30 2488 C 269.462 -1.44592 0.96795 0
M  V30 2489 O 270.638 -1.55468 1.2803 0
M  V30 2490 C 267.703 -2.45272 2.45036 0
M  V30 2491 C 266.764 -2.22879 3.66911 0
M  V30 2492 C 265.997 -3.47024 4.05475 0
M  V30 2493 O 266.22 -4.54804 3.44252 0
M  V30 2494 O 265.154 -3.3731 4.98504 0
M  V30 2495 H 268.98 -0.777461 2.9358 0
M  V30 2496 H 266.565 -0.318563 1.45964 0
M  V30 2497 H 268.447 -3.22055 2.71769 0
M  V30 2498 H 267.122 -2.81886 1.59129 0
M  V30 2499 H 266.029 -1.43915 3.45311 0
M  V30 2500 H 267.362 -1.91163 4.53561 0
M  V30 2501 N 269.014 -1.53014 -0.377408 0
M  V30 2502 C 270.244 -1.72265 -1.14054 0
M  V30 2503 C 270.652 -0.44601 -1.83868 0
M  V30 2504 O 269.995 0.590095 -1.73964 0
M  V30 2505 C 270.057 -2.82492 -2.22348 0
M  V30 2506 C 269.721 -4.23233 -1.72402 0
M  V30 2507 C 270.718 -5.05992 -1.19448 0
M  V30 2508 C 268.403 -4.696 -1.78273 0
M  V30 2509 C 270.397 -6.33203 -0.730268 0
M  V30 2510 C 268.084 -5.96792 -1.31464 0
M  V30 2511 C 269.082 -6.78424 -0.789297 0
M  V30 2512 O 268.77 -8.0323 -0.328077 0
M  V30 2513 H 268.502 -0.579873 -0.347453 0
M  V30 2514 H 271.056 -2.00502 -0.445882 0
M  V30 2515 H 269.286 -2.49702 -2.95272 0
M  V30 2516 H 270.975 -2.90034 -2.83963 0
M  V30 2517 H 271.741 -4.71349 -1.14259 0
M  V30 2518 H 267.62 -4.06142 -2.18106 0
M  V30 2519 H 271.164 -6.96868 -0.319542 0
M  V30 2520 H 267.061 -6.30937 -1.36342 0
M  V30 2521 H 267.829 -8.1727 -0.448493 0
M  V30 2522 N 270.492 0.636531 -1.44174 0
M  V30 2523 C 271.402 1.77754 -1.53103 0
M  V30 2524 C 272.418 1.68928 -0.417034 0
M  V30 2525 O 273.594 1.89801 -0.6736 0
M  V30 2526 C 270.659 3.14115 -1.46741 0
M  V30 2527 C 269.72 3.34612 -2.68948 0
M  V30 2528 C 268.953 4.64467 -2.6288 0
M  V30 2529 O 269.176 5.44919 -1.68581 0
M  V30 2530 O 268.11 4.87049 -3.53648 0
M  V30 2531 H 271.936 1.73174 -2.49489 0
M  V30 2532 H 269.521 0.79709 -1.2636 0
M  V30 2533 H 271.403 3.95412 -1.45696 0
M  V30 2534 H 270.078 3.19249 -0.534975 0
M  V30 2535 H 268.985 2.53014 -2.75562 0
M  V30 2536 H 270.318 3.34336 -3.61221 0
M  V30 2537 N 271.97 1.30982 0.876444 0
M  V30 2538 C 273.216 1.20474 1.63138 0
M  V30 2539 C 273.549 -0.238096 1.92735 0
M  V30 2540 O 272.824 -1.1692 1.55435 0
M  V30 2541 C 273.107 2.04244 2.96574 0
M  V30 2542 C 272.96 3.56793 2.73896 0
M  V30 2543 C 274.279 1.88684 3.97601 0
M  V30 2544 H 271.398 0.439001 0.591985 0
M  V30 2545 H 274.04 1.60704 1.01361 0
M  V30 2546 H 272.19 1.70063 3.493 0
M  V30 2547 H 273.862 4.01077 2.27892 0
M  V30 2548 H 272.105 3.80548 2.08245 0
M  V30 2549 H 272.776 4.10706 3.68815 0
M  V30 2550 H 275.252 2.18584 3.54062 0
M  V30 2551 H 274.128 2.4961 4.88862 0
M  V30 2552 H 274.389 0.848343 4.33884 0
M  V30 2553 N 273.449 -1.08991 1.13837 0
M  V30 2554 C 274.359 -2.19301 0.833333 0
M  V30 2555 C 275.375 -1.73026 -0.183847 0
M  V30 2556 O 276.551 -2.01395 -0.0138092 0
M  V30 2557 C 273.616 -3.45323 0.308651 0
M  V30 2558 C 272.677 -4.06255 1.38764 0
M  V30 2559 C 271.91 -5.26262 0.887896 0
M  V30 2560 O 272.133 -5.69747 -0.27287 0
M  V30 2561 O 271.067 -5.78435 1.66421 0
M  V30 2562 H 274.893 -2.47854 1.75506 0
M  V30 2563 H 272.478 -1.18012 0.916166 0
M  V30 2564 H 274.36 -4.21394 0.0216739 0
M  V30 2565 H 273.035 -3.18362 -0.585431 0
M  V30 2566 H 271.942 -3.318 1.72799 0
M  V30 2567 H 273.275 -4.37452 2.25602 0
M  V30 2568 N 274.927 -0.932562 -1.27047 0
M  V30 2569 C 276.152 -0.591474 -1.98787 0
M  V30 2570 C 276.577 0.824601 -1.69062 0
M  V30 2571 O 275.935 1.5541 -0.933677 0
M  V30 2572 C 275.983 -0.829808 -3.50922 0
M  V30 2573 O 275.087 0.102266 -4.12273 0
M  V30 2574 H 274.428 -0.227185 -0.623926 0
M  V30 2575 H 276.958 -1.25314 -1.61733 0
M  V30 2576 H 276.968 -0.747292 -4.01098 0
M  V30 2577 H 275.643 -1.86201 -3.7189 0
M  V30 2578 H 274.22 -0.0305761 -3.72887 0
M  V30 2579 N 276.405 1.4127 -0.698611 0
M  V30 2580 C 277.816 1.84187 -0.305289 0
M  V30 2581 C 278.167 1.58449 1.15708 0
M  V30 2582 O 277.292 1.05651 1.88856 0
M  V30 2583 C 277.887 3.3435 -0.547314 0
M  V30 2584 C 276.446 3.75826 -0.207878 0
M  V30 2585 C 275.593 2.64647 -0.828099 0
M  V30 2586 H 278.544 1.30778 -0.89904 0
M  V30 2587 H 278.565 3.8001 0.192998 0
M  V30 2588 H 278.077 3.53051 -1.61172 0
M  V30 2589 H 276.178 3.62725 0.852143 0
M  V30 2590 H 276.291 4.74462 -0.665021 0
M  V30 2591 H 274.655 2.53395 -0.257458 0
M  V30 2592 H 275.438 2.86165 -1.89643 0
M  V30 2593 N 277.883 0.443576 1.51229 0
M  V30 2594 C 278.846 -0.353132 2.26463 0
M  V30 2595 C 279.846 -0.944338 1.3015 0
M  V30 2596 O 281.036 -0.817813 1.5381 0
M  V30 2597 C 278.168 -1.50023 3.06114 0
M  V30 2598 H 279.361 0.3063 2.98332 0
M  V30 2599 H 276.914 0.196902 1.55055 0
M  V30 2600 H 277.649 -2.19553 2.38677 0
M  V30 2601 H 277.434 -1.08241 3.76864 0
M  V30 2602 H 278.924 -2.06296 3.63087 0
M  V30 2603 N 279.361 -1.56624 0.175154 0
M  V30 2604 C 280.271 -2.21741 -0.766042 0
M  V30 2605 C 281.287 -1.21023 -1.25018 0
M  V30 2606 O 282.463 -1.53697 -1.3015 0
M  V30 2607 C 279.528 -2.84839 -1.97655 0
M  V30 2608 C 278.589 -4.00769 -1.53892 0
M  V30 2609 C 277.822 -4.60849 -2.69173 0
M  V30 2610 O 278.045 -4.19823 -3.86141 0
M  V30 2611 O 276.979 -5.50655 -2.43028 0
M  V30 2612 H 280.805 -3.02738 -0.241585 0
M  V30 2613 H 278.39 -1.49305 -0.053222 0
M  V30 2614 H 280.272 -3.24834 -2.68442 0
M  V30 2615 H 278.947 -2.06836 -2.48999 0
M  V30 2616 H 277.854 -3.65436 -0.80044 0
M  V30 2617 H 279.187 -4.80376 -1.07236 0
M  V30 2618 N 280.839 0.0985539 -1.57292 0
M  V30 2619 C 282.064 0.820196 -1.90493 0
M  V30 2620 C 282.489 1.71658 -0.769094 0
M  V30 2621 O 281.847 1.79133 0.279495 0
M  V30 2622 C 281.895 1.61242 -3.22542 0
M  V30 2623 O 280.999 2.72108 -3.09888 0
M  V30 2624 H 280.34 0.225547 -0.62452 0
M  V30 2625 H 282.87 0.0748159 -2.04463 0
M  V30 2626 H 282.88 1.99737 -3.55766 0
M  V30 2627 H 281.555 0.954535 -4.04798 0
M  V30 2628 H 280.132 2.36667 -2.88172 0
M  V30 2629 N 282.317 1.53212 0.369288 0
M  V30 2630 C 283.25 1.74166 1.4745 0
M  V30 2631 C 284.228 0.589923 1.51521 0
M  V30 2632 O 285.412 0.822078 1.69629 0
M  V30 2633 C 282.539 1.81711 2.8583 0
M  V30 2634 C 281.585 3.03649 2.99499 0
M  V30 2635 S 282.418 4.63242 2.6864 0
M  V30 2636 C 283.574 4.7363 4.09177 0
M  V30 2637 H 283.807 2.67636 1.29454 0
M  V30 2638 H 281.34 1.43754 0.563396 0
M  V30 2639 H 283.298 1.86743 3.65564 0
M  V30 2640 H 281.959 0.89299 3.01139 0
M  V30 2641 H 281.152 3.05526 4.00836 0
M  V30 2642 H 280.754 2.9671 2.27683 0
M  V30 2643 H 283.046 4.53456 5.03372 0
M  V30 2644 H 283.989 5.75682 4.12306 0
M  V30 2645 H 284.397 4.02295 3.96004 0
M  V30 2646 N 283.795 -0.628877 1.44509 0
M  V30 2647 C 285.02 -1.42048 1.5112 0
M  V30 2648 C 285.445 -1.87594 0.137818 0
M  V30 2649 O 284.803 -1.58873 -0.873437 0
M  V30 2650 C 284.851 -2.61541 2.48251 0
M  V30 2651 O 283.955 -3.61453 1.98559 0
M  V30 2652 H 283.296 -0.424942 0.510216 0
M  V30 2653 H 285.826 -0.767374 1.89664 0
M  V30 2654 H 285.836 -3.09057 2.66361 0
M  V30 2655 H 284.511 -2.27736 3.48007 0
M  V30 2656 H 283.088 -3.20731 1.90227 0
M  V30 2657 N 285.273 -1.31445 -0.869486 0
M  V30 2658 C 286.684 -1.19042 -1.43826 0
M  V30 2659 C 287.035 0.202919 -1.95148 0
M  V30 2660 O 286.16 1.10071 -1.86315 0
M  V30 2661 C 286.755 -2.15499 -2.6143 0
M  V30 2662 C 285.314 -2.07028 -3.14351 0
M  V30 2663 C 284.461 -2.04701 -1.87063 0
M  V30 2664 H 287.412 -1.43489 -0.677984 0
M  V30 2665 H 287.433 -1.74488 -3.38134 0
M  V30 2666 H 286.945 -3.16899 -2.24046 0
M  V30 2667 H 285.046 -1.08825 -3.56354 0
M  V30 2668 H 285.159 -2.96157 -3.766 0
M  V30 2669 H 283.523 -1.49724 -2.06046 0
M  V30 2670 H 284.306 -3.07857 -1.51917 0
M  V30 2671 N 286.751 1.08385 -1.14413 0
M  V30 2672 C 288 1.80153 -0.907076 0
M  V30 2673 C 288.313 1.87176 0.567851 0
M  V30 2674 O 289.519 2.55359 0.922172 0
M  V30 2675 C 287.975 3.23687 -1.57336 0
M  V30 2676 C 287.583 3.24897 -3.08457 0
M  V30 2677 C 289.327 4.00136 -1.41744 0
M  V30 2678 C 287.234 4.6302 -3.67921 0
M  V30 2679 H 286.164 0.675139 -0.335714 0
M  V30 2680 H 288.815 1.21733 -1.37307 0
M  V30 2681 H 287.197 3.82234 -1.03505 0
M  V30 2682 H 288.371 2.76055 -3.68958 0
M  V30 2683 H 286.686 2.61943 -3.2369 0
M  V30 2684 H 289.283 5.02201 -1.83572 0
M  V30 2685 H 289.626 4.14709 -0.363576 0
M  V30 2686 H 290.159 3.48058 -1.92614 0
M  V30 2687 H 286.898 4.5365 -4.73161 0
M  V30 2688 H 286.418 5.12143 -3.12201 0
M  V30 2689 H 288.097 5.31994 -3.68227 0
M  V30 2690 N 288.23 0.939286 1.26551 0
M  V30 2691 C 289.16 0.465044 2.28822 0
M  V30 2692 C 290.141 -0.480692 1.63167 0
M  V30 2693 O 291.326 -0.382955 1.90387 0
M  V30 2694 C 288.456 -0.27234 3.46231 0
M  V30 2695 C 287.41 0.58666 4.2396 0
M  V30 2696 C 286.736 -0.280573 5.33963 0
M  V30 2697 C 288.036 1.85704 4.88171 0
M  V30 2698 H 289.73 1.31979 2.68741 0
M  V30 2699 H 287.276 0.636061 1.29191 0
M  V30 2700 H 289.229 -0.615133 4.16886 0
M  V30 2701 H 287.953 -1.16121 3.0526 0
M  V30 2702 H 286.612 0.91232 3.55067 0
M  V30 2703 H 286.26 -1.16874 4.89234 0
M  V30 2704 H 285.96 0.29076 5.8688 0
M  V30 2705 H 287.484 -0.618678 6.07458 0
M  V30 2706 H 288.898 1.58161 5.51052 0
M  V30 2707 H 287.295 2.37279 5.51197 0
M  V30 2708 H 288.365 2.56957 4.11219 0
M  V30 2709 N 289.708 -1.40897 0.706093 0
M  V30 2710 C 291.124 -1.55042 0.37869 0
M  V30 2711 C 291.324 -1.67944 -1.11342 0
M  V30 2712 O 290.38 -1.66372 -1.89938 0
M  V30 2713 C 291.693 -2.78398 1.13643 0
M  V30 2714 C 293.241 -2.92206 1.12181 0
M  V30 2715 C 293.716 -4.18463 1.86152 0
M  V30 2716 N 295.207 -4.25443 1.83173 0
M  V30 2717 C 295.942 -5.2202 2.37239 0
M  V30 2718 N 295.438 -6.24563 2.99821 0
M  V30 2719 N 297.231 -5.14033 2.27435 0
M  V30 2720 H 289.382 -1.30769 1.67372 0
M  V30 2721 H 291.645 -0.631653 0.706907 0
M  V30 2722 H 291.351 -2.7511 2.19106 0
M  V30 2723 H 291.225 -3.70228 0.721853 0
M  V30 2724 H 293.612 -2.95004 0.0754171 0
M  V30 2725 H 293.693 -2.01521 1.57554 0
M  V30 2726 H 293.337 -4.16427 2.90776 0
M  V30 2727 H 293.267 -5.08141 1.38206 0
M  V30 2728 H 295.758 -3.51976 1.37556 0
M  V30 2729 H 296.071 -6.94665 3.38616 0
M  V30 2730 H 294.416 -6.25035 3.03902 0
M  V30 2731 H 297.607 -4.3285 1.78208 0
M  V30 2732 H 297.78 -5.89129 2.69873 0
M  V30 2733 N 291.186 -0.45159 -1.50991 0
M  V30 2734 C 292.432 0.110237 -2.025 0
M  V30 2735 C 292.765 1.41109 -1.33424 0
M  V30 2736 O 292.04 1.89135 -0.453659 0
M  V30 2737 C 292.323 0.314271 -3.58726 0
M  V30 2738 C 292.176 -1.00623 -4.38401 0
M  V30 2739 C 293.495 1.07767 -4.26702 0
M  V30 2740 H 290.614 0.0385897 -0.735989 0
M  V30 2741 H 293.256 -0.593374 -1.80497 0
M  V30 2742 H 291.406 0.913601 -3.77605 0
M  V30 2743 H 293.078 -1.64064 -4.31139 0
M  V30 2744 H 291.321 -1.6075 -4.02917 0
M  V30 2745 H 291.992 -0.817341 -5.45915 0
M  V30 2746 H 294.468 0.56986 -4.12179 0
M  V30 2747 H 293.344 1.18921 -5.35863 0
M  V30 2748 H 293.605 2.10939 -3.88532 0
M  V30 2749 N 292.664 1.56529 -0.183458 0
M  V30 2750 C 293.596 2.15747 0.773697 0
M  V30 2751 C 294.609 1.1162 1.1851 0
M  V30 2752 O 295.798 1.3876 1.12285 0
M  V30 2753 C 292.898 2.6952 2.05456 0
M  V30 2754 C 292.071 3.98429 1.8048 0
M  V30 2755 C 291.13 4.37145 2.92901 0
M  V30 2756 O 290.156 5.04791 2.6301 0
M  V30 2757 N 291.358 3.99695 4.2098 0
M  V30 2758 H 294.123 2.98505 0.26736 0
M  V30 2759 H 291.684 1.619 -0.0010878 0
M  V30 2760 H 293.676 2.92412 2.79781 0
M  V30 2761 H 292.246 1.91282 2.47245 0
M  V30 2762 H 291.466 3.8379 0.899947 0
M  V30 2763 H 292.754 4.82597 1.61175 0
M  V30 2764 H 292.152 3.4526 4.48121 0
M  V30 2765 H 290.709 4.27562 4.9197 0
M  V30 2766 N 294.142 -0.090211 1.57342 0
M  V30 2767 C 295.389 -0.792807 1.86335 0
M  V30 2768 C 295.717 -1.78494 0.772662 0
M  V30 2769 O 294.972 -1.94305 -0.233258 0
M  V30 2770 C 295.271 -1.55222 3.21933 0
M  V30 2771 C 294.937 -0.701765 4.45406 0
M  V30 2772 C 293.599 -0.467334 4.78925 0
M  V30 2773 C 295.951 -0.11086 5.21082 0
M  V30 2774 C 293.279 0.367785 5.85546 0
M  V30 2775 C 295.631 0.711609 6.28585 0
M  V30 2776 C 294.295 0.956086 6.60617 0
M  V30 2777 H 293.565 -0.290109 0.681849 0
M  V30 2778 H 296.212 -0.0541332 1.91423 0
M  V30 2779 H 294.517 -2.3626 3.12551 0
M  V30 2780 H 296.214 -2.10032 3.41595 0
M  V30 2781 H 292.804 -0.894598 4.1916 0
M  V30 2782 H 296.988 -0.279129 4.95514 0
M  V30 2783 H 292.244 0.566128 6.08773 0
M  V30 2784 H 296.418 1.17632 6.86393 0
M  V30 2785 H 294.045 1.60499 7.43064 0
M  V30 2786 N 295.62 -1.53406 -0.361157 0
M  V30 2787 C 296.867 -1.69802 -1.10333 0
M  V30 2788 C 297.195 -0.452087 -1.89173 0
M  V30 2789 O 296.45 0.566017 -1.87336 0
M  V30 2790 C 296.749 -2.90211 -2.08596 0
M  V30 2791 C 296.415 -4.26539 -1.46203 0
M  V30 2792 C 295.077 -4.6361 -1.28915 0
M  V30 2793 C 297.429 -5.113 -1.01101 0
M  V30 2794 C 294.757 -5.83075 -0.651157 0
M  V30 2795 C 297.109 -6.31415 -0.387007 0
M  V30 2796 C 295.773 -6.67195 -0.201657 0
M  V30 2797 H 295.043 -0.621351 -0.403737 0
M  V30 2798 H 297.69 -1.87598 -0.384609 0
M  V30 2799 H 295.995 -2.66946 -2.86788 0
M  V30 2800 H 297.692 -3.00091 -2.65982 0
M  V30 2801 H 294.282 -3.97352 -1.60653 0
M  V30 2802 H 298.466 -4.83206 -1.13249 0
M  V30 2803 H 293.722 -6.09385 -0.496006 0
M  V30 2804 H 297.896 -6.96394 -0.0293563 0
M  V30 2805 H 295.523 -7.59628 0.294766 0
M  V30 2806 N 297.098 0.621204 -1.44841 0
M  V30 2807 C 298.061 1.71459 -1.521 0
M  V30 2808 C 299.061 1.55696 -0.401933 0
M  V30 2809 O 300.251 1.61011 -0.664925 0
M  V30 2810 C 297.383 3.10624 -1.40447 0
M  V30 2811 H 298.576 1.66394 -2.49506 0
M  V30 2812 H 296.129 0.835745 -1.3208 0
M  V30 2813 H 296.864 3.21277 -0.441737 0
M  V30 2814 H 296.649 3.23473 -2.21602 0
M  V30 2815 H 298.139 3.90293 -1.4853 0
M  V30 2816 N 298.576 1.31904 0.862503 0
M  V30 2817 C 299.853 1.12644 1.59908 0
M  V30 2818 C 300.233 -0.316104 2.0872 0
M  V30 2819 O 299.581 -1.31145 1.87118 0
M  V30 2820 C 299.791 2.1472 2.7513 0
M  V30 2821 C 301.139 2.47637 3.44907 0
M  V30 2822 O 302.163 2.13205 2.85346 0
M  V30 2823 O 301.022 3.06632 4.52371 0
M  V30 2824 H 298.116 0.43416 0.703871 0
M  V30 2825 H 300.662 1.43408 0.907314 0
M  V30 2826 H 299.434 3.1172 2.3653 0
M  V30 2827 H 299.057 1.84905 3.51989 0
M  V30 2828 N 300.054 -1.07777 1.14986 0
M  V30 2829 C 301.301 -1.8029 0.922056 0
M  V30 2830 C 301.629 -1.86531 -0.55105 0
M  V30 2831 O 300.884 -1.34189 -1.42449 0
M  V30 2832 C 301.183 -3.25495 1.47608 0
M  V30 2833 C 300.849 -3.39361 2.96893 0
M  V30 2834 C 299.511 -3.42852 3.37647 0
M  V30 2835 C 301.863 -3.42512 3.92854 0
M  V30 2836 C 299.191 -3.47094 4.73015 0
M  V30 2837 C 301.543 -3.4829 5.28088 0
M  V30 2838 C 300.207 -3.50058 5.68345 0
M  V30 2839 H 299.477 -0.659727 0.337404 0
M  V30 2840 H 302.124 -1.26854 1.43459 0
M  V30 2841 H 300.429 -3.81683 0.88463 0
M  V30 2842 H 302.126 -3.80168 1.27568 0
M  V30 2843 H 298.716 -3.37339 2.64387 0
M  V30 2844 H 302.9 -3.3904 3.62444 0
M  V30 2845 H 298.156 -3.46758 5.03556 0
M  V30 2846 H 302.33 -3.49675 6.02246 0
M  V30 2847 H 299.957 -3.53097 6.73221 0
M  V30 2848 N 301.532 -0.945985 -1.26051 0
M  V30 2849 C 302.495 -0.463897 -2.24456 0
M  V30 2850 C 303.495 0.427655 -1.55009 0
M  V30 2851 O 304.685 0.226157 -1.72726 0
M  V30 2852 C 301.817 0.330812 -3.39291 0
M  V30 2853 H 303.01 -1.33357 -2.68619 0
M  V30 2854 H 300.563 -0.728416 -1.38289 0
M  V30 2855 H 301.298 1.21852 -3.00537 0
M  V30 2856 H 301.083 -0.308679 -3.90883 0
M  V30 2857 H 302.573 0.657865 -4.12386 0
M  V30 2858 N 303.011 1.40521 -0.713556 0
M  V30 2859 C 303.958 2.30723 -0.059684 0
M  V30 2860 C 304.928 1.48079 0.752448 0
M  V30 2861 O 306.113 1.76823 0.71681 0
M  V30 2862 C 303.253 3.34274 0.857594 0
M  V30 2863 C 302.366 4.31986 0.0351536 0
M  V30 2864 C 301.501 5.22605 0.951724 0
M  V30 2865 C 300.54 6.11976 0.123253 0
M  V30 2866 N 299.677 6.9502 0.99459 0
M  V30 2867 H 304.517 2.86074 -0.834596 0
M  V30 2868 H 302.054 1.40879 -0.42326 0
M  V30 2869 H 304.012 3.92879 1.40364 0
M  V30 2870 H 302.642 2.8043 1.59871 0
M  V30 2871 H 301.694 3.7518 -0.628052 0
M  V30 2872 H 303.006 4.95101 -0.606347 0
M  V30 2873 H 302.16 5.86131 1.56638 0
M  V30 2874 H 300.899 4.59759 1.62705 0
M  V30 2875 H 299.904 5.47482 -0.50435 0
M  V30 2876 H 301.129 6.76881 -0.548539 0
M  V30 2877 H 299.075 6.34764 1.6556 0
M  V30 2878 H 298.992 7.54892 0.40908 0
M  V30 2879 H 300.26 7.62997 1.59549 0
M  V30 2880 N 304.489 0.459591 1.5075 0
M  V30 2881 C 305.421 -0.37665 2.26084 0
M  V30 2882 C 306.434 -0.967109 1.30961 0
M  V30 2883 O 307.623 -0.857468 1.56556 0
M  V30 2884 C 304.723 -1.54112 3.01832 0
M  V30 2885 C 303.896 -1.06553 4.24223 0
M  V30 2886 C 302.955 -2.1027 4.82362 0
M  V30 2887 O 301.981 -1.68798 5.43595 0
M  V30 2888 N 303.183 -3.42974 4.68347 0
M  V30 2889 H 305.948 0.269124 2.98489 0
M  V30 2890 H 303.509 0.28972 1.59287 0
M  V30 2891 H 305.501 -2.23165 3.37608 0
M  V30 2892 H 304.071 -2.0918 2.32298 0
M  V30 2893 H 303.291 -0.201274 3.93686 0
M  V30 2894 H 304.579 -0.725516 5.03601 0
M  V30 2895 H 303.977 -3.79385 4.19623 0
M  V30 2896 H 302.534 -4.07858 5.08424 0
M  V30 2897 N 305.967 -1.56429 0.191757 0
M  V30 2898 C 306.93 -2.17707 -0.716688 0
M  V30 2899 C 307.93 -1.13061 -1.14341 0
M  V30 2900 O 309.12 -1.38464 -1.05704 0
M  V30 2901 C 306.252 -2.77644 -1.97804 0
M  V30 2902 H 307.445 -2.99342 -0.1829 0
M  V30 2903 H 304.998 -1.56193 -0.0578566 0
M  V30 2904 H 305.733 -1.99799 -2.55443 0
M  V30 2905 H 305.518 -3.54246 -1.68083 0
M  V30 2906 H 307.008 -3.24708 -2.62592 0
M  V30 2907 N 307.445 0.0818655 -1.57387 0
M  V30 2908 C 308.691 0.784074 -1.8703 0
M  V30 2909 C 309.024 1.77729 -0.782689 0
M  V30 2910 O 308.299 1.93384 0.208051 0
M  V30 2911 C 308.582 1.50105 -3.27323 0
M  V30 2912 C 308.435 0.524925 -4.46727 0
M  V30 2913 C 309.754 2.44843 -3.65705 0
M  V30 2914 H 306.873 0.283582 -0.680257 0
M  V30 2915 H 309.515 0.0474352 -1.89941 0
M  V30 2916 H 307.665 2.12897 -3.24972 0
M  V30 2917 H 309.337 -0.0970111 -4.61198 0
M  V30 2918 H 307.58 -0.160606 -4.33503 0
M  V30 2919 H 308.251 1.064 -5.41648 0
M  V30 2920 H 310.727 1.92135 -3.69085 0
M  V30 2921 H 309.603 2.92018 -4.64776 0
M  V30 2922 H 309.864 3.29197 -2.95096 0
M  V30 2923 N 308.923 1.53595 0.353017 0
M  V30 2924 C 309.873 1.77299 1.43349 0
M  V30 2925 C 310.857 0.627884 1.48143 0
M  V30 2926 O 312.049 0.88697 1.53173 0
M  V30 2927 C 309.178 1.97757 2.80619 0
M  V30 2928 C 308.264 3.18305 2.80254 0
M  V30 2929 N 308.655 4.39967 2.49526 0
M  V30 2930 C 306.953 3.19283 3.11407 0
M  V30 2931 C 307.654 5.21772 2.57156 0
M  V30 2932 N 306.63 4.58269 2.92388 0
M  V30 2933 H 310.432 2.68963 1.18474 0
M  V30 2934 H 307.946 1.52391 0.561306 0
M  V30 2935 H 309.943 2.1287 3.58458 0
M  V30 2936 H 308.603 1.07329 3.06448 0
M  V30 2937 H 309.614 4.67482 2.22893 0
M  V30 2938 H 306.291 2.3879 3.4247 0
M  V30 2939 H 307.681 6.2885 2.36638 0
M  V30 2940 N 310.401 -0.613514 1.45168 0
M  V30 2941 C 311.647 -1.37471 1.49096 0
M  V30 2942 C 311.98 -1.93765 0.129901 0
M  V30 2943 O 311.255 -1.74707 -0.854858 0
M  V30 2944 C 311.538 -2.52701 2.56542 0
M  V30 2945 C 311.391 -2.01643 4.0207 0
M  V30 2946 C 312.71 -3.54849 2.60327 0
M  V30 2947 H 309.829 -0.498502 0.54283 0
M  V30 2948 H 312.471 -0.692125 1.76945 0
M  V30 2949 H 310.621 -3.10931 2.32926 0
M  V30 2950 H 312.293 -1.48108 4.36877 0
M  V30 2951 H 310.536 -1.32688 4.13009 0
M  V30 2952 H 311.207 -2.84681 4.72928 0
M  V30 2953 H 313.683 -3.0645 2.81474 0
M  V30 2954 H 312.559 -4.32973 3.37381 0
M  V30 2955 H 312.82 -4.10079 1.6519 0
M  V30 2956 N 311.879 -1.3236 -0.855495 0
M  V30 2957 C 312.842 -1.21164 -1.94556 0
M  V30 2958 C 313.842 -0.134908 -1.60233 0
M  V30 2959 O 315.032 -0.385249 -1.69887 0
M  V30 2960 C 312.164 -0.863192 -3.29791 0
M  V30 2961 H 313.357 -2.18038 -2.05911 0
M  V30 2962 H 310.91 -1.16179 -1.04557 0
M  V30 2963 H 311.645 0.103769 -3.24134 0
M  V30 2964 H 311.43 -1.64166 -3.56078 0
M  V30 2965 H 312.92 -0.809156 -4.09686 0
M  V30 2966 N 313.357 1.07166 -1.15556 0
M  V30 2967 C 314.304 2.14417 -0.854055 0
M  V30 2968 C 315.274 1.64965 0.193806 0
M  V30 2969 O 316.459 1.90703 0.0609443 0
M  V30 2970 C 313.599 3.43304 -0.351574 0
M  V30 2971 C 312.712 4.06537 -1.46123 0
M  V30 2972 C 311.847 5.23266 -0.914677 0
M  V30 2973 C 310.886 5.78464 -2.00114 0
M  V30 2974 N 310.023 6.86521 -1.47083 0
M  V30 2975 H 314.863 2.39548 -1.77259 0
M  V30 2976 H 312.4 1.17543 -0.884425 0
M  V30 2977 H 314.358 4.17179 -0.0419409 0
M  V30 2978 H 312.988 3.18419 0.530037 0
M  V30 2979 H 312.04 3.30297 -1.88701 0
M  V30 2980 H 313.352 4.43567 -2.28144 0
M  V30 2981 H 312.506 6.04131 -0.557698 0
M  V30 2982 H 311.245 4.87658 -0.0636583 0
M  V30 2983 H 310.25 4.96243 -2.36692 0
M  V30 2984 H 311.475 6.16126 -2.85597 0
M  V30 2985 H 309.421 6.52849 -0.642198 0
M  V30 2986 H 309.338 7.22446 -2.22729 0
M  V30 2987 H 310.606 7.71087 -1.14215 0
M  V30 2988 N 314.835 0.952656 1.25548 0
M  V30 2989 C 315.767 0.428609 2.25157 0
M  V30 2990 C 316.78 -0.454428 1.56329 0
M  V30 2991 O 317.969 -0.263023 1.76552 0
M  V30 2992 C 315.069 -0.401972 3.36508 0
M  V30 2993 C 314.242 0.467601 4.34893 0
M  V30 2994 C 313.301 -0.30445 5.25319 0
M  V30 2995 O 312.327 0.296473 5.68427 0
M  V30 2996 N 313.529 -1.59805 5.5807 0
M  V30 2997 H 316.294 1.28497 2.70756 0
M  V30 2998 H 313.855 0.822798 1.39433 0
M  V30 2999 H 315.847 -0.926134 3.9396 0
M  V30 3000 H 314.417 -1.15918 2.90313 0
M  V30 3001 H 313.637 1.17288 3.76347 0
M  V30 3002 H 314.925 1.06119 4.97611 0
M  V30 3003 H 314.323 -2.10823 5.24948 0
M  V30 3004 H 312.88 -2.06822 6.18116 0
M  V30 3005 N 316.313 -1.40141 0.720998 0
M  V30 3006 C 317.261 -2.3252 0.0608547 0
M  V30 3007 C 318.255 -1.52326 -0.741152 0
M  V30 3008 O 319.461 -1.68089 -0.643911 0
M  V30 3009 H 315.836 -0.751999 0.000876664 0
M  V30 3010 H 317.807 -2.8584 0.856614 0
M  V30 3011 C 316.556 -3.37331 -0.842809 0
M  V30 3012 H 315.879 -3.99108 -0.235084 0
M  V30 3013 H 317.319 -4.04452 -1.27257 0
M  V30 3014 C 315.778 -2.73246 -1.97074 0
M  V30 3015 O 316.308 -2.59998 -3.06209 0
M  V30 3016 N 314.514 -2.31547 -1.75597 0
M  V30 3017 H 314.061 -2.42522 -0.868368 0
M  V30 3018 H 314.019 -1.89007 -2.51244 0
M  V30 3019 N 317.792 -0.46758 -1.50504 0
M  V30 3020 C 319.022 0.086288 -2.0642 0
M  V30 3021 C 319.43 1.34369 -1.33197 0
M  V30 3022 O 318.773 1.79431 -0.393747 0
M  V30 3023 C 318.835 0.443846 -3.5675 0
M  V30 3024 C 318.499 -0.711035 -4.51435 0
M  V30 3025 C 319.496 -1.59205 -4.94924 0
M  V30 3026 C 317.181 -0.900363 -4.94165 0
M  V30 3027 C 319.175 -2.64683 -5.79846 0
M  V30 3028 C 316.862 -1.95837 -5.7887 0
M  V30 3029 C 317.86 -2.82997 -6.21612 0
M  V30 3030 O 317.548 -3.86977 -7.0463 0
M  V30 3031 H 317.28 -0.00217814 -0.675996 0
M  V30 3032 H 319.834 -0.654346 -1.94698 0
M  V30 3033 H 318.064 1.23762 -3.6636 0
M  V30 3034 H 319.753 0.932386 -3.95046 0
M  V30 3035 H 320.519 -1.45745 -4.62583 0
M  V30 3036 H 316.398 -0.231427 -4.60419 0
M  V30 3037 H 319.942 -3.32745 -6.13128 0
M  V30 3038 H 315.839 -2.09305 -6.10624 0
M  V30 3039 H 316.607 -3.83923 -7.22873 0
M  V30 3040 N 319.27 1.56325 -0.20005 0
M  V30 3041 C 320.2 2.22318 0.713916 0
M  V30 3042 C 321.181 1.18788 1.21752 0
M  V30 3043 O 322.366 1.47309 1.26545 0
M  V30 3044 C 319.496 2.88639 1.93144 0
M  V30 3045 C 318.45 3.98457 1.56255 0
M  V30 3046 C 317.776 4.51967 2.85709 0
M  V30 3047 C 319.076 5.16612 0.768747 0
M  V30 3048 H 320.77 2.98952 0.163755 0
M  V30 3049 H 318.316 1.43792 0.0773219 0
M  V30 3050 H 320.269 3.33491 2.57608 0
M  V30 3051 H 318.993 2.09419 2.50621 0
M  V30 3052 H 317.652 3.54305 0.941471 0
M  V30 3053 H 317.3 3.69503 3.41287 0
M  V30 3054 H 317 5.26071 2.6177 0
M  V30 3055 H 318.524 4.99523 3.51154 0
M  V30 3056 H 319.938 5.57977 1.3166 0
M  V30 3057 H 318.335 5.96812 0.627286 0
M  V30 3058 H 319.405 4.84358 -0.229168 0
M  V30 3059 N 320.748 -0.0735177 1.57428 0
M  V30 3060 C 321.978 -0.78483 1.91112 0
M  V30 3061 C 322.386 -1.71729 0.7941 0
M  V30 3062 O 321.729 -1.82105 -0.241542 0
M  V30 3063 C 321.791 -1.63346 3.20247 0
M  V30 3064 C 321.455 -0.870557 4.48632 0
M  V30 3065 C 322.452 -0.19058 5.19551 0
M  V30 3066 C 320.137 -0.838242 4.95256 0
M  V30 3067 C 322.131 0.511503 6.35344 0
M  V30 3068 C 319.818 -0.132386 6.10957 0
M  V30 3069 C 320.816 0.541288 6.80852 0
M  V30 3070 O 320.504 1.23578 7.94345 0
M  V30 3071 H 320.236 -0.228408 0.636244 0
M  V30 3072 H 322.79 -0.0486039 2.05342 0
M  V30 3073 H 321.02 -2.41245 3.02222 0
M  V30 3074 H 322.709 -2.22329 3.39595 0
M  V30 3075 H 323.475 -0.206864 4.84559 0
M  V30 3076 H 319.354 -1.35206 4.40727 0
M  V30 3077 H 322.898 1.03789 6.89836 0
M  V30 3078 H 318.795 -0.114023 6.45399 0
M  V30 3079 H 319.563 1.14487 8.10454 0
M  V30 3080 N 322.226 -1.5378 -0.344866 0
M  V30 3081 C 323.472 -1.71216 -1.08687 0
M  V30 3082 C 323.805 -0.473281 -1.88345 0
M  V30 3083 O 323.08 0.52968 -1.87149 0
M  V30 3084 C 323.363 -2.97486 -2.02914 0
M  V30 3085 C 323.216 -4.31579 -1.26727 0
M  V30 3086 C 324.535 -3.19422 -3.0275 0
M  V30 3087 H 321.654 -0.62301 -0.393735 0
M  V30 3088 H 324.296 -1.8645 -0.365563 0
M  V30 3089 H 322.446 -2.84629 -2.64421 0
M  V30 3090 H 324.118 -4.56284 -0.67845 0
M  V30 3091 H 322.361 -4.30049 -0.569273 0
M  V30 3092 H 323.032 -5.16106 -1.95803 0
M  V30 3093 H 325.508 -3.316 -2.51357 0
M  V30 3094 H 324.384 -4.09169 -3.65885 0
M  V30 3095 H 324.645 -2.35656 -3.74057 0
M  V30 3096 N 323.704 0.605807 -1.45491 0
M  V30 3097 C 324.95 1.36679 -1.49823 0
M  V30 3098 C 325.283 1.93693 -0.140175 0
M  V30 3099 O 324.558 1.75158 0.845581 0
M  V30 3100 C 324.841 2.51337 -2.57879 0
M  V30 3101 C 324.694 1.99508 -4.03134 0
M  V30 3102 C 326.013 3.53463 -2.62205 0
M  V30 3103 H 323.132 0.495617 -0.545466 0
M  V30 3104 H 325.774 0.682732 -1.7731 0
M  V30 3105 H 323.924 3.09691 -2.34571 0
M  V30 3106 H 325.596 1.45789 -4.37656 0
M  V30 3107 H 323.839 1.30496 -4.13707 0
M  V30 3108 H 324.51 2.82169 -4.74431 0
M  V30 3109 H 326.986 3.04953 -2.83095 0
M  V30 3110 H 325.862 4.31178 -3.39672 0
M  V30 3111 H 326.123 4.09197 -1.67363 0
M  V30 3112 N 325.182 1.32811 0.848464 0
M  V30 3113 C 326.431 1.23075 1.59798 0
M  V30 3114 C 326.744 -0.204419 1.94529 0
M  V30 3115 O 327.95 -0.423701 2.68173 0
M  V30 3116 C 326.406 2.15594 2.88179 0
M  V30 3117 C 326.014 3.64228 2.60849 0
M  V30 3118 C 327.758 2.14709 3.66197 0
M  V30 3119 C 325.665 4.48689 3.85269 0
M  V30 3120 H 324.595 0.457091 0.599653 0
M  V30 3121 H 327.246 1.57813 0.936342 0
M  V30 3122 H 325.628 1.73778 3.55833 0
M  V30 3123 H 326.802 4.14424 2.01467 0
M  V30 3124 H 325.117 3.67306 1.96151 0
M  V30 3125 H 327.714 2.75046 4.58534 0
M  V30 3126 H 328.057 1.13966 4.00397 0
M  V30 3127 H 328.59 2.54837 3.05455 0
M  V30 3128 H 325.329 5.5027 3.56207 0
M  V30 3129 H 324.849 4.03241 4.44024 0
M  V30 3130 H 326.528 4.62006 4.52946 0
M  V30 3131 N 326.66 -1.06551 1.16123 0
M  V30 3132 C 327.907 -1.79302 0.941126 0
M  V30 3133 C 328.235 -1.87105 -0.531235 0
M  V30 3134 O 327.49 -1.35692 -1.41018 0
M  V30 3135 C 327.789 -3.23911 1.51052 0
M  V30 3136 C 327.455 -3.36193 3.00475 0
M  V30 3137 C 326.117 -3.39252 3.41265 0
M  V30 3138 C 328.469 -3.38326 3.96465 0
M  V30 3139 C 325.797 -3.42057 4.76669 0
M  V30 3140 C 328.149 -3.4267 5.31752 0
M  V30 3141 C 326.813 -3.4401 5.72026 0
M  V30 3142 H 326.083 -0.656111 0.344382 0
M  V30 3143 H 328.73 -1.25325 1.44796 0
M  V30 3144 H 327.035 -3.80723 0.925063 0
M  V30 3145 H 328.732 -3.78793 1.31593 0
M  V30 3146 H 325.322 -3.34516 2.6795 0
M  V30 3147 H 329.506 -3.35176 3.6602 0
M  V30 3148 H 324.762 -3.41398 5.07206 0
M  V30 3149 H 328.936 -3.43268 6.05921 0
M  V30 3150 H 326.563 -3.45937 6.76928 0
M  V30 3151 N 328.138 -0.959301 -1.25041 0
M  V30 3152 C 329.068 -0.501388 -2.28053 0
M  V30 3153 C 330.049 0.454673 -1.63911 0
M  V30 3154 O 331.234 0.352618 -1.90972 0
M  V30 3155 C 328.364 0.217224 -3.4662 0
M  V30 3156 C 327.318 -0.654034 -4.22973 0
M  V30 3157 C 326.644 0.195589 -5.34342 0
M  V30 3158 C 327.944 -1.93447 -4.85155 0
M  V30 3159 H 329.638 -1.36238 -2.66608 0
M  V30 3160 H 327.184 -0.656534 -1.28163 0
M  V30 3161 H 329.137 0.548732 -4.17812 0
M  V30 3162 H 327.861 1.1125 -3.07068 0
M  V30 3163 H 326.52 -0.968693 -3.5357 0
M  V30 3164 H 326.168 1.09076 -4.91031 0
M  V30 3165 H 325.868 -0.384091 -5.86343 0
M  V30 3166 H 327.392 0.521958 -6.08365 0
M  V30 3167 H 328.806 -1.66908 -5.48466 0
M  V30 3168 H 327.203 -2.46018 -5.47353 0
M  V30 3169 H 328.273 -2.63466 -4.07079 0
M  V30 3170 N 329.616 1.39756 -0.72842 0
M  V30 3171 C 330.863 2.00645 -0.273487 0
M  V30 3172 C 331.191 1.57786 1.13727 0
M  V30 3173 O 330.446 0.794886 1.7883 0
M  V30 3174 C 330.745 3.56002 -0.315776 0
M  V30 3175 C 330.411 4.18489 -1.67863 0
M  V30 3176 C 329.073 4.3527 -2.05166 0
M  V30 3177 C 331.425 4.53219 -2.57375 0
M  V30 3178 C 328.753 4.84069 -3.31503 0
M  V30 3179 C 331.105 5.03423 -3.83077 0
M  V30 3180 C 329.769 5.18413 -4.20481 0
M  V30 3181 H 329.039 0.734211 -0.100076 0
M  V30 3182 H 331.686 1.6718 -0.933972 0
M  V30 3183 H 329.991 3.89452 0.428285 0
M  V30 3184 H 331.688 4.00963 0.0542575 0
M  V30 3185 H 328.278 4.05824 -1.37858 0
M  V30 3186 H 332.462 4.39878 -2.29827 0
M  V30 3187 H 327.718 4.93859 -3.60435 0
M  V30 3188 H 331.892 5.2927 -4.52599 0
M  V30 3189 H 329.519 5.55987 -5.18443 0
M  V30 3190 N 331.094 0.475555 1.50254 0
M  V30 3191 C 332.341 -0.0778919 2.0235 0
M  V30 3192 C 332.669 -1.39319 1.35722 0
M  V30 3193 O 331.924 -1.89888 0.473395 0
M  V30 3194 C 332.223 -0.305114 3.56095 0
M  V30 3195 C 331.889 0.92903 4.41225 0
M  V30 3196 C 330.551 1.26739 4.6421 0
M  V30 3197 C 332.903 1.75054 4.90923 0
M  V30 3198 C 330.231 2.42724 5.34137 0
M  V30 3199 C 332.583 2.9017 5.62125 0
M  V30 3200 C 331.247 3.24416 5.83362 0
M  V30 3201 H 330.517 -0.0285027 0.740452 0
M  V30 3202 H 333.164 0.630543 1.80821 0
M  V30 3203 H 331.469 -1.09584 3.76163 0
M  V30 3204 H 333.166 -0.747377 3.93974 0
M  V30 3205 H 329.756 0.655428 4.23559 0
M  V30 3206 H 333.94 1.50231 4.73016 0
M  V30 3207 H 329.196 2.69525 5.48786 0
M  V30 3208 H 333.37 3.54169 5.99614 0
M  V30 3209 H 330.997 4.14396 6.37323 0
M  V30 3210 N 332.573 -1.56217 0.208337 0
M  V30 3211 C 333.819 -1.98242 -0.427552 0
M  V30 3212 C 334.152 -1.09554 -1.60348 0
M  V30 3213 O 333.427 -0.15035 -1.93918 0
M  V30 3214 C 333.71 -3.4931 -0.874907 0
M  V30 3215 C 333.563 -4.48773 0.303751 0
M  V30 3216 C 334.882 -4.04424 -1.73577 0
M  V30 3217 H 332.001 -0.720744 -0.153936 0
M  V30 3218 H 334.643 -1.87586 0.30192 0
M  V30 3219 H 332.793 -3.58522 -1.49648 0
M  V30 3220 H 334.465 -4.51586 0.941682 0
M  V30 3221 H 332.708 -4.23194 0.953375 0
M  V30 3222 H 333.379 -5.51976 -0.0519883 0
M  V30 3223 H 335.855 -3.98075 -1.21143 0
M  V30 3224 H 334.731 -5.1047 -2.01771 0
M  V30 3225 H 334.992 -3.50494 -2.69456 0
M  V30 3226 N 334.051 0.0651679 -1.57465 0
M  V30 3227 C 335.3 0.761916 -1.86756 0
M  V30 3228 C 335.613 1.78406 -0.801925 0
M  V30 3229 O 336.819 2.53084 -0.982885 0
M  V30 3230 C 335.275 1.40603 -3.31299 0
M  V30 3231 C 334.883 0.422115 -4.46007 0
M  V30 3232 C 336.627 2.08476 -3.69781 0
M  V30 3233 C 334.534 1.07252 -5.81593 0
M  V30 3234 H 333.464 0.288308 -0.696702 0
M  V30 3235 H 336.115 0.015344 -1.83494 0
M  V30 3236 H 334.497 2.20109 -3.29193 0
M  V30 3237 H 335.671 -0.343613 -4.59517 0
M  V30 3238 H 333.986 -0.152527 -4.16121 0
M  V30 3239 H 336.583 2.57925 -4.68379 0
M  V30 3240 H 336.926 2.88712 -2.99919 0
M  V30 3241 H 337.459 1.35792 -3.73905 0
M  V30 3242 H 334.198 0.310342 -6.54765 0
M  V30 3243 H 333.718 1.80895 -5.71872 0
M  V30 3244 H 335.397 1.59043 -6.27148 0
M  V30 3245 N 335.529 1.53961 0.336706 0
M  V30 3246 C 336.477 1.83136 1.43401 0
M  V30 3247 C 337.471 0.702313 1.54156 0
M  V30 3248 O 338.677 0.885765 1.56698 0
M  V30 3249 H 335.052 0.580309 0.478273 0
M  V30 3250 H 337.023 2.74925 1.16012 0
M  V30 3251 C 335.772 2.06385 2.79822 0
M  V30 3252 H 335.095 2.92718 2.72316 0
M  V30 3253 H 336.535 2.30761 3.55704 0
M  V30 3254 C 334.994 0.851414 3.25964 0
M  V30 3255 O 335.524 0.0541904 4.01663 0
M  V30 3256 N 333.73 0.66672 2.82848 0
M  V30 3257 H 333.277 1.31665 2.21409 0
M  V30 3258 H 333.235 -0.143032 3.14074 0
M  V30 3259 N 337.007 -0.598083 1.45811 0
M  V30 3260 C 338.256 -1.35295 1.49594 0
M  V30 3261 C 338.569 -1.95057 0.145679 0
M  V30 3262 O 339.775 -2.71431 0.0612099 0
M  V30 3263 C 338.231 -2.45124 2.63519 0
M  V30 3264 C 337.839 -1.91732 4.04899 0
M  V30 3265 C 339.583 -3.2205 2.76558 0
M  V30 3266 C 337.49 -2.991 5.1019 0
M  V30 3267 H 336.42 -0.508552 0.556679 0
M  V30 3268 H 339.071 -0.639977 1.71978 0
M  V30 3269 H 337.453 -3.19149 2.34435 0
M  V30 3270 H 338.627 -1.24352 4.43704 0
M  V30 3271 H 336.942 -1.27522 3.96393 0
M  V30 3272 H 339.539 -4.0215 3.52391 0
M  V30 3273 H 339.882 -3.73663 1.83526 0
M  V30 3274 H 340.415 -2.55127 3.05213 0
M  V30 3275 H 337.154 -2.52393 6.04961 0
M  V30 3276 H 336.674 -3.65017 4.75944 0
M  V30 3277 H 338.353 -3.63318 5.35359 0
M  V30 3278 N 338.485 -1.33259 -0.841409 0
M  V30 3279 C 339.415 -1.25926 -1.96634 0
M  V30 3280 C 340.396 -0.140349 -1.6952 0
M  V30 3281 O 341.581 -0.329707 -1.91381 0
M  V30 3282 C 338.711 -0.99512 -3.32738 0
M  V30 3283 C 337.665 -2.0767 -3.74242 0
M  V30 3284 C 336.991 -1.66474 -5.08125 0
M  V30 3285 C 338.291 -3.49318 -3.88297 0
M  V30 3286 H 339.985 -2.20046 -2.03027 0
M  V30 3287 H 337.531 -1.05931 -0.975425 0
M  V30 3288 H 339.484 -0.930323 -4.11002 0
M  V30 3289 H 338.208 -0.0183004 -3.26595 0
M  V30 3290 H 336.867 -2.13187 -2.98239 0
M  V30 3291 H 336.515 -0.675012 -4.9845 0
M  V30 3292 H 336.215 -2.3885 -5.36865 0
M  V30 3293 H 337.739 -1.61455 -5.88867 0
M  V30 3294 H 339.153 -3.46316 -4.56879 0
M  V30 3295 H 337.55 -4.20158 -4.28471 0
M  V30 3296 H 338.62 -3.8801 -2.9082 0
M  V30 3297 N 339.963 1.05934 -1.16686 0
M  V30 3298 C 340.893 2.1546 -0.899949 0
M  V30 3299 C 341.874 1.69391 0.155154 0
M  V30 3300 O 343.059 1.94199 0.00648693 0
M  V30 3301 C 340.189 3.44939 -0.404241 0
M  V30 3302 C 339.143 4.04536 -1.39767 0
M  V30 3303 C 338.469 5.29268 -0.760216 0
M  V30 3304 C 339.769 4.42893 -2.76845 0
M  V30 3305 H 341.463 2.38046 -1.81588 0
M  V30 3306 H 339.009 1.14404 -0.874514 0
M  V30 3307 H 340.962 4.20901 -0.204971 0
M  V30 3308 H 339.686 3.21983 0.547206 0
M  V30 3309 H 338.345 3.30635 -1.58355 0
M  V30 3310 H 337.993 5.02611 0.197831 0
M  V30 3311 H 337.693 5.70101 -1.42332 0
M  V30 3312 H 339.217 6.07924 -0.57105 0
M  V30 3313 H 340.631 5.09921 -2.62019 0
M  V30 3314 H 339.028 4.94721 -3.39663 0
M  V30 3315 H 340.098 3.53584 -3.31823 0
M  V30 3316 N 341.441 0.965919 1.2453 0
M  V30 3317 C 342.688 0.626831 1.92554 0
M  V30 3318 C 343.016 -0.837739 1.75534 0
M  V30 3319 O 342.271 -1.61793 1.10098 0
M  V30 3320 C 342.57 0.945428 3.44669 0
M  V30 3321 C 342.236 2.39785 3.81856 0
M  V30 3322 C 340.898 2.79483 3.91718 0
M  V30 3323 C 343.25 3.34055 4.00071 0
M  V30 3324 C 340.578 4.12496 4.1721 0
M  V30 3325 C 342.93 4.66694 4.27059 0
M  V30 3326 C 341.594 5.06172 4.3514 0
M  V30 3327 H 340.864 0.229374 0.704605 0
M  V30 3328 H 343.511 1.21707 1.4785 0
M  V30 3329 H 341.816 0.272926 3.90848 0
M  V30 3330 H 343.513 0.661484 3.95507 0
M  V30 3331 H 340.103 2.08003 3.74743 0
M  V30 3332 H 344.287 3.04571 3.91855 0
M  V30 3333 H 339.543 4.42709 4.21685 0
M  V30 3334 H 343.717 5.3971 4.40097 0
M  V30 3335 H 341.344 6.09262 4.54646 0
M  V30 3336 N 342.919 -1.39368 0.735821 0
M  V30 3337 C 344.168 -1.99733 0.281004 0
M  V30 3338 C 344.481 -1.59055 -1.13846 0
M  V30 3339 O 345.687 -2.12262 -1.69284 0
M  V30 3340 C 344.143 -3.57057 0.451462 0
M  V30 3341 C 343.751 -4.06697 1.87886 0
M  V30 3342 C 345.495 -4.2446 0.0584616 0
M  V30 3343 C 343.402 -5.56598 1.99883 0
M  V30 3344 H 342.332 -0.747163 0.101311 0
M  V30 3345 H 344.983 -1.59357 0.909819 0
M  V30 3346 H 343.365 -3.95234 -0.246263 0
M  V30 3347 H 344.539 -3.79853 2.60861 0
M  V30 3348 H 342.854 -3.5196 2.22515 0
M  V30 3349 H 345.451 -5.34549 0.127099 0
M  V30 3350 H 345.794 -4.04444 -0.986433 0
M  V30 3351 H 346.327 -3.9146 0.707374 0
M  V30 3352 H 343.066 -5.81494 3.02564 0
M  V30 3353 H 342.586 -5.85242 1.31346 0
M  V30 3354 H 344.265 -6.22022 1.78039 0
M  V30 3355 N 344.397 -0.483516 -1.5 0
M  V30 3356 C 345.345 0.318061 -2.30415 0
M  V30 3357 C 346.339 0.978988 -1.38247 0
M  V30 3358 O 347.545 0.908673 -1.55381 0
M  V30 3359 H 343.92 0.121419 -0.742133 0
M  V30 3360 H 345.891 -0.380403 -2.95965 0
M  V30 3361 C 344.64 1.38013 -3.19136 0
M  V30 3362 H 343.963 0.880952 -3.89973 0
M  V30 3363 H 345.403 1.91332 -3.78375 0
M  V30 3364 C 343.862 2.38884 -2.37563 0
M  V30 3365 O 344.392 3.44412 -2.06744 0
M  V30 3366 N 342.598 2.10912 -1.99911 0
M  V30 3367 H 342.145 1.25118 -2.25174 0
M  V30 3368 H 342.103 2.78635 -1.45636 0
M  V30 3369 N 345.875 1.56104 -0.216619 0
M  V30 3370 C 347.122 1.98172 0.416416 0
M  V30 3371 C 347.45 1.10413 1.60122 0
M  V30 3372 O 346.705 0.147967 1.9514 0
M  V30 3373 C 347.004 3.45923 0.898464 0
M  V30 3374 C 346.67 4.50559 -0.175288 0
M  V30 3375 C 345.332 4.78897 -0.470271 0
M  V30 3376 C 347.684 5.1334 -0.901728 0
M  V30 3377 C 345.012 5.67299 -1.4963 0
M  V30 3378 C 347.364 6.02853 -1.91705 0
M  V30 3379 C 346.028 6.29537 -2.21901 0
M  V30 3380 H 345.298 0.725164 0.152377 0
M  V30 3381 H 347.945 1.88839 -0.318103 0
M  V30 3382 H 346.25 3.52434 1.71165 0
M  V30 3383 H 347.947 3.75841 1.39803 0
M  V30 3384 H 344.537 4.28551 0.0647806 0
M  V30 3385 H 348.721 4.91521 -0.687072 0
M  V30 3386 H 343.977 5.86239 -1.73592 0
M  V30 3387 H 348.151 6.50552 -2.48505 0
M  V30 3388 H 345.778 6.97835 -3.01548 0
M  V30 3389 N 347.353 -0.0568162 1.57498 0
M  V30 3390 C 348.583 -0.764515 1.91934 0
M  V30 3391 C 348.991 -1.70877 0.81227 0
M  V30 3392 O 348.334 -1.82351 -0.222213 0
M  V30 3393 C 348.396 -1.5994 3.21962 0
M  V30 3394 C 348.06 -0.822925 4.4953 0
M  V30 3395 C 349.057 -0.135464 5.19723 0
M  V30 3396 C 346.742 -0.785666 4.96117 0
M  V30 3397 C 348.736 0.578861 6.34766 0
M  V30 3398 C 346.423 -0.0675784 6.11063 0
M  V30 3399 C 347.421 0.613471 6.80239 0
M  V30 3400 O 347.109 1.31996 7.92989 0
M  V30 3401 H 346.841 -0.221647 0.63863 0
M  V30 3402 H 349.395 -0.0268218 2.05382 0
M  V30 3403 H 347.625 -2.38026 3.04763 0
M  V30 3404 H 349.314 -2.18715 3.41934 0
M  V30 3405 H 350.08 -0.155458 4.84751 0
M  V30 3406 H 345.959 -1.30524 4.42136 0
M  V30 3407 H 349.503 1.111 6.88696 0
M  V30 3408 H 345.4 -0.0455636 6.45484 0
M  V30 3409 H 346.168 1.23077 8.09194 0
M  V30 3410 N 348.832 -1.54138 -0.328536 0
M  V30 3411 C 349.78 -1.83894 -1.42428 0
M  V30 3412 C 350.774 -0.710478 -1.53781 0
M  V30 3413 O 351.98 -0.894062 -1.56226 0
M  V30 3414 H 348.355 -0.582837 -0.475189 0
M  V30 3415 H 350.326 -2.75537 -1.14552 0
M  V30 3416 C 349.075 -2.07866 -2.78724 0
M  V30 3417 H 348.398 -2.94158 -2.7076 0
M  V30 3418 H 349.838 -2.32644 -3.54476 0
M  V30 3419 C 348.297 -0.868689 -3.25508 0
M  V30 3420 O 348.827 -0.0754908 -4.01629 0
M  V30 3421 N 347.033 -0.681711 -2.82491 0
M  V30 3422 H 346.58 -1.32838 -2.20708 0
M  V30 3423 H 346.538 0.126374 -3.14146 0
M  V30 3424 N 350.31 0.590341 -1.46126 0
M  V30 3425 C 351.24 1.71032 -1.58966 0
M  V30 3426 C 352.221 1.64302 -0.440335 0
M  V30 3427 O 353.406 1.82436 -0.665634 0
M  V30 3428 C 350.536 3.09665 -1.57241 0
M  V30 3429 C 349.49 3.31221 -2.71066 0
M  V30 3430 C 348.816 4.70303 -2.54399 0
M  V30 3431 C 350.116 3.19796 -4.1295 0
M  V30 3432 H 351.81 1.60543 -2.52718 0
M  V30 3433 H 349.356 0.770933 -1.21625 0
M  V30 3434 H 351.309 3.87831 -1.64819 0
M  V30 3435 H 350.033 3.21036 -0.600289 0
M  V30 3436 H 348.692 2.55452 -2.62944 0
M  V30 3437 H 348.34 4.78429 -1.55288 0
M  V30 3438 H 348.04 4.85679 -3.30741 0
M  V30 3439 H 349.564 5.50647 -2.63857 0
M  V30 3440 H 350.978 3.87815 -4.22223 0
M  V30 3441 H 349.375 3.46696 -4.89818 0
M  V30 3442 H 350.445 2.16983 -4.33643 0
M  V30 3443 N 351.788 1.33704 0.83433 0
M  V30 3444 C 353.036 1.25169 1.58673 0
M  V30 3445 C 353.357 -0.18127 1.94156 0
M  V30 3446 O 352.627 -1.11113 1.6134 0
M  V30 3447 H 351.207 0.4603 0.58833 0
M  V30 3448 H 353.869 1.67478 0.996847 0
M  V30 3449 H 352.965 1.84856 2.51465 0
M  V30 3450 N 353.266 -1.05314 1.17247 0
M  V30 3451 C 354.213 -2.13031 0.888058 0
M  V30 3452 C 355.183 -1.65253 -0.167537 0
M  V30 3453 O 356.368 -1.90775 -0.0305974 0
M  V30 3454 C 353.508 -3.42702 0.406147 0
M  V30 3455 C 352.621 -4.04161 1.52572 0
M  V30 3456 C 351.756 -5.21744 0.997808 0
M  V30 3457 C 350.795 -5.75207 2.09291 0
M  V30 3458 N 349.932 -6.84094 1.57986 0
M  V30 3459 H 354.772 -2.36698 1.81048 0
M  V30 3460 H 352.309 -1.16121 0.903013 0
M  V30 3461 H 354.267 -4.17059 0.108305 0
M  V30 3462 H 352.897 -3.19222 -0.479313 0
M  V30 3463 H 351.949 -3.27253 1.93931 0
M  V30 3464 H 353.261 -4.39881 2.35172 0
M  V30 3465 H 352.415 -6.03168 0.653739 0
M  V30 3466 H 351.154 -4.87495 0.141232 0
M  V30 3467 H 350.159 -4.92414 2.44557 0
M  V30 3468 H 351.384 -6.11505 2.95362 0
M  V30 3469 H 349.33 -6.51745 0.74598 0
M  V30 3470 H 349.247 -7.18811 2.34195 0
M  V30 3471 H 350.515 -7.69172 1.26468 0
M  V30 3472 N 354.744 -0.972509 -1.24016 0
M  V30 3473 C 356.16 -0.679827 -1.44397 0
M  V30 3474 C 356.36 0.756716 -1.86751 0
M  V30 3475 O 355.416 1.53007 -2.00861 0
M  V30 3476 C 356.729 -1.66803 -2.50195 0
M  V30 3477 C 358.277 -1.68119 -2.64017 0
M  V30 3478 C 358.752 -2.65748 -3.73017 0
M  V30 3479 N 360.243 -2.64219 -3.8045 0
M  V30 3480 C 360.978 -3.36433 -4.64328 0
M  V30 3481 N 360.474 -4.1818 -5.52356 0
M  V30 3482 N 362.267 -3.25235 -4.58453 0
M  V30 3483 H 354.418 -1.90059 -0.948228 0
M  V30 3484 H 356.681 -0.818527 -0.478245 0
M  V30 3485 H 356.387 -2.69498 -2.25973 0
M  V30 3486 H 356.261 -1.4446 -3.48441 0
M  V30 3487 H 358.648 -0.661319 -2.87594 0
M  V30 3488 H 358.729 -1.94525 -1.66113 0
M  V30 3489 H 358.373 -3.67872 -3.50189 0
M  V30 3490 H 358.303 -2.36619 -4.70446 0
M  V30 3491 H 360.794 -2.04887 -3.17537 0
M  V30 3492 H 361.107 -4.70157 -6.13329 0
M  V30 3493 H 359.452 -4.22273 -5.52006 0
M  V30 3494 H 362.643 -2.60829 -3.88698 0
M  V30 3495 H 362.816 -3.81776 -5.23594 0
M  V30 3496 N 356.222 1.38976 -0.743202 0
M  V30 3497 C 357.169 2.30544 -0.10861 0
M  V30 3498 C 358.139 1.49642 0.720869 0
M  V30 3499 O 359.324 1.78304 0.679142 0
M  V30 3500 C 356.464 3.36018 0.786496 0
M  V30 3501 C 355.577 4.31963 -0.0564849 0
M  V30 3502 C 354.712 5.24506 0.840657 0
M  V30 3503 C 353.751 6.121 -0.00658363 0
M  V30 3504 N 352.888 6.96973 0.846943 0
M  V30 3505 H 357.728 2.8424 -0.895088 0
M  V30 3506 H 355.265 1.3995 -0.453048 0
M  V30 3507 H 357.223 3.95768 1.31999 0
M  V30 3508 H 355.853 2.83758 1.53887 0
M  V30 3509 H 354.905 3.73763 -0.707492 0
M  V30 3510 H 356.217 4.93703 -0.711229 0
M  V30 3511 H 355.371 5.89322 1.4417 0
M  V30 3512 H 354.11 4.63107 1.52916 0
M  V30 3513 H 353.115 5.46289 -0.620366 0
M  V30 3514 H 354.34 6.75565 -0.691992 0
M  V30 3515 H 352.286 6.38133 1.52059 0
M  V30 3516 H 352.203 7.5559 0.248864 0
M  V30 3517 H 353.471 7.6621 1.43328 0
M  V30 3518 N 357.7 0.491464 1.49741 0
M  V30 3519 C 358.948 -0.0563141 2.02022 0
M  V30 3520 C 359.269 -1.38363 1.37407 0
M  V30 3521 O 358.539 -1.88702 0.526166 0
M  V30 3522 H 357.119 -0.0238014 0.746621 0
M  V30 3523 H 359.781 0.646533 1.83864 0
M  V30 3524 H 358.877 -0.192967 3.11503 0
M  V30 3525 N 359.178 -1.55987 0.224894 0
M  V30 3526 C 360.408 -2.02489 -0.41007 0
M  V30 3527 C 360.816 -1.10391 -1.53657 0
M  V30 3528 O 360.159 -0.106458 -1.83391 0
M  V30 3529 C 360.221 -3.45319 -0.999757 0
M  V30 3530 C 359.885 -4.56999 -0.00827976 0
M  V30 3531 C 360.882 -5.13812 0.793314 0
M  V30 3532 C 358.567 -5.02176 0.111442 0
M  V30 3533 C 360.561 -6.14276 1.7013 0
M  V30 3534 C 358.248 -6.02477 1.02296 0
M  V30 3535 C 359.246 -6.58403 1.81643 0
M  V30 3536 O 358.934 -7.56751 2.71262 0
M  V30 3537 H 358.666 -0.667915 -0.104235 0
M  V30 3538 H 361.22 -2.0257 0.339782 0
M  V30 3539 H 359.45 -3.42318 -1.79876 0
M  V30 3540 H 361.139 -3.7545 -1.54248 0
M  V30 3541 H 361.905 -4.79756 0.711288 0
M  V30 3542 H 357.784 -4.58323 -0.49605 0
M  V30 3543 H 361.328 -6.57854 2.32107 0
M  V30 3544 H 357.225 -6.35954 1.10599 0
M  V30 3545 H 357.993 -7.74286 2.65375 0
M  V30 3546 N 360.656 0.0484629 -1.57525 0
M  V30 3547 C 361.886 0.754326 -1.92337 0
M  V30 3548 C 362.294 1.70443 -0.82132 0
M  V30 3549 O 361.637 1.82466 0.21254 0
M  V30 3550 C 361.699 1.58231 -3.22805 0
M  V30 3551 C 361.363 0.799074 -4.4996 0
M  V30 3552 C 362.36 0.1079 -5.19788 0
M  V30 3553 C 360.045 0.759345 -4.96527 0
M  V30 3554 C 362.039 -0.612516 -6.3445 0
M  V30 3555 C 359.726 0.0351713 -6.1109 0
M  V30 3556 C 360.724 -0.649537 -6.79904 0
M  V30 3557 O 360.412 -1.36199 -7.92278 0
M  V30 3558 H 360.144 0.218257 -0.639797 0
M  V30 3559 H 362.698 0.0159295 -2.05394 0
M  V30 3560 H 360.928 2.36406 -3.06021 0
M  V30 3561 H 362.617 2.16898 -3.43089 0
M  V30 3562 H 363.383 0.129748 -4.84826 0
M  V30 3563 H 359.262 1.28177 -4.42822 0
M  V30 3564 H 362.806 -1.14751 -6.88097 0
M  V30 3565 H 358.703 0.0113314 -6.45499 0
M  V30 3566 H 359.471 -1.27366 -8.0853 0
M  V30 3567 N 362.134 1.5431 0.320358 0
M  V30 3568 C 363.064 1.86912 1.3995 0
M  V30 3569 C 364.045 0.726211 1.53819 0
M  V30 3570 O 365.23 0.980233 1.67646 0
M  V30 3571 C 362.36 2.09932 2.7667 0
M  V30 3572 C 361.314 3.25776 2.77586 0
M  V30 3573 C 360.64 3.34173 4.17412 0
M  V30 3574 C 361.94 4.6335 2.41048 0
M  V30 3575 H 363.634 2.77292 1.12914 0
M  V30 3576 H 361.18 1.33421 0.541738 0
M  V30 3577 H 363.133 2.31324 3.52232 0
M  V30 3578 H 361.857 1.16304 3.0519 0
M  V30 3579 H 360.516 3.04276 2.04479 0
M  V30 3580 H 360.164 2.38098 4.43078 0
M  V30 3581 H 359.864 4.12033 4.18931 0
M  V30 3582 H 361.388 3.57803 4.94782 0
M  V30 3583 H 362.802 4.84602 3.06324 0
M  V30 3584 H 361.199 5.43782 2.53813 0
M  V30 3585 H 362.269 4.65381 1.36193 0
M  V30 3586 N 363.613 -0.582584 1.46437 0
M  V30 3587 C 364.576 -1.67366 1.56592 0
M  V30 3588 C 365.576 -1.54575 0.443072 0
M  V30 3589 O 366.766 -1.59191 0.707381 0
M  V30 3590 C 363.898 -3.06791 1.48634 0
M  V30 3591 H 365.091 -1.5972 2.5383 0
M  V30 3592 H 362.644 -0.800432 1.34249 0
M  V30 3593 H 363.379 -3.19993 0.526763 0
M  V30 3594 H 363.164 -3.17484 2.30101 0
M  V30 3595 H 364.654 -3.86218 1.58826 0
M  V30 3596 N 365.091 -1.34144 -0.827227 0
M  V30 3597 C 366.038 -1.25364 -1.93785 0
M  V30 3598 C 367.008 -0.129774 -1.65592 0
M  V30 3599 O 368.193 -0.310024 -1.88264 0
M  V30 3600 C 365.333 -1.01064 -3.2997 0
M  V30 3601 C 364.446 -2.22185 -3.70484 0
M  V30 3602 C 363.581 -1.91203 -4.95595 0
M  V30 3603 C 362.62 -3.08491 -5.28677 0
M  V30 3604 N 361.757 -2.77421 -6.44967 0
M  V30 3605 H 366.597 -2.20347 -2.00627 0
M  V30 3606 H 364.134 -1.09558 -0.981608 0
M  V30 3607 H 366.092 -0.850139 -4.08446 0
M  V30 3608 H 364.722 -0.0975026 -3.22653 0
M  V30 3609 H 363.774 -2.4917 -2.87434 0
M  V30 3610 H 365.086 -3.0983 -3.90905 0
M  V30 3611 H 364.24 -1.71864 -5.81848 0
M  V30 3612 H 362.979 -1.00812 -4.77167 0
M  V30 3613 H 361.984 -3.28431 -4.40923 0
M  V30 3614 H 363.209 -3.99655 -5.49047 0
M  V30 3615 H 361.155 -1.89601 -6.28003 0
M  V30 3616 H 361.072 -3.58598 -6.6554 0
M  V30 3617 H 362.34 -2.61577 -7.34301 0
M  V30 3618 N 366.569 1.04691 -1.17803 0
M  V30 3619 C 367.516 2.12557 -0.899343 0
M  V30 3620 C 368.486 1.65339 0.158771 0
M  V30 3621 O 369.671 1.90789 0.0204797 0
M  V30 3622 C 366.811 3.42481 -0.424315 0
M  V30 3623 C 365.924 4.03346 -1.54713 0
M  V30 3624 C 365.059 5.21208 -1.02546 0
M  V30 3625 C 364.098 5.74089 -2.12339 0
M  V30 3626 N 363.235 6.83247 -1.61612 0
M  V30 3627 H 368.075 2.35734 -1.823 0
M  V30 3628 H 365.612 1.1564 -0.909159 0
M  V30 3629 H 367.57 4.16996 -0.130421 0
M  V30 3630 H 366.2 3.19471 0.462377 0
M  V30 3631 H 365.252 3.2622 -1.95664 0
M  V30 3632 H 366.564 4.38628 -2.37501 0
M  V30 3633 H 365.718 6.02812 -0.685718 0
M  V30 3634 H 364.457 4.87414 -0.167084 0
M  V30 3635 H 363.462 4.91111 -2.47165 0
M  V30 3636 H 364.687 6.0993 -2.98601 0
M  V30 3637 H 362.633 6.5134 -0.780533 0
M  V30 3638 H 362.55 7.17559 -2.38003 0
M  V30 3639 H 363.818 7.68491 -1.30545 0
M  V30 3640 N 368.047 0.979072 1.23499 0
M  V30 3641 C 368.979 0.476271 2.24197 0
M  V30 3642 C 369.992 -0.421166 1.57258 0
M  V30 3643 O 371.181 -0.225515 1.7707 0
M  V30 3644 C 368.281 -0.330503 3.37285 0
M  V30 3645 C 367.454 0.559744 4.33804 0
M  V30 3646 C 366.513 -0.192954 5.25846 0
M  V30 3647 O 365.539 0.416978 5.67671 0
M  V30 3648 N 366.741 -1.47932 5.61334 0
M  V30 3649 H 369.506 1.34211 2.67969 0
M  V30 3650 H 367.067 0.852189 1.37657 0
M  V30 3651 H 369.059 -0.842361 3.95836 0
M  V30 3652 H 367.629 -1.09734 2.92707 0
M  V30 3653 H 366.849 1.25245 3.73775 0
M  V30 3654 H 368.137 1.1665 4.95248 0
M  V30 3655 H 367.535 -1.9964 5.29302 0
M  V30 3656 H 366.092 -1.93664 6.22364 0
M  V30 3657 N 369.525 -1.3858 0.750561 0
M  V30 3658 C 370.472 -2.30483 0.120835 0
M  V30 3659 C 371.442 -1.50022 -0.712923 0
M  V30 3660 O 372.627 -1.78662 -0.669676 0
M  V30 3661 C 369.767 -3.36431 -0.768666 0
M  V30 3662 C 368.88 -4.31927 0.0793922 0
M  V30 3663 C 368.015 -5.24944 -0.81283 0
M  V30 3664 C 367.054 -6.12088 0.0390447 0
M  V30 3665 N 366.191 -6.97412 -0.809969 0
M  V30 3666 H 371.031 -2.83761 0.91015 0
M  V30 3667 H 368.568 -1.39707 0.460463 0
M  V30 3668 H 370.526 -3.96462 -1.29898 0
M  V30 3669 H 369.156 -2.8457 -1.5238 0
M  V30 3670 H 368.208 -3.73382 0.727303 0
M  V30 3671 H 369.52 -4.93319 0.737401 0
M  V30 3672 H 368.674 -5.90078 -1.41042 0
M  V30 3673 H 367.413 -4.63911 -1.50458 0
M  V30 3674 H 366.418 -5.45952 0.649328 0
M  V30 3675 H 367.643 -6.75189 0.727809 0
M  V30 3676 H 365.589 -6.38931 -1.48672 0
M  V30 3677 H 365.506 -7.55712 -0.208789 0
M  V30 3678 H 366.774 -7.66959 -1.39263 0
M  V30 3679 N 371.003 -0.499398 -1.49478 0
M  V30 3680 C 371.95 0.279881 -2.29097 0
M  V30 3681 C 372.92 0.961805 -1.3542 0
M  V30 3682 O 374.105 0.968777 -1.64376 0
M  V30 3683 C 371.245 1.33932 -3.18051 0
M  V30 3684 C 370.358 0.669333 -4.26783 0
M  V30 3685 C 369.493 1.70907 -5.02955 0
M  V30 3686 C 368.532 1.02087 -6.03527 0
M  V30 3687 N 367.669 2.00474 -6.7287 0
M  V30 3688 H 372.509 -0.405317 -2.95231 0
M  V30 3689 H 370.046 -0.211726 -1.45568 0
M  V30 3690 H 372.004 1.96553 -3.67998 0
M  V30 3691 H 370.634 1.9933 -2.53904 0
M  V30 3692 H 369.686 -0.0701234 -3.80335 0
M  V30 3693 H 370.998 0.127503 -4.98637 0
M  V30 3694 H 370.152 2.41037 -5.56764 0
M  V30 3695 H 368.891 2.28476 -4.30871 0
M  V30 3696 H 367.896 0.305338 -5.48951 0
M  V30 3697 H 369.121 0.451708 -6.77596 0
M  V30 3698 H 367.067 2.57007 -6.03559 0
M  V30 3699 H 366.984 1.51353 -7.40694 0
M  V30 3700 H 368.252 2.69897 -7.31284 0
M  V30 3701 N 372.481 1.55866 -0.233164 0
M  V30 3702 C 373.391 2.24431 0.683217 0
M  V30 3703 C 374.407 1.2558 1.2044 0
M  V30 3704 O 375.583 1.58422 1.24356 0
M  V30 3705 C 372.648 2.91979 1.86947 0
M  V30 3706 C 371.709 4.06204 1.38912 0
M  V30 3707 C 370.942 4.70522 2.51883 0
M  V30 3708 O 371.165 4.33865 3.70293 0
M  V30 3709 O 370.099 5.59296 2.22423 0
M  V30 3710 H 373.925 3.03426 0.129059 0
M  V30 3711 H 371.51 1.494 -0.0022283 0
M  V30 3712 H 373.392 3.34573 2.56201 0
M  V30 3713 H 372.067 2.15935 2.41151 0
M  V30 3714 H 370.974 3.68155 0.664259 0
M  V30 3715 H 372.307 4.84025 0.893328 0
M  V30 3716 N 373.959 -0.0401083 1.57549 0
M  V30 3717 C 374.891 -1.07149 2.02612 0
M  V30 3718 C 375.904 -1.33126 0.937085 0
M  V30 3719 O 377.093 -1.30808 1.21456 0
M  V30 3720 C 374.193 -2.41561 2.37701 0
M  V30 3721 C 373.366 -2.35096 3.68848 0
M  V30 3722 C 372.425 -3.51867 3.91249 0
M  V30 3723 O 371.451 -3.3186 4.62447 0
M  V30 3724 N 372.653 -4.73351 3.36035 0
M  V30 3725 H 375.418 -0.687485 2.91708 0
M  V30 3726 H 372.979 -0.228248 1.60283 0
M  V30 3727 H 374.971 -3.18379 2.49833 0
M  V30 3728 H 373.541 -2.71846 1.54332 0
M  V30 3729 H 372.761 -1.4345 3.67173 0
M  V30 3730 H 374.049 -2.27908 4.54901 0
M  V30 3731 H 373.447 -4.92507 2.78304 0
M  V30 3732 H 372.004 -5.47572 3.53565 0
M  V30 3733 N 375.437 -1.54477 -0.31217 0
M  V30 3734 C 376.37 -1.79519 -1.40884 0
M  V30 3735 C 377.348 -0.645753 -1.49227 0
M  V30 3736 O 378.532 -0.884468 -1.66461 0
M  V30 3737 C 375.659 -1.92194 -2.78889 0
M  V30 3738 C 374.705 -3.14555 -2.88023 0
M  V30 3739 S 375.538 -4.72893 -2.51262 0
M  V30 3740 C 376.694 -4.8849 -3.91317 0
M  V30 3741 H 376.927 -2.72256 -1.19432 0
M  V30 3742 H 374.46 -1.45746 -0.509654 0
M  V30 3743 H 376.418 -2.00182 -3.58382 0
M  V30 3744 H 375.079 -1.00414 -2.97617 0
M  V30 3745 H 374.272 -3.20193 -3.89221 0
M  V30 3746 H 373.874 -3.04955 -2.16514 0
M  V30 3747 H 376.166 -4.71826 -4.86196 0
M  V30 3748 H 377.109 -5.90588 -3.90656 0
M  V30 3749 H 377.517 -4.16715 -3.80801 0
M  V30 3750 N 376.915 0.57481 -1.46744 0
M  V30 3751 C 377.845 1.69337 -1.60771 0
M  V30 3752 C 378.826 1.63825 -0.457736 0
M  V30 3753 O 380.011 1.8172 -0.684947 0
M  V30 3754 C 377.141 3.0798 -1.60517 0
M  V30 3755 C 376.095 3.28327 -2.74564 0
M  V30 3756 C 375.421 4.67578 -2.59373 0
M  V30 3757 C 376.721 3.15398 -4.16319 0
M  V30 3758 H 378.415 1.57853 -2.54407 0
M  V30 3759 H 375.961 0.75799 -1.22436 0
M  V30 3760 H 377.914 3.86061 -1.68923 0
M  V30 3761 H 376.638 3.20381 -0.634305 0
M  V30 3762 H 375.297 2.52649 -2.65639 0
M  V30 3763 H 374.945 4.76755 -1.60353 0
M  V30 3764 H 374.645 4.82144 -3.35873 0
M  V30 3765 H 376.169 5.47817 -2.69682 0
M  V30 3766 H 377.583 3.83315 -4.26313 0
M  V30 3767 H 375.98 3.41482 -4.93468 0
M  V30 3768 H 377.05 2.12372 -4.3592 0
M  V30 3769 N 378.394 1.34581 0.820102 0
M  V30 3770 C 379.304 1.28471 1.96297 0
M  V30 3771 C 380.32 0.191902 1.72939 0
M  V30 3772 O 381.496 0.418879 1.96996 0
M  V30 3773 C 378.561 1.04281 3.30645 0
M  V30 3774 C 377.622 2.22745 3.66992 0
M  V30 3775 C 376.855 1.997 4.9493 0
M  V30 3776 O 377.078 0.956656 5.6232 0
M  V30 3777 O 376.012 2.86723 5.2922 0
M  V30 3778 H 379.838 2.24624 2.04396 0
M  V30 3779 H 377.423 1.14816 0.955913 0
M  V30 3780 H 379.305 0.925841 4.11104 0
M  V30 3781 H 377.98 0.111697 3.23507 0
M  V30 3782 H 376.887 2.40003 2.86966 0
M  V30 3783 H 378.22 3.14257 3.78819 0
M  V30 3784 N 379.872 -1.04064 1.18357 0
M  V30 3785 C 380.804 -2.12114 0.868358 0
M  V30 3786 C 381.817 -1.62247 -0.134045 0
M  V30 3787 O 383.006 -1.78253 0.0937933 0
M  V30 3788 C 380.106 -3.37773 0.276132 0
M  V30 3789 C 379.279 -4.16874 1.3242 0
M  V30 3790 C 378.338 -5.20861 0.747662 0
M  V30 3791 O 377.364 -5.51141 1.42239 0
M  V30 3792 N 378.566 -5.78715 -0.454823 0
M  V30 3793 H 381.331 -2.39748 1.79836 0
M  V30 3794 H 378.892 -1.20258 1.08396 0
M  V30 3795 H 380.884 -4.04513 -0.123133 0
M  V30 3796 H 379.454 -3.07581 -0.557895 0
M  V30 3797 H 378.674 -3.45456 1.89878 0
M  V30 3798 H 379.962 -4.66516 2.03078 0
M  V30 3799 H 379.36 -5.56415 -1.02073 0
M  V30 3800 H 377.917 -6.46921 -0.79601 0
M  V30 3801 N 381.35 -0.985608 -1.22978 0
M  V30 3802 C 382.298 -0.522631 -2.26652 0
M  V30 3803 C 383.292 0.422998 -1.64034 0
M  V30 3804 O 384.498 0.296319 -1.77544 0
M  V30 3805 H 380.873 -0.150597 -0.736766 0
M  V30 3806 H 382.844 -1.40863 -2.63059 0
M  V30 3807 C 381.593 0.154238 -3.47358 0
M  V30 3808 H 380.916 -0.564329 -3.95797 0
M  V30 3809 H 382.356 0.441744 -4.21693 0
M  V30 3810 C 380.815 1.38719 -3.07016 0
M  V30 3811 O 381.345 2.48307 -3.15764 0
M  V30 3812 N 379.551 1.25975 -2.61875 0
M  V30 3813 H 379.098 0.368068 -2.54957 0
M  V30 3814 H 379.056 2.08578 -2.3525 0
M  V30 3815 N 382.828 1.3818 -0.7579 0
M  V30 3816 C 384.239 1.82726 -0.383134 0
M  V30 3817 C 384.59 1.63214 1.08884 0
M  V30 3818 O 383.715 1.13566 1.84205 0
M  V30 3819 C 384.31 3.31728 -0.688631 0
M  V30 3820 C 382.869 3.74606 -0.367091 0
M  V30 3821 C 382.016 2.60896 -0.939599 0
M  V30 3822 H 384.967 1.26847 -0.953699 0
M  V30 3823 H 384.988 3.80487 0.0316492 0
M  V30 3824 H 384.5 3.45898 -1.76001 0
M  V30 3825 H 382.601 3.66013 0.697532 0
M  V30 3826 H 382.714 4.71215 -0.865658 0
M  V30 3827 H 381.078 2.52075 -0.3647 0
M  V30 3828 H 381.861 2.77864 -2.0161 0
M  V30 3829 N 384.306 0.507319 1.49211 0
M  V30 3830 C 385.216 -0.272136 2.33016 0
M  V30 3831 C 386.232 -0.961206 1.45041 0
M  V30 3832 O 387.408 -0.941191 1.78055 0
M  V30 3833 C 384.473 -1.31895 3.20631 0
M  V30 3834 C 383.534 -0.642648 4.24463 0
M  V30 3835 C 382.767 -1.63959 5.07891 0
M  V30 3836 O 382.99 -2.87007 4.92933 0
M  V30 3837 O 381.924 -1.19143 5.8999 0
M  V30 3838 H 385.75 0.413982 3.00865 0
M  V30 3839 H 383.335 0.268556 1.46966 0
M  V30 3840 H 385.217 -1.92446 3.7489 0
M  V30 3841 H 383.892 -1.98788 2.5547 0
M  V30 3842 H 382.799 0.00276252 3.741 0
M  V30 3843 H 384.132 -0.0160534 4.92197 0
M  V30 3844 N 385.784 -1.5574 0.241426 0
M  V30 3845 C 386.716 -2.18469 -0.693091 0
M  V30 3846 C 387.729 -1.15942 -1.14286 0
M  V30 3847 O 388.918 -1.42832 -1.07058 0
M  V30 3848 C 386.018 -2.7696 -1.95311 0
M  V30 3849 C 385.191 -4.04853 -1.65568 0
M  V30 3850 C 384.25 -4.47715 -2.76474 0
M  V30 3851 O 383.276 -5.14205 -2.44094 0
M  V30 3852 N 384.478 -4.15044 -4.05855 0
M  V30 3853 H 387.243 -2.99292 -0.156388 0
M  V30 3854 H 384.804 -1.61784 0.0611752 0
M  V30 3855 H 386.796 -3.02594 -2.68736 0
M  V30 3856 H 385.366 -2.00326 -2.39975 0
M  V30 3857 H 384.586 -3.86865 -0.756886 0
M  V30 3858 H 385.874 -4.88246 -1.43153 0
M  V30 3859 H 385.272 -3.61654 -4.34998 0
M  V30 3860 H 383.829 -4.45526 -4.75762 0
M  V30 3861 N 387.262 0.0317525 -1.57568 0
M  V30 3862 C 388.21 1.05165 -2.07468 0
M  V30 3863 C 389.204 1.3761 -0.98792 0
M  V30 3864 O 390.41 1.36546 -1.17282 0
M  V30 3865 H 386.785 0.35666 -0.66204 0
M  V30 3866 H 388.756 0.604958 -2.92203 0
M  V30 3867 C 387.505 2.34488 -2.56731 0
M  V30 3868 H 386.828 2.10383 -3.39969 0
M  V30 3869 H 388.268 3.04203 -2.95358 0
M  V30 3870 C 386.727 3.03266 -1.46736 0
M  V30 3871 O 387.257 3.92988 -0.832069 0
M  V30 3872 N 385.463 2.6455 -1.20256 0
M  V30 3873 H 385.01 1.91674 -1.72102 0
M  V30 3874 H 384.968 3.10886 -0.468737 0
M  V30 3875 N 388.74 1.54641 0.303973 0
M  V30 3876 C 390.151 1.64811 0.877163 0
M  V30 3877 C 390.502 0.554838 1.88191 0
M  V30 3878 O 389.627 -0.309033 2.14182 0
M  V30 3879 C 390.222 2.9876 1.59775 0
M  V30 3880 C 388.781 3.11061 2.11938 0
M  V30 3881 C 387.928 2.60479 0.951097 0
M  V30 3882 H 390.879 1.58493 0.0810486 0
M  V30 3883 H 390.9 2.90017 2.46314 0
M  V30 3884 H 390.412 3.7831 0.866226 0
M  V30 3885 H 388.513 2.36225 2.88146 0
M  V30 3886 H 388.626 4.17171 2.35595 0
M  V30 3887 H 386.99 2.16859 1.33583 0
M  V30 3888 H 387.773 3.42504 0.233581 0
M  V30 3889 N 390.218 -0.567019 1.47046 0
M  V30 3890 C 391.128 -1.70247 1.6141 0
M  V30 3891 C 392.144 -1.66746 0.497157 0
M  V30 3892 O 393.32 -1.86371 0.763389 0
M  V30 3893 C 390.385 -3.06756 1.61561 0
M  V30 3894 C 389.446 -3.21399 2.84607 0
M  V30 3895 C 388.679 -4.51396 2.84741 0
M  V30 3896 O 388.902 -5.36255 1.94388 0
M  V30 3897 O 387.836 -4.69621 3.76483 0
M  V30 3898 H 391.662 -1.61073 2.57467 0
M  V30 3899 H 389.247 -0.735894 1.30019 0
M  V30 3900 H 391.129 -3.8801 1.64396 0
M  V30 3901 H 389.804 -3.16333 0.686684 0
M  V30 3902 H 388.711 -2.39579 2.8732 0
M  V30 3903 H 390.044 -3.16721 3.76761 0
M  V30 3904 N 391.696 -1.35014 -0.812953 0
M  V30 3905 C 392.628 -1.23262 -1.93233 0
M  V30 3906 C 393.641 -0.157371 -1.62038 0
M  V30 3907 O 394.83 -0.410096 -1.73725 0
M  V30 3908 C 391.93 -0.87392 -3.27438 0
M  V30 3909 C 391.103 -2.04622 -3.86586 0
M  V30 3910 C 390.162 -1.66432 -4.99186 0
M  V30 3911 O 389.188 -2.38222 -5.16951 0
M  V30 3912 N 390.39 -0.584248 -5.77552 0
M  V30 3913 H 393.155 -2.19699 -2.03844 0
M  V30 3914 H 390.716 -1.281 -0.99005 0
M  V30 3915 H 392.708 -0.600039 -4.00227 0
M  V30 3916 H 391.278 0.00057392 -3.126 0
M  V30 3917 H 390.498 -2.48427 -3.06068 0
M  V30 3918 H 391.786 -2.82999 -4.22835 0
M  V30 3919 H 391.184 0.0123526 -5.65699 0
M  V30 3920 H 389.741 -0.37013 -6.50748 0
M  V30 3921 N 393.175 1.03435 -1.18907 0
M  V30 3922 C 394.123 2.13703 -0.918353 0
M  V30 3923 C 395.117 1.68947 0.123767 0
M  V30 3924 O 396.323 1.79983 -0.0249701 0
M  V30 3925 H 392.698 0.698112 -0.279542 0
M  V30 3926 H 394.669 2.33731 -1.85506 0
M  V30 3927 C 393.418 3.44542 -0.467532 0
M  V30 3928 H 392.741 3.79394 -1.26095 0
M  V30 3929 H 394.181 4.22812 -0.317164 0
M  V30 3930 C 392.64 3.26829 0.817588 0
M  V30 3931 O 393.17 3.54975 1.88031 0
M  V30 3932 N 391.376 2.80139 0.772677 0
M  V30 3933 H 390.923 2.57434 -0.0923883 0
M  V30 3934 H 390.881 2.68668 1.63294 0
M  V30 3935 N 394.653 0.992116 1.22453 0
M  V30 3936 C 395.616 0.546883 2.2258 0
M  V30 3937 C 396.616 -0.369829 1.56489 0
M  V30 3938 O 397.806 -0.161896 1.73446 0
M  V30 3939 C 394.938 -0.204659 3.40285 0
M  V30 3940 H 396.131 1.43234 2.63484 0
M  V30 3941 H 393.684 0.779239 1.3549 0
M  V30 3942 H 394.419 -1.10614 3.04853 0
M  V30 3943 H 394.204 0.45354 3.89468 0
M  V30 3944 H 395.694 -0.504358 4.14543 0
M  V30 3945 N 396.131 -1.37776 0.765217 0
M  V30 3946 C 397.063 -2.28958 0.105361 0
M  V30 3947 C 398.076 -1.48316 -0.67128 0
M  V30 3948 O 399.265 -1.71046 -0.51045 0
M  V30 3949 C 396.365 -3.27421 -0.874569 0
M  V30 3950 C 395.538 -4.37132 -0.153123 0
M  V30 3951 C 394.597 -5.1571 -1.04547 0
M  V30 3952 O 393.623 -5.66896 -0.511672 0
M  V30 3953 N 394.825 -5.29808 -2.37243 0
M  V30 3954 H 397.59 -2.86227 0.888495 0
M  V30 3955 H 395.151 -1.49682 0.617 0
M  V30 3956 H 397.143 -3.7687 -1.47483 0
M  V30 3957 H 395.713 -2.70967 -1.55871 0
M  V30 3958 H 394.933 -3.89166 0.627975 0
M  V30 3959 H 396.221 -5.07625 0.345643 0
M  V30 3960 H 395.619 -4.89793 -2.83054 0
M  V30 3961 H 394.176 -5.82589 -2.9229 0
M  V30 3962 N 397.609 -0.515225 -1.4894 0
M  V30 3963 C 398.541 0.292481 -2.27326 0
M  V30 3964 C 399.554 0.917838 -1.3446 0
M  V30 3965 O 400.743 0.798772 -1.5963 0
M  V30 3966 C 397.843 1.42803 -3.07344 0
M  V30 3967 C 397.016 0.907347 -4.27885 0
M  V30 3968 C 396.075 1.92222 -4.89834 0
M  V30 3969 O 395.101 1.48506 -5.49486 0
M  V30 3970 N 396.303 3.25355 -4.80754 0
M  V30 3971 H 399.068 -0.379721 -2.97285 0
M  V30 3972 H 396.629 -0.348638 -1.58102 0
M  V30 3973 H 398.621 2.10481 -3.45658 0
M  V30 3974 H 397.191 2.00414 -2.39902 0
M  V30 3975 H 396.411 0.0550218 -3.94162 0
M  V30 3976 H 397.699 0.538108 -5.05946 0
M  V30 3977 H 397.097 3.6355 -4.33414 0
M  V30 3978 H 395.654 3.88707 -5.23211 0
M  V30 3979 N 399.087 1.5561 -0.249682 0
M  V30 3980 C 400.035 2.22894 0.664906 0
M  V30 3981 C 401.029 1.21743 1.17792 0
M  V30 3982 O 402.235 1.39748 1.13449 0
M  V30 3983 H 398.61 0.715022 0.232912 0
M  V30 3984 H 400.581 2.98307 0.0742998 0
M  V30 3985 C 399.33 2.94424 1.84959 0
M  V30 3986 H 398.653 3.72031 1.46399 0
M  V30 3987 H 400.093 3.44862 2.4667 0
M  V30 3988 C 398.552 1.98454 2.72245 0
M  V30 3989 O 399.082 1.51939 3.71857 0
M  V30 3990 N 397.288 1.65496 2.38871 0
M  V30 3991 H 396.835 2.03517 1.57919 0
M  V30 3992 H 396.793 1.0155 2.97548 0
M  V30 3993 N 400.565 -0.0233959 1.57583 0
M  V30 3994 C 401.528 -1.00693 2.05897 0
M  V30 3995 C 402.528 -1.28693 0.964092 0
M  V30 3996 O 403.718 -1.23602 1.22753 0
M  V30 3997 C 400.85 -2.33825 2.4807 0
M  V30 3998 H 402.043 -0.589476 2.9405 0
M  V30 3999 H 399.596 -0.270354 1.53944 0
M  V30 4000 H 400.331 -2.80307 1.6309 0
M  V30 4001 H 400.116 -2.1483 3.2801 0
M  V30 4002 H 401.606 -3.04426 2.85857 0
M  V30 4003 N 402.043 -1.548 -0.295768 0
M  V30 4004 C 402.975 -1.82492 -1.3867 0
M  V30 4005 C 403.988 -0.708134 -1.46592 0
M  V30 4006 O 405.177 -0.985686 -1.48817 0
M  V30 4007 C 402.277 -1.95256 -2.76999 0
M  V30 4008 C 401.45 -3.25709 -2.91946 0
M  V30 4009 C 400.509 -3.28824 -4.10806 0
M  V30 4010 O 399.535 -4.02328 -4.02643 0
M  V30 4011 N 400.737 -2.5459 -5.21694 0
M  V30 4012 H 403.502 -2.76646 -1.15269 0
M  V30 4013 H 401.063 -1.54438 -0.485849 0
M  V30 4014 H 403.055 -1.94736 -3.54768 0
M  V30 4015 H 401.625 -1.08072 -2.93324 0
M  V30 4016 H 400.845 -3.38959 -2.01247 0
M  V30 4017 H 402.133 -4.11786 -2.98847 0
M  V30 4018 H 401.531 -1.94512 -5.31208 0
M  V30 4019 H 400.088 -2.59818 -5.97778 0
M  V30 4020 N 403.521 0.559213 -1.47345 0
M  V30 4021 C 404.453 1.68161 -1.55738 0
M  V30 4022 C 405.466 1.56636 -0.443744 0
M  V30 4023 O 406.655 1.6363 -0.713258 0
M  V30 4024 C 403.755 3.06611 -1.4437 0
M  V30 4025 C 402.928 3.4391 -2.70268 0
M  V30 4026 C 401.987 4.61515 -2.52765 0
M  V30 4027 O 401.013 4.66197 -3.26572 0
M  V30 4028 N 402.215 5.57883 -1.6046 0
M  V30 4029 H 404.98 1.61408 -2.52522 0
M  V30 4030 H 402.541 0.7458 -1.43699 0
M  V30 4031 H 404.533 3.83117 -1.30398 0
M  V30 4032 H 403.103 3.07602 -0.556766 0
M  V30 4033 H 402.323 2.56873 -2.99015 0
M  V30 4034 H 403.611 3.65605 -3.53851 0
M  V30 4035 H 403.009 5.56855 -0.996422 0
M  V30 4036 H 401.566 6.33723 -1.52441 0
M  V30 4037 N 404.999 1.35443 0.805782 0
M  V30 4038 C 405.947 1.28465 1.93906 0
M  V30 4039 C 406.941 0.17943 1.68447 0
M  V30 4040 O 408.147 0.345459 1.76654 0
M  V30 4041 H 404.522 0.399528 0.637088 0
M  V30 4042 H 406.493 2.24206 1.96912 0
M  V30 4043 C 405.242 1.07432 3.30687 0
M  V30 4044 H 404.565 1.91716 3.50835 0
M  V30 4045 H 406.005 1.06591 4.10383 0
M  V30 4046 C 404.464 -0.22179 3.36169 0
M  V30 4047 O 404.994 -1.21731 3.82811 0
M  V30 4048 N 403.2 -0.260841 2.89427 0
M  V30 4049 H 402.747 0.549884 2.51663 0
M  V30 4050 H 402.705 -1.12777 2.93477 0
M  V30 4051 N 406.477 -1.02803 1.19454 0
M  V30 4052 C 407.44 -2.09264 0.934955 0
M  V30 4053 C 408.44 -1.60576 -0.0849015 0
M  V30 4054 O 409.63 -1.73554 0.149933 0
M  V30 4055 C 406.762 -3.38482 0.40531 0
M  V30 4056 H 407.955 -2.33726 1.87916 0
M  V30 4057 H 405.508 -1.19426 1.00832 0
M  V30 4058 H 406.243 -3.19689 -0.544899 0
M  V30 4059 H 406.028 -3.75142 1.14065 0
M  V30 4060 H 407.518 -4.16894 0.242806 0
M  V30 4061 N 407.956 -0.998596 -1.21925 0
M  V30 4062 C 408.888 -0.511879 -2.23411 0
M  V30 4063 C 409.901 0.396094 -1.57908 0
M  V30 4064 O 411.09 0.197316 -1.77406 0
M  V30 4065 C 408.19 0.276802 -3.37768 0
M  V30 4066 C 407.363 -0.628687 -4.32858 0
M  V30 4067 C 406.422 0.109272 -5.26087 0
M  V30 4068 O 405.448 -0.507237 -5.66935 0
M  V30 4069 N 406.65 1.38983 -5.63617 0
M  V30 4070 H 409.415 -1.38457 -2.658 0
M  V30 4071 H 406.976 -0.873981 -1.36283 0
M  V30 4072 H 408.968 0.77928 -3.97126 0
M  V30 4073 H 407.538 1.05063 -2.94415 0
M  V30 4074 H 406.758 -1.31175 -3.71735 0
M  V30 4075 H 408.046 -1.24514 -4.93329 0
M  V30 4076 H 407.444 1.91194 -5.32411 0
M  V30 4077 H 406.001 1.83739 -6.25367 0
M  V30 4078 N 409.434 1.37368 -0.772513 0
M  V30 4079 C 410.366 2.28899 -0.117502 0
M  V30 4080 C 411.379 1.4867 0.663405 0
M  V30 4081 O 412.568 1.71314 0.501372 0
M  V30 4082 C 409.668 3.2788 0.857192 0
M  V30 4083 C 408.841 4.37207 0.129938 0
M  V30 4084 C 407.9 5.16257 1.01811 0
M  V30 4085 O 406.926 5.67159 0.481601 0
M  V30 4086 N 408.128 5.31058 2.3443 0
M  V30 4087 H 410.893 2.85752 -0.903662 0
M  V30 4088 H 408.454 1.49353 -0.62493 0
M  V30 4089 H 410.446 3.77647 1.45482 0
M  V30 4090 H 409.016 2.7179 1.54432 0
M  V30 4091 H 408.236 3.88827 -0.648605 0
M  V30 4092 H 409.524 5.07434 -0.372559 0
M  V30 4093 H 408.922 4.91287 2.80452 0
M  V30 4094 H 407.479 5.84131 2.89197 0
M  V30 4095 N 410.912 0.523116 1.48665 0
M  V30 4096 C 411.86 -0.256859 2.31177 0
M  V30 4097 C 412.854 -0.94199 1.40794 0
M  V30 4098 O 414.06 -0.867157 1.57735 0
M  V30 4099 H 410.435 -0.1017 0.745091 0
M  V30 4100 H 412.406 0.458739 2.94853 0
M  V30 4101 C 411.155 -1.29503 3.22683 0
M  V30 4102 H 410.478 -0.777248 3.92172 0
M  V30 4103 H 411.918 -1.81233 3.83315 0
M  V30 4104 C 410.377 -2.32501 2.43813 0
M  V30 4105 O 410.907 -3.3881 2.15803 0
M  V30 4106 N 409.113 -2.05538 2.05432 0
M  V30 4107 H 408.66 -1.19104 2.28412 0
M  V30 4108 H 408.618 -2.74676 1.52973 0
M  V30 4109 N 412.39 -1.55475 0.257931 0
M  V30 4110 C 413.353 -2.20551 -0.623706 0
M  V30 4111 C 414.353 -1.17809 -1.09443 0
M  V30 4112 O 415.543 -1.42823 -0.997362 0
M  V30 4113 C 412.675 -2.85784 -1.8585 0
M  V30 4114 H 413.868 -2.99848 -0.0557743 0
M  V30 4115 H 411.421 -1.56298 0.0084422 0
M  V30 4116 H 412.156 -2.10453 -2.46739 0
M  V30 4117 H 411.941 -3.61057 -1.52907 0
M  V30 4118 H 413.431 -3.35553 -2.48584 0
M  V30 4119 N 413.868 0.0150385 -1.57593 0
M  V30 4120 C 414.8 1.03912 -2.04291 0
M  V30 4121 C 415.813 1.31618 -0.958146 0
M  V30 4122 O 417.002 1.28859 -1.23522 0
M  V30 4123 C 414.102 2.37749 -2.41514 0
M  V30 4124 C 413.275 2.29198 -3.72541 0
M  V30 4125 C 412.334 3.45598 -3.96797 0
M  V30 4126 O 411.36 3.24461 -4.67668 0
M  V30 4127 N 412.562 4.67945 -3.43523 0
M  V30 4128 H 415.327 0.64099 -2.92765 0
M  V30 4129 H 412.888 0.20272 -1.60626 0
M  V30 4130 H 414.88 3.14364 -2.54867 0
M  V30 4131 H 413.45 2.69357 -1.58637 0
M  V30 4132 H 412.67 1.3759 -3.69408 0
M  V30 4133 H 413.958 2.20642 -4.5847 0
M  V30 4134 H 413.356 4.88017 -2.86104 0
M  V30 4135 H 411.913 5.41878 -3.62232 0
M  V30 4136 N 415.346 1.54954 0.287554 0
M  V30 4137 C 416.278 1.83224 1.37701 0
M  V30 4138 C 417.291 0.715898 1.46215 0
M  V30 4139 O 418.48 0.993565 1.48292 0
M  V30 4140 C 415.58 1.96723 2.75959 0
M  V30 4141 C 414.753 3.27253 2.90215 0
M  V30 4142 C 413.812 3.30998 4.09056 0
M  V30 4143 O 412.838 4.04457 4.00503 0
M  V30 4144 N 414.04 2.57353 5.20336 0
M  V30 4145 H 416.805 2.77254 1.138 0
M  V30 4146 H 414.366 1.54694 0.477652 0
M  V30 4147 H 416.358 1.96615 3.5373 0
M  V30 4148 H 414.928 1.09626 2.92747 0
M  V30 4149 H 414.148 3.40022 1.99447 0
M  V30 4150 H 415.436 4.13365 2.96659 0
M  V30 4151 H 414.834 1.97327 5.30169 0
M  V30 4152 H 413.391 2.62984 5.96391 0
M  V30 4153 N 416.824 -0.551391 1.4764 0
M  V30 4154 C 417.772 -1.67896 1.60978 0
M  V30 4155 C 418.766 -1.62549 0.476877 0
M  V30 4156 O 419.972 -1.67664 0.654878 0
M  V30 4157 H 416.347 -0.555649 0.506713 0
M  V30 4158 H 418.318 -1.53784 2.55721 0
M  V30 4159 C 417.067 -3.06234 1.64669 0
M  V30 4160 H 416.39 -3.11033 2.51194 0
M  V30 4161 H 417.83 -3.84804 1.7805 0
M  V30 4162 C 416.289 -3.34737 0.381115 0
M  V30 4163 O 416.819 -3.98381 -0.515297 0
M  V30 4164 N 415.025 -2.8944 0.259354 0
M  V30 4165 H 414.572 -2.37827 0.98976 0
M  V30 4166 H 414.53 -3.08882 -0.586464 0
M  V30 4167 N 418.302 -1.35869 -0.798587 0
M  V30 4168 C 419.265 -1.29307 -1.89242 0
M  V30 4169 C 420.265 -0.202747 -1.59517 0
M  V30 4170 O 421.455 -0.456957 -1.681 0
M  V30 4171 C 418.587 -1.00229 -3.25833 0
M  V30 4172 H 419.78 -2.26576 -1.96478 0
M  V30 4173 H 417.333 -1.20509 -0.995358 0
M  V30 4174 H 418.068 -0.033801 -3.24282 0
M  V30 4175 H 417.853 -1.79121 -3.48795 0
M  V30 4176 H 419.343 -0.98219 -4.05885 0
M  V30 4177 N 419.78 1.02168 -1.19998 0
M  V30 4178 C 420.712 2.10705 -0.901994 0
M  V30 4179 C 421.725 1.6244 0.108216 0
M  V30 4180 O 422.914 1.78082 -0.12214 0
M  V30 4181 C 420.014 3.37291 -0.329834 0
M  V30 4182 C 419.187 4.14714 -1.39035 0
M  V30 4183 C 418.246 5.19606 -0.830432 0
M  V30 4184 O 417.272 5.48809 -1.50989 0
M  V30 4185 N 418.474 5.79366 0.362696 0
M  V30 4186 H 421.239 2.36856 -1.83628 0
M  V30 4187 H 418.8 1.18518 -1.10296 0
M  V30 4188 H 420.792 4.04657 0.0587633 0
M  V30 4189 H 419.362 3.0843 0.508891 0
M  V30 4190 H 418.582 3.42392 -1.9535 0
M  V30 4191 H 419.87 4.63226 -2.10474 0
M  V30 4192 H 419.268 5.57968 0.932081 0
M  V30 4193 H 417.825 6.48106 0.69299 0
M  V30 4194 N 421.258 1.00505 1.21394 0
M  V30 4195 C 422.19 0.52372 2.23136 0
M  V30 4196 C 423.203 -0.387714 1.58116 0
M  V30 4197 O 424.392 -0.187905 1.77508 0
M  V30 4198 C 421.492 -0.258885 3.3791 0
M  V30 4199 C 420.665 0.651634 4.32519 0
M  V30 4200 C 419.724 -0.0813705 5.26137 0
M  V30 4201 O 418.75 0.537295 5.66658 0
M  V30 4202 N 419.952 -1.35992 5.64346 0
M  V30 4203 H 422.717 1.39865 2.65062 0
M  V30 4204 H 420.278 0.881196 1.35818 0
M  V30 4205 H 422.27 -0.758208 3.97534 0
M  V30 4206 H 420.84 -1.035 2.94968 0
M  V30 4207 H 420.06 1.33145 3.71034 0
M  V30 4208 H 421.348 1.27129 4.92662 0
M  V30 4209 H 420.746 -1.88368 5.33417 0
M  V30 4210 H 419.303 -1.8042 6.26332 0
M  V30 4211 N 422.737 -1.36956 0.779787 0
M  V30 4212 C 423.685 -2.32053 0.15942 0
M  V30 4213 C 424.679 -1.55333 -0.675878 0
M  V30 4214 O 425.885 -1.70668 -0.57204 0
M  V30 4215 H 422.26 -0.751286 0.0327707 0
M  V30 4216 H 424.231 -2.8195 0.977078 0
M  V30 4217 C 422.98 -3.40602 -0.698977 0
M  V30 4218 H 422.303 -3.99746 -0.0655966 0
M  V30 4219 H 423.743 -4.09486 -1.09989 0
M  V30 4220 C 422.202 -2.81359 -1.85307 0
M  V30 4221 O 422.732 -2.72751 -2.94906 0
M  V30 4222 N 420.938 -2.38786 -1.65619 0
M  V30 4223 H 420.485 -2.45987 -0.764725 0
M  V30 4224 H 420.443 -1.99493 -2.43002 0
M  V30 4225 N 424.215 -0.530993 -1.48385 0
M  V30 4226 C 425.178 0.220497 -2.28137 0
M  V30 4227 C 426.178 0.866851 -1.35434 0
M  V30 4228 O 427.368 0.726746 -1.58316 0
M  V30 4229 C 424.5 1.31921 -3.1434 0
M  V30 4230 H 425.693 -0.479714 -2.96038 0
M  V30 4231 H 423.246 -0.286968 -1.53643 0
M  V30 4232 H 423.981 2.05264 -2.51072 0
M  V30 4233 H 423.766 0.86085 -3.82533 0
M  V30 4234 H 425.256 1.84776 -3.74497 0
M  V30 4235 N 425.693 1.55336 -0.266172 0
M  V30 4236 C 426.625 2.19544 0.658247 0
M  V30 4237 C 427.638 1.17746 1.12427 0
M  V30 4238 O 428.827 1.44517 1.04772 0
M  V30 4239 C 425.927 2.80032 1.9088 0
M  V30 4240 C 425.1 4.07436 1.59106 0
M  V30 4241 C 424.159 4.52056 2.69317 0
M  V30 4242 O 423.185 5.18023 2.35883 0
M  V30 4243 N 424.387 4.21448 3.99201 0
M  V30 4244 H 427.152 2.99503 0.108754 0
M  V30 4245 H 424.713 1.61667 -0.0869059 0
M  V30 4246 H 426.705 3.06831 2.63888 0
M  V30 4247 H 425.275 2.04119 2.36758 0
M  V30 4248 H 424.495 3.88021 0.695243 0
M  V30 4249 H 425.783 4.90462 1.35367 0
M  V30 4250 H 425.181 3.68528 4.29189 0
M  V30 4251 H 423.738 4.53039 4.68614 0
M  V30 4252 N 427.171 -0.0066808 1.57599 0
M  V30 4253 C 428.103 -1.02827 2.04839 0
M  V30 4254 C 429.116 -1.31108 0.965113 0
M  V30 4255 O 430.305 -1.28202 1.24203 0
M  V30 4256 C 427.405 -2.36464 2.42771 0
M  V30 4257 C 426.578 -2.27219 3.73751 0
M  V30 4258 C 425.637 -3.43489 3.98625 0
M  V30 4259 O 424.663 -3.21976 4.69382 0
M  V30 4260 N 425.865 -4.66116 3.46 0
M  V30 4261 H 428.63 -0.625455 2.93101 0
M  V30 4262 H 426.191 -0.194198 1.60731 0
M  V30 4263 H 428.183 -3.13008 2.56531 0
M  V30 4264 H 426.753 -2.68512 1.60063 0
M  V30 4265 H 425.973 -1.35629 3.70133 0
M  V30 4266 H 427.261 -2.18208 4.59633 0
M  V30 4267 H 426.659 -4.86493 2.88688 0
M  V30 4268 H 425.216 -5.39949 3.65101 0
M  V30 4269 N 428.649 -1.55105 -0.279332 0
M  V30 4270 C 429.597 -1.88333 -1.36505 0
M  V30 4271 C 430.591 -0.759043 -1.51443 0
M  V30 4272 O 431.797 -0.943312 -1.53302 0
M  V30 4273 H 428.172 -0.59766 -0.456406 0
M  V30 4274 H 430.143 -2.79041 -1.05728 0
M  V30 4275 C 428.892 -2.16628 -2.7197 0
M  V30 4276 H 428.215 -3.02624 -2.61264 0
M  V30 4277 H 429.655 -2.43803 -3.46895 0
M  V30 4278 C 428.114 -0.971807 -3.22579 0
M  V30 4279 O 428.644 -0.203228 -4.01186 0
M  V30 4280 N 426.85 -0.771238 -2.80179 0
M  V30 4281 H 426.397 -1.39792 -2.1637 0
M  V30 4282 H 426.355 0.0263667 -3.14389 0
M  V30 4283 N 430.127 0.543554 -1.4793 0
M  V30 4284 C 431.09 1.63156 -1.60975 0
M  V30 4285 C 432.09 1.53346 -0.483899 0
M  V30 4286 O 433.28 1.5726 -0.749339 0
M  V30 4287 C 430.412 3.02743 -1.56716 0
M  V30 4288 H 431.605 1.52934 -2.57975 0
M  V30 4289 H 429.158 0.764557 -1.36324 0
M  V30 4290 H 429.893 3.18484 -0.611418 0
M  V30 4291 H 429.678 3.11272 -2.38438 0
M  V30 4292 H 431.168 3.81871 -1.6901 0
M  V30 4293 N 431.605 1.3629 0.791371 0
M  V30 4294 C 432.537 1.26321 1.91248 0
M  V30 4295 C 433.55 0.18313 1.61767 0
M  V30 4296 O 434.739 0.437682 1.73051 0
M  V30 4297 C 431.839 0.925901 3.26007 0
M  V30 4298 C 431.012 2.10746 3.83281 0
M  V30 4299 C 430.071 1.74352 4.96475 0
M  V30 4300 O 429.097 2.46416 5.13096 0
M  V30 4301 N 430.299 0.676058 5.7655 0
M  V30 4302 H 433.064 2.22915 2.00323 0
M  V30 4303 H 430.625 1.29659 0.969546 0
M  V30 4304 H 432.617 0.663636 3.99222 0
M  V30 4305 H 431.187 0.0491581 3.12561 0
M  V30 4306 H 430.407 2.53264 3.02077 0
M  V30 4307 H 431.695 2.8969 4.18279 0
M  V30 4308 H 431.093 0.0776467 5.65647 0
M  V30 4309 H 429.65 0.473612 6.50077 0
M  V30 4310 N 433.083 -1.0153 1.20538 0
M  V30 4311 C 434.015 -2.10224 0.913155 0
M  V30 4312 C 435.028 -1.62495 -0.0995998 0
M  V30 4313 O 436.217 -1.78014 0.131582 0
M  V30 4314 C 433.317 -3.37111 0.347717 0
M  V30 4315 C 432.49 -4.13971 1.41233 0
M  V30 4316 C 431.549 -5.19158 0.857976 0
M  V30 4317 O 430.575 -5.48 1.53897 0
M  V30 4318 N 431.777 -5.7955 -0.331966 0
M  V30 4319 H 434.542 -2.35879 1.84881 0
M  V30 4320 H 432.103 -1.17931 1.10923 0
M  V30 4321 H 434.095 -4.04683 -0.0373026 0
M  V30 4322 H 432.665 -3.08696 -0.492527 0
M  V30 4323 H 431.885 -3.41351 1.97163 0
M  V30 4324 H 433.173 -4.62103 2.12928 0
M  V30 4325 H 432.571 -5.58455 -0.902478 0
M  V30 4326 H 431.128 -6.48464 -0.65861 0
M  V30 4327 N 434.561 -1.01147 -1.20859 0
M  V30 4328 C 435.509 -0.57059 -2.25493 0
M  V30 4329 C 436.503 0.388109 -1.64894 0
M  V30 4330 O 437.709 0.258592 -1.78133 0
M  V30 4331 H 434.084 -0.166191 -0.733406 0
M  V30 4332 H 436.055 -1.46411 -2.60012 0
M  V30 4333 C 434.804 0.0805241 -3.47607 0
M  V30 4334 H 434.127 -0.648156 -3.94511 0
M  V30 4335 H 435.567 0.352197 -4.22535 0
M  V30 4336 C 434.026 1.32175 -3.09889 0
M  V30 4337 O 434.556 2.41553 -3.20959 0
M  V30 4338 N 432.762 1.20392 -2.64488 0
M  V30 4339 H 432.309 0.313905 -2.5568 0
M  V30 4340 H 432.267 2.03541 -2.39621 0
M  V30 4341 N 436.039 1.36541 -0.78704 0
M  V30 4342 C 437.267 2.03561 -0.370199 0
M  V30 4343 C 437.682 1.59347 1.01263 0
M  V30 4344 O 437.039 0.781781 1.64907 0
M  V30 4345 C 437.09 3.59033 -0.421614 0
M  V30 4346 O 436.811 4.01634 -1.7499 0
M  V30 4347 C 438.312 4.433 0.00489763 0
M  V30 4348 H 435.532 0.653346 -0.152904 0
M  V30 4349 H 438.076 1.74566 -1.06522 0
M  V30 4350 H 436.231 3.86746 0.224971 0
M  V30 4351 H 436.645 4.96217 -1.69909 0
M  V30 4352 H 438.119 5.51939 -0.0822184 0
M  V30 4353 H 438.596 4.26285 1.05723 0
M  V30 4354 H 439.202 4.20843 -0.614085 0
M  V30 4355 N 437.518 0.538854 1.48102 0
M  V30 4356 C 438.45 -0.256278 2.27763 0
M  V30 4357 C 439.463 -0.89633 1.35904 0
M  V30 4358 O 440.652 -0.773275 1.60881 0
M  V30 4359 C 437.752 -1.37896 3.09577 0
M  V30 4360 C 436.925 -0.839159 4.29275 0
M  V30 4361 C 435.984 -1.84405 4.9283 0
M  V30 4362 O 435.01 -1.39746 5.51779 0
M  V30 4363 N 436.212 -3.17666 4.85869 0
M  V30 4364 H 438.977 0.426968 2.96643 0
M  V30 4365 H 436.538 0.373747 1.57527 0
M  V30 4366 H 438.53 -2.04955 3.48963 0
M  V30 4367 H 437.1 -1.96572 2.4306 0
M  V30 4368 H 436.32 0.00769287 3.94199 0
M  V30 4369 H 437.608 -0.457548 5.06739 0
M  V30 4370 H 437.006 -3.56609 4.39143 0
M  V30 4371 H 435.563 -3.80334 5.29329 0
M  V30 4372 N 438.996 -1.55193 0.274407 0
M  V30 4373 C 439.928 -2.1989 -0.646595 0
M  V30 4374 C 440.941 -1.1834 -1.11801 0
M  V30 4375 O 442.13 -1.4507 -1.04004 0
M  V30 4376 C 439.23 -2.8104 -1.89393 0
M  V30 4377 C 438.403 -4.08274 -1.56943 0
M  V30 4378 C 437.462 -4.53478 -2.66916 0
M  V30 4379 O 436.488 -5.19267 -2.33132 0
M  V30 4380 N 437.69 -4.2356 -3.9696 0
M  V30 4381 H 440.455 -2.99556 -0.0928686 0
M  V30 4382 H 438.016 -1.61618 0.0954783 0
M  V30 4383 H 440.008 -3.08226 -2.62257 0
M  V30 4384 H 438.578 -2.05372 -2.35672 0
M  V30 4385 H 437.798 -3.88384 -0.674655 0
M  V30 4386 H 439.086 -4.91173 -1.32764 0
M  V30 4387 H 438.484 -3.70799 -4.27229 0
M  V30 4388 H 437.041 -4.55518 -4.66205 0
M  V30 4389 N 440.474 -0.00167713 -1.576 0
M  V30 4390 C 441.422 1.0074 -2.09652 0
M  V30 4391 C 442.416 1.35483 -1.01689 0
M  V30 4392 O 443.622 1.34028 -1.20152 0
M  V30 4393 H 439.997 0.342537 -0.669457 0
M  V30 4394 H 441.968 0.542841 -2.93421 0
M  V30 4395 C 440.717 2.2899 -2.61647 0
M  V30 4396 H 440.04 2.03124 -3.44355 0
M  V30 4397 H 441.48 2.9787 -3.01744 0
M  V30 4398 C 439.939 3.00085 -1.53136 0
M  V30 4399 O 440.469 3.91135 -0.91524 0
M  V30 4400 N 438.675 2.6194 -1.25841 0
M  V30 4401 H 438.222 1.8798 -1.76129 0
M  V30 4402 H 438.18 3.09822 -0.534576 0
M  V30 4403 N 441.952 1.55251 0.271103 0
M  V30 4404 C 443.18 1.79974 1.02064 0
M  V30 4405 C 443.595 0.574003 1.79863 0
M  V30 4406 O 442.952 -0.456962 1.76686 0
M  V30 4407 C 443.003 3.02603 1.97772 0
M  V30 4408 O 442.724 4.20443 1.23124 0
M  V30 4409 C 444.225 3.39944 2.84522 0
M  V30 4410 H 441.445 0.599489 0.301419 0
M  V30 4411 H 443.989 2.02268 0.301313 0
M  V30 4412 H 442.144 2.8243 2.65165 0
M  V30 4413 H 442.558 4.89783 1.87651 0
M  V30 4414 H 444.032 4.28915 3.47471 0
M  V30 4415 H 444.509 2.59432 3.54389 0
M  V30 4416 H 445.115 3.62383 2.22618 0
M  V30 4417 N 443.43 -0.535701 1.48216 0
M  V30 4418 C 444.362 -1.65662 1.58394 0
M  V30 4419 C 445.375 -1.5591 0.468607 0
M  V30 4420 O 446.564 -1.62475 0.7392 0
M  V30 4421 C 443.664 -3.04276 1.4923 0
M  V30 4422 C 442.837 -3.39567 2.75705 0
M  V30 4423 C 441.896 -4.57436 2.60075 0
M  V30 4424 O 440.922 -4.60942 3.33948 0
M  V30 4425 N 442.124 -5.55259 1.69315 0
M  V30 4426 H 444.889 -1.5737 2.55058 0
M  V30 4427 H 442.45 -0.722845 1.44867 0
M  V30 4428 H 444.442 -3.80994 1.36477 0
M  V30 4429 H 443.012 -3.06677 0.605632 0
M  V30 4430 H 442.232 -2.52083 3.03064 0
M  V30 4431 H 443.52 -3.59929 3.59623 0
M  V30 4432 H 442.918 -5.552 1.08489 0
M  V30 4433 H 441.475 -6.31218 1.62504 0
M  V30 4434 N 444.908 -1.36708 -0.784132 0
M  V30 4435 C 445.84 -1.27333 -1.90575 0
M  V30 4436 C 446.853 -0.191706 -1.61667 0
M  V30 4437 O 448.042 -0.446854 -1.72816 0
M  V30 4438 C 445.142 -0.943177 -3.25511 0
M  V30 4439 C 444.315 -2.12776 -3.82158 0
M  V30 4440 C 443.374 -1.76983 -4.95544 0
M  V30 4441 O 442.4 -2.49134 -5.11782 0
M  V30 4442 N 443.602 -0.706624 -5.76183 0
M  V30 4443 H 446.367 -2.23974 -1.99138 0
M  V30 4444 H 443.928 -1.30171 -0.962656 0
M  V30 4445 H 445.92 -0.684799 -3.98864 0
M  V30 4446 H 444.49 -0.0657333 -3.12531 0
M  V30 4447 H 443.71 -2.54863 -3.0073 0
M  V30 4448 H 444.998 -2.91904 -4.16737 0
M  V30 4449 H 444.396 -0.107643 -5.65598 0
M  V30 4450 H 442.953 -0.50808 -6.49817 0
M  V30 4451 N 446.386 1.0089 -1.21074 0
M  V30 4452 C 447.333 2.09588 -0.966512 0
M  V30 4453 C 448.303 1.65761 0.106089 0
M  V30 4454 O 449.488 1.90758 -0.0402287 0
M  V30 4455 C 446.628 3.40958 -0.533058 0
M  V30 4456 C 445.741 3.9822 -1.67467 0
M  V30 4457 C 444.876 5.17682 -1.19076 0
M  V30 4458 C 443.915 5.67043 -2.30496 0
M  V30 4459 N 443.052 6.77759 -1.83267 0
M  V30 4460 H 447.892 2.29815 -1.89708 0
M  V30 4461 H 445.429 1.12689 -0.945489 0
M  V30 4462 H 447.387 4.1637 -0.263019 0
M  V30 4463 H 446.017 3.20781 0.360505 0
M  V30 4464 H 445.069 3.1983 -2.05944 0
M  V30 4465 H 446.381 4.3085 -2.51336 0
M  V30 4466 H 445.535 6.00326 -0.877151 0
M  V30 4467 H 444.274 4.86635 -0.322066 0
M  V30 4468 H 443.279 4.82999 -2.62664 0
M  V30 4469 H 444.504 6.00121 -3.17855 0
M  V30 4470 H 442.45 6.48527 -0.987356 0
M  V30 4471 H 442.367 7.09624 -2.60711 0
M  V30 4472 H 443.635 7.63949 -1.54928 0
M  V30 4473 N 447.864 1.01787 1.20321 0
M  V30 4474 C 449.092 0.727194 1.937 0
M  V30 4475 C 449.507 -0.712305 1.74848 0
M  V30 4476 O 448.864 -1.48327 1.06327 0
M  V30 4477 C 448.915 1.05497 3.45764 0
M  V30 4478 O 448.636 2.43794 3.64 0
M  V30 4479 C 450.137 0.785534 4.36285 0
M  V30 4480 H 447.357 0.266939 0.615617 0
M  V30 4481 H 449.901 1.35939 1.52777 0
M  V30 4482 H 448.056 0.468158 3.84561 0
M  V30 4483 H 448.47 2.55656 4.57974 0
M  V30 4484 H 449.944 1.06495 5.4163 0
M  V30 4485 H 450.421 -0.280273 4.38305 0
M  V30 4486 H 451.027 1.35456 4.03152 0
M  V30 4487 N 449.342 -1.36122 0.79427 0
M  V30 4488 C 450.274 -2.28683 0.153903 0
M  V30 4489 C 451.287 -1.49707 -0.639669 0
M  V30 4490 O 452.476 -1.7209 -0.474054 0
M  V30 4491 C 449.576 -3.29202 -0.804921 0
M  V30 4492 C 448.749 -4.37358 -0.060366 0
M  V30 4493 C 447.808 -5.17811 -0.935849 0
M  V30 4494 O 446.834 -5.67853 -0.391309 0
M  V30 4495 N 448.036 -5.34721 -2.25951 0
M  V30 4496 H 450.801 -2.84278 0.949008 0
M  V30 4497 H 448.362 -1.4834 0.648611 0
M  V30 4498 H 450.354 -3.79914 -1.39455 0
M  V30 4499 H 448.924 -2.74212 -1.50088 0
M  V30 4500 H 448.144 -3.87746 0.710382 0
M  V30 4501 H 449.432 -5.06777 0.45324 0
M  V30 4502 H 448.83 -4.95687 -2.72601 0
M  V30 4503 H 447.387 -5.88657 -2.79867 0
M  V30 4504 N 450.82 -0.546701 -1.47814 0
M  V30 4505 C 451.752 0.244196 -2.27895 0
M  V30 4506 C 452.765 0.88911 -1.36377 0
M  V30 4507 O 453.954 0.764733 -1.61289 0
M  V30 4508 C 451.054 1.36252 -3.10304 0
M  V30 4509 C 450.227 0.816382 -4.29714 0
M  V30 4510 C 449.286 1.81789 -4.93801 0
M  V30 4511 O 448.312 1.36818 -5.52512 0
M  V30 4512 N 449.514 3.15085 -4.87547 0
M  V30 4513 H 452.279 -0.442694 -2.96412 0
M  V30 4514 H 449.84 -0.382095 -1.57327 0
M  V30 4515 H 451.832 2.03102 -3.50045 0
M  V30 4516 H 450.402 1.95281 -2.44099 0
M  V30 4517 H 449.622 -0.0285981 -3.9419 0
M  V30 4518 H 450.91 0.430668 -5.06974 0
M  V30 4519 H 450.308 3.54275 -4.41028 0
M  V30 4520 H 448.865 3.77522 -5.31339 0
M  V30 4521 N 452.299 1.55045 -0.282633 0
M  V30 4522 C 453.247 2.24254 0.617478 0
M  V30 4523 C 454.241 1.24215 1.15183 0
M  V30 4524 O 455.447 1.42123 1.10459 0
M  V30 4525 H 451.822 0.719801 0.217693 0
M  V30 4526 H 453.793 2.98398 0.0110076 0
M  V30 4527 C 452.542 2.98281 1.78672 0
M  V30 4528 H 451.865 3.75053 1.38475 0
M  V30 4529 H 453.305 3.50017 2.393 0
M  V30 4530 C 451.764 2.04184 2.67975 0
M  V30 4531 O 452.294 1.59792 3.6855 0
M  V30 4532 N 450.5 1.70526 2.35307 0
M  V30 4533 H 450.047 2.06821 1.53567 0
M  V30 4534 H 450.005 1.07839 2.95327 0
M  V30 4535 N 453.777 0.010035 1.57597 0
M  V30 4536 C 455.188 -0.531426 1.78977 0
M  V30 4537 C 455.539 -1.73375 0.918454 0
M  V30 4538 O 454.664 -2.16047 0.123635 0
M  V30 4539 C 455.259 -0.97086 3.24592 0
M  V30 4540 C 453.818 -1.45756 3.47033 0
M  V30 4541 C 452.965 -0.413384 2.74201 0
M  V30 4542 H 455.916 0.236166 1.56933 0
M  V30 4543 H 455.937 -1.83633 3.33255 0
M  V30 4544 H 455.449 -0.0955893 3.87982 0
M  V30 4545 H 453.55 -2.35339 2.88871 0
M  V30 4546 H 453.663 -1.4781 4.55729 0
M  V30 4547 H 452.027 -0.877266 2.39115 0
M  V30 4548 H 452.81 0.453092 3.40297 0
M  V30 4549 N 455.255 -1.55392 -0.262866 0
M  V30 4550 C 456.187 -1.85392 -1.34768 0
M  V30 4551 C 457.2 -0.739069 -1.45057 0
M  V30 4552 O 458.389 -1.01703 -1.46693 0
M  V30 4553 C 455.489 -2.01088 -2.72795 0
M  V30 4554 C 454.662 -3.31828 -2.84972 0
M  V30 4555 C 453.721 -3.37464 -4.03738 0
M  V30 4556 O 452.747 -4.10778 -3.94018 0
M  V30 4557 N 453.949 -2.65599 -5.16176 0
M  V30 4558 H 456.714 -2.79029 -1.09375 0
M  V30 4559 H 454.275 -1.55434 -0.452981 0
M  V30 4560 H 456.267 -2.02217 -3.50557 0
M  V30 4561 H 454.837 -1.1427 -2.90966 0
M  V30 4562 H 454.057 -3.43152 -1.94012 0
M  V30 4563 H 455.345 -4.18032 -2.90045 0
M  V30 4564 H 454.743 -2.05736 -5.26962 0
M  V30 4565 H 453.3 -2.72439 -5.92132 0
M  V30 4566 N 456.733 0.527833 -1.48498 0
M  V30 4567 C 457.665 1.6482 -1.5927 0
M  V30 4568 C 458.678 1.55659 -0.476869 0
M  V30 4569 O 459.867 1.62081 -0.747806 0
M  V30 4570 C 456.967 3.0348 -1.50842 0
M  V30 4571 C 456.14 3.381 -2.77502 0
M  V30 4572 C 455.199 4.5605 -2.62497 0
M  V30 4573 O 454.225 4.59165 -3.36387 0
M  V30 4574 N 455.427 5.54353 -1.72257 0
M  V30 4575 H 458.192 1.56015 -2.55889 0
M  V30 4576 H 455.753 0.715152 -1.45249 0
M  V30 4577 H 457.745 3.80264 -1.38496 0
M  V30 4578 H 456.315 3.06352 -0.621887 0
M  V30 4579 H 455.535 2.50473 -3.04396 0
M  V30 4580 H 456.823 3.58017 -3.61527 0
M  V30 4581 H 456.221 5.54617 -1.11431 0
M  V30 4582 H 454.778 6.30347 -1.65849 0
M  V30 4583 N 458.211 1.37122 0.776871 0
M  V30 4584 C 459.159 1.32549 1.91138 0
M  V30 4585 C 460.153 0.215119 1.68029 0
M  V30 4586 O 461.359 0.382852 1.75881 0
M  V30 4587 H 457.734 0.412952 0.62847 0
M  V30 4588 H 459.705 2.28332 1.92112 0
M  V30 4589 C 458.454 1.14422 3.28333 0
M  V30 4590 H 457.777 1.99115 3.46689 0
M  V30 4591 H 459.217 1.15272 4.0803 0
M  V30 4592 C 457.676 -0.150434 3.36564 0
M  V30 4593 O 458.206 -1.13584 3.85307 0
M  V30 4594 N 456.412 -0.19939 2.89915 0
M  V30 4595 H 455.959 0.603142 2.5044 0
M  V30 4596 H 455.917 -1.06526 2.95803 0
M  V30 4597 N 459.689 -1.00246 1.21608 0
M  V30 4598 C 460.652 -2.07233 0.979133 0
M  V30 4599 C 461.652 -1.6072 -0.0508219 0
M  V30 4600 O 462.842 -1.73196 0.186712 0
M  V30 4601 C 459.974 -3.37546 0.477016 0
M  V30 4602 H 461.167 -2.29687 1.92831 0
M  V30 4603 H 458.72 -1.17261 1.03342 0
M  V30 4604 H 459.455 -3.20773 -0.476966 0
M  V30 4605 H 459.24 -3.72638 1.21997 0
M  V30 4606 H 460.73 -4.16285 0.331181 0
M  V30 4607 N 461.167 -1.02423 -1.1978 0
M  V30 4608 C 462.099 -0.559152 -2.22275 0
M  V30 4609 C 463.112 0.36251 -1.58713 0
M  V30 4610 O 464.301 0.159641 -1.77785 0
M  V30 4611 C 461.401 0.205094 -3.38279 0
M  V30 4612 C 460.574 -0.720361 -4.31427 0
M  V30 4613 C 459.633 -0.00234368 -5.262 0
M  V30 4614 O 458.659 -0.627378 -5.65732 0
M  V30 4615 N 459.861 1.26996 -5.66438 0
M  V30 4616 H 462.626 -1.44064 -2.62804 0
M  V30 4617 H 460.187 -0.902692 -1.34399 0
M  V30 4618 H 462.179 0.694868 -3.9869 0
M  V30 4619 H 460.749 0.987947 -2.96578 0
M  V30 4620 H 459.969 -1.39031 -3.68869 0
M  V30 4621 H 461.257 -1.3495 -4.90577 0
M  V30 4622 H 460.655 1.79858 -5.36347 0
M  V30 4623 H 459.212 1.70432 -6.29123 0
M  V30 4624 N 462.645 1.35699 -0.801477 0
M  V30 4625 C 463.577 2.28598 -0.166028 0
M  V30 4626 C 464.59 1.50044 0.631721 0
M  V30 4627 O 465.779 1.72339 0.464921 0
M  V30 4628 C 462.879 3.29625 0.787451 0
M  V30 4629 C 462.052 4.37384 0.037171 0
M  V30 4630 C 461.111 5.183 0.908375 0
M  V30 4631 O 460.137 5.68053 0.361189 0
M  V30 4632 N 461.339 5.35912 2.23112 0
M  V30 4633 H 464.104 2.83771 -0.964071 0
M  V30 4634 H 461.665 1.47994 -0.656469 0
M  V30 4635 H 463.657 3.80648 1.37439 0
M  V30 4636 H 462.227 2.75004 1.48632 0
M  V30 4637 H 461.447 3.87364 -0.730935 0
M  V30 4638 H 462.735 5.0653 -0.480109 0
M  V30 4639 H 462.133 4.97125 2.69968 0
M  V30 4640 H 460.69 5.90133 2.76741 0
M  V30 4641 N 464.123 0.554532 1.47522 0
M  V30 4642 C 465.071 -0.207765 2.3167 0
M  V30 4643 C 466.065 -0.911914 1.4276 0
M  V30 4644 O 467.271 -0.833504 1.59539 0
M  V30 4645 H 463.646 -0.0858726 0.747081 0
M  V30 4646 H 465.617 0.521178 2.93813 0
M  V30 4647 C 464.366 -1.2263 3.25357 0
M  V30 4648 H 463.689 -0.693887 3.93732 0
M  V30 4649 H 465.129 -1.73062 3.87073 0
M  V30 4650 C 463.588 -2.27278 2.4869 0
M  V30 4651 O 464.118 -3.34156 2.22941 0
M  V30 4652 N 462.324 -2.01134 2.09746 0
M  V30 4653 H 461.871 -1.14232 2.30887 0
M  V30 4654 H 461.829 -2.71369 1.58765 0
M  V30 4655 N 465.601 -1.54893 0.290851 0
M  V30 4656 C 466.829 -2.04343 -0.324288 0
M  V30 4657 C 467.244 -1.16859 -1.48289 0
M  V30 4658 O 466.601 -0.192018 -1.81487 0
M  V30 4659 C 466.652 -3.52756 -0.79026 0
M  V30 4660 O 466.373 -4.36913 0.322213 0
M  V30 4661 C 467.874 -4.18161 -1.4716 0
M  V30 4662 H 465.094 -0.667135 -0.0719173 0
M  V30 4663 H 467.638 -1.99981 0.427529 0
M  V30 4664 H 465.793 -3.57511 -1.49213 0
M  V30 4665 H 466.207 -5.24486 -0.0387372 0
M  V30 4666 H 467.681 -5.23562 -1.7489 0
M  V30 4667 H 468.158 -3.67282 -2.40834 0
M  V30 4668 H 468.764 -4.17454 -0.813178 0
M  V30 4669 N 467.08 -0.0183926 -1.57589 0
M  V30 4670 C 468.012 0.995557 -2.06449 0
M  V30 4671 C 469.025 1.29556 -0.985849 0
M  V30 4672 O 470.214 1.2621 -1.26227 0
M  V30 4673 C 467.314 2.32572 -2.46502 0
M  V30 4674 C 466.487 2.21245 -3.77319 0
M  V30 4675 C 465.546 3.37104 -4.04039 0
M  V30 4676 O 464.572 3.14468 -4.74445 0
M  V30 4677 N 465.774 4.60553 -3.53372 0
M  V30 4678 H 468.539 0.578746 -2.94059 0
M  V30 4679 H 466.1 0.168603 -1.6102 0
M  V30 4680 H 468.092 3.08887 -2.61478 0
M  V30 4681 H 466.662 2.65931 -1.64315 0
M  V30 4682 H 465.882 1.29723 -3.72244 0
M  V30 4683 H 467.17 2.10868 -4.63047 0
M  V30 4684 H 466.568 4.81839 -2.96391 0
M  V30 4685 H 465.125 5.34072 -3.73644 0
M  V30 4686 N 468.558 1.5553 0.254621 0
M  V30 4687 C 469.49 1.86104 1.33783 0
M  V30 4688 C 470.503 0.746752 1.44663 0
M  V30 4689 O 471.692 1.0248 1.46151 0
M  V30 4690 C 468.792 2.02532 2.71724 0
M  V30 4691 C 467.965 3.33335 2.83208 0
M  V30 4692 C 467.024 3.396 4.01943 0
M  V30 4693 O 466.05 4.12862 3.91834 0
M  V30 4694 N 467.252 2.68332 5.1476 0
M  V30 4695 H 470.017 2.79605 1.07893 0
M  V30 4696 H 467.578 1.55672 0.444732 0
M  V30 4697 H 469.57 2.04074 3.4948 0
M  V30 4698 H 468.14 1.15811 2.90356 0
M  V30 4699 H 467.36 3.44176 1.92189 0
M  V30 4700 H 468.648 4.19565 2.87824 0
M  V30 4701 H 468.046 2.08528 5.25864 0
M  V30 4702 H 466.603 2.75575 5.90679 0
M  V30 4703 N 470.036 -0.519951 1.48776 0
M  V30 4704 C 470.984 -1.64443 1.64503 0
M  V30 4705 C 471.978 -1.61501 0.511248 0
M  V30 4706 O 473.184 -1.66238 0.690294 0
M  V30 4707 H 469.559 -0.544776 0.518385 0
M  V30 4708 H 471.53 -1.48325 2.58925 0
M  V30 4709 C 470.279 -3.02673 1.71127 0
M  V30 4710 H 469.602 -3.05635 2.57735 0
M  V30 4711 H 471.042 -3.80941 1.86172 0
M  V30 4712 C 469.501 -3.33854 0.452032 0
M  V30 4713 O 470.031 -3.99385 -0.430678 0
M  V30 4714 N 468.237 -2.88825 0.32069 0
M  V30 4715 H 467.784 -2.35674 1.03998 0
M  V30 4716 H 467.742 -3.10056 -0.520814 0
M  V30 4717 N 471.514 -1.37532 -0.769588 0
M  V30 4718 C 472.742 -1.36059 -1.55871 0
M  V30 4719 C 473.157 0.053544 -1.88724 0
M  V30 4720 O 472.514 1.01591 -1.5161 0
M  V30 4721 C 472.565 -2.20107 -2.86767 0
M  V30 4722 O 472.286 -3.56009 -2.55321 0
M  V30 4723 C 473.787 -2.26636 -3.80987 0
M  V30 4724 H 471.007 -0.465967 -0.482821 0
M  V30 4725 H 473.551 -1.80901 -0.953686 0
M  V30 4726 H 471.706 -1.78768 -3.43687 0
M  V30 4727 H 472.12 -4.0009 -3.39158 0
M  V30 4728 H 473.594 -2.89763 -4.69831 0
M  V30 4729 H 474.071 -1.2754 -4.20274 0
M  V30 4730 H 474.677 -2.68296 -3.29996 0
M  V30 4731 N 472.992 0.995999 -1.22138 0
M  V30 4732 C 473.924 2.08745 -0.946485 0
M  V30 4733 C 474.937 1.62633 0.0737356 0
M  V30 4734 O 476.126 1.77782 -0.159886 0
M  V30 4735 C 473.226 3.36516 -0.401305 0
M  V30 4736 C 472.399 4.11672 -1.47801 0
M  V30 4737 C 471.458 5.17728 -0.940461 0
M  V30 4738 O 470.484 5.45482 -1.62596 0
M  V30 4739 N 471.686 5.80005 0.239723 0
M  V30 4740 H 474.451 2.32908 -1.88611 0
M  V30 4741 H 472.012 1.16152 -1.12785 0
M  V30 4742 H 474.004 4.04691 -0.0270837 0
M  V30 4743 H 472.574 3.0944 0.443354 0
M  V30 4744 H 471.794 3.38171 -2.02568 0
M  V30 4745 H 473.082 4.58657 -2.20253 0
M  V30 4746 H 472.48 5.5982 0.813518 0
M  V30 4747 H 471.037 6.4943 0.555361 0
M  V30 4748 N 474.47 1.03057 1.19235 0
M  V30 4749 C 475.402 0.570932 2.21975 0
M  V30 4750 C 476.415 -0.354088 1.58903 0
M  V30 4751 O 477.604 -0.150211 1.77867 0
M  V30 4752 C 474.704 -0.187152 3.38383 0
M  V30 4753 C 473.877 0.743231 4.31039 0
M  V30 4754 C 472.936 0.0302493 5.26191 0
M  V30 4755 O 471.962 0.657371 5.65391 0
M  V30 4756 N 473.164 -1.23991 5.67104 0
M  V30 4757 H 475.929 1.45456 2.62036 0
M  V30 4758 H 473.49 0.909807 1.33918 0
M  V30 4759 H 475.482 -0.673715 3.99053 0
M  V30 4760 H 474.052 -0.972205 2.97098 0
M  V30 4761 H 473.272 1.40985 3.68126 0
M  V30 4762 H 474.56 1.3755 4.89854 0
M  V30 4763 H 473.958 -1.77011 5.37293 0
M  V30 4764 H 472.515 -1.67093 6.30018 0
M  V30 4765 N 475.948 -1.35272 0.808662 0
M  V30 4766 C 476.88 -2.28507 0.178149 0
M  V30 4767 C 477.893 -1.50377 -0.623754 0
M  V30 4768 O 479.082 -1.72583 -0.455774 0
M  V30 4769 C 476.182 -3.30038 -0.769959 0
M  V30 4770 C 475.355 -4.37398 -0.0139749 0
M  V30 4771 C 474.414 -5.18775 -0.880875 0
M  V30 4772 O 473.44 -5.68236 -0.331059 0
M  V30 4773 N 474.642 -5.37087 -2.20267 0
M  V30 4774 H 477.407 -2.83255 0.979106 0
M  V30 4775 H 474.968 -1.47643 0.664308 0
M  V30 4776 H 476.96 -3.81371 -1.35418 0
M  V30 4777 H 475.53 -2.75789 -1.47171 0
M  V30 4778 H 474.75 -3.86971 0.751468 0
M  V30 4779 H 476.038 -5.06268 0.506965 0
M  V30 4780 H 475.436 -4.9855 -2.67328 0
M  V30 4781 H 473.993 -5.91593 -2.73608 0
M  V30 4782 N 477.426 -0.562348 -1.47226 0
M  V30 4783 C 478.651 -0.0432632 -2.07355 0
M  V30 4784 C 479.076 1.24332 -1.41149 0
M  V30 4785 O 478.434 1.74603 -0.488226 0
M  V30 4786 C 478.482 0.130288 -3.60365 0
M  V30 4787 O 477.586 1.19166 -3.94808 0
M  V30 4788 H 476.927 -0.0536334 -0.66183 0
M  V30 4789 H 479.457 -0.779495 -1.89169 0
M  V30 4790 H 479.467 0.342881 -4.06557 0
M  V30 4791 H 478.142 -0.809389 -4.07948 0
M  V30 4792 H 476.719 0.959153 -3.60354 0
M  V30 4793 N 478.904 1.54736 -0.299062 0
M  V30 4794 C 480.132 2.04512 0.313447 0
M  V30 4795 C 480.547 1.17643 1.47667 0
M  V30 4796 O 479.904 0.20164 1.81383 0
M  V30 4797 C 479.955 3.53171 0.771542 0
M  V30 4798 O 479.676 4.36736 -0.345379 0
M  V30 4799 C 481.177 4.18936 1.4494 0
M  V30 4800 H 478.397 0.667507 0.0683784 0
M  V30 4801 H 480.941 1.99752 -0.438129 0
M  V30 4802 H 479.096 3.58298 1.47314 0
M  V30 4803 H 479.51 5.24499 0.0109219 0
M  V30 4804 H 480.984 5.24482 1.72111 0
M  V30 4805 H 481.461 3.68554 2.38883 0
M  V30 4806 H 482.067 4.17879 0.791028 0
M  V30 4807 N 480.382 0.0267497 1.57577 0
M  V30 4808 C 481.61 -0.662661 1.96001 0
M  V30 4809 C 482.025 -1.65799 0.903117 0
M  V30 4810 O 481.382 -1.82135 -0.115317 0
M  V30 4811 C 481.433 -1.37112 3.34488 0
M  V30 4812 O 481.154 -0.415683 4.36123 0
M  V30 4813 C 482.655 -2.15257 3.8753 0
M  V30 4814 H 479.875 -0.18287 0.6456 0
M  V30 4815 H 482.419 0.0858116 2.0432 0
M  V30 4816 H 480.574 -2.07101 3.27395 0
M  V30 4817 H 480.988 -0.918496 5.16395 0
M  V30 4818 H 482.462 -2.60285 4.86781 0
M  V30 4819 H 482.939 -2.99063 3.21649 0
M  V30 4820 H 483.545 -1.50231 3.97883 0
M  V30 4821 N 481.861 -1.55662 -0.24637 0
M  V30 4822 C 482.808 -1.90361 -1.30504 0
M  V30 4823 C 483.778 -0.757905 -1.47801 0
M  V30 4824 O 484.963 -1.01161 -1.61775 0
M  V30 4825 C 482.103 -2.2042 -2.65535 0
M  V30 4826 C 481.216 -3.47799 -2.56242 0
M  V30 4827 C 480.351 -3.67426 -3.8363 0
M  V30 4828 C 479.39 -4.88403 -3.68956 0
M  V30 4829 N 478.527 -5.04548 -4.88237 0
M  V30 4830 H 483.367 -2.80645 -1.00213 0
M  V30 4831 H 480.904 -1.38924 -0.483577 0
M  V30 4832 H 482.862 -2.35853 -3.44135 0
M  V30 4833 H 481.492 -1.3334 -2.93973 0
M  V30 4834 H 480.544 -3.40694 -1.69208 0
M  V30 4835 H 481.856 -4.36544 -2.4131 0
M  V30 4836 H 481.01 -3.82821 -4.70673 0
M  V30 4837 H 479.749 -2.76914 -4.01459 0
M  V30 4838 H 478.754 -4.72984 -2.80296 0
M  V30 4839 H 479.979 -5.80375 -3.52621 0
M  V30 4840 H 477.925 -4.16974 -5.06427 0
M  V30 4841 H 477.842 -5.87384 -4.75937 0
M  V30 4842 H 479.11 -5.24355 -5.76777 0
M  V30 4843 N 483.339 0.512053 -1.4905 0
M  V30 4844 C 484.564 1.2959 -1.6193 0
M  V30 4845 C 484.989 1.85906 -0.286454 0
M  V30 4846 O 484.347 1.65312 0.744426 0
M  V30 4847 C 484.395 2.40987 -2.68249 0
M  V30 4848 O 483.499 3.44531 -2.26654 0
M  V30 4849 H 482.84 0.383053 -0.542371 0
M  V30 4850 H 485.37 0.614231 -1.95162 0
M  V30 4851 H 485.38 2.86913 -2.90078 0
M  V30 4852 H 484.055 1.99361 -3.65004 0
M  V30 4853 H 482.632 3.046 -2.15112 0
M  V30 4854 N 484.817 1.37938 0.762283 0
M  V30 4855 C 486.045 1.36883 1.55147 0
M  V30 4856 C 486.46 -0.0435348 1.8875 0
M  V30 4857 O 485.817 -1.00786 1.52146 0
M  V30 4858 C 485.868 2.21624 2.85596 0
M  V30 4859 O 485.589 3.57358 2.5343 0
M  V30 4860 C 487.09 2.28653 3.7978 0
M  V30 4861 H 484.31 0.468521 0.480343 0
M  V30 4862 H 486.854 1.81404 0.944079 0
M  V30 4863 H 485.009 1.80588 3.42734 0
M  V30 4864 H 485.423 4.01883 3.37032 0
M  V30 4865 H 486.897 2.9225 4.68288 0
M  V30 4866 H 487.374 1.29767 4.19592 0
M  V30 4867 H 487.98 2.70043 3.28568 0
M  V30 4868 N 486.295 -0.989507 1.22664 0
M  V30 4869 C 487.523 -1.76496 1.07967 0
M  V30 4870 C 487.938 -1.85148 -0.369543 0
M  V30 4871 O 487.295 -1.32408 -1.25596 0
M  V30 4872 C 487.346 -3.19642 1.68853 0
M  V30 4873 O 487.067 -3.11453 3.08105 0
M  V30 4874 C 488.568 -4.13621 1.59475 0
M  V30 4875 H 485.788 -0.55418 0.378319 0
M  V30 4876 H 488.332 -1.24378 1.62328 0
M  V30 4877 H 486.487 -3.68816 1.18547 0
M  V30 4878 H 486.901 -4.01499 3.37489 0
M  V30 4879 H 488.375 -5.11801 2.06795 0
M  V30 4880 H 488.852 -4.35718 0.55191 0
M  V30 4881 H 489.458 -3.70346 2.09103 0
M  V30 4882 N 487.773 -1.03688 -1.18687 0
M  V30 4883 C 488.72 -0.624624 -2.22187 0
M  V30 4884 C 489.69 0.365636 -1.62026 0
M  V30 4885 O 490.875 0.260481 -1.89014 0
M  V30 4886 C 488.015 0.0101738 -3.45099 0
M  V30 4887 C 487.128 -1.02709 -4.19613 0
M  V30 4888 C 486.263 -0.361213 -5.2997 0
M  V30 4889 C 485.302 -1.38384 -5.96252 0
M  V30 4890 N 484.439 -0.743196 -6.98155 0
M  V30 4891 H 489.279 -1.51176 -2.56807 0
M  V30 4892 H 486.816 -0.75636 -1.26165 0
M  V30 4893 H 488.774 0.395528 -4.15321 0
M  V30 4894 H 487.404 0.860848 -3.1111 0
M  V30 4895 H 486.456 -1.53043 -3.48256 0
M  V30 4896 H 487.768 -1.80398 -4.65036 0
M  V30 4897 H 486.922 0.0785537 -6.06649 0
M  V30 4898 H 485.661 0.447799 -4.8564 0
M  V30 4899 H 484.666 -1.83378 -5.18317 0
M  V30 4900 H 485.891 -2.19448 -6.42666 0
M  V30 4901 H 483.837 0.0455789 -6.55984 0
M  V30 4902 H 483.754 -1.45784 -7.41811 0
M  V30 4903 H 485.022 -0.327698 -7.78811 0
M  V30 4904 N 489.251 1.34841 -0.815825 0
M  V30 4905 C 490.479 2.0273 -0.413294 0
M  V30 4906 C 490.894 1.61459 0.978599 0
M  V30 4907 O 490.251 0.816584 1.63212 0
M  V30 4908 C 490.302 3.58058 -0.497676 0
M  V30 4909 O 490.023 3.97832 -1.8347 0
M  V30 4910 C 491.524 4.4321 -0.0891339 0
M  V30 4911 H 488.744 0.649956 -0.166728 0
M  V30 4912 H 491.288 1.72267 -1.10201 0
M  V30 4913 H 489.443 3.87136 0.142886 0
M  V30 4914 H 489.857 4.92501 -1.80396 0
M  V30 4915 H 491.331 5.5164 -0.199274 0
M  V30 4916 H 491.808 4.28432 0.966571 0
M  V30 4917 H 492.414 4.19446 -0.703214 0
M  V30 4918 N 490.729 0.570148 1.46925 0
M  V30 4919 C 491.975 0.0510284 2.02736 0
M  V30 4920 C 492.308 -1.3006 1.44215 0
M  V30 4921 O 491.583 -1.84932 0.602521 0
M  V30 4922 C 491.866 -0.028215 3.60089 0
M  V30 4923 C 491.719 1.35142 4.29018 0
M  V30 4924 C 493.038 -0.735181 4.33916 0
M  V30 4925 H 490.157 0.0200178 0.736728 0
M  V30 4926 H 492.799 0.73493 1.75211 0
M  V30 4927 H 490.949 -0.610648 3.83671 0
M  V30 4928 H 492.621 1.97806 4.16738 0
M  V30 4929 H 490.864 1.9226 3.88868 0
M  V30 4930 H 491.535 1.24857 5.37694 0
M  V30 4931 H 494.011 -0.240519 4.15404 0
M  V30 4932 H 492.887 -0.759622 5.43618 0
M  V30 4933 H 493.148 -1.79397 4.04066 0
M  V30 4934 N 492.207 -1.54576 0.307264 0
M  V30 4935 C 493.17 -2.22423 -0.553224 0
M  V30 4936 C 494.17 -1.21231 -1.05639 0
M  V30 4937 O 495.36 -1.45923 -0.951419 0
M  V30 4938 C 492.492 -2.91552 -1.76664 0
M  V30 4939 H 493.685 -2.99874 0.0396484 0
M  V30 4940 H 491.238 -1.56192 0.0581629 0
M  V30 4941 H 491.973 -2.18196 -2.39918 0
M  V30 4942 H 491.758 -3.65738 -1.41343 0
M  V30 4943 H 493.248 -3.43292 -2.37783 0
M  V30 4944 N 493.685 -0.035106 -1.57561 0
M  V30 4945 C 495.101 0.321334 -1.56332 0
M  V30 4946 C 495.301 1.72509 -1.04129 0
M  V30 4947 O 494.357 2.4287 -0.690694 0
M  V30 4948 C 495.67 0.164469 -3.0025 0
M  V30 4949 C 497.218 0.236786 -3.12103 0
M  V30 4950 C 497.693 0.10864 -4.57871 0
M  V30 4951 N 499.184 0.165433 -4.62904 0
M  V30 4952 C 499.919 0.0901506 -5.73329 0
M  V30 4953 N 499.415 -0.0365606 -6.9279 0
M  V30 4954 N 501.208 0.144572 -5.61914 0
M  V30 4955 H 493.359 -0.952976 -1.89821 0
M  V30 4956 H 495.622 -0.368537 -0.873432 0
M  V30 4957 H 495.328 -0.802746 -3.42416 0
M  V30 4958 H 495.202 0.932194 -3.655 0
M  V30 4959 H 497.589 1.19446 -2.69845 0
M  V30 4960 H 497.67 -0.561419 -2.49563 0
M  V30 4961 H 497.314 -0.845644 -5.00811 0
M  V30 4962 H 497.244 0.925786 -5.18398 0
M  V30 4963 H 499.735 0.263269 -3.76982 0
M  V30 4964 H 500.048 -0.0871487 -7.72751 0
M  V30 4965 H 498.393 -0.0714256 -6.94963 0
M  V30 4966 H 501.584 0.242006 -4.67474 0
M  V30 4967 H 501.757 0.0824413 -6.47948 0
M  V30 4968 N 495.163 1.55791 0.238111 0
M  V30 4969 C 496.073 1.94196 1.31625 0
M  V30 4970 C 497.089 0.843545 1.52185 0
M  V30 4971 O 498.265 1.1457 1.65637 0
M  V30 4972 C 495.33 2.2365 2.64918 0
M  V30 4973 C 494.391 3.46971 2.52804 0
M  V30 4974 C 493.624 3.7501 3.79741 0
M  V30 4975 O 493.847 3.04982 4.82019 0
M  V30 4976 O 492.781 4.68525 3.77846 0
M  V30 4977 H 496.607 2.86044 1.02043 0
M  V30 4978 H 494.192 1.42786 0.439603 0
M  V30 4979 H 496.074 2.43863 3.4367 0
M  V30 4980 H 494.749 1.34979 2.94215 0
M  V30 4981 H 493.656 3.32055 1.72309 0
M  V30 4982 H 494.989 4.35971 2.28451 0
M  V30 4983 N 496.642 -0.504142 1.49319 0
M  V30 4984 C 497.87 -1.28256 1.62351 0
M  V30 4985 C 498.285 -1.86502 0.293682 0
M  V30 4986 O 497.642 -1.67678 -0.720449 0
M  V30 4987 C 497.693 -2.41507 2.68992 0
M  V30 4988 O 497.414 -1.85656 3.96817 0
M  V30 4989 C 498.915 -3.32929 2.927 0
M  V30 4990 H 496.135 -0.389115 0.546654 0
M  V30 4991 H 498.679 -0.605531 1.95329 0
M  V30 4992 H 496.834 -3.05046 2.38801 0
M  V30 4993 H 497.248 -2.59981 4.55533 0
M  V30 4994 H 498.722 -4.0868 3.71058 0
M  V30 4995 H 499.199 -3.89733 2.02496 0
M  V30 4996 H 499.805 -2.75158 3.24296 0
M  V30 4997 O 498.159 -1.47868 -0.649398 0
M  V30 4998 H 498.85 -1.43327 -1.30297 0
M  V30 END ATOM
M  V30 BEGIN BOND
M  V30 END BOND
M  V30 END CTAB
M  END
$$$$
