drugbank_target|P27338 Amine oxidase [flavin-containing] B (DB00182; DB00191; DB00752; DB00780; DB00909; DB01037; DB01132; DB01171; DB01247; DB01363; DB01367; DB01442; DB01472; DB01577; DB01626; DB02095; DB02211; DB02509; DB02643; DB03147; DB03894; DB04147; DB04307; DB04677; DB04820; DB04821; DB04832; DB06654; DB07512; DB07513; DB08082; DB08176; DB08480; DB08516; DB14914)
 OpenBabel12092120073D

  0  0  0     0  0            999 V3000
M  V30 BEGIN CTAB
M  V30 COUNTS 8287 8387 0 0 0
M  V30 BEGIN ATOM
M  V30 1 H -0.908 1.98254 -0.117106 0
M  V30 2 N 0 1.576 0 0
M  V30 3 C 0.933 2.03868 1.02534 0
M  V30 4 C 1.911 0.928543 1.3348 0
M  V30 5 O 3.095 1.19667 1.45644 0
M  V30 6 C 0.222 2.43627 2.35294 0
M  V30 7 C -0.732 3.65373 2.2001 0
M  V30 8 S 0.101 5.13292 1.52614 0
M  V30 9 C 1.257 5.56322 2.86805 0
M  V30 10 H 1.49 2.90518 0.631377 0
M  V30 11 H -0.977 1.52953 0.210867 0
M  V30 12 H 0.981 2.67203 3.11629 0
M  V30 13 H -0.358 1.57376 2.7183 0
M  V30 14 H -1.165 3.90944 3.18086 0
M  V30 15 H -1.563 3.418 1.51819 0
M  V30 16 H 0.729 5.58782 3.83104 0
M  V30 17 H 1.672 6.56266 2.65933 0
M  V30 18 H 2.08 4.83886 2.90714 0
M  V30 19 N 1.4781 -0.272755 1.55222 0
M  V30 20 C 2.7031 -1.02683 1.80197 0
M  V30 21 C 3.1281 -1.79142 0.573551 0
M  V30 22 O 2.4861 -1.74917 -0.476849 0
M  V30 23 C 2.5341 -1.9609 3.02624 0
M  V30 24 O 1.6381 -3.04863 2.77727 0
M  V30 25 H 0.9791 -0.293557 0.595584 0
M  V30 26 H 3.5091 -0.30159 2.02365 0
M  V30 27 H 3.5191 -2.38039 3.31363 0
M  V30 28 H 2.1941 -1.39851 3.91682 0
M  V30 29 H 0.7711 -2.67228 2.60084 0
M  V30 30 N 2.9562 -1.48159 -0.537278 0
M  V30 31 C 3.9042 -1.62573 -1.66352 0
M  V30 32 C 4.8982 -0.492366 -1.62087 0
M  V30 33 O 6.1042 -0.670847 -1.67032 0
M  V30 34 H 2.4792 -0.511992 -0.550789 0
M  V30 35 H 4.4502 -2.57176 -1.51337 0
M  V30 36 C 3.1992 -1.67583 -3.04649 0
M  V30 37 H 2.5222 -2.54151 -3.08622 0
M  V30 38 H 3.9622 -1.81713 -3.83088 0
M  V30 39 C 2.4212 -0.413039 -3.34358 0
M  V30 40 O 2.9512 0.477259 -3.98855 0
M  V30 41 N 1.1572 -0.286961 -2.8918 0
M  V30 42 H 0.7042 -1.01241 -2.36871 0
M  V30 43 H 0.6622 0.556963 -3.09427 0
M  V30 44 N 4.4343 0.785586 -1.36625 0
M  V30 45 C 5.3813 1.89838 -1.31264 0
M  V30 46 C 6.3513 1.65115 -0.180633 0
M  V30 47 O 7.5363 1.87222 -0.36777 0
M  V30 48 C 4.6763 3.26706 -1.11163 0
M  V30 49 C 3.7893 3.63476 -2.33472 0
M  V30 50 C 2.9243 4.89481 -2.06353 0
M  V30 51 C 1.9633 5.18941 -3.24602 0
M  V30 52 N 1.1003 6.36131 -2.97123 0
M  V30 53 H 5.9403 1.93756 -2.26413 0
M  V30 54 H 3.4773 0.947454 -1.12524 0
M  V30 55 H 5.4353 4.05639 -0.975337 0
M  V30 56 H 4.0653 3.222 -0.196674 0
M  V30 57 H 3.1173 2.79636 -2.57891 0
M  V30 58 H 4.4293 3.81193 -3.21704 0
M  V30 59 H 3.5833 5.76288 -1.89675 0
M  V30 60 H 2.3223 4.73841 -1.15437 0
M  V30 61 H 1.3273 4.30615 -3.41834 0
M  V30 62 H 2.5523 5.36498 -4.16349 0
M  V30 63 H 0.4983 6.21875 -2.08823 0
M  V30 64 H 0.4153 6.54198 -3.78894 0
M  V30 65 H 1.6833 7.2591 -2.84033 0
M  V30 66 N 5.9124 1.20967 1.01018 0
M  V30 67 C 7.1524 1.03511 1.76252 0
M  V30 68 C 7.5164 -0.42458 1.87247 0
M  V30 69 O 8.7174 -0.719508 2.58991 0
M  V30 70 C 6.9884 1.70726 3.13986 0
M  V30 71 S 8.5474 1.68458 4.05176 0
M  V30 72 H 5.3654 0.371037 0.606508 0
M  V30 73 H 7.9674 1.53628 1.20908 0
M  V30 74 H 6.6714 2.76128 3.03614 0
M  V30 75 H 6.2024 1.20767 3.74405 0
M  V30 76 H 8.2174 0.721987 4.90919 0
M  V30 77 N 7.3905 -1.2043 1.01659 0
M  V30 78 C 8.6675 -1.8548 0.621004 0
M  V30 79 C 9.0475 -1.9091 -0.900919 0
M  V30 80 O 8.3955 -1.41694 -1.79263 0
M  V30 81 C 8.6055 -3.25119 1.2688 0
M  V30 82 C 9.9535 -4.01403 1.38423 0
M  V30 83 O 10.9775 -3.34473 1.22501 0
M  V30 84 O 9.8365 -5.21265 1.64151 0
M  V30 85 H 6.9305 -0.798761 0.214266 0
M  V30 86 H 9.4765 -1.28019 1.11396 0
M  V30 87 H 8.2485 -3.15932 2.30873 0
M  V30 88 H 7.8715 -3.90212 0.762917 0
M  V30 89 N 8.8686 -0.792821 -1.36206 0
M  V30 90 C 10.1146 -0.36733 -1.99446 0
M  V30 91 C 10.4476 1.05917 -1.62774 0
M  V30 92 O 9.7226 1.7324 -0.88421 0
M  V30 93 C 10.0056 -0.535044 -3.56103 0
M  V30 94 C 9.8586 -2.00548 -4.02617 0
M  V30 95 C 11.1776 0.0478191 -4.40074 0
M  V30 96 H 8.2966 -0.134941 -0.724541 0
M  V30 97 H 10.9386 -0.999794 -1.61568 0
M  V30 98 H 9.0886 0.00336329 -3.885 0
M  V30 99 H 10.7606 -2.60521 -3.80692 0
M  V30 100 H 9.0036 -2.50686 -3.54032 0
M  V30 101 H 9.6746 -2.07377 -5.11565 0
M  V30 102 H 12.1506 -0.411822 -4.14057 0
M  V30 103 H 11.0266 -0.0995336 -5.4881 0
M  V30 104 H 11.2876 1.14025 -4.27142 0
M  V30 105 N 10.3467 1.47872 -0.545128 0
M  V30 106 C 11.5927 2.02793 -0.0166104 0
M  V30 107 C 11.9257 1.41987 1.32489 0
M  V30 108 O 11.2007 0.571045 1.85928 0
M  V30 109 C 11.4837 3.59989 0.0893294 0
M  V30 110 C 11.3367 4.3125 -1.27841 0
M  V30 111 C 12.6557 4.32606 0.808724 0
M  V30 112 H 9.7747 0.736962 -0.00751035 0
M  V30 113 H 12.4167 1.76433 -0.705085 0
M  V30 114 H 10.5667 3.82579 0.675681 0
M  V30 115 H 12.2387 4.20035 -1.90704 0
M  V30 116 H 10.4817 3.92076 -1.85632 0
M  V30 117 H 11.1527 5.39736 -1.15713 0
M  V30 118 H 13.6287 4.14936 0.310992 0
M  V30 119 H 12.5047 5.42251 0.851782 0
M  V30 120 H 12.7657 4.00963 1.86229 0
M  V30 121 N 11.8248 0.280983 1.55075 0
M  V30 122 C 13.0708 -0.33461 2.00021 0
M  V30 123 C 13.4038 -1.55063 1.16915 0
M  V30 124 O 12.6788 -1.93006 0.240646 0
M  V30 125 C 12.9618 -0.711007 3.53011 0
M  V30 126 C 12.8148 0.512766 4.46868 0
M  V30 127 C 14.1338 -1.54522 4.12081 0
M  V30 128 H 11.2528 -0.120147 0.727141 0
M  V30 129 H 13.8948 0.389097 1.85973 0
M  V30 130 H 12.0448 -1.32761 3.65112 0
M  V30 131 H 13.7168 1.15131 4.46702 0
M  V30 132 H 11.9598 1.14975 4.18286 0
M  V30 133 H 12.6308 0.205556 5.51617 0
M  V30 134 H 15.1068 -1.02442 4.03293 0
M  V30 135 H 13.9828 -1.77739 5.19327 0
M  V30 136 H 14.2438 -2.52813 3.62682 0
M  V30 137 N 13.3029 -1.57598 0.00835791 0
M  V30 138 C 14.5489 -1.91211 -0.675732 0
M  V30 139 C 14.8819 -0.883139 -1.72958 0
M  V30 140 O 14.1569 0.097016 -1.94258 0
M  V30 141 C 14.4399 -3.35379 -1.31123 0
M  V30 142 C 14.2929 -4.48999 -0.268356 0
M  V30 143 C 15.6119 -3.7912 -2.23508 0
M  V30 144 H 12.7309 -0.695374 -0.244179 0
M  V30 145 H 15.3729 -1.89901 0.0613655 0
M  V30 146 H 13.5229 -3.36626 -1.93946 0
M  V30 147 H 15.1949 -4.59887 0.360844 0
M  V30 148 H 13.4379 -4.31873 0.408482 0
M  V30 149 H 14.1089 -5.46851 -0.752218 0
M  V30 150 H 16.5849 -3.79477 -1.70693 0
M  V30 151 H 15.4609 -4.80729 -2.64936 0
M  V30 152 H 15.7219 -3.13455 -3.11766 0
M  V30 153 N 14.781 0.264519 -1.55364 0
M  V30 154 C 16.029 0.993021 -1.76021 0
M  V30 155 C 16.35 1.86511 -0.569099 0
M  V30 156 O 15.62 1.91438 0.415735 0
M  V30 157 H 14.2 0.369639 -0.649135 0
M  V30 158 H 16.862 0.286707 -1.9278 0
M  V30 159 H 15.958 1.62502 -2.66457 0
M  V30 160 N 16.2591 1.48442 0.529413 0
M  V30 161 C 17.5071 1.56179 1.28267 0
M  V30 162 C 17.8281 0.237721 1.93546 0
M  V30 163 O 17.0981 -0.740779 1.81354 0
M  V30 164 H 15.6781 0.575367 0.476405 0
M  V30 165 H 18.3401 1.84909 0.61602 0
M  V30 166 H 17.4361 2.34312 2.06165 0
M  V30 167 N 17.7372 -0.778329 1.37039 0
M  V30 168 C 18.9852 -1.53361 1.31623 0
M  V30 169 C 19.3062 -1.94739 -0.100831 0
M  V30 170 O 18.5762 -1.65797 -1.04347 0
M  V30 171 H 17.1562 -0.568794 0.484234 0
M  V30 172 H 19.8182 -0.926742 1.71457 0
M  V30 173 H 18.9142 -2.43606 1.95096 0
M  V30 174 N 19.2153 -1.21501 -1.00376 0
M  V30 175 C 20.4643 -1.02718 -1.73586 0
M  V30 176 C 20.7773 0.439589 -1.90596 0
M  V30 177 O 21.9833 0.746848 -2.61026 0
M  V30 178 C 20.4393 -1.78929 -3.1227 0
M  V30 179 C 20.0473 -3.29783 -3.03228 0
M  V30 180 C 21.7913 -1.68557 -3.89601 0
M  V30 181 C 19.6983 -3.98479 -4.36999 0
M  V30 182 H 18.6283 -0.380733 -0.650814 0
M  V30 183 H 21.2793 -1.45248 -1.1214 0
M  V30 184 H 19.6613 -1.29192 -3.74333 0
M  V30 185 H 20.8353 -3.86832 -2.50395 0
M  V30 186 H 19.1503 -3.40711 -2.39385 0
M  V30 187 H 21.7473 -2.17211 -4.88593 0
M  V30 188 H 22.0903 -0.644021 -4.11288 0
M  V30 189 H 22.6233 -2.15778 -3.34193 0
M  V30 190 H 19.3623 -5.02841 -4.20513 0
M  V30 191 H 18.8823 -3.46219 -4.89788 0
M  V30 192 H 20.5613 -4.03462 -5.05794 0
M  V30 193 N 20.6934 1.19889 -1.02296 0
M  V30 194 C 21.9184 1.9393 -0.735237 0
M  V30 195 C 22.3434 1.74639 0.698782 0
M  V30 196 O 21.7014 1.04481 1.48167 0
M  V30 197 C 21.7494 3.43916 -1.08417 0
M  V30 198 O 20.8534 4.11917 -0.199446 0
M  V30 199 H 20.1944 0.605645 -0.272196 0
M  V30 200 H 22.7244 1.52137 -1.36804 0
M  V30 201 H 22.7344 3.9456 -1.03856 0
M  V30 202 H 21.4094 3.5728 -2.12894 0
M  V30 203 H 19.9864 3.71666 -0.303136 0
M  V30 204 N 22.1715 0.800033 1.35784 0
M  V30 205 C 23.4195 0.376597 1.9856 0
M  V30 206 C 23.7405 -1.05812 1.63795 0
M  V30 207 O 23.0105 -1.73103 0.917171 0
M  V30 208 H 21.5905 0.136261 0.734467 0
M  V30 209 H 24.2525 1.02442 1.65806 0
M  V30 210 H 23.3485 0.477002 3.08433 0
M  V30 211 N 23.6496 -1.47581 0.552962 0
M  V30 212 C 24.5826 -2.26883 -0.244857 0
M  V30 213 C 25.5606 -1.33784 -0.924147 0
M  V30 214 O 26.7446 -1.6316 -0.943981 0
M  V30 215 C 23.8716 -3.10695 -1.34856 0
M  V30 216 C 22.9176 -4.19339 -0.778268 0
M  V30 217 S 23.7506 -5.34207 0.37184 0
M  V30 218 C 24.9066 -6.21584 -0.733779 0
M  V30 219 H 25.1396 -2.94202 0.428087 0
M  V30 220 H 22.6726 -1.50628 0.339197 0
M  V30 221 H 24.6306 -3.59555 -1.98066 0
M  V30 222 H 23.2916 -2.42746 -1.99332 0
M  V30 223 H 22.4846 -4.77695 -1.60696 0
M  V30 224 H 22.0866 -3.73338 -0.222422 0
M  V30 225 H 24.3786 -6.57676 -1.62692 0
M  V30 226 H 25.3216 -7.07851 -0.187668 0
M  V30 227 H 25.7296 -5.55125 -1.02454 0
M  V30 228 N 25.1277 -0.289203 -1.54924 0
M  V30 229 C 26.0907 0.579144 -2.21762 0
M  V30 230 C 27.0907 1.07047 -1.1999 0
M  V30 231 O 28.2807 0.968384 -1.44803 0
M  V30 232 C 25.4127 1.80055 -2.8947 0
M  V30 233 H 26.6057 -0.00464908 -2.999 0
M  V30 234 H 24.1587 -0.0399306 -1.56249 0
M  V30 235 H 24.8937 2.42449 -2.15381 0
M  V30 236 H 24.6787 1.45602 -3.64064 0
M  V30 237 H 26.1687 2.41773 -3.40493 0
M  V30 238 N 26.6058 1.57591 -0.0167156 0
M  V30 239 C 27.5688 2.08393 0.954204 0
M  V30 240 C 28.5688 0.996531 1.26198 0
M  V30 241 O 29.7588 1.25858 1.20438 0
M  V30 242 C 26.8908 2.5394 2.27436 0
M  V30 243 H 28.0838 2.95455 0.514451 0
M  V30 244 H 25.6368 1.54582 0.231089 0
M  V30 245 H 26.3718 1.70171 2.76066 0
M  V30 246 H 26.1568 3.33371 2.06412 0
M  V30 247 H 27.6468 2.93512 2.97053 0
M  V30 248 N 28.0839 -0.256276 1.55502 0
M  V30 249 C 29.0469 -1.30047 1.88734 0
M  V30 250 C 30.0469 -1.4154 0.763086 0
M  V30 251 O 31.2369 -1.40403 1.03115 0
M  V30 252 C 28.3689 -2.67953 2.10747 0
M  V30 253 H 29.5619 -1.01802 2.82093 0
M  V30 254 H 27.1149 -0.495134 1.4825 0
M  V30 255 H 27.8499 -3.01351 1.19825 0
M  V30 256 H 27.6349 -2.60993 2.92617 0
M  V30 257 H 29.1249 -3.43368 2.37673 0
M  V30 258 N 29.562 -1.4872 -0.521534 0
M  V30 259 C 30.509 -1.63871 -1.62527 0
M  V30 260 C 31.479 -0.480559 -1.58996 0
M  V30 261 O 32.664 -0.705085 -1.77294 0
M  V30 262 C 29.804 -1.69227 -3.00759 0
M  V30 263 C 28.917 -2.96207 -3.14461 0
M  V30 264 C 28.052 -2.92671 -4.43303 0
M  V30 265 C 27.091 -4.14318 -4.50563 0
M  V30 266 N 26.228 -4.0881 -5.70805 0
M  V30 267 H 31.068 -2.58123 -1.48918 0
M  V30 268 H 28.605 -1.28 -0.724878 0
M  V30 269 H 30.563 -1.70314 -3.80853 0
M  V30 270 H 29.193 -0.784586 -3.1312 0
M  V30 271 H 28.245 -3.04826 -2.27564 0
M  V30 272 H 29.557 -3.86192 -3.15686 0
M  V30 273 H 28.711 -2.92206 -5.31696 0
M  V30 274 H 27.45 -2.00429 -4.44612 0
M  V30 275 H 26.455 -4.15049 -3.60575 0
M  V30 276 H 27.68 -5.07729 -4.50986 0
M  V30 277 H 25.626 -3.19394 -5.72995 0
M  V30 278 H 25.543 -4.92509 -5.7356 0
M  V30 279 H 26.811 -4.12418 -6.61462 0
M  V30 280 N 31.0401 0.771051 -1.3745 0
M  V30 281 C 31.9701 1.89827 -1.3597 0
M  V30 282 C 32.9511 1.68562 -0.228216 0
M  V30 283 O 34.1361 1.8941 -0.428675 0
M  V30 284 C 31.2661 3.2712 -1.16662 0
M  V30 285 C 30.2201 3.6295 -2.2683 0
M  V30 286 C 29.5461 4.98791 -1.92644 0
M  V30 287 C 30.8461 3.69627 -3.69017 0
M  V30 288 H 32.5401 1.91323 -2.30295 0
M  V30 289 H 30.0861 0.919082 -1.10855 0
M  V30 290 H 32.0391 4.05615 -1.14256 0
M  V30 291 H 30.7631 3.26059 -0.187926 0
M  V30 292 H 29.4221 2.86763 -2.28392 0
M  V30 293 H 29.0701 4.94271 -0.933021 0
M  V30 294 H 28.7701 5.23733 -2.66416 0
M  V30 295 H 30.2941 5.79685 -1.91826 0
M  V30 296 H 31.7081 4.38273 -3.69581 0
M  V30 297 H 30.1051 4.06067 -4.41848 0
M  V30 298 H 31.1751 2.70273 -4.02592 0
M  V30 299 N 32.5182 1.22032 0.997298 0
M  V30 300 C 33.4482 1.01065 2.10495 0
M  V30 301 C 34.4292 -0.0669542 1.69968 0
M  V30 302 O 35.6142 0.0943987 1.9397 0
M  V30 303 C 32.7442 0.582874 3.42374 0
M  V30 304 C 31.6982 1.60592 3.96729 0
M  V30 305 C 31.0242 1.03412 5.24605 0
M  V30 306 C 32.3242 2.99478 4.27914 0
M  V30 307 H 34.0182 1.93708 2.28292 0
M  V30 308 H 31.5642 0.932761 1.09707 0
M  V30 309 H 33.5172 0.423332 4.19268 0
M  V30 310 H 32.2412 -0.379213 3.24391 0
M  V30 311 H 30.9002 1.75316 3.21963 0
M  V30 312 H 30.5482 0.063518 5.0296 0
M  V30 313 H 30.2482 1.71754 5.61938 0
M  V30 314 H 31.7722 0.886066 6.04137 0
M  V30 315 H 33.1862 2.88153 4.95622 0
M  V30 316 H 31.5832 3.64903 4.76409 0
M  V30 317 H 32.6532 3.49742 3.3587 0
M  V30 318 N 33.9963 -1.19345 1.0293 0
M  V30 319 C 34.9463 -2.20472 0.58104 0
M  V30 320 C 35.9303 -1.56578 -0.370442 0
M  V30 321 O 37.1223 -1.75963 -0.191344 0
M  V30 322 C 34.2513 -3.43236 -0.066306 0
M  V30 323 C 33.3373 -4.14274 0.907642 0
M  V30 324 N 33.7283 -4.61492 2.07023 0
M  V30 325 C 32.0263 -4.39966 0.731177 0
M  V30 326 C 32.7273 -5.1605 2.68454 0
M  V30 327 N 31.7033 -5.06875 1.96414 0
M  V30 328 H 35.5053 -2.54659 1.46717 0
M  V30 329 H 33.0193 -1.35423 0.896345 0
M  V30 330 H 35.0163 -4.14927 -0.405068 0
M  V30 331 H 33.6763 -3.10549 -0.948118 0
M  V30 332 H 34.6873 -4.56304 2.44963 0
M  V30 333 H 31.3643 -4.17377 -0.101507 0
M  V30 334 H 32.7543 -5.6287 3.66915 0
M  V30 335 N 35.4744 -0.807222 -1.35358 0
M  V30 336 C 36.7514 -0.311126 -1.9311 0
M  V30 337 C 37.1314 1.19937 -1.73719 0
M  V30 338 O 36.4794 1.99918 -1.10657 0
M  V30 339 C 36.6894 -0.723226 -3.41424 0
M  V30 340 C 38.0374 -0.713078 -4.18569 0
M  V30 341 O 39.0614 -0.664811 -3.49941 0
M  V30 342 O 37.9204 -0.772022 -5.41019 0
M  V30 343 H 35.0144 -0.081526 -0.822972 0
M  V30 344 H 37.5604 -0.890962 -1.4443 0
M  V30 345 H 36.3324 -1.76426 -3.4927 0
M  V30 346 H 35.9554 -0.118232 -3.97424 0
M  V30 347 N 36.9525 1.47285 -0.560781 0
M  V30 348 C 38.1775 2.07359 -0.0410566 0
M  V30 349 C 38.6025 1.41017 1.24483 0
M  V30 350 O 37.9605 0.486368 1.74654 0
M  V30 351 C 38.0085 3.6035 0.134123 0
M  V30 352 O 37.1125 3.94681 1.19587 0
M  V30 353 H 36.4535 0.661887 -0.0529291 0
M  V30 354 H 38.9835 1.89252 -0.777482 0
M  V30 355 H 38.9935 4.0652 0.347207 0
M  V30 356 H 37.6685 4.08034 -0.805047 0
M  V30 357 H 36.2455 3.60251 0.962987 0
M  V30 358 N 38.4306 0.297415 1.54768 0
M  V30 359 C 39.6786 -0.312295 1.99673 0
M  V30 360 C 39.9996 -1.54686 1.18732 0
M  V30 361 O 39.2696 -1.93854 0.282382 0
M  V30 362 H 37.8496 -0.118381 0.73756 0
M  V30 363 H 40.5116 0.407915 1.90583 0
M  V30 364 H 39.6076 -0.586813 3.06534 0
M  V30 365 N 39.9087 -1.5758 0.0250728 0
M  V30 366 C 40.8387 -2.13007 -0.956575 0
M  V30 367 C 41.8197 -1.0452 -1.342 0
M  V30 368 O 43.0047 -1.32332 -1.42133 0
M  V30 369 C 40.1347 -2.65386 -2.24026 0
M  V30 370 C 39.0887 -3.78623 -1.99571 0
M  V30 371 C 38.4147 -4.17414 -3.3417 0
M  V30 372 C 39.7147 -5.04867 -1.33814 0
M  V30 373 H 41.4087 -2.9528 -0.494991 0
M  V30 374 H 38.9547 -1.42042 -0.236651 0
M  V30 375 H 40.9077 -3.02794 -2.93076 0
M  V30 376 H 39.6317 -1.80268 -2.72343 0
M  V30 377 H 38.2907 -3.41646 -1.32941 0
M  V30 378 H 37.9387 -3.29284 -3.80238 0
M  V30 379 H 37.6387 -4.93719 -3.18615 0
M  V30 380 H 39.1627 -4.57402 -4.04495 0
M  V30 381 H 40.5767 -5.39888 -1.92857 0
M  V30 382 H 38.9737 -5.86144 -1.28669 0
M  V30 383 H 40.0437 -4.83904 -0.310561 0
M  V30 384 N 41.3868 0.248026 -1.55636 0
M  V30 385 C 42.3348 1.32683 -1.91045 0
M  V30 386 C 43.3288 1.49883 -0.789401 0
M  V30 387 O 44.5348 1.51371 -0.974007 0
M  V30 388 H 40.9098 0.444272 -0.606734 0
M  V30 389 H 42.8808 1.00085 -2.81115 0
M  V30 390 C 41.6298 2.6755 -2.22064 0
M  V30 391 H 40.9528 2.55114 -3.07826 0
M  V30 392 H 42.3928 3.41912 -2.50743 0
M  V30 393 C 40.8518 3.20556 -1.0366 0
M  V30 394 O 41.3818 4.00695 -0.284016 0
M  V30 395 N 39.5878 2.78568 -0.82753 0
M  V30 396 H 39.1348 2.1351 -1.44123 0
M  V30 397 H 39.0928 3.14378 -0.0369803 0
M  V30 398 N 42.8649 1.48995 0.513639 0
M  V30 399 C 44.1109 1.58076 1.27042 0
M  V30 400 C 44.4439 0.261026 1.92438 0
M  V30 401 O 43.7189 -0.734393 1.80103 0
M  V30 402 C 44.0019 2.73091 2.34719 0
M  V30 403 C 43.8549 4.14821 1.73907 0
M  V30 404 C 45.1739 2.83796 3.36375 0
M  V30 405 H 42.2929 0.575391 0.460536 0
M  V30 406 H 44.9349 1.81232 0.570516 0
M  V30 407 H 43.0849 2.53479 2.94416 0
M  V30 408 H 44.7569 4.45917 1.18135 0
M  V30 409 H 42.9999 4.21058 1.0437 0
M  V30 410 H 43.6709 4.91147 2.51949 0
M  V30 411 H 46.1469 3.01611 2.86653 0
M  V30 412 H 45.0229 3.65971 4.09093 0
M  V30 413 H 45.2839 1.92624 3.9793 0
M  V30 414 N 44.343 -0.763751 1.37857 0
M  V30 415 C 45.589 -1.52483 1.33704 0
M  V30 416 C 45.922 -1.94051 -0.0759612 0
M  V30 417 O 45.197 -1.64675 -1.03501 0
M  V30 418 C 45.48 -2.78441 2.28348 0
M  V30 419 C 45.333 -2.43075 3.78463 0
M  V30 420 C 46.652 -3.80415 2.21298 0
M  V30 421 H 43.771 -0.553169 0.487005 0
M  V30 422 H 46.413 -0.875562 1.68624 0
M  V30 423 H 44.563 -3.33842 1.987 0
M  V30 424 H 46.235 -1.93527 4.18742 0
M  V30 425 H 44.478 -1.75666 3.96641 0
M  V30 426 H 45.149 -3.33149 4.40132 0
M  V30 427 H 47.625 -3.34527 2.47449 0
M  V30 428 H 46.501 -4.66257 2.89647 0
M  V30 429 H 46.762 -4.25262 1.20849 0
M  V30 430 N 45.8211 -1.22559 -0.990812 0
M  V30 431 C 47.0671 -1.05297 -1.73322 0
M  V30 432 C 47.4001 0.410655 -1.89808 0
M  V30 433 O 46.6751 1.30439 -1.44277 0
M  V30 434 C 46.9581 -1.76713 -3.13759 0
M  V30 435 C 46.8111 -3.30684 -3.04907 0
M  V30 436 C 48.1301 -1.52121 -4.12974 0
M  V30 437 H 45.2491 -0.38392 -0.629106 0
M  V30 438 H 47.8911 -1.50926 -1.15418 0
M  V30 439 H 46.0411 -1.37924 -3.63193 0
M  V30 440 H 47.7131 -3.7893 -2.63077 0
M  V30 441 H 45.9561 -3.60253 -2.41661 0
M  V30 442 H 46.6271 -3.75833 -4.04294 0
M  V30 443 H 49.1031 -1.85819 -3.72304 0
M  V30 444 H 47.9791 -2.04582 -5.0935 0
M  V30 445 H 48.2401 -0.454257 -4.3976 0
M  V30 446 N 47.2992 1.18797 -1.03562 0
M  V30 447 C 48.2292 2.24472 -0.643019 0
M  V30 448 C 49.2102 1.66433 0.351283 0
M  V30 449 O 50.3952 1.92803 0.232505 0
M  V30 450 C 47.5252 3.473 4.24935e-05 0
M  V30 451 C 46.4792 4.18055 -0.917257 0
M  V30 452 C 45.8052 5.34519 -0.138941 0
M  V30 453 C 47.1052 4.72109 -2.23407 0
M  V30 454 H 48.7992 2.57566 -1.52643 0
M  V30 455 H 46.3452 1.23806 -0.735394 0
M  V30 456 H 48.2982 4.20426 0.286383 0
M  V30 457 H 47.0222 3.13424 0.918299 0
M  V30 458 H 45.6812 3.46821 -1.1879 0
M  V30 459 H 45.3292 4.96891 0.781562 0
M  V30 460 H 45.0292 5.82794 -0.750005 0
M  V30 461 H 46.5532 6.10438 0.1405 0
M  V30 462 H 47.9672 5.36955 -2.00879 0
M  V30 463 H 46.3642 5.30897 -2.79765 0
M  V30 464 H 47.4342 3.89807 -2.88407 0
M  V30 465 N 48.7773 0.814389 1.34928 0
M  V30 466 C 49.6873 0.231978 2.3345 0
M  V30 467 C 50.7033 -0.629139 1.62228 0
M  V30 468 O 51.8793 -0.539052 1.94052 0
M  V30 469 C 48.9443 -0.603482 3.41407 0
M  V30 470 C 48.0053 0.279037 4.28392 0
M  V30 471 C 47.2383 -0.516643 5.31193 0
M  V30 472 O 47.4613 -1.75068 5.4287 0
M  V30 473 O 46.3953 0.0965652 6.01823 0
M  V30 474 H 50.2213 1.04721 2.85074 0
M  V30 475 H 47.8063 0.576343 1.37836 0
M  V30 476 H 49.6883 -1.07908 4.0735 0
M  V30 477 H 48.3633 -1.39618 2.92042 0
M  V30 478 H 47.2703 0.801948 3.65403 0
M  V30 479 H 48.6033 1.03588 4.81176 0
M  V30 480 N 50.2554 -1.46986 0.568584 0
M  V30 481 C 51.2184 -2.28624 -0.162366 0
M  V30 482 C 52.2184 -1.37596 -0.832103 0
M  V30 483 O 53.4084 -1.60115 -0.68622 0
M  V30 484 C 50.5404 -3.17596 -1.23878 0
M  V30 485 H 51.7334 -2.94722 0.554899 0
M  V30 486 H 49.2864 -1.52863 0.325976 0
M  V30 487 H 50.0214 -2.56214 -1.98808 0
M  V30 488 H 49.8064 -3.846 -0.763219 0
M  V30 489 H 51.2964 -3.79078 -1.75185 0
M  V30 490 N 51.7335 -0.305618 -1.54608 0
M  V30 491 C 53.1495 0.0476228 -1.59529 0
M  V30 492 C 53.3495 1.52025 -1.32252 0
M  V30 493 O 52.4055 2.27368 -1.09818 0
M  V30 494 C 53.7185 -0.354471 -2.98603 0
M  V30 495 C 55.2665 -0.303622 -3.11524 0
M  V30 496 C 55.7415 -0.680608 -4.52915 0
M  V30 497 N 57.2325 -0.63332 -4.5885 0
M  V30 498 C 57.9675 -0.897432 -5.66334 0
M  V30 499 N 57.4635 -1.22775 -6.81834 0
M  V30 500 N 59.2565 -0.824186 -5.56025 0
M  V30 501 H 51.4075 -1.2653 -1.70599 0
M  V30 502 H 53.6705 -0.513291 -0.797017 0
M  V30 503 H 53.3765 -1.3798 -3.23503 0
M  V30 504 H 53.2505 0.289568 -3.76087 0
M  V30 505 H 55.6375 0.712472 -2.8637 0
M  V30 506 H 55.7185 -0.982348 -2.36185 0
M  V30 507 H 55.3625 -1.69453 -4.78799 0
M  V30 508 H 55.2925 0.0202385 -5.26596 0
M  V30 509 H 57.7835 -0.389138 -3.75891 0
M  V30 510 H 58.0965 -1.41513 -7.59733 0
M  V30 511 H 56.4415 -1.26583 -6.83375 0
M  V30 512 H 59.6325 -0.565748 -4.64669 0
M  V30 513 H 59.8055 -1.03338 -6.39707 0
M  V30 514 N 53.2116 1.57565 -0.0334293 0
M  V30 515 C 54.4886 1.83282 0.683163 0
M  V30 516 C 54.8686 0.91823 1.90084 0
M  V30 517 O 54.2166 -0.025113 2.28486 0
M  V30 518 C 54.4266 3.32599 1.0573 0
M  V30 519 C 55.7746 3.99179 1.44711 0
M  V30 520 O 56.7986 3.3712 1.15015 0
M  V30 521 O 55.6576 5.08565 2.0006 0
M  V30 522 H 52.7516 0.755869 0.335546 0
M  V30 523 H 55.2976 1.69589 -0.0614402 0
M  V30 524 H 54.0696 3.90834 0.190828 0
M  V30 525 H 53.6926 3.51415 1.85993 0
M  V30 526 N 54.6897 -0.239769 1.55765 0
M  V30 527 C 56.1057 -0.588624 1.48349 0
M  V30 528 C 56.3057 -1.88005 0.72502 0
M  V30 529 O 55.3617 -2.51186 0.257269 0
M  V30 530 C 56.6747 -0.68474 2.928 0
M  V30 531 C 58.2227 -0.77659 3.03213 0
M  V30 532 C 58.6977 -0.904207 4.48986 0
M  V30 533 N 60.1887 -0.968896 4.52953 0
M  V30 534 C 60.9237 -1.08703 5.63002 0
M  V30 535 N 60.4197 -1.17026 6.82845 0
M  V30 536 N 62.2127 -1.12074 5.50814 0
M  V30 537 H 54.3637 0.607911 2.03515 0
M  V30 538 H 56.6267 0.21083 0.924259 0
M  V30 539 H 56.3327 0.194284 3.51163 0
M  V30 540 H 56.2067 -1.55435 3.43686 0
M  V30 541 H 58.5937 -1.64606 2.44926 0
M  V30 542 H 58.6747 0.118315 2.55526 0
M  V30 543 H 58.3187 -0.0392633 5.07885 0
M  V30 544 H 58.2487 -1.81426 4.9436 0
M  V30 545 H 60.7397 -0.915633 3.6664 0
M  V30 546 H 61.0527 -1.25966 7.62465 0
M  V30 547 H 59.3977 -1.13971 6.85591 0
M  V30 548 H 62.5887 -1.05226 4.5612 0
M  V30 549 H 62.7617 -1.20936 6.36615 0
M  V30 550 N 56.1678 -1.49265 -0.50573 0
M  V30 551 C 57.4138 -1.58748 -1.26202 0
M  V30 552 C 57.7468 -0.271227 -1.92297 0
M  V30 553 O 57.0218 0.724831 -1.80489 0
M  V30 554 C 57.3048 -2.74332 -2.33268 0
M  V30 555 C 57.1578 -4.15737 -1.71705 0
M  V30 556 C 58.4768 -2.85576 -3.34865 0
M  V30 557 H 55.5958 -0.577826 -0.457478 0
M  V30 558 H 58.2378 -1.81532 -0.560897 0
M  V30 559 H 56.3878 -2.55036 -2.93068 0
M  V30 560 H 58.0598 -4.46537 -1.15769 0
M  V30 561 H 56.3028 -4.21605 -1.02135 0
M  V30 562 H 56.9738 -4.92477 -2.49341 0
M  V30 563 H 59.4498 -3.03127 -2.8505 0
M  V30 564 H 58.3258 -3.68135 -4.07146 0
M  V30 565 H 58.5868 -1.94732 -3.96903 0
M  V30 566 N 57.6459 0.756429 -1.3826 0
M  V30 567 C 58.8939 1.51248 -1.34047 0
M  V30 568 C 59.2149 1.94875 0.0698372 0
M  V30 569 O 58.4849 1.67436 1.01696 0
M  V30 570 H 57.0649 0.561018 -0.493222 0
M  V30 571 H 59.7269 0.899347 -1.7291 0
M  V30 572 H 58.8229 2.40472 -1.98947 0
M  V30 573 N 59.124 1.23083 0.984299 0
M  V30 574 C 60.372 1.05848 1.72165 0
M  V30 575 C 60.693 -0.406049 1.90726 0
M  V30 576 O 59.963 -1.29139 1.47309 0
M  V30 577 H 58.543 0.388685 0.637913 0
M  V30 578 H 61.205 1.54736 1.18503 0
M  V30 579 H 60.301 1.54327 2.71274 0
M  V30 580 N 60.6021 -1.18246 1.0419 0
M  V30 581 C 62.0181 -1.40269 0.761366 0
M  V30 582 C 62.2181 -1.90777 -0.648578 0
M  V30 583 O 61.2741 -2.0929 -1.41258 0
M  V30 584 C 62.5871 -2.40237 1.8085 0
M  V30 585 C 64.1351 -2.53961 1.82955 0
M  V30 586 C 64.6101 -3.57194 2.86664 0
M  V30 587 N 66.1011 -3.64702 2.85563 0
M  V30 588 C 66.8361 -4.44309 3.6246 0
M  V30 589 N 66.3321 -5.27514 4.49111 0
M  V30 590 N 68.1251 -4.39084 3.50944 0
M  V30 591 H 60.2761 -0.837882 1.95175 0
M  V30 592 H 62.5391 -0.430608 0.84456 0
M  V30 593 H 62.2451 -2.10176 2.81991 0
M  V30 594 H 62.1191 -3.39601 1.64168 0
M  V30 595 H 64.5061 -2.83338 0.824855 0
M  V30 596 H 64.5871 -1.54706 2.03715 0
M  V30 597 H 64.2311 -3.28558 3.87314 0
M  V30 598 H 64.1611 -4.5613 2.6316 0
M  V30 599 H 66.6521 -3.05289 2.22727 0
M  V30 600 H 66.9651 -5.85411 5.04493 0
M  V30 601 H 65.3101 -5.2693 4.53178 0
M  V30 602 H 68.5011 -3.7313 2.82651 0
M  V30 603 H 68.6741 -5.00883 4.11121 0
M  V30 604 N 62.0802 -0.821533 -1.34494 0
M  V30 605 C 63.3082 -0.421884 -2.02553 0
M  V30 606 C 63.7232 0.971745 -1.61872 0
M  V30 607 O 63.0802 1.62864 -0.823496 0
M  V30 608 C 63.1312 -0.51285 -3.57844 0
M  V30 609 O 62.8522 -1.85155 -3.97051 0
M  V30 610 C 64.3532 -0.107921 -4.43169 0
M  V30 611 H 61.5732 -0.169482 -0.649243 0
M  V30 612 H 64.1172 -1.1093 -1.71798 0
M  V30 613 H 62.2722 0.126474 -3.87193 0
M  V30 614 H 62.6862 -1.82482 -4.91732 0
M  V30 615 H 64.1602 -0.222657 -5.51551 0
M  V30 616 H 64.6372 0.948401 -4.28838 0
M  V30 617 H 65.2432 -0.720989 -4.19144 0
M  V30 618 N 63.5583 1.46682 -0.576371 0
M  V30 619 C 64.7883 2.06498 -0.0648694 0
M  V30 620 C 65.1963 1.42665 1.24271 0
M  V30 621 O 64.5393 0.523886 1.76071 0
M  V30 622 C 64.6013 3.5904 0.181816 0
M  V30 623 C 64.2653 4.45028 -1.0392 0
M  V30 624 C 65.2623 4.81959 -1.94966 0
M  V30 625 C 62.9473 4.86259 -1.25927 0
M  V30 626 C 64.9413 5.58942 -3.06371 0
M  V30 627 C 62.6283 5.63002 -2.37638 0
M  V30 628 C 63.6263 5.99257 -3.2769 0
M  V30 629 O 63.3143 6.7445 -4.37461 0
M  V30 630 H 63.0463 0.674028 -0.0515987 0
M  V30 631 H 65.6003 1.89393 -0.794951 0
M  V30 632 H 63.8303 3.74429 0.966436 0
M  V30 633 H 65.5193 4.00806 0.641047 0
M  V30 634 H 66.2853 4.50689 -1.79177 0
M  V30 635 H 62.1643 4.57494 -0.567448 0
M  V30 636 H 65.7083 5.87158 -3.76684 0
M  V30 637 H 61.6053 5.93686 -2.53392 0
M  V30 638 H 62.3733 6.92867 -4.35749 0
M  V30 639 N 65.0364 0.313813 1.54444 0
M  V30 640 C 66.2644 -0.293918 2.04802 0
M  V30 641 C 66.6794 -1.46537 1.19047 0
M  V30 642 O 66.0364 -1.81182 0.218939 0
M  V30 643 C 66.0874 -0.737806 3.53891 0
M  V30 644 O 65.8084 0.387038 4.36387 0
M  V30 645 C 67.3094 -1.40936 4.203 0
M  V30 646 H 64.5294 -0.0620057 0.668129 0
M  V30 647 H 67.0734 0.457169 1.99324 0
M  V30 648 H 65.2284 -1.43889 3.59687 0
M  V30 649 H 65.6424 0.0391274 5.24485 0
M  V30 650 H 67.1164 -1.67099 5.26101 0
M  V30 651 H 67.5934 -2.35355 3.70816 0
M  V30 652 H 68.1994 -0.751117 4.18615 0
M  V30 653 N 66.5145 -1.57545 0.0417849 0
M  V30 654 C 67.4445 -2.14009 -0.933929 0
M  V30 655 C 68.4255 -1.05938 -1.33083 0
M  V30 656 O 69.6105 -1.33833 -1.40721 0
M  V30 657 C 66.7405 -2.67747 -2.21199 0
M  V30 658 C 65.6945 -3.80718 -1.95544 0
M  V30 659 C 65.0205 -4.20935 -3.29724 0
M  V30 660 C 66.3205 -5.06258 -1.28452 0
M  V30 661 H 68.0145 -2.95788 -0.463645 0
M  V30 662 H 65.5605 -1.42285 -0.221573 0
M  V30 663 H 67.5135 -3.05886 -2.89848 0
M  V30 664 H 66.2375 -1.83147 -2.70416 0
M  V30 665 H 64.8965 -3.43037 -1.2931 0
M  V30 666 H 64.5445 -3.33298 -3.76724 0
M  V30 667 H 64.2445 -4.9707 -3.13361 0
M  V30 668 H 65.7685 -4.61666 -3.9962 0
M  V30 669 H 67.1825 -5.41903 -1.8712 0
M  V30 670 H 65.5795 -5.87475 -1.22445 0
M  V30 671 H 66.6495 -4.84207 -0.259219 0
M  V30 672 N 67.9926 0.231505 -1.5589 0
M  V30 673 C 69.4086 0.580748 -1.48659 0
M  V30 674 C 69.6086 1.87617 -0.73498 0
M  V30 675 O 68.6646 2.51046 -0.270586 0
M  V30 676 C 69.9776 0.669202 -2.93159 0
M  V30 677 C 71.5256 0.760499 -3.03621 0
M  V30 678 C 72.0006 0.880383 -4.49459 0
M  V30 679 N 73.4916 0.944861 -4.53461 0
M  V30 680 C 74.2266 1.05716 -5.63571 0
M  V30 681 N 73.7226 1.13403 -6.83456 0
M  V30 682 N 75.5156 1.09152 -5.514 0
M  V30 683 H 67.6666 -0.618695 -2.03189 0
M  V30 684 H 69.9296 -0.215728 -0.923128 0
M  V30 685 H 69.6356 -0.212904 -3.51055 0
M  V30 686 H 69.5096 1.5361 -3.44505 0
M  V30 687 H 71.8966 1.63305 -2.45796 0
M  V30 688 H 71.9776 -0.131864 -2.5546 0
M  V30 689 H 71.6216 0.0123284 -5.07899 0
M  V30 690 H 71.5516 1.78802 -4.95316 0
M  V30 691 H 74.0426 0.896176 -3.6712 0
M  V30 692 H 74.3556 1.21921 -7.63122 0
M  V30 693 H 72.7006 1.10333 -6.86186 0
M  V30 694 H 75.8916 1.02805 -4.56671 0
M  V30 695 H 76.0646 1.17558 -6.37247 0
M  V30 696 N 69.4707 1.49531 0.497807 0
M  V30 697 C 70.4187 1.66926 1.61983 0
M  V30 698 C 71.4127 0.535167 1.60724 0
M  V30 699 O 72.6187 0.714896 1.65195 0
M  V30 700 H 68.9937 0.526415 0.537021 0
M  V30 701 H 70.9647 2.61098 1.44465 0
M  V30 702 C 69.7137 1.75602 3.00099 0
M  V30 703 H 69.0367 2.62244 3.01775 0
M  V30 704 H 70.4767 1.91807 3.78135 0
M  V30 705 C 68.9357 0.501543 3.33146 0
M  V30 706 O 69.4657 -0.371342 3.9998 0
M  V30 707 N 67.6717 0.363531 2.88317 0
M  V30 708 H 67.2187 1.07485 2.34104 0
M  V30 709 H 67.1767 -0.474728 3.10795 0
M  V30 710 N 70.9488 -0.749086 1.3866 0
M  V30 711 C 71.8808 -1.87273 1.32142 0
M  V30 712 C 72.8938 -1.61127 0.232787 0
M  V30 713 O 74.0828 -1.71623 0.49069 0
M  V30 714 C 71.1828 -3.23005 1.02571 0
M  V30 715 C 70.3558 -3.7662 2.22433 0
M  V30 716 C 69.4148 -4.90879 1.89537 0
M  V30 717 O 68.4408 -5.05276 2.62078 0
M  V30 718 N 69.6428 -5.74198 0.853031 0
M  V30 719 H 72.4078 -1.93373 2.28969 0
M  V30 720 H 69.9688 -0.929216 1.32579 0
M  V30 721 H 71.9608 -3.96992 0.786085 0
M  V30 722 H 70.5308 -3.12262 0.145249 0
M  V30 723 H 69.7508 -2.94147 2.62434 0
M  V30 724 H 71.0388 -4.09173 3.02415 0
M  V30 725 H 70.4368 -5.6514 0.25155 0
M  V30 726 H 68.9938 -6.48313 0.67329 0
M  V30 727 N 72.4269 -1.23603 -0.977757 0
M  V30 728 C 73.3739 -1.01954 -2.07061 0
M  V30 729 C 74.3439 0.0638697 -1.65977 0
M  V30 730 O 75.5289 -0.0887624 -1.90593 0
M  V30 731 C 72.6689 -0.619658 -3.39491 0
M  V30 732 C 71.7819 -1.77547 -3.93829 0
M  V30 733 C 70.9169 -1.32212 -5.14484 0
M  V30 734 C 69.9559 -2.44852 -5.60994 0
M  V30 735 N 69.0929 -2.00456 -6.72876 0
M  V30 736 H 73.9329 -1.95495 -2.24913 0
M  V30 737 H 71.4699 -0.973861 -1.10247 0
M  V30 738 H 73.4279 -0.368898 -4.15566 0
M  V30 739 H 72.0579 0.278752 -3.21594 0
M  V30 740 H 71.1099 -2.14016 -3.14486 0
M  V30 741 H 72.4219 -2.62219 -4.24314 0
M  V30 742 H 71.5759 -1.02965 -5.97899 0
M  V30 743 H 70.3149 -0.445808 -4.85658 0
M  V30 744 H 69.3199 -2.74871 -4.76157 0
M  V30 745 H 70.5449 -3.33024 -5.91837 0
M  V30 746 H 68.4909 -1.15208 -6.45804 0
M  V30 747 H 68.4079 -2.78687 -7.02759 0
M  V30 748 H 69.6759 -1.7432 -7.59758 0
M  V30 749 N 73.905 1.17692 -1.04816 0
M  V30 750 C 75.151 1.88137 -0.75711 0
M  V30 751 C 75.484 1.80604 0.713841 0
M  V30 752 O 74.759 1.21146 1.52164 0
M  V30 753 C 75.042 3.38318 -1.2334 0
M  V30 754 C 74.895 3.54622 -2.76701 0
M  V30 755 C 76.214 4.32214 -0.829415 0
M  V30 756 H 73.333 0.683163 -0.27651 0
M  V30 757 H 75.975 1.38424 -1.30149 0
M  V30 758 H 74.125 3.80787 -0.770286 0
M  V30 759 H 75.797 3.21194 -3.31107 0
M  V30 760 H 74.04 2.97026 -3.16161 0
M  V30 761 H 74.711 4.60028 -3.05088 0
M  V30 762 H 77.187 3.97565 -1.22805 0
M  V30 763 H 76.063 5.35838 -1.19033 0
M  V30 764 H 76.324 4.41294 0.266891 0
M  V30 765 N 75.3831 0.828654 1.34056 0
M  V30 766 C 76.3301 0.252567 2.29414 0
M  V30 767 C 77.3001 -0.62588 1.53857 0
M  V30 768 O 78.4851 -0.566312 1.82202 0
M  V30 769 C 75.6251 -0.574831 3.40279 0
M  V30 770 C 74.7381 0.326499 4.30764 0
M  V30 771 C 73.8731 -0.511016 5.28736 0
M  V30 772 C 72.9121 0.389342 6.1086 0
M  V30 773 N 72.0491 -0.409439 7.00905 0
M  V30 774 H 76.8891 1.07108 2.78086 0
M  V30 775 H 74.4261 0.539677 1.36843 0
M  V30 776 H 76.3841 -1.06992 4.03248 0
M  V30 777 H 75.0141 -1.35841 2.92826 0
M  V30 778 H 74.0661 0.939837 3.68607 0
M  V30 779 H 75.3781 1.01857 4.88289 0
M  V30 780 H 74.5321 -1.07035 5.97184 0
M  V30 781 H 73.2711 -1.23657 4.71763 0
M  V30 782 H 72.2761 0.960769 5.4134 0
M  V30 783 H 73.5011 1.1131 6.69916 0
M  V30 784 H 71.4471 -1.11856 6.46393 0
M  V30 785 H 71.3641 0.224126 7.55668 0
M  V30 786 H 72.6321 -0.951336 7.73673 0
M  V30 787 N 76.8612 -1.46375 0.584142 0
M  V30 788 C 78.0912 -2.06461 0.0758195 0
M  V30 789 C 78.4992 -1.43322 -1.23512 0
M  V30 790 O 77.8422 -0.533216 -1.75791 0
M  V30 791 C 77.9042 -3.59131 -0.162773 0
M  V30 792 C 77.5682 -4.4447 1.06279 0
M  V30 793 C 78.5652 -4.80918 1.97519 0
M  V30 794 C 76.2502 -4.85584 1.28504 0
M  V30 795 C 78.2442 -5.57309 3.09331 0
M  V30 796 C 75.9312 -5.61734 2.4062 0
M  V30 797 C 76.9292 -5.9751 3.30863 0
M  V30 798 O 76.6172 -6.72121 4.41032 0
M  V30 799 H 76.3492 -0.673745 0.0551725 0
M  V30 800 H 78.9032 -1.88969 0.804984 0
M  V30 801 H 77.1332 -3.74936 -0.946565 0
M  V30 802 H 78.8222 -4.0114 -0.619782 0
M  V30 803 H 79.5882 -4.49732 1.81565 0
M  V30 804 H 75.4672 -4.57187 0.591702 0
M  V30 805 H 79.0112 -5.85152 3.79793 0
M  V30 806 H 74.9082 -5.92334 2.56537 0
M  V30 807 H 75.6762 -6.90547 4.39417 0
M  V30 808 N 78.3393 -0.321999 -1.54275 0
M  V30 809 C 79.5853 0.281461 -2.00837 0
M  V30 810 C 79.9183 1.51909 -1.20985 0
M  V30 811 O 79.1933 1.923 -0.291733 0
M  V30 812 C 79.4763 0.617162 -3.54772 0
M  V30 813 C 79.3293 -0.631064 -4.45351 0
M  V30 814 C 80.6483 1.43542 -4.16033 0
M  V30 815 H 77.7673 0.100826 -0.730071 0
M  V30 816 H 80.4093 -0.438268 -1.84876 0
M  V30 817 H 78.5593 1.23034 -3.68504 0
M  V30 818 H 80.2313 -1.26934 -4.43492 0
M  V30 819 H 78.4743 -1.26025 -4.15091 0
M  V30 820 H 79.1453 -0.351735 -5.50878 0
M  V30 821 H 81.6213 0.917134 -4.05867 0
M  V30 822 H 80.4973 1.63907 -5.23856 0
M  V30 823 H 80.7583 2.43108 -3.69257 0
M  V30 824 N 79.8174 1.5752 -0.0501392 0
M  V30 825 C 81.0944 1.83996 0.663685 0
M  V30 826 C 81.4744 0.938339 1.89099 0
M  V30 827 O 80.8224 -0.00087759 2.285 0
M  V30 828 C 81.0324 3.33702 1.02196 0
M  V30 829 C 82.3804 4.00691 1.40469 0
M  V30 830 O 83.4044 3.38321 1.11433 0
M  V30 831 O 82.2634 5.10658 1.94654 0
M  V30 832 H 79.3574 0.759385 0.32751 0
M  V30 833 H 81.9034 1.69514 -0.0794238 0
M  V30 834 H 80.6754 3.91015 0.149364 0
M  V30 835 H 80.2984 3.53368 1.82255 0
M  V30 836 N 81.2955 -0.223234 1.56011 0
M  V30 837 C 82.2255 -1.27988 1.95298 0
M  V30 838 C 83.2065 -1.48976 0.820979 0
M  V30 839 O 84.3915 -1.61188 1.08315 0
M  V30 840 C 81.5215 -2.63 2.26822 0
M  V30 841 C 80.4755 -2.56671 3.42497 0
M  V30 842 C 79.8015 -3.95697 3.59622 0
M  V30 843 C 81.1015 -2.11601 4.77517 0
M  V30 844 H 82.7955 -0.953525 2.8381 0
M  V30 845 H 80.3415 -0.457244 1.36548 0
M  V30 846 H 82.2945 -3.37077 2.52898 0
M  V30 847 H 81.0185 -2.9732 1.35161 0
M  V30 848 H 79.6775 -1.85051 3.16467 0
M  V30 849 H 79.3255 -4.27322 2.6534 0
M  V30 850 H 79.0255 -3.92345 4.37424 0
M  V30 851 H 80.5495 -4.71438 3.88044 0
M  V30 852 H 81.9635 -2.7542 5.02809 0
M  V30 853 H 80.3605 -2.19311 5.5859 0
M  V30 854 H 81.4305 -1.06824 4.72987 0
M  V30 855 N 82.7736 -1.49793 -0.48987 0
M  V30 856 C 84.0216 -1.59525 -1.24081 0
M  V30 857 C 84.3426 -0.288953 -1.92847 0
M  V30 858 O 83.6126 0.692436 -1.83254 0
M  V30 859 H 82.1926 -0.587796 -0.460983 0
M  V30 860 H 84.8546 -1.86477 -0.566778 0
M  V30 861 H 83.9506 -2.39696 -1.99881 0
M  V30 862 N 84.2517 0.741722 -1.39055 0
M  V30 863 C 85.4997 1.49818 -1.35643 0
M  V30 864 C 85.8207 1.94938 0.0491642 0
M  V30 865 O 85.0907 1.68505 0.999141 0
M  V30 866 H 83.6707 0.555755 -0.499144 0
M  V30 867 H 86.3327 0.880957 -1.73854 0
M  V30 868 H 85.4287 2.38348 -2.01486 0
M  V30 869 N 85.7298 1.2412 0.971189 0
M  V30 870 C 86.9548 1.10667 1.75407 0
M  V30 871 C 87.3798 -0.337048 1.85056 0
M  V30 872 O 86.7378 -1.24396 1.31892 0
M  V30 873 C 86.7858 1.74726 3.15441 0
M  V30 874 O 85.8898 1.01566 3.99697 0
M  V30 875 H 85.2308 0.387341 0.539317 0
M  V30 876 H 87.7608 1.64358 1.2185 0
M  V30 877 H 87.7708 1.80341 3.6598 0
M  V30 878 H 86.4458 2.79773 3.07734 0
M  V30 879 H 85.0228 1.03713 3.58187 0
M  V30 880 N 87.2079 -1.17134 1.05439 0
M  V30 881 C 88.4379 -1.91094 0.785274 0
M  V30 882 C 88.8459 -1.77198 -0.663142 0
M  V30 883 O 88.1889 -1.10835 -1.46497 0
M  V30 884 C 88.2509 -3.42594 1.08949 0
M  V30 885 C 87.9149 -3.80274 2.53458 0
M  V30 886 C 88.9119 -3.82912 3.51673 0
M  V30 887 C 86.5969 -4.11162 2.88532 0
M  V30 888 C 88.5909 -4.15913 4.83006 0
M  V30 889 C 86.2779 -4.43831 4.20068 0
M  V30 890 C 87.2759 -4.46185 5.17115 0
M  V30 891 O 86.9639 -4.78083 6.46291 0
M  V30 892 H 86.6959 -0.613073 0.284811 0
M  V30 893 H 89.2499 -1.49461 1.40893 0
M  V30 894 H 87.4799 -3.84534 0.408741 0
M  V30 895 H 89.1689 -3.97817 0.805991 0
M  V30 896 H 89.9349 -3.5917 3.25917 0
M  V30 897 H 85.8139 -4.085 2.13656 0
M  V30 898 H 89.3579 -4.17665 5.5875 0
M  V30 899 H 85.2549 -4.67037 4.45586 0
M  V30 900 H 86.0229 -4.9593 6.51149 0
M  V30 901 N 88.686 -0.835752 -1.33615 0
M  V30 902 C 89.932 -0.430596 -1.98176 0
M  V30 903 C 90.265 1.00684 -1.66061 0
M  V30 904 O 89.54 1.70339 -0.938877 0
M  V30 905 C 89.823 -0.648065 -3.5422 0
M  V30 906 C 89.676 -2.13255 -3.96033 0
M  V30 907 C 90.995 -0.0922113 -4.40003 0
M  V30 908 H 88.114 -0.157924 -0.719881 0
M  V30 909 H 90.756 -1.05069 -1.58305 0
M  V30 910 H 88.906 -0.120237 -3.88314 0
M  V30 911 H 90.578 -2.725 -3.72211 0
M  V30 912 H 88.821 -2.61823 -3.45878 0
M  V30 913 H 89.492 -2.23547 -5.04708 0
M  V30 914 H 91.968 -0.543343 -4.12537 0
M  V30 915 H 90.844 -0.274083 -5.48215 0
M  V30 916 H 91.105 1.00378 -4.30554 0
M  V30 917 N 90.1641 1.46063 -0.591896 0
M  V30 918 C 91.4121 2.01938 -0.0808391 0
M  V30 919 C 91.7331 1.46475 1.28725 0
M  V30 920 O 91.0031 0.652944 1.84698 0
M  V30 921 H 89.5831 0.746516 -0.0268938 0
M  V30 922 H 92.2451 1.79055 -0.769752 0
M  V30 923 H 91.3411 3.12094 -0.0187578 0
M  V30 924 N 91.6422 0.330177 1.54103 0
M  V30 925 C 93.0532 -0.15652 1.86043 0
M  V30 926 C 93.4042 -1.51086 1.2517 0
M  V30 927 O 92.5292 -2.09023 0.560217 0
M  V30 928 C 93.1242 -0.290784 3.3755 0
M  V30 929 C 91.6832 -0.721705 3.69416 0
M  V30 930 C 90.8302 0.152622 2.7688 0
M  V30 931 H 93.7812 0.550237 1.48856 0
M  V30 932 H 93.8022 -1.12058 3.63625 0
M  V30 933 H 93.3142 0.695068 3.81825 0
M  V30 934 H 91.4152 -1.71706 3.30678 0
M  V30 935 H 91.5282 -0.520869 4.7626 0
M  V30 936 H 89.8922 -0.372894 2.51956 0
M  V30 937 H 90.6752 1.13536 3.23982 0
M  V30 938 N 93.1203 -1.57491 0.0584922 0
M  V30 939 C 94.3483 -1.97296 -0.623037 0
M  V30 940 C 94.7633 -0.936338 -1.63946 0
M  V30 941 O 94.1203 0.0785981 -1.82331 0
M  V30 942 C 94.1713 -3.37183 -1.30345 0
M  V30 943 O 93.8923 -4.36872 -0.32773 0
M  V30 944 C 95.3933 -3.91788 -2.07406 0
M  V30 945 H 92.6133 -0.649153 -0.169826 0
M  V30 946 H 95.1573 -2.04106 0.12696 0
M  V30 947 H 93.3123 -3.31502 -2.00463 0
M  V30 948 H 93.7263 -5.18141 -0.814269 0
M  V30 949 H 95.2003 -4.91926 -2.50425 0
M  V30 950 H 95.6773 -3.27609 -2.92521 0
M  V30 951 H 96.2833 -4.00829 -1.42184 0
M  V30 952 N 94.5984 0.214957 -1.56127 0
M  V30 953 C 95.5304 1.29004 -1.89448 0
M  V30 954 C 96.5434 1.42716 -0.783326 0
M  V30 955 O 97.7324 1.43496 -1.06166 0
M  V30 956 C 94.8324 2.66482 -2.09381 0
M  V30 957 C 94.0054 2.74633 -3.40434 0
M  V30 958 C 93.0644 3.9317 -3.49719 0
M  V30 959 O 92.0904 3.812 -4.227 0
M  V30 960 N 93.2924 5.07765 -2.81346 0
M  V30 961 H 96.0574 1.00743 -2.82261 0
M  V30 962 H 93.6184 0.40497 -1.56753 0
M  V30 963 H 95.6104 3.44173 -2.12901 0
M  V30 964 H 94.1804 2.87314 -1.23163 0
M  V30 965 H 93.4004 1.83368 -3.48955 0
M  V30 966 H 94.6884 2.77054 -4.26754 0
M  V30 967 H 94.0864 5.20386 -2.21843 0
M  V30 968 H 92.6434 5.83474 -2.90519 0
M  V30 969 N 96.0765 1.50051 0.48192 0
M  V30 970 C 97.0245 1.68635 1.60203 0
M  V30 971 C 98.0185 0.552184 1.60148 0
M  V30 972 O 99.2245 0.732377 1.64427 0
M  V30 973 H 95.5995 0.532081 0.531407 0
M  V30 974 H 97.5705 2.62616 1.41688 0
M  V30 975 C 96.3195 1.78775 2.9822 0
M  V30 976 H 95.6425 2.6543 2.98976 0
M  V30 977 H 97.0825 1.95806 3.7608 0
M  V30 978 C 95.5415 0.536849 3.32595 0
M  V30 979 O 96.0715 -0.328897 4.00351 0
M  V30 980 N 94.2775 0.394091 2.87915 0
M  V30 981 H 93.8245 1.09962 2.32951 0
M  V30 982 H 93.7825 -0.441737 3.11281 0
M  V30 983 N 97.5546 -0.734337 1.39446 0
M  V30 984 C 98.9706 -1.03997 1.21065 0
M  V30 985 C 99.1706 -2.01369 0.0727019 0
M  V30 986 O 98.2266 -2.45856 -0.575426 0
M  V30 987 C 99.5396 -1.60163 2.54496 0
M  V30 988 C 101.088 -1.7224 2.61347 0
M  V30 989 C 101.563 -2.31814 3.95002 0
M  V30 990 N 103.054 -2.39223 3.96644 0
M  V30 991 C 103.789 -2.86258 4.96834 0
M  V30 992 N 103.285 -3.33184 6.07421 0
M  V30 993 N 105.078 -2.85473 4.84213 0
M  V30 994 H 97.2286 -0.0885624 2.12215 0
M  V30 995 H 99.4916 -0.10191 0.942506 0
M  V30 996 H 99.1976 -0.960811 3.38321 0
M  V30 997 H 99.0716 -2.5896 2.74262 0
M  V30 998 H 101.459 -2.35443 1.77906 0
M  V30 999 H 101.54 -0.720939 2.4543 0
M  V30 1000 H 101.184 -1.69238 4.78875 0
M  V30 1001 H 101.114 -3.32638 4.08239 0
M  V30 1002 H 103.605 -2.06057 3.16779 0
M  V30 1003 H 103.918 -3.67586 6.7978 0
M  V30 1004 H 102.263 -3.31191 6.11013 0
M  V30 1005 H 105.454 -2.48136 3.96921 0
M  V30 1006 H 105.627 -3.21814 5.62441 0
M  V30 1007 N 99.0327 -1.24633 -0.964593 0
M  V30 1008 C 100.282 -1.08188 -1.7023 0
M  V30 1009 C 100.595 0.37873 -1.91898 0
M  V30 1010 O 101.801 0.663427 -2.6327 0
M  V30 1011 C 100.257 -1.88773 -3.06419 0
M  V30 1012 C 99.8647 -3.39263 -2.92582 0
M  V30 1013 C 101.609 -1.80867 -3.84041 0
M  V30 1014 C 99.5157 -4.1218 -4.24101 0
M  V30 1015 H 98.4457 -0.401245 -0.638372 0
M  V30 1016 H 101.097 -1.48742 -1.07462 0
M  V30 1017 H 99.4787 -1.41035 -3.70034 0
M  V30 1018 H 100.653 -3.94603 -2.37961 0
M  V30 1019 H 98.9677 -3.48154 -2.28424 0
M  V30 1020 H 101.565 -2.32646 -4.81435 0
M  V30 1021 H 101.908 -0.774543 -4.09031 0
M  V30 1022 H 102.441 -2.26301 -3.27159 0
M  V30 1023 H 99.1797 -5.15965 -4.04303 0
M  V30 1024 H 98.6997 -3.61626 -4.78526 0
M  V30 1025 H 100.379 -4.19349 -4.92702 0
M  V30 1026 N 100.511 1.16574 -1.06058 0
M  V30 1027 C 101.441 2.23057 -0.690488 0
M  V30 1028 C 102.422 1.67141 0.315901 0
M  V30 1029 O 103.607 1.93253 0.191556 0
M  V30 1030 C 100.737 3.47222 -0.073625 0
M  V30 1031 C 99.6908 4.16016 -1.00573 0
M  V30 1032 C 99.0168 5.34104 -0.252289 0
M  V30 1033 C 100.317 4.67264 -2.33371 0
M  V30 1034 H 102.011 2.54271 -1.58072 0
M  V30 1035 H 99.5568 1.22218 -0.76149 0
M  V30 1036 H 101.51 4.20939 0.19714 0
M  V30 1037 H 100.234 3.15302 0.85161 0
M  V30 1038 H 98.8928 3.44223 -1.2612 0
M  V30 1039 H 98.5408 4.98437 0.675988 0
M  V30 1040 H 98.2408 5.81072 -0.873455 0
M  V30 1041 H 99.7648 6.10599 0.0109857 0
M  V30 1042 H 101.179 5.32573 -2.12223 0
M  V30 1043 H 99.5758 5.24843 -2.90963 0
M  V30 1044 H 100.646 3.83602 -2.96611 0
M  V30 1045 N 101.989 0.842826 1.3317 0
M  V30 1046 C 103.405 0.531128 1.50503 0
M  V30 1047 C 103.605 -0.940734 1.78192 0
M  V30 1048 O 102.661 -1.72436 1.84451 0
M  V30 1049 C 103.974 1.40789 2.65705 0
M  V30 1050 C 105.522 1.40708 2.79589 0
M  V30 1051 C 105.997 2.26878 3.97857 0
M  V30 1052 N 107.488 2.24609 4.05099 0
M  V30 1053 C 108.223 2.88019 4.95815 0
M  V30 1054 N 107.719 3.60496 5.9162 0
M  V30 1055 N 109.512 2.77469 4.88843 0
M  V30 1056 H 101.663 1.79557 1.1346 0
M  V30 1057 H 103.926 0.766267 0.558156 0
M  V30 1058 H 103.632 2.454 2.51936 0
M  V30 1059 H 103.506 1.08677 3.61205 0
M  V30 1060 H 105.893 0.368668 2.92788 0
M  V30 1061 H 105.974 1.76829 1.84838 0
M  V30 1062 H 105.618 3.3078 3.85418 0
M  V30 1063 H 105.548 1.88096 4.91861 0
M  V30 1064 H 108.039 1.71906 3.36536 0
M  V30 1065 H 108.352 4.06076 6.57512 0
M  V30 1066 H 106.697 3.64604 5.91683 0
M  V30 1067 H 109.888 2.20406 4.12963 0
M  V30 1068 H 110.061 3.2717 5.59342 0
M  V30 1069 N 103.467 -1.45747 0.599634 0
M  V30 1070 C 104.397 -2.33235 -0.111306 0
M  V30 1071 C 105.378 -1.46359 -0.866781 0
M  V30 1072 O 106.563 -1.75146 -0.838904 0
M  V30 1073 C 103.693 -3.28932 -1.11451 0
M  V30 1074 C 102.647 -4.25381 -0.472772 0
M  V30 1075 C 101.973 -5.1071 -1.58365 0
M  V30 1076 C 103.273 -5.18831 0.600948 0
M  V30 1077 H 104.967 -2.92927 0.61919 0
M  V30 1078 H 102.513 -1.40857 0.299215 0
M  V30 1079 H 104.466 -3.89002 -1.62036 0
M  V30 1080 H 103.19 -2.67381 -1.8755 0
M  V30 1081 H 101.849 -3.66598 0.0121472 0
M  V30 1082 H 101.497 -4.45533 -2.33473 0
M  V30 1083 H 101.197 -5.7604 -1.15982 0
M  V30 1084 H 102.721 -5.73647 -2.09194 0
M  V30 1085 H 104.135 -5.73019 0.179491 0
M  V30 1086 H 102.532 -5.92595 0.946076 0
M  V30 1087 H 103.602 -4.6174 1.48068 0
M  V30 1088 N 104.945 -0.338344 -1.53925 0
M  V30 1089 C 105.908 0.508299 -2.23493 0
M  V30 1090 C 106.908 1.03175 -1.23335 0
M  V30 1091 O 108.098 0.921826 -1.47811 0
M  V30 1092 C 105.23 1.70754 -2.95052 0
M  V30 1093 H 106.423 -0.100058 -2.99733 0
M  V30 1094 H 103.976 -0.0896198 -1.56043 0
M  V30 1095 H 104.711 2.35474 -2.22986 0
M  V30 1096 H 104.496 1.33946 -3.68512 0
M  V30 1097 H 105.986 2.30818 -3.48013 0
M  V30 1098 N 106.423 1.57458 -0.0668435 0
M  V30 1099 C 107.37 2.12439 0.902122 0
M  V30 1100 C 108.34 1.03565 1.2986 0
M  V30 1101 O 109.525 1.312 1.38532 0
M  V30 1102 C 106.665 2.6865 2.16614 0
M  V30 1103 C 105.778 3.91663 1.82274 0
M  V30 1104 C 104.913 4.36134 3.0325 0
M  V30 1105 C 103.952 5.51808 2.64904 0
M  V30 1106 N 103.089 5.9126 3.78624 0
M  V30 1107 H 107.929 2.94934 0.426382 0
M  V30 1108 H 105.466 1.4575 0.198819 0
M  V30 1109 H 107.424 2.99346 2.90599 0
M  V30 1110 H 106.054 1.88928 2.61737 0
M  V30 1111 H 105.106 3.6746 0.983719 0
M  V30 1112 H 106.418 4.75693 1.50059 0
M  V30 1113 H 105.572 4.68465 3.85519 0
M  V30 1114 H 104.311 3.50948 3.38655 0
M  V30 1115 H 103.316 5.19133 1.81055 0
M  V30 1116 H 104.541 6.38722 2.30675 0
M  V30 1117 H 102.487 5.09024 4.138 0
M  V30 1118 H 102.404 6.70018 3.5016 0
M  V30 1119 H 103.672 6.28212 4.61486 0
M  V30 1120 N 107.901 -0.206675 1.56239 0
M  V30 1121 C 108.811 -1.27686 1.96808 0
M  V30 1122 C 109.827 -1.50455 0.874035 0
M  V30 1123 O 111.003 -1.63295 1.17884 0
M  V30 1124 C 108.068 -2.60358 2.28942 0
M  V30 1125 C 107.129 -2.45762 3.51994 0
M  V30 1126 C 106.362 -3.72108 3.82585 0
M  V30 1127 O 106.585 -4.75776 3.14631 0
M  V30 1128 O 105.519 -3.6833 4.76043 0
M  V30 1129 H 109.345 -0.962593 2.88041 0
M  V30 1130 H 106.93 -0.410746 1.43643 0
M  V30 1131 H 108.812 -3.38687 2.50737 0
M  V30 1132 H 107.487 -2.91435 1.4088 0
M  V30 1133 H 106.394 -1.65584 3.35459 0
M  V30 1134 H 107.727 -2.19621 4.40486 0
M  V30 1135 N 109.379 -1.50304 -0.473955 0
M  V30 1136 C 110.309 -1.71886 -1.58042 0
M  V30 1137 C 111.29 -0.567799 -1.60344 0
M  V30 1138 O 112.475 -0.806623 -1.76656 0
M  V30 1139 C 109.605 -1.81036 -2.96384 0
M  V30 1140 C 108.559 -2.962 -3.08949 0
M  V30 1141 C 107.885 -2.9049 -4.48909 0
M  V30 1142 C 109.185 -4.36752 -2.86434 0
M  V30 1143 H 110.879 -2.64527 -1.40234 0
M  V30 1144 H 108.425 -1.27295 -0.673201 0
M  V30 1145 H 110.378 -1.94719 -3.73714 0
M  V30 1146 H 109.102 -0.850147 -3.15341 0
M  V30 1147 H 107.761 -2.82164 -2.3405 0
M  V30 1148 H 107.409 -1.92321 -4.64781 0
M  V30 1149 H 107.109 -3.67802 -4.58253 0
M  V30 1150 H 108.633 -3.06218 -5.28264 0
M  V30 1151 H 110.047 -4.5133 -3.53517 0
M  V30 1152 H 108.444 -5.15493 -3.07225 0
M  V30 1153 H 109.514 -4.49321 -1.82316 0
M  V30 1154 N 110.857 0.726932 -1.39834 0
M  V30 1155 C 112.105 1.4837 -1.37225 0
M  V30 1156 C 112.426 1.94979 0.0284857 0
M  V30 1157 O 111.696 1.69555 0.981213 0
M  V30 1158 H 110.276 0.55043 -0.505011 0
M  V30 1159 H 112.938 0.862468 -1.74778 0
M  V30 1160 H 112.034 2.36198 -2.04003 0
M  V30 1161 N 112.336 1.25143 0.95797 0
M  V30 1162 C 113.266 1.07711 2.07173 0
M  V30 1163 C 114.247 -0.0128462 1.70095 0
M  V30 1164 O 115.432 0.156061 1.93572 0
M  V30 1165 C 112.562 0.691503 3.40346 0
M  V30 1166 C 111.516 1.73132 3.9142 0
M  V30 1167 C 110.842 1.20049 5.21049 0
M  V30 1168 C 112.142 3.1294 4.1817 0
M  V30 1169 H 113.836 2.00873 2.22014 0
M  V30 1170 H 111.382 0.967191 1.06684 0
M  V30 1171 H 113.335 0.556505 4.17709 0
M  V30 1172 H 112.059 -0.275819 3.25433 0
M  V30 1173 H 110.718 1.8547 3.16222 0
M  V30 1174 H 110.366 0.223499 5.02503 0
M  V30 1175 H 110.066 1.89545 5.56189 0
M  V30 1176 H 111.59 1.07782 6.01012 0
M  V30 1177 H 113.004 3.03775 4.86203 0
M  V30 1178 H 111.401 3.79875 4.64559 0
M  V30 1179 H 112.471 3.6025 3.24573 0
M  V30 1180 N 113.814 -1.1601 1.06675 0
M  V30 1181 C 114.724 -2.24156 0.692179 0
M  V30 1182 C 115.74 -1.71507 -0.293513 0
M  V30 1183 O 116.916 -2.009 -0.141861 0
M  V30 1184 C 113.981 -3.46587 0.0884131 0
M  V30 1185 C 113.042 -4.14257 1.12646 0
M  V30 1186 C 112.275 -5.30844 0.551416 0
M  V30 1187 O 112.498 -5.66858 -0.634656 0
M  V30 1188 O 111.432 -5.87848 1.29298 0
M  V30 1189 H 115.258 -2.58513 1.59388 0
M  V30 1190 H 112.843 -1.23599 0.83926 0
M  V30 1191 H 114.725 -4.20679 -0.246361 0
M  V30 1192 H 113.4 -3.13994 -0.786712 0
M  V30 1193 H 112.307 -3.42118 1.51348 0
M  V30 1194 H 113.64 -4.50914 1.97325 0
M  V30 1195 N 115.292 -0.849877 -1.32721 0
M  V30 1196 C 116.52 -0.464754 -2.01613 0
M  V30 1197 C 116.935 0.937191 -1.63897 0
M  V30 1198 O 116.292 1.61081 -0.857856 0
M  V30 1199 C 116.343 -0.588638 -3.56675 0
M  V30 1200 O 116.064 -1.93535 -3.93034 0
M  V30 1201 C 117.565 -0.2019 -4.4284 0
M  V30 1202 H 114.785 -0.183215 -0.645502 0
M  V30 1203 H 117.329 -1.1455 -1.69407 0
M  V30 1204 H 115.484 0.0443159 -3.87375 0
M  V30 1205 H 115.898 -1.92871 -4.87751 0
M  V30 1206 H 117.372 -0.339599 -5.50954 0
M  V30 1207 H 117.849 0.857224 -4.30753 0
M  V30 1208 H 118.455 -0.809733 -4.17521 0
M  V30 1209 N 116.77 1.45427 -0.607355 0
M  V30 1210 C 118 2.06314 -0.108656 0
M  V30 1211 C 118.408 1.45269 1.21217 0
M  V30 1212 O 117.751 0.561115 1.74921 0
M  V30 1213 C 117.813 3.59345 0.105618 0
M  V30 1214 C 117.477 4.42723 -1.13337 0
M  V30 1215 C 118.474 4.77715 -2.05145 0
M  V30 1216 C 116.159 4.83478 -1.36213 0
M  V30 1217 C 118.153 5.52317 -3.18158 0
M  V30 1218 C 115.84 5.57835 -2.49527 0
M  V30 1219 C 116.838 5.92171 -3.40327 0
M  V30 1220 O 116.526 6.65019 -4.51669 0
M  V30 1221 H 116.258 0.672782 -0.0658842 0
M  V30 1222 H 118.812 1.87664 -0.834945 0
M  V30 1223 H 117.042 3.76394 0.886796 0
M  V30 1224 H 118.731 4.02076 0.555886 0
M  V30 1225 H 119.497 4.46787 -1.88697 0
M  V30 1226 H 115.376 4.56188 -0.664362 0
M  V30 1227 H 118.92 5.79036 -3.89054 0
M  V30 1228 H 114.817 5.88177 -2.65928 0
M  V30 1229 H 115.585 6.83469 -4.50348 0
M  V30 1230 N 118.248 0.346503 1.53744 0
M  V30 1231 C 119.195 -0.508914 2.25119 0
M  V30 1232 C 120.165 -1.09315 1.25058 0
M  V30 1233 O 121.35 -1.12921 1.53797 0
M  V30 1234 C 118.49 -1.65246 3.02965 0
M  V30 1235 C 117.603 -1.09525 4.17886 0
M  V30 1236 C 116.738 -2.20634 4.83212 0
M  V30 1237 C 115.777 -1.62279 5.90196 0
M  V30 1238 N 114.914 -2.67143 6.49291 0
M  V30 1239 H 119.754 0.106283 2.9781 0
M  V30 1240 H 117.291 0.0642227 1.4696 0
M  V30 1241 H 119.249 -2.32574 3.4636 0
M  V30 1242 H 117.879 -2.2386 2.32565 0
M  V30 1243 H 116.931 -0.312818 3.79112 0
M  V30 1244 H 118.243 -0.628444 4.94825 0
M  V30 1245 H 117.397 -2.95821 5.29693 0
M  V30 1246 H 116.136 -2.70659 4.05703 0
M  V30 1247 H 115.141 -0.855989 5.43096 0
M  V30 1248 H 116.366 -1.13102 6.69615 0
M  V30 1249 H 114.312 -3.16417 5.74645 0
M  V30 1250 H 114.229 -2.25093 7.21713 0
M  V30 1251 H 115.497 -3.4209 7.00425 0
M  V30 1252 N 119.726 -1.57421 0.075193 0
M  V30 1253 C 120.972 -1.93905 -0.594025 0
M  V30 1254 C 121.305 -0.955701 -1.69056 0
M  V30 1255 O 120.58 0.0145373 -1.94495 0
M  V30 1256 C 120.863 -3.40638 -1.1678 0
M  V30 1257 C 120.716 -4.49733 -0.0776792 0
M  V30 1258 C 122.035 -3.88259 -2.07228 0
M  V30 1259 H 119.154 -0.705105 -0.214466 0
M  V30 1260 H 121.796 -1.8947 0.141854 0
M  V30 1261 H 119.946 -3.44549 -1.79494 0
M  V30 1262 H 121.618 -4.57942 0.555573 0
M  V30 1263 H 119.861 -4.29751 0.591286 0
M  V30 1264 H 120.532 -5.49549 -0.519603 0
M  V30 1265 H 123.008 -3.86376 -1.54445 0
M  V30 1266 H 121.884 -4.91533 -2.44308 0
M  V30 1267 H 122.145 -3.26396 -2.98191 0
M  V30 1268 N 121.204 0.198386 -1.56346 0
M  V30 1269 C 122.152 1.26538 -1.95169 0
M  V30 1270 C 123.146 1.47295 -0.836685 0
M  V30 1271 O 124.352 1.48195 -1.02167 0
M  V30 1272 H 120.727 0.424744 -0.620561 0
M  V30 1273 H 122.698 0.910904 -2.84157 0
M  V30 1274 C 121.447 2.6035 -2.30463 0
M  V30 1275 H 120.77 2.45192 -3.15786 0
M  V30 1276 H 122.21 3.33762 -2.61494 0
M  V30 1277 C 120.669 3.17096 -1.13806 0
M  V30 1278 O 121.199 3.99588 -0.41135 0
M  V30 1279 N 119.405 2.75795 -0.915736 0
M  V30 1280 H 118.952 2.08816 -1.50843 0
M  V30 1281 H 118.91 3.14101 -0.136979 0
M  V30 1282 N 122.682 1.50554 0.465978 0
M  V30 1283 C 123.592 1.72585 1.58907 0
M  V30 1284 C 124.608 0.60911 1.6299 0
M  V30 1285 O 125.784 0.88804 1.80765 0
M  V30 1286 C 122.849 1.81995 2.95091 0
M  V30 1287 C 121.91 3.05751 3.01355 0
M  V30 1288 C 121.143 3.14702 4.31043 0
M  V30 1289 O 121.366 2.30313 5.21835 0
M  V30 1290 O 120.3 4.07468 4.43005 0
M  V30 1291 H 124.126 2.67799 1.43239 0
M  V30 1292 H 121.711 1.34711 0.646013 0
M  V30 1293 H 123.593 1.90335 3.75966 0
M  V30 1294 H 122.268 0.899659 3.10947 0
M  V30 1295 H 121.175 3.02908 2.19539 0
M  V30 1296 H 122.508 3.97375 2.90437 0
M  V30 1297 N 124.16 -0.719506 1.40217 0
M  V30 1298 C 125.406 -1.48152 1.38488 0
M  V30 1299 C 125.739 -1.94195 -0.0141867 0
M  V30 1300 O 125.014 -1.67884 -0.982096 0
M  V30 1301 C 125.297 -2.71035 2.37091 0
M  V30 1302 C 125.15 -2.30912 3.86005 0
M  V30 1303 C 126.469 -3.73182 2.33288 0
M  V30 1304 H 123.588 -0.537395 0.504357 0
M  V30 1305 H 126.23 -0.821472 1.71324 0
M  V30 1306 H 124.38 -3.27352 2.0922 0
M  V30 1307 H 126.052 -1.80107 4.24687 0
M  V30 1308 H 124.295 -1.62958 4.02029 0
M  V30 1309 H 124.966 -3.18978 4.50508 0
M  V30 1310 H 127.442 -3.26485 2.57966 0
M  V30 1311 H 126.318 -4.56806 3.04334 0
M  V30 1312 H 126.579 -4.21202 1.34317 0
M  V30 1313 N 125.638 -1.25649 -0.95132 0
M  V30 1314 C 126.548 -1.08073 -2.08224 0
M  V30 1315 C 127.564 -0.0169666 -1.73992 0
M  V30 1316 O 128.74 -0.218593 -2.0021 0
M  V30 1317 C 125.805 -0.704922 -3.39458 0
M  V30 1318 C 124.866 -1.84699 -3.87537 0
M  V30 1319 C 124.099 -1.48902 -5.12508 0
M  V30 1320 O 124.322 -0.386156 -5.69091 0
M  V30 1321 O 123.256 -2.32033 -5.55378 0
M  V30 1322 H 127.082 -2.02924 -2.25954 0
M  V30 1323 H 124.667 -1.04618 -1.06656 0
M  V30 1324 H 126.549 -0.507609 -4.18332 0
M  V30 1325 H 125.224 0.214291 -3.2299 0
M  V30 1326 H 124.131 -2.09919 -3.09653 0
M  V30 1327 H 125.464 -2.74557 -4.08509 0
M  V30 1328 N 127.117 1.15442 -1.07289 0
M  V30 1329 C 128.533 1.38201 -0.798288 0
M  V30 1330 C 128.733 1.92429 0.597769 0
M  V30 1331 O 127.789 2.12962 1.3566 0
M  V30 1332 C 129.102 2.35357 -1.87156 0
M  V30 1333 C 130.65 2.49021 -1.89624 0
M  V30 1334 C 131.125 3.49468 -2.96034 0
M  V30 1335 N 132.616 3.57003 -2.95132 0
M  V30 1336 C 133.351 4.34543 -3.74112 0
M  V30 1337 N 132.847 5.15421 -4.6294 0
M  V30 1338 N 134.64 4.29625 -3.62462 0
M  V30 1339 H 126.791 0.78584 -1.97328 0
M  V30 1340 H 129.054 0.408065 -0.855679 0
M  V30 1341 H 128.76 2.02626 -2.87464 0
M  V30 1342 H 128.634 3.35129 -1.73114 0
M  V30 1343 H 131.021 2.81051 -0.899687 0
M  V30 1344 H 131.102 1.4925 -2.07745 0
M  V30 1345 H 130.746 3.18173 -3.95889 0
M  V30 1346 H 130.676 4.48992 -2.75161 0
M  V30 1347 H 133.167 2.99276 -2.30743 0
M  V30 1348 H 133.48 5.7183 -5.19837 0
M  V30 1349 H 131.825 5.14729 -4.66989 0
M  V30 1350 H 135.016 3.65505 -2.92444 0
M  V30 1351 H 135.189 4.89807 -4.24256 0
M  V30 1352 N 128.595 0.856903 1.32268 0
M  V30 1353 C 129.525 0.31858 2.31316 0
M  V30 1354 C 130.506 -0.583487 1.59779 0
M  V30 1355 O 131.691 -0.503259 1.87566 0
M  V30 1356 C 128.821 -0.491979 3.43798 0
M  V30 1357 C 127.775 0.315849 4.26833 0
M  V30 1358 C 127.101 -0.619586 5.31098 0
M  V30 1359 C 128.401 1.54282 4.98993 0
M  V30 1360 H 130.095 1.14621 2.76591 0
M  V30 1361 H 127.641 0.552613 1.32974 0
M  V30 1362 H 129.594 -0.879012 4.1213 0
M  V30 1363 H 128.318 -1.35299 2.97257 0
M  V30 1364 H 126.977 0.684664 3.6015 0
M  V30 1365 H 126.625 -1.47751 4.8081 0
M  V30 1366 H 126.325 -0.0830621 5.87541 0
M  V30 1367 H 127.849 -1.00375 6.02293 0
M  V30 1368 H 129.263 1.22796 5.59995 0
M  V30 1369 H 127.66 2.01745 5.65172 0
M  V30 1370 H 128.73 2.30285 4.26728 0
M  V30 1371 N 130.073 -1.45103 0.615059 0
M  V30 1372 C 131.322 -2.01396 0.110718 0
M  V30 1373 C 131.635 -1.48834 -1.26916 0
M  V30 1374 O 132.841 -1.97152 -1.86664 0
M  V30 1375 C 131.297 -3.59599 0.14723 0
M  V30 1376 C 130.905 -4.21158 1.52743 0
M  V30 1377 C 132.649 -4.23428 -0.30148 0
M  V30 1378 C 130.556 -5.71535 1.51992 0
M  V30 1379 H 129.486 -0.753061 0.0376241 0
M  V30 1380 H 132.137 -1.66494 0.77149 0
M  V30 1381 H 130.519 -3.91724 -0.580339 0
M  V30 1382 H 131.693 -4.00594 2.2773 0
M  V30 1383 H 130.008 -3.69552 1.91886 0
M  V30 1384 H 132.605 -5.33703 -0.326392 0
M  V30 1385 H 132.948 -3.94629 -1.32565 0
M  V30 1386 H 133.481 -3.96047 0.373065 0
M  V30 1387 H 130.22 -6.05044 2.52193 0
M  V30 1388 H 129.74 -5.94268 0.81274 0
M  V30 1389 H 131.419 -6.34873 1.24681 0
M  V30 1390 N 131.551 -0.354651 -1.53558 0
M  V30 1391 C 132.501 0.513179 -2.2215 0
M  V30 1392 C 133.485 1.05734 -1.21281 0
M  V30 1393 O 134.677 0.989202 -1.46778 0
M  V30 1394 C 131.806 1.65798 -3.00609 0
M  V30 1395 C 130.892 1.12722 -4.08845 0
M  V30 1396 N 131.283 0.318563 -5.04796 0
M  V30 1397 C 129.581 1.40307 -4.23356 0
M  V30 1398 C 130.282 0.0292224 -5.81693 0
M  V30 1399 N 129.258 0.623891 -5.40008 0
M  V30 1400 H 133.06 -0.111586 -2.93688 0
M  V30 1401 H 130.574 -0.162091 -1.61589 0
M  V30 1402 H 132.571 2.29176 -3.48258 0
M  V30 1403 H 131.231 2.28591 -2.306 0
M  V30 1404 H 132.242 -0.0413091 -5.17884 0
M  V30 1405 H 128.919 2.03458 -3.6457 0
M  V30 1406 H 130.309 -0.623808 -6.68998 0
M  V30 1407 N 133.029 1.57378 -0.0835403 0
M  V30 1408 C 133.979 2.09916 0.889905 0
M  V30 1409 C 134.963 1.01151 1.25129 0
M  V30 1410 O 136.155 1.27443 1.2283 0
M  V30 1411 C 133.284 2.67379 2.15322 0
M  V30 1412 C 132.37 3.83167 1.81779 0
M  V30 1413 N 132.761 4.91665 1.18739 0
M  V30 1414 C 131.059 3.92685 2.11459 0
M  V30 1415 C 131.76 5.72409 1.0355 0
M  V30 1416 N 130.736 5.21062 1.54906 0
M  V30 1417 H 134.538 2.91188 0.398378 0
M  V30 1418 H 132.052 1.61956 0.120013 0
M  V30 1419 H 134.049 3.0334 2.8599 0
M  V30 1420 H 132.709 1.87558 2.65051 0
M  V30 1421 H 133.72 5.10784 0.855604 0
M  V30 1422 H 130.397 3.23856 2.63483 0
M  V30 1423 H 131.787 6.69699 0.543425 0
M  V30 1424 N 134.507 -0.190092 1.56449 0
M  V30 1425 C 135.753 -0.911052 1.81184 0
M  V30 1426 C 136.086 -1.82699 0.658396 0
M  V30 1427 O 135.361 -1.91491 -0.340775 0
M  V30 1428 C 135.644 -1.72297 3.16205 0
M  V30 1429 C 135.497 -0.831419 4.42049 0
M  V30 1430 C 136.816 -2.69454 3.47969 0
M  V30 1431 H 133.935 -0.32977 0.659106 0
M  V30 1432 H 136.577 -0.178169 1.89163 0
M  V30 1433 H 134.727 -2.34778 3.09534 0
M  V30 1434 H 136.399 -0.220929 4.60771 0
M  V30 1435 H 134.642 -0.138406 4.33579 0
M  V30 1436 H 135.313 -1.43461 5.33032 0
M  V30 1437 H 137.789 -2.17104 3.54972 0
M  V30 1438 H 136.665 -3.23342 4.43555 0
M  V30 1439 H 136.926 -3.48744 2.71717 0
M  V30 1440 N 135.985 -1.50799 -0.457987 0
M  V30 1441 C 136.932 -1.70617 -1.5543 0
M  V30 1442 C 137.902 -0.547562 -1.56815 0
M  V30 1443 O 139.087 -0.779647 -1.74144 0
M  V30 1444 C 136.227 -1.81831 -2.93311 0
M  V30 1445 C 135.34 -3.09278 -3.01615 0
M  V30 1446 C 134.475 -3.11209 -4.30491 0
M  V30 1447 C 133.514 -4.33055 -4.32585 0
M  V30 1448 N 132.651 -4.32652 -5.52952 0
M  V30 1449 H 137.491 -2.64207 -1.37836 0
M  V30 1450 H 135.028 -1.30959 -0.669937 0
M  V30 1451 H 136.986 -1.86314 -3.73287 0
M  V30 1452 H 135.616 -0.916685 -3.0951 0
M  V30 1453 H 134.668 -3.14203 -2.1443 0
M  V30 1454 H 135.98 -3.99233 -2.99022 0
M  V30 1455 H 135.134 -3.14494 -5.18824 0
M  V30 1456 H 133.873 -2.19106 -4.35711 0
M  V30 1457 H 132.878 -4.29969 -3.42647 0
M  V30 1458 H 134.103 -5.264 -4.29046 0
M  V30 1459 H 132.049 -3.43409 -5.58933 0
M  V30 1460 H 131.966 -5.16392 -5.52155 0
M  V30 1461 H 133.234 -4.40101 -6.43375 0
M  V30 1462 N 137.463 0.71206 -1.40597 0
M  V30 1463 C 138.711 1.46907 -1.38791 0
M  V30 1464 C 139.032 1.94998 0.00780391 0
M  V30 1465 O 138.302 1.70587 0.963174 0
M  V30 1466 H 136.882 0.545043 -0.51082 0
M  V30 1467 H 139.544 0.843882 -1.75683 0
M  V30 1468 H 138.64 2.34021 -2.06496 0
M  V30 1469 N 138.941 1.26152 0.944643 0
M  V30 1470 C 139.888 1.07408 2.04285 0
M  V30 1471 C 140.858 -0.0198413 1.66088 0
M  V30 1472 O 142.043 0.139264 1.90291 0
M  V30 1473 C 139.183 0.70945 3.37729 0
M  V30 1474 C 138.296 1.87926 3.88983 0
M  V30 1475 C 137.431 1.45807 5.10797 0
M  V30 1476 C 136.47 2.5964 5.54305 0
M  V30 1477 N 135.607 2.18226 6.67324 0
M  V30 1478 H 140.447 2.01389 2.1965 0
M  V30 1479 H 137.984 1.00275 1.07626 0
M  V30 1480 H 139.942 0.478948 4.14442 0
M  V30 1481 H 138.572 -0.193389 3.2222 0
M  V30 1482 H 137.624 2.22279 3.08701 0
M  V30 1483 H 138.936 2.73377 4.17213 0
M  V30 1484 H 138.09 1.18781 5.94959 0
M  V30 1485 H 136.829 0.574414 4.84305 0
M  V30 1486 H 135.834 2.87399 4.68702 0
M  V30 1487 H 137.059 3.48599 5.828 0
M  V30 1488 H 135.005 1.3229 6.42523 0
M  V30 1489 H 134.922 2.97221 6.95123 0
M  V30 1490 H 136.19 1.94403 7.54869 0
M  V30 1491 N 140.419 -1.14872 1.07899 0
M  V30 1492 C 141.644 -1.90202 0.826926 0
M  V30 1493 C 142.069 -1.77774 -0.614664 0
M  V30 1494 O 141.427 -1.11431 -1.43013 0
M  V30 1495 C 141.475 -3.38352 1.24702 0
M  V30 1496 O 140.579 -4.10497 0.39575 0
M  V30 1497 H 139.92 -0.591968 0.300782 0
M  V30 1498 H 142.45 -1.45437 1.43907 0
M  V30 1499 H 142.46 -3.89156 1.22563 0
M  V30 1500 H 141.135 -3.46715 2.29698 0
M  V30 1501 H 139.712 -3.69796 0.480117 0
M  V30 1502 N 141.898 -0.863906 -1.31812 0
M  V30 1503 C 143.128 -0.485406 -2.00817 0
M  V30 1504 C 143.536 0.925007 -1.65046 0
M  V30 1505 O 142.879 1.61653 -0.872574 0
M  V30 1506 C 142.941 -0.555589 -3.55181 0
M  V30 1507 C 142.605 -1.92654 -4.14407 0
M  V30 1508 C 143.602 -2.89324 -4.31958 0
M  V30 1509 C 141.287 -2.2262 -4.50273 0
M  V30 1510 C 143.281 -4.14108 -4.84555 0
M  V30 1511 C 140.968 -3.47654 -5.02573 0
M  V30 1512 C 141.966 -4.43214 -5.19664 0
M  V30 1513 O 141.654 -5.66033 -5.70843 0
M  V30 1514 H 141.386 -0.188224 -0.649267 0
M  V30 1515 H 143.94 -1.16514 -1.69156 0
M  V30 1516 H 142.17 0.181037 -3.86276 0
M  V30 1517 H 143.859 -0.19138 -4.05449 0
M  V30 1518 H 144.625 -2.6748 -4.04573 0
M  V30 1519 H 140.504 -1.4902 -4.3625 0
M  V30 1520 H 144.048 -4.88703 -4.9781 0
M  V30 1521 H 139.945 -3.69345 -5.29391 0
M  V30 1522 H 140.713 -5.6812 -5.89222 0
M  V30 1523 N 143.376 1.44774 -0.622745 0
M  V30 1524 C 144.787 1.85546 -0.207226 0
M  V30 1525 C 145.138 1.52093 1.23944 0
M  V30 1526 O 144.263 0.95492 1.94191 0
M  V30 1527 C 144.858 3.36781 -0.369313 0
M  V30 1528 C 143.417 3.76399 -0.00836847 0
M  V30 1529 C 142.564 2.68664 -0.686651 0
M  V30 1530 H 145.515 1.3536 -0.828454 0
M  V30 1531 H 145.536 3.78453 0.394162 0
M  V30 1532 H 145.048 3.61098 -1.42231 0
M  V30 1533 H 143.149 3.57698 1.04322 0
M  V30 1534 H 143.262 4.7732 -0.412584 0
M  V30 1535 H 141.626 2.54404 -0.122777 0
M  V30 1536 H 142.409 2.95815 -1.74208 0
M  V30 1537 N 144.854 0.36279 1.53368 0
M  V30 1538 C 146.101 -0.227776 2.01215 0
M  V30 1539 C 146.429 -1.49003 1.25014 0
M  V30 1540 O 145.684 -1.92876 0.331236 0
M  V30 1541 C 145.983 -0.568417 3.52851 0
M  V30 1542 C 145.649 0.59918 4.46901 0
M  V30 1543 C 144.311 0.919559 4.72332 0
M  V30 1544 C 146.663 1.38156 5.02556 0
M  V30 1545 C 143.991 2.02434 5.5067 0
M  V30 1546 C 146.343 2.47674 5.821 0
M  V30 1547 C 145.007 2.8025 6.05819 0
M  V30 1548 H 144.277 -0.083349 0.736297 0
M  V30 1549 H 146.924 0.494677 1.85001 0
M  V30 1550 H 145.229 -1.37185 3.66998 0
M  V30 1551 H 146.926 -1.03756 3.87344 0
M  V30 1552 H 143.516 0.339437 4.27254 0
M  V30 1553 H 147.7 1.14729 4.82857 0
M  V30 1554 H 142.956 2.28075 5.67267 0
M  V30 1555 H 147.13 3.08716 6.24234 0
M  V30 1556 H 144.757 3.65979 6.66306 0
M  V30 1557 N 146.332 -1.57332 0.0918853 0
M  V30 1558 C 147.748 -1.57389 -0.264766 0
M  V30 1559 C 147.948 -1.10281 -1.68643 0
M  V30 1560 O 147.004 -0.777801 -2.40222 0
M  V30 1561 C 148.317 -3.00648 -0.0561195 0
M  V30 1562 C 149.865 -3.12754 -0.124116 0
M  V30 1563 C 150.34 -4.57965 0.0564972 0
M  V30 1564 N 151.831 -4.632 0.00155611 0
M  V30 1565 C 152.566 -5.73281 0.116598 0
M  V30 1566 N 152.062 -6.92208 0.286294 0
M  V30 1567 N 153.855 -5.6207 0.0580973 0
M  V30 1568 H 146.006 -1.86262 1.02079 0
M  V30 1569 H 148.269 -0.859579 0.399786 0
M  V30 1570 H 147.975 -3.393 0.925669 0
M  V30 1571 H 147.849 -3.68623 -0.799823 0
M  V30 1572 H 150.236 -2.73976 -1.09641 0
M  V30 1573 H 150.317 -2.47377 0.651024 0
M  V30 1574 H 149.961 -4.97436 1.02564 0
M  V30 1575 H 149.891 -5.21399 -0.738297 0
M  V30 1576 H 152.382 -3.77686 -0.127192 0
M  V30 1577 H 152.695 -7.71934 0.365676 0
M  V30 1578 H 151.04 -6.94254 0.32192 0
M  V30 1579 H 154.231 -4.68043 -0.0733204 0
M  V30 1580 H 154.404 -6.47824 0.151203 0
M  V30 1581 N 147.81 0.181792 -1.56548 0
M  V30 1582 C 149.058 0.89832 -1.81038 0
M  V30 1583 C 149.379 1.83232 -0.667164 0
M  V30 1584 O 148.649 1.93372 0.313673 0
M  V30 1585 H 147.229 0.33471 -0.667816 0
M  V30 1586 H 149.891 0.184116 -1.94028 0
M  V30 1587 H 148.987 1.4815 -2.74696 0
M  V30 1588 N 149.288 1.51039 0.449983 0
M  V30 1589 C 150.699 1.557 1.03026 0
M  V30 1590 C 151.05 0.372939 1.92623 0
M  V30 1591 O 150.175 -0.511771 2.10261 0
M  V30 1592 C 150.77 2.82171 1.87523 0
M  V30 1593 C 149.329 2.89444 2.40622 0
M  V30 1594 C 148.476 2.50228 1.19504 0
M  V30 1595 H 151.427 1.56999 0.231745 0
M  V30 1596 H 151.448 2.65219 2.72835 0
M  V30 1597 H 150.96 3.68331 1.22286 0
M  V30 1598 H 149.061 2.07685 3.0935 0
M  V30 1599 H 149.174 3.92816 2.74285 0
M  V30 1600 H 147.538 2.03139 1.53644 0
M  V30 1601 H 148.321 3.38719 0.558972 0
M  V30 1602 N 150.766 -0.704594 1.40972 0
M  V30 1603 C 152.013 -1.46458 1.39844 0
M  V30 1604 C 152.341 -1.94499 0.00447594 0
M  V30 1605 O 151.596 -1.69275 -0.982057 0
M  V30 1606 C 151.895 -2.698 2.34399 0
M  V30 1607 C 151.561 -2.40464 3.81429 0
M  V30 1608 C 150.223 -2.32174 4.21484 0
M  V30 1609 C 152.575 -2.16086 4.74296 0
M  V30 1610 C 149.903 -1.97589 5.52427 0
M  V30 1611 C 152.255 -1.83011 6.05549 0
M  V30 1612 C 150.919 -1.7321 6.44635 0
M  V30 1613 H 150.189 -0.535927 0.511725 0
M  V30 1614 H 152.836 -0.806124 1.73706 0
M  V30 1615 H 151.141 -3.40536 1.93759 0
M  V30 1616 H 152.838 -3.27919 2.30804 0
M  V30 1617 H 149.428 -2.47808 3.49699 0
M  V30 1618 H 153.612 -2.2144 4.4416 0
M  V30 1619 H 148.868 -1.88547 5.81601 0
M  V30 1620 H 153.042 -1.63164 6.77016 0
M  V30 1621 H 150.669 -1.46179 7.46013 0
M  V30 1622 N 152.244 -1.26651 -0.937939 0
M  V30 1623 C 153.655 -1.1125 -1.49934 0
M  V30 1624 C 154.006 0.306077 -1.93798 0
M  V30 1625 O 153.131 1.19792 -1.80219 0
M  V30 1626 C 153.726 -2.01339 -2.72485 0
M  V30 1627 C 152.285 -1.90074 -3.24883 0
M  V30 1628 C 151.432 -1.94498 -1.97651 0
M  V30 1629 H 154.383 -1.39693 -0.753091 0
M  V30 1630 H 154.404 -1.56319 -3.46907 0
M  V30 1631 H 153.916 -3.04577 -2.40529 0
M  V30 1632 H 152.017 -0.897827 -3.61621 0
M  V30 1633 H 152.13 -2.75778 -3.9177 0
M  V30 1634 H 150.494 -1.38591 -2.13693 0
M  V30 1635 H 151.277 -2.99372 -1.68022 0
M  V30 1636 N 153.722 1.14298 -1.08507 0
M  V30 1637 C 155.133 1.66926 -0.836227 0
M  V30 1638 C 155.484 1.85576 0.63686 0
M  V30 1639 O 154.609 1.56767 1.49175 0
M  V30 1640 C 155.204 3.03219 -1.51142 0
M  V30 1641 C 153.763 3.52876 -1.30979 0
M  V30 1642 C 152.91 2.2833 -1.57356 0
M  V30 1643 H 155.861 0.983491 -1.24552 0
M  V30 1644 H 155.882 3.68726 -0.939211 0
M  V30 1645 H 155.394 2.89612 -2.58353 0
M  V30 1646 H 153.495 3.71703 -0.258429 0
M  V30 1647 H 153.608 4.33586 -2.03814 0
M  V30 1648 H 151.972 2.34454 -0.995164 0
M  V30 1649 H 152.755 2.17298 -2.65775 0
M  V30 1650 N 155.201 0.870884 1.31352 0
M  V30 1651 C 156.447 0.482987 1.96965 0
M  V30 1652 C 156.78 -0.962462 1.68672 0
M  V30 1653 O 156.055 -1.6779 0.98371 0
M  V30 1654 C 156.338 0.741752 3.52378 0
M  V30 1655 C 156.191 2.2368 3.9024 0
M  V30 1656 C 157.51 0.208838 4.39604 0
M  V30 1657 H 154.629 0.176955 0.715441 0
M  V30 1658 H 157.271 1.09229 1.55464 0
M  V30 1659 H 155.421 0.223149 3.87859 0
M  V30 1660 H 157.093 2.82273 3.64856 0
M  V30 1661 H 155.336 2.70901 3.38814 0
M  V30 1662 H 156.007 2.3685 4.98604 0
M  V30 1663 H 158.483 0.652529 4.10952 0
M  V30 1664 H 157.359 0.419336 5.47296 0
M  V30 1665 H 157.62 -0.889275 4.33064 0
M  V30 1666 N 156.679 -1.44442 0.630414 0
M  V30 1667 C 157.925 -2.02894 0.143332 0
M  V30 1668 C 158.28 -1.48697 -1.22094 0
M  V30 1669 O 157.573 -0.661171 -1.79831 0
M  V30 1670 C 157.767 -3.57332 0.0697835 0
M  V30 1671 C 157.596 -4.26512 1.42539 0
M  V30 1672 C 156.366 -4.63516 2.01198 0
M  V30 1673 C 158.564 -4.57004 2.35907 0
M  V30 1674 N 156.546 -5.17661 3.30001 0
M  V30 1675 C 157.917 -5.12223 3.49324 0
M  V30 1676 C 159.972 -4.38955 2.34995 0
M  V30 1677 C 158.675 -5.51295 4.62024 0
M  V30 1678 C 160.701 -4.79075 3.46758 0
M  V30 1679 C 160.063 -5.34407 4.58899 0
M  V30 1680 H 156.162 -0.776041 0.0963523 0
M  V30 1681 H 158.746 -1.75945 0.833752 0
M  V30 1682 H 156.917 -3.83894 -0.589915 0
M  V30 1683 H 158.649 -4.02451 -0.42606 0
M  V30 1684 H 155.404 -4.47811 1.54151 0
M  V30 1685 H 155.828 -5.4921 3.95851 0
M  V30 1686 H 160.47 -3.95469 1.49545 0
M  V30 1687 H 158.188 -5.93736 5.48182 0
M  V30 1688 H 161.774 -4.66824 3.47227 0
M  V30 1689 H 160.654 -5.64878 5.4395 0
M  V30 1690 N 158.157 -0.370918 -1.53173 0
M  V30 1691 C 159.105 0.488101 -2.27421 0
M  V30 1692 C 160.099 1.07884 -1.30604 0
M  V30 1693 O 161.305 1.02143 -1.48212 0
M  V30 1694 H 157.68 0.176134 -0.731082 0
M  V30 1695 H 159.651 -0.159815 -2.97972 0
M  V30 1696 C 158.4 1.61306 -3.08019 0
M  V30 1697 H 157.723 1.1678 -3.82364 0
M  V30 1698 H 159.163 2.18872 -3.63141 0
M  V30 1699 C 157.622 2.55848 -2.19188 0
M  V30 1700 O 158.152 3.58799 -1.80626 0
M  V30 1701 N 156.358 2.2516 -1.83715 0
M  V30 1702 H 155.905 1.41476 -2.15273 0
M  V30 1703 H 155.863 2.8867 -1.24567 0
M  V30 1704 N 159.635 1.57281 -0.100228 0
M  V30 1705 C 161.046 1.81725 0.428107 0
M  V30 1706 C 161.397 1.01619 1.67833 0
M  V30 1707 O 160.522 0.247098 2.14985 0
M  V30 1708 C 161.117 3.29617 0.78347 0
M  V30 1709 C 159.676 3.54808 1.25653 0
M  V30 1710 C 158.823 2.76118 0.255752 0
M  V30 1711 H 161.774 1.55324 -0.325608 0
M  V30 1712 H 161.795 3.4322 1.64256 0
M  V30 1713 H 161.307 3.87893 -0.12665 0
M  V30 1714 H 159.408 3.01868 2.18418 0
M  V30 1715 H 159.521 4.63443 1.21482 0
M  V30 1716 H 157.885 2.43745 0.738956 0
M  V30 1717 H 158.668 3.37145 -0.647136 0
M  V30 1718 N 161.113 -0.173488 1.56642 0
M  V30 1719 C 162.362 -0.888758 1.81063 0
M  V30 1720 C 162.675 -1.83506 0.67712 0
M  V30 1721 O 163.881 -2.59254 0.806206 0
M  V30 1722 C 162.337 -1.63091 3.20826 0
M  V30 1723 C 161.945 -0.728357 4.4204 0
M  V30 1724 C 163.689 -2.33454 3.54541 0
M  V30 1725 C 161.596 -1.47062 5.72823 0
M  V30 1726 H 160.526 -0.335618 0.675186 0
M  V30 1727 H 163.177 -0.141712 1.82952 0
M  V30 1728 H 161.559 -2.42263 3.13248 0
M  V30 1729 H 162.733 0.0262449 4.60793 0
M  V30 1730 H 161.048 -0.134492 4.16183 0
M  V30 1731 H 163.645 -2.89578 4.49498 0
M  V30 1732 H 163.988 -3.08687 2.79317 0
M  V30 1733 H 164.521 -1.61227 3.63663 0
M  V30 1734 H 161.26 -0.760658 6.51072 0
M  V30 1735 H 160.78 -2.1986 5.58052 0
M  V30 1736 H 162.459 -2.01868 6.14702 0
M  V30 1737 N 162.591 -1.51276 -0.441967 0
M  V30 1738 C 163.819 -1.67516 -1.21434 0
M  V30 1739 C 164.234 -0.37055 -1.85128 0
M  V30 1740 O 163.591 0.650498 -1.70513 0
M  V30 1741 C 163.642 -2.78748 -2.30177 0
M  V30 1742 O 163.363 -4.04154 -1.69089 0
M  V30 1743 C 164.864 -3.06217 -3.20541 0
M  V30 1744 H 162.084 -0.562276 -0.366178 0
M  V30 1745 H 164.628 -1.97666 -0.524244 0
M  V30 1746 H 162.783 -2.5121 -2.94911 0
M  V30 1747 H 163.197 -4.65894 -2.40922 0
M  V30 1748 H 164.671 -3.8764 -3.92987 0
M  V30 1749 H 165.148 -2.18439 -3.81026 0
M  V30 1750 H 165.754 -3.35397 -2.61513 0
M  V30 1751 N 164.069 0.697108 -1.41344 0
M  V30 1752 C 165.299 1.48377 -1.43763 0
M  V30 1753 C 165.707 1.89156 -0.0408726 0
M  V30 1754 O 165.05 1.57239 0.949812 0
M  V30 1755 C 165.112 2.7781 -2.2817 0
M  V30 1756 C 164.776 2.59244 -3.76353 0
M  V30 1757 C 165.773 2.25292 -4.68551 0
M  V30 1758 C 163.458 2.74933 -4.20378 0
M  V30 1759 C 165.452 2.07264 -6.02761 0
M  V30 1760 C 163.139 2.56521 -5.54653 0
M  V30 1761 C 164.137 2.22737 -6.4566 0
M  V30 1762 O 163.825 2.04485 -7.77458 0
M  V30 1763 H 163.557 0.463842 -0.491759 0
M  V30 1764 H 166.111 0.865934 -1.86255 0
M  V30 1765 H 164.341 3.41995 -1.8049 0
M  V30 1766 H 166.03 3.39608 -2.22309 0
M  V30 1767 H 166.796 2.12787 -4.35829 0
M  V30 1768 H 162.675 3.00213 -3.49848 0
M  V30 1769 H 166.219 1.80817 -6.73759 0
M  V30 1770 H 162.116 2.68616 -5.86955 0
M  V30 1771 H 162.884 2.1926 -7.88586 0
M  V30 1772 N 165.547 1.27147 0.931209 0
M  V30 1773 C 166.477 1.12081 2.04842 0
M  V30 1774 C 167.458 0.0232364 1.70084 0
M  V30 1775 O 168.643 0.197085 1.93197 0
M  V30 1776 C 165.773 0.76354 3.38803 0
M  V30 1777 C 164.727 1.81396 3.87659 0
M  V30 1778 C 164.053 1.31075 5.18385 0
M  V30 1779 C 165.353 3.21739 4.11438 0
M  V30 1780 H 167.047 2.05537 2.17703 0
M  V30 1781 H 164.593 0.989603 1.04608 0
M  V30 1782 H 166.546 0.644982 4.16435 0
M  V30 1783 H 165.27 -0.206727 3.25945 0
M  V30 1784 H 163.929 1.92136 3.12217 0
M  V30 1785 H 163.577 0.330037 5.01916 0
M  V30 1786 H 163.277 2.013 5.52044 0
M  V30 1787 H 164.801 1.20506 5.98591 0
M  V30 1788 H 166.215 3.14019 4.79651 0
M  V30 1789 H 164.612 3.89644 4.56397 0
M  V30 1790 H 165.682 3.67054 3.16859 0
M  V30 1791 N 167.025 -1.13721 1.09112 0
M  V30 1792 C 168.302 -1.81155 0.737706 0
M  V30 1793 C 168.682 -1.96253 -0.777683 0
M  V30 1794 O 168.03 -1.52807 -1.69889 0
M  V30 1795 C 168.24 -3.16392 1.47299 0
M  V30 1796 C 169.588 -3.91787 1.63671 0
M  V30 1797 O 170.612 -3.26005 1.43524 0
M  V30 1798 O 169.471 -5.0977 1.96969 0
M  V30 1799 H 166.565 -0.783518 0.26463 0
M  V30 1800 H 169.111 -1.20676 1.19312 0
M  V30 1801 H 167.883 -3.0061 2.50498 0
M  V30 1802 H 167.506 -3.8457 1.00953 0
M  V30 1803 N 168.503 -0.877838 -1.30888 0
M  V30 1804 C 169.453 -0.310872 -2.25871 0
M  V30 1805 C 170.437 0.556596 -1.50966 0
M  V30 1806 O 171.629 0.402187 -1.7237 0
M  V30 1807 C 168.758 0.479821 -3.3993 0
M  V30 1808 C 167.844 -0.401333 -4.22197 0
M  V30 1809 N 168.235 -1.49848 -4.83093 0
M  V30 1810 C 166.533 -0.195167 -4.45573 0
M  V30 1811 C 167.234 -2.0425 -5.44662 0
M  V30 1812 N 166.21 -1.33843 -5.26865 0
M  V30 1813 H 170.012 -1.1493 -2.70496 0
M  V30 1814 H 167.526 -0.726458 -1.45246 0
M  V30 1815 H 169.523 0.902582 -4.07012 0
M  V30 1816 H 168.183 1.31577 -2.96846 0
M  V30 1817 H 169.194 -1.88137 -4.82519 0
M  V30 1818 H 165.871 0.604192 -4.13105 0
M  V30 1819 H 167.261 -2.96345 -6.03017 0
M  V30 1820 N 169.982 1.44106 -0.638065 0
M  V30 1821 C 170.93 2.3248 0.0748149 0
M  V30 1822 C 171.924 1.47746 0.828702 0
M  V30 1823 O 173.13 1.64049 0.740816 0
M  V30 1824 H 169.505 0.750771 0.0429686 0
M  V30 1825 H 171.476 2.90348 -0.688504 0
M  V30 1826 C 170.225 3.31843 1.03805 0
M  V30 1827 H 169.548 3.97059 0.467375 0
M  V30 1828 H 170.988 3.96345 1.50622 0
M  V30 1829 C 169.447 2.61291 2.1267 0
M  V30 1830 O 169.977 2.41702 3.20847 0
M  V30 1831 N 168.183 2.20915 1.88798 0
M  V30 1832 H 167.73 2.37047 1.00829 0
M  V30 1833 H 167.688 1.74038 2.61836 0
M  V30 1834 N 171.46 0.379036 1.52974 0
M  V30 1835 C 172.408 -0.476033 2.27677 0
M  V30 1836 C 173.402 -1.0719 1.31174 0
M  V30 1837 O 174.608 -1.01355 1.48752 0
M  V30 1838 H 170.983 -0.172255 0.732006 0
M  V30 1839 H 172.954 0.175615 2.97883 0
M  V30 1840 C 171.703 -1.5967 3.0887 0
M  V30 1841 H 171.026 -1.1475 3.82978 0
M  V30 1842 H 172.466 -2.16943 3.64296 0
M  V30 1843 C 170.925 -2.54682 2.20542 0
M  V30 1844 O 171.455 -3.57836 1.82527 0
M  V30 1845 N 169.661 -2.24183 1.84907 0
M  V30 1846 H 169.208 -1.40333 2.1602 0
M  V30 1847 H 169.166 -2.88006 1.26096 0
M  V30 1848 N 172.938 -1.57226 0.108567 0
M  V30 1849 C 174.185 -1.94833 -0.551943 0
M  V30 1850 C 174.513 -0.991204 -1.67348 0
M  V30 1851 O 173.768 -0.0131878 -1.95696 0
M  V30 1852 C 174.067 -3.38911 -1.13463 0
M  V30 1853 C 173.733 -4.50696 -0.135509 0
M  V30 1854 C 172.395 -4.80998 0.139252 0
M  V30 1855 C 174.747 -5.18333 0.545957 0
M  V30 1856 C 172.075 -5.76259 1.10194 0
M  V30 1857 C 174.427 -6.14627 1.49721 0
M  V30 1858 C 173.091 -6.43327 1.78006 0
M  V30 1859 H 172.361 -0.712944 -0.20197 0
M  V30 1860 H 175.008 -1.90582 0.18726 0
M  V30 1861 H 173.313 -3.39805 -1.95037 0
M  V30 1862 H 175.01 -3.65317 -1.65362 0
M  V30 1863 H 171.6 -4.27087 -0.359846 0
M  V30 1864 H 175.784 -4.95087 0.346842 0
M  V30 1865 H 171.04 -5.96804 1.32795 0
M  V30 1866 H 175.214 -6.66126 2.03099 0
M  V30 1867 H 172.841 -7.1695 2.52759 0
M  V30 1868 N 174.416 0.165178 -1.56732 0
M  V30 1869 C 175.662 0.877389 -1.83503 0
M  V30 1870 C 176.017 1.79602 -0.689996 0
M  V30 1871 O 175.31 1.89023 0.313205 0
M  V30 1872 C 175.504 1.70405 -3.1416 0
M  V30 1873 C 175.333 0.866961 -4.41264 0
M  V30 1874 C 174.103 0.539646 -5.0241 0
M  V30 1875 C 176.301 0.205671 -5.13889 0
M  V30 1876 N 174.283 -0.312946 -6.13102 0
M  V30 1877 C 175.654 -0.507823 -6.17917 0
M  V30 1878 C 177.709 0.124468 -4.97744 0
M  V30 1879 C 176.412 -1.29483 -7.0755 0
M  V30 1880 C 178.438 -0.649222 -5.87826 0
M  V30 1881 C 177.8 -1.35106 -6.91322 0
M  V30 1882 H 173.899 0.299477 -0.722383 0
M  V30 1883 H 176.483 0.143949 -1.94167 0
M  V30 1884 H 174.654 2.40887 -3.04677 0
M  V30 1885 H 176.386 2.35804 -3.28905 0
M  V30 1886 H 173.141 0.871176 -4.65519 0
M  V30 1887 H 173.565 -0.729731 -6.73056 0
M  V30 1888 H 178.207 0.652724 -4.17731 0
M  V30 1889 H 175.925 -1.83441 -7.87004 0
M  V30 1890 H 179.511 -0.713804 -5.77405 0
M  V30 1891 H 178.391 -1.94013 -7.59821 0
M  V30 1892 N 175.894 1.51508 0.433938 0
M  V30 1893 C 177.31 1.39759 0.770682 0
M  V30 1894 C 177.51 0.482594 1.95636 0
M  V30 1895 O 176.566 -0.0609691 2.52426 0
M  V30 1896 C 177.879 2.81851 1.04787 0
M  V30 1897 C 179.427 2.91025 1.1521 0
M  V30 1898 C 179.902 4.34032 1.46219 0
M  V30 1899 N 181.393 4.37154 1.53136 0
M  V30 1900 C 182.128 5.4484 1.78709 0
M  V30 1901 N 181.624 6.62682 2.02051 0
M  V30 1902 N 183.417 5.32324 1.80519 0
M  V30 1903 H 175.568 2.09548 -0.346892 0
M  V30 1904 H 177.831 0.943446 -0.0928074 0
M  V30 1905 H 177.537 3.50815 0.249304 0
M  V30 1906 H 177.411 3.21386 1.97461 0
M  V30 1907 H 179.798 2.22257 1.94128 0
M  V30 1908 H 179.879 2.54983 0.204281 0
M  V30 1909 H 179.523 5.03351 0.678274 0
M  V30 1910 H 179.453 4.6759 2.42212 0
M  V30 1911 H 181.944 3.52197 1.36987 0
M  V30 1912 H 182.257 7.40543 2.20943 0
M  V30 1913 H 180.602 6.65791 1.99366 0
M  V30 1914 H 183.793 4.39246 1.61805 0
M  V30 1915 H 183.966 6.16328 2.00111 0
M  V30 1916 N 177.372 -0.689602 1.41712 0
M  V30 1917 C 178.6 -1.47827 1.44758 0
M  V30 1918 C 179.015 -1.88721 0.0545703 0
M  V30 1919 O 178.372 -1.57176 -0.927463 0
M  V30 1920 C 178.423 -2.73698 2.3616 0
M  V30 1921 O 178.144 -2.34524 3.7004 0
M  V30 1922 C 179.645 -3.67389 2.48072 0
M  V30 1923 H 176.865 -0.455357 0.49284 0
M  V30 1924 H 179.409 -0.848574 1.86063 0
M  V30 1925 H 177.564 -3.32891 1.98148 0
M  V30 1926 H 177.978 -3.15701 4.18847 0
M  V30 1927 H 179.452 -4.52475 3.16181 0
M  V30 1928 H 179.929 -4.12284 1.51388 0
M  V30 1929 H 180.535 -3.14097 2.86746 0
M  V30 1930 N 178.85 -1.27639 -0.924453 0
M  V30 1931 C 179.783 -1.04966 -2.02626 0
M  V30 1932 C 180.761 0.0309505 -1.62571 0
M  V30 1933 O 181.945 -0.114846 -1.8815 0
M  V30 1934 C 179.072 -0.59292 -3.3347 0
M  V30 1935 C 178.118 -1.66858 -3.92506 0
M  V30 1936 S 178.951 -3.2619 -4.24689 0
M  V30 1937 C 180.107 -2.82325 -5.58609 0
M  V30 1938 H 180.34 -1.98252 -2.21547 0
M  V30 1939 H 177.873 -1.11506 -1.06798 0
M  V30 1940 H 179.831 -0.336086 -4.09122 0
M  V30 1941 H 178.492 0.319939 -3.12466 0
M  V30 1942 H 177.685 -1.30038 -4.86935 0
M  V30 1943 H 177.287 -1.87766 -3.2345 0
M  V30 1944 H 179.579 -2.2783 -6.38044 0
M  V30 1945 H 180.522 -3.75511 -6.00331 0
M  V30 1946 H 180.93 -2.21367 -5.19285 0
M  V30 1947 N 180.328 1.1314 -1.09713 0
M  V30 1948 C 181.605 1.80762 -0.747302 0
M  V30 1949 C 181.985 1.96663 0.767265 0
M  V30 1950 O 181.333 1.53706 1.69076 0
M  V30 1951 C 181.543 3.15606 -1.48975 0
M  V30 1952 C 182.891 3.90914 -1.65746 0
M  V30 1953 O 183.915 3.25239 -1.45251 0
M  V30 1954 O 182.774 5.08718 -1.9967 0
M  V30 1955 H 179.868 0.782103 -0.268782 0
M  V30 1956 H 182.414 1.20041 -1.19951 0
M  V30 1957 H 181.186 2.99278 -2.52088 0
M  V30 1958 H 180.809 3.84029 -1.02991 0
M  V30 1959 N 181.806 0.884767 1.30421 0
M  V30 1960 C 183.083 0.423185 1.90967 0
M  V30 1961 C 183.463 -1.09605 1.80416 0
M  V30 1962 O 182.811 -1.93126 1.22125 0
M  V30 1963 C 183.021 0.921056 3.36627 0
M  V30 1964 C 184.369 0.955903 4.137 0
M  V30 1965 O 185.393 0.867706 3.4547 0
M  V30 1966 O 184.252 1.08614 5.35598 0
M  V30 1967 H 181.346 0.129369 0.816819 0
M  V30 1968 H 183.892 0.973653 1.3899 0
M  V30 1969 H 182.664 1.96489 3.3839 0
M  V30 1970 H 182.287 0.349741 3.96059 0
M  V30 1971 N 183.284 -1.43765 0.645699 0
M  V30 1972 C 184.217 -2.2798 -0.100072 0
M  V30 1973 C 185.195 -1.39391 -0.837194 0
M  V30 1974 O 186.379 -1.68833 -0.838306 0
M  V30 1975 C 183.506 -3.18643 -1.14823 0
M  V30 1976 C 182.552 -4.2344 -0.510009 0
M  V30 1977 S 183.385 -5.30761 0.710824 0
M  V30 1978 C 184.541 -6.24992 -0.33699 0
M  V30 1979 H 184.774 -2.90884 0.614322 0
M  V30 1980 H 182.307 -1.48166 0.434304 0
M  V30 1981 H 184.265 -3.71424 -1.74799 0
M  V30 1982 H 182.926 -2.54932 -1.8349 0
M  V30 1983 H 182.119 -4.86948 -1.29991 0
M  V30 1984 H 181.721 -3.73997 0.0154577 0
M  V30 1985 H 184.013 -6.66691 -1.20537 0
M  V30 1986 H 184.956 -7.07612 0.262879 0
M  V30 1987 H 185.364 -5.60517 -0.669425 0
M  V30 1988 N 184.763 -0.387143 -1.52771 0
M  V30 1989 C 186.011 0.195349 -2.01154 0
M  V30 1990 C 186.332 1.475 -1.27549 0
M  V30 1991 O 185.602 1.91878 -0.394924 0
M  V30 1992 H 184.182 0.075178 -0.743207 0
M  V30 1993 H 186.844 -0.518337 -1.87881 0
M  V30 1994 H 185.94 0.407096 -3.09434 0
M  V30 1995 N 186.241 1.57166 -0.116904 0
M  V30 1996 C 187.657 1.5779 0.239693 0
M  V30 1997 C 187.857 1.1295 1.66867 0
M  V30 1998 O 186.913 0.81592 2.38954 0
M  V30 1999 C 188.226 3.00699 0.00828202 0
M  V30 2000 C 189.774 3.12912 0.0743438 0
M  V30 2001 C 190.249 4.57817 -0.129348 0
M  V30 2002 N 191.74 4.63139 -0.075247 0
M  V30 2003 C 192.475 5.73023 -0.207788 0
M  V30 2004 N 191.971 6.91665 -0.396382 0
M  V30 2005 N 193.764 5.61906 -0.14751 0
M  V30 2006 H 185.915 1.84615 -1.05029 0
M  V30 2007 H 188.178 0.85311 -0.41341 0
M  V30 2008 H 187.884 3.37784 -0.979531 0
M  V30 2009 H 187.758 3.69848 0.741077 0
M  V30 2010 H 190.145 2.75686 1.05268 0
M  V30 2011 H 190.226 2.4631 -0.690297 0
M  V30 2012 H 189.87 4.95742 -1.10465 0
M  V30 2013 H 189.8 5.22507 0.655253 0
M  V30 2014 H 192.291 3.7784 0.0670898 0
M  V30 2015 H 192.604 7.71255 -0.488437 0
M  V30 2016 H 190.949 6.93654 -0.432329 0
M  V30 2017 H 194.14 4.681 -0.00115036 0
M  V30 2018 H 194.313 6.47501 -0.254247 0
M  V30 2019 N 187.719 -0.156864 1.56817 0
M  V30 2020 C 188.629 -1.2136 2.00771 0
M  V30 2021 C 189.645 -1.47598 0.921459 0
M  V30 2022 O 190.821 -1.59462 1.2302 0
M  V30 2023 C 187.886 -2.52943 2.37109 0
M  V30 2024 C 186.947 -2.34439 3.59634 0
M  V30 2025 C 186.18 -3.59748 3.94229 0
M  V30 2026 O 186.403 -4.65526 3.29609 0
M  V30 2027 O 185.337 -3.52998 4.8752 0
M  V30 2028 H 189.163 -0.870468 2.90958 0
M  V30 2029 H 186.748 -0.36484 1.44877 0
M  V30 2030 H 188.63 -3.30538 2.61386 0
M  V30 2031 H 187.305 -2.86806 1.5008 0
M  V30 2032 H 186.212 -1.54828 3.40557 0
M  V30 2033 H 187.545 -2.05496 4.4725 0
M  V30 2034 N 189.197 -1.51736 -0.425897 0
M  V30 2035 C 190.446 -1.64201 -1.17136 0
M  V30 2036 C 190.759 -0.369705 -1.92074 0
M  V30 2037 O 191.965 -0.373898 -2.68913 0
M  V30 2038 C 190.421 -2.90035 -2.13091 0
M  V30 2039 C 190.029 -4.24312 -1.43747 0
M  V30 2040 C 191.773 -3.1186 -2.87999 0
M  V30 2041 C 189.68 -5.41285 -2.38253 0
M  V30 2042 H 188.61 -0.611624 -0.440944 0
M  V30 2043 H 191.261 -1.78212 -0.437328 0
M  V30 2044 H 189.643 -2.69684 -2.89977 0
M  V30 2045 H 190.817 -4.55086 -0.723408 0
M  V30 2046 H 189.132 -4.08456 -0.809465 0
M  V30 2047 H 191.729 -3.96427 -3.58817 0
M  V30 2048 H 192.072 -2.25403 -3.49999 0
M  V30 2049 H 192.605 -3.32605 -2.18217 0
M  V30 2050 H 189.344 -6.30037 -1.80925 0
M  V30 2051 H 188.864 -5.14872 -3.0768 0
M  V30 2052 H 190.543 -5.73694 -2.99139 0
M  V30 2053 N 190.675 0.682077 -1.42076 0
M  V30 2054 C 192.086 1.26246 -1.37546 0
M  V30 2055 C 192.437 1.96092 -0.0651481 0
M  V30 2056 O 191.562 1.99587 0.836297 0
M  V30 2057 C 192.157 2.29594 -2.49143 0
M  V30 2058 C 190.716 2.83175 -2.47969 0
M  V30 2059 C 189.863 1.57395 -2.28303 0
M  V30 2060 H 192.814 0.475937 -1.51395 0
M  V30 2061 H 192.835 3.11175 -2.18976 0
M  V30 2062 H 192.347 1.78729 -3.44496 0
M  V30 2063 H 190.448 3.3818 -1.56413 0
M  V30 2064 H 190.561 3.32687 -3.44755 0
M  V30 2065 H 188.925 1.83699 -1.76428 0
M  V30 2066 H 189.708 1.08507 -3.25701 0
M  V30 2067 N 192.153 1.28127 0.917671 0
M  V30 2068 C 193.378 1.18007 1.70555 0
M  V30 2069 C 193.803 -0.258257 1.86319 0
M  V30 2070 O 193.161 -1.1869 1.37049 0
M  V30 2071 C 193.209 1.87948 3.07746 0
M  V30 2072 O 192.313 1.18427 3.9503 0
M  V30 2073 H 191.654 0.409867 0.522403 0
M  V30 2074 H 194.184 1.69379 1.1477 0
M  V30 2075 H 194.194 1.95701 3.58001 0
M  V30 2076 H 192.869 2.92573 2.95591 0
M  V30 2077 H 191.446 1.18811 3.53466 0
M  V30 2078 N 193.631 -1.12557 1.10312 0
M  V30 2079 C 194.908 -1.80363 0.756878 0
M  V30 2080 C 195.288 -1.97067 -0.756824 0
M  V30 2081 O 194.636 -1.54601 -1.68259 0
M  V30 2082 C 194.846 -3.14812 1.50647 0
M  V30 2083 C 196.194 -3.90029 1.67817 0
M  V30 2084 O 197.218 -3.24464 1.46974 0
M  V30 2085 O 196.077 -5.07652 2.02365 0
M  V30 2086 H 193.171 -0.780667 0.272926 0
M  V30 2087 H 195.717 -1.19404 1.20586 0
M  V30 2088 H 194.489 -2.97936 2.53672 0
M  V30 2089 H 194.112 -3.83478 1.05026 0
M  V30 2090 N 195.109 -0.891671 -1.2995 0
M  V30 2091 C 196.072 -0.36828 -2.26222 0
M  V30 2092 C 197.072 0.493014 -1.53056 0
M  V30 2093 O 198.262 0.299213 -1.71611 0
M  V30 2094 C 195.394 0.47442 -3.37583 0
M  V30 2095 H 196.587 -1.21844 -2.74033 0
M  V30 2096 H 194.14 -0.669107 -1.41254 0
M  V30 2097 H 194.875 1.34489 -2.95099 0
M  V30 2098 H 194.66 -0.142615 -3.91841 0
M  V30 2099 H 196.15 0.83218 -4.09224 0
M  V30 2100 N 196.587 1.43421 -0.653314 0
M  V30 2101 C 197.998 1.85065 -0.246537 0
M  V30 2102 C 198.349 1.54688 1.2069 0
M  V30 2103 O 197.474 0.995896 1.92122 0
M  V30 2104 C 198.069 3.35922 -0.440666 0
M  V30 2105 C 196.628 3.76297 -0.0882064 0
M  V30 2106 C 195.775 2.67147 -0.743484 0
M  V30 2107 H 198.726 1.33572 -0.856979 0
M  V30 2108 H 198.747 3.79204 0.313798 0
M  V30 2109 H 198.259 3.58 -1.49858 0
M  V30 2110 H 196.36 3.5983 0.96711 0
M  V30 2111 H 196.473 4.76338 -0.513738 0
M  V30 2112 H 194.837 2.54086 -0.176712 0
M  V30 2113 H 195.62 2.92053 -1.80443 0
M  V30 2114 N 198.065 0.39524 1.52563 0
M  V30 2115 C 199.311 -0.177763 2.02622 0
M  V30 2116 C 199.666 -1.43974 1.27629 0
M  V30 2117 O 198.959 -1.87995 0.36992 0
M  V30 2118 C 199.153 -0.493444 3.53977 0
M  V30 2119 C 198.982 0.736392 4.4363 0
M  V30 2120 C 197.752 1.25744 4.89404 0
M  V30 2121 C 199.95 1.61046 4.88435 0
M  V30 2122 N 197.932 2.44421 5.63145 0
M  V30 2123 C 199.303 2.64359 5.60816 0
M  V30 2124 C 201.358 1.62985 4.70468 0
M  V30 2125 C 200.061 3.69505 6.17137 0
M  V30 2126 C 202.087 2.67042 5.27677 0
M  V30 2127 C 201.449 3.69077 5.99968 0
M  V30 2128 H 197.548 -0.0269794 0.781534 0
M  V30 2129 H 200.132 0.546466 1.86874 0
M  V30 2130 H 198.303 -1.18672 3.69826 0
M  V30 2131 H 200.035 -1.05412 3.90731 0
M  V30 2132 H 196.79 0.817546 4.6649 0
M  V30 2133 H 197.214 3.04485 6.04663 0
M  V30 2134 H 201.856 0.854442 4.14076 0
M  V30 2135 H 199.574 4.4791 6.72608 0
M  V30 2136 H 203.16 2.69433 5.15652 0
M  V30 2137 H 202.04 4.48273 6.43444 0
M  V30 2138 N 199.544 -1.57102 0.125237 0
M  V30 2139 C 200.491 -2.15641 -0.822655 0
M  V30 2140 C 201.461 -1.08313 -1.25927 0
M  V30 2141 O 202.646 -1.36251 -1.33567 0
M  V30 2142 C 199.786 -2.76504 -2.06494 0
M  V30 2143 C 198.899 -3.98158 -1.67612 0
M  V30 2144 C 198.034 -4.47088 -2.86854 0
M  V30 2145 C 197.073 -5.6126 -2.44242 0
M  V30 2146 N 196.21 -6.04905 -3.56419 0
M  V30 2147 H 201.05 -2.96313 -0.316625 0
M  V30 2148 H 198.587 -1.46388 -0.144588 0
M  V30 2149 H 200.545 -3.09925 -2.79289 0
M  V30 2150 H 199.175 -1.98512 -2.54545 0
M  V30 2151 H 198.227 -3.70858 -0.846661 0
M  V30 2152 H 199.539 -4.80934 -1.32301 0
M  V30 2153 H 198.693 -4.82451 -3.67867 0
M  V30 2154 H 197.432 -3.63275 -3.25396 0
M  V30 2155 H 196.437 -5.25495 -1.61663 0
M  V30 2156 H 197.662 -6.46843 -2.0681 0
M  V30 2157 H 195.608 -5.24032 -3.94623 0
M  V30 2158 H 195.525 -6.82552 -3.25051 0
M  V30 2159 H 196.793 -6.44907 -4.37853 0
M  V30 2160 N 201.022 0.148545 -1.56898 0
M  V30 2161 C 201.985 1.16736 -1.97244 0
M  V30 2162 C 202.985 1.35947 -0.858777 0
M  V30 2163 O 204.175 1.32966 -1.12542 0
M  V30 2164 C 201.307 2.52798 -2.28705 0
M  V30 2165 H 202.5 0.821279 -2.88435 0
M  V30 2166 H 200.053 0.391831 -1.51309 0
M  V30 2167 H 200.788 2.92381 -1.403 0
M  V30 2168 H 200.573 2.40216 -3.09901 0
M  V30 2169 H 202.063 3.26179 -2.60762 0
M  V30 2170 N 202.5 1.5196 0.417844 0
M  V30 2171 C 203.911 1.57851 0.997 0
M  V30 2172 C 204.262 0.413714 1.91789 0
M  V30 2173 O 203.387 -0.467057 2.113 0
M  V30 2174 C 203.982 2.86085 1.81496 0
M  V30 2175 C 202.541 2.94483 2.34428 0
M  V30 2176 C 201.688 2.52707 1.14169 0
M  V30 2177 H 204.639 1.57455 0.198392 0
M  V30 2178 H 204.66 2.70947 2.67148 0
M  V30 2179 H 204.172 3.70842 1.14446 0
M  V30 2180 H 202.273 2.142 3.04875 0
M  V30 2181 H 202.386 3.98546 2.65891 0
M  V30 2182 H 200.75 2.06353 1.49301 0
M  V30 2183 H 201.533 3.39828 0.486999 0
M  V30 2184 N 203.978 -0.674533 1.42435 0
M  V30 2185 C 204.908 -1.80009 1.48724 0
M  V30 2186 C 205.889 -1.6659 0.343793 0
M  V30 2187 O 207.074 -1.86007 0.558137 0
M  V30 2188 C 204.204 -3.18306 1.38919 0
M  V30 2189 C 203.158 -3.46461 2.51294 0
M  V30 2190 C 202.484 -4.84335 2.26547 0
M  V30 2191 C 203.784 -3.43328 3.93603 0
M  V30 2192 H 205.478 -1.75004 2.42928 0
M  V30 2193 H 203.024 -0.840533 1.16923 0
M  V30 2194 H 204.977 -3.9678 1.41927 0
M  V30 2195 H 203.701 -3.2399 0.412094 0
M  V30 2196 H 202.36 -2.70348 2.47604 0
M  V30 2197 H 202.008 -4.86669 1.2713 0
M  V30 2198 H 201.708 -5.04136 3.01861 0
M  V30 2199 H 203.232 -5.65094 2.31304 0
M  V30 2200 H 204.646 -4.11772 3.98894 0
M  V30 2201 H 203.043 -3.74664 4.68771 0
M  V30 2202 H 204.113 -2.41897 4.20255 0
M  V30 2203 N 205.456 -1.28612 -0.910864 0
M  V30 2204 C 206.419 -1.12803 -1.9952 0
M  V30 2205 C 207.419 -0.0668264 -1.60661 0
M  V30 2206 O 208.609 -0.312847 -1.71368 0
M  V30 2207 C 205.741 -0.72254 -3.33155 0
M  V30 2208 H 206.934 -2.09109 -2.14973 0
M  V30 2209 H 204.487 -1.11639 -1.09391 0
M  V30 2210 H 205.222 0.241152 -3.23402 0
M  V30 2211 H 205.007 -1.48916 -3.62721 0
M  V30 2212 H 206.497 -0.634666 -4.12749 0
M  V30 2213 N 206.934 1.1197 -1.10907 0
M  V30 2214 C 207.844 2.21433 -0.774896 0
M  V30 2215 C 208.86 1.72478 0.229657 0
M  V30 2216 O 210.036 2.01288 0.0672008 0
M  V30 2217 C 207.101 3.4602 -0.216986 0
M  V30 2218 C 206.162 4.09791 -1.27944 0
M  V30 2219 C 205.395 5.28431 -0.748055 0
M  V30 2220 O 205.618 5.68823 0.423833 0
M  V30 2221 O 204.552 5.82644 -1.51027 0
M  V30 2222 H 208.378 2.5242 -1.68873 0
M  V30 2223 H 205.963 1.20399 -0.884555 0
M  V30 2224 H 207.845 4.21304 0.090059 0
M  V30 2225 H 206.52 3.16698 0.669633 0
M  V30 2226 H 205.427 3.36265 -1.63941 0
M  V30 2227 H 206.76 4.4328 -2.13925 0
M  V30 2228 N 208.412 0.89855 1.29475 0
M  V30 2229 C 209.322 0.379974 2.31502 0
M  V30 2230 C 210.338 -0.524695 1.659 0
M  V30 2231 O 211.514 -0.414551 1.97087 0
M  V30 2232 C 208.579 -0.385138 3.44554 0
M  V30 2233 C 207.64 0.550914 4.2575 0
M  V30 2234 C 206.873 -0.177778 5.33404 0
M  V30 2235 O 207.096 -1.40189 5.52904 0
M  V30 2236 O 206.03 0.479106 5.9999 0
M  V30 2237 H 209.856 1.22639 2.77837 0
M  V30 2238 H 207.441 0.662834 1.33891 0
M  V30 2239 H 209.323 -0.817841 4.13388 0
M  V30 2240 H 207.998 -1.20763 3.0033 0
M  V30 2241 H 206.905 1.03271 3.59564 0
M  V30 2242 H 208.238 1.33979 4.73614 0
M  V30 2243 N 209.89 -1.43072 0.660911 0
M  V30 2244 C 211.136 -2.02545 0.186337 0
M  V30 2245 C 211.491 -1.51253 -1.18913 0
M  V30 2246 O 210.784 -0.699167 -1.78388 0
M  V30 2247 C 210.978 -3.57103 0.145563 0
M  V30 2248 C 210.807 -4.23393 1.51554 0
M  V30 2249 C 209.577 -4.59144 2.10984 0
M  V30 2250 C 211.775 -4.51897 2.45548 0
M  V30 2251 N 209.757 -5.10545 3.40907 0
M  V30 2252 C 211.128 -5.04698 3.6011 0
M  V30 2253 C 213.183 -4.33872 2.44253 0
M  V30 2254 C 211.886 -5.41371 4.73613 0
M  V30 2255 C 213.912 -4.71612 3.56842 0
M  V30 2256 C 213.274 -5.24553 4.70131 0
M  V30 2257 H 209.373 -0.773823 0.112792 0
M  V30 2258 H 211.957 -1.74137 0.870885 0
M  V30 2259 H 210.128 -3.85059 -0.508353 0
M  V30 2260 H 211.86 -4.03264 -0.340598 0
M  V30 2261 H 208.615 -4.4444 1.63615 0
M  V30 2262 H 209.039 -5.40689 4.07411 0
M  V30 2263 H 213.681 -3.92208 1.579 0
M  V30 2264 H 211.399 -5.81975 5.60652 0
M  V30 2265 H 214.985 -4.59354 3.57051 0
M  V30 2266 H 213.865 -5.53213 5.5581 0
M  V30 2267 N 211.368 -0.403325 -1.52352 0
M  V30 2268 C 212.645 0.232611 -1.94212 0
M  V30 2269 C 213.025 1.63133 -1.33981 0
M  V30 2270 O 212.373 2.22659 -0.513344 0
M  V30 2271 C 212.583 0.244811 -3.4814 0
M  V30 2272 C 213.931 0.46698 -4.22024 0
M  V30 2273 O 214.955 0.324419 -3.5472 0
M  V30 2274 O 213.814 0.74747 -5.41364 0
M  V30 2275 H 210.908 0.148223 -0.813609 0
M  V30 2276 H 213.454 -0.458848 -1.63379 0
M  V30 2277 H 212.226 -0.734378 -3.84347 0
M  V30 2278 H 211.849 0.980611 -3.85318 0
M  V30 2279 N 212.846 1.57033 -0.133567 0
M  V30 2280 C 213.794 2.17348 0.828412 0
M  V30 2281 C 214.788 1.12671 1.26498 0
M  V30 2282 O 215.994 1.30947 1.23502 0
M  V30 2283 H 212.369 0.695775 0.285309 0
M  V30 2284 H 214.34 2.96935 0.295372 0
M  V30 2285 C 213.089 2.79893 2.06289 0
M  V30 2286 H 212.412 3.60147 1.73592 0
M  V30 2287 H 213.852 3.25615 2.71572 0
M  V30 2288 C 212.311 1.77713 2.86216 0
M  V30 2289 O 212.841 1.23937 3.82103 0
M  V30 2290 N 211.047 1.47321 2.50489 0
M  V30 2291 H 210.594 1.91243 1.7258 0
M  V30 2292 H 210.552 0.79199 3.04261 0
M  V30 2293 N 214.325 -0.140222 1.56975 0
M  V30 2294 C 215.258 -1.20266 1.93936 0
M  V30 2295 C 216.236 -1.41212 0.806099 0
M  V30 2296 O 217.42 -1.55713 1.06234 0
M  V30 2297 C 214.547 -2.56037 2.21726 0
M  V30 2298 C 213.593 -2.51646 3.44349 0
M  V30 2299 S 214.426 -1.97678 4.97678 0
M  V30 2300 C 215.582 -3.35165 5.28597 0
M  V30 2301 H 215.815 -0.887358 2.83749 0
M  V30 2302 H 213.348 -0.346119 1.50471 0
M  V30 2303 H 215.306 -3.34167 2.38416 0
M  V30 2304 H 213.967 -2.84755 1.32566 0
M  V30 2305 H 213.16 -3.51608 3.61092 0
M  V30 2306 H 212.762 -1.81628 3.26936 0
M  V30 2307 H 215.054 -4.31302 5.2248 0
M  V30 2308 H 215.997 -3.23269 6.30002 0
M  V30 2309 H 216.405 -3.32614 4.56101 0
M  V30 2310 N 215.803 -1.52179 -0.40978 0
M  V30 2311 C 217.031 -1.70054 -1.17853 0
M  V30 2312 C 217.446 -0.409735 -1.843 0
M  V30 2313 O 216.803 0.614183 -1.71855 0
M  V30 2314 C 216.854 -2.83568 -2.24213 0
M  V30 2315 O 216.575 -4.0765 -1.60478 0
M  V30 2316 C 218.076 -3.12947 -3.13973 0
M  V30 2317 H 215.296 -0.569917 -0.354169 0
M  V30 2318 H 217.84 -1.98734 -0.482198 0
M  V30 2319 H 215.995 -2.57409 -2.89516 0
M  V30 2320 H 216.409 -4.70899 -2.30986 0
M  V30 2321 H 217.883 -3.95889 -3.84677 0
M  V30 2322 H 218.36 -2.26472 -3.76307 0
M  V30 2323 H 218.966 -3.40868 -2.5434 0
M  V30 2324 N 217.281 0.66697 -1.42791 0
M  V30 2325 C 218.214 1.79177 -1.41318 0
M  V30 2326 C 219.192 1.60234 -0.276401 0
M  V30 2327 O 220.376 1.82602 -0.46785 0
M  V30 2328 C 217.503 3.16289 -1.21157 0
M  V30 2329 C 216.549 3.53964 -2.37932 0
M  V30 2330 S 217.382 3.55501 -4.00474 0
M  V30 2331 C 218.538 4.95292 -3.8267 0
M  V30 2332 H 218.771 1.80153 -2.365 0
M  V30 2333 H 216.304 0.838357 -1.29657 0
M  V30 2334 H 218.262 3.95428 -1.10212 0
M  V30 2335 H 216.923 3.1289 -0.275481 0
M  V30 2336 H 216.116 4.53646 -2.19594 0
M  V30 2337 H 215.718 2.82204 -2.45432 0
M  V30 2338 H 218.01 5.83584 -3.44145 0
M  V30 2339 H 218.953 5.18679 -4.82055 0
M  V30 2340 H 219.361 4.68179 -3.15386 0
M  V30 2341 N 218.759 1.29093 0.90403 0
M  V30 2342 C 219.706 1.13853 2.00764 0
M  V30 2343 C 220.676 0.0330084 1.66067 0
M  V30 2344 O 221.861 0.199733 1.89752 0
M  V30 2345 C 219.001 0.816537 3.35301 0
M  V30 2346 C 218.114 2.00206 3.82807 0
M  V30 2347 C 217.249 1.61983 5.059 0
M  V30 2348 C 216.288 2.77143 5.45764 0
M  V30 2349 N 215.425 2.39346 6.60044 0
M  V30 2350 H 220.265 2.08276 2.13132 0
M  V30 2351 H 217.802 1.03648 1.04381 0
M  V30 2352 H 219.76 0.610557 4.12708 0
M  V30 2353 H 218.39 -0.090779 3.22672 0
M  V30 2354 H 217.442 2.31988 3.01473 0
M  V30 2355 H 218.754 2.86512 4.08304 0
M  V30 2356 H 217.908 1.37649 5.90879 0
M  V30 2357 H 216.647 0.728202 4.82233 0
M  V30 2358 H 215.652 3.02165 4.59322 0
M  V30 2359 H 216.877 3.66964 5.71414 0
M  V30 2360 H 214.823 1.52665 6.37989 0
M  V30 2361 H 214.74 3.19185 6.85315 0
M  V30 2362 H 216.008 2.1832 7.48303 0
M  V30 2363 N 220.237 -1.11381 1.11499 0
M  V30 2364 C 221.147 -2.21019 0.786628 0
M  V30 2365 C 222.163 -1.72597 -0.220507 0
M  V30 2366 O 223.339 -2.01321 -0.0565251 0
M  V30 2367 C 220.404 -3.459 0.235333 0
M  V30 2368 C 219.465 -4.09107 1.30115 0
M  V30 2369 C 218.698 -5.28027 0.776068 0
M  V30 2370 O 218.921 -5.6904 -0.393661 0
M  V30 2371 O 217.855 -5.81835 1.54114 0
M  V30 2372 H 221.681 -2.51521 1.70209 0
M  V30 2373 H 219.266 -1.19928 0.890928 0
M  V30 2374 H 221.148 -4.21346 -0.067715 0
M  V30 2375 H 219.823 -3.17049 -0.652828 0
M  V30 2376 H 218.73 -3.35391 1.65722 0
M  V30 2377 H 220.063 -4.42139 2.16273 0
M  V30 2378 N 221.715 -0.905404 -1.28997 0
M  V30 2379 C 222.645 -0.404212 -2.29975 0
M  V30 2380 C 223.626 0.523784 -1.61835 0
M  V30 2381 O 224.811 0.433298 -1.89304 0
M  V30 2382 C 221.941 0.364042 -3.45387 0
M  V30 2383 C 220.895 -0.474048 -4.25367 0
M  V30 2384 C 220.221 0.422045 -5.33032 0
M  V30 2385 C 221.521 -1.72696 -4.92923 0
M  V30 2386 H 223.215 -1.24807 -2.72146 0
M  V30 2387 H 220.761 -0.601585 -1.30832 0
M  V30 2388 H 222.714 0.725447 -4.15109 0
M  V30 2389 H 221.438 1.24174 -3.02074 0
M  V30 2390 H 220.097 -0.81786 -3.57361 0
M  V30 2391 H 219.745 1.29804 -4.85963 0
M  V30 2392 H 219.445 -0.135057 -5.87445 0
M  V30 2393 H 220.969 0.779517 -6.05604 0
M  V30 2394 H 222.383 -1.43495 -5.55051 0
M  V30 2395 H 220.78 -2.22582 -5.57295 0
M  V30 2396 H 221.85 -2.45964 -4.17887 0
M  V30 2397 N 223.193 1.4272 -0.668489 0
M  V30 2398 C 224.123 2.335 -0.000100175 0
M  V30 2399 C 225.104 1.50328 0.795964 0
M  V30 2400 O 226.289 1.78949 0.754385 0
M  V30 2401 C 223.419 3.33874 0.956302 0
M  V30 2402 C 222.373 4.27152 0.269278 0
M  V30 2403 C 221.699 5.17684 1.33818 0
M  V30 2404 C 222.999 5.15373 -0.847805 0
M  V30 2405 H 224.693 2.89639 -0.758244 0
M  V30 2406 H 222.239 1.39269 -0.366079 0
M  V30 2407 H 224.192 3.9629 1.43292 0
M  V30 2408 H 222.916 2.76025 1.74579 0
M  V30 2409 H 221.575 3.66123 -0.187042 0
M  V30 2410 H 221.223 4.56165 2.1195 0
M  V30 2411 H 220.923 5.80918 0.883659 0
M  V30 2412 H 222.447 5.82974 1.81586 0
M  V30 2413 H 223.861 5.7151 -0.452681 0
M  V30 2414 H 222.258 5.87407 -1.22773 0
M  V30 2415 H 223.328 4.5415 -1.69929 0
M  V30 2416 N 224.671 0.411399 1.52136 0
M  V30 2417 C 225.948 -0.222308 1.94333 0
M  V30 2418 C 226.328 -1.6242 1.34844 0
M  V30 2419 O 225.676 -2.22384 0.525145 0
M  V30 2420 C 225.886 -0.226345 3.48265 0
M  V30 2421 C 227.234 -0.444592 4.22266 0
M  V30 2422 O 228.258 -0.305602 3.54887 0
M  V30 2423 O 227.117 -0.718749 5.41753 0
M  V30 2424 H 224.211 -0.143907 0.814383 0
M  V30 2425 H 226.757 0.467506 1.63133 0
M  V30 2426 H 225.529 0.75475 3.83952 0
M  V30 2427 H 225.152 -0.960163 3.85832 0
M  V30 2428 N 226.149 -1.5696 0.141893 0
M  V30 2429 C 227.096 -2.16501 -0.799737 0
M  V30 2430 C 228.066 -1.09643 -1.24771 0
M  V30 2431 O 229.251 -1.3766 -1.32115 0
M  V30 2432 C 226.391 -2.78679 -2.03549 0
M  V30 2433 C 225.504 -3.99914 -1.6338 0
M  V30 2434 C 224.639 -4.50106 -2.82096 0
M  V30 2435 C 223.678 -5.63819 -2.38275 0
M  V30 2436 N 222.815 -6.08651 -3.49983 0
M  V30 2437 H 227.655 -2.96632 -0.285179 0
M  V30 2438 H 225.192 -1.46533 -0.129053 0
M  V30 2439 H 227.15 -3.1287 -2.75986 0
M  V30 2440 H 225.78 -2.012 -2.52425 0
M  V30 2441 H 224.832 -3.71735 -0.807279 0
M  V30 2442 H 226.144 -4.82311 -1.27192 0
M  V30 2443 H 225.298 -4.86325 -3.62729 0
M  V30 2444 H 224.037 -3.66706 -3.21525 0
M  V30 2445 H 223.042 -5.2718 -1.56081 0
M  V30 2446 H 224.267 -6.49 -1.99938 0
M  V30 2447 H 222.213 -5.28188 -3.89042 0
M  V30 2448 H 222.13 -6.85961 -3.17794 0
M  V30 2449 H 223.398 -6.49515 -4.30988 0
M  V30 2450 N 227.627 0.131896 -1.57047 0
M  V30 2451 C 228.557 1.16384 -2.02428 0
M  V30 2452 C 229.538 1.43936 -0.90644 0
M  V30 2453 O 230.723 1.54599 -1.17528 0
M  V30 2454 C 227.853 2.49328 -2.4177 0
M  V30 2455 C 226.807 2.36266 -3.56879 0
M  V30 2456 C 226.133 3.74057 -3.8208 0
M  V30 2457 C 227.433 1.834 -4.89042 0
M  V30 2458 H 229.127 0.786433 -2.88887 0
M  V30 2459 H 226.673 0.376855 -1.38981 0
M  V30 2460 H 228.626 3.21759 -2.7212 0
M  V30 2461 H 227.35 2.88934 -1.52266 0
M  V30 2462 H 226.009 1.66286 -3.26718 0
M  V30 2463 H 225.657 4.11125 -2.89803 0
M  V30 2464 H 225.357 3.66174 -4.59554 0
M  V30 2465 H 226.881 4.48012 -4.1487 0
M  V30 2466 H 228.295 2.45636 -5.18011 0
M  V30 2467 H 226.692 1.8637 -5.70426 0
M  V30 2468 H 227.762 0.790662 -4.7841 0
M  V30 2469 N 229.106 1.52395 0.401703 0
M  V30 2470 C 230.346 1.68498 1.15705 0
M  V30 2471 C 230.71 0.409748 1.87577 0
M  V30 2472 O 231.911 0.446983 2.65058 0
M  V30 2473 C 230.182 2.87789 2.11924 0
M  V30 2474 S 231.741 3.24415 2.95466 0
M  V30 2475 H 228.559 0.593267 0.391862 0
M  V30 2476 H 231.161 1.90408 0.443282 0
M  V30 2477 H 229.865 3.7884 1.57824 0
M  V30 2478 H 229.396 2.68175 2.87829 0
M  V30 2479 H 231.411 2.73614 4.13944 0
M  V30 2480 N 230.584 -0.659388 1.43143 0
M  V30 2481 C 231.83 -1.41984 1.45644 0
M  V30 2482 C 232.185 -1.92245 0.0771718 0
M  V30 2483 O 231.478 -1.68976 -0.903205 0
M  V30 2484 C 231.672 -2.62206 2.42864 0
M  V30 2485 C 231.501 -2.23711 3.90107 0
M  V30 2486 C 230.271 -2.12332 4.58523 0
M  V30 2487 C 232.469 -1.84384 4.80112 0
M  V30 2488 N 230.451 -1.67102 5.9072 0
M  V30 2489 C 231.822 -1.5019 6.01534 0
M  V30 2490 C 233.877 -1.71512 4.67427 0
M  V30 2491 C 232.58 -1.04414 7.11681 0
M  V30 2492 C 234.606 -1.27142 5.77572 0
M  V30 2493 C 233.968 -0.938808 6.98116 0
M  V30 2494 H 230.067 -0.515448 0.588079 0
M  V30 2495 H 232.651 -0.759409 1.79279 0
M  V30 2496 H 230.822 -3.25917 2.11265 0
M  V30 2497 H 232.554 -3.28877 2.35843 0
M  V30 2498 H 229.309 -2.31893 4.12944 0
M  V30 2499 H 229.733 -1.46866 6.60878 0
M  V30 2500 H 234.375 -1.95868 3.74694 0
M  V30 2501 H 232.093 -0.788061 8.04248 0
M  V30 2502 H 235.679 -1.17681 5.69774 0
M  V30 2503 H 234.559 -0.6007 7.81896 0
M  V30 2504 N 232.062 -1.29571 -0.897171 0
M  V30 2505 C 233.29 -1.20583 -1.68129 0
M  V30 2506 C 233.705 0.233181 -1.87354 0
M  V30 2507 O 233.062 1.15579 -1.41236 0
M  V30 2508 C 233.113 -1.91772 -3.06441 0
M  V30 2509 O 232.834 -3.30053 -2.88091 0
M  V30 2510 C 234.335 -1.89291 -4.00854 0
M  V30 2511 H 231.555 -0.417826 -0.525036 0
M  V30 2512 H 234.099 -1.70987 -1.12177 0
M  V30 2513 H 232.254 -1.45196 -3.59161 0
M  V30 2514 H 232.668 -3.65942 -3.75748 0
M  V30 2515 H 234.142 -2.43662 -4.95311 0
M  V30 2516 H 234.619 -0.869014 -4.30517 0
M  V30 2517 H 235.225 -2.35622 -3.54066 0
M  V30 2518 N 233.54 1.10788 -1.12088 0
M  V30 2519 C 234.45 2.20599 -0.798338 0
M  V30 2520 C 235.466 1.72712 0.21135 0
M  V30 2521 O 236.642 2.01348 0.0458477 0
M  V30 2522 C 233.707 3.45771 -0.253674 0
M  V30 2523 C 232.768 4.08411 -1.32283 0
M  V30 2524 C 232.001 5.27608 -0.80406 0
M  V30 2525 O 232.224 5.69241 0.363478 0
M  V30 2526 O 231.158 5.8101 -1.57198 0
M  V30 2527 H 234.984 2.50614 -1.7154 0
M  V30 2528 H 232.569 1.19454 -0.897275 0
M  V30 2529 H 234.451 4.21376 0.0453691 0
M  V30 2530 H 233.126 3.1739 0.636005 0
M  V30 2531 H 232.033 3.34507 -1.67499 0
M  V30 2532 H 233.366 4.40986 -2.18614 0
M  V30 2533 N 235.018 0.912232 1.28515 0
M  V30 2534 C 236.243 0.559774 1.99703 0
M  V30 2535 C 236.668 -0.851393 1.67729 0
M  V30 2536 O 236.026 -1.56875 0.908834 0
M  V30 2537 C 236.074 0.773874 3.52198 0
M  V30 2538 O 235.178 -0.167842 4.12058 0
M  V30 2539 H 234.519 0.21723 0.627461 0
M  V30 2540 H 237.049 1.22725 1.63706 0
M  V30 2541 H 237.059 0.683386 4.02236 0
M  V30 2542 H 235.734 1.80261 3.74805 0
M  V30 2543 H 234.311 -0.0287509 3.72889 0
M  V30 2544 N 236.496 -1.42363 0.676048 0
M  V30 2545 C 237.459 -2.29199 0.00766941 0
M  V30 2546 C 238.459 -1.43389 -0.727745 0
M  V30 2547 O 239.649 -1.64764 -0.56556 0
M  V30 2548 C 236.781 -3.2591 -0.999785 0
M  V30 2549 H 237.974 -2.89794 0.771988 0
M  V30 2550 H 235.527 -1.50024 0.438468 0
M  V30 2551 H 236.262 -2.70256 -1.79255 0
M  V30 2552 H 236.047 -3.89202 -0.475829 0
M  V30 2553 H 237.537 -3.91028 -1.46583 0
M  V30 2554 N 237.974 -0.419461 -1.51915 0
M  V30 2555 C 238.921 0.400927 -2.27291 0
M  V30 2556 C 239.891 1.03224 -1.30131 0
M  V30 2557 O 241.076 1.05455 -1.59009 0
M  V30 2558 C 238.216 1.50603 -3.10504 0
M  V30 2559 C 237.329 0.89462 -4.22635 0
M  V30 2560 C 236.464 1.97328 -4.93189 0
M  V30 2561 C 235.503 1.33935 -5.97267 0
M  V30 2562 N 234.64 2.3586 -6.61298 0
M  V30 2563 H 239.48 -0.248251 -2.96964 0
M  V30 2564 H 237.017 -0.134266 -1.46486 0
M  V30 2565 H 238.975 2.15783 -3.57062 0
M  V30 2566 H 237.605 2.12509 -2.42981 0
M  V30 2567 H 236.657 0.131583 -3.80172 0
M  V30 2568 H 237.969 0.391641 -4.9726 0
M  V30 2569 H 237.123 2.70211 -5.43204 0
M  V30 2570 H 235.862 2.50994 -4.18155 0
M  V30 2571 H 234.867 0.595896 -5.46561 0
M  V30 2572 H 236.092 0.810252 -6.74249 0
M  V30 2573 H 234.038 2.88639 -5.89087 0
M  V30 2574 H 233.955 1.90403 -7.3163 0
M  V30 2575 H 235.223 3.08282 -7.15949 0
M  V30 2576 N 239.452 1.56882 -0.150215 0
M  V30 2577 C 240.384 2.14057 0.819286 0
M  V30 2578 C 241.397 1.09082 1.20851 0
M  V30 2579 O 242.586 1.36347 1.15203 0
M  V30 2580 C 239.686 2.65102 2.11127 0
M  V30 2581 C 238.859 3.94511 1.88891 0
M  V30 2582 C 237.918 4.30834 3.02107 0
M  V30 2583 O 236.944 4.99099 2.73659 0
M  V30 2584 N 238.146 3.90676 4.29363 0
M  V30 2585 H 240.911 2.97871 0.330618 0
M  V30 2586 H 238.472 1.61866 0.0332538 0
M  V30 2587 H 240.464 2.86411 2.85921 0
M  V30 2588 H 239.034 1.85994 2.51247 0
M  V30 2589 H 238.254 3.81795 0.981152 0
M  V30 2590 H 239.542 4.7907 1.71376 0
M  V30 2591 H 238.94 3.35677 4.55343 0
M  V30 2592 H 237.497 4.1703 5.00928 0
M  V30 2593 N 240.93 -0.123565 1.57115 0
M  V30 2594 C 241.86 -1.15309 2.03042 0
M  V30 2595 C 242.841 -1.43454 0.914061 0
M  V30 2596 O 244.026 -1.53973 1.18347 0
M  V30 2597 C 241.156 -2.48043 2.43089 0
M  V30 2598 C 240.11 -2.3437 3.58127 0
M  V30 2599 C 239.436 -3.72026 3.84059 0
M  V30 2600 C 240.736 -1.80804 4.90007 0
M  V30 2601 H 242.43 -0.771102 2.893 0
M  V30 2602 H 239.976 -0.369479 1.39179 0
M  V30 2603 H 241.929 -3.20311 2.73823 0
M  V30 2604 H 240.653 -2.88122 1.53796 0
M  V30 2605 H 239.312 -1.64551 3.27595 0
M  V30 2606 H 238.96 -4.09582 2.91979 0
M  V30 2607 H 238.66 -3.63732 4.6149 0
M  V30 2608 H 240.184 -4.45806 4.1724 0
M  V30 2609 H 241.598 -2.42886 5.19307 0
M  V30 2610 H 239.995 -1.83343 5.71407 0
M  V30 2611 H 241.065 -0.76528 4.78823 0
M  V30 2612 N 242.408 -1.52605 -0.393616 0
M  V30 2613 C 243.371 -1.76415 -1.46323 0
M  V30 2614 C 244.371 -0.634126 -1.47768 0
M  V30 2615 O 245.561 -0.902142 -1.4902 0
M  V30 2616 C 242.693 -1.8607 -2.85641 0
M  V30 2617 H 243.886 -2.71916 -1.26498 0
M  V30 2618 H 241.439 -1.43257 -0.625073 0
M  V30 2619 H 242.174 -0.925378 -3.10817 0
M  V30 2620 H 241.959 -2.68235 -2.85993 0
M  V30 2621 H 243.449 -2.06179 -3.63153 0
M  V30 2622 N 243.887 0.651787 -1.4349 0
M  V30 2623 C 245.115 1.43937 -1.48626 0
M  V30 2624 C 245.53 1.8851 -0.104587 0
M  V30 2625 O 244.887 1.5958 0.885464 0
M  V30 2626 C 244.938 2.6734 -2.43334 0
M  V30 2627 O 244.659 2.24631 -3.76128 0
M  V30 2628 C 246.16 3.60683 -2.57726 0
M  V30 2629 H 243.38 0.44213 -0.504739 0
M  V30 2630 H 245.924 0.798944 -1.88248 0
M  V30 2631 H 244.079 3.2752 -2.06904 0
M  V30 2632 H 244.493 3.04485 -4.2707 0
M  V30 2633 H 245.967 4.43933 -3.28067 0
M  V30 2634 H 246.444 4.08126 -1.62265 0
M  V30 2635 H 247.05 3.06384 -2.94973 0
M  V30 2636 N 245.365 1.30045 0.890287 0
M  V30 2637 C 246.295 1.18541 2.01172 0
M  V30 2638 C 247.276 0.0773356 1.69924 0
M  V30 2639 O 248.461 0.25845 1.92473 0
M  V30 2640 C 245.591 0.870941 3.36202 0
M  V30 2641 C 244.545 1.93637 3.81692 0
M  V30 2642 C 243.871 1.475 5.13953 0
M  V30 2643 C 245.171 3.34666 4.00994 0
M  V30 2644 H 246.865 2.12359 2.11054 0
M  V30 2645 H 244.411 1.02238 1.01407 0
M  V30 2646 H 246.364 0.777141 4.14172 0
M  V30 2647 H 245.088 -0.102926 3.26438 0
M  V30 2648 H 243.747 2.01972 3.05946 0
M  V30 2649 H 243.395 0.489551 5.00612 0
M  V30 2650 H 243.095 2.1876 5.4536 0
M  V30 2651 H 244.619 1.39489 5.94454 0
M  V30 2652 H 246.033 3.2912 4.69417 0
M  V30 2653 H 244.43 4.03966 4.43769 0
M  V30 2654 H 245.5 3.76949 3.05021 0
M  V30 2655 N 246.843 -1.10192 1.12674 0
M  V30 2656 C 248.09 -1.82205 0.883606 0
M  V30 2657 C 248.418 -1.8532 -0.590492 0
M  V30 2658 O 247.673 -1.31137 -1.45264 0
M  V30 2659 C 247.972 -3.28552 1.4067 0
M  V30 2660 C 247.638 -3.45582 2.89627 0
M  V30 2661 C 246.3 -3.49937 3.30299 0
M  V30 2662 C 248.652 -3.50768 3.85501 0
M  V30 2663 C 245.98 -3.57049 4.65546 0
M  V30 2664 C 248.332 -3.59414 5.20581 0
M  V30 2665 C 246.996 -3.62034 5.60792 0
M  V30 2666 H 246.266 -0.666735 0.323334 0
M  V30 2667 H 248.913 -1.29868 1.40736 0
M  V30 2668 H 247.218 -3.83473 0.80347 0
M  V30 2669 H 248.915 -3.82788 1.19475 0
M  V30 2670 H 245.505 -3.42871 2.57172 0
M  V30 2671 H 249.689 -3.46651 3.55171 0
M  V30 2672 H 244.945 -3.57361 4.96088 0
M  V30 2673 H 249.119 -3.62371 5.94693 0
M  V30 2674 H 246.746 -3.67298 6.6558 0
M  V30 2675 N 248.321 -0.919034 -1.28029 0
M  V30 2676 C 249.567 -0.555757 -1.95036 0
M  V30 2677 C 249.9 0.899198 -1.72128 0
M  V30 2678 O 249.175 1.64023 -1.04531 0
M  V30 2679 C 249.458 -0.872024 -3.49382 0
M  V30 2680 C 249.311 -2.3801 -3.81669 0
M  V30 2681 C 250.63 -0.37185 -4.38526 0
M  V30 2682 H 247.749 -0.203386 -0.708381 0
M  V30 2683 H 250.391 -1.14924 -1.51303 0
M  V30 2684 H 248.541 -0.366946 -3.86763 0
M  V30 2685 H 250.213 -2.9562 -3.54128 0
M  V30 2686 H 248.456 -2.83289 -3.28526 0
M  V30 2687 H 249.127 -2.55192 -4.8947 0
M  V30 2688 H 251.603 -0.804602 -4.08247 0
M  V30 2689 H 250.479 -0.622173 -5.45362 0
M  V30 2690 H 250.74 0.727934 -4.36066 0
M  V30 2691 N 249.799 1.42003 -0.683588 0
M  V30 2692 C 250.747 2.326 0.000815408 0
M  V30 2693 C 251.741 1.50308 0.781278 0
M  V30 2694 O 252.947 1.66322 0.688251 0
M  V30 2695 H 249.322 0.751758 0.0190616 0
M  V30 2696 H 251.293 2.88011 -0.780528 0
M  V30 2697 C 250.042 3.34978 0.93195 0
M  V30 2698 H 249.365 3.98345 0.340817 0
M  V30 2699 H 250.805 4.00936 1.37936 0
M  V30 2700 C 249.264 2.67925 2.04249 0
M  V30 2701 O 249.794 2.51788 3.12995 0
M  V30 2702 N 248 2.2681 1.81675 0
M  V30 2703 H 247.547 2.40135 0.932363 0
M  V30 2704 H 247.505 1.8228 2.56167 0
M  V30 2705 N 251.277 0.427512 1.51691 0
M  V30 2706 C 252.207 -0.3796 2.30394 0
M  V30 2707 C 253.188 -1.02982 1.35384 0
M  V30 2708 O 254.373 -1.03534 1.643 0
M  V30 2709 C 251.503 -1.48649 3.1388 0
M  V30 2710 C 250.457 -0.960294 4.17088 0
M  V30 2711 C 249.783 -2.16219 4.89033 0
M  V30 2712 C 251.083 -0.00153679 5.223 0
M  V30 2713 H 252.777 0.277164 2.98114 0
M  V30 2714 H 250.323 0.134739 1.43368 0
M  V30 2715 H 252.276 -2.05826 3.67714 0
M  V30 2716 H 251 -2.1714 2.43962 0
M  V30 2717 H 249.659 -0.410806 3.64291 0
M  V30 2718 H 249.307 -2.83307 4.15628 0
M  V30 2719 H 249.007 -1.81654 5.58816 0
M  V30 2720 H 250.531 -2.73968 5.45687 0
M  V30 2721 H 251.945 -0.482687 5.71264 0
M  V30 2722 H 250.342 0.256199 5.99553 0
M  V30 2723 H 251.412 0.938174 4.75738 0
M  V30 2724 N 252.755 -1.56801 0.158532 0
M  V30 2725 C 253.995 -1.98383 -0.49229 0
M  V30 2726 C 254.359 -1.04184 -1.61275 0
M  V30 2727 O 255.56 -1.34856 -2.32524 0
M  V30 2728 C 253.831 -3.4385 -0.974766 0
M  V30 2729 S 255.39 -4.07459 -1.62857 0
M  V30 2730 H 252.208 -0.693041 -0.158794 0
M  V30 2731 H 254.81 -1.93856 0.252974 0
M  V30 2732 H 253.514 -4.10131 -0.148688 0
M  V30 2733 H 253.045 -3.52115 -1.75438 0
M  V30 2734 H 255.06 -4.01458 -2.91627 0
M  V30 2735 N 254.233 0.115231 -1.57178 0
M  V30 2736 C 255.479 0.82357 -1.85325 0
M  V30 2737 C 255.812 1.79349 -0.744814 0
M  V30 2738 O 255.087 1.92899 0.249024 0
M  V30 2739 C 255.37 1.57014 -3.24066 0
M  V30 2740 C 255.223 0.619565 -4.45513 0
M  V30 2741 C 256.542 2.52545 -3.60429 0
M  V30 2742 H 253.661 0.297948 -0.674089 0
M  V30 2743 H 256.303 0.0877138 -1.89797 0
M  V30 2744 H 254.453 2.19742 -3.20383 0
M  V30 2745 H 256.125 0.000837639 -4.613 0
M  V30 2746 H 254.368 -0.0686174 -4.33746 0
M  V30 2747 H 255.039 1.17866 -5.3927 0
M  V30 2748 H 257.515 1.9992 -3.64926 0
M  V30 2749 H 256.391 3.01811 -4.58477 0
M  V30 2750 H 256.652 3.35383 -2.88047 0
M  V30 2751 N 255.711 1.52812 0.385517 0
M  V30 2752 C 256.939 1.71907 1.15133 0
M  V30 2753 C 257.354 0.439004 1.83625 0
M  V30 2754 O 256.711 -0.586765 1.7281 0
M  V30 2755 C 256.762 2.87099 2.19673 0
M  V30 2756 O 256.483 4.10151 1.53973 0
M  V30 2757 C 257.984 3.17902 3.08955 0
M  V30 2758 H 255.204 0.575479 0.345057 0
M  V30 2759 H 257.748 1.99476 0.45052 0
M  V30 2760 H 255.903 2.61982 2.85384 0
M  V30 2761 H 256.317 4.74514 2.23465 0
M  V30 2762 H 257.791 4.01959 3.7833 0
M  V30 2763 H 258.268 2.3243 3.72657 0
M  V30 2764 H 258.874 3.44871 2.48885 0
M  V30 2765 N 257.189 -0.644168 1.43834 0
M  V30 2766 C 258.152 -1.73857 1.49353 0
M  V30 2767 C 259.152 -1.56315 0.377112 0
M  V30 2768 O 260.342 -1.62048 0.639226 0
M  V30 2769 C 257.474 -3.12819 1.35488 0
M  V30 2770 H 258.667 -1.70342 2.46827 0
M  V30 2771 H 256.22 -0.856652 1.30733 0
M  V30 2772 H 256.955 -3.2194 0.390569 0
M  V30 2773 H 256.74 -3.26958 2.16428 0
M  V30 2774 H 258.23 -3.92606 1.42302 0
M  V30 2775 N 258.668 -1.30515 -0.883378 0
M  V30 2776 C 259.578 -1.18959 -2.02203 0
M  V30 2777 C 260.594 -0.109172 -1.73657 0
M  V30 2778 O 261.77 -0.324413 -1.9877 0
M  V30 2779 C 258.835 -0.883871 -3.35244 0
M  V30 2780 C 257.896 -2.04982 -3.77201 0
M  V30 2781 C 257.129 -1.75859 -5.03894 0
M  V30 2782 O 257.352 -0.687276 -5.66244 0
M  V30 2783 O 256.286 -2.61146 -5.42297 0
M  V30 2784 H 260.112 -2.14616 -2.1488 0
M  V30 2785 H 257.697 -1.10124 -1.0096 0
M  V30 2786 H 259.579 -0.728644 -4.15053 0
M  V30 2787 H 258.254 0.0427798 -3.23672 0
M  V30 2788 H 257.161 -2.26038 -2.9809 0
M  V30 2789 H 258.494 -2.95825 -3.93381 0
M  V30 2790 N 260.146 1.09593 -1.13257 0
M  V30 2791 C 261.374 1.855 -0.916378 0
M  V30 2792 C 261.789 1.81069 0.534738 0
M  V30 2793 O 261.146 1.20562 1.37007 0
M  V30 2794 C 261.197 3.33546 -1.39388 0
M  V30 2795 O 260.918 3.37927 -2.78813 0
M  V30 2796 C 262.419 4.26299 -1.21588 0
M  V30 2797 H 259.639 0.585991 -0.326887 0
M  V30 2798 H 262.183 1.38488 -1.5047 0
M  V30 2799 H 260.338 3.77992 -0.848597 0
M  V30 2800 H 260.752 4.30254 -2.9997 0
M  V30 2801 H 262.226 5.28341 -1.59876 0
M  V30 2802 H 262.703 4.38918 -0.157376 0
M  V30 2803 H 263.309 3.87668 -1.7491 0
M  V30 2804 N 261.624 0.925811 1.2754 0
M  V30 2805 C 262.574 0.394488 2.24561 0
M  V30 2806 C 263.558 -0.500183 1.52928 0
M  V30 2807 O 264.75 -0.337936 1.73744 0
M  V30 2808 C 261.879 -0.353328 3.41477 0
M  V30 2809 C 260.965 0.557752 4.20416 0
M  V30 2810 N 261.356 1.67674 4.77199 0
M  V30 2811 C 259.654 0.360404 4.44541 0
M  V30 2812 C 260.355 2.24324 5.36706 0
M  V30 2813 N 259.331 1.53305 5.21535 0
M  V30 2814 H 263.133 1.2489 2.66045 0
M  V30 2815 H 260.647 0.779864 1.4245 0
M  V30 2816 H 262.644 -0.7509 4.10082 0
M  V30 2817 H 261.304 -1.20469 3.01525 0
M  V30 2818 H 262.315 2.05915 4.75204 0
M  V30 2819 H 258.992 -0.450454 4.15063 0
M  V30 2820 H 260.382 3.18521 5.91603 0
M  V30 2821 N 263.102 -1.41638 0.69111 0
M  V30 2822 C 264.012 -2.34588 0.0233487 0
M  V30 2823 C 265.028 -1.55987 -0.770984 0
M  V30 2824 O 266.204 -1.88486 -0.709569 0
M  V30 2825 C 263.269 -3.34684 -0.904851 0
M  V30 2826 C 262.33 -4.29176 -0.103225 0
M  V30 2827 C 261.563 -5.2449 -0.987216 0
M  V30 2828 O 261.786 -5.2514 -2.22674 0
M  V30 2829 O 260.72 -6.00295 -0.439281 0
M  V30 2830 H 264.546 -2.93261 0.789416 0
M  V30 2831 H 262.131 -1.42417 0.45142 0
M  V30 2832 H 264.013 -3.96133 -1.43724 0
M  V30 2833 H 262.688 -2.78461 -1.65049 0
M  V30 2834 H 261.595 -3.71089 0.473655 0
M  V30 2835 H 262.928 -4.88484 0.60365 0
M  V30 2836 N 264.58 -0.43555 -1.51462 0
M  V30 2837 C 265.826 0.131709 -2.02372 0
M  V30 2838 C 266.159 1.42516 -1.3192 0
M  V30 2839 O 265.434 1.89606 -0.433573 0
M  V30 2840 C 265.717 0.352301 -3.58373 0
M  V30 2841 C 265.57 -0.959676 -4.39443 0
M  V30 2842 C 266.889 1.12286 -4.25535 0
M  V30 2843 H 264.008 0.0463936 -0.735538 0
M  V30 2844 H 266.65 -0.574197 -1.81116 0
M  V30 2845 H 264.8 0.9536 -3.76615 0
M  V30 2846 H 266.472 -1.59482 -4.32855 0
M  V30 2847 H 264.715 -1.56468 -4.04599 0
M  V30 2848 H 265.386 -0.759394 -5.46752 0
M  V30 2849 H 267.862 0.613545 -4.11552 0
M  V30 2850 H 266.738 1.24598 -5.34571 0
M  V30 2851 H 266.999 2.15048 -3.86273 0
M  V30 2852 N 266.058 1.56714 -0.166846 0
M  V30 2853 C 267.283 2.01557 0.488833 0
M  V30 2854 C 267.708 1.0463 1.56314 0
M  V30 2855 O 267.066 0.0251304 1.81283 0
M  V30 2856 C 267.114 3.4503 1.04818 0
M  V30 2857 O 266.218 3.51163 2.16236 0
M  V30 2858 H 265.559 0.653516 0.117526 0
M  V30 2859 H 268.089 2.02818 -0.269421 0
M  V30 2860 H 268.099 3.84243 1.37191 0
M  V30 2861 H 266.774 4.15077 0.261572 0
M  V30 2862 H 265.351 3.23807 1.84942 0
M  V30 2863 N 267.536 -0.106894 1.57237 0
M  V30 2864 C 268.499 -1.11466 2.0027 0
M  V30 2865 C 269.499 -1.33623 0.894519 0
M  V30 2866 O 270.689 -1.29935 1.16028 0
M  V30 2867 C 267.821 -2.46646 2.35327 0
M  V30 2868 H 269.014 -0.744516 2.90512 0
M  V30 2869 H 266.567 -0.351576 1.52295 0
M  V30 2870 H 267.302 -2.88558 1.48003 0
M  V30 2871 H 267.087 -2.31915 3.16161 0
M  V30 2872 H 268.577 -3.19151 2.69318 0
M  V30 2873 N 269.014 -1.53014 -0.377408 0
M  V30 2874 C 269.944 -1.81589 -1.46791 0
M  V30 2875 C 270.925 -0.668622 -1.56408 0
M  V30 2876 O 272.11 -0.917337 -1.71168 0
M  V30 2877 C 269.24 -1.99519 -2.8427 0
M  V30 2878 C 268.194 -3.15249 -2.89486 0
M  V30 2879 C 267.52 -3.18451 -4.29527 0
M  V30 2880 C 268.82 -4.54084 -2.58079 0
M  V30 2881 H 270.514 -2.7291 -1.23127 0
M  V30 2882 H 268.06 -1.31319 -0.590883 0
M  V30 2883 H 270.013 -2.18092 -3.60575 0
M  V30 2884 H 268.737 -1.04897 -3.09296 0
M  V30 2885 H 267.396 -2.96477 -2.15631 0
M  V30 2886 H 267.044 -2.2149 -4.5161 0
M  V30 2887 H 266.744 -3.962 -4.33934 0
M  V30 2888 H 268.268 -3.39193 -5.07721 0
M  V30 2889 H 269.682 -4.72899 -3.24098 0
M  V30 2890 H 268.079 -5.33987 -2.7382 0
M  V30 2891 H 269.149 -4.60006 -1.53372 0
M  V30 2892 N 270.492 0.636531 -1.44174 0
M  V30 2893 C 271.738 1.39649 -1.47884 0
M  V30 2894 C 272.093 1.92098 -0.107747 0
M  V30 2895 O 271.386 1.70391 0.876208 0
M  V30 2896 C 271.58 2.58309 -2.47005 0
M  V30 2897 C 271.409 2.17476 -3.93617 0
M  V30 2898 C 270.179 2.0501 -4.61843 0
M  V30 2899 C 272.377 1.76722 -4.82984 0
M  V30 2900 N 270.359 1.57683 -5.93304 0
M  V30 2901 C 271.73 1.40601 -6.03847 0
M  V30 2902 C 273.785 1.64054 -4.70096 0
M  V30 2903 C 272.488 0.930787 -7.13252 0
M  V30 2904 C 274.514 1.17937 -5.79521 0
M  V30 2905 C 273.876 0.827625 -6.99521 0
M  V30 2906 H 269.975 0.506027 -0.596205 0
M  V30 2907 H 272.559 0.730791 -1.80465 0
M  V30 2908 H 270.73 3.22514 -2.16423 0
M  V30 2909 H 272.462 3.25083 -2.41045 0
M  V30 2910 H 269.217 2.25294 -4.16581 0
M  V30 2911 H 269.641 1.36334 -6.63131 0
M  V30 2912 H 274.283 1.89882 -3.77762 0
M  V30 2913 H 272.001 0.660012 -8.054 0
M  V30 2914 H 275.587 1.08601 -5.71574 0
M  V30 2915 H 274.467 0.476231 -7.82753 0
M  V30 2916 N 271.97 1.30982 0.876444 0
M  V30 2917 C 273.217 1.20296 1.62896 0
M  V30 2918 C 273.545 -0.240395 1.93009 0
M  V30 2919 O 272.8 -1.18733 1.55567 0
M  V30 2920 C 273.099 1.98572 2.9716 0
M  V30 2921 C 272.765 3.48125 2.86566 0
M  V30 2922 C 271.427 3.88905 2.83383 0
M  V30 2923 C 273.779 4.43322 2.74071 0
M  V30 2924 C 271.107 5.2316 2.65556 0
M  V30 2925 C 273.459 5.77695 2.57781 0
M  V30 2926 C 272.123 6.17704 2.52979 0
M  V30 2927 H 271.393 0.440193 0.59608 0
M  V30 2928 H 274.04 1.62177 1.01837 0
M  V30 2929 H 272.345 1.49352 3.62217 0
M  V30 2930 H 274.042 1.8769 3.54364 0
M  V30 2931 H 270.632 3.15723 2.89856 0
M  V30 2932 H 274.816 4.12752 2.75589 0
M  V30 2933 H 270.072 5.53241 2.60259 0
M  V30 2934 H 274.246 6.51091 2.47089 0
M  V30 2935 H 271.873 7.21678 2.38924 0
M  V30 2936 N 273.449 -1.08991 1.13837 0
M  V30 2937 C 274.379 -2.17771 0.842507 0
M  V30 2938 C 275.36 -1.6892 -0.20001 0
M  V30 2939 O 276.545 -1.94113 -0.0579731 0
M  V30 2940 C 273.675 -3.4589 0.312644 0
M  V30 2941 C 272.629 -4.08099 1.28992 0
M  V30 2942 C 271.955 -5.31098 0.619623 0
M  V30 2943 C 273.255 -4.50077 2.65005 0
M  V30 2944 H 274.949 -2.42777 1.75213 0
M  V30 2945 H 272.495 -1.16682 0.843875 0
M  V30 2946 H 274.448 -4.21297 0.0933043 0
M  V30 2947 H 273.172 -3.20419 -0.632382 0
M  V30 2948 H 271.831 -3.34717 1.49533 0
M  V30 2949 H 271.479 -5.0191 -0.33102 0
M  V30 2950 H 271.179 -5.73674 1.27167 0
M  V30 2951 H 272.703 -6.09224 0.409669 0
M  V30 2952 H 274.117 -5.16688 2.48407 0
M  V30 2953 H 272.514 -5.03553 3.26427 0
M  V30 2954 H 273.584 -3.62257 3.22332 0
M  V30 2955 N 274.927 -0.932562 -1.27047 0
M  V30 2956 C 276.173 -0.585913 -1.94778 0
M  V30 2957 C 276.528 0.864142 -1.71902 0
M  V30 2958 O 275.821 1.60894 -1.04037 0
M  V30 2959 C 276.015 -0.853713 -3.47054 0
M  V30 2960 C 275.844 -2.32825 -3.84737 0
M  V30 2961 C 274.614 -2.98184 -4.07939 0
M  V30 2962 C 276.812 -3.30612 -3.93954 0
M  V30 2963 N 274.794 -4.3574 -4.3244 0
M  V30 2964 C 276.165 -4.53395 -4.22887 0
M  V30 2965 C 278.22 -3.25755 -3.76548 0
M  V30 2966 C 276.923 -5.71927 -4.36224 0
M  V30 2967 C 278.949 -4.43604 -3.91113 0
M  V30 2968 C 278.311 -5.65166 -4.20437 0
M  V30 2969 H 274.41 -0.264617 -0.735868 0
M  V30 2970 H 276.994 -1.20019 -1.53309 0
M  V30 2971 H 275.165 -0.268557 -3.8747 0
M  V30 2972 H 276.897 -0.469202 -4.01971 0
M  V30 2973 H 273.652 -2.48835 -4.02961 0
M  V30 2974 H 274.076 -5.06915 -4.48738 0
M  V30 2975 H 278.718 -2.32835 -3.52913 0
M  V30 2976 H 276.436 -6.65308 -4.58683 0
M  V30 2977 H 280.022 -4.41368 -3.79059 0
M  V30 2978 H 278.902 -6.54836 -4.31462 0
M  V30 2979 N 276.405 1.4127 -0.698611 0
M  V30 2980 C 277.635 2.05205 -0.239644 0
M  V30 2981 C 278.043 1.52684 1.11733 0
M  V30 2982 O 277.386 0.671222 1.70998 0
M  V30 2983 C 277.448 3.59289 -0.123126 0
M  V30 2984 C 277.112 4.34619 -1.41263 0
M  V30 2985 C 278.109 4.63701 -2.35111 0
M  V30 2986 C 275.794 4.73837 -1.66684 0
M  V30 2987 C 277.788 5.30966 -3.52639 0
M  V30 2988 C 275.475 5.40837 -2.84498 0
M  V30 2989 C 276.473 5.69329 -3.77298 0
M  V30 2990 O 276.161 6.34949 -4.93047 0
M  V30 2991 H 275.893 0.66723 -0.108537 0
M  V30 2992 H 278.447 1.81974 -0.952602 0
M  V30 2993 H 276.677 3.81272 0.645628 0
M  V30 2994 H 278.366 4.04797 0.299056 0
M  V30 2995 H 279.132 4.33882 -2.16729 0
M  V30 2996 H 275.011 4.51039 -0.953135 0
M  V30 2997 H 278.555 5.53121 -4.25091 0
M  V30 2998 H 274.452 5.70075 -3.02795 0
M  V30 2999 H 275.22 6.53445 -4.92902 0
M  V30 3000 N 277.883 0.443576 1.51229 0
M  V30 3001 C 279.129 -0.120975 2.02439 0
M  V30 3002 C 279.462 -1.41815 1.32674 0
M  V30 3003 O 278.737 -1.89373 0.443622 0
M  V30 3004 C 279.02 -0.333291 3.58554 0
M  V30 3005 C 278.873 0.982968 4.38928 0
M  V30 3006 C 280.192 -1.10028 4.26124 0
M  V30 3007 H 277.311 -0.0424923 0.735774 0
M  V30 3008 H 279.953 0.583794 1.80809 0
M  V30 3009 H 278.103 -0.933614 3.77115 0
M  V30 3010 H 279.775 1.61775 4.32003 0
M  V30 3011 H 278.018 1.58611 4.03763 0
M  V30 3012 H 278.689 0.788379 5.46341 0
M  V30 3013 H 281.165 -0.591711 4.11871 0
M  V30 3014 H 280.041 -1.21761 5.35225 0
M  V30 3015 H 280.302 -2.12996 3.87408 0
M  V30 3016 N 279.361 -1.56624 0.175154 0
M  V30 3017 C 280.308 -2.18149 -0.753634 0
M  V30 3018 C 281.278 -1.12265 -1.22417 0
M  V30 3019 O 282.463 -1.40432 -1.29165 0
M  V30 3020 C 279.603 -2.82933 -1.97592 0
M  V30 3021 C 278.716 -4.03289 -1.5486 0
M  V30 3022 C 277.851 -4.55988 -2.72485 0
M  V30 3023 C 276.89 -5.68746 -2.26262 0
M  V30 3024 N 276.027 -6.15938 -3.36994 0
M  V30 3025 H 280.867 -2.9717 -0.222195 0
M  V30 3026 H 278.404 -1.46774 -0.0979422 0
M  V30 3027 H 280.362 -3.18653 -2.69288 0
M  V30 3028 H 278.992 -2.06509 -2.481 0
M  V30 3029 H 278.044 -3.73364 -0.728246 0
M  V30 3030 H 279.356 -4.849 -1.16933 0
M  V30 3031 H 278.51 -4.9391 -3.52332 0
M  V30 3032 H 277.249 -3.73443 -3.13674 0
M  V30 3033 H 276.254 -5.30372 -1.44863 0
M  V30 3034 H 277.479 -6.53095 -1.86127 0
M  V30 3035 H 275.425 -5.36321 -3.77751 0
M  V30 3036 H 275.342 -6.92548 -3.03172 0
M  V30 3037 H 276.61 -6.58511 -4.17114 0
M  V30 3038 N 280.839 0.0985539 -1.57292 0
M  V30 3039 C 281.771 1.14595 -1.98496 0
M  V30 3040 C 282.784 1.36512 -0.887031 0
M  V30 3041 O 283.973 1.35225 -1.16518 0
M  V30 3042 C 281.073 2.50216 -2.28572 0
M  V30 3043 C 280.246 2.48624 -3.59868 0
M  V30 3044 C 279.305 3.66146 -3.7792 0
M  V30 3045 O 278.331 3.48795 -4.49812 0
M  V30 3046 N 279.533 4.85496 -3.18235 0
M  V30 3047 H 282.298 0.795277 -2.88956 0
M  V30 3048 H 279.859 0.287579 -1.59325 0
M  V30 3049 H 281.851 3.27432 -2.37845 0
M  V30 3050 H 280.421 2.77387 -1.44136 0
M  V30 3051 H 279.641 1.56978 -3.61596 0
M  V30 3052 H 280.929 2.44635 -4.46129 0
M  V30 3053 H 280.327 5.02497 -2.59833 0
M  V30 3054 H 278.884 5.60317 -3.32999 0
M  V30 3055 N 282.317 1.53212 0.369288 0
M  V30 3056 C 283.557 1.70915 1.12105 0
M  V30 3057 C 283.921 0.449444 1.86665 0
M  V30 3058 O 285.122 0.503105 2.6405 0
M  V30 3059 C 283.393 2.9222 2.05772 0
M  V30 3060 S 284.952 3.30609 2.88519 0
M  V30 3061 H 281.77 0.601445 0.379189 0
M  V30 3062 H 284.372 1.91306 0.402794 0
M  V30 3063 H 283.076 3.82103 1.49752 0
M  V30 3064 H 282.607 2.7422 2.82076 0
M  V30 3065 H 284.622 2.82333 4.08047 0
M  V30 3066 N 283.795 -0.628877 1.44509 0
M  V30 3067 C 285.043 -1.38565 1.4712 0
M  V30 3068 C 285.364 -1.94712 0.105899 0
M  V30 3069 O 284.634 -1.75912 -0.862079 0
M  V30 3070 H 283.214 -0.514333 0.541729 0
M  V30 3071 H 285.876 -0.740018 1.80305 0
M  V30 3072 H 284.972 -2.21583 2.19789 0
M  V30 3073 N 285.273 -1.31445 -0.869486 0
M  V30 3074 C 286.521 -1.20918 -1.61936 0
M  V30 3075 C 286.842 0.232683 -1.93607 0
M  V30 3076 O 286.112 1.15352 -1.58338 0
M  V30 3077 H 284.692 -0.44454 -0.600328 0
M  V30 3078 H 287.354 -1.64776 -1.0409 0
M  V30 3079 H 286.45 -1.78124 -2.56278 0
M  V30 3080 N 286.751 1.08385 -1.14413 0
M  V30 3081 C 287.979 1.84517 -0.936001 0
M  V30 3082 C 288.394 1.81626 0.515503 0
M  V30 3083 O 287.751 1.22008 1.35721 0
M  V30 3084 C 287.802 3.32049 -1.42918 0
M  V30 3085 O 287.523 3.34951 -2.82381 0
M  V30 3086 C 289.024 4.24986 -1.26103 0
M  V30 3087 H 286.244 0.582491 -0.333084 0
M  V30 3088 H 288.788 1.36885 -1.5193 0
M  V30 3089 H 286.943 3.7707 -0.888641 0
M  V30 3090 H 287.357 4.27048 -3.04517 0
M  V30 3091 H 288.831 5.26615 -1.6547 0
M  V30 3092 H 289.308 4.38726 -0.20392 0
M  V30 3093 H 289.914 3.85791 -1.79012 0
M  V30 3094 N 288.23 0.939286 1.26551 0
M  V30 3095 C 289.458 0.602536 1.97932 0
M  V30 3096 C 289.873 -0.82206 1.69964 0
M  V30 3097 O 289.23 -1.54789 0.966784 0
M  V30 3098 C 289.281 0.832946 3.51773 0
M  V30 3099 O 289.002 2.20151 3.78768 0
M  V30 3100 C 290.503 0.506483 4.40397 0
M  V30 3101 H 287.723 0.227248 0.631347 0
M  V30 3102 H 290.267 1.25948 1.61113 0
M  V30 3103 H 288.422 0.222644 3.8676 0
M  V30 3104 H 288.836 2.26013 4.73306 0
M  V30 3105 H 290.31 0.718333 5.47306 0
M  V30 3106 H 290.787 -0.558451 4.35635 0
M  V30 3107 H 291.393 1.09543 4.10951 0
M  V30 3108 N 289.708 -1.40897 0.706093 0
M  V30 3109 C 291.124 -1.55042 0.37869 0
M  V30 3110 C 291.324 -1.67944 -1.11342 0
M  V30 3111 O 290.38 -1.66372 -1.89938 0
M  V30 3112 C 291.693 -2.78398 1.13643 0
M  V30 3113 C 293.241 -2.92206 1.12181 0
M  V30 3114 C 293.716 -4.18463 1.86152 0
M  V30 3115 N 295.207 -4.25443 1.83173 0
M  V30 3116 C 295.942 -5.2202 2.37239 0
M  V30 3117 N 295.438 -6.24563 2.99821 0
M  V30 3118 N 297.231 -5.14033 2.27435 0
M  V30 3119 H 289.382 -1.30769 1.67372 0
M  V30 3120 H 291.645 -0.631653 0.706907 0
M  V30 3121 H 291.351 -2.7511 2.19106 0
M  V30 3122 H 291.225 -3.70228 0.721853 0
M  V30 3123 H 293.612 -2.95004 0.0754171 0
M  V30 3124 H 293.693 -2.01521 1.57554 0
M  V30 3125 H 293.337 -4.16427 2.90776 0
M  V30 3126 H 293.267 -5.08141 1.38206 0
M  V30 3127 H 295.758 -3.51976 1.37556 0
M  V30 3128 H 296.071 -6.94665 3.38616 0
M  V30 3129 H 294.416 -6.25035 3.03902 0
M  V30 3130 H 297.607 -4.3285 1.78208 0
M  V30 3131 H 297.78 -5.89129 2.69873 0
M  V30 3132 N 291.186 -0.45159 -1.50991 0
M  V30 3133 C 292.435 0.111653 -2.01391 0
M  V30 3134 C 292.748 1.42529 -1.33959 0
M  V30 3135 O 293.954 2.07232 -1.75405 0
M  V30 3136 C 292.41 0.249514 -3.59034 0
M  V30 3137 C 292.018 -1.05453 -4.35412 0
M  V30 3138 C 293.762 0.765762 -4.17536 0
M  V30 3139 C 291.669 -0.881529 -5.84793 0
M  V30 3140 H 290.599 0.0455022 -0.752626 0
M  V30 3141 H 293.25 -0.583524 -1.73975 0
M  V30 3142 H 291.632 1.00803 -3.82955 0
M  V30 3143 H 292.806 -1.82248 -4.23229 0
M  V30 3144 H 291.121 -1.50039 -3.88429 0
M  V30 3145 H 293.718 0.911913 -5.26866 0
M  V30 3146 H 294.061 1.75201 -3.77638 0
M  V30 3147 H 294.594 0.0651744 -3.97747 0
M  V30 3148 H 291.333 -1.84057 -6.29129 0
M  V30 3149 H 290.853 -0.153625 -5.99603 0
M  V30 3150 H 292.532 -0.540363 -6.4474 0
M  V30 3151 N 292.664 1.56529 -0.183458 0
M  V30 3152 C 293.913 1.96419 0.458511 0
M  V30 3153 C 294.226 1.0727 1.63562 0
M  V30 3154 O 295.432 1.36893 2.34462 0
M  V30 3155 C 293.888 3.49298 0.867122 0
M  V30 3156 C 293.496 4.47092 -0.285057 0
M  V30 3157 C 295.24 3.97983 1.47683 0
M  V30 3158 C 293.147 5.91225 0.143862 0
M  V30 3159 H 292.077 0.733394 0.175071 0
M  V30 3160 H 294.728 1.81448 -0.273624 0
M  V30 3161 H 293.11 3.59731 1.65559 0
M  V30 3162 H 294.284 4.48383 -1.0625 0
M  V30 3163 H 292.599 4.08535 -0.805503 0
M  V30 3164 H 295.196 5.03134 1.80999 0
M  V30 3165 H 295.539 3.41618 2.37914 0
M  V30 3166 H 296.072 3.90617 0.752562 0
M  V30 3167 H 292.811 6.5149 -0.723974 0
M  V30 3168 H 292.331 5.93214 0.886413 0
M  V30 3169 H 294.01 6.44362 0.583628 0
M  V30 3170 N 294.142 -0.090211 1.57342 0
M  V30 3171 C 295.367 -0.810082 1.90925 0
M  V30 3172 C 295.792 -1.71248 0.778187 0
M  V30 3173 O 295.15 -1.79278 -0.269991 0
M  V30 3174 C 295.198 -1.59529 3.23393 0
M  V30 3175 O 294.302 -2.70461 3.11327 0
M  V30 3176 H 293.643 -0.222231 0.625707 0
M  V30 3177 H 296.173 -0.0639716 2.045 0
M  V30 3178 H 296.183 -1.97847 3.5682 0
M  V30 3179 H 294.858 -0.933055 4.05299 0
M  V30 3180 H 293.435 -2.35135 2.89423 0
M  V30 3181 N 295.62 -1.53406 -0.361157 0
M  V30 3182 C 296.848 -1.73717 -1.12383 0
M  V30 3183 C 297.263 -0.468161 -1.82904 0
M  V30 3184 O 296.62 0.559198 -1.73722 0
M  V30 3185 C 296.671 -2.90558 -2.15078 0
M  V30 3186 O 296.392 -4.12549 -1.47428 0
M  V30 3187 C 297.893 -3.22777 -3.03858 0
M  V30 3188 H 295.113 -0.580896 -0.335858 0
M  V30 3189 H 297.657 -2.00167 -0.418728 0
M  V30 3190 H 295.812 -2.66489 -2.8118 0
M  V30 3191 H 296.226 -4.78009 -2.15887 0
M  V30 3192 H 297.7 -4.07927 -3.71887 0
M  V30 3193 H 298.177 -2.38329 -3.68912 0
M  V30 3194 H 298.783 -3.48787 -2.43367 0
M  V30 3195 N 297.098 0.621204 -1.44841 0
M  V30 3196 C 298.326 1.40752 -1.51646 0
M  V30 3197 C 298.741 1.88246 -0.144549 0
M  V30 3198 O 298.098 1.61422 0.851416 0
M  V30 3199 C 298.149 2.62119 -2.4895 0
M  V30 3200 O 297.87 2.16602 -3.80808 0
M  V30 3201 C 299.371 3.55135 -2.65319 0
M  V30 3202 H 296.591 0.431325 -0.514004 0
M  V30 3203 H 299.135 0.758835 -1.899 0
M  V30 3204 H 297.29 3.23058 -2.13805 0
M  V30 3205 H 297.704 2.95358 -4.33433 0
M  V30 3206 H 299.178 4.36874 -3.37409 0
M  V30 3207 H 299.655 4.04592 -1.70886 0
M  V30 3208 H 300.261 3.00058 -3.01405 0
M  V30 3209 N 298.576 1.31904 0.862503 0
M  V30 3210 C 299.524 1.20125 1.9918 0
M  V30 3211 C 300.518 0.107824 1.69056 0
M  V30 3212 O 301.724 0.270223 1.7796 0
M  V30 3213 H 298.099 0.372148 0.65346 0
M  V30 3214 H 300.07 2.15652 2.06244 0
M  V30 3215 C 298.819 0.933099 3.34946 0
M  V30 3216 H 298.142 1.76664 3.5865 0
M  V30 3217 H 299.582 0.890892 4.14535 0
M  V30 3218 C 298.041 -0.364172 3.34926 0
M  V30 3219 O 298.571 -1.37858 3.77304 0
M  V30 3220 N 296.777 -0.383362 2.8806 0
M  V30 3221 H 296.324 0.442651 2.53768 0
M  V30 3222 H 296.282 -1.25123 2.8843 0
M  V30 3223 N 300.054 -1.07777 1.14986 0
M  V30 3224 C 301.302 -1.79934 0.920235 0
M  V30 3225 C 301.623 -1.86955 -0.554336 0
M  V30 3226 O 300.893 -1.36731 -1.40291 0
M  V30 3227 H 299.473 -0.666424 0.337473 0
M  V30 3228 H 302.135 -1.3027 1.44968 0
M  V30 3229 H 301.231 -2.82539 1.32583 0
M  V30 3230 N 301.532 -0.945985 -1.26051 0
M  V30 3231 C 302.78 -0.594941 -1.93145 0
M  V30 3232 C 303.101 0.86953 -1.7454 0
M  V30 3233 O 302.371 1.61838 -1.10387 0
M  V30 3234 H 300.951 -0.217044 -0.714773 0
M  V30 3235 H 303.613 -1.20235 -1.53393 0
M  V30 3236 H 302.709 -0.816835 -3.01221 0
M  V30 3237 N 303.011 1.40521 -0.713556 0
M  V30 3238 C 303.943 2.29191 -0.0203126 0
M  V30 3239 C 304.956 1.45723 0.725864 0
M  V30 3240 O 306.145 1.69033 0.573581 0
M  V30 3241 C 303.245 3.2395 0.995486 0
M  V30 3242 C 302.418 4.36262 0.315256 0
M  V30 3243 C 301.477 5.11474 1.23616 0
M  V30 3244 O 300.503 5.64606 0.721719 0
M  V30 3245 N 301.705 5.20638 2.56743 0
M  V30 3246 H 304.47 2.89327 -0.781652 0
M  V30 3247 H 302.031 1.51869 -0.561022 0
M  V30 3248 H 304.023 3.71137 1.61368 0
M  V30 3249 H 302.593 2.64995 1.6582 0
M  V30 3250 H 301.813 3.91228 -0.483106 0
M  V30 3251 H 303.101 5.08558 -0.157004 0
M  V30 3252 H 302.499 4.7895 3.01037 0
M  V30 3253 H 301.056 5.71339 3.13712 0
M  V30 3254 N 304.489 0.459591 1.5075 0
M  V30 3255 C 305.399 -0.34613 2.32033 0
M  V30 3256 C 306.415 -1.00686 1.41909 0
M  V30 3257 O 307.591 -0.997361 1.7497 0
M  V30 3258 C 304.656 -1.42029 3.16273 0
M  V30 3259 C 303.717 -0.777362 4.22203 0
M  V30 3260 C 302.95 -1.80034 5.02418 0
M  V30 3261 O 303.173 -3.02544 4.83553 0
M  V30 3262 O 302.107 -1.37853 5.85901 0
M  V30 3263 H 305.933 0.318054 3.0203 0
M  V30 3264 H 303.518 0.221663 1.47746 0
M  V30 3265 H 305.4 -2.04275 3.68578 0
M  V30 3266 H 304.075 -2.06815 2.49016 0
M  V30 3267 H 302.982 -0.116256 3.73919 0
M  V30 3268 H 304.315 -0.172634 4.91897 0
M  V30 3269 N 305.967 -1.56429 0.191757 0
M  V30 3270 C 307.383 -1.58754 -0.164137 0
M  V30 3271 C 307.583 -1.20782 -1.61288 0
M  V30 3272 O 306.639 -0.928999 -2.34789 0
M  V30 3273 C 307.952 -3.00396 0.135195 0
M  V30 3274 C 309.5 -3.1291 0.0750351 0
M  V30 3275 C 309.975 -4.56679 0.347632 0
M  V30 3276 N 311.466 -4.62252 0.296131 0
M  V30 3277 C 312.201 -5.71379 0.480948 0
M  V30 3278 N 311.697 -6.88986 0.725933 0
M  V30 3279 N 313.49 -5.60563 0.415435 0
M  V30 3280 H 305.641 -1.79393 1.13718 0
M  V30 3281 H 307.904 -0.832414 0.453643 0
M  V30 3282 H 307.61 -3.32726 1.13958 0
M  V30 3283 H 307.484 -3.72963 -0.563773 0
M  V30 3284 H 309.871 -2.80394 -0.919948 0
M  V30 3285 H 309.952 -2.42736 0.807029 0
M  V30 3286 H 309.596 -4.89907 1.33992 0
M  V30 3287 H 309.526 -5.25039 -0.405212 0
M  V30 3288 H 312.017 -3.7773 0.113259 0
M  V30 3289 H 312.33 -7.68046 0.855857 0
M  V30 3290 H 310.675 -6.90801 0.762788 0
M  V30 3291 H 313.866 -4.67561 0.224486 0
M  V30 3292 H 314.039 -6.45551 0.562889 0
M  V30 3293 N 307.445 0.0818655 -1.57387 0
M  V30 3294 C 308.392 1.09834 -2.0299 0
M  V30 3295 C 309.362 1.39043 -0.908639 0
M  V30 3296 O 310.547 1.50282 -1.17559 0
M  V30 3297 C 307.687 2.40971 -2.47037 0
M  V30 3298 C 306.8 2.18379 -3.7274 0
M  V30 3299 C 305.935 3.43008 -4.0561 0
M  V30 3300 C 304.974 3.15736 -5.24383 0
M  V30 3301 N 304.111 4.32667 -5.52941 0
M  V30 3302 H 308.951 0.702472 -2.89602 0
M  V30 3303 H 306.488 0.33531 -1.43227 0
M  V30 3304 H 308.446 3.1752 -2.70623 0
M  V30 3305 H 307.076 2.78379 -1.63417 0
M  V30 3306 H 306.128 1.32569 -3.56552 0
M  V30 3307 H 307.44 1.94227 -4.59431 0
M  V30 3308 H 306.594 4.27958 -4.30043 0
M  V30 3309 H 305.333 3.70225 -3.17466 0
M  V30 3310 H 304.338 2.2918 -4.99757 0
M  V30 3311 H 305.563 2.8985 -6.14136 0
M  V30 3312 H 303.509 4.59935 -4.67756 0
M  V30 3313 H 303.426 4.11753 -6.34031 0
M  V30 3314 H 304.694 5.18644 -5.81918 0
M  V30 3315 N 308.923 1.53595 0.353017 0
M  V30 3316 C 310.17 1.70385 1.09431 0
M  V30 3317 C 310.498 0.462113 1.88931 0
M  V30 3318 O 309.753 -0.556074 1.87633 0
M  V30 3319 C 310.052 2.91313 2.07054 0
M  V30 3320 C 309.718 4.27308 1.43939 0
M  V30 3321 C 308.38 4.64287 1.26454 0
M  V30 3322 C 310.732 5.11829 0.983883 0
M  V30 3323 C 308.06 5.83412 0.620226 0
M  V30 3324 C 310.412 6.31611 0.353516 0
M  V30 3325 C 309.076 6.67293 0.166272 0
M  V30 3326 H 308.346 0.623484 0.400436 0
M  V30 3327 H 310.993 1.87799 0.374655 0
M  V30 3328 H 309.298 2.68463 2.85368 0
M  V30 3329 H 310.995 3.01497 2.64387 0
M  V30 3330 H 307.585 3.98198 1.58543 0
M  V30 3331 H 311.769 4.838 1.10685 0
M  V30 3332 H 307.025 6.09639 0.463681 0
M  V30 3333 H 311.199 6.964 -0.00757555 0
M  V30 3334 H 308.826 7.59461 -0.335047 0
M  V30 3335 N 310.401 -0.613514 1.45168 0
M  V30 3336 C 311.647 -1.37471 1.49096 0
M  V30 3337 C 311.98 -1.93765 0.129901 0
M  V30 3338 O 311.255 -1.74707 -0.854858 0
M  V30 3339 C 311.538 -2.52701 2.56542 0
M  V30 3340 C 311.391 -2.01643 4.0207 0
M  V30 3341 C 312.71 -3.54849 2.60327 0
M  V30 3342 H 309.829 -0.498502 0.54283 0
M  V30 3343 H 312.471 -0.692125 1.76945 0
M  V30 3344 H 310.621 -3.10931 2.32926 0
M  V30 3345 H 312.293 -1.48108 4.36877 0
M  V30 3346 H 310.536 -1.32688 4.13009 0
M  V30 3347 H 311.207 -2.84681 4.72928 0
M  V30 3348 H 313.683 -3.0645 2.81474 0
M  V30 3349 H 312.559 -4.32973 3.37381 0
M  V30 3350 H 312.82 -4.10079 1.6519 0
M  V30 3351 N 311.879 -1.3236 -0.855495 0
M  V30 3352 C 313.127 -1.22629 -1.60644 0
M  V30 3353 C 313.448 0.212136 -1.93843 0
M  V30 3354 O 312.718 1.13666 -1.59552 0
M  V30 3355 H 311.298 -0.450882 -0.595579 0
M  V30 3356 H 313.96 -1.65871 -1.02337 0
M  V30 3357 H 313.056 -1.80832 -2.54374 0
M  V30 3358 N 313.357 1.07166 -1.15556 0
M  V30 3359 C 314.605 1.79443 -0.929764 0
M  V30 3360 C 314.926 1.87246 0.544414 0
M  V30 3361 O 314.196 1.37473 1.39564 0
M  V30 3362 H 312.776 0.664625 -0.341003 0
M  V30 3363 H 315.438 1.29499 -1.45657 0
M  V30 3364 H 314.534 2.81832 -1.34079 0
M  V30 3365 N 314.835 0.952656 1.25548 0
M  V30 3366 C 316.06 0.623025 1.97821 0
M  V30 3367 C 316.485 -0.7976 1.70352 0
M  V30 3368 O 315.843 -1.53905 0.958283 0
M  V30 3369 C 315.891 0.885532 3.49558 0
M  V30 3370 O 314.995 -0.0366641 4.12384 0
M  V30 3371 H 314.336 0.237082 0.620232 0
M  V30 3372 H 316.866 1.27871 1.59719 0
M  V30 3373 H 316.876 0.811009 3.99858 0
M  V30 3374 H 315.551 1.92094 3.6888 0
M  V30 3375 H 314.128 0.0898954 3.72792 0
M  V30 3376 N 316.313 -1.40141 0.720998 0
M  V30 3377 C 317.561 -2.0039 0.262323 0
M  V30 3378 C 317.882 -1.57469 -1.15015 0
M  V30 3379 O 317.152 -0.816582 -1.78069 0
M  V30 3380 H 315.732 -0.741063 0.093996 0
M  V30 3381 H 318.394 -1.71398 0.927835 0
M  V30 3382 H 317.49 -3.10658 0.299671 0
M  V30 3383 N 317.792 -0.46758 -1.50504 0
M  V30 3384 C 318.724 0.364655 -2.26281 0
M  V30 3385 C 319.737 0.960151 -1.31472 0
M  V30 3386 O 320.926 0.849153 -1.57008 0
M  V30 3387 C 318.026 1.52509 -3.02645 0
M  V30 3388 C 317.199 1.04302 -4.24782 0
M  V30 3389 C 316.258 2.07709 -4.8347 0
M  V30 3390 O 315.284 1.65913 -5.44483 0
M  V30 3391 N 316.486 3.40485 -4.70159 0
M  V30 3392 H 319.251 -0.28495 -2.98342 0
M  V30 3393 H 316.812 -0.298163 -1.59131 0
M  V30 3394 H 318.804 2.21371 -3.38787 0
M  V30 3395 H 317.374 2.07945 -2.33404 0
M  V30 3396 H 316.594 0.180393 -3.93787 0
M  V30 3397 H 317.882 0.698798 -5.03978 0
M  V30 3398 H 317.28 3.77155 -4.21629 0
M  V30 3399 H 315.837 4.05156 -5.1058 0
M  V30 3400 N 319.27 1.56325 -0.20005 0
M  V30 3401 C 320.516 1.98012 0.438059 0
M  V30 3402 C 320.849 1.08702 1.60927 0
M  V30 3403 O 320.124 0.140064 1.93995 0
M  V30 3404 C 320.407 3.48841 0.893419 0
M  V30 3405 C 320.26 4.48928 -0.279947 0
M  V30 3406 C 321.579 4.03498 1.75719 0
M  V30 3407 H 318.698 0.719918 0.157757 0
M  V30 3408 H 321.34 1.87743 -0.291968 0
M  V30 3409 H 319.49 3.57723 1.51547 0
M  V30 3410 H 321.162 4.52079 -0.91772 0
M  V30 3411 H 319.405 4.23694 -0.930919 0
M  V30 3412 H 320.076 5.5194 0.0812601 0
M  V30 3413 H 322.552 3.97427 1.23253 0
M  V30 3414 H 321.428 5.09393 2.04476 0
M  V30 3415 H 321.689 3.4906 2.71311 0
M  V30 3416 N 320.748 -0.0735177 1.57428 0
M  V30 3417 C 321.973 -0.789787 1.91774 0
M  V30 3418 C 322.398 -1.70413 0.796306 0
M  V30 3419 O 321.756 -1.79555 -0.250961 0
M  V30 3420 C 321.804 -1.5609 3.25067 0
M  V30 3421 O 320.908 -2.67144 3.14178 0
M  V30 3422 H 320.249 -0.215582 0.628029 0
M  V30 3423 H 322.779 -0.0422781 2.04556 0
M  V30 3424 H 322.789 -1.94052 3.58898 0
M  V30 3425 H 321.464 -0.890015 4.06265 0
M  V30 3426 H 320.041 -2.32052 2.91901 0
M  V30 3427 N 322.226 -1.5378 -0.344866 0
M  V30 3428 C 323.136 -1.84667 -1.4469 0
M  V30 3429 C 324.152 -0.736704 -1.57635 0
M  V30 3430 O 325.328 -1.02888 -1.73136 0
M  V30 3431 C 322.393 -2.04869 -2.79696 0
M  V30 3432 C 321.454 -3.28731 -2.76106 0
M  V30 3433 C 320.687 -3.4796 -4.04673 0
M  V30 3434 O 320.91 -2.71052 -5.01883 0
M  V30 3435 O 319.844 -4.41383 -4.09224 0
M  V30 3436 H 323.67 -2.78334 -1.21506 0
M  V30 3437 H 321.255 -1.39418 -0.536921 0
M  V30 3438 H 323.137 -2.19609 -3.59652 0
M  V30 3439 H 321.812 -1.14391 -3.02814 0
M  V30 3440 H 320.719 -3.19396 -1.94774 0
M  V30 3441 H 322.052 -4.19198 -2.57941 0
M  V30 3442 N 323.704 0.605807 -1.45491 0
M  V30 3443 C 325.12 0.926751 -1.29936 0
M  V30 3444 C 325.32 1.99896 -0.253706 0
M  V30 3445 O 324.376 2.50038 0.351737 0
M  V30 3446 C 325.689 1.36599 -2.67883 0
M  V30 3447 C 327.237 1.4801 -2.75793 0
M  V30 3448 C 327.712 1.95309 -4.14268 0
M  V30 3449 N 329.203 2.0254 -4.16571 0
M  V30 3450 C 329.938 2.40363 -5.20589 0
M  V30 3451 N 329.434 2.77143 -6.34952 0
M  V30 3452 N 331.227 2.40718 -5.07948 0
M  V30 3453 H 323.378 -0.102862 -2.12151 0
M  V30 3454 H 325.641 0.016639 -0.947854 0
M  V30 3455 H 325.347 0.652306 -3.45598 0
M  V30 3456 H 325.221 2.33215 -2.96463 0
M  V30 3457 H 327.608 2.1847 -1.98381 0
M  V30 3458 H 327.689 0.497041 -2.50925 0
M  V30 3459 H 327.333 1.25436 -4.92167 0
M  V30 3460 H 327.263 2.94532 -4.3653 0
M  V30 3461 H 329.754 1.76699 -3.34045 0
M  V30 3462 H 330.067 3.0489 -7.10114 0
M  V30 3463 H 328.412 2.74834 -6.3835 0
M  V30 3464 H 331.603 2.11392 -4.1765 0
M  V30 3465 H 331.776 2.69869 -5.89131 0
M  V30 3466 N 325.182 1.32811 0.848464 0
M  V30 3467 C 326.431 1.23075 1.59798 0
M  V30 3468 C 326.744 -0.204419 1.94529 0
M  V30 3469 O 327.95 -0.423701 2.68173 0
M  V30 3470 C 326.406 2.15594 2.88179 0
M  V30 3471 C 326.014 3.64228 2.60849 0
M  V30 3472 C 327.758 2.14709 3.66197 0
M  V30 3473 C 325.665 4.48689 3.85269 0
M  V30 3474 H 324.595 0.457091 0.599653 0
M  V30 3475 H 327.246 1.57813 0.936342 0
M  V30 3476 H 325.628 1.73778 3.55833 0
M  V30 3477 H 326.802 4.14424 2.01467 0
M  V30 3478 H 325.117 3.67306 1.96151 0
M  V30 3479 H 327.714 2.75046 4.58534 0
M  V30 3480 H 328.057 1.13966 4.00397 0
M  V30 3481 H 328.59 2.54837 3.05455 0
M  V30 3482 H 325.329 5.5027 3.56207 0
M  V30 3483 H 324.849 4.03241 4.44024 0
M  V30 3484 H 326.528 4.62006 4.52946 0
M  V30 3485 N 326.66 -1.06551 1.16123 0
M  V30 3486 C 327.593 -2.13382 0.80892 0
M  V30 3487 C 328.571 -1.61128 -0.21827 0
M  V30 3488 O 329.755 -1.88219 -0.102952 0
M  V30 3489 C 326.882 -3.38083 0.204303 0
M  V30 3490 C 325.928 -4.09133 1.20469 0
M  V30 3491 S 326.761 -4.5948 2.75024 0
M  V30 3492 C 327.917 -5.87446 2.16005 0
M  V30 3493 H 328.15 -2.42937 1.71373 0
M  V30 3494 H 325.683 -1.18947 0.984428 0
M  V30 3495 H 327.641 -4.10268 -0.138081 0
M  V30 3496 H 326.302 -3.0669 -0.678234 0
M  V30 3497 H 325.495 -4.98685 0.730019 0
M  V30 3498 H 325.097 -3.4295 1.49202 0
M  V30 3499 H 327.389 -6.60065 1.5271 0
M  V30 3500 H 328.332 -6.39639 3.03756 0
M  V30 3501 H 328.74 -5.41354 1.59989 0
M  V30 3502 N 328.138 -0.959301 -1.25041 0
M  V30 3503 C 329.415 -0.533805 -1.88175 0
M  V30 3504 C 329.795 0.988994 -1.865 0
M  V30 3505 O 329.143 1.85677 -1.33177 0
M  V30 3506 C 329.353 -1.11575 -3.30684 0
M  V30 3507 C 330.701 -1.19548 -4.07423 0
M  V30 3508 O 331.725 -1.06765 -3.39823 0
M  V30 3509 O 330.584 -1.39656 -5.28354 0
M  V30 3510 H 327.678 -0.176772 -0.807887 0
M  V30 3511 H 330.224 -1.05303 -1.33076 0
M  V30 3512 H 328.996 -2.15884 -3.26358 0
M  V30 3513 H 328.619 -0.580059 -3.93346 0
M  V30 3514 N 329.616 1.39756 -0.72842 0
M  V30 3515 C 330.546 2.33289 -0.0991354 0
M  V30 3516 C 331.527 1.53568 0.731489 0
M  V30 3517 O 332.712 1.81987 0.677807 0
M  V30 3518 C 329.842 3.3763 0.813834 0
M  V30 3519 C 328.796 4.2791 0.0878663 0
M  V30 3520 C 328.122 5.22894 1.11741 0
M  V30 3521 C 329.422 5.11314 -1.06563 0
M  V30 3522 H 331.116 2.86163 -0.880408 0
M  V30 3523 H 328.662 1.37591 -0.424819 0
M  V30 3524 H 330.615 4.0201 1.26355 0
M  V30 3525 H 329.339 2.83181 1.62715 0
M  V30 3526 H 327.998 3.65 -0.342159 0
M  V30 3527 H 327.646 4.64744 1.92412 0
M  V30 3528 H 327.346 5.84143 0.636477 0
M  V30 3529 H 328.87 5.90151 1.56697 0
M  V30 3530 H 330.284 5.69076 -0.694671 0
M  V30 3531 H 328.681 5.81671 -1.47577 0
M  V30 3532 H 329.751 4.46534 -1.89038 0
M  V30 3533 N 331.094 0.475555 1.50254 0
M  V30 3534 C 332.024 -0.30611 2.31485 0
M  V30 3535 C 333.005 -0.986228 1.38591 0
M  V30 3536 O 334.19 -0.982541 1.67511 0
M  V30 3537 C 331.32 -1.38588 3.1845 0
M  V30 3538 C 330.274 -0.827115 4.19932 0
M  V30 3539 C 329.6 -2.00551 4.95665 0
M  V30 3540 C 330.9 0.16463 5.2204 0
M  V30 3541 H 332.594 0.371866 2.97082 0
M  V30 3542 H 330.14 0.180282 1.42867 0
M  V30 3543 H 332.093 -1.94023 3.74076 0
M  V30 3544 H 330.817 -2.09269 2.50747 0
M  V30 3545 H 329.476 -0.294702 3.65414 0
M  V30 3546 H 329.124 -2.6994 4.2443 0
M  V30 3547 H 328.824 -1.63784 5.64313 0
M  V30 3548 H 330.348 -2.56468 5.54127 0
M  V30 3549 H 331.762 -0.300699 5.72511 0
M  V30 3550 H 330.159 0.446813 5.98434 0
M  V30 3551 H 331.229 1.08905 4.72512 0
M  V30 3552 N 332.573 -1.56217 0.208337 0
M  V30 3553 C 333.821 -1.97558 -0.426076 0
M  V30 3554 C 334.142 -1.09683 -1.61229 0
M  V30 3555 O 333.412 -0.170956 -1.95153 0
M  V30 3556 H 331.992 -0.729575 -0.160405 0
M  V30 3557 H 334.654 -1.92606 0.298155 0
M  V30 3558 H 333.75 -3.02672 -0.761312 0
M  V30 3559 N 334.051 0.0651679 -1.57465 0
M  V30 3560 C 335.328 0.79644 -1.78651 0
M  V30 3561 C 335.708 1.95454 -0.797566 0
M  V30 3562 O 335.056 2.27882 0.167946 0
M  V30 3563 C 335.266 1.26322 -3.25337 0
M  V30 3564 C 336.614 1.6939 -3.89348 0
M  V30 3565 O 337.638 1.35872 -3.29268 0
M  V30 3566 O 336.497 2.31471 -4.95059 0
M  V30 3567 H 333.591 0.382157 -0.733407 0
M  V30 3568 H 336.137 0.0447311 -1.69641 0
M  V30 3569 H 334.909 0.434859 -3.88876 0
M  V30 3570 H 334.532 2.07604 -3.39096 0
M  V30 3571 N 335.529 1.53961 0.336706 0
M  V30 3572 C 336.945 1.44378 0.680241 0
M  V30 3573 C 337.145 0.606034 1.9217 0
M  V30 3574 O 336.201 0.099688 2.52303 0
M  V30 3575 C 337.514 2.87945 0.8665 0
M  V30 3576 C 339.062 2.97763 0.964682 0
M  V30 3577 C 339.537 4.42453 1.18321 0
M  V30 3578 N 341.028 4.46008 1.25025 0
M  V30 3579 C 341.763 5.55102 1.43697 0
M  V30 3580 N 341.259 6.7419 1.59498 0
M  V30 3581 N 343.052 5.42727 1.463 0
M  V30 3582 H 335.203 2.06918 -0.479455 0
M  V30 3583 H 337.466 0.935634 -0.152619 0
M  V30 3584 H 337.172 3.51691 0.0256937 0
M  V30 3585 H 337.046 3.33293 1.76623 0
M  V30 3586 H 339.433 2.34153 1.796 0
M  V30 3587 H 339.514 2.55766 0.041708 0
M  V30 3588 H 339.158 5.06645 0.356788 0
M  V30 3589 H 339.088 4.82048 2.11985 0
M  V30 3590 H 341.579 3.60196 1.14312 0
M  V30 3591 H 341.892 7.53095 1.734 0
M  V30 3592 H 340.237 6.77123 1.56621 0
M  V30 3593 H 343.428 4.48647 1.33543 0
M  V30 3594 H 343.601 6.27806 1.6051 0
M  V30 3595 N 337.007 -0.598083 1.45811 0
M  V30 3596 C 338.253 -1.35882 1.50545 0
M  V30 3597 C 338.586 -1.93616 0.150445 0
M  V30 3598 O 337.861 -1.75604 -0.83628 0
M  V30 3599 C 338.144 -2.49966 2.59208 0
M  V30 3600 C 337.997 -1.97367 4.04186 0
M  V30 3601 C 339.316 -3.52068 2.64076 0
M  V30 3602 H 336.435 -0.492717 0.548087 0
M  V30 3603 H 339.077 -0.673319 1.77669 0
M  V30 3604 H 337.227 -3.08443 2.3621 0
M  V30 3605 H 338.899 -1.43466 4.38423 0
M  V30 3606 H 337.142 -1.283 4.14393 0
M  V30 3607 H 337.813 -2.79649 4.75921 0
M  V30 3608 H 340.289 -3.03448 2.84708 0
M  V30 3609 H 339.165 -4.2937 3.41954 0
M  V30 3610 H 339.426 -4.08304 1.69531 0
M  V30 3611 N 338.485 -1.33259 -0.841409 0
M  V30 3612 C 339.432 -1.23302 -1.95103 0
M  V30 3613 C 340.402 -0.112204 -1.65721 0
M  V30 3614 O 341.587 -0.290038 -1.88583 0
M  V30 3615 C 338.727 -0.975583 -3.31023 0
M  V30 3616 C 337.84 -2.18243 -3.72819 0
M  V30 3617 C 336.975 -1.85936 -4.97595 0
M  V30 3618 C 336.014 -3.02866 -5.3192 0
M  V30 3619 N 335.151 -2.70565 -6.47873 0
M  V30 3620 H 339.991 -2.18207 -2.02952 0
M  V30 3621 H 337.528 -1.0851 -0.993173 0
M  V30 3622 H 339.486 -0.80677 -4.09325 0
M  V30 3623 H 338.116 -0.0632755 -3.22738 0
M  V30 3624 H 337.168 -2.46107 -2.90061 0
M  V30 3625 H 338.48 -3.05666 -3.94169 0
M  V30 3626 H 337.634 -1.65684 -5.83638 0
M  V30 3627 H 336.373 -0.957452 -4.78209 0
M  V30 3628 H 335.378 -3.23736 -4.44382 0
M  V30 3629 H 336.603 -3.93809 -5.53255 0
M  V30 3630 H 334.549 -1.8293 -6.29978 0
M  V30 3631 H 334.466 -3.51519 -6.69306 0
M  V30 3632 H 335.734 -2.53774 -7.37034 0
M  V30 3633 N 339.963 1.05934 -1.16686 0
M  V30 3634 C 340.893 2.1546 -0.899949 0
M  V30 3635 C 341.874 1.69391 0.155154 0
M  V30 3636 O 343.059 1.94199 0.00648693 0
M  V30 3637 C 340.189 3.44939 -0.404241 0
M  V30 3638 C 339.143 4.04536 -1.39767 0
M  V30 3639 C 338.469 5.29268 -0.760216 0
M  V30 3640 C 339.769 4.42893 -2.76845 0
M  V30 3641 H 341.463 2.38046 -1.81588 0
M  V30 3642 H 339.009 1.14404 -0.874514 0
M  V30 3643 H 340.962 4.20901 -0.204971 0
M  V30 3644 H 339.686 3.21983 0.547206 0
M  V30 3645 H 338.345 3.30635 -1.58355 0
M  V30 3646 H 337.993 5.02611 0.197831 0
M  V30 3647 H 337.693 5.70101 -1.42332 0
M  V30 3648 H 339.217 6.07924 -0.57105 0
M  V30 3649 H 340.631 5.09921 -2.62019 0
M  V30 3650 H 339.028 4.94721 -3.39663 0
M  V30 3651 H 340.098 3.53584 -3.31823 0
M  V30 3652 N 341.441 0.965919 1.2453 0
M  V30 3653 C 342.351 0.502154 2.29163 0
M  V30 3654 C 343.367 -0.436017 1.68448 0
M  V30 3655 O 344.543 -0.309497 1.99008 0
M  V30 3656 C 341.608 -0.201956 3.46111 0
M  V30 3657 C 340.669 0.775821 4.22232 0
M  V30 3658 C 339.902 0.105217 5.33596 0
M  V30 3659 O 340.125 -1.10683 5.59558 0
M  V30 3660 O 339.059 0.796475 5.96607 0
M  V30 3661 H 342.885 1.37194 2.70946 0
M  V30 3662 H 340.47 0.732875 1.30189 0
M  V30 3663 H 342.352 -0.597564 4.17142 0
M  V30 3664 H 341.027 -1.04673 3.06309 0
M  V30 3665 H 339.934 1.22185 3.53584 0
M  V30 3666 H 341.267 1.58896 4.65846 0
M  V30 3667 N 342.919 -1.39368 0.735821 0
M  V30 3668 C 344.335 -1.54204 0.411492 0
M  V30 3669 C 344.535 -1.70268 -1.07755 0
M  V30 3670 O 343.591 -1.70364 -1.86366 0
M  V30 3671 C 344.904 -2.75925 1.19523 0
M  V30 3672 C 346.452 -2.89761 1.18354 0
M  V30 3673 C 346.927 -4.14421 1.94986 0
M  V30 3674 N 348.418 -4.21462 1.92156 0
M  V30 3675 C 349.153 -5.16871 2.48258 0
M  V30 3676 N 348.649 -6.18063 3.13001 0
M  V30 3677 N 350.442 -5.09093 2.38287 0
M  V30 3678 H 342.593 -1.27189 1.70108 0
M  V30 3679 H 344.856 -0.616517 0.720147 0
M  V30 3680 H 344.562 -2.70401 2.24892 0
M  V30 3681 H 344.436 -3.68614 0.800222 0
M  V30 3682 H 346.823 -2.94777 0.137975 0
M  V30 3683 H 346.904 -1.98133 1.61793 0
M  V30 3684 H 346.548 -4.10166 2.99543 0
M  V30 3685 H 346.478 -5.05095 1.48953 0
M  V30 3686 H 348.969 -3.48979 1.44991 0
M  V30 3687 H 349.282 -6.87326 3.53275 0
M  V30 3688 H 347.627 -6.18448 3.17091 0
M  V30 3689 H 350.818 -4.28973 1.8735 0
M  V30 3690 H 350.991 -5.83272 2.82308 0
M  V30 3691 N 344.397 -0.483516 -1.5 0
M  V30 3692 C 345.808 -0.0314176 -1.86674 0
M  V30 3693 C 346.159 1.37728 -1.39733 0
M  V30 3694 O 345.284 2.02327 -0.767635 0
M  V30 3695 C 345.879 -0.0502376 -3.38763 0
M  V30 3696 C 344.438 0.346442 -3.74802 0
M  V30 3697 C 343.585 -0.430366 -2.7394 0
M  V30 3698 H 346.536 -0.697182 -1.42566 0
M  V30 3699 H 346.557 0.749116 -3.73053 0
M  V30 3700 H 346.069 -1.07563 -3.72897 0
M  V30 3701 H 344.17 1.37572 -3.46273 0
M  V30 3702 H 344.283 0.0391486 -4.79084 0
M  V30 3703 H 342.647 0.117557 -2.54429 0
M  V30 3704 H 343.43 -1.4555 -3.10918 0
M  V30 3705 N 345.875 1.56104 -0.216619 0
M  V30 3706 C 347.121 1.98466 0.417033 0
M  V30 3707 C 347.454 1.10403 1.59765 0
M  V30 3708 O 346.729 0.160632 1.93836 0
M  V30 3709 C 347.012 3.49769 0.85637 0
M  V30 3710 C 346.865 4.48606 -0.327546 0
M  V30 3711 C 348.184 4.05339 1.7143 0
M  V30 3712 H 345.303 0.721551 0.150112 0
M  V30 3713 H 347.945 1.87423 -0.311864 0
M  V30 3714 H 346.095 3.5931 1.47745 0
M  V30 3715 H 347.767 4.5108 -0.965618 0
M  V30 3716 H 346.01 4.22682 -0.975805 0
M  V30 3717 H 346.681 5.51995 0.0227149 0
M  V30 3718 H 349.157 3.98712 1.19031 0
M  V30 3719 H 348.033 5.11533 1.99061 0
M  V30 3720 H 348.294 3.51918 2.67593 0
M  V30 3721 N 347.353 -0.0568162 1.57498 0
M  V30 3722 C 348.602 -0.752001 1.87157 0
M  V30 3723 C 348.915 -1.77978 0.811375 0
M  V30 3724 O 350.121 -2.52559 0.996293 0
M  V30 3725 C 348.577 -1.38844 3.3204 0
M  V30 3726 C 348.185 -0.398456 4.46225 0
M  V30 3727 C 349.929 -2.06512 3.70882 0
M  V30 3728 C 347.836 -1.04166 5.82154 0
M  V30 3729 H 346.766 -0.28461 0.698222 0
M  V30 3730 H 349.417 -0.00561272 1.83499 0
M  V30 3731 H 347.799 -2.1836 3.30356 0
M  V30 3732 H 348.973 0.367977 4.59328 0
M  V30 3733 H 347.288 0.174592 4.16034 0
M  V30 3734 H 349.885 -2.55437 4.6974 0
M  V30 3735 H 350.228 -2.87117 3.01445 0
M  V30 3736 H 350.761 -1.33808 3.7462 0
M  V30 3737 H 347.5 -0.275614 6.5492 0
M  V30 3738 H 347.02 -1.7786 5.72823 0
M  V30 3739 H 348.699 -1.55715 6.27982 0
M  V30 3740 N 348.832 -1.54138 -0.328536 0
M  V30 3741 C 350.062 -1.75807 -1.08516 0
M  V30 3742 C 350.47 -0.50428 -1.82356 0
M  V30 3743 O 349.813 0.534451 -1.75754 0
M  V30 3744 C 349.875 -2.89423 -2.13248 0
M  V30 3745 C 349.539 -4.28504 -1.5885 0
M  V30 3746 C 350.536 -5.09536 -1.03289 0
M  V30 3747 C 348.221 -4.75034 -1.63243 0
M  V30 3748 C 350.215 -6.35206 -0.52845 0
M  V30 3749 C 347.902 -6.00672 -1.12411 0
M  V30 3750 C 348.9 -6.80592 -0.573062 0
M  V30 3751 O 348.588 -8.03867 -0.0723692 0
M  V30 3752 H 348.32 -0.590633 -0.328829 0
M  V30 3753 H 350.874 -2.01819 -0.381868 0
M  V30 3754 H 349.104 -2.5897 -2.87178 0
M  V30 3755 H 350.793 -2.98921 -2.74592 0
M  V30 3756 H 351.559 -4.74745 -0.99206 0
M  V30 3757 H 347.438 -4.12875 -2.05074 0
M  V30 3758 H 350.982 -6.97532 -0.0976774 0
M  V30 3759 H 346.879 -6.34955 -1.162 0
M  V30 3760 H 347.647 -8.18283 -0.188258 0
M  V30 3761 N 350.31 0.590341 -1.46126 0
M  V30 3762 C 351.559 1.34499 -1.50309 0
M  V30 3763 C 351.872 1.94977 -0.156021 0
M  V30 3764 O 353.078 2.71395 -0.0756037 0
M  V30 3765 C 351.534 2.43723 -2.64815 0
M  V30 3766 C 351.142 1.89582 -4.0591 0
M  V30 3767 C 352.886 3.20579 -2.78262 0
M  V30 3768 C 350.793 2.9639 -5.11769 0
M  V30 3769 H 349.723 0.505593 -0.559368 0
M  V30 3770 H 352.374 0.630848 -1.72315 0
M  V30 3771 H 350.756 3.17902 -2.36124 0
M  V30 3772 H 351.93 1.21997 -4.44357 0
M  V30 3773 H 350.245 1.25418 -3.97063 0
M  V30 3774 H 352.842 4.00276 -3.54519 0
M  V30 3775 H 353.185 3.72684 -1.85505 0
M  V30 3776 H 353.718 2.53505 -3.06562 0
M  V30 3777 H 350.457 2.49181 -6.06291 0
M  V30 3778 H 349.977 3.62487 -4.77873 0
M  V30 3779 H 351.656 3.60474 -5.37278 0
M  V30 3780 N 351.788 1.33704 0.83433 0
M  V30 3781 C 353.065 1.16011 1.57483 0
M  V30 3782 C 353.445 -0.27176 2.09343 0
M  V30 3783 O 352.793 -1.27146 1.89858 0
M  V30 3784 C 353.003 2.20507 2.70514 0
M  V30 3785 C 354.351 2.54898 3.39577 0
M  V30 3786 O 355.375 2.19209 2.80759 0
M  V30 3787 O 354.234 3.16158 4.45765 0
M  V30 3788 H 351.328 0.448992 0.694503 0
M  V30 3789 H 353.874 1.453 0.876691 0
M  V30 3790 H 352.646 3.16667 2.29865 0
M  V30 3791 H 352.269 1.92329 3.47987 0
M  V30 3792 N 353.266 -1.05314 1.17247 0
M  V30 3793 C 354.198 -2.13023 0.845812 0
M  V30 3794 C 355.211 -1.62096 -0.151246 0
M  V30 3795 O 356.4 -1.78343 0.0748818 0
M  V30 3796 C 353.5 -3.38047 0.240292 0
M  V30 3797 C 352.673 -4.18255 1.27991 0
M  V30 3798 C 351.732 -5.21625 0.692375 0
M  V30 3799 O 350.758 -5.52619 1.36385 0
M  V30 3800 N 351.96 -5.78201 -0.516178 0
M  V30 3801 H 354.725 -2.41642 1.77283 0
M  V30 3802 H 352.286 -1.21401 1.07115 0
M  V30 3803 H 354.278 -4.04359 -0.16603 0
M  V30 3804 H 352.848 -3.06972 -0.590487 0
M  V30 3805 H 352.068 -3.47451 1.86203 0
M  V30 3806 H 353.356 -4.68643 1.98119 0
M  V30 3807 H 352.754 -5.55301 -1.07969 0
M  V30 3808 H 351.311 -6.4604 -0.86458 0
M  V30 3809 N 354.744 -0.972509 -1.24016 0
M  V30 3810 C 355.972 -0.654803 -1.96265 0
M  V30 3811 C 356.387 0.776708 -1.72083 0
M  V30 3812 O 355.744 1.52171 -1.00748 0
M  V30 3813 C 355.795 -0.92592 -3.49441 0
M  V30 3814 O 355.516 -2.30116 -3.72798 0
M  V30 3815 C 357.017 -0.623068 -4.38899 0
M  V30 3816 H 354.237 -0.243907 -0.6251 0
M  V30 3817 H 356.781 -1.30175 -1.57717 0
M  V30 3818 H 354.936 -0.325108 -3.86033 0
M  V30 3819 H 355.35 -2.38483 -4.67147 0
M  V30 3820 H 356.824 -0.863189 -5.45209 0
M  V30 3821 H 357.301 0.442754 -4.36963 0
M  V30 3822 H 357.907 -1.204 -4.07902 0
M  V30 3823 N 356.222 1.38976 -0.743202 0
M  V30 3824 C 357.638 1.53984 -0.419664 0
M  V30 3825 C 357.838 1.70837 1.0685 0
M  V30 3826 O 356.894 1.7135 1.8546 0
M  V30 3827 C 358.207 2.75287 -1.20985 0
M  V30 3828 C 359.755 2.89129 -1.19889 0
M  V30 3829 C 360.23 4.13381 -1.97181 0
M  V30 3830 N 361.721 4.20437 -1.94389 0
M  V30 3831 C 362.456 5.15547 -2.50996 0
M  V30 3832 N 361.952 6.16395 -3.16274 0
M  V30 3833 N 363.745 5.07822 -2.40984 0
M  V30 3834 H 355.896 1.26285 -1.7078 0
M  V30 3835 H 358.159 0.612689 -0.723406 0
M  V30 3836 H 357.865 2.69204 -2.26323 0
M  V30 3837 H 357.739 3.68184 -0.819759 0
M  V30 3838 H 360.126 2.947 -0.153606 0
M  V30 3839 H 360.207 1.97272 -1.62841 0
M  V30 3840 H 359.851 4.08572 -3.01714 0
M  V30 3841 H 359.781 5.04298 -1.51629 0
M  V30 3842 H 362.272 3.48205 -1.46839 0
M  V30 3843 H 362.585 6.85443 -3.56915 0
M  V30 3844 H 360.93 6.16758 -3.20367 0
M  V30 3845 H 364.121 4.27973 -1.89622 0
M  V30 3846 H 364.294 5.81767 -2.85397 0
M  V30 3847 N 357.7 0.491464 1.49741 0
M  V30 3848 C 358.61 -0.296835 2.32715 0
M  V30 3849 C 359.626 -0.976536 1.44013 0
M  V30 3850 O 360.802 -0.960023 1.77047 0
M  V30 3851 C 357.867 -1.35288 3.19215 0
M  V30 3852 C 356.928 -0.687632 4.23757 0
M  V30 3853 C 356.161 -1.69336 5.06123 0
M  V30 3854 O 356.384 -2.92219 4.89861 0
M  V30 3855 O 355.318 -1.25394 5.88693 0
M  V30 3856 H 359.144 0.382048 3.01287 0
M  V30 3857 H 356.729 0.252953 1.47243 0
M  V30 3858 H 358.611 -1.96411 3.72828 0
M  V30 3859 H 357.286 -2.01487 2.53347 0
M  V30 3860 H 356.193 -0.0369159 3.74082 0
M  V30 3861 H 357.526 -0.0682566 4.92153 0
M  V30 3862 N 359.178 -1.55987 0.224894 0
M  V30 3863 C 360.126 -2.21808 -0.700283 0
M  V30 3864 C 361.12 -1.19854 -1.19714 0
M  V30 3865 O 362.326 -1.37925 -1.15658 0
M  V30 3866 H 358.701 -0.711226 -0.244258 0
M  V30 3867 H 360.672 -2.98152 -0.121749 0
M  V30 3868 C 359.421 -2.91444 -1.8962 0
M  V30 3869 H 358.744 -3.69655 -1.52299 0
M  V30 3870 H 360.184 -3.40894 -2.52125 0
M  V30 3871 C 358.643 -1.94098 -2.75368 0
M  V30 3872 O 359.173 -1.46004 -3.74227 0
M  V30 3873 N 357.379 -1.61675 -2.41474 0
M  V30 3874 H 356.926 -2.00979 -1.61137 0
M  V30 3875 H 356.884 -0.968036 -2.99126 0
M  V30 3876 N 360.656 0.0484629 -1.57525 0
M  V30 3877 C 361.902 0.744226 -1.88651 0
M  V30 3878 C 362.235 1.76029 -0.820212 0
M  V30 3879 O 361.51 1.93782 0.166985 0
M  V30 3880 C 361.793 1.43128 -3.30434 0
M  V30 3881 C 361.646 0.43005 -4.47739 0
M  V30 3882 C 362.965 2.37031 -3.70816 0
M  V30 3883 H 360.084 0.269089 -0.68612 0
M  V30 3884 H 362.726 0.00713532 -1.89999 0
M  V30 3885 H 360.876 2.05956 -3.29415 0
M  V30 3886 H 362.548 -0.194816 -4.60888 0
M  V30 3887 H 360.791 -0.252522 -4.33064 0
M  V30 3888 H 361.462 0.948874 -5.43783 0
M  V30 3889 H 363.938 1.84263 -3.73077 0
M  V30 3890 H 362.814 2.82094 -4.70865 0
M  V30 3891 H 363.075 3.22864 -3.02012 0
M  V30 3892 N 362.134 1.5431 0.320358 0
M  V30 3893 C 363.064 1.86912 1.3995 0
M  V30 3894 C 364.045 0.726211 1.53819 0
M  V30 3895 O 365.23 0.980233 1.67646 0
M  V30 3896 C 362.36 2.09932 2.7667 0
M  V30 3897 C 361.314 3.25776 2.77586 0
M  V30 3898 C 360.64 3.34173 4.17412 0
M  V30 3899 C 361.94 4.6335 2.41048 0
M  V30 3900 H 363.634 2.77292 1.12914 0
M  V30 3901 H 361.18 1.33421 0.541738 0
M  V30 3902 H 363.133 2.31324 3.52232 0
M  V30 3903 H 361.857 1.16304 3.0519 0
M  V30 3904 H 360.516 3.04276 2.04479 0
M  V30 3905 H 360.164 2.38098 4.43078 0
M  V30 3906 H 359.864 4.12033 4.18931 0
M  V30 3907 H 361.388 3.57803 4.94782 0
M  V30 3908 H 362.802 4.84602 3.06324 0
M  V30 3909 H 361.199 5.43782 2.53813 0
M  V30 3910 H 362.269 4.65381 1.36193 0
M  V30 3911 N 363.613 -0.582584 1.46437 0
M  V30 3912 C 364.859 -1.34278 1.51978 0
M  V30 3913 C 365.192 -1.93446 0.170973 0
M  V30 3914 O 364.467 -1.76481 -0.817608 0
M  V30 3915 C 364.75 -2.47203 2.61845 0
M  V30 3916 C 364.603 -1.93069 4.06257 0
M  V30 3917 C 365.922 -3.49247 2.67795 0
M  V30 3918 H 363.041 -0.486876 0.553282 0
M  V30 3919 H 365.683 -0.654437 1.78374 0
M  V30 3920 H 363.833 -3.0592 2.39469 0
M  V30 3921 H 365.505 -1.38808 4.3992 0
M  V30 3922 H 363.748 -1.23898 4.1573 0
M  V30 3923 H 364.419 -2.74586 4.7886 0
M  V30 3924 H 366.895 -3.00411 2.8791 0
M  V30 3925 H 365.771 -4.25719 3.46489 0
M  V30 3926 H 366.032 -4.06482 1.73852 0
M  V30 3927 N 365.091 -1.34144 -0.827227 0
M  V30 3928 C 366.001 -1.27428 -1.96975 0
M  V30 3929 C 367.017 -0.182728 -1.73038 0
M  V30 3930 O 368.193 -0.408426 -1.97215 0
M  V30 3931 C 365.258 -1.02526 -3.31194 0
M  V30 3932 C 364.319 -2.20796 -3.68168 0
M  V30 3933 C 363.552 -1.97073 -4.95982 0
M  V30 3934 O 363.775 -0.926822 -5.6282 0
M  V30 3935 O 362.709 -2.83912 -5.30733 0
M  V30 3936 H 366.535 -2.23537 -2.05584 0
M  V30 3937 H 364.12 -1.14307 -0.961989 0
M  V30 3938 H 366.002 -0.904026 -4.11589 0
M  V30 3939 H 364.677 -0.0945389 -3.23562 0
M  V30 3940 H 363.584 -2.38477 -2.88235 0
M  V30 3941 H 364.917 -3.12243 -3.8048 0
M  V30 3942 N 366.569 1.04691 -1.17803 0
M  V30 3943 C 367.797 1.81446 -0.99423 0
M  V30 3944 C 368.212 1.83174 0.457459 0
M  V30 3945 O 367.569 1.26265 1.31771 0
M  V30 3946 C 367.62 3.27334 -1.5341 0
M  V30 3947 O 367.341 3.25798 -2.92895 0
M  V30 3948 C 368.842 4.20759 -1.39559 0
M  V30 3949 H 366.062 0.571599 -0.351447 0
M  V30 3950 H 368.606 1.31982 -1.56208 0
M  V30 3951 H 366.761 3.74052 -1.00815 0
M  V30 3952 H 367.175 4.17144 -3.17949 0
M  V30 3953 H 368.649 5.21084 -1.82141 0
M  V30 3954 H 369.126 4.37856 -0.343394 0
M  V30 3955 H 369.732 3.79901 -1.91195 0
M  V30 3956 N 368.047 0.979072 1.23499 0
M  V30 3957 C 368.977 0.537606 2.27227 0
M  V30 3958 C 369.958 -0.428539 1.64613 0
M  V30 3959 O 371.143 -0.322191 1.91509 0
M  V30 3960 C 368.273 -0.162052 3.46922 0
M  V30 3961 C 367.227 0.721242 4.21879 0
M  V30 3962 C 366.553 -0.110555 5.34586 0
M  V30 3963 C 367.853 2.01141 4.82016 0
M  V30 3964 H 369.547 1.40462 2.64406 0
M  V30 3965 H 367.093 0.67684 1.27102 0
M  V30 3966 H 369.046 -0.482192 4.18632 0
M  V30 3967 H 367.77 -1.06351 3.08799 0
M  V30 3968 H 366.429 1.02482 3.51984 0
M  V30 3969 H 366.077 -1.0125 4.92704 0
M  V30 3970 H 365.777 0.477325 5.85658 0
M  V30 3971 H 367.301 -0.425107 6.09118 0
M  V30 3972 H 368.715 1.75612 5.45741 0
M  V30 3973 H 367.112 2.54695 5.43369 0
M  V30 3974 H 368.182 2.69909 4.02836 0
M  V30 3975 N 369.525 -1.3858 0.750561 0
M  V30 3976 C 370.473 -2.32339 0.110162 0
M  V30 3977 C 371.467 -1.53864 -0.708674 0
M  V30 3978 O 372.673 -1.69417 -0.608112 0
M  V30 3979 H 369.048 -0.751812 0.0168275 0
M  V30 3980 H 371.019 -2.83959 0.917053 0
M  V30 3981 C 369.768 -3.39043 -0.771067 0
M  V30 3982 H 369.091 -3.99517 -0.150374 0
M  V30 3983 H 370.531 -4.07061 -1.1865 0
M  V30 3984 C 368.99 -2.77365 -1.91234 0
M  V30 3985 O 369.52 -2.66434 -3.00626 0
M  V30 3986 N 367.726 -2.35219 -1.70646 0
M  V30 3987 H 367.273 -2.4431 -0.81673 0
M  V30 3988 H 367.231 -1.94294 -2.47178 0
M  V30 3989 N 371.003 -0.499398 -1.49478 0
M  V30 3990 C 371.953 0.299103 -2.2603 0
M  V30 3991 C 372.937 0.936934 -1.30807 0
M  V30 3992 O 374.129 0.844798 -1.55538 0
M  V30 3993 C 371.258 1.36391 -3.15044 0
M  V30 3994 C 370.344 0.732398 -4.17728 0
M  V30 3995 N 370.735 -0.164028 -5.05534 0
M  V30 3996 C 369.033 0.993162 -4.34801 0
M  V30 3997 C 369.734 -0.525345 -5.79323 0
M  V30 3998 N 368.71 0.106348 -5.43496 0
M  V30 3999 H 372.512 -0.391003 -2.91287 0
M  V30 4000 H 370.026 -0.31537 -1.59308 0
M  V30 4001 H 372.023 1.94939 -3.68516 0
M  V30 4002 H 370.683 2.05571 -2.51338 0
M  V30 4003 H 371.694 -0.534736 -5.15132 0
M  V30 4004 H 368.371 1.67783 -3.82302 0
M  V30 4005 H 369.761 -1.25862 -6.60006 0
M  V30 4006 N 372.481 1.55866 -0.233164 0
M  V30 4007 C 373.391 2.24431 0.683217 0
M  V30 4008 C 374.407 1.2558 1.2044 0
M  V30 4009 O 375.583 1.58422 1.24356 0
M  V30 4010 C 372.648 2.91979 1.86947 0
M  V30 4011 C 371.709 4.06204 1.38912 0
M  V30 4012 C 370.942 4.70522 2.51883 0
M  V30 4013 O 371.165 4.33865 3.70293 0
M  V30 4014 O 370.099 5.59296 2.22423 0
M  V30 4015 H 373.925 3.03426 0.129059 0
M  V30 4016 H 371.51 1.494 -0.0022283 0
M  V30 4017 H 373.392 3.34573 2.56201 0
M  V30 4018 H 372.067 2.15935 2.41151 0
M  V30 4019 H 370.974 3.68155 0.664259 0
M  V30 4020 H 372.307 4.84025 0.893328 0
M  V30 4021 N 373.959 -0.0401083 1.57549 0
M  V30 4022 C 374.892 -1.07689 2.01192 0
M  V30 4023 C 375.87 -1.358 0.894273 0
M  V30 4024 O 377.054 -1.48642 1.15921 0
M  V30 4025 C 374.181 -2.41418 2.3756 0
M  V30 4026 C 373.227 -2.29237 3.59656 0
M  V30 4027 S 374.06 -1.65628 5.09242 0
M  V30 4028 C 375.216 -3.0087 5.48843 0
M  V30 4029 H 375.449 -0.705108 2.88817 0
M  V30 4030 H 372.982 -0.249724 1.52367 0
M  V30 4031 H 374.94 -3.18329 2.59186 0
M  V30 4032 H 373.601 -2.75747 1.50407 0
M  V30 4033 H 372.794 -3.27932 3.82722 0
M  V30 4034 H 372.396 -1.60469 3.37825 0
M  V30 4035 H 374.688 -3.97201 5.48851 0
M  V30 4036 H 375.631 -2.82549 6.49286 0
M  V30 4037 H 376.039 -3.02934 4.76331 0
M  V30 4038 N 375.437 -1.54477 -0.31217 0
M  V30 4039 C 376.667 -1.76948 -1.06645 0
M  V30 4040 C 377.075 -0.523593 -1.81811 0
M  V30 4041 O 376.418 0.51578 -1.76311 0
M  V30 4042 C 376.48 -2.91668 -2.10166 0
M  V30 4043 C 376.144 -4.30165 -1.54296 0
M  V30 4044 C 377.141 -5.10603 -0.978793 0
M  V30 4045 C 374.826 -4.76738 -1.58196 0
M  V30 4046 C 376.82 -6.3573 -0.461048 0
M  V30 4047 C 374.507 -6.01831 -1.06034 0
M  V30 4048 C 375.505 -6.81161 -0.500844 0
M  V30 4049 O 375.193 -8.03899 0.0128958 0
M  V30 4050 H 374.925 -0.594088 -0.322546 0
M  V30 4051 H 377.479 -2.02213 -0.360441 0
M  V30 4052 H 375.709 -2.62001 -2.84416 0
M  V30 4053 H 377.398 -3.01817 -2.71406 0
M  V30 4054 H 378.164 -4.75771 -0.941651 0
M  V30 4055 H 374.043 -4.15027 -2.00683 0
M  V30 4056 H 377.587 -6.97596 -0.0236894 0
M  V30 4057 H 373.484 -6.36152 -1.09459 0
M  V30 4058 H 374.252 -8.18437 -0.101457 0
M  V30 4059 N 376.915 0.57481 -1.46744 0
M  V30 4060 C 377.825 1.711 -1.60505 0
M  V30 4061 C 378.841 1.67008 -0.488307 0
M  V30 4062 O 380.017 1.86774 -0.753495 0
M  V30 4063 C 377.082 3.07608 -1.59932 0
M  V30 4064 C 376.143 3.22904 -2.82898 0
M  V30 4065 C 375.376 4.529 -2.82343 0
M  V30 4066 O 375.599 5.37278 -1.91542 0
M  V30 4067 O 374.533 4.71611 -3.73987 0
M  V30 4068 H 378.359 1.62436 -2.56609 0
M  V30 4069 H 375.944 0.742779 -1.29627 0
M  V30 4070 H 377.826 3.88877 -1.62336 0
M  V30 4071 H 376.501 3.16692 -0.669898 0
M  V30 4072 H 375.408 2.41099 -2.86046 0
M  V30 4073 H 376.741 3.18715 -3.75076 0
M  V30 4074 N 378.394 1.34581 0.820102 0
M  V30 4075 C 379.357 1.2628 1.91275 0
M  V30 4076 C 380.357 0.177344 1.59819 0
M  V30 4077 O 381.547 0.430156 1.68806 0
M  V30 4078 C 378.679 0.950327 3.27386 0
M  V30 4079 H 379.872 2.23421 2.00057 0
M  V30 4080 H 377.425 1.1891 1.0144 0
M  V30 4081 H 378.16 -0.0177938 3.24295 0
M  V30 4082 H 377.945 1.73549 3.51601 0
M  V30 4083 H 379.435 0.917492 4.07396 0
M  V30 4084 N 379.872 -1.04064 1.18357 0
M  V30 4085 C 380.819 -2.12077 0.910603 0
M  V30 4086 C 381.789 -1.65421 -0.15 0
M  V30 4087 O 382.974 -1.90797 -0.0103614 0
M  V30 4088 C 380.114 -3.42252 0.442472 0
M  V30 4089 C 379.227 -4.0252 1.5685 0
M  V30 4090 C 378.362 -5.20657 1.05309 0
M  V30 4091 C 377.401 -5.72955 2.1538 0
M  V30 4092 N 376.538 -6.8238 1.65233 0
M  V30 4093 H 381.378 -2.34764 1.83548 0
M  V30 4094 H 378.915 -1.15157 0.915279 0
M  V30 4095 H 380.873 -4.16921 0.152534 0
M  V30 4096 H 379.503 -3.19712 -0.445428 0
M  V30 4097 H 378.555 -3.25178 1.97391 0
M  V30 4098 H 379.867 -4.37362 2.39824 0
M  V30 4099 H 379.021 -6.0244 0.717677 0
M  V30 4100 H 377.76 -4.87318 0.19293 0
M  V30 4101 H 376.765 -4.89793 2.49766 0
M  V30 4102 H 377.99 -6.08337 3.01832 0
M  V30 4103 H 375.936 -6.50917 0.815064 0
M  V30 4104 H 375.853 -7.16286 2.41805 0
M  V30 4105 H 377.121 -7.67788 1.34619 0
M  V30 4106 N 381.35 -0.985608 -1.22978 0
M  V30 4107 C 382.58 -0.674603 -1.95276 0
M  V30 4108 C 382.988 0.763483 -1.73111 0
M  V30 4109 O 382.331 1.52601 -1.02268 0
M  V30 4110 C 382.393 -0.891597 -3.48268 0
M  V30 4111 C 382.057 -2.31275 -3.94158 0
M  V30 4112 C 383.054 -3.29179 -4.02415 0
M  V30 4113 C 380.739 -2.64524 -4.27004 0
M  V30 4114 C 382.733 -4.58407 -4.42879 0
M  V30 4115 C 380.42 -3.93974 -4.67149 0
M  V30 4116 C 381.418 -4.90727 -4.75053 0
M  V30 4117 O 381.106 -6.17865 -5.14294 0
M  V30 4118 H 380.838 -0.249251 -0.628371 0
M  V30 4119 H 383.392 -1.32106 -1.5728 0
M  V30 4120 H 381.622 -0.187962 -3.86243 0
M  V30 4121 H 383.311 -0.576957 -4.01779 0
M  V30 4122 H 384.077 -3.04823 -3.77237 0
M  V30 4123 H 379.956 -1.89923 -4.2006 0
M  V30 4124 H 383.5 -5.33926 -4.48964 0
M  V30 4125 H 379.397 -4.18122 -4.91777 0
M  V30 4126 H 380.165 -6.21694 -5.32389 0
M  V30 4127 N 382.828 1.3818 -0.7579 0
M  V30 4128 C 384.074 2.00316 -0.316453 0
M  V30 4129 C 384.407 1.60026 1.10025 0
M  V30 4130 O 383.682 0.839835 1.75434 0
M  V30 4131 C 383.965 3.57349 -0.444245 0
M  V30 4132 C 383.818 4.07591 -1.90236 0
M  V30 4133 C 385.137 4.3981 0.1598 0
M  V30 4134 H 382.256 0.727741 -0.116459 0
M  V30 4135 H 384.898 1.6406 -0.958352 0
M  V30 4136 H 383.048 3.88365 0.102233 0
M  V30 4137 H 384.72 3.87199 -2.50748 0
M  V30 4138 H 382.963 3.60297 -2.41595 0
M  V30 4139 H 383.634 5.16677 -1.94291 0
M  V30 4140 H 386.11 4.14971 -0.306314 0
M  V30 4141 H 384.986 5.48885 0.0401675 0
M  V30 4142 H 385.247 4.24102 1.24859 0
M  V30 4143 N 384.306 0.507319 1.49211 0
M  V30 4144 C 385.555 -0.0368315 2.01666 0
M  V30 4145 C 385.868 -1.37459 1.39156 0
M  V30 4146 O 387.074 -2.00579 1.82976 0
M  V30 4147 C 385.53 -0.116089 3.59713 0
M  V30 4148 C 385.138 1.2154 4.31198 0
M  V30 4149 C 386.882 -0.610268 4.2009 0
M  V30 4150 C 384.789 1.09796 5.81119 0
M  V30 4151 H 383.719 -0.0175376 0.753796 0
M  V30 4152 H 386.37 0.647691 1.71689 0
M  V30 4153 H 384.752 -0.8652 3.86433 0
M  V30 4154 H 385.926 1.9783 4.16173 0
M  V30 4155 H 384.241 1.64352 3.82593 0
M  V30 4156 H 386.838 -0.715742 5.29888 0
M  V30 4157 H 387.181 -1.61064 3.8388 0
M  V30 4158 H 387.714 0.0824916 3.97714 0
M  V30 4159 H 384.453 2.0728 6.21864 0
M  V30 4160 H 383.973 0.376058 5.9862 0
M  V30 4161 H 385.652 0.779281 6.4229 0
M  V30 4162 N 385.784 -1.5574 0.241426 0
M  V30 4163 C 387.009 -2.0366 -0.392111 0
M  V30 4164 C 387.434 -1.11969 -1.51144 0
M  V30 4165 O 386.792 -0.111594 -1.80956 0
M  V30 4166 C 386.84 -3.49638 -0.882371 0
M  V30 4167 O 385.944 -3.6108 -1.99235 0
M  V30 4168 H 385.285 -0.658379 -0.0862122 0
M  V30 4169 H 387.815 -2.01302 0.365881 0
M  V30 4170 H 387.825 -3.90351 -1.18702 0
M  V30 4171 H 386.5 -4.15852 -0.0632361 0
M  V30 4172 H 385.077 -3.32262 -1.69282 0
M  V30 4173 N 387.262 0.0317525 -1.57568 0
M  V30 4174 C 388.225 1.01783 -2.0536 0
M  V30 4175 C 389.225 1.29203 -0.957253 0
M  V30 4176 O 390.415 1.24251 -1.22095 0
M  V30 4177 C 387.547 2.35137 -2.46827 0
M  V30 4178 H 388.74 0.605062 -2.93733 0
M  V30 4179 H 386.293 0.278514 -1.53799 0
M  V30 4180 H 387.028 2.81168 -1.61602 0
M  V30 4181 H 386.813 2.16566 -3.26866 0
M  V30 4182 H 388.303 3.05938 -2.84239 0
M  V30 4183 N 388.74 1.54641 0.303973 0
M  V30 4184 C 389.989 1.7299 1.03717 0
M  V30 4185 C 390.302 0.521168 1.88529 0
M  V30 4186 O 391.508 0.586408 2.65092 0
M  V30 4187 C 389.964 3.06051 1.89369 0
M  V30 4188 C 389.572 4.34393 1.09574 0
M  V30 4189 C 391.316 3.3376 2.62306 0
M  V30 4190 C 389.223 5.58506 1.94486 0
M  V30 4191 H 388.153 0.64473 0.390947 0
M  V30 4192 H 390.804 1.81124 0.294328 0
M  V30 4193 H 389.186 2.91874 2.67629 0
M  V30 4194 H 390.36 4.59396 0.359485 0
M  V30 4195 H 388.675 4.13597 0.482324 0
M  V30 4196 H 391.272 4.23687 3.26181 0
M  V30 4197 H 391.615 2.52503 3.3098 0
M  V30 4198 H 392.148 3.48894 1.91097 0
M  V30 4199 H 388.887 6.42422 1.30287 0
M  V30 4200 H 388.407 5.37694 2.65792 0
M  V30 4201 H 390.086 5.95651 2.52605 0
M  V30 4202 N 390.218 -0.567019 1.47046 0
M  V30 4203 C 391.629 -1.14916 1.47143 0
M  V30 4204 C 391.98 -1.94954 0.220767 0
M  V30 4205 O 391.105 -2.05602 -0.67505 0
M  V30 4206 C 391.7 -2.09069 2.666 0
M  V30 4207 C 390.259 -2.62575 2.69687 0
M  V30 4208 C 389.406 -1.38755 2.40088 0
M  V30 4209 H 392.357 -0.354126 1.54699 0
M  V30 4210 H 392.378 -2.92789 2.43011 0
M  V30 4211 H 391.89 -1.50789 3.57609 0
M  V30 4212 H 389.991 -3.24681 1.82792 0
M  V30 4213 H 390.104 -3.04239 3.70102 0
M  V30 4214 H 388.468 -1.69098 1.90468 0
M  V30 4215 H 389.251 -0.822822 3.33293 0
M  V30 4216 N 391.696 -1.35014 -0.812953 0
M  V30 4217 C 393.107 -1.25035 -1.38648 0
M  V30 4218 C 393.458 0.119967 -1.95833 0
M  V30 4219 O 392.583 1.02069 -1.90816 0
M  V30 4220 C 393.178 -2.26394 -2.52054 0
M  V30 4221 C 391.737 -2.20175 -3.05287 0
M  V30 4222 C 390.884 -2.12451 -1.78213 0
M  V30 4223 H 393.835 -1.46235 -0.616516 0
M  V30 4224 H 393.856 -1.88672 -3.30429 0
M  V30 4225 H 393.368 -3.26116 -2.10404 0
M  V30 4226 H 391.469 -1.23841 -3.51417 0
M  V30 4227 H 391.582 -3.11863 -3.63701 0
M  V30 4228 H 389.946 -1.58328 -1.9951 0
M  V30 4229 H 390.729 -3.14024 -1.38723 0
M  V30 4230 N 393.175 1.03435 -1.18907 0
M  V30 4231 C 394.403 1.80381 -1.01342 0
M  V30 4232 C 394.818 1.83649 0.438005 0
M  V30 4233 O 394.175 1.27655 1.30424 0
M  V30 4234 C 394.226 3.25689 -1.56873 0
M  V30 4235 O 393.947 3.22673 -2.96334 0
M  V30 4236 C 395.448 4.19255 -1.44014 0
M  V30 4237 H 392.668 0.56784 -0.35749 0
M  V30 4238 H 395.212 1.30317 -1.576 0
M  V30 4239 H 393.367 3.72962 -1.04777 0
M  V30 4240 H 393.781 4.13748 -3.22355 0
M  V30 4241 H 395.255 5.19123 -1.87657 0
M  V30 4242 H 395.732 4.37467 -0.389815 0
M  V30 4243 H 396.338 3.77851 -1.95214 0
M  V30 4244 N 394.653 0.992116 1.22453 0
M  V30 4245 C 395.583 0.561677 2.26644 0
M  V30 4246 C 396.564 -0.411055 1.65059 0
M  V30 4247 O 397.749 -0.301861 1.9184 0
M  V30 4248 C 394.879 -0.125247 3.47074 0
M  V30 4249 C 393.833 0.765948 4.21091 0
M  V30 4250 C 393.159 -0.0538484 5.34673 0
M  V30 4251 C 394.459 2.06242 4.79856 0
M  V30 4252 H 396.153 1.43259 2.62902 0
M  V30 4253 H 393.699 0.690283 1.26377 0
M  V30 4254 H 395.652 -0.437764 4.1912 0
M  V30 4255 H 394.376 -1.03069 3.0991 0
M  V30 4256 H 393.035 1.0621 3.50878 0
M  V30 4257 H 392.683 -0.960188 4.9375 0
M  V30 4258 H 392.383 0.539415 5.85119 0
M  V30 4259 H 393.907 -0.360477 6.09535 0
M  V30 4260 H 395.321 1.8139 5.43848 0
M  V30 4261 H 393.718 2.60444 5.40638 0
M  V30 4262 H 394.788 2.74167 3.99951 0
M  V30 4263 N 396.131 -1.37776 0.765217 0
M  V30 4264 C 397.379 -1.99454 0.325943 0
M  V30 4265 C 397.7 -1.61049 -1.09947 0
M  V30 4266 O 396.97 -0.872821 -1.75381 0
M  V30 4267 H 395.55 -0.737697 0.117525 0
M  V30 4268 H 398.212 -1.68359 0.981895 0
M  V30 4269 H 397.308 -3.09547 0.398353 0
M  V30 4270 N 397.609 -0.515225 -1.4894 0
M  V30 4271 C 398.542 0.302518 -2.26186 0
M  V30 4272 C 399.52 0.957895 -1.31389 0
M  V30 4273 O 400.704 0.985198 -1.60705 0
M  V30 4274 C 397.831 1.42719 -3.07163 0
M  V30 4275 C 396.877 0.884736 -4.17223 0
M  V30 4276 S 397.71 -0.235767 -5.34981 0
M  V30 4277 C 398.866 0.891731 -6.19515 0
M  V30 4278 H 399.099 -0.353076 -2.95196 0
M  V30 4279 H 396.632 -0.300753 -1.51443 0
M  V30 4280 H 398.59 2.07152 -3.54398 0
M  V30 4281 H 397.251 2.05445 -2.37595 0
M  V30 4282 H 396.444 1.72801 -4.73451 0
M  V30 4283 H 396.046 0.317362 -3.72651 0
M  V30 4284 H 398.338 1.79377 -6.53322 0
M  V30 4285 H 399.281 0.367751 -7.07144 0
M  V30 4286 H 399.689 1.16548 -5.52338 0
M  V30 4287 N 399.087 1.5561 -0.249682 0
M  V30 4288 C 400.034 2.21496 0.648694 0
M  V30 4289 C 401.004 1.17977 1.16921 0
M  V30 4290 O 402.189 1.46434 1.22318 0
M  V30 4291 C 399.329 2.92039 1.83868 0
M  V30 4292 C 398.442 4.10219 1.35442 0
M  V30 4293 C 397.577 4.6847 2.50419 0
M  V30 4294 C 396.616 5.78893 1.98869 0
M  V30 4295 N 395.753 6.31315 3.07223 0
M  V30 4296 H 400.593 2.97892 0.0801582 0
M  V30 4297 H 398.13 1.47074 0.0278031 0
M  V30 4298 H 400.088 3.31138 2.53778 0
M  V30 4299 H 398.718 2.18111 2.37965 0
M  V30 4300 H 397.77 3.76413 0.54928 0
M  V30 4301 H 399.082 4.89927 0.936649 0
M  V30 4302 H 398.236 5.10158 3.28366 0
M  V30 4303 H 396.975 3.87984 2.95499 0
M  V30 4304 H 395.98 5.3668 1.19393 0
M  V30 4305 H 397.205 6.61232 1.54755 0
M  V30 4306 H 395.151 5.53733 3.51732 0
M  V30 4307 H 395.068 7.06224 2.69784 0
M  V30 4308 H 396.336 6.77662 3.8522 0
M  V30 4309 N 400.565 -0.0233959 1.57583 0
M  V30 4310 C 401.814 -0.712133 1.8871 0
M  V30 4311 C 402.127 -1.76217 0.848944 0
M  V30 4312 O 403.333 -2.50389 1.04964 0
M  V30 4313 C 401.789 -1.3177 3.3491 0
M  V30 4314 C 401.397 -0.303715 4.46969 0
M  V30 4315 C 403.141 -1.98598 3.75179 0
M  V30 4316 C 401.048 -0.917945 5.84233 0
M  V30 4317 H 399.978 -0.269735 0.704101 0
M  V30 4318 H 402.629 0.0333114 1.8347 0
M  V30 4319 H 401.011 -2.11304 3.34913 0
M  V30 4320 H 402.185 0.465325 4.58445 0
M  V30 4321 H 400.5 0.2628 4.1557 0
M  V30 4322 H 403.097 -2.45416 4.75053 0
M  V30 4323 H 403.44 -2.80659 3.07468 0
M  V30 4324 H 403.973 -1.25831 3.77374 0
M  V30 4325 H 400.712 -0.136633 6.55358 0
M  V30 4326 H 400.232 -1.65669 5.76467 0
M  V30 4327 H 401.911 -1.4236 6.31144 0
M  V30 4328 N 402.043 -1.548 -0.295768 0
M  V30 4329 C 402.993 -1.82497 -1.3667 0
M  V30 4330 C 403.977 -0.682434 -1.45711 0
M  V30 4331 O 405.169 -0.943207 -1.49775 0
M  V30 4332 C 402.298 -2.08036 -2.73086 0
M  V30 4333 C 401.384 -3.28488 -2.68247 0
M  V30 4334 N 401.775 -4.48924 -2.33025 0
M  V30 4335 C 400.073 -3.3062 -2.99343 0
M  V30 4336 C 400.774 -5.30956 -2.37613 0
M  V30 4337 N 399.75 -4.68805 -2.75178 0
M  V30 4338 H 403.552 -2.73175 -1.0841 0
M  V30 4339 H 401.066 -1.5437 -0.504361 0
M  V30 4340 H 403.063 -2.26027 -3.5031 0
M  V30 4341 H 401.723 -1.18629 -3.02254 0
M  V30 4342 H 402.734 -4.75432 -2.05389 0
M  V30 4343 H 399.411 -2.51336 -3.33371 0
M  V30 4344 H 400.801 -6.37199 -2.13135 0
M  V30 4345 N 403.521 0.559213 -1.47345 0
M  V30 4346 C 404.768 1.31648 -1.53867 0
M  V30 4347 C 405.096 1.93468 -0.200104 0
M  V30 4348 O 404.351 1.78295 0.806799 0
M  V30 4349 C 404.65 2.44853 -2.6035 0
M  V30 4350 C 404.316 2.00876 -4.03683 0
M  V30 4351 C 402.978 1.88599 -4.42701 0
M  V30 4352 C 405.33 1.67279 -4.93626 0
M  V30 4353 C 402.658 1.41017 -5.69501 0
M  V30 4354 C 405.01 1.21169 -6.20887 0
M  V30 4355 C 403.674 1.07487 -6.58789 0
M  V30 4356 H 402.944 0.481734 -0.56304 0
M  V30 4357 H 405.591 0.627301 -1.80934 0
M  V30 4358 H 403.896 3.19318 -2.27032 0
M  V30 4359 H 405.593 3.03039 -2.62619 0
M  V30 4360 H 402.183 2.11374 -3.72853 0
M  V30 4361 H 406.367 1.75638 -4.64182 0
M  V30 4362 H 401.623 1.29086 -5.97618 0
M  V30 4363 H 405.797 0.942345 -6.89995 0
M  V30 4364 H 403.424 0.703946 -7.56934 0
M  V30 4365 N 404.999 1.35443 0.805782 0
M  V30 4366 C 405.947 1.28465 1.93906 0
M  V30 4367 C 406.941 0.17943 1.68447 0
M  V30 4368 O 408.147 0.345459 1.76654 0
M  V30 4369 H 404.522 0.399528 0.637088 0
M  V30 4370 H 406.493 2.24206 1.96912 0
M  V30 4371 C 405.242 1.07432 3.30687 0
M  V30 4372 H 404.565 1.91716 3.50835 0
M  V30 4373 H 406.005 1.06591 4.10383 0
M  V30 4374 C 404.464 -0.22179 3.36169 0
M  V30 4375 O 404.994 -1.21731 3.82811 0
M  V30 4376 N 403.2 -0.260841 2.89427 0
M  V30 4377 H 402.747 0.549884 2.51663 0
M  V30 4378 H 402.705 -1.12777 2.93477 0
M  V30 4379 N 406.477 -1.02803 1.19454 0
M  V30 4380 C 407.888 -1.57667 0.999899 0
M  V30 4381 C 408.239 -1.91041 -0.446956 0
M  V30 4382 O 407.364 -1.70978 -1.32648 0
M  V30 4383 C 407.959 -2.86477 1.80877 0
M  V30 4384 C 406.518 -3.37911 1.65811 0
M  V30 4385 C 405.665 -2.11343 1.79526 0
M  V30 4386 H 408.616 -0.853214 1.33813 0
M  V30 4387 H 408.637 -3.57408 1.30536 0
M  V30 4388 H 408.149 -2.62155 2.86175 0
M  V30 4389 H 406.25 -3.67218 0.63102 0
M  V30 4390 H 406.363 -4.10885 2.46395 0
M  V30 4391 H 404.727 -2.23254 1.22596 0
M  V30 4392 H 405.51 -1.89461 2.86285 0
M  V30 4393 N 407.956 -0.998596 -1.21925 0
M  V30 4394 C 409.367 -0.711939 -1.72593 0
M  V30 4395 C 409.718 0.770842 -1.80423 0
M  V30 4396 O 408.843 1.60237 -1.4544 0
M  V30 4397 C 409.438 -1.28567 -3.13458 0
M  V30 4398 C 407.997 -1.04828 -3.61508 0
M  V30 4399 C 407.144 -1.4024 -2.39224 0
M  V30 4400 H 410.095 -1.17027 -1.07193 0
M  V30 4401 H 410.116 -0.667098 -3.74607 0
M  V30 4402 H 409.628 -2.36486 -3.07727 0
M  V30 4403 H 407.729 0.0140383 -3.72597 0
M  V30 4404 H 407.842 -1.71566 -4.47328 0
M  V30 4405 H 406.206 -0.821077 -2.41103 0
M  V30 4406 H 406.989 -2.49176 -2.36149 0
M  V30 4407 N 409.434 1.37368 -0.772513 0
M  V30 4408 C 410.364 2.32856 -0.173304 0
M  V30 4409 C 411.345 1.55818 0.682262 0
M  V30 4410 O 412.53 1.84052 0.619566 0
M  V30 4411 C 409.66 3.40048 0.706007 0
M  V30 4412 C 408.614 4.27973 -0.0483144 0
M  V30 4413 C 407.94 5.26184 0.950491 0
M  V30 4414 C 409.24 5.07665 -1.22776 0
M  V30 4415 H 410.934 2.83217 -0.971002 0
M  V30 4416 H 408.48 1.3617 -0.468377 0
M  V30 4417 H 410.433 4.05827 1.13501 0
M  V30 4418 H 409.157 2.88214 1.53623 0
M  V30 4419 H 407.816 3.63726 -0.458107 0
M  V30 4420 H 407.464 4.7063 1.77529 0
M  V30 4421 H 407.164 5.85872 0.450314 0
M  V30 4422 H 408.688 5.94838 1.37842 0
M  V30 4423 H 410.102 5.66578 -0.875366 0
M  V30 4424 H 408.499 5.76681 -1.66007 0
M  V30 4425 H 409.569 4.40294 -2.03149 0
M  V30 4426 N 410.912 0.523116 1.48665 0
M  V30 4427 C 412.323 0.0808997 1.86525 0
M  V30 4428 C 412.674 -1.33975 1.43336 0
M  V30 4429 O 411.799 -2.00221 0.821009 0
M  V30 4430 C 412.394 0.140037 3.3851 0
M  V30 4431 C 410.953 -0.246948 3.75589 0
M  V30 4432 C 410.1 0.502845 2.72703 0
M  V30 4433 H 413.051 0.734736 1.40667 0
M  V30 4434 H 413.072 -0.649945 3.74908 0
M  V30 4435 H 412.584 1.17412 3.69914 0
M  V30 4436 H 410.685 -1.28343 3.49798 0
M  V30 4437 H 410.798 0.0878859 4.79019 0
M  V30 4438 H 409.162 -0.0500581 2.54651 0
M  V30 4439 H 409.945 1.53743 3.0695 0
M  V30 4440 N 412.39 -1.55475 0.257931 0
M  V30 4441 C 413.323 -2.179 -0.677862 0
M  V30 4442 C 414.301 -1.13448 -1.16483 0
M  V30 4443 O 415.485 -1.41889 -1.24095 0
M  V30 4444 C 412.612 -2.78851 -1.92249 0
M  V30 4445 C 411.658 -3.96454 -1.57246 0
M  V30 4446 S 412.491 -5.31349 -0.665501 0
M  V30 4447 C 413.647 -5.9576 -1.91889 0
M  V30 4448 H 413.88 -2.96934 -0.147396 0
M  V30 4449 H 411.413 -1.54342 0.0423023 0
M  V30 4450 H 413.371 -3.14602 -2.63697 0
M  V30 4451 H 412.032 -1.99742 -2.42409 0
M  V30 4452 H 411.225 -4.37731 -2.49814 0
M  V30 4453 H 410.827 -3.62038 -0.938325 0
M  V30 4454 H 413.119 -6.13947 -2.86487 0
M  V30 4455 H 414.062 -6.9094 -1.54942 0
M  V30 4456 H 414.47 -5.2494 -2.076 0
M  V30 4457 N 413.868 0.0150385 -1.57593 0
M  V30 4458 C 414.801 1.04475 -2.0288 0
M  V30 4459 C 415.779 1.3436 -0.915764 0
M  V30 4460 O 416.963 1.46779 -1.18271 0
M  V30 4461 C 414.09 2.37608 -2.41371 0
M  V30 4462 C 413.136 2.23487 -3.63257 0
M  V30 4463 S 413.969 1.57505 -5.11813 0
M  V30 4464 C 415.125 2.921 -5.5356 0
M  V30 4465 H 415.358 0.65907 -2.89903 0
M  V30 4466 H 412.891 0.225452 -1.52745 0
M  V30 4467 H 414.849 3.14165 -2.64217 0
M  V30 4468 H 413.51 2.7332 -1.54775 0
M  V30 4469 H 412.703 3.21802 -3.87891 0
M  V30 4470 H 412.305 1.55074 -3.40335 0
M  V30 4471 H 414.597 3.88419 -5.55101 0
M  V30 4472 H 415.54 2.72184 -6.53698 0
M  V30 4473 H 415.948 2.95318 -4.8109 0
M  V30 4474 N 415.346 1.54954 0.287554 0
M  V30 4475 C 416.762 1.46469 0.633964 0
M  V30 4476 C 416.962 0.666865 1.90145 0
M  V30 4477 O 416.018 0.179906 2.51858 0
M  V30 4478 C 417.331 2.90556 0.774454 0
M  V30 4479 C 418.879 3.00681 0.869462 0
M  V30 4480 C 419.354 4.45993 1.04184 0
M  V30 4481 N 420.845 4.4976 1.10772 0
M  V30 4482 C 421.58 5.59393 1.25964 0
M  V30 4483 N 421.076 6.78923 1.37968 0
M  V30 4484 N 422.869 5.47107 1.28959 0
M  V30 4485 H 415.02 2.05288 -0.545041 0
M  V30 4486 H 417.283 0.930305 -0.182308 0
M  V30 4487 H 416.989 3.51594 -0.086207 0
M  V30 4488 H 416.863 3.38743 1.6593 0
M  V30 4489 H 419.25 2.39749 1.7206 0
M  V30 4490 H 419.331 2.55769 -0.0396831 0
M  V30 4491 H 418.975 5.07524 0.195422 0
M  V30 4492 H 418.905 4.88548 1.96542 0
M  V30 4493 H 421.396 3.63651 1.02794 0
M  V30 4494 H 421.709 7.58231 1.49353 0
M  V30 4495 H 420.054 6.81763 1.34999 0
M  V30 4496 H 423.245 4.52668 1.19202 0
M  V30 4497 H 423.418 6.32595 1.40455 0
M  V30 4498 N 416.824 -0.551391 1.4764 0
M  V30 4499 C 417.772 -1.67896 1.60978 0
M  V30 4500 C 418.766 -1.62549 0.476877 0
M  V30 4501 O 419.972 -1.67664 0.654878 0
M  V30 4502 H 416.347 -0.555649 0.506713 0
M  V30 4503 H 418.318 -1.53784 2.55721 0
M  V30 4504 C 417.067 -3.06234 1.64669 0
M  V30 4505 H 416.39 -3.11033 2.51194 0
M  V30 4506 H 417.83 -3.84804 1.7805 0
M  V30 4507 C 416.289 -3.34737 0.381115 0
M  V30 4508 O 416.819 -3.98381 -0.515297 0
M  V30 4509 N 415.025 -2.8944 0.259354 0
M  V30 4510 H 414.572 -2.37827 0.98976 0
M  V30 4511 H 414.53 -3.08882 -0.586464 0
M  V30 4512 N 418.302 -1.35869 -0.798587 0
M  V30 4513 C 419.234 -1.25305 -1.91915 0
M  V30 4514 C 420.247 -0.174548 -1.61862 0
M  V30 4515 O 421.436 -0.428499 -1.73281 0
M  V30 4516 C 418.536 -0.9086 -3.26493 0
M  V30 4517 C 417.709 -2.08711 -3.84394 0
M  V30 4518 C 416.768 -1.71717 -4.97393 0
M  V30 4519 O 415.794 -2.43692 -5.14396 0
M  V30 4520 N 416.996 -0.645473 -5.769 0
M  V30 4521 H 419.761 -2.21849 -2.01502 0
M  V30 4522 H 417.322 -1.29143 -0.976408 0
M  V30 4523 H 419.314 -0.642455 -3.99568 0
M  V30 4524 H 417.884 -0.0325815 -3.12583 0
M  V30 4525 H 417.104 -2.51659 -3.03416 0
M  V30 4526 H 418.392 -2.87468 -4.19809 0
M  V30 4527 H 417.79 -0.047648 -5.6568 0
M  V30 4528 H 416.347 -0.43913 -6.50319 0
M  V30 4529 N 419.78 1.02168 -1.19998 0
M  V30 4530 C 420.713 2.10232 -0.887558 0
M  V30 4531 C 421.691 1.61827 0.158317 0
M  V30 4532 O 422.875 1.88471 0.0330249 0
M  V30 4533 C 420.002 3.37092 -0.32964 0
M  V30 4534 C 419.048 4.0438 -1.3557 0
M  V30 4535 S 419.881 4.48956 -2.91888 0
M  V30 4536 C 421.037 5.79024 -2.37658 0
M  V30 4537 H 421.27 2.36409 -1.80272 0
M  V30 4538 H 418.803 1.15211 -1.0279 0
M  V30 4539 H 420.761 4.10498 -0.0142824 0
M  V30 4540 H 419.422 3.08996 0.563941 0
M  V30 4541 H 418.615 4.95632 -0.9146 0
M  V30 4542 H 418.217 3.37176 -1.61828 0
M  V30 4543 H 420.509 6.53942 -1.77103 0
M  V30 4544 H 421.452 6.27924 -3.27287 0
M  V30 4545 H 421.86 5.35043 -1.79971 0
M  V30 4546 N 421.258 1.00505 1.21394 0
M  V30 4547 C 422.507 0.683159 1.89778 0
M  V30 4548 C 422.82 -0.789471 1.7896 0
M  V30 4549 O 424.026 -1.22344 2.42372 0
M  V30 4550 C 422.482 1.17146 3.40301 0
M  V30 4551 C 422.09 2.67017 3.5973 0
M  V30 4552 C 423.834 0.924461 4.14311 0
M  V30 4553 C 421.741 3.09387 5.04017 0
M  V30 4554 H 420.671 0.25183 0.710702 0
M  V30 4555 H 423.322 1.21622 1.37406 0
M  V30 4556 H 421.704 0.566451 3.91928 0
M  V30 4557 H 422.878 3.32968 3.18542 0
M  V30 4558 H 421.193 2.89732 2.99073 0
M  V30 4559 H 423.79 1.21658 5.20676 0
M  V30 4560 H 424.133 -0.139286 4.16067 0
M  V30 4561 H 424.666 1.49226 3.6875 0
M  V30 4562 H 421.405 4.14989 5.07409 0
M  V30 4563 H 420.925 2.48149 5.46061 0
M  V30 4564 H 422.604 3.01371 5.72525 0
M  V30 4565 N 422.737 -1.36956 0.779787 0
M  V30 4566 C 423.965 -2.03755 0.359398 0
M  V30 4567 C 424.38 -1.58807 -1.02106 0
M  V30 4568 O 423.737 -0.773024 -1.6532 0
M  V30 4569 C 423.788 -3.59251 0.402568 0
M  V30 4570 O 423.509 -4.02557 1.72858 0
M  V30 4571 C 425.01 -4.43291 -0.0284068 0
M  V30 4572 H 422.23 -0.654148 0.149437 0
M  V30 4573 H 424.774 -1.75128 1.05595 0
M  V30 4574 H 422.929 -3.86621 -0.245478 0
M  V30 4575 H 423.343 -4.97111 1.67275 0
M  V30 4576 H 424.817 -5.51975 0.0529466 0
M  V30 4577 H 425.294 -4.25719 -1.07982 0
M  V30 4578 H 425.9 -4.21163 0.591758 0
M  V30 4579 N 424.215 -0.530993 -1.48385 0
M  V30 4580 C 425.631 -0.188919 -1.58478 0
M  V30 4581 C 425.831 1.30786 -1.53288 0
M  V30 4582 O 424.887 2.08619 -1.42248 0
M  V30 4583 C 426.2 -0.792343 -2.90073 0
M  V30 4584 C 427.748 -0.76117 -3.03604 0
M  V30 4585 C 428.223 -1.34319 -4.37861 0
M  V30 4586 N 429.714 -1.3052 -4.44431 0
M  V30 4587 C 430.449 -1.72543 -5.46824 0
M  V30 4588 N 429.945 -2.22299 -6.56167 0
M  V30 4589 N 431.738 -1.63773 -5.37712 0
M  V30 4590 H 423.889 -1.50377 -1.50002 0
M  V30 4591 H 426.152 -0.625559 -0.712306 0
M  V30 4592 H 425.858 -1.84323 -2.99529 0
M  V30 4593 H 425.732 -0.270026 -3.76232 0
M  V30 4594 H 428.119 0.280957 -2.93759 0
M  V30 4595 H 428.2 -1.32097 -2.19053 0
M  V30 4596 H 427.844 -2.38425 -4.4846 0
M  V30 4597 H 427.774 -0.759064 -5.21101 0
M  V30 4598 H 430.265 -0.940973 -3.65997 0
M  V30 4599 H 430.578 -2.52356 -7.30436 0
M  V30 4600 H 428.923 -2.26293 -6.57127 0
M  V30 4601 H 432.114 -1.24698 -4.51185 0
M  V30 4602 H 432.287 -1.96844 -6.17379 0
M  V30 4603 N 425.693 1.55336 -0.266172 0
M  V30 4604 C 426.939 1.99692 0.353681 0
M  V30 4605 C 427.272 1.1543 1.56172 0
M  V30 4606 O 426.547 0.222218 1.93226 0
M  V30 4607 C 426.83 3.52316 0.74466 0
M  V30 4608 C 426.683 4.47337 -0.470101 0
M  V30 4609 C 428.002 4.10588 1.58447 0
M  V30 4610 H 425.121 0.725961 0.12708 0
M  V30 4611 H 427.763 1.86336 -0.371333 0
M  V30 4612 H 425.913 3.63829 1.36239 0
M  V30 4613 H 427.585 4.4778 -1.10864 0
M  V30 4614 H 425.828 4.19364 -1.10978 0
M  V30 4615 H 426.499 5.51788 -0.15291 0
M  V30 4616 H 428.975 4.02297 1.06286 0
M  V30 4617 H 427.851 5.17607 1.82686 0
M  V30 4618 H 428.112 3.60253 2.56262 0
M  V30 4619 N 427.171 -0.0066808 1.57599 0
M  V30 4620 C 428.582 -0.550379 1.78403 0
M  V30 4621 C 428.933 -1.74339 0.900014 0
M  V30 4622 O 428.058 -2.16166 0.100713 0
M  V30 4623 C 428.653 -1.00523 3.23544 0
M  V30 4624 C 427.212 -1.49428 3.45468 0
M  V30 4625 C 426.359 -0.442444 2.73748 0
M  V30 4626 H 429.31 0.219508 1.57175 0
M  V30 4627 H 429.331 -1.87157 3.31289 0
M  V30 4628 H 428.843 -0.136735 3.87859 0
M  V30 4629 H 426.944 -2.3839 2.86358 0
M  V30 4630 H 427.057 -1.52635 4.54136 0
M  V30 4631 H 425.421 -0.902578 2.38171 0
M  V30 4632 H 426.204 0.416973 3.40758 0
M  V30 4633 N 428.649 -1.55105 -0.279332 0
M  V30 4634 C 429.579 -1.90557 -1.34945 0
M  V30 4635 C 430.56 -0.766738 -1.51839 0
M  V30 4636 O 431.745 -1.02434 -1.64988 0
M  V30 4637 C 428.875 -2.17193 -2.71006 0
M  V30 4638 C 427.829 -3.33021 -2.68851 0
M  V30 4639 C 427.155 -3.45123 -4.08405 0
M  V30 4640 C 428.455 -4.69578 -2.28678 0
M  V30 4641 H 430.149 -2.80188 -1.05522 0
M  V30 4642 H 427.695 -1.34811 -0.506173 0
M  V30 4643 H 429.648 -2.40581 -3.45975 0
M  V30 4644 H 428.372 -1.24355 -3.01999 0
M  V30 4645 H 427.031 -3.0959 -1.9634 0
M  V30 4646 H 426.679 -2.49762 -4.3661 0
M  V30 4647 H 426.379 -4.22995 -4.07859 0
M  V30 4648 H 427.903 -3.70796 -4.85121 0
M  V30 4649 H 429.317 -4.92553 -2.93368 0
M  V30 4650 H 427.714 -5.5032 -2.39306 0
M  V30 4651 H 428.784 -4.68828 -1.23807 0
M  V30 4652 N 430.127 0.543554 -1.4793 0
M  V30 4653 C 431.375 1.29752 -1.54948 0
M  V30 4654 C 431.696 1.93764 -0.219242 0
M  V30 4655 O 430.966 1.80639 0.75805 0
M  V30 4656 H 429.546 0.481874 -0.570795 0
M  V30 4657 H 432.208 0.633636 -1.84312 0
M  V30 4658 H 431.304 2.08392 -2.32334 0
M  V30 4659 N 431.605 1.3629 0.791371 0
M  V30 4660 C 432.83 1.33726 1.58531 0
M  V30 4661 C 433.255 -0.0794933 1.87932 0
M  V30 4662 O 432.613 -1.05087 1.47738 0
M  V30 4663 C 432.661 2.16425 2.88431 0
M  V30 4664 O 431.765 1.5554 3.81944 0
M  V30 4665 H 431.106 0.457793 0.480959 0
M  V30 4666 H 433.636 1.79547 0.981031 0
M  V30 4667 H 433.646 2.28933 3.37718 0
M  V30 4668 H 432.321 3.19415 2.66359 0
M  V30 4669 H 430.898 1.51961 3.40532 0
M  V30 4670 N 433.083 -1.0153 1.20538 0
M  V30 4671 C 434.329 -1.75408 1.01783 0
M  V30 4672 C 434.662 -1.88943 -0.448814 0
M  V30 4673 O 433.937 -1.4162 -1.33319 0
M  V30 4674 C 434.22 -3.17255 1.70356 0
M  V30 4675 C 434.073 -3.11508 3.24473 0
M  V30 4676 C 435.392 -4.15955 1.43769 0
M  V30 4677 H 432.511 -0.636713 0.371167 0
M  V30 4678 H 435.153 -1.18436 1.4857 0
M  V30 4679 H 433.303 -3.65898 1.30578 0
M  V30 4680 H 434.975 -2.70658 3.73553 0
M  V30 4681 H 433.218 -2.4887 3.55311 0
M  V30 4682 H 433.889 -4.11784 3.67611 0
M  V30 4683 H 436.365 -3.75973 1.7828 0
M  V30 4684 H 435.241 -5.13368 1.94279 0
M  V30 4685 H 435.502 -4.40586 0.365564 0
M  V30 4686 N 434.561 -1.01147 -1.20859 0
M  V30 4687 C 435.81 -0.693214 -1.89413 0
M  V30 4688 C 436.123 0.779969 -1.79376 0
M  V30 4689 O 437.329 1.21057 -2.43017 0
M  V30 4690 C 435.785 -1.18949 -3.39675 0
M  V30 4691 C 435.393 -2.68921 -3.58309 0
M  V30 4692 C 437.137 -0.94642 -4.13815 0
M  V30 4693 C 435.044 -3.12056 -5.0237 0
M  V30 4694 H 433.974 -0.255595 -0.709357 0
M  V30 4695 H 436.625 -1.22349 -1.36759 0
M  V30 4696 H 435.007 -0.587228 -3.91622 0
M  V30 4697 H 436.181 -3.34652 -3.16772 0
M  V30 4698 H 434.496 -2.91314 -2.97532 0
M  V30 4699 H 437.093 -1.24417 -5.20023 0
M  V30 4700 H 437.436 0.117219 -4.16135 0
M  V30 4701 H 437.969 -1.5118 -3.67953 0
M  V30 4702 H 434.708 -4.17674 -5.05202 0
M  V30 4703 H 434.228 -2.51041 -5.44737 0
M  V30 4704 H 435.907 -3.04403 -5.70918 0
M  V30 4705 N 436.039 1.36541 -0.78704 0
M  V30 4706 C 436.986 2.30082 -0.181901 0
M  V30 4707 C 437.956 1.5186 0.672896 0
M  V30 4708 O 439.141 1.80374 0.622072 0
M  V30 4709 C 436.281 3.3835 0.679197 0
M  V30 4710 C 435.394 4.31565 -0.193882 0
M  V30 4711 C 434.529 5.26915 0.673364 0
M  V30 4712 C 433.568 6.11769 -0.201315 0
M  V30 4713 N 432.705 6.99315 0.624777 0
M  V30 4714 H 437.545 2.81248 -0.985064 0
M  V30 4715 H 435.082 1.38437 -0.497342 0
M  V30 4716 H 437.04 3.99767 1.19341 0
M  V30 4717 H 435.67 2.8851 1.44781 0
M  V30 4718 H 434.722 3.71323 -0.826044 0
M  V30 4719 H 436.034 4.91191 -0.867937 0
M  V30 4720 H 435.188 5.9361 1.25348 0
M  V30 4721 H 433.927 4.67737 1.38105 0
M  V30 4722 H 432.932 5.44039 -0.793849 0
M  V30 4723 H 434.157 6.73022 -0.906568 0
M  V30 4724 H 432.103 6.42648 1.3168 0
M  V30 4725 H 432.02 7.56 0.00835237 0
M  V30 4726 H 433.288 7.70382 1.18879 0
M  V30 4727 N 437.518 0.538854 1.48102 0
M  V30 4728 C 438.758 0.0101209 2.04397 0
M  V30 4729 C 439.122 -1.30741 1.40609 0
M  V30 4730 O 440.323 -1.92272 1.87843 0
M  V30 4731 C 438.594 -0.100232 3.57259 0
M  V30 4732 S 440.153 -0.577746 4.3498 0
M  V30 4733 H 436.971 0.0163171 0.710813 0
M  V30 4734 H 439.573 0.721429 1.81702 0
M  V30 4735 H 438.277 0.863351 4.01216 0
M  V30 4736 H 437.808 -0.835651 3.84422 0
M  V30 4737 H 439.823 -1.84073 4.60794 0
M  V30 4738 N 438.996 -1.55193 0.274407 0
M  V30 4739 C 440.245 -1.98758 -0.343213 0
M  V30 4740 C 440.558 -1.16624 -1.5703 0
M  V30 4741 O 441.764 -1.5033 -2.26082 0
M  V30 4742 C 440.22 -3.53759 -0.661996 0
M  V30 4743 C 439.828 -4.4467 0.54524 0
M  V30 4744 C 441.572 -4.05916 -1.24228 0
M  V30 4745 C 439.479 -5.91058 0.201084 0
M  V30 4746 H 438.409 -0.742353 -0.132014 0
M  V30 4747 H 441.06 -1.79545 0.378948 0
M  V30 4748 H 439.442 -3.68772 -1.44304 0
M  V30 4749 H 440.616 -4.41426 1.32212 0
M  V30 4750 H 438.931 -4.03143 1.04232 0
M  V30 4751 H 441.528 -5.12831 -1.51357 0
M  V30 4752 H 441.871 -3.54908 -2.17592 0
M  V30 4753 H 442.404 -3.9434 -0.523542 0
M  V30 4754 H 439.143 -6.46161 1.10258 0
M  V30 4755 H 438.663 -5.97373 -0.539045 0
M  V30 4756 H 440.342 -6.46669 -0.206954 0
M  V30 4757 N 440.474 -0.00167713 -1.576 0
M  V30 4758 C 441.72 0.683832 -1.90923 0
M  V30 4759 C 442.053 1.7333 -0.875799 0
M  V30 4760 O 441.328 1.94215 0.10525 0
M  V30 4761 C 441.611 1.32543 -3.3482 0
M  V30 4762 C 441.464 0.287387 -4.48881 0
M  V30 4763 C 442.783 2.25114 -3.78169 0
M  V30 4764 H 439.902 0.247125 -0.694333 0
M  V30 4765 H 442.544 -0.0533149 -1.89925 0
M  V30 4766 H 440.694 1.95372 -3.35801 0
M  V30 4767 H 442.366 -0.341346 -4.60035 0
M  V30 4768 H 440.609 -0.39017 -4.32042 0
M  V30 4769 H 441.28 0.775393 -5.46527 0
M  V30 4770 H 443.756 1.723 -3.7875 0
M  V30 4771 H 442.632 2.66971 -4.79602 0
M  V30 4772 H 442.893 3.13092 -3.12131 0
M  V30 4773 N 441.952 1.55251 0.271103 0
M  V30 4774 C 443.182 1.79713 1.01916 0
M  V30 4775 C 443.59 0.571613 1.80359 0
M  V30 4776 O 442.933 -0.468853 1.77616 0
M  V30 4777 C 442.995 2.97138 2.02359 0
M  V30 4778 C 442.659 4.34104 1.42837 0
M  V30 4779 C 443.656 5.13019 0.843071 0
M  V30 4780 C 441.341 4.80765 1.455 0
M  V30 4781 C 443.335 6.36729 0.292333 0
M  V30 4782 C 441.022 6.0443 0.900402 0
M  V30 4783 C 442.02 6.8225 0.32007 0
M  V30 4784 O 441.708 8.03582 -0.226031 0
M  V30 4785 H 441.44 0.602431 0.306681 0
M  V30 4786 H 443.994 2.03097 0.306701 0
M  V30 4787 H 442.224 2.6945 2.77369 0
M  V30 4788 H 443.913 3.08907 2.63309 0
M  V30 4789 H 444.679 4.781 0.815178 0
M  V30 4790 H 440.558 4.20202 1.89609 0
M  V30 4791 H 444.102 6.97414 -0.161274 0
M  V30 4792 H 439.999 6.3883 0.925541 0
M  V30 4793 H 440.767 8.18418 -0.115572 0
M  V30 4794 N 443.43 -0.535701 1.48216 0
M  V30 4795 C 444.66 -1.3148 1.59363 0
M  V30 4796 C 445.068 -1.8753 0.250844 0
M  V30 4797 O 444.411 -1.66821 -0.769174 0
M  V30 4798 C 444.473 -2.50731 2.57632 0
M  V30 4799 C 444.137 -2.15811 4.02833 0
M  V30 4800 C 445.134 -1.71822 4.90686 0
M  V30 4801 C 442.819 -2.26509 4.48329 0
M  V30 4802 C 444.813 -1.3899 6.22062 0
M  V30 4803 C 442.5 -1.93289 5.79726 0
M  V30 4804 C 443.498 -1.49599 6.66415 0
M  V30 4805 O 443.186 -1.16812 7.95368 0
M  V30 4806 H 442.918 -0.406315 0.540263 0
M  V30 4807 H 445.472 -0.653569 1.94725 0
M  V30 4808 H 443.702 -3.19817 2.1738 0
M  V30 4809 H 445.391 -3.12797 2.58675 0
M  V30 4810 H 446.157 -1.63031 4.56778 0
M  V30 4811 H 442.036 -2.59471 3.81045 0
M  V30 4812 H 445.58 -1.04816 6.89681 0
M  V30 4813 H 441.477 -2.01718 6.13172 0
M  V30 4814 H 442.245 -1.30259 8.08069 0
M  V30 4815 N 444.908 -1.36708 -0.784132 0
M  V30 4816 C 445.855 -1.31466 -1.89698 0
M  V30 4817 C 446.825 -0.18239 -1.65096 0
M  V30 4818 O 448.01 -0.369762 -1.87183 0
M  V30 4819 C 445.15 -1.1151 -3.26588 0
M  V30 4820 C 444.263 -2.33859 -3.63227 0
M  V30 4821 C 443.398 -2.06873 -4.89262 0
M  V30 4822 C 442.437 -3.25154 -5.18595 0
M  V30 4823 N 441.574 -2.978 -6.35814 0
M  V30 4824 H 446.414 -2.26619 -1.93515 0
M  V30 4825 H 443.951 -1.12625 -0.946256 0
M  V30 4826 H 445.909 -0.979653 -4.05535 0
M  V30 4827 H 444.539 -0.200103 -3.22179 0
M  V30 4828 H 443.591 -2.58188 -2.79362 0
M  V30 4829 H 444.903 -3.22109 -3.8085 0
M  V30 4830 H 444.057 -1.90289 -5.76086 0
M  V30 4831 H 442.796 -1.15942 -4.73718 0
M  V30 4832 H 441.801 -3.42292 -4.30251 0
M  V30 4833 H 443.026 -4.1692 -5.36055 0
M  V30 4834 H 440.972 -2.09485 -6.21653 0
M  V30 4835 H 440.889 -3.7959 -6.53794 0
M  V30 4836 H 442.157 -2.84805 -7.25607 0
M  V30 4837 N 446.386 1.0089 -1.21074 0
M  V30 4838 C 447.296 2.13039 -0.982425 0
M  V30 4839 C 448.312 1.73881 0.0642161 0
M  V30 4840 O 449.488 2.01012 -0.12496 0
M  V30 4841 C 446.553 3.42377 -0.545803 0
M  V30 4842 C 445.614 3.95731 -1.6642 0
M  V30 4843 C 444.847 5.18896 -1.24832 0
M  V30 4844 O 445.07 5.70273 -0.120265 0
M  V30 4845 O 444.004 5.65597 -2.05873 0
M  V30 4846 H 447.83 2.35175 -1.92163 0
M  V30 4847 H 445.415 1.1142 -0.995285 0
M  V30 4848 H 447.297 4.20244 -0.311912 0
M  V30 4849 H 445.972 3.21639 0.364727 0
M  V30 4850 H 444.879 3.19108 -1.95246 0
M  V30 4851 H 446.212 4.20872 -2.55201 0
M  V30 4852 N 447.864 1.01787 1.20321 0
M  V30 4853 C 449.275 0.739307 1.71438 0
M  V30 4854 C 449.626 -0.742041 1.81627 0
M  V30 4855 O 448.751 -1.57903 1.47971 0
M  V30 4856 C 449.346 1.33538 3.11373 0
M  V30 4857 C 447.905 1.10566 3.59795 0
M  V30 4858 C 447.052 1.44028 2.36962 0
M  V30 4859 H 450.003 1.18718 1.05317 0
M  V30 4860 H 450.024 0.726611 3.73498 0
M  V30 4861 H 449.536 2.41352 3.03926 0
M  V30 4862 H 447.637 0.0452405 3.72573 0
M  V30 4863 H 447.75 1.78661 4.44542 0
M  V30 4864 H 446.114 0.85933 2.39766 0
M  V30 4865 H 446.897 2.52901 2.32155 0
M  V30 4866 N 449.342 -1.36122 0.79427 0
M  V30 4867 C 450.589 -1.99111 0.368905 0
M  V30 4868 C 450.917 -1.63032 -1.0607 0
M  V30 4869 O 450.172 -0.879303 -1.74833 0
M  V30 4870 C 450.471 -3.5409 0.48527 0
M  V30 4871 C 450.137 -4.10003 1.87638 0
M  V30 4872 C 448.799 -4.24986 2.257 0
M  V30 4873 C 451.151 -4.40423 2.78706 0
M  V30 4874 C 448.479 -4.67701 3.54221 0
M  V30 4875 C 450.831 -4.84573 4.0666 0
M  V30 4876 C 449.495 -4.97761 4.44737 0
M  V30 4877 H 448.765 -0.7286 0.134992 0
M  V30 4878 H 451.412 -1.62534 1.01267 0
M  V30 4879 H 449.717 -3.91052 -0.241984 0
M  V30 4880 H 451.414 -4.00766 0.137109 0
M  V30 4881 H 448.004 -3.98784 1.57064 0
M  V30 4882 H 452.188 -4.28412 2.50553 0
M  V30 4883 H 447.444 -4.761 3.83587 0
M  V30 4884 H 451.618 -5.07074 4.77336 0
M  V30 4885 H 449.245 -5.30618 5.44379 0
M  V30 4886 N 450.82 -0.546701 -1.47814 0
M  V30 4887 C 452.066 -0.0269594 -2.03382 0
M  V30 4888 C 452.421 1.30406 -1.41464 0
M  V30 4889 O 451.714 1.8332 -0.557151 0
M  V30 4890 C 451.908 0.134869 -3.57145 0
M  V30 4891 C 451.737 -1.17891 -4.33972 0
M  V30 4892 C 450.507 -1.74336 -4.74273 0
M  V30 4893 C 452.705 -2.09361 -4.69758 0
M  V30 4894 N 450.687 -2.99829 -5.35701 0
M  V30 4895 C 452.058 -3.19431 -5.31379 0
M  V30 4896 C 454.113 -2.09484 -4.51687 0
M  V30 4897 C 452.816 -4.2971 -5.76838 0
M  V30 4898 C 454.842 -3.18767 -4.98138 0
M  V30 4899 C 454.204 -4.27557 -5.59799 0
M  V30 4900 H 450.303 -0.0517733 -0.780284 0
M  V30 4901 H 452.887 -0.731673 -1.80429 0
M  V30 4902 H 451.058 0.80869 -3.79888 0
M  V30 4903 H 452.79 0.655726 -3.99352 0
M  V30 4904 H 449.545 -1.28265 -4.559 0
M  V30 4905 H 449.969 -3.63765 -5.70968 0
M  V30 4906 H 454.611 -1.26663 -4.03381 0
M  V30 4907 H 452.329 -5.13297 -6.24141 0
M  V30 4908 H 455.915 -3.19937 -4.85934 0
M  V30 4909 H 454.795 -5.10725 -5.95088 0
M  V30 4910 N 452.299 1.55045 -0.282633 0
M  V30 4911 C 453.715 1.59441 0.0712997 0
M  V30 4912 C 453.915 1.2998 1.53972 0
M  V30 4913 O 452.971 1.06431 2.28973 0
M  V30 4914 C 454.284 2.99097 -0.310104 0
M  V30 4915 C 455.832 3.1194 -0.257343 0
M  V30 4916 C 456.307 4.53875 -0.613297 0
M  V30 4917 N 457.798 4.5974 -0.565134 0
M  V30 4918 C 458.533 5.67603 -0.81326 0
M  V30 4919 N 458.029 6.83582 -1.1264 0
M  V30 4920 N 459.822 5.57187 -0.741553 0
M  V30 4921 H 451.973 1.72458 -1.23984 0
M  V30 4922 H 454.236 0.804549 -0.501403 0
M  V30 4923 H 453.942 3.25516 -1.33163 0
M  V30 4924 H 453.816 3.75616 0.345366 0
M  V30 4925 H 456.203 2.85281 0.754905 0
M  V30 4926 H 456.284 2.37618 -0.947178 0
M  V30 4927 H 455.928 4.81261 -1.62327 0
M  V30 4928 H 455.858 5.26508 0.09841 0
M  V30 4929 H 458.349 3.76427 -0.333294 0
M  V30 4930 H 458.662 7.6175 -1.30219 0
M  V30 4931 H 457.007 6.85179 -1.16425 0
M  V30 4932 H 460.198 4.65457 -0.496705 0
M  V30 4933 H 460.371 6.41171 -0.938306 0
M  V30 4934 N 453.777 0.010035 1.57597 0
M  V30 4935 C 454.724 -0.978122 2.09049 0
M  V30 4936 C 455.694 -1.33509 0.988159 0
M  V30 4937 O 456.879 -1.43172 1.26121 0
M  V30 4938 C 454.019 -2.26158 2.60666 0
M  V30 4939 C 453.132 -1.96275 3.84838 0
M  V30 4940 C 452.267 -3.18776 4.24918 0
M  V30 4941 C 451.306 -2.84625 5.41899 0
M  V30 4942 N 450.443 -3.99693 5.77226 0
M  V30 4943 H 455.283 -0.532431 2.93205 0
M  V30 4944 H 452.82 -0.251234 1.44939 0
M  V30 4945 H 454.778 -3.01202 2.88675 0
M  V30 4946 H 453.408 -2.68378 1.79369 0
M  V30 4947 H 452.46 -1.11555 3.63675 0
M  V30 4948 H 453.772 -1.67111 4.69974 0
M  V30 4949 H 452.926 -4.02157 4.54262 0
M  V30 4950 H 451.665 -3.51087 3.38511 0
M  V30 4951 H 450.67 -1.99653 5.12268 0
M  V30 4952 H 451.895 -2.53551 6.29991 0
M  V30 4953 H 449.841 -4.31882 4.93776 0
M  V30 4954 H 449.758 -3.74087 6.56959 0
M  V30 4955 H 451.026 -4.83834 6.11167 0
M  V30 4956 N 455.255 -1.55392 -0.262866 0
M  V30 4957 C 456.202 -1.88966 -1.32516 0
M  V30 4958 C 457.172 -0.742187 -1.48596 0
M  V30 4959 O 458.357 -0.99439 -1.62839 0
M  V30 4960 C 455.497 -2.17592 -2.67858 0
M  V30 4961 C 454.61 -3.45061 -2.59917 0
M  V30 4962 C 453.745 -3.63336 -3.87505 0
M  V30 4963 C 452.784 -4.84462 -3.74116 0
M  V30 4964 N 451.921 -4.99342 -4.93561 0
M  V30 4965 H 456.761 -2.79566 -1.03184 0
M  V30 4966 H 454.298 -1.38404 -0.498285 0
M  V30 4967 H 456.256 -2.3219 -3.46617 0
M  V30 4968 H 454.886 -1.30215 -2.95371 0
M  V30 4969 H 453.938 -3.38881 -1.72812 0
M  V30 4970 H 455.25 -4.3396 -2.45926 0
M  V30 4971 H 454.404 -3.77807 -4.74707 0
M  V30 4972 H 453.143 -2.72641 -4.04374 0
M  V30 4973 H 452.148 -4.69985 -2.85297 0
M  V30 4974 H 453.373 -5.76603 -3.58757 0
M  V30 4975 H 451.319 -4.1158 -5.10821 0
M  V30 4976 H 451.236 -5.82303 -4.82141 0
M  V30 4977 H 452.504 -5.18208 -5.82306 0
M  V30 4978 N 456.733 0.527833 -1.48498 0
M  V30 4979 C 458.01 1.28905 -1.47115 0
M  V30 4980 C 458.39 2.10297 -0.184007 0
M  V30 4981 O 457.738 2.12728 0.834218 0
M  V30 4982 C 457.948 2.16866 -2.73441 0
M  V30 4983 C 459.296 2.76936 -3.21857 0
M  V30 4984 O 460.32 2.27152 -2.74373 0
M  V30 4985 O 459.179 3.67496 -4.04486 0
M  V30 4986 H 456.273 0.581918 -0.587623 0
M  V30 4987 H 458.819 0.544311 -1.60734 0
M  V30 4988 H 457.591 1.56521 -3.58632 0
M  V30 4989 H 457.214 2.98583 -2.62553 0
M  V30 4990 N 458.211 1.37122 0.776871 0
M  V30 4991 C 459.441 1.35034 1.56363 0
M  V30 4992 C 459.849 -0.0674681 1.8908 0
M  V30 4993 O 459.192 -1.03826 1.51545 0
M  V30 4994 C 459.254 2.11894 2.90415 0
M  V30 4995 C 458.918 3.60897 2.80362 0
M  V30 4996 C 459.915 4.54887 2.51742 0
M  V30 4997 C 457.6 4.03951 2.98545 0
M  V30 4998 C 459.594 5.89909 2.41426 0
M  V30 4999 C 457.281 5.3906 2.87849 0
M  V30 5000 C 458.279 6.31852 2.5933 0
M  V30 5001 O 457.967 7.64479 2.48651 0
M  V30 5002 H 457.699 0.464402 0.49123 0
M  V30 5003 H 460.253 1.80992 0.971127 0
M  V30 5004 H 458.483 1.60618 3.51765 0
M  V30 5005 H 460.172 2.02505 3.51776 0
M  V30 5006 H 460.938 4.22934 2.37385 0
M  V30 5007 H 456.817 3.3209 3.19746 0
M  V30 5008 H 460.361 6.62304 2.19086 0
M  V30 5009 H 456.258 5.70617 3.01773 0
M  V30 5010 H 457.026 7.74742 2.64039 0
M  V30 5011 N 459.689 -1.00246 1.21608 0
M  V30 5012 C 460.929 -1.75589 1.04631 0
M  V30 5013 C 461.293 -1.87513 -0.412648 0
M  V30 5014 O 462.494 -2.59444 -0.703003 0
M  V30 5015 C 460.765 -3.12893 1.72722 0
M  V30 5016 S 462.324 -4.04095 1.71034 0
M  V30 5017 H 459.142 -0.604133 0.374892 0
M  V30 5018 H 461.744 -1.19927 1.54395 0
M  V30 5019 H 460.448 -3.0185 2.78055 0
M  V30 5020 H 459.979 -3.73628 1.23149 0
M  V30 5021 H 461.994 -4.9045 0.753231 0
M  V30 5022 N 461.167 -1.02423 -1.1978 0
M  V30 5023 C 462.415 -0.716569 -1.8897 0
M  V30 5024 C 462.736 0.756769 -1.79716 0
M  V30 5025 O 462.006 1.5449 -1.20456 0
M  V30 5026 H 460.586 -0.262062 -0.699523 0
M  V30 5027 H 463.248 -1.29747 -1.45436 0
M  V30 5028 H 462.344 -1.00675 -2.95417 0
M  V30 5029 N 462.645 1.35699 -0.801477 0
M  V30 5030 C 463.873 2.03157 -0.391768 0
M  V30 5031 C 464.288 1.60412 0.995668 0
M  V30 5032 O 463.645 0.799228 1.64069 0
M  V30 5033 C 463.696 3.58566 -0.459671 0
M  V30 5034 O 463.417 3.99756 -1.7924 0
M  V30 5035 C 464.918 4.4328 -0.0421205 0
M  V30 5036 H 462.138 0.651688 -0.159825 0
M  V30 5037 H 464.682 1.73426 -1.08368 0
M  V30 5038 H 462.837 3.86963 0.183939 0
M  V30 5039 H 463.251 4.94387 -1.75162 0
M  V30 5040 H 464.725 5.51821 -0.140754 0
M  V30 5041 H 465.202 4.27383 1.01196 0
M  V30 5042 H 465.808 4.20168 -0.658687 0
M  V30 5043 N 464.123 0.554532 1.47522 0
M  V30 5044 C 465.056 -0.242442 2.26908 0
M  V30 5045 C 466.034 -0.922722 1.33883 0
M  V30 5046 O 467.218 -0.942244 1.63261 0
M  V30 5047 C 464.345 -1.34525 3.10839 0
M  V30 5048 C 463.391 -0.773805 4.19422 0
M  V30 5049 S 464.224 0.377525 5.34168 0
M  V30 5050 C 465.38 -0.727164 6.21662 0
M  V30 5051 H 465.613 0.431218 2.94156 0
M  V30 5052 H 463.146 0.3408 1.50592 0
M  V30 5053 H 465.104 -1.97683 3.59766 0
M  V30 5054 H 463.765 -1.99073 2.42958 0
M  V30 5055 H 462.958 -1.60187 4.77866 0
M  V30 5056 H 462.56 -0.218448 3.73361 0
M  V30 5057 H 464.852 -1.61992 6.57849 0
M  V30 5058 H 465.795 -0.180135 7.07871 0
M  V30 5059 H 466.203 -1.01863 5.55233 0
M  V30 5060 N 465.601 -1.54893 0.290851 0
M  V30 5061 C 466.85 -1.99111 -0.322113 0
M  V30 5062 C 467.163 -1.18283 -1.55784 0
M  V30 5063 O 468.369 -1.5272 -2.24475 0
M  V30 5064 C 466.825 -3.54442 -0.624438 0
M  V30 5065 C 466.433 -4.44066 0.592373 0
M  V30 5066 C 468.177 -4.07211 -1.19916 0
M  V30 5067 C 466.084 -5.90812 0.263762 0
M  V30 5068 H 465.014 -0.743712 -0.124133 0
M  V30 5069 H 467.665 -1.79132 0.39797 0
M  V30 5070 H 466.047 -3.70281 -1.40384 0
M  V30 5071 H 467.221 -4.39999 1.36886 0
M  V30 5072 H 465.536 -4.02015 1.08502 0
M  V30 5073 H 468.133 -5.14407 -1.45909 0
M  V30 5074 H 468.476 -3.57196 -2.13815 0
M  V30 5075 H 469.009 -3.94873 -0.481687 0
M  V30 5076 H 465.748 -6.44955 1.17105 0
M  V30 5077 H 465.268 -5.97911 -0.475655 0
M  V30 5078 H 466.947 -6.46852 -0.138354 0
M  V30 5079 N 467.08 -0.0183926 -1.57589 0
M  V30 5080 C 468.329 0.66185 -1.90532 0
M  V30 5081 C 468.642 1.73904 -0.895366 0
M  V30 5082 O 469.848 2.47518 -1.11566 0
M  V30 5083 C 468.304 1.22844 -3.38286 0
M  V30 5084 C 467.912 0.185103 -4.47617 0
M  V30 5085 C 469.656 1.88581 -3.80312 0
M  V30 5086 C 467.563 0.762723 -5.86461 0
M  V30 5087 H 466.493 0.250972 -0.711006 0
M  V30 5088 H 469.144 -0.0819435 -1.83317 0
M  V30 5089 H 467.526 2.0235 -3.40398 0
M  V30 5090 H 468.7 -0.58671 -4.5705 0
M  V30 5091 H 467.015 -0.372889 -4.14727 0
M  V30 5092 H 469.612 2.32735 -4.81392 0
M  V30 5093 H 469.955 2.72408 -3.14801 0
M  V30 5094 H 470.488 1.15782 -3.80578 0
M  V30 5095 H 467.227 -0.0371713 -6.55489 0
M  V30 5096 H 466.747 1.50327 -5.80656 0
M  V30 5097 H 468.426 1.25576 -6.34697 0
M  V30 5098 N 468.558 1.5553 0.254621 0
M  V30 5099 C 469.835 1.6774 1.00611 0
M  V30 5100 C 470.215 0.555993 2.03647 0
M  V30 5101 O 469.563 -0.441583 2.24193 0
M  V30 5102 C 469.773 3.07725 1.6464 0
M  V30 5103 C 471.121 3.66074 2.15116 0
M  V30 5104 O 472.145 3.10476 1.74595 0
M  V30 5105 O 471.004 4.63526 2.89493 0
M  V30 5106 H 468.098 0.681958 0.467828 0
M  V30 5107 H 470.644 1.67863 0.24902 0
M  V30 5108 H 469.416 3.80792 0.900734 0
M  V30 5109 H 469.039 3.1158 2.46989 0
M  V30 5110 N 470.036 -0.519951 1.48776 0
M  V30 5111 C 471.284 -1.2727 1.56993 0
M  V30 5112 C 471.605 -1.9339 0.25004 0
M  V30 5113 O 470.875 -1.81822 -0.729216 0
M  V30 5114 H 469.455 -0.472732 0.578389 0
M  V30 5115 H 472.117 -0.604234 1.85297 0
M  V30 5116 H 471.213 -2.04669 2.3562 0
M  V30 5117 N 471.514 -1.37532 -0.769588 0
M  V30 5118 C 472.424 -1.35668 -1.91393 0
M  V30 5119 C 473.44 -0.255954 -1.72107 0
M  V30 5120 O 474.616 -0.491704 -1.95305 0
M  V30 5121 C 471.681 -1.16481 -3.26547 0
M  V30 5122 C 470.742 -2.36212 -3.58472 0
M  V30 5123 C 469.975 -2.17932 -4.87177 0
M  V30 5124 O 470.198 -1.1647 -5.58382 0
M  V30 5125 O 469.132 -3.06167 -5.18214 0
M  V30 5126 H 472.958 -2.32055 -1.95918 0
M  V30 5127 H 470.543 -1.18284 -0.912641 0
M  V30 5128 H 472.425 -1.07778 -4.07384 0
M  V30 5129 H 471.1 -0.231687 -3.2287 0
M  V30 5130 H 470.007 -2.50488 -2.77861 0
M  V30 5131 H 471.34 -3.281 -3.66894 0
M  V30 5132 N 472.992 0.995999 -1.22138 0
M  V30 5133 C 473.902 2.11985 -1.00496 0
M  V30 5134 C 474.918 1.7394 0.0457701 0
M  V30 5135 O 476.094 2.00868 -0.146273 0
M  V30 5136 C 473.159 3.41779 -0.582086 0
M  V30 5137 C 472.22 3.93943 -1.70608 0
M  V30 5138 C 471.453 5.17542 -1.30328 0
M  V30 5139 O 471.676 5.70114 -0.180743 0
M  V30 5140 O 470.61 5.63382 -2.11861 0
M  V30 5141 H 474.436 2.33123 -1.94647 0
M  V30 5142 H 472.021 1.10358 -1.00705 0
M  V30 5143 H 473.903 4.1989 -0.356467 0
M  V30 5144 H 472.578 3.22007 0.330592 0
M  V30 5145 H 471.485 3.17019 -1.98619 0
M  V30 5146 H 472.818 4.18141 -2.59651 0
M  V30 5147 N 474.47 1.03057 1.19235 0
M  V30 5148 C 475.433 0.617418 2.20727 0
M  V30 5149 C 476.433 -0.319856 1.57587 0
M  V30 5150 O 477.623 -0.106633 1.73873 0
M  V30 5151 C 474.755 -0.096296 3.40764 0
M  V30 5152 H 475.948 1.51544 2.58794 0
M  V30 5153 H 473.501 0.821949 1.32942 0
M  V30 5154 H 474.236 -1.00859 3.08217 0
M  V30 5155 H 474.021 0.577217 3.87828 0
M  V30 5156 H 475.511 -0.372219 4.15938 0
M  V30 5157 N 475.948 -1.35272 0.808662 0
M  V30 5158 C 477.359 -1.81179 0.450688 0
M  V30 5159 C 477.71 -1.67143 -1.02751 0
M  V30 5160 O 476.835 -1.20325 -1.79864 0
M  V30 5161 C 477.43 -3.28943 0.811275 0
M  V30 5162 C 475.989 -3.72985 0.505871 0
M  V30 5163 C 475.136 -2.57229 1.03578 0
M  V30 5164 H 478.087 -1.2322 1.00012 0
M  V30 5165 H 478.108 -3.80342 0.109588 0
M  V30 5166 H 477.62 -3.39127 1.88718 0
M  V30 5167 H 475.721 -3.68349 -0.561209 0
M  V30 5168 H 475.834 -4.67677 1.03995 0
M  V30 5169 H 474.198 -2.50548 0.458005 0
M  V30 5170 H 474.981 -2.7019 2.11784 0
M  V30 5171 N 477.426 -0.562348 -1.47226 0
M  V30 5172 C 478.672 -0.0402761 -2.0276 0
M  V30 5173 C 479.005 1.30823 -1.43523 0
M  V30 5174 O 478.28 1.85249 -0.592705 0
M  V30 5175 C 478.563 0.047311 -3.60069 0
M  V30 5176 C 478.416 -1.32865 -4.29729 0
M  V30 5177 C 479.735 0.758182 -4.3352 0
M  V30 5178 H 476.854 -0.0161105 -0.736824 0
M  V30 5179 H 479.496 -0.725628 -1.75598 0
M  V30 5180 H 477.646 0.630986 -3.83342 0
M  V30 5181 H 479.318 -1.95593 -4.17781 0
M  V30 5182 H 477.561 -1.90195 -3.89882 0
M  V30 5183 H 478.232 -1.22004 -5.38349 0
M  V30 5184 H 480.708 0.262546 -4.15271 0
M  V30 5185 H 479.584 0.78844 -5.43208 0
M  V30 5186 H 479.845 1.81537 -4.03109 0
M  V30 5187 N 478.904 1.54736 -0.299062 0
M  V30 5188 C 479.867 2.22127 0.565012 0
M  V30 5189 C 480.867 1.20669 1.06281 0
M  V30 5190 O 482.057 1.45417 0.959145 0
M  V30 5191 C 479.189 2.90611 1.78208 0
M  V30 5192 H 480.382 2.99891 -0.0237448 0
M  V30 5193 H 477.935 1.5622 -0.0498788 0
M  V30 5194 H 478.67 2.16921 2.41072 0
M  V30 5195 H 478.455 3.64984 1.43281 0
M  V30 5196 H 479.945 3.42026 2.396 0
M  V30 5197 N 480.382 0.0267497 1.57577 0
M  V30 5198 C 481.612 -0.6617 1.95717 0
M  V30 5199 C 482.02 -1.66331 0.901706 0
M  V30 5200 O 481.363 -1.83273 -0.125241 0
M  V30 5201 C 481.425 -1.42649 3.29987 0
M  V30 5202 C 481.089 -0.583482 4.5326 0
M  V30 5203 C 482.086 0.140221 5.19711 0
M  V30 5204 C 479.771 -0.521581 4.99585 0
M  V30 5205 C 481.765 0.914523 6.30805 0
M  V30 5206 C 479.452 0.256428 6.10562 0
M  V30 5207 C 480.45 0.973189 6.76031 0
M  V30 5208 O 480.138 1.73845 7.84878 0
M  V30 5209 H 479.87 -0.187483 0.649481 0
M  V30 5210 H 482.424 0.0820847 2.05236 0
M  V30 5211 H 480.654 -2.21536 3.16952 0
M  V30 5212 H 482.343 -2.00282 3.53047 0
M  V30 5213 H 483.109 0.101716 4.84893 0
M  V30 5214 H 478.988 -1.06904 4.48433 0
M  V30 5215 H 482.532 1.4745 6.81839 0
M  V30 5216 H 478.429 0.296657 6.44818 0
M  V30 5217 H 479.197 1.65797 8.01532 0
M  V30 5218 N 481.861 -1.55662 -0.24637 0
M  V30 5219 C 483.089 -1.81575 -0.991876 0
M  V30 5220 C 483.504 -0.602545 -1.78927 0
M  V30 5221 O 482.861 0.428795 -1.77391 0
M  V30 5222 C 482.912 -3.05711 -1.92933 0
M  V30 5223 O 482.633 -4.22348 -1.1642 0
M  V30 5224 C 484.134 -3.44428 -2.79078 0
M  V30 5225 H 481.354 -0.604209 -0.291844 0
M  V30 5226 H 483.898 -2.02722 -0.269095 0
M  V30 5227 H 482.053 -2.86612 -2.60638 0
M  V30 5228 H 482.467 -4.92706 -1.79835 0
M  V30 5229 H 483.941 -4.34388 -3.40603 0
M  V30 5230 H 484.418 -2.65037 -3.50217 0
M  V30 5231 H 485.024 -3.65879 -2.16824 0
M  V30 5232 N 483.339 0.512053 -1.4905 0
M  V30 5233 C 484.269 1.62365 -1.67809 0
M  V30 5234 C 485.25 1.61737 -0.526809 0
M  V30 5235 O 486.435 1.78651 -0.761404 0
M  V30 5236 C 483.565 3.00895 -1.73435 0
M  V30 5237 C 482.519 3.16387 -2.88242 0
M  V30 5238 C 481.845 4.56157 -2.78971 0
M  V30 5239 C 483.145 2.97457 -4.29321 0
M  V30 5240 H 484.839 1.46921 -2.60873 0
M  V30 5241 H 482.385 0.705379 -1.2554 0
M  V30 5242 H 484.338 3.78549 -1.85145 0
M  V30 5243 H 483.062 3.17403 -0.769619 0
M  V30 5244 H 481.721 2.41155 -2.76116 0
M  V30 5245 H 481.369 4.69525 -1.8043 0
M  V30 5246 H 481.069 4.67465 -3.5602 0
M  V30 5247 H 482.593 5.35886 -2.92675 0
M  V30 5248 H 484.007 3.64888 -4.42187 0
M  V30 5249 H 482.404 3.20245 -5.07507 0
M  V30 5250 H 483.474 1.93692 -4.44535 0
M  V30 5251 N 484.817 1.37938 0.762283 0
M  V30 5252 C 486.094 1.24196 1.51112 0
M  V30 5253 C 486.474 -0.160409 2.1049 0
M  V30 5254 O 485.822 -1.16904 1.96331 0
M  V30 5255 C 486.032 2.34537 2.58445 0
M  V30 5256 C 487.38 2.7254 3.25588 0
M  V30 5257 O 488.404 2.33783 2.68745 0
M  V30 5258 O 487.263 3.39343 4.28379 0
M  V30 5259 H 484.357 0.485175 0.669727 0
M  V30 5260 H 486.903 1.49743 0.798438 0
M  V30 5261 H 485.675 3.28406 2.12756 0
M  V30 5262 H 485.298 2.10505 3.37303 0
M  V30 5263 N 486.295 -0.989507 1.22664 0
M  V30 5264 C 487.572 -1.70326 0.961688 0
M  V30 5265 C 487.952 -2.04537 -0.522279 0
M  V30 5266 O 487.3 -1.73136 -1.49118 0
M  V30 5267 C 487.51 -2.95135 1.86269 0
M  V30 5268 C 488.858 -3.67842 2.12078 0
M  V30 5269 O 489.882 -3.0515 1.83745 0
M  V30 5270 O 488.741 -4.80644 2.60083 0
M  V30 5271 H 485.835 -0.743589 0.361946 0
M  V30 5272 H 488.381 -1.04555 1.33665 0
M  V30 5273 H 487.153 -2.66382 2.8663 0
M  V30 5274 H 486.776 -3.68645 1.48952 0
M  V30 5275 N 487.773 -1.03688 -1.18687 0
M  V30 5276 C 489.001 -0.757918 -1.92518 0
M  V30 5277 C 489.416 0.684398 -1.75959 0
M  V30 5278 O 488.773 1.46617 -1.08673 0
M  V30 5279 C 488.824 -1.10985 -3.44042 0
M  V30 5280 O 488.545 -2.49554 -3.60076 0
M  V30 5281 C 490.046 -0.854844 -4.3498 0
M  V30 5282 H 487.266 -0.276699 -0.611293 0
M  V30 5283 H 489.81 -1.38352 -1.50595 0
M  V30 5284 H 487.965 -0.529279 -3.83767 0
M  V30 5285 H 488.379 -2.6291 -4.53849 0
M  V30 5286 H 489.853 -1.15098 -5.39867 0
M  V30 5287 H 490.33 0.210507 -4.38695 0
M  V30 5288 H 490.936 -1.41853 -4.00946 0
M  V30 5289 N 489.251 1.34841 -0.815825 0
M  V30 5290 C 490.198 2.29644 -0.230664 0
M  V30 5291 C 491.168 1.53253 0.640533 0
M  V30 5292 O 492.353 1.81653 0.583672 0
M  V30 5293 C 489.493 3.39715 0.607275 0
M  V30 5294 C 488.606 4.31056 -0.28538 0
M  V30 5295 C 487.741 5.28225 0.561446 0
M  V30 5296 C 486.78 6.11204 -0.331035 0
M  V30 5297 N 485.917 7.00483 0.476302 0
M  V30 5298 H 490.757 2.79095 -1.0445 0
M  V30 5299 H 488.294 1.37351 -0.526595 0
M  V30 5300 H 490.252 4.02208 1.10835 0
M  V30 5301 H 488.882 2.91517 1.38629 0
M  V30 5302 H 487.934 3.69487 -0.904621 0
M  V30 5303 H 489.246 4.89239 -0.97193 0
M  V30 5304 H 488.4 5.96135 1.12728 0
M  V30 5305 H 487.139 4.70562 1.28153 0
M  V30 5306 H 486.144 5.42232 -0.909069 0
M  V30 5307 H 487.369 6.70947 -1.04912 0
M  V30 5308 H 485.315 6.45296 1.18019 0
M  V30 5309 H 485.232 7.55847 -0.152008 0
M  V30 5310 H 486.5 7.7273 1.02512 0
M  V30 5311 N 490.729 0.570148 1.46925 0
M  V30 5312 C 492.14 0.1402 1.86173 0
M  V30 5313 C 492.491 -1.29347 1.47526 0
M  V30 5314 O 491.616 -1.97508 0.884292 0
M  V30 5315 C 492.211 0.247661 3.37894 0
M  V30 5316 C 490.77 -0.127332 3.76185 0
M  V30 5317 C 489.917 0.589349 2.70965 0
M  V30 5318 H 492.868 0.779117 1.38259 0
M  V30 5319 H 492.889 -0.530341 3.76786 0
M  V30 5320 H 492.401 1.29121 3.65991 0
M  V30 5321 H 490.502 -1.17149 3.53704 0
M  V30 5322 H 490.615 0.240238 4.78497 0
M  V30 5323 H 488.979 0.0309824 2.54681 0
M  V30 5324 H 489.762 1.6343 3.01903 0
M  V30 5325 N 492.207 -1.54576 0.307264 0
M  V30 5326 C 493.117 -2.27435 -0.57536 0
M  V30 5327 C 494.133 -1.31183 -1.14311 0
M  V30 5328 O 495.309 -1.64175 -1.16656 0
M  V30 5329 C 492.374 -3.00566 -1.72803 0
M  V30 5330 C 491.435 -4.12369 -1.19373 0
M  V30 5331 C 490.668 -4.82003 -2.29147 0
M  V30 5332 O 490.891 -4.51038 -3.49171 0
M  V30 5333 O 489.825 -5.69271 -1.95485 0
M  V30 5334 H 493.651 -3.03696 0.0158558 0
M  V30 5335 H 491.236 -1.49219 0.0735064 0
M  V30 5336 H 493.118 -3.46416 -2.39946 0
M  V30 5337 H 491.793 -2.27195 -2.30574 0
M  V30 5338 H 490.7 -3.70905 -0.487851 0
M  V30 5339 H 492.033 -4.87736 -0.661376 0
M  V30 5340 N 493.685 -0.035106 -1.57561 0
M  V30 5341 C 494.933 0.64096 -1.91667 0
M  V30 5342 C 495.254 1.72323 -0.912681 0
M  V30 5343 O 494.524 1.95849 0.0449089 0
M  V30 5344 H 493.104 0.239743 -0.707483 0
M  V30 5345 H 495.766 -0.084321 -1.94718 0
M  V30 5346 H 494.862 1.08987 -2.92452 0
M  V30 5347 N 495.163 1.55791 0.238111 0
M  V30 5348 C 496.111 1.91885 1.31464 0
M  V30 5349 C 497.105 0.798929 1.49377 0
M  V30 5350 O 498.311 0.983626 1.50747 0
M  V30 5351 H 494.686 0.609551 0.440399 0
M  V30 5352 H 496.657 2.81747 0.982925 0
M  V30 5353 C 495.406 2.23763 2.6613 0
M  V30 5354 H 494.729 3.09444 2.53149 0
M  V30 5355 H 496.169 2.52915 3.40309 0
M  V30 5356 C 494.628 1.05699 3.1989 0
M  V30 5357 O 495.158 0.309524 4.00506 0
M  V30 5358 N 493.364 0.845251 2.78036 0
M  V30 5359 H 492.911 1.4548 2.12588 0
M  V30 5360 H 492.869 0.0569973 3.14348 0
M  V30 5361 N 496.642 -0.504142 1.49319 0
M  V30 5362 C 497.872 -1.28071 1.62116 0
M  V30 5363 C 498.28 -1.86955 0.290566 0
M  V30 5364 O 497.623 -1.68415 -0.733616 0
M  V30 5365 C 497.685 -2.4521 2.62893 0
M  V30 5366 C 497.349 -2.07218 4.0732 0
M  V30 5367 C 498.346 -1.61375 4.94221 0
M  V30 5368 C 496.031 -2.16949 4.53033 0
M  V30 5369 C 498.025 -1.25763 6.2487 0
M  V30 5370 C 495.712 -1.80949 5.83696 0
M  V30 5371 C 496.71 -1.3543 6.69438 0
M  V30 5372 O 496.398 -0.99915 7.97667 0
M  V30 5373 H 496.13 -0.394763 0.54876 0
M  V30 5374 H 498.684 -0.612118 1.96067 0
M  V30 5375 H 496.914 -3.15134 2.24115 0
M  V30 5376 H 498.603 -3.0724 2.65252 0
M  V30 5377 H 499.369 -1.53306 4.60133 0
M  V30 5378 H 495.248 -2.5133 3.86463 0
M  V30 5379 H 498.792 -0.901631 6.91749 0
M  V30 5380 H 494.689 -1.88667 6.17313 0
M  V30 5381 H 495.457 -1.13089 8.1065 0
M  V30 5382 N 498.12 -1.38341 -0.754957 0
M  V30 5383 C 499.083 -1.35262 -1.85032 0
M  V30 5384 C 500.083 -0.253393 -1.58791 0
M  V30 5385 O 501.273 -0.510205 -1.66561 0
M  V30 5386 C 498.405 -1.10544 -3.22479 0
M  V30 5387 H 499.598 -2.32712 -1.8917 0
M  V30 5388 H 497.151 -1.23614 -0.956515 0
M  V30 5389 H 497.886 -0.136952 -3.24011 0
M  V30 5390 H 497.671 -1.90127 -3.4292 0
M  V30 5391 H 499.161 -1.11082 -4.02555 0
M  V30 5392 N 499.598 0.982988 -1.23187 0
M  V30 5393 C 500.561 2.05649 -1.01198 0
M  V30 5394 C 501.561 1.6078 0.0252464 0
M  V30 5395 O 502.751 1.72878 -0.214243 0
M  V30 5396 C 499.883 3.36744 -0.530656 0
M  V30 5397 H 501.076 2.2659 -1.96461 0
M  V30 5398 H 498.629 1.15602 -1.05195 0
M  V30 5399 H 499.364 3.21492 0.425873 0
M  V30 5400 H 499.149 3.7065 -1.2791 0
M  V30 5401 H 500.639 4.15705 -0.397366 0
M  V30 5402 N 501.076 1.04316 1.18135 0
M  V30 5403 C 502.325 0.74319 1.87509 0
M  V30 5404 C 502.638 -0.732136 1.81381 0
M  V30 5405 O 503.844 -1.14572 2.46141 0
M  V30 5406 C 502.3 1.27913 3.36402 0
M  V30 5407 C 501.908 2.78326 3.51053 0
M  V30 5408 C 503.652 1.0558 4.11161 0
M  V30 5409 C 501.559 3.25266 4.93919 0
M  V30 5410 H 500.489 0.274313 0.702331 0
M  V30 5411 H 503.14 1.25931 1.33467 0
M  V30 5412 H 501.522 0.690853 3.89927 0
M  V30 5413 H 502.696 3.42933 3.07788 0
M  V30 5414 H 501.011 2.991 2.89704 0
M  V30 5415 H 503.608 1.38161 5.16542 0
M  V30 5416 H 503.951 -0.00684729 4.16299 0
M  V30 5417 H 504.484 1.60882 3.63816 0
M  V30 5418 H 501.223 4.30922 4.9395 0
M  V30 5419 H 500.743 2.65396 5.3789 0
M  V30 5420 H 502.422 3.19433 5.62647 0
M  V30 5421 N 502.554 -1.34406 0.822964 0
M  V30 5422 C 503.487 -2.27407 0.190124 0
M  V30 5423 C 504.465 -1.4889 -0.653486 0
M  V30 5424 O 505.649 -1.78109 -0.617216 0
M  V30 5425 C 502.776 -3.3064 -0.734477 0
M  V30 5426 C 501.822 -4.26488 0.0316099 0
M  V30 5427 S 502.655 -5.17445 1.3788 0
M  V30 5428 C 503.811 -6.24214 0.45907 0
M  V30 5429 H 504.044 -2.80733 0.978586 0
M  V30 5430 H 501.577 -1.41455 0.618866 0
M  V30 5431 H 503.535 -3.90607 -1.26238 0
M  V30 5432 H 502.196 -2.76161 -1.49646 0
M  V30 5433 H 501.389 -4.9951 -0.671285 0
M  V30 5434 H 500.991 -3.70775 0.490066 0
M  V30 5435 H 503.283 -6.76599 -0.349357 0
M  V30 5436 H 504.226 -6.98551 1.15896 0
M  V30 5437 H 504.634 -5.6448 0.0474825 0
M  V30 5438 N 504.032 -0.577932 -1.46621 0
M  V30 5439 C 505.28 -0.061566 -2.02006 0
M  V30 5440 C 505.601 1.30117 -1.4524 0
M  V30 5441 O 504.871 1.85313 -0.63529 0
M  V30 5442 H 503.451 -0.0197692 -0.746738 0
M  V30 5443 H 506.113 -0.752631 -1.79782 0
M  V30 5444 H 505.209 0.0110238 -3.12098 0
M  V30 5445 N 505.51 1.54411 -0.315457 0
M  V30 5446 C 506.757 2.00419 0.289543 0
M  V30 5447 C 507.085 1.20373 1.52776 0
M  V30 5448 O 506.34 0.271769 1.93804 0
M  V30 5449 C 506.639 3.50936 0.676652 0
M  V30 5450 C 506.305 4.48532 -0.461472 0
M  V30 5451 C 504.967 4.74936 -0.773879 0
M  V30 5452 C 507.319 5.06567 -1.22637 0
M  V30 5453 C 504.647 5.56634 -1.85405 0
M  V30 5454 C 506.999 5.89441 -2.29657 0
M  V30 5455 C 505.663 6.1415 -2.61488 0
M  V30 5456 H 504.933 0.733386 0.105951 0
M  V30 5457 H 507.58 1.86434 -0.437554 0
M  V30 5458 H 505.885 3.62606 1.48405 0
M  V30 5459 H 507.582 3.83971 1.15618 0
M  V30 5460 H 504.172 4.28096 -0.207893 0
M  V30 5461 H 508.356 4.86157 -0.998271 0
M  V30 5462 H 503.612 5.74012 -2.10523 0
M  V30 5463 H 507.786 6.33432 -2.89374 0
M  V30 5464 H 505.413 6.77245 -3.45317 0
M  V30 5465 N 506.988 0.0434614 1.5754 0
M  V30 5466 C 508.237 -0.631454 1.91561 0
M  V30 5467 C 508.55 -1.72457 0.92292 0
M  V30 5468 O 509.756 -2.45712 1.15489 0
M  V30 5469 C 508.212 -1.17447 3.40197 0
M  V30 5470 C 507.82 -0.113867 4.47855 0
M  V30 5471 C 509.564 -1.82507 3.83264 0
M  V30 5472 C 507.471 -0.669326 5.876 0
M  V30 5473 H 506.401 -0.239629 0.714908 0
M  V30 5474 H 509.052 0.111097 1.83163 0
M  V30 5475 H 507.434 -1.96909 3.43574 0
M  V30 5476 H 508.608 0.659348 4.56058 0
M  V30 5477 H 506.923 0.438821 4.14081 0
M  V30 5478 H 509.52 -2.25047 4.85034 0
M  V30 5479 H 509.863 -2.67365 3.19095 0
M  V30 5480 H 510.396 -1.09712 3.82372 0
M  V30 5481 H 507.135 0.141449 6.55347 0
M  V30 5482 H 506.655 -1.4107 5.82974 0
M  V30 5483 H 508.334 -1.15463 6.36614 0
M  V30 5484 N 508.466 -1.55915 -0.229846 0
M  V30 5485 C 509.396 -1.94754 -1.28815 0
M  V30 5486 C 510.377 -0.814657 -1.49323 0
M  V30 5487 O 511.562 -1.07631 -1.61645 0
M  V30 5488 C 508.692 -2.25705 -2.63959 0
M  V30 5489 C 507.646 -3.41406 -2.5812 0
M  V30 5490 C 506.972 -3.57941 -3.97218 0
M  V30 5491 C 508.272 -4.76616 -2.13623 0
M  V30 5492 H 509.966 -2.83404 -0.965547 0
M  V30 5493 H 507.512 -1.36353 -0.463028 0
M  V30 5494 H 509.465 -2.51467 -3.38146 0
M  V30 5495 H 508.189 -1.339 -2.9789 0
M  V30 5496 H 506.848 -3.1568 -1.86391 0
M  V30 5497 H 506.496 -2.63526 -4.28443 0
M  V30 5498 H 506.196 -4.35757 -3.94195 0
M  V30 5499 H 507.72 -3.86042 -4.73079 0
M  V30 5500 H 509.134 -5.01637 -2.77549 0
M  V30 5501 H 507.531 -5.57655 -2.21677 0
M  V30 5502 H 508.601 -4.7253 -1.08829 0
M  V30 5503 N 509.944 0.496216 -1.49584 0
M  V30 5504 C 510.907 1.57952 -1.66084 0
M  V30 5505 C 511.907 1.51729 -0.53244 0
M  V30 5506 O 513.097 1.54796 -0.79899 0
M  V30 5507 C 510.229 2.97604 -1.66268 0
M  V30 5508 H 511.422 1.44649 -2.6271 0
M  V30 5509 H 508.975 0.7208 -1.38687 0
M  V30 5510 H 509.71 3.16378 -0.712432 0
M  V30 5511 H 509.495 3.03528 -2.4822 0
M  V30 5512 H 510.985 3.76301 -1.81073 0
M  V30 5513 N 511.423 1.38739 0.74761 0
M  V30 5514 C 512.373 1.32948 1.85226 0
M  V30 5515 C 513.357 0.212642 1.59489 0
M  V30 5516 O 514.549 0.449121 1.71207 0
M  V30 5517 C 511.678 1.16279 3.23008 0
M  V30 5518 C 510.764 2.32611 3.54617 0
M  V30 5519 N 511.155 3.58065 3.57244 0
M  V30 5520 C 509.453 2.25293 3.84914 0
M  V30 5521 C 510.154 4.34919 3.8629 0
M  V30 5522 N 509.13 3.64348 4.03425 0
M  V30 5523 H 512.932 2.27927 1.85544 0
M  V30 5524 H 510.446 1.32056 0.945253 0
M  V30 5525 H 512.443 1.10214 4.02068 0
M  V30 5526 H 511.103 0.222394 3.23937 0
M  V30 5527 H 512.114 3.91656 3.3886 0
M  V30 5528 H 508.791 1.39446 3.93524 0
M  V30 5529 H 510.181 5.43605 3.94896 0
M  V30 5530 N 512.901 -0.976442 1.23707 0
M  V30 5531 C 513.848 -2.06952 1.02174 0
M  V30 5532 C 514.818 -1.65984 -0.0621034 0
M  V30 5533 O 516.003 -1.90584 0.0907906 0
M  V30 5534 C 513.143 -3.39425 0.62327 0
M  V30 5535 C 512.256 -3.9364 1.77966 0
M  V30 5536 C 511.391 -5.14343 1.3276 0
M  V30 5537 C 510.43 -5.60733 2.45449 0
M  V30 5538 N 509.567 -6.72662 2.01172 0
M  V30 5539 H 514.407 -2.24704 1.95734 0
M  V30 5540 H 511.944 -1.10143 0.975034 0
M  V30 5541 H 513.902 -4.15526 0.37332 0
M  V30 5542 H 512.532 -3.21624 -0.275329 0
M  V30 5543 H 511.584 -3.14258 2.14351 0
M  V30 5544 H 512.896 -4.24035 2.62671 0
M  V30 5545 H 512.05 -5.97789 1.03601 0
M  V30 5546 H 510.789 -4.8561 0.450975 0
M  V30 5547 H 509.794 -4.75865 2.75378 0
M  V30 5548 H 511.019 -5.91483 3.33654 0
M  V30 5549 H 508.965 -6.45681 1.15895 0
M  V30 5550 H 508.882 -7.02462 2.79434 0
M  V30 5551 H 510.15 -7.59572 1.75129 0
M  V30 5552 N 514.379 -1.04941 -1.1758 0
M  V30 5553 C 515.342 -0.652456 -2.19717 0
M  V30 5554 C 516.342 0.294745 -1.58076 0
M  V30 5555 O 517.532 0.0789579 -1.74021 0
M  V30 5556 C 514.664 0.0420712 -3.40874 0
M  V30 5557 H 515.857 -1.55642 -2.5635 0
M  V30 5558 H 513.41 -0.842995 -1.31618 0
M  V30 5559 H 514.145 0.95943 -3.09783 0
M  V30 5560 H 513.93 -0.638844 -3.86861 0
M  V30 5561 H 515.42 0.306 -4.16477 0
M  V30 5562 N 515.857 1.33968 -0.830081 0
M  V30 5563 C 517.273 1.51003 -0.516742 0
M  V30 5564 C 517.473 1.77286 0.957694 0
M  V30 5565 O 516.529 1.82797 1.74188 0
M  V30 5566 C 517.842 2.67036 -1.38247 0
M  V30 5567 C 519.39 2.80919 -1.38034 0
M  V30 5568 C 519.865 4.00004 -2.23071 0
M  V30 5569 N 521.356 4.07224 -2.20733 0
M  V30 5570 C 522.091 4.98541 -2.83275 0
M  V30 5571 N 521.587 5.95033 -3.54835 0
M  V30 5572 N 523.38 4.91469 -2.72791 0
M  V30 5573 H 515.531 1.15168 -1.78466 0
M  V30 5574 H 517.794 0.565443 -0.760906 0
M  V30 5575 H 517.5 2.54266 -2.42985 0
M  V30 5576 H 517.374 3.62226 -1.05225 0
M  V30 5577 H 519.761 2.93127 -0.340713 0
M  V30 5578 H 519.842 1.86517 -1.75057 0
M  V30 5579 H 519.486 3.88557 -3.27087 0
M  V30 5580 H 519.416 4.93634 -1.83394 0
M  V30 5581 H 521.907 3.38162 -1.68687 0
M  V30 5582 H 522.22 6.61357 -3.99784 0
M  V30 5583 H 520.565 5.95135 -3.58942 0
M  V30 5584 H 523.756 4.15048 -2.16456 0
M  V30 5585 H 523.929 5.62439 -3.21818 0
M  V30 5586 N 517.335 0.585699 1.46312 0
M  V30 5587 C 518.282 -0.145835 2.30339 0
M  V30 5588 C 519.252 -0.881215 1.40797 0
M  V30 5589 O 520.437 -0.871293 1.69744 0
M  V30 5590 C 517.577 -1.15161 3.25318 0
M  V30 5591 C 516.69 -0.419367 4.2996 0
M  V30 5592 C 515.825 -1.41293 5.12064 0
M  V30 5593 C 514.864 -0.667261 6.08452 0
M  V30 5594 N 514.001 -1.60903 6.83414 0
M  V30 5595 H 518.841 0.576755 2.92365 0
M  V30 5596 H 516.378 0.296237 1.44086 0
M  V30 5597 H 518.336 -1.74763 3.78832 0
M  V30 5598 H 516.966 -1.84188 2.65094 0
M  V30 5599 H 516.018 0.291751 3.7928 0
M  V30 5600 H 517.33 0.163433 4.98532 0
M  V30 5601 H 516.484 -2.08167 5.6987 0
M  V30 5602 H 515.223 -2.02966 4.43459 0
M  V30 5603 H 514.228 0.0152356 5.49798 0
M  V30 5604 H 515.453 -0.0558817 6.79077 0
M  V30 5605 H 513.399 -2.21381 6.17516 0
M  V30 5606 H 513.316 -1.07911 7.48259 0
M  V30 5607 H 514.584 -2.26802 7.45775 0
M  V30 5608 N 518.813 -1.54241 0.323641 0
M  V30 5609 C 519.743 -2.27289 -0.534993 0
M  V30 5610 C 520.724 -1.28087 -1.11927 0
M  V30 5611 O 521.909 -1.56899 -1.14439 0
M  V30 5612 C 519.039 -3.03075 -1.69596 0
M  V30 5613 C 517.993 -4.09614 -1.24098 0
M  V30 5614 C 517.319 -4.73242 -2.4889 0
M  V30 5615 C 518.619 -5.21087 -0.355789 0
M  V30 5616 H 520.313 -2.99308 0.0743257 0
M  V30 5617 H 517.859 -1.43952 0.0371874 0
M  V30 5618 H 519.812 -3.52907 -2.30293 0
M  V30 5619 H 518.536 -2.28673 -2.33187 0
M  V30 5620 H 517.195 -3.60666 -0.656945 0
M  V30 5621 H 516.843 -3.95455 -3.10845 0
M  V30 5622 H 516.543 -5.45209 -2.19138 0
M  V30 5623 H 518.067 -5.25848 -3.10348 0
M  V30 5624 H 519.481 -5.66675 -0.869042 0
M  V30 5625 H 517.878 -5.9991 -0.151045 0
M  V30 5626 H 518.948 -4.81005 0.613339 0
M  V30 5627 N 520.291 -0.0518155 -1.57515 0
M  V30 5628 C 521.254 0.907547 -2.10467 0
M  V30 5629 C 522.254 1.23947 -1.02439 0
M  V30 5630 O 523.444 1.17604 -1.2851 0
M  V30 5631 C 520.576 2.21723 -2.58944 0
M  V30 5632 H 521.769 0.44851 -2.96527 0
M  V30 5633 H 519.322 0.196598 -1.55059 0
M  V30 5634 H 520.057 2.72206 -1.76279 0
M  V30 5635 H 519.842 1.98935 -3.37886 0
M  V30 5636 H 521.332 2.90441 -3.00056 0
M  V30 5637 N 521.769 1.56035 0.221574 0
M  V30 5638 C 523.185 1.49026 0.571271 0
M  V30 5639 C 523.385 0.746912 1.87146 0
M  V30 5640 O 522.441 0.286566 2.50869 0
M  V30 5641 C 523.754 2.93579 0.650522 0
M  V30 5642 C 525.302 3.04099 0.741151 0
M  V30 5643 C 525.777 4.5001 0.851747 0
M  V30 5644 N 527.268 4.54053 0.915968 0
M  V30 5645 C 528.003 5.64232 1.02125 0
M  V30 5646 N 527.499 6.84164 1.09049 0
M  V30 5647 N 529.292 5.52084 1.05639 0
M  V30 5648 H 521.443 2.02791 -0.63162 0
M  V30 5649 H 523.706 0.921736 -0.221602 0
M  V30 5650 H 523.412 3.50912 -0.235253 0
M  V30 5651 H 523.286 3.45476 1.51413 0
M  V30 5652 H 525.673 2.4683 1.61737 0
M  V30 5653 H 525.754 2.55371 -0.148128 0
M  V30 5654 H 525.398 5.07896 -0.0200117 0
M  V30 5655 H 525.328 4.96444 1.75644 0
M  V30 5656 H 527.819 3.67683 0.872782 0
M  V30 5657 H 528.132 7.63883 1.1706 0
M  V30 5658 H 526.477 6.86875 1.05962 0
M  V30 5659 H 529.668 4.57317 0.998953 0
M  V30 5660 H 529.841 6.37983 1.13498 0
M  V30 5661 N 523.247 -0.488276 1.49845 0
M  V30 5662 C 524.177 -1.59675 1.70371 0
M  V30 5663 C 525.158 -1.60878 0.552473 0
M  V30 5664 O 526.343 -1.77417 0.78973 0
M  V30 5665 C 523.473 -2.98098 1.782 0
M  V30 5666 C 522.427 -3.11761 2.93239 0
M  V30 5667 C 521.753 -4.51661 2.86193 0
M  V30 5668 C 523.053 -2.90589 4.33999 0
M  V30 5669 H 524.747 -1.42752 2.63177 0
M  V30 5670 H 522.293 -0.685317 1.26647 0
M  V30 5671 H 524.246 -3.75555 1.91144 0
M  V30 5672 H 522.97 -3.16138 0.820018 0
M  V30 5673 H 521.629 -2.36732 2.79917 0
M  V30 5674 H 521.277 -4.66595 1.87877 0
M  V30 5675 H 520.977 -4.61742 3.63412 0
M  V30 5676 H 522.501 -5.31162 3.01163 0
M  V30 5677 H 523.915 -3.57807 4.47936 0
M  V30 5678 H 522.312 -3.1213 5.12538 0
M  V30 5679 H 523.382 -1.86595 4.4756 0
M  V30 5680 N 524.725 -1.39134 -0.740242 0
M  V30 5681 C 525.953 -1.39334 -1.5295 0
M  V30 5682 C 526.368 0.0135008 -1.88795 0
M  V30 5683 O 525.725 0.983524 -1.5373 0
M  V30 5684 C 525.776 -2.2614 -2.82034 0
M  V30 5685 O 525.497 -3.61345 -2.47712 0
M  V30 5686 C 526.998 -2.34666 -3.76094 0
M  V30 5687 H 524.218 -0.476103 -0.472828 0
M  V30 5688 H 526.762 -1.82883 -0.9151 0
M  V30 5689 H 524.917 -1.86018 -3.39818 0
M  V30 5690 H 525.331 -4.07194 -3.30595 0
M  V30 5691 H 526.805 -2.99663 -4.63579 0
M  V30 5692 H 527.282 -1.36426 -4.17474 0
M  V30 5693 H 527.888 -2.75236 -3.2423 0
M  V30 5694 N 526.204 0.969867 -1.24223 0
M  V30 5695 C 527.151 2.06407 -1.0327 0
M  V30 5696 C 528.121 1.66014 0.0533 0
M  V30 5697 O 529.306 1.90533 -0.100896 0
M  V30 5698 C 526.446 3.3909 -0.641262 0
M  V30 5699 C 525.559 3.9269 -1.80051 0
M  V30 5700 C 524.694 5.13631 -1.35486 0
M  V30 5701 C 523.733 5.59423 -2.48419 0
M  V30 5702 N 522.87 6.71586 -2.04737 0
M  V30 5703 H 527.71 2.23663 -1.96923 0
M  V30 5704 H 525.247 1.09624 -0.980862 0
M  V30 5705 H 527.205 4.15323 -0.395351 0
M  V30 5706 H 525.835 3.21765 0.258269 0
M  V30 5707 H 524.887 3.13116 -2.16014 0
M  V30 5708 H 526.199 4.22636 -2.64916 0
M  V30 5709 H 525.353 5.97231 -1.0677 0
M  V30 5710 H 524.092 4.85364 -0.476722 0
M  V30 5711 H 523.097 4.74398 -2.77897 0
M  V30 5712 H 524.322 5.89705 -3.36786 0
M  V30 5713 H 522.268 6.45058 -1.19318 0
M  V30 5714 H 522.185 7.0097 -2.83156 0
M  V30 5715 H 523.453 7.58633 -1.79154 0
M  V30 5716 N 527.682 1.05563 1.17022 0
M  V30 5717 C 528.592 0.670758 2.24807 0
M  V30 5718 C 529.608 -0.309865 1.71219 0
M  V30 5719 O 530.784 -0.161025 2.00755 0
M  V30 5720 C 527.849 0.055337 3.46656 0
M  V30 5721 C 526.91 1.08688 4.15314 0
M  V30 5722 C 526.143 0.500736 5.31346 0
M  V30 5723 O 526.366 -0.688718 5.66227 0
M  V30 5724 O 525.3 1.23683 5.89055 0
M  V30 5725 H 529.126 1.56914 2.60023 0
M  V30 5726 H 526.711 0.827428 1.24395 0
M  V30 5727 H 528.593 -0.286492 4.20425 0
M  V30 5728 H 527.268 -0.816638 3.13229 0
M  V30 5729 H 526.175 1.48077 3.43546 0
M  V30 5730 H 527.508 1.93014 4.52777 0
M  V30 5731 N 529.16 -1.33526 0.837174 0
M  V30 5732 C 530.07 -2.33023 0.271568 0
M  V30 5733 C 531.086 -1.63272 -0.601514 0
M  V30 5734 O 532.262 -1.94939 -0.506038 0
M  V30 5735 C 529.327 -3.42382 -0.545448 0
M  V30 5736 C 528.388 -4.27857 0.351709 0
M  V30 5737 C 527.621 -5.31994 -0.426409 0
M  V30 5738 O 527.844 -5.45763 -1.65828 0
M  V30 5739 O 526.778 -6.01572 0.1987 0
M  V30 5740 H 530.604 -2.83256 1.09545 0
M  V30 5741 H 528.189 -1.36837 0.599655 0
M  V30 5742 H 530.071 -4.09122 -1.00979 0
M  V30 5743 H 528.746 -2.94369 -1.34641 0
M  V30 5744 H 527.653 -3.6399 0.863853 0
M  V30 5745 H 528.986 -4.79349 1.1174 0
M  V30 5746 N 530.638 -0.59345 -1.46 0
M  V30 5747 C 532.054 -0.255965 -1.57534 0
M  V30 5748 C 532.254 1.24167 -1.58697 0
M  V30 5749 O 531.31 2.02398 -1.50968 0
M  V30 5750 C 532.623 -0.91466 -2.86451 0
M  V30 5751 C 534.171 -0.889253 -3.00102 0
M  V30 5752 C 534.646 -1.52769 -4.3177 0
M  V30 5753 N 536.137 -1.49253 -4.38495 0
M  V30 5754 C 536.872 -1.9558 -5.39014 0
M  V30 5755 N 536.368 -2.49929 -6.46148 0
M  V30 5756 N 538.161 -1.86432 -5.30282 0
M  V30 5757 H 530.312 -1.56604 -1.43489 0
M  V30 5758 H 532.575 -0.655207 -0.685133 0
M  V30 5759 H 532.281 -1.96861 -2.91442 0
M  V30 5760 H 532.155 -0.429356 -3.74748 0
M  V30 5761 H 534.542 0.156111 -2.94687 0
M  V30 5762 H 534.623 -1.41268 -2.13253 0
M  V30 5763 H 534.267 -2.57231 -4.37944 0
M  V30 5764 H 534.197 -0.979398 -5.17412 0
M  V30 5765 H 536.688 -1.09536 -3.61677 0
M  V30 5766 H 537.001 -2.83109 -7.19075 0
M  V30 5767 H 535.346 -2.53961 -6.46938 0
M  V30 5768 H 538.537 -1.43722 -4.4549 0
M  V30 5769 H 538.71 -2.22852 -6.08474 0
M  V30 5770 N 532.116 1.54067 -0.331816 0
M  V30 5771 C 533.046 2.27569 0.522932 0
M  V30 5772 C 534.027 1.28679 1.11247 0
M  V30 5773 O 535.212 1.57504 1.13605 0
M  V30 5774 C 532.342 3.0397 1.67987 0
M  V30 5775 C 531.296 4.10267 1.21924 0
M  V30 5776 C 530.622 4.74555 2.46377 0
M  V30 5777 C 531.922 5.21268 0.32815 0
M  V30 5778 H 533.616 2.99264 -0.0901977 0
M  V30 5779 H 531.162 1.4393 -0.044821 0
M  V30 5780 H 533.115 3.54123 2.28418 0
M  V30 5781 H 531.839 2.29906 2.31971 0
M  V30 5782 H 530.498 3.61009 0.637809 0
M  V30 5783 H 530.146 3.97098 3.08743 0
M  V30 5784 H 529.846 5.46363 2.16243 0
M  V30 5785 H 531.37 5.27487 3.07555 0
M  V30 5786 H 532.784 5.67128 0.838978 0
M  V30 5787 H 531.181 5.99982 0.119228 0
M  V30 5788 H 532.251 4.80673 -0.638839 0
M  V30 5789 N 533.594 0.0601682 1.57485 0
M  V30 5790 C 534.541 -0.91112 2.12055 0
M  V30 5791 C 535.511 -1.30298 1.03013 0
M  V30 5792 O 536.696 -1.39087 1.30612 0
M  V30 5793 C 533.836 -2.1775 2.67729 0
M  V30 5794 C 532.949 -1.83933 3.90887 0
M  V30 5795 C 532.084 -3.05096 4.34845 0
M  V30 5796 C 531.123 -2.67241 5.5068 0
M  V30 5797 N 530.26 -3.81127 5.8965 0
M  V30 5798 H 535.1 -0.43888 2.9475 0
M  V30 5799 H 532.637 -0.204995 1.45665 0
M  V30 5800 H 534.595 -2.91866 2.98111 0
M  V30 5801 H 533.225 -2.62535 1.87816 0
M  V30 5802 H 532.277 -0.999287 3.6704 0
M  V30 5803 H 533.589 -1.52074 4.75052 0
M  V30 5804 H 532.743 -3.87502 4.66827 0
M  V30 5805 H 531.482 -3.40139 3.49509 0
M  V30 5806 H 530.487 -1.83254 5.18361 0
M  V30 5807 H 531.712 -2.3338 6.37738 0
M  V30 5808 H 529.658 -4.15954 5.07266 0
M  V30 5809 H 529.575 -3.52997 6.68528 0
M  V30 5810 H 530.843 -4.64145 6.2625 0
M  V30 5811 N 535.072 -1.5615 -0.213296 0
M  V30 5812 C 536.019 -1.93086 -1.26437 0
M  V30 5813 C 536.989 -0.789086 -1.4616 0
M  V30 5814 O 538.174 -1.04569 -1.59593 0
M  V30 5815 C 535.314 -2.26003 -2.608 0
M  V30 5816 C 534.427 -3.53156 -2.48807 0
M  V30 5817 C 533.562 -3.7548 -3.7575 0
M  V30 5818 C 532.601 -4.96119 -3.58514 0
M  V30 5819 N 531.738 -5.14791 -4.77425 0
M  V30 5820 H 536.578 -2.82707 -0.942376 0
M  V30 5821 H 534.115 -1.39919 -0.454001 0
M  V30 5822 H 536.073 -2.431 -3.39055 0
M  V30 5823 H 534.703 -1.39546 -2.91079 0
M  V30 5824 H 533.755 -3.44207 -1.61944 0
M  V30 5825 H 535.067 -4.41565 -2.31996 0
M  V30 5826 H 534.221 -3.92718 -4.62447 0
M  V30 5827 H 532.96 -2.85368 -3.95495 0
M  V30 5828 H 531.965 -4.78823 -2.70201 0
M  V30 5829 H 533.19 -5.87724 -3.40231 0
M  V30 5830 H 531.136 -4.27623 -4.97468 0
M  V30 5831 H 531.053 -5.97347 -4.63371 0
M  V30 5832 H 532.321 -5.36471 -5.65525 0
M  V30 5833 N 536.55 0.480323 -1.50102 0
M  V30 5834 C 537.48 1.58769 -1.71215 0
M  V30 5835 C 538.461 1.60583 -0.560997 0
M  V30 5836 O 539.646 1.76996 -0.799127 0
M  V30 5837 C 536.776 2.97148 -1.79778 0
M  V30 5838 C 535.73 3.10201 -2.94888 0
M  V30 5839 C 535.056 4.50137 -2.88584 0
M  V30 5840 C 536.356 2.88283 -4.35534 0
M  V30 5841 H 538.05 1.41354 -2.6393 0
M  V30 5842 H 535.596 0.678591 -1.27008 0
M  V30 5843 H 537.549 3.74536 -1.93133 0
M  V30 5844 H 536.273 3.15699 -0.836772 0
M  V30 5845 H 534.932 2.35244 -2.81169 0
M  V30 5846 H 534.58 4.65593 -1.90349 0
M  V30 5847 H 534.28 4.59808 -3.65856 0
M  V30 5848 H 535.804 5.29558 -3.03976 0
M  V30 5849 H 537.218 3.55427 -4.49827 0
M  V30 5850 H 535.615 3.09408 -5.14186 0
M  V30 5851 H 536.685 1.84219 -4.48544 0
M  V30 5852 N 538.028 1.39524 0.732853 0
M  V30 5853 C 539.268 1.383 1.50508 0
M  V30 5854 C 539.632 -0.0208271 1.91989 0
M  V30 5855 O 540.833 -0.158091 2.68335 0
M  V30 5856 C 539.104 2.33007 2.71003 0
M  V30 5857 S 540.663 2.49989 3.60626 0
M  V30 5858 H 537.481 0.490417 0.514794 0
M  V30 5859 H 540.083 1.75641 0.858524 0
M  V30 5860 H 538.787 3.33862 2.38672 0
M  V30 5861 H 538.318 1.96889 3.40585 0
M  V30 5862 H 540.333 1.7394 4.64714 0
M  V30 5863 N 539.506 -0.963266 1.24736 0
M  V30 5864 C 540.416 -2.09246 1.06082 0
M  V30 5865 C 541.432 -1.74 0.000363101 0
M  V30 5866 O 542.608 -2.0041 0.199479 0
M  V30 5867 C 539.673 -3.40115 0.672498 0
M  V30 5868 C 538.734 -3.89282 1.80993 0
M  V30 5869 C 537.967 -5.13905 1.44004 0
M  V30 5870 O 538.19 -5.69434 0.331835 0
M  V30 5871 O 537.124 -5.57566 2.26723 0
M  V30 5872 H 540.95 -2.27881 2.00759 0
M  V30 5873 H 538.535 -1.07649 1.03595 0
M  V30 5874 H 540.417 -4.18797 0.467668 0
M  V30 5875 H 539.092 -3.22771 -0.245102 0
M  V30 5876 H 537.999 -3.11642 2.06955 0
M  V30 5877 H 539.332 -4.1111 2.70646 0
M  V30 5878 N 540.985 -1.06182 -1.16461 0
M  V30 5879 C 541.915 -0.692861 -2.22984 0
M  V30 5880 C 542.896 0.314122 -1.67174 0
M  V30 5881 O 544.081 0.189499 -1.93273 0
M  V30 5882 C 541.211 -0.07732 -3.47214 0
M  V30 5883 C 540.165 -1.01015 -4.15909 0
M  V30 5884 C 539.491 -0.257973 -5.34077 0
M  V30 5885 C 540.791 -2.33868 -4.67015 0
M  V30 5886 H 542.485 -1.58343 -2.54102 0
M  V30 5887 H 540.031 -0.76279 -1.22137 0
M  V30 5888 H 541.984 0.19266 -4.20959 0
M  V30 5889 H 540.708 0.848254 -3.15392 0
M  V30 5890 H 539.367 -1.26486 -3.44088 0
M  V30 5891 H 539.015 0.670684 -4.98509 0
M  V30 5892 H 538.715 -0.879638 -5.80979 0
M  V30 5893 H 540.239 0.00448788 -6.106 0
M  V30 5894 H 541.653 -2.1279 -5.32347 0
M  V30 5895 H 540.05 -2.91522 -5.24533 0
M  V30 5896 H 541.12 -2.97019 -3.83286 0
M  V30 5897 N 542.463 1.3308 -0.844243 0
M  V30 5898 C 543.693 2.01515 -0.455541 0
M  V30 5899 C 544.101 1.63655 0.949406 0
M  V30 5900 O 543.444 0.84848 1.62931 0
M  V30 5901 C 543.506 3.55967 -0.502801 0
M  V30 5902 C 543.17 4.17222 -1.86481 0
M  V30 5903 C 544.167 4.36205 -2.8288 0
M  V30 5904 C 541.852 4.53528 -2.15911 0
M  V30 5905 C 543.846 4.90649 -4.06869 0
M  V30 5906 C 541.533 5.07679 -3.40155 0
M  V30 5907 C 542.531 5.26186 -4.35451 0
M  V30 5908 O 542.219 5.79183 -5.57496 0
M  V30 5909 H 541.951 0.65199 -0.178565 0
M  V30 5910 H 544.505 1.70867 -1.1399 0
M  V30 5911 H 542.735 3.85965 0.23836 0
M  V30 5912 H 544.424 4.05688 -0.131169 0
M  V30 5913 H 545.19 4.085 -2.61444 0
M  V30 5914 H 541.069 4.38414 -1.42528 0
M  V30 5915 H 544.613 5.0501 -4.81259 0
M  V30 5916 H 540.51 5.34815 -3.61446 0
M  V30 5917 H 541.278 5.97591 -5.5931 0
M  V30 5918 N 543.941 0.601185 1.45683 0
M  V30 5919 C 544.904 -0.111398 2.28929 0
M  V30 5920 C 545.904 -0.801246 1.39416 0
M  V30 5921 O 547.094 -0.650383 1.61603 0
M  V30 5922 C 544.226 -1.16773 3.20276 0
M  V30 5923 H 545.419 0.620412 2.93413 0
M  V30 5924 H 542.972 0.359946 1.52099 0
M  V30 5925 H 543.707 -1.93051 2.60579 0
M  V30 5926 H 543.492 -0.677358 3.86205 0
M  V30 5927 H 544.982 -1.66698 3.82886 0
M  V30 5928 N 545.419 -1.53889 0.339982 0
M  V30 5929 C 546.366 -2.24902 -0.518452 0
M  V30 5930 C 547.336 -1.24593 -1.09844 0
M  V30 5931 O 548.521 -1.53317 -1.13572 0
M  V30 5932 C 545.661 -3.02262 -1.66529 0
M  V30 5933 C 544.774 -4.17418 -1.11295 0
M  V30 5934 C 543.909 -4.82273 -2.2268 0
M  V30 5935 C 542.948 -5.89503 -1.6478 0
M  V30 5936 N 542.085 -6.48153 -2.69893 0
M  V30 5937 H 546.925 -2.97853 0.0936579 0
M  V30 5938 H 544.462 -1.46986 0.0579924 0
M  V30 5939 H 546.42 -3.45371 -2.3404 0
M  V30 5940 H 545.05 -2.31614 -2.24844 0
M  V30 5941 H 544.102 -3.78976 -0.328886 0
M  V30 5942 H 545.414 -4.94554 -0.649414 0
M  V30 5943 H 544.568 -5.28435 -2.98063 0
M  V30 5944 H 543.307 -4.04552 -2.72376 0
M  V30 5945 H 542.312 -5.42728 -0.879004 0
M  V30 5946 H 543.537 -6.6913 -1.1594 0
M  V30 5947 H 541.483 -5.73298 -3.1885 0
M  V30 5948 H 541.4 -7.20752 -2.28151 0
M  V30 5949 H 542.668 -6.98968 -3.45056 0
M  V30 5950 N 546.897 -0.0685191 -1.57451 0
M  V30 5951 C 548.143 0.602239 -1.93652 0
M  V30 5952 C 548.476 1.6946 -0.948526 0
M  V30 5953 O 547.751 1.94487 0.022782 0
M  V30 5954 C 548.034 1.18223 -3.4014 0
M  V30 5955 C 547.887 0.0967431 -4.49696 0
M  V30 5956 C 549.206 2.08872 -3.87377 0
M  V30 5957 H 546.325 0.217453 -0.70419 0
M  V30 5958 H 548.967 -0.133821 -1.89528 0
M  V30 5959 H 547.117 1.80953 -3.43785 0
M  V30 5960 H 548.789 -0.536155 -4.58174 0
M  V30 5961 H 547.032 -0.573063 -4.29998 0
M  V30 5962 H 547.703 0.542894 -5.49324 0
M  V30 5963 H 550.179 1.56081 -3.85717 0
M  V30 5964 H 549.055 2.46389 -4.90493 0
M  V30 5965 H 549.316 2.99572 -3.25129 0
M  V30 5966 N 548.375 1.56261 0.205012 0
M  V30 5967 C 549.305 1.96779 1.257 0
M  V30 5968 C 550.286 0.838309 1.48008 0
M  V30 5969 O 551.471 1.10189 1.59913 0
M  V30 5970 C 548.601 2.29876 2.60335 0
M  V30 5971 C 547.555 3.45469 2.52656 0
M  V30 5972 C 546.881 3.64215 3.91473 0
M  V30 5973 C 548.181 4.79954 2.06014 0
M  V30 5974 H 549.875 2.84904 0.920338 0
M  V30 5975 H 547.421 1.37072 0.441277 0
M  V30 5976 H 549.374 2.56814 3.34102 0
M  V30 5977 H 548.098 1.38622 2.95722 0
M  V30 5978 H 546.757 3.18605 1.81345 0
M  V30 5979 H 546.405 2.70309 4.24196 0
M  V30 5980 H 546.105 4.41973 3.87213 0
M  V30 5981 H 547.629 3.93519 4.66878 0
M  V30 5982 H 549.043 5.05989 2.69533 0
M  V30 5983 H 547.44 5.61111 2.12777 0
M  V30 5984 H 548.51 4.74201 1.01297 0
M  V30 5985 N 549.853 -0.472356 1.50355 0
M  V30 5986 C 551.101 -1.22211 1.60962 0
M  V30 5987 C 551.422 -1.92497 0.311439 0
M  V30 5988 O 550.692 -1.8405 -0.671002 0
M  V30 5989 H 549.272 -0.454092 0.593135 0
M  V30 5990 H 551.934 -0.544977 1.87126 0
M  V30 5991 H 551.03 -1.9707 2.42012 0
M  V30 5992 N 551.331 -1.39911 -0.725443 0
M  V30 5993 C 552.556 -1.41137 -1.5197 0
M  V30 5994 C 552.981 -0.010262 -1.88097 0
M  V30 5995 O 552.339 0.979184 -1.52583 0
M  V30 5996 C 552.387 -2.2994 -2.77777 0
M  V30 5997 O 551.491 -1.73586 -3.74088 0
M  V30 5998 H 550.832 -0.480219 -0.458569 0
M  V30 5999 H 553.362 -1.84023 -0.894249 0
M  V30 6000 H 553.372 -2.44785 -3.26411 0
M  V30 6001 H 552.047 -3.31759 -2.50816 0
M  V30 6002 H 550.624 -1.68035 -3.32894 0
M  V30 6003 N 552.809 0.956637 -1.25245 0
M  V30 6004 C 553.739 2.07058 -1.07931 0
M  V30 6005 C 554.72 1.70096 0.0110361 0
M  V30 6006 O 555.905 1.93555 -0.158121 0
M  V30 6007 C 553.035 3.40272 -0.695124 0
M  V30 6008 C 551.989 3.91235 -1.73549 0
M  V30 6009 C 551.315 5.20921 -1.20604 0
M  V30 6010 C 552.615 4.17837 -3.13385 0
M  V30 6011 H 554.309 2.218 -2.01109 0
M  V30 6012 H 551.855 1.06581 -0.968326 0
M  V30 6013 H 553.808 4.1765 -0.560949 0
M  V30 6014 H 552.532 3.25462 0.272355 0
M  V30 6015 H 551.191 3.16025 -1.85807 0
M  V30 6016 H 550.839 5.02479 -0.228846 0
M  V30 6017 H 550.539 5.55987 -1.90136 0
M  V30 6018 H 552.063 6.00897 -1.08421 0
M  V30 6019 H 553.477 4.8588 -3.04292 0
M  V30 6020 H 551.874 4.64154 -3.80369 0
M  V30 6021 H 552.944 3.2419 -3.60595 0
M  V30 6022 N 554.287 1.06798 1.15896 0
M  V30 6023 C 555.197 0.694564 2.24083 0
M  V30 6024 C 556.213 -0.291687 1.71538 0
M  V30 6025 O 557.389 -0.139723 2.00915 0
M  V30 6026 C 554.454 0.0921014 3.46578 0
M  V30 6027 C 553.515 1.13087 4.14137 0
M  V30 6028 C 552.748 0.557064 5.30785 0
M  V30 6029 O 552.971 -0.628623 5.66925 0
M  V30 6030 O 551.905 1.29924 5.8771 0
M  V30 6031 H 555.731 1.59663 2.58344 0
M  V30 6032 H 553.316 0.840575 1.2351 0
M  V30 6033 H 555.198 -0.241884 4.20705 0
M  V30 6034 H 553.873 -0.78337 3.14078 0
M  V30 6035 H 552.78 1.51712 3.41957 0
M  V30 6036 H 554.113 1.97805 4.50704 0
M  V30 6037 N 555.766 -1.3263 0.851289 0
M  V30 6038 C 556.729 -2.27247 0.298541 0
M  V30 6039 C 557.729 -1.51467 -0.539847 0
M  V30 6040 O 558.919 -1.7061 -0.351843 0
M  V30 6041 C 556.051 -3.35964 -0.578004 0
M  V30 6042 H 557.244 -2.7765 1.13359 0
M  V30 6043 H 554.797 -1.43245 0.625354 0
M  V30 6044 H 555.532 -2.90823 -1.435 0
M  V30 6045 H 555.317 -3.92094 0.0220539 0
M  V30 6046 H 556.807 -4.06472 -0.957626 0
M  V30 6047 N 557.244 -0.608902 -1.45362 0
M  V30 6048 C 558.174 0.0964526 -2.33301 0
M  V30 6049 C 559.155 0.857444 -1.46908 0
M  V30 6050 O 560.34 0.827735 -1.75676 0
M  V30 6051 C 557.47 1.09354 -3.29635 0
M  V30 6052 C 556.424 0.445676 -4.25673 0
M  V30 6053 C 555.75 1.5511 -5.11708 0
M  V30 6054 C 557.05 -0.633972 -5.18438 0
M  V30 6055 H 558.744 -0.637829 -2.92527 0
M  V30 6056 H 556.29 -0.308178 -1.40664 0
M  V30 6057 H 558.243 1.59556 -3.90025 0
M  V30 6058 H 556.967 1.85843 -2.6857 0
M  V30 6059 H 555.626 -0.0354897 -3.66583 0
M  V30 6060 H 555.274 2.30631 -4.4701 0
M  V30 6061 H 554.974 1.12311 -5.76767 0
M  V30 6062 H 556.498 2.05537 -5.74967 0
M  V30 6063 H 557.912 -0.215974 -5.72893 0
M  V30 6064 H 556.309 -0.983789 -5.91981 0
M  V30 6065 H 557.379 -1.51005 -4.60788 0
M  V30 6066 N 558.722 1.53707 -0.348139 0
M  V30 6067 C 559.632 2.28881 0.514857 0
M  V30 6068 C 560.648 1.34168 1.10793 0
M  V30 6069 O 561.824 1.6721 1.12262 0
M  V30 6070 C 558.889 3.05042 1.64774 0
M  V30 6071 C 557.95 4.15389 1.08398 0
M  V30 6072 C 557.183 4.87909 2.16287 0
M  V30 6073 O 557.406 4.60137 3.3709 0
M  V30 6074 O 556.34 5.74254 1.80323 0
M  V30 6075 H 560.166 3.03547 -0.0963699 0
M  V30 6076 H 557.751 1.48972 -0.113043 0
M  V30 6077 H 559.633 3.52656 2.30677 0
M  V30 6078 H 558.308 2.33228 2.24469 0
M  V30 6079 H 557.215 3.72068 0.389341 0
M  V30 6080 H 558.548 4.89318 0.531829 0
M  V30 6081 N 560.2 0.0768682 1.57412 0
M  V30 6082 C 561.611 -0.455037 1.8107 0
M  V30 6083 C 561.962 -1.69323 0.991162 0
M  V30 6084 O 561.087 -2.15328 0.215156 0
M  V30 6085 C 561.682 -0.832316 3.28417 0
M  V30 6086 C 560.241 -1.30906 3.52903 0
M  V30 6087 C 559.388 -0.296714 2.75708 0
M  V30 6088 H 562.339 0.302514 1.5579 0
M  V30 6089 H 562.36 -1.69333 3.40744 0
M  V30 6090 H 561.872 0.0690532 3.88039 0
M  V30 6091 H 559.973 -2.22875 2.98592 0
M  V30 6092 H 560.086 -1.28348 4.61588 0
M  V30 6093 H 558.45 -0.775059 2.42621 0
M  V30 6094 H 559.233 0.597015 3.38069 0
M  V30 6095 N 561.678 -1.56367 -0.196722 0
M  V30 6096 C 562.924 -1.80796 -0.918725 0
M  V30 6097 C 563.257 -0.650645 -1.82976 0
M  V30 6098 O 562.532 0.348889 -1.91345 0
M  V30 6099 C 562.815 -3.15472 -1.73636 0
M  V30 6100 C 562.668 -4.41693 -0.85015 0
M  V30 6101 C 563.987 -3.46824 -2.70927 0
M  V30 6102 H 561.106 -0.657702 -0.332561 0
M  V30 6103 H 563.748 -1.89086 -0.186186 0
M  V30 6104 H 561.898 -3.08536 -2.36088 0
M  V30 6105 H 563.57 -4.60673 -0.240459 0
M  V30 6106 H 561.813 -4.33517 -0.156785 0
M  V30 6107 H 562.484 -5.32419 -1.45719 0
M  V30 6108 H 564.96 -3.54049 -2.18607 0
M  V30 6109 H 563.836 -4.4218 -3.25219 0
M  V30 6110 H 564.097 -2.70236 -3.49893 0
M  V30 6111 N 563.156 0.464375 -1.50603 0
M  V30 6112 C 564.106 1.55929 -1.66343 0
M  V30 6113 C 565.09 1.52338 -0.517887 0
M  V30 6114 O 566.282 1.59248 -0.772601 0
M  V30 6115 C 563.411 2.94327 -1.7671 0
M  V30 6116 C 562.497 3.02777 -2.96962 0
M  V30 6117 N 562.888 2.81026 -4.20545 0
M  V30 6118 C 561.186 3.33919 -2.95659 0
M  V30 6119 C 561.887 2.94618 -5.01573 0
M  V30 6120 N 560.863 3.25112 -4.35664 0
M  V30 6121 H 564.665 1.37822 -2.59581 0
M  V30 6122 H 562.179 0.671227 -1.47879 0
M  V30 6123 H 564.176 3.73063 -1.86091 0
M  V30 6124 H 562.836 3.13476 -0.846353 0
M  V30 6125 H 563.847 2.56477 -4.49933 0
M  V30 6126 H 560.524 3.59013 -2.13111 0
M  V30 6127 H 561.914 2.81984 -6.09865 0
M  V30 6128 N 564.634 1.40294 0.718013 0
M  V30 6129 C 565.864 1.41544 1.50495 0
M  V30 6130 C 566.272 0.0127877 1.89196 0
M  V30 6131 O 565.615 -0.97305 1.55812 0
M  V30 6132 C 565.677 2.24021 2.81167 0
M  V30 6133 C 565.341 3.72463 2.64803 0
M  V30 6134 C 566.338 4.65154 2.32223 0
M  V30 6135 C 564.023 4.1625 2.81143 0
M  V30 6136 C 566.017 5.99618 2.16189 0
M  V30 6137 C 563.704 5.50784 2.64727 0
M  V30 6138 C 564.702 6.42283 2.32297 0
M  V30 6139 O 564.39 7.74337 2.16004 0
M  V30 6140 H 564.122 0.484819 0.471091 0
M  V30 6141 H 566.676 1.84948 0.893488 0
M  V30 6142 H 564.906 1.75393 3.44636 0
M  V30 6143 H 566.595 2.17243 3.42871 0
M  V30 6144 H 567.361 4.32622 2.19234 0
M  V30 6145 H 563.24 3.45352 3.05373 0
M  V30 6146 H 566.784 6.71 1.90799 0
M  V30 6147 H 562.681 5.82902 2.773 0
M  V30 6148 H 563.449 7.85244 2.30942 0
M  V30 6149 N 566.112 -0.949982 1.2575 0
M  V30 6150 C 567.022 -2.08109 1.08295 0
M  V30 6151 C 568.038 -1.7399 0.0188181 0
M  V30 6152 O 569.214 -2.00187 0.220724 0
M  V30 6153 C 566.279 -3.39383 0.708534 0
M  V30 6154 C 565.34 -3.8734 1.85111 0
M  V30 6155 C 564.573 -5.12349 1.49447 0
M  V30 6156 O 564.796 -5.6905 0.392212 0
M  V30 6157 O 563.73 -5.5513 2.32624 0
M  V30 6158 H 567.556 -2.25738 2.03165 0
M  V30 6159 H 565.141 -1.06545 1.04731 0
M  V30 6160 H 567.023 -4.18277 0.512061 0
M  V30 6161 H 565.698 -3.23013 -0.210854 0
M  V30 6162 H 564.605 -3.09429 2.10248 0
M  V30 6163 H 565.938 -4.08216 2.74991 0
M  V30 6164 N 567.59 -1.07411 -1.15328 0
M  V30 6165 C 568.5 -0.706438 -2.23711 0
M  V30 6166 C 569.516 0.282586 -1.7169 0
M  V30 6167 O 570.692 0.129066 -2.00986 0
M  V30 6168 C 567.757 -0.11048 -3.46524 0
M  V30 6169 C 566.818 -1.15282 -4.13532 0
M  V30 6170 C 566.051 -0.585205 -5.30482 0
M  V30 6171 O 566.274 0.598549 -5.67251 0
M  V30 6172 O 565.208 -1.33039 -5.87013 0
M  V30 6173 H 569.034 -1.61031 -2.57493 0
M  V30 6174 H 566.619 -0.847113 -1.23062 0
M  V30 6175 H 568.501 0.21957 -4.20828 0
M  V30 6176 H 567.176 0.766703 -3.14489 0
M  V30 6177 H 566.083 -1.53523 -3.41147 0
M  V30 6178 H 567.416 -2.00192 -4.49649 0
M  V30 6179 N 569.068 1.32177 -0.85831 0
M  V30 6180 C 570.015 2.28794 -0.303607 0
M  V30 6181 C 570.985 1.55213 0.591453 0
M  V30 6182 O 572.17 1.83418 0.525585 0
M  V30 6183 C 569.31 3.41475 0.49889 0
M  V30 6184 C 568.423 4.2993 -0.422373 0
M  V30 6185 C 567.558 5.29743 0.393111 0
M  V30 6186 C 566.597 6.09842 -0.525317 0
M  V30 6187 N 565.734 7.01643 0.253208 0
M  V30 6188 H 570.574 2.75631 -1.13276 0
M  V30 6189 H 568.111 1.35606 -0.570026 0
M  V30 6190 H 570.069 4.05531 0.979826 0
M  V30 6191 H 568.699 2.95779 1.29284 0
M  V30 6192 H 567.751 3.66422 -1.02171 0
M  V30 6193 H 569.063 4.85899 -1.12709 0
M  V30 6194 H 568.217 5.9942 0.937056 0
M  V30 6195 H 566.956 4.744 1.13117 0
M  V30 6196 H 565.961 5.39066 -1.08112 0
M  V30 6197 H 567.186 6.6727 -1.26205 0
M  V30 6198 H 565.132 6.48725 0.974295 0
M  V30 6199 H 565.049 7.54981 -0.392398 0
M  V30 6200 H 566.317 7.756 0.778761 0
M  V30 6201 N 570.547 0.616602 1.45037 0
M  V30 6202 C 571.495 -0.109318 2.32343 0
M  V30 6203 C 572.489 -0.850543 1.465 0
M  V30 6204 O 573.695 -0.765088 1.62931 0
M  V30 6205 H 570.07 -0.0541091 0.750051 0
M  V30 6206 H 572.041 0.645326 2.91338 0
M  V30 6207 C 570.79 -1.0872 3.30266 0
M  V30 6208 H 570.113 -0.526267 3.96321 0
M  V30 6209 H 571.553 -1.56489 3.94065 0
M  V30 6210 C 570.012 -2.16525 2.58105 0
M  V30 6211 O 570.542 -3.244 2.36913 0
M  V30 6212 N 568.748 -1.92057 2.18088 0
M  V30 6213 H 568.295 -1.04337 2.35524 0
M  V30 6214 H 568.253 -2.64391 1.70131 0
M  V30 6215 N 572.025 -1.5352 0.356285 0
M  V30 6216 C 573.271 -2.02104 -0.229271 0
M  V30 6217 C 573.626 -1.23923 -1.47176 0
M  V30 6218 O 572.919 -0.321957 -1.88876 0
M  V30 6219 C 573.113 -3.52607 -0.583369 0
M  V30 6220 C 572.942 -4.4536 0.623253 0
M  V30 6221 C 571.712 -4.92446 1.13248 0
M  V30 6222 C 573.91 -4.92375 1.48563 0
M  V30 6223 N 571.892 -5.69183 2.3001 0
M  V30 6224 C 573.263 -5.67362 2.50001 0
M  V30 6225 C 575.318 -4.74464 1.50959 0
M  V30 6226 C 574.021 -6.26341 3.5368 0
M  V30 6227 C 576.047 -5.34302 2.53526 0
M  V30 6228 C 575.409 -6.09166 3.53688 0
M  V30 6229 H 571.508 -0.780595 -0.0468602 0
M  V30 6230 H 574.092 -1.88204 0.49873 0
M  V30 6231 H 572.263 -3.66686 -1.28046 0
M  V30 6232 H 573.995 -3.87922 -1.15321 0
M  V30 6233 H 570.75 -4.6842 0.698562 0
M  V30 6234 H 571.174 -6.12216 2.88998 0
M  V30 6235 H 575.816 -4.16117 0.748785 0
M  V30 6236 H 573.534 -6.8379 4.30648 0
M  V30 6237 H 577.12 -5.22342 2.56223 0
M  V30 6238 H 576 -6.54644 4.31753 0
M  V30 6239 N 573.503 -0.0852151 -1.57369 0
M  V30 6240 C 574.743 0.584297 -1.95871 0
M  V30 6241 C 575.107 1.6596 -0.965473 0
M  V30 6242 O 576.308 2.38561 -1.23862 0
M  V30 6243 C 574.579 1.13411 -3.38929 0
M  V30 6244 S 576.138 1.81687 -3.99419 0
M  V30 6245 H 572.956 0.19095 -0.684879 0
M  V30 6246 H 575.558 -0.162267 -1.94825 0
M  V30 6247 H 574.262 0.339845 -4.0899 0
M  V30 6248 H 573.793 1.91672 -3.43548 0
M  V30 6249 H 575.808 3.10037 -3.87417 0
M  V30 6250 N 574.981 1.5647 0.188427 0
M  V30 6251 C 575.891 1.98285 1.2538 0
M  V30 6252 C 576.907 0.891535 1.49424 0
M  V30 6253 O 578.083 1.19782 1.61908 0
M  V30 6254 C 575.148 2.31965 2.57669 0
M  V30 6255 C 574.209 3.54838 2.41638 0
M  V30 6256 C 573.442 3.86901 3.67618 0
M  V30 6257 O 573.665 3.20163 4.72072 0
M  V30 6258 O 572.599 4.80309 3.62749 0
M  V30 6259 H 576.425 2.89145 0.928912 0
M  V30 6260 H 574.01 1.44112 0.393955 0
M  V30 6261 H 575.892 2.54673 3.35737 0
M  V30 6262 H 574.567 1.44271 2.89771 0
M  V30 6263 H 573.474 3.37369 1.61658 0
M  V30 6264 H 574.807 4.43019 2.14465 0
M  V30 6265 N 576.459 -0.456382 1.50847 0
M  V30 6266 C 577.369 -1.57805 1.73594 0
M  V30 6267 C 578.385 -1.62599 0.619476 0
M  V30 6268 O 579.561 -1.80195 0.899532 0
M  V30 6269 C 576.626 -2.93926 1.8387 0
M  V30 6270 C 575.687 -2.99402 3.07663 0
M  V30 6271 C 574.92 -4.29031 3.1744 0
M  V30 6272 O 575.143 -5.20358 2.33631 0
M  V30 6273 O 574.077 -4.40401 4.10281 0
M  V30 6274 H 577.903 -1.41531 2.68705 0
M  V30 6275 H 575.488 -0.637422 1.3512 0
M  V30 6276 H 577.37 -3.74747 1.92725 0
M  V30 6277 H 576.045 -3.10368 0.91944 0
M  V30 6278 H 574.952 -2.17606 3.043 0
M  V30 6279 H 576.285 -2.87901 3.99216 0
M  V30 6280 N 577.937 -1.40673 -0.710563 0
M  V30 6281 C 578.869 -1.37256 -1.83558 0
M  V30 6282 C 579.882 -0.277133 -1.60424 0
M  V30 6283 O 581.071 -0.537831 -1.70205 0
M  V30 6284 C 578.171 -1.1144 -3.20054 0
M  V30 6285 C 577.344 -2.32734 -3.70342 0
M  V30 6286 C 576.403 -2.03002 -4.85465 0
M  V30 6287 O 575.429 -2.75912 -4.97857 0
M  V30 6288 N 576.631 -1.01105 -5.71627 0
M  V30 6289 H 579.396 -2.34215 -1.86985 0
M  V30 6290 H 576.957 -1.35091 -0.892301 0
M  V30 6291 H 578.949 -0.895265 -3.94673 0
M  V30 6292 H 577.519 -0.231307 -3.11743 0
M  V30 6293 H 576.739 -2.70446 -2.86798 0
M  V30 6294 H 578.027 -3.13584 -4.00678 0
M  V30 6295 H 577.425 -0.407303 -5.64232 0
M  V30 6296 H 575.982 -0.85182 -6.4621 0
M  V30 6297 N 579.415 0.9433 -1.26252 0
M  V30 6298 C 580.645 1.72117 -1.14277 0
M  V30 6299 C 581.053 1.86726 0.304944 0
M  V30 6300 O 580.396 1.3727 1.22076 0
M  V30 6301 C 580.458 3.14778 -1.73651 0
M  V30 6302 C 580.122 3.23561 -3.22734 0
M  V30 6303 C 581.119 3.07001 -4.19579 0
M  V30 6304 C 578.804 3.47019 -3.63157 0
M  V30 6305 C 580.798 3.13763 -5.54826 0
M  V30 6306 C 578.485 3.53416 -4.98538 0
M  V30 6307 C 579.483 3.36804 -5.94182 0
M  V30 6308 O 579.171 3.42906 -7.27098 0
M  V30 6309 H 578.903 0.545781 -0.398873 0
M  V30 6310 H 581.457 1.19123 -1.67328 0
M  V30 6311 H 579.687 3.69186 -1.1506 0
M  V30 6312 H 581.376 3.74469 -1.56613 0
M  V30 6313 H 582.142 2.88736 -3.89688 0
M  V30 6314 H 578.021 3.59006 -2.89199 0
M  V30 6315 H 581.565 3.00714 -6.29458 0
M  V30 6316 H 577.462 3.71201 -5.28091 0
M  V30 6317 H 578.23 3.59463 -7.35342 0
M  V30 6318 N 580.893 1.08022 1.14757 0
M  V30 6319 C 582.118 0.82895 1.90114 0
M  V30 6320 C 582.543 -0.612772 1.77839 0
M  V30 6321 O 581.901 -1.42895 1.11583 0
M  V30 6322 C 581.949 1.25062 3.38219 0
M  V30 6323 O 581.053 0.400119 4.10454 0
M  V30 6324 H 580.394 0.301412 0.591648 0
M  V30 6325 H 582.924 1.44062 1.45284 0
M  V30 6326 H 582.934 1.22977 3.89025 0
M  V30 6327 H 581.609 2.30067 3.46471 0
M  V30 6328 H 580.186 0.484052 3.69745 0
M  V30 6329 N 582.371 -1.3172 0.865308 0
M  V30 6330 C 583.619 -1.96487 0.472995 0
M  V30 6331 C 583.94 -1.68761 -0.976975 0
M  V30 6332 O 583.21 -1.00051 -1.68424 0
M  V30 6333 H 581.79 -0.726947 0.171922 0
M  V30 6334 H 584.452 -1.60612 1.10407 0
M  V30 6335 H 583.548 -3.0574 0.62687 0
M  V30 6336 N 583.85 -0.624285 -1.44708 0
M  V30 6337 C 585.098 -0.125802 -2.01708 0
M  V30 6338 C 585.418 1.2543 -1.49306 0
M  V30 6339 O 584.689 1.83198 -0.693924 0
M  V30 6340 H 583.269 -0.0435161 -0.745731 0
M  V30 6341 H 585.931 -0.809446 -1.77296 0
M  V30 6342 H 585.027 -0.0882734 -3.11975 0
M  V30 6343 N 585.328 1.53329 -0.364422 0
M  V30 6344 C 586.568 2.0315 0.22572 0
M  V30 6345 C 586.932 1.24589 1.46087 0
M  V30 6346 O 588.133 1.64411 2.12656 0
M  V30 6347 C 586.404 3.53718 0.511663 0
M  V30 6348 S 587.963 4.25412 1.07564 0
M  V30 6349 H 584.781 0.70795 0.0657843 0
M  V30 6350 H 587.383 1.88811 -0.507019 0
M  V30 6351 H 586.087 4.08497 -0.394784 0
M  V30 6352 H 585.618 3.72217 1.27351 0
M  V30 6353 H 587.633 4.36486 2.35997 0
M  V30 6354 N 586.806 0.0935595 1.57322 0
M  V30 6355 C 588.036 -0.578095 1.98347 0
M  V30 6356 C 588.444 -1.62357 0.971441 0
M  V30 6357 O 587.787 -1.83639 -0.0473959 0
M  V30 6358 C 587.849 -1.28525 3.3574 0
M  V30 6359 C 587.513 -0.390714 4.55327 0
M  V30 6360 C 588.51 0.360522 5.18648 0
M  V30 6361 C 586.195 -0.309221 5.01347 0
M  V30 6362 C 588.189 1.18125 6.26359 0
M  V30 6363 C 585.876 0.515157 6.08925 0
M  V30 6364 C 586.874 1.25904 6.71295 0
M  V30 6365 O 586.562 2.06978 7.76798 0
M  V30 6366 H 586.294 -0.159767 0.656849 0
M  V30 6367 H 588.848 0.169058 2.04703 0
M  V30 6368 H 587.078 -2.07894 3.26063 0
M  V30 6369 H 588.767 -1.85128 3.61223 0
M  V30 6370 H 589.533 0.307285 4.84026 0
M  V30 6371 H 585.412 -0.877881 4.52564 0
M  V30 6372 H 588.956 1.76236 6.74971 0
M  V30 6373 H 584.853 0.56988 6.42979 0
M  V30 6374 H 585.621 1.99644 7.93779 0
M  V30 6375 N 588.284 -1.56567 -0.180126 0
M  V30 6376 C 589.512 -1.85618 -0.913972 0
M  V30 6377 C 589.927 -0.677892 -1.7621 0
M  V30 6378 O 589.284 0.353171 -1.7905 0
M  V30 6379 C 589.335 -3.13619 -1.79793 0
M  V30 6380 O 589.056 -4.26906 -0.98402 0
M  V30 6381 C 590.557 -3.55954 -2.64219 0
M  V30 6382 H 587.777 -0.616043 -0.265954 0
M  V30 6383 H 590.321 -2.03681 -0.182872 0
M  V30 6384 H 588.476 -2.97409 -2.48247 0
M  V30 6385 H 588.89 -4.9989 -1.58776 0
M  V30 6386 H 590.364 -4.48444 -3.21873 0
M  V30 6387 H 590.841 -2.79653 -3.38661 0
M  V30 6388 H 591.447 -3.74746 -2.01111 0
M  V30 6389 N 589.762 0.448376 -1.51087 0
M  V30 6390 C 590.99 1.22143 -1.66999 0
M  V30 6391 C 591.405 1.85283 -0.362699 0
M  V30 6392 O 590.762 1.70236 0.65772 0
M  V30 6393 C 590.813 2.31357 -2.7777 0
M  V30 6394 O 590.534 1.70801 -4.03434 0
M  V30 6395 C 592.035 3.21836 -3.04855 0
M  V30 6396 H 589.255 0.368558 -0.560719 0
M  V30 6397 H 591.799 0.532618 -1.97442 0
M  V30 6398 H 589.954 2.95973 -2.49958 0
M  V30 6399 H 590.368 2.42895 -4.64868 0
M  V30 6400 H 591.842 3.94627 -3.85971 0
M  V30 6401 H 592.319 3.81949 -2.16821 0
M  V30 6402 H 592.925 2.62933 -3.34285 0
M  V30 6403 N 591.24 1.41047 0.703093 0
M  V30 6404 C 592.47 1.43133 1.48985 0
M  V30 6405 C 592.878 0.0328537 1.89171 0
M  V30 6406 O 592.221 -0.956469 1.56835 0
M  V30 6407 C 592.283 2.26991 2.78775 0
M  V30 6408 C 591.947 3.7525 2.60837 0
M  V30 6409 C 592.944 4.67591 2.27276 0
M  V30 6410 C 590.629 4.19208 2.76712 0
M  V30 6411 C 592.623 6.01877 2.09817 0
M  V30 6412 C 590.31 5.53561 2.5887 0
M  V30 6413 C 591.308 6.4471 2.25472 0
M  V30 6414 O 590.996 7.76584 2.07778 0
M  V30 6415 H 590.728 0.489788 0.465922 0
M  V30 6416 H 593.282 1.85886 0.873822 0
M  V30 6417 H 591.512 1.79038 3.42757 0
M  V30 6418 H 593.201 2.20867 3.40547 0
M  V30 6419 H 593.967 4.34923 2.14633 0
M  V30 6420 H 589.846 3.48572 3.01693 0
M  V30 6421 H 593.39 6.72986 1.83671 0
M  V30 6422 H 589.287 5.85811 2.71102 0
M  V30 6423 H 590.055 7.87649 2.22601 0
M  V30 6424 N 592.718 -0.936591 1.26751 0
M  V30 6425 C 593.965 -1.68331 1.12566 0
M  V30 6426 C 594.293 -1.91677 -0.330168 0
M  V30 6427 O 593.548 -1.49859 -1.2586 0
M  V30 6428 C 593.847 -3.06099 1.84494 0
M  V30 6429 C 593.513 -3.02493 3.34378 0
M  V30 6430 C 592.175 -3.01217 3.75262 0
M  V30 6431 C 594.527 -2.94453 4.30055 0
M  V30 6432 C 591.855 -2.89672 5.10203 0
M  V30 6433 C 594.207 -2.84449 5.65041 0
M  V30 6434 C 592.871 -2.81518 6.0523 0
M  V30 6435 H 592.141 -0.615965 0.411907 0
M  V30 6436 H 594.788 -1.09292 1.5725 0
M  V30 6437 H 593.093 -3.6879 1.32292 0
M  V30 6438 H 594.79 -3.62733 1.70955 0
M  V30 6439 H 591.38 -3.04269 3.01858 0
M  V30 6440 H 595.564 -2.94544 3.99447 0
M  V30 6441 H 590.82 -2.85783 5.40498 0
M  V30 6442 H 594.994 -2.77192 6.38856 0
M  V30 6443 H 592.621 -2.72329 7.09747 0
M  V30 6444 N 594.196 -1.08629 -1.14182 0
M  V30 6445 C 595.607 -0.838003 -1.66836 0
M  V30 6446 C 595.958 0.634885 -1.85644 0
M  V30 6447 O 595.083 1.49008 -1.56926 0
M  V30 6448 C 595.678 -1.51465 -3.03058 0
M  V30 6449 C 594.237 -1.31355 -3.52736 0
M  V30 6450 C 593.384 -1.57599 -2.28162 0
M  V30 6451 H 596.335 -1.24656 -0.982165 0
M  V30 6452 H 596.356 -0.943134 -3.68626 0
M  V30 6453 H 595.868 -2.58661 -2.89337 0
M  V30 6454 H 593.969 -0.262384 -3.71675 0
M  V30 6455 H 594.082 -2.04275 -4.33369 0
M  V30 6456 H 592.446 -0.997659 -2.34348 0
M  V30 6457 H 593.229 -2.66006 -2.17015 0
M  V30 6458 N 595.674 1.31259 -0.872281 0
M  V30 6459 C 597.085 1.78822 -0.536617 0
M  V30 6460 C 597.436 1.71855 0.946594 0
M  V30 6461 O 596.561 1.28769 1.73918 0
M  V30 6462 C 597.156 3.24698 -0.967294 0
M  V30 6463 C 595.715 3.70147 -0.683251 0
M  V30 6464 C 594.862 2.51994 -1.15733 0
M  V30 6465 H 597.813 1.18308 -1.05777 0
M  V30 6466 H 597.834 3.79386 -0.290929 0
M  V30 6467 H 597.346 3.29737 -2.04683 0
M  V30 6468 H 595.447 3.70607 0.384825 0
M  V30 6469 H 595.56 4.62183 -1.2619 0
M  V30 6470 H 593.924 2.48078 -0.577024 0
M  V30 6471 H 594.707 2.59778 -2.24434 0
M  V30 6472 N 597.152 0.631951 1.44375 0
M  V30 6473 C 598.4 0.136497 2.01639 0
M  V30 6474 C 598.721 -1.24637 1.49969 0
M  V30 6475 O 597.991 -1.82827 0.70363 0
M  V30 6476 H 596.571 0.0474703 0.74549 0
M  V30 6477 H 599.233 0.818837 1.76865 0
M  V30 6478 H 598.329 0.104817 3.11924 0
M  V30 6479 N 598.631 -1.53133 0.372548 0
M  V30 6480 C 599.88 -2.00539 -0.216115 0
M  V30 6481 C 600.193 -1.26374 -1.49295 0
M  V30 6482 O 601.399 -1.64404 -2.16064 0
M  V30 6483 C 599.855 -3.57253 -0.435678 0
M  V30 6484 C 599.463 -4.40302 0.82693 0
M  V30 6485 C 601.207 -4.12995 -0.981618 0
M  V30 6486 C 599.114 -5.88583 0.576567 0
M  V30 6487 H 598.044 -0.749246 -0.084536 0
M  V30 6488 H 600.695 -1.76771 0.492364 0
M  V30 6489 H 599.077 -3.77202 -1.20559 0
M  V30 6490 H 600.251 -4.32124 1.60017 0
M  V30 6491 H 598.566 -3.95699 1.29659 0
M  V30 6492 H 601.163 -5.21418 -1.18436 0
M  V30 6493 H 601.506 -3.68027 -1.94581 0
M  V30 6494 H 602.039 -3.96871 -0.271696 0
M  V30 6495 H 598.778 -6.37841 1.51128 0
M  V30 6496 H 598.298 -5.99592 -0.158047 0
M  V30 6497 H 599.977 -6.46676 0.204722 0
M  V30 6498 N 600.109 -0.101901 -1.5727 0
M  V30 6499 C 601.039 0.851544 -2.17419 0
M  V30 6500 C 602.02 1.28942 -1.10941 0
M  V30 6501 O 603.205 1.35509 -1.39107 0
M  V30 6502 C 600.335 2.10816 -2.75996 0
M  V30 6503 C 599.289 1.80867 -3.87906 0
M  V30 6504 C 598.615 3.13413 -4.33216 0
M  V30 6505 C 599.915 1.0903 -5.10793 0
M  V30 6506 H 601.609 0.350381 -2.97343 0
M  V30 6507 H 599.155 0.16709 -1.43027 0
M  V30 6508 H 601.108 2.77959 -3.16729 0
M  V30 6509 H 599.832 2.63227 -1.93337 0
M  V30 6510 H 598.491 1.16119 -3.47724 0
M  V30 6511 H 598.139 3.63725 -3.47438 0
M  V30 6512 H 597.839 2.94155 -5.08671 0
M  V30 6513 H 599.363 3.81704 -4.76586 0
M  V30 6514 H 600.777 1.66295 -5.48652 0
M  V30 6515 H 599.174 0.99927 -5.91722 0
M  V30 6516 H 600.244 0.0741704 -4.84843 0
M  V30 6517 N 601.587 1.56661 0.17182 0
M  V30 6518 C 602.815 1.861 0.904115 0
M  V30 6519 C 603.23 0.687227 1.75848 0
M  V30 6520 O 602.587 -0.343671 1.79235 0
M  V30 6521 C 602.638 3.14568 1.78127 0
M  V30 6522 O 602.359 4.27422 0.961366 0
M  V30 6523 C 603.86 3.5735 2.62327 0
M  V30 6524 H 601.08 0.617445 0.262684 0
M  V30 6525 H 603.624 2.03775 0.172068 0
M  V30 6526 H 601.779 2.98721 2.46666 0
M  V30 6527 H 602.193 5.00725 1.56123 0
M  V30 6528 H 603.667 4.50144 3.1949 0
M  V30 6529 H 604.144 2.81445 3.37173 0
M  V30 6530 H 604.75 3.75807 1.99121 0
M  V30 6531 N 603.065 -0.440357 1.51323 0
M  V30 6532 C 603.997 -1.55254 1.68609 0
M  V30 6533 C 605.01 -1.52614 0.566812 0
M  V30 6534 O 606.199 -1.57445 0.841032 0
M  V30 6535 C 603.299 -2.94169 1.68279 0
M  V30 6536 C 602.472 -3.21346 2.96742 0
M  V30 6537 C 601.531 -4.3997 2.8864 0
M  V30 6538 O 600.557 -4.38771 3.62586 0
M  V30 6539 N 601.759 -5.43367 2.04285 0
M  V30 6540 H 604.524 -1.40831 2.6455 0
M  V30 6541 H 602.085 -0.629251 1.49171 0
M  V30 6542 H 604.077 -3.71543 1.60431 0
M  V30 6543 H 602.647 -3.02205 0.799441 0
M  V30 6544 H 601.867 -2.32299 3.18482 0
M  V30 6545 H 603.155 -3.3633 3.81785 0
M  V30 6546 H 602.553 -5.47176 1.43578 0
M  V30 6547 H 601.11 -6.19605 2.02318 0
M  V30 6548 N 604.543 -1.41418 -0.695603 0
M  V30 6549 C 605.773 -1.43921 -1.48224 0
M  V30 6550 C 606.181 -0.0428855 -1.89151 0
M  V30 6551 O 605.524 0.948138 -1.5734 0
M  V30 6552 C 605.586 -2.28466 -2.77567 0
M  V30 6553 C 605.25 -3.76629 -2.58844 0
M  V30 6554 C 606.247 -4.6879 -2.24793 0
M  V30 6555 C 603.932 -4.2067 -2.74485 0
M  V30 6556 C 605.926 -6.02981 -2.06622 0
M  V30 6557 C 603.613 -5.54926 -2.55931 0
M  V30 6558 C 604.611 -6.45897 -2.2205 0
M  V30 6559 O 604.299 -7.77675 -2.03657 0
M  V30 6560 H 604.031 -0.492252 -0.463318 0
M  V30 6561 H 606.585 -1.86347 -0.863952 0
M  V30 6562 H 604.815 -1.80853 -3.41802 0
M  V30 6563 H 606.504 -2.2267 -3.39371 0
M  V30 6564 H 607.27 -4.36055 -2.12323 0
M  V30 6565 H 603.149 -3.50167 -2.9984 0
M  V30 6566 H 606.693 -6.73951 -1.80099 0
M  V30 6567 H 602.59 -5.8724 -2.67991 0
M  V30 6568 H 603.358 -7.88819 -2.1842 0
M  V30 6569 N 606.021 0.929856 -1.27246 0
M  V30 6570 C 607.269 1.674 -1.13233 0
M  V30 6571 C 607.59 1.92311 0.322744 0
M  V30 6572 O 606.86 1.52784 1.22612 0
M  V30 6573 H 605.44 0.620411 -0.416052 0
M  V30 6574 H 608.102 1.11663 -1.59741 0
M  V30 6575 H 607.198 2.64308 -1.65975 0
M  V30 6576 N 607.499 1.09233 1.13605 0
M  V30 6577 C 608.915 0.82163 1.36826 0
M  V30 6578 C 609.115 -0.565021 1.93416 0
M  V30 6579 O 608.171 -1.32026 2.15234 0
M  V30 6580 C 609.484 1.91124 2.32147 0
M  V30 6581 C 611.032 1.93824 2.45767 0
M  V30 6582 C 611.507 3.01923 3.44393 0
M  V30 6583 N 612.998 3.01149 3.51942 0
M  V30 6584 C 613.733 3.81434 4.2813 0
M  V30 6585 N 613.229 4.71621 5.07489 0
M  V30 6586 N 615.022 3.69702 4.23411 0
M  V30 6587 H 607.173 1.98633 0.752234 0
M  V30 6588 H 609.436 0.862482 0.393482 0
M  V30 6589 H 609.142 2.90862 1.97717 0
M  V30 6590 H 609.016 1.78777 3.32142 0
M  V30 6591 H 611.403 0.94726 2.79483 0
M  V30 6592 H 611.484 2.10248 1.45703 0
M  V30 6593 H 611.128 4.01232 3.11408 0
M  V30 6594 H 611.058 2.82742 4.44257 0
M  V30 6595 H 613.549 2.35789 2.95317 0
M  V30 6596 H 613.862 5.29468 5.62924 0
M  V30 6597 H 612.207 4.75658 5.06729 0
M  V30 6598 H 615.398 2.98606 3.60489 0
M  V30 6599 H 615.571 4.32509 4.82535 0
M  V30 6600 N 608.977 -1.30795 0.87923 0
M  V30 6601 C 610.223 -1.96653 0.495519 0
M  V30 6602 C 610.556 -1.69282 -0.951703 0
M  V30 6603 O 609.831 -0.994374 -1.6716 0
M  V30 6604 C 610.114 -3.51898 0.764174 0
M  V30 6605 C 609.967 -3.88808 2.2616 0
M  V30 6606 C 611.286 -4.39462 0.236825 0
M  V30 6607 H 608.405 -0.7143 0.181507 0
M  V30 6608 H 611.047 -1.54765 1.10217 0
M  V30 6609 H 609.197 -3.87709 0.247841 0
M  V30 6610 H 610.869 -3.63051 2.8459 0
M  V30 6611 H 609.112 -3.37082 2.73053 0
M  V30 6612 H 609.783 -4.97086 2.4002 0
M  V30 6613 H 612.259 -4.10528 0.678683 0
M  V30 6614 H 611.135 -5.47018 0.454176 0
M  V30 6615 H 611.396 -4.33621 -0.861683 0
M  V30 6616 N 610.455 -0.639598 -1.44038 0
M  V30 6617 C 611.385 0.0469443 -2.33453 0
M  V30 6618 C 612.366 0.82609 -1.48694 0
M  V30 6619 O 613.551 0.790285 -1.77393 0
M  V30 6620 C 610.681 1.02338 -3.3188 0
M  V30 6621 C 609.635 0.355284 -4.26523 0
M  V30 6622 C 608.961 1.44221 -5.14883 0
M  V30 6623 C 610.261 -0.743798 -5.16977 0
M  V30 6624 H 611.955 -0.699735 -2.91108 0
M  V30 6625 H 609.501 -0.337946 -1.39978 0
M  V30 6626 H 611.454 1.51247 -3.93322 0
M  V30 6627 H 610.178 1.80105 -2.72451 0
M  V30 6628 H 608.837 -0.113239 -3.66425 0
M  V30 6629 H 608.485 2.21097 -4.51802 0
M  V30 6630 H 608.185 1.00052 -5.79019 0
M  V30 6631 H 609.709 1.93295 -5.79197 0
M  V30 6632 H 611.123 -0.337444 -5.72306 0
M  V30 6633 H 609.52 -1.10914 -5.89761 0
M  V30 6634 H 610.59 -1.60745 -4.57481 0
M  V30 6635 N 611.933 1.52934 -0.380664 0
M  V30 6636 C 613.349 1.59571 -0.0302429 0
M  V30 6637 C 613.549 1.39509 1.45394 0
M  V30 6638 O 612.605 1.20777 2.21741 0
M  V30 6639 C 613.918 2.96519 -0.499691 0
M  V30 6640 C 615.466 3.09672 -0.455204 0
M  V30 6641 C 615.941 4.49056 -0.900703 0
M  V30 6642 N 617.432 4.55215 -0.856367 0
M  V30 6643 C 618.167 5.61282 -1.17259 0
M  V30 6644 N 617.663 6.75035 -1.55885 0
M  V30 6645 N 619.456 5.51343 -1.0944 0
M  V30 6646 H 611.607 1.64224 -1.347 0
M  V30 6647 H 613.87 0.771033 -0.551554 0
M  V30 6648 H 613.576 3.16388 -1.53595 0
M  V30 6649 H 613.45 3.77052 0.105789 0
M  V30 6650 H 615.837 2.89504 0.571949 0
M  V30 6651 H 615.918 2.31113 -1.09638 0
M  V30 6652 H 615.562 4.69964 -1.92604 0
M  V30 6653 H 615.492 5.26068 -0.236629 0
M  V30 6654 H 617.983 3.73546 -0.572013 0
M  V30 6655 H 618.296 7.51926 -1.784 0
M  V30 6656 H 616.641 6.76388 -1.59764 0
M  V30 6657 H 619.832 4.61356 -0.791713 0
M  V30 6658 H 620.005 6.33905 -1.34417 0
M  V30 6659 N 613.412 0.11024 1.57214 0
M  V30 6660 C 614.344 -0.873497 2.11902 0
M  V30 6661 C 615.357 -1.23588 1.05971 0
M  V30 6662 O 616.546 -1.18636 1.33371 0
M  V30 6663 C 613.646 -2.17805 2.59643 0
M  V30 6664 C 612.819 -1.98869 3.89576 0
M  V30 6665 C 611.878 -3.12974 4.23006 0
M  V30 6666 O 610.904 -2.86272 4.91973 0
M  V30 6667 N 612.106 -4.39167 3.79622 0
M  V30 6668 H 614.871 -0.406317 2.96933 0
M  V30 6669 H 612.432 -0.074437 1.61729 0
M  V30 6670 H 614.424 -2.93117 2.79042 0
M  V30 6671 H 612.994 -2.55899 1.7954 0
M  V30 6672 H 612.214 -1.078 3.79174 0
M  V30 6673 H 613.502 -1.83512 4.74553 0
M  V30 6674 H 612.9 -4.63739 3.2398 0
M  V30 6675 H 611.457 -5.11379 4.04147 0
M  V30 6676 N 614.89 -1.56749 -0.16351 0
M  V30 6677 C 616.301 -1.72039 -0.725216 0
M  V30 6678 C 616.652 -0.72202 -1.82432 0
M  V30 6679 O 615.777 0.114942 -2.16095 0
M  V30 6680 C 616.372 -3.11932 -1.32227 0
M  V30 6681 C 614.931 -3.28879 -1.83072 0
M  V30 6682 C 614.078 -2.67984 -0.712716 0
M  V30 6683 H 617.029 -1.58579 0.0619772 0
M  V30 6684 H 617.05 -3.11015 -2.19202 0
M  V30 6685 H 616.562 -3.84572 -0.522103 0
M  V30 6686 H 614.663 -2.61209 -2.65708 0
M  V30 6687 H 614.776 -4.36688 -1.97079 0
M  V30 6688 H 613.14 -2.28005 -1.13515 0
M  V30 6689 H 613.923 -3.43216 0.0757361 0
M  V30 6690 N 616.368 0.432326 -1.51554 0
M  V30 6691 C 617.614 1.18309 -1.64714 0
M  V30 6692 C 617.947 1.90745 -0.364696 0
M  V30 6693 O 617.222 1.8381 0.635936 0
M  V30 6694 C 617.505 2.1961 -2.85383 0
M  V30 6695 C 617.358 1.51223 -4.23617 0
M  V30 6696 C 618.677 3.20538 -3.01569 0
M  V30 6697 H 615.796 0.428751 -0.599451 0
M  V30 6698 H 618.438 0.471689 -1.84052 0
M  V30 6699 H 616.588 2.8028 -2.69027 0
M  V30 6700 H 618.26 0.938516 -4.51652 0
M  V30 6701 H 616.503 0.814501 -4.26085 0
M  V30 6702 H 617.174 2.25024 -5.04052 0
M  V30 6703 H 619.65 2.69926 -3.16669 0
M  V30 6704 H 618.526 3.88706 -3.87555 0
M  V30 6705 H 618.787 3.86933 -2.13859 0
M  V30 6706 N 617.846 1.41785 0.688094 0
M  V30 6707 C 619.123 1.32031 1.44316 0
M  V30 6708 C 619.503 -0.0486079 2.11044 0
M  V30 6709 O 618.851 -1.06332 2.02252 0
M  V30 6710 C 619.061 2.47906 2.45649 0
M  V30 6711 C 620.409 2.89415 3.10683 0
M  V30 6712 O 621.433 2.477 2.55975 0
M  V30 6713 O 620.292 3.61573 4.09789 0
M  V30 6714 H 617.386 0.519994 0.643067 0
M  V30 6715 H 619.932 1.53765 0.71794 0
M  V30 6716 H 618.704 3.39222 1.95048 0
M  V30 6717 H 618.327 2.28089 3.25671 0
M  V30 6718 N 619.324 -0.923095 1.27737 0
M  V30 6719 C 620.74 -1.19985 1.05241 0
M  V30 6720 C 620.94 -2.00391 -0.21113 0
M  V30 6721 O 619.996 -2.35324 -0.915366 0
M  V30 6722 C 621.309 -1.94352 2.29451 0
M  V30 6723 C 622.857 -2.07273 2.34536 0
M  V30 6724 C 623.332 -2.85046 3.58487 0
M  V30 6725 N 624.823 -2.92612 3.59072 0
M  V30 6726 C 625.558 -3.53266 4.51654 0
M  V30 6727 N 625.054 -4.15274 5.54545 0
M  V30 6728 N 626.847 -3.50714 4.39268 0
M  V30 6729 H 618.998 -0.386042 2.08862 0
M  V30 6730 H 621.261 -0.233407 0.918817 0
M  V30 6731 H 620.967 -1.42692 3.21453 0
M  V30 6732 H 620.841 -2.94947 2.3513 0
M  V30 6733 H 623.228 -2.58117 1.43037 0
M  V30 6734 H 623.309 -1.05884 2.32857 0
M  V30 6735 H 622.953 -2.34884 4.50324 0
M  V30 6736 H 622.883 -3.8673 3.57418 0
M  V30 6737 H 625.374 -2.48547 2.84663 0
M  V30 6738 H 625.687 -4.59507 6.21348 0
M  V30 6739 H 624.032 -4.13806 5.58382 0
M  V30 6740 H 627.223 -3.01475 3.58093 0
M  V30 6741 H 627.396 -3.97693 5.1161 0
M  V30 6742 N 620.802 -1.09834 -1.13024 0
M  V30 6743 C 622.051 -0.831806 -1.83749 0
M  V30 6744 C 622.364 0.644763 -1.84668 0
M  V30 6745 O 623.57 1.02697 -2.51327 0
M  V30 6746 C 622.026 -1.43817 -3.29916 0
M  V30 6747 C 621.634 -2.94759 -3.37374 0
M  V30 6748 C 623.378 -1.25077 -4.05655 0
M  V30 6749 C 621.285 -3.48461 -4.77838 0
M  V30 6750 H 620.215 -0.30751 -0.688443 0
M  V30 6751 H 622.866 -1.32156 -1.27307 0
M  V30 6752 H 621.248 -0.876106 -3.86187 0
M  V30 6753 H 622.422 -3.57228 -2.91076 0
M  V30 6754 H 620.737 -3.12581 -2.75103 0
M  V30 6755 H 623.334 -1.62649 -5.09362 0
M  V30 6756 H 623.677 -0.191782 -4.15858 0
M  V30 6757 H 624.21 -1.78057 -3.55725 0
M  V30 6758 H 620.949 -4.53998 -4.72828 0
M  V30 6759 H 620.469 -2.90757 -5.24615 0
M  V30 6760 H 622.148 -3.45914 -5.46766 0
M  V30 6761 N 622.28 1.30327 -0.886154 0
M  V30 6762 C 623.51 1.99964 -0.519421 0
M  V30 6763 C 623.918 1.66593 0.89686 0
M  V30 6764 O 623.261 0.899886 1.60149 0
M  V30 6765 C 623.323 3.54187 -0.615795 0
M  V30 6766 C 622.987 4.11078 -1.9966 0
M  V30 6767 C 623.984 4.26985 -2.96614 0
M  V30 6768 C 621.669 4.46429 -2.30231 0
M  V30 6769 C 623.663 4.77456 -4.22273 0
M  V30 6770 C 621.35 4.966 -3.56135 0
M  V30 6771 C 622.348 5.12066 -4.5197 0
M  V30 6772 O 622.036 5.61154 -5.7564 0
M  V30 6773 H 621.768 0.645979 -0.199217 0
M  V30 6774 H 624.322 1.67154 -1.19368 0
M  V30 6775 H 622.552 3.86528 0.115448 0
M  V30 6776 H 624.241 4.05065 -0.26017 0
M  V30 6777 H 625.007 3.99975 -2.74308 0
M  V30 6778 H 620.886 4.33658 -1.56404 0
M  V30 6779 H 624.43 4.89444 -4.97082 0
M  V30 6780 H 620.327 5.23045 -3.78277 0
M  V30 6781 H 621.095 5.79494 -5.78039 0
M  V30 6782 N 623.758 0.647228 1.43697 0
M  V30 6783 C 625.005 0.158188 2.01881 0
M  V30 6784 C 625.333 -1.22573 1.51017 0
M  V30 6785 O 624.588 -1.83086 0.69122 0
M  V30 6786 C 624.887 0.111481 3.57226 0
M  V30 6787 C 624.553 1.43633 4.27411 0
M  V30 6788 C 623.215 1.79915 4.463 0
M  V30 6789 C 625.567 2.31011 4.67208 0
M  V30 6790 C 622.895 3.03251 5.02251 0
M  V30 6791 C 625.247 3.53633 5.24525 0
M  V30 6792 C 623.911 3.90118 5.41631 0
M  V30 6793 H 623.181 0.0578851 0.738736 0
M  V30 6794 H 625.828 0.836746 1.72252 0
M  V30 6795 H 624.133 -0.650507 3.86362 0
M  V30 6796 H 625.83 -0.283682 3.99995 0
M  V30 6797 H 622.42 1.14403 4.1305 0
M  V30 6798 H 626.604 2.04272 4.52313 0
M  V30 6799 H 621.86 3.31575 5.13681 0
M  V30 6800 H 626.034 4.21561 5.5431 0
M  V30 6801 H 623.661 4.85768 5.84751 0
M  V30 6802 N 625.236 -1.5273 0.388769 0
M  V30 6803 C 626.199 -2.25043 -0.434544 0
M  V30 6804 C 627.199 -1.26661 -0.990644 0
M  V30 6805 O 628.389 -1.50762 -0.872731 0
M  V30 6806 C 625.521 -3.00507 -1.60961 0
M  V30 6807 H 626.714 -2.99242 0.198549 0
M  V30 6808 H 624.267 -1.55664 0.140875 0
M  V30 6809 H 625.002 -2.30607 -2.28015 0
M  V30 6810 H 624.787 -3.72716 -1.21757 0
M  V30 6811 H 626.277 -3.55413 -2.19251 0
M  V30 6812 N 626.714 -0.118576 -1.57153 0
M  V30 6813 C 627.962 0.538461 -1.94795 0
M  V30 6814 C 628.283 1.67243 -1.00274 0
M  V30 6815 O 627.553 1.95811 -0.0589692 0
M  V30 6816 H 626.133 0.201904 -0.719197 0
M  V30 6817 H 628.795 -0.187418 -1.93997 0
M  V30 6818 H 627.891 0.933315 -2.97818 0
M  V30 6819 N 628.193 1.56834 0.155195 0
M  V30 6820 C 629.421 1.87049 0.884326 0
M  V30 6821 C 629.836 0.705839 1.7511 0
M  V30 6822 O 629.193 -0.324641 1.79589 0
M  V30 6823 C 629.244 3.1644 1.74781 0
M  V30 6824 O 628.965 4.28417 0.915978 0
M  V30 6825 C 630.466 3.60113 2.58522 0
M  V30 6826 H 627.686 0.620196 0.25612 0
M  V30 6827 H 630.23 2.03946 0.150445 0
M  V30 6828 H 628.385 3.01321 2.43484 0
M  V30 6829 H 628.799 5.02353 1.50803 0
M  V30 6830 H 630.273 4.53508 3.14698 0
M  V30 6831 H 630.75 2.85005 3.34169 0
M  V30 6832 H 631.356 3.77898 1.95124 0
M  V30 6833 N 629.671 -0.424282 1.51781 0
M  V30 6834 C 630.581 -1.54087 1.76902 0
M  V30 6835 C 631.597 -1.61249 0.653826 0
M  V30 6836 O 632.773 -1.78247 0.937552 0
M  V30 6837 C 629.838 -2.8996 1.90063 0
M  V30 6838 C 628.899 -2.92809 3.13945 0
M  V30 6839 C 628.132 -4.22201 3.26469 0
M  V30 6840 O 628.355 -5.15286 2.44616 0
M  V30 6841 O 627.289 -4.31599 4.1953 0
M  V30 6842 H 631.115 -1.358 2.71647 0
M  V30 6843 H 628.7 -0.608618 1.36441 0
M  V30 6844 H 630.582 -3.70575 2.0063 0
M  V30 6845 H 629.257 -3.08347 0.985067 0
M  V30 6846 H 628.164 -2.11102 3.08847 0
M  V30 6847 H 629.497 -2.79369 4.05233 0
M  V30 6848 N 631.149 -1.42148 -0.680565 0
M  V30 6849 C 632.377 -1.45696 -1.46902 0
M  V30 6850 C 632.792 -0.0665858 -1.88683 0
M  V30 6851 O 632.149 0.917436 -1.57764 0
M  V30 6852 C 632.2 -2.37898 -2.72188 0
M  V30 6853 O 631.921 -3.71526 -2.32163 0
M  V30 6854 C 633.422 -2.50407 -3.65802 0
M  V30 6855 H 630.642 -0.495729 -0.45221 0
M  V30 6856 H 633.186 -1.866 -0.836709 0
M  V30 6857 H 631.341 -2.00263 -3.31622 0
M  V30 6858 H 631.755 -4.20849 -3.13027 0
M  V30 6859 H 633.229 -3.19056 -4.50452 0
M  V30 6860 H 633.706 -1.5401 -4.11312 0
M  V30 6861 H 634.312 -2.8874 -3.12265 0
M  V30 6862 N 632.627 0.916307 -1.28225 0
M  V30 6863 C 633.59 1.99996 -1.11957 0
M  V30 6864 C 634.59 1.60688 -0.0600152 0
M  V30 6865 O 635.78 1.71499 -0.30558 0
M  V30 6866 C 632.912 3.33458 -0.708411 0
M  V30 6867 H 634.105 2.15858 -2.08196 0
M  V30 6868 H 631.658 1.09863 -1.11175 0
M  V30 6869 H 632.393 3.23297 0.254859 0
M  V30 6870 H 632.178 3.63349 -1.47377 0
M  V30 6871 H 633.668 4.13014 -0.617164 0
M  V30 6872 N 634.105 1.10431 1.1244 0
M  V30 6873 C 635.333 0.868872 1.87772 0
M  V30 6874 C 635.748 -0.580645 1.7965 0
M  V30 6875 O 635.105 -1.40031 1.17036 0
M  V30 6876 C 635.156 1.30855 3.36986 0
M  V30 6877 O 634.877 2.70123 3.44914 0
M  V30 6878 C 636.378 1.107 4.29256 0
M  V30 6879 H 633.598 0.311868 0.59412 0
M  V30 6880 H 636.142 1.46897 1.42273 0
M  V30 6881 H 634.297 0.752126 3.80029 0
M  V30 6882 H 634.711 2.88923 4.37748 0
M  V30 6883 H 636.185 1.46378 5.32238 0
M  V30 6884 H 636.662 0.0456228 4.39176 0
M  V30 6885 H 637.268 1.64988 3.91994 0
M  V30 6886 N 635.583 -1.29855 0.893053 0
M  V30 6887 C 636.533 -2.25493 0.337211 0
M  V30 6888 C 637.517 -1.51606 -0.53894 0
M  V30 6889 O 638.709 -1.72828 -0.382043 0
M  V30 6890 C 635.838 -3.40467 -0.440117 0
M  V30 6891 C 634.924 -4.217 0.450578 0
M  V30 6892 N 635.315 -4.81312 1.55476 0
M  V30 6893 C 633.613 -4.45315 0.247154 0
M  V30 6894 C 634.314 -5.42241 2.10593 0
M  V30 6895 N 633.29 -5.25267 1.39982 0
M  V30 6896 H 637.092 -2.69137 1.18079 0
M  V30 6897 H 634.606 -1.44388 0.743359 0
M  V30 6898 H 636.603 -4.08038 -0.855021 0
M  V30 6899 H 635.263 -2.98361 -1.28104 0
M  V30 6900 H 636.274 -4.80291 1.93755 0
M  V30 6901 H 632.951 -4.13782 -0.555939 0
M  V30 6902 H 634.341 -5.99517 3.03362 0
M  V30 6903 N 637.061 -0.65484 -1.43351 0
M  V30 6904 C 638.307 -0.177749 -2.02622 0
M  V30 6905 C 638.662 1.19553 -1.50748 0
M  V30 6906 O 637.955 1.78683 -0.691599 0
M  V30 6907 C 638.149 -0.130424 -3.57162 0
M  V30 6908 C 637.978 -1.49757 -4.24032 0
M  V30 6909 C 636.748 -2.09036 -4.60035 0
M  V30 6910 C 638.946 -2.4363 -4.52934 0
M  V30 6911 N 636.928 -3.3874 -5.11985 0
M  V30 6912 C 638.299 -3.57968 -5.0622 0
M  V30 6913 C 640.354 -2.42412 -4.34903 0
M  V30 6914 C 639.057 -4.71314 -5.43374 0
M  V30 6915 C 641.083 -3.5484 -4.7312 0
M  V30 6916 C 640.445 -4.67903 -5.26541 0
M  V30 6917 H 636.544 -0.10951 -0.774294 0
M  V30 6918 H 639.128 -0.863495 -1.74505 0
M  V30 6919 H 637.299 0.524671 -3.8484 0
M  V30 6920 H 639.031 0.35769 -4.03116 0
M  V30 6921 H 635.786 -1.61729 -4.4513 0
M  V30 6922 H 636.21 -4.05116 -5.42412 0
M  V30 6923 H 640.852 -1.56236 -3.92874 0
M  V30 6924 H 638.57 -5.5818 -5.84346 0
M  V30 6925 H 642.156 -3.55101 -4.60863 0
M  V30 6926 H 641.036 -5.5346 -5.55564 0
M  V30 6927 N 638.539 1.52521 -0.396863 0
M  V30 6928 C 639.764 2.06571 0.185258 0
M  V30 6929 C 640.189 1.26605 1.39115 0
M  V30 6930 O 639.547 0.293055 1.78916 0
M  V30 6931 C 639.595 3.5674 0.526189 0
M  V30 6932 O 638.699 3.7929 1.61903 0
M  V30 6933 H 638.04 0.663712 0.0195474 0
M  V30 6934 H 640.57 1.966 -0.566519 0
M  V30 6935 H 640.58 4.00311 0.788338 0
M  V30 6936 H 639.255 4.14379 -0.355397 0
M  V30 6937 H 637.832 3.47605 1.35 0
M  V30 6938 N 640.017 0.126909 1.57088 0
M  V30 6939 C 641.265 -0.528123 1.95078 0
M  V30 6940 C 641.586 -1.66708 1.0116 0
M  V30 6941 O 640.856 -1.95777 0.0693527 0
M  V30 6942 H 639.436 -0.198087 0.720257 0
M  V30 6943 H 642.098 0.197703 1.93895 0
M  V30 6944 H 641.194 -0.917507 2.98309 0
M  V30 6945 N 641.495 -1.56914 -0.146875 0
M  V30 6946 C 642.725 -1.87243 -0.873126 0
M  V30 6947 C 643.133 -0.713127 -1.75246 0
M  V30 6948 O 642.476 0.326228 -1.8078 0
M  V30 6949 C 642.538 -3.12279 -1.78107 0
M  V30 6950 C 642.202 -4.44082 -1.07889 0
M  V30 6951 C 643.199 -5.18096 -0.432734 0
M  V30 6952 C 640.884 -4.90807 -1.06836 0
M  V30 6953 C 642.878 -6.37039 0.214569 0
M  V30 6954 C 640.565 -6.09674 -0.417243 0
M  V30 6955 C 641.563 -6.82636 0.223093 0
M  V30 6956 O 641.251 -7.99245 0.863884 0
M  V30 6957 H 640.983 -0.624896 -0.257839 0
M  V30 6958 H 643.537 -2.04892 -0.14434 0
M  V30 6959 H 641.767 -2.90639 -2.5508 0
M  V30 6960 H 643.456 -3.28854 -2.37929 0
M  V30 6961 H 644.222 -4.83066 -0.432677 0
M  V30 6962 H 640.101 -4.3394 -1.55618 0
M  V30 6963 H 643.645 -6.93927 0.714965 0
M  V30 6964 H 639.542 -6.44165 -0.414967 0
M  V30 6965 H 640.31 -8.14912 0.765564 0
M  V30 6966 N 642.974 0.416227 -1.52004 0
M  V30 6967 C 643.907 1.52736 -1.6955 0
M  V30 6968 C 644.885 1.53264 -0.54305 0
M  V30 6969 O 646.069 1.72077 -0.769527 0
M  V30 6970 C 643.196 2.91283 -1.72835 0
M  V30 6971 C 642.242 3.08695 -2.94295 0
M  V30 6972 S 643.075 2.82758 -4.54762 0
M  V30 6973 C 644.231 4.23548 -4.60823 0
M  V30 6974 H 644.464 1.37623 -2.63528 0
M  V30 6975 H 641.997 0.607335 -1.41954 0
M  V30 6976 H 643.955 3.71134 -1.75413 0
M  V30 6977 H 642.616 3.03742 -0.799966 0
M  V30 6978 H 641.809 4.10042 -2.93056 0
M  V30 6979 H 641.411 2.36699 -2.89568 0
M  V30 6980 H 643.703 5.17078 -4.37763 0
M  V30 6981 H 644.646 4.29813 -5.62731 0
M  V30 6982 H 645.054 4.08188 -3.89927 0
M  V30 6983 N 644.452 1.42507 0.673017 0
M  V30 6984 C 645.362 1.4853 1.81593 0
M  V30 6985 C 646.378 0.373907 1.69935 0
M  V30 6986 O 647.554 0.625078 1.91454 0
M  V30 6987 C 644.619 1.387 3.17747 0
M  V30 6988 C 643.68 2.60346 3.41348 0
M  V30 6989 C 642.913 2.50975 4.71007 0
M  V30 6990 O 643.136 1.54659 5.49033 0
M  V30 6991 O 642.07 3.41138 4.95892 0
M  V30 6992 H 645.896 2.45001 1.79467 0
M  V30 6993 H 643.481 1.2429 0.82899 0
M  V30 6994 H 645.363 1.35586 3.98992 0
M  V30 6995 H 644.038 0.453555 3.20507 0
M  V30 6996 H 642.945 2.69034 2.59945 0
M  V30 6997 H 644.278 3.52595 3.43421 0
M  V30 6998 N 645.93 -0.909495 1.28709 0
M  V30 6999 C 647.178 -1.65577 1.15882 0
M  V30 7000 C 647.499 -1.928 -0.292108 0
M  V30 7001 O 646.769 -1.54716 -1.20166 0
M  V30 7002 H 645.349 -0.613714 0.425869 0
M  V30 7003 H 648.011 -1.09108 1.61498 0
M  V30 7004 H 647.107 -2.61634 1.70159 0
M  V30 7005 N 647.408 -1.11026 -1.11852 0
M  V30 7006 C 648.371 -0.768006 -2.1595 0
M  V30 7007 C 649.371 0.210538 -1.59416 0
M  V30 7008 O 650.561 -0.0133978 -1.74195 0
M  V30 7009 C 647.693 -0.138678 -3.40618 0
M  V30 7010 H 648.886 -1.69012 -2.4774 0
M  V30 7011 H 646.439 -0.911578 -1.26964 0
M  V30 7012 H 647.174 0.793872 -3.14433 0
M  V30 7013 H 646.959 -0.843012 -3.8293 0
M  V30 7014 H 648.449 0.0848039 -4.17514 0
M  V30 7015 N 648.886 1.2938 -0.899927 0
M  V30 7016 C 650.132 1.9584 -0.526742 0
M  V30 7017 C 650.465 1.70774 0.924651 0
M  V30 7018 O 649.74 1.02084 1.65557 0
M  V30 7019 C 650.023 3.50638 -0.820062 0
M  V30 7020 C 649.876 3.85161 -2.32317 0
M  V30 7021 C 651.195 4.3903 -0.30671 0
M  V30 7022 H 648.314 0.711322 -0.192848 0
M  V30 7023 H 650.956 1.52992 -1.12665 0
M  V30 7024 H 649.106 3.87265 -0.309491 0
M  V30 7025 H 650.778 3.58477 -2.9033 0
M  V30 7026 H 649.021 3.32696 -2.78381 0
M  V30 7027 H 649.692 4.93204 -2.47898 0
M  V30 7028 H 652.168 4.09396 -0.743908 0
M  V30 7029 H 651.044 5.46226 -0.541144 0
M  V30 7030 H 651.305 4.34937 0.792588 0
M  V30 7031 N 650.364 0.662433 1.43002 0
M  V30 7032 C 651.274 -0.0239199 2.34588 0
M  V30 7033 C 652.29 -0.802255 1.54402 0
M  V30 7034 O 653.466 -0.747401 1.87018 0
M  V30 7035 C 650.531 -0.972098 3.32793 0
M  V30 7036 C 649.592 -0.189673 4.28881 0
M  V30 7037 C 648.825 -1.09269 5.22395 0
M  V30 7038 O 649.048 -2.33209 5.20547 0
M  V30 7039 O 647.982 -0.560136 5.99288 0
M  V30 7040 H 651.808 0.730171 2.94792 0
M  V30 7041 H 649.393 0.422635 1.43297 0
M  V30 7042 H 651.275 -1.51676 3.93157 0
M  V30 7043 H 649.95 -1.70626 2.75079 0
M  V30 7044 H 648.857 0.398794 3.71968 0
M  V30 7045 H 650.19 0.50511 4.89601 0
M  V30 7046 N 651.842 -1.52309 0.404946 0
M  V30 7047 C 652.805 -2.25491 -0.410651 0
M  V30 7048 C 653.805 -1.27704 -0.977154 0
M  V30 7049 O 654.995 -1.51679 -0.856691 0
M  V30 7050 C 652.127 -3.02197 -1.57765 0
M  V30 7051 H 653.32 -2.99015 0.230277 0
M  V30 7052 H 650.873 -1.55506 0.157377 0
M  V30 7053 H 651.608 -2.33013 -2.25556 0
M  V30 7054 H 651.393 -3.73987 -1.17797 0
M  V30 7055 H 652.883 -3.57719 -2.15469 0
M  V30 7056 N 653.32 -0.135238 -1.57019 0
M  V30 7057 C 654.568 0.51777 -1.95355 0
M  V30 7058 C 654.889 1.6617 -1.02042 0
M  V30 7059 O 654.159 1.95738 -0.0797343 0
M  V30 7060 H 652.739 0.194264 -0.721298 0
M  V30 7061 H 655.401 -0.207983 -1.93787 0
M  V30 7062 H 654.497 0.901675 -2.98791 0
M  V30 7063 N 654.798 1.5699 0.138552 0
M  V30 7064 C 655.708 2.02174 1.19008 0
M  V30 7065 C 656.724 0.938622 1.46512 0
M  V30 7066 O 657.9 1.24872 1.58016 0
M  V30 7067 C 654.965 2.40045 2.50159 0
M  V30 7068 C 654.026 3.62346 2.30226 0
M  V30 7069 C 653.259 3.98401 3.55123 0
M  V30 7070 O 653.482 3.35019 4.61647 0
M  V30 7071 O 652.416 4.91606 3.47285 0
M  V30 7072 H 656.242 2.91954 0.836452 0
M  V30 7073 H 653.827 1.45293 0.347907 0
M  V30 7074 H 655.709 2.65225 3.27465 0
M  V30 7075 H 654.384 1.53417 2.85035 0
M  V30 7076 H 653.291 3.42341 1.50843 0
M  V30 7077 H 654.624 4.49617 2.00262 0
M  V30 7078 N 656.276 -0.40816 1.52223 0
M  V30 7079 C 657.692 -0.74685 1.41047 0
M  V30 7080 C 657.892 -1.94788 0.51573 0
M  V30 7081 O 656.948 -2.52494 -0.0181156 0
M  V30 7082 C 658.261 -0.999878 2.83589 0
M  V30 7083 C 659.809 -1.10253 2.92939 0
M  V30 7084 C 660.284 -1.38832 4.36451 0
M  V30 7085 N 661.775 -1.45694 4.3969 0
M  V30 7086 C 662.51 -1.69435 5.47795 0
M  V30 7087 N 662.006 -1.90774 6.66016 0
M  V30 7088 N 663.799 -1.71458 5.35312 0
M  V30 7089 H 655.95 0.382409 2.08929 0
M  V30 7090 H 658.213 0.108807 0.941735 0
M  V30 7091 H 657.919 -0.189723 3.51188 0
M  V30 7092 H 657.793 -1.91978 3.24691 0
M  V30 7093 H 660.18 -1.90328 2.2552 0
M  V30 7094 H 660.261 -0.160973 2.55293 0
M  V30 7095 H 659.905 -0.592741 5.04429 0
M  V30 7096 H 659.835 -2.34241 4.71634 0
M  V30 7097 H 662.326 -1.3099 3.54472 0
M  V30 7098 H 662.639 -2.08342 7.44186 0
M  V30 7099 H 660.984 -1.88037 6.69079 0
M  V30 7100 H 664.175 -1.54326 4.41929 0
M  V30 7101 H 664.348 -1.89621 6.19635 0
M  V30 7102 N 657.755 -1.42862 -0.66545 0
M  V30 7103 C 658.718 -1.46756 -1.76055 0
M  V30 7104 C 659.718 -0.353866 -1.56858 0
M  V30 7105 O 660.908 -0.615099 -1.62979 0
M  V30 7106 C 658.04 -1.30829 -3.14796 0
M  V30 7107 H 659.233 -2.44271 -1.73987 0
M  V30 7108 H 656.786 -1.29447 -0.875965 0
M  V30 7109 H 657.521 -0.342733 -3.22484 0
M  V30 7110 H 657.306 -2.11551 -3.30134 0
M  V30 7111 H 658.796 -1.36458 -3.94676 0
M  V30 7112 N 659.233 0.902656 -1.29189 0
M  V30 7113 C 660.196 1.98797 -1.14071 0
M  V30 7114 C 661.196 1.60615 -0.0770549 0
M  V30 7115 O 662.386 1.71165 -0.323753 0
M  V30 7116 C 659.518 3.32688 -0.743739 0
M  V30 7117 H 660.711 2.13637 -2.10473 0
M  V30 7118 H 658.264 1.08678 -1.12334 0
M  V30 7119 H 658.999 3.23549 0.220554 0
M  V30 7120 H 658.784 3.61765 -1.51223 0
M  V30 7121 H 660.274 4.12337 -0.660935 0
M  V30 7122 N 660.711 1.11618 1.11262 0
M  V30 7123 C 662.127 0.850468 1.35053 0
M  V30 7124 C 662.327 -0.523868 1.94571 0
M  V30 7125 O 661.383 -1.2743 2.17986 0
M  V30 7126 C 662.696 1.96005 2.28041 0
M  V30 7127 C 664.244 1.98993 2.416 0
M  V30 7128 C 664.719 3.0916 3.37911 0
M  V30 7129 N 666.21 3.08547 3.45475 0
M  V30 7130 C 666.945 3.9043 4.19943 0
M  V30 7131 N 666.441 4.8228 4.97371 0
M  V30 7132 N 668.234 3.786 4.15474 0
M  V30 7133 H 660.385 2.00184 0.709932 0
M  V30 7134 H 662.648 0.870635 0.375099 0
M  V30 7135 H 662.354 2.9499 1.91503 0
M  V30 7136 H 662.228 1.85782 3.28275 0
M  V30 7137 H 664.615 1.00633 2.77411 0
M  V30 7138 H 664.696 2.13292 1.4121 0
M  V30 7139 H 664.34 4.07748 3.02827 0
M  V30 7140 H 664.27 2.92102 4.3816 0
M  V30 7141 H 666.761 2.42 2.90249 0
M  V30 7142 H 667.074 5.41289 5.51567 0
M  V30 7143 H 665.419 4.863 4.96525 0
M  V30 7144 H 668.61 3.06185 3.54074 0
M  V30 7145 H 668.783 4.42647 4.73253 0
M  V30 7146 N 662.189 -1.289 0.906776 0
M  V30 7147 C 663.099 -2.31256 0.394707 0
M  V30 7148 C 664.115 -1.66231 -0.514121 0
M  V30 7149 O 665.291 -1.97347 -0.401994 0
M  V30 7150 C 662.356 -3.44792 -0.363191 0
M  V30 7151 C 661.417 -4.25391 0.578012 0
M  V30 7152 C 660.65 -5.33506 -0.143811 0
M  V30 7153 O 660.873 -5.53786 -1.36665 0
M  V30 7154 O 659.807 -5.99673 0.5173 0
M  V30 7155 H 663.633 -2.77051 1.24405 0
M  V30 7156 H 661.218 -1.33466 0.671346 0
M  V30 7157 H 663.1 -4.139 -0.791503 0
M  V30 7158 H 661.775 -3.01093 -1.18848 0
M  V30 7159 H 660.682 -3.58899 1.05558 0
M  V30 7160 H 662.015 -4.72752 1.36992 0
M  V30 7161 N 663.667 -0.670007 -1.42649 0
M  V30 7162 C 664.916 -0.187526 -2.00826 0
M  V30 7163 C 665.229 1.21142 -1.53571 0
M  V30 7164 O 666.435 1.79001 -2.04134 0
M  V30 7165 C 664.891 -0.284409 -3.58774 0
M  V30 7166 C 664.499 -1.6871 -4.15019 0
M  V30 7167 C 666.243 0.139605 -4.2427 0
M  V30 7168 C 664.15 -1.73701 -5.65316 0
M  V30 7169 H 663.08 -0.0663468 -0.751075 0
M  V30 7170 H 665.731 -0.834492 -1.63427 0
M  V30 7171 H 664.113 0.430364 -3.93655 0
M  V30 7172 H 665.287 -2.42857 -3.91608 0
M  V30 7173 H 663.602 -2.05855 -3.61957 0
M  V30 7174 H 666.199 0.122398 -5.3456 0
M  V30 7175 H 666.542 1.17403 -3.99402 0
M  V30 7176 H 667.075 -0.523995 -3.94334 0
M  V30 7177 H 663.814 -2.75109 -5.94975 0
M  V30 7178 H 663.334 -1.03903 -5.90732 0
M  V30 7179 H 665.013 -1.48829 -6.2965 0
M  V30 7180 N 665.145 1.52092 -0.413018 0
M  V30 7181 C 666.075 2.30021 0.401567 0
M  V30 7182 C 667.056 1.34395 1.04269 0
M  V30 7183 O 668.241 1.63304 1.05097 0
M  V30 7184 C 665.371 3.12447 1.51638 0
M  V30 7185 C 664.325 4.16153 1.00005 0
M  V30 7186 C 663.651 4.86948 2.20875 0
M  V30 7187 C 664.951 5.22275 0.0513757 0
M  V30 7188 H 666.645 2.98365 -0.248704 0
M  V30 7189 H 664.191 1.4349 -0.121052 0
M  V30 7190 H 666.144 3.65733 2.09326 0
M  V30 7191 H 664.868 2.41879 2.19458 0
M  V30 7192 H 663.527 3.63882 0.445549 0
M  V30 7193 H 663.175 4.12905 2.8726 0
M  V30 7194 H 662.875 5.57057 1.86978 0
M  V30 7195 H 664.399 5.43048 2.79162 0
M  V30 7196 H 665.813 5.70778 0.537176 0
M  V30 7197 H 664.21 5.9977 -0.198977 0
M  V30 7198 H 665.28 4.76611 -0.892736 0
M  V30 7199 N 666.623 0.143563 1.56945 0
M  V30 7200 C 667.573 -0.809115 2.1316 0
M  V30 7201 C 668.557 -1.21176 1.05855 0
M  V30 7202 O 669.749 -1.17875 1.3204 0
M  V30 7203 C 666.878 -2.04957 2.75405 0
M  V30 7204 C 665.964 -1.67018 3.89828 0
M  V30 7205 N 666.355 -0.998822 4.9584 0
M  V30 7206 C 664.653 -1.96313 4.00471 0
M  V30 7207 C 665.354 -0.816217 5.75945 0
M  V30 7208 N 664.33 -1.349 5.26596 0
M  V30 7209 H 668.132 -0.286919 2.92496 0
M  V30 7210 H 665.646 -0.0580948 1.62296 0
M  V30 7211 H 667.643 -2.74201 3.14037 0
M  V30 7212 H 666.303 -2.57697 1.97541 0
M  V30 7213 H 667.314 -0.659975 5.13678 0
M  V30 7214 H 663.991 -2.50927 3.33679 0
M  V30 7215 H 665.381 -0.287353 6.71285 0
M  V30 7216 N 668.101 -1.57061 -0.130224 0
M  V30 7217 C 669.064 -1.98593 -1.14426 0
M  V30 7218 C 670.064 -0.874584 -1.34936 0
M  V30 7219 O 671.254 -1.14086 -1.31643 0
M  V30 7220 C 668.386 -2.31639 -2.50112 0
M  V30 7221 H 669.579 -2.89374 -0.787561 0
M  V30 7222 H 667.132 -1.51756 -0.374146 0
M  V30 7223 H 667.867 -1.43703 -2.90723 0
M  V30 7224 H 667.652 -3.12684 -2.36583 0
M  V30 7225 H 669.142 -2.64551 -3.23114 0
M  V30 7226 N 669.579 0.400081 -1.52437 0
M  V30 7227 C 670.512 1.50929 -1.7116 0
M  V30 7228 C 671.49 1.52679 -0.559275 0
M  V30 7229 O 672.674 1.71251 -0.787735 0
M  V30 7230 C 669.801 2.89433 -1.75915 0
M  V30 7231 C 668.847 3.05556 -2.97553 0
M  V30 7232 S 669.68 2.77919 -4.57735 0
M  V30 7233 C 670.836 4.18636 -4.6529 0
M  V30 7234 H 671.069 1.3482 -2.64973 0
M  V30 7235 H 668.602 0.592245 -1.4259 0
M  V30 7236 H 670.56 3.69253 -1.7934 0
M  V30 7237 H 669.221 3.02877 -0.832137 0
M  V30 7238 H 668.414 4.0691 -2.97388 0
M  V30 7239 H 668.016 2.33615 -2.92062 0
M  V30 7240 H 670.308 5.12406 -4.43223 0
M  V30 7241 H 671.251 4.23821 -5.67258 0
M  V30 7242 H 671.659 4.04029 -3.94234 0
M  V30 7243 N 671.057 1.43213 0.657864 0
M  V30 7244 C 672.305 1.44298 1.41501 0
M  V30 7245 C 672.626 0.0666478 1.94886 0
M  V30 7246 O 671.896 -0.897345 1.74139 0
M  V30 7247 H 670.476 0.531257 0.525143 0
M  V30 7248 H 673.138 1.78777 0.776195 0
M  V30 7249 H 672.234 2.1528 2.25966 0
M  V30 7250 N 672.536 -0.895792 1.29666 0
M  V30 7251 C 673.483 -2.00035 1.15129 0
M  V30 7252 C 674.453 -1.66043 0.0435819 0
M  V30 7253 O 675.638 -1.89621 0.211811 0
M  V30 7254 C 672.778 -3.34774 0.83787 0
M  V30 7255 C 671.891 -3.81525 2.0264 0
M  V30 7256 C 671.026 -5.04858 1.65201 0
M  V30 7257 C 670.065 -5.43988 2.80612 0
M  V30 7258 N 669.202 -6.58507 2.43544 0
M  V30 7259 H 674.042 -2.11802 2.09628 0
M  V30 7260 H 671.579 -1.03719 1.04311 0
M  V30 7261 H 673.537 -4.12311 0.636824 0
M  V30 7262 H 672.167 -3.22724 -0.0702314 0
M  V30 7263 H 671.219 -2.9999 2.33903 0
M  V30 7264 H 672.531 -4.06472 2.89106 0
M  V30 7265 H 671.685 -5.8999 1.41408 0
M  V30 7266 H 670.424 -4.81759 0.758893 0
M  V30 7267 H 669.429 -4.57388 3.05083 0
M  V30 7268 H 670.654 -5.69066 3.70595 0
M  V30 7269 H 668.6 -6.37004 1.56724 0
M  V30 7270 H 668.517 -6.83269 3.23542 0
M  V30 7271 H 669.785 -7.46897 2.2308 0
M  V30 7272 N 674.014 -1.12206 -1.10668 0
M  V30 7273 C 675.263 -0.870595 -1.81944 0
M  V30 7274 C 675.576 0.605447 -1.85994 0
M  V30 7275 O 676.782 0.973433 -2.53449 0
M  V30 7276 C 675.238 -1.50783 -3.26791 0
M  V30 7277 C 674.846 -3.01849 -3.31046 0
M  V30 7278 C 676.59 -1.33653 -4.02911 0
M  V30 7279 C 674.497 -3.58518 -4.70339 0
M  V30 7280 H 673.427 -0.322043 -0.681765 0
M  V30 7281 H 676.078 -1.34827 -1.24475 0
M  V30 7282 H 674.46 -0.957825 -3.84242 0
M  V30 7283 H 675.634 -3.63321 -2.83433 0
M  V30 7284 H 673.949 -3.18346 -2.68411 0
M  V30 7285 H 676.546 -1.73416 -5.05797 0
M  V30 7286 H 676.889 -0.279949 -4.15358 0
M  V30 7287 H 677.422 -1.85562 -3.51868 0
M  V30 7288 H 674.161 -4.63925 -4.63091 0
M  V30 7289 H 673.681 -3.01819 -5.18329 0
M  V30 7290 H 675.36 -3.57434 -5.39305 0
M  V30 7291 N 675.492 1.28418 -0.913599 0
M  V30 7292 C 676.903 1.77024 -0.593237 0
M  V30 7293 C 677.254 1.74779 0.891441 0
M  V30 7294 O 676.379 1.34237 1.69733 0
M  V30 7295 C 676.974 3.21456 -1.07011 0
M  V30 7296 C 675.533 3.67786 -0.800664 0
M  V30 7297 C 674.68 2.48185 -1.23691 0
M  V30 7298 H 677.631 1.14883 -1.09487 0
M  V30 7299 H 677.652 3.78269 -0.411481 0
M  V30 7300 H 677.164 3.23058 -2.1507 0
M  V30 7301 H 675.265 3.71644 0.266725 0
M  V30 7302 H 675.378 4.57934 -1.4083 0
M  V30 7303 H 673.742 2.46116 -0.655655 0
M  V30 7304 H 674.525 2.52506 -2.32585 0
M  V30 7305 N 676.97 0.677563 1.42291 0
M  V30 7306 C 677.88 0.000962654 2.346 0
M  V30 7307 C 678.896 -0.785833 1.55244 0
M  V30 7308 O 680.072 -0.727523 1.87801 0
M  V30 7309 C 677.137 -0.936746 3.33805 0
M  V30 7310 C 676.198 -0.144173 4.29058 0
M  V30 7311 C 675.431 -1.03722 5.23524 0
M  V30 7312 O 675.654 -2.27675 5.22992 0
M  V30 7313 O 674.588 -0.496542 5.99848 0
M  V30 7314 H 678.414 0.761397 2.94001 0
M  V30 7315 H 675.999 0.43781 1.42841 0
M  V30 7316 H 677.881 -1.47497 3.94744 0
M  V30 7317 H 676.556 -1.67698 2.76874 0
M  V30 7318 H 675.463 0.438224 3.71524 0
M  V30 7319 H 676.796 0.55701 4.89038 0
M  V30 7320 N 678.448 -1.51871 0.421078 0
M  V30 7321 C 679.725 -1.9447 -0.20993 0
M  V30 7322 C 680.105 -1.35875 -1.61558 0
M  V30 7323 O 679.453 -0.539294 -2.22045 0
M  V30 7324 C 679.663 -3.48402 -0.204165 0
M  V30 7325 C 681.011 -4.2254 -0.417696 0
M  V30 7326 O 682.035 -3.55074 -0.282999 0
M  V30 7327 O 680.894 -5.422 -0.684239 0
M  V30 7328 H 677.988 -0.815283 -0.138718 0
M  V30 7329 H 680.534 -1.62832 0.477884 0
M  V30 7330 H 679.306 -3.83464 0.779183 0
M  V30 7331 H 678.929 -3.86436 -0.935576 0
M  V30 7332 N 679.926 -0.151884 -1.56866 0
M  V30 7333 C 680.836 0.798876 -2.20579 0
M  V30 7334 C 681.852 1.268 -1.19154 0
M  V30 7335 O 683.028 1.32418 -1.51748 0
M  V30 7336 C 680.093 2.01861 -2.81874 0
M  V30 7337 C 679.154 1.59825 -3.9844 0
M  V30 7338 C 678.387 2.75984 -4.56802 0
M  V30 7339 O 678.61 3.92331 -4.14044 0
M  V30 7340 O 677.544 2.51175 -5.46987 0
M  V30 7341 H 681.37 0.2865 -3.02346 0
M  V30 7342 H 678.955 0.0753806 -1.4921 0
M  V30 7343 H 680.837 2.73235 -3.20813 0
M  V30 7344 H 679.512 2.52042 -2.03117 0
M  V30 7345 H 678.419 0.854601 -3.64208 0
M  V30 7346 H 679.752 1.14355 -4.78731 0
M  V30 7347 N 681.404 1.57128 0.121893 0
M  V30 7348 C 682.653 1.83888 0.828748 0
M  V30 7349 C 682.966 0.737087 1.81181 0
M  V30 7350 O 684.172 0.891007 2.56463 0
M  V30 7351 C 682.628 3.26014 1.52455 0
M  V30 7352 C 682.236 4.44195 0.58263 0
M  V30 7353 C 683.98 3.62025 2.21671 0
M  V30 7354 C 681.887 5.77349 1.28149 0
M  V30 7355 H 680.817 0.685856 0.313238 0
M  V30 7356 H 683.468 1.83319 0.0814851 0
M  V30 7357 H 681.85 3.21044 2.31834 0
M  V30 7358 H 683.024 4.60457 -0.177729 0
M  V30 7359 H 681.339 4.164 -0.00241228 0
M  V30 7360 H 683.936 4.58776 2.74643 0
M  V30 7361 H 684.279 2.89315 2.99337 0
M  V30 7362 H 684.812 3.68767 1.49184 0
M  V30 7363 H 681.551 6.53221 0.546189 0
M  V30 7364 H 681.071 5.64978 2.01394 0
M  V30 7365 H 682.75 6.21006 1.81549 0
M  V30 7366 N 682.882 -0.391992 1.52647 0
M  V30 7367 C 684.128 -1.13563 1.68745 0
M  V30 7368 C 684.483 -1.87745 0.420685 0
M  V30 7369 O 683.776 -1.82434 -0.585529 0
M  V30 7370 C 683.97 -2.14401 2.85949 0
M  V30 7371 C 683.799 -1.50124 4.23902 0
M  V30 7372 C 682.569 -1.2666 4.89168 0
M  V30 7373 C 684.767 -0.952933 5.05395 0
M  V30 7374 N 682.749 -0.584555 6.11111 0
M  V30 7375 C 684.12 -0.398784 6.18716 0
M  V30 7376 C 686.175 -0.849053 4.90607 0
M  V30 7377 C 684.878 0.249084 7.18869 0
M  V30 7378 C 686.904 -0.215011 5.91009 0
M  V30 7379 C 686.266 0.328382 7.03634 0
M  V30 7380 H 682.365 -0.401628 0.670984 0
M  V30 7381 H 684.949 -0.425585 1.89992 0
M  V30 7382 H 683.12 -2.82746 2.66288 0
M  V30 7383 H 684.852 -2.8125 2.90999 0
M  V30 7384 H 681.607 -1.54078 4.47836 0
M  V30 7385 H 682.031 -0.259663 6.76502 0
M  V30 7386 H 686.673 -1.25497 4.03745 0
M  V30 7387 H 684.391 0.667019 8.05342 0
M  V30 7388 H 687.977 -0.135921 5.81641 0
M  V30 7389 H 686.857 0.811257 7.79992 0
M  V30 7390 N 684.36 -1.4356 -0.65026 0
M  V30 7391 C 685.292 -1.44918 -1.77571 0
M  V30 7392 C 686.305 -0.344925 -1.59104 0
M  V30 7393 O 687.494 -0.609537 -1.6777 0
M  V30 7394 C 684.594 -1.24914 -3.15039 0
M  V30 7395 C 683.767 -2.48232 -3.60138 0
M  V30 7396 C 682.826 -2.23409 -4.76419 0
M  V30 7397 O 681.852 -2.9678 -4.85706 0
M  V30 7398 N 683.054 -1.25259 -5.66825 0
M  V30 7399 H 685.819 -2.41935 -1.76883 0
M  V30 7400 H 683.38 -1.38754 -0.834202 0
M  V30 7401 H 685.372 -1.06185 -3.90521 0
M  V30 7402 H 683.942 -0.363319 -3.10481 0
M  V30 7403 H 683.162 -2.82366 -2.75069 0
M  V30 7404 H 684.45 -3.30296 -3.87017 0
M  V30 7405 H 683.848 -0.646246 -5.61997 0
M  V30 7406 H 682.405 -1.12513 -6.42016 0
M  V30 7407 N 685.838 0.888903 -1.30139 0
M  V30 7408 C 687.063 1.67884 -1.21777 0
M  V30 7409 C 687.488 1.86848 0.216689 0
M  V30 7410 O 686.846 1.39659 1.15608 0
M  V30 7411 C 686.894 3.03483 -1.94757 0
M  V30 7412 O 685.998 3.92294 -1.27198 0
M  V30 7413 H 685.339 0.513144 -0.421402 0
M  V30 7414 H 687.869 1.10968 -1.71893 0
M  V30 7415 H 687.879 3.53553 -2.03627 0
M  V30 7416 H 686.554 2.89 -2.99085 0
M  V30 7417 H 685.131 3.50732 -1.26655 0
M  V30 7418 N 687.317 1.12792 1.10072 0
M  V30 7419 C 688.227 0.812369 2.20086 0
M  V30 7420 C 689.243 -0.200349 1.72843 0
M  V30 7421 O 690.419 -0.0330262 2.01373 0
M  V30 7422 C 687.484 0.275685 3.45602 0
M  V30 7423 C 686.545 1.34881 4.07561 0
M  V30 7424 C 685.778 0.837639 5.27086 0
M  V30 7425 O 686.001 -0.327224 5.69461 0
M  V30 7426 O 684.935 1.60894 5.79997 0
M  V30 7427 H 688.761 1.73133 2.49517 0
M  V30 7428 H 686.346 0.904863 1.18881 0
M  V30 7429 H 688.228 -0.0185375 4.21396 0
M  V30 7430 H 686.903 -0.615783 3.17789 0
M  V30 7431 H 685.81 1.69625 3.33434 0
M  V30 7432 H 687.143 2.21418 4.39585 0
M  V30 7433 N 688.795 -1.27931 0.920396 0
M  V30 7434 C 690.206 -1.76707 0.602616 0
M  V30 7435 C 690.557 -1.75249 -0.882159 0
M  V30 7436 O 689.682 -1.35135 -1.69019 0
M  V30 7437 C 690.277 -3.20884 1.08714 0
M  V30 7438 C 688.836 -3.67356 0.820157 0
M  V30 7439 C 687.983 -2.47525 1.25006 0
M  V30 7440 H 690.934 -1.14301 1.10095 0
M  V30 7441 H 690.955 -3.78045 0.431535 0
M  V30 7442 H 690.467 -3.21913 2.1678 0
M  V30 7443 H 688.568 -3.7178 -0.247012 0
M  V30 7444 H 688.681 -4.57181 1.43257 0
M  V30 7445 H 687.045 -2.45765 0.668698 0
M  V30 7446 H 687.828 -2.51269 2.3392 0
M  V30 7447 N 690.273 -0.685099 -1.4193 0
M  V30 7448 C 691.183 -0.013404 -2.34596 0
M  V30 7449 C 692.199 0.777589 -1.55658 0
M  V30 7450 O 693.375 0.717553 -1.88184 0
M  V30 7451 C 690.44 0.919031 -3.34297 0
M  V30 7452 C 689.501 0.121417 -4.29128 0
M  V30 7453 C 688.734 1.00944 -5.24067 0
M  V30 7454 O 688.957 2.24898 -5.24192 0
M  V30 7455 O 687.891 0.464724 -6.00103 0
M  V30 7456 H 691.717 -0.776978 -2.93593 0
M  V30 7457 H 689.302 -0.445379 -1.42607 0
M  V30 7458 H 691.184 1.45402 -3.9552 0
M  V30 7459 H 689.859 1.66228 -2.77759 0
M  V30 7460 H 688.766 -0.45792 -3.71287 0
M  V30 7461 H 690.099 -0.582937 -4.88736 0
M  V30 7462 N 691.751 1.51645 -0.429126 0
M  V30 7463 C 692.976 2.06917 0.141399 0
M  V30 7464 C 693.401 1.29527 1.36398 0
M  V30 7465 O 692.759 0.33094 1.78254 0
M  V30 7466 C 692.807 3.57776 0.4504 0
M  V30 7467 O 691.911 3.82639 1.53821 0
M  V30 7468 H 691.252 0.663978 0.0054647 0
M  V30 7469 H 693.782 1.95355 -0.608093 0
M  V30 7470 H 693.792 4.01894 0.703249 0
M  V30 7471 H 692.467 4.13532 -0.443213 0
M  V30 7472 H 691.044 3.5039 1.27597 0
M  V30 7473 N 693.229 0.160201 1.56784 0
M  V30 7474 C 694.475 -0.48831 1.96833 0
M  V30 7475 C 694.808 -1.63641 1.04571 0
M  V30 7476 O 694.083 -1.94289 0.0906481 0
M  V30 7477 C 694.366 -0.981908 3.46454 0
M  V30 7478 C 694.219 0.165607 4.49495 0
M  V30 7479 C 695.538 -1.85931 3.98896 0
M  V30 7480 H 692.657 -0.176027 0.71567 0
M  V30 7481 H 695.299 0.244093 1.88426 0
M  V30 7482 H 693.449 -1.60602 3.5375 0
M  V30 7483 H 695.121 0.802372 4.54268 0
M  V30 7484 H 693.364 0.822789 4.25926 0
M  V30 7485 H 694.035 -0.221699 5.51555 0
M  V30 7486 H 696.511 -1.33327 3.94161 0
M  V30 7487 H 695.387 -2.17373 5.04024 0
M  V30 7488 H 695.648 -2.80106 3.42042 0
M  V30 7489 N 694.707 -1.5719 -0.113559 0
M  V30 7490 C 695.984 -1.76117 -0.850999 0
M  V30 7491 C 696.364 -0.737085 -1.97814 0
M  V30 7492 O 695.712 0.237942 -2.27258 0
M  V30 7493 C 695.922 -3.21298 -1.36266 0
M  V30 7494 C 697.27 -3.83955 -1.81283 0
M  V30 7495 O 698.294 -3.24934 -1.45933 0
M  V30 7496 O 697.153 -4.87707 -2.46585 0
M  V30 7497 H 694.247 -0.721308 -0.404529 0
M  V30 7498 H 696.793 -1.69423 -0.0968756 0
M  V30 7499 H 695.565 -3.87355 -0.554235 0
M  V30 7500 H 695.188 -3.32552 -2.17933 0
M  V30 7501 N 696.185 0.383891 -1.52853 0
M  V30 7502 C 697.431 1.13009 -1.68395 0
M  V30 7503 C 697.764 1.89488 -0.425195 0
M  V30 7504 O 697.039 1.8574 0.577136 0
M  V30 7505 C 697.322 2.10419 -2.92226 0
M  V30 7506 C 697.175 1.3767 -4.28214 0
M  V30 7507 C 698.494 3.10781 -3.11614 0
M  V30 7508 H 695.613 0.409463 -0.612788 0
M  V30 7509 H 698.255 0.412895 -1.85459 0
M  V30 7510 H 696.405 2.71579 -2.77808 0
M  V30 7511 H 698.077 0.794352 -4.54409 0
M  V30 7512 H 696.32 0.678533 -4.2846 0
M  V30 7513 H 696.991 2.08874 -5.10956 0
M  V30 7514 H 699.467 2.59715 -3.25096 0
M  V30 7515 H 698.343 3.76179 -3.99725 0
M  V30 7516 H 698.604 3.79933 -2.2606 0
M  V30 7517 N 697.663 1.43903 0.642637 0
M  V30 7518 C 699.074 1.40975 1.22404 0
M  V30 7519 C 699.425 0.1192 1.95838 0
M  V30 7520 O 698.55 -0.780939 2.01818 0
M  V30 7521 C 699.145 2.5538 2.22636 0
M  V30 7522 C 697.704 2.55684 2.76229 0
M  V30 7523 C 696.851 2.32556 1.51039 0
M  V30 7524 H 699.802 1.5265 0.434006 0
M  V30 7525 H 699.823 2.27474 3.05017 0
M  V30 7526 H 699.335 3.49294 1.69161 0
M  V30 7527 H 697.436 1.65679 3.33738 0
M  V30 7528 H 697.549 3.53799 3.23053 0
M  V30 7529 H 695.913 1.81427 1.78764 0
M  V30 7530 H 696.696 3.28569 0.99484 0
M  V30 7531 N 699.141 -0.881989 1.30609 0
M  V30 7532 C 700.104 -1.96957 1.1722 0
M  V30 7533 C 701.104 -1.60472 0.102598 0
M  V30 7534 O 702.294 -1.70628 0.350943 0
M  V30 7535 C 699.426 -3.31463 0.796572 0
M  V30 7536 H 700.619 -2.10262 2.13846 0
M  V30 7537 H 698.172 -1.06877 1.14048 0
M  V30 7538 H 698.907 -3.23859 -0.169053 0
M  V30 7539 H 698.692 -3.59314 1.56959 0
M  V30 7540 H 700.182 -4.11233 0.72645 0
M  V30 7541 N 700.619 -1.13374 -1.09472 0
M  V30 7542 C 701.551 -0.768466 -2.15933 0
M  V30 7543 C 702.564 0.209585 -1.61445 0
M  V30 7544 O 703.753 -0.010539 -1.78497 0
M  V30 7545 C 700.853 -0.118266 -3.38694 0
M  V30 7546 C 700.026 -1.12829 -4.22597 0
M  V30 7547 C 699.085 -0.503875 -5.23782 0
M  V30 7548 O 698.111 -1.16374 -5.57177 0
M  V30 7549 N 699.313 0.724288 -5.75964 0
M  V30 7550 H 702.078 -1.68457 -2.47876 0
M  V30 7551 H 699.639 -1.02668 -1.25183 0
M  V30 7552 H 701.631 0.311698 -4.03498 0
M  V30 7553 H 700.201 0.700769 -3.04644 0
M  V30 7554 H 699.421 -1.73556 -3.53938 0
M  V30 7555 H 700.709 -1.81095 -4.75481 0
M  V30 7556 H 700.107 1.27918 -5.51048 0
M  V30 7557 H 698.664 1.09692 -6.42504 0
M  V30 7558 N 702.098 1.27442 -0.927168 0
M  V30 7559 C 703.509 1.76385 -0.611979 0
M  V30 7560 C 703.86 1.75715 0.872853 0
M  V30 7561 O 702.985 1.3603 1.683 0
M  V30 7562 C 703.58 3.20303 -1.10414 0
M  V30 7563 C 702.139 3.66916 -0.839628 0
M  V30 7564 C 701.286 2.46859 -1.26317 0
M  V30 7565 H 704.237 1.13716 -1.107 0
M  V30 7566 H 704.258 3.77811 -0.451578 0
M  V30 7567 H 703.77 3.20759 -2.18484 0
M  V30 7568 H 701.871 3.71906 0.227292 0
M  V30 7569 H 701.984 4.56415 -1.45679 0
M  V30 7570 H 700.348 2.45407 -0.681723 0
M  V30 7571 H 701.131 2.50025 -2.3525 0
M  V30 7572 N 703.576 0.692616 1.41565 0
M  V30 7573 C 704.825 0.219452 2.00503 0
M  V30 7574 C 705.138 -1.18683 1.55479 0
M  V30 7575 O 706.344 -1.75731 2.06956 0
M  V30 7576 C 704.8 0.341451 3.58277 0
M  V30 7577 C 704.408 1.75291 4.12283 0
M  V30 7578 C 706.152 -0.0720899 4.24439 0
M  V30 7579 C 704.059 1.82673 5.62481 0
M  V30 7580 H 702.989 0.0782874 0.749925 0
M  V30 7581 H 705.64 0.860386 1.62079 0
M  V30 7582 H 704.022 -0.367683 3.94289 0
M  V30 7583 H 705.196 2.49057 3.87695 0
M  V30 7584 H 703.511 2.11587 3.58636 0
M  V30 7585 H 706.108 -0.0373385 5.34687 0
M  V30 7586 H 706.451 -1.11034 4.0122 0
M  V30 7587 H 706.984 0.586663 3.9345 0
M  V30 7588 H 703.723 2.84539 5.90523 0
M  V30 7589 H 703.243 1.13288 5.89004 0
M  V30 7590 H 704.922 1.58827 6.27203 0
M  V30 7591 N 705.054 -1.51416 0.437162 0
M  V30 7592 C 706.282 -2.06503 -0.128045 0
M  V30 7593 C 706.697 -1.30461 -1.36475 0
M  V30 7594 O 706.054 -0.364127 -1.78831 0
M  V30 7595 C 706.105 -3.58683 -0.450437 0
M  V30 7596 O 705.826 -4.31853 0.737186 0
M  V30 7597 C 707.327 -4.30284 -1.06633 0
M  V30 7598 H 704.547 -0.670952 -0.00800269 0
M  V30 7599 H 707.091 -1.94996 0.616193 0
M  V30 7600 H 705.246 -3.70106 -1.14457 0
M  V30 7601 H 705.66 -5.22467 0.461347 0
M  V30 7602 H 707.134 -5.37848 -1.24191 0
M  V30 7603 H 707.611 -3.88564 -2.0473 0
M  V30 7604 H 708.217 -4.23304 -0.411585 0
M  V30 7605 N 706.532 -0.168513 -1.56696 0
M  V30 7606 C 707.76 0.483503 -2.01171 0
M  V30 7607 C 708.175 1.56994 -1.04872 0
M  V30 7608 O 707.532 1.82434 -0.0491337 0
M  V30 7609 C 707.583 1.0644 -3.45475 0
M  V30 7610 O 707.304 0.0213375 -4.38095 0
M  V30 7611 C 708.805 1.79493 -4.05336 0
M  V30 7612 H 706.025 0.124002 -0.659443 0
M  V30 7613 H 708.569 -0.269419 -2.02717 0
M  V30 7614 H 706.724 1.76784 -3.44712 0
M  V30 7615 H 707.138 0.449837 -5.22567 0
M  V30 7616 H 708.612 2.15401 -5.08238 0
M  V30 7617 H 709.089 2.68889 -3.47269 0
M  V30 7618 H 709.695 1.13798 -4.09793 0
M  V30 7619 N 708.01 1.57248 0.105221 0
M  V30 7620 C 709.238 1.89768 0.82437 0
M  V30 7621 C 709.653 0.761192 1.72775 0
M  V30 7622 O 709.01 -0.267342 1.80531 0
M  V30 7623 C 709.061 3.2184 1.64625 0
M  V30 7624 O 708.782 4.31115 0.779217 0
M  V30 7625 C 710.283 3.68155 2.46935 0
M  V30 7626 H 707.503 0.628031 0.236259 0
M  V30 7627 H 710.047 2.04321 0.085485 0
M  V30 7628 H 708.202 3.08915 2.33775 0
M  V30 7629 H 708.616 5.06897 1.34745 0
M  V30 7630 H 710.09 4.6329 3.00111 0
M  V30 7631 H 710.567 2.95492 3.24932 0
M  V30 7632 H 711.173 3.83914 1.83002 0
M  V30 7633 N 709.488 -0.375779 1.53054 0
M  V30 7634 C 710.735 -1.11948 1.68742 0
M  V30 7635 C 711.063 -1.89596 0.434015 0
M  V30 7636 O 710.318 -1.86787 -0.583867 0
M  V30 7637 C 710.617 -2.11356 2.88207 0
M  V30 7638 C 710.283 -1.50266 4.25124 0
M  V30 7639 C 708.945 -1.33333 4.62359 0
M  V30 7640 C 711.297 -1.05976 5.10312 0
M  V30 7641 C 708.625 -0.706765 5.82427 0
M  V30 7642 C 710.977 -0.447241 6.31017 0
M  V30 7643 C 709.641 -0.265314 6.66973 0
M  V30 7644 H 708.911 -0.409648 0.61747 0
M  V30 7645 H 711.558 -0.402492 1.87222 0
M  V30 7646 H 709.863 -2.89322 2.64197 0
M  V30 7647 H 711.56 -2.68833 2.97539 0
M  V30 7648 H 708.15 -1.64437 3.95801 0
M  V30 7649 H 712.334 -1.17855 4.82104 0
M  V30 7650 H 707.59 -0.554132 6.08884 0
M  V30 7651 H 711.764 -0.0958064 6.96334 0
M  V30 7652 H 709.391 0.222267 7.59875 0
M  V30 7653 N 710.966 -1.44241 -0.634997 0
M  V30 7654 C 711.896 -1.53632 -1.7584 0
M  V30 7655 C 712.877 -0.389603 -1.65578 0
M  V30 7656 O 714.062 -0.609219 -1.84397 0
M  V30 7657 C 711.192 -1.47644 -3.14354 0
M  V30 7658 C 710.146 -2.60752 -3.394 0
M  V30 7659 C 709.472 -2.39817 -4.77904 0
M  V30 7660 C 710.772 -4.02921 -3.32343 0
M  V30 7661 H 712.466 -2.47662 -1.68238 0
M  V30 7662 H 710.012 -1.19197 -0.807969 0
M  V30 7663 H 711.965 -1.52815 -3.92716 0
M  V30 7664 H 710.689 -0.501284 -3.2273 0
M  V30 7665 H 709.348 -2.54965 -2.63417 0
M  V30 7666 H 708.996 -1.40502 -4.82978 0
M  V30 7667 H 708.696 -3.15649 -4.9562 0
M  V30 7668 H 710.22 -2.46799 -5.585 0
M  V30 7669 H 711.634 -4.10098 -4.00615 0
M  V30 7670 H 710.031 -4.78925 -3.61595 0
M  V30 7671 H 711.101 -4.26766 -2.30215 0
M  V30 7672 N 712.444 0.87505 -1.31075 0
M  V30 7673 C 713.354 2.01441 -1.20244 0
M  V30 7674 C 714.37 1.73584 -0.120227 0
M  V30 7675 O 715.546 1.98559 -0.337063 0
M  V30 7676 C 712.611 3.34675 -0.905199 0
M  V30 7677 C 711.672 3.75889 -2.0738 0
M  V30 7678 C 710.905 5.02764 -1.79064 0
M  V30 7679 O 711.128 5.65795 -0.723318 0
M  V30 7680 O 710.062 5.40623 -2.64594 0
M  V30 7681 H 713.888 2.13509 -2.1598 0
M  V30 7682 H 711.473 1.00257 -1.10765 0
M  V30 7683 H 713.355 4.1458 -0.755057 0
M  V30 7684 H 712.03 3.23692 0.0221695 0
M  V30 7685 H 710.937 2.96645 -2.27931 0
M  V30 7686 H 712.27 3.91489 -2.98324 0
M  V30 7687 N 713.922 1.13953 1.08869 0
M  V30 7688 C 715.338 0.878924 1.33218 0
M  V30 7689 C 715.538 -0.482478 1.95638 0
M  V30 7690 O 714.594 -1.22778 2.2064 0
M  V30 7691 C 715.907 2.00798 2.23832 0
M  V30 7692 C 717.455 2.04073 2.37325 0
M  V30 7693 C 717.93 3.16258 3.31278 0
M  V30 7694 N 719.421 3.15805 3.38853 0
M  V30 7695 C 720.156 3.99249 4.11567 0
M  V30 7696 N 719.652 4.92721 4.87029 0
M  V30 7697 N 721.445 3.87327 4.0735 0
M  V30 7698 H 713.596 2.01645 0.66731 0
M  V30 7699 H 715.859 0.878395 0.356547 0
M  V30 7700 H 715.565 2.98986 1.85203 0
M  V30 7701 H 715.439 1.92704 3.24261 0
M  V30 7702 H 717.826 1.06495 2.75214 0
M  V30 7703 H 717.907 2.16239 1.36654 0
M  V30 7704 H 717.551 4.14079 2.9411 0
M  V30 7705 H 717.481 3.0133 4.31866 0
M  V30 7706 H 719.972 2.48102 2.8505 0
M  V30 7707 H 720.285 5.52867 5.39961 0
M  V30 7708 H 718.63 4.96723 4.86098 0
M  V30 7709 H 721.821 3.13627 3.475 0
M  V30 7710 H 721.994 4.52585 4.63757 0
M  V30 7711 N 715.4 -1.26948 0.933913 0
M  V30 7712 C 716.35 -2.24306 0.408779 0
M  V30 7713 C 717.334 -1.53243 -0.490435 0
M  V30 7714 O 718.526 -1.73956 -0.326866 0
M  V30 7715 C 715.655 -3.41695 -0.331578 0
M  V30 7716 C 714.741 -4.20053 0.58451 0
M  V30 7717 N 715.132 -4.76122 1.70709 0
M  V30 7718 C 713.43 -4.44303 0.388703 0
M  V30 7719 C 714.131 -5.35267 2.27737 0
M  V30 7720 N 713.107 -5.20548 1.56622 0
M  V30 7721 H 716.909 -2.65244 1.26582 0
M  V30 7722 H 714.423 -1.4195 0.788919 0
M  V30 7723 H 716.42 -4.10552 -0.724774 0
M  V30 7724 H 715.08 -3.02286 -1.18547 0
M  V30 7725 H 716.091 -4.73884 2.08937 0
M  V30 7726 H 712.768 -4.15341 -0.424016 0
M  V30 7727 H 714.158 -5.89563 3.22282 0
M  V30 7728 N 716.879 -0.700114 -1.41195 0
M  V30 7729 C 717.809 -0.0521132 -2.33442 0
M  V30 7730 C 718.79 0.76228 -1.52063 0
M  V30 7731 O 719.975 0.714336 -1.80585 0
M  V30 7732 C 717.105 0.881693 -3.35922 0
M  V30 7733 C 716.059 0.174062 -4.27646 0
M  V30 7734 C 715.385 1.22254 -5.20536 0
M  V30 7735 C 716.685 -0.962396 -5.13357 0
M  V30 7736 H 718.379 -0.822574 -2.87879 0
M  V30 7737 H 715.925 -0.397011 -1.38419 0
M  V30 7738 H 717.878 1.34429 -3.99383 0
M  V30 7739 H 716.602 1.68387 -2.79845 0
M  V30 7740 H 715.261 -0.268551 -3.65615 0
M  V30 7741 H 714.909 2.01736 -4.60773 0
M  V30 7742 H 714.609 0.754038 -5.82742 0
M  V30 7743 H 716.133 1.68555 -5.86874 0
M  V30 7744 H 717.547 -0.579875 -5.7036 0
M  V30 7745 H 715.944 -1.35828 -5.84526 0
M  V30 7746 H 717.014 -1.80003 -4.50252 0
M  V30 7747 N 718.357 1.51182 -0.445186 0
M  V30 7748 C 719.768 1.86693 0.0160999 0
M  V30 7749 C 720.119 1.36183 1.4124 0
M  V30 7750 O 719.244 0.715895 2.04215 0
M  V30 7751 C 719.839 3.38781 0.0359918 0
M  V30 7752 C 718.398 3.73799 0.441715 0
M  V30 7753 C 717.545 2.74947 -0.360511 0
M  V30 7754 H 720.496 1.44294 -0.660674 0
M  V30 7755 H 720.517 3.71026 0.843813 0
M  V30 7756 H 720.029 3.75513 -0.980378 0
M  V30 7757 H 718.13 3.42659 1.4634 0
M  V30 7758 H 718.243 4.78829 0.16106 0
M  V30 7759 H 716.607 2.54047 0.182269 0
M  V30 7760 H 717.39 3.14521 -1.3759 0
M  V30 7761 N 719.835 0.176821 1.56605 0
M  V30 7762 C 721.06 -0.47599 2.01864 0
M  V30 7763 C 721.485 -1.55645 1.05623 0
M  V30 7764 O 720.843 -1.81263 0.0366729 0
M  V30 7765 C 720.891 -1.02619 3.4569 0
M  V30 7766 O 719.995 -2.13996 3.52533 0
M  V30 7767 H 719.336 -0.113363 0.654251 0
M  V30 7768 H 721.866 0.28233 2.02643 0
M  V30 7769 H 721.876 -1.34742 3.85109 0
M  V30 7770 H 720.551 -0.235138 4.15235 0
M  V30 7771 H 719.128 -1.82876 3.24978 0
M  V30 7772 N 721.313 -1.57302 -0.09688 0
M  V30 7773 C 722.559 -1.86273 -0.801885 0
M  V30 7774 C 722.892 -0.765694 -1.78468 0
M  V30 7775 O 722.167 0.226495 -1.93177 0
M  V30 7776 C 722.45 -3.25876 -1.53221 0
M  V30 7777 C 722.303 -4.46205 -0.567529 0
M  V30 7778 C 723.622 -3.63352 -2.48321 0
M  V30 7779 H 720.741 -0.67752 -0.29006 0
M  V30 7780 H 723.383 -1.89887 -0.0655577 0
M  V30 7781 H 721.533 -3.22926 -2.15988 0
M  V30 7782 H 723.205 -4.6127 0.0529982 0
M  V30 7783 H 721.448 -4.33636 0.119233 0
M  V30 7784 H 722.119 -5.40608 -1.11564 0
M  V30 7785 H 724.595 -3.67234 -1.95648 0
M  V30 7786 H 723.471 -4.61968 -2.9644 0
M  V30 7787 H 723.732 -2.91941 -3.31998 0
M  V30 7788 N 722.791 0.367657 -1.53252 0
M  V30 7789 C 724.202 0.944563 -1.61043 0
M  V30 7790 C 724.553 1.90325 -0.476546 0
M  V30 7791 O 723.678 2.12721 0.397333 0
M  V30 7792 C 724.273 1.71992 -2.91898 0
M  V30 7793 C 722.832 2.2462 -3.02031 0
M  V30 7794 C 721.979 1.05799 -2.56324 0
M  V30 7795 H 724.93 0.146516 -1.58022 0
M  V30 7796 H 724.951 2.58095 -2.79584 0
M  V30 7797 H 724.463 1.02192 -3.74404 0
M  V30 7798 H 722.564 2.97668 -2.24108 0
M  V30 7799 H 722.677 2.52644 -4.07073 0
M  V30 7800 H 721.041 1.42435 -2.1115 0
M  V30 7801 H 721.824 0.375008 -3.41246 0
M  V30 7802 N 724.269 1.44576 0.627338 0
M  V30 7803 C 725.517 1.47267 1.38408 0
M  V30 7804 C 725.838 0.107971 1.94701 0
M  V30 7805 O 725.108 -0.860206 1.76004 0
M  V30 7806 H 723.688 0.542276 0.513756 0
M  V30 7807 H 726.35 1.80383 0.738099 0
M  V30 7808 H 725.446 2.20025 2.21349 0
M  V30 7809 N 725.747 -0.868086 1.31537 0
M  V30 7810 C 726.677 -1.99131 1.21939 0
M  V30 7811 C 727.658 -1.69768 0.106166 0
M  V30 7812 O 728.843 -1.92006 0.291081 0
M  V30 7813 C 725.973 -3.34676 0.927879 0
M  V30 7814 C 724.927 -3.7835 2.00088 0
M  V30 7815 C 724.253 -5.11375 1.56203 0
M  V30 7816 C 725.553 -3.95256 3.41424 0
M  V30 7817 H 727.247 -2.07419 2.15911 0
M  V30 7818 H 724.793 -0.996569 1.03945 0
M  V30 7819 H 726.746 -4.12793 0.847327 0
M  V30 7820 H 725.47 -3.26565 -0.0475042 0
M  V30 7821 H 724.129 -3.02474 2.07135 0
M  V30 7822 H 723.777 -4.99709 0.57445 0
M  V30 7823 H 723.477 -5.41568 2.27985 0
M  V30 7824 H 725.001 -5.92001 1.49558 0
M  V30 7825 H 726.415 -4.63764 3.3704 0
M  V30 7826 H 724.812 -4.36849 4.1144 0
M  V30 7827 H 725.882 -2.98579 3.82072 0
M  V30 7828 N 727.225 -1.14528 -1.08264 0
M  V30 7829 C 728.155 -0.856356 -2.1723 0
M  V30 7830 C 729.136 0.189251 -1.69044 0
M  V30 7831 O 730.321 0.0456119 -1.94146 0
M  V30 7832 C 727.451 -0.334662 -3.45684 0
M  V30 7833 C 726.405 -1.31588 -4.0727 0
M  V30 7834 C 725.731 -0.653428 -5.30692 0
M  V30 7835 C 727.031 -2.67866 -4.48381 0
M  V30 7836 H 728.725 -1.76755 -2.41657 0
M  V30 7837 H 726.271 -0.851287 -1.16143 0
M  V30 7838 H 728.224 -0.120128 -4.21229 0
M  V30 7839 H 726.948 0.611967 -3.20815 0
M  V30 7840 H 725.607 -1.51661 -3.33758 0
M  V30 7841 H 725.255 0.299054 -5.0211 0
M  V30 7842 H 724.955 -1.30817 -5.72853 0
M  V30 7843 H 726.479 -0.448453 -6.08951 0
M  V30 7844 H 727.893 -2.51692 -5.15096 0
M  V30 7845 H 726.29 -3.29627 -5.01464 0
M  V30 7846 H 727.36 -3.24632 -3.60198 0
M  V30 7847 N 728.703 1.26451 -0.940633 0
M  V30 7848 C 730.119 1.4608 -0.642859 0
M  V30 7849 C 730.319 1.84765 0.803998 0
M  V30 7850 O 729.375 1.96902 1.58069 0
M  V30 7851 C 730.688 2.54359 -1.60381 0
M  V30 7852 C 732.236 2.6821 -1.61345 0
M  V30 7853 C 732.711 3.79659 -2.56169 0
M  V30 7854 N 734.202 3.87051 -2.54452 0
M  V30 7855 C 734.937 4.72739 -3.24507 0
M  V30 7856 N 734.433 5.6282 -4.03987 0
M  V30 7857 N 736.226 4.66581 -3.13462 0
M  V30 7858 H 728.377 0.996289 -1.87584 0
M  V30 7859 H 730.64 0.498921 -0.80609 0
M  V30 7860 H 730.346 2.32758 -2.6366 0
M  V30 7861 H 730.22 3.52005 -1.35545 0
M  V30 7862 H 732.607 2.89184 -0.587913 0
M  V30 7863 H 732.688 1.7101 -1.90235 0
M  V30 7864 H 732.332 3.59438 -3.58841 0
M  V30 7865 H 732.262 4.76315 -2.2457 0
M  V30 7866 H 734.753 3.22649 -1.96739 0
M  V30 7867 H 735.066 6.25095 -4.54396 0
M  V30 7868 H 733.411 5.62574 -4.08088 0
M  V30 7869 H 736.602 3.9521 -2.50852 0
M  V30 7870 H 736.775 5.33141 -3.68327 0
M  V30 7871 N 730.181 0.707592 1.40822 0
M  V30 7872 C 731.111 0.0644925 2.33411 0
M  V30 7873 C 732.092 -0.754205 1.52466 0
M  V30 7874 O 733.277 -0.704749 1.80961 0
M  V30 7875 C 730.407 -0.863865 3.36385 0
M  V30 7876 C 729.361 -0.15138 4.27732 0
M  V30 7877 C 728.687 -1.19491 5.21177 0
M  V30 7878 C 729.987 0.989607 5.12839 0
M  V30 7879 H 731.681 0.837829 2.87438 0
M  V30 7880 H 729.227 0.404346 1.38207 0
M  V30 7881 H 731.18 -1.32309 4.0009 0
M  V30 7882 H 729.904 -1.66901 2.80734 0
M  V30 7883 H 728.563 0.287937 3.65467 0
M  V30 7884 H 728.211 -1.9929 4.61836 0
M  V30 7885 H 727.911 -0.723123 5.83134 0
M  V30 7886 H 729.435 -1.6544 5.8776 0
M  V30 7887 H 730.849 0.610114 5.70044 0
M  V30 7888 H 729.246 1.38926 5.83798 0
M  V30 7889 H 730.316 1.82389 4.49291 0
M  V30 7890 N 731.66 -1.50943 0.453197 0
M  V30 7891 C 732.909 -2.01402 -0.10951 0
M  V30 7892 C 733.222 -1.3411 -1.42386 0
M  V30 7893 O 734.428 -1.75626 -2.07045 0
M  V30 7894 C 732.884 -3.5906 -0.245693 0
M  V30 7895 C 732.492 -4.353 1.05916 0
M  V30 7896 C 734.236 -4.17617 -0.761318 0
M  V30 7897 C 732.143 -5.84699 0.887752 0
M  V30 7898 H 731.073 -0.752674 -0.0447013 0
M  V30 7899 H 733.724 -1.73913 0.585375 0
M  V30 7900 H 732.106 -3.83062 -1.00395 0
M  V30 7901 H 733.28 -4.23034 1.82698 0
M  V30 7902 H 731.595 -3.88269 1.50452 0
M  V30 7903 H 734.192 -5.26963 -0.906306 0
M  V30 7904 H 734.535 -3.77824 -1.74799 0
M  V30 7905 H 735.068 -3.97753 -0.0609416 0
M  V30 7906 H 731.807 -6.28933 1.84726 0
M  V30 7907 H 731.327 -5.99587 0.160006 0
M  V30 7908 H 733.006 -6.44682 0.547223 0
M  V30 7909 N 733.138 -0.185124 -1.56509 0
M  V30 7910 C 734.386 0.455357 -1.96903 0
M  V30 7911 C 734.707 1.62839 -1.07277 0
M  V30 7912 O 733.977 1.95385 -0.141966 0
M  V30 7913 H 732.557 0.171218 -0.727113 0
M  V30 7914 H 735.219 -0.26953 -1.93027 0
M  V30 7915 H 734.315 0.80616 -3.01509 0
M  V30 7916 N 734.616 1.57351 0.0885366 0
M  V30 7917 C 735.546 2.05561 1.10757 0
M  V30 7918 C 736.527 0.945789 1.41382 0
M  V30 7919 O 737.712 1.21747 1.51299 0
M  V30 7920 C 734.842 2.48554 2.42566 0
M  V30 7921 C 733.796 3.63259 2.26334 0
M  V30 7922 C 733.122 3.9225 3.63378 0
M  V30 7923 C 734.422 4.93913 1.69844 0
M  V30 7924 H 736.116 2.90946 0.706468 0
M  V30 7925 H 733.662 1.39968 0.338385 0
M  V30 7926 H 735.615 2.8089 3.14132 0
M  V30 7927 H 734.339 1.60176 2.84625 0
M  V30 7928 H 732.998 3.31179 1.57213 0
M  V30 7929 H 732.646 3.0103 4.02976 0
M  V30 7930 H 732.346 4.69478 3.53362 0
M  V30 7931 H 733.87 4.27067 4.36401 0
M  V30 7932 H 735.284 5.24588 2.31258 0
M  V30 7933 H 733.681 5.75349 1.70569 0
M  V30 7934 H 734.751 4.80409 0.65843 0
M  V30 7935 N 736.094 -0.359525 1.53444 0
M  V30 7936 C 737.322 -1.12198 1.73837 0
M  V30 7937 C 737.737 -1.82854 0.470107 0
M  V30 7938 O 737.094 -1.73781 -0.557349 0
M  V30 7939 C 737.145 -2.14769 2.90786 0
M  V30 7940 O 736.866 -1.46989 4.12706 0
M  V30 7941 C 738.367 -3.03514 3.231 0
M  V30 7942 H 735.587 -0.33524 0.581253 0
M  V30 7943 H 738.131 -0.416598 2.00212 0
M  V30 7944 H 736.286 -2.80896 2.66788 0
M  V30 7945 H 736.7 -2.15378 4.78239 0
M  V30 7946 H 738.174 -3.71453 4.08322 0
M  V30 7947 H 738.651 -3.68658 2.38721 0
M  V30 7948 H 739.257 -2.42996 3.49046 0
M  V30 7949 N 737.572 -1.44907 -0.619662 0
M  V30 7950 C 738.8 -1.51795 -1.40591 0
M  V30 7951 C 739.215 -0.146553 -1.8823 0
M  V30 7952 O 738.572 0.849698 -1.61513 0
M  V30 7953 C 738.623 -2.49229 -2.61853 0
M  V30 7954 O 738.344 -3.81039 -2.16197 0
M  V30 7955 C 739.845 -2.65696 -3.54853 0
M  V30 7956 H 737.065 -0.514463 -0.430777 0
M  V30 7957 H 739.609 -1.8998 -0.756813 0
M  V30 7958 H 737.764 -2.14149 -3.2283 0
M  V30 7959 H 738.178 -4.33747 -2.94896 0
M  V30 7960 H 739.652 -3.37874 -4.36515 0
M  V30 7961 H 740.129 -1.71316 -4.0441 0
M  V30 7962 H 740.735 -3.01724 -2.99737 0
M  V30 7963 N 739.05 0.861098 -1.31996 0
M  V30 7964 C 740.299 1.60965 -1.21545 0
M  V30 7965 C 740.612 1.94325 0.222972 0
M  V30 7966 O 741.818 2.67757 0.449272 0
M  V30 7967 C 740.274 2.90223 -2.12834 0
M  V30 7968 C 739.882 2.64313 -3.61722 0
M  V30 7969 C 741.626 3.68229 -2.11205 0
M  V30 7970 C 739.533 3.89532 -4.44993 0
M  V30 7971 H 738.463 0.603988 -0.451348 0
M  V30 7972 H 741.114 0.951358 -1.56912 0
M  V30 7973 H 739.496 3.57475 -1.70375 0
M  V30 7974 H 740.67 2.05413 -4.12483 0
M  V30 7975 H 738.985 1.99647 -3.65418 0
M  V30 7976 H 741.582 4.61138 -2.70658 0
M  V30 7977 H 741.925 4.01466 -1.1014 0
M  V30 7978 H 742.458 3.07873 -2.51911 0
M  V30 7979 H 739.197 3.61441 -5.46846 0
M  V30 7980 H 738.717 4.47851 -3.98985 0
M  V30 7981 H 740.396 4.57334 -4.57663 0
M  V30 7982 N 740.528 1.15101 1.07655 0
M  V30 7983 C 741.775 0.923974 1.80191 0
M  V30 7984 C 742.103 -0.549065 1.86589 0
M  V30 7985 O 741.358 -1.42307 1.3434 0
M  V30 7986 C 741.657 1.47954 3.25337 0
M  V30 7987 C 741.323 2.97253 3.39044 0
M  V30 7988 C 739.985 3.38012 3.42493 0
M  V30 7989 C 742.337 3.93219 3.42094 0
M  V30 7990 C 739.665 4.73384 3.4659 0
M  V30 7991 C 742.017 5.28458 3.47728 0
M  V30 7992 C 740.681 5.68717 3.49453 0
M  V30 7993 H 739.951 0.338106 0.659367 0
M  V30 7994 H 742.598 1.43594 1.26701 0
M  V30 7995 H 740.903 0.888691 3.81588 0
M  V30 7996 H 742.6 1.27972 3.80032 0
M  V30 7997 H 739.19 2.64746 3.37057 0
M  V30 7998 H 743.374 3.62805 3.38654 0
M  V30 7999 H 738.63 5.03925 3.46222 0
M  V30 8000 H 742.804 6.02618 3.49034 0
M  V30 8001 H 740.431 6.73596 3.5238 0
M  V30 8002 N 742.006 -1.2595 0.947325 0
M  V30 8003 C 743.231 -1.98083 0.614633 0
M  V30 8004 C 743.656 -1.70013 -0.804815 0
M  V30 8005 O 743.014 -0.95175 -1.54309 0
M  V30 8006 C 743.062 -3.4993 0.870706 0
M  V30 8007 O 742.166 -4.12364 -0.0541451 0
M  V30 8008 H 741.507 -0.621232 0.234451 0
M  V30 8009 H 744.037 -1.60259 1.27193 0
M  V30 8010 H 744.047 -4.00198 0.794051 0
M  V30 8011 H 742.722 -3.69691 1.90529 0
M  V30 8012 H 741.299 -3.72826 0.0740917 0
M  V30 8013 N 743.484 -0.715051 -1.40445 0
M  V30 8014 C 744.447 -0.0708726 -2.2909 0
M  V30 8015 C 745.447 0.687926 -1.45342 0
M  V30 8016 O 746.637 0.519908 -1.66261 0
M  V30 8017 C 743.769 0.909528 -3.28543 0
M  V30 8018 H 744.962 -0.851611 -2.87555 0
M  V30 8019 H 742.515 -0.479674 -1.48758 0
M  V30 8020 H 743.25 1.71734 -2.75096 0
M  V30 8021 H 743.035 0.368318 -3.90366 0
M  V30 8022 H 744.525 1.35744 -3.94922 0
M  V30 8023 N 744.962 1.50701 -0.461195 0
M  V30 8024 C 746.19 2.06681 0.0951756 0
M  V30 8025 C 746.605 1.32615 1.34382 0
M  V30 8026 O 745.962 0.392531 1.78229 0
M  V30 8027 C 746.013 3.59354 0.393316 0
M  V30 8028 O 745.734 4.30626 -0.805797 0
M  V30 8029 C 747.235 4.31926 0.997744 0
M  V30 8030 H 744.455 0.670995 -0.00267259 0
M  V30 8031 H 746.999 1.93991 -0.647137 0
M  V30 8032 H 745.154 3.7188 1.08555 0
M  V30 8033 H 745.568 5.21667 -0.544409 0
M  V30 8034 H 747.042 5.39756 1.15619 0
M  V30 8035 H 747.519 3.91772 1.98523 0
M  V30 8036 H 748.125 4.23905 0.344188 0
M  V30 8037 N 746.441 0.193421 1.56409 0
M  V30 8038 C 747.404 -0.714371 2.17783 0
M  V30 8039 C 748.404 -1.1422 1.13183 0
M  V30 8040 O 749.594 -1.05557 1.38576 0
M  V30 8041 C 746.726 -1.97509 2.77855 0
M  V30 8042 H 747.919 -0.179714 2.99361 0
M  V30 8043 H 745.472 -0.0561944 1.56199 0
M  V30 8044 H 746.207 -2.5523 2.0007 0
M  V30 8045 H 745.992 -1.67706 3.54425 0
M  V30 8046 H 747.482 -2.62246 3.24987 0
M  V30 8047 N 747.919 -1.57396 -0.0801906 0
M  V30 8048 C 748.849 -2.06145 -1.09665 0
M  V30 8049 C 749.83 -0.953273 -1.40878 0
M  V30 8050 O 751.015 -1.22548 -1.50651 0
M  V30 8051 C 748.145 -2.49836 -2.41245 0
M  V30 8052 C 747.099 -3.64454 -2.24405 0
M  V30 8053 C 746.425 -3.94172 -3.61293 0
M  V30 8054 C 747.725 -4.94807 -1.67223 0
M  V30 8055 H 749.419 -2.91316 -0.691028 0
M  V30 8056 H 746.965 -1.40145 -0.330957 0
M  V30 8057 H 748.918 -2.82552 -3.12638 0
M  V30 8058 H 747.642 -1.61683 -2.83771 0
M  V30 8059 H 746.301 -3.32008 -1.55454 0
M  V30 8060 H 745.949 -3.03163 -4.01374 0
M  V30 8061 H 745.649 -4.71345 -3.50867 0
M  V30 8062 H 747.173 -4.29376 -4.3413 0
M  V30 8063 H 748.587 -5.25807 -2.28472 0
M  V30 8064 H 746.984 -5.76245 -1.67515 0
M  V30 8065 H 748.054 -4.80751 -0.632944 0
M  V30 8066 N 749.397 0.351382 -1.53633 0
M  V30 8067 C 750.645 1.09034 -1.70165 0
M  V30 8068 C 750.966 1.89413 -0.463422 0
M  V30 8069 O 750.236 1.888 0.522624 0
M  V30 8070 H 748.816 0.405522 -0.627344 0
M  V30 8071 H 751.478 0.394554 -1.90865 0
M  V30 8072 H 750.574 1.77215 -2.56907 0
M  V30 8073 N 750.875 1.45233 0.611969 0
M  V30 8074 C 752.122 1.49021 1.37109 0
M  V30 8075 C 752.45 0.130227 1.94064 0
M  V30 8076 O 751.705 -0.870551 1.75271 0
M  V30 8077 C 752.004 2.51353 2.54079 0
M  V30 8078 C 751.67 3.96178 2.15299 0
M  V30 8079 C 750.332 4.35614 2.04436 0
M  V30 8080 C 752.684 4.87275 1.84966 0
M  V30 8081 C 750.012 5.64047 1.61456 0
M  V30 8082 C 752.364 6.16115 1.43474 0
M  V30 8083 C 751.028 6.54486 1.31167 0
M  V30 8084 H 750.298 0.545307 0.501719 0
M  V30 8085 H 752.945 1.78555 0.692122 0
M  V30 8086 H 751.25 2.15372 3.27295 0
M  V30 8087 H 752.947 2.51523 3.12309 0
M  V30 8088 H 749.537 3.6499 2.24678 0
M  V30 8089 H 753.721 4.57548 1.92258 0
M  V30 8090 H 748.977 5.92575 1.50547 0
M  V30 8091 H 753.151 6.86149 1.19048 0
M  V30 8092 H 750.778 7.53904 0.97637 0
M  V30 8093 N 752.353 -0.854086 1.3245 0
M  V30 8094 C 753.283 -1.97827 1.24044 0
M  V30 8095 C 754.264 -1.69646 0.124166 0
M  V30 8096 O 755.449 -1.91687 0.31143 0
M  V30 8097 C 752.579 -3.33673 0.963324 0
M  V30 8098 C 751.533 -3.76207 2.04089 0
M  V30 8099 C 750.859 -5.0969 1.61618 0
M  V30 8100 C 752.159 -3.91612 3.45597 0
M  V30 8101 H 753.853 -2.05118 2.18099 0
M  V30 8102 H 751.399 -0.985489 1.04996 0
M  V30 8103 H 753.352 -4.11871 0.891061 0
M  V30 8104 H 752.076 -3.26597 -0.0128649 0
M  V30 8105 H 750.735 -3.0026 2.10332 0
M  V30 8106 H 750.383 -4.99072 0.627418 0
M  V30 8107 H 750.083 -5.3912 2.33717 0
M  V30 8108 H 751.607 -5.90381 1.55829 0
M  V30 8109 H 753.021 -4.60163 3.4194 0
M  V30 8110 H 751.418 -4.3246 4.16051 0
M  V30 8111 H 752.488 -2.9451 3.85217 0
M  V30 8112 N 753.831 -1.1567 -1.07043 0
M  V30 8113 C 754.794 -0.858906 -2.12498 0
M  V30 8114 C 755.794 0.142735 -1.60165 0
M  V30 8115 O 756.984 -0.0872678 -1.73981 0
M  V30 8116 C 754.116 -0.283021 -3.39723 0
M  V30 8117 H 755.309 -1.79368 -2.40348 0
M  V30 8118 H 752.862 -0.964608 -1.22984 0
M  V30 8119 H 753.597 0.659796 -3.17517 0
M  V30 8120 H 753.382 -1.00467 -3.7901 0
M  V30 8121 H 754.872 -0.0923543 -4.17498 0
M  V30 8122 N 755.309 1.25446 -0.953992 0
M  V30 8123 C 756.259 2.23627 -0.444413 0
M  V30 8124 C 757.243 1.54004 0.465993 0
M  V30 8125 O 758.435 1.74454 0.29915 0
M  V30 8126 C 755.564 3.42179 0.277175 0
M  V30 8127 C 754.65 4.1907 -0.651263 0
M  V30 8128 N 755.041 4.73346 -1.78262 0
M  V30 8129 C 753.339 4.43628 -0.459338 0
M  V30 8130 C 754.04 5.31576 -2.36224 0
M  V30 8131 N 753.016 5.17991 -1.64884 0
M  V30 8132 H 756.818 2.63197 -1.30785 0
M  V30 8133 H 754.332 1.40677 -0.811402 0
M  V30 8134 H 756.329 4.11653 0.659367 0
M  V30 8135 H 754.989 3.04134 1.13723 0
M  V30 8136 H 756 4.705 -2.1645 0
M  V30 8137 H 752.677 4.15963 0.357885 0
M  V30 8138 H 754.067 5.84361 -3.3162 0
M  V30 8139 N 756.787 0.722489 1.40064 0
M  V30 8140 C 757.734 0.0743738 2.3068 0
M  V30 8141 C 758.704 -0.743004 1.48555 0
M  V30 8142 O 759.889 -0.705536 1.77276 0
M  V30 8143 C 757.029 -0.836292 3.34814 0
M  V30 8144 C 756.142 -0.00764663 4.31999 0
M  V30 8145 C 755.277 -0.918428 5.232 0
M  V30 8146 C 754.316 -0.0842838 6.12042 0
M  V30 8147 N 753.453 -0.950316 6.95639 0
M  V30 8148 H 758.293 0.852794 2.85537 0
M  V30 8149 H 755.83 0.432222 1.40607 0
M  V30 8150 H 757.788 -1.3786 3.93765 0
M  V30 8151 H 756.418 -1.58082 2.81443 0
M  V30 8152 H 755.47 0.651928 3.74772 0
M  V30 8153 H 756.782 0.63786 4.94705 0
M  V30 8154 H 755.936 -1.52902 5.87116 0
M  V30 8155 H 754.675 -1.59774 4.60786 0
M  V30 8156 H 753.68 0.5392 5.4715 0
M  V30 8157 H 754.905 0.591628 6.76518 0
M  V30 8158 H 752.851 -1.61515 6.35806 0
M  V30 8159 H 752.768 -0.361004 7.55138 0
M  V30 8160 H 754.036 -1.54687 7.63997 0
M  V30 8161 N 758.265 -1.50454 0.469181 0
M  V30 8162 C 759.681 -1.59124 0.123226 0
M  V30 8163 C 759.881 -1.47749 -1.37013 0
M  V30 8164 O 758.937 -1.335 -2.14322 0
M  V30 8165 C 760.25 -2.93101 0.67172 0
M  V30 8166 C 761.798 -3.06491 0.634978 0
M  V30 8167 C 762.273 -4.43041 1.16098 0
M  V30 8168 N 763.764 -4.49448 1.12031 0
M  V30 8169 C 764.499 -5.53491 1.49784 0
M  V30 8170 N 763.995 -6.64798 1.94976 0
M  V30 8171 N 765.788 -5.44025 1.41399 0
M  V30 8172 H 757.939 -1.56091 1.44046 0
M  V30 8173 H 760.202 -0.737564 0.59557 0
M  V30 8174 H 759.908 -3.06895 1.7178 0
M  V30 8175 H 759.782 -3.77027 0.114222 0
M  V30 8176 H 762.169 -2.92346 -0.402187 0
M  V30 8177 H 762.25 -2.24328 1.22926 0
M  V30 8178 H 761.894 -4.57935 2.19677 0
M  V30 8179 H 761.824 -5.23794 0.542939 0
M  V30 8180 H 764.315 -3.69575 0.788828 0
M  V30 8181 H 764.628 -7.40246 2.21936 0
M  V30 8182 H 762.973 -6.65923 1.98927 0
M  V30 8183 H 766.164 -4.55955 1.05935 0
M  V30 8184 H 766.337 -6.2499 1.71147 0
M  V30 8185 N 759.743 -0.201713 -1.56304 0
M  V30 8186 C 760.991 0.434447 -1.97375 0
M  V30 8187 C 761.312 1.61692 -1.08998 0
M  V30 8188 O 760.582 1.95223 -0.162682 0
M  V30 8189 H 759.162 0.163497 -0.728888 0
M  V30 8190 H 761.824 -0.289988 -1.92731 0
M  V30 8191 H 760.92 0.774136 -3.02347 0
M  V30 8192 N 761.222 1.57436 0.0718424 0
M  V30 8193 C 762.152 2.06724 1.08571 0
M  V30 8194 C 763.133 0.960731 1.40371 0
M  V30 8195 O 764.318 1.23345 1.49999 0
M  V30 8196 C 761.448 2.51112 2.39916 0
M  V30 8197 C 760.402 3.65639 2.22469 0
M  V30 8198 C 759.728 3.96082 3.59198 0
M  V30 8199 C 761.028 4.95687 1.64596 0
M  V30 8200 H 762.722 2.91679 0.675569 0
M  V30 8201 H 760.268 1.40319 0.32352 0
M  V30 8202 H 762.221 2.84206 3.11135 0
M  V30 8203 H 760.945 1.63186 2.8291 0
M  V30 8204 H 759.604 3.32828 1.53691 0
M  V30 8205 H 759.252 3.05287 3.99761 0
M  V30 8206 H 758.952 4.73199 3.48362 0
M  V30 8207 H 760.476 4.31672 4.31847 0
M  V30 8208 H 761.89 5.27011 2.25681 0
M  V30 8209 H 760.287 5.77126 1.64457 0
M  V30 8210 H 761.357 4.8108 0.60744 0
M  V30 8211 N 762.7 -0.34323 1.53817 0
M  V30 8212 C 763.63 -1.42709 1.84814 0
M  V30 8213 C 764.611 -1.5488 0.703297 0
M  V30 8214 O 765.796 -1.69082 0.955237 0
M  V30 8215 C 762.926 -2.79756 2.05801 0
M  V30 8216 C 761.88 -2.82392 3.21619 0
M  V30 8217 C 761.206 -4.22326 3.2794 0
M  V30 8218 C 762.506 -2.479 4.59721 0
M  V30 8219 H 764.2 -1.17018 2.75585 0
M  V30 8220 H 761.746 -0.561485 1.32602 0
M  V30 8221 H 763.699 -3.55627 2.26069 0
M  V30 8222 H 762.423 -3.06883 1.11761 0
M  V30 8223 H 761.082 -2.08974 3.01207 0
M  V30 8224 H 760.73 -4.46564 2.31494 0
M  V30 8225 H 760.43 -4.25001 4.05768 0
M  V30 8226 H 761.954 -5.00039 3.50419 0
M  V30 8227 H 763.368 -3.13484 4.80001 0
M  V30 8228 H 761.765 -2.61857 5.39954 0
M  V30 8229 H 762.835 -1.43087 4.63308 0
M  V30 8230 N 764.178 -1.45556 -0.604258 0
M  V30 8231 C 765.424 -1.49968 -1.36519 0
M  V30 8232 C 765.757 -0.142236 -1.93678 0
M  V30 8233 O 765.032 0.843717 -1.75247 0
M  V30 8234 C 765.315 -2.58146 -2.51063 0
M  V30 8235 C 765.168 -4.03346 -1.99078 0
M  V30 8236 C 766.487 -2.62581 -3.53184 0
M  V30 8237 H 763.606 -0.545993 -0.495036 0
M  V30 8238 H 766.248 -1.77382 -0.680845 0
M  V30 8239 H 764.398 -2.34901 -3.09441 0
M  V30 8240 H 766.07 -4.37811 -1.45323 0
M  V30 8241 H 764.313 -4.13845 -1.30055 0
M  V30 8242 H 764.984 -4.74731 -2.81664 0
M  V30 8243 H 767.46 -2.83419 -3.04652 0
M  V30 8244 H 766.336 -3.40131 -4.30816 0
M  V30 8245 H 766.597 -1.67798 -4.09019 0
M  V30 8246 N 765.656 0.84705 -1.32902 0
M  V30 8247 C 767.072 1.13645 -1.12058 0
M  V30 8248 C 767.272 2.01281 0.093937 0
M  V30 8249 O 766.328 2.4026 0.776608 0
M  V30 8250 C 767.641 1.80644 -2.40392 0
M  V30 8251 C 769.189 1.93246 -2.46221 0
M  V30 8252 C 769.664 2.6366 -3.74496 0
M  V30 8253 N 771.155 2.71179 -3.75521 0
M  V30 8254 C 771.89 3.26332 -4.71482 0
M  V30 8255 N 771.386 3.82236 -5.77813 0
M  V30 8256 N 773.179 3.24507 -4.58968 0
M  V30 8257 H 765.33 0.263612 -2.10758 0
M  V30 8258 H 767.593 0.17944 -0.930863 0
M  V30 8259 H 767.299 1.23708 -3.29225 0
M  V30 8260 H 767.173 2.80736 -2.51926 0
M  V30 8261 H 769.56 2.49338 -1.57843 0
M  V30 8262 H 769.641 0.921272 -2.38634 0
M  V30 8263 H 769.285 2.08229 -4.63253 0
M  V30 8264 H 769.215 3.65234 -3.79357 0
M  V30 8265 H 771.706 2.31527 -2.9867 0
M  V30 8266 H 772.019 4.22499 -6.47082 0
M  V30 8267 H 770.364 3.80546 -5.81558 0
M  V30 8268 H 773.555 2.80085 -3.7506 0
M  V30 8269 H 773.728 3.67188 -5.33926 0
M  V30 8270 N 767.134 1.16236 1.06428 0
M  V30 8271 C 768.38 0.944431 1.79467 0
M  V30 8272 C 768.713 -0.526558 1.86925 0
M  V30 8273 O 767.988 -1.39061 1.35986 0
M  V30 8274 C 768.271 1.57092 3.24028 0
M  V30 8275 C 768.124 3.11315 3.24658 0
M  V30 8276 C 769.443 1.26447 4.21544 0
M  V30 8277 H 766.562 0.344521 0.651517 0
M  V30 8278 H 769.204 1.43545 1.24478 0
M  V30 8279 H 767.354 1.15337 3.70985 0
M  V30 8280 H 769.026 3.62042 2.85873 0
M  V30 8281 H 767.269 3.44716 2.6335 0
M  V30 8282 H 767.94 3.50269 4.26633 0
M  V30 8283 H 770.416 1.62581 3.83023 0
M  V30 8284 H 769.292 1.72885 5.20963 0
M  V30 8285 H 769.553 0.183068 4.41721 0
M  V30 8286 O 768.651 -1.1913 1.09043 0
M  V30 8287 H 769.342 -1.77084 0.784907 0
M  V30 END ATOM
M  V30 BEGIN BOND
M  V30 END BOND
M  V30 END CTAB
M  END
$$$$
