drugbank_target|P37610 Alpha-ketoglutarate-dependent taurine dioxygenase (DB01956)
 OpenBabel12092119533D

  0  0  0     0  0            999 V3000
M  V30 BEGIN CTAB
M  V30 COUNTS 4533 4601 0 0 0
M  V30 BEGIN ATOM
M  V30 1 H -0.908 1.98254 -0.117106 0
M  V30 2 N 0 1.576 0 0
M  V30 3 C 0.933 2.03868 1.02534 0
M  V30 4 C 1.911 0.928543 1.3348 0
M  V30 5 O 3.095 1.19667 1.45644 0
M  V30 6 C 0.222 2.43627 2.35294 0
M  V30 7 C -0.732 3.65373 2.2001 0
M  V30 8 S 0.101 5.13292 1.52614 0
M  V30 9 C 1.257 5.56322 2.86805 0
M  V30 10 H 1.49 2.90518 0.631377 0
M  V30 11 H -0.977 1.52953 0.210867 0
M  V30 12 H 0.981 2.67203 3.11629 0
M  V30 13 H -0.358 1.57376 2.7183 0
M  V30 14 H -1.165 3.90944 3.18086 0
M  V30 15 H -1.563 3.418 1.51819 0
M  V30 16 H 0.729 5.58782 3.83104 0
M  V30 17 H 1.672 6.56266 2.65933 0
M  V30 18 H 2.08 4.83886 2.90714 0
M  V30 19 N 1.4781 -0.272755 1.55222 0
M  V30 20 C 2.7031 -1.02683 1.80197 0
M  V30 21 C 3.1281 -1.79142 0.573551 0
M  V30 22 O 2.4861 -1.74917 -0.476849 0
M  V30 23 C 2.5341 -1.9609 3.02624 0
M  V30 24 O 1.6381 -3.04863 2.77727 0
M  V30 25 H 0.9791 -0.293557 0.595584 0
M  V30 26 H 3.5091 -0.30159 2.02365 0
M  V30 27 H 3.5191 -2.38039 3.31363 0
M  V30 28 H 2.1941 -1.39851 3.91682 0
M  V30 29 H 0.7711 -2.67228 2.60084 0
M  V30 30 N 2.9562 -1.48159 -0.537278 0
M  V30 31 C 3.8662 -1.64807 -1.6696 0
M  V30 32 C 4.8822 -0.530651 -1.65711 0
M  V30 33 O 6.0582 -0.800784 -1.84796 0
M  V30 34 C 3.1232 -1.67708 -3.03438 0
M  V30 35 C 2.1842 -2.91025 -3.156 0
M  V30 36 C 1.4172 -2.93778 -4.45567 0
M  V30 37 O 1.6402 -2.05153 -5.3223 0
M  V30 38 O 0.5742 -3.85868 -4.61941 0
M  V30 39 H 4.4002 -2.6066 -1.55853 0
M  V30 40 H 1.9852 -1.31475 -0.709549 0
M  V30 41 H 3.8672 -1.7218 -3.84619 0
M  V30 42 H 2.5422 -0.750278 -3.14885 0
M  V30 43 H 1.4492 -2.92089 -2.33741 0
M  V30 44 H 2.7822 -3.83065 -3.09066 0
M  V30 45 N 4.4343 0.785586 -1.36625 0
M  V30 46 C 5.8503 1.08419 -1.17122 0
M  V30 47 C 6.0503 2.015 0.00208491 0
M  V30 48 O 5.1063 2.43551 0.666278 0
M  V30 49 C 6.4193 1.69498 -2.48377 0
M  V30 50 C 7.9673 1.81821 -2.54775 0
M  V30 51 C 8.4423 2.46315 -3.86126 0
M  V30 52 N 9.9333 2.53779 -3.87492 0
M  V30 53 C 10.6683 3.045 -4.85868 0
M  V30 54 N 10.1643 3.55499 -5.94637 0
M  V30 55 N 11.9573 3.03247 -4.73284 0
M  V30 56 H 4.1083 0.167264 -2.1174 0
M  V30 57 H 6.3713 0.13682 -0.938075 0
M  V30 58 H 6.0773 1.08571 -3.34522 0
M  V30 59 H 5.9513 2.6896 -2.64462 0
M  V30 60 H 8.3383 2.41884 -1.69045 0
M  V30 61 H 8.4193 0.811532 -2.42586 0
M  V30 62 H 8.0633 1.86895 -4.72263 0
M  V30 63 H 7.9933 3.47561 -3.95612 0
M  V30 64 H 10.4843 2.17672 -3.08913 0
M  V30 65 H 10.7973 3.92562 -6.65669 0
M  V30 66 H 9.1423 3.5364 -5.98301 0
M  V30 67 H 12.3333 2.62696 -3.87438 0
M  V30 68 H 12.5063 3.42467 -5.50109 0
M  V30 69 N 5.9124 1.20967 1.01018 0
M  V30 70 C 6.8424 0.988272 2.11555 0
M  V30 71 C 7.8234 -0.0849778 1.69888 0
M  V30 72 O 9.0084 0.0738202 1.9406 0
M  V30 73 C 6.1384 0.546528 3.42973 0
M  V30 74 C 5.0924 1.56375 3.9841 0
M  V30 75 C 4.4184 0.97842 5.25672 0
M  V30 76 C 5.7184 2.94922 4.31066 0
M  V30 77 H 7.4124 1.91276 2.30334 0
M  V30 78 H 4.9584 0.921073 1.1069 0
M  V30 79 H 6.9114 0.378839 4.19694 0
M  V30 80 H 5.6354 -0.413598 3.23971 0
M  V30 81 H 4.2944 1.71891 3.23804 0
M  V30 82 H 3.9424 0.0101688 5.02999 0
M  V30 83 H 3.6424 1.65784 5.63728 0
M  V30 84 H 5.1664 0.821939 6.05043 0
M  V30 85 H 6.5804 2.8288 4.9865 0
M  V30 86 H 4.9774 3.5983 4.80253 0
M  V30 87 H 6.0474 3.4616 3.39561 0
M  V30 88 N 7.3905 -1.2043 1.01659 0
M  V30 89 C 8.6155 -1.94318 0.724942 0
M  V30 90 C 9.0405 -1.74266 -0.708034 0
M  V30 91 O 8.3985 -1.03694 -1.48719 0
M  V30 92 C 8.4465 -3.44486 1.06591 0
M  V30 93 O 7.5505 -4.12017 0.177599 0
M  V30 94 H 6.8915 -0.60708 0.26898 0
M  V30 95 H 9.4215 -1.52861 1.35995 0
M  V30 96 H 9.4315 -3.95106 1.01762 0
M  V30 97 H 8.1065 -3.58404 2.10997 0
M  V30 98 H 6.6835 -3.71821 0.283421 0
M  V30 99 N 8.8686 -0.792821 -1.36206 0
M  V30 100 C 10.1176 -0.363353 -1.984 0
M  V30 101 C 10.4306 1.07172 -1.63626 0
M  V30 102 O 11.6366 1.60362 -2.19081 0
M  V30 103 C 10.0926 -0.59872 -3.54885 0
M  V30 104 C 9.7006 -2.04543 -3.9858 0
M  V30 105 C 11.4446 -0.233926 -4.23855 0
M  V30 106 C 9.3516 -2.22727 -5.47856 0
M  V30 107 H 8.2816 -0.13212 -0.742334 0
M  V30 108 H 10.9326 -0.974935 -1.55458 0
M  V30 109 H 9.3146 0.0826222 -3.95914 0
M  V30 110 H 10.4886 -2.76345 -3.68741 0
M  V30 111 H 8.8036 -2.36879 -3.42458 0
M  V30 112 H 11.4006 -0.348027 -5.33566 0
M  V30 113 H 11.7436 0.818351 -4.08177 0
M  V30 114 H 12.2766 -0.868639 -3.882 0
M  V30 115 H 9.0156 -3.2635 -5.68486 0
M  V30 116 H 8.5356 -1.55434 -5.7931 0
M  V30 117 H 10.2146 -2.03607 -6.14128 0
M  V30 118 N 10.3467 1.47872 -0.545128 0
M  V30 119 C 11.5747 2.06889 -0.021084 0
M  V30 120 C 11.9897 1.39955 1.2672 0
M  V30 121 O 11.3467 0.492036 1.75742 0
M  V30 122 C 11.3977 3.60996 0.190817 0
M  V30 123 O 11.1187 4.25419 -1.04644 0
M  V30 124 C 12.6197 4.36849 0.753521 0
M  V30 125 H 9.8397 0.669785 -0.0403635 0
M  V30 126 H 12.3837 1.90049 -0.755095 0
M  V30 127 H 10.5387 3.77391 0.87492 0
M  V30 128 H 10.9527 5.17785 -0.836611 0
M  V30 129 H 12.4267 5.45399 0.851139 0
M  V30 130 H 12.9037 4.02306 1.762 0
M  V30 131 H 13.5097 4.25169 0.105503 0
M  V30 132 N 11.8248 0.280983 1.55075 0
M  V30 133 C 13.2358 -0.215629 1.85451 0
M  V30 134 C 13.5868 -1.54991 1.203 0
M  V30 135 O 12.7118 -2.10699 0.493435 0
M  V30 136 C 13.3068 -0.398026 3.36454 0
M  V30 137 C 11.8658 -0.838866 3.66933 0
M  V30 138 C 11.0128 0.064458 2.77225 0
M  V30 139 H 13.9638 0.502601 1.50531 0
M  V30 140 H 13.9848 -1.23569 3.59876 0
M  V30 141 H 13.4968 0.573241 3.83843 0
M  V30 142 H 11.5978 -1.8214 3.25048 0
M  V30 143 H 11.7108 -0.672123 4.74362 0
M  V30 144 H 10.0748 -0.452863 2.50642 0
M  V30 145 H 10.8578 1.03172 3.2743 0
M  V30 146 N 13.3029 -1.57598 0.00835791 0
M  V30 147 C 14.2329 -2.1198 -0.979113 0
M  V30 148 C 15.2139 -1.03091 -1.35301 0
M  V30 149 O 16.3989 -1.30818 -1.43528 0
M  V30 150 C 13.5289 -2.62995 -2.26828 0
M  V30 151 C 12.4829 -3.76485 -2.03576 0
M  V30 152 C 11.8089 -4.13846 -3.38579 0
M  V30 153 C 13.1089 -5.0342 -1.39161 0
M  V30 154 H 14.8029 -2.94738 -0.526281 0
M  V30 155 H 12.3489 -1.41783 -0.251704 0
M  V30 156 H 14.3019 -2.99669 -2.96271 0
M  V30 157 H 13.0259 -1.7737 -2.7424 0
M  V30 158 H 11.6849 -3.40217 -1.36557 0
M  V30 159 H 11.3329 -3.25232 -3.83709 0
M  V30 160 H 11.0329 -4.90312 -3.23834 0
M  V30 161 H 12.5569 -4.53086 -4.09323 0
M  V30 162 H 13.9709 -5.37812 -1.98573 0
M  V30 163 H 12.3679 -5.84746 -1.34878 0
M  V30 164 H 13.4379 -4.83548 -0.361868 0
M  V30 165 N 14.781 0.264519 -1.55364 0
M  V30 166 C 16.029 0.993021 -1.76021 0
M  V30 167 C 16.35 1.86511 -0.569099 0
M  V30 168 O 15.62 1.91438 0.415735 0
M  V30 169 H 14.2 0.369639 -0.649135 0
M  V30 170 H 16.862 0.286707 -1.9278 0
M  V30 171 H 15.958 1.62502 -2.66457 0
M  V30 172 N 16.2591 1.48442 0.529413 0
M  V30 173 C 17.6701 1.5002 1.11134 0
M  V30 174 C 18.0211 0.27031 1.94329 0
M  V30 175 O 17.1461 -0.622507 2.07253 0
M  V30 176 C 17.7411 2.71834 2.02217 0
M  V30 177 C 16.3001 2.76283 2.55627 0
M  V30 178 C 15.4471 2.43542 1.326 0
M  V30 179 H 18.3981 1.5555 0.314641 0
M  V30 180 H 18.4191 2.50384 2.8651 0
M  V30 181 H 17.9311 3.61331 1.41639 0
M  V30 182 H 16.0321 1.90995 3.19924 0
M  V30 183 H 16.1451 3.77725 2.94721 0
M  V30 184 H 14.5091 1.94709 1.64196 0
M  V30 185 H 15.2921 3.3528 0.737734 0
M  V30 186 N 17.7372 -0.778329 1.37039 0
M  V30 187 C 18.9672 -1.56507 1.34868 0
M  V30 188 C 19.3752 -1.89072 -0.0694802 0
M  V30 189 O 18.7182 -1.51434 -1.03987 0
M  V30 190 C 18.7802 -2.90641 2.11585 0
M  V30 191 C 18.4442 -2.80746 3.60598 0
M  V30 192 C 19.4412 -2.52226 4.54618 0
M  V30 193 C 17.1262 -2.98974 4.03633 0
M  V30 194 C 19.1202 -2.42054 5.89651 0
M  V30 195 C 16.8072 -2.88423 5.38754 0
M  V30 196 C 17.8052 -2.60002 6.31576 0
M  V30 197 O 17.4932 -2.49465 7.64214 0
M  V30 198 H 17.2252 -0.491723 0.463879 0
M  V30 199 H 19.7792 -0.973053 1.80889 0
M  V30 200 H 18.0092 -3.51936 1.60243 0
M  V30 201 H 19.6982 -3.51992 2.0213 0
M  V30 202 H 20.4642 -2.37835 4.22681 0
M  V30 203 H 16.3432 -3.20099 3.31749 0
M  V30 204 H 19.8872 -2.19791 6.62071 0
M  V30 205 H 15.7842 -3.0238 5.70295 0
M  V30 206 H 16.5522 -2.64864 7.74461 0
M  V30 207 N 19.2153 -1.21501 -1.00376 0
M  V30 208 C 20.4643 -1.02718 -1.73586 0
M  V30 209 C 20.7773 0.439589 -1.90596 0
M  V30 210 O 21.9833 0.746848 -2.61026 0
M  V30 211 C 20.4393 -1.78929 -3.1227 0
M  V30 212 C 20.0473 -3.29783 -3.03228 0
M  V30 213 C 21.7913 -1.68557 -3.89601 0
M  V30 214 C 19.6983 -3.98479 -4.36999 0
M  V30 215 H 18.6283 -0.380733 -0.650814 0
M  V30 216 H 21.2793 -1.45248 -1.1214 0
M  V30 217 H 19.6613 -1.29192 -3.74333 0
M  V30 218 H 20.8353 -3.86832 -2.50395 0
M  V30 219 H 19.1503 -3.40711 -2.39385 0
M  V30 220 H 21.7473 -2.17211 -4.88593 0
M  V30 221 H 22.0903 -0.644021 -4.11288 0
M  V30 222 H 22.6233 -2.15778 -3.34193 0
M  V30 223 H 19.3623 -5.02841 -4.20513 0
M  V30 224 H 18.8823 -3.46219 -4.89788 0
M  V30 225 H 20.5613 -4.03462 -5.05794 0
M  V30 226 N 20.6934 1.19889 -1.02296 0
M  V30 227 C 21.9414 1.89046 -0.714558 0
M  V30 228 C 22.2624 1.79636 0.758681 0
M  V30 229 O 21.5324 1.20292 1.54618 0
M  V30 230 H 20.1124 0.699802 -0.261317 0
M  V30 231 H 22.7744 1.45574 -1.29592 0
M  V30 232 H 21.8704 2.95524 -1.0036 0
M  V30 233 N 22.1715 0.800033 1.35784 0
M  V30 234 C 23.1345 0.211565 2.28221 0
M  V30 235 C 24.1345 -0.59728 1.49296 0
M  V30 236 O 25.3245 -0.416721 1.69142 0
M  V30 237 C 22.4565 -0.705846 3.33513 0
M  V30 238 H 23.6495 1.02677 2.81776 0
M  V30 239 H 21.2025 0.570211 1.45528 0
M  V30 240 H 21.9375 -1.54498 2.85133 0
M  V30 241 H 21.7225 -0.127655 3.91892 0
M  V30 242 H 23.2125 -1.11211 4.02519 0
M  V30 243 N 23.6496 -1.47581 0.552962 0
M  V30 244 C 24.5816 -2.27997 -0.234533 0
M  V30 245 C 25.5946 -1.36753 -0.883321 0
M  V30 246 O 26.7836 -1.61612 -0.757889 0
M  V30 247 C 23.8836 -3.10879 -1.34935 0
M  V30 248 C 23.0566 -4.30056 -0.798158 0
M  V30 249 C 22.1156 -4.94567 -1.79694 0
M  V30 250 O 21.1416 -5.53087 -1.34474 0
M  V30 251 N 22.3436 -4.88878 -3.13015 0
M  V30 252 H 25.1086 -2.96222 0.455255 0
M  V30 253 H 22.6696 -1.57163 0.388761 0
M  V30 254 H 24.6616 -3.50903 -2.01616 0
M  V30 255 H 23.2316 -2.44924 -1.94244 0
M  V30 256 H 22.4516 -3.94174 0.0453079 0
M  V30 257 H 23.7396 -5.07152 -0.409173 0
M  V30 258 H 23.1376 -4.42526 -3.52402 0
M  V30 259 H 21.6946 -5.32934 -3.75266 0
M  V30 260 N 25.1277 -0.289203 -1.54924 0
M  V30 261 C 26.3767 0.324231 -1.99077 0
M  V30 262 C 26.6897 1.5591 -1.18117 0
M  V30 263 O 27.8957 2.24637 -1.52481 0
M  V30 264 C 26.3517 0.628209 -3.54375 0
M  V30 265 C 25.9597 -0.587647 -4.44129 0
M  V30 266 C 27.7037 1.20349 -4.07083 0
M  V30 267 C 25.6107 -0.257475 -5.90839 0
M  V30 268 H 24.5407 0.124924 -0.743579 0
M  V30 269 H 27.1917 -0.396063 -1.79175 0
M  V30 270 H 25.5737 1.40778 -3.70132 0
M  V30 271 H 26.7477 -1.36418 -4.40144 0
M  V30 272 H 25.0627 -1.08074 -4.0213 0
M  V30 273 H 27.6597 1.46456 -5.14252 0
M  V30 274 H 28.0027 2.14195 -3.56968 0
M  V30 275 H 28.5357 0.485889 -3.94821 0
M  V30 276 H 25.2747 -1.16419 -6.45079 0
M  V30 277 H 24.7947 0.482018 -5.9786 0
M  V30 278 H 26.4737 0.145238 -6.46837 0
M  V30 279 N 26.6058 1.57591 -0.0167156 0
M  V30 280 C 27.8308 1.9598 0.67872 0
M  V30 281 C 28.2558 0.892546 1.65575 0
M  V30 282 O 27.6138 -0.147772 1.80697 0
M  V30 283 C 27.6618 3.33468 1.37227 0
M  V30 284 O 26.7658 3.28954 2.48722 0
M  V30 285 H 26.1068 0.639339 0.17928 0
M  V30 286 H 28.6368 2.04463 -0.0748802 0
M  V30 287 H 28.6468 3.69417 1.7319 0
M  V30 288 H 27.3218 4.10694 0.656007 0
M  V30 289 H 25.8988 3.04705 2.14963 0
M  V30 290 N 28.0839 -0.256276 1.55502 0
M  V30 291 C 29.3319 -0.983672 1.76545 0
M  V30 292 C 29.6529 -1.86206 0.578982 0
M  V30 293 O 28.9229 -1.91656 -0.405577 0
M  V30 294 H 27.5029 -0.366191 0.651086 0
M  V30 295 H 30.1649 -0.276479 1.92929 0
M  V30 296 H 29.2609 -1.61087 2.67315 0
M  V30 297 N 29.562 -1.4872 -0.521534 0
M  V30 298 C 30.525 -1.63379 -1.60748 0
M  V30 299 C 31.525 -0.50661 -1.52611 0
M  V30 300 O 32.715 -0.772601 -1.5613 0
M  V30 301 C 29.847 -1.61192 -3.00383 0
M  V30 302 H 31.04 -2.60217 -1.49087 0
M  V30 303 H 28.593 -1.37444 -0.744235 0
M  V30 304 H 29.328 -0.65863 -3.17541 0
M  V30 305 H 29.113 -2.43032 -3.07698 0
M  V30 306 H 30.603 -1.7466 -3.7932 0
M  V30 307 N 31.0401 0.771051 -1.3745 0
M  V30 308 C 32.3171 1.519 -1.23231 0
M  V30 309 C 32.6971 2.10383 0.173809 0
M  V30 310 O 32.0451 1.95583 1.18151 0
M  V30 311 C 32.2551 2.59933 -2.32886 0
M  V30 312 C 33.6031 3.27316 -2.70461 0
M  V30 313 O 34.6271 2.70228 -2.32068 0
M  V30 314 O 33.4861 4.30531 -3.36608 0
M  V30 315 H 30.5801 0.672803 -0.480901 0
M  V30 316 H 33.1261 0.807957 -1.49232 0
M  V30 317 H 31.8981 2.14842 -3.27045 0
M  V30 318 H 31.5211 3.38637 -2.08353 0
M  V30 319 N 32.5182 1.22032 0.997298 0
M  V30 320 C 33.4482 1.01065 2.10495 0
M  V30 321 C 34.4292 -0.0669542 1.69968 0
M  V30 322 O 35.6142 0.0943987 1.9397 0
M  V30 323 C 32.7442 0.582874 3.42374 0
M  V30 324 C 31.6982 1.60592 3.96729 0
M  V30 325 C 31.0242 1.03412 5.24605 0
M  V30 326 C 32.3242 2.99478 4.27914 0
M  V30 327 H 34.0182 1.93708 2.28292 0
M  V30 328 H 31.5642 0.932761 1.09707 0
M  V30 329 H 33.5172 0.423332 4.19268 0
M  V30 330 H 32.2412 -0.379213 3.24391 0
M  V30 331 H 30.9002 1.75316 3.21963 0
M  V30 332 H 30.5482 0.063518 5.0296 0
M  V30 333 H 30.2482 1.71754 5.61938 0
M  V30 334 H 31.7722 0.886066 6.04137 0
M  V30 335 H 33.1862 2.88153 4.95622 0
M  V30 336 H 31.5832 3.64903 4.76409 0
M  V30 337 H 32.6532 3.49742 3.3587 0
M  V30 338 N 33.9963 -1.19345 1.0293 0
M  V30 339 C 35.2243 -1.92997 0.745644 0
M  V30 340 C 35.6393 -1.75519 -0.695589 0
M  V30 341 O 34.9963 -1.07737 -1.47306 0
M  V30 342 C 35.0473 -3.44741 1.08792 0
M  V30 343 O 34.7683 -3.61658 2.47256 0
M  V30 344 C 36.2693 -4.35515 0.827129 0
M  V30 345 H 33.4893 -0.613042 0.272801 0
M  V30 346 H 36.0333 -1.51473 1.3739 0
M  V30 347 H 34.1883 -3.84097 0.504832 0
M  V30 348 H 34.6023 -4.55514 2.60015 0
M  V30 349 H 36.0763 -5.40589 1.11658 0
M  V30 350 H 36.5533 -4.38552 -0.238436 0
M  V30 351 H 37.1593 -4.01841 1.39297 0
M  V30 352 N 35.4744 -0.807222 -1.35358 0
M  V30 353 C 36.8904 -0.491038 -1.51858 0
M  V30 354 C 37.0904 0.987648 -1.75635 0
M  V30 355 O 36.1464 1.77265 -1.79815 0
M  V30 356 C 37.4594 -1.33695 -2.69344 0
M  V30 357 C 39.0074 -1.33246 -2.83222 0
M  V30 358 C 39.4824 -2.1625 -4.03733 0
M  V30 359 N 40.9734 -2.1379 -4.10911 0
M  V30 360 C 41.7084 -2.74772 -5.03277 0
M  V30 361 N 41.2044 -3.44684 -6.0097 0
M  V30 362 N 42.9974 -2.6441 -4.96028 0
M  V30 363 H 35.1484 -1.76485 -1.18181 0
M  V30 364 H 37.4114 -0.751199 -0.578276 0
M  V30 365 H 37.1174 -2.38634 -2.58354 0
M  V30 366 H 36.9914 -0.990618 -3.6396 0
M  V30 367 H 39.3784 -0.290911 -2.93663 0
M  V30 368 H 39.4594 -1.71866 -1.89461 0
M  V30 369 H 39.1034 -3.20445 -3.94052 0
M  V30 370 H 39.0334 -1.74989 -4.96675 0
M  V30 371 H 41.5244 -1.62923 -3.40976 0
M  V30 372 H 41.8374 -3.88501 -6.68047 0
M  V30 373 H 40.1824 -3.48788 -6.01142 0
M  V30 374 H 43.3734 -2.0938 -4.18662 0
M  V30 375 H 43.5464 -3.12225 -5.6782 0
M  V30 376 N 36.9525 1.47285 -0.560781 0
M  V30 377 C 38.3635 1.86258 -0.128343 0
M  V30 378 C 38.7145 1.46699 1.30284 0
M  V30 379 O 37.8395 0.871698 1.98067 0
M  V30 380 C 38.4345 3.38044 -0.22614 0
M  V30 381 C 36.9935 3.76096 0.151283 0
M  V30 382 C 36.1405 2.71335 -0.572084 0
M  V30 383 H 39.0915 1.38752 -0.770297 0
M  V30 384 H 39.1125 3.76441 0.554322 0
M  V30 385 H 38.6245 3.66806 -1.26788 0
M  V30 386 H 36.7255 3.52951 1.19399 0
M  V30 387 H 36.8385 4.78641 -0.209765 0
M  V30 388 H 35.2025 2.54696 -0.0147653 0
M  V30 389 H 35.9855 3.02938 -1.61504 0
M  V30 390 N 38.4306 0.297415 1.54768 0
M  V30 391 C 39.3606 -0.573494 2.26348 0
M  V30 392 C 40.3416 -1.14085 1.26169 0
M  V30 393 O 41.5266 -1.17086 1.54934 0
M  V30 394 C 38.6566 -1.74716 3.00153 0
M  V30 395 C 37.6106 -1.31032 4.07449 0
M  V30 396 C 36.9366 -2.56887 4.68949 0
M  V30 397 C 38.2366 -0.444183 5.20408 0
M  V30 398 H 39.9306 0.0235131 2.99391 0
M  V30 399 H 37.4766 0.0127488 1.43994 0
M  V30 400 H 39.4296 -2.3625 3.48947 0
M  V30 401 H 38.1536 -2.37035 2.24682 0
M  V30 402 H 36.8126 -0.718066 3.59499 0
M  V30 403 H 36.4606 -3.17512 3.90122 0
M  V30 404 H 36.1606 -2.2836 5.41411 0
M  V30 405 H 37.6846 -3.19229 5.20505 0
M  V30 406 H 39.0986 -0.9651 5.65118 0
M  V30 407 H 37.4956 -0.252846 5.99567 0
M  V30 408 H 38.5656 0.531609 4.81977 0
M  V30 409 N 39.9087 -1.5758 0.0250728 0
M  V30 410 C 41.1337 -1.96337 -0.668317 0
M  V30 411 C 41.5587 -0.901314 -1.651 0
M  V30 412 O 40.9167 0.138187 -1.80773 0
M  V30 413 C 40.9647 -3.34191 -1.35457 0
M  V30 414 O 40.0687 -3.30269 -2.46974 0
M  V30 415 H 39.4097 -0.640281 -0.175887 0
M  V30 416 H 41.9397 -2.0442 0.0857224 0
M  V30 417 H 41.9497 -3.70331 -1.71228 0
M  V30 418 H 40.6247 -4.11036 -0.634218 0
M  V30 419 H 39.2017 -3.05841 -2.13344 0
M  V30 420 N 41.3868 0.248026 -1.55636 0
M  V30 421 C 42.6638 0.998988 -1.68165 0
M  V30 422 C 43.0438 2.03409 -0.564621 0
M  V30 423 O 42.3918 2.24378 0.432076 0
M  V30 424 C 42.6018 1.63334 -3.0842 0
M  V30 425 C 43.9498 2.13562 -3.66983 0
M  V30 426 O 44.9738 1.73277 -3.11213 0
M  V30 427 O 43.8328 2.87526 -4.64749 0
M  V30 428 H 40.9268 0.464933 -0.683935 0
M  V30 429 H 43.4728 0.241902 -1.67967 0
M  V30 430 H 42.2448 0.884583 -3.8117 0
M  V30 431 H 41.8678 2.45666 -3.12624 0
M  V30 432 N 42.8649 1.48995 0.513639 0
M  V30 433 C 43.8129 1.65199 1.63744 0
M  V30 434 C 44.8069 0.51809 1.61283 0
M  V30 435 O 46.0129 0.697335 1.65943 0
M  V30 436 H 42.3879 0.52069 0.542574 0
M  V30 437 H 44.3589 2.59552 1.47226 0
M  V30 438 C 43.1079 1.72409 3.01945 0
M  V30 439 H 42.4309 2.59029 3.04539 0
M  V30 440 H 43.8709 1.87785 3.80148 0
M  V30 441 C 42.3299 0.46618 3.33659 0
M  V30 442 O 42.8599 -0.413744 3.99564 0
M  V30 443 N 41.0659 0.332931 2.88687 0
M  V30 444 H 40.6129 1.04996 2.35231 0
M  V30 445 H 40.5709 -0.507665 3.10274 0
M  V30 446 N 44.343 -0.763751 1.37857 0
M  V30 447 C 45.275 -1.88664 1.30148 0
M  V30 448 C 46.288 -1.61365 0.215685 0
M  V30 449 O 47.477 -1.72134 0.472459 0
M  V30 450 C 44.577 -3.24075 0.991396 0
M  V30 451 C 43.75 -3.78958 2.18426 0
M  V30 452 C 42.809 -4.92862 1.8432 0
M  V30 453 O 41.835 -5.08027 2.56704 0
M  V30 454 N 43.037 -5.75071 0.792081 0
M  V30 455 H 45.802 -1.95791 2.26905 0
M  V30 456 H 43.363 -0.943226 1.31586 0
M  V30 457 H 45.355 -3.97804 0.743935 0
M  V30 458 H 43.925 -3.12399 0.112122 0
M  V30 459 H 43.145 -2.96913 2.59299 0
M  V30 460 H 44.433 -4.12357 2.98058 0
M  V30 461 H 43.831 -5.65375 0.191595 0
M  V30 462 H 42.388 -6.48991 0.60449 0
M  V30 463 N 45.8211 -1.22559 -0.990812 0
M  V30 464 C 47.0681 -1.05141 -1.73065 0
M  V30 465 C 47.3961 0.413191 -1.9006 0
M  V30 466 O 46.6511 1.32257 -1.44245 0
M  V30 467 C 46.9501 -1.71011 -3.13831 0
M  V30 468 C 46.6161 -3.20911 -3.16745 0
M  V30 469 C 45.2781 -3.61812 -3.17247 0
M  V30 470 C 47.6301 -4.16846 -3.12872 0
M  V30 471 C 44.9581 -4.97127 -3.1158 0
M  V30 472 C 47.3101 -5.5214 -3.08746 0
M  V30 473 C 45.9741 -5.92419 -3.07565 0
M  V30 474 H 45.2441 -0.384738 -0.633291 0
M  V30 475 H 47.8911 -1.5235 -1.16025 0
M  V30 476 H 46.1961 -1.16133 -3.74193 0
M  V30 477 H 47.8931 -1.55023 -3.69823 0
M  V30 478 H 44.4831 -2.88344 -3.17105 0
M  V30 479 H 48.6671 -3.86263 -3.11632 0
M  V30 480 H 43.9231 -5.27562 -3.09012 0
M  V30 481 H 48.0971 -6.26201 -3.04705 0
M  V30 482 H 45.7241 -6.97236 -3.02929 0
M  V30 483 N 47.2992 1.18797 -1.03562 0
M  V30 484 C 48.2092 2.25913 -0.632505 0
M  V30 485 C 49.2252 1.70668 0.338882 0
M  V30 486 O 50.4012 2.00453 0.195076 0
M  V30 487 C 47.4662 3.467 0.00350942 0
M  V30 488 C 46.5272 4.17098 -1.01624 0
M  V30 489 C 45.7602 5.32119 -0.410478 0
M  V30 490 O 45.9832 5.64976 0.784725 0
M  V30 491 O 44.9172 5.9107 -1.13667 0
M  V30 492 H 48.7432 2.62648 -1.52478 0
M  V30 493 H 46.3282 1.25781 -0.806195 0
M  V30 494 H 48.2102 4.19878 0.35781 0
M  V30 495 H 46.8852 3.11798 0.869686 0
M  V30 496 H 45.7922 3.4601 -1.42224 0
M  V30 497 H 47.1252 4.55987 -1.85301 0
M  V30 498 N 48.7773 0.814389 1.34928 0
M  V30 499 C 49.7093 0.187834 2.28429 0
M  V30 500 C 50.7223 -0.617374 1.5064 0
M  V30 501 O 51.9113 -0.448454 1.72775 0
M  V30 502 C 49.0113 -0.755962 3.30361 0
M  V30 503 C 48.1843 0.00456686 4.374 0
M  V30 504 C 47.2433 -0.858876 5.19143 0
M  V30 505 O 46.2693 -0.306968 5.68372 0
M  V30 506 N 47.4713 -2.17988 5.38016 0
M  V30 507 H 50.2363 0.991105 2.82838 0
M  V30 508 H 47.7973 0.670561 1.4736 0
M  V30 509 H 49.7893 -1.338 3.81942 0
M  V30 510 H 48.3593 -1.46001 2.7641 0
M  V30 511 H 47.5793 0.767865 3.86649 0
M  V30 512 H 48.8673 0.528422 5.06049 0
M  V30 513 H 48.2653 -2.65212 4.99679 0
M  V30 514 H 46.8223 -2.71098 5.92747 0
M  V30 515 N 50.2554 -1.46986 0.568584 0
M  V30 516 C 51.1854 -2.32946 -0.160753 0
M  V30 517 C 52.1664 -1.44487 -0.897631 0
M  V30 518 O 53.3514 -1.73327 -0.875867 0
M  V30 519 C 50.4814 -3.26494 -1.18403 0
M  V30 520 C 49.4354 -4.24282 -0.562895 0
M  V30 521 C 48.7614 -5.07236 -1.69163 0
M  V30 522 C 50.0614 -5.19989 0.490761 0
M  V30 523 H 51.7554 -2.94175 0.556916 0
M  V30 524 H 49.3014 -1.4146 0.26927 0
M  V30 525 H 51.2544 -3.85477 -1.70251 0
M  V30 526 H 49.9784 -2.63343 -1.93179 0
M  V30 527 H 48.6374 -3.66541 -0.0656164 0
M  V30 528 H 48.2854 -4.4048 -2.42871 0
M  V30 529 H 47.9854 -5.7345 -1.28174 0
M  V30 530 H 49.5094 -5.6908 -2.21314 0
M  V30 531 H 50.9234 -5.73271 0.0579047 0
M  V30 532 H 49.3204 -5.94469 0.820165 0
M  V30 533 H 50.3904 -4.64777 1.3824 0
M  V30 534 N 51.7335 -0.305618 -1.54608 0
M  V30 535 C 52.9635 0.304333 -2.04346 0
M  V30 536 C 53.3715 1.47715 -1.18224 0
M  V30 537 O 52.7145 1.82591 -0.201577 0
M  V30 538 C 52.7765 0.819031 -3.50046 0
M  V30 539 C 52.4405 -0.22912 -4.56425 0
M  V30 540 C 53.4375 -1.05914 -5.08997 0
M  V30 541 C 51.1225 -0.372148 -5.0092 0
M  V30 542 C 53.1165 -2.01809 -6.04609 0
M  V30 543 C 50.8035 -1.33454 -5.9635 0
M  V30 544 C 51.8015 -2.15599 -6.48079 0
M  V30 545 O 51.4895 -3.10205 -7.41639 0
M  V30 546 H 51.2215 0.0693996 -0.672428 0
M  V30 547 H 53.7755 -0.444548 -2.00532 0
M  V30 548 H 52.0055 1.61852 -3.51199 0
M  V30 549 H 53.6945 1.34537 -3.82955 0
M  V30 550 H 54.4605 -0.959538 -4.75413 0
M  V30 551 H 50.3395 0.257304 -4.60281 0
M  V30 552 H 53.8835 -2.65966 -6.44909 0
M  V30 553 H 49.7805 -1.43485 -6.29351 0
M  V30 554 H 50.5485 -3.05237 -7.59455 0
M  V30 555 N 53.2116 1.57565 -0.0334293 0
M  V30 556 C 54.1616 2.06978 0.956237 0
M  V30 557 C 55.1456 0.971193 1.28283 0
M  V30 558 O 56.3376 1.23471 1.26822 0
M  V30 559 C 53.4666 2.60393 2.23719 0
M  V30 560 C 52.5526 3.7719 1.93877 0
M  V30 561 N 52.9436 4.87639 1.34321 0
M  V30 562 C 51.2416 3.85758 2.23845 0
M  V30 563 C 51.9426 5.68825 1.21709 0
M  V30 564 N 50.9186 5.1587 1.71404 0
M  V30 565 H 54.7206 2.89773 0.490815 0
M  V30 566 H 52.2346 1.61492 0.171478 0
M  V30 567 H 54.2316 2.94088 2.95496 0
M  V30 568 H 52.8916 1.79031 2.70884 0
M  V30 569 H 53.9026 5.07803 1.01767 0
M  V30 570 H 50.5796 3.1531 2.73653 0
M  V30 571 H 51.9696 6.67631 0.75621 0
M  V30 572 N 54.6897 -0.239769 1.55765 0
M  V30 573 C 55.6527 -1.28038 1.90103 0
M  V30 574 C 56.6527 -1.40723 0.778055 0
M  V30 575 O 57.8427 -1.39301 1.04599 0
M  V30 576 C 54.9747 -2.65702 2.13577 0
M  V30 577 H 56.1677 -0.988048 2.83157 0
M  V30 578 H 53.7207 -0.479382 1.48767 0
M  V30 579 H 54.4557 -3.00063 1.23015 0
M  V30 580 H 54.2407 -2.57875 2.95369 0
M  V30 581 H 55.7307 -3.40828 2.41301 0
M  V30 582 N 56.1678 -1.49265 -0.50573 0
M  V30 583 C 57.4138 -1.58748 -1.26202 0
M  V30 584 C 57.7468 -0.271227 -1.92297 0
M  V30 585 O 57.0218 0.724831 -1.80489 0
M  V30 586 C 57.3048 -2.74332 -2.33268 0
M  V30 587 C 57.1578 -4.15737 -1.71705 0
M  V30 588 C 58.4768 -2.85576 -3.34865 0
M  V30 589 H 55.5958 -0.577826 -0.457478 0
M  V30 590 H 58.2378 -1.81532 -0.560897 0
M  V30 591 H 56.3878 -2.55036 -2.93068 0
M  V30 592 H 58.0598 -4.46537 -1.15769 0
M  V30 593 H 56.3028 -4.21605 -1.02135 0
M  V30 594 H 56.9738 -4.92477 -2.49341 0
M  V30 595 H 59.4498 -3.03127 -2.8505 0
M  V30 596 H 58.3258 -3.68135 -4.07146 0
M  V30 597 H 58.5868 -1.94732 -3.96903 0
M  V30 598 N 57.6459 0.756429 -1.3826 0
M  V30 599 C 58.5759 1.88374 -1.37976 0
M  V30 600 C 59.5569 1.68311 -0.246082 0
M  V30 601 O 60.7419 1.88944 -0.44874 0
M  V30 602 C 57.8719 3.25864 -1.20125 0
M  V30 603 C 56.8259 3.60523 -2.30666 0
M  V30 604 C 56.1519 4.9672 -1.97923 0
M  V30 605 C 57.4519 3.65692 -3.72916 0
M  V30 606 H 59.1459 1.88869 -2.32312 0
M  V30 607 H 56.6919 0.907272 -1.11824 0
M  V30 608 H 58.6449 4.0438 -1.18552 0
M  V30 609 H 57.3689 3.25841 -0.222498 0
M  V30 610 H 56.0279 2.84324 -2.3142 0
M  V30 611 H 55.6759 4.93253 -0.985393 0
M  V30 612 H 55.3759 5.20878 -2.71955 0
M  V30 613 H 56.8999 5.77618 -1.97964 0
M  V30 614 H 58.3139 4.34328 -3.74208 0
M  V30 615 H 56.7109 4.01358 -4.4613 0
M  V30 616 H 57.7809 2.65987 -4.05436 0
M  V30 617 N 59.124 1.23083 0.984299 0
M  V30 618 C 60.54 0.992637 1.24975 0
M  V30 619 C 60.74 -0.308618 1.99123 0
M  V30 620 O 59.796 -1.02905 2.30579 0
M  V30 621 C 61.109 2.19698 2.05312 0
M  V30 622 C 62.657 2.24147 2.18465 0
M  V30 623 C 63.132 3.44157 3.02192 0
M  V30 624 N 64.623 3.44372 3.09777 0
M  V30 625 C 65.358 4.33886 3.74874 0
M  V30 626 N 64.854 5.3363 4.41827 0
M  V30 627 N 66.647 4.21639 3.71721 0
M  V30 628 H 58.798 2.06731 0.487453 0
M  V30 629 H 61.061 0.906339 0.277944 0
M  V30 630 H 60.767 3.1411 1.58201 0
M  V30 631 H 60.641 2.20465 3.06064 0
M  V30 632 H 63.028 1.30277 2.64786 0
M  V30 633 H 63.109 2.27415 1.17115 0
M  V30 634 H 62.753 4.38332 2.56568 0
M  V30 635 H 62.683 3.3813 4.03702 0
M  V30 636 H 65.174 2.72201 2.62135 0
M  V30 637 H 65.487 5.98196 4.89266 0
M  V30 638 H 63.832 5.37534 4.40548 0
M  V30 639 H 67.023 3.42962 3.18582 0
M  V30 640 H 67.196 4.91604 4.22173 0
M  V30 641 N 60.6021 -1.18246 1.0419 0
M  V30 642 C 61.5521 -2.19843 0.604392 0
M  V30 643 C 62.5361 -1.56962 -0.353814 0
M  V30 644 O 63.7281 -1.76156 -0.17267 0
M  V30 645 C 60.8571 -3.43287 -0.0298975 0
M  V30 646 C 59.9431 -4.13288 0.951531 0
M  V30 647 N 60.3341 -4.59271 2.11906 0
M  V30 648 C 58.6321 -4.39165 0.7778 0
M  V30 649 C 59.3331 -5.13173 2.73912 0
M  V30 650 N 58.3091 -5.04763 2.01779 0
M  V30 651 H 62.1111 -2.53089 1.4941 0
M  V30 652 H 59.6251 -1.34465 0.910658 0
M  V30 653 H 61.6221 -4.15334 -0.361037 0
M  V30 654 H 60.2821 -3.11537 -0.915127 0
M  V30 655 H 61.2931 -4.5368 2.49789 0
M  V30 656 H 57.9701 -4.17461 -0.0572331 0
M  V30 657 H 59.3601 -5.58947 3.72864 0
M  V30 658 N 62.0802 -0.821533 -1.34494 0
M  V30 659 C 63.0122 -0.199946 -2.28326 0
M  V30 660 C 64.0252 0.609377 -1.50965 0
M  V30 661 O 65.2142 0.439285 -1.7301 0
M  V30 662 C 62.3142 0.738431 -3.30757 0
M  V30 663 C 61.4872 -0.0277632 -4.37391 0
M  V30 664 C 60.5462 0.831332 -5.19591 0
M  V30 665 O 59.5722 0.276822 -5.68526 0
M  V30 666 N 60.7742 2.15132 -5.39165 0
M  V30 667 H 63.5392 -1.00609 -2.82308 0
M  V30 668 H 61.1002 -0.678366 -1.47003 0
M  V30 669 H 63.0922 1.31773 -3.82646 0
M  V30 670 H 61.6622 1.44533 -2.7718 0
M  V30 671 H 60.8822 -0.788359 -3.86236 0
M  V30 672 H 62.1702 -0.555251 -5.05761 0
M  V30 673 H 61.5682 2.62559 -5.01078 0
M  V30 674 H 60.1252 2.6795 -5.94177 0
M  V30 675 N 63.5583 1.46682 -0.576371 0
M  V30 676 C 64.8043 2.02712 -0.0596221 0
M  V30 677 C 65.1373 1.44765 1.29448 0
M  V30 678 O 64.4123 0.610355 1.84675 0
M  V30 679 C 64.6953 3.60098 0.0129503 0
M  V30 680 C 64.5483 4.28441 -1.3696 0
M  V30 681 C 65.8673 4.34224 0.71678 0
M  V30 682 H 62.9863 0.736637 -0.0231407 0
M  V30 683 H 65.6283 1.74898 -0.742351 0
M  V30 684 H 63.7783 3.83926 0.594378 0
M  V30 685 H 65.4503 4.15896 -1.9957 0
M  V30 686 H 63.6933 3.8805 -1.93907 0
M  V30 687 H 64.3643 5.3716 -1.27135 0
M  V30 688 H 66.8403 4.15503 0.222908 0
M  V30 689 H 65.7163 5.43936 0.73657 0
M  V30 690 H 65.9773 4.04823 1.77682 0
M  V30 691 N 65.0364 0.313813 1.54444 0
M  V30 692 C 66.2824 -0.292108 2.00685 0
M  V30 693 C 66.6154 -1.52548 1.20177 0
M  V30 694 O 65.8904 -1.92452 0.281531 0
M  V30 695 C 66.1734 -0.635968 3.5444 0
M  V30 696 C 66.0264 0.607437 4.4568 0
M  V30 697 C 67.3454 -1.45747 4.15266 0
M  V30 698 H 64.4644 -0.104697 0.729526 0
M  V30 699 H 67.1064 0.428457 1.85106 0
M  V30 700 H 65.2564 -1.24986 3.67846 0
M  V30 701 H 66.9284 1.24581 4.44159 0
M  V30 702 H 65.1714 1.23822 4.15753 0
M  V30 703 H 65.8424 0.322515 5.51057 0
M  V30 704 H 68.3184 -0.938645 4.05375 0
M  V30 705 H 67.1944 -1.66683 5.2298 0
M  V30 706 H 67.4554 -2.45063 3.67963 0
M  V30 707 N 66.5145 -1.57545 0.0417849 0
M  V30 708 C 67.7615 -1.92317 -0.634082 0
M  V30 709 C 68.0895 -0.919334 -1.71402 0
M  V30 710 O 67.3445 0.0698253 -1.95575 0
M  V30 711 C 67.6435 -3.33794 -1.27735 0
M  V30 712 C 67.3095 -4.49716 -0.326543 0
M  V30 713 C 65.9715 -4.81156 -0.0648814 0
M  V30 714 C 68.3235 -5.20182 0.325623 0
M  V30 715 C 65.6515 -5.80414 0.856539 0
M  V30 716 C 68.0035 -6.20424 1.23518 0
M  V30 717 C 66.6675 -6.50298 1.5056 0
M  V30 718 H 65.9375 -0.703736 -0.232027 0
M  V30 719 H 68.5845 -1.91205 0.106259 0
M  V30 720 H 66.8895 -3.31228 -2.09274 0
M  V30 721 H 68.5865 -3.57975 -1.80707 0
M  V30 722 H 65.1765 -4.25176 -0.540665 0
M  V30 723 H 69.3605 -4.96112 0.136546 0
M  V30 724 H 64.6165 -6.019 1.07363 0
M  V30 725 H 68.7905 -6.74141 1.74664 0
M  V30 726 H 66.4175 -7.27025 2.22123 0
M  V30 727 N 67.9926 0.231505 -1.5589 0
M  V30 728 C 68.9226 1.29022 -1.94617 0
M  V30 729 C 69.9036 1.4941 -0.813067 0
M  V30 730 O 71.0886 1.6176 -1.07459 0
M  V30 731 C 68.2186 2.64199 -2.25424 0
M  V30 732 C 67.1726 2.58484 -3.41131 0
M  V30 733 C 66.4986 3.97599 -3.57518 0
M  V30 734 C 67.7986 2.1413 -4.76388 0
M  V30 735 H 69.4926 0.968563 -2.83301 0
M  V30 736 H 67.0386 0.464479 -1.36303 0
M  V30 737 H 68.9916 3.38413 -2.51107 0
M  V30 738 H 67.7156 2.98032 -1.33583 0
M  V30 739 H 66.3746 1.86727 -3.15481 0
M  V30 740 H 66.0226 4.28723 -2.6307 0
M  V30 741 H 65.7226 3.94659 -4.35337 0
M  V30 742 H 67.2466 4.7349 -3.85538 0
M  V30 743 H 68.6606 2.78083 -5.01341 0
M  V30 744 H 67.0576 2.2227 -5.57419 0
M  V30 745 H 68.1276 1.09331 -4.72414 0
M  V30 746 N 69.4707 1.49531 0.497807 0
M  V30 747 C 70.8867 1.36365 0.829266 0
M  V30 748 C 71.0867 0.399184 1.97506 0
M  V30 749 O 70.1427 -0.167977 2.51941 0
M  V30 750 C 71.4557 2.77153 1.16647 0
M  V30 751 C 73.0037 2.85877 1.27449 0
M  V30 752 C 73.4787 4.2744 1.64497 0
M  V30 753 N 74.9697 4.30265 1.7154 0
M  V30 754 C 75.7047 5.3677 2.01656 0
M  V30 755 N 75.2007 6.53516 2.29976 0
M  V30 756 N 76.9937 5.24189 2.02934 0
M  V30 757 H 69.1447 2.10831 -0.257703 0
M  V30 758 H 71.4077 0.946534 -0.0527091 0
M  V30 759 H 71.1137 3.49442 0.397872 0
M  V30 760 H 70.9877 3.12722 2.10915 0
M  V30 761 H 73.3747 2.13824 2.0338 0
M  V30 762 H 73.4557 2.53887 0.312244 0
M  V30 763 H 73.0997 5.00021 0.891151 0
M  V30 764 H 73.0297 4.56896 2.61827 0
M  V30 765 H 75.5207 3.4607 1.51802 0
M  V30 766 H 75.8337 7.30506 2.52153 0
M  V30 767 H 74.1787 6.56737 2.27425 0
M  V30 768 H 77.3697 4.31988 1.80289 0
M  V30 769 H 77.5427 6.07286 2.26071 0
M  V30 770 N 70.9488 -0.749086 1.3866 0
M  V30 771 C 72.2258 -1.4992 1.25632 0
M  V30 772 C 72.6058 -2.10633 -0.140317 0
M  V30 773 O 71.9538 -1.97437 -1.15025 0
M  V30 774 C 72.1638 -2.56195 2.36992 0
M  V30 775 C 73.5118 -3.22972 2.75634 0
M  V30 776 O 74.5358 -2.66502 2.36337 0
M  V30 777 O 73.3948 -4.25122 3.43415 0
M  V30 778 H 70.4888 -0.665067 0.491544 0
M  V30 779 H 73.0348 -0.784113 1.50498 0
M  V30 780 H 71.8068 -2.09612 3.30422 0
M  V30 781 H 71.4298 -3.35279 2.13714 0
M  V30 782 N 72.4269 -1.23603 -0.977757 0
M  V30 783 C 73.3589 -0.977369 -2.07317 0
M  V30 784 C 74.3719 0.0495845 -1.62724 0
M  V30 785 O 75.5609 -0.186261 -1.77526 0
M  V30 786 C 72.6609 -0.451216 -3.35883 0
M  V30 787 C 71.8339 -1.53896 -4.09432 0
M  V30 788 C 70.8929 -1.01721 -5.16274 0
M  V30 789 O 69.9189 -1.70676 -5.43009 0
M  V30 790 N 71.1209 0.153594 -5.80297 0
M  V30 791 H 73.8859 -1.92047 -2.30082 0
M  V30 792 H 71.4469 -1.14497 -1.14465 0
M  V30 793 H 73.4389 -0.0871574 -4.04606 0
M  V30 794 H 72.0089 0.397368 -3.10064 0
M  V30 795 H 71.2289 -2.07566 -3.35127 0
M  V30 796 H 72.5169 -2.27037 -4.55337 0
M  V30 797 H 71.9149 0.730323 -5.60966 0
M  V30 798 H 70.4719 0.458892 -6.50183 0
M  V30 799 N 73.905 1.17692 -1.04816 0
M  V30 800 C 74.868 2.19787 -0.650117 0
M  V30 801 C 75.868 1.58044 0.296427 0
M  V30 802 O 77.058 1.74012 0.0808097 0
M  V30 803 C 74.19 3.40869 0.0456987 0
M  V30 804 H 75.383 2.56516 -1.5537 0
M  V30 805 H 72.936 1.31708 -0.841594 0
M  V30 806 H 73.671 3.09681 0.962726 0
M  V30 807 H 73.456 3.86928 -0.634727 0
M  V30 808 H 74.946 4.16445 0.310432 0
M  V30 809 N 75.3831 0.828654 1.34056 0
M  V30 810 C 76.6321 0.415828 1.97367 0
M  V30 811 C 76.9451 -1.02796 1.6641 0
M  V30 812 O 78.1511 -1.54497 2.23255 0
M  V30 813 C 76.6071 0.692601 3.53173 0
M  V30 814 C 76.2151 2.15038 3.93017 0
M  V30 815 C 77.9591 0.346222 4.23086 0
M  V30 816 C 75.8661 2.37174 5.41758 0
M  V30 817 H 74.7961 0.151755 0.738571 0
M  V30 818 H 77.4471 1.01581 1.52819 0
M  V30 819 H 75.8291 0.0223764 3.95994 0
M  V30 820 H 77.0031 2.86024 3.61285 0
M  V30 821 H 75.3181 2.45875 3.36057 0
M  V30 822 H 77.9151 0.48937 5.32456 0
M  V30 823 H 78.2581 -0.709842 4.10204 0
M  V30 824 H 78.7911 0.971258 3.85761 0
M  V30 825 H 75.5301 3.41308 5.59633 0
M  V30 826 H 75.0501 1.70738 5.74986 0
M  V30 827 H 76.7291 2.19818 6.08514 0
M  V30 828 N 76.8612 -1.46375 0.584142 0
M  V30 829 C 78.0892 -2.06761 0.0759296 0
M  V30 830 C 78.5042 -1.43266 -1.22965 0
M  V30 831 O 77.8612 -0.538458 -1.74376 0
M  V30 832 C 77.9122 -3.61375 -0.0950384 0
M  V30 833 O 77.6332 -4.22495 1.15887 0
M  V30 834 C 79.1342 -4.38693 -0.637434 0
M  V30 835 H 76.3542 -0.668479 0.0581075 0
M  V30 836 H 78.8982 -1.8798 0.805218 0
M  V30 837 H 77.0532 -3.79578 -0.774554 0
M  V30 838 H 77.4672 -5.15385 0.973598 0
M  V30 839 H 78.9412 -5.47464 -0.706237 0
M  V30 840 H 79.4182 -4.06836 -1.65472 0
M  V30 841 H 80.0242 -4.25299 0.00725967 0
M  V30 842 N 78.3393 -0.321999 -1.54275 0
M  V30 843 C 79.7503 0.166384 -1.85957 0
M  V30 844 C 80.1013 1.51747 -1.24367 0
M  V30 845 O 79.2263 2.09317 -0.549124 0
M  V30 846 C 79.8213 0.308681 -3.37391 0
M  V30 847 C 78.3803 0.741286 -3.69028 0
M  V30 848 C 77.5273 -0.137937 -2.76957 0
M  V30 849 H 80.4783 -0.542335 -1.49146 0
M  V30 850 H 80.4993 1.13984 -3.63026 0
M  V30 851 H 80.0113 -0.674809 -3.82188 0
M  V30 852 H 78.1123 1.73458 -3.29762 0
M  V30 853 H 78.2253 0.546118 -4.75977 0
M  V30 854 H 76.5893 0.386251 -2.51754 0
M  V30 855 H 77.3723 -1.11816 -3.2458 0
M  V30 856 N 79.8174 1.5752 -0.0501392 0
M  V30 857 C 80.7494 2.08413 0.95376 0
M  V30 858 C 81.7624 1.01175 1.27544 0
M  V30 859 O 82.9514 1.28744 1.23641 0
M  V30 860 C 80.0514 2.51138 2.27559 0
M  V30 861 C 79.2244 3.817 2.13598 0
M  V30 862 C 78.2834 4.10749 3.28895 0
M  V30 863 O 77.3094 4.80685 3.04845 0
M  V30 864 N 78.5114 3.62579 4.5334 0
M  V30 865 H 81.2764 2.95165 0.519383 0
M  V30 866 H 78.8374 1.61327 0.136127 0
M  V30 867 H 80.8294 2.67648 3.03557 0
M  V30 868 H 79.3994 1.6964 2.62567 0
M  V30 869 H 78.6194 3.74782 1.22197 0
M  V30 870 H 79.9074 4.67201 2.01496 0
M  V30 871 H 79.3054 3.06039 4.75769 0
M  V30 872 H 77.8624 3.84329 5.26436 0
M  V30 873 N 81.2955 -0.223234 1.56011 0
M  V30 874 C 82.2275 -1.30006 1.88762 0
M  V30 875 C 83.2405 -1.43129 0.775746 0
M  V30 876 O 84.4295 -1.44057 1.05403 0
M  V30 877 C 81.5295 -2.67589 2.07965 0
M  V30 878 C 80.7025 -2.76434 3.38973 0
M  V30 879 C 79.7615 -3.95019 3.47629 0
M  V30 880 O 78.7875 -3.83436 4.20672 0
M  V30 881 N 79.9895 -5.09249 2.78649 0
M  V30 882 H 82.7545 -1.02238 2.81722 0
M  V30 883 H 80.3155 -0.413278 1.56536 0
M  V30 884 H 82.3075 -3.45297 2.11073 0
M  V30 885 H 80.8775 -2.87964 1.21638 0
M  V30 886 H 80.0975 -1.85216 3.47978 0
M  V30 887 H 81.3855 -2.79313 4.25278 0
M  V30 888 H 80.7835 -5.21556 2.19081 0
M  V30 889 H 79.3405 -5.85007 2.8742 0
M  V30 890 N 82.7736 -1.49793 -0.48987 0
M  V30 891 C 83.7056 -1.63413 -1.60713 0
M  V30 892 C 84.7186 -0.516329 -1.54395 0
M  V30 893 O 85.9076 -0.788812 -1.60125 0
M  V30 894 C 83.0076 -1.58516 -2.99543 0
M  V30 895 C 82.1806 -2.86016 -3.30928 0
M  V30 896 C 81.2396 -2.74018 -4.49222 0
M  V30 897 O 80.2656 -3.47964 -4.50455 0
M  V30 898 N 81.4676 -1.86309 -5.4979 0
M  V30 899 H 84.2326 -2.59777 -1.49452 0
M  V30 900 H 81.7936 -1.47022 -0.677955 0
M  V30 901 H 83.7856 -1.48128 -3.76617 0
M  V30 902 H 82.3556 -0.69965 -3.0467 0
M  V30 903 H 81.5756 -3.10672 -2.42645 0
M  V30 904 H 82.8636 -3.70521 -3.487 0
M  V30 905 H 82.2616 -1.2551 -5.51601 0
M  V30 906 H 80.8186 -1.81837 -6.25922 0
M  V30 907 N 84.2517 0.741722 -1.39055 0
M  V30 908 C 85.6677 1.04638 -1.20512 0
M  V30 909 C 85.8677 2.01405 -0.0620218 0
M  V30 910 O 84.9237 2.45547 0.588457 0
M  V30 911 C 86.2367 1.6151 -2.53643 0
M  V30 912 C 87.7847 1.73623 -2.6043 0
M  V30 913 C 88.2597 2.33906 -3.93767 0
M  V30 914 N 89.7507 2.41323 -3.9537 0
M  V30 915 C 90.4857 2.88888 -4.95309 0
M  V30 916 N 89.9817 3.36401 -6.05645 0
M  V30 917 N 91.7747 2.88037 -4.82692 0
M  V30 918 H 83.9257 0.0998155 -2.12165 0
M  V30 919 H 86.1887 0.106907 -0.941953 0
M  V30 920 H 85.8947 0.978739 -3.37807 0
M  V30 921 H 85.7687 2.60411 -2.72885 0
M  V30 922 H 88.1557 2.36384 -1.76655 0
M  V30 923 H 88.2367 0.733945 -2.45045 0
M  V30 924 H 87.8807 1.71776 -4.7797 0
M  V30 925 H 87.8107 3.34799 -4.06469 0
M  V30 926 H 90.3017 2.07734 -3.15682 0
M  V30 927 H 90.6147 3.71186 -6.77821 0
M  V30 928 H 88.9597 3.34427 -6.09248 0
M  V30 929 H 92.1507 2.50237 -3.95599 0
M  V30 930 H 92.3237 3.24792 -5.60726 0
M  V30 931 N 85.7298 1.2412 0.971189 0
M  V30 932 C 86.6928 1.03156 2.04674 0
M  V30 933 C 87.6928 -0.00990322 1.60797 0
M  V30 934 O 88.8828 0.230729 1.72665 0
M  V30 935 C 86.0148 0.562765 3.36223 0
M  V30 936 H 87.2078 1.98614 2.24705 0
M  V30 937 H 84.7608 1.06293 1.14593 0
M  V30 938 H 85.4958 -0.395176 3.21883 0
M  V30 939 H 85.2808 1.31441 3.69413 0
M  V30 940 H 86.7708 0.437015 4.15307 0
M  V30 941 N 87.2079 -1.17134 1.05439 0
M  V30 942 C 88.1379 -2.2342 0.678649 0
M  V30 943 C 89.1189 -1.66971 -0.32476 0
M  V30 944 O 90.3039 -1.93149 -0.201802 0
M  V30 945 C 87.4339 -3.47256 0.0552099 0
M  V30 946 C 86.3879 -4.16543 0.98365 0
M  V30 947 C 85.7139 -5.34231 0.223961 0
M  V30 948 C 87.0139 -4.68495 2.3089 0
M  V30 949 H 88.7079 -2.55105 1.56722 0
M  V30 950 H 86.2539 -1.2262 0.754998 0
M  V30 951 H 88.2069 -4.20828 -0.21946 0
M  V30 952 H 86.9309 -3.14846 -0.868319 0
M  V30 953 H 85.5899 -3.44887 1.24293 0
M  V30 954 H 85.2379 -4.98071 -0.702412 0
M  V30 955 H 84.9379 -5.81527 0.842627 0
M  V30 956 H 86.4619 -6.10585 -0.0433671 0
M  V30 957 H 87.8759 -5.33691 2.09396 0
M  V30 958 H 86.2729 -5.26379 2.88176 0
M  V30 959 H 87.3429 -3.85169 2.94572 0
M  V30 960 N 88.686 -0.835752 -1.33615 0
M  V30 961 C 89.649 -0.272 -2.2758 0
M  V30 962 C 90.649 0.557487 -1.50827 0
M  V30 963 O 91.839 0.37173 -1.70188 0
M  V30 964 C 88.971 0.617173 -3.35267 0
M  V30 965 H 90.164 -1.10111 -2.78954 0
M  V30 966 H 87.717 -0.608594 -1.43965 0
M  V30 967 H 88.452 1.46884 -2.89129 0
M  V30 968 H 88.237 0.0237066 -3.92093 0
M  V30 969 H 89.727 1.005 -4.05326 0
M  V30 970 N 90.1641 1.46063 -0.591896 0
M  V30 971 C 91.0961 2.28539 0.174001 0
M  V30 972 C 92.1091 1.39047 0.846753 0
M  V30 973 O 93.2981 1.63564 0.714774 0
M  V30 974 C 90.3981 3.14347 1.26645 0
M  V30 975 C 89.5711 4.32021 0.683856 0
M  V30 976 C 88.6301 4.99157 1.66518 0
M  V30 977 O 87.6561 5.56458 1.19763 0
M  V30 978 N 88.8581 4.97005 2.99943 0
M  V30 979 H 91.6231 2.94911 -0.533633 0
M  V30 980 H 89.1841 1.56077 -0.430294 0
M  V30 981 H 91.1761 3.56125 1.92242 0
M  V30 982 H 89.7461 2.49988 1.87682 0
M  V30 983 H 88.9661 3.93915 -0.1498 0
M  V30 984 H 90.2541 5.08059 0.274567 0
M  V30 985 H 89.6521 4.51714 3.40545 0
M  V30 986 H 88.2091 5.42696 3.61004 0
M  V30 987 N 91.6422 0.330177 1.54103 0
M  V30 988 C 93.0582 -0.0222371 1.59585 0
M  V30 989 C 93.2582 -1.49902 1.34654 0
M  V30 990 O 92.3142 -2.25592 1.13421 0
M  V30 991 C 93.6272 0.401932 2.98002 0
M  V30 992 C 95.1752 0.353145 3.11001 0
M  V30 993 C 95.6502 0.752576 4.51775 0
M  V30 994 N 97.1412 0.706239 4.57784 0
M  V30 995 C 97.8762 0.987417 5.64834 0
M  V30 996 N 97.3722 1.33607 6.79795 0
M  V30 997 N 99.1652 0.91254 5.54643 0
M  V30 998 H 91.3162 1.29228 1.68564 0
M  V30 999 H 93.5792 0.525906 0.78875 0
M  V30 1000 H 93.2852 1.4311 3.21267 0
M  V30 1001 H 93.1592 -0.229699 3.765 0
M  V30 1002 H 95.5462 -0.666822 2.87467 0
M  V30 1003 H 95.6272 1.0198 2.34593 0
M  V30 1004 H 95.2712 1.77049 4.76042 0
M  V30 1005 H 95.2012 0.0635409 5.26562 0
M  V30 1006 H 97.6922 0.44889 3.75224 0
M  V30 1007 H 98.0052 1.53582 7.57385 0
M  V30 1008 H 96.3502 1.37439 6.81275 0
M  V30 1009 H 99.5412 0.639601 4.6371 0
M  V30 1010 H 99.7142 1.13503 6.37982 0
M  V30 1011 N 93.1203 -1.57491 0.0584922 0
M  V30 1012 C 94.3673 -1.92978 -0.613648 0
M  V30 1013 C 94.6953 -0.937461 -1.70417 0
M  V30 1014 O 93.9503 0.049078 -1.95638 0
M  V30 1015 C 94.2493 -3.3513 -1.24188 0
M  V30 1016 C 93.9153 -4.50037 -0.278826 0
M  V30 1017 C 92.5773 -4.81198 -0.0138447 0
M  V30 1018 C 94.9293 -5.19807 0.380777 0
M  V30 1019 C 92.2573 -5.79473 0.918052 0
M  V30 1020 C 94.6093 -6.19079 1.30091 0
M  V30 1021 C 93.2733 -6.48665 1.57449 0
M  V30 1022 H 92.5433 -0.706157 -0.22455 0
M  V30 1023 H 95.1903 -1.91082 0.126533 0
M  V30 1024 H 93.4953 -3.33429 -2.05749 0
M  V30 1025 H 95.1923 -3.59871 -1.769 0
M  V30 1026 H 91.7823 -4.25726 -0.495539 0
M  V30 1027 H 95.9663 -4.95939 0.189158 0
M  V30 1028 H 91.2223 -6.00727 1.1374 0
M  V30 1029 H 95.3963 -6.7225 1.81804 0
M  V30 1030 H 93.0233 -7.24628 2.29822 0
M  V30 1031 N 94.5984 0.214957 -1.56127 0
M  V30 1032 C 95.8464 0.936518 -1.79091 0
M  V30 1033 C 96.1674 1.84606 -0.628148 0
M  V30 1034 O 95.4374 1.92664 0.35462 0
M  V30 1035 H 94.0174 0.3488 -0.660566 0
M  V30 1036 H 96.6794 0.22523 -1.93594 0
M  V30 1037 H 95.7754 1.53943 -2.71492 0
M  V30 1038 N 96.0765 1.50051 0.48192 0
M  V30 1039 C 96.9865 1.7089 1.60728 0
M  V30 1040 C 98.0025 0.591788 1.63627 0
M  V30 1041 O 99.1785 0.868817 1.81696 0
M  V30 1042 C 96.2435 1.78855 2.97005 0
M  V30 1043 C 95.3045 3.02537 3.04581 0
M  V30 1044 C 94.5375 3.10112 4.34357 0
M  V30 1045 O 94.7605 2.24765 5.24249 0
M  V30 1046 O 93.6945 4.02747 4.47301 0
M  V30 1047 H 97.5205 2.66264 1.46072 0
M  V30 1048 H 95.1055 1.34018 0.660264 0
M  V30 1049 H 96.9875 1.86336 3.77964 0
M  V30 1050 H 95.6625 0.866628 3.11883 0
M  V30 1051 H 94.5695 3.00563 2.22739 0
M  V30 1052 H 95.9025 3.94272 2.94636 0
M  V30 1053 N 97.5546 -0.734337 1.39446 0
M  V30 1054 C 98.4846 -1.86155 1.40955 0
M  V30 1055 C 99.4656 -1.67898 0.272827 0
M  V30 1056 O 100.651 -1.88207 0.478743 0
M  V30 1057 C 97.7806 -3.23912 1.25294 0
M  V30 1058 C 96.7346 -3.56808 2.36373 0
M  V30 1059 C 96.0606 -4.93508 2.058 0
M  V30 1060 C 97.3606 -3.59713 3.78687 0
M  V30 1061 H 99.0546 -1.8515 2.35287 0
M  V30 1062 H 96.6006 -0.889367 1.13253 0
M  V30 1063 H 98.5536 -4.02443 1.2497 0
M  V30 1064 H 97.2776 -3.25446 0.274308 0
M  V30 1065 H 95.9366 -2.80606 2.35914 0
M  V30 1066 H 95.5846 -4.91623 1.06374 0
M  V30 1067 H 95.2846 -5.16486 2.80208 0
M  V30 1068 H 96.8086 -5.74396 2.07128 0
M  V30 1069 H 98.2226 -4.2832 3.81071 0
M  V30 1070 H 96.6196 -3.94209 4.52459 0
M  V30 1071 H 97.6896 -2.59504 4.09617 0
M  V30 1072 N 99.0327 -1.24633 -0.964593 0
M  V30 1073 C 99.9827 -1.00841 -2.04487 0
M  V30 1074 C 100.967 0.0512468 -1.60818 0
M  V30 1075 O 102.159 -0.162865 -1.76249 0
M  V30 1076 C 99.2877 -0.618474 -3.37683 0
M  V30 1077 C 98.3737 -1.71437 -3.87905 0
M  V30 1078 N 98.7647 -2.9477 -4.11029 0
M  V30 1079 C 97.0627 -1.5926 -4.16596 0
M  V30 1080 C 97.7637 -3.65834 -4.52261 0
M  V30 1081 N 96.7397 -2.9341 -4.57615 0
M  V30 1082 H 100.542 -1.94487 -2.20345 0
M  V30 1083 H 98.0557 -1.14805 -1.14863 0
M  V30 1084 H 100.053 -0.429247 -4.14684 0
M  V30 1085 H 98.7127 0.310766 -3.23209 0
M  V30 1086 H 99.7237 -3.30917 -3.9839 0
M  V30 1087 H 96.4007 -0.731606 -4.1104 0
M  V30 1088 H 97.7907 -4.71646 -4.78539 0
M  V30 1089 N 100.511 1.16574 -1.06058 0
M  V30 1090 C 101.76 1.86385 -0.770944 0
M  V30 1091 C 102.073 1.82448 0.705129 0
M  V30 1092 O 103.279 2.47815 1.10905 0
M  V30 1093 C 101.735 3.34466 -1.32893 0
M  V30 1094 C 101.343 3.46883 -2.83507 0
M  V30 1095 C 103.087 4.09548 -1.11672 0
M  V30 1096 C 100.994 4.89036 -3.32562 0
M  V30 1097 H 99.9238 0.698181 -0.284709 0
M  V30 1098 H 102.575 1.31583 -1.27899 0
M  V30 1099 H 100.957 3.88859 -0.748662 0
M  V30 1100 H 102.131 3.02663 -3.47465 0
M  V30 1101 H 100.446 2.85232 -3.03368 0
M  V30 1102 H 103.043 5.14434 -1.45814 0
M  V30 1103 H 103.386 4.16264 -0.0549535 0
M  V30 1104 H 103.919 3.61387 -1.66265 0
M  V30 1105 H 100.658 4.87499 -4.38207 0
M  V30 1106 H 100.178 5.3389 -2.73351 0
M  V30 1107 H 101.857 5.57843 -3.2775 0
M  V30 1108 N 101.989 0.842826 1.3317 0
M  V30 1109 C 102.939 0.250877 2.26616 0
M  V30 1110 C 103.923 -0.596427 1.49437 0
M  V30 1111 O 105.115 -0.447747 1.71243 0
M  V30 1112 C 102.244 -0.569779 3.38539 0
M  V30 1113 C 101.33 0.289254 4.23112 0
M  V30 1114 N 101.721 1.36987 4.86897 0
M  V30 1115 C 100.019 0.0769631 4.45934 0
M  V30 1116 C 100.72 1.89737 5.49886 0
M  V30 1117 N 99.6959 1.19827 5.30229 0
M  V30 1118 H 103.498 1.07718 2.73448 0
M  V30 1119 H 101.012 0.687693 1.47121 0
M  V30 1120 H 103.009 -1.01018 4.04476 0
M  V30 1121 H 101.669 -1.39401 2.93253 0
M  V30 1122 H 102.68 1.75277 4.87338 0
M  V30 1123 H 99.3569 -0.713507 4.11358 0
M  V30 1124 H 100.747 2.80253 6.10662 0
M  V30 1125 N 103.467 -1.45747 0.599634 0
M  V30 1126 C 104.878 -1.85853 0.177681 0
M  V30 1127 C 105.229 -1.50102 -1.26348 0
M  V30 1128 O 104.354 -0.923905 -1.95686 0
M  V30 1129 C 104.949 -3.37326 0.315688 0
M  V30 1130 C 103.508 -3.76365 -0.0515144 0
M  V30 1131 C 102.655 -2.69722 0.643822 0
M  V30 1132 H 105.606 -1.36661 0.806814 0
M  V30 1133 H 105.627 -3.77778 -0.454321 0
M  V30 1134 H 105.139 -3.63315 1.36468 0
M  V30 1135 H 103.24 -3.55993 -1.09999 0
M  V30 1136 H 103.353 -4.77916 0.336594 0
M  V30 1137 H 101.717 -2.54567 0.0822881 0
M  V30 1138 H 102.5 -2.98549 1.6948 0
M  V30 1139 N 104.945 -0.338344 -1.53925 0
M  V30 1140 C 106.191 0.260143 -2.01125 0
M  V30 1141 C 106.524 1.50617 -1.22589 0
M  V30 1142 O 105.799 1.91979 -0.312113 0
M  V30 1143 C 106.082 0.579499 -3.55407 0
M  V30 1144 C 105.935 -0.678264 -4.44657 0
M  V30 1145 C 107.254 1.39122 -4.17532 0
M  V30 1146 H 104.373 0.0930772 -0.731099 0
M  V30 1147 H 107.015 -0.457852 -1.84401 0
M  V30 1148 H 105.165 1.19118 -3.69788 0
M  V30 1149 H 106.837 -1.31631 -4.42121 0
M  V30 1150 H 105.08 -1.3042 -4.13731 0
M  V30 1151 H 105.751 -0.410143 -5.50474 0
M  V30 1152 H 108.227 0.874035 -4.06817 0
M  V30 1153 H 107.103 1.58342 -5.25565 0
M  V30 1154 H 107.364 2.39178 -3.71815 0
M  V30 1155 N 106.423 1.57458 -0.0668435 0
M  V30 1156 C 107.653 1.97337 0.611677 0
M  V30 1157 C 108.061 0.943744 1.63982 0
M  V30 1158 O 107.404 -0.0785584 1.83532 0
M  V30 1159 C 107.466 3.33511 1.34205 0
M  V30 1160 C 107.13 4.54598 0.467941 0
M  V30 1161 C 108.127 5.19186 -0.272439 0
M  V30 1162 C 105.812 5.0075 0.39427 0
M  V30 1163 C 107.806 6.28274 -1.07476 0
M  V30 1164 C 105.493 6.09711 -0.411729 0
M  V30 1165 C 106.491 6.73335 -1.14492 0
M  V30 1166 O 106.179 7.80199 -1.93763 0
M  V30 1167 H 105.911 0.654042 0.170893 0
M  V30 1168 H 108.465 2.04961 -0.134289 0
M  V30 1169 H 106.695 3.22487 2.13398 0
M  V30 1170 H 108.384 3.58029 1.91233 0
M  V30 1171 H 109.15 4.84477 -0.225086 0
M  V30 1172 H 105.029 4.51009 0.954569 0
M  V30 1173 H 108.573 6.77866 -1.64755 0
M  V30 1174 H 104.47 6.43854 -0.460664 0
M  V30 1175 H 105.238 7.97053 -1.86142 0
M  V30 1176 N 107.901 -0.206675 1.56239 0
M  V30 1177 C 109.312 -0.772383 1.69974 0
M  V30 1178 C 109.663 -1.84353 0.671436 0
M  V30 1179 O 108.788 -2.15695 -0.174491 0
M  V30 1180 C 109.383 -1.40779 3.08167 0
M  V30 1181 C 107.942 -1.92072 3.23706 0
M  V30 1182 C 107.089 -0.786347 2.65917 0
M  V30 1183 H 110.04 0.0182223 1.5869 0
M  V30 1184 H 110.061 -2.27696 3.04852 0
M  V30 1185 H 109.573 -0.627958 3.82986 0
M  V30 1186 H 107.674 -2.7281 2.53782 0
M  V30 1187 H 107.787 -2.09046 4.31087 0
M  V30 1188 H 106.151 -1.1976 2.24788 0
M  V30 1189 H 106.934 -0.0189416 3.43295 0
M  V30 1190 N 109.379 -1.50304 -0.473955 0
M  V30 1191 C 110.329 -1.65347 -1.56985 0
M  V30 1192 C 111.313 -0.508176 -1.52664 0
M  V30 1193 O 112.505 -0.762446 -1.59737 0
M  V30 1194 C 109.634 -1.74832 -2.95447 0
M  V30 1195 C 108.72 -2.95028 -3.04662 0
M  V30 1196 N 109.111 -4.18747 -2.83698 0
M  V30 1197 C 107.409 -2.93527 -3.35795 0
M  V30 1198 C 108.11 -4.99687 -2.97805 0
M  V30 1199 N 107.086 -4.33585 -3.2788 0
M  V30 1200 H 110.888 -2.58698 -1.39472 0
M  V30 1201 H 108.402 -1.47449 -0.680629 0
M  V30 1202 H 110.399 -1.83712 -3.7424 0
M  V30 1203 H 109.059 -0.826376 -3.14008 0
M  V30 1204 H 110.07 -4.48291 -2.59337 0
M  V30 1205 H 106.747 -2.10821 -3.60362 0
M  V30 1206 H 108.137 -6.08057 -2.85861 0
M  V30 1207 N 110.857 0.726932 -1.39834 0
M  V30 1208 C 111.82 1.82269 -1.38962 0
M  V30 1209 C 112.82 1.58248 -0.285334 0
M  V30 1210 O 114.01 1.65499 -0.54366 0
M  V30 1211 C 111.142 3.20186 -1.17019 0
M  V30 1212 H 112.335 1.84443 -2.36476 0
M  V30 1213 H 109.888 0.931416 -1.25516 0
M  V30 1214 H 110.623 3.23669 -0.202204 0
M  V30 1215 H 110.408 3.3902 -1.96998 0
M  V30 1216 H 111.898 4.00235 -1.1917 0
M  V30 1217 N 112.336 1.25143 0.95797 0
M  V30 1218 C 113.246 1.06968 2.08794 0
M  V30 1219 C 114.262 0.00773911 1.73998 0
M  V30 1220 O 115.438 0.207972 2.00323 0
M  V30 1221 C 112.503 0.68691 3.39827 0
M  V30 1222 C 111.564 1.82641 3.88511 0
M  V30 1223 C 110.797 1.46181 5.1329 0
M  V30 1224 O 111.02 0.355971 5.69288 0
M  V30 1225 O 109.954 2.29085 5.566 0
M  V30 1226 H 113.78 2.01723 2.27027 0
M  V30 1227 H 111.365 1.04051 1.07209 0
M  V30 1228 H 113.247 0.485417 4.18595 0
M  V30 1229 H 111.922 -0.231417 3.22872 0
M  V30 1230 H 110.829 2.08274 3.10762 0
M  V30 1231 H 112.162 2.72386 4.09959 0
M  V30 1232 N 113.814 -1.1601 1.06675 0
M  V30 1233 C 115.062 -1.86264 0.784229 0
M  V30 1234 C 115.383 -1.82328 -0.691488 0
M  V30 1235 O 114.653 -1.25947 -1.50047 0
M  V30 1236 H 113.233 -0.689621 0.28711 0
M  V30 1237 H 115.895 -1.40664 1.34906 0
M  V30 1238 H 114.991 -2.91595 1.11259 0
M  V30 1239 N 115.292 -0.849877 -1.32721 0
M  V30 1240 C 116.538 -0.451591 -1.97708 0
M  V30 1241 C 116.871 0.989175 -1.6712 0
M  V30 1242 O 116.146 1.69334 -0.956891 0
M  V30 1243 C 116.429 -0.685598 -3.53513 0
M  V30 1244 C 116.282 -2.17444 -3.93749 0
M  V30 1245 C 117.601 -0.138874 -4.39881 0
M  V30 1246 H 114.72 -0.16555 -0.718166 0
M  V30 1247 H 117.362 -1.06742 -1.57182 0
M  V30 1248 H 115.512 -0.161416 -3.88165 0
M  V30 1249 H 117.184 -2.76433 -3.693 0
M  V30 1250 H 115.427 -2.65476 -3.43081 0
M  V30 1251 H 116.098 -2.28888 -5.02309 0
M  V30 1252 H 118.574 -0.587068 -4.11938 0
M  V30 1253 H 117.45 -0.332213 -5.47894 0
M  V30 1254 H 117.711 0.95806 -4.31594 0
M  V30 1255 N 116.77 1.45427 -0.607355 0
M  V30 1256 C 118.047 1.9557 -0.0344566 0
M  V30 1257 C 118.427 1.54979 1.43334 0
M  V30 1258 O 117.775 0.812241 2.13576 0
M  V30 1259 C 117.985 3.48226 -0.232321 0
M  V30 1260 C 119.333 4.2445 -0.113001 0
M  V30 1261 O 120.357 3.55829 -0.162431 0
M  V30 1262 O 119.216 5.465 0.00209442 0
M  V30 1263 H 116.31 0.826222 0.0358667 0
M  V30 1264 H 118.856 1.55594 -0.6774 0
M  V30 1265 H 117.628 3.70739 -1.25174 0
M  V30 1266 H 117.251 3.95092 0.445896 0
M  V30 1267 N 118.248 0.346503 1.53744 0
M  V30 1268 C 119.158 -0.517293 2.28826 0
M  V30 1269 C 120.174 -1.10935 1.3405 0
M  V30 1270 O 121.35 -1.1244 1.6709 0
M  V30 1271 C 118.415 -1.65098 3.04866 0
M  V30 1272 C 117.476 -1.0884 4.15274 0
M  V30 1273 C 116.709 -2.16806 4.87679 0
M  V30 1274 O 116.932 -3.3758 4.59778 0
M  V30 1275 O 115.866 -1.80934 5.74061 0
M  V30 1276 H 119.692 0.0931396 3.03557 0
M  V30 1277 H 117.277 0.111458 1.48984 0
M  V30 1278 H 119.159 -2.31053 3.5241 0
M  V30 1279 H 117.834 -2.24717 2.32989 0
M  V30 1280 H 116.741 -0.3933 3.72027 0
M  V30 1281 H 118.074 -0.537036 4.89261 0
M  V30 1282 N 119.726 -1.57421 0.075193 0
M  V30 1283 C 120.975 -1.92794 -0.592731 0
M  V30 1284 C 121.288 -0.957478 -1.70563 0
M  V30 1285 O 122.494 -1.20417 -2.43335 0
M  V30 1286 C 120.95 -3.42495 -1.10569 0
M  V30 1287 C 120.558 -4.47994 -0.0236121 0
M  V30 1288 C 122.302 -3.86864 -1.74748 0
M  V30 1289 C 120.209 -5.88829 -0.550803 0
M  V30 1290 H 119.139 -0.719591 -0.225177 0
M  V30 1291 H 121.79 -1.82902 0.147978 0
M  V30 1292 H 120.172 -3.47471 -1.89947 0
M  V30 1293 H 121.346 -4.54637 0.751099 0
M  V30 1294 H 119.661 -4.13113 0.522159 0
M  V30 1295 H 122.258 -4.8947 -2.15229 0
M  V30 1296 H 122.601 -3.24417 -2.60882 0
M  V30 1297 H 123.134 -3.84504 -1.01986 0
M  V30 1298 H 119.873 -6.54929 0.273457 0
M  V30 1299 H 119.393 -5.85698 -1.29296 0
M  V30 1300 H 121.072 -6.38811 -1.02613 0
M  V30 1301 N 121.204 0.198386 -1.56346 0
M  V30 1302 C 122.453 0.917451 -1.79627 0
M  V30 1303 C 122.766 1.8456 -0.64784 0
M  V30 1304 O 123.972 2.60504 -0.764859 0
M  V30 1305 C 122.428 1.68175 -3.18191 0
M  V30 1306 C 122.036 0.798589 -4.40825 0
M  V30 1307 C 123.78 2.39065 -3.50782 0
M  V30 1308 C 121.687 1.56157 -5.70411 0
M  V30 1309 H 120.617 0.346317 -0.669762 0
M  V30 1310 H 123.268 0.170801 -1.82703 0
M  V30 1311 H 121.65 2.47216 -3.09354 0
M  V30 1312 H 122.824 0.0470665 -4.60776 0
M  V30 1313 H 121.139 0.200686 -4.15916 0
M  V30 1314 H 123.736 2.96692 -4.44835 0
M  V30 1315 H 124.079 3.13091 -2.74371 0
M  V30 1316 H 124.612 1.66993 -3.61052 0
M  V30 1317 H 121.351 0.864142 -6.49779 0
M  V30 1318 H 120.871 2.2871 -5.54483 0
M  V30 1319 H 122.55 2.11622 -6.11412 0
M  V30 1320 N 122.682 1.50554 0.465978 0
M  V30 1321 C 123.928 1.62038 1.21949 0
M  V30 1322 C 124.261 0.322116 1.9151 0
M  V30 1323 O 123.536 -0.676723 1.82348 0
M  V30 1324 C 123.819 2.80421 2.25912 0
M  V30 1325 C 123.672 4.20144 1.60622 0
M  V30 1326 C 124.991 2.94354 3.27176 0
M  V30 1327 H 122.11 0.589752 0.441998 0
M  V30 1328 H 124.752 1.82956 0.51257 0
M  V30 1329 H 122.902 2.62717 2.86203 0
M  V30 1330 H 124.574 4.49449 1.03889 0
M  V30 1331 H 122.817 4.24165 0.909211 0
M  V30 1332 H 123.488 4.98914 2.36196 0
M  V30 1333 H 125.964 3.10578 2.76913 0
M  V30 1334 H 124.84 3.788 3.97242 0
M  V30 1335 H 125.101 2.05186 3.916 0
M  V30 1336 N 124.16 -0.719506 1.40217 0
M  V30 1337 C 125.09 -1.8465 1.42922 0
M  V30 1338 C 126.071 -1.67599 0.29062 0
M  V30 1339 O 127.256 -1.87688 0.498677 0
M  V30 1340 C 124.386 -3.22565 1.28722 0
M  V30 1341 C 123.34 -3.54281 2.40144 0
M  V30 1342 C 122.666 -4.91298 2.11023 0
M  V30 1343 C 123.966 -3.55676 3.82481 0
M  V30 1344 H 125.66 -1.82644 2.37237 0
M  V30 1345 H 123.206 -0.877305 1.1419 0
M  V30 1346 H 125.159 -4.01095 1.29232 0
M  V30 1347 H 123.883 -3.25137 0.308811 0
M  V30 1348 H 122.542 -2.78088 2.38877 0
M  V30 1349 H 122.19 -4.90468 1.11582 0
M  V30 1350 H 121.89 -5.13485 2.8567 0
M  V30 1351 H 123.414 -5.72166 2.13209 0
M  V30 1352 H 124.828 -4.24254 3.85592 0
M  V30 1353 H 123.225 -3.89388 4.56614 0
M  V30 1354 H 124.295 -2.55144 4.12346 0
M  V30 1355 N 125.638 -1.25649 -0.95132 0
M  V30 1356 C 126.915 -1.01361 -1.67288 0
M  V30 1357 C 127.295 0.459135 -2.06046 0
M  V30 1358 O 126.643 1.43723 -1.7764 0
M  V30 1359 C 126.853 -1.95256 -2.89268 0
M  V30 1360 C 128.201 -2.23289 -3.61147 0
M  V30 1361 O 129.225 -1.93041 -2.99355 0
M  V30 1362 O 128.084 -2.74741 -4.72419 0
M  V30 1363 H 125.178 -0.38464 -0.732107 0
M  V30 1364 H 127.724 -1.36817 -1.00395 0
M  V30 1365 H 126.496 -2.94685 -2.57442 0
M  V30 1366 H 126.119 -1.60218 -3.6389 0
M  V30 1367 N 127.117 1.15442 -1.07289 0
M  V30 1368 C 128.345 1.90096 -0.81676 0
M  V30 1369 C 128.76 1.7798 0.629966 0
M  V30 1370 O 128.117 1.1313 1.43206 0
M  V30 1371 C 128.168 3.40466 -1.21512 0
M  V30 1372 O 127.889 3.52232 -2.60508 0
M  V30 1373 C 129.39 4.32145 -0.988198 0
M  V30 1374 H 126.61 0.602495 -0.295366 0
M  V30 1375 H 129.154 1.4627 -1.42918 0
M  V30 1376 H 127.309 3.81958 -0.647039 0
M  V30 1377 H 127.723 4.45549 -2.76742 0
M  V30 1378 H 129.197 5.36072 -1.31645 0
M  V30 1379 H 129.674 4.39135 0.0755063 0
M  V30 1380 H 130.28 3.96395 -1.54115 0
M  V30 1381 N 128.595 0.856903 1.32268 0
M  V30 1382 C 129.545 0.274899 2.26337 0
M  V30 1383 C 130.529 -0.580543 1.50062 0
M  V30 1384 O 131.721 -0.429559 1.71708 0
M  V30 1385 C 128.85 -0.533841 3.39124 0
M  V30 1386 C 127.936 0.334114 4.22782 0
M  V30 1387 N 128.327 1.42143 4.85416 0
M  V30 1388 C 126.625 0.124256 4.45827 0
M  V30 1389 C 127.326 1.95559 5.47843 0
M  V30 1390 N 126.302 1.25444 5.28928 0
M  V30 1391 H 130.104 1.10612 2.72291 0
M  V30 1392 H 127.618 0.703258 1.46383 0
M  V30 1393 H 129.615 -0.96722 4.05525 0
M  V30 1394 H 128.275 -1.36283 2.94715 0
M  V30 1395 H 129.286 1.80436 4.85451 0
M  V30 1396 H 125.963 -0.669837 4.12092 0
M  V30 1397 H 127.353 2.86714 6.07655 0
M  V30 1398 N 130.073 -1.45103 0.615059 0
M  V30 1399 C 131.021 -2.32331 -0.111791 0
M  V30 1400 C 132.015 -1.46409 -0.852102 0
M  V30 1401 O 133.221 -1.62849 -0.766821 0
M  V30 1402 H 129.596 -0.749993 -0.0549072 0
M  V30 1403 H 131.567 -2.91407 0.642225 0
M  V30 1404 C 130.316 -3.3015 -1.09071 0
M  V30 1405 H 129.639 -3.96265 -0.530485 0
M  V30 1406 H 131.079 -3.93898 -1.56908 0
M  V30 1407 C 129.538 -2.57875 -2.168 0
M  V30 1408 O 130.068 -2.36567 -3.24652 0
M  V30 1409 N 128.274 -2.17884 -1.92289 0
M  V30 1410 H 127.821 -2.35413 -1.04587 0
M  V30 1411 H 127.779 -1.6985 -2.64572 0
M  V30 1412 N 131.551 -0.354651 -1.53558 0
M  V30 1413 C 132.828 0.294281 -1.93374 0
M  V30 1414 C 133.208 1.67313 -1.28723 0
M  V30 1415 O 132.556 2.24179 -0.442247 0
M  V30 1416 C 132.766 0.355445 -3.47185 0
M  V30 1417 C 134.114 0.601007 -4.20325 0
M  V30 1418 O 135.138 0.437106 -3.53508 0
M  V30 1419 O 133.997 0.919322 -5.38712 0
M  V30 1420 H 131.091 0.174033 -0.808481 0
M  V30 1421 H 133.637 -0.406638 -1.64756 0
M  V30 1422 H 132.409 -0.611729 -3.86489 0
M  V30 1423 H 132.032 1.1027 -3.82003 0
M  V30 1424 N 133.029 1.57378 -0.0835403 0
M  V30 1425 C 133.977 2.14602 0.89714 0
M  V30 1426 C 134.971 1.08589 1.30018 0
M  V30 1427 O 136.177 1.26952 1.27606 0
M  V30 1428 H 132.552 0.686346 0.3073 0
M  V30 1429 H 134.523 2.95845 0.38969 0
M  V30 1430 C 133.272 2.73188 2.15089 0
M  V30 1431 H 132.595 3.54442 1.84962 0
M  V30 1432 H 134.035 3.1681 2.81793 0
M  V30 1433 C 132.494 1.68517 2.91725 0
M  V30 1434 O 133.024 1.11718 3.85852 0
M  V30 1435 N 131.23 1.39277 2.55049 0
M  V30 1436 H 130.777 1.85655 1.78577 0
M  V30 1437 H 130.735 0.694791 3.06627 0
M  V30 1438 N 134.507 -0.190092 1.56449 0
M  V30 1439 C 135.918 -0.754312 1.70784 0
M  V30 1440 C 136.269 -1.83631 0.690951 0
M  V30 1441 O 135.394 -2.15868 -0.151604 0
M  V30 1442 C 135.989 -1.37503 3.09642 0
M  V30 1443 C 134.548 -1.88628 3.25725 0
M  V30 1444 C 133.695 -0.758098 2.66736 0
M  V30 1445 H 136.646 0.0350524 1.58661 0
M  V30 1446 H 136.667 -2.2445 3.0725 0
M  V30 1447 H 136.179 -0.587302 3.83631 0
M  V30 1448 H 134.28 -2.70103 2.56661 0
M  V30 1449 H 134.393 -2.04462 4.3328 0
M  V30 1450 H 132.757 -1.17369 2.26046 0
M  V30 1451 H 133.54 0.0174705 3.43296 0
M  V30 1452 N 135.985 -1.50799 -0.457987 0
M  V30 1453 C 137.396 -1.55152 -1.0385 0
M  V30 1454 C 137.747 -0.362719 -1.92818 0
M  V30 1455 O 136.872 0.522915 -2.09987 0
M  V30 1456 C 137.467 -2.81173 -1.89017 0
M  V30 1457 C 136.026 -2.88164 -2.42154 0
M  V30 1458 C 135.173 -2.49591 -1.20829 0
M  V30 1459 H 138.124 -1.56874 -0.240068 0
M  V30 1460 H 138.145 -2.63769 -2.74238 0
M  V30 1461 H 137.657 -3.67677 -1.24238 0
M  V30 1462 H 135.758 -2.06042 -3.10447 0
M  V30 1463 H 135.871 -3.91356 -2.76364 0
M  V30 1464 H 134.235 -2.02322 -1.54719 0
M  V30 1465 H 135.018 -3.38418 -0.576927 0
M  V30 1466 N 137.463 0.71206 -1.40597 0
M  V30 1467 C 138.74 1.46536 -1.29563 0
M  V30 1468 C 139.12 2.10931 0.0844217 0
M  V30 1469 O 138.468 2.00418 1.0975 0
M  V30 1470 C 138.678 2.49821 -2.43701 0
M  V30 1471 C 140.026 3.15551 -2.841 0
M  V30 1472 O 141.05 2.60142 -2.4332 0
M  V30 1473 O 139.909 4.15867 -3.54566 0
M  V30 1474 H 137.003 0.651801 -0.509004 0
M  V30 1475 H 139.549 0.743935 -1.52524 0
M  V30 1476 H 138.321 2.00778 -3.35863 0
M  V30 1477 H 137.944 3.29495 -2.22528 0
M  V30 1478 N 138.941 1.26152 0.944643 0
M  V30 1479 C 139.889 1.07215 2.06417 0
M  V30 1480 C 140.883 9.2007e-05 1.694 0
M  V30 1481 O 142.089 0.1565 1.79318 0
M  V30 1482 H 138.464 0.329837 0.675805 0
M  V30 1483 H 140.435 2.02099 2.19541 0
M  V30 1484 C 139.184 0.718197 3.40202 0
M  V30 1485 H 138.507 1.53497 3.69159 0
M  V30 1486 H 139.947 0.625459 4.19361 0
M  V30 1487 C 138.406 -0.576435 3.31932 0
M  V30 1488 O 138.936 -1.61574 3.67773 0
M  V30 1489 N 137.142 -0.565781 2.85039 0
M  V30 1490 H 136.689 0.280367 2.5607 0
M  V30 1491 H 136.647 -1.43213 2.79888 0
M  V30 1492 N 140.419 -1.14872 1.07899 0
M  V30 1493 C 141.696 -1.81928 0.71845 0
M  V30 1494 C 142.076 -1.95417 -0.798455 0
M  V30 1495 O 141.424 -1.50997 -1.715 0
M  V30 1496 C 141.634 -3.17937 1.43935 0
M  V30 1497 C 142.982 -3.93501 1.59506 0
M  V30 1498 O 144.006 -3.27509 1.40058 0
M  V30 1499 O 142.865 -5.1183 1.91551 0
M  V30 1500 H 139.959 -0.78628 0.256305 0
M  V30 1501 H 142.505 -1.21934 1.18026 0
M  V30 1502 H 141.277 -3.0325 2.47295 0
M  V30 1503 H 140.9 -3.85619 0.968687 0
M  V30 1504 N 141.898 -0.863906 -1.31812 0
M  V30 1505 C 142.846 -0.30422 -2.30602 0
M  V30 1506 C 143.84 0.577419 -1.59255 0
M  V30 1507 O 145.046 0.464194 -1.73912 0
M  V30 1508 H 141.421 -0.0796877 -0.747766 0
M  V30 1509 H 143.392 -1.15148 -2.75288 0
M  V30 1510 C 142.141 0.484617 -3.44306 0
M  V30 1511 H 141.464 -0.18451 -3.99374 0
M  V30 1512 H 142.904 0.841664 -4.15562 0
M  V30 1513 C 141.363 1.6735 -2.92396 0
M  V30 1514 O 141.893 2.77273 -2.90659 0
M  V30 1515 N 140.099 1.50362 -2.48676 0
M  V30 1516 H 139.646 0.609402 -2.50288 0
M  V30 1517 H 139.604 2.30051 -2.14299 0
M  V30 1518 N 143.376 1.44774 -0.622745 0
M  V30 1519 C 144.622 2.02968 -0.13257 0
M  V30 1520 C 144.977 1.48047 1.22881 0
M  V30 1521 O 144.27 0.651625 1.80179 0
M  V30 1522 C 144.464 3.57364 -0.0508323 0
M  V30 1523 C 144.293 4.27262 -1.40275 0
M  V30 1524 C 143.063 4.64577 -1.98737 0
M  V30 1525 C 145.261 4.58248 -2.3348 0
M  V30 1526 N 143.243 5.19404 -3.27251 0
M  V30 1527 C 144.614 5.14069 -3.46603 0
M  V30 1528 C 146.669 4.40195 -2.32664 0
M  V30 1529 C 145.372 5.53738 -4.59093 0
M  V30 1530 C 147.398 4.80907 -3.44213 0
M  V30 1531 C 146.76 5.36834 -4.56058 0
M  V30 1532 H 142.859 0.776541 -0.0922354 0
M  V30 1533 H 145.443 1.76385 -0.82441 0
M  V30 1534 H 143.614 3.83576 0.610265 0
M  V30 1535 H 145.346 4.02219 0.447397 0
M  V30 1536 H 142.101 4.48622 -1.51774 0
M  V30 1537 H 142.525 5.51301 -3.92933 0
M  V30 1538 H 147.167 3.96257 -1.47446 0
M  V30 1539 H 144.885 5.96635 -5.45025 0
M  V30 1540 H 148.471 4.68659 -3.44747 0
M  V30 1541 H 147.351 5.67755 -5.40947 0
M  V30 1542 N 144.854 0.36279 1.53368 0
M  V30 1543 C 145.804 -0.501391 2.22419 0
M  V30 1544 C 146.788 -1.0509 1.2184 0
M  V30 1545 O 147.98 -0.981404 1.47301 0
M  V30 1546 C 145.109 -1.64201 3.01484 0
M  V30 1547 C 144.195 -1.10552 4.09438 0
M  V30 1548 N 144.586 -0.291788 5.04958 0
M  V30 1549 C 142.884 -1.3806 4.24094 0
M  V30 1550 C 143.585 0.00162655 5.817 0
M  V30 1551 N 142.561 -0.595244 5.40331 0
M  V30 1552 H 146.363 0.127159 2.93625 0
M  V30 1553 H 143.877 0.170658 1.61501 0
M  V30 1554 H 145.874 -2.27326 3.49469 0
M  V30 1555 H 144.534 -2.27365 2.31809 0
M  V30 1556 H 145.545 0.0687731 5.17854 0
M  V30 1557 H 142.222 -2.01522 3.65644 0
M  V30 1558 H 143.612 0.659278 6.68658 0
M  V30 1559 N 146.332 -1.57332 0.0918853 0
M  V30 1560 C 147.56 -1.98574 -0.581048 0
M  V30 1561 C 147.975 -0.970903 -1.61923 0
M  V30 1562 O 147.332 0.0399054 -1.82456 0
M  V30 1563 C 147.383 -3.39872 -1.23164 0
M  V30 1564 O 147.104 -4.37469 -0.234989 0
M  V30 1565 C 148.605 -3.96099 -1.99049 0
M  V30 1566 H 145.825 -0.65261 -0.156018 0
M  V30 1567 H 148.369 -2.0379 0.170225 0
M  V30 1568 H 146.524 -3.35679 -1.93386 0
M  V30 1569 H 146.938 -5.19751 -0.70418 0
M  V30 1570 H 148.412 -4.97127 -2.39934 0
M  V30 1571 H 148.889 -3.3374 -2.85507 0
M  V30 1572 H 149.495 -4.03755 -1.3365 0
M  V30 1573 N 147.81 0.181792 -1.56548 0
M  V30 1574 C 149.087 0.926765 -1.72251 0
M  V30 1575 C 149.467 2.00831 -0.650386 0
M  V30 1576 O 148.815 2.26008 0.336521 0
M  V30 1577 C 149.025 1.50106 -3.1507 0
M  V30 1578 C 150.373 1.97805 -3.75711 0
M  V30 1579 O 151.397 1.59922 -3.18282 0
M  V30 1580 O 150.256 2.67555 -4.76525 0
M  V30 1581 H 147.35 0.435506 -0.703039 0
M  V30 1582 H 149.896 0.170443 -1.68842 0
M  V30 1583 H 148.668 0.72212 -3.84579 0
M  V30 1584 H 148.291 2.32186 -3.22763 0
M  V30 1585 N 149.288 1.51039 0.449983 0
M  V30 1586 C 150.534 1.63322 1.20223 0
M  V30 1587 C 150.867 0.34241 1.91158 0
M  V30 1588 O 150.142 -0.657344 1.83055 0
M  V30 1589 C 150.425 2.82801 2.22925 0
M  V30 1590 C 150.278 4.21823 1.56157 0
M  V30 1591 C 151.597 2.97807 3.24035 0
M  V30 1592 H 148.716 0.594407 0.435718 0
M  V30 1593 H 151.358 1.83489 0.493136 0
M  V30 1594 H 149.508 2.65738 2.834 0
M  V30 1595 H 151.18 4.50526 0.991162 0
M  V30 1596 H 149.423 4.25105 0.864172 0
M  V30 1597 H 150.094 5.01391 2.30891 0
M  V30 1598 H 152.57 3.13497 2.73603 0
M  V30 1599 H 151.446 3.82992 3.93202 0
M  V30 1600 H 151.707 2.09328 3.89402 0
M  V30 1601 N 150.766 -0.704594 1.40972 0
M  V30 1602 C 151.994 -1.49354 1.43182 0
M  V30 1603 C 152.409 -1.88768 0.0345508 0
M  V30 1604 O 151.766 -1.56184 -0.944081 0
M  V30 1605 C 151.817 -2.76187 2.33244 0
M  V30 1606 O 151.538 -2.38436 3.67532 0
M  V30 1607 C 153.039 -3.7 2.44162 0
M  V30 1608 H 150.259 -0.460559 0.487982 0
M  V30 1609 H 152.803 -0.868261 1.85153 0
M  V30 1610 H 150.958 -3.34974 1.94606 0
M  V30 1611 H 151.372 -3.20126 4.15475 0
M  V30 1612 H 152.846 -4.55803 3.11364 0
M  V30 1613 H 153.323 -4.13867 1.47006 0
M  V30 1614 H 153.929 -3.17121 2.83398 0
M  V30 1615 N 152.244 -1.26651 -0.937939 0
M  V30 1616 C 153.491 -1.12387 -1.6845 0
M  V30 1617 C 153.819 0.332208 -1.91642 0
M  V30 1618 O 153.074 1.2602 -1.49725 0
M  V30 1619 C 153.373 -1.84168 -3.06295 0
M  V30 1620 C 153.039 -3.34056 -3.02849 0
M  V30 1621 C 151.701 -3.74942 -3.01616 0
M  V30 1622 C 154.053 -4.29741 -2.9491 0
M  V30 1623 C 151.381 -5.09894 -2.90215 0
M  V30 1624 C 153.733 -5.64738 -2.8505 0
M  V30 1625 C 152.397 -6.0493 -2.82162 0
M  V30 1626 H 151.667 -0.411252 -0.616403 0
M  V30 1627 H 154.314 -1.57134 -1.09459 0
M  V30 1628 H 152.619 -1.319 -3.6893 0
M  V30 1629 H 154.316 -1.70569 -3.62915 0
M  V30 1630 H 150.906 -3.01534 -3.0459 0
M  V30 1631 H 155.09 -3.99133 -2.94969 0
M  V30 1632 H 150.346 -5.40194 -2.86358 0
M  V30 1633 H 154.52 -6.38561 -2.77872 0
M  V30 1634 H 152.147 -7.09457 -2.73084 0
M  V30 1635 N 153.722 1.14298 -1.08507 0
M  V30 1636 C 154.971 1.84708 -0.810305 0
M  V30 1637 C 155.284 1.83903 0.666271 0
M  V30 1638 O 156.49 2.50112 1.05624 0
M  V30 1639 C 154.946 3.31572 -1.39957 0
M  V30 1640 C 154.554 3.40791 -2.90801 0
M  V30 1641 C 156.298 4.07087 -1.20334 0
M  V30 1642 C 154.205 4.81872 -3.4286 0
M  V30 1643 H 153.135 0.691985 -0.299454 0
M  V30 1644 H 155.786 1.28841 -1.30661 0
M  V30 1645 H 154.168 3.87183 -0.830976 0
M  V30 1646 H 155.342 2.95225 -3.53806 0
M  V30 1647 H 153.657 2.78732 -3.0935 0
M  V30 1648 H 156.254 5.11225 -1.56693 0
M  V30 1649 H 156.597 4.16054 -0.143237 0
M  V30 1650 H 157.13 3.57779 -1.73893 0
M  V30 1651 H 153.869 4.78094 -4.48449 0
M  V30 1652 H 153.389 5.27972 -2.84615 0
M  V30 1653 H 155.068 5.50765 -3.39509 0
M  V30 1654 N 155.201 0.870884 1.31352 0
M  V30 1655 C 156.111 0.330783 2.32256 0
M  V30 1656 C 157.127 -0.559767 1.6475 0
M  V30 1657 O 158.303 -0.456263 1.96164 0
M  V30 1658 C 155.368 -0.458137 3.4366 0
M  V30 1659 C 154.429 0.460482 4.26823 0
M  V30 1660 C 153.662 -0.290881 5.32907 0
M  V30 1661 O 153.885 -1.51885 5.49806 0
M  V30 1662 O 152.819 0.351732 6.00871 0
M  V30 1663 H 156.645 1.16718 2.80376 0
M  V30 1664 H 154.23 0.634285 1.35267 0
M  V30 1665 H 156.112 -0.905343 4.1156 0
M  V30 1666 H 154.787 -1.27106 2.97701 0
M  V30 1667 H 153.694 0.956207 3.61673 0
M  V30 1668 H 155.027 1.23903 4.7635 0
M  V30 1669 N 156.679 -1.44442 0.630414 0
M  V30 1670 C 157.907 -2.06414 0.141671 0
M  V30 1671 C 158.322 -1.47105 -1.18345 0
M  V30 1672 O 157.679 -0.593662 -1.72574 0
M  V30 1673 C 157.73 -3.61494 0.0199784 0
M  V30 1674 O 157.451 -4.18594 1.29269 0
M  V30 1675 C 158.952 -4.40499 -0.497544 0
M  V30 1676 H 156.172 -0.666292 0.0793452 0
M  V30 1677 H 158.716 -1.85323 0.864614 0
M  V30 1678 H 156.871 -3.8185 -0.653402 0
M  V30 1679 H 157.285 -5.12026 1.13707 0
M  V30 1680 H 158.759 -5.49433 -0.531708 0
M  V30 1681 H 159.236 -4.11895 -1.52445 0
M  V30 1682 H 159.842 -4.25061 0.142562 0
M  V30 1683 N 158.157 -0.370918 -1.53173 0
M  V30 1684 C 159.568 0.107139 -1.86392 0
M  V30 1685 C 159.919 1.47714 -1.29132 0
M  V30 1686 O 159.044 2.07464 -0.615439 0
M  V30 1687 C 159.639 0.201187 -3.38202 0
M  V30 1688 C 158.198 0.623507 -3.712 0
M  V30 1689 C 157.345 -0.225978 -2.76378 0
M  V30 1690 H 160.296 -0.58951 -1.47345 0
M  V30 1691 H 160.317 1.02377 -3.66468 0
M  V30 1692 H 159.829 -0.796058 -3.79848 0
M  V30 1693 H 157.93 1.62879 -3.35114 0
M  V30 1694 H 158.043 0.394414 -4.77474 0
M  V30 1695 H 156.407 0.305962 -2.52856 0
M  V30 1696 H 157.19 -1.22086 -3.20858 0
M  V30 1697 N 159.635 1.57281 -0.100228 0
M  V30 1698 C 161.046 1.81725 0.428107 0
M  V30 1699 C 161.397 1.01619 1.67833 0
M  V30 1700 O 160.522 0.247098 2.14985 0
M  V30 1701 C 161.117 3.29617 0.78347 0
M  V30 1702 C 159.676 3.54808 1.25653 0
M  V30 1703 C 158.823 2.76118 0.255752 0
M  V30 1704 H 161.774 1.55324 -0.325608 0
M  V30 1705 H 161.795 3.4322 1.64256 0
M  V30 1706 H 161.307 3.87893 -0.12665 0
M  V30 1707 H 159.408 3.01868 2.18418 0
M  V30 1708 H 159.521 4.63443 1.21482 0
M  V30 1709 H 157.885 2.43745 0.738956 0
M  V30 1710 H 158.668 3.37145 -0.647136 0
M  V30 1711 N 161.113 -0.173488 1.56642 0
M  V30 1712 C 162.076 -1.19859 1.95362 0
M  V30 1713 C 163.076 -1.37296 0.83704 0
M  V30 1714 O 164.266 -1.34739 1.10413 0
M  V30 1715 C 161.398 -2.56405 2.24654 0
M  V30 1716 H 162.591 -0.867062 2.87092 0
M  V30 1717 H 160.144 -0.415853 1.50666 0
M  V30 1718 H 160.879 -2.94576 1.35631 0
M  V30 1719 H 160.664 -2.45115 3.06041 0
M  V30 1720 H 162.154 -3.30287 2.5554 0
M  V30 1721 N 162.591 -1.51276 -0.441967 0
M  V30 1722 C 163.839 -1.63392 -1.18943 0
M  V30 1723 C 164.16 -0.350159 -1.9183 0
M  V30 1724 O 163.43 0.633784 -1.85364 0
M  V30 1725 H 162.01 -0.602164 -0.442049 0
M  V30 1726 H 164.672 -1.88186 -0.507165 0
M  V30 1727 H 163.768 -2.45934 -1.92154 0
M  V30 1728 N 164.069 0.697108 -1.41344 0
M  V30 1729 C 165.032 1.79281 -1.42797 0
M  V30 1730 C 166.032 1.57607 -0.318837 0
M  V30 1731 O 167.222 1.64309 -0.578642 0
M  V30 1732 C 164.354 3.17632 -1.23785 0
M  V30 1733 H 165.547 1.79385 -2.40335 0
M  V30 1734 H 163.1 0.904582 -1.27464 0
M  V30 1735 H 163.835 3.23167 -0.270814 0
M  V30 1736 H 163.62 3.34765 -2.04144 0
M  V30 1737 H 165.11 3.97617 -1.27633 0
M  V30 1738 N 165.547 1.27147 0.931209 0
M  V30 1739 C 166.796 1.12664 1.67302 0
M  V30 1740 C 167.109 -0.327718 1.92835 0
M  V30 1741 O 168.315 -0.593392 2.64936 0
M  V30 1742 C 166.771 1.9683 3.01307 0
M  V30 1743 C 166.379 3.46901 2.83485 0
M  V30 1744 C 168.123 1.90985 3.79111 0
M  V30 1745 C 166.03 4.23279 4.13024 0
M  V30 1746 H 164.96 0.41803 0.627509 0
M  V30 1747 H 167.611 1.51539 1.03481 0
M  V30 1748 H 165.993 1.50797 3.66164 0
M  V30 1749 H 167.167 4.00773 2.27415 0
M  V30 1750 H 165.482 3.54088 2.19113 0
M  V30 1751 H 168.079 2.45328 4.75098 0
M  V30 1752 H 168.422 0.882718 4.06834 0
M  V30 1753 H 168.955 2.34895 3.21044 0
M  V30 1754 H 165.694 5.26503 3.90481 0
M  V30 1755 H 165.214 3.74186 4.6877 0
M  V30 1756 H 166.893 4.32265 4.81411 0
M  V30 1757 N 167.025 -1.13721 1.09112 0
M  V30 1758 C 167.955 -2.21148 0.749385 0
M  V30 1759 C 168.936 -1.6792 -0.271475 0
M  V30 1760 O 170.121 -1.93693 -0.140251 0
M  V30 1761 C 167.251 -3.46905 0.165659 0
M  V30 1762 C 166.205 -4.13203 1.11567 0
M  V30 1763 C 165.531 -5.33248 0.393809 0
M  V30 1764 C 166.831 -4.60912 2.45678 0
M  V30 1765 H 168.525 -2.4999 1.64758 0
M  V30 1766 H 166.071 -1.20156 0.793626 0
M  V30 1767 H 168.024 -4.21313 -0.085466 0
M  V30 1768 H 166.748 -3.17449 -0.767714 0
M  V30 1769 H 165.407 -3.40758 1.35202 0
M  V30 1770 H 165.055 -5.00054 -0.543599 0
M  V30 1771 H 164.755 -5.78552 1.02721 0
M  V30 1772 H 166.279 -6.10413 0.150908 0
M  V30 1773 H 167.693 -5.26759 2.26269 0
M  V30 1774 H 166.09 -5.16944 3.04776 0
M  V30 1775 H 167.16 -3.75603 3.06677 0
M  V30 1776 N 168.503 -0.877838 -1.30888 0
M  V30 1777 C 169.466 -0.344265 -2.266 0
M  V30 1778 C 170.466 0.50922 -1.52524 0
M  V30 1779 O 171.656 0.317398 -1.71284 0
M  V30 1780 C 168.788 0.510198 -3.37061 0
M  V30 1781 H 169.981 -1.1893 -2.7531 0
M  V30 1782 H 167.534 -0.654088 -1.41956 0
M  V30 1783 H 168.269 1.37612 -2.93655 0
M  V30 1784 H 168.054 -0.101047 -3.9197 0
M  V30 1785 H 169.544 0.875537 -4.08319 0
M  V30 1786 N 169.982 1.44106 -0.638065 0
M  V30 1787 C 170.945 2.29138 0.0531013 0
M  V30 1788 C 171.945 1.41409 0.765506 0
M  V30 1789 O 173.135 1.63206 0.609046 0
M  V30 1790 C 170.267 3.23144 1.08584 0
M  V30 1791 H 171.46 2.91739 -0.694883 0
M  V30 1792 H 169.013 1.51134 -0.398538 0
M  V30 1793 H 169.748 2.65408 1.86357 0
M  V30 1794 H 169.533 3.87804 0.578852 0
M  V30 1795 H 171.023 3.87004 1.56899 0
M  V30 1796 N 171.46 0.379036 1.52974 0
M  V30 1797 C 172.407 -0.461048 2.26148 0
M  V30 1798 C 173.377 -1.06637 1.27349 0
M  V30 1799 O 174.562 -1.09633 1.56157 0
M  V30 1800 C 171.702 -1.58782 3.06402 0
M  V30 1801 C 170.815 -1.00636 4.20115 0
M  V30 1802 C 169.95 -2.10334 4.87784 0
M  V30 1803 C 168.989 -1.49724 5.93506 0
M  V30 1804 N 168.126 -2.5331 6.54812 0
M  V30 1805 H 172.966 0.169429 2.97518 0
M  V30 1806 H 170.503 0.0953806 1.4679 0
M  V30 1807 H 172.461 -2.25174 3.51215 0
M  V30 1808 H 171.091 -2.18876 2.37261 0
M  V30 1809 H 170.143 -0.232332 3.7969 0
M  V30 1810 H 171.455 -0.523343 4.96047 0
M  V30 1811 H 170.609 -2.84519 5.35849 0
M  V30 1812 H 169.348 -2.61992 4.11353 0
M  V30 1813 H 168.353 -0.740598 5.44789 0
M  V30 1814 H 169.578 -0.988732 6.71864 0
M  V30 1815 H 167.524 -3.04156 5.81227 0
M  V30 1816 H 167.441 -2.09734 7.26325 0
M  V30 1817 H 168.709 -3.27155 7.07524 0
M  V30 1818 N 172.938 -1.57226 0.108567 0
M  V30 1819 C 173.848 -2.18292 -0.859401 0
M  V30 1820 C 174.864 -1.15612 -1.30038 0
M  V30 1821 O 176.04 -1.48039 -1.36552 0
M  V30 1822 C 173.105 -2.762 -2.09558 0
M  V30 1823 C 172.166 -3.93881 -1.70752 0
M  V30 1824 C 171.399 -4.49018 -2.88477 0
M  V30 1825 O 171.622 -4.03068 -4.036 0
M  V30 1826 O 170.556 -5.39852 -2.66164 0
M  V30 1827 H 174.382 -3.01441 -0.369769 0
M  V30 1828 H 171.967 -1.48945 -0.1165 0
M  V30 1829 H 173.849 -3.13156 -2.81978 0
M  V30 1830 H 172.524 -1.96089 -2.57548 0
M  V30 1831 H 171.431 -3.61713 -0.954714 0
M  V30 1832 H 172.764 -4.75396 -1.27513 0
M  V30 1833 N 174.416 0.165178 -1.56732 0
M  V30 1834 C 175.346 1.20651 -1.99914 0
M  V30 1835 C 176.327 1.45827 -0.875705 0
M  V30 1836 O 177.512 1.57057 -1.14223 0
M  V30 1837 C 174.642 2.54401 -2.36427 0
M  V30 1838 C 173.596 2.43782 -3.51787 0
M  V30 1839 C 172.922 3.82078 -3.7406 0
M  V30 1840 C 174.222 1.93732 -4.85041 0
M  V30 1841 H 175.916 0.847534 -2.87154 0
M  V30 1842 H 173.462 0.40625 -1.38151 0
M  V30 1843 H 175.415 3.27458 -2.65234 0
M  V30 1844 H 174.139 2.92098 -1.46103 0
M  V30 1845 H 172.798 1.73178 -3.23117 0
M  V30 1846 H 172.446 4.17179 -2.81017 0
M  V30 1847 H 172.146 3.7584 -4.51684 0
M  V30 1848 H 173.67 4.56712 -4.05274 0
M  V30 1849 H 175.084 2.56569 -5.12684 0
M  V30 1850 H 173.481 1.98428 -5.66345 0
M  V30 1851 H 174.551 0.891962 -4.76626 0
M  V30 1852 N 175.894 1.51508 0.433938 0
M  V30 1853 C 177.305 1.56784 1.01369 0
M  V30 1854 C 177.656 0.393349 1.92217 0
M  V30 1855 O 176.781 -0.489441 2.10792 0
M  V30 1856 C 177.376 2.84144 1.8452 0
M  V30 1857 C 175.935 2.9198 2.37539 0
M  V30 1858 C 175.082 2.51482 1.16843 0
M  V30 1859 H 178.033 1.57236 0.215081 0
M  V30 1860 H 178.054 2.68098 2.70007 0
M  V30 1861 H 177.566 3.69607 1.18373 0
M  V30 1862 H 175.667 2.10955 3.0713 0
M  V30 1863 H 175.78 3.95704 2.70103 0
M  V30 1864 H 174.144 2.04758 1.51481 0
M  V30 1865 H 174.927 3.39293 0.523015 0
M  V30 1866 N 177.372 -0.689602 1.41712 0
M  V30 1867 C 178.597 -1.48329 1.44959 0
M  V30 1868 C 179.022 -1.8801 0.0581283 0
M  V30 1869 O 178.38 -1.55026 -0.940035 0
M  V30 1870 C 178.428 -2.71835 2.36935 0
M  V30 1871 O 177.532 -3.69549 1.8305 0
M  V30 1872 H 176.873 -0.446199 0.491734 0
M  V30 1873 H 179.403 -0.847127 1.86239 0
M  V30 1874 H 179.413 -3.20076 2.53013 0
M  V30 1875 H 178.088 -2.42291 3.38035 0
M  V30 1876 H 176.665 -3.2851 1.76452 0
M  V30 1877 N 178.85 -1.27639 -0.924453 0
M  V30 1878 C 180.078 -1.16989 -1.70649 0
M  V30 1879 C 180.493 0.272869 -1.86818 0
M  V30 1880 O 179.85 1.18549 -1.38753 0
M  V30 1881 C 179.901 -1.85229 -3.10439 0
M  V30 1882 O 179.622 -3.23868 -2.95028 0
M  V30 1883 C 181.123 -1.80746 -4.04779 0
M  V30 1884 H 178.343 -0.406595 -0.53378 0
M  V30 1885 H 180.887 -1.68569 -1.15778 0
M  V30 1886 H 179.042 -1.37545 -3.6216 0
M  V30 1887 H 179.456 -3.57889 -3.83426 0
M  V30 1888 H 180.93 -2.33101 -5.00368 0
M  V30 1889 H 181.407 -0.777499 -4.32263 0
M  V30 1890 H 182.013 -2.28059 -3.58984 0
M  V30 1891 N 180.328 1.1314 -1.09713 0
M  V30 1892 C 181.576 1.84119 -0.833338 0
M  V30 1893 C 181.897 1.84097 0.642904 0
M  V30 1894 O 181.167 1.29881 1.46655 0
M  V30 1895 H 179.747 0.681766 -0.305293 0
M  V30 1896 H 182.409 1.37038 -1.38588 0
M  V30 1897 H 181.505 2.88543 -1.18951 0
M  V30 1898 N 181.806 0.884767 1.30421 0
M  V30 1899 C 183.054 0.502112 1.95763 0
M  V30 1900 C 183.375 -0.951815 1.70192 0
M  V30 1901 O 182.645 -1.6692 1.0254 0
M  V30 1902 H 181.225 0.182694 0.724315 0
M  V30 1903 H 183.887 1.1278 1.58955 0
M  V30 1904 H 182.983 0.672188 3.04775 0
M  V30 1905 N 183.284 -1.43765 0.645699 0
M  V30 1906 C 184.561 -1.9541 0.0862963 0
M  V30 1907 C 184.941 -1.58725 -1.39175 0
M  V30 1908 O 184.289 -0.868581 -2.11348 0
M  V30 1909 C 184.499 -3.47488 0.324565 0
M  V30 1910 C 185.847 -4.24001 0.225497 0
M  V30 1911 O 186.871 -3.55274 0.256715 0
M  V30 1912 O 185.73 -5.46313 0.142801 0
M  V30 1913 H 182.824 -0.826882 -0.0139483 0
M  V30 1914 H 185.37 -1.53743 0.718415 0
M  V30 1915 H 184.142 -3.67289 1.3496 0
M  V30 1916 H 183.765 -3.96135 -0.340987 0
M  V30 1917 N 184.763 -0.387143 -1.52771 0
M  V30 1918 C 185.991 0.195869 -2.05971 0
M  V30 1919 C 186.406 1.40691 -1.25903 0
M  V30 1920 O 185.763 1.79931 -0.305134 0
M  V30 1921 C 185.814 0.56812 -3.57008 0
M  V30 1922 O 185.535 -0.594803 -4.34043 0
M  V30 1923 C 187.036 1.20723 -4.26545 0
M  V30 1924 H 184.256 0.0300578 -0.670326 0
M  V30 1925 H 186.8 -0.551749 -1.96916 0
M  V30 1926 H 184.955 1.26564 -3.66143 0
M  V30 1927 H 185.369 -0.289322 -5.23701 0
M  V30 1928 H 186.843 1.41807 -5.33474 0
M  V30 1929 H 187.32 2.17395 -3.81623 0
M  V30 1930 H 187.926 0.550535 -4.21722 0
M  V30 1931 N 186.241 1.57166 -0.116904 0
M  V30 1932 C 187.171 2.18222 0.830759 0
M  V30 1933 C 188.152 1.12167 1.27877 0
M  V30 1934 O 189.337 1.40394 1.34176 0
M  V30 1935 C 186.467 2.77996 2.08172 0
M  V30 1936 C 185.421 3.89614 1.77157 0
M  V30 1937 C 184.747 4.36187 3.09265 0
M  V30 1938 C 186.047 5.1181 1.04151 0
M  V30 1939 H 187.741 2.97664 0.321992 0
M  V30 1940 H 185.287 1.4318 0.153434 0
M  V30 1941 H 187.24 3.19366 2.74924 0
M  V30 1942 H 185.964 1.9584 2.6137 0
M  V30 1943 H 184.623 3.48816 1.12796 0
M  V30 1944 H 184.271 3.50893 3.60393 0
M  V30 1945 H 183.971 5.11455 2.89288 0
M  V30 1946 H 185.495 4.80207 3.77139 0
M  V30 1947 H 186.909 5.50214 1.61052 0
M  V30 1948 H 185.306 5.92648 0.942762 0
M  V30 1949 H 186.376 4.84892 0.0279022 0
M  V30 1950 N 187.719 -0.156864 1.56817 0
M  V30 1951 C 188.965 -0.867645 1.83966 0
M  V30 1952 C 189.32 -1.79233 0.699511 0
M  V30 1953 O 188.613 -1.89186 -0.303176 0
M  V30 1954 C 188.807 -1.68737 3.1506 0
M  V30 1955 C 188.636 -0.843548 4.41718 0
M  V30 1956 C 187.406 -0.512994 5.02689 0
M  V30 1957 C 189.604 -0.178416 5.1399 0
M  V30 1958 N 187.586 0.345456 6.12927 0
M  V30 1959 C 188.957 0.540586 6.17639 0
M  V30 1960 C 191.012 -0.0980696 4.97803 0
M  V30 1961 C 189.715 1.33233 7.06853 0
M  V30 1962 C 191.741 0.680387 5.87473 0
M  V30 1963 C 191.103 1.3877 6.90596 0
M  V30 1964 H 187.202 -0.295642 0.723961 0
M  V30 1965 H 189.786 -0.13365 1.94241 0
M  V30 1966 H 187.957 -2.39268 3.0595 0
M  V30 1967 H 189.689 -2.34056 3.30151 0
M  V30 1968 H 186.444 -0.846476 4.65974 0
M  V30 1969 H 186.868 0.765415 6.72659 0
M  V30 1970 H 191.51 -0.630562 4.18071 0
M  V30 1971 H 189.228 1.87612 7.8602 0
M  V30 1972 H 192.814 0.744415 5.77018 0
M  V30 1973 H 191.694 1.9804 7.58782 0
M  V30 1974 N 189.197 -1.51736 -0.425897 0
M  V30 1975 C 190.425 -1.68794 -1.1965 0
M  V30 1976 C 190.84 -0.390164 -1.84725 0
M  V30 1977 O 190.197 0.632376 -1.71194 0
M  V30 1978 C 190.248 -2.81174 -2.27208 0
M  V30 1979 O 189.969 -4.05925 -1.64793 0
M  V30 1980 C 191.47 -3.09599 -3.17275 0
M  V30 1981 H 188.69 -0.566128 -0.360194 0
M  V30 1982 H 191.234 -1.98211 -0.503249 0
M  V30 1983 H 189.389 -2.54324 -2.9223 0
M  V30 1984 H 189.803 -4.68423 -2.35967 0
M  V30 1985 H 191.277 -3.91786 -3.88854 0
M  V30 1986 H 191.754 -2.22468 -3.78688 0
M  V30 1987 H 192.36 -3.38151 -2.57941 0
M  V30 1988 N 190.675 0.682077 -1.42076 0
M  V30 1989 C 191.9 1.47558 -1.45744 0
M  V30 1990 C 192.325 1.87977 -0.0680981 0
M  V30 1991 O 191.683 1.55522 0.9318 0
M  V30 1992 C 191.731 2.70575 -2.38373 0
M  V30 1993 O 190.835 3.68573 -1.85007 0
M  V30 1994 H 190.176 0.443585 -0.494093 0
M  V30 1995 H 192.706 0.837238 -1.86686 0
M  V30 1996 H 192.716 3.18729 -2.54707 0
M  V30 1997 H 191.391 2.40495 -3.39315 0
M  V30 1998 H 189.968 3.2757 -1.78192 0
M  V30 1999 N 192.153 1.28127 0.917671 0
M  V30 2000 C 193.401 1.14825 1.66312 0
M  V30 2001 C 193.722 -0.304379 1.9261 0
M  V30 2002 O 192.992 -1.21149 1.53947 0
M  V30 2003 H 191.572 0.421953 0.616413 0
M  V30 2004 H 194.234 1.608 1.10134 0
M  V30 2005 H 193.33 1.68489 2.62712 0
M  V30 2006 N 193.631 -1.12557 1.10312 0
M  V30 2007 C 194.88 -1.83395 0.839588 0
M  V30 2008 C 195.193 -1.84939 -0.636929 0
M  V30 2009 O 196.399 -2.51761 -1.01631 0
M  V30 2010 C 194.855 -3.29303 1.45215 0
M  V30 2011 C 194.463 -3.36122 2.96186 0
M  V30 2012 C 196.207 -4.05121 1.26796 0
M  V30 2013 C 194.114 -4.76357 3.50483 0
M  V30 2014 H 193.044 -0.687133 0.310425 0
M  V30 2015 H 195.695 -1.26746 1.32694 0
M  V30 2016 H 194.077 -3.85812 0.892469 0
M  V30 2017 H 195.251 -2.89559 3.58458 0
M  V30 2018 H 193.566 -2.73776 3.13745 0
M  V30 2019 H 196.163 -5.08668 1.64806 0
M  V30 2020 H 196.506 -4.15773 0.209409 0
M  V30 2021 H 197.039 -3.54967 1.79563 0
M  V30 2022 H 193.778 -4.70899 4.55998 0
M  V30 2023 H 193.298 -5.23377 2.92978 0
M  V30 2024 H 194.977 -5.45294 3.48228 0
M  V30 2025 N 195.109 -0.891671 -1.2995 0
M  V30 2026 C 196.072 -0.36828 -2.26222 0
M  V30 2027 C 197.072 0.493014 -1.53056 0
M  V30 2028 O 198.262 0.299213 -1.71611 0
M  V30 2029 C 195.394 0.47442 -3.37583 0
M  V30 2030 H 196.587 -1.21844 -2.74033 0
M  V30 2031 H 194.14 -0.669107 -1.41254 0
M  V30 2032 H 194.875 1.34489 -2.95099 0
M  V30 2033 H 194.66 -0.142615 -3.91841 0
M  V30 2034 H 196.15 0.83218 -4.09224 0
M  V30 2035 N 196.587 1.43421 -0.653314 0
M  V30 2036 C 197.55 2.29182 0.0287951 0
M  V30 2037 C 198.55 1.42213 0.750465 0
M  V30 2038 O 199.74 1.63843 0.591701 0
M  V30 2039 C 196.872 3.24278 1.05151 0
M  V30 2040 H 198.065 2.90985 -0.725786 0
M  V30 2041 H 195.618 1.50702 -0.414545 0
M  V30 2042 H 196.353 2.6737 1.83532 0
M  V30 2043 H 196.138 3.88396 0.537687 0
M  V30 2044 H 197.628 3.88647 1.52786 0
M  V30 2045 N 198.065 0.39524 1.52563 0
M  V30 2046 C 199.295 -0.184675 2.05773 0
M  V30 2047 C 199.703 -1.40571 1.26635 0
M  V30 2048 O 199.046 -1.81105 0.30769 0
M  V30 2049 C 199.108 -0.613551 3.54226 0
M  V30 2050 C 198.772 0.49484 4.54313 0
M  V30 2051 C 199.769 1.3541 5.01956 0
M  V30 2052 C 197.454 0.663565 4.97898 0
M  V30 2053 C 199.448 2.36716 5.91814 0
M  V30 2054 C 197.135 1.67996 5.87555 0
M  V30 2055 C 198.133 2.53017 6.34406 0
M  V30 2056 O 197.821 3.52917 7.22291 0
M  V30 2057 H 197.553 -0.030077 0.675331 0
M  V30 2058 H 200.107 0.560708 1.97599 0
M  V30 2059 H 198.337 -1.411 3.60038 0
M  V30 2060 H 200.026 -1.11981 3.90148 0
M  V30 2061 H 200.792 1.23509 4.6901 0
M  V30 2062 H 196.671 0.0114913 4.60999 0
M  V30 2063 H 200.215 3.03113 6.28306 0
M  V30 2064 H 196.112 1.79933 6.19915 0
M  V30 2065 H 196.88 3.48996 7.40367 0
M  V30 2066 N 199.544 -1.57102 0.125237 0
M  V30 2067 C 200.454 -2.19191 -0.8362 0
M  V30 2068 C 201.47 -1.16985 -1.28805 0
M  V30 2069 O 202.646 -1.49479 -1.34974 0
M  V30 2070 C 199.711 -2.78407 -2.06617 0
M  V30 2071 C 198.772 -3.9567 -1.66565 0
M  V30 2072 C 198.005 -4.52052 -2.83698 0
M  V30 2073 O 198.228 -4.07326 -3.99302 0
M  V30 2074 O 197.162 -5.42645 -2.60423 0
M  V30 2075 H 200.988 -3.01816 -0.337776 0
M  V30 2076 H 198.573 -1.4906 -0.100695 0
M  V30 2077 H 200.455 -3.16129 -2.7864 0
M  V30 2078 H 199.13 -1.9881 -2.55453 0
M  V30 2079 H 198.037 -3.62705 -0.916296 0
M  V30 2080 H 199.37 -4.76722 -1.22464 0
M  V30 2081 N 201.022 0.148545 -1.56898 0
M  V30 2082 C 201.985 1.16736 -1.97244 0
M  V30 2083 C 202.985 1.35947 -0.858777 0
M  V30 2084 O 204.175 1.32966 -1.12542 0
M  V30 2085 C 201.307 2.52798 -2.28705 0
M  V30 2086 H 202.5 0.821279 -2.88435 0
M  V30 2087 H 200.053 0.391831 -1.51309 0
M  V30 2088 H 200.788 2.92381 -1.403 0
M  V30 2089 H 200.573 2.40216 -3.09901 0
M  V30 2090 H 202.063 3.26179 -2.60762 0
M  V30 2091 N 202.5 1.5196 0.417844 0
M  V30 2092 C 203.43 1.77634 1.51554 0
M  V30 2093 C 204.411 0.626918 1.58126 0
M  V30 2094 O 205.596 0.871632 1.7354 0
M  V30 2095 C 202.726 1.91911 2.8946 0
M  V30 2096 C 201.68 3.07463 2.97743 0
M  V30 2097 C 201.006 3.06951 4.37819 0
M  V30 2098 C 202.306 4.47082 2.70027 0
M  V30 2099 H 204 2.6955 1.3032 0
M  V30 2100 H 201.546 1.29706 0.625492 0
M  V30 2101 H 203.499 2.08455 3.6623 0
M  V30 2102 H 202.223 0.966598 3.11969 0
M  V30 2103 H 200.882 2.90656 2.23416 0
M  V30 2104 H 200.53 2.09438 4.57323 0
M  V30 2105 H 200.23 3.84556 4.44286 0
M  V30 2106 H 201.754 3.25613 5.16535 0
M  V30 2107 H 203.168 4.6414 3.36522 0
M  V30 2108 H 201.565 5.2654 2.87881 0
M  V30 2109 H 202.635 4.55777 1.65514 0
M  V30 2110 N 203.978 -0.674533 1.42435 0
M  V30 2111 C 205.203 -1.46784 1.46524 0
M  V30 2112 C 205.628 -1.87938 0.078066 0
M  V30 2113 O 204.986 -1.56014 -0.92354 0
M  V30 2114 C 205.034 -2.69307 2.39805 0
M  V30 2115 O 204.138 -3.67587 1.86959 0
M  V30 2116 H 203.479 -0.440959 0.496439 0
M  V30 2117 H 206.009 -0.827326 1.87127 0
M  V30 2118 H 206.019 -3.17374 2.56393 0
M  V30 2119 H 204.694 -2.38692 3.40586 0
M  V30 2120 H 203.271 -3.2662 1.79927 0
M  V30 2121 N 205.456 -1.28612 -0.910864 0
M  V30 2122 C 206.702 -1.16106 -1.66274 0
M  V30 2123 C 207.035 0.289113 -1.92036 0
M  V30 2124 O 206.31 1.21 -1.52281 0
M  V30 2125 C 206.593 -1.96309 -3.01885 0
M  V30 2126 C 206.446 -3.49405 -2.8326 0
M  V30 2127 C 207.765 -1.78076 -4.02463 0
M  V30 2128 H 204.884 -0.423152 -0.603417 0
M  V30 2129 H 207.526 -1.57961 -1.05586 0
M  V30 2130 H 205.676 -1.60742 -3.53687 0
M  V30 2131 H 207.348 -3.94894 -2.38446 0
M  V30 2132 H 205.591 -3.74893 -2.18261 0
M  V30 2133 H 206.262 -4.00784 -3.79574 0
M  V30 2134 H 208.738 -2.0912 -3.59733 0
M  V30 2135 H 207.614 -2.36561 -4.95308 0
M  V30 2136 H 207.875 -0.733008 -4.35981 0
M  V30 2137 N 206.934 1.1197 -1.10907 0
M  V30 2138 C 208.345 1.65114 -0.871446 0
M  V30 2139 C 208.696 1.86885 0.597353 0
M  V30 2140 O 207.821 1.59896 1.45816 0
M  V30 2141 C 208.416 2.99944 -1.5754 0
M  V30 2142 C 206.975 3.50018 -1.38435 0
M  V30 2143 C 206.122 2.24941 -1.62164 0
M  V30 2144 H 209.073 0.956851 -1.2661 0
M  V30 2145 H 209.094 3.66651 -1.01721 0
M  V30 2146 H 208.606 2.84067 -2.64438 0
M  V30 2147 H 206.707 3.71071 -0.337214 0
M  V30 2148 H 206.82 4.29165 -2.12965 0
M  V30 2149 H 205.184 2.3229 -1.04467 0
M  V30 2150 H 205.967 2.11612 -2.70324 0
M  V30 2151 N 208.412 0.89855 1.29475 0
M  V30 2152 C 209.659 0.523882 1.95606 0
M  V30 2153 C 209.987 -0.929608 1.70847 0
M  V30 2154 O 209.242 -1.67401 1.01367 0
M  V30 2155 C 209.541 0.761398 3.49195 0
M  V30 2156 C 209.207 2.19207 3.94029 0
M  V30 2157 C 207.869 2.58326 4.05982 0
M  V30 2158 C 210.221 3.12379 4.17216 0
M  V30 2159 C 207.549 3.898 4.38489 0
M  V30 2160 C 209.901 4.43401 4.51197 0
M  V30 2161 C 208.565 4.82394 4.61359 0
M  V30 2162 H 207.835 0.191702 0.715773 0
M  V30 2163 H 210.482 1.13699 1.54094 0
M  V30 2164 H 208.787 0.0653622 3.91745 0
M  V30 2165 H 210.484 0.450904 3.98457 0
M  V30 2166 H 207.074 1.87846 3.85242 0
M  V30 2167 H 211.258 2.83371 4.07449 0
M  V30 2168 H 206.514 4.19734 4.44559 0
M  V30 2169 H 210.688 5.15623 4.68087 0
M  V30 2170 H 208.315 5.84306 4.86303 0
M  V30 2171 N 209.89 -1.43072 0.660911 0
M  V30 2172 C 211.306 -1.56169 0.329173 0
M  V30 2173 C 211.506 -1.64317 -1.16629 0
M  V30 2174 O 210.562 -1.60245 -1.95135 0
M  V30 2175 C 211.875 -2.81873 1.04729 0
M  V30 2176 C 213.423 -2.95627 1.02828 0
M  V30 2177 C 213.898 -4.24174 1.72744 0
M  V30 2178 N 215.389 -4.31055 1.69545 0
M  V30 2179 C 216.124 -5.29304 2.20511 0
M  V30 2180 N 215.62 -6.33786 2.79799 0
M  V30 2181 N 217.413 -5.21008 2.10966 0
M  V30 2182 H 209.564 -1.36027 1.63127 0
M  V30 2183 H 211.827 -0.653823 0.686454 0
M  V30 2184 H 211.533 -2.81942 2.10242 0
M  V30 2185 H 211.407 -3.72338 0.603702 0
M  V30 2186 H 213.794 -2.95094 -0.0184742 0
M  V30 2187 H 213.875 -2.06431 1.51063 0
M  V30 2188 H 213.519 -4.25467 2.7738 0
M  V30 2189 H 213.449 -5.1228 1.2197 0
M  V30 2190 H 215.94 -3.56174 1.26288 0
M  V30 2191 H 216.253 -7.05086 3.16344 0
M  V30 2192 H 214.598 -6.34387 2.83863 0
M  V30 2193 H 217.789 -4.38301 1.64347 0
M  V30 2194 H 217.962 -5.97416 2.50993 0
M  V30 2195 N 211.368 -0.403325 -1.52352 0
M  V30 2196 C 212.3 0.4603 -2.2453 0
M  V30 2197 C 213.313 1.01505 -1.27282 0
M  V30 2198 O 214.502 0.914982 -1.53266 0
M  V30 2199 C 211.602 1.65208 -2.95905 0
M  V30 2200 C 210.775 1.22224 -4.19976 0
M  V30 2201 C 209.834 2.28028 -4.74226 0
M  V30 2202 O 208.86 1.88857 -5.36956 0
M  V30 2203 N 210.062 3.6012 -4.55295 0
M  V30 2204 H 212.827 -0.158156 -2.99282 0
M  V30 2205 H 210.388 -0.230402 -1.60252 0
M  V30 2206 H 212.38 2.35541 -3.29093 0
M  V30 2207 H 210.95 2.17658 -2.24374 0
M  V30 2208 H 210.17 0.34725 -3.92668 0
M  V30 2209 H 211.458 0.911924 -5.00561 0
M  V30 2210 H 210.856 3.94698 -4.05253 0
M  V30 2211 H 209.413 4.26447 -4.92936 0
M  V30 2212 N 212.846 1.57033 -0.133567 0
M  V30 2213 C 213.776 2.1909 0.807567 0
M  V30 2214 C 214.757 1.13517 1.26681 0
M  V30 2215 O 215.942 1.41809 1.32679 0
M  V30 2216 C 213.072 2.80188 2.05212 0
M  V30 2217 C 212.026 3.91471 1.73015 0
M  V30 2218 C 211.352 4.39443 3.04622 0
M  V30 2219 C 212.652 5.12886 0.987168 0
M  V30 2220 H 214.346 2.97988 0.290403 0
M  V30 2221 H 211.892 1.43335 0.138239 0
M  V30 2222 H 213.845 3.22264 2.71521 0
M  V30 2223 H 212.569 1.98601 2.59278 0
M  V30 2224 H 211.228 3.49993 1.0909 0
M  V30 2225 H 210.876 3.54695 3.56651 0
M  V30 2226 H 210.576 5.14495 2.83847 0
M  V30 2227 H 212.1 4.8418 3.72024 0
M  V30 2228 H 213.514 5.51891 1.55208 0
M  V30 2229 H 211.911 5.93615 0.87985 0
M  V30 2230 H 212.981 4.84894 -0.0235286 0
M  V30 2231 N 214.325 -0.140222 1.56975 0
M  V30 2232 C 215.255 -1.17456 2.01808 0
M  V30 2233 C 216.236 -1.44415 0.898794 0
M  V30 2234 O 217.421 -1.5522 1.16707 0
M  V30 2235 C 214.551 -2.50607 2.40444 0
M  V30 2236 C 213.505 -2.38155 3.55621 0
M  V30 2237 C 212.831 -3.76078 3.80091 0
M  V30 2238 C 214.131 -1.85991 4.88062 0
M  V30 2239 H 215.825 -0.801743 2.88466 0
M  V30 2240 H 213.371 -0.38422 1.38779 0
M  V30 2241 H 215.324 -3.23197 2.7041 0
M  V30 2242 H 214.048 -2.89737 1.50732 0
M  V30 2243 H 212.707 -1.68016 3.25832 0
M  V30 2244 H 212.355 -4.12656 2.87618 0
M  V30 2245 H 212.055 -3.68606 4.57606 0
M  V30 2246 H 213.579 -4.50206 4.12488 0
M  V30 2247 H 214.993 -2.4838 5.16701 0
M  V30 2248 H 213.39 -1.89393 5.6943 0
M  V30 2249 H 214.46 -0.816023 4.77984 0
M  V30 2250 N 215.803 -1.52179 -0.40978 0
M  V30 2251 C 217.028 -1.70347 -1.18308 0
M  V30 2252 C 217.453 -0.411887 -1.83535 0
M  V30 2253 O 216.811 0.630587 -1.6998 0
M  V30 2254 C 216.859 -2.83977 -2.22238 0
M  V30 2255 O 215.963 -2.495 -3.28365 0
M  V30 2256 H 215.304 -0.567103 -0.345384 0
M  V30 2257 H 217.834 -1.98879 -0.480445 0
M  V30 2258 H 217.844 -3.0887 -2.66577 0
M  V30 2259 H 216.519 -3.77685 -1.74146 0
M  V30 2260 H 215.096 -2.35277 -2.89308 0
M  V30 2261 N 217.281 0.66697 -1.42791 0
M  V30 2262 C 218.529 1.42417 -1.43394 0
M  V30 2263 C 218.85 1.94925 -0.0542373 0
M  V30 2264 O 218.12 1.73564 0.908415 0
M  V30 2265 H 216.7 0.528515 -0.527902 0
M  V30 2266 H 219.362 0.787562 -1.78279 0
M  V30 2267 H 218.458 2.27333 -2.13837 0
M  V30 2268 N 218.759 1.29093 0.90403 0
M  V30 2269 C 219.689 1.16401 2.02418 0
M  V30 2270 C 220.67 0.0593085 1.69997 0
M  V30 2271 O 221.855 0.238021 1.92736 0
M  V30 2272 C 218.985 0.835233 3.37107 0
M  V30 2273 C 217.939 1.89578 3.83724 0
M  V30 2274 C 217.265 1.42041 5.15489 0
M  V30 2275 C 218.565 3.30394 4.04521 0
M  V30 2276 H 220.259 2.10109 2.13295 0
M  V30 2277 H 217.805 1.01157 1.02486 0
M  V30 2278 H 219.758 0.733169 4.14973 0
M  V30 2279 H 218.482 -0.137543 3.2631 0
M  V30 2280 H 217.141 1.98715 3.08071 0
M  V30 2281 H 216.789 0.436426 5.01103 0
M  V30 2282 H 216.489 2.12964 5.4765 0
M  V30 2283 H 218.013 1.33176 5.959 0
M  V30 2284 H 219.427 3.24123 4.72882 0
M  V30 2285 H 217.824 3.99237 4.48029 0
M  V30 2286 H 218.894 3.73692 3.09002 0
M  V30 2287 N 220.237 -1.11381 1.11499 0
M  V30 2288 C 221.653 -1.35143 0.849031 0
M  V30 2289 C 221.853 -1.94515 -0.525938 0
M  V30 2290 O 220.909 -2.1785 -1.27662 0
M  V30 2291 C 222.222 -2.28249 1.95762 0
M  V30 2292 C 223.77 -2.41812 1.98736 0
M  V30 2293 C 224.245 -3.3824 3.088 0
M  V30 2294 N 225.736 -3.45803 3.08179 0
M  V30 2295 C 226.471 -4.20358 3.89982 0
M  V30 2296 N 225.967 -4.97884 4.8175 0
M  V30 2297 N 227.76 -4.15877 3.78157 0
M  V30 2298 H 219.911 -0.712062 2.00109 0
M  V30 2299 H 222.174 -0.376025 0.870235 0
M  V30 2300 H 221.88 -1.91817 2.94787 0
M  V30 2301 H 221.754 -3.28473 1.85433 0
M  V30 2302 H 224.141 -2.77518 1.00338 0
M  V30 2303 H 224.222 -1.41437 2.13141 0
M  V30 2304 H 223.866 -3.03261 4.07425 0
M  V30 2305 H 223.796 -4.38471 2.91635 0
M  V30 2306 H 226.287 -2.90506 2.41691 0
M  V30 2307 H 226.6 -5.52142 5.40702 0
M  V30 2308 H 224.945 -4.97043 4.85771 0
M  V30 2309 H 228.136 -3.544 3.05808 0
M  V30 2310 H 228.309 -4.73723 4.42143 0
M  V30 2311 N 221.715 -0.905404 -1.28997 0
M  V30 2312 C 222.678 -0.392253 -2.25819 0
M  V30 2313 C 223.678 0.476753 -1.5357 0
M  V30 2314 O 224.868 0.280994 -1.71919 0
M  V30 2315 C 222 0.438588 -3.38067 0
M  V30 2316 H 223.193 -1.24743 -2.72725 0
M  V30 2317 H 220.746 -0.684051 -1.40536 0
M  V30 2318 H 221.481 1.31352 -2.96508 0
M  V30 2319 H 221.266 -0.184167 -3.91667 0
M  V30 2320 H 222.756 0.78873 -4.10084 0
M  V30 2321 N 223.193 1.4272 -0.668489 0
M  V30 2322 C 224.103 2.34596 0.0139753 0
M  V30 2323 C 225.119 1.5474 0.795703 0
M  V30 2324 O 226.295 1.87334 0.739466 0
M  V30 2325 C 223.36 3.33202 0.957982 0
M  V30 2326 C 222.421 4.28957 0.17149 0
M  V30 2327 C 221.654 5.22853 1.07053 0
M  V30 2328 O 221.877 5.21531 2.31001 0
M  V30 2329 O 220.811 5.9952 0.534727 0
M  V30 2330 H 224.637 2.9448 -0.742661 0
M  V30 2331 H 222.222 1.43117 -0.428705 0
M  V30 2332 H 224.104 3.93796 1.50008 0
M  V30 2333 H 222.779 2.758 1.69458 0
M  V30 2334 H 221.686 3.71796 -0.414558 0
M  V30 2335 H 223.019 4.89383 -0.52586 0
M  V30 2336 N 224.671 0.411399 1.52136 0
M  V30 2337 C 225.621 -0.430376 2.23901 0
M  V30 2338 C 226.605 -1.0116 1.25121 0
M  V30 2339 O 227.797 -0.934044 1.50348 0
M  V30 2340 C 224.926 -1.54527 3.06556 0
M  V30 2341 C 224.012 -0.9747 4.12747 0
M  V30 2342 N 224.403 -0.130991 5.0563 0
M  V30 2343 C 222.701 -1.24497 4.28271 0
M  V30 2344 C 223.402 0.186689 5.814 0
M  V30 2345 N 222.378 -0.42304 5.41951 0
M  V30 2346 H 226.18 0.220509 2.93072 0
M  V30 2347 H 223.694 0.221952 1.60876 0
M  V30 2348 H 225.691 -2.16093 3.56524 0
M  V30 2349 H 224.351 -2.19875 2.38925 0
M  V30 2350 H 225.362 0.23349 5.17373 0
M  V30 2351 H 222.039 -1.89787 3.7187 0
M  V30 2352 H 223.429 0.871673 6.66222 0
M  V30 2353 N 226.149 -1.5696 0.141893 0
M  V30 2354 C 227.426 -1.87553 -0.555281 0
M  V30 2355 C 227.806 -1.04699 -1.83306 0
M  V30 2356 O 227.154 -0.132346 -2.28116 0
M  V30 2357 C 227.364 -3.39093 -0.825664 0
M  V30 2358 C 228.712 -4.08199 -1.16869 0
M  V30 2359 O 229.736 -3.44242 -0.915185 0
M  V30 2360 O 228.595 -5.21139 -1.6455 0
M  V30 2361 H 225.689 -0.777188 -0.282679 0
M  V30 2362 H 228.235 -1.68763 0.17812 0
M  V30 2363 H 227.007 -3.91221 0.0788633 0
M  V30 2364 H 226.63 -3.63393 -1.61343 0
M  V30 2365 N 227.627 0.131896 -1.57047 0
M  V30 2366 C 228.874 0.841932 -1.84168 0
M  V30 2367 C 229.202 1.8048 -0.725066 0
M  V30 2368 O 228.457 1.93618 0.284692 0
M  V30 2369 C 228.756 1.63703 -3.17704 0
M  V30 2370 C 228.422 0.81961 -4.43388 0
M  V30 2371 C 227.084 0.594148 -4.77518 0
M  V30 2372 C 229.436 0.248977 -5.20605 0
M  V30 2373 C 226.764 -0.212409 -5.86315 0
M  V30 2374 C 229.116 -0.544701 -6.30251 0
M  V30 2375 C 227.78 -0.780599 -6.6292 0
M  V30 2376 H 227.05 0.308085 -0.673917 0
M  V30 2377 H 229.697 0.104867 -1.91213 0
M  V30 2378 H 228.002 2.44464 -3.06177 0
M  V30 2379 H 229.699 2.19015 -3.35907 0
M  V30 2380 H 226.289 1.00542 -4.16641 0
M  V30 2381 H 230.473 0.410408 -4.946 0
M  V30 2382 H 225.729 -0.404524 -6.1006 0
M  V30 2383 H 229.903 -0.993922 -6.89271 0
M  V30 2384 H 227.53 -1.40742 -7.47058 0
M  V30 2385 N 229.106 1.52395 0.401703 0
M  V30 2386 C 230.522 1.41363 0.740864 0
M  V30 2387 C 230.722 0.523982 1.94568 0
M  V30 2388 O 229.778 -0.00741204 2.52499 0
M  V30 2389 C 231.091 2.84011 0.987847 0
M  V30 2390 C 232.639 2.93404 1.09011 0
M  V30 2391 C 233.114 4.37036 1.3698 0
M  V30 2392 N 234.605 4.40304 1.43829 0
M  V30 2393 C 235.34 5.48508 1.67112 0
M  V30 2394 N 234.836 6.66819 1.87949 0
M  V30 2395 N 236.629 5.36034 1.69187 0
M  V30 2396 H 228.78 2.08765 -0.391262 0
M  V30 2397 H 231.043 0.941265 -0.112798 0
M  V30 2398 H 230.749 3.51265 0.174835 0
M  V30 2399 H 230.623 3.25502 1.906 0
M  V30 2400 H 233.01 2.26325 1.8937 0
M  V30 2401 H 233.091 2.55359 0.15015 0
M  V30 2402 H 232.735 5.04676 0.571353 0
M  V30 2403 H 232.665 4.72623 2.3224 0
M  V30 2404 H 235.156 3.55024 1.29486 0
M  V30 2405 H 235.469 7.45063 2.05185 0
M  V30 2406 H 233.814 6.6987 1.85199 0
M  V30 2407 H 237.005 4.42579 1.52451 0
M  V30 2408 H 237.178 6.20434 1.86993 0
M  V30 2409 N 230.584 -0.659388 1.43143 0
M  V30 2410 C 231.531 -1.77249 1.47822 0
M  V30 2411 C 232.501 -1.62818 0.328558 0
M  V30 2412 O 233.686 -1.83151 0.534838 0
M  V30 2413 C 230.826 -3.15371 1.40126 0
M  V30 2414 C 229.939 -3.4098 2.65249 0
M  V30 2415 C 229.074 -4.68915 2.49584 0
M  V30 2416 C 228.113 -4.87608 3.70006 0
M  V30 2417 N 227.25 -6.06796 3.53189 0
M  V30 2418 H 232.09 -1.72584 2.42938 0
M  V30 2419 H 229.627 -0.842297 1.20598 0
M  V30 2420 H 231.585 -3.9521 1.33659 0
M  V30 2421 H 230.215 -3.19121 0.485964 0
M  V30 2422 H 229.267 -2.55282 2.8202 0
M  V30 2423 H 230.579 -3.50681 3.54717 0
M  V30 2424 H 229.733 -5.56871 2.4079 0
M  V30 2425 H 228.472 -4.61524 1.5763 0
M  V30 2426 H 227.477 -3.9809 3.79215 0
M  V30 2427 H 228.702 -4.96834 4.62961 0
M  V30 2428 H 226.648 -6.00549 2.63965 0
M  V30 2429 H 226.565 -6.17428 4.36255 0
M  V30 2430 H 227.833 -6.9739 3.48236 0
M  V30 2431 N 232.062 -1.29571 -0.897171 0
M  V30 2432 C 233.287 -1.20705 -1.68656 0
M  V30 2433 C 233.712 0.228582 -1.86706 0
M  V30 2434 O 233.07 1.16494 -1.3892 0
M  V30 2435 C 233.118 -1.9282 -3.04717 0
M  V30 2436 O 232.222 -1.24697 -3.93096 0
M  V30 2437 H 231.563 -0.418126 -0.515816 0
M  V30 2438 H 234.093 -1.71183 -1.12061 0
M  V30 2439 H 234.103 -2.01372 -3.54843 0
M  V30 2440 H 232.778 -2.97239 -2.90899 0
M  V30 2441 H 231.355 -1.2442 -3.51531 0
M  V30 2442 N 233.54 1.10788 -1.12088 0
M  V30 2443 C 234.787 1.82671 -0.873931 0
M  V30 2444 C 235.115 1.85004 0.600311 0
M  V30 2445 O 234.37 1.30365 1.45957 0
M  V30 2446 C 234.669 3.29294 -1.38926 0
M  V30 2447 C 234.335 3.47113 -2.87791 0
M  V30 2448 C 232.997 3.51684 -3.28439 0
M  V30 2449 C 235.349 3.52808 -3.83635 0
M  V30 2450 C 232.677 3.59513 -4.63646 0
M  V30 2451 C 235.029 3.62169 -5.18668 0
M  V30 2452 C 233.693 3.65003 -5.58864 0
M  V30 2453 H 232.963 0.668441 -0.319794 0
M  V30 2454 H 235.61 1.30613 -1.40045 0
M  V30 2455 H 233.915 3.83894 -0.783122 0
M  V30 2456 H 235.612 3.83416 -1.17443 0
M  V30 2457 H 232.202 3.4423 -2.5535 0
M  V30 2458 H 236.386 3.4853 -3.53328 0
M  V30 2459 H 231.642 3.59987 -4.94185 0
M  V30 2460 H 235.816 3.6552 -5.92763 0
M  V30 2461 H 233.443 3.70822 -6.63623 0
M  V30 2462 N 235.018 0.912232 1.28515 0
M  V30 2463 C 236.429 0.591352 1.77087 0
M  V30 2464 C 236.78 -0.8933 1.74684 0
M  V30 2465 O 235.905 -1.69876 1.34056 0
M  V30 2466 C 236.5 1.06668 3.2157 0
M  V30 2467 C 235.059 0.79675 3.67871 0
M  V30 2468 C 234.206 1.23427 2.48316 0
M  V30 2469 H 237.157 1.09365 1.15 0
M  V30 2470 H 237.178 0.407455 3.78312 0
M  V30 2471 H 236.69 2.14726 3.23287 0
M  V30 2472 H 234.791 -0.270679 3.71616 0
M  V30 2473 H 234.904 1.40343 4.58084 0
M  V30 2474 H 233.268 0.653036 2.46186 0
M  V30 2475 H 234.051 2.32316 2.52753 0
M  V30 2476 N 236.496 -1.42363 0.676048 0
M  V30 2477 C 237.406 -2.346 -0.00153389 0
M  V30 2478 C 238.422 -1.5516 -0.787485 0
M  V30 2479 O 239.598 -1.87723 -0.729521 0
M  V30 2480 C 236.663 -3.33705 -0.940298 0
M  V30 2481 C 235.724 -4.29042 -0.148739 0
M  V30 2482 C 234.957 -5.23413 -1.04279 0
M  V30 2483 O 235.18 -5.22749 -2.28232 0
M  V30 2484 O 234.114 -5.99795 -0.502925 0
M  V30 2485 H 237.94 -2.94082 0.758268 0
M  V30 2486 H 235.525 -1.42888 0.436289 0
M  V30 2487 H 237.407 -3.94586 -1.47917 0
M  V30 2488 H 236.082 -2.76695 -1.67993 0
M  V30 2489 H 234.989 -3.71571 0.43427 0
M  V30 2490 H 236.322 -4.89097 0.551805 0
M  V30 2491 N 237.974 -0.419461 -1.51915 0
M  V30 2492 C 239.204 0.151915 -2.06041 0
M  V30 2493 C 239.612 1.38539 -1.28855 0
M  V30 2494 O 238.955 1.80592 -0.336463 0
M  V30 2495 C 239.017 0.557119 -3.55157 0
M  V30 2496 C 238.681 -0.567054 -4.53468 0
M  V30 2497 C 239.678 -1.43379 -4.99738 0
M  V30 2498 C 237.363 -0.742693 -4.96779 0
M  V30 2499 C 239.357 -2.46102 -5.87973 0
M  V30 2500 C 237.044 -1.77322 -5.84808 0
M  V30 2501 C 238.042 -2.63078 -6.30301 0
M  V30 2502 O 237.73 -3.64364 -7.16585 0
M  V30 2503 H 237.462 0.0193293 -0.675724 0
M  V30 2504 H 240.016 -0.592073 -1.96682 0
M  V30 2505 H 238.246 1.35355 -3.62238 0
M  V30 2506 H 239.935 1.05759 -3.9188 0
M  V30 2507 H 240.701 -1.30954 -4.66986 0
M  V30 2508 H 236.58 -0.0848307 -4.60922 0
M  V30 2509 H 240.124 -3.13071 -6.23404 0
M  V30 2510 H 236.021 -1.89773 -6.16974 0
M  V30 2511 H 236.789 -3.60731 -7.34721 0
M  V30 2512 N 239.452 1.56882 -0.150215 0
M  V30 2513 C 240.399 2.16922 0.788244 0
M  V30 2514 C 241.369 1.10303 1.24187 0
M  V30 2515 O 242.554 1.38359 1.31383 0
M  V30 2516 C 239.694 2.79754 2.02068 0
M  V30 2517 C 238.807 4.00775 1.61257 0
M  V30 2518 C 237.942 4.51595 2.79705 0
M  V30 2519 C 236.981 5.65074 2.35282 0
M  V30 2520 N 236.118 6.10499 3.4675 0
M  V30 2521 H 240.958 2.96779 0.269444 0
M  V30 2522 H 238.495 1.46599 0.12128 0
M  V30 2523 H 240.453 3.14329 2.74323 0
M  V30 2524 H 239.083 2.02536 2.51354 0
M  V30 2525 H 238.135 3.72158 0.787553 0
M  V30 2526 H 239.447 4.82978 1.24633 0
M  V30 2527 H 238.601 4.88242 3.60145 0
M  V30 2528 H 237.34 3.68406 3.19576 0
M  V30 2529 H 236.345 5.28 1.53283 0
M  V30 2530 H 237.57 6.50052 1.96493 0
M  V30 2531 H 235.516 5.30243 3.86236 0
M  V30 2532 H 235.433 6.87637 3.14152 0
M  V30 2533 H 236.701 6.51791 4.27537 0
M  V30 2534 N 240.93 -0.123565 1.57115 0
M  V30 2535 C 242.16 -0.845233 1.88519 0
M  V30 2536 C 242.568 -1.74168 0.739064 0
M  V30 2537 O 241.911 -1.81244 -0.299355 0
M  V30 2538 C 241.973 -1.73452 3.14888 0
M  V30 2539 C 241.637 -1.01285 4.45635 0
M  V30 2540 C 242.634 -0.355774 5.18681 0
M  V30 2541 C 240.319 -0.99538 4.92339 0
M  V30 2542 C 242.313 0.309114 6.3665 0
M  V30 2543 C 240 -0.32669 6.10226 0
M  V30 2544 C 240.998 0.324406 6.82229 0
M  V30 2545 O 240.686 0.982437 7.97874 0
M  V30 2546 H 240.418 -0.248534 0.628655 0
M  V30 2547 H 242.972 -0.113907 2.05084 0
M  V30 2548 H 241.202 -2.50737 2.94394 0
M  V30 2549 H 242.891 -2.33021 3.32349 0
M  V30 2550 H 243.657 -0.360918 4.83655 0
M  V30 2551 H 239.536 -1.49159 4.36202 0
M  V30 2552 H 243.08 0.8179 6.92789 0
M  V30 2553 H 238.977 -0.319294 6.4471 0
M  V30 2554 H 239.745 0.886454 8.13686 0
M  V30 2555 N 242.408 -1.52605 -0.393616 0
M  V30 2556 C 243.824 -1.41753 -0.733357 0
M  V30 2557 C 244.024 -0.534293 -1.94287 0
M  V30 2558 O 243.08 -0.0059787 -2.52499 0
M  V30 2559 C 244.393 -2.84531 -0.972772 0
M  V30 2560 C 245.941 -2.93978 -1.07453 0
M  V30 2561 C 246.416 -4.37756 -1.3466 0
M  V30 2562 N 247.907 -4.4106 -1.41492 0
M  V30 2563 C 248.642 -5.49387 -1.642 0
M  V30 2564 N 248.138 -6.67806 -1.8441 0
M  V30 2565 N 249.931 -5.36923 -1.66342 0
M  V30 2566 H 242.082 -2.08555 0.402328 0
M  V30 2567 H 244.345 -0.940654 0.117789 0
M  V30 2568 H 244.051 -3.51353 -0.156204 0
M  V30 2569 H 243.925 -3.26508 -1.88871 0
M  V30 2570 H 246.312 -2.27326 -1.88167 0
M  V30 2571 H 246.393 -2.55435 -0.136605 0
M  V30 2572 H 246.037 -5.04972 -0.544581 0
M  V30 2573 H 245.967 -4.73848 -2.2973 0
M  V30 2574 H 248.458 -3.55705 -1.27601 0
M  V30 2575 H 248.771 -7.46141 -2.01231 0
M  V30 2576 H 247.116 -6.70843 -1.81644 0
M  V30 2577 H 250.307 -4.43381 -1.50102 0
M  V30 2578 H 250.48 -6.21416 -1.837 0
M  V30 2579 N 243.887 0.651787 -1.4349 0
M  V30 2580 C 244.834 1.76462 -1.4876 0
M  V30 2581 C 245.804 1.62641 -0.337189 0
M  V30 2582 O 246.989 1.82864 -0.544544 0
M  V30 2583 C 244.129 3.14623 -1.41796 0
M  V30 2584 C 243.242 3.39568 -2.67053 0
M  V30 2585 C 242.377 4.67585 -2.52068 0
M  V30 2586 C 241.416 4.85639 -3.72587 0
M  V30 2587 N 240.553 6.04915 -3.56402 0
M  V30 2588 H 245.393 1.71293 -2.43849 0
M  V30 2589 H 242.93 0.835889 -1.21043 0
M  V30 2590 H 244.888 3.94496 -1.35753 0
M  V30 2591 H 243.518 3.18859 -0.50288 0
M  V30 2592 H 242.57 2.53783 -2.8337 0
M  V30 2593 H 243.882 3.48795 -3.56572 0
M  V30 2594 H 243.036 5.55586 -2.4374 0
M  V30 2595 H 241.775 4.60681 -1.60075 0
M  V30 2596 H 240.78 3.96073 -3.81321 0
M  V30 2597 H 242.005 4.94372 -4.65589 0
M  V30 2598 H 239.951 5.9914 -2.67146 0
M  V30 2599 H 239.868 6.15106 -4.39524 0
M  V30 2600 H 241.136 6.95533 -3.51929 0
M  V30 2601 N 245.365 1.30045 0.890287 0
M  V30 2602 C 246.593 1.21472 1.67487 0
M  V30 2603 C 247.008 -0.223241 1.87476 0
M  V30 2604 O 246.365 -1.14828 1.41847 0
M  V30 2605 C 246.416 1.93394 3.05419 0
M  V30 2606 O 246.137 3.31576 2.86337 0
M  V30 2607 C 247.638 1.91414 3.99844 0
M  V30 2608 H 244.858 0.420604 0.522813 0
M  V30 2609 H 247.402 1.7158 1.11268 0
M  V30 2610 H 245.557 1.47099 3.58386 0
M  V30 2611 H 245.971 3.67929 3.73802 0
M  V30 2612 H 247.445 2.46285 4.94012 0
M  V30 2613 H 247.922 0.891833 4.3005 0
M  V30 2614 H 248.528 2.37496 3.52811 0
M  V30 2615 N 246.843 -1.10192 1.12674 0
M  V30 2616 C 247.753 -2.20172 0.810026 0
M  V30 2617 C 248.769 -1.72821 -0.202188 0
M  V30 2618 O 249.945 -2.01369 -0.0351691 0
M  V30 2619 C 247.01 -3.45631 0.272007 0
M  V30 2620 C 246.071 -4.07704 1.34447 0
M  V30 2621 C 245.304 -5.27175 0.832029 0
M  V30 2622 O 245.527 -5.69425 -0.333284 0
M  V30 2623 O 244.461 -5.80168 1.60277 0
M  V30 2624 H 248.287 -2.49701 1.72867 0
M  V30 2625 H 245.872 -1.18977 0.903597 0
M  V30 2626 H 247.754 -4.21394 -0.0230219 0
M  V30 2627 H 246.429 -3.17723 -0.619164 0
M  V30 2628 H 245.336 -3.33614 1.6927 0
M  V30 2629 H 246.669 -4.3982 2.2095 0
M  V30 2630 N 248.321 -0.919034 -1.28029 0
M  V30 2631 C 249.231 -0.416756 -2.30869 0
M  V30 2632 C 250.247 0.498235 -1.66714 0
M  V30 2633 O 251.423 0.383144 -1.97722 0
M  V30 2634 C 248.488 0.330274 -3.45123 0
M  V30 2635 C 247.549 -0.618578 -4.2482 0
M  V30 2636 C 246.782 0.0928959 -5.33619 0
M  V30 2637 O 247.005 1.31375 -5.55065 0
M  V30 2638 O 245.939 -0.574499 -5.99152 0
M  V30 2639 H 249.765 -1.27043 -2.75851 0
M  V30 2640 H 247.35 -0.684052 -1.3282 0
M  V30 2641 H 249.232 0.751972 -4.14636 0
M  V30 2642 H 247.907 1.1597 -3.02213 0
M  V30 2643 H 246.814 -1.08978 -3.57875 0
M  V30 2644 H 248.147 -1.41497 -4.71423 0
M  V30 2645 N 249.799 1.42003 -0.683588 0
M  V30 2646 C 250.709 2.34597 -0.0109075 0
M  V30 2647 C 251.725 1.55576 0.779245 0
M  V30 2648 O 252.901 1.88107 0.719555 0
M  V30 2649 C 249.966 3.34199 0.922588 0
M  V30 2650 C 249.027 4.29115 0.125984 0
M  V30 2651 C 248.26 5.23959 1.01502 0
M  V30 2652 O 248.483 5.23952 2.25456 0
M  V30 2653 O 247.417 6.00053 0.47111 0
M  V30 2654 H 251.243 2.93675 -0.773853 0
M  V30 2655 H 248.828 1.42654 -0.443861 0
M  V30 2656 H 250.71 3.95365 1.45823 0
M  V30 2657 H 249.385 2.77582 1.66523 0
M  V30 2658 H 248.292 3.71335 -0.453969 0
M  V30 2659 H 249.625 4.88798 -0.577736 0
M  V30 2660 N 251.277 0.427512 1.51691 0
M  V30 2661 C 252.227 -0.406604 2.24345 0
M  V30 2662 C 253.211 -0.998276 1.26187 0
M  V30 2663 O 254.403 -0.918045 1.51331 0
M  V30 2664 C 251.532 -1.51266 3.08177 0
M  V30 2665 C 250.618 -0.930868 4.13758 0
M  V30 2666 N 251.009 -0.0773552 5.05741 0
M  V30 2667 C 249.307 -1.19948 4.29568 0
M  V30 2668 C 250.008 0.248344 5.8117 0
M  V30 2669 N 248.984 -0.365535 5.4237 0
M  V30 2670 H 252.786 0.251581 2.92821 0
M  V30 2671 H 250.3 0.239003 1.60632 0
M  V30 2672 H 252.297 -2.123 3.58796 0
M  V30 2673 H 250.957 -2.17328 2.41244 0
M  V30 2674 H 251.968 0.288351 5.17097 0
M  V30 2675 H 248.645 -1.85832 3.73862 0
M  V30 2676 H 250.035 0.942286 6.6526 0
M  V30 2677 N 252.755 -1.56801 0.158532 0
M  V30 2678 C 253.687 -2.14488 -0.807923 0
M  V30 2679 C 254.7 -1.09721 -1.20271 0
M  V30 2680 O 255.889 -1.36956 -1.14478 0
M  V30 2681 C 252.989 -2.66217 -2.09718 0
M  V30 2682 C 252.162 -3.95507 -1.86796 0
M  V30 2683 C 251.221 -4.3243 -2.99818 0
M  V30 2684 O 250.247 -5.00543 -2.71008 0
M  V30 2685 N 251.449 -3.92947 -4.27285 0
M  V30 2686 H 254.214 -2.98042 -0.314816 0
M  V30 2687 H 251.775 -1.61881 -0.0246692 0
M  V30 2688 H 253.767 -2.87924 -2.84398 0
M  V30 2689 H 252.337 -1.87324 -2.50257 0
M  V30 2690 H 251.557 -3.82309 -0.96089 0
M  V30 2691 H 252.845 -4.79972 -1.68833 0
M  V30 2692 H 252.243 -3.38087 -4.53557 0
M  V30 2693 H 250.8 -4.19681 -4.9871 0
M  V30 2694 N 254.233 0.115231 -1.57178 0
M  V30 2695 C 255.649 0.468877 -1.52557 0
M  V30 2696 C 255.849 1.81649 -0.872125 0
M  V30 2697 O 254.905 2.48347 -0.45606 0
M  V30 2698 C 256.218 0.4499 -2.97315 0
M  V30 2699 C 257.766 0.533185 -3.08425 0
M  V30 2700 C 258.241 0.54456 -4.54751 0
M  V30 2701 N 259.732 0.605892 -4.5922 0
M  V30 2702 C 260.467 0.636203 -5.6986 0
M  V30 2703 N 259.963 0.623931 -6.89985 0
M  V30 2704 N 261.756 0.679496 -5.57978 0
M  V30 2705 H 253.907 -0.767712 -1.9804 0
M  V30 2706 H 256.17 -0.283609 -0.904583 0
M  V30 2707 H 255.876 -0.472721 -3.48509 0
M  V30 2708 H 255.75 1.27632 -3.5495 0
M  V30 2709 H 258.137 1.44623 -2.57232 0
M  V30 2710 H 258.218 -0.320995 -2.53778 0
M  V30 2711 H 257.862 -0.364452 -5.06591 0
M  V30 2712 H 257.792 1.41568 -5.07214 0
M  V30 2713 H 260.283 0.621386 -3.72756 0
M  V30 2714 H 260.596 0.649787 -7.70063 0
M  V30 2715 H 258.941 0.591296 -6.9248 0
M  V30 2716 H 262.132 0.686472 -4.63039 0
M  V30 2717 H 262.305 0.69965 -6.44212 0
M  V30 2718 N 255.711 1.52812 0.385517 0
M  V30 2719 C 256.957 1.69225 1.12847 0
M  V30 2720 C 257.312 0.42864 1.87564 0
M  V30 2721 O 256.605 -0.57779 1.8268 0
M  V30 2722 C 256.799 2.86856 2.13187 0
M  V30 2723 C 256.628 4.24535 1.48325 0
M  V30 2724 C 255.398 4.89701 1.24585 0
M  V30 2725 C 257.596 5.05794 0.931501 0
M  V30 2726 N 255.578 6.11353 0.558644 0
M  V30 2727 C 256.949 6.1888 0.372552 0
M  V30 2728 C 259.004 4.90963 0.828248 0
M  V30 2729 C 257.707 7.18757 -0.279556 0
M  V30 2730 C 259.733 5.91095 0.189956 0
M  V30 2731 C 259.095 7.03489 -0.358207 0
M  V30 2732 H 255.194 0.67268 0.39878 0
M  V30 2733 H 257.778 1.9017 0.417528 0
M  V30 2734 H 255.949 2.67484 2.81614 0
M  V30 2735 H 257.681 2.92188 2.80014 0
M  V30 2736 H 254.436 4.48485 1.52178 0
M  V30 2737 H 254.86 6.76606 0.230983 0
M  V30 2738 H 259.502 4.04274 1.23784 0
M  V30 2739 H 257.22 8.05052 -0.701152 0
M  V30 2740 H 260.806 5.81694 0.111264 0
M  V30 2741 H 259.686 7.79642 -0.844314 0
M  V30 2742 N 257.189 -0.644168 1.43834 0
M  V30 2743 C 258.605 -0.960875 1.27434 0
M  V30 2744 C 258.805 -2.00499 0.200618 0
M  V30 2745 O 257.861 -2.49018 -0.417906 0
M  V30 2746 C 259.174 -1.43653 2.64167 0
M  V30 2747 C 260.722 -1.55271 2.71772 0
M  V30 2748 C 261.197 -2.06224 4.08944 0
M  V30 2749 N 262.688 -2.13513 4.11055 0
M  V30 2750 C 263.423 -2.54081 5.14033 0
M  V30 2751 N 262.919 -2.9388 6.27381 0
M  V30 2752 N 264.712 -2.54101 5.01387 0
M  V30 2753 H 256.863 0.0465779 2.12349 0
M  V30 2754 H 259.126 -0.0417638 0.94708 0
M  V30 2755 H 258.832 -0.743706 3.43747 0
M  V30 2756 H 258.706 -2.40993 2.90176 0
M  V30 2757 H 261.093 -2.23653 1.92519 0
M  V30 2758 H 261.174 -0.563395 2.49519 0
M  V30 2759 H 260.818 -1.38441 4.88668 0
M  V30 2760 H 260.748 -3.06003 4.28567 0
M  V30 2761 H 263.239 -1.85493 3.29242 0
M  V30 2762 H 263.552 -3.2361 7.01781 0
M  V30 2763 H 261.897 -2.91663 6.30839 0
M  V30 2764 H 265.088 -2.22391 4.11898 0
M  V30 2765 H 265.261 -2.85394 5.81768 0
M  V30 2766 N 258.668 -1.30515 -0.883378 0
M  V30 2767 C 259.578 -1.18959 -2.02203 0
M  V30 2768 C 260.594 -0.109172 -1.73657 0
M  V30 2769 O 261.77 -0.324413 -1.9877 0
M  V30 2770 C 258.835 -0.883871 -3.35244 0
M  V30 2771 C 257.896 -2.04982 -3.77201 0
M  V30 2772 C 257.129 -1.75859 -5.03894 0
M  V30 2773 O 257.352 -0.687276 -5.66244 0
M  V30 2774 O 256.286 -2.61146 -5.42297 0
M  V30 2775 H 260.112 -2.14616 -2.1488 0
M  V30 2776 H 257.697 -1.10124 -1.0096 0
M  V30 2777 H 259.579 -0.728644 -4.15053 0
M  V30 2778 H 258.254 0.0427798 -3.23672 0
M  V30 2779 H 257.161 -2.26038 -2.9809 0
M  V30 2780 H 258.494 -2.95825 -3.93381 0
M  V30 2781 N 260.146 1.09593 -1.13257 0
M  V30 2782 C 261.109 2.14359 -0.811358 0
M  V30 2783 C 262.109 1.59808 0.178377 0
M  V30 2784 O 263.299 1.74132 -0.0484911 0
M  V30 2785 C 260.431 3.40269 -0.207276 0
M  V30 2786 H 261.624 2.44284 -1.73969 0
M  V30 2787 H 259.177 1.25102 -0.936973 0
M  V30 2788 H 259.912 3.15969 0.73036 0
M  V30 2789 H 259.697 3.81154 -0.919992 0
M  V30 2790 H 261.187 4.176 0.000667944 0
M  V30 2791 N 261.624 0.925811 1.2754 0
M  V30 2792 C 262.87 0.566092 1.94739 0
M  V30 2793 C 263.203 -0.890057 1.72603 0
M  V30 2794 O 262.478 -1.63467 1.05399 0
M  V30 2795 C 262.761 0.89054 3.48915 0
M  V30 2796 C 262.614 2.4003 3.80402 0
M  V30 2797 C 263.933 0.395101 4.38323 0
M  V30 2798 H 261.052 0.20714 0.707292 0
M  V30 2799 H 263.694 1.15725 1.50691 0
M  V30 2800 H 261.844 0.387452 3.86563 0
M  V30 2801 H 263.516 2.97494 3.52555 0
M  V30 2802 H 261.759 2.85028 3.2702 0
M  V30 2803 H 262.43 2.57785 4.8811 0
M  V30 2804 H 264.906 0.826241 4.07814 0
M  V30 2805 H 263.782 0.651086 5.45025 0
M  V30 2806 H 264.043 -0.704798 4.36446 0
M  V30 2807 N 263.102 -1.41638 0.69111 0
M  V30 2808 C 264.065 -2.29178 0.0319786 0
M  V30 2809 C 265.065 -1.44153 -0.712496 0
M  V30 2810 O 266.255 -1.65354 -0.548053 0
M  V30 2811 C 263.387 -3.26952 -0.965161 0
M  V30 2812 H 264.58 -2.88959 0.802681 0
M  V30 2813 H 262.133 -1.4955 0.454356 0
M  V30 2814 H 262.868 -2.72142 -1.76378 0
M  V30 2815 H 262.653 -3.89685 -0.434522 0
M  V30 2816 H 264.143 -3.92561 -1.42428 0
M  V30 2817 N 264.58 -0.43555 -1.51462 0
M  V30 2818 C 265.527 0.376797 -2.27703 0
M  V30 2819 C 266.497 1.01838 -1.31219 0
M  V30 2820 O 267.682 1.03762 -1.60119 0
M  V30 2821 C 264.822 1.47301 -3.12084 0
M  V30 2822 C 263.935 0.849744 -4.2356 0
M  V30 2823 C 263.07 1.92086 -4.95254 0
M  V30 2824 C 262.109 1.27593 -5.98654 0
M  V30 2825 N 261.246 2.28833 -6.63762 0
M  V30 2826 H 266.086 -0.279734 -2.96684 0
M  V30 2827 H 263.623 -0.149795 -1.46335 0
M  V30 2828 H 265.581 2.11984 -3.59331 0
M  V30 2829 H 264.211 2.0992 -2.45221 0
M  V30 2830 H 263.263 0.0912529 -3.80291 0
M  V30 2831 H 264.575 0.338878 -4.97648 0
M  V30 2832 H 263.729 2.64435 -5.46039 0
M  V30 2833 H 262.468 2.46545 -4.20793 0
M  V30 2834 H 261.473 0.537893 -5.47162 0
M  V30 2835 H 262.698 0.738693 -6.7507 0
M  V30 2836 H 260.644 2.82375 -5.92115 0
M  V30 2837 H 260.561 1.82632 -7.33608 0
M  V30 2838 H 261.829 3.00671 -7.19178 0
M  V30 2839 N 266.058 1.56714 -0.166846 0
M  V30 2840 C 267.006 2.19056 0.782123 0
M  V30 2841 C 268 1.15328 1.24079 0
M  V30 2842 O 269.206 1.33537 1.20697 0
M  V30 2843 H 265.581 0.70167 0.270486 0
M  V30 2844 H 267.552 2.97494 0.232322 0
M  V30 2845 C 266.301 2.84206 2.00306 0
M  V30 2846 H 265.624 3.63748 1.65914 0
M  V30 2847 H 267.064 3.31302 2.64604 0
M  V30 2848 C 265.523 1.83744 2.82382 0
M  V30 2849 O 266.053 1.32014 3.79388 0
M  V30 2850 N 264.259 1.52601 2.47308 0
M  V30 2851 H 263.806 1.9486 1.68485 0
M  V30 2852 H 263.764 0.856351 3.02513 0
M  V30 2853 N 267.536 -0.106894 1.57237 0
M  V30 2854 C 268.947 -0.662723 1.74542 0
M  V30 2855 C 269.298 -1.7971 0.787319 0
M  V30 2856 O 268.423 -2.16368 -0.0369636 0
M  V30 2857 C 269.018 -1.20896 3.16496 0
M  V30 2858 C 267.577 -1.71096 3.35266 0
M  V30 2859 C 266.724 -0.615642 2.7038 0
M  V30 2860 H 269.675 0.119106 1.58252 0
M  V30 2861 H 269.696 -2.07847 3.18716 0
M  V30 2862 H 269.208 -0.383122 3.86204 0
M  V30 2863 H 267.309 -2.56119 2.70618 0
M  V30 2864 H 267.422 -1.81208 4.43509 0
M  V30 2865 H 265.786 -1.05222 2.31949 0
M  V30 2866 H 266.569 0.199419 3.4272 0
M  V30 2867 N 269.014 -1.53014 -0.377408 0
M  V30 2868 C 270.425 -1.60438 -0.954798 0
M  V30 2869 C 270.776 -0.464418 -1.90624 0
M  V30 2870 O 269.901 0.41087 -2.12464 0
M  V30 2871 C 270.496 -2.90797 -1.73847 0
M  V30 2872 C 269.055 -3.00595 -2.26538 0
M  V30 2873 C 268.202 -2.55645 -1.07429 0
M  V30 2874 H 271.153 -1.57926 -0.156575 0
M  V30 2875 H 271.174 -2.77935 -2.5987 0
M  V30 2876 H 270.686 -3.73746 -1.04574 0
M  V30 2877 H 268.787 -2.22208 -2.99089 0
M  V30 2878 H 268.9 -4.05456 -2.5523 0
M  V30 2879 H 267.264 -2.10239 -1.43777 0
M  V30 2880 H 268.047 -3.41 -0.396728 0
M  V30 2881 N 270.492 0.636531 -1.44174 0
M  V30 2882 C 271.422 1.76003 -1.53444 0
M  V30 2883 C 272.403 1.65619 -0.387841 0
M  V30 2884 O 273.588 1.84461 -0.607257 0
M  V30 2885 C 270.718 3.14511 -1.4731 0
M  V30 2886 C 269.672 3.39677 -2.60391 0
M  V30 2887 C 268.998 4.78159 -2.39308 0
M  V30 2888 C 270.298 3.32772 -4.02567 0
M  V30 2889 H 271.992 1.68501 -2.47483 0
M  V30 2890 H 269.538 0.809237 -1.19111 0
M  V30 2891 H 271.491 3.92878 -1.52397 0
M  V30 2892 H 270.215 3.22783 -0.49785 0
M  V30 2893 H 268.874 2.63688 -2.54684 0
M  V30 2894 H 268.522 4.83128 -1.39988 0
M  V30 2895 H 268.222 4.95956 -3.15122 0
M  V30 2896 H 269.746 5.58762 -2.46205 0
M  V30 2897 H 271.16 4.01051 -4.09672 0
M  V30 2898 H 269.557 3.62104 -4.7854 0
M  V30 2899 H 270.627 2.30669 -4.2652 0
M  V30 2900 N 271.97 1.30982 0.876444 0
M  V30 2901 C 272.9 1.20668 1.99903 0
M  V30 2902 C 273.881 0.095354 1.69833 0
M  V30 2903 O 275.066 0.27885 1.92188 0
M  V30 2904 C 272.196 0.90655 3.3526 0
M  V30 2905 C 271.15 1.97675 3.79617 0
M  V30 2906 C 270.476 1.52943 5.1236 0
M  V30 2907 C 271.776 3.389 3.97422 0
M  V30 2908 H 273.47 2.14586 2.0879 0
M  V30 2909 H 271.016 1.03308 1.00317 0
M  V30 2910 H 272.969 0.821025 4.13324 0
M  V30 2911 H 271.693 -0.0682969 3.26529 0
M  V30 2912 H 270.352 2.05205 3.03787 0
M  V30 2913 H 270 0.54262 5.00065 0
M  V30 2914 H 269.7 2.24532 5.43009 0
M  V30 2915 H 271.224 1.45786 5.92941 0
M  V30 2916 H 272.638 3.34081 4.659 0
M  V30 2917 H 271.035 4.0865 4.3946 0
M  V30 2918 H 272.105 3.80163 3.01006 0
M  V30 2919 N 273.449 -1.08991 1.13837 0
M  V30 2920 C 274.399 -2.1393 0.788535 0
M  V30 2921 C 275.383 -1.59396 -0.219516 0
M  V30 2922 O 276.575 -1.76985 -0.0227557 0
M  V30 2923 C 273.704 -3.42305 0.261147 0
M  V30 2924 C 272.79 -4.03736 1.29837 0
M  V30 2925 N 273.181 -4.39659 2.50067 0
M  V30 2926 C 271.479 -4.30993 1.1472 0
M  V30 2927 C 272.18 -4.88113 3.16419 0
M  V30 2928 N 271.156 -4.85846 2.43832 0
M  V30 2929 H 274.958 -2.39516 1.70322 0
M  V30 2930 H 272.472 -1.26263 1.02134 0
M  V30 2931 H 274.469 -4.16899 -0.0077405 0
M  V30 2932 H 273.129 -3.18172 -0.647805 0
M  V30 2933 H 274.14 -4.30878 2.8734 0
M  V30 2934 H 270.817 -4.16444 0.296773 0
M  V30 2935 H 272.207 -5.25336 4.18894 0
M  V30 2936 N 274.927 -0.932562 -1.27047 0
M  V30 2937 C 276.338 -0.619451 -1.76124 0
M  V30 2938 C 276.689 0.865397 -1.76083 0
M  V30 2939 O 275.814 1.67722 -1.36742 0
M  V30 2940 C 276.409 -1.11771 -3.19832 0
M  V30 2941 C 274.968 -0.855174 -3.66557 0
M  V30 2942 C 274.115 -1.27362 -2.46321 0
M  V30 2943 H 277.066 -1.11181 -1.13245 0
M  V30 2944 H 277.087 -0.46759 -3.77616 0
M  V30 2945 H 276.599 -2.19842 -3.1983 0
M  V30 2946 H 274.7 0.211524 -3.71999 0
M  V30 2947 H 274.813 -1.47613 -4.55793 0
M  V30 2948 H 273.177 -0.692119 -2.45116 0
M  V30 2949 H 273.96 -2.36307 -2.49025 0
M  V30 2950 N 276.405 1.4127 -0.698611 0
M  V30 2951 C 277.651 2.01478 -0.231207 0
M  V30 2952 C 277.984 1.55215 1.16713 0
M  V30 2953 O 277.259 0.764672 1.78838 0
M  V30 2954 C 277.542 3.58912 -0.292281 0
M  V30 2955 C 277.395 4.15293 -1.72778 0
M  V30 2956 C 278.714 4.38736 0.346194 0
M  V30 2957 H 275.833 0.732025 -0.0854878 0
M  V30 2958 H 278.475 1.67977 -0.887906 0
M  V30 2959 H 276.625 3.87582 0.26686 0
M  V30 2960 H 278.297 3.97486 -2.341 0
M  V30 2961 H 276.54 3.7022 -2.26096 0
M  V30 2962 H 277.211 5.24452 -1.72202 0
M  V30 2963 H 279.687 4.15897 -0.130035 0
M  V30 2964 H 278.563 5.48221 0.272932 0
M  V30 2965 H 278.824 4.18425 1.42734 0
M  V30 2966 N 277.883 0.443576 1.51229 0
M  V30 2967 C 279.129 -0.120975 2.02439 0
M  V30 2968 C 279.462 -1.41815 1.32674 0
M  V30 2969 O 278.737 -1.89373 0.443622 0
M  V30 2970 C 279.02 -0.333291 3.58554 0
M  V30 2971 C 278.873 0.982968 4.38928 0
M  V30 2972 C 280.192 -1.10028 4.26124 0
M  V30 2973 H 277.311 -0.0424923 0.735774 0
M  V30 2974 H 279.953 0.583794 1.80809 0
M  V30 2975 H 278.103 -0.933614 3.77115 0
M  V30 2976 H 279.775 1.61775 4.32003 0
M  V30 2977 H 278.018 1.58611 4.03763 0
M  V30 2978 H 278.689 0.788379 5.46341 0
M  V30 2979 H 281.165 -0.591711 4.11871 0
M  V30 2980 H 280.041 -1.21761 5.35225 0
M  V30 2981 H 280.302 -2.12996 3.87408 0
M  V30 2982 N 279.361 -1.56624 0.175154 0
M  V30 2983 C 280.777 -1.58571 -0.180966 0
M  V30 2984 C 280.977 -1.19065 -1.6256 0
M  V30 2985 O 280.033 -0.904044 -2.35761 0
M  V30 2986 C 281.346 -3.00522 0.103326 0
M  V30 2987 C 282.894 -3.12972 0.0418426 0
M  V30 2988 C 283.369 -4.57022 0.299175 0
M  V30 2989 N 284.86 -4.62541 0.247086 0
M  V30 2990 C 285.595 -5.71857 0.420318 0
M  V30 2991 N 285.091 -6.89717 0.652816 0
M  V30 2992 N 286.884 -5.60972 0.355957 0
M  V30 2993 H 279.035 -1.80589 1.11809 0
M  V30 2994 H 281.298 -0.837178 0.444788 0
M  V30 2995 H 281.004 -3.33916 1.10422 0
M  V30 2996 H 280.878 -3.72344 -0.603299 0
M  V30 2997 H 283.265 -2.79403 -0.949636 0
M  V30 2998 H 283.346 -2.43578 0.781238 0
M  V30 2999 H 282.99 -4.913 1.28788 0
M  V30 3000 H 282.92 -5.24579 -0.460876 0
M  V30 3001 H 285.411 -3.77829 0.0731895 0
M  V30 3002 H 285.724 -7.68911 0.774347 0
M  V30 3003 H 284.069 -6.91572 0.689476 0
M  V30 3004 H 287.26 -4.67773 0.174882 0
M  V30 3005 H 287.433 -6.46111 0.494388 0
M  V30 3006 N 280.839 0.0985539 -1.57292 0
M  V30 3007 C 282.067 0.816318 -1.90115 0
M  V30 3008 C 282.482 1.72451 -0.768509 0
M  V30 3009 O 281.839 1.80643 0.259687 0
M  V30 3010 C 281.89 1.63259 -3.22535 0
M  V30 3011 O 281.611 0.760934 -4.31441 0
M  V30 3012 C 283.112 2.45372 -3.69199 0
M  V30 3013 H 280.332 0.233595 -0.629027 0
M  V30 3014 H 282.876 0.0768229 -2.04356 0
M  V30 3015 H 281.031 2.32463 -3.09903 0
M  V30 3016 H 281.445 1.32595 -5.07463 0
M  V30 3017 H 282.919 2.98144 -4.64558 0
M  V30 3018 H 283.396 3.23677 -2.96867 0
M  V30 3019 H 284.002 1.81373 -3.84687 0
M  V30 3020 N 282.317 1.53212 0.369288 0
M  V30 3021 C 283.267 1.75769 1.45222 0
M  V30 3022 C 284.251 0.612136 1.48801 0
M  V30 3023 O 285.443 0.870674 1.54105 0
M  V30 3024 C 282.572 1.94769 2.82701 0
M  V30 3025 C 281.658 3.15315 2.83615 0
M  V30 3026 N 282.049 4.37295 2.54178 0
M  V30 3027 C 280.347 3.15962 3.14776 0
M  V30 3028 C 281.048 5.19015 2.62675 0
M  V30 3029 N 280.024 4.55142 2.97232 0
M  V30 3030 H 283.826 2.67691 1.2132 0
M  V30 3031 H 281.34 1.51787 0.577438 0
M  V30 3032 H 283.337 2.09056 3.60696 0
M  V30 3033 H 281.997 1.04073 3.07569 0
M  V30 3034 H 283.008 4.65091 2.27839 0
M  V30 3035 H 279.685 2.35144 3.44983 0
M  V30 3036 H 281.075 6.26305 2.43294 0
M  V30 3037 N 283.795 -0.628877 1.44509 0
M  V30 3038 C 285.206 -1.21054 1.42137 0
M  V30 3039 C 285.557 -1.95715 0.137881 0
M  V30 3040 O 284.682 -2.02554 -0.761645 0
M  V30 3041 C 285.277 -2.20189 2.57493 0
M  V30 3042 C 283.836 -2.73777 2.58308 0
M  V30 3043 C 282.983 -1.48813 2.33987 0
M  V30 3044 H 285.934 -0.41942 1.53057 0
M  V30 3045 H 285.955 -3.02833 2.30375 0
M  V30 3046 H 285.467 -1.6582 3.50892 0
M  V30 3047 H 283.568 -3.32142 1.68856 0
M  V30 3048 H 283.681 -3.19662 3.56865 0
M  V30 3049 H 282.045 -1.77024 1.83124 0
M  V30 3050 H 282.828 -0.963442 3.29504 0
M  V30 3051 N 285.273 -1.31445 -0.869486 0
M  V30 3052 C 286.519 -1.21337 -1.62496 0
M  V30 3053 C 286.852 0.227872 -1.92858 0
M  V30 3054 O 286.127 1.16094 -1.56053 0
M  V30 3055 C 286.41 -2.05814 -2.95487 0
M  V30 3056 C 286.263 -3.5824 -2.72 0
M  V30 3057 C 287.582 -1.9079 -3.96594 0
M  V30 3058 H 284.701 -0.442135 -0.589649 0
M  V30 3059 H 287.343 -1.6124 -1.00507 0
M  V30 3060 H 285.493 -1.71913 -3.48394 0
M  V30 3061 H 287.165 -4.0228 -2.25762 0
M  V30 3062 H 285.408 -3.81647 -2.06224 0
M  V30 3063 H 286.079 -4.12657 -3.66631 0
M  V30 3064 H 288.555 -2.20459 -3.52898 0
M  V30 3065 H 287.431 -2.52199 -4.87531 0
M  V30 3066 H 287.692 -0.871341 -4.33428 0
M  V30 3067 N 286.751 1.08385 -1.14413 0
M  V30 3068 C 287.976 1.85057 -0.936413 0
M  V30 3069 C 288.401 1.81055 0.509971 0
M  V30 3070 O 287.759 1.1958 1.36273 0
M  V30 3071 C 287.807 3.30505 -1.44217 0
M  V30 3072 O 286.911 4.07491 -0.634409 0
M  V30 3073 H 286.252 0.573425 -0.334784 0
M  V30 3074 H 288.782 1.36799 -1.52142 0
M  V30 3075 H 288.792 3.81348 -1.45043 0
M  V30 3076 H 287.467 3.32734 -2.49522 0
M  V30 3077 H 286.044 3.66368 -0.694902 0
M  V30 3078 N 288.23 0.939286 1.26551 0
M  V30 3079 C 289.478 0.58469 1.93457 0
M  V30 3080 C 289.799 -0.878774 1.74076 0
M  V30 3081 O 289.069 -1.62421 1.09528 0
M  V30 3082 H 287.649 0.21325 0.715914 0
M  V30 3083 H 290.311 1.1942 1.54029 0
M  V30 3084 H 289.407 0.800849 3.0165 0
M  V30 3085 N 289.708 -1.40897 0.706093 0
M  V30 3086 C 290.655 -2.30751 0.0474474 0
M  V30 3087 C 291.625 -1.47678 -0.76029 0
M  V30 3088 O 292.81 -1.76441 -0.726177 0
M  V30 3089 C 289.95 -3.33815 -0.875309 0
M  V30 3090 C 289.063 -4.31961 -0.0580623 0
M  V30 3091 C 288.198 -5.22093 -0.979425 0
M  V30 3092 C 287.237 -6.11902 -0.155706 0
M  V30 3093 N 286.374 -6.94482 -1.03144 0
M  V30 3094 H 291.214 -2.86513 0.819413 0
M  V30 3095 H 288.751 -1.41102 0.415783 0
M  V30 3096 H 290.709 -3.92129 -1.42446 0
M  V30 3097 H 289.339 -2.79579 -1.61356 0
M  V30 3098 H 288.391 -3.75507 0.608147 0
M  V30 3099 H 289.703 -4.95415 0.580082 0
M  V30 3100 H 288.857 -5.85292 -1.59744 0
M  V30 3101 H 287.596 -4.5889 -1.65141 0
M  V30 3102 H 286.601 -5.47742 0.475309 0
M  V30 3103 H 287.826 -6.77162 0.512635 0
M  V30 3104 H 285.772 -6.33877 -1.68924 0
M  V30 3105 H 285.689 -7.54665 -0.449108 0
M  V30 3106 H 286.957 -7.6214 -1.63593 0
M  V30 3107 N 291.186 -0.45159 -1.50991 0
M  V30 3108 C 292.118 0.388634 -2.25881 0
M  V30 3109 C 293.131 0.974041 -1.30446 0
M  V30 3110 O 294.32 0.865758 -1.56099 0
M  V30 3111 C 291.42 1.5571 -3.01011 0
M  V30 3112 C 290.593 1.08801 -4.23652 0
M  V30 3113 C 289.652 2.12825 -4.8124 0
M  V30 3114 O 288.678 1.71678 -5.42693 0
M  V30 3115 N 289.88 3.45453 -4.66522 0
M  V30 3116 H 292.645 -0.25329 -2.98628 0
M  V30 3117 H 290.206 -0.281268 -1.59438 0
M  V30 3118 H 292.198 2.24952 -3.3642 0
M  V30 3119 H 290.768 2.10409 -2.31186 0
M  V30 3120 H 289.988 0.22215 -3.93574 0
M  V30 3121 H 291.276 0.752213 -5.03209 0
M  V30 3122 H 290.674 3.81605 -4.17605 0
M  V30 3123 H 289.231 4.10549 -5.06254 0
M  V30 3124 N 292.664 1.56529 -0.183458 0
M  V30 3125 C 293.627 2.17324 0.728223 0
M  V30 3126 C 294.627 1.12453 1.14939 0
M  V30 3127 O 295.817 1.37902 1.06437 0
M  V30 3128 C 292.949 2.76591 1.99274 0
M  V30 3129 H 294.142 2.99241 0.198772 0
M  V30 3130 H 291.695 1.5616 0.0661391 0
M  V30 3131 H 292.43 1.98441 2.56499 0
M  V30 3132 H 292.215 3.5335 1.69959 0
M  V30 3133 H 293.705 3.23311 2.6431 0
M  V30 3134 N 294.142 -0.090211 1.57342 0
M  V30 3135 C 295.072 -1.10976 2.05443 0
M  V30 3136 C 296.053 -1.41482 0.944284 0
M  V30 3137 O 297.238 -1.51428 1.21586 0
M  V30 3138 C 294.368 -2.42831 2.48295 0
M  V30 3139 C 293.322 -2.26721 3.63018 0
M  V30 3140 C 292.648 -3.63796 3.91863 0
M  V30 3141 C 293.948 -1.7037 4.93732 0
M  V30 3142 H 295.642 -0.709564 2.9087 0
M  V30 3143 H 293.188 -0.339874 1.39932 0
M  V30 3144 H 295.141 -3.14431 2.80555 0
M  V30 3145 H 293.865 -2.84795 1.59873 0
M  V30 3146 H 292.524 -1.57565 3.31012 0
M  V30 3147 H 292.172 -4.03297 3.00601 0
M  V30 3148 H 291.872 -3.53861 4.69101 0
M  V30 3149 H 293.396 -4.36855 4.26603 0
M  V30 3150 H 294.81 -2.31816 5.24342 0
M  V30 3151 H 293.207 -1.71181 5.75167 0
M  V30 3152 H 294.277 -0.663542 4.80339 0
M  V30 3153 N 295.62 -1.53406 -0.361157 0
M  V30 3154 C 296.867 -1.69802 -1.10333 0
M  V30 3155 C 297.195 -0.452087 -1.89173 0
M  V30 3156 O 296.45 0.566017 -1.87336 0
M  V30 3157 C 296.749 -2.90211 -2.08596 0
M  V30 3158 C 296.415 -4.26539 -1.46203 0
M  V30 3159 C 295.077 -4.6361 -1.28915 0
M  V30 3160 C 297.429 -5.113 -1.01101 0
M  V30 3161 C 294.757 -5.83075 -0.651157 0
M  V30 3162 C 297.109 -6.31415 -0.387007 0
M  V30 3163 C 295.773 -6.67195 -0.201657 0
M  V30 3164 H 295.043 -0.621351 -0.403737 0
M  V30 3165 H 297.69 -1.87598 -0.384609 0
M  V30 3166 H 295.995 -2.66946 -2.86788 0
M  V30 3167 H 297.692 -3.00091 -2.65982 0
M  V30 3168 H 294.282 -3.97352 -1.60653 0
M  V30 3169 H 298.466 -4.83206 -1.13249 0
M  V30 3170 H 293.722 -6.09385 -0.496006 0
M  V30 3171 H 297.896 -6.96394 -0.0293563 0
M  V30 3172 H 295.523 -7.59628 0.294766 0
M  V30 3173 N 297.098 0.621204 -1.44841 0
M  V30 3174 C 298.344 1.3826 -1.48365 0
M  V30 3175 C 298.677 1.93831 -0.119624 0
M  V30 3176 O 297.952 1.74251 0.864111 0
M  V30 3177 C 298.235 2.54058 -2.55199 0
M  V30 3178 C 298.088 2.03772 -4.00995 0
M  V30 3179 C 299.407 3.56225 -2.58442 0
M  V30 3180 H 296.526 0.501374 -0.540179 0
M  V30 3181 H 299.168 0.7015 -1.76576 0
M  V30 3182 H 297.318 3.12162 -2.31274 0
M  V30 3183 H 298.99 1.50423 -4.36086 0
M  V30 3184 H 297.233 1.34876 -4.12299 0
M  V30 3185 H 297.904 2.87185 -4.71411 0
M  V30 3186 H 300.38 3.07939 -2.79844 0
M  V30 3187 H 299.256 4.34756 -3.3508 0
M  V30 3188 H 299.517 4.10949 -1.63013 0
M  V30 3189 N 298.576 1.31904 0.862503 0
M  V30 3190 C 299.524 1.20125 1.9918 0
M  V30 3191 C 300.518 0.107824 1.69056 0
M  V30 3192 O 301.724 0.270223 1.7796 0
M  V30 3193 H 298.099 0.372148 0.65346 0
M  V30 3194 H 300.07 2.15652 2.06244 0
M  V30 3195 C 298.819 0.933099 3.34946 0
M  V30 3196 H 298.142 1.76664 3.5865 0
M  V30 3197 H 299.582 0.890892 4.14535 0
M  V30 3198 C 298.041 -0.364172 3.34926 0
M  V30 3199 O 298.571 -1.37858 3.77304 0
M  V30 3200 N 296.777 -0.383362 2.8806 0
M  V30 3201 H 296.324 0.442651 2.53768 0
M  V30 3202 H 296.282 -1.25123 2.8843 0
M  V30 3203 N 300.054 -1.07777 1.14986 0
M  V30 3204 C 300.964 -2.18404 0.856546 0
M  V30 3205 C 301.98 -1.73211 -0.165485 0
M  V30 3206 O 303.156 -2.01399 0.00755219 0
M  V30 3207 C 300.221 -3.44977 0.34526 0
M  V30 3208 C 299.282 -4.0476 1.43065 0
M  V30 3209 C 298.515 -5.25291 0.943663 0
M  V30 3210 O 298.738 -5.70004 -0.212426 0
M  V30 3211 O 297.672 -5.76638 1.72547 0
M  V30 3212 H 301.498 -2.45978 1.78125 0
M  V30 3213 H 299.083 -1.17033 0.928631 0
M  V30 3214 H 300.965 -4.21348 0.0663671 0
M  V30 3215 H 299.64 -3.18965 -0.551631 0
M  V30 3216 H 298.547 -3.29949 1.76309 0
M  V30 3217 H 299.88 -4.35035 2.30229 0
M  V30 3218 N 301.532 -0.945985 -1.26051 0
M  V30 3219 C 302.78 -0.594941 -1.93145 0
M  V30 3220 C 303.101 0.86953 -1.7454 0
M  V30 3221 O 302.371 1.61838 -1.10387 0
M  V30 3222 H 300.951 -0.217044 -0.714773 0
M  V30 3223 H 303.613 -1.20235 -1.53393 0
M  V30 3224 H 302.709 -0.816835 -3.01221 0
M  V30 3225 N 303.011 1.40521 -0.713556 0
M  V30 3226 C 304.258 2.00923 -0.25219 0
M  V30 3227 C 304.586 1.56571 1.15395 0
M  V30 3228 O 303.841 0.775874 1.79663 0
M  V30 3229 C 304.14 3.56317 -0.278 0
M  V30 3230 C 303.806 4.20246 -1.63415 0
M  V30 3231 C 302.468 4.37422 -2.00538 0
M  V30 3232 C 304.82 4.55923 -2.52554 0
M  V30 3233 C 302.148 4.87558 -3.2635 0
M  V30 3234 C 304.5 5.07458 -3.77716 0
M  V30 3235 C 303.164 5.22843 -4.14959 0
M  V30 3236 H 302.434 0.735231 -0.0922829 0
M  V30 3237 H 305.081 1.68161 -0.916188 0
M  V30 3238 H 303.386 3.88976 0.469567 0
M  V30 3239 H 305.083 4.00883 0.0967819 0
M  V30 3240 H 301.673 4.07263 -1.33546 0
M  V30 3241 H 305.857 4.42291 -2.25149 0
M  V30 3242 H 301.113 4.97654 -3.55176 0
M  V30 3243 H 305.287 5.34041 -4.4696 0
M  V30 3244 H 302.914 5.61454 -5.12516 0
M  V30 3245 N 304.489 0.459591 1.5075 0
M  V30 3246 C 305.717 -0.0973749 2.06671 0
M  V30 3247 C 306.132 -1.34524 1.32472 0
M  V30 3248 O 305.489 -1.7827 0.390634 0
M  V30 3249 C 305.54 -0.39714 3.59312 0
M  V30 3250 O 305.261 0.801214 4.30711 0
M  V30 3251 C 306.762 -1.00234 4.31819 0
M  V30 3252 H 303.982 0.00195854 0.670997 0
M  V30 3253 H 306.526 0.645072 1.94059 0
M  V30 3254 H 304.681 -1.08951 3.71764 0
M  V30 3255 H 305.095 0.538857 5.21725 0
M  V30 3256 H 306.569 -1.16193 5.39632 0
M  V30 3257 H 307.046 -1.98939 3.91561 0
M  V30 3258 H 307.652 -0.348699 4.23868 0
M  V30 3259 N 305.967 -1.56429 0.191757 0
M  V30 3260 C 307.195 -2.01867 -0.453586 0
M  V30 3261 C 307.61 -1.07191 -1.5542 0
M  V30 3262 O 306.967 -0.0762108 -1.82341 0
M  V30 3263 C 307.018 -3.47017 -1.013 0
M  V30 3264 O 306.739 -4.38078 0.0437005 0
M  V30 3265 C 308.24 -4.07956 -1.73456 0
M  V30 3266 H 305.46 -0.661211 -0.114199 0
M  V30 3267 H 308.004 -2.02295 0.299483 0
M  V30 3268 H 306.159 -3.47298 -1.71647 0
M  V30 3269 H 306.573 -5.23178 -0.372212 0
M  V30 3270 H 308.047 -5.1138 -2.07833 0
M  V30 3271 H 308.524 -3.51222 -2.63704 0
M  V30 3272 H 309.13 -4.11437 -1.07702 0
M  V30 3273 N 307.445 0.0818655 -1.57387 0
M  V30 3274 C 308.861 0.436412 -1.53517 0
M  V30 3275 C 309.061 1.79758 -0.910459 0
M  V30 3276 O 308.117 2.47324 -0.508636 0
M  V30 3277 C 309.43 0.386734 -2.98203 0
M  V30 3278 C 310.978 0.467644 -3.09487 0
M  V30 3279 C 311.453 0.447978 -4.55804 0
M  V30 3280 N 312.944 0.508348 -4.60402 0
M  V30 3281 C 313.679 0.515184 -5.71081 0
M  V30 3282 N 313.175 0.477435 -6.91153 0
M  V30 3283 N 314.968 0.560988 -5.59294 0
M  V30 3284 H 307.119 -0.809546 -1.96367 0
M  V30 3285 H 309.382 -0.302733 -0.898363 0
M  V30 3286 H 309.088 -0.546539 -3.47427 0
M  V30 3287 H 308.962 1.20075 -3.57578 0
M  V30 3288 H 311.349 1.39134 -2.60242 0
M  V30 3289 H 311.43 -0.374753 -2.5304 0
M  V30 3290 H 311.074 -0.471826 -5.05704 0
M  V30 3291 H 311.004 1.30777 -5.10103 0
M  V30 3292 H 313.495 0.54218 -3.7399 0
M  V30 3293 H 313.808 0.486299 -7.71268 0
M  V30 3294 H 312.153 0.444278 -6.93579 0
M  V30 3295 H 315.344 0.5881 -4.64391 0
M  V30 3296 H 315.517 0.562846 -6.45551 0
M  V30 3297 N 308.923 1.53595 0.353017 0
M  V30 3298 C 310.172 1.69603 1.09168 0
M  V30 3299 C 310.485 0.460925 1.90092 0
M  V30 3300 O 311.691 0.501774 2.66823 0
M  V30 3301 C 310.147 2.99872 1.9901 0
M  V30 3302 C 309.755 4.30687 1.23339 0
M  V30 3303 C 311.499 3.25246 2.72792 0
M  V30 3304 C 309.406 5.52036 2.12156 0
M  V30 3305 H 308.336 0.631966 0.411261 0
M  V30 3306 H 310.987 1.80096 0.351802 0
M  V30 3307 H 309.369 2.83212 2.7678 0
M  V30 3308 H 310.543 4.58019 0.505456 0
M  V30 3309 H 308.858 4.11853 0.613663 0
M  V30 3310 H 311.455 4.13095 3.39495 0
M  V30 3311 H 311.798 2.41846 3.38846 0
M  V30 3312 H 312.331 3.42638 2.021 0
M  V30 3313 H 309.07 6.37951 1.50659 0
M  V30 3314 H 308.59 5.28966 2.82764 0
M  V30 3315 H 310.269 5.87313 2.71427 0
M  V30 3316 N 310.401 -0.613514 1.45168 0
M  V30 3317 C 311.647 -1.37471 1.49096 0
M  V30 3318 C 311.98 -1.93765 0.129901 0
M  V30 3319 O 311.255 -1.74707 -0.854858 0
M  V30 3320 C 311.538 -2.52701 2.56542 0
M  V30 3321 C 311.391 -2.01643 4.0207 0
M  V30 3322 C 312.71 -3.54849 2.60327 0
M  V30 3323 H 309.829 -0.498502 0.54283 0
M  V30 3324 H 312.471 -0.692125 1.76945 0
M  V30 3325 H 310.621 -3.10931 2.32926 0
M  V30 3326 H 312.293 -1.48108 4.36877 0
M  V30 3327 H 310.536 -1.32688 4.13009 0
M  V30 3328 H 311.207 -2.84681 4.72928 0
M  V30 3329 H 313.683 -3.0645 2.81474 0
M  V30 3330 H 312.559 -4.32973 3.37381 0
M  V30 3331 H 312.82 -4.10079 1.6519 0
M  V30 3332 N 311.879 -1.3236 -0.855495 0
M  V30 3333 C 313.156 -1.13491 -1.59309 0
M  V30 3334 C 313.536 0.30503 -2.08885 0
M  V30 3335 O 312.884 1.30151 -1.87811 0
M  V30 3336 C 313.094 -2.16176 -2.73987 0
M  V30 3337 C 314.442 -2.49463 -3.43589 0
M  V30 3338 O 315.466 -2.14715 -2.84211 0
M  V30 3339 O 314.325 -3.09027 -4.50738 0
M  V30 3340 H 311.419 -0.437887 -0.701559 0
M  V30 3341 H 313.965 -1.43887 -0.899696 0
M  V30 3342 H 312.737 -3.1297 -2.34873 0
M  V30 3343 H 312.36 -1.86769 -3.51003 0
M  V30 3344 N 313.357 1.07166 -1.15556 0
M  V30 3345 C 314.603 1.80065 -0.932984 0
M  V30 3346 C 314.936 1.86586 0.53845 0
M  V30 3347 O 314.211 1.35098 1.39924 0
M  V30 3348 C 314.494 3.25022 -1.55025 0
M  V30 3349 C 314.347 3.26634 -3.09242 0
M  V30 3350 C 315.666 4.22341 -1.2376 0
M  V30 3351 H 312.785 0.653697 -0.340366 0
M  V30 3352 H 315.427 1.25389 -1.4275 0
M  V30 3353 H 313.577 3.71712 -1.12972 0
M  V30 3354 H 315.249 2.88173 -3.60214 0
M  V30 3355 H 313.492 2.65539 -3.43033 0
M  V30 3356 H 314.163 4.28854 -3.47546 0
M  V30 3357 H 316.639 3.8405 -1.60139 0
M  V30 3358 H 315.515 5.22053 -1.69564 0
M  V30 3359 H 315.776 4.41828 -0.154938 0
M  V30 3360 N 314.835 0.952656 1.25548 0
M  V30 3361 C 316.06 0.623025 1.97821 0
M  V30 3362 C 316.485 -0.7976 1.70352 0
M  V30 3363 O 315.843 -1.53905 0.958283 0
M  V30 3364 C 315.891 0.885532 3.49558 0
M  V30 3365 O 314.995 -0.0366641 4.12384 0
M  V30 3366 H 314.336 0.237082 0.620232 0
M  V30 3367 H 316.866 1.27871 1.59719 0
M  V30 3368 H 316.876 0.811009 3.99858 0
M  V30 3369 H 315.551 1.92094 3.6888 0
M  V30 3370 H 314.128 0.0898954 3.72792 0
M  V30 3371 N 316.313 -1.40141 0.720998 0
M  V30 3372 C 317.223 -2.34486 0.0731031 0
M  V30 3373 C 318.239 -1.57587 -0.737723 0
M  V30 3374 O 319.415 -1.89949 -0.669429 0
M  V30 3375 C 316.48 -3.36528 -0.833656 0
M  V30 3376 C 315.541 -4.29298 -0.0121673 0
M  V30 3377 C 314.774 -5.26466 -0.875742 0
M  V30 3378 O 314.997 -5.29745 -2.11485 0
M  V30 3379 O 313.931 -6.01092 -0.31185 0
M  V30 3380 H 317.757 -2.9152 0.851444 0
M  V30 3381 H 315.342 -1.41427 0.481527 0
M  V30 3382 H 317.224 -3.99093 -1.35289 0
M  V30 3383 H 315.899 -2.81899 -1.59105 0
M  V30 3384 H 314.806 -3.70001 0.552262 0
M  V30 3385 H 316.139 -4.87094 0.707129 0
M  V30 3386 N 317.792 -0.46758 -1.50504 0
M  V30 3387 C 318.739 0.328413 -2.28452 0
M  V30 3388 C 319.709 0.990313 -1.33349 0
M  V30 3389 O 320.894 1.00343 -1.62284 0
M  V30 3390 C 318.034 1.40648 -3.15138 0
M  V30 3391 C 317.147 0.759709 -4.25267 0
M  V30 3392 C 316.282 1.81537 -4.99217 0
M  V30 3393 C 315.321 1.14866 -6.01226 0
M  V30 3394 N 314.458 2.14702 -6.68467 0
M  V30 3395 H 319.298 -0.342603 -2.96024 0
M  V30 3396 H 316.835 -0.180801 -1.45985 0
M  V30 3397 H 318.793 2.04315 -3.63746 0
M  V30 3398 H 317.423 2.04671 -2.49619 0
M  V30 3399 H 316.475 0.0105671 -3.80399 0
M  V30 3400 H 317.787 0.233243 -4.98254 0
M  V30 3401 H 316.941 2.52793 -5.51526 0
M  V30 3402 H 315.68 2.37564 -4.25928 0
M  V30 3403 H 314.685 0.42171 -5.4818 0
M  V30 3404 H 315.91 0.595334 -6.76485 0
M  V30 3405 H 313.856 2.69752 -5.97972 0
M  V30 3406 H 313.773 1.6703 -7.37317 0
M  V30 3407 H 315.041 2.85348 -7.25394 0
M  V30 3408 N 319.27 1.56325 -0.20005 0
M  V30 3409 C 320.18 2.22931 0.730668 0
M  V30 3410 C 321.196 1.22997 1.23076 0
M  V30 3411 O 322.372 1.55748 1.27689 0
M  V30 3412 C 319.437 2.87948 1.93098 0
M  V30 3413 C 318.498 4.03166 1.47497 0
M  V30 3414 C 317.731 4.65073 2.61807 0
M  V30 3415 O 317.954 4.25913 3.79413 0
M  V30 3416 O 316.888 5.54452 2.34237 0
M  V30 3417 H 320.714 3.03084 0.193391 0
M  V30 3418 H 318.299 1.49371 0.0294621 0
M  V30 3419 H 320.181 3.29063 2.6324 0
M  V30 3420 H 318.856 2.10771 2.45677 0
M  V30 3421 H 317.763 3.66664 0.742201 0
M  V30 3422 H 319.096 4.82022 0.995796 0
M  V30 3423 N 320.748 -0.0735177 1.57428 0
M  V30 3424 C 321.973 -0.789787 1.91774 0
M  V30 3425 C 322.398 -1.70413 0.796306 0
M  V30 3426 O 321.756 -1.79555 -0.250961 0
M  V30 3427 C 321.804 -1.5609 3.25067 0
M  V30 3428 O 320.908 -2.67144 3.14178 0
M  V30 3429 H 320.249 -0.215582 0.628029 0
M  V30 3430 H 322.779 -0.0422781 2.04556 0
M  V30 3431 H 322.789 -1.94052 3.58898 0
M  V30 3432 H 321.464 -0.890015 4.06265 0
M  V30 3433 H 320.041 -2.32052 2.91901 0
M  V30 3434 N 322.226 -1.5378 -0.344866 0
M  V30 3435 C 323.136 -1.84667 -1.4469 0
M  V30 3436 C 324.152 -0.736704 -1.57635 0
M  V30 3437 O 325.328 -1.02888 -1.73136 0
M  V30 3438 C 322.393 -2.04869 -2.79696 0
M  V30 3439 C 321.454 -3.28731 -2.76106 0
M  V30 3440 C 320.687 -3.4796 -4.04673 0
M  V30 3441 O 320.91 -2.71052 -5.01883 0
M  V30 3442 O 319.844 -4.41383 -4.09224 0
M  V30 3443 H 323.67 -2.78334 -1.21506 0
M  V30 3444 H 321.255 -1.39418 -0.536921 0
M  V30 3445 H 323.137 -2.19609 -3.59652 0
M  V30 3446 H 321.812 -1.14391 -3.02814 0
M  V30 3447 H 320.719 -3.19396 -1.94774 0
M  V30 3448 H 322.052 -4.19198 -2.57941 0
M  V30 3449 N 323.704 0.605807 -1.45491 0
M  V30 3450 C 324.667 1.69836 -1.5391 0
M  V30 3451 C 325.667 1.55261 -0.418424 0
M  V30 3452 O 326.857 1.60296 -0.681965 0
M  V30 3453 C 323.989 3.09117 -1.43734 0
M  V30 3454 H 325.182 1.63738 -2.51257 0
M  V30 3455 H 322.735 0.821689 -1.32959 0
M  V30 3456 H 323.47 3.20791 -0.475788 0
M  V30 3457 H 323.255 3.21104 -2.25021 0
M  V30 3458 H 324.745 3.88696 -1.52661 0
M  V30 3459 N 325.182 1.32811 0.848464 0
M  V30 3460 C 326.112 1.24882 1.97299 0
M  V30 3461 C 327.093 0.131357 1.69592 0
M  V30 3462 O 328.278 0.319553 1.91553 0
M  V30 3463 C 325.408 0.97746 3.33261 0
M  V30 3464 C 324.362 2.05682 3.75338 0
M  V30 3465 C 323.688 1.63777 5.09 0
M  V30 3466 C 324.988 3.47254 3.90144 0
M  V30 3467 H 326.682 2.18966 2.04191 0
M  V30 3468 H 324.228 1.05413 0.981029 0
M  V30 3469 H 326.181 0.908513 4.1149 0
M  V30 3470 H 324.905 0.000980011 3.266 0
M  V30 3471 H 323.564 2.11603 2.99366 0
M  V30 3472 H 323.212 0.648569 4.98801 0
M  V30 3473 H 322.912 2.36 5.38124 0
M  V30 3474 H 324.436 1.5833 5.89715 0
M  V30 3475 H 325.85 3.43888 4.58709 0
M  V30 3476 H 324.247 4.1788 4.30693 0
M  V30 3477 H 325.317 3.86462 2.92874 0
M  V30 3478 N 326.66 -1.06551 1.16123 0
M  V30 3479 C 327.59 -2.15935 0.88851 0
M  V30 3480 C 328.571 -1.69306 -0.164135 0
M  V30 3481 O 329.756 -1.94193 -0.0167857 0
M  V30 3482 C 326.886 -3.45149 0.385942 0
M  V30 3483 C 325.84 -4.05271 1.3762 0
M  V30 3484 C 325.166 -5.29664 0.732137 0
M  V30 3485 C 326.466 -4.44355 2.74493 0
M  V30 3486 H 328.16 -2.39006 1.80323 0
M  V30 3487 H 325.706 -1.14866 0.868435 0
M  V30 3488 H 327.659 -4.21004 0.182647 0
M  V30 3489 H 326.383 -3.21689 -0.564274 0
M  V30 3490 H 325.042 -3.3147 1.56599 0
M  V30 3491 H 324.69 -5.02499 -0.224483 0
M  V30 3492 H 324.39 -5.70848 1.39307 0
M  V30 3493 H 325.914 -6.08218 0.538802 0
M  V30 3494 H 327.328 -5.11303 2.59311 0
M  V30 3495 H 325.725 -4.96515 3.37035 0
M  V30 3496 H 326.795 -3.55339 3.29943 0
M  V30 3497 N 328.138 -0.959301 -1.25041 0
M  V30 3498 C 329.363 -0.633507 -1.97488 0
M  V30 3499 C 329.788 0.788555 -1.70773 0
M  V30 3500 O 329.146 1.53394 -0.966431 0
M  V30 3501 C 329.194 -0.904057 -3.49083 0
M  V30 3502 O 328.298 0.0147939 -4.12397 0
M  V30 3503 H 327.639 -0.240368 -0.618966 0
M  V30 3504 H 330.169 -1.28717 -1.59038 0
M  V30 3505 H 330.179 -0.832203 -3.99423 0
M  V30 3506 H 328.854 -1.94048 -3.67856 0
M  V30 3507 H 327.431 -0.109664 -3.72739 0
M  V30 3508 N 329.616 1.39756 -0.72842 0
M  V30 3509 C 330.863 2.00645 -0.273487 0
M  V30 3510 C 331.191 1.57786 1.13727 0
M  V30 3511 O 330.446 0.794886 1.7883 0
M  V30 3512 C 330.745 3.56002 -0.315776 0
M  V30 3513 C 330.411 4.18489 -1.67863 0
M  V30 3514 C 329.073 4.3527 -2.05166 0
M  V30 3515 C 331.425 4.53219 -2.57375 0
M  V30 3516 C 328.753 4.84069 -3.31503 0
M  V30 3517 C 331.105 5.03423 -3.83077 0
M  V30 3518 C 329.769 5.18413 -4.20481 0
M  V30 3519 H 329.039 0.734211 -0.100076 0
M  V30 3520 H 331.686 1.6718 -0.933972 0
M  V30 3521 H 329.991 3.89452 0.428285 0
M  V30 3522 H 331.688 4.00963 0.0542575 0
M  V30 3523 H 328.278 4.05824 -1.37858 0
M  V30 3524 H 332.462 4.39878 -2.29827 0
M  V30 3525 H 327.718 4.93859 -3.60435 0
M  V30 3526 H 331.892 5.2927 -4.52599 0
M  V30 3527 H 329.519 5.55987 -5.18443 0
M  V30 3528 N 331.094 0.475555 1.50254 0
M  V30 3529 C 332.024 -0.30611 2.31485 0
M  V30 3530 C 333.005 -0.986228 1.38591 0
M  V30 3531 O 334.19 -0.982541 1.67511 0
M  V30 3532 C 331.32 -1.38588 3.1845 0
M  V30 3533 C 330.274 -0.827115 4.19932 0
M  V30 3534 C 329.6 -2.00551 4.95665 0
M  V30 3535 C 330.9 0.16463 5.2204 0
M  V30 3536 H 332.594 0.371866 2.97082 0
M  V30 3537 H 330.14 0.180282 1.42867 0
M  V30 3538 H 332.093 -1.94023 3.74076 0
M  V30 3539 H 330.817 -2.09269 2.50747 0
M  V30 3540 H 329.476 -0.294702 3.65414 0
M  V30 3541 H 329.124 -2.6994 4.2443 0
M  V30 3542 H 328.824 -1.63784 5.64313 0
M  V30 3543 H 330.348 -2.56468 5.54127 0
M  V30 3544 H 331.762 -0.300699 5.72511 0
M  V30 3545 H 330.159 0.446813 5.98434 0
M  V30 3546 H 331.229 1.08905 4.72512 0
M  V30 3547 N 332.573 -1.56217 0.208337 0
M  V30 3548 C 333.82 -1.97949 -0.42692 0
M  V30 3549 C 334.148 -1.09562 -1.60706 0
M  V30 3550 O 333.403 -0.137616 -1.95216 0
M  V30 3551 C 333.702 -3.45441 -0.916797 0
M  V30 3552 C 333.368 -4.50646 0.151391 0
M  V30 3553 C 332.03 -4.79139 0.444867 0
M  V30 3554 C 334.382 -5.13811 0.874492 0
M  V30 3555 C 331.71 -5.68084 1.46619 0
M  V30 3556 C 334.062 -6.03861 1.88506 0
M  V30 3557 C 332.726 -6.30704 2.18559 0
M  V30 3558 H 331.996 -0.724345 -0.156221 0
M  V30 3559 H 334.643 -1.89006 0.308084 0
M  V30 3560 H 332.948 -3.51521 -1.73032 0
M  V30 3561 H 334.645 -3.75094 -1.41794 0
M  V30 3562 H 331.235 -4.28511 -0.0875068 0
M  V30 3563 H 335.419 -4.91879 0.660996 0
M  V30 3564 H 330.675 -5.87151 1.7048 0
M  V30 3565 H 334.849 -6.51861 2.45051 0
M  V30 3566 H 332.476 -6.99424 2.97843 0
M  V30 3567 N 334.051 0.0651679 -1.57465 0
M  V30 3568 C 335.014 1.06117 -2.03155 0
M  V30 3569 C 336.014 1.31204 -0.929632 0
M  V30 3570 O 337.204 1.26813 -1.19432 0
M  V30 3571 C 334.336 2.4032 -2.41783 0
M  V30 3572 H 335.529 0.667231 -2.92383 0
M  V30 3573 H 333.082 0.311075 -1.53173 0
M  V30 3574 H 333.817 2.84532 -1.55601 0
M  V30 3575 H 333.602 2.23451 -3.22199 0
M  V30 3576 H 335.092 3.11898 -2.77685 0
M  V30 3577 N 335.529 1.53961 0.336706 0
M  V30 3578 C 336.479 1.7881 1.41461 0
M  V30 3579 C 337.463 0.643561 1.47469 0
M  V30 3580 O 338.655 0.903166 1.52223 0
M  V30 3581 C 335.784 2.00722 2.78506 0
M  V30 3582 C 334.87 3.2126 2.76862 0
M  V30 3583 N 335.261 4.42588 2.44845 0
M  V30 3584 C 333.559 3.22568 3.08004 0
M  V30 3585 C 334.26 5.2447 2.51607 0
M  V30 3586 N 333.236 4.61344 2.87511 0
M  V30 3587 H 337.038 2.70205 1.15615 0
M  V30 3588 H 334.552 1.52978 0.545112 0
M  V30 3589 H 336.549 2.1666 3.5618 0
M  V30 3590 H 335.209 1.10573 3.05293 0
M  V30 3591 H 336.22 4.69819 2.17922 0
M  V30 3592 H 332.897 2.42409 3.39918 0
M  V30 3593 H 334.287 6.31324 2.29955 0
M  V30 3594 N 337.007 -0.598083 1.45811 0
M  V30 3595 C 338.256 -1.35295 1.49594 0
M  V30 3596 C 338.569 -1.95057 0.145679 0
M  V30 3597 O 339.775 -2.71431 0.0612099 0
M  V30 3598 C 338.231 -2.45124 2.63519 0
M  V30 3599 C 337.839 -1.91732 4.04899 0
M  V30 3600 C 339.583 -3.2205 2.76558 0
M  V30 3601 C 337.49 -2.991 5.1019 0
M  V30 3602 H 336.42 -0.508552 0.556679 0
M  V30 3603 H 339.071 -0.639977 1.71978 0
M  V30 3604 H 337.453 -3.19149 2.34435 0
M  V30 3605 H 338.627 -1.24352 4.43704 0
M  V30 3606 H 336.942 -1.27522 3.96393 0
M  V30 3607 H 339.539 -4.0215 3.52391 0
M  V30 3608 H 339.882 -3.73663 1.83526 0
M  V30 3609 H 340.415 -2.55127 3.05213 0
M  V30 3610 H 337.154 -2.52393 6.04961 0
M  V30 3611 H 336.674 -3.65017 4.75944 0
M  V30 3612 H 338.353 -3.63318 5.35359 0
M  V30 3613 N 338.485 -1.33259 -0.841409 0
M  V30 3614 C 339.713 -1.27605 -1.62864 0
M  V30 3615 C 340.128 0.153507 -1.88175 0
M  V30 3616 O 339.485 1.09485 -1.46011 0
M  V30 3617 C 339.536 -2.04596 -2.98031 0
M  V30 3618 O 339.257 -3.41975 -2.73834 0
M  V30 3619 C 340.758 -2.06122 -3.92465 0
M  V30 3620 H 337.978 -0.439718 -0.506842 0
M  V30 3621 H 340.522 -1.75591 -1.04824 0
M  V30 3622 H 338.677 -1.60299 -3.5268 0
M  V30 3623 H 339.091 -3.81549 -3.59889 0
M  V30 3624 H 340.565 -2.64451 -4.84531 0
M  V30 3625 H 341.042 -1.05083 -4.26444 0
M  V30 3626 H 341.648 -2.50427 -3.43753 0
M  V30 3627 N 339.963 1.05934 -1.16686 0
M  V30 3628 C 340.91 2.13499 -0.876748 0
M  V30 3629 C 341.88 1.65162 0.176299 0
M  V30 3630 O 343.065 1.90757 0.0407143 0
M  V30 3631 C 340.205 3.42912 -0.387967 0
M  V30 3632 C 339.318 4.04964 -1.50426 0
M  V30 3633 C 338.453 5.22266 -0.970125 0
M  V30 3634 C 337.492 5.76309 -2.06238 0
M  V30 3635 N 336.629 6.84922 -1.54356 0
M  V30 3636 H 341.469 2.37654 -1.7979 0
M  V30 3637 H 339.006 1.16598 -0.896843 0
M  V30 3638 H 340.964 4.17111 -0.086186 0
M  V30 3639 H 339.594 3.18963 0.496235 0
M  V30 3640 H 338.646 3.28277 -1.92193 0
M  V30 3641 H 339.958 4.41122 -2.32836 0
M  V30 3642 H 339.112 6.03506 -0.621743 0
M  V30 3643 H 337.851 4.87564 -0.115377 0
M  V30 3644 H 336.856 4.93704 -2.41942 0
M  V30 3645 H 338.081 6.13062 -2.92115 0
M  V30 3646 H 336.027 6.52131 -0.711406 0
M  V30 3647 H 335.944 7.20043 -2.30379 0
M  V30 3648 H 337.212 7.69832 -1.22387 0
M  V30 3649 N 341.441 0.965919 1.2453 0
M  V30 3650 C 342.852 0.665929 1.7442 0
M  V30 3651 C 343.203 -0.818407 1.78316 0
M  V30 3652 O 342.328 -1.64037 1.41141 0
M  V30 3653 C 342.923 1.20211 3.16757 0
M  V30 3654 C 341.482 0.952059 3.6416 0
M  V30 3655 C 340.629 1.33848 2.42858 0
M  V30 3656 H 343.58 1.14144 1.10258 0
M  V30 3657 H 343.601 0.567544 3.76244 0
M  V30 3658 H 343.113 2.28244 3.13889 0
M  V30 3659 H 341.214 -0.112821 3.72429 0
M  V30 3660 H 341.327 1.59645 4.51719 0
M  V30 3661 H 339.691 0.756864 2.43195 0
M  V30 3662 H 340.474 2.42827 2.42673 0
M  V30 3663 N 342.919 -1.39368 0.735821 0
M  V30 3664 C 343.829 -2.34395 0.0979693 0
M  V30 3665 C 344.845 -1.58361 -0.720968 0
M  V30 3666 O 346.021 -1.90648 -0.649245 0
M  V30 3667 C 343.086 -3.37393 -0.797916 0
M  V30 3668 C 342.147 -4.29287 0.0333662 0
M  V30 3669 C 341.38 -5.27365 -0.819854 0
M  V30 3670 O 341.603 -5.31959 -2.05855 0
M  V30 3671 O 340.537 -6.01389 -0.248079 0
M  V30 3672 H 344.363 -2.90601 0.882315 0
M  V30 3673 H 341.948 -1.40909 0.4965 0
M  V30 3674 H 343.83 -4.00505 -1.31048 0
M  V30 3675 H 342.505 -2.83571 -1.56106 0
M  V30 3676 H 341.412 -3.69395 0.591475 0
M  V30 3677 H 342.745 -4.86317 0.758752 0
M  V30 3678 N 344.397 -0.483516 -1.5 0
M  V30 3679 C 345.644 0.0671597 -2.02389 0
M  V30 3680 C 345.972 1.38597 -1.36459 0
M  V30 3681 O 345.227 1.89634 -0.483458 0
M  V30 3682 C 345.526 0.286226 -3.56252 0
M  V30 3683 C 345.192 -0.952416 -4.40726 0
M  V30 3684 C 343.854 -1.29199 -4.63531 0
M  V30 3685 C 346.206 -1.77655 -4.89988 0
M  V30 3686 C 343.534 -2.45553 -5.32842 0
M  V30 3687 C 345.886 -2.93147 -5.60578 0
M  V30 3688 C 344.55 -3.27505 -5.81633 0
M  V30 3689 H 343.82 0.0245755 -0.740592 0
M  V30 3690 H 346.467 -0.640124 -1.80485 0
M  V30 3691 H 344.772 1.07587 -3.76739 0
M  V30 3692 H 346.469 0.726473 -3.94365 0
M  V30 3693 H 343.059 -0.677881 -4.23205 0
M  V30 3694 H 347.243 -1.52737 -4.72213 0
M  V30 3695 H 342.499 -2.72431 -5.47349 0
M  V30 3696 H 346.673 -3.57344 -5.97727 0
M  V30 3697 H 344.3 -4.1777 -6.35116 0
M  V30 3698 N 345.875 1.56104 -0.216619 0
M  V30 3699 C 346.807 2.17339 0.72776 0
M  V30 3700 C 347.82 1.14109 1.16116 0
M  V30 3701 O 349.009 1.4111 1.09317 0
M  V30 3702 C 346.109 2.73818 1.99693 0
M  V30 3703 C 345.282 4.02168 1.71988 0
M  V30 3704 C 344.341 4.43259 2.83562 0
M  V30 3705 O 343.367 5.10257 2.52244 0
M  V30 3706 N 344.569 4.08535 4.12407 0
M  V30 3707 H 347.334 2.99005 0.203983 0
M  V30 3708 H 344.895 1.61861 -0.0354289 0
M  V30 3709 H 346.887 2.9828 2.73516 0
M  V30 3710 H 345.457 1.96483 2.43132 0
M  V30 3711 H 344.677 3.85612 0.818337 0
M  V30 3712 H 345.965 4.85907 1.50903 0
M  V30 3713 H 345.363 3.54687 4.40696 0
M  V30 3714 H 343.92 4.37901 4.8279 0
M  V30 3715 N 347.353 -0.0568162 1.57498 0
M  V30 3716 C 348.599 -0.75422 1.88253 0
M  V30 3717 C 348.932 -1.76461 0.810865 0
M  V30 3718 O 348.207 -1.93691 -0.177259 0
M  V30 3719 C 348.49 -1.44878 3.2967 0
M  V30 3720 C 348.343 -0.453789 4.47505 0
M  V30 3721 C 349.662 -2.38994 3.69554 0
M  V30 3722 H 346.781 -0.272724 0.684683 0
M  V30 3723 H 349.423 -0.0172113 1.89992 0
M  V30 3724 H 347.573 -2.077 3.28318 0
M  V30 3725 H 349.245 0.170371 4.60985 0
M  V30 3726 H 347.488 0.229552 4.33192 0
M  V30 3727 H 348.159 -0.977699 5.43273 0
M  V30 3728 H 350.635 -1.86239 3.72095 0
M  V30 3729 H 349.511 -2.84587 4.69363 0
M  V30 3730 H 349.772 -3.24461 3.00296 0
M  V30 3731 N 348.832 -1.54138 -0.328536 0
M  V30 3732 C 350.248 -1.44736 -0.672574 0
M  V30 3733 C 350.448 -0.616217 -1.91846 0
M  V30 3734 O 349.504 -0.113067 -2.52247 0
M  V30 3735 C 350.817 -2.884 -0.851217 0
M  V30 3736 C 352.365 -2.98271 -0.948877 0
M  V30 3737 C 352.84 -4.43074 -1.15973 0
M  V30 3738 N 354.331 -4.46665 -1.22658 0
M  V30 3739 C 355.066 -5.55857 -1.40751 0
M  V30 3740 N 354.562 -6.75026 -1.5592 0
M  V30 3741 N 356.355 -5.43495 -1.4342 0
M  V30 3742 H 348.506 -2.06661 0.490421 0
M  V30 3743 H 350.769 -0.934812 0.157579 0
M  V30 3744 H 350.475 -3.51699 -0.00704236 0
M  V30 3745 H 350.349 -3.34225 -1.74853 0
M  V30 3746 H 352.736 -2.35102 -1.78356 0
M  V30 3747 H 352.817 -2.55785 -0.0281435 0
M  V30 3748 H 352.461 -5.06827 -0.329915 0
M  V30 3749 H 352.391 -4.83165 -2.09426 0
M  V30 3750 H 354.882 -3.60797 -1.124 0
M  V30 3751 H 355.195 -7.54004 -1.69404 0
M  V30 3752 H 353.54 -6.77944 -1.53027 0
M  V30 3753 H 356.731 -4.49349 -1.31162 0
M  V30 3754 H 356.904 -6.28649 -1.57178 0
M  V30 3755 N 350.31 0.590341 -1.46126 0
M  V30 3756 C 351.556 1.34874 -1.52252 0
M  V30 3757 C 351.911 1.91658 -0.168807 0
M  V30 3758 O 351.204 1.73093 0.821556 0
M  V30 3759 C 351.398 2.5032 -2.55097 0
M  V30 3760 C 351.227 2.04843 -4.00337 0
M  V30 3761 C 349.997 1.90213 -4.68132 0
M  V30 3762 C 352.195 1.61267 -4.88362 0
M  V30 3763 N 350.177 1.38727 -5.9802 0
M  V30 3764 C 351.548 1.21319 -6.08015 0
M  V30 3765 C 353.603 1.49015 -4.75078 0
M  V30 3766 C 352.306 0.7034 -7.15852 0
M  V30 3767 C 354.332 0.994401 -5.8298 0
M  V30 3768 C 353.694 0.604659 -7.018 0
M  V30 3769 H 349.793 0.486803 -0.612002 0
M  V30 3770 H 352.377 0.673007 -1.82698 0
M  V30 3771 H 350.548 3.15466 -2.26574 0
M  V30 3772 H 352.28 3.1725 -2.51266 0
M  V30 3773 H 349.035 2.11927 -4.23537 0
M  V30 3774 H 349.459 1.15168 -6.67132 0
M  V30 3775 H 354.101 1.77768 -3.83612 0
M  V30 3776 H 351.819 0.403446 -8.07092 0
M  V30 3777 H 355.405 0.903621 -5.7474 0
M  V30 3778 H 354.285 0.226963 -7.83871 0
M  V30 3779 N 351.788 1.33704 0.83433 0
M  V30 3780 C 353.204 1.13137 1.12571 0
M  V30 3781 C 353.404 -0.0747261 2.01361 0
M  V30 3782 O 352.46 -0.753647 2.4099 0
M  V30 3783 C 353.773 2.42105 1.78342 0
M  V30 3784 C 355.321 2.48054 1.90888 0
M  V30 3785 C 355.796 3.76995 2.60075 0
M  V30 3786 N 357.287 3.78092 2.67584 0
M  V30 3787 C 358.022 4.74574 3.21818 0
M  V30 3788 N 357.518 5.81434 3.76705 0
M  V30 3789 N 359.311 4.62044 3.20112 0
M  V30 3790 H 351.462 2.11 0.243489 0
M  V30 3791 H 353.725 0.932532 0.17055 0
M  V30 3792 H 353.431 3.30391 1.20561 0
M  V30 3793 H 353.305 2.54594 2.7832 0
M  V30 3794 H 355.692 1.60215 2.47821 0
M  V30 3795 H 355.773 2.39502 0.898459 0
M  V30 3796 H 355.417 4.65219 2.03799 0
M  V30 3797 H 355.347 3.82825 3.61597 0
M  V30 3798 H 357.838 3.00865 2.28667 0
M  V30 3799 H 358.151 6.51084 4.16305 0
M  V30 3800 H 356.496 5.85163 3.7498 0
M  V30 3801 H 359.687 3.77716 2.76493 0
M  V30 3802 H 359.86 5.37406 3.62076 0
M  V30 3803 N 353.266 -1.05314 1.17247 0
M  V30 3804 C 354.512 -1.78699 0.971513 0
M  V30 3805 C 354.867 -1.85932 -0.494692 0
M  V30 3806 O 354.16 -1.34716 -1.36243 0
M  V30 3807 C 354.354 -3.2229 1.54479 0
M  V30 3808 C 354.183 -3.29052 3.06521 0
M  V30 3809 C 352.953 -3.3841 3.75242 0
M  V30 3810 C 355.151 -3.18095 4.04129 0
M  V30 3811 N 353.133 -3.34289 5.14902 0
M  V30 3812 C 354.504 -3.21331 5.30232 0
M  V30 3813 C 356.559 -3.02049 3.95817 0
M  V30 3814 C 355.262 -3.10169 6.4899 0
M  V30 3815 C 357.288 -2.92228 5.14156 0
M  V30 3816 C 356.65 -2.96096 6.39145 0
M  V30 3817 H 352.749 -0.66628 0.409383 0
M  V30 3818 H 355.333 -1.25553 1.4881 0
M  V30 3819 H 353.504 -3.7381 1.05455 0
M  V30 3820 H 355.236 -3.83905 1.28059 0
M  V30 3821 H 351.991 -3.43621 3.25917 0
M  V30 3822 H 352.415 -3.35702 5.87906 0
M  V30 3823 H 357.057 -2.97897 3.00029 0
M  V30 3824 H 354.775 -3.13076 7.44989 0
M  V30 3825 H 358.361 -2.80885 5.09505 0
M  V30 3826 H 357.241 -2.88568 7.29176 0
M  V30 3827 N 354.744 -0.972509 -1.24016 0
M  V30 3828 C 355.676 -0.464375 -2.24446 0
M  V30 3829 C 356.689 0.4295 -1.57032 0
M  V30 3830 O 357.878 0.234902 -1.76948 0
M  V30 3831 C 354.978 0.348385 -3.37105 0
M  V30 3832 C 354.151 -0.53673 -4.34094 0
M  V30 3833 C 353.21 0.220838 -5.25736 0
M  V30 3834 O 352.236 -0.386867 -5.67884 0
M  V30 3835 N 353.438 1.50907 -5.60542 0
M  V30 3836 H 356.203 -1.32788 -2.68677 0
M  V30 3837 H 353.764 -0.844877 -1.38107 0
M  V30 3838 H 355.756 0.863341 -3.95384 0
M  V30 3839 H 354.326 1.11285 -2.92121 0
M  V30 3840 H 353.546 -1.23261 -3.74433 0
M  V30 3841 H 354.834 -1.14022 -4.95859 0
M  V30 3842 H 354.232 2.02444 -5.28236 0
M  V30 3843 H 352.789 1.96962 -6.21329 0
M  V30 3844 N 356.222 1.38976 -0.743202 0
M  V30 3845 C 357.633 1.83123 -0.363732 0
M  V30 3846 C 357.984 1.6205 1.10609 0
M  V30 3847 O 357.109 1.11606 1.854 0
M  V30 3848 C 357.704 3.32439 -0.653408 0
M  V30 3849 C 356.263 3.74974 -0.327338 0
M  V30 3850 C 355.41 2.61878 -0.911875 0
M  V30 3851 H 358.361 1.27852 -0.940191 0
M  V30 3852 H 358.382 3.80432 0.0720031 0
M  V30 3853 H 357.894 3.47745 -1.72323 0
M  V30 3854 H 355.995 3.65252 0.736314 0
M  V30 3855 H 356.108 4.72106 -0.815631 0
M  V30 3856 H 354.472 2.52448 -0.337944 0
M  V30 3857 H 355.255 2.79987 -1.98651 0
M  V30 3858 N 357.7 0.491464 1.49741 0
M  V30 3859 C 358.648 -0.305837 2.30581 0
M  V30 3860 C 359.642 -0.971642 1.38764 0
M  V30 3861 O 360.848 -0.90042 1.5586 0
M  V30 3862 H 357.223 -0.117482 0.742767 0
M  V30 3863 H 359.194 0.396093 2.95759 0
M  V30 3864 C 357.943 -1.36319 3.19863 0
M  V30 3865 H 357.266 -0.860258 3.90435 0
M  V30 3866 H 358.706 -1.89323 3.79385 0
M  V30 3867 C 357.165 -2.37621 2.38826 0
M  V30 3868 O 357.695 -3.43311 2.08567 0
M  V30 3869 N 355.901 -2.09849 2.01026 0
M  V30 3870 H 355.448 -1.23922 2.25834 0
M  V30 3871 H 355.406 -2.77859 1.47112 0
M  V30 3872 N 359.178 -1.55987 0.224894 0
M  V30 3873 C 360.455 -1.90232 -0.455083 0
M  V30 3874 C 360.835 -1.14269 -1.77499 0
M  V30 3875 O 360.183 -0.253079 -2.27094 0
M  V30 3876 C 360.393 -3.42993 -0.644758 0
M  V30 3877 C 361.741 -4.13821 -0.950669 0
M  V30 3878 O 362.765 -3.4861 -0.731423 0
M  V30 3879 O 361.624 -5.29128 -1.36695 0
M  V30 3880 H 358.718 -0.79108 -0.241084 0
M  V30 3881 H 361.264 -1.67581 0.267327 0
M  V30 3882 H 360.036 -3.90252 0.28613 0
M  V30 3883 H 359.659 -3.71434 -1.41853 0
M  V30 3884 N 360.656 0.0484629 -1.57525 0
M  V30 3885 C 361.905 0.742065 -1.87553 0
M  V30 3886 C 362.218 1.77545 -0.820802 0
M  V30 3887 O 363.424 2.52027 -1.00967 0
M  V30 3888 C 361.88 1.37081 -3.32771 0
M  V30 3889 C 361.488 0.374786 -4.4643 0
M  V30 3890 C 363.232 2.04542 -3.71972 0
M  V30 3891 C 361.139 1.01077 -5.82698 0
M  V30 3892 H 360.069 0.280903 -0.699721 0
M  V30 3893 H 362.72 -0.00411877 -1.835 0
M  V30 3894 H 361.102 2.16605 -3.31509 0
M  V30 3895 H 362.276 -0.392331 -4.59127 0
M  V30 3896 H 360.591 -0.196653 -4.15935 0
M  V30 3897 H 363.188 2.52943 -4.71088 0
M  V30 3898 H 363.531 2.85515 -3.02964 0
M  V30 3899 H 364.064 1.31819 -3.75325 0
M  V30 3900 H 360.803 0.240878 -6.55057 0
M  V30 3901 H 360.323 1.74819 -5.73758 0
M  V30 3902 H 362.002 1.52383 -6.28799 0
M  V30 3903 N 362.134 1.5431 0.320358 0
M  V30 3904 C 363.097 1.83195 1.3774 0
M  V30 3905 C 364.097 0.703906 1.44575 0
M  V30 3906 O 365.287 0.972214 1.44546 0
M  V30 3907 C 362.419 1.99487 2.76438 0
M  V30 3908 H 363.612 2.77642 1.1338 0
M  V30 3909 H 361.165 1.46076 0.556012 0
M  V30 3910 H 361.9 1.07262 3.06048 0
M  V30 3911 H 361.685 2.81575 2.7287 0
M  V30 3912 H 363.175 2.23271 3.52902 0
M  V30 3913 N 363.613 -0.582584 1.46437 0
M  V30 3914 C 364.862 -1.337 1.5102 0
M  V30 3915 C 365.175 -1.94891 0.166359 0
M  V30 3916 O 366.381 -2.71351 0.0899954 0
M  V30 3917 C 364.837 -2.42315 2.66104 0
M  V30 3918 C 364.445 -1.87427 4.06909 0
M  V30 3919 C 366.189 -3.19099 2.79958 0
M  V30 3920 C 364.096 -2.93672 5.13333 0
M  V30 3921 H 363.026 -0.502619 0.562041 0
M  V30 3922 H 365.677 -0.621701 1.72647 0
M  V30 3923 H 364.059 -3.16645 2.37807 0
M  V30 3924 H 365.233 -1.19639 4.44998 0
M  V30 3925 H 363.548 -1.2331 3.97723 0
M  V30 3926 H 366.145 -3.9839 3.56636 0
M  V30 3927 H 366.488 -3.71695 1.87479 0
M  V30 3928 H 367.021 -2.51875 3.07902 0
M  V30 3929 H 363.76 -2.45962 6.07604 0
M  V30 3930 H 363.28 -3.59948 4.79789 0
M  V30 3931 H 364.959 -3.5762 5.39182 0
M  V30 3932 N 365.091 -1.34144 -0.827227 0
M  V30 3933 C 366.337 -1.27455 -1.58515 0
M  V30 3934 C 366.692 0.155271 -1.91772 0
M  V30 3935 O 365.985 1.10042 -1.56848 0
M  V30 3936 C 366.179 -2.09464 -2.89585 0
M  V30 3937 C 366.008 -3.60276 -2.69131 0
M  V30 3938 C 364.778 -4.29565 -2.66087 0
M  V30 3939 C 366.976 -4.54367 -2.40947 0
M  V30 3940 N 364.958 -5.66252 -2.37132 0
M  V30 3941 C 366.329 -5.79027 -2.21648 0
M  V30 3942 C 368.384 -4.43327 -2.26639 0
M  V30 3943 C 367.087 -6.93891 -1.89492 0
M  V30 3944 C 369.113 -5.58019 -1.95878 0
M  V30 3945 C 368.475 -6.81695 -1.774 0
M  V30 3946 H 364.574 -0.521614 -0.582617 0
M  V30 3947 H 367.158 -1.68811 -0.970105 0
M  V30 3948 H 365.329 -1.70411 -3.49019 0
M  V30 3949 H 367.061 -1.94453 -3.54923 0
M  V30 3950 H 363.816 -3.81959 -2.80008 0
M  V30 3951 H 364.24 -6.38338 -2.25507 0
M  V30 3952 H 368.882 -3.48333 -2.39633 0
M  V30 3953 H 366.6 -7.88871 -1.75236 0
M  V30 3954 H 370.186 -5.5142 -1.85546 0
M  V30 3955 H 369.066 -7.68942 -1.53941 0
M  V30 3956 N 366.569 1.04691 -1.17803 0
M  V30 3957 C 367.846 1.7472 -0.879328 0
M  V30 3958 C 368.226 2.01812 0.619271 0
M  V30 3959 O 367.574 1.65824 1.57209 0
M  V30 3960 C 367.784 3.03686 -1.71976 0
M  V30 3961 C 369.132 3.77542 -1.94286 0
M  V30 3962 O 370.156 3.13569 -1.68976 0
M  V30 3963 O 369.015 4.92506 -2.36855 0
M  V30 3964 H 366.109 0.760011 -0.326056 0
M  V30 3965 H 368.655 1.10813 -1.28525 0
M  V30 3966 H 367.427 2.79754 -2.73594 0
M  V30 3967 H 367.05 3.75332 -1.31194 0
M  V30 3968 N 368.047 0.979072 1.23499 0
M  V30 3969 C 368.995 0.510604 2.26926 0
M  V30 3970 C 369.989 -0.431691 1.63807 0
M  V30 3971 O 371.195 -0.30573 1.77385 0
M  V30 3972 H 367.57 0.146688 0.737554 0
M  V30 3973 H 369.541 1.39466 2.63803 0
M  V30 3974 C 368.29 -0.172658 3.47271 0
M  V30 3975 H 367.613 0.543331 3.96091 0
M  V30 3976 H 369.053 -0.464101 4.21452 0
M  V30 3977 C 367.512 -1.40345 3.06276 0
M  V30 3978 O 368.042 -2.49978 3.14442 0
M  V30 3979 N 366.248 -1.27362 2.61203 0
M  V30 3980 H 365.795 -0.381584 2.54758 0
M  V30 3981 H 365.753 -2.09822 2.34141 0
M  V30 3982 N 369.525 -1.3858 0.750561 0
M  V30 3983 C 370.941 -1.53759 0.427824 0
M  V30 3984 C 371.141 -1.71401 -1.05943 0
M  V30 3985 O 370.197 -1.72331 -1.84549 0
M  V30 3986 C 371.51 -2.74642 1.22443 0
M  V30 3987 C 373.058 -2.88489 1.2142 0
M  V30 3988 C 373.533 -4.12329 1.9937 0
M  V30 3989 N 375.024 -4.194 1.96616 0
M  V30 3990 C 375.759 -5.14209 2.53727 0
M  V30 3991 N 375.255 -6.14709 3.19539 0
M  V30 3992 N 377.048 -5.06537 2.43673 0
M  V30 3993 H 369.199 -1.25377 1.71447 0
M  V30 3994 H 371.462 -0.608844 0.726645 0
M  V30 3995 H 371.168 -2.68 2.27747 0
M  V30 3996 H 371.042 -3.67745 0.839273 0
M  V30 3997 H 373.429 -2.94614 0.169232 0
M  V30 3998 H 373.51 -1.96406 1.63885 0
M  V30 3999 H 373.154 -4.06966 3.03877 0
M  V30 4000 H 373.084 -5.03486 1.54302 0
M  V30 4001 H 375.575 -3.47421 1.48684 0
M  V30 4002 H 375.888 -6.8354 3.60545 0
M  V30 4003 H 374.233 -6.1505 3.23633 0
M  V30 4004 H 377.424 -4.26962 1.91889 0
M  V30 4005 H 377.597 -5.80245 2.88479 0
M  V30 4006 N 371.003 -0.499398 -1.49478 0
M  V30 4007 C 372.249 0.0457576 -2.02748 0
M  V30 4008 C 372.582 1.36793 -1.37846 0
M  V30 4009 O 371.857 1.87596 -0.513601 0
M  V30 4010 C 372.14 0.199986 -3.59544 0
M  V30 4011 C 371.993 -1.1452 -4.34977 0
M  V30 4012 C 373.312 0.94137 -4.29914 0
M  V30 4013 H 370.431 0.0151552 -0.736844 0
M  V30 4014 H 373.073 -0.650498 -1.78518 0
M  V30 4015 H 371.223 0.793007 -3.8032 0
M  V30 4016 H 372.895 -1.77697 -4.25701 0
M  V30 4017 H 371.138 -1.73488 -3.97598 0
M  V30 4018 H 371.809 -0.990607 -5.43039 0
M  V30 4019 H 374.285 0.43844 -4.13784 0
M  V30 4020 H 373.161 1.01812 -5.39375 0
M  V30 4021 H 373.422 1.98471 -3.95046 0
M  V30 4022 N 372.481 1.55866 -0.233164 0
M  V30 4023 C 373.709 2.02998 0.399905 0
M  V30 4024 C 374.124 1.11274 1.52524 0
M  V30 4025 O 373.481 0.124528 1.82075 0
M  V30 4026 C 373.532 3.4958 0.920639 0
M  V30 4027 O 373.253 4.37808 -0.159834 0
M  V30 4028 C 374.754 4.12411 1.62578 0
M  V30 4029 H 371.974 0.664006 0.0966281 0
M  V30 4030 H 374.518 2.0143 -0.353013 0
M  V30 4031 H 372.673 3.51727 1.62379 0
M  V30 4032 H 373.087 5.23981 0.23337 0
M  V30 4033 H 374.561 5.16711 1.94201 0
M  V30 4034 H 375.038 3.5809 2.54299 0
M  V30 4035 H 375.644 4.14148 0.967553 0
M  V30 4036 N 373.959 -0.0401083 1.57549 0
M  V30 4037 C 374.891 -1.07149 2.02612 0
M  V30 4038 C 375.904 -1.33126 0.937085 0
M  V30 4039 O 377.093 -1.30808 1.21456 0
M  V30 4040 C 374.193 -2.41561 2.37701 0
M  V30 4041 C 373.366 -2.35096 3.68848 0
M  V30 4042 C 372.425 -3.51867 3.91249 0
M  V30 4043 O 371.451 -3.3186 4.62447 0
M  V30 4044 N 372.653 -4.73351 3.36035 0
M  V30 4045 H 375.418 -0.687485 2.91708 0
M  V30 4046 H 372.979 -0.228248 1.60283 0
M  V30 4047 H 374.971 -3.18379 2.49833 0
M  V30 4048 H 373.541 -2.71846 1.54332 0
M  V30 4049 H 372.761 -1.4345 3.67173 0
M  V30 4050 H 374.049 -2.27908 4.54901 0
M  V30 4051 H 373.447 -4.92507 2.78304 0
M  V30 4052 H 372.004 -5.47572 3.53565 0
M  V30 4053 N 375.437 -1.54477 -0.31217 0
M  V30 4054 C 376.387 -1.81037 -1.38598 0
M  V30 4055 C 377.371 -0.666941 -1.46426 0
M  V30 4056 O 378.563 -0.927269 -1.50767 0
M  V30 4057 C 375.692 -2.05127 -2.75277 0
M  V30 4058 C 374.778 -3.25624 -2.71716 0
M  V30 4059 N 375.169 -4.46428 -2.37773 0
M  V30 4060 C 373.467 -3.27427 -3.02833 0
M  V30 4061 C 374.168 -5.28406 -2.43232 0
M  V30 4062 N 373.144 -4.6586 -2.80135 0
M  V30 4063 H 376.946 -2.7201 -1.11301 0
M  V30 4064 H 374.46 -1.53826 -0.520705 0
M  V30 4065 H 376.457 -2.22299 -3.52688 0
M  V30 4066 H 375.117 -1.15416 -3.03495 0
M  V30 4067 H 376.128 -4.73227 -2.1042 0
M  V30 4068 H 372.805 -2.47786 -3.36018 0
M  V30 4069 H 374.195 -6.34903 -2.19882 0
M  V30 4070 N 376.915 0.57481 -1.46744 0
M  V30 4071 C 378.145 1.35659 -1.55821 0
M  V30 4072 C 378.553 1.88129 -0.201036 0
M  V30 4073 O 377.896 1.64723 0.813134 0
M  V30 4074 C 377.958 2.57473 -2.50894 0
M  V30 4075 C 377.622 2.26415 -3.9697 0
M  V30 4076 C 378.619 1.84771 -4.85958 0
M  V30 4077 C 376.304 2.38316 -4.42166 0
M  V30 4078 C 378.298 1.55434 -6.18158 0
M  V30 4079 C 375.985 2.08591 -5.74398 0
M  V30 4080 C 376.983 1.67216 -6.62214 0
M  V30 4081 O 376.671 1.37859 -7.91991 0
M  V30 4082 H 376.403 0.420496 -0.529301 0
M  V30 4083 H 378.957 0.704967 -1.92923 0
M  V30 4084 H 377.187 3.25468 -2.08824 0
M  V30 4085 H 378.876 3.19546 -2.50291 0
M  V30 4086 H 379.642 1.75085 -4.52295 0
M  V30 4087 H 375.521 2.69483 -3.74032 0
M  V30 4088 H 379.065 1.23065 -6.86659 0
M  V30 4089 H 374.962 2.17905 -6.07608 0
M  V30 4090 H 375.73 1.51638 -8.04331 0
M  V30 4091 N 378.394 1.34581 0.820102 0
M  V30 4092 C 379.357 1.2628 1.91275 0
M  V30 4093 C 380.357 0.177344 1.59819 0
M  V30 4094 O 381.547 0.430156 1.68806 0
M  V30 4095 C 378.679 0.950327 3.27386 0
M  V30 4096 H 379.872 2.23421 2.00057 0
M  V30 4097 H 377.425 1.1891 1.0144 0
M  V30 4098 H 378.16 -0.0177938 3.24295 0
M  V30 4099 H 377.945 1.73549 3.51601 0
M  V30 4100 H 379.435 0.917492 4.07396 0
M  V30 4101 N 379.872 -1.04064 1.18357 0
M  V30 4102 C 380.82 -2.14187 0.907007 0
M  V30 4103 C 381.814 -1.68879 -0.132725 0
M  V30 4104 O 383.02 -1.79993 0.0154248 0
M  V30 4105 H 379.395 -0.699585 0.275835 0
M  V30 4106 H 381.366 -2.34711 1.84264 0
M  V30 4107 C 380.115 -3.44785 0.449254 0
M  V30 4108 H 379.438 -3.80058 1.24081 0
M  V30 4109 H 380.878 -4.22974 0.294737 0
M  V30 4110 C 379.337 -3.26391 -0.834909 0
M  V30 4111 O 379.867 -3.53973 -1.89911 0
M  V30 4112 N 378.073 -2.79726 -0.787523 0
M  V30 4113 H 377.62 -2.5748 0.0787347 0
M  V30 4114 H 377.578 -2.67798 -1.64716 0
M  V30 4115 N 381.35 -0.985608 -1.22978 0
M  V30 4116 C 382.313 -0.535071 -2.22867 0
M  V30 4117 C 383.313 0.378123 -1.56291 0
M  V30 4118 O 384.503 0.171092 -1.73358 0
M  V30 4119 C 381.635 0.222702 -3.40172 0
M  V30 4120 H 382.828 -1.41835 -2.6424 0
M  V30 4121 H 380.381 -0.772042 -1.35901 0
M  V30 4122 H 381.116 1.12229 -3.04262 0
M  V30 4123 H 380.901 -0.43288 -3.89703 0
M  V30 4124 H 382.391 0.526335 -4.1427 0
M  V30 4125 N 382.828 1.3818 -0.7579 0
M  V30 4126 C 384.105 1.94106 -0.241306 0
M  V30 4127 C 384.485 1.69282 1.26122 0
M  V30 4128 O 383.833 1.03378 2.03777 0
M  V30 4129 C 384.043 3.43809 -0.59967 0
M  V30 4130 C 385.391 4.20868 -0.561717 0
M  V30 4131 O 386.415 3.5211 -0.538222 0
M  V30 4132 O 385.274 5.43451 -0.576478 0
M  V30 4133 H 382.368 0.825376 -0.0518042 0
M  V30 4134 H 384.914 1.47548 -0.838315 0
M  V30 4135 H 383.686 3.55403 -1.6372 0
M  V30 4136 H 383.309 3.97592 0.0251197 0
M  V30 4137 N 384.306 0.507319 1.49211 0
M  V30 4138 C 385.536 -0.0315292 2.06576 0
M  V30 4139 C 385.944 -1.30791 1.36713 0
M  V30 4140 O 385.287 -1.78324 0.441181 0
M  V30 4141 C 385.349 -0.349104 3.57801 0
M  V30 4142 C 385.013 0.830475 4.49391 0
M  V30 4143 C 386.01 1.72271 4.90529 0
M  V30 4144 C 383.695 1.03107 4.91604 0
M  V30 4145 C 385.689 2.79964 5.72625 0
M  V30 4146 C 383.376 2.11116 5.73475 0
M  V30 4147 C 384.374 2.99379 6.1389 0
M  V30 4148 O 384.062 4.05523 6.94123 0
M  V30 4149 H 383.794 0.0201002 0.675701 0
M  V30 4150 H 386.348 0.705737 1.92895 0
M  V30 4151 H 384.578 -1.14005 3.69513 0
M  V30 4152 H 386.267 -0.827319 3.97379 0
M  V30 4153 H 387.033 1.57958 4.58557 0
M  V30 4154 H 382.912 0.353417 4.59643 0
M  V30 4155 H 386.456 3.48884 6.04091 0
M  V30 4156 H 382.353 2.25421 6.0486 0
M  V30 4157 H 383.121 4.02953 7.1244 0
M  V30 4158 N 385.784 -1.5574 0.241426 0
M  V30 4159 C 386.714 -2.24133 -0.654722 0
M  V30 4160 C 387.695 -1.21974 -1.1856 0
M  V30 4161 O 388.88 -1.50612 -1.22595 0
M  V30 4162 C 386.01 -2.93659 -1.85423 0
M  V30 4163 C 384.964 -4.0246 -1.45636 0
M  V30 4164 C 384.29 -4.59383 -2.73626 0
M  V30 4165 C 385.59 -5.18468 -0.631506 0
M  V30 4166 H 387.284 -2.99281 -0.0844353 0
M  V30 4167 H 384.83 -1.43947 -0.0391707 0
M  V30 4168 H 386.783 -3.40203 -2.48676 0
M  V30 4169 H 385.507 -2.15991 -2.44981 0
M  V30 4170 H 384.166 -3.56676 -0.847202 0
M  V30 4171 H 383.814 -3.78422 -3.3137 0
M  V30 4172 H 383.514 -5.32826 -2.4773 0
M  V30 4173 H 385.038 -5.08658 -3.37786 0
M  V30 4174 H 386.452 -5.61272 -1.1682 0
M  V30 4175 H 384.849 -5.98266 -0.468831 0
M  V30 4176 H 385.919 -4.8358 0.357506 0
M  V30 4177 N 387.262 0.0317525 -1.57568 0
M  V30 4178 C 388.673 0.578692 -1.77505 0
M  V30 4179 C 389.024 1.75749 -0.872164 0
M  V30 4180 O 388.149 2.16298 -0.0663106 0
M  V30 4181 C 388.744 1.05658 -3.21904 0
M  V30 4182 C 387.303 1.54906 -3.43047 0
M  V30 4183 C 386.45 0.485939 -2.73009 0
M  V30 4184 H 389.401 -0.194475 -1.57504 0
M  V30 4185 H 389.422 1.92404 -3.28269 0
M  V30 4186 H 388.934 0.198422 -3.87592 0
M  V30 4187 H 387.035 2.42915 -2.82529 0
M  V30 4188 H 387.148 1.59841 -4.5165 0
M  V30 4189 H 385.512 0.940354 -2.36705 0
M  V30 4190 H 386.295 -0.362709 -3.41379 0
M  V30 4191 N 388.74 1.54641 0.303973 0
M  V30 4192 C 389.672 1.81754 1.39636 0
M  V30 4193 C 390.685 0.70035 1.46966 0
M  V30 4194 O 391.874 0.97778 1.49338 0
M  V30 4195 C 388.974 1.93785 2.7803 0
M  V30 4196 C 388.147 3.24156 2.93669 0
M  V30 4197 C 387.206 3.26641 4.12544 0
M  V30 4198 O 386.232 4.00187 4.04771 0
M  V30 4199 N 387.434 2.5182 5.23036 0
M  V30 4200 H 390.199 2.76031 1.16734 0
M  V30 4201 H 387.76 1.54178 0.494033 0
M  V30 4202 H 389.752 1.92852 3.55795 0
M  V30 4203 H 388.322 1.06515 2.93893 0
M  V30 4204 H 387.542 3.37887 2.03042 0
M  V30 4205 H 388.83 4.10195 3.01027 0
M  V30 4206 H 388.228 1.91692 5.32232 0
M  V30 4207 H 386.785 2.56644 5.99147 0
M  V30 4208 N 390.218 -0.567019 1.47046 0
M  V30 4209 C 391.634 -0.891975 1.32348 0
M  V30 4210 C 391.834 -1.99154 0.306616 0
M  V30 4211 O 390.89 -2.50883 -0.28532 0
M  V30 4212 C 392.203 -1.29449 2.7141 0
M  V30 4213 C 393.751 -1.40646 2.79621 0
M  V30 4214 C 394.226 -1.84257 4.19301 0
M  V30 4215 N 395.717 -1.91424 4.21795 0
M  V30 4216 C 396.452 -2.26476 5.26779 0
M  V30 4217 N 395.948 -2.60211 6.42077 0
M  V30 4218 N 397.741 -2.27166 5.14152 0
M  V30 4219 H 389.892 0.159074 2.11803 0
M  V30 4220 H 392.155 0.00849752 0.947962 0
M  V30 4221 H 391.861 -0.560448 3.47206 0
M  V30 4222 H 391.735 -2.25273 3.02542 0
M  V30 4223 H 394.122 -2.13133 2.04104 0
M  V30 4224 H 394.203 -0.430339 2.52154 0
M  V30 4225 H 393.847 -1.12343 4.95319 0
M  V30 4226 H 393.777 -2.82855 4.44185 0
M  V30 4227 H 396.268 -1.6778 3.38612 0
M  V30 4228 H 396.581 -2.85956 7.17948 0
M  V30 4229 H 394.926 -2.57813 6.45413 0
M  V30 4230 H 398.117 -2.00244 4.23107 0
M  V30 4231 H 398.29 -2.54154 5.96079 0
M  V30 4232 N 391.696 -1.35014 -0.812953 0
M  V30 4233 C 393.112 -1.14914 -1.10757 0
M  V30 4234 C 393.312 0.0426818 -2.01455 0
M  V30 4235 O 392.368 0.715212 -2.42159 0
M  V30 4236 C 393.681 -2.44911 -1.74468 0
M  V30 4237 C 395.229 -2.5106 -1.86917 0
M  V30 4238 C 395.704 -3.81085 -2.54044 0
M  V30 4239 N 397.195 -3.82301 -2.61535 0
M  V30 4240 C 397.93 -4.79634 -3.14227 0
M  V30 4241 N 397.426 -5.87353 -3.67407 0
M  V30 4242 N 399.219 -4.67078 -3.12721 0
M  V30 4243 H 391.37 -2.1136 -0.20989 0
M  V30 4244 H 393.633 -0.935128 -0.155692 0
M  V30 4245 H 393.339 -3.32267 -1.15289 0
M  V30 4246 H 393.213 -2.58989 -2.74234 0
M  V30 4247 H 395.6 -1.64137 -2.45241 0
M  V30 4248 H 395.681 -2.40901 -0.860242 0
M  V30 4249 H 395.325 -4.68402 -1.96372 0
M  V30 4250 H 395.255 -3.88529 -3.55461 0
M  V30 4251 H 397.746 -3.04465 -2.23851 0
M  V30 4252 H 398.059 -6.57624 -4.05894 0
M  V30 4253 H 396.404 -5.91054 -3.65623 0
M  V30 4254 H 399.595 -3.82067 -2.70449 0
M  V30 4255 H 399.768 -5.43098 -3.53481 0
M  V30 4256 N 393.175 1.03435 -1.18907 0
M  V30 4257 C 394.424 1.76143 -0.982669 0
M  V30 4258 C 394.737 1.89416 0.487953 0
M  V30 4259 O 395.943 2.59041 0.813036 0
M  V30 4260 C 394.399 3.16722 -1.70924 0
M  V30 4261 C 394.007 3.11522 -3.21959 0
M  V30 4262 C 395.751 3.93764 -1.58588 0
M  V30 4263 C 393.658 4.46999 -3.87228 0
M  V30 4264 H 392.588 0.660292 -0.364047 0
M  V30 4265 H 395.239 1.158 -1.42347 0
M  V30 4266 H 393.621 3.775 -1.19623 0
M  V30 4267 H 394.795 2.60158 -3.80335 0
M  V30 4268 H 393.11 2.47978 -3.34508 0
M  V30 4269 H 395.707 4.93963 -2.04707 0
M  V30 4270 H 396.05 4.12794 -0.539142 0
M  V30 4271 H 396.583 3.39576 -2.07203 0
M  V30 4272 H 393.322 4.33174 -4.91976 0
M  V30 4273 H 392.842 4.98441 -3.33642 0
M  V30 4274 H 394.521 5.15898 -3.90459 0
M  V30 4275 N 394.653 0.992116 1.22453 0
M  V30 4276 C 395.586 0.486701 2.22949 0
M  V30 4277 C 396.564 -0.45259 1.56174 0
M  V30 4278 O 397.748 -0.378317 1.84665 0
M  V30 4279 C 394.875 -0.294537 3.37417 0
M  V30 4280 C 393.921 0.590628 4.22391 0
M  V30 4281 S 394.754 2.04546 4.94895 0
M  V30 4282 C 395.91 1.27369 6.12803 0
M  V30 4283 H 396.143 1.33828 2.65475 0
M  V30 4284 H 393.676 0.799023 1.32117 0
M  V30 4285 H 395.634 -0.739241 4.03789 0
M  V30 4286 H 394.295 -1.12139 2.934 0
M  V30 4287 H 393.488 -0.0104375 5.03999 0
M  V30 4288 H 393.09 0.972064 3.61147 0
M  V30 4289 H 395.382 0.540943 6.75337 0
M  V30 4290 H 396.325 2.06502 6.7732 0
M  V30 4291 H 396.733 0.787324 5.58983 0
M  V30 4292 N 396.131 -1.37776 0.765217 0
M  V30 4293 C 397.081 -2.2768 0.12075 0
M  V30 4294 C 398.065 -1.45778 -0.680988 0
M  V30 4295 O 399.257 -1.684 -0.545033 0
M  V30 4296 C 396.386 -3.34722 -0.762626 0
M  V30 4297 C 395.472 -4.24074 0.0465881 0
M  V30 4298 N 395.863 -4.93939 1.08892 0
M  V30 4299 C 394.161 -4.45643 -0.178418 0
M  V30 4300 C 394.862 -5.59845 1.57951 0
M  V30 4301 N 393.838 -5.36218 0.892797 0
M  V30 4302 H 397.64 -2.79166 0.918889 0
M  V30 4303 H 395.154 -1.50816 0.602353 0
M  V30 4304 H 397.151 -3.98031 -1.24005 0
M  V30 4305 H 395.811 -2.84793 -1.55959 0
M  V30 4306 H 396.822 -4.96572 1.47095 0
M  V30 4307 H 393.499 -4.06599 -0.9478 0
M  V30 4308 H 394.889 -6.25703 2.44838 0
M  V30 4309 N 397.609 -0.515225 -1.4894 0
M  V30 4310 C 399.025 -0.172099 -1.58669 0
M  V30 4311 C 399.225 1.32405 -1.51892 0
M  V30 4312 O 398.281 2.10116 -1.40027 0
M  V30 4313 C 399.594 -0.761533 -2.90897 0
M  V30 4314 C 401.142 -0.728926 -3.04394 0
M  V30 4315 C 401.617 -1.29667 -4.39261 0
M  V30 4316 N 403.108 -1.25799 -4.4579 0
M  V30 4317 C 403.843 -1.66733 -5.48623 0
M  V30 4318 N 403.339 -2.15327 -6.58488 0
M  V30 4319 N 405.132 -1.58061 -5.39419 0
M  V30 4320 H 397.283 -1.48778 -1.51588 0
M  V30 4321 H 399.546 -0.617968 -0.718901 0
M  V30 4322 H 399.252 -1.81136 -3.01468 0
M  V30 4323 H 399.126 -0.230106 -3.76497 0
M  V30 4324 H 401.513 0.312098 -2.93445 0
M  V30 4325 H 401.594 -1.29766 -2.20442 0
M  V30 4326 H 401.238 -2.33655 -4.50963 0
M  V30 4327 H 401.168 -0.703752 -5.21876 0
M  V30 4328 H 403.659 -0.902102 -3.66975 0
M  V30 4329 H 403.972 -2.44594 -7.33071 0
M  V30 4330 H 402.317 -2.19311 -6.59491 0
M  V30 4331 H 405.508 -1.19906 -4.52482 0
M  V30 4332 H 405.681 -1.90284 -6.19432 0
M  V30 4333 N 399.087 1.5561 -0.249682 0
M  V30 4334 C 400.05 2.20217 0.635394 0
M  V30 4335 C 401.05 1.17227 1.10066 0
M  V30 4336 O 402.24 1.42292 1.00492 0
M  V30 4337 C 399.372 2.84794 1.87363 0
M  V30 4338 H 400.565 2.99814 0.0716752 0
M  V30 4339 H 398.118 1.563 -0.000153234 0
M  V30 4340 H 398.853 2.09142 2.47851 0
M  V30 4341 H 398.638 3.60241 1.5482 0
M  V30 4342 H 400.128 3.3423 2.5036 0
M  V30 4343 N 400.565 -0.0233959 1.57583 0
M  V30 4344 C 401.793 -0.724682 1.93794 0
M  V30 4345 C 402.208 -1.68588 0.849912 0
M  V30 4346 O 401.565 -1.81676 -0.173204 0
M  V30 4347 C 401.616 -1.47684 3.29957 0
M  V30 4348 O 401.337 -0.554222 4.3458 0
M  V30 4349 C 402.838 -2.27477 3.80485 0
M  V30 4350 H 400.058 -0.203317 0.639455 0
M  V30 4351 H 402.602 0.0207653 2.04489 0
M  V30 4352 H 400.757 -2.17412 3.20641 0
M  V30 4353 H 401.171 -1.08232 5.13212 0
M  V30 4354 H 402.645 -2.7564 4.78254 0
M  V30 4355 H 403.122 -3.09144 3.11972 0
M  V30 4356 H 403.728 -1.62813 3.92902 0
M  V30 4357 N 402.043 -1.548 -0.295768 0
M  V30 4358 C 403.292 -1.73538 -1.02798 0
M  V30 4359 C 403.605 -0.531159 -1.8825 0
M  V30 4360 O 404.811 -0.600458 -2.64777 0
M  V30 4361 C 403.267 -3.07051 -1.87744 0
M  V30 4362 C 402.875 -4.34968 -1.07269 0
M  V30 4363 C 404.619 -3.35146 -2.60533 0
M  V30 4364 C 402.526 -5.5953 -1.91521 0
M  V30 4365 H 401.456 -0.646794 -0.387522 0
M  V30 4366 H 404.107 -1.81278 -0.284718 0
M  V30 4367 H 402.489 -2.93289 -2.66078 0
M  V30 4368 H 403.663 -4.5958 -0.335117 0
M  V30 4369 H 401.978 -4.13847 -0.460384 0
M  V30 4370 H 404.575 -4.2541 -3.23929 0
M  V30 4371 H 404.918 -2.54255 -3.29636 0
M  V30 4372 H 405.451 -3.49902 -1.89244 0
M  V30 4373 H 402.19 -6.43103 -1.26878 0
M  V30 4374 H 401.71 -5.39096 -2.62937 0
M  V30 4375 H 403.389 -5.96982 -2.49442 0
M  V30 4376 N 403.521 0.559213 -1.47345 0
M  V30 4377 C 404.451 1.67622 -1.62558 0
M  V30 4378 C 405.432 1.63331 -0.475087 0
M  V30 4379 O 406.617 1.80983 -0.704182 0
M  V30 4380 C 403.747 3.0626 -1.63774 0
M  V30 4381 C 402.701 3.25397 -2.7803 0
M  V30 4382 C 402.027 4.64801 -2.64318 0
M  V30 4383 C 403.327 3.10965 -4.19641 0
M  V30 4384 H 405.021 1.55146 -2.56067 0
M  V30 4385 H 402.567 0.744961 -1.23233 0
M  V30 4386 H 404.52 3.84247 -1.73008 0
M  V30 4387 H 403.244 3.1969 -0.66825 0
M  V30 4388 H 401.903 2.49817 -2.68304 0
M  V30 4389 H 401.551 4.75028 -1.65401 0
M  V30 4390 H 401.251 4.78555 -3.40968 0
M  V30 4391 H 402.775 5.44926 -2.75478 0
M  V30 4392 H 404.189 3.78772 -4.30354 0
M  V30 4393 H 402.586 3.36229 -4.97062 0
M  V30 4394 H 403.656 2.07736 -4.38148 0
M  V30 4395 N 404.999 1.35443 0.805782 0
M  V30 4396 C 406.247 1.28507 1.55982 0
M  V30 4397 C 406.568 -0.140046 1.94496 0
M  V30 4398 O 405.838 -1.07666 1.63661 0
M  V30 4399 H 404.418 0.472676 0.578434 0
M  V30 4400 H 407.08 1.69555 0.961098 0
M  V30 4401 H 406.176 1.90148 2.47488 0
M  V30 4402 N 406.477 -1.02803 1.19454 0
M  V30 4403 C 407.754 -1.73299 0.907013 0
M  V30 4404 C 408.134 -2.02772 -0.587086 0
M  V30 4405 O 407.482 -1.68304 -1.54551 0
M  V30 4406 C 407.692 -3.00912 1.76785 0
M  V30 4407 C 409.04 -3.74403 2.00268 0
M  V30 4408 O 410.064 -3.10841 1.73943 0
M  V30 4409 O 408.923 -4.88675 2.4466 0
M  V30 4410 H 406.017 -0.754727 0.338106 0
M  V30 4411 H 408.563 -1.08754 1.30271 0
M  V30 4412 H 407.335 -2.75366 2.7801 0
M  V30 4413 H 406.958 -3.73197 1.37149 0
M  V30 4414 N 407.956 -0.998596 -1.21925 0
M  V30 4415 C 408.903 -0.553621 -2.24062 0
M  V30 4416 C 409.873 0.416999 -1.6078 0
M  V30 4417 O 411.058 0.320482 -1.88089 0
M  V30 4418 C 408.198 0.119959 -3.44891 0
M  V30 4419 C 407.311 -0.893077 -4.22668 0
M  V30 4420 C 406.446 -0.192424 -5.30851 0
M  V30 4421 C 405.485 -1.19344 -6.00353 0
M  V30 4422 N 404.622 -0.520707 -7.00166 0
M  V30 4423 H 409.462 -1.4293 -2.61486 0
M  V30 4424 H 406.999 -0.715838 -1.28507 0
M  V30 4425 H 408.957 0.527459 -4.13852 0
M  V30 4426 H 407.587 0.959389 -3.08214 0
M  V30 4427 H 406.639 -1.41886 -3.52948 0
M  V30 4428 H 407.951 -1.65512 -4.70539 0
M  V30 4429 H 407.105 0.271515 -6.06092 0
M  V30 4430 H 405.844 0.602075 -4.83969 0
M  V30 4431 H 404.849 -1.66795 -5.23889 0
M  V30 4432 H 406.074 -1.98891 -6.49322 0
M  V30 4433 H 404.02 0.254252 -6.55507 0
M  V30 4434 H 403.937 -1.2211 -7.46073 0
M  V30 4435 H 405.205 -0.0797596 -7.79459 0
M  V30 4436 N 409.434 1.37368 -0.772513 0
M  V30 4437 C 410.845 1.8231 -0.402493 0
M  V30 4438 C 411.196 1.6436 1.07146 0
M  V30 4439 O 410.321 1.15514 1.82991 0
M  V30 4440 C 410.916 3.30979 -0.723776 0
M  V30 4441 C 409.475 3.74195 -0.406802 0
M  V30 4442 C 408.622 2.59885 -0.967218 0
M  V30 4443 H 411.573 1.25829 -0.967099 0
M  V30 4444 H 411.594 3.80499 -0.00870832 0
M  V30 4445 H 411.106 3.44011 -1.7966 0
M  V30 4446 H 409.207 3.66732 0.658673 0
M  V30 4447 H 409.32 4.7027 -0.915588 0
M  V30 4448 H 407.684 2.51674 -0.391416 0
M  V30 4449 H 408.467 2.7571 -2.04546 0
M  V30 4450 N 410.912 0.523116 1.48665 0
M  V30 4451 C 412.159 -0.0134763 2.02496 0
M  V30 4452 C 412.487 -1.3493 1.40086 0
M  V30 4453 O 411.742 -1.88286 0.533567 0
M  V30 4454 C 412.041 -0.191671 3.56886 0
M  V30 4455 C 411.707 1.06893 4.38046 0
M  V30 4456 C 410.369 1.41443 4.59943 0
M  V30 4457 C 412.721 1.90584 4.85106 0
M  V30 4458 C 410.049 2.59594 5.26144 0
M  V30 4459 C 412.401 3.07907 5.52609 0
M  V30 4460 C 411.065 3.42811 5.72745 0
M  V30 4461 H 410.335 -0.00493133 0.740984 0
M  V30 4462 H 412.982 0.687751 1.78724 0
M  V30 4463 H 411.287 -0.97561 3.79459 0
M  V30 4464 H 412.984 -0.621659 3.96152 0
M  V30 4465 H 409.574 0.789848 4.21259 0
M  V30 4466 H 413.758 1.65203 4.67997 0
M  V30 4467 H 409.014 2.86847 5.39934 0
M  V30 4468 H 413.188 3.73066 5.88043 0
M  V30 4469 H 410.815 4.34462 6.23816 0
M  V30 4470 N 412.39 -1.55475 0.257931 0
M  V30 4471 C 413.62 -2.03314 -0.367026 0
M  V30 4472 C 414.028 -1.13625 -1.51281 0
M  V30 4473 O 413.371 -0.145334 -1.83124 0
M  V30 4474 C 413.433 -3.47362 -0.926284 0
M  V30 4475 C 413.097 -4.56914 0.0886584 0
M  V30 4476 C 414.094 -5.12013 0.902123 0
M  V30 4477 C 411.779 -5.01827 0.217936 0
M  V30 4478 C 413.773 -6.10529 1.83122 0
M  V30 4479 C 411.46 -6.00172 1.15052 0
M  V30 4480 C 412.458 -6.54402 1.95568 0
M  V30 4481 O 412.146 -7.50827 2.87253 0
M  V30 4482 H 411.878 -0.669976 -0.0900443 0
M  V30 4483 H 414.432 -2.01804 0.382673 0
M  V30 4484 H 412.662 -3.46056 -1.72575 0
M  V30 4485 H 414.351 -3.78637 -1.46249 0
M  V30 4486 H 415.117 -4.78139 0.812891 0
M  V30 4487 H 410.996 -4.59272 -0.398721 0
M  V30 4488 H 414.54 -6.52783 2.46008 0
M  V30 4489 H 410.437 -6.33465 1.24064 0
M  V30 4490 H 411.205 -7.68483 2.81739 0
M  V30 4491 N 413.868 0.0150385 -1.57593 0
M  V30 4492 C 415.284 0.370907 -1.5523 0
M  V30 4493 C 415.484 1.75735 -0.985882 0
M  V30 4494 O 414.54 2.44944 -0.613077 0
M  V30 4495 C 415.853 0.259908 -2.99575 0
M  V30 4496 C 417.401 0.335959 -3.11192 0
M  V30 4497 C 417.876 0.254253 -4.57294 0
M  V30 4498 N 419.367 0.312618 -4.62144 0
M  V30 4499 C 420.102 0.272505 -5.72752 0
M  V30 4500 N 419.598 0.183864 -6.92556 0
M  V30 4501 N 421.391 0.323267 -5.6117 0
M  V30 4502 H 413.542 -0.892104 -1.92757 0
M  V30 4503 H 415.805 -0.340563 -0.884715 0
M  V30 4504 H 415.511 -0.693403 -3.44797 0
M  V30 4505 H 415.385 1.048 -3.62349 0
M  V30 4506 H 417.772 1.27971 -2.65909 0
M  V30 4507 H 417.853 -0.481739 -2.51223 0
M  V30 4508 H 417.497 -0.685887 -5.03247 0
M  V30 4509 H 417.427 1.09024 -5.15191 0
M  V30 4510 H 419.918 0.38307 -3.75953 0
M  V30 4511 H 420.231 0.15874 -7.72637 0
M  V30 4512 H 418.576 0.149708 -6.94839 0
M  V30 4513 H 421.767 0.390607 -4.66467 0
M  V30 4514 H 421.94 0.288539 -6.47357 0
M  V30 4515 N 415.346 1.54954 0.287554 0
M  V30 4516 C 416.309 1.86076 1.33823 0
M  V30 4517 C 417.309 0.734414 1.43049 0
M  V30 4518 O 418.499 1.00266 1.42452 0
M  V30 4519 C 415.631 2.05305 2.72144 0
M  V30 4520 H 416.824 2.79984 1.07465 0
M  V30 4521 H 414.377 1.47223 0.524902 0
M  V30 4522 H 415.112 1.1373 3.03704 0
M  V30 4523 H 414.897 2.873 2.66836 0
M  V30 4524 H 416.387 2.30706 3.48087 0
M  V30 4525 N 416.824 -0.551391 1.4764 0
M  V30 4526 C 418.072 -1.30572 1.54258 0
M  V30 4527 C 418.393 -1.93877 0.208963 0
M  V30 4528 O 417.663 -1.80234 -0.767619 0
M  V30 4529 H 416.243 -0.484894 0.568231 0
M  V30 4530 H 418.905 -0.643402 1.83974 0
M  V30 4531 H 418.001 -2.09621 2.31226 0
M  V30 4532 O 418.341 -1.45728 -0.696113 0
M  V30 4533 H 419.032 -1.39109 -1.3479 0
M  V30 END ATOM
M  V30 BEGIN BOND
M  V30 END BOND
M  V30 END CTAB
M  END
$$$$
