drugbank_target|P23904 Beta-glucanase (DB02379)
 OpenBabel12092119573D

  0  0  0     0  0            999 V3000
M  V30 BEGIN CTAB
M  V30 COUNTS 3658 3719 0 0 0
M  V30 BEGIN ATOM
M  V30 1 H -0.908 1.98254 -0.117106 0
M  V30 2 N 0 1.576 0 0
M  V30 3 C 0.933 2.03868 1.02534 0
M  V30 4 C 1.911 0.928543 1.3348 0
M  V30 5 O 3.095 1.19667 1.45644 0
M  V30 6 C 0.222 2.43627 2.35294 0
M  V30 7 C -0.732 3.65373 2.2001 0
M  V30 8 S 0.101 5.13292 1.52614 0
M  V30 9 C 1.257 5.56322 2.86805 0
M  V30 10 H 1.49 2.90518 0.631377 0
M  V30 11 H -0.977 1.52953 0.210867 0
M  V30 12 H 0.981 2.67203 3.11629 0
M  V30 13 H -0.358 1.57376 2.7183 0
M  V30 14 H -1.165 3.90944 3.18086 0
M  V30 15 H -1.563 3.418 1.51819 0
M  V30 16 H 0.729 5.58782 3.83104 0
M  V30 17 H 1.672 6.56266 2.65933 0
M  V30 18 H 2.08 4.83886 2.90714 0
M  V30 19 N 1.4781 -0.272755 1.55222 0
M  V30 20 C 2.4251 -1.33716 1.88119 0
M  V30 21 C 3.3951 -1.49066 0.73271 0
M  V30 22 O 4.5801 -1.63469 0.984002 0
M  V30 23 C 1.7201 -2.69238 2.15882 0
M  V30 24 C 0.8331 -2.62108 3.43399 0
M  V30 25 C -0.0319 -3.89811 3.60861 0
M  V30 26 C -0.9929 -3.77193 4.8207 0
M  V30 27 N -1.8559 -4.9673 4.96189 0
M  V30 28 H 2.9841 -1.04962 2.78903 0
M  V30 29 H 0.5211 -0.507088 1.38083 0
M  V30 30 H 2.4791 -3.48089 2.29978 0
M  V30 31 H 1.1091 -2.96194 1.28331 0
M  V30 32 H 0.1611 -1.74967 3.37773 0
M  V30 33 H 1.4731 -2.48685 4.32386 0
M  V30 34 H 0.6271 -4.77103 3.74777 0
M  V30 35 H -0.6339 -4.06102 2.7006 0
M  V30 36 H -1.6289 -2.88284 4.68159 0
M  V30 37 H -0.4039 -3.62421 5.74307 0
M  V30 38 H -2.4579 -5.13431 4.08319 0
M  V30 39 H -2.5409 -4.85839 5.79221 0
M  V30 40 H -1.2729 -5.85594 5.1449 0
M  V30 41 N 2.9562 -1.48159 -0.537278 0
M  V30 42 C 3.9032 -1.62138 -1.64256 0
M  V30 43 C 4.8732 -0.463668 -1.59497 0
M  V30 44 O 6.0582 -0.686241 -1.78032 0
M  V30 45 C 3.1982 -1.66028 -3.02537 0
M  V30 46 C 2.3112 -2.92855 -3.17585 0
M  V30 47 C 1.4462 -2.87952 -4.46382 0
M  V30 48 C 0.4852 -4.09516 -4.54932 0
M  V30 49 N -0.3778 -4.02733 -5.75109 0
M  V30 50 H 4.4622 -2.56529 -1.51647 0
M  V30 51 H 1.9992 -1.27224 -0.738414 0
M  V30 52 H 3.9572 -1.66265 -3.82638 0
M  V30 53 H 2.5872 -0.751331 -3.13934 0
M  V30 54 H 1.6392 -3.02395 -2.30784 0
M  V30 55 H 2.9512 -3.82822 -3.19764 0
M  V30 56 H 2.1052 -2.8655 -5.34765 0
M  V30 57 H 0.8442 -1.95702 -4.46712 0
M  V30 58 H -0.1508 -4.11201 -3.64957 0
M  V30 59 H 1.0742 -5.02917 -4.56346 0
M  V30 60 H -0.9798 -3.13299 -5.76351 0
M  V30 61 H -1.0628 -4.86397 -5.78752 0
M  V30 62 H 0.2052 -4.05379 -6.65799 0
M  V30 63 N 4.4343 0.785586 -1.36625 0
M  V30 64 C 5.3813 1.89838 -1.31264 0
M  V30 65 C 6.3513 1.65115 -0.180633 0
M  V30 66 O 7.5363 1.87222 -0.36777 0
M  V30 67 C 4.6763 3.26706 -1.11163 0
M  V30 68 C 3.7893 3.63476 -2.33472 0
M  V30 69 C 2.9243 4.89481 -2.06353 0
M  V30 70 C 1.9633 5.18941 -3.24602 0
M  V30 71 N 1.1003 6.36131 -2.97123 0
M  V30 72 H 5.9403 1.93756 -2.26413 0
M  V30 73 H 3.4773 0.947454 -1.12524 0
M  V30 74 H 5.4353 4.05639 -0.975337 0
M  V30 75 H 4.0653 3.222 -0.196674 0
M  V30 76 H 3.1173 2.79636 -2.57891 0
M  V30 77 H 4.4293 3.81193 -3.21704 0
M  V30 78 H 3.5833 5.76288 -1.89675 0
M  V30 79 H 2.3223 4.73841 -1.15437 0
M  V30 80 H 1.3273 4.30615 -3.41834 0
M  V30 81 H 2.5523 5.36498 -4.16349 0
M  V30 82 H 0.4983 6.21875 -2.08823 0
M  V30 83 H 0.4153 6.54198 -3.78894 0
M  V30 84 H 1.6833 7.2591 -2.84033 0
M  V30 85 N 5.9124 1.20967 1.01018 0
M  V30 86 C 7.1374 1.0503 1.78839 0
M  V30 87 C 7.5624 -0.395752 1.8389 0
M  V30 88 O 6.9204 -1.28529 1.27867 0
M  V30 89 C 6.9684 1.64602 3.2084 0
M  V30 90 O 6.0724 0.887988 4.02726 0
M  V30 91 H 5.4134 0.369987 0.551367 0
M  V30 92 H 7.9434 1.60399 1.27018 0
M  V30 93 H 7.9534 1.68607 3.71532 0
M  V30 94 H 6.6284 2.69841 3.16479 0
M  V30 95 H 5.2054 0.922648 3.61305 0
M  V30 96 N 7.3905 -1.2043 1.01659 0
M  V30 97 C 8.6305 -1.91507 0.714456 0
M  V30 98 C 8.9945 -1.77073 -0.742237 0
M  V30 99 O 10.1955 -2.42631 -1.15688 0
M  V30 100 C 8.4665 -3.38795 1.13809 0
M  V30 101 S 10.0255 -4.28216 0.957925 0
M  V30 102 H 6.8435 -0.661571 0.260471 0
M  V30 103 H 9.4455 -1.45671 1.30384 0
M  V30 104 H 8.1495 -3.46822 2.19415 0
M  V30 105 H 7.6805 -3.89656 0.541474 0
M  V30 106 H 9.6955 -4.96007 -0.138531 0
M  V30 107 N 8.8686 -0.792821 -1.36206 0
M  V30 108 C 10.1156 -0.366786 -1.99151 0
M  V30 109 C 10.4436 1.06243 -1.62919 0
M  V30 110 O 9.6986 1.74927 -0.877442 0
M  V30 111 C 9.9976 -0.481501 -3.54142 0
M  V30 112 C 9.6636 -1.87202 -4.10203 0
M  V30 113 C 8.3256 -2.25248 -4.25226 0
M  V30 114 C 10.6776 -2.78237 -4.40719 0
M  V30 115 C 8.0056 -3.53723 -4.68078 0
M  V30 116 C 10.3576 -4.06144 -4.85005 0
M  V30 117 C 9.0216 -4.44207 -4.98234 0
M  V30 118 H 8.2916 -0.134217 -0.728743 0
M  V30 119 H 10.9386 -1.01094 -1.62641 0
M  V30 120 H 9.2436 0.246146 -3.91026 0
M  V30 121 H 10.9406 -0.132844 -4.0078 0
M  V30 122 H 7.5306 -1.56639 -3.98951 0
M  V30 123 H 11.7146 -2.50097 -4.28679 0
M  V30 124 H 6.9706 -3.8308 -4.76508 0
M  V30 125 H 11.1446 -4.76796 -5.07581 0
M  V30 126 H 8.7716 -5.43814 -5.31197 0
M  V30 127 N 10.3467 1.47872 -0.545128 0
M  V30 128 C 11.5747 2.06889 -0.021084 0
M  V30 129 C 11.9897 1.39955 1.2672 0
M  V30 130 O 11.3467 0.492036 1.75742 0
M  V30 131 C 11.3977 3.60996 0.190817 0
M  V30 132 O 11.1187 4.25419 -1.04644 0
M  V30 133 C 12.6197 4.36849 0.753521 0
M  V30 134 H 9.8397 0.669785 -0.0403635 0
M  V30 135 H 12.3837 1.90049 -0.755095 0
M  V30 136 H 10.5387 3.77391 0.87492 0
M  V30 137 H 10.9527 5.17785 -0.836611 0
M  V30 138 H 12.4267 5.45399 0.851139 0
M  V30 139 H 12.9037 4.02306 1.762 0
M  V30 140 H 13.5097 4.25169 0.105503 0
M  V30 141 N 11.8248 0.280983 1.55075 0
M  V30 142 C 12.7548 -0.597469 2.25727 0
M  V30 143 C 13.7358 -1.15417 1.24952 0
M  V30 144 O 14.9208 -1.18722 1.53684 0
M  V30 145 C 12.0508 -1.7789 2.98283 0
M  V30 146 C 11.0048 -1.35347 4.06036 0
M  V30 147 C 10.3308 -2.61846 4.66198 0
M  V30 148 C 11.6308 -0.499354 5.19907 0
M  V30 149 H 13.3248 -0.00824265 2.99399 0
M  V30 150 H 10.8708 -0.0025244 1.44 0
M  V30 151 H 12.8238 -2.39937 3.46422 0
M  V30 152 H 11.5478 -2.39405 2.22155 0
M  V30 153 H 10.2068 -0.756156 3.58717 0
M  V30 154 H 9.8548 -3.21632 3.86732 0
M  V30 155 H 9.5548 -2.3409 5.38958 0
M  V30 156 H 11.0788 -3.24732 5.1709 0
M  V30 157 H 12.4928 -1.02498 5.64063 0
M  V30 158 H 10.8898 -0.316424 5.99265 0
M  V30 159 H 11.9598 0.480459 4.82514 0
M  V30 160 N 13.3029 -1.57598 0.00835791 0
M  V30 161 C 14.5489 -1.91211 -0.675732 0
M  V30 162 C 14.8819 -0.883139 -1.72958 0
M  V30 163 O 14.1569 0.097016 -1.94258 0
M  V30 164 C 14.4399 -3.35379 -1.31123 0
M  V30 165 C 14.2929 -4.48999 -0.268356 0
M  V30 166 C 15.6119 -3.7912 -2.23508 0
M  V30 167 H 12.7309 -0.695374 -0.244179 0
M  V30 168 H 15.3729 -1.89901 0.0613655 0
M  V30 169 H 13.5229 -3.36626 -1.93946 0
M  V30 170 H 15.1949 -4.59887 0.360844 0
M  V30 171 H 13.4379 -4.31873 0.408482 0
M  V30 172 H 14.1089 -5.46851 -0.752218 0
M  V30 173 H 16.5849 -3.79477 -1.70693 0
M  V30 174 H 15.4609 -4.80729 -2.64936 0
M  V30 175 H 15.7219 -3.13455 -3.11766 0
M  V30 176 N 14.781 0.264519 -1.55364 0
M  V30 177 C 16.009 1.013 -1.80405 0
M  V30 178 C 16.424 1.79618 -0.581622 0
M  V30 179 O 15.781 1.76879 0.449468 0
M  V30 180 C 15.832 1.96487 -3.03439 0
M  V30 181 O 15.553 1.21341 -4.20961 0
M  V30 182 C 17.054 2.83079 -3.41147 0
M  V30 183 H 14.274 0.298875 -0.600762 0
M  V30 184 H 16.818 0.292736 -2.02394 0
M  V30 185 H 14.973 2.63965 -2.83551 0
M  V30 186 H 15.387 1.85573 -4.90574 0
M  V30 187 H 16.861 3.4565 -4.30384 0
M  V30 188 H 17.338 3.53286 -2.60932 0
M  V30 189 H 17.944 2.2108 -3.63323 0
M  V30 190 N 16.2591 1.48442 0.529413 0
M  V30 191 C 17.4871 1.60151 1.30994 0
M  V30 192 C 17.9021 0.261985 1.86973 0
M  V30 193 O 17.2591 -0.748805 1.66431 0
M  V30 194 C 17.3101 2.64854 2.46038 0
M  V30 195 O 17.0311 3.93608 1.92365 0
M  V30 196 C 18.5321 2.87007 3.37849 0
M  V30 197 H 15.7521 0.539971 0.398338 0
M  V30 198 H 18.2961 1.94273 0.638597 0
M  V30 199 H 16.4511 2.33589 3.09055 0
M  V30 200 H 16.8651 4.51055 2.67675 0
M  V30 201 H 18.3391 3.64068 4.14919 0
M  V30 202 H 18.8161 1.95852 3.93114 0
M  V30 203 H 19.4221 3.19579 2.80623 0
M  V30 204 N 17.7372 -0.778329 1.37039 0
M  V30 205 C 18.9842 -1.53665 1.31884 0
M  V30 206 C 19.3122 -1.9425 -0.0986303 0
M  V30 207 O 18.5672 -1.63832 -1.07041 0
M  V30 208 C 18.8662 -2.81845 2.19768 0
M  V30 209 C 18.5322 -2.60345 3.68146 0
M  V30 210 C 17.1942 -2.5419 4.08584 0
M  V30 211 C 19.5462 -2.40923 4.62175 0
M  V30 212 C 16.8742 -2.26594 5.41177 0
M  V30 213 C 19.2262 -2.14852 5.94997 0
M  V30 214 C 17.8902 -2.07137 6.34547 0
M  V30 215 H 17.1602 -0.562299 0.482598 0
M  V30 216 H 19.8072 -0.897069 1.69189 0
M  V30 217 H 18.1122 -3.50328 1.75436 0
M  V30 218 H 19.8092 -3.39692 2.13097 0
M  V30 219 H 16.3992 -2.65996 3.36072 0
M  V30 220 H 20.5832 -2.44673 4.31797 0
M  V30 221 H 15.8392 -2.19111 5.70789 0
M  V30 222 H 20.0132 -1.98822 6.67415 0
M  V30 223 H 17.6402 -1.85518 7.37216 0
M  V30 224 N 19.2153 -1.21501 -1.00376 0
M  V30 225 C 20.1783 -0.976927 -2.07337 0
M  V30 226 C 21.1783 0.0525322 -1.60714 0
M  V30 227 O 22.3683 -0.184869 -1.73216 0
M  V30 228 C 19.5003 -0.473423 -3.37597 0
M  V30 229 H 20.6933 -1.92587 -2.29892 0
M  V30 230 H 18.2463 -1.03217 -1.17371 0
M  V30 231 H 18.9813 0.480379 -3.20722 0
M  V30 232 H 18.7663 -1.216 -3.72768 0
M  V30 233 H 20.2563 -0.32675 -4.1632 0
M  V30 234 N 20.6934 1.19889 -1.02296 0
M  V30 235 C 21.9404 1.8942 -0.715972 0
M  V30 236 C 22.2684 1.79251 0.754944 0
M  V30 237 O 21.5234 1.17526 1.56481 0
M  V30 238 C 21.8224 3.39883 -1.10518 0
M  V30 239 C 21.4884 3.70254 -2.57337 0
M  V30 240 C 20.1504 3.78254 -2.97452 0
M  V30 241 C 22.5024 3.84052 -3.52354 0
M  V30 242 C 19.8304 3.97514 -4.31509 0
M  V30 243 C 22.1824 4.04824 -4.86108 0
M  V30 244 C 20.8464 4.11054 -5.25919 0
M  V30 245 H 20.1164 0.693138 -0.261993 0
M  V30 246 H 22.7634 1.42012 -1.28472 0
M  V30 247 H 21.0684 3.8915 -0.454953 0
M  V30 248 H 22.7654 3.9199 -0.845261 0
M  V30 249 H 19.3554 3.64632 -2.25258 0
M  V30 250 H 23.5394 3.77221 -3.22518 0
M  V30 251 H 18.7954 4.00574 -4.61898 0
M  V30 252 H 22.9694 4.14442 -5.59653 0
M  V30 253 H 20.5964 4.2573 -6.29808 0
M  V30 254 N 22.1715 0.800033 1.35784 0
M  V30 255 C 23.3965 0.388511 2.03729 0
M  V30 256 C 23.8215 -0.990481 1.5991 0
M  V30 257 O 23.1795 -1.64013 0.772612 0
M  V30 258 C 23.2275 0.4726 3.5749 0
M  V30 259 O 22.3315 -0.51646 4.09153 0
M  V30 260 H 21.6725 0.163271 0.643614 0
M  V30 261 H 24.2025 1.0841 1.73518 0
M  V30 262 H 24.2125 0.34003 4.06581 0
M  V30 263 H 22.8875 1.47848 3.88734 0
M  V30 264 H 21.4645 -0.344673 3.71304 0
M  V30 265 N 23.6496 -1.47581 0.552962 0
M  V30 266 C 24.5796 -2.32762 -0.185451 0
M  V30 267 C 25.5606 -1.43527 -0.912905 0
M  V30 268 O 26.7456 -1.72388 -0.894201 0
M  V30 269 C 23.8756 -3.25219 -1.21859 0
M  V30 270 C 22.8296 -4.23661 -0.607864 0
M  V30 271 C 22.1556 -5.05413 -1.74533 0
M  V30 272 C 23.4556 -5.20481 0.435582 0
M  V30 273 H 25.1496 -2.94749 0.525684 0
M  V30 274 H 22.6956 -1.41738 0.254251 0
M  V30 275 H 24.6486 -3.8365 -1.7433 0
M  V30 276 H 23.3726 -2.61279 -1.95961 0
M  V30 277 H 22.0316 -3.66451 -0.104489 0
M  V30 278 H 21.6796 -4.3788 -2.47529 0
M  V30 279 H 21.3796 -5.72059 -1.34249 0
M  V30 280 H 22.9036 -5.66701 -2.27338 0
M  V30 281 H 24.3176 -5.733 -0.00290157 0
M  V30 282 H 22.7146 -5.95305 0.757067 0
M  V30 283 H 23.7846 -4.66217 1.33303 0
M  V30 284 N 25.1277 -0.289203 -1.54924 0
M  V30 285 C 26.3767 0.324231 -1.99077 0
M  V30 286 C 26.6897 1.5591 -1.18117 0
M  V30 287 O 27.8957 2.24637 -1.52481 0
M  V30 288 C 26.3517 0.628209 -3.54375 0
M  V30 289 C 25.9597 -0.587647 -4.44129 0
M  V30 290 C 27.7037 1.20349 -4.07083 0
M  V30 291 C 25.6107 -0.257475 -5.90839 0
M  V30 292 H 24.5407 0.124924 -0.743579 0
M  V30 293 H 27.1917 -0.396063 -1.79175 0
M  V30 294 H 25.5737 1.40778 -3.70132 0
M  V30 295 H 26.7477 -1.36418 -4.40144 0
M  V30 296 H 25.0627 -1.08074 -4.0213 0
M  V30 297 H 27.6597 1.46456 -5.14252 0
M  V30 298 H 28.0027 2.14195 -3.56968 0
M  V30 299 H 28.5357 0.485889 -3.94821 0
M  V30 300 H 25.2747 -1.16419 -6.45079 0
M  V30 301 H 24.7947 0.482018 -5.9786 0
M  V30 302 H 26.4737 0.145238 -6.46837 0
M  V30 303 N 26.6058 1.57591 -0.0167156 0
M  V30 304 C 27.8528 1.91283 0.664597 0
M  V30 305 C 28.1808 0.891949 1.72842 0
M  V30 306 O 27.4358 -0.100931 1.9544 0
M  V30 307 C 27.7348 3.3172 1.33029 0
M  V30 308 C 27.4008 4.4914 0.398047 0
M  V30 309 C 26.0628 4.80992 0.141421 0
M  V30 310 C 28.4148 5.20634 -0.242825 0
M  V30 311 C 25.7428 5.81703 -0.764092 0
M  V30 312 C 28.0948 6.22311 -1.13632 0
M  V30 313 C 26.7588 6.52611 -1.40196 0
M  V30 314 H 26.0288 0.699956 0.243193 0
M  V30 315 H 28.6758 1.9135 -0.0758267 0
M  V30 316 H 26.9808 3.27856 2.14517 0
M  V30 317 H 28.6778 3.55055 1.86379 0
M  V30 318 H 25.2678 4.24262 0.608238 0
M  V30 319 H 29.4518 4.96267 -0.0576019 0
M  V30 320 H 24.7078 6.03532 -0.977732 0
M  V30 321 H 28.8818 6.76834 -1.63917 0
M  V30 322 H 26.5088 7.30467 -2.10529 0
M  V30 323 N 28.0839 -0.256276 1.55502 0
M  V30 324 C 29.3089 -1.00766 1.81276 0
M  V30 325 C 29.7339 -1.78524 0.59252 0
M  V30 326 O 29.0919 -1.75413 -0.45827 0
M  V30 327 C 29.1399 -1.92869 3.04687 0
M  V30 328 O 28.2439 -3.019 2.80945 0
M  V30 329 H 27.5849 -0.287224 0.598664 0
M  V30 330 H 30.1149 -0.280109 2.02674 0
M  V30 331 H 30.1249 -2.34511 3.33869 0
M  V30 332 H 28.7999 -1.35689 3.93143 0
M  V30 333 H 27.3769 -2.64454 2.62904 0
M  V30 334 N 29.562 -1.4872 -0.521534 0
M  V30 335 C 30.808 -1.574 -1.27879 0
M  V30 336 C 31.141 -0.250817 -1.92573 0
M  V30 337 O 30.416 0.743934 -1.79711 0
M  V30 338 C 30.699 -2.71843 -2.36164 0
M  V30 339 C 30.552 -4.13893 -1.76105 0
M  V30 340 C 31.871 -2.82008 -3.37875 0
M  V30 341 H 28.99 -0.572941 -0.463581 0
M  V30 342 H 31.632 -1.80927 -0.580119 0
M  V30 343 H 29.782 -2.51914 -2.95756 0
M  V30 344 H 31.454 -4.45284 -1.20499 0
M  V30 345 H 29.697 -4.20498 -1.06601 0
M  V30 346 H 30.368 -4.89804 -2.5455 0
M  V30 347 H 32.844 -3.00086 -2.88249 0
M  V30 348 H 31.72 -3.63796 -4.11028 0
M  V30 349 H 31.981 -1.90511 -3.98946 0
M  V30 350 N 31.0401 0.771051 -1.3745 0
M  V30 351 C 32.2651 1.56529 -1.36065 0
M  V30 352 C 32.6901 1.88029 0.0515859 0
M  V30 353 O 32.0481 1.49282 1.02882 0
M  V30 354 C 32.0961 2.85187 -2.20683 0
M  V30 355 O 31.2001 3.79593 -1.61193 0
M  V30 356 H 30.5411 0.47411 -0.464883 0
M  V30 357 H 33.0711 0.954269 -1.80983 0
M  V30 358 H 33.0811 3.34283 -2.33921 0
M  V30 359 H 31.7561 2.61588 -3.23334 0
M  V30 360 H 30.3331 3.38239 -1.56999 0
M  V30 361 N 32.5182 1.22032 0.997298 0
M  V30 362 C 33.4812 0.987909 2.06816 0
M  V30 363 C 34.4812 -0.0440084 1.6074 0
M  V30 364 O 35.6712 0.194053 1.73116 0
M  V30 365 C 32.8032 0.49132 3.37341 0
M  V30 366 H 33.9962 1.93803 2.28868 0
M  V30 367 H 31.5492 1.03838 1.16822 0
M  V30 368 H 32.2842 -0.463364 3.20973 0
M  V30 369 H 32.0692 1.23575 3.72118 0
M  V30 370 H 33.5592 0.348824 4.16141 0
M  V30 371 N 33.9963 -1.19345 1.0293 0
M  V30 372 C 34.9263 -2.2481 0.631105 0
M  V30 373 C 35.9073 -1.66245 -0.360104 0
M  V30 374 O 37.0923 -1.92677 -0.242726 0
M  V30 375 C 34.2223 -3.47295 -0.0184607 0
M  V30 376 C 33.1763 -4.18536 0.895073 0
M  V30 377 C 32.5023 -5.34586 0.110592 0
M  V30 378 C 33.8023 -4.73287 2.209 0
M  V30 379 H 35.4963 -2.58372 1.51275 0
M  V30 380 H 33.0423 -1.24194 0.728818 0
M  V30 381 H 34.9953 -4.20268 -0.308675 0
M  V30 382 H 33.7193 -3.12933 -0.934907 0
M  V30 383 H 32.3783 -3.47446 1.16949 0
M  V30 384 H 32.0263 -4.96469 -0.807902 0
M  V30 385 H 31.7263 -5.83183 0.719087 0
M  V30 386 H 33.2503 -6.10355 -0.172871 0
M  V30 387 H 34.6643 -5.38013 1.98028 0
M  V30 388 H 33.0613 -5.32373 2.76946 0
M  V30 389 H 34.1313 -3.91331 2.86336 0
M  V30 390 N 35.4744 -0.807222 -1.35358 0
M  V30 391 C 36.4374 -0.223665 -2.28106 0
M  V30 392 C 37.4374 0.589354 -1.4961 0
M  V30 393 O 38.6274 0.407745 -1.69361 0
M  V30 394 C 35.7594 0.688149 -3.33882 0
M  V30 395 H 36.9524 -1.04169 -2.81227 0
M  V30 396 H 34.5054 -0.577921 -1.45223 0
M  V30 397 H 35.2404 1.52984 -2.85948 0
M  V30 398 H 35.0254 0.10687 -3.91954 0
M  V30 399 H 36.5154 1.09075 -4.03104 0
M  V30 400 N 36.9525 1.47285 -0.560781 0
M  V30 401 C 38.2005 2.02064 -0.0379868 0
M  V30 402 C 38.5215 1.43711 1.31803 0
M  V30 403 O 37.7915 0.61362 1.86042 0
M  V30 404 H 36.3715 0.746918 -0.0110531 0
M  V30 405 H 39.0335 1.80648 -0.731598 0
M  V30 406 H 38.1295 3.12064 0.0474463 0
M  V30 407 N 38.4306 0.297415 1.54768 0
M  V30 408 C 39.6556 -0.318435 2.04941 0
M  V30 409 C 40.0806 -1.4701 1.17345 0
M  V30 410 O 39.4386 -1.80436 0.176758 0
M  V30 411 C 39.4866 -0.755749 3.52592 0
M  V30 412 O 38.5906 -1.86088 3.68028 0
M  V30 413 H 37.9316 -0.062421 0.661059 0
M  V30 414 H 40.4616 0.438215 1.99852 0
M  V30 415 H 40.4716 -1.04552 3.94376 0
M  V30 416 H 39.1466 0.0867233 4.1581 0
M  V30 417 H 37.7236 -1.57193 3.38149 0
M  V30 418 N 39.9087 -1.5758 0.0250728 0
M  V30 419 C 41.1547 -1.91917 -0.655413 0
M  V30 420 C 41.4877 -0.901433 -1.72011 0
M  V30 421 O 40.7627 0.0764069 -1.9435 0
M  V30 422 C 41.0457 -3.36751 -1.27558 0
M  V30 423 C 40.8987 -4.49258 -0.220719 0
M  V30 424 C 42.2177 -3.81469 -2.19475 0
M  V30 425 H 39.3367 -0.697925 -0.23679 0
M  V30 426 H 41.9787 -1.89825 0.0815036 0
M  V30 427 H 40.1287 -3.38664 -1.90365 0
M  V30 428 H 41.8007 -4.59478 0.409601 0
M  V30 429 H 40.0437 -4.31415 0.454264 0
M  V30 430 H 40.7147 -5.47618 -0.694175 0
M  V30 431 H 43.1907 -3.81266 -1.66659 0
M  V30 432 H 42.0667 -4.83512 -2.59822 0
M  V30 433 H 42.3277 -3.16744 -3.08424 0
M  V30 434 N 41.3868 0.248026 -1.55636 0
M  V30 435 C 42.6338 0.976224 -1.77415 0
M  V30 436 C 42.9618 1.85361 -0.589193 0
M  V30 437 O 42.2168 1.90973 0.427529 0
M  V30 438 C 42.5158 1.86819 -3.04686 0
M  V30 439 C 42.1818 1.14625 -4.36087 0
M  V30 440 C 40.8438 0.946723 -4.71795 0
M  V30 441 C 43.1958 0.634463 -5.17324 0
M  V30 442 C 40.5238 0.223091 -5.86276 0
M  V30 443 C 42.8758 -0.0756959 -6.32555 0
M  V30 444 C 41.5398 -0.286711 -6.66884 0
M  V30 445 H 40.8098 0.357226 -0.649208 0
M  V30 446 H 43.4568 0.246415 -1.89908 0
M  V30 447 H 41.7618 2.66502 -2.872 0
M  V30 448 H 43.4588 2.43329 -3.18735 0
M  V30 449 H 40.0488 1.3117 -4.08035 0
M  V30 450 H 44.2328 0.77616 -4.90193 0
M  V30 451 H 39.4888 0.0491185 -6.1138 0
M  V30 452 H 43.6628 -0.479899 -6.94745 0
M  V30 453 H 41.2898 -0.849389 -7.5544 0
M  V30 454 N 42.8649 1.48995 0.513639 0
M  V30 455 C 44.1109 1.59053 1.26783 0
M  V30 456 C 44.4659 0.268136 1.90522 0
M  V30 457 O 43.7589 -0.730534 1.77126 0
M  V30 458 C 43.9529 2.67756 2.36731 0
M  V30 459 C 43.7819 4.10437 1.83771 0
M  V30 460 C 42.5519 4.7738 1.65639 0
M  V30 461 C 44.7499 4.9608 1.35681 0
M  V30 462 N 42.7319 6.04419 1.07476 0
M  V30 463 C 44.1029 6.13496 0.895715 0
M  V30 464 C 46.1579 4.82177 1.24136 0
M  V30 465 C 44.8609 7.1854 0.3306 0
M  V30 466 C 46.8869 5.87358 0.690229 0
M  V30 467 C 46.2489 7.03993 0.239292 0
M  V30 468 H 42.3479 0.636463 0.454355 0
M  V30 469 H 44.9319 1.85948 0.577196 0
M  V30 470 H 43.1029 2.42655 3.03271 0
M  V30 471 H 44.8349 2.67406 3.0377 0
M  V30 472 H 41.5899 4.33974 1.8964 0
M  V30 473 H 42.0139 6.72214 0.803579 0
M  V30 474 H 46.6559 3.92329 1.57601 0
M  V30 475 H 44.3739 8.08098 -0.0163435 0
M  V30 476 H 47.9599 5.78658 0.603852 0
M  V30 477 H 46.8399 7.83992 -0.180526 0
M  V30 478 N 44.343 -0.763751 1.37857 0
M  V30 479 C 45.253 -1.90817 1.36478 0
M  V30 480 C 46.269 -1.71997 0.263248 0
M  V30 481 O 47.445 -1.95095 0.499979 0
M  V30 482 C 44.51 -3.2605 1.17864 0
M  V30 483 C 43.571 -3.57467 2.3773 0
M  V30 484 C 42.804 -4.86249 2.19995 0
M  V30 485 O 43.027 -5.57884 1.18836 0
M  V30 486 O 41.961 -5.16911 3.08361 0
M  V30 487 H 45.787 -1.94933 2.32884 0
M  V30 488 H 43.372 -0.907619 1.1867 0
M  V30 489 H 45.254 -4.06924 1.09504 0
M  V30 490 H 43.929 -3.22769 0.245372 0
M  V30 491 H 42.836 -2.76796 2.51664 0
M  V30 492 H 44.169 -3.655 3.29652 0
M  V30 493 N 45.8211 -1.22559 -0.990812 0
M  V30 494 C 47.2321 -1.04791 -1.54518 0
M  V30 495 C 47.5831 0.387998 -1.92325 0
M  V30 496 O 46.7081 1.27328 -1.74976 0
M  V30 497 C 47.3031 -1.896 -2.80779 0
M  V30 498 C 45.8621 -1.76124 -3.32652 0
M  V30 499 C 45.0091 -1.8594 -2.05722 0
M  V30 500 H 47.9601 -1.36374 -0.811662 0
M  V30 501 H 47.9811 -1.41464 -3.53225 0
M  V30 502 H 47.4931 -2.94101 -2.53231 0
M  V30 503 H 45.5941 -0.743643 -3.65104 0
M  V30 504 H 45.7071 -2.58913 -4.03114 0
M  V30 505 H 44.0711 -1.29403 -2.19379 0
M  V30 506 H 44.8541 -2.91976 -1.80568 0
M  V30 507 N 47.2992 1.18797 -1.03562 0
M  V30 508 C 48.2292 2.24472 -0.643019 0
M  V30 509 C 49.2102 1.66433 0.351283 0
M  V30 510 O 50.3952 1.92803 0.232505 0
M  V30 511 C 47.5252 3.473 4.24935e-05 0
M  V30 512 C 46.4792 4.18055 -0.917257 0
M  V30 513 C 45.8052 5.34519 -0.138941 0
M  V30 514 C 47.1052 4.72109 -2.23407 0
M  V30 515 H 48.7992 2.57566 -1.52643 0
M  V30 516 H 46.3452 1.23806 -0.735394 0
M  V30 517 H 48.2982 4.20426 0.286383 0
M  V30 518 H 47.0222 3.13424 0.918299 0
M  V30 519 H 45.6812 3.46821 -1.1879 0
M  V30 520 H 45.3292 4.96891 0.781562 0
M  V30 521 H 45.0292 5.82794 -0.750005 0
M  V30 522 H 46.5532 6.10438 0.1405 0
M  V30 523 H 47.9672 5.36955 -2.00879 0
M  V30 524 H 46.3642 5.30897 -2.79765 0
M  V30 525 H 47.4342 3.89807 -2.88407 0
M  V30 526 N 48.7773 0.814389 1.34928 0
M  V30 527 C 50.0023 0.410097 2.03305 0
M  V30 528 C 50.4273 -0.973464 1.60951 0
M  V30 529 O 49.7853 -1.63185 0.789964 0
M  V30 530 C 49.8333 0.51049 3.56968 0
M  V30 531 O 48.9373 -0.473035 4.09678 0
M  V30 532 H 48.2783 0.170088 0.641846 0
M  V30 533 H 50.8083 1.10244 1.72358 0
M  V30 534 H 50.8183 0.383135 4.06197 0
M  V30 535 H 49.4933 1.51963 3.87144 0
M  V30 536 H 48.0703 -0.305272 3.71648 0
M  V30 537 N 50.2554 -1.46986 0.568584 0
M  V30 538 C 51.4854 -2.0653 0.0539173 0
M  V30 539 C 51.8934 -1.42004 -1.25026 0
M  V30 540 O 51.2364 -0.514541 -1.76347 0
M  V30 541 C 51.2984 -3.58938 -0.200854 0
M  V30 542 C 50.9624 -4.45572 1.01559 0
M  V30 543 C 51.9594 -4.82986 1.92407 0
M  V30 544 C 49.6444 -4.8692 1.23346 0
M  V30 545 C 51.6384 -5.60559 3.03402 0
M  V30 546 C 49.3254 -5.64255 2.34649 0
M  V30 547 C 50.3234 -6.00986 3.24507 0
M  V30 548 O 50.0114 -6.76761 4.33878 0
M  V30 549 H 49.7434 -0.674292 0.0480234 0
M  V30 550 H 52.2974 -1.89812 0.784896 0
M  V30 551 H 50.5274 -3.73911 -0.986279 0
M  V30 552 H 52.2164 -4.0046 -0.662294 0
M  V30 553 H 52.9824 -4.51633 1.76785 0
M  V30 554 H 48.8614 -4.57789 0.543178 0
M  V30 555 H 52.4054 -5.89147 3.73565 0
M  V30 556 H 48.3024 -5.95021 2.5024 0
M  V30 557 H 49.0704 -6.95168 4.32068 0
M  V30 558 N 51.7335 -0.305618 -1.54608 0
M  V30 559 C 52.9805 0.302298 -2.00231 0
M  V30 560 C 53.3085 1.5354 -1.19398 0
M  V30 561 O 52.5635 1.93973 -0.259423 0
M  V30 562 C 52.8625 0.698983 -3.50498 0
M  V30 563 C 52.5285 -0.432903 -4.48817 0
M  V30 564 C 51.1905 -0.743622 -4.75419 0
M  V30 565 C 53.5425 -1.19409 -5.07337 0
M  V30 566 C 50.8705 -1.81857 -5.57804 0
M  V30 567 C 53.2225 -2.25899 -5.90891 0
M  V30 568 C 51.8865 -2.57572 -6.15803 0
M  V30 569 H 51.1565 0.110619 -0.732697 0
M  V30 570 H 53.8035 -0.425674 -1.86709 0
M  V30 571 H 52.1085 1.50711 -3.61654 0
M  V30 572 H 53.8055 1.1806 -3.83227 0
M  V30 573 H 50.3955 -0.18063 -4.28219 0
M  V30 574 H 54.5795 -0.967295 -4.86782 0
M  V30 575 H 49.8355 -2.06864 -5.75341 0
M  V30 576 H 54.0095 -2.85335 -6.35261 0
M  V30 577 H 51.6365 -3.40998 -6.7943 0
M  V30 578 N 53.2116 1.57565 -0.0334293 0
M  V30 579 C 54.1596 2.1164 0.96496 0
M  V30 580 C 55.1536 1.04398 1.33407 0
M  V30 581 O 56.3596 1.22828 1.3158 0
M  V30 582 H 52.7346 0.676222 0.32898 0
M  V30 583 H 54.7056 2.94455 0.483614 0
M  V30 584 C 53.4546 2.66207 2.23672 0
M  V30 585 H 52.7776 3.48378 1.96145 0
M  V30 586 H 54.2176 3.07685 2.9173 0
M  V30 587 C 52.6766 1.59151 2.96939 0
M  V30 588 O 53.2066 0.993858 3.89211 0
M  V30 589 N 51.4126 1.31093 2.59351 0
M  V30 590 H 50.9596 1.7988 1.84393 0
M  V30 591 H 50.9176 0.596889 3.08682 0
M  V30 592 N 54.6897 -0.239769 1.55765 0
M  V30 593 C 56.1057 -0.588624 1.48349 0
M  V30 594 C 56.3057 -1.88005 0.72502 0
M  V30 595 O 55.3617 -2.51186 0.257269 0
M  V30 596 C 56.6747 -0.68474 2.928 0
M  V30 597 C 58.2227 -0.77659 3.03213 0
M  V30 598 C 58.6977 -0.904207 4.48986 0
M  V30 599 N 60.1887 -0.968896 4.52953 0
M  V30 600 C 60.9237 -1.08703 5.63002 0
M  V30 601 N 60.4197 -1.17026 6.82845 0
M  V30 602 N 62.2127 -1.12074 5.50814 0
M  V30 603 H 54.3637 0.607911 2.03515 0
M  V30 604 H 56.6267 0.21083 0.924259 0
M  V30 605 H 56.3327 0.194284 3.51163 0
M  V30 606 H 56.2067 -1.55435 3.43686 0
M  V30 607 H 58.5937 -1.64606 2.44926 0
M  V30 608 H 58.6747 0.118315 2.55526 0
M  V30 609 H 58.3187 -0.0392633 5.07885 0
M  V30 610 H 58.2487 -1.81426 4.9436 0
M  V30 611 H 60.7397 -0.915633 3.6664 0
M  V30 612 H 61.0527 -1.25966 7.62465 0
M  V30 613 H 59.3977 -1.13971 6.85591 0
M  V30 614 H 62.5887 -1.05226 4.5612 0
M  V30 615 H 62.7617 -1.20936 6.36615 0
M  V30 616 N 56.1678 -1.49265 -0.50573 0
M  V30 617 C 57.3928 -1.62478 -1.28902 0
M  V30 618 C 57.8178 -0.294332 -1.85783 0
M  V30 619 O 57.1758 0.737412 -1.65626 0
M  V30 620 C 57.2238 -2.69268 -2.39848 0
M  V30 621 O 56.3278 -2.28113 -3.43567 0
M  V30 622 H 55.6688 -0.54399 -0.380751 0
M  V30 623 H 58.1988 -1.95421 -0.605952 0
M  V30 624 H 58.2088 -2.91291 -2.85681 0
M  V30 625 H 56.8838 -3.65846 -1.97812 0
M  V30 626 H 55.4608 -2.16401 -3.03685 0
M  V30 627 N 57.6459 0.756429 -1.3826 0
M  V30 628 C 58.8739 1.54565 -1.3754 0
M  V30 629 C 59.2889 1.88767 0.0355331 0
M  V30 630 O 58.6459 1.52572 1.0014 0
M  V30 631 C 58.6969 2.84654 -2.22833 0
M  V30 632 O 58.4179 2.51912 -3.5843 0
M  V30 633 C 59.9189 3.78807 -2.30261 0
M  V30 634 H 57.1389 0.478353 -0.470553 0
M  V30 635 H 59.6829 0.936381 -1.81803 0
M  V30 636 H 57.8379 3.41965 -1.8204 0
M  V30 637 H 58.2519 3.35325 -4.03308 0
M  V30 638 H 59.7259 4.67045 -2.94233 0
M  V30 639 H 60.2029 4.19038 -1.31545 0
M  V30 640 H 60.8089 3.2742 -2.71433 0
M  V30 641 N 59.124 1.23083 0.984299 0
M  V30 642 C 60.37 1.07221 1.72845 0
M  V30 643 C 60.725 -0.387453 1.88458 0
M  V30 644 O 60.018 -1.28309 1.42293 0
M  V30 645 C 60.212 1.72673 3.1292 0
M  V30 646 C 60.041 3.24853 3.10967 0
M  V30 647 C 58.811 3.93998 3.16376 0
M  V30 648 C 61.009 4.21674 2.94441 0
M  V30 649 N 58.991 5.33192 3.04268 0
M  V30 650 C 60.362 5.47756 2.90453 0
M  V30 651 C 62.417 4.12457 2.78897 0
M  V30 652 C 61.12 6.6568 2.72512 0
M  V30 653 C 63.146 5.3004 2.62319 0
M  V30 654 C 62.508 6.55046 2.59026 0
M  V30 655 H 58.607 0.44685 0.641755 0
M  V30 656 H 61.191 1.55753 1.16829 0
M  V30 657 H 59.362 1.26679 3.67161 0
M  V30 658 H 61.094 1.49824 3.75945 0
M  V30 659 H 57.849 3.45052 3.24401 0
M  V30 660 H 58.273 6.06157 3.015 0
M  V30 661 H 62.915 3.16588 2.80235 0
M  V30 662 H 60.633 7.61689 2.69919 0
M  V30 663 H 64.219 5.24747 2.5126 0
M  V30 664 H 63.099 7.44498 2.46357 0
M  V30 665 N 60.6021 -1.18246 1.0419 0
M  V30 666 C 61.5121 -2.25574 0.644476 0
M  V30 667 C 62.5281 -1.70845 -0.329826 0
M  V30 668 O 63.7041 -2.00554 -0.184443 0
M  V30 669 C 60.7691 -3.46697 0.014877 0
M  V30 670 C 59.8301 -4.16554 1.03834 0
M  V30 671 C 59.0631 -5.31894 0.438692 0
M  V30 672 O 59.2861 -5.65385 -0.754752 0
M  V30 673 O 58.2201 -5.90459 1.168 0
M  V30 674 H 62.0461 -2.61836 1.53869 0
M  V30 675 H 59.6311 -1.25352 0.812854 0
M  V30 676 H 61.5131 -4.20062 -0.335538 0
M  V30 677 H 60.1881 -3.12255 -0.853138 0
M  V30 678 H 59.0951 -3.45251 1.44057 0
M  V30 679 H 60.4281 -4.54998 1.87716 0
M  V30 680 N 62.0802 -0.821533 -1.34494 0
M  V30 681 C 63.0272 -0.240397 -2.29545 0
M  V30 682 C 63.9972 0.634031 -1.53523 0
M  V30 683 O 65.1822 0.575966 -1.81899 0
M  V30 684 C 62.3222 0.592869 -3.39969 0
M  V30 685 C 61.4352 -0.30365 -4.30932 0
M  V30 686 C 60.5702 0.539049 -5.28458 0
M  V30 687 C 59.6092 -0.356942 -6.11058 0
M  V30 688 N 58.7462 0.446603 -7.00678 0
M  V30 689 H 63.5862 -1.05632 -2.7865 0
M  V30 690 H 61.1232 -0.532413 -1.37127 0
M  V30 691 H 63.0812 1.09129 -4.02675 0
M  V30 692 H 61.7112 1.37392 -2.92102 0
M  V30 693 H 60.7632 -0.920276 -3.691 0
M  V30 694 H 62.0752 -0.992661 -4.88823 0
M  V30 695 H 61.2292 1.102 -5.96608 0
M  V30 696 H 59.9682 1.26157 -4.71101 0
M  V30 697 H 58.9732 -0.932047 -5.41842 0
M  V30 698 H 60.1982 -1.07755 -6.70497 0
M  V30 699 H 58.1442 1.15282 -6.45791 0
M  V30 700 H 58.0612 -0.184048 -7.55776 0
M  V30 701 H 59.3292 0.992352 -7.73158 0
M  V30 702 N 63.5583 1.46682 -0.576371 0
M  V30 703 C 64.5213 2.28707 0.150239 0
M  V30 704 C 65.5213 1.38035 0.824794 0
M  V30 705 O 66.7113 1.60476 0.677719 0
M  V30 706 C 63.8433 3.18248 1.22192 0
M  V30 707 H 65.0363 2.94423 -0.570521 0
M  V30 708 H 62.5893 1.52688 -0.334078 0
M  V30 709 H 63.3243 2.57265 1.97447 0
M  V30 710 H 63.1093 3.85 0.742812 0
M  V30 711 H 64.5993 3.80001 1.73172 0
M  V30 712 N 65.0364 0.313813 1.54444 0
M  V30 713 C 66.3134 -0.345447 1.92525 0
M  V30 714 C 66.6934 -1.70667 1.24242 0
M  V30 715 O 66.0414 -2.25273 0.382654 0
M  V30 716 C 66.2514 -0.44737 3.46121 0
M  V30 717 C 67.5994 -0.712238 4.18584 0
M  V30 718 O 68.6234 -0.530678 3.52225 0
M  V30 719 O 67.4824 -1.06183 5.36085 0
M  V30 720 H 64.5764 -0.195407 0.803583 0
M  V30 721 H 67.1224 0.362813 1.65776 0
M  V30 722 H 65.8944 0.509043 3.87975 0
M  V30 723 H 65.5174 -1.20359 3.78945 0
M  V30 724 N 66.5145 -1.57545 0.0417849 0
M  V30 725 C 67.7625 -1.91937 -0.632829 0
M  V30 726 C 68.0835 -0.919978 -1.71934 0
M  V30 727 O 67.3535 0.0366064 -1.95866 0
M  V30 728 H 65.9335 -0.708493 -0.236742 0
M  V30 729 H 68.5955 -1.9468 0.0925745 0
M  V30 730 H 67.6915 -2.92912 -1.07746 0
M  V30 731 N 67.9926 0.231505 -1.5589 0
M  V30 732 C 69.2226 0.973092 -1.82248 0
M  V30 733 C 69.6306 1.78845 -0.617328 0
M  V30 734 O 68.9736 1.78752 0.423499 0
M  V30 735 C 69.0356 1.94732 -3.02192 0
M  V30 736 C 68.6996 1.31743 -4.37599 0
M  V30 737 C 69.6966 0.712238 -5.14998 0
M  V30 738 C 67.3816 1.33218 -4.84312 0
M  V30 739 C 69.3756 0.130195 -6.37267 0
M  V30 740 C 67.0626 0.746286 -6.06526 0
M  V30 741 C 68.0606 0.146337 -6.82843 0
M  V30 742 O 67.7486 -0.430465 -8.02747 0
M  V30 743 H 67.4806 0.29125 -0.61004 0
M  V30 744 H 70.0346 0.254915 -2.03812 0
M  V30 745 H 68.2646 2.70422 -2.76422 0
M  V30 746 H 69.9536 2.55362 -3.15508 0
M  V30 747 H 70.7196 0.69324 -4.8002 0
M  V30 748 H 66.5986 1.78854 -4.24891 0
M  V30 749 H 70.1426 -0.33871 -6.96777 0
M  V30 750 H 66.0396 0.762663 -6.40979 0
M  V30 751 H 66.8076 -0.323818 -8.17859 0
M  V30 752 N 69.4707 1.49531 0.497807 0
M  V30 753 C 70.6957 1.63159 1.28039 0
M  V30 754 C 71.1207 0.30418 1.85624 0
M  V30 755 O 70.4787 -0.728618 1.66015 0
M  V30 756 C 70.5267 2.70537 2.38416 0
M  V30 757 O 69.6307 2.29931 3.42353 0
M  V30 758 H 68.9717 0.546001 0.377861 0
M  V30 759 H 71.5017 1.9574 0.59558 0
M  V30 760 H 71.5117 2.92802 2.84132 0
M  V30 761 H 70.1867 3.6689 1.95869 0
M  V30 762 H 68.7637 2.18009 3.02533 0
M  V30 763 N 70.9488 -0.749086 1.3866 0
M  V30 764 C 71.8968 -1.88428 1.36373 0
M  V30 765 C 72.8908 -1.67561 0.248929 0
M  V30 766 O 74.0968 -1.75074 0.41821 0
M  V30 767 H 70.4718 -0.620023 0.42553 0
M  V30 768 H 72.4428 -1.87473 2.32156 0
M  V30 769 C 71.1918 -3.25961 1.21014 0
M  V30 770 H 70.5148 -3.42607 2.06059 0
M  V30 771 H 71.9548 -4.05625 1.23469 0
M  V30 772 C 70.4138 -3.36799 -0.0825941 0
M  V30 773 O 70.9438 -3.87517 -1.05797 0
M  V30 774 N 69.1498 -2.90258 -0.140939 0
M  V30 775 H 68.6968 -2.49174 0.653477 0
M  V30 776 H 68.6548 -2.97889 -1.00545 0
M  V30 777 N 72.4269 -1.23603 -0.977757 0
M  V30 778 C 73.6749 -1.06759 -1.71601 0
M  V30 779 C 73.9959 0.395929 -1.90938 0
M  V30 780 O 73.2659 1.28356 -1.47992 0
M  V30 781 H 71.8459 -0.392062 -0.635843 0
M  V30 782 H 74.5079 -1.55362 -1.1768 0
M  V30 783 H 73.6039 -1.55763 -2.70452 0
M  V30 784 N 73.905 1.17692 -1.04816 0
M  V30 785 C 75.153 1.87488 -0.754497 0
M  V30 786 C 75.474 1.81205 0.720407 0
M  V30 787 O 74.744 1.23544 1.52032 0
M  V30 788 H 73.324 0.694101 -0.276102 0
M  V30 789 H 75.986 1.42793 -1.32651 0
M  V30 790 H 75.082 2.93328 -1.06606 0
M  V30 791 N 75.3831 0.828654 1.34056 0
M  V30 792 C 76.6291 0.42008 1.98402 0
M  V30 793 C 76.9621 -1.01564 1.65525 0
M  V30 794 O 76.2371 -1.70834 0.929831 0
M  V30 795 C 76.5201 0.62927 3.54559 0
M  V30 796 C 76.3731 2.11152 3.97159 0
M  V30 797 C 77.6921 0.0688756 4.40046 0
M  V30 798 H 74.8111 0.154104 0.720709 0
M  V30 799 H 77.4531 1.04228 1.5886 0
M  V30 800 H 75.6031 0.0996418 3.88372 0
M  V30 801 H 77.2751 2.70522 3.73651 0
M  V30 802 H 75.5181 2.59985 3.47261 0
M  V30 803 H 76.1891 2.20868 5.05887 0
M  V30 804 H 78.6651 0.521458 4.1282 0
M  V30 805 H 77.5411 0.245006 5.48353 0
M  V30 806 H 77.8021 -1.0266 4.30015 0
M  V30 807 N 76.8612 -1.46375 0.584142 0
M  V30 808 C 78.1082 -2.02378 0.0702675 0
M  V30 809 C 78.4362 -1.45545 -1.29023 0
M  V30 810 O 77.6912 -0.610967 -1.85918 0
M  V30 811 C 77.9902 -3.57373 -0.0439342 0
M  V30 812 C 77.6562 -4.33252 1.24915 0
M  V30 813 C 76.3182 -4.53701 1.60341 0
M  V30 814 C 78.6702 -4.7681 2.1048 0
M  V30 815 C 75.9982 -5.1496 2.81128 0
M  V30 816 C 78.3502 -5.39404 3.30494 0
M  V30 817 C 77.0142 -5.5808 3.66201 0
M  V30 818 H 76.2842 -0.740554 0.0257127 0
M  V30 819 H 78.9312 -1.75727 0.761065 0
M  V30 820 H 77.2362 -3.83169 -0.817869 0
M  V30 821 H 78.9332 -3.98384 -0.457318 0
M  V30 822 H 75.5232 -4.17633 0.963364 0
M  V30 823 H 79.7072 -4.60766 1.84414 0
M  V30 824 H 74.9632 -5.27611 3.08928 0
M  V30 825 H 79.1372 -5.72114 3.97063 0
M  V30 826 H 76.7642 -6.05318 4.59885 0
M  V30 827 N 78.3393 -0.321999 -1.54275 0
M  V30 828 C 79.2873 0.560206 -2.25753 0
M  V30 829 C 80.2813 1.11984 -1.27106 0
M  V30 830 O 81.4873 1.06806 -1.44888 0
M  V30 831 H 77.8623 0.199304 -0.725108 0
M  V30 832 H 79.8333 -0.0649365 -2.98329 0
M  V30 833 C 78.5823 1.71023 -3.02731 0
M  V30 834 H 77.9053 1.28885 -3.78456 0
M  V30 835 H 79.3453 2.30314 -3.55993 0
M  V30 836 C 77.8043 2.62692 -2.10938 0
M  V30 837 O 78.3343 3.64364 -1.6912 0
M  V30 838 N 76.5403 2.30891 -1.76459 0
M  V30 839 H 76.0873 1.48253 -2.10663 0
M  V30 840 H 76.0453 2.92487 -1.1532 0
M  V30 841 N 79.8174 1.5752 -0.0501392 0
M  V30 842 C 81.0574 1.94521 0.627783 0
M  V30 843 C 81.4214 0.928265 1.68069 0
M  V30 844 O 82.6224 1.18517 2.41261 0
M  V30 845 C 80.8934 3.36319 1.20932 0
M  V30 846 S 82.4524 3.95272 1.90539 0
M  V30 847 H 79.2704 0.680456 0.206158 0
M  V30 848 H 81.8724 1.95139 -0.118829 0
M  V30 849 H 80.5764 4.08132 0.430865 0
M  V30 850 H 80.1074 3.39193 1.99277 0
M  V30 851 H 82.1224 3.80415 3.18589 0
M  V30 852 N 81.2955 -0.223234 1.56011 0
M  V30 853 C 82.5235 -0.964812 1.83027 0
M  V30 854 C 82.9385 -1.78013 0.62904 0
M  V30 855 O 82.2955 -1.78008 -0.402414 0
M  V30 856 C 82.3465 -1.88373 3.08542 0
M  V30 857 O 82.0675 -1.10137 4.2403 0
M  V30 858 C 83.5685 -2.73934 3.48533 0
M  V30 859 H 80.7885 -0.282842 0.608475 0
M  V30 860 H 83.3325 -0.238971 2.03099 0
M  V30 861 H 81.4875 -2.56354 2.9045 0
M  V30 862 H 81.9015 -1.72501 4.95322 0
M  V30 863 H 83.3755 -3.34117 4.39397 0
M  V30 864 H 83.8525 -3.46244 2.70207 0
M  V30 865 H 84.4585 -2.11369 3.69057 0
M  V30 866 N 82.7736 -1.49793 -0.48987 0
M  V30 867 C 84.0196 -1.61049 -1.24236 0
M  V30 868 C 84.3746 -0.298412 -1.90072 0
M  V30 869 O 83.6676 0.702262 -1.78266 0
M  V30 870 C 83.8616 -2.71488 -2.32441 0
M  V30 871 C 83.6906 -4.13308 -1.77218 0
M  V30 872 C 82.4606 -4.79955 -1.58023 0
M  V30 873 C 84.6586 -4.98176 -1.27772 0
M  V30 874 N 82.6406 -6.06052 -0.978465 0
M  V30 875 C 84.0116 -6.14843 -0.798 0
M  V30 876 C 86.0666 -4.84091 -1.16449 0
M  V30 877 C 84.7696 -7.18975 -0.216245 0
M  V30 878 C 86.7956 -5.88382 -0.596698 0
M  V30 879 C 86.1576 -7.04285 -0.127262 0
M  V30 880 H 82.2566 -0.643611 -0.444172 0
M  V30 881 H 84.8406 -1.86842 -0.54754 0
M  V30 882 H 83.0116 -2.47449 -2.99372 0
M  V30 883 H 84.7436 -2.72205 -2.99477 0
M  V30 884 H 81.4986 -4.36936 -1.82712 0
M  V30 885 H 81.9226 -6.73407 -0.696534 0
M  V30 886 H 86.5646 -3.94786 -1.5134 0
M  V30 887 H 84.2826 -8.0797 0.144903 0
M  V30 888 H 87.8686 -5.79545 -0.511716 0
M  V30 889 H 86.7486 -7.83606 0.30523 0
M  V30 890 N 84.2517 0.741722 -1.39055 0
M  V30 891 C 85.6677 1.04638 -1.20512 0
M  V30 892 C 85.8677 2.01405 -0.0620218 0
M  V30 893 O 84.9237 2.45547 0.588457 0
M  V30 894 C 86.2367 1.6151 -2.53643 0
M  V30 895 C 87.7847 1.73623 -2.6043 0
M  V30 896 C 88.2597 2.33906 -3.93767 0
M  V30 897 N 89.7507 2.41323 -3.9537 0
M  V30 898 C 90.4857 2.88888 -4.95309 0
M  V30 899 N 89.9817 3.36401 -6.05645 0
M  V30 900 N 91.7747 2.88037 -4.82692 0
M  V30 901 H 83.9257 0.0998155 -2.12165 0
M  V30 902 H 86.1887 0.106907 -0.941953 0
M  V30 903 H 85.8947 0.978739 -3.37807 0
M  V30 904 H 85.7687 2.60411 -2.72885 0
M  V30 905 H 88.1557 2.36384 -1.76655 0
M  V30 906 H 88.2367 0.733945 -2.45045 0
M  V30 907 H 87.8807 1.71776 -4.7797 0
M  V30 908 H 87.8107 3.34799 -4.06469 0
M  V30 909 H 90.3017 2.07734 -3.15682 0
M  V30 910 H 90.6147 3.71186 -6.77821 0
M  V30 911 H 88.9597 3.34427 -6.09248 0
M  V30 912 H 92.1507 2.50237 -3.95599 0
M  V30 913 H 92.3237 3.24792 -5.60726 0
M  V30 914 N 85.7298 1.2412 0.971189 0
M  V30 915 C 86.6928 1.03156 2.04674 0
M  V30 916 C 87.6928 -0.00990322 1.60797 0
M  V30 917 O 88.8828 0.230729 1.72665 0
M  V30 918 C 86.0148 0.562765 3.36223 0
M  V30 919 H 87.2078 1.98614 2.24705 0
M  V30 920 H 84.7608 1.06293 1.14593 0
M  V30 921 H 85.4958 -0.395176 3.21883 0
M  V30 922 H 85.2808 1.31441 3.69413 0
M  V30 923 H 86.7708 0.437015 4.15307 0
M  V30 924 N 87.2079 -1.17134 1.05439 0
M  V30 925 C 88.1559 -2.23289 0.651511 0
M  V30 926 C 89.1499 -1.66186 -0.328411 0
M  V30 927 O 90.3559 -1.78949 -0.194206 0
M  V30 928 H 86.7309 -0.726938 0.192523 0
M  V30 929 H 88.7019 -2.54565 1.55689 0
M  V30 930 C 87.4509 -3.47671 0.0448436 0
M  V30 931 H 86.7739 -3.91918 0.78996 0
M  V30 932 H 88.2139 -4.2353 -0.19964 0
M  V30 933 C 86.6729 -3.14453 -1.20918 0
M  V30 934 O 87.2029 -3.29459 -2.29825 0
M  V30 935 N 85.4089 -2.68657 -1.10779 0
M  V30 936 H 84.9559 -2.56646 -0.221526 0
M  V30 937 H 84.9139 -2.46804 -1.9477 0
M  V30 938 N 88.686 -0.835752 -1.33615 0
M  V30 939 C 89.634 -0.255238 -2.31195 0
M  V30 940 C 90.628 0.61107 -1.57995 0
M  V30 941 O 91.834 0.500979 -1.72888 0
M  V30 942 H 88.209 -0.0638085 -0.749288 0
M  V30 943 H 90.18 -1.09283 -2.77669 0
M  V30 944 C 88.929 0.55754 -3.43201 0
M  V30 945 H 88.252 -0.0997553 -3.99676 0
M  V30 946 H 89.692 0.929622 -4.13683 0
M  V30 947 C 88.151 1.73515 -2.88781 0
M  V30 948 O 88.681 2.83376 -2.84712 0
M  V30 949 N 86.887 1.55603 -2.4543 0
M  V30 950 H 86.434 0.662354 -2.48939 0
M  V30 951 H 86.392 2.34545 -2.09371 0
M  V30 952 N 90.1641 1.46063 -0.591896 0
M  V30 953 C 91.4101 2.02638 -0.0811191 0
M  V30 954 C 91.7431 1.4613 1.27905 0
M  V30 955 O 91.0181 0.629908 1.84017 0
M  V30 956 C 91.3011 3.60091 -0.0252436 0
M  V30 957 C 91.1541 4.26965 -1.41496 0
M  V30 958 C 92.4731 4.3496 0.670685 0
M  V30 959 H 89.5921 0.73635 -0.0309524 0
M  V30 960 H 92.2341 1.741 -0.760859 0
M  V30 961 H 90.3841 3.84535 0.553624 0
M  V30 962 H 92.0561 4.13756 -2.0397 0
M  V30 963 H 90.2991 3.85971 -1.98011 0
M  V30 964 H 90.9701 5.35781 -1.32825 0
M  V30 965 H 93.4461 4.15716 0.178825 0
M  V30 966 H 92.3221 5.44686 0.678837 0
M  V30 967 H 92.5831 4.06685 1.73379 0
M  V30 968 N 91.6422 0.330177 1.54103 0
M  V30 969 C 92.5902 -0.548226 2.26047 0
M  V30 970 C 93.5842 -1.11309 1.27698 0
M  V30 971 O 94.7902 -1.06036 1.45452 0
M  V30 972 H 91.1652 -0.195456 0.726155 0
M  V30 973 H 93.1362 0.0807567 2.98291 0
M  V30 974 C 91.8852 -1.69415 3.03634 0
M  V30 975 H 91.2082 -1.26876 3.79134 0
M  V30 976 H 92.6482 -2.28423 3.5721 0
M  V30 977 C 91.1072 -2.61569 2.12328 0
M  V30 978 O 91.6372 -3.63462 1.7105 0
M  V30 979 N 89.8432 -2.29952 1.77681 0
M  V30 980 H 89.3902 -1.47134 2.11446 0
M  V30 981 H 89.3482 -2.91871 1.16869 0
M  V30 982 N 93.1203 -1.57491 0.0584922 0
M  V30 983 C 94.3673 -1.92978 -0.613648 0
M  V30 984 C 94.6953 -0.937461 -1.70417 0
M  V30 985 O 93.9503 0.049078 -1.95638 0
M  V30 986 C 94.2493 -3.3513 -1.24188 0
M  V30 987 C 93.9153 -4.50037 -0.278826 0
M  V30 988 C 92.5773 -4.81198 -0.0138447 0
M  V30 989 C 94.9293 -5.19807 0.380777 0
M  V30 990 C 92.2573 -5.79473 0.918052 0
M  V30 991 C 94.6093 -6.19079 1.30091 0
M  V30 992 C 93.2733 -6.48665 1.57449 0
M  V30 993 H 92.5433 -0.706157 -0.22455 0
M  V30 994 H 95.1903 -1.91082 0.126533 0
M  V30 995 H 93.4953 -3.33429 -2.05749 0
M  V30 996 H 95.1923 -3.59871 -1.769 0
M  V30 997 H 91.7823 -4.25726 -0.495539 0
M  V30 998 H 95.9663 -4.95939 0.189158 0
M  V30 999 H 91.2223 -6.00727 1.1374 0
M  V30 1000 H 95.3963 -6.7225 1.81804 0
M  V30 1001 H 93.0233 -7.24628 2.29822 0
M  V30 1002 N 94.5984 0.214957 -1.56127 0
M  V30 1003 C 95.8264 0.955092 -1.83536 0
M  V30 1004 C 96.2414 1.77677 -0.638472 0
M  V30 1005 O 95.5984 1.78219 0.392968 0
M  V30 1006 C 95.6494 1.86734 -3.09536 0
M  V30 1007 O 95.3704 1.07887 -4.24608 0
M  V30 1008 C 96.8714 2.72082 -3.4998 0
M  V30 1009 H 94.0914 0.279611 -0.609966 0
M  V30 1010 H 96.6354 0.228197 -2.03223 0
M  V30 1011 H 94.7904 2.5481 -2.91806 0
M  V30 1012 H 95.2044 1.69872 -4.9623 0
M  V30 1013 H 96.6784 3.31782 -4.41163 0
M  V30 1014 H 97.1554 3.44806 -2.7204 0
M  V30 1015 H 97.7614 2.09409 -3.70173 0
M  V30 1016 N 96.0765 1.50051 0.48192 0
M  V30 1017 C 97.0245 1.68635 1.60203 0
M  V30 1018 C 98.0185 0.552184 1.60148 0
M  V30 1019 O 99.2245 0.732377 1.64427 0
M  V30 1020 H 95.5995 0.532081 0.531407 0
M  V30 1021 H 97.5705 2.62616 1.41688 0
M  V30 1022 C 96.3195 1.78775 2.9822 0
M  V30 1023 H 95.6425 2.6543 2.98976 0
M  V30 1024 H 97.0825 1.95806 3.7608 0
M  V30 1025 C 95.5415 0.536849 3.32595 0
M  V30 1026 O 96.0715 -0.328897 4.00351 0
M  V30 1027 N 94.2775 0.394091 2.87915 0
M  V30 1028 H 93.8245 1.09962 2.32951 0
M  V30 1029 H 93.7825 -0.441737 3.11281 0
M  V30 1030 N 97.5546 -0.734337 1.39446 0
M  V30 1031 C 98.8316 -1.48579 1.27215 0
M  V30 1032 C 99.2116 -2.1077 -0.117968 0
M  V30 1033 O 98.5596 -1.98646 -1.12924 0
M  V30 1034 C 98.7696 -2.53667 2.39696 0
M  V30 1035 C 100.118 -3.20031 2.79044 0
M  V30 1036 O 101.142 -2.6398 2.39151 0
M  V30 1037 O 100.001 -4.21455 3.47905 0
M  V30 1038 H 97.0946 -0.659816 0.49857 0
M  V30 1039 H 99.6406 -0.768106 1.51322 0
M  V30 1040 H 98.4126 -2.06096 3.32626 0
M  V30 1041 H 98.0356 -3.32994 2.17258 0
M  V30 1042 N 99.0327 -1.24633 -0.964593 0
M  V30 1043 C 100.281 -1.08573 -1.70459 0
M  V30 1044 C 100.602 0.375655 -1.91347 0
M  V30 1045 O 99.8717 1.26779 -1.49345 0
M  V30 1046 H 98.4517 -0.398784 -0.631649 0
M  V30 1047 H 101.114 -1.56601 -1.16026 0
M  V30 1048 H 100.21 -1.58623 -2.68785 0
M  V30 1049 N 100.511 1.16574 -1.06058 0
M  V30 1050 C 101.458 2.20883 -0.669263 0
M  V30 1051 C 102.428 1.62729 0.332918 0
M  V30 1052 O 103.613 1.895 0.222346 0
M  V30 1053 C 100.753 3.45049 -0.0593572 0
M  V30 1054 C 99.8658 4.17458 -1.11143 0
M  V30 1055 C 99.0008 5.29135 -0.467916 0
M  V30 1056 C 98.0398 5.93343 -1.50369 0
M  V30 1057 N 97.1768 6.96516 -0.883706 0
M  V30 1058 H 102.017 2.53709 -1.5632 0
M  V30 1059 H 99.5538 1.24616 -0.781625 0
M  V30 1060 H 101.512 4.16033 0.311771 0
M  V30 1061 H 100.142 3.12781 0.797992 0
M  V30 1062 H 99.1938 3.45101 -1.60029 0
M  V30 1063 H 100.506 4.61307 -1.89731 0
M  V30 1064 H 99.6598 6.06684 -0.0436871 0
M  V30 1065 H 98.3988 4.86443 0.349864 0
M  V30 1066 H 97.4038 5.14517 -1.93784 0
M  V30 1067 H 98.6288 6.38114 -2.32352 0
M  V30 1068 H 96.5748 6.55943 -0.086595 0
M  V30 1069 H 96.4918 7.38723 -1.607 0
M  V30 1070 H 97.7598 7.77993 -0.484543 0
M  V30 1071 N 101.989 0.842826 1.3317 0
M  V30 1072 C 102.919 0.294028 2.31641 0
M  V30 1073 C 103.9 -0.600401 1.59151 0
M  V30 1074 O 105.085 -0.523124 1.87022 0
M  V30 1075 C 102.215 -0.528416 3.43257 0
M  V30 1076 C 101.169 0.27056 4.27144 0
M  V30 1077 C 100.495 -0.675881 5.30411 0
M  V30 1078 C 101.795 1.48981 5.00602 0
M  V30 1079 H 103.489 1.11681 2.77791 0
M  V30 1080 H 101.035 0.538478 1.33553 0
M  V30 1081 H 102.988 -0.922674 4.11175 0
M  V30 1082 H 101.712 -1.38445 2.95805 0
M  V30 1083 H 100.371 0.646427 3.60856 0
M  V30 1084 H 100.019 -1.52842 4.79216 0
M  V30 1085 H 99.7189 -0.145374 5.8742 0
M  V30 1086 H 101.243 -1.06757 6.01195 0
M  V30 1087 H 102.657 1.16849 5.61266 0
M  V30 1088 H 101.054 1.95739 5.6728 0
M  V30 1089 H 102.124 2.25746 4.29147 0
M  V30 1090 N 103.467 -1.45747 0.599634 0
M  V30 1091 C 104.414 -2.30467 -0.123849 0
M  V30 1092 C 105.384 -1.41632 -0.86774 0
M  V30 1093 O 106.569 -1.70568 -0.855056 0
M  V30 1094 C 103.709 -3.26402 -1.12051 0
M  V30 1095 C 102.822 -4.3034 -0.37832 0
M  V30 1096 C 101.957 -5.13389 -1.364 0
M  V30 1097 C 100.996 -6.09061 -0.609171 0
M  V30 1098 N 100.133 -6.84918 -1.54374 0
M  V30 1099 H 104.973 -2.91802 0.604627 0
M  V30 1100 H 102.51 -1.43797 0.309972 0
M  V30 1101 H 104.468 -3.80482 -1.7114 0
M  V30 1102 H 103.098 -2.66839 -1.8165 0
M  V30 1103 H 102.15 -3.78984 0.327929 0
M  V30 1104 H 103.462 -4.98354 0.210997 0
M  V30 1105 H 102.616 -5.7183 -2.02719 0
M  V30 1106 H 101.355 -4.45376 -1.98725 0
M  V30 1107 H 100.36 -5.49758 0.0676979 0
M  V30 1108 H 101.585 -6.79099 0.00891991 0
M  V30 1109 H 99.531 -6.19601 -2.15478 0
M  V30 1110 H 99.448 -7.49254 -1.00766 0
M  V30 1111 H 100.716 -7.47906 -2.19676 0
M  V30 1112 N 104.945 -0.338344 -1.53925 0
M  V30 1113 C 105.875 0.51328 -2.27789 0
M  V30 1114 C 106.856 1.107 -1.29149 0
M  V30 1115 O 108.041 1.12937 -1.57984 0
M  V30 1116 C 105.171 1.66697 -3.04679 0
M  V30 1117 C 104.125 1.20183 -4.1078 0
M  V30 1118 C 103.451 2.44363 -4.75595 0
M  V30 1119 C 104.751 0.30605 -5.21403 0
M  V30 1120 H 106.445 -0.102883 -2.99223 0
M  V30 1121 H 103.991 -0.0509219 -1.4391 0
M  V30 1122 H 105.944 2.26915 -3.55088 0
M  V30 1123 H 104.668 2.30995 -2.30887 0
M  V30 1124 H 103.327 0.622499 -3.61276 0
M  V30 1125 H 102.975 3.07057 -3.98403 0
M  V30 1126 H 102.675 2.13925 -5.47275 0
M  V30 1127 H 104.199 3.05317 -5.28786 0
M  V30 1128 H 105.613 0.814929 -5.67478 0
M  V30 1129 H 104.01 0.0937929 -6.00027 0
M  V30 1130 H 105.08 -0.65921 -4.80398 0
M  V30 1131 N 106.423 1.57458 -0.0668435 0
M  V30 1132 C 107.671 1.92919 0.602214 0
M  V30 1133 C 107.992 0.947215 1.70449 0
M  V30 1134 O 107.262 -0.00544117 1.95899 0
M  V30 1135 H 105.842 0.71217 0.22544 0
M  V30 1136 H 108.504 1.94508 -0.123535 0
M  V30 1137 H 107.6 2.94589 1.03073 0
M  V30 1138 N 107.901 -0.206675 1.56239 0
M  V30 1139 C 108.831 -1.25909 1.96645 0
M  V30 1140 C 109.812 -1.48097 0.836734 0
M  V30 1141 O 110.997 -1.6003 1.10019 0
M  V30 1142 C 108.127 -2.6058 2.29599 0
M  V30 1143 C 107.081 -2.53024 3.452 0
M  V30 1144 C 106.407 -3.91861 3.63798 0
M  V30 1145 C 107.707 -2.06524 4.79734 0
M  V30 1146 H 109.401 -0.923369 2.84806 0
M  V30 1147 H 106.947 -0.442735 1.37025 0
M  V30 1148 H 108.9 -3.34375 2.56459 0
M  V30 1149 H 107.624 -2.95869 1.38307 0
M  V30 1150 H 106.283 -1.81684 3.18412 0
M  V30 1151 H 105.931 -4.24483 2.69857 0
M  V30 1152 H 105.631 -3.87683 4.4156 0
M  V30 1153 H 107.155 -4.67296 3.93022 0
M  V30 1154 H 108.569 -2.70072 5.05702 0
M  V30 1155 H 106.966 -2.13374 5.60885 0
M  V30 1156 H 108.036 -1.01802 4.74093 0
M  V30 1157 N 109.379 -1.50304 -0.473955 0
M  V30 1158 C 110.607 -1.64902 -1.24959 0
M  V30 1159 C 111.022 -0.331198 -1.85872 0
M  V30 1160 O 110.379 0.68652 -1.69095 0
M  V30 1161 C 110.43 -2.73803 -2.36038 0
M  V30 1162 O 110.151 -4.00477 -1.77624 0
M  V30 1163 C 111.652 -2.99349 -3.26964 0
M  V30 1164 H 108.872 -0.554383 -0.378022 0
M  V30 1165 H 111.416 -1.9651 -0.566054 0
M  V30 1166 H 109.571 -2.44898 -3.00173 0
M  V30 1167 H 109.985 -4.60678 -2.5075 0
M  V30 1168 H 111.459 -3.79217 -4.01121 0
M  V30 1169 H 111.936 -2.10307 -3.85574 0
M  V30 1170 H 112.542 -3.29774 -2.68569 0
M  V30 1171 N 110.857 0.726932 -1.39834 0
M  V30 1172 C 112.082 1.52121 -1.40976 0
M  V30 1173 C 112.507 1.88098 -0.00826029 0
M  V30 1174 O 111.865 1.52479 0.980807 0
M  V30 1175 C 111.913 2.78021 -2.29644 0
M  V30 1176 O 111.017 3.74272 -1.73188 0
M  V30 1177 H 110.358 0.45908 -0.479731 0
M  V30 1178 H 112.888 0.896207 -1.83927 0
M  V30 1179 H 112.898 3.26671 -2.44438 0
M  V30 1180 H 111.573 2.51169 -3.31492 0
M  V30 1181 H 110.15 3.33073 -1.6768 0
M  V30 1182 N 112.336 1.25143 0.95797 0
M  V30 1183 C 113.561 1.12521 1.74223 0
M  V30 1184 C 113.986 -0.317402 1.85403 0
M  V30 1185 O 113.344 -1.2299 1.33204 0
M  V30 1186 C 113.392 1.78062 3.1357 0
M  V30 1187 O 112.496 1.058 3.98598 0
M  V30 1188 H 111.837 0.39304 0.535178 0
M  V30 1189 H 114.367 1.65641 1.201 0
M  V30 1190 H 114.377 1.84213 3.64046 0
M  V30 1191 H 113.052 2.83021 3.04749 0
M  V30 1192 H 111.629 1.07506 3.57067 0
M  V30 1193 N 113.814 -1.1601 1.06675 0
M  V30 1194 C 114.777 -2.18724 0.685001 0
M  V30 1195 C 115.777 -1.58496 -0.271246 0
M  V30 1196 O 116.967 -1.74119 -0.0531156 0
M  V30 1197 C 114.099 -3.40899 0.00853648 0
M  V30 1198 H 115.292 -2.54011 1.59431 0
M  V30 1199 H 112.845 -1.30352 0.862441 0
M  V30 1200 H 113.58 -3.11173 -0.913337 0
M  V30 1201 H 113.365 -3.8587 0.696204 0
M  V30 1202 H 114.855 -4.16886 -0.24414 0
M  V30 1203 N 115.292 -0.849877 -1.32721 0
M  V30 1204 C 116.522 -0.46408 -2.0132 0
M  V30 1205 C 116.93 0.94246 -1.64056 0
M  V30 1206 O 116.273 1.6257 -0.855379 0
M  V30 1207 C 116.335 -0.517887 -3.5575 0
M  V30 1208 C 115.999 -1.88248 -4.16427 0
M  V30 1209 C 116.996 -2.84726 -4.35002 0
M  V30 1210 C 114.681 -2.17832 -4.52609 0
M  V30 1211 C 116.675 -4.08945 -4.8892 0
M  V30 1212 C 114.362 -3.42304 -5.06232 0
M  V30 1213 C 115.36 -4.37677 -5.24335 0
M  V30 1214 O 115.048 -5.59946 -5.76815 0
M  V30 1215 H 114.78 -0.181327 -0.651227 0
M  V30 1216 H 117.334 -1.14713 -1.70382 0
M  V30 1217 H 115.564 0.221997 -3.86062 0
M  V30 1218 H 117.253 -0.148366 -4.05629 0
M  V30 1219 H 118.019 -2.63174 -4.07388 0
M  V30 1220 H 113.898 -1.44385 -4.37806 0
M  V30 1221 H 117.442 -4.83396 -5.02966 0
M  V30 1222 H 113.339 -3.63709 -5.33278 0
M  V30 1223 H 114.107 -5.61838 -5.95214 0
M  V30 1224 N 116.77 1.45427 -0.607355 0
M  V30 1225 C 117.718 2.32269 0.12411 0
M  V30 1226 C 118.712 1.45955 0.859854 0
M  V30 1227 O 119.918 1.6244 0.775447 0
M  V30 1228 H 116.293 0.749691 0.0588839 0
M  V30 1229 H 118.264 2.91743 -0.626762 0
M  V30 1230 C 117.013 3.29567 1.1082 0
M  V30 1231 H 116.336 3.95978 0.551492 0
M  V30 1232 H 117.776 3.93061 1.58995 0
M  V30 1233 C 116.235 2.56722 2.18164 0
M  V30 1234 O 116.765 2.34842 3.25902 0
M  V30 1235 N 114.971 2.16861 1.93442 0
M  V30 1236 H 114.518 2.34855 1.05834 0
M  V30 1237 H 114.476 1.68444 2.65469 0
M  V30 1238 N 118.248 0.346503 1.53744 0
M  V30 1239 C 119.195 -0.508914 2.25119 0
M  V30 1240 C 120.165 -1.09315 1.25058 0
M  V30 1241 O 121.35 -1.12921 1.53797 0
M  V30 1242 C 118.49 -1.65246 3.02965 0
M  V30 1243 C 117.603 -1.09525 4.17886 0
M  V30 1244 C 116.738 -2.20634 4.83212 0
M  V30 1245 C 115.777 -1.62279 5.90196 0
M  V30 1246 N 114.914 -2.67143 6.49291 0
M  V30 1247 H 119.754 0.106283 2.9781 0
M  V30 1248 H 117.291 0.0642227 1.4696 0
M  V30 1249 H 119.249 -2.32574 3.4636 0
M  V30 1250 H 117.879 -2.2386 2.32565 0
M  V30 1251 H 116.931 -0.312818 3.79112 0
M  V30 1252 H 118.243 -0.628444 4.94825 0
M  V30 1253 H 117.397 -2.95821 5.29693 0
M  V30 1254 H 116.136 -2.70659 4.05703 0
M  V30 1255 H 115.141 -0.855989 5.43096 0
M  V30 1256 H 116.366 -1.13102 6.69615 0
M  V30 1257 H 114.312 -3.16417 5.74645 0
M  V30 1258 H 114.229 -2.25093 7.21713 0
M  V30 1259 H 115.497 -3.4209 7.00425 0
M  V30 1260 N 119.726 -1.57421 0.075193 0
M  V30 1261 C 120.973 -1.93618 -0.593146 0
M  V30 1262 C 121.301 -0.955484 -1.69413 0
M  V30 1263 O 120.556 0.0283251 -1.9568 0
M  V30 1264 C 120.855 -3.36428 -1.20626 0
M  V30 1265 C 120.521 -4.50307 -0.231078 0
M  V30 1266 C 119.183 -4.81186 0.0371936 0
M  V30 1267 C 121.535 -5.19374 0.435888 0
M  V30 1268 C 118.863 -5.78466 0.979461 0
M  V30 1269 C 121.215 -6.17665 1.3665 0
M  V30 1270 C 119.879 -6.46958 1.6432 0
M  V30 1271 H 119.149 -0.708499 -0.217047 0
M  V30 1272 H 121.796 -1.90937 0.146793 0
M  V30 1273 H 120.101 -3.35592 -2.02201 0
M  V30 1274 H 121.798 -3.61727 -1.73073 0
M  V30 1275 H 118.388 -4.26227 -0.450357 0
M  V30 1276 H 122.572 -4.95711 0.241748 0
M  V30 1277 H 117.828 -5.99487 1.20106 0
M  V30 1278 H 122.002 -6.70284 1.88924 0
M  V30 1279 H 119.629 -7.2215 2.37494 0
M  V30 1280 N 121.204 0.198386 -1.56346 0
M  V30 1281 C 122.481 0.944982 -1.71258 0
M  V30 1282 C 122.861 2.0151 -0.629048 0
M  V30 1283 O 122.209 2.25639 0.360473 0
M  V30 1284 C 122.419 1.5344 -3.1346 0
M  V30 1285 C 123.767 2.01778 -3.73591 0
M  V30 1286 O 124.791 1.63288 -3.16568 0
M  V30 1287 O 123.65 2.72594 -4.73661 0
M  V30 1288 H 120.744 0.442939 -0.69838 0
M  V30 1289 H 123.29 0.188342 -1.68652 0
M  V30 1290 H 122.062 0.762869 -3.83792 0
M  V30 1291 H 121.685 2.35596 -3.20282 0
M  V30 1292 N 122.682 1.50554 0.465978 0
M  V30 1293 C 123.922 1.63439 1.22747 0
M  V30 1294 C 124.286 0.329822 1.89146 0
M  V30 1295 O 125.487 0.334161 2.66715 0
M  V30 1296 C 123.758 2.78542 2.2394 0
M  V30 1297 S 125.317 3.11591 3.0896 0
M  V30 1298 H 122.135 0.576113 0.416672 0
M  V30 1299 H 124.737 1.88357 0.523641 0
M  V30 1300 H 123.441 3.71805 1.7375 0
M  V30 1301 H 122.972 2.55726 2.98944 0
M  V30 1302 H 124.987 2.55811 4.25176 0
M  V30 1303 N 124.16 -0.719506 1.40217 0
M  V30 1304 C 125.123 -1.8153 1.39927 0
M  V30 1305 C 126.123 -1.58095 0.293723 0
M  V30 1306 O 127.313 -1.65209 0.552429 0
M  V30 1307 C 124.445 -3.19561 1.18716 0
M  V30 1308 H 125.638 -1.83186 2.37451 0
M  V30 1309 H 123.191 -0.924746 1.26008 0
M  V30 1310 H 123.926 -3.23557 0.219366 0
M  V30 1311 H 123.711 -3.3797 1.98793 0
M  V30 1312 H 125.201 -3.99598 1.21291 0
M  V30 1313 N 125.638 -1.25649 -0.95132 0
M  V30 1314 C 126.548 -1.08073 -2.08224 0
M  V30 1315 C 127.564 -0.0169666 -1.73992 0
M  V30 1316 O 128.74 -0.218593 -2.0021 0
M  V30 1317 C 125.805 -0.704922 -3.39458 0
M  V30 1318 C 124.866 -1.84699 -3.87537 0
M  V30 1319 C 124.099 -1.48902 -5.12508 0
M  V30 1320 O 124.322 -0.386156 -5.69091 0
M  V30 1321 O 123.256 -2.32033 -5.55378 0
M  V30 1322 H 127.082 -2.02924 -2.25954 0
M  V30 1323 H 124.667 -1.04618 -1.06656 0
M  V30 1324 H 126.549 -0.507609 -4.18332 0
M  V30 1325 H 125.224 0.214291 -3.2299 0
M  V30 1326 H 124.131 -2.09919 -3.09653 0
M  V30 1327 H 125.464 -2.74557 -4.08509 0
M  V30 1328 N 127.117 1.15442 -1.07289 0
M  V30 1329 C 128.347 1.89821 -0.815576 0
M  V30 1330 C 128.755 1.7823 0.634867 0
M  V30 1331 O 128.098 1.13152 1.44715 0
M  V30 1332 C 128.16 3.40817 -1.14385 0
M  V30 1333 C 127.824 3.76193 -2.59476 0
M  V30 1334 C 128.821 3.77269 -3.57721 0
M  V30 1335 C 126.506 4.0652 -2.95037 0
M  V30 1336 C 128.5 4.08176 -4.89562 0
M  V30 1337 C 126.187 4.37092 -4.27076 0
M  V30 1338 C 127.185 4.37902 -5.24148 0
M  V30 1339 O 126.873 4.67741 -6.53815 0
M  V30 1340 H 126.605 0.608465 -0.294528 0
M  V30 1341 H 129.159 1.472 -1.43252 0
M  V30 1342 H 127.389 3.83835 -0.469865 0
M  V30 1343 H 129.078 3.96485 -0.869179 0
M  V30 1344 H 129.844 3.5394 -3.3159 0
M  V30 1345 H 125.723 4.05049 -2.20128 0
M  V30 1346 H 129.267 4.08723 -5.65324 0
M  V30 1347 H 125.164 4.59889 -4.5296 0
M  V30 1348 H 125.932 4.85509 -6.58957 0
M  V30 1349 N 128.595 0.856903 1.32268 0
M  V30 1350 C 130.011 0.547061 1.49931 0
M  V30 1351 C 130.211 -0.921781 1.7918 0
M  V30 1352 O 129.267 -1.70469 1.8627 0
M  V30 1353 C 130.58 1.43599 2.64196 0
M  V30 1354 C 132.128 1.43665 2.78081 0
M  V30 1355 C 132.603 2.31085 3.95428 0
M  V30 1356 N 134.094 2.28893 4.02694 0
M  V30 1357 C 134.829 2.93262 4.92732 0
M  V30 1358 N 134.325 3.66751 5.87763 0
M  V30 1359 N 136.118 2.82638 4.85873 0
M  V30 1360 H 128.269 1.8075 1.11549 0
M  V30 1361 H 130.532 0.772144 0.549997 0
M  V30 1362 H 130.238 2.48058 2.49319 0
M  V30 1363 H 130.112 1.12502 3.60032 0
M  V30 1364 H 132.499 0.399701 2.92381 0
M  V30 1365 H 132.58 1.7878 1.82952 0
M  V30 1366 H 132.224 3.34849 3.81888 0
M  V30 1367 H 132.154 1.93302 4.89839 0
M  V30 1368 H 134.645 1.75466 3.34694 0
M  V30 1369 H 134.958 4.13027 6.53168 0
M  V30 1370 H 133.303 3.70859 5.87783 0
M  V30 1371 H 136.494 2.24774 4.10602 0
M  V30 1372 H 136.667 3.33084 5.55841 0
M  V30 1373 N 130.073 -1.45103 0.615059 0
M  V30 1374 C 131.298 -2.07064 0.117988 0
M  V30 1375 C 131.723 -1.4554 -1.19163 0
M  V30 1376 O 131.081 -0.550855 -1.72729 0
M  V30 1377 C 131.129 -3.606 -0.000288387 0
M  V30 1378 O 130.233 -3.98847 -1.04856 0
M  V30 1379 H 129.574 -0.659467 0.0774581 0
M  V30 1380 H 132.104 -1.86236 0.847186 0
M  V30 1381 H 132.114 -4.07529 -0.196091 0
M  V30 1382 H 130.789 -4.04765 0.955932 0
M  V30 1383 H 129.366 -3.63577 -0.828619 0
M  V30 1384 N 131.551 -0.354651 -1.53558 0
M  V30 1385 C 132.779 0.239515 -2.05509 0
M  V30 1386 C 133.194 1.4333 -1.2289 0
M  V30 1387 O 132.551 1.80538 -0.266899 0
M  V30 1388 C 132.602 0.643719 -3.55723 0
M  V30 1389 O 132.323 -0.502602 -4.35207 0
M  V30 1390 C 133.824 1.29743 -4.23889 0
M  V30 1391 H 131.044 0.0442697 -0.669538 0
M  V30 1392 H 133.588 -0.509856 -1.98042 0
M  V30 1393 H 131.743 1.34302 -3.63376 0
M  V30 1394 H 132.157 -0.178172 -5.24197 0
M  V30 1395 H 133.631 1.53091 -5.30346 0
M  V30 1396 H 134.108 2.25441 -3.76926 0
M  V30 1397 H 134.714 0.639865 -4.20459 0
M  V30 1398 N 133.029 1.57378 -0.0835403 0
M  V30 1399 C 133.977 2.14602 0.89714 0
M  V30 1400 C 134.971 1.08589 1.30018 0
M  V30 1401 O 136.177 1.26952 1.27606 0
M  V30 1402 H 132.552 0.686346 0.3073 0
M  V30 1403 H 134.523 2.95845 0.38969 0
M  V30 1404 C 133.272 2.73188 2.15089 0
M  V30 1405 H 132.595 3.54442 1.84962 0
M  V30 1406 H 134.035 3.1681 2.81793 0
M  V30 1407 C 132.494 1.68517 2.91725 0
M  V30 1408 O 133.024 1.11718 3.85852 0
M  V30 1409 N 131.23 1.39277 2.55049 0
M  V30 1410 H 130.777 1.85655 1.78577 0
M  V30 1411 H 130.735 0.694791 3.06627 0
M  V30 1412 N 134.507 -0.190092 1.56449 0
M  V30 1413 C 135.756 -0.907912 1.80111 0
M  V30 1414 C 136.069 -1.84214 0.657619 0
M  V30 1415 O 137.275 -2.60094 0.778663 0
M  V30 1416 C 135.731 -1.66485 3.19078 0
M  V30 1417 C 135.339 -0.7752 4.41242 0
M  V30 1418 C 137.083 -2.37201 3.52045 0
M  V30 1419 C 134.99 -1.53129 5.71231 0
M  V30 1420 H 133.92 -0.34276 0.671589 0
M  V30 1421 H 136.571 -0.161109 1.82791 0
M  V30 1422 H 134.953 -2.45572 3.10661 0
M  V30 1423 H 136.127 -0.0226298 4.60794 0
M  V30 1424 H 134.442 -0.178627 4.16017 0
M  V30 1425 H 137.039 -2.94329 4.46402 0
M  V30 1426 H 137.382 -3.11632 2.76028 0
M  V30 1427 H 137.915 -1.65075 3.61932 0
M  V30 1428 H 134.654 -0.82967 6.50228 0
M  V30 1429 H 134.174 -2.25767 5.55688 0
M  V30 1430 H 135.853 -2.08377 6.12526 0
M  V30 1431 N 135.985 -1.50799 -0.457987 0
M  V30 1432 C 137.215 -1.65977 -1.23025 0
M  V30 1433 C 137.623 -0.347918 -1.85974 0
M  V30 1434 O 136.966 0.68148 -1.70592 0
M  V30 1435 C 137.028 -2.70309 -2.3701 0
M  V30 1436 C 136.692 -4.135 -1.94594 0
M  V30 1437 C 137.689 -4.98949 -1.46101 0
M  V30 1438 C 135.374 -4.5949 -2.02915 0
M  V30 1439 C 137.368 -6.28442 -1.06489 0
M  V30 1440 C 135.055 -5.88984 -1.62914 0
M  V30 1441 C 136.053 -6.73286 -1.1478 0
M  V30 1442 O 135.741 -8.00362 -0.75339 0
M  V30 1443 H 135.473 -0.56064 -0.377702 0
M  V30 1444 H 138.027 -1.97857 -0.551537 0
M  V30 1445 H 136.257 -2.337 -3.08093 0
M  V30 1446 H 137.946 -2.74574 -2.98938 0
M  V30 1447 H 138.712 -4.6463 -1.39084 0
M  V30 1448 H 134.591 -3.94009 -2.39328 0
M  V30 1449 H 138.135 -6.94194 -0.688488 0
M  V30 1450 H 134.032 -6.22822 -1.69595 0
M  V30 1451 H 134.8 -8.13744 -0.88108 0
M  V30 1452 N 137.463 0.71206 -1.40597 0
M  V30 1453 C 138.711 1.46907 -1.38791 0
M  V30 1454 C 139.032 1.94998 0.00780391 0
M  V30 1455 O 138.302 1.70587 0.963174 0
M  V30 1456 H 136.882 0.545043 -0.51082 0
M  V30 1457 H 139.544 0.843882 -1.75683 0
M  V30 1458 H 138.64 2.34021 -2.06496 0
M  V30 1459 N 138.941 1.26152 0.944643 0
M  V30 1460 C 140.171 1.14094 1.72239 0
M  V30 1461 C 140.579 -0.306931 1.86694 0
M  V30 1462 O 139.922 -1.22222 1.3714 0
M  V30 1463 C 139.984 1.73316 3.14963 0
M  V30 1464 C 139.648 3.2239 3.23904 0
M  V30 1465 C 140.645 4.19252 3.07447 0
M  V30 1466 C 138.33 3.62788 3.47405 0
M  V30 1467 C 140.324 5.54491 3.14353 0
M  V30 1468 C 138.011 4.98162 3.53947 0
M  V30 1469 C 139.009 5.93823 3.37436 0
M  V30 1470 O 138.697 7.26732 3.43679 0
M  V30 1471 H 138.429 0.398292 0.546205 0
M  V30 1472 H 140.983 1.67201 1.19301 0
M  V30 1473 H 139.213 1.14667 3.69308 0
M  V30 1474 H 140.902 1.56214 3.74636 0
M  V30 1475 H 141.668 3.8938 2.8915 0
M  V30 1476 H 137.547 2.88816 3.59313 0
M  V30 1477 H 141.091 6.29137 3.01384 0
M  V30 1478 H 136.988 5.27695 3.71763 0
M  V30 1479 H 137.756 7.3496 3.60245 0
M  V30 1480 N 140.419 -1.14872 1.07899 0
M  V30 1481 C 141.667 -1.85422 0.803941 0
M  V30 1482 C 141.988 -1.83051 -0.67211 0
M  V30 1483 O 141.258 -1.27532 -1.48703 0
M  V30 1484 H 139.838 -0.686537 0.294408 0
M  V30 1485 H 142.5 -1.39226 1.3639 0
M  V30 1486 H 141.596 -2.90399 1.14346 0
M  V30 1487 N 141.898 -0.863906 -1.31812 0
M  V30 1488 C 142.828 -0.330843 -2.31144 0
M  V30 1489 C 143.809 0.575005 -1.60087 0
M  V30 1490 O 144.994 0.493304 -1.8783 0
M  V30 1491 C 142.124 0.47374 -3.44054 0
M  V30 1492 C 141.078 -0.338481 -4.26659 0
M  V30 1493 C 140.404 0.591412 -5.31419 0
M  V30 1494 C 141.704 -1.56926 -4.98168 0
M  V30 1495 H 143.398 -1.16086 -2.75979 0
M  V30 1496 H 140.944 -0.559657 -1.32679 0
M  V30 1497 H 142.897 0.857143 -4.12591 0
M  V30 1498 H 141.621 1.33721 -2.9797 0
M  V30 1499 H 140.28 -0.703754 -3.59782 0
M  V30 1500 H 139.928 1.45199 -4.81587 0
M  V30 1501 H 139.628 0.0519022 -5.87577 0
M  V30 1502 H 141.152 0.97179 -6.02817 0
M  V30 1503 H 142.566 -1.25764 -5.59336 0
M  V30 1504 H 140.963 -2.04739 -5.64094 0
M  V30 1505 H 142.033 -2.32544 -4.25501 0
M  V30 1506 N 143.376 1.44774 -0.622745 0
M  V30 1507 C 144.606 2.06187 -0.130532 0
M  V30 1508 C 145.014 1.46547 1.19669 0
M  V30 1509 O 144.357 0.579636 1.74316 0
M  V30 1510 C 144.419 3.59437 0.0674983 0
M  V30 1511 C 144.083 4.41496 -1.18026 0
M  V30 1512 C 145.08 4.75512 -2.102 0
M  V30 1513 C 142.765 4.82007 -1.41333 0
M  V30 1514 C 144.759 5.48912 -3.23998 0
M  V30 1515 C 142.446 5.55157 -2.55429 0
M  V30 1516 C 143.444 5.88528 -3.46589 0
M  V30 1517 O 143.132 6.60191 -4.58697 0
M  V30 1518 H 142.864 0.672045 -0.0730162 0
M  V30 1519 H 145.418 1.86768 -0.854802 0
M  V30 1520 H 143.648 3.77314 0.846825 0
M  V30 1521 H 145.337 4.02642 0.513209 0
M  V30 1522 H 146.103 4.4476 -1.93425 0
M  V30 1523 H 141.982 4.55457 -0.712709 0
M  V30 1524 H 145.526 5.74877 -3.95174 0
M  V30 1525 H 141.423 5.85324 -2.72151 0
M  V30 1526 H 142.191 6.78654 -4.57571 0
M  V30 1527 N 144.854 0.36279 1.53368 0
M  V30 1528 C 145.764 -0.492994 2.29362 0
M  V30 1529 C 146.78 -1.09507 1.35219 0
M  V30 1530 O 147.956 -1.10662 1.68273 0
M  V30 1531 C 145.021 -1.61855 3.066 0
M  V30 1532 C 144.082 -1.04429 4.16405 0
M  V30 1533 C 143.315 -2.11621 4.89951 0
M  V30 1534 O 143.538 -3.32684 4.63333 0
M  V30 1535 O 142.472 -1.74835 5.75948 0
M  V30 1536 H 146.298 0.125331 3.03441 0
M  V30 1537 H 143.883 0.127253 1.48857 0
M  V30 1538 H 145.765 -2.27302 3.54841 0
M  V30 1539 H 144.44 -2.22233 2.3536 0
M  V30 1540 H 143.347 -0.353819 3.72423 0
M  V30 1541 H 144.68 -0.485113 4.89804 0
M  V30 1542 N 146.332 -1.57332 0.0918853 0
M  V30 1543 C 147.578 -1.94524 -0.573425 0
M  V30 1544 C 147.911 -0.973578 -1.68033 0
M  V30 1545 O 147.186 -0.00609226 -1.94499 0
M  V30 1546 C 147.469 -3.41858 -1.13161 0
M  V30 1547 C 147.322 -4.4979 -0.0299747 0
M  V30 1548 C 148.641 -3.90435 -2.03098 0
M  V30 1549 H 145.76 -0.70734 -0.206975 0
M  V30 1550 H 148.402 -1.89309 0.161942 0
M  V30 1551 H 146.552 -3.46433 -1.7583 0
M  V30 1552 H 148.224 -4.57327 0.604112 0
M  V30 1553 H 146.467 -4.291 0.636833 0
M  V30 1554 H 147.138 -5.50069 -0.461287 0
M  V30 1555 H 149.614 -3.87992 -1.50338 0
M  V30 1556 H 148.49 -4.94097 -2.39081 0
M  V30 1557 H 148.751 -3.29541 -2.94712 0
M  V30 1558 N 147.81 0.181792 -1.56548 0
M  V30 1559 C 149.035 0.920019 -1.85877 0
M  V30 1560 C 149.46 1.75494 -0.677021 0
M  V30 1561 O 148.818 1.77399 0.374056 0
M  V30 1562 C 148.866 1.78112 -3.13542 0
M  V30 1563 O 147.97 2.88152 -2.95029 0
M  V30 1564 H 147.311 0.258334 -0.611686 0
M  V30 1565 H 149.841 0.183092 -2.03779 0
M  V30 1566 H 149.851 2.18314 -3.44678 0
M  V30 1567 H 148.526 1.16777 -3.99169 0
M  V30 1568 H 147.103 2.51609 -2.75222 0
M  V30 1569 N 149.288 1.51039 0.449983 0
M  V30 1570 C 150.221 1.66105 1.56474 0
M  V30 1571 C 151.199 0.508776 1.54435 0
M  V30 1572 O 152.383 0.731005 1.73749 0
M  V30 1573 C 149.51 1.66304 2.9506 0
M  V30 1574 C 148.556 2.87346 3.15174 0
M  V30 1575 S 149.389 4.4835 2.92818 0
M  V30 1576 C 150.545 4.51274 4.33708 0
M  V30 1577 H 150.778 2.60397 1.43459 0
M  V30 1578 H 148.311 1.40565 0.638805 0
M  V30 1579 H 150.269 1.67103 3.74949 0
M  V30 1580 H 148.93 0.732108 3.05449 0
M  V30 1581 H 148.123 2.83849 4.16468 0
M  V30 1582 H 147.725 2.84223 2.43091 0
M  V30 1583 H 150.017 4.26136 5.26701 0
M  V30 1584 H 150.96 5.53017 4.42242 0
M  V30 1585 H 151.368 3.80738 4.16772 0
M  V30 1586 N 150.766 -0.704594 1.40972 0
M  V30 1587 C 151.713 -1.81862 1.42109 0
M  V30 1588 C 152.683 -1.63781 0.276593 0
M  V30 1589 O 153.868 -1.84759 0.4763 0
M  V30 1590 C 151.008 -3.19669 1.30022 0
M  V30 1591 C 150.121 -3.49246 2.54267 0
M  V30 1592 C 149.256 -4.76618 2.3454 0
M  V30 1593 C 148.295 -4.99133 3.54306 0
M  V30 1594 N 147.432 -6.17726 3.33706 0
M  V30 1595 H 152.272 -1.80226 2.37324 0
M  V30 1596 H 149.809 -0.880238 1.17857 0
M  V30 1597 H 151.767 -3.99263 1.21018 0
M  V30 1598 H 150.397 -3.20506 0.384192 0
M  V30 1599 H 149.449 -2.64125 2.73756 0
M  V30 1600 H 150.761 -3.61788 3.43381 0
M  V30 1601 H 149.915 -5.64249 2.22952 0
M  V30 1602 H 148.654 -4.66305 1.42867 0
M  V30 1603 H 147.659 -4.09953 3.66359 0
M  V30 1604 H 148.884 -5.11311 4.4692 0
M  V30 1605 H 146.83 -6.08642 2.44725 0
M  V30 1606 H 146.747 -6.30995 4.16391 0
M  V30 1607 H 148.015 -7.08115 3.25873 0
M  V30 1608 N 152.244 -1.26651 -0.937939 0
M  V30 1609 C 153.655 -1.1125 -1.49934 0
M  V30 1610 C 154.006 0.306077 -1.93798 0
M  V30 1611 O 153.131 1.19792 -1.80219 0
M  V30 1612 C 153.726 -2.01339 -2.72485 0
M  V30 1613 C 152.285 -1.90074 -3.24883 0
M  V30 1614 C 151.432 -1.94498 -1.97651 0
M  V30 1615 H 154.383 -1.39693 -0.753091 0
M  V30 1616 H 154.404 -1.56319 -3.46907 0
M  V30 1617 H 153.916 -3.04577 -2.40529 0
M  V30 1618 H 152.017 -0.897827 -3.61621 0
M  V30 1619 H 152.13 -2.75778 -3.9177 0
M  V30 1620 H 150.494 -1.38591 -2.13693 0
M  V30 1621 H 151.277 -2.99372 -1.68022 0
M  V30 1622 N 153.722 1.14298 -1.08507 0
M  V30 1623 C 154.685 2.17607 -0.719711 0
M  V30 1624 C 155.685 1.58907 0.245997 0
M  V30 1625 O 156.875 1.74181 0.0254081 0
M  V30 1626 C 154.007 3.40842 -0.0627695 0
M  V30 1627 H 155.2 2.51443 -1.63452 0
M  V30 1628 H 152.753 1.28963 -0.88307 0
M  V30 1629 H 153.488 3.12587 0.863716 0
M  V30 1630 H 153.273 3.84713 -0.757504 0
M  V30 1631 H 154.763 4.17221 0.177786 0
M  V30 1632 N 155.201 0.870884 1.31352 0
M  V30 1633 C 156.148 0.325425 2.28494 0
M  V30 1634 C 157.118 -0.576615 1.5577 0
M  V30 1635 O 158.303 -0.508059 1.83911 0
M  V30 1636 C 155.443 -0.466283 3.41935 0
M  V30 1637 C 154.556 0.463378 4.29508 0
M  V30 1638 C 153.691 -0.342544 5.30094 0
M  V30 1639 C 152.73 0.583486 6.09313 0
M  V30 1640 N 151.867 -0.186244 7.01853 0
M  V30 1641 H 156.707 1.15901 2.74538 0
M  V30 1642 H 154.244 0.58294 1.35056 0
M  V30 1643 H 156.202 -0.941085 4.06447 0
M  V30 1644 H 154.832 -1.26456 2.97 0
M  V30 1645 H 153.884 1.05663 3.65431 0
M  V30 1646 H 155.196 1.1734 4.84802 0
M  V30 1647 H 154.35 -0.879816 6.00287 0
M  V30 1648 H 153.089 -1.08585 4.75458 0
M  V30 1649 H 152.094 1.13251 5.3801 0
M  V30 1650 H 153.319 1.32566 6.66035 0
M  V30 1651 H 151.265 -0.912348 6.49625 0
M  V30 1652 H 151.182 0.464422 7.54572 0
M  V30 1653 H 152.45 -0.704716 7.76308 0
M  V30 1654 N 156.679 -1.44442 0.630414 0
M  V30 1655 C 157.627 -2.32437 -0.0871428 0
M  V30 1656 C 158.621 -1.47304 -0.836525 0
M  V30 1657 O 159.827 -1.63653 -0.749506 0
M  V30 1658 H 156.202 -0.750533 -0.0469495 0
M  V30 1659 H 158.173 -2.90709 0.673096 0
M  V30 1660 C 156.922 -3.31288 -1.05563 0
M  V30 1661 H 156.245 -3.96805 -0.488426 0
M  V30 1662 H 157.685 -3.9554 -1.52721 0
M  V30 1663 C 156.144 -2.6016 -2.14052 0
M  V30 1664 O 156.674 -2.39997 -3.22124 0
M  V30 1665 N 154.88 -2.19911 -1.89967 0
M  V30 1666 H 154.427 -2.36509 -1.02085 0
M  V30 1667 H 154.385 -1.72646 -2.62756 0
M  V30 1668 N 158.157 -0.370918 -1.53173 0
M  V30 1669 C 159.385 0.217704 -2.05751 0
M  V30 1670 C 159.8 1.42018 -1.24404 0
M  V30 1671 O 159.157 1.80245 -0.286033 0
M  V30 1672 C 159.208 0.605954 -3.56385 0
M  V30 1673 O 158.929 -0.548734 -4.3465 0
M  V30 1674 C 160.43 1.2524 -4.25241 0
M  V30 1675 H 157.65 0.0371659 -0.66997 0
M  V30 1676 H 160.194 -0.530832 -1.9749 0
M  V30 1677 H 158.349 1.3044 -3.6478 0
M  V30 1678 H 158.763 -0.23376 -5.23979 0
M  V30 1679 H 160.237 1.47458 -5.3194 0
M  V30 1680 H 160.714 2.2143 -3.79296 0
M  V30 1681 H 161.32 0.595233 -4.21114 0
M  V30 1682 N 159.635 1.57281 -0.100228 0
M  V30 1683 C 160.883 1.94153 0.561157 0
M  V30 1684 C 161.204 0.983157 1.68401 0
M  V30 1685 O 160.474 0.0361132 1.95867 0
M  V30 1686 H 159.054 0.716791 0.210283 0
M  V30 1687 H 161.716 1.94202 -0.164765 0
M  V30 1688 H 160.812 2.96709 0.968008 0
M  V30 1689 N 161.113 -0.173488 1.56642 0
M  V30 1690 C 162.362 -0.888758 1.81063 0
M  V30 1691 C 162.675 -1.83506 0.67712 0
M  V30 1692 O 163.881 -2.59254 0.806206 0
M  V30 1693 C 162.337 -1.63091 3.20826 0
M  V30 1694 C 161.945 -0.728357 4.4204 0
M  V30 1695 C 163.689 -2.33454 3.54541 0
M  V30 1696 C 161.596 -1.47062 5.72823 0
M  V30 1697 H 160.526 -0.335618 0.675186 0
M  V30 1698 H 163.177 -0.141712 1.82952 0
M  V30 1699 H 161.559 -2.42263 3.13248 0
M  V30 1700 H 162.733 0.0262449 4.60793 0
M  V30 1701 H 161.048 -0.134492 4.16183 0
M  V30 1702 H 163.645 -2.89578 4.49498 0
M  V30 1703 H 163.988 -3.08687 2.79317 0
M  V30 1704 H 164.521 -1.61227 3.63663 0
M  V30 1705 H 161.26 -0.760658 6.51072 0
M  V30 1706 H 160.78 -2.1986 5.58052 0
M  V30 1707 H 162.459 -2.01868 6.14702 0
M  V30 1708 N 162.591 -1.51276 -0.441967 0
M  V30 1709 C 163.837 -1.63958 -1.19355 0
M  V30 1710 C 164.17 -0.352543 -1.90973 0
M  V30 1711 O 163.445 0.647627 -1.83401 0
M  V30 1712 C 163.728 -2.83979 -2.21422 0
M  V30 1713 C 163.581 -4.22646 -1.53918 0
M  V30 1714 C 164.9 -2.99521 -3.22451 0
M  V30 1715 H 162.019 -0.596709 -0.432559 0
M  V30 1716 H 164.661 -1.83748 -0.483398 0
M  V30 1717 H 162.811 -2.67237 -2.81987 0
M  V30 1718 H 164.483 -4.51045 -0.967256 0
M  V30 1719 H 162.726 -4.25558 -0.841615 0
M  V30 1720 H 163.397 -5.02609 -2.28229 0
M  V30 1721 H 165.873 -3.14944 -2.71937 0
M  V30 1722 H 164.749 -3.85072 -3.91166 0
M  V30 1723 H 165.01 -2.11391 -3.88287 0
M  V30 1724 N 164.069 0.697108 -1.41344 0
M  V30 1725 C 165.294 1.49096 -1.44171 0
M  V30 1726 C 165.719 1.88038 -0.0481568 0
M  V30 1727 O 165.077 1.54525 0.948243 0
M  V30 1728 C 165.125 2.73088 -2.3549 0
M  V30 1729 O 164.229 3.70514 -1.81088 0
M  V30 1730 H 163.57 0.448801 -0.489361 0
M  V30 1731 H 166.1 0.856992 -1.85787 0
M  V30 1732 H 166.11 3.21413 -2.51312 0
M  V30 1733 H 164.785 2.44081 -3.36745 0
M  V30 1734 H 163.362 3.29441 -1.74708 0
M  V30 1735 N 165.547 1.27147 0.931209 0
M  V30 1736 C 166.772 1.16191 1.71797 0
M  V30 1737 C 167.197 -0.278004 1.86034 0
M  V30 1738 O 166.555 -1.20137 1.35782 0
M  V30 1739 C 166.603 1.84673 3.09723 0
M  V30 1740 O 165.707 1.14231 3.96264 0
M  V30 1741 H 165.048 0.404303 0.526721 0
M  V30 1742 H 167.578 1.68152 1.1656 0
M  V30 1743 H 167.588 1.91893 3.60057 0
M  V30 1744 H 166.263 2.89421 2.98677 0
M  V30 1745 H 164.84 1.15056 3.54706 0
M  V30 1746 N 167.025 -1.13721 1.09112 0
M  V30 1747 C 168.272 -1.84924 0.825192 0
M  V30 1748 C 168.6 -1.83347 -0.649151 0
M  V30 1749 O 167.855 -1.26449 -1.49362 0
M  V30 1750 C 168.154 -3.32861 1.30146 0
M  V30 1751 C 167.82 -3.54621 2.78486 0
M  V30 1752 C 166.482 -3.60268 3.18999 0
M  V30 1753 C 168.834 -3.62855 3.74146 0
M  V30 1754 C 166.162 -3.71679 4.53951 0
M  V30 1755 C 168.514 -3.75793 5.08883 0
M  V30 1756 C 167.178 -3.79692 5.4899 0
M  V30 1757 H 166.448 -0.676684 0.301959 0
M  V30 1758 H 169.095 -1.3428 1.36533 0
M  V30 1759 H 167.4 -3.85835 0.681064 0
M  V30 1760 H 169.097 -3.86395 1.07236 0
M  V30 1761 H 165.687 -3.50879 2.46134 0
M  V30 1762 H 169.871 -3.57775 3.43963 0
M  V30 1763 H 165.127 -3.72963 4.84467 0
M  V30 1764 H 169.301 -3.81107 5.82864 0
M  V30 1765 H 166.928 -3.88287 6.53558 0
M  V30 1766 N 168.503 -0.877838 -1.30888 0
M  V30 1767 C 169.75 -0.492696 -1.96415 0
M  V30 1768 C 170.078 0.956671 -1.69346 0
M  V30 1769 O 169.333 1.68993 -0.986913 0
M  V30 1770 C 169.632 -0.705748 -3.50363 0
M  V30 1771 C 169.298 -2.1291 -3.97467 0
M  V30 1772 C 167.96 -2.51834 -4.1004 0
M  V30 1773 C 170.312 -3.05702 -4.22132 0
M  V30 1774 C 167.64 -3.82775 -4.44635 0
M  V30 1775 C 169.992 -4.36166 -4.58194 0
M  V30 1776 C 168.656 -4.74993 -4.68975 0
M  V30 1777 H 167.926 -0.18029 -0.718733 0
M  V30 1778 H 170.573 -1.11233 -1.55883 0
M  V30 1779 H 168.878 -0.00303058 -3.918 0
M  V30 1780 H 170.575 -0.387456 -3.99124 0
M  V30 1781 H 167.165 -1.81694 -3.88182 0
M  V30 1782 H 171.349 -2.76853 -4.11906 0
M  V30 1783 H 166.605 -4.12609 -4.51181 0
M  V30 1784 H 170.779 -5.08111 -4.76231 0
M  V30 1785 H 168.406 -5.76495 -4.95537 0
M  V30 1786 N 169.982 1.44106 -0.638065 0
M  V30 1787 C 171.21 2.06336 -0.152615 0
M  V30 1788 C 171.625 1.47731 1.17563 0
M  V30 1789 O 170.982 0.602806 1.72257 0
M  V30 1790 C 171.033 3.61479 -0.0391491 0
M  V30 1791 O 170.754 4.17903 -1.31487 0
M  V30 1792 C 172.255 4.40757 0.474176 0
M  V30 1793 H 169.475 0.665862 -0.0828776 0
M  V30 1794 H 172.019 1.84862 -0.87443 0
M  V30 1795 H 170.174 3.82191 0.633142 0
M  V30 1796 H 170.588 5.11416 -1.16421 0
M  V30 1797 H 172.062 5.49707 0.502562 0
M  V30 1798 H 172.539 4.12697 1.50258 0
M  V30 1799 H 173.145 4.24979 -0.165102 0
M  V30 1800 N 171.46 0.379036 1.52974 0
M  V30 1801 C 172.69 -0.20649 2.05566 0
M  V30 1802 C 173.098 -1.41906 1.25137 0
M  V30 1803 O 172.441 -1.81421 0.288464 0
M  V30 1804 C 172.503 -0.651086 3.53555 0
M  V30 1805 C 172.167 0.446626 4.54812 0
M  V30 1806 C 173.164 1.30079 5.03364 0
M  V30 1807 C 170.849 0.610719 4.98573 0
M  V30 1808 C 172.843 2.30426 5.94292 0
M  V30 1809 C 170.53 1.61754 5.89304 0
M  V30 1810 C 171.528 2.46274 6.37054 0
M  V30 1811 O 171.216 3.45237 7.25994 0
M  V30 1812 H 170.948 -0.0372381 0.674974 0
M  V30 1813 H 173.502 0.539718 1.98182 0
M  V30 1814 H 171.732 -1.44911 3.58522 0
M  V30 1815 H 173.421 -1.16112 3.88938 0
M  V30 1816 H 174.187 1.18527 4.70294 0
M  V30 1817 H 170.066 -0.0374044 4.60985 0
M  V30 1818 H 173.61 2.96432 6.31485 0
M  V30 1819 H 169.507 1.73348 6.21788 0
M  V30 1820 H 170.275 3.41124 7.44027 0
M  V30 1821 N 172.938 -1.57226 0.108567 0
M  V30 1822 C 174.166 -1.99179 -0.559954 0
M  V30 1823 C 174.581 -0.988022 -1.60884 0
M  V30 1824 O 173.938 0.0205512 -1.82488 0
M  V30 1825 C 173.989 -3.41159 -1.19552 0
M  V30 1826 O 173.71 -4.37694 -0.188577 0
M  V30 1827 C 175.211 -3.98188 -1.94837 0
M  V30 1828 H 172.431 -0.654228 -0.149088 0
M  V30 1829 H 174.975 -2.03598 0.19183 0
M  V30 1830 H 173.13 -3.37711 -1.89815 0
M  V30 1831 H 173.544 -5.20469 -0.649014 0
M  V30 1832 H 175.018 -4.99644 -2.34648 0
M  V30 1833 H 175.495 -3.3675 -2.81951 0
M  V30 1834 H 176.101 -4.0515 -1.2936 0
M  V30 1835 N 174.416 0.165178 -1.56732 0
M  V30 1836 C 175.664 0.879068 -1.8198 0
M  V30 1837 C 175.985 1.82514 -0.686561 0
M  V30 1838 O 175.255 1.93694 0.293146 0
M  V30 1839 H 173.835 0.327608 -0.671329 0
M  V30 1840 H 176.497 0.163526 -1.94213 0
M  V30 1841 H 175.593 1.45228 -2.76252 0
M  V30 1842 N 175.894 1.51508 0.433938 0
M  V30 1843 C 177.305 1.56784 1.01369 0
M  V30 1844 C 177.656 0.393349 1.92217 0
M  V30 1845 O 176.781 -0.489441 2.10792 0
M  V30 1846 C 177.376 2.84144 1.8452 0
M  V30 1847 C 175.935 2.9198 2.37539 0
M  V30 1848 C 175.082 2.51482 1.16843 0
M  V30 1849 H 178.033 1.57236 0.215081 0
M  V30 1850 H 178.054 2.68098 2.70007 0
M  V30 1851 H 177.566 3.69607 1.18373 0
M  V30 1852 H 175.667 2.10955 3.0713 0
M  V30 1853 H 175.78 3.95704 2.70103 0
M  V30 1854 H 174.144 2.04758 1.51481 0
M  V30 1855 H 174.927 3.39293 0.523015 0
M  V30 1856 N 177.372 -0.689602 1.41712 0
M  V30 1857 C 178.335 -1.78521 1.43746 0
M  V30 1858 C 179.335 -1.57436 0.327191 0
M  V30 1859 O 180.525 -1.64 0.587348 0
M  V30 1860 C 177.657 -3.16971 1.25467 0
M  V30 1861 H 178.85 -1.78108 2.41283 0
M  V30 1862 H 176.403 -0.89781 1.27942 0
M  V30 1863 H 177.138 -3.23019 0.287948 0
M  V30 1864 H 176.923 -3.33678 2.05917 0
M  V30 1865 H 178.413 -3.96935 1.2974 0
M  V30 1866 N 178.85 -1.27639 -0.924453 0
M  V30 1867 C 179.8 -1.07295 -2.01176 0
M  V30 1868 C 180.784 5.77352e-05 -1.609 0
M  V30 1869 O 181.976 -0.218855 -1.75642 0
M  V30 1870 C 179.105 -0.725592 -3.35544 0
M  V30 1871 C 178.191 -1.83691 -3.82254 0
M  V30 1872 N 178.582 -3.07697 -4.01443 0
M  V30 1873 C 176.88 -1.72433 -4.11319 0
M  V30 1874 C 177.581 -3.80037 -4.40394 0
M  V30 1875 N 176.557 -3.0782 -4.48049 0
M  V30 1876 H 180.359 -2.01399 -2.14046 0
M  V30 1877 H 177.873 -1.18401 -1.11153 0
M  V30 1878 H 179.87 -0.560959 -4.13109 0
M  V30 1879 H 178.53 0.207782 -3.24034 0
M  V30 1880 H 179.541 -3.43424 -3.8766 0
M  V30 1881 H 176.218 -0.862005 -4.08504 0
M  V30 1882 H 177.608 -4.86632 -4.63291 0
M  V30 1883 N 180.328 1.1314 -1.09713 0
M  V30 1884 C 181.576 1.84119 -0.833338 0
M  V30 1885 C 181.897 1.84097 0.642904 0
M  V30 1886 O 181.167 1.29881 1.46655 0
M  V30 1887 H 179.747 0.681766 -0.305293 0
M  V30 1888 H 182.409 1.37038 -1.38588 0
M  V30 1889 H 181.505 2.88543 -1.18951 0
M  V30 1890 N 181.806 0.884767 1.30421 0
M  V30 1891 C 183.034 0.518044 2.0031 0
M  V30 1892 C 183.449 -0.893408 1.66324 0
M  V30 1893 O 182.806 -1.5875 0.900262 0
M  V30 1894 C 182.857 0.682997 3.54989 0
M  V30 1895 O 182.578 2.03888 3.87764 0
M  V30 1896 C 184.079 0.31924 4.42149 0
M  V30 1897 H 181.299 0.200265 0.640418 0
M  V30 1898 H 183.843 1.19001 1.6631 0
M  V30 1899 H 181.998 0.0584052 3.87356 0
M  V30 1900 H 182.412 2.05735 4.82466 0
M  V30 1901 H 183.886 0.485555 5.4986 0
M  V30 1902 H 184.363 -0.742717 4.32875 0
M  V30 1903 H 184.969 0.920147 4.15227 0
M  V30 1904 N 183.284 -1.43765 0.645699 0
M  V30 1905 C 184.216 -2.29027 -0.0890605 0
M  V30 1906 C 185.229 -1.42093 -0.794563 0
M  V30 1907 O 186.418 -1.66104 -0.653575 0
M  V30 1908 C 183.518 -3.18831 -1.14891 0
M  V30 1909 C 182.691 -4.34261 -0.523043 0
M  V30 1910 C 181.75 -5.04994 -1.47878 0
M  V30 1911 O 180.776 -5.6052 -0.990277 0
M  V30 1912 N 181.978 -5.07795 -2.81291 0
M  V30 1913 H 184.743 -2.92727 0.64272 0
M  V30 1914 H 182.304 -1.54373 0.487924 0
M  V30 1915 H 184.296 -3.63015 -1.78892 0
M  V30 1916 H 182.866 -2.56782 -1.78275 0
M  V30 1917 H 182.086 -3.93088 0.295896 0
M  V30 1918 H 183.374 -5.08728 -0.0858147 0
M  V30 1919 H 182.772 -4.64042 -3.23546 0
M  V30 1920 H 181.329 -5.55721 -3.40614 0
M  V30 1921 N 184.763 -0.387143 -1.52771 0
M  V30 1922 C 186.009 0.188506 -2.02525 0
M  V30 1923 C 186.364 1.44649 -1.26864 0
M  V30 1924 O 185.657 1.88189 -0.359945 0
M  V30 1925 C 185.851 0.512209 -3.53711 0
M  V30 1926 C 185.68 -0.712855 -4.44014 0
M  V30 1927 C 184.45 -1.23147 -4.90064 0
M  V30 1928 C 186.648 -1.58453 -4.89282 0
M  V30 1929 N 184.63 -2.41431 -5.64433 0
M  V30 1930 C 186.001 -2.61381 -5.6221 0
M  V30 1931 C 188.056 -1.60488 -4.71326 0
M  V30 1932 C 186.759 -3.66227 -6.19088 0
M  V30 1933 C 188.785 -2.6424 -5.29085 0
M  V30 1934 C 188.147 -3.6589 -6.01917 0
M  V30 1935 H 184.246 0.0311236 -0.78138 0
M  V30 1936 H 186.83 -0.536548 -1.87161 0
M  V30 1937 H 185.001 1.20632 -3.69192 0
M  V30 1938 H 186.733 1.07482 -3.90166 0
M  V30 1939 H 183.488 -0.792795 -4.66917 0
M  V30 1940 H 183.912 -3.01274 -6.0627 0
M  V30 1941 H 188.554 -0.83247 -4.14524 0
M  V30 1942 H 186.272 -4.44337 -6.74974 0
M  V30 1943 H 189.858 -2.66695 -5.17074 0
M  V30 1944 H 188.738 -4.44855 -6.45813 0
M  V30 1945 N 186.241 1.57166 -0.116904 0
M  V30 1946 C 187.518 1.86645 0.585049 0
M  V30 1947 C 187.898 1.0177 1.84949 0
M  V30 1948 O 187.246 0.0960379 2.28298 0
M  V30 1949 C 187.456 3.37736 0.879507 0
M  V30 1950 C 188.804 4.06289 1.23348 0
M  V30 1951 O 189.828 3.42743 0.969836 0
M  V30 1952 O 188.687 5.18455 1.7282 0
M  V30 1953 H 185.781 0.772593 0.295007 0
M  V30 1954 H 188.327 1.69025 -0.151249 0
M  V30 1955 H 187.099 3.91296 -0.0166136 0
M  V30 1956 H 186.722 3.6078 1.67103 0
M  V30 1957 N 187.719 -0.156864 1.56817 0
M  V30 1958 C 188.629 -1.2136 2.00771 0
M  V30 1959 C 189.645 -1.47598 0.921459 0
M  V30 1960 O 190.821 -1.59462 1.2302 0
M  V30 1961 C 187.886 -2.52943 2.37109 0
M  V30 1962 C 186.947 -2.34439 3.59634 0
M  V30 1963 C 186.18 -3.59748 3.94229 0
M  V30 1964 O 186.403 -4.65526 3.29609 0
M  V30 1965 O 185.337 -3.52998 4.8752 0
M  V30 1966 H 189.163 -0.870468 2.90958 0
M  V30 1967 H 186.748 -0.36484 1.44877 0
M  V30 1968 H 188.63 -3.30538 2.61386 0
M  V30 1969 H 187.305 -2.86806 1.5008 0
M  V30 1970 H 186.212 -1.54828 3.40557 0
M  V30 1971 H 187.545 -2.05496 4.4725 0
M  V30 1972 N 189.197 -1.51736 -0.425897 0
M  V30 1973 C 190.446 -1.64201 -1.17136 0
M  V30 1974 C 190.759 -0.369705 -1.92074 0
M  V30 1975 O 191.965 -0.373898 -2.68913 0
M  V30 1976 C 190.421 -2.90035 -2.13091 0
M  V30 1977 C 190.029 -4.24312 -1.43747 0
M  V30 1978 C 191.773 -3.1186 -2.87999 0
M  V30 1979 C 189.68 -5.41285 -2.38253 0
M  V30 1980 H 188.61 -0.611624 -0.440944 0
M  V30 1981 H 191.261 -1.78212 -0.437328 0
M  V30 1982 H 189.643 -2.69684 -2.89977 0
M  V30 1983 H 190.817 -4.55086 -0.723408 0
M  V30 1984 H 189.132 -4.08456 -0.809465 0
M  V30 1985 H 191.729 -3.96427 -3.58817 0
M  V30 1986 H 192.072 -2.25403 -3.49999 0
M  V30 1987 H 192.605 -3.32605 -2.18217 0
M  V30 1988 H 189.344 -6.30037 -1.80925 0
M  V30 1989 H 188.864 -5.14872 -3.0768 0
M  V30 1990 H 190.543 -5.73694 -2.99139 0
M  V30 1991 N 190.675 0.682077 -1.42076 0
M  V30 1992 C 191.952 1.43755 -1.32642 0
M  V30 1993 C 192.332 2.11063 0.0396611 0
M  V30 1994 O 191.68 2.02701 1.05474 0
M  V30 1995 C 191.89 2.44596 -2.48946 0
M  V30 1996 C 193.238 3.09454 -2.9073 0
M  V30 1997 O 194.262 2.54922 -2.48783 0
M  V30 1998 O 193.121 4.08253 -3.63307 0
M  V30 1999 H 190.215 0.640857 -0.522715 0
M  V30 2000 H 192.761 0.711415 -1.54068 0
M  V30 2001 H 191.533 1.93609 -3.40046 0
M  V30 2002 H 191.156 3.24701 -2.29467 0
M  V30 2003 N 192.153 1.28127 0.917671 0
M  V30 2004 C 193.402 1.14432 1.66097 0
M  V30 2005 C 193.715 -0.307247 1.93172 0
M  V30 2006 O 194.921 -0.565259 2.65551 0
M  V30 2007 C 193.377 2.00015 2.99202 0
M  V30 2008 C 192.985 3.49889 2.79789 0
M  V30 2009 C 194.729 1.94996 3.77064 0
M  V30 2010 C 192.636 4.27636 4.08511 0
M  V30 2011 H 191.566 0.424662 0.62304 0
M  V30 2012 H 194.217 1.52628 1.01868 0
M  V30 2013 H 192.599 1.54672 3.64544 0
M  V30 2014 H 193.773 4.03162 2.23152 0
M  V30 2015 H 192.088 3.56392 2.15345 0
M  V30 2016 H 194.685 2.50354 4.72469 0
M  V30 2017 H 195.028 0.925819 4.05875 0
M  V30 2018 H 195.561 2.38287 3.18534 0
M  V30 2019 H 192.3 5.30615 3.84874 0
M  V30 2020 H 191.82 3.79137 4.64774 0
M  V30 2021 H 193.499 4.37346 4.76799 0
M  V30 2022 N 193.631 -1.12557 1.10312 0
M  V30 2023 C 194.541 -2.21841 0.763142 0
M  V30 2024 C 195.557 -1.72354 -0.238801 0
M  V30 2025 O 196.733 -2.01249 -0.0778746 0
M  V30 2026 C 193.798 -3.46131 0.198632 0
M  V30 2027 C 192.859 -4.10464 1.25769 0
M  V30 2028 C 192.092 -5.28821 0.72002 0
M  V30 2029 O 192.315 -5.6859 -0.453993 0
M  V30 2030 O 191.249 -5.83437 1.47935 0
M  V30 2031 H 195.075 -2.53312 1.67532 0
M  V30 2032 H 192.66 -1.20867 0.878157 0
M  V30 2033 H 194.542 -4.2125 -0.112401 0
M  V30 2034 H 193.217 -3.16338 -0.686419 0
M  V30 2035 H 192.124 -3.3713 1.62156 0
M  V30 2036 H 193.457 -4.44408 2.11571 0
M  V30 2037 N 195.109 -0.891671 -1.2995 0
M  V30 2038 C 196.356 -0.513501 -1.95881 0
M  V30 2039 C 196.684 0.938655 -1.70351 0
M  V30 2040 O 195.939 1.67936 -1.00478 0
M  V30 2041 C 196.238 -0.742868 -3.49594 0
M  V30 2042 C 195.904 -2.17114 -3.95186 0
M  V30 2043 C 194.566 -2.56169 -4.07346 0
M  V30 2044 C 196.918 -3.10162 -4.18866 0
M  V30 2045 C 194.246 -3.87469 -4.4055 0
M  V30 2046 C 196.598 -4.41001 -4.53542 0
M  V30 2047 C 195.262 -4.79941 -4.63911 0
M  V30 2048 H 194.532 -0.187903 -0.71678 0
M  V30 2049 H 197.179 -1.1288 -1.54694 0
M  V30 2050 H 195.484 -0.044586 -3.91775 0
M  V30 2051 H 197.181 -0.429767 -3.9869 0
M  V30 2052 H 193.771 -1.85801 -3.86233 0
M  V30 2053 H 197.955 -2.81206 -4.08946 0
M  V30 2054 H 193.211 -4.17371 -4.46779 0
M  V30 2055 H 197.385 -5.13133 -4.70815 0
M  V30 2056 H 195.012 -5.81719 -4.89395 0
M  V30 2057 N 196.587 1.43421 -0.653314 0
M  V30 2058 C 197.517 2.33487 0.0246656 0
M  V30 2059 C 198.498 1.49475 0.811863 0
M  V30 2060 O 199.683 1.78139 0.773322 0
M  V30 2061 C 196.813 3.32841 0.99166 0
M  V30 2062 C 195.767 4.26842 0.314568 0
M  V30 2063 C 195.093 5.16236 1.39302 0
M  V30 2064 C 196.393 5.16243 -0.793095 0
M  V30 2065 H 198.087 2.90427 -0.727481 0
M  V30 2066 H 195.633 1.39649 -0.351287 0
M  V30 2067 H 197.586 3.94747 1.47487 0
M  V30 2068 H 196.31 2.74158 1.77497 0
M  V30 2069 H 194.969 3.663 -0.148199 0
M  V30 2070 H 194.617 4.53891 2.16776 0
M  V30 2071 H 194.317 5.79948 0.945223 0
M  V30 2072 H 195.841 5.81015 1.87759 0
M  V30 2073 H 197.255 5.71958 -0.392039 0
M  V30 2074 H 195.652 5.88676 -1.16536 0
M  V30 2075 H 196.722 4.55927 -1.65103 0
M  V30 2076 N 198.065 0.39524 1.52563 0
M  V30 2077 C 199.313 -0.184678 2.01254 0
M  V30 2078 C 199.634 -1.46822 1.28329 0
M  V30 2079 O 198.904 -1.91666 0.405094 0
M  V30 2080 H 197.484 -0.0712355 0.743596 0
M  V30 2081 H 200.146 0.528293 1.87603 0
M  V30 2082 H 199.242 -0.390681 3.09645 0
M  V30 2083 N 199.544 -1.57102 0.125237 0
M  V30 2084 C 200.491 -2.15641 -0.822655 0
M  V30 2085 C 201.461 -1.08313 -1.25927 0
M  V30 2086 O 202.646 -1.36251 -1.33567 0
M  V30 2087 C 199.786 -2.76504 -2.06494 0
M  V30 2088 C 198.899 -3.98158 -1.67612 0
M  V30 2089 C 198.034 -4.47088 -2.86854 0
M  V30 2090 C 197.073 -5.6126 -2.44242 0
M  V30 2091 N 196.21 -6.04905 -3.56419 0
M  V30 2092 H 201.05 -2.96313 -0.316625 0
M  V30 2093 H 198.587 -1.46388 -0.144588 0
M  V30 2094 H 200.545 -3.09925 -2.79289 0
M  V30 2095 H 199.175 -1.98512 -2.54545 0
M  V30 2096 H 198.227 -3.70858 -0.846661 0
M  V30 2097 H 199.539 -4.80934 -1.32301 0
M  V30 2098 H 198.693 -4.82451 -3.67867 0
M  V30 2099 H 197.432 -3.63275 -3.25396 0
M  V30 2100 H 196.437 -5.25495 -1.61663 0
M  V30 2101 H 197.662 -6.46843 -2.0681 0
M  V30 2102 H 195.608 -5.24032 -3.94623 0
M  V30 2103 H 195.525 -6.82552 -3.25051 0
M  V30 2104 H 196.793 -6.44907 -4.37853 0
M  V30 2105 N 201.022 0.148545 -1.56898 0
M  V30 2106 C 202.299 0.890019 -1.74178 0
M  V30 2107 C 202.679 1.99407 -0.692839 0
M  V30 2108 O 202.027 2.26671 0.288505 0
M  V30 2109 C 202.237 1.43389 -3.18183 0
M  V30 2110 C 203.585 1.89791 -3.79822 0
M  V30 2111 O 204.609 1.53134 -3.21603 0
M  V30 2112 O 203.468 2.57387 -4.82093 0
M  V30 2113 H 200.562 0.420496 -0.712118 0
M  V30 2114 H 203.108 0.134591 -1.69165 0
M  V30 2115 H 201.88 0.640383 -3.86024 0
M  V30 2116 H 201.503 2.25287 -3.27615 0
M  V30 2117 N 202.5 1.5196 0.417844 0
M  V30 2118 C 203.728 1.69426 1.18753 0
M  V30 2119 C 204.143 0.399955 1.84515 0
M  V30 2120 O 203.5 -0.623288 1.71527 0
M  V30 2121 C 203.551 2.82375 2.25714 0
M  V30 2122 O 203.272 4.06793 1.62638 0
M  V30 2123 C 204.773 3.11277 3.15628 0
M  V30 2124 H 201.993 0.568031 0.357186 0
M  V30 2125 H 204.537 1.98475 0.49273 0
M  V30 2126 H 202.692 2.5587 2.90877 0
M  V30 2127 H 203.106 4.69667 2.3348 0
M  V30 2128 H 204.58 3.93843 3.86771 0
M  V30 2129 H 205.057 2.24473 3.77503 0
M  V30 2130 H 205.663 3.39515 2.56144 0
M  V30 2131 N 203.978 -0.674533 1.42435 0
M  V30 2132 C 205.206 -1.46283 1.46317 0
M  V30 2133 C 205.621 -1.88653 0.0745836 0
M  V30 2134 O 204.978 -1.58151 -0.91074 0
M  V30 2135 C 205.029 -2.71178 2.3905 0
M  V30 2136 O 204.75 -2.30586 3.72507 0
M  V30 2137 C 206.251 -3.64738 2.51955 0
M  V30 2138 H 203.471 -0.450104 0.497642 0
M  V30 2139 H 206.015 -0.828792 1.86953 0
M  V30 2140 H 204.17 -3.3077 2.01667 0
M  V30 2141 H 204.584 -3.11241 4.22172 0
M  V30 2142 H 206.058 -4.49096 3.20962 0
M  V30 2143 H 206.535 -4.10656 1.55752 0
M  V30 2144 H 207.141 -3.11038 2.90061 0
M  V30 2145 N 205.456 -1.28612 -0.910864 0
M  V30 2146 C 206.403 -1.12786 -2.01365 0
M  V30 2147 C 207.373 -0.024201 -1.66082 0
M  V30 2148 O 208.558 -0.189667 -1.89855 0
M  V30 2149 C 205.698 -0.798743 -3.35729 0
M  V30 2150 C 204.811 -1.98173 -3.83864 0
M  V30 2151 C 203.946 -1.59298 -5.06752 0
M  V30 2152 C 202.985 -2.74245 -5.47226 0
M  V30 2153 N 202.122 -2.35842 -6.61304 0
M  V30 2154 H 206.962 -2.07142 -2.14234 0
M  V30 2155 H 204.499 -1.03093 -1.0493 0
M  V30 2156 H 206.457 -0.588662 -4.13026 0
M  V30 2157 H 205.087 0.10789 -3.2262 0
M  V30 2158 H 204.139 -2.30386 -3.02699 0
M  V30 2159 H 205.451 -2.84343 -4.09818 0
M  V30 2160 H 204.605 -1.34513 -5.916 0
M  V30 2161 H 203.344 -0.702618 -4.82612 0
M  V30 2162 H 202.349 -2.99725 -4.60918 0
M  V30 2163 H 203.574 -3.63928 -5.73353 0
M  V30 2164 H 201.52 -1.49279 -6.38789 0
M  V30 2165 H 201.437 -3.15546 -6.86998 0
M  V30 2166 H 202.705 -2.14348 -7.4945 0
M  V30 2167 N 206.934 1.1197 -1.10907 0
M  V30 2168 C 208.18 1.8386 -0.855773 0
M  V30 2169 C 208.513 1.84134 0.617103 0
M  V30 2170 O 207.788 1.29041 1.45529 0
M  V30 2171 C 208.071 3.31305 -1.411 0
M  V30 2172 C 207.924 3.39456 -2.9511 0
M  V30 2173 C 209.243 4.2721 -1.05736 0
M  V30 2174 H 206.362 0.667545 -0.312334 0
M  V30 2175 H 209.004 1.31331 -1.37303 0
M  V30 2176 H 207.154 3.76169 -0.97105 0
M  V30 2177 H 208.826 3.03191 -3.47668 0
M  V30 2178 H 207.069 2.79849 -3.31462 0
M  V30 2179 H 207.74 4.43209 -3.29044 0
M  V30 2180 H 210.216 3.90497 -1.43706 0
M  V30 2181 H 209.092 5.28775 -1.47269 0
M  V30 2182 H 209.353 4.42088 0.0325958 0
M  V30 2183 N 208.412 0.89855 1.29475 0
M  V30 2184 C 209.344 0.332726 2.26772 0
M  V30 2185 C 210.357 -0.520323 1.54261 0
M  V30 2186 O 211.546 -0.337668 1.75277 0
M  V30 2187 C 208.646 -0.544334 3.345 0
M  V30 2188 C 207.819 0.282728 4.36485 0
M  V30 2189 C 206.878 -0.526982 5.23555 0
M  V30 2190 O 205.904 0.0551165 5.69173 0
M  V30 2191 N 207.106 -1.83331 5.5079 0
M  V30 2192 H 209.871 1.16897 2.75962 0
M  V30 2193 H 207.432 0.762919 1.42798 0
M  V30 2194 H 209.424 -1.09239 3.89678 0
M  V30 2195 H 207.994 -1.28127 2.85136 0
M  V30 2196 H 207.214 1.01221 3.80983 0
M  V30 2197 H 208.502 0.84918 5.01664 0
M  V30 2198 H 207.9 -2.32898 5.15534 0
M  V30 2199 H 206.457 -2.32852 6.08788 0
M  V30 2200 N 209.89 -1.43072 0.660911 0
M  V30 2201 C 211.137 -2.01721 0.177445 0
M  V30 2202 C 211.465 -1.5218 -1.21126 0
M  V30 2203 O 210.72 -0.708659 -1.82419 0
M  V30 2204 C 211.019 -3.57103 0.145563 0
M  V30 2205 C 210.685 -4.26021 1.47705 0
M  V30 2206 C 209.347 -4.44563 1.84165 0
M  V30 2207 C 211.699 -4.64983 2.35458 0
M  V30 2208 C 209.027 -4.99334 3.0803 0
M  V30 2209 C 211.379 -5.21127 3.58622 0
M  V30 2210 C 210.043 -5.37884 3.95268 0
M  V30 2211 H 209.313 -0.73815 0.0649317 0
M  V30 2212 H 211.96 -1.71446 0.853144 0
M  V30 2213 H 210.265 -3.86965 -0.61361 0
M  V30 2214 H 211.962 -4.00248 -0.2455 0
M  V30 2215 H 208.552 -4.11939 1.18339 0
M  V30 2216 H 212.736 -4.50343 2.08579 0
M  V30 2217 H 207.992 -5.10493 3.36462 0
M  V30 2218 H 212.166 -5.50262 4.26831 0
M  V30 2219 H 209.793 -5.80089 4.91325 0
M  V30 2220 N 211.368 -0.403325 -1.52352 0
M  V30 2221 C 212.316 0.439752 -2.28405 0
M  V30 2222 C 213.31 1.05089 -1.32863 0
M  V30 2223 O 214.516 0.989759 -1.50345 0
M  V30 2224 H 210.891 0.160587 -0.734653 0
M  V30 2225 H 212.862 -0.222983 -2.97566 0
M  V30 2226 C 211.611 1.54736 -3.11371 0
M  V30 2227 H 210.934 1.08643 -3.84755 0
M  V30 2228 H 212.374 2.1112 -3.67701 0
M  V30 2229 C 210.833 2.51141 -2.24566 0
M  V30 2230 O 211.363 3.54887 -1.88196 0
M  V30 2231 N 209.569 2.21213 -1.8845 0
M  V30 2232 H 209.116 1.36878 -2.18225 0
M  V30 2233 H 209.074 2.85963 -1.30662 0
M  V30 2234 N 212.846 1.57033 -0.133567 0
M  V30 2235 C 214.076 1.99754 0.527429 0
M  V30 2236 C 214.484 1.01245 1.59832 0
M  V30 2237 O 213.827 -0.000645496 1.837 0
M  V30 2238 C 213.889 3.38903 1.19939 0
M  V30 2239 C 213.553 4.56174 0.274709 0
M  V30 2240 C 214.55 5.17563 -0.492398 0
M  V30 2241 C 212.235 5.01972 0.18153 0
M  V30 2242 C 214.229 6.2315 -1.34027 0
M  V30 2243 C 211.916 6.07416 -0.669958 0
M  V30 2244 C 212.914 6.67874 -1.42947 0
M  V30 2245 O 212.602 7.71279 -2.2668 0
M  V30 2246 H 212.334 0.660702 0.142999 0
M  V30 2247 H 214.888 2.04207 -0.221099 0
M  V30 2248 H 213.118 3.31248 1.99528 0
M  V30 2249 H 214.807 3.65818 1.75875 0
M  V30 2250 H 215.573 4.83087 -0.430367 0
M  V30 2251 H 211.452 4.54652 0.762422 0
M  V30 2252 H 214.996 6.70268 -1.93357 0
M  V30 2253 H 210.893 6.41321 -0.73333 0
M  V30 2254 H 211.661 7.88441 -2.1978 0
M  V30 2255 N 214.325 -0.140222 1.56975 0
M  V30 2256 C 215.555 -0.865181 1.87612 0
M  V30 2257 C 215.963 -1.74942 0.72055 0
M  V30 2258 O 215.306 -1.80917 -0.318561 0
M  V30 2259 C 215.368 -1.76782 3.13031 0
M  V30 2260 C 215.032 -1.06005 4.44536 0
M  V30 2261 C 216.029 -0.410768 5.18275 0
M  V30 2262 C 213.714 -1.04754 4.91255 0
M  V30 2263 C 215.708 0.241572 6.36942 0
M  V30 2264 C 213.395 -0.391394 6.09845 0
M  V30 2265 C 214.393 0.252029 6.82535 0
M  V30 2266 O 214.081 0.897757 7.98871 0
M  V30 2267 H 213.813 -0.255188 0.625983 0
M  V30 2268 H 216.367 -0.135653 2.04952 0
M  V30 2269 H 214.597 -2.53846 2.91718 0
M  V30 2270 H 216.286 -2.36533 3.29859 0
M  V30 2271 H 217.052 -0.412195 4.83245 0
M  V30 2272 H 212.931 -1.53777 4.34596 0
M  V30 2273 H 216.475 0.744375 6.93617 0
M  V30 2274 H 212.372 -0.387656 6.44335 0
M  V30 2275 H 213.14 0.800102 8.1458 0
M  V30 2276 N 215.803 -1.52179 -0.40978 0
M  V30 2277 C 217.031 -1.70054 -1.17853 0
M  V30 2278 C 217.446 -0.409735 -1.843 0
M  V30 2279 O 216.803 0.614183 -1.71855 0
M  V30 2280 C 216.854 -2.83568 -2.24213 0
M  V30 2281 O 216.575 -4.0765 -1.60478 0
M  V30 2282 C 218.076 -3.12947 -3.13973 0
M  V30 2283 H 215.296 -0.569917 -0.354169 0
M  V30 2284 H 217.84 -1.98734 -0.482198 0
M  V30 2285 H 215.995 -2.57409 -2.89516 0
M  V30 2286 H 216.409 -4.70899 -2.30986 0
M  V30 2287 H 217.883 -3.95889 -3.84677 0
M  V30 2288 H 218.36 -2.26472 -3.76307 0
M  V30 2289 H 218.966 -3.40868 -2.5434 0
M  V30 2290 N 217.281 0.66697 -1.42791 0
M  V30 2291 C 218.229 1.80157 -1.47127 0
M  V30 2292 C 219.223 1.65825 -0.346199 0
M  V30 2293 O 220.429 1.72338 -0.519572 0
M  V30 2294 H 216.804 0.594158 -0.460956 0
M  V30 2295 H 218.775 1.73619 -2.42692 0
M  V30 2296 C 217.524 3.18351 -1.39813 0
M  V30 2297 H 216.847 3.3001 -2.25684 0
M  V30 2298 H 218.287 3.97736 -1.46908 0
M  V30 2299 C 216.746 3.36707 -0.11391 0
M  V30 2300 O 217.276 3.93027 0.830241 0
M  V30 2301 N 215.482 2.90586 -0.0285295 0
M  V30 2302 H 215.029 2.4494 -0.79764 0
M  V30 2303 H 214.987 3.03245 0.830063 0
M  V30 2304 N 218.759 1.29093 0.90403 0
M  V30 2305 C 220.007 1.16583 1.65085 0
M  V30 2306 C 220.328 -0.283933 1.92922 0
M  V30 2307 O 219.598 -1.19509 1.55224 0
M  V30 2308 H 218.178 0.428467 0.611903 0
M  V30 2309 H 220.84 1.61959 1.08422 0
M  V30 2310 H 219.936 1.71266 2.6091 0
M  V30 2311 N 220.237 -1.11381 1.11499 0
M  V30 2312 C 221.483 -1.83403 0.865512 0
M  V30 2313 C 221.816 -1.84459 -0.607329 0
M  V30 2314 O 221.091 -1.29811 -1.44842 0
M  V30 2315 C 221.374 -3.30552 1.42855 0
M  V30 2316 C 221.227 -3.37886 2.96906 0
M  V30 2317 C 222.546 -4.26643 1.08 0
M  V30 2318 H 219.665 -0.665879 0.31587 0
M  V30 2319 H 222.307 -1.30601 1.37998 0
M  V30 2320 H 220.457 -3.75648 0.990985 0
M  V30 2321 H 222.129 -3.01343 3.49271 0
M  V30 2322 H 220.372 -2.78088 3.32941 0
M  V30 2323 H 221.043 -4.41458 3.31389 0
M  V30 2324 H 223.519 -3.89729 1.45775 0
M  V30 2325 H 222.395 -5.27986 1.50072 0
M  V30 2326 H 222.656 -4.42099 -0.00915037 0
M  V30 2327 N 221.715 -0.905404 -1.28997 0
M  V30 2328 C 222.963 -0.533192 -1.9494 0
M  V30 2329 C 223.284 0.924618 -1.71685 0
M  V30 2330 O 222.554 1.65268 -1.05183 0
M  V30 2331 H 221.134 -0.194194 -0.721317 0
M  V30 2332 H 223.796 -1.15294 -1.57141 0
M  V30 2333 H 222.892 -0.72059 -3.03667 0
M  V30 2334 N 223.193 1.4272 -0.668489 0
M  V30 2335 C 224.441 2.01226 -0.187769 0
M  V30 2336 C 224.762 1.53092 1.2078 0
M  V30 2337 O 224.032 0.74993 1.80977 0
M  V30 2338 H 222.612 0.744041 -0.0664272 0
M  V30 2339 H 225.274 1.74723 -0.863583 0
M  V30 2340 H 224.37 3.11556 -0.184166 0
M  V30 2341 N 224.671 0.411399 1.52136 0
M  V30 2342 C 225.621 -0.430376 2.23901 0
M  V30 2343 C 226.605 -1.0116 1.25121 0
M  V30 2344 O 227.797 -0.934044 1.50348 0
M  V30 2345 C 224.926 -1.54527 3.06556 0
M  V30 2346 C 224.012 -0.9747 4.12747 0
M  V30 2347 N 224.403 -0.130991 5.0563 0
M  V30 2348 C 222.701 -1.24497 4.28271 0
M  V30 2349 C 223.402 0.186689 5.814 0
M  V30 2350 N 222.378 -0.42304 5.41951 0
M  V30 2351 H 226.18 0.220509 2.93072 0
M  V30 2352 H 223.694 0.221952 1.60876 0
M  V30 2353 H 225.691 -2.16093 3.56524 0
M  V30 2354 H 224.351 -2.19875 2.38925 0
M  V30 2355 H 225.362 0.23349 5.17373 0
M  V30 2356 H 222.039 -1.89787 3.7187 0
M  V30 2357 H 223.429 0.871673 6.66222 0
M  V30 2358 N 226.149 -1.5696 0.141893 0
M  V30 2359 C 227.059 -2.20066 -0.812905 0
M  V30 2360 C 228.075 -1.18344 -1.27557 0
M  V30 2361 O 229.251 -1.50902 -1.33381 0
M  V30 2362 C 226.316 -2.80583 -2.03652 0
M  V30 2363 C 225.377 -3.97414 -1.62359 0
M  V30 2364 C 224.61 -4.55036 -2.78887 0
M  V30 2365 O 224.833 -4.11538 -3.94959 0
M  V30 2366 O 223.767 -5.45376 -2.54653 0
M  V30 2367 H 227.593 -3.02157 -0.305746 0
M  V30 2368 H 225.178 -1.49159 -0.0848799 0
M  V30 2369 H 227.06 -3.19067 -2.75272 0
M  V30 2370 H 225.735 -2.01508 -2.5333 0
M  V30 2371 H 224.642 -3.63656 -0.877775 0
M  V30 2372 H 225.975 -4.77994 -1.17401 0
M  V30 2373 N 227.627 0.131896 -1.57047 0
M  V30 2374 C 228.574 1.16236 -1.99393 0
M  V30 2375 C 229.544 1.41863 -0.863943 0
M  V30 2376 O 230.729 1.53946 -1.12718 0
M  V30 2377 C 227.869 2.48708 -2.39245 0
M  V30 2378 C 226.982 2.30127 -3.65603 0
M  V30 2379 C 226.117 3.55738 -3.94492 0
M  V30 2380 C 225.156 3.32259 -5.14073 0
M  V30 2381 N 224.293 4.50039 -5.38896 0
M  V30 2382 H 229.133 0.794251 -2.87221 0
M  V30 2383 H 226.67 0.380707 -1.42088 0
M  V30 2384 H 228.628 3.25969 -2.60384 0
M  V30 2385 H 227.258 2.83437 -1.54478 0
M  V30 2386 H 226.31 1.43845 -3.52154 0
M  V30 2387 H 227.622 2.08746 -4.5302 0
M  V30 2388 H 226.776 4.41423 -4.1621 0
M  V30 2389 H 225.515 3.80138 -3.05526 0
M  V30 2390 H 224.52 2.44963 -4.92212 0
M  V30 2391 H 225.745 3.09242 -6.04604 0
M  V30 2392 H 223.691 4.74584 -4.52886 0
M  V30 2393 H 223.608 4.31716 -6.2061 0
M  V30 2394 H 224.876 5.36895 -5.65123 0
M  V30 2395 N 229.106 1.52395 0.401703 0
M  V30 2396 C 230.352 1.67065 1.14966 0
M  V30 2397 C 230.685 0.403052 1.89971 0
M  V30 2398 O 229.96 -0.598774 1.85054 0
M  V30 2399 C 230.243 2.8975 2.13815 0
M  V30 2400 C 230.096 4.26578 1.42658 0
M  V30 2401 C 231.415 3.07965 3.14397 0
M  V30 2402 H 228.534 0.607968 0.416587 0
M  V30 2403 H 231.176 1.84965 0.434511 0
M  V30 2404 H 229.326 2.74619 2.74803 0
M  V30 2405 H 230.998 4.53451 0.847329 0
M  V30 2406 H 229.241 4.27639 0.72849 0
M  V30 2407 H 229.912 5.08483 2.14823 0
M  V30 2408 H 232.388 3.22043 2.63491 0
M  V30 2409 H 231.264 3.95308 3.80819 0
M  V30 2410 H 231.525 2.21611 3.82545 0
M  V30 2411 N 230.584 -0.659388 1.43143 0
M  V30 2412 C 231.833 -1.41518 1.43721 0
M  V30 2413 C 232.146 -1.95499 0.0628176 0
M  V30 2414 O 233.352 -2.71446 -0.0539683 0
M  V30 2415 C 231.808 -2.5608 2.52885 0
M  V30 2416 C 231.416 -2.08733 3.96402 0
M  V30 2417 C 233.16 -3.3349 2.62649 0
M  V30 2418 C 231.067 -3.20469 4.97045 0
M  V30 2419 H 229.997 -0.531705 0.534608 0
M  V30 2420 H 232.648 -0.712343 1.69109 0
M  V30 2421 H 231.03 -3.28805 2.20688 0
M  V30 2422 H 232.204 -1.43059 4.3803 0
M  V30 2423 H 230.519 -1.44219 3.90627 0
M  V30 2424 H 233.116 -4.16734 3.35017 0
M  V30 2425 H 233.459 -3.8111 1.67513 0
M  V30 2426 H 233.992 -2.67842 2.94118 0
M  V30 2427 H 230.731 -2.77824 5.93712 0
M  V30 2428 H 230.251 -3.84874 4.60034 0
M  V30 2429 H 231.93 -3.85698 5.19467 0
M  V30 2430 N 232.062 -1.29571 -0.897171 0
M  V30 2431 C 233.287 -1.20705 -1.68656 0
M  V30 2432 C 233.712 0.228582 -1.86706 0
M  V30 2433 O 233.07 1.16494 -1.3892 0
M  V30 2434 C 233.118 -1.9282 -3.04717 0
M  V30 2435 O 232.222 -1.24697 -3.93096 0
M  V30 2436 H 231.563 -0.418126 -0.515816 0
M  V30 2437 H 234.093 -1.71183 -1.12061 0
M  V30 2438 H 234.103 -2.01372 -3.54843 0
M  V30 2439 H 232.778 -2.97239 -2.90899 0
M  V30 2440 H 231.355 -1.2442 -3.51531 0
M  V30 2441 N 233.54 1.10788 -1.12088 0
M  V30 2442 C 234.47 2.19083 -0.807755 0
M  V30 2443 C 235.451 1.6858 0.226859 0
M  V30 2444 O 236.636 1.93997 0.0888475 0
M  V30 2445 C 233.766 3.46344 -0.257576 0
M  V30 2446 C 232.72 4.101 -1.22483 0
M  V30 2447 C 232.046 5.32016 -0.535052 0
M  V30 2448 C 233.346 4.54236 -2.57811 0
M  V30 2449 H 235.04 2.45534 -1.71328 0
M  V30 2450 H 232.586 1.1801 -0.825205 0
M  V30 2451 H 234.539 4.21392 -0.0262679 0
M  V30 2452 H 233.263 3.19373 0.683278 0
M  V30 2453 H 231.922 3.37054 -1.44189 0
M  V30 2454 H 231.57 5.01319 0.410827 0
M  V30 2455 H 231.27 5.75625 -1.18024 0
M  V30 2456 H 232.794 6.09799 -0.312695 0
M  V30 2457 H 234.208 5.20575 -2.40155 0
M  V30 2458 H 232.605 5.08682 -3.18375 0
M  V30 2459 H 233.675 3.6734 -3.16528 0
M  V30 2460 N 235.018 0.912232 1.28515 0
M  V30 2461 C 236.266 0.543523 1.94654 0
M  V30 2462 C 236.587 -0.9155 1.72173 0
M  V30 2463 O 235.857 -1.64708 1.06058 0
M  V30 2464 H 234.437 0.198017 0.720277 0
M  V30 2465 H 237.099 1.16126 1.56527 0
M  V30 2466 H 236.195 0.736684 3.03281 0
M  V30 2467 N 236.496 -1.42363 0.676048 0
M  V30 2468 C 237.743 -2.01522 0.19883 0
M  V30 2469 C 238.071 -1.53456 -1.19505 0
M  V30 2470 O 237.326 -0.727967 -1.81657 0
M  V30 2471 C 237.625 -3.56929 0.183431 0
M  V30 2472 C 237.291 -4.24431 1.52215 0
M  V30 2473 C 235.953 -4.42585 1.8887 0
M  V30 2474 C 238.305 -4.62459 2.40377 0
M  V30 2475 C 235.633 -4.96039 3.13309 0
M  V30 2476 C 237.985 -5.17294 3.64129 0
M  V30 2477 C 236.649 -5.33661 4.00951 0
M  V30 2478 H 235.919 -0.737419 0.0727571 0
M  V30 2479 H 238.566 -1.70531 0.871281 0
M  V30 2480 H 236.871 -3.87594 -0.572532 0
M  V30 2481 H 238.568 -4.00486 -0.203035 0
M  V30 2482 H 235.158 -4.10661 1.22701 0
M  V30 2483 H 239.342 -4.48105 2.13343 0
M  V30 2484 H 234.598 -5.06896 3.41857 0
M  V30 2485 H 238.772 -5.45704 4.32644 0
M  V30 2486 H 236.399 -5.74845 4.9745 0
M  V30 2487 N 237.974 -0.419461 -1.51915 0
M  V30 2488 C 239.251 0.211999 -1.94448 0
M  V30 2489 C 239.631 1.61703 -1.35703 0
M  V30 2490 O 238.979 2.22102 -0.536931 0
M  V30 2491 C 239.189 0.207872 -3.4838 0
M  V30 2492 C 240.537 0.422192 -4.22496 0
M  V30 2493 O 241.561 0.286778 -3.55044 0
M  V30 2494 O 240.42 0.690009 -5.42126 0
M  V30 2495 H 237.514 0.139586 -0.815135 0
M  V30 2496 H 240.06 -0.476151 -1.62883 0
M  V30 2497 H 238.832 -0.775102 -3.83546 0
M  V30 2498 H 238.455 0.939688 -3.86336 0
M  V30 2499 N 239.452 1.56882 -0.150215 0
M  V30 2500 C 240.415 2.1573 0.774157 0
M  V30 2501 C 241.415 1.0999 1.17298 0
M  V30 2502 O 242.605 1.35613 1.09338 0
M  V30 2503 C 239.737 2.72302 2.05096 0
M  V30 2504 H 240.93 2.98752 0.262201 0
M  V30 2505 H 238.483 1.55985 0.099248 0
M  V30 2506 H 239.218 1.92956 2.6065 0
M  V30 2507 H 239.003 3.49665 1.77416 0
M  V30 2508 H 240.493 3.17632 2.71109 0
M  V30 2509 N 240.93 -0.123565 1.57115 0
M  V30 2510 C 242.155 -0.850398 1.89164 0
M  V30 2511 C 242.58 -1.7286 0.741688 0
M  V30 2512 O 241.938 -1.78665 -0.307958 0
M  V30 2513 C 241.986 -1.66353 3.19936 0
M  V30 2514 O 241.09 -2.77004 3.0552 0
M  V30 2515 H 240.431 -0.235454 0.620852 0
M  V30 2516 H 242.961 -0.107335 2.04318 0
M  V30 2517 H 242.971 -2.05372 3.52543 0
M  V30 2518 H 241.646 -1.01881 4.03228 0
M  V30 2519 H 240.223 -2.41221 2.84371 0
M  V30 2520 N 242.408 -1.52605 -0.393616 0
M  V30 2521 C 243.355 -1.77055 -1.48054 0
M  V30 2522 C 244.325 -0.61358 -1.54352 0
M  V30 2523 O 245.51 -0.852806 -1.70681 0
M  V30 2524 C 242.65 -1.94108 -2.85335 0
M  V30 2525 C 241.763 -3.21792 -2.88226 0
M  V30 2526 C 240.898 -3.29188 -4.16904 0
M  V30 2527 C 239.937 -4.51013 -4.13828 0
M  V30 2528 N 239.074 -4.55716 -5.34105 0
M  V30 2529 H 243.914 -2.69815 -1.26506 0
M  V30 2530 H 241.451 -1.33683 -0.61379 0
M  V30 2531 H 243.409 -2.01979 -3.65049 0
M  V30 2532 H 242.039 -1.04713 -3.05344 0
M  V30 2533 H 241.091 -3.23015 -2.00911 0
M  V30 2534 H 242.403 -4.11557 -2.8182 0
M  V30 2535 H 241.557 -3.36216 -5.05018 0
M  V30 2536 H 240.296 -2.37389 -4.26026 0
M  V30 2537 H 239.301 -4.44115 -3.24102 0
M  V30 2538 H 240.526 -5.44123 -4.06333 0
M  V30 2539 H 238.472 -3.66807 -5.43865 0
M  V30 2540 H 238.389 -5.39346 -5.29756 0
M  V30 2541 H 239.657 -4.66993 -6.2413 0
M  V30 2542 N 243.887 0.651787 -1.4349 0
M  V30 2543 C 245.135 1.40888 -1.44897 0
M  V30 2544 C 245.456 1.94856 -0.0749086 0
M  V30 2545 O 244.726 1.74518 0.889956 0
M  V30 2546 H 243.306 0.522887 -0.533478 0
M  V30 2547 H 245.968 0.768609 -1.79104 0
M  V30 2548 H 245.064 2.25052 -2.16236 0
M  V30 2549 N 245.365 1.30045 0.890287 0
M  V30 2550 C 246.612 1.18561 1.64163 0
M  V30 2551 C 246.94 -0.260852 1.92743 0
M  V30 2552 O 246.195 -1.20376 1.54299 0
M  V30 2553 C 246.494 1.95409 2.99249 0
M  V30 2554 C 246.16 3.45066 2.90242 0
M  V30 2555 C 244.822 3.85878 2.87492 0
M  V30 2556 C 247.174 4.4039 2.78758 0
M  V30 2557 C 244.502 5.20314 2.7109 0
M  V30 2558 C 246.854 5.74928 2.63894 0
M  V30 2559 C 245.518 6.14986 2.59516 0
M  V30 2560 H 244.788 0.433846 0.600715 0
M  V30 2561 H 247.435 1.61088 1.03552 0
M  V30 2562 H 245.74 1.45501 3.63781 0
M  V30 2563 H 247.437 1.8392 3.56334 0
M  V30 2564 H 244.027 3.12631 2.93189 0
M  V30 2565 H 248.211 4.09806 2.79952 0
M  V30 2566 H 243.467 5.50449 2.66112 0
M  V30 2567 H 247.641 6.48434 2.53981 0
M  V30 2568 H 245.268 7.19104 2.46565 0
M  V30 2569 N 246.843 -1.10192 1.12674 0
M  V30 2570 C 247.793 -2.14754 0.765801 0
M  V30 2571 C 248.777 -1.59154 -0.236409 0
M  V30 2572 O 249.969 -1.76951 -0.0415261 0
M  V30 2573 C 247.098 -3.42563 0.224827 0
M  V30 2574 C 246.184 -4.05091 1.25548 0
M  V30 2575 N 246.575 -4.42287 2.4539 0
M  V30 2576 C 244.873 -4.32186 1.10142 0
M  V30 2577 C 245.574 -4.91441 3.11224 0
M  V30 2578 N 244.55 -4.88405 2.38666 0
M  V30 2579 H 248.352 -2.41309 1.67772 0
M  V30 2580 H 245.866 -1.27339 1.00789 0
M  V30 2581 H 247.863 -4.16868 -0.0519578 0
M  V30 2582 H 246.523 -3.17467 -0.681515 0
M  V30 2583 H 247.534 -4.33902 2.82754 0
M  V30 2584 H 244.211 -4.16735 0.252587 0
M  V30 2585 H 245.601 -5.29749 4.13298 0
M  V30 2586 N 248.321 -0.919034 -1.28029 0
M  V30 2587 C 249.549 -0.570971 -1.98866 0
M  V30 2588 C 249.964 0.848996 -1.68634 0
M  V30 2589 O 249.321 1.56307 -0.942036 0
M  V30 2590 C 249.372 -0.776876 -3.53054 0
M  V30 2591 O 249.093 -2.14097 -3.82222 0
M  V30 2592 C 250.594 -0.436356 -4.41147 0
M  V30 2593 H 247.814 -0.217175 -0.634883 0
M  V30 2594 H 250.358 -1.23368 -1.63097 0
M  V30 2595 H 248.513 -0.161085 -3.87065 0
M  V30 2596 H 248.927 -2.18455 -4.76841 0
M  V30 2597 H 250.401 -0.63117 -5.4838 0
M  V30 2598 H 250.878 0.627686 -4.34692 0
M  V30 2599 H 251.484 -1.02991 -4.12641 0
M  V30 2600 N 249.799 1.42003 -0.683588 0
M  V30 2601 C 251.029 2.05448 -0.217866 0
M  V30 2602 C 251.437 1.51491 1.13346 0
M  V30 2603 O 250.78 0.653048 1.717 0
M  V30 2604 C 250.842 3.59399 -0.0850118 0
M  V30 2605 C 250.506 4.36093 -1.36645 0
M  V30 2606 C 251.503 4.66169 -2.30179 0
M  V30 2607 C 249.188 4.75578 -1.61649 0
M  V30 2608 C 251.182 5.34676 -3.46988 0
M  V30 2609 C 248.869 5.43824 -2.78745 0
M  V30 2610 C 249.867 5.73299 -3.71238 0
M  V30 2611 O 249.555 6.40142 -4.86285 0
M  V30 2612 H 249.287 0.668344 -0.101454 0
M  V30 2613 H 251.841 1.82974 -0.933248 0
M  V30 2614 H 250.071 3.80566 0.686031 0
M  V30 2615 H 251.76 4.04457 0.341973 0
M  V30 2616 H 252.526 4.36156 -2.12115 0
M  V30 2617 H 248.405 4.52025 -0.905243 0
M  V30 2618 H 251.949 5.57599 -4.19201 0
M  V30 2619 H 247.846 5.73254 -2.96732 0
M  V30 2620 H 248.614 6.58636 -4.85944 0
M  V30 2621 N 251.277 0.427512 1.51691 0
M  V30 2622 C 252.24 -0.377132 2.26076 0
M  V30 2623 C 253.24 -0.958089 1.29141 0
M  V30 2624 O 254.43 -0.83408 1.52934 0
M  V30 2625 C 251.562 -1.53262 3.04506 0
M  V30 2626 H 252.755 0.27464 2.9864 0
M  V30 2627 H 250.308 0.180445 1.55255 0
M  V30 2628 H 251.043 -2.22072 2.36335 0
M  V30 2629 H 250.828 -1.12232 3.75694 0
M  V30 2630 H 252.318 -2.10135 3.60878 0
M  V30 2631 N 252.755 -1.56801 0.158532 0
M  V30 2632 C 254.002 -1.9649 -0.489679 0
M  V30 2633 C 254.33 -1.04394 -1.6411 0
M  V30 2634 O 253.585 -0.0754401 -1.95555 0
M  V30 2635 C 253.884 -3.4235 -1.02623 0
M  V30 2636 C 253.55 -4.50899 0.00794526 0
M  V30 2637 C 252.212 -4.80312 0.292207 0
M  V30 2638 C 254.564 -5.16333 0.710584 0
M  V30 2639 C 251.892 -5.72461 1.28472 0
M  V30 2640 C 254.244 -6.09553 1.69199 0
M  V30 2641 C 252.908 -6.37339 1.98383 0
M  V30 2642 H 252.178 -0.719009 -0.179186 0
M  V30 2643 H 254.825 -1.8989 0.247798 0
M  V30 2644 H 253.13 -3.45838 -1.84128 0
M  V30 2645 H 254.827 -3.70393 -1.53656 0
M  V30 2646 H 251.417 -4.28015 -0.22379 0
M  V30 2647 H 255.601 -4.93732 0.504174 0
M  V30 2648 H 250.857 -5.92278 1.51714 0
M  V30 2649 H 255.031 -6.59327 2.24189 0
M  V30 2650 H 252.658 -7.08546 2.7544 0
M  V30 2651 N 254.233 0.115231 -1.57178 0
M  V30 2652 C 255.51 0.852873 -1.76027 0
M  V30 2653 C 255.89 1.97892 -0.73498 0
M  V30 2654 O 255.238 2.27232 0.24036 0
M  V30 2655 C 255.448 1.36608 -3.21153 0
M  V30 2656 C 256.796 1.81692 -3.83762 0
M  V30 2657 O 257.82 1.46278 -3.24779 0
M  V30 2658 O 256.679 2.47104 -4.87444 0
M  V30 2659 H 253.773 0.405296 -0.720877 0
M  V30 2660 H 256.319 0.0986785 -1.69413 0
M  V30 2661 H 255.091 0.558357 -3.87296 0
M  V30 2662 H 254.714 2.18287 -3.3232 0
M  V30 2663 N 255.711 1.52812 0.385517 0
M  V30 2664 C 256.957 1.69225 1.12847 0
M  V30 2665 C 257.312 0.42864 1.87564 0
M  V30 2666 O 256.605 -0.57779 1.8268 0
M  V30 2667 C 256.799 2.86856 2.13187 0
M  V30 2668 C 256.628 4.24535 1.48325 0
M  V30 2669 C 255.398 4.89701 1.24585 0
M  V30 2670 C 257.596 5.05794 0.931501 0
M  V30 2671 N 255.578 6.11353 0.558644 0
M  V30 2672 C 256.949 6.1888 0.372552 0
M  V30 2673 C 259.004 4.90963 0.828248 0
M  V30 2674 C 257.707 7.18757 -0.279556 0
M  V30 2675 C 259.733 5.91095 0.189956 0
M  V30 2676 C 259.095 7.03489 -0.358207 0
M  V30 2677 H 255.194 0.67268 0.39878 0
M  V30 2678 H 257.778 1.9017 0.417528 0
M  V30 2679 H 255.949 2.67484 2.81614 0
M  V30 2680 H 257.681 2.92188 2.80014 0
M  V30 2681 H 254.436 4.48485 1.52178 0
M  V30 2682 H 254.86 6.76606 0.230983 0
M  V30 2683 H 259.502 4.04274 1.23784 0
M  V30 2684 H 257.22 8.05052 -0.701152 0
M  V30 2685 H 260.806 5.81694 0.111264 0
M  V30 2686 H 259.686 7.79642 -0.844314 0
M  V30 2687 N 257.189 -0.644168 1.43834 0
M  V30 2688 C 258.121 -1.76955 1.45669 0
M  V30 2689 C 259.134 -1.58956 0.351666 0
M  V30 2690 O 260.323 -1.6751 0.616644 0
M  V30 2691 C 257.423 -3.14507 1.26248 0
M  V30 2692 C 256.596 -3.59083 2.49757 0
M  V30 2693 C 255.655 -4.75467 2.25427 0
M  V30 2694 O 254.681 -4.84444 2.98836 0
M  V30 2695 N 255.883 -5.66289 1.27661 0
M  V30 2696 H 258.648 -1.75856 2.42682 0
M  V30 2697 H 256.209 -0.828312 1.39106 0
M  V30 2698 H 258.201 -3.90067 1.0784 0
M  V30 2699 H 256.771 -3.10325 0.376478 0
M  V30 2700 H 255.991 -2.7387 2.8353 0
M  V30 2701 H 257.279 -3.85613 3.31934 0
M  V30 2702 H 256.677 -5.61718 0.670064 0
M  V30 2703 H 255.234 -6.41533 1.15234 0
M  V30 2704 N 258.668 -1.30515 -0.883378 0
M  V30 2705 C 260.079 -1.17509 -1.45081 0
M  V30 2706 C 260.43 0.223605 -1.94922 0
M  V30 2707 O 259.555 1.12041 -1.85137 0
M  V30 2708 C 260.15 -2.12715 -2.63701 0
M  V30 2709 C 258.709 -2.03682 -3.16529 0
M  V30 2710 C 257.856 -2.02706 -1.89224 0
M  V30 2711 H 260.807 -1.42762 -0.693165 0
M  V30 2712 H 260.828 -1.70891 -3.39965 0
M  V30 2713 H 260.34 -3.14505 -2.27395 0
M  V30 2714 H 258.441 -1.05039 -3.57488 0
M  V30 2715 H 258.554 -2.92146 -3.7972 0
M  V30 2716 H 256.918 -1.4753 -2.07622 0
M  V30 2717 H 257.701 -3.06229 -1.55174 0
M  V30 2718 N 260.146 1.09593 -1.13257 0
M  V30 2719 C 261.394 1.81375 -0.891492 0
M  V30 2720 C 261.715 1.86049 0.584009 0
M  V30 2721 O 260.985 1.34481 1.42449 0
M  V30 2722 H 259.565 0.671708 -0.326828 0
M  V30 2723 H 262.227 1.3256 -1.42877 0
M  V30 2724 H 261.323 2.84612 -1.28071 0
M  V30 2725 N 261.624 0.925811 1.2754 0
M  V30 2726 C 262.854 0.580666 1.98272 0
M  V30 2727 C 263.262 -0.845207 1.69272 0
M  V30 2728 O 262.605 -1.57306 0.948707 0
M  V30 2729 C 262.667 0.724418 3.52126 0
M  V30 2730 C 262.331 2.12206 4.04744 0
M  V30 2731 C 263.328 3.09604 4.17662 0
M  V30 2732 C 261.013 2.4385 4.39138 0
M  V30 2733 C 263.007 4.36755 4.64246 0
M  V30 2734 C 260.694 3.71237 4.85414 0
M  V30 2735 C 261.692 4.67503 4.97926 0
M  V30 2736 O 261.38 5.92624 5.43187 0
M  V30 2737 H 261.112 0.218987 0.639547 0
M  V30 2738 H 263.666 1.24452 1.63404 0
M  V30 2739 H 261.896 0.0034663 3.867 0
M  V30 2740 H 263.585 0.384607 4.04074 0
M  V30 2741 H 264.351 2.86478 3.91351 0
M  V30 2742 H 260.23 1.69665 4.28643 0
M  V30 2743 H 263.774 5.11898 4.73927 0
M  V30 2744 H 259.671 3.94182 5.11166 0
M  V30 2745 H 260.439 5.95585 5.61445 0
M  V30 2746 N 263.102 -1.41638 0.69111 0
M  V30 2747 C 264.351 -2.00526 0.217318 0
M  V30 2748 C 264.664 -1.55353 -1.18848 0
M  V30 2749 O 265.87 -2.06769 -1.75951 0
M  V30 2750 C 264.326 -3.58313 0.337639 0
M  V30 2751 C 263.934 -4.12469 1.74852 0
M  V30 2752 C 265.678 -4.24431 -0.0766066 0
M  V30 2753 C 263.585 -5.62675 1.82074 0
M  V30 2754 H 262.515 -0.750008 0.0774893 0
M  V30 2755 H 265.166 -1.6217 0.858661 0
M  V30 2756 H 263.548 -3.9425 -0.371879 0
M  V30 2757 H 264.722 -3.8796 2.48644 0
M  V30 2758 H 263.037 -3.58861 2.11205 0
M  V30 2759 H 265.634 -5.34683 -0.0430284 0
M  V30 2760 H 265.977 -4.01101 -1.1146 0
M  V30 2761 H 266.51 -3.93512 0.582476 0
M  V30 2762 H 263.249 -5.90826 2.83911 0
M  V30 2763 H 262.769 -5.89124 1.12661 0
M  V30 2764 H 264.448 -6.27371 1.58159 0
M  V30 2765 N 264.58 -0.43555 -1.51462 0
M  V30 2766 C 265.527 0.376797 -2.27703 0
M  V30 2767 C 266.497 1.01838 -1.31219 0
M  V30 2768 O 267.682 1.03762 -1.60119 0
M  V30 2769 C 264.822 1.47301 -3.12084 0
M  V30 2770 C 263.935 0.849744 -4.2356 0
M  V30 2771 C 263.07 1.92086 -4.95254 0
M  V30 2772 C 262.109 1.27593 -5.98654 0
M  V30 2773 N 261.246 2.28833 -6.63762 0
M  V30 2774 H 266.086 -0.279734 -2.96684 0
M  V30 2775 H 263.623 -0.149795 -1.46335 0
M  V30 2776 H 265.581 2.11984 -3.59331 0
M  V30 2777 H 264.211 2.0992 -2.45221 0
M  V30 2778 H 263.263 0.0912529 -3.80291 0
M  V30 2779 H 264.575 0.338878 -4.97648 0
M  V30 2780 H 263.729 2.64435 -5.46039 0
M  V30 2781 H 262.468 2.46545 -4.20793 0
M  V30 2782 H 261.473 0.537893 -5.47162 0
M  V30 2783 H 262.698 0.738693 -6.7507 0
M  V30 2784 H 260.644 2.82375 -5.92115 0
M  V30 2785 H 260.561 1.82632 -7.33608 0
M  V30 2786 H 261.829 3.00671 -7.19178 0
M  V30 2787 N 266.058 1.56714 -0.166846 0
M  V30 2788 C 267.304 1.97813 0.473473 0
M  V30 2789 C 267.659 1.05095 1.61161 0
M  V30 2790 O 266.952 0.0897541 1.9139 0
M  V30 2791 C 267.146 3.42889 1.00806 0
M  V30 2792 C 266.975 4.49635 -0.0767392 0
M  V30 2793 C 265.745 5.02566 -0.524894 0
M  V30 2794 C 267.943 5.06793 -0.875504 0
M  V30 2795 N 265.925 5.9294 -1.59047 0
M  V30 2796 C 267.296 5.93565 -1.79111 0
M  V30 2797 C 269.351 4.89306 -0.921083 0
M  V30 2798 C 268.054 6.64721 -2.74843 0
M  V30 2799 C 270.08 5.61179 -1.86633 0
M  V30 2800 C 269.442 6.47675 -2.76942 0
M  V30 2801 H 265.541 0.769093 0.141489 0
M  V30 2802 H 268.125 1.92874 -0.266031 0
M  V30 2803 H 266.296 3.48382 1.7171 0
M  V30 2804 H 268.028 3.71008 1.61664 0
M  V30 2805 H 264.783 4.73439 -0.123432 0
M  V30 2806 H 265.207 6.42831 -2.12361 0
M  V30 2807 H 269.849 4.22136 -0.23692 0
M  V30 2808 H 267.567 7.31107 -3.44249 0
M  V30 2809 H 271.153 5.49636 -1.90764 0
M  V30 2810 H 270.033 7.02313 -3.48893 0
M  V30 2811 N 267.536 -0.106894 1.57237 0
M  V30 2812 C 268.766 -0.825191 1.89405 0
M  V30 2813 C 269.174 -1.73374 0.757496 0
M  V30 2814 O 268.517 -1.81552 -0.280115 0
M  V30 2815 C 268.579 -1.70102 3.1671 0
M  V30 2816 C 268.243 -0.965523 4.46684 0
M  V30 2817 C 269.24 -0.300741 5.19029 0
M  V30 2818 C 266.925 -0.943105 4.93367 0
M  V30 2819 C 268.919 0.376622 6.36286 0
M  V30 2820 C 266.606 -0.261949 6.10538 0
M  V30 2821 C 267.604 0.396748 6.81847 0
M  V30 2822 O 267.292 1.06701 7.96787 0
M  V30 2823 H 267.024 -0.241852 0.631255 0
M  V30 2824 H 269.578 -0.0921491 2.05193 0
M  V30 2825 H 267.808 -2.47601 2.97036 0
M  V30 2826 H 269.497 -2.29483 3.34802 0
M  V30 2827 H 270.263 -0.309599 4.84011 0
M  V30 2828 H 266.142 -1.44524 4.3776 0
M  V30 2829 H 269.686 0.891334 6.91882 0
M  V30 2830 H 265.583 -0.250896 6.45012 0
M  V30 2831 H 266.351 0.972707 8.127 0
M  V30 2832 N 269.014 -1.53014 -0.377408 0
M  V30 2833 C 270.26 -1.68872 -1.12294 0
M  V30 2834 C 270.593 -0.433224 -1.89306 0
M  V30 2835 O 269.868 0.569258 -1.85983 0
M  V30 2836 C 270.151 -2.93115 -2.09179 0
M  V30 2837 C 270.004 -4.28794 -1.35853 0
M  V30 2838 C 271.323 -3.12928 -3.09458 0
M  V30 2839 H 268.442 -0.614518 -0.406862 0
M  V30 2840 H 271.084 -1.85633 -0.40503 0
M  V30 2841 H 269.234 -2.78956 -2.70399 0
M  V30 2842 H 270.906 -4.54742 -0.775082 0
M  V30 2843 H 269.149 -4.28744 -0.660364 0
M  V30 2844 H 269.82 -5.11837 -2.06706 0
M  V30 2845 H 272.296 -3.26194 -2.58334 0
M  V30 2846 H 271.172 -4.01316 -3.74482 0
M  V30 2847 H 271.433 -2.27669 -3.78971 0
M  V30 2848 N 270.492 0.636531 -1.44174 0
M  V30 2849 C 271.769 1.39463 -1.37148 0
M  V30 2850 C 272.149 2.11082 -0.027507 0
M  V30 2851 O 271.497 2.05954 0.989716 0
M  V30 2852 C 271.707 2.36552 -2.56601 0
M  V30 2853 C 273.055 3.00048 -3.00427 0
M  V30 2854 O 274.079 2.46878 -2.56767 0
M  V30 2855 O 272.938 3.96488 -3.76111 0
M  V30 2856 H 270.032 0.623903 -0.542839 0
M  V30 2857 H 272.578 0.662039 -1.56253 0
M  V30 2858 H 271.35 1.82692 -3.46034 0
M  V30 2859 H 270.973 3.17236 -2.39681 0
M  V30 2860 N 271.97 1.30982 0.876444 0
M  V30 2861 C 273.218 1.20058 1.62575 0
M  V30 2862 C 273.539 -0.242947 1.93481 0
M  V30 2863 O 272.809 -1.1619 1.57724 0
M  V30 2864 H 271.389 0.44135 0.602677 0
M  V30 2865 H 274.051 1.64222 1.04962 0
M  V30 2866 H 273.147 1.76762 2.57219 0
M  V30 2867 N 273.449 -1.08991 1.13837 0
M  V30 2868 C 274.695 -1.81526 0.90422 0
M  V30 2869 C 275.028 -1.85706 -0.568066 0
M  V30 2870 O 274.303 -1.32855 -1.42056 0
M  V30 2871 C 274.586 -3.27447 1.49835 0
M  V30 2872 C 274.439 -3.31512 3.04006 0
M  V30 2873 C 275.758 -4.24256 1.17025 0
M  V30 2874 H 272.877 -0.659029 0.329923 0
M  V30 2875 H 275.519 -1.27644 1.40737 0
M  V30 2876 H 273.669 -3.73462 1.07044 0
M  V30 2877 H 275.341 -2.93867 3.55584 0
M  V30 2878 H 273.584 -2.70963 3.38765 0
M  V30 2879 H 274.255 -4.34329 3.40679 0
M  V30 2880 H 276.731 -3.86549 1.54009 0
M  V30 2881 H 275.607 -5.24684 1.61237 0
M  V30 2882 H 275.868 -4.42019 0.0846274 0
M  V30 2883 N 274.927 -0.932562 -1.27047 0
M  V30 2884 C 275.857 -0.452902 -2.29066 0
M  V30 2885 C 276.838 0.489338 -1.62909 0
M  V30 2886 O 278.023 0.393046 -1.90181 0
M  V30 2887 C 275.153 0.290698 -3.46081 0
M  V30 2888 C 274.107 -0.564168 -4.24265 0
M  V30 2889 C 273.433 0.308886 -5.33807 0
M  V30 2890 C 274.733 -1.83112 -4.89149 0
M  V30 2891 H 276.427 -1.30552 -2.69437 0
M  V30 2892 H 273.973 -0.629201 -1.29526 0
M  V30 2893 H 275.926 0.637233 -4.16554 0
M  V30 2894 H 274.65 1.17738 -3.0464 0
M  V30 2895 H 273.309 -0.893477 -3.55545 0
M  V30 2896 H 272.957 1.19467 -4.88607 0
M  V30 2897 H 272.657 -0.259633 -5.87026 0
M  V30 2898 H 274.181 0.650884 -6.07121 0
M  V30 2899 H 275.595 -1.55236 -5.51883 0
M  V30 2900 H 273.992 -2.34353 -5.52448 0
M  V30 2901 H 275.062 -2.54772 -4.12576 0
M  V30 2902 N 276.405 1.4127 -0.698611 0
M  V30 2903 C 277.352 2.30773 -0.0352094 0
M  V30 2904 C 278.322 1.47273 0.768111 0
M  V30 2905 O 279.507 1.76053 0.735524 0
M  V30 2906 C 276.647 3.33346 0.893 0
M  V30 2907 C 275.76 4.31924 0.0809695 0
M  V30 2908 C 274.895 5.21566 1.0071 0
M  V30 2909 C 273.934 6.11811 0.188155 0
M  V30 2910 N 273.071 6.93926 1.06825 0
M  V30 2911 H 277.911 2.86943 -0.804207 0
M  V30 2912 H 275.448 1.4132 -0.408294 0
M  V30 2913 H 277.406 3.91368 1.44523 0
M  V30 2914 H 276.036 2.78719 1.62836 0
M  V30 2915 H 275.088 3.75825 -0.588224 0
M  V30 2916 H 276.4 4.95716 -0.553801 0
M  V30 2917 H 275.554 5.84437 1.62845 0
M  V30 2918 H 274.293 4.58008 1.67572 0
M  V30 2919 H 273.298 5.47986 -0.446254 0
M  V30 2920 H 274.523 6.77425 -0.476716 0
M  V30 2921 H 272.469 6.32973 1.72283 0
M  V30 2922 H 272.386 7.54416 0.489123 0
M  V30 2923 H 273.654 7.61262 1.67632 0
M  V30 2924 N 277.883 0.443576 1.51229 0
M  V30 2925 C 278.833 -0.382787 2.24764 0
M  V30 2926 C 279.817 -0.984836 1.27239 0
M  V30 2927 O 281.009 -0.901943 1.52296 0
M  V30 2928 C 278.138 -1.47989 3.09765 0
M  V30 2929 C 277.224 -0.886931 4.14722 0
M  V30 2930 N 277.615 -0.0237103 5.05794 0
M  V30 2931 C 275.913 -1.15385 4.30816 0
M  V30 2932 C 276.614 0.309971 5.80874 0
M  V30 2933 N 275.59 -0.307989 5.42727 0
M  V30 2934 H 279.392 0.282624 2.92538 0
M  V30 2935 H 276.906 0.256027 1.60369 0
M  V30 2936 H 278.903 -2.08482 3.61027 0
M  V30 2937 H 277.563 -2.14758 2.43535 0
M  V30 2938 H 278.574 0.34318 5.16762 0
M  V30 2939 H 275.251 -1.81857 3.75812 0
M  V30 2940 H 276.641 1.01279 6.64223 0
M  V30 2941 N 279.361 -1.56624 0.175154 0
M  V30 2942 C 280.589 -2.01374 -0.474971 0
M  V30 2943 C 281.004 -1.05537 -1.56548 0
M  V30 2944 O 280.361 -0.0568668 -1.82411 0
M  V30 2945 C 280.412 -3.45923 -1.04975 0
M  V30 2946 O 280.133 -4.381 -0.00276605 0
M  V30 2947 C 281.634 -4.06093 -1.77773 0
M  V30 2948 H 278.854 -0.659962 -0.121206 0
M  V30 2949 H 281.398 -2.02601 0.27801 0
M  V30 2950 H 279.553 -3.45458 -1.75321 0
M  V30 2951 H 279.967 -5.22753 -0.427681 0
M  V30 2952 H 281.441 -5.09147 -2.13245 0
M  V30 2953 H 281.918 -3.48405 -2.67414 0
M  V30 2954 H 282.524 -4.10272 -1.12059 0
M  V30 2955 N 280.839 0.0985539 -1.57292 0
M  V30 2956 C 281.802 1.10402 -2.00858 0
M  V30 2957 C 282.802 1.33146 -0.901593 0
M  V30 2958 O 283.992 1.29318 -1.16716 0
M  V30 2959 C 281.124 2.45394 -2.36632 0
M  V30 2960 H 282.317 0.729099 -2.90902 0
M  V30 2961 H 279.87 0.343495 -1.52479 0
M  V30 2962 H 280.605 2.87769 -1.49531 0
M  V30 2963 H 280.39 2.30235 -3.17387 0
M  V30 2964 H 281.88 3.17718 -2.71007 0
M  V30 2965 N 282.317 1.53212 0.369288 0
M  V30 2966 C 283.545 1.73119 1.13303 0
M  V30 2967 C 283.96 0.458455 1.83149 0
M  V30 2968 O 283.317 -0.568403 1.73423 0
M  V30 2969 C 283.368 2.89413 2.16616 0
M  V30 2970 O 283.089 4.11761 1.49614 0
M  V30 2971 C 284.59 3.21161 3.05566 0
M  V30 2972 H 281.81 0.579107 0.338934 0
M  V30 2973 H 284.354 1.99942 0.429338 0
M  V30 2974 H 282.509 2.64994 2.82589 0
M  V30 2975 H 282.923 4.76858 2.18419 0
M  V30 2976 H 284.397 4.05949 3.74045 0
M  V30 2977 H 284.874 2.36369 3.70171 0
M  V30 2978 H 285.48 3.47492 2.45213 0
M  V30 2979 N 283.795 -0.628877 1.44509 0
M  V30 2980 C 284.758 -1.72263 1.51188 0
M  V30 2981 C 285.758 -1.55907 0.39367 0
M  V30 2982 O 286.948 -1.61361 0.656377 0
M  V30 2983 C 284.08 -3.11365 1.38798 0
M  V30 2984 H 285.273 -1.67714 2.4862 0
M  V30 2985 H 282.826 -0.842737 1.31634 0
M  V30 2986 H 283.561 -3.21507 0.424693 0
M  V30 2987 H 283.346 -3.24644 2.19884 0
M  V30 2988 H 284.836 -3.91075 1.46458 0
M  V30 2989 N 285.273 -1.31445 -0.869486 0
M  V30 2990 C 286.221 -1.19067 -1.99814 0
M  V30 2991 C 287.215 -0.0988569 -1.69111 0
M  V30 2992 O 288.421 -0.260781 -1.78101 0
M  V30 2993 H 284.796 -0.368677 -0.655425 0
M  V30 2994 H 286.767 -2.14555 -2.07385 0
M  V30 2995 C 285.516 -0.915323 -3.35436 0
M  V30 2996 H 284.839 -1.74759 -3.59582 0
M  V30 2997 H 286.279 -0.868895 -4.15001 0
M  V30 2998 C 284.738 0.381928 -3.34728 0
M  V30 2999 O 285.268 1.39857 -3.76567 0
M  V30 3000 N 283.474 0.398633 -2.87853 0
M  V30 3001 H 283.021 -0.429186 -2.54 0
M  V30 3002 H 282.979 1.26651 -2.87762 0
M  V30 3003 N 286.751 1.08385 -1.14413 0
M  V30 3004 C 288 1.80153 -0.907076 0
M  V30 3005 C 288.313 1.87176 0.567851 0
M  V30 3006 O 289.519 2.55359 0.922172 0
M  V30 3007 C 287.975 3.23687 -1.57336 0
M  V30 3008 C 287.583 3.24897 -3.08457 0
M  V30 3009 C 289.327 4.00136 -1.41744 0
M  V30 3010 C 287.234 4.6302 -3.67921 0
M  V30 3011 H 286.164 0.675139 -0.335714 0
M  V30 3012 H 288.815 1.21733 -1.37307 0
M  V30 3013 H 287.197 3.82234 -1.03505 0
M  V30 3014 H 288.371 2.76055 -3.68958 0
M  V30 3015 H 286.686 2.61943 -3.2369 0
M  V30 3016 H 289.283 5.02201 -1.83572 0
M  V30 3017 H 289.626 4.14709 -0.363576 0
M  V30 3018 H 290.159 3.48058 -1.92614 0
M  V30 3019 H 286.898 4.5365 -4.73161 0
M  V30 3020 H 286.418 5.12143 -3.12201 0
M  V30 3021 H 288.097 5.31994 -3.68227 0
M  V30 3022 N 288.23 0.939286 1.26551 0
M  V30 3023 C 289.641 0.628782 1.75793 0
M  V30 3024 C 289.992 -0.856046 1.7654 0
M  V30 3025 O 289.117 -1.66994 1.3763 0
M  V30 3026 C 289.712 1.13465 3.19235 0
M  V30 3027 C 288.271 0.874601 3.66098 0
M  V30 3028 C 287.418 1.28667 2.45642 0
M  V30 3029 H 290.369 1.1178 1.12654 0
M  V30 3030 H 290.39 0.487609 3.77363 0
M  V30 3031 H 289.902 2.21535 3.1866 0
M  V30 3032 H 288.003 -0.191793 3.72106 0
M  V30 3033 H 288.116 1.50028 4.55004 0
M  V30 3034 H 286.48 0.705109 2.44745 0
M  V30 3035 H 287.263 2.37625 2.47769 0
M  V30 3036 N 289.708 -1.40897 0.706093 0
M  V30 3037 C 290.933 -2.05895 0.249435 0
M  V30 3038 C 291.358 -1.52823 -1.09666 0
M  V30 3039 O 290.716 -0.659589 -1.68876 0
M  V30 3040 C 290.764 -3.59872 0.22904 0
M  V30 3041 O 289.868 -4.04708 -0.792784 0
M  V30 3042 H 289.209 -0.653206 0.119241 0
M  V30 3043 H 291.739 -1.80471 0.96391 0
M  V30 3044 H 291.749 -4.07951 0.0634791 0
M  V30 3045 H 290.424 -3.97866 1.21141 0
M  V30 3046 H 289.001 -3.68111 -0.59572 0
M  V30 3047 N 291.186 -0.45159 -1.50991 0
M  V30 3048 C 292.414 0.108334 -2.06616 0
M  V30 3049 C 292.829 1.35224 -1.31757 0
M  V30 3050 O 292.186 1.78475 -0.381174 0
M  V30 3051 C 292.237 0.41619 -3.59096 0
M  V30 3052 O 291.958 -0.778361 -4.3113 0
M  V30 3053 C 293.459 1.02523 -4.31282 0
M  V30 3054 H 290.679 0.00159995 -0.670998 0
M  V30 3055 H 293.223 -0.634771 -1.94399 0
M  V30 3056 H 291.378 1.10921 -3.71181 0
M  V30 3057 H 291.792 -0.511181 -5.22003 0
M  V30 3058 H 293.266 1.19053 -5.39009 0
M  V30 3059 H 293.743 2.01013 -3.905 0
M  V30 3060 H 294.349 0.371173 -4.23677 0
M  V30 3061 N 292.664 1.56529 -0.183458 0
M  V30 3062 C 294.075 1.83739 0.331177 0
M  V30 3063 C 294.426 1.10373 1.62211 0
M  V30 3064 O 293.551 0.36071 2.13373 0
M  V30 3065 C 294.146 3.33306 0.607646 0
M  V30 3066 C 292.705 3.60969 1.06668 0
M  V30 3067 C 291.852 2.77086 0.109029 0
M  V30 3068 H 294.803 1.53379 -0.407484 0
M  V30 3069 H 294.824 3.51444 1.45832 0
M  V30 3070 H 294.336 3.86677 -0.332086 0
M  V30 3071 H 292.437 3.13021 2.0211 0
M  V30 3072 H 292.55 4.69231 0.967447 0
M  V30 3073 H 290.914 2.47319 0.608714 0
M  V30 3074 H 291.697 3.33241 -0.82494 0
M  V30 3075 N 294.142 -0.090211 1.57342 0
M  V30 3076 C 295.39 -0.791241 1.85967 0
M  V30 3077 C 295.711 -1.7903 0.772859 0
M  V30 3078 O 294.981 -1.94872 -0.200398 0
M  V30 3079 H 293.561 -0.295205 0.686195 0
M  V30 3080 H 296.223 -0.0706782 1.94772 0
M  V30 3081 H 295.319 -1.31882 2.82867 0
M  V30 3082 N 295.62 -1.53406 -0.361157 0
M  V30 3083 C 296.567 -1.80156 -1.44265 0
M  V30 3084 C 297.537 -0.646183 -1.53015 0
M  V30 3085 O 298.722 -0.888818 -1.68833 0
M  V30 3086 C 295.862 -2.00116 -2.81154 0
M  V30 3087 C 294.975 -3.27833 -2.81335 0
M  V30 3088 C 294.11 -3.37957 -4.09828 0
M  V30 3089 C 293.149 -4.59689 -4.04168 0
M  V30 3090 N 292.286 -4.66942 -5.24318 0
M  V30 3091 H 297.126 -2.72438 -1.20754 0
M  V30 3092 H 294.663 -1.34954 -0.585296 0
M  V30 3093 H 296.621 -2.09677 -3.60682 0
M  V30 3094 H 295.251 -1.11167 -3.03054 0
M  V30 3095 H 294.303 -3.27204 -1.94014 0
M  V30 3096 H 295.615 -4.17442 -2.73027 0
M  V30 3097 H 294.769 -3.46853 -4.97773 0
M  V30 3098 H 293.508 -2.46372 -4.20894 0
M  V30 3099 H 292.513 -4.50889 -3.14609 0
M  V30 3100 H 293.738 -5.5262 -3.947 0
M  V30 3101 H 291.684 -3.7826 -5.35962 0
M  V30 3102 H 291.601 -5.50462 -5.18197 0
M  V30 3103 H 292.869 -4.80127 -6.14084 0
M  V30 3104 N 297.098 0.621204 -1.44841 0
M  V30 3105 C 298.347 1.37658 -1.47422 0
M  V30 3106 C 298.66 1.95264 -0.114629 0
M  V30 3107 O 299.866 2.71494 -0.0180199 0
M  V30 3108 C 298.322 2.49285 -2.59586 0
M  V30 3109 C 297.93 1.98149 -4.01797 0
M  V30 3110 C 299.674 3.26409 -2.71399 0
M  V30 3111 C 297.581 3.07178 -5.05367 0
M  V30 3112 H 296.511 0.517344 -0.548517 0
M  V30 3113 H 299.162 0.667257 -1.70938 0
M  V30 3114 H 297.544 3.22839 -2.29328 0
M  V30 3115 H 298.718 1.31395 -4.41669 0
M  V30 3116 H 297.033 1.33812 -3.94314 0
M  V30 3117 H 299.63 4.07706 -3.45948 0
M  V30 3118 H 299.973 3.76535 -1.77559 0
M  V30 3119 H 300.506 2.5995 -3.01116 0
M  V30 3120 H 297.245 2.61985 -6.00869 0
M  V30 3121 H 296.765 3.72542 -4.70077 0
M  V30 3122 H 298.444 3.71789 -5.29511 0
M  V30 3123 N 298.576 1.31904 0.862503 0
M  V30 3124 C 299.509 1.14514 1.97388 0
M  V30 3125 C 300.487 0.0466493 1.62533 0
M  V30 3126 O 301.671 0.204484 1.87388 0
M  V30 3127 C 298.798 0.751347 3.30261 0
M  V30 3128 C 297.844 1.85395 3.84098 0
M  V30 3129 S 298.677 3.46081 4.08642 0
M  V30 3130 C 299.833 3.08655 5.44502 0
M  V30 3131 H 300.066 2.08597 2.11836 0
M  V30 3132 H 297.599 1.16475 1.01356 0
M  V30 3133 H 299.557 0.530901 4.07052 0
M  V30 3134 H 298.218 -0.170493 3.13637 0
M  V30 3135 H 297.411 1.53122 4.80177 0
M  V30 3136 H 297.013 2.02984 3.14123 0
M  V30 3137 H 299.305 2.58012 6.26447 0
M  V30 3138 H 300.248 4.03726 5.81731 0
M  V30 3139 H 300.656 2.45891 5.08132 0
M  V30 3140 N 300.054 -1.07777 1.14986 0
M  V30 3141 C 300.987 -2.14228 0.786243 0
M  V30 3142 C 301.965 -1.60888 -0.235347 0
M  V30 3143 O 303.149 -1.88099 -0.122909 0
M  V30 3144 C 300.276 -3.38281 0.168433 0
M  V30 3145 C 299.322 -4.10387 1.16123 0
M  V30 3146 S 300.155 -4.62371 2.70135 0
M  V30 3147 C 301.311 -5.89704 2.09762 0
M  V30 3148 H 301.544 -2.44741 1.68787 0
M  V30 3149 H 299.077 -1.19984 0.971756 0
M  V30 3150 H 301.035 -4.10098 -0.181588 0
M  V30 3151 H 299.696 -3.05953 -0.710725 0
M  V30 3152 H 298.889 -4.99431 0.677086 0
M  V30 3153 H 298.491 -3.44513 1.45556 0
M  V30 3154 H 300.783 -6.61648 1.45701 0
M  V30 3155 H 301.726 -6.42824 2.96955 0
M  V30 3156 H 302.134 -5.4302 1.54239 0
M  V30 3157 N 301.532 -0.945985 -1.26051 0
M  V30 3158 C 302.48 -0.450259 -2.282 0
M  V30 3159 C 303.474 0.47497 -1.62605 0
M  V30 3160 O 304.68 0.352653 -1.76512 0
M  V30 3161 H 301.055 -0.127081 -0.741184 0
M  V30 3162 H 303.026 -1.32422 -2.67408 0
M  V30 3163 C 301.775 0.26467 -3.46691 0
M  V30 3164 H 301.098 -0.438123 -3.97392 0
M  V30 3165 H 302.538 0.575678 -4.20074 0
M  V30 3166 C 300.997 1.48416 -3.02447 0
M  V30 3167 O 301.527 2.58227 -3.07704 0
M  V30 3168 N 299.733 1.34243 -2.57735 0
M  V30 3169 H 299.28 0.448994 -2.53657 0
M  V30 3170 H 299.238 2.15957 -2.28495 0
M  V30 3171 N 303.011 1.40521 -0.713556 0
M  V30 3172 C 303.941 2.33381 -0.0743864 0
M  V30 3173 C 304.922 1.52784 0.747735 0
M  V30 3174 O 306.107 1.81258 0.697071 0
M  V30 3175 C 303.237 3.36748 0.849598 0
M  V30 3176 C 302.191 4.27793 0.133247 0
M  V30 3177 C 301.517 5.21679 1.17281 0
M  V30 3178 C 302.817 5.12415 -1.01134 0
M  V30 3179 H 304.511 2.87081 -0.850007 0
M  V30 3180 H 302.057 1.38034 -0.410201 0
M  V30 3181 H 304.01 4.00648 1.30612 0
M  V30 3182 H 302.734 2.81439 1.65709 0
M  V30 3183 H 301.393 3.65342 -0.303426 0
M  V30 3184 H 301.041 4.62677 1.9733 0
M  V30 3185 H 300.741 5.83435 0.698397 0
M  V30 3186 H 302.265 5.88456 1.62947 0
M  V30 3187 H 303.679 5.69781 -0.634274 0
M  V30 3188 H 302.076 5.83203 -1.41399 0
M  V30 3189 H 303.146 4.48514 -1.84292 0
M  V30 3190 N 304.489 0.459591 1.5075 0
M  V30 3191 C 305.735 -0.091664 2.03193 0
M  V30 3192 C 306.09 -1.38432 1.3362 0
M  V30 3193 O 305.383 -1.86257 0.449322 0
M  V30 3194 C 305.577 -0.342866 3.55752 0
M  V30 3195 C 305.406 0.923888 4.40107 0
M  V30 3196 C 304.176 1.46388 4.83631 0
M  V30 3197 C 306.374 1.81617 4.81165 0
M  V30 3198 N 304.356 2.68086 5.52271 0
M  V30 3199 C 305.727 2.87907 5.49099 0
M  V30 3200 C 307.782 1.82793 4.63132 0
M  V30 3201 C 306.485 3.95347 6.0091 0
M  V30 3202 C 308.511 2.89182 5.15876 0
M  V30 3203 C 307.873 3.94191 5.83774 0
M  V30 3204 H 303.972 0.00619247 0.781975 0
M  V30 3205 H 306.556 0.625233 1.84388 0
M  V30 3206 H 304.727 -1.0288 3.74527 0
M  V30 3207 H 306.459 -0.887445 3.9485 0
M  V30 3208 H 303.214 1.01466 4.62603 0
M  V30 3209 H 303.638 3.29857 5.91205 0
M  V30 3210 H 308.28 1.0293 4.1008 0
M  V30 3211 H 305.998 4.76035 6.53006 0
M  V30 3212 H 309.584 2.91061 5.0376 0
M  V30 3213 H 308.464 4.75161 6.23853 0
M  V30 3214 N 305.967 -1.56429 0.191757 0
M  V30 3215 C 306.915 -2.20273 -0.747174 0
M  V30 3216 C 307.909 -1.17288 -1.22229 0
M  V30 3217 O 309.115 -1.35441 -1.18557 0
M  V30 3218 H 305.49 -0.705885 -0.259289 0
M  V30 3219 H 307.461 -2.97826 -0.184963 0
M  V30 3220 C 306.21 -2.87356 -1.95759 0
M  V30 3221 H 305.533 -3.66341 -1.60106 0
M  V30 3222 H 306.973 -3.3547 -2.59299 0
M  V30 3223 C 305.432 -1.88213 -2.79423 0
M  V30 3224 O 305.962 -1.38033 -3.7724 0
M  V30 3225 N 304.168 -1.56516 -2.44849 0
M  V30 3226 H 303.715 -1.97516 -1.65364 0
M  V30 3227 H 303.673 -0.904369 -3.01112 0
M  V30 3228 N 307.445 0.0818655 -1.57387 0
M  V30 3229 C 308.693 0.781368 -1.86384 0
M  V30 3230 C 309.014 1.78618 -0.782342 0
M  V30 3231 O 308.284 1.94976 0.190061 0
M  V30 3232 H 306.864 0.291562 -0.687751 0
M  V30 3233 H 309.526 0.060348 -1.94807 0
M  V30 3234 H 308.622 1.3038 -2.83562 0
M  V30 3235 N 308.923 1.53595 0.353017 0
M  V30 3236 C 310.151 1.74311 1.1146 0
M  V30 3237 C 310.566 0.477854 1.82653 0
M  V30 3238 O 309.923 -0.549977 1.74016 0
M  V30 3239 C 309.974 2.91694 2.13534 0
M  V30 3240 O 309.695 4.13325 1.45238 0
M  V30 3241 C 311.196 3.24384 3.02142 0
M  V30 3242 H 308.416 0.582669 0.332773 0
M  V30 3243 H 310.96 2.00386 0.408107 0
M  V30 3244 H 309.115 2.67977 2.79763 0
M  V30 3245 H 309.529 4.79148 2.13349 0
M  V30 3246 H 311.003 4.09893 3.69718 0
M  V30 3247 H 311.48 2.40282 3.67643 0
M  V30 3248 H 312.086 3.50073 2.41514 0
M  V30 3249 N 310.401 -0.613514 1.45168 0
M  V30 3250 C 311.649 -1.36997 1.48581 0
M  V30 3251 C 311.97 -1.94589 0.126545 0
M  V30 3252 O 311.24 -1.76816 -0.843372 0
M  V30 3253 H 309.82 -0.508558 0.547154 0
M  V30 3254 H 312.482 -0.720853 1.81079 0
M  V30 3255 H 311.578 -2.1924 2.22127 0
M  V30 3256 N 311.879 -1.3236 -0.855495 0
M  V30 3257 C 313.125 -1.23054 -1.612 0
M  V30 3258 C 313.458 0.207404 -1.93089 0
M  V30 3259 O 312.733 1.14432 -1.57275 0
M  V30 3260 C 313.016 -2.08937 -2.93287 0
M  V30 3261 C 312.869 -3.61105 -2.68185 0
M  V30 3262 C 314.188 -1.94986 -3.94549 0
M  V30 3263 H 311.307 -0.448364 -0.584926 0
M  V30 3264 H 313.949 -1.62297 -0.987917 0
M  V30 3265 H 312.099 -1.75599 -3.46551 0
M  V30 3266 H 313.771 -4.04652 -2.21483 0
M  V30 3267 H 312.014 -3.83813 -2.02164 0
M  V30 3268 H 312.685 -4.16522 -3.62234 0
M  V30 3269 H 315.161 -2.24189 -3.5054 0
M  V30 3270 H 314.037 -2.57356 -4.84829 0
M  V30 3271 H 314.298 -0.917263 -4.3248 0
M  V30 3272 N 313.357 1.07166 -1.15556 0
M  V30 3273 C 314.634 1.76546 -0.842069 0
M  V30 3274 C 315.014 2.00453 0.661939 0
M  V30 3275 O 314.362 1.62452 1.60691 0
M  V30 3276 C 314.572 3.07266 -1.65495 0
M  V30 3277 C 315.92 3.81578 -1.86234 0
M  V30 3278 O 316.944 3.17083 -1.62287 0
M  V30 3279 O 315.803 4.97419 -2.26355 0
M  V30 3280 H 312.897 0.766756 -0.309862 0
M  V30 3281 H 315.443 1.13514 -1.26145 0
M  V30 3282 H 314.215 2.85494 -2.67598 0
M  V30 3283 H 313.838 3.7803 -1.23203 0
M  V30 3284 N 314.835 0.952656 1.25548 0
M  V30 3285 C 316.112 0.523818 1.88456 0
M  V30 3286 C 316.492 -0.998871 1.85973 0
M  V30 3287 O 315.84 -1.86381 1.3219 0
M  V30 3288 C 316.05 1.0982 3.31271 0
M  V30 3289 C 317.398 1.17385 4.08051 0
M  V30 3290 O 318.422 1.04961 3.40384 0
M  V30 3291 O 317.281 1.36852 5.29088 0
M  V30 3292 H 314.375 0.172485 0.808813 0
M  V30 3293 H 316.921 1.04596 1.33633 0
M  V30 3294 H 315.693 2.1415 3.27499 0
M  V30 3295 H 315.316 0.559191 3.93648 0
M  V30 3296 N 316.313 -1.40141 0.720998 0
M  V30 3297 C 317.559 -2.01572 0.272075 0
M  V30 3298 C 317.914 -1.5616 -1.12391 0
M  V30 3299 O 317.207 -0.774198 -1.75262 0
M  V30 3300 C 317.401 -3.56165 0.296892 0
M  V30 3301 C 317.23 -4.16584 1.69375 0
M  V30 3302 C 316 -4.49783 2.30269 0
M  V30 3303 C 318.198 -4.41076 2.64493 0
M  V30 3304 N 316.18 -4.95626 3.62254 0
M  V30 3305 C 317.551 -4.88971 3.81192 0
M  V30 3306 C 319.606 -4.23122 2.62435 0
M  V30 3307 C 318.309 -5.20796 4.96149 0
M  V30 3308 C 320.335 -4.56052 3.76524 0
M  V30 3309 C 319.697 -5.04141 4.91956 0
M  V30 3310 H 315.796 -0.768343 0.145511 0
M  V30 3311 H 318.38 -1.70287 0.943959 0
M  V30 3312 H 316.551 -3.86868 -0.344578 0
M  V30 3313 H 318.283 -4.04346 -0.169254 0
M  V30 3314 H 315.038 -4.37101 1.82318 0
M  V30 3315 H 315.462 -5.22923 4.29977 0
M  V30 3316 H 320.104 -3.85158 1.74393 0
M  V30 3317 H 317.822 -5.57672 5.84831 0
M  V30 3318 H 321.408 -4.43796 3.76213 0
M  V30 3319 H 320.288 -5.29142 5.78774 0
M  V30 3320 N 317.792 -0.46758 -1.50504 0
M  V30 3321 C 318.722 0.318381 -2.31319 0
M  V30 3322 C 319.703 0.993564 -1.38066 0
M  V30 3323 O 320.888 0.991411 -1.66987 0
M  V30 3324 C 318.018 1.40275 -3.17711 0
M  V30 3325 C 316.972 0.849373 -4.19487 0
M  V30 3326 C 316.298 2.03177 -4.94594 0
M  V30 3327 C 317.598 -0.136942 -5.2212 0
M  V30 3328 H 319.292 -0.356106 -2.97275 0
M  V30 3329 H 316.838 -0.172703 -1.42961 0
M  V30 3330 H 318.791 1.96004 -3.73042 0
M  V30 3331 H 317.515 2.10596 -2.49634 0
M  V30 3332 H 316.174 0.314076 -3.65252 0
M  V30 3333 H 315.822 2.72187 -4.22993 0
M  V30 3334 H 315.522 1.66774 -5.63436 0
M  V30 3335 H 317.046 2.59403 -5.52759 0
M  V30 3336 H 318.46 0.331056 -5.72343 0
M  V30 3337 H 316.857 -0.41507 -5.98663 0
M  V30 3338 H 317.927 -1.06398 -4.73083 0
M  V30 3339 N 319.27 1.56325 -0.20005 0
M  V30 3340 C 320.518 1.97329 0.436547 0
M  V30 3341 C 320.839 1.08826 1.61808 0
M  V30 3342 O 320.109 0.160604 1.95241 0
M  V30 3343 H 318.689 0.728714 0.164272 0
M  V30 3344 H 321.351 1.92761 -0.287937 0
M  V30 3345 H 320.447 3.02264 0.777353 0
M  V30 3346 N 320.748 -0.0735177 1.57428 0
M  V30 3347 C 321.973 -0.789787 1.91774 0
M  V30 3348 C 322.398 -1.70413 0.796306 0
M  V30 3349 O 321.756 -1.79555 -0.250961 0
M  V30 3350 C 321.804 -1.5609 3.25067 0
M  V30 3351 O 320.908 -2.67144 3.14178 0
M  V30 3352 H 320.249 -0.215582 0.628029 0
M  V30 3353 H 322.779 -0.0422781 2.04556 0
M  V30 3354 H 322.789 -1.94052 3.58898 0
M  V30 3355 H 321.464 -0.890015 4.06265 0
M  V30 3356 H 320.041 -2.32052 2.91901 0
M  V30 3357 N 322.226 -1.5378 -0.344866 0
M  V30 3358 C 323.456 -1.74646 -1.10374 0
M  V30 3359 C 323.864 -0.48491 -1.8288 0
M  V30 3360 O 323.207 0.553062 -1.75177 0
M  V30 3361 C 323.269 -2.87145 -2.16306 0
M  V30 3362 C 322.933 -4.26795 -1.63386 0
M  V30 3363 C 323.93 -5.08412 -1.08688 0
M  V30 3364 C 321.615 -4.73276 -1.68272 0
M  V30 3365 C 323.609 -6.34609 -0.595792 0
M  V30 3366 C 321.296 -5.99446 -1.18776 0
M  V30 3367 C 322.294 -6.79946 -0.645215 0
M  V30 3368 O 321.982 -8.03745 -0.157626 0
M  V30 3369 H 321.714 -0.587112 -0.335075 0
M  V30 3370 H 324.268 -2.01403 -0.403252 0
M  V30 3371 H 322.498 -2.55909 -2.89909 0
M  V30 3372 H 324.187 -2.95992 -2.77747 0
M  V30 3373 H 324.953 -4.73666 -1.04236 0
M  V30 3374 H 320.832 -4.10677 -2.09442 0
M  V30 3375 H 324.376 -6.97389 -0.171654 0
M  V30 3376 H 320.273 -6.33687 -1.22928 0
M  V30 3377 H 321.041 -8.18038 -0.275037 0
M  V30 3378 N 323.704 0.605807 -1.45491 0
M  V30 3379 C 324.652 1.73754 -1.54636 0
M  V30 3380 C 325.646 1.64207 -0.416219 0
M  V30 3381 O 326.852 1.69979 -0.592199 0
M  V30 3382 H 323.227 0.574073 -0.485741 0
M  V30 3383 H 325.198 1.63169 -2.49837 0
M  V30 3384 C 323.947 3.12135 -1.53189 0
M  V30 3385 H 323.27 3.20141 -2.39478 0
M  V30 3386 H 324.71 3.91147 -1.63645 0
M  V30 3387 C 323.169 3.35921 -0.256616 0
M  V30 3388 O 323.699 3.96194 0.662798 0
M  V30 3389 N 321.905 2.90204 -0.151751 0
M  V30 3390 H 321.452 2.41336 -0.90081 0
M  V30 3391 H 321.41 3.06492 0.700699 0
M  V30 3392 N 325.182 1.32811 0.848464 0
M  V30 3393 C 326.43 1.23479 1.59991 0
M  V30 3394 C 326.751 -0.201853 1.93952 0
M  V30 3395 O 326.021 -1.12818 1.60153 0
M  V30 3396 H 324.601 0.454034 0.593179 0
M  V30 3397 H 327.263 1.66412 1.01455 0
M  V30 3398 H 326.359 1.82178 2.53412 0
M  V30 3399 N 326.66 -1.06551 1.16123 0
M  V30 3400 C 327.623 -2.12132 0.867906 0
M  V30 3401 C 328.623 -1.60224 -0.135944 0
M  V30 3402 O 329.813 -1.73943 0.0946422 0
M  V30 3403 C 326.945 -3.396 0.297419 0
M  V30 3404 H 328.138 -2.39586 1.80385 0
M  V30 3405 H 325.691 -1.22574 0.969812 0
M  V30 3406 H 326.426 -3.17794 -0.64633 0
M  V30 3407 H 326.211 -3.78581 1.02073 0
M  V30 3408 H 327.701 -4.17455 0.110052 0
M  V30 3409 N 328.138 -0.959301 -1.25041 0
M  V30 3410 C 329.086 -0.474437 -2.2771 0
M  V30 3411 C 330.08 0.457697 -1.631 0
M  V30 3412 O 331.286 0.333912 -1.76876 0
M  V30 3413 H 327.661 -0.134936 -0.739795 0
M  V30 3414 H 329.632 -1.35251 -2.65988 0
M  V30 3415 C 328.381 0.227884 -3.46952 0
M  V30 3416 H 327.704 -0.480248 -3.96905 0
M  V30 3417 H 329.144 0.531091 -4.20661 0
M  V30 3418 C 327.603 1.452 -3.04004 0
M  V30 3419 O 328.133 2.54949 -3.10426 0
M  V30 3420 N 326.339 1.31502 -2.59144 0
M  V30 3421 H 325.886 0.422065 -2.54119 0
M  V30 3422 H 325.844 2.13521 -2.30773 0
M  V30 3423 N 329.616 1.39756 -0.72842 0
M  V30 3424 C 331.027 1.83498 -0.344289 0
M  V30 3425 C 331.378 1.60868 1.12321 0
M  V30 3426 O 330.503 1.09634 1.86573 0
M  V30 3427 C 331.098 3.33114 -0.618112 0
M  V30 3428 C 329.657 3.753 -0.287549 0
M  V30 3429 C 328.804 2.62831 -0.884048 0
M  V30 3430 H 331.755 1.28842 -0.926578 0
M  V30 3431 H 331.776 3.80334 0.112349 0
M  V30 3432 H 331.288 3.49553 -1.68625 0
M  V30 3433 H 329.389 3.64451 0.775012 0
M  V30 3434 H 329.502 4.72945 -0.765512 0
M  V30 3435 H 327.866 2.52792 -0.311149 0
M  V30 3436 H 328.649 2.82078 -1.95671 0
M  V30 3437 N 331.094 0.475555 1.50254 0
M  V30 3438 C 332.024 -0.30611 2.31485 0
M  V30 3439 C 333.005 -0.986228 1.38591 0
M  V30 3440 O 334.19 -0.982541 1.67511 0
M  V30 3441 C 331.32 -1.38588 3.1845 0
M  V30 3442 C 330.274 -0.827115 4.19932 0
M  V30 3443 C 329.6 -2.00551 4.95665 0
M  V30 3444 C 330.9 0.16463 5.2204 0
M  V30 3445 H 332.594 0.371866 2.97082 0
M  V30 3446 H 330.14 0.180282 1.42867 0
M  V30 3447 H 332.093 -1.94023 3.74076 0
M  V30 3448 H 330.817 -2.09269 2.50747 0
M  V30 3449 H 329.476 -0.294702 3.65414 0
M  V30 3450 H 329.124 -2.6994 4.2443 0
M  V30 3451 H 328.824 -1.63784 5.64313 0
M  V30 3452 H 330.348 -2.56468 5.54127 0
M  V30 3453 H 331.762 -0.300699 5.72511 0
M  V30 3454 H 330.159 0.446813 5.98434 0
M  V30 3455 H 331.229 1.08905 4.72512 0
M  V30 3456 N 332.573 -1.56217 0.208337 0
M  V30 3457 C 333.803 -2.02043 -0.431523 0
M  V30 3458 C 334.211 -1.08755 -1.54819 0
M  V30 3459 O 333.554 -0.0870009 -1.83494 0
M  V30 3460 C 333.616 -3.44239 -1.03633 0
M  V30 3461 C 333.28 -4.56965 -0.0567502 0
M  V30 3462 C 334.277 -5.14624 0.738773 0
M  V30 3463 C 331.962 -5.02266 0.0581736 0
M  V30 3464 C 333.956 -6.16045 1.63605 0
M  V30 3465 C 331.643 -6.03528 0.959001 0
M  V30 3466 C 332.641 -6.60293 1.7465 0
M  V30 3467 O 332.329 -7.59586 2.6322 0
M  V30 3468 H 332.061 -0.666772 -0.111313 0
M  V30 3469 H 334.615 -2.02919 0.318277 0
M  V30 3470 H 332.845 -3.40391 -1.83497 0
M  V30 3471 H 334.534 -3.73793 -1.58221 0
M  V30 3472 H 335.3 -4.80483 0.660364 0
M  V30 3473 H 331.179 -4.57771 -0.544633 0
M  V30 3474 H 334.723 -6.60279 2.25116 0
M  V30 3475 H 330.62 -6.37092 1.03848 0
M  V30 3476 H 331.388 -7.77057 2.57148 0
M  V30 3477 N 334.051 0.0651679 -1.57465 0
M  V30 3478 C 335.014 1.06117 -2.03155 0
M  V30 3479 C 336.014 1.31204 -0.929632 0
M  V30 3480 O 337.204 1.26813 -1.19432 0
M  V30 3481 C 334.336 2.4032 -2.41783 0
M  V30 3482 H 335.529 0.667231 -2.92383 0
M  V30 3483 H 333.082 0.311075 -1.53173 0
M  V30 3484 H 333.817 2.84532 -1.55601 0
M  V30 3485 H 333.602 2.23451 -3.22199 0
M  V30 3486 H 335.092 3.11898 -2.77685 0
M  V30 3487 N 335.529 1.53961 0.336706 0
M  V30 3488 C 336.439 1.85432 1.43708 0
M  V30 3489 C 337.455 0.745053 1.57242 0
M  V30 3490 O 338.631 1.03804 1.72588 0
M  V30 3491 C 335.696 2.06349 2.78605 0
M  V30 3492 C 334.757 3.30191 2.74358 0
M  V30 3493 C 333.99 3.50101 4.02822 0
M  V30 3494 O 334.213 2.7371 5.00439 0
M  V30 3495 O 333.147 4.43547 4.06878 0
M  V30 3496 H 336.973 2.78975 1.20028 0
M  V30 3497 H 334.558 1.39701 0.52952 0
M  V30 3498 H 336.44 2.21513 3.58483 0
M  V30 3499 H 335.115 1.15995 3.02203 0
M  V30 3500 H 334.022 3.20425 1.93078 0
M  V30 3501 H 335.355 4.2056 2.55715 0
M  V30 3502 N 337.007 -0.598083 1.45811 0
M  V30 3503 C 338.237 -1.38121 1.53643 0
M  V30 3504 C 338.645 -1.88425 0.171081 0
M  V30 3505 O 337.988 -1.63409 -0.839237 0
M  V30 3506 C 338.05 -2.61432 2.46766 0
M  V30 3507 C 337.714 -2.32702 3.93318 0
M  V30 3508 C 338.711 -1.92479 4.82957 0
M  V30 3509 C 336.396 -2.45321 4.38318 0
M  V30 3510 C 338.39 -1.65248 6.15607 0
M  V30 3511 C 336.077 -2.17703 5.71007 0
M  V30 3512 C 337.075 -1.7773 6.5947 0
M  V30 3513 O 336.763 -1.50441 7.89698 0
M  V30 3514 H 336.495 -0.428863 0.522544 0
M  V30 3515 H 339.049 -0.73557 1.91777 0
M  V30 3516 H 337.279 -3.28749 2.0362 0
M  V30 3517 H 338.968 -3.23487 2.45175 0
M  V30 3518 H 339.734 -1.82258 4.49452 0
M  V30 3519 H 335.613 -2.75399 3.69697 0
M  V30 3520 H 339.157 -1.33973 6.84614 0
M  V30 3521 H 335.054 -2.27544 6.04065 0
M  V30 3522 H 335.822 -1.64415 8.01817 0
M  V30 3523 N 338.485 -1.33259 -0.841409 0
M  V30 3524 C 339.762 -1.15174 -1.58096 0
M  V30 3525 C 340.142 0.282858 -2.09196 0
M  V30 3526 O 339.49 1.28151 -1.89181 0
M  V30 3527 C 339.7 -2.1907 -2.71679 0
M  V30 3528 C 341.048 -2.53093 -3.40924 0
M  V30 3529 O 342.072 -2.17717 -2.81918 0
M  V30 3530 O 340.931 -3.1379 -4.47435 0
M  V30 3531 H 338.025 -0.445303 -0.696875 0
M  V30 3532 H 340.571 -1.44833 -0.884385 0
M  V30 3533 H 339.343 -3.15443 -2.31541 0
M  V30 3534 H 338.966 -1.90481 -3.49002 0
M  V30 3535 N 339.963 1.05934 -1.16686 0
M  V30 3536 C 341.209 1.79211 -0.962023 0
M  V30 3537 C 341.564 1.85667 0.504545 0
M  V30 3538 O 340.857 1.33991 1.36956 0
M  V30 3539 C 341.051 3.23105 -1.52767 0
M  V30 3540 C 340.88 3.30673 -3.04771 0
M  V30 3541 C 339.65 3.40395 -3.73442 0
M  V30 3542 C 341.848 3.20234 -4.02436 0
M  V30 3543 N 339.83 3.37015 -5.13122 0
M  V30 3544 C 341.201 3.24138 -5.28521 0
M  V30 3545 C 343.256 3.04143 -3.9421 0
M  V30 3546 C 341.959 3.13607 -6.47336 0
M  V30 3547 C 343.985 2.94951 -5.12599 0
M  V30 3548 C 343.347 2.99481 -6.37566 0
M  V30 3549 H 339.446 0.668442 -0.405844 0
M  V30 3550 H 342.03 1.26341 -1.48142 0
M  V30 3551 H 340.201 3.74364 -1.03471 0
M  V30 3552 H 341.933 3.84579 -1.26021 0
M  V30 3553 H 338.688 3.45344 -3.2409 0
M  V30 3554 H 339.112 3.38815 -5.86117 0
M  V30 3555 H 343.754 2.99484 -2.98445 0
M  V30 3556 H 341.472 3.17022 -7.43319 0
M  V30 3557 H 345.058 2.83583 -5.08008 0
M  V30 3558 H 343.938 2.92431 -7.27636 0
M  V30 3559 N 341.441 0.965919 1.2453 0
M  V30 3560 C 342.687 0.62776 1.92839 0
M  V30 3561 C 343.02 -0.834694 1.75347 0
M  V30 3562 O 342.295 -1.60031 1.10546 0
M  V30 3563 C 342.578 1.00109 3.45905 0
M  V30 3564 C 342.431 2.52011 3.72573 0
M  V30 3565 C 343.75 0.53435 4.36844 0
M  V30 3566 H 340.869 0.229537 0.700344 0
M  V30 3567 H 343.511 1.2046 1.46933 0
M  V30 3568 H 341.661 0.510238 3.85135 0
M  V30 3569 H 343.333 3.08559 3.42912 0
M  V30 3570 H 341.576 2.95287 3.17786 0
M  V30 3571 H 342.247 2.73183 4.79661 0
M  V30 3572 H 344.723 0.955565 4.04979 0
M  V30 3573 H 343.599 0.824152 5.42678 0
M  V30 3574 H 343.86 -0.565589 4.38467 0
M  V30 3575 N 342.919 -1.39368 0.735821 0
M  V30 3576 C 343.866 -2.30599 0.0963825 0
M  V30 3577 C 344.836 -1.49257 -0.728794 0
M  V30 3578 O 346.021 -1.77941 -0.688588 0
M  V30 3579 C 343.161 -3.35596 -0.804305 0
M  V30 3580 C 342.274 -4.31987 0.0335761 0
M  V30 3581 C 341.409 -5.24053 -0.868461 0
M  V30 3582 C 340.448 -6.12095 -0.0258776 0
M  V30 3583 N 339.585 -6.96514 -0.883893 0
M  V30 3584 H 344.425 -2.8471 0.880002 0
M  V30 3585 H 341.962 -1.40188 0.445619 0
M  V30 3586 H 343.92 -3.95062 -1.34096 0
M  V30 3587 H 342.55 -2.82938 -1.55389 0
M  V30 3588 H 341.602 -3.74133 0.68766 0
M  V30 3589 H 342.914 -4.94074 0.685036 0
M  V30 3590 H 342.068 -5.88549 -1.47293 0
M  V30 3591 H 340.807 -4.62289 -1.5537 0
M  V30 3592 H 339.812 -5.4661 0.591386 0
M  V30 3593 H 341.037 -6.75923 0.656156 0
M  V30 3594 H 338.983 -6.37318 -1.55441 0
M  V30 3595 H 338.9 -7.55448 -0.288931 0
M  V30 3596 H 340.168 -7.65439 -1.4739 0
M  V30 3597 N 344.397 -0.483516 -1.5 0
M  V30 3598 C 345.627 0.0643896 -2.065 0
M  V30 3599 C 346.035 1.32949 -1.34615 0
M  V30 3600 O 345.378 1.79003 -0.412756 0
M  V30 3601 C 345.44 0.405983 -3.572 0
M  V30 3602 C 345.104 -0.758875 -4.50655 0
M  V30 3603 C 346.101 -1.64445 -4.93208 0
M  V30 3604 C 343.786 -0.952725 -4.93182 0
M  V30 3605 C 345.78 -2.70818 -5.77006 0
M  V30 3606 C 343.467 -2.01966 -5.76761 0
M  V30 3607 C 344.465 -2.89574 -6.18576 0
M  V30 3608 O 344.153 -3.94429 -7.00486 0
M  V30 3609 H 343.885 -0.00934786 -0.675935 0
M  V30 3610 H 346.439 -0.674959 -1.93993 0
M  V30 3611 H 344.669 1.19869 -3.67652 0
M  V30 3612 H 346.358 0.890433 -3.96013 0
M  V30 3613 H 347.124 -1.50643 -4.61012 0
M  V30 3614 H 343.003 -0.280247 -4.60147 0
M  V30 3615 H 346.547 -3.3923 -6.09565 0
M  V30 3616 H 342.444 -2.1577 -6.0837 0
M  V30 3617 H 343.212 -3.91568 -7.1876 0
M  V30 3618 N 345.875 1.56104 -0.216619 0
M  V30 3619 C 347.103 2.02563 0.421413 0
M  V30 3620 C 347.518 1.0965 1.53695 0
M  V30 3621 O 346.875 0.10521 1.82196 0
M  V30 3622 C 346.926 3.48584 0.957665 0
M  V30 3623 O 346.647 4.37953 -0.113389 0
M  V30 3624 C 348.148 4.10664 1.66943 0
M  V30 3625 H 345.368 0.662944 0.103665 0
M  V30 3626 H 347.912 2.01793 -0.331629 0
M  V30 3627 H 346.067 3.49985 1.661 0
M  V30 3628 H 346.481 5.23704 0.288932 0
M  V30 3629 H 347.955 5.14622 1.99671 0
M  V30 3630 H 348.432 3.55373 2.58083 0
M  V30 3631 H 349.038 4.13098 1.01142 0
M  V30 3632 N 347.353 -0.0568162 1.57498 0
M  V30 3633 C 348.578 -0.769402 1.92601 0
M  V30 3634 C 349.003 -1.69559 0.814336 0
M  V30 3635 O 348.361 -1.79811 -0.231903 0
M  V30 3636 C 348.409 -1.52634 3.26704 0
M  V30 3637 O 347.513 -2.63797 3.16994 0
M  V30 3638 H 346.854 -0.208909 0.63028 0
M  V30 3639 H 349.384 -0.0205798 2.0459 0
M  V30 3640 H 349.394 -1.90234 3.60936 0
M  V30 3641 H 348.069 -0.846875 4.07186 0
M  V30 3642 H 346.646 -2.28943 2.94346 0
M  V30 3643 N 348.832 -1.54138 -0.328536 0
M  V30 3644 C 349.78 -1.83894 -1.42428 0
M  V30 3645 C 350.774 -0.710478 -1.53781 0
M  V30 3646 O 351.98 -0.894062 -1.56226 0
M  V30 3647 H 348.355 -0.582837 -0.475189 0
M  V30 3648 H 350.326 -2.75537 -1.14552 0
M  V30 3649 C 349.075 -2.07866 -2.78724 0
M  V30 3650 H 348.398 -2.94158 -2.7076 0
M  V30 3651 H 349.838 -2.32644 -3.54476 0
M  V30 3652 C 348.297 -0.868689 -3.25508 0
M  V30 3653 O 348.827 -0.0754908 -4.01629 0
M  V30 3654 N 347.033 -0.681711 -2.82491 0
M  V30 3655 H 346.58 -1.32838 -2.20708 0
M  V30 3656 H 346.538 0.126374 -3.14146 0
M  V30 3657 O 350.349 0.474497 -1.54372 0
M  V30 3658 H 351.04 1.12894 -1.574 0
M  V30 END ATOM
M  V30 BEGIN BOND
M  V30 END BOND
M  V30 END CTAB
M  END
$$$$
