drugbank_target|P33402 Guanylate cyclase soluble subunit alpha-2 (DB00435; DB01020; DB08931; DB09241; DB09282; DB13170)
 OpenBabel12092120343D

  0  0  0     0  0            999 V3000
M  V30 BEGIN CTAB
M  V30 COUNTS 11486 11603 0 0 0
M  V30 BEGIN ATOM
M  V30 1 H -0.908 1.98254 -0.117106 0
M  V30 2 N 0 1.576 0 0
M  V30 3 C 0.933 2.03868 1.02534 0
M  V30 4 C 1.911 0.928543 1.3348 0
M  V30 5 O 3.095 1.19667 1.45644 0
M  V30 6 C 0.222 2.43627 2.35294 0
M  V30 7 C -0.732 3.65373 2.2001 0
M  V30 8 S 0.101 5.13292 1.52614 0
M  V30 9 C 1.257 5.56322 2.86805 0
M  V30 10 H 1.49 2.90518 0.631377 0
M  V30 11 H -0.977 1.52953 0.210867 0
M  V30 12 H 0.981 2.67203 3.11629 0
M  V30 13 H -0.358 1.57376 2.7183 0
M  V30 14 H -1.165 3.90944 3.18086 0
M  V30 15 H -1.563 3.418 1.51819 0
M  V30 16 H 0.729 5.58782 3.83104 0
M  V30 17 H 1.672 6.56266 2.65933 0
M  V30 18 H 2.08 4.83886 2.90714 0
M  V30 19 N 1.4781 -0.272755 1.55222 0
M  V30 20 C 2.7031 -1.02683 1.80197 0
M  V30 21 C 3.1281 -1.79142 0.573551 0
M  V30 22 O 2.4861 -1.74917 -0.476849 0
M  V30 23 C 2.5341 -1.9609 3.02624 0
M  V30 24 O 1.6381 -3.04863 2.77727 0
M  V30 25 H 0.9791 -0.293557 0.595584 0
M  V30 26 H 3.5091 -0.30159 2.02365 0
M  V30 27 H 3.5191 -2.38039 3.31363 0
M  V30 28 H 2.1941 -1.39851 3.91682 0
M  V30 29 H 0.7711 -2.67228 2.60084 0
M  V30 30 N 2.9562 -1.48159 -0.537278 0
M  V30 31 C 4.3722 -1.34118 -0.865129 0
M  V30 32 C 4.5722 -0.346678 -1.98495 0
M  V30 33 O 3.6282 0.234715 -2.51407 0
M  V30 34 C 4.9412 -2.73963 -1.23954 0
M  V30 35 C 6.4892 -2.82397 -1.34984 0
M  V30 36 C 6.9642 -4.22928 -1.75772 0
M  V30 37 N 8.4552 -4.25566 -1.82887 0
M  V30 38 C 9.1902 -5.31235 -2.15817 0
M  V30 39 N 8.6862 -6.47189 -2.47222 0
M  V30 40 N 10.4792 -5.18624 -2.16761 0
M  V30 41 H 2.6302 -2.1144 0.201715 0
M  V30 42 H 4.8932 -0.947598 0.0275949 0
M  V30 43 H 4.5992 -3.48264 -0.490381 0
M  V30 44 H 4.4732 -3.0702 -2.19132 0
M  V30 45 H 6.8602 -2.08356 -2.08978 0
M  V30 46 H 6.9412 -2.5297 -0.379448 0
M  V30 47 H 6.5852 -4.97482 -1.02341 0
M  V30 48 H 6.5152 -4.49794 -2.73848 0
M  V30 49 H 9.0062 -3.41924 -1.60924 0
M  V30 50 H 9.3192 -7.23564 -2.71433 0
M  V30 51 H 7.6642 -6.50476 -2.44757 0
M  V30 52 H 10.8552 -4.27056 -1.91679 0
M  V30 53 H 11.0282 -6.01078 -2.42093 0
M  V30 54 N 4.4343 0.785586 -1.36625 0
M  V30 55 C 5.8503 1.08419 -1.17122 0
M  V30 56 C 6.0503 2.015 0.00208491 0
M  V30 57 O 5.1063 2.43551 0.666278 0
M  V30 58 C 6.4193 1.69498 -2.48377 0
M  V30 59 C 7.9673 1.81821 -2.54775 0
M  V30 60 C 8.4423 2.46315 -3.86126 0
M  V30 61 N 9.9333 2.53779 -3.87492 0
M  V30 62 C 10.6683 3.045 -4.85868 0
M  V30 63 N 10.1643 3.55499 -5.94637 0
M  V30 64 N 11.9573 3.03247 -4.73284 0
M  V30 65 H 4.1083 0.167264 -2.1174 0
M  V30 66 H 6.3713 0.13682 -0.938075 0
M  V30 67 H 6.0773 1.08571 -3.34522 0
M  V30 68 H 5.9513 2.6896 -2.64462 0
M  V30 69 H 8.3383 2.41884 -1.69045 0
M  V30 70 H 8.4193 0.811532 -2.42586 0
M  V30 71 H 8.0633 1.86895 -4.72263 0
M  V30 72 H 7.9933 3.47561 -3.95612 0
M  V30 73 H 10.4843 2.17672 -3.08913 0
M  V30 74 H 10.7973 3.92562 -6.65669 0
M  V30 75 H 9.1423 3.5364 -5.98301 0
M  V30 76 H 12.3333 2.62696 -3.87438 0
M  V30 77 H 12.5063 3.42467 -5.50109 0
M  V30 78 N 5.9124 1.20967 1.01018 0
M  V30 79 C 6.8594 0.964281 2.09691 0
M  V30 80 C 7.8294 -0.107853 1.65749 0
M  V30 81 O 9.0144 0.0381987 1.90762 0
M  V30 82 C 6.1544 0.52943 3.41015 0
M  V30 83 C 5.2674 1.67043 3.98398 0
M  V30 84 C 4.4024 1.18525 5.17808 0
M  V30 85 C 3.4414 2.29892 5.67288 0
M  V30 86 N 2.5784 1.82546 6.77954 0
M  V30 87 H 7.4184 1.89463 2.30017 0
M  V30 88 H 4.9554 0.944289 1.1279 0
M  V30 89 H 6.9134 0.258588 4.16398 0
M  V30 90 H 5.5434 -0.363919 3.20742 0
M  V30 91 H 4.5954 2.05603 3.20049 0
M  V30 92 H 5.9074 2.50877 4.31117 0
M  V30 93 H 5.0614 0.870762 6.00419 0
M  V30 94 H 3.8004 0.316887 4.86669 0
M  V30 95 H 2.8054 2.6215 4.83278 0
M  V30 96 H 4.0304 3.17216 6.00459 0
M  V30 97 H 1.9764 0.980454 6.48632 0
M  V30 98 H 1.8934 2.59956 7.09901 0
M  V30 99 H 3.1614 1.54115 7.64113 0
M  V30 100 N 7.3905 -1.2043 1.01659 0
M  V30 101 C 8.6395 -1.89118 0.701237 0
M  V30 102 C 8.9525 -1.79705 -0.772358 0
M  V30 103 O 10.1585 -2.43528 -1.20026 0
M  V30 104 C 8.6145 -3.39168 1.20388 0
M  V30 105 C 8.2225 -3.57166 2.70438 0
M  V30 106 C 9.9665 -4.1341 0.963953 0
M  V30 107 C 7.8735 -5.01042 3.14183 0
M  V30 108 H 6.8035 -0.708267 0.2586 0
M  V30 109 H 9.4545 -1.36239 1.22927 0
M  V30 110 H 7.8365 -3.91369 0.603824 0
M  V30 111 H 9.0105 -3.15351 3.35992 0
M  V30 112 H 7.3255 -2.96294 2.92572 0
M  V30 113 H 9.9225 -5.19491 1.26621 0
M  V30 114 H 10.2655 -4.16181 -0.099578 0
M  V30 115 H 10.7985 -3.67309 1.52738 0
M  V30 116 H 7.5375 -5.03426 4.19812 0
M  V30 117 H 7.0575 -5.43668 2.53348 0
M  V30 118 H 8.7365 -5.69623 3.0682 0
M  V30 119 N 8.8686 -0.792821 -1.36206 0
M  V30 120 C 10.0936 -0.377701 -2.03932 0
M  V30 121 C 10.5186 0.998947 -1.59382 0
M  V30 122 O 9.8766 1.64421 -0.763903 0
M  V30 123 C 9.9246 -0.453635 -3.57735 0
M  V30 124 O 9.0286 0.538151 -4.08874 0
M  V30 125 H 8.3696 -0.159855 -0.644471 0
M  V30 126 H 10.8996 -1.07488 -1.7409 0
M  V30 127 H 10.9096 -0.318464 -4.06755 0
M  V30 128 H 9.5846 -1.45784 -3.89512 0
M  V30 129 H 8.1616 0.364359 -3.71116 0
M  V30 130 N 10.3467 1.47872 -0.545128 0
M  V30 131 C 11.5717 2.07391 -0.0190611 0
M  V30 132 C 11.9967 1.39688 1.25971 0
M  V30 133 O 11.3547 0.467816 1.7516 0
M  V30 134 C 11.4027 3.60188 0.172335 0
M  V30 135 O 10.5067 3.9339 1.23766 0
M  V30 136 H 9.8477 0.662411 -0.0459059 0
M  V30 137 H 12.3777 1.90066 -0.757365 0
M  V30 138 H 12.3877 4.06129 0.390305 0
M  V30 139 H 11.0627 4.08865 -0.761725 0
M  V30 140 H 9.6397 3.5921 1.00114 0
M  V30 141 N 11.8248 0.280983 1.55075 0
M  V30 142 C 12.7348 -0.61388 2.26426 0
M  V30 143 C 13.7508 -1.16521 1.29224 0
M  V30 144 O 14.9268 -1.19426 1.62171 0
M  V30 145 C 11.9918 -1.7788 2.9759 0
M  V30 146 C 11.0528 -1.26355 4.10284 0
M  V30 147 C 10.2858 -2.37295 4.78045 0
M  V30 148 O 10.5088 -3.56777 4.45047 0
M  V30 149 O 9.4428 -2.05119 5.65871 0
M  V30 150 H 13.2688 -0.0356932 3.03679 0
M  V30 151 H 10.8538 0.0481686 1.49322 0
M  V30 152 H 12.7358 -2.45791 3.42293 0
M  V30 153 H 11.4108 -2.34397 2.23249 0
M  V30 154 H 10.3178 -0.550735 3.70024 0
M  V30 155 H 11.6508 -0.744065 4.86543 0
M  V30 156 N 13.3029 -1.57598 0.00835791 0
M  V30 157 C 14.5279 -1.95617 -0.689103 0
M  V30 158 C 14.9529 -0.883753 -1.66046 0
M  V30 159 O 14.3109 0.157352 -1.80616 0
M  V30 160 C 14.3589 -3.32736 -1.38994 0
M  V30 161 O 13.4629 -3.27631 -2.50463 0
M  V30 162 H 12.8039 -0.638379 -0.182668 0
M  V30 163 H 15.3339 -2.045 0.064036 0
M  V30 164 H 15.3439 -3.68494 -1.75147 0
M  V30 165 H 14.0189 -4.1034 -0.677778 0
M  V30 166 H 12.5959 -3.03561 -2.16576 0
M  V30 167 N 14.781 0.264519 -1.55364 0
M  V30 168 C 16.028 0.994986 -1.7637 0
M  V30 169 C 16.356 1.85976 -0.5695 0
M  V30 170 O 15.611 1.90509 0.44776 0
M  V30 171 C 15.91 1.9004 -3.02687 0
M  V30 172 C 15.576 1.19243 -4.34847 0
M  V30 173 C 14.238 0.996709 -4.70764 0
M  V30 174 C 16.59 0.689296 -5.16622 0
M  V30 175 C 13.918 0.285261 -5.86006 0
M  V30 176 C 16.27 -0.00860079 -6.32599 0
M  V30 177 C 14.934 -0.215963 -6.67151 0
M  V30 178 H 14.204 0.364091 -0.645383 0
M  V30 179 H 16.851 0.266543 -1.89636 0
M  V30 180 H 15.156 2.69533 -2.84357 0
M  V30 181 H 16.853 2.46695 -3.16137 0
M  V30 182 H 13.443 1.3549 -4.06621 0
M  V30 183 H 17.627 0.828108 -4.89342 0
M  V30 184 H 12.883 0.113961 -6.11294 0
M  V30 185 H 17.057 -0.406186 -6.95214 0
M  V30 186 H 14.684 -0.769217 -7.56298 0
M  V30 187 N 16.2591 1.48442 0.529413 0
M  V30 188 C 17.4841 1.60406 1.31471 0
M  V30 189 C 17.9091 0.264738 1.86228 0
M  V30 190 O 17.2671 -0.763668 1.64432 0
M  V30 191 C 17.3151 2.65419 2.44101 0
M  V30 192 O 16.4191 2.22618 3.47153 0
M  V30 193 H 15.7601 0.537863 0.389357 0
M  V30 194 H 18.2901 1.94432 0.636965 0
M  V30 195 H 18.3001 2.86709 2.90279 0
M  V30 196 H 16.9751 3.62652 2.03608 0
M  V30 197 H 15.5521 2.11543 3.0709 0
M  V30 198 N 17.7372 -0.778329 1.37039 0
M  V30 199 C 18.9622 -1.57248 1.35233 0
M  V30 200 C 19.3872 -1.87999 -0.0615568 0
M  V30 201 O 18.7452 -1.48734 -1.03672 0
M  V30 202 C 18.7932 -2.86353 2.19167 0
M  V30 203 O 17.8972 -3.80442 1.59178 0
M  V30 204 H 17.2382 -0.476569 0.462362 0
M  V30 205 H 19.7682 -0.963853 1.80474 0
M  V30 206 H 19.7782 -3.35519 2.32145 0
M  V30 207 H 18.4532 -2.63299 3.21942 0
M  V30 208 H 17.0302 -3.39067 1.55203 0
M  V30 209 N 19.2153 -1.21501 -1.00376 0
M  V30 210 C 20.1453 -0.999478 -2.11028 0
M  V30 211 C 21.1263 0.0759671 -1.6993 0
M  V30 212 O 22.3113 -0.0841106 -1.94018 0
M  V30 213 C 19.4413 -0.564709 -3.42678 0
M  V30 214 C 18.3953 -1.58486 -3.97576 0
M  V30 215 C 17.7213 -1.00628 -5.25146 0
M  V30 216 C 19.0213 -2.97204 -4.29496 0
M  V30 217 H 20.7153 -1.92495 -2.29317 0
M  V30 218 H 18.2613 -0.92693 -1.102 0
M  V30 219 H 20.2143 -0.401091 -4.19487 0
M  V30 220 H 18.9383 0.396411 -3.24185 0
M  V30 221 H 17.5973 -1.73606 -3.22888 0
M  V30 222 H 17.2453 -0.0368439 -5.02987 0
M  V30 223 H 16.9453 -1.68771 -5.62841 0
M  V30 224 H 18.4693 -0.854015 -6.04598 0
M  V30 225 H 19.8833 -2.8552 -4.97143 0
M  V30 226 H 18.2803 -3.62372 -4.78338 0
M  V30 227 H 19.3503 -3.47956 -3.3772 0
M  V30 228 N 20.6934 1.19889 -1.02296 0
M  V30 229 C 21.9414 1.89046 -0.714558 0
M  V30 230 C 22.2624 1.79636 0.758681 0
M  V30 231 O 21.5324 1.20292 1.54618 0
M  V30 232 H 20.1124 0.699802 -0.261317 0
M  V30 233 H 22.7744 1.45574 -1.29592 0
M  V30 234 H 21.8704 2.95524 -1.0036 0
M  V30 235 N 22.1715 0.800033 1.35784 0
M  V30 236 C 23.3965 0.388511 2.03729 0
M  V30 237 C 23.8215 -0.990481 1.5991 0
M  V30 238 O 23.1795 -1.64013 0.772612 0
M  V30 239 C 23.2275 0.4726 3.5749 0
M  V30 240 O 22.3315 -0.51646 4.09153 0
M  V30 241 H 21.6725 0.163271 0.643614 0
M  V30 242 H 24.2025 1.0841 1.73518 0
M  V30 243 H 24.2125 0.34003 4.06581 0
M  V30 244 H 22.8875 1.47848 3.88734 0
M  V30 245 H 21.4645 -0.344673 3.71304 0
M  V30 246 N 23.6496 -1.47581 0.552962 0
M  V30 247 C 24.9266 -1.95563 -0.0381515 0
M  V30 248 C 25.3066 -1.49552 -1.48988 0
M  V30 249 O 24.6546 -0.732414 -2.16444 0
M  V30 250 C 24.8646 -3.48848 0.102919 0
M  V30 251 C 26.2126 -4.24577 -0.0446082 0
M  V30 252 O 27.2366 -3.56187 0.0302548 0
M  V30 253 O 26.0956 -5.46116 -0.204923 0
M  V30 254 H 23.1896 -0.824321 -0.0665067 0
M  V30 255 H 25.7356 -1.58001 0.619186 0
M  V30 256 H 24.5076 -3.75129 1.11328 0
M  V30 257 H 24.1306 -3.93165 -0.592224 0
M  V30 258 N 25.1277 -0.289203 -1.54924 0
M  V30 259 C 26.3577 0.325989 -2.04012 0
M  V30 260 C 26.7657 1.48961 -1.1665 0
M  V30 261 O 26.1087 1.82794 -0.1822 0
M  V30 262 C 26.1707 0.856112 -3.49158 0
M  V30 263 C 25.8347 -0.180697 -4.56643 0
M  V30 264 C 26.8317 -1.0051 -5.10092 0
M  V30 265 C 24.5167 -0.318998 -5.01286 0
M  V30 266 C 26.5107 -1.95385 -6.06715 0
M  V30 267 C 24.1977 -1.27121 -5.97732 0
M  V30 268 C 25.1957 -2.08713 -6.50329 0
M  V30 269 O 24.8837 -3.02322 -7.44887 0
M  V30 270 H 24.6157 0.0765276 -0.671654 0
M  V30 271 H 27.1697 -0.423254 -2.00992 0
M  V30 272 H 25.3997 1.65567 -3.49463 0
M  V30 273 H 27.0887 1.38591 -3.81507 0
M  V30 274 H 27.8547 -0.90906 -4.76404 0
M  V30 275 H 23.7337 0.306108 -4.59983 0
M  V30 276 H 27.2777 -2.59111 -6.47694 0
M  V30 277 H 23.1747 -1.36801 -6.30837 0
M  V30 278 H 23.9427 -2.97165 -7.6265 0
M  V30 279 N 26.6058 1.57591 -0.0167156 0
M  V30 280 C 27.5358 2.12496 0.967858 0
M  V30 281 C 28.5168 1.03807 1.34752 0
M  V30 282 O 29.7018 1.31577 1.42833 0
M  V30 283 C 26.8318 2.64194 2.25431 0
M  V30 284 C 25.7858 3.77559 2.01576 0
M  V30 285 C 25.1118 4.15636 3.36379 0
M  V30 286 C 26.4118 5.04151 1.36489 0
M  V30 287 H 28.1058 2.95013 0.510643 0
M  V30 288 H 25.6518 1.41915 0.244181 0
M  V30 289 H 27.6048 3.01236 2.94678 0
M  V30 290 H 26.3288 1.78821 2.73296 0
M  V30 291 H 24.9878 3.40937 1.34751 0
M  V30 292 H 24.6358 3.27263 3.81979 0
M  V30 293 H 24.3358 4.92022 3.21229 0
M  V30 294 H 25.8598 4.5525 4.06915 0
M  V30 295 H 27.2738 5.38857 1.95718 0
M  V30 296 H 25.6708 5.85453 1.31776 0
M  V30 297 H 26.7408 4.83733 0.336219 0
M  V30 298 N 28.0839 -0.256276 1.55502 0
M  V30 299 C 28.9939 -1.33882 1.92647 0
M  V30 300 C 30.0099 -1.53159 0.825727 0
M  V30 301 O 31.1859 -1.66963 1.12629 0
M  V30 302 C 28.2509 -2.6751 2.20543 0
M  V30 303 C 27.3119 -2.56836 3.43997 0
M  V30 304 C 26.5449 -3.84092 3.70553 0
M  V30 305 O 26.7679 -4.85545 2.99336 0
M  V30 306 O 25.7019 -3.83288 4.64084 0
M  V30 307 H 29.5279 -1.05374 2.84833 0
M  V30 308 H 27.1129 -0.456237 1.42263 0
M  V30 309 H 28.9949 -3.46492 2.39835 0
M  V30 310 H 27.6699 -2.9577 1.31536 0
M  V30 311 H 26.5769 -1.76172 3.30021 0
M  V30 312 H 27.9099 -2.33523 4.33275 0
M  V30 313 N 29.562 -1.4872 -0.521534 0
M  V30 314 C 30.79 -1.60843 -1.30142 0
M  V30 315 C 31.205 -0.271897 -1.86832 0
M  V30 316 O 30.562 0.739969 -1.66825 0
M  V30 317 C 30.613 -2.66155 -2.4463 0
M  V30 318 O 30.334 -3.94623 -1.90275 0
M  V30 319 C 31.835 -2.88795 -3.36322 0
M  V30 320 H 29.055 -0.542075 -0.395468 0
M  V30 321 H 31.599 -1.94609 -0.628285 0
M  V30 322 H 29.754 -2.35224 -3.07812 0
M  V30 323 H 30.168 -4.52468 -2.65279 0
M  V30 324 H 31.642 -3.66264 -4.12983 0
M  V30 325 H 32.119 -1.97934 -3.9207 0
M  V30 326 H 32.725 -3.21063 -2.78924 0
M  V30 327 N 31.0401 0.771051 -1.3745 0
M  V30 328 C 32.2651 1.56529 -1.36065 0
M  V30 329 C 32.6901 1.88029 0.0515859 0
M  V30 330 O 32.0481 1.49282 1.02882 0
M  V30 331 C 32.0961 2.85187 -2.20683 0
M  V30 332 O 31.2001 3.79593 -1.61193 0
M  V30 333 H 30.5411 0.47411 -0.464883 0
M  V30 334 H 33.0711 0.954269 -1.80983 0
M  V30 335 H 33.0811 3.34283 -2.33921 0
M  V30 336 H 31.7561 2.61588 -3.23334 0
M  V30 337 H 30.3331 3.38239 -1.56999 0
M  V30 338 N 32.5182 1.22032 0.997298 0
M  V30 339 C 33.9292 1.0397 1.55071 0
M  V30 340 C 34.2802 -0.398192 1.92117 0
M  V30 341 O 33.4052 -1.28254 1.74298 0
M  V30 342 C 34.0002 1.88109 2.81781 0
M  V30 343 C 32.5592 1.74357 3.33581 0
M  V30 344 C 31.7062 1.84846 2.06706 0
M  V30 345 H 34.6572 1.35941 0.818883 0
M  V30 346 H 34.6782 1.39589 3.53971 0
M  V30 347 H 34.1902 2.92754 2.54787 0
M  V30 348 H 32.2912 0.72427 3.65493 0
M  V30 349 H 32.4042 2.56772 4.04481 0
M  V30 350 H 30.7682 1.28238 2.20062 0
M  V30 351 H 31.5512 2.91014 1.82114 0
M  V30 352 N 33.9963 -1.19345 1.0293 0
M  V30 353 C 34.9063 -2.26245 0.620515 0
M  V30 354 C 35.9223 -1.70486 -0.347928 0
M  V30 355 O 37.0983 -2.00347 -0.205704 0
M  V30 356 C 34.1633 -3.46693 -0.0218957 0
M  V30 357 C 33.2243 -4.17632 0.994102 0
M  V30 358 C 32.4573 -5.32329 0.382253 0
M  V30 359 O 32.6803 -5.64552 -0.814676 0
M  V30 360 O 31.6143 -5.91664 1.10531 0
M  V30 361 H 35.4403 -2.63453 1.51083 0
M  V30 362 H 33.0253 -1.26207 0.799513 0
M  V30 363 H 34.9073 -4.19683 -0.380072 0
M  V30 364 H 33.5823 -3.11333 -0.886209 0
M  V30 365 H 32.4893 -3.4676 1.40387 0
M  V30 366 H 33.8223 -4.56964 1.8288 0
M  V30 367 N 35.4744 -0.807222 -1.35358 0
M  V30 368 C 36.3844 -0.219594 -2.3357 0
M  V30 369 C 37.4004 0.637734 -1.61892 0
M  V30 370 O 38.5764 0.549336 -1.93763 0
M  V30 371 C 35.6414 0.62158 -3.41083 0
M  V30 372 C 34.7024 -0.256315 -4.28534 0
M  V30 373 C 33.9354 0.544807 -5.30912 0
M  V30 374 O 34.1584 1.77944 -5.41934 0
M  V30 375 O 33.0924 -0.0646478 -6.01865 0
M  V30 376 H 36.9184 -1.03208 -2.85625 0
M  V30 377 H 34.5034 -0.569025 -1.38139 0
M  V30 378 H 36.3854 1.10067 -4.06772 0
M  V30 379 H 35.0604 1.41165 -2.91297 0
M  V30 380 H 33.9674 -0.782559 -3.65823 0
M  V30 381 H 35.3004 -1.01034 -4.81719 0
M  V30 382 N 36.9525 1.47285 -0.560781 0
M  V30 383 C 37.8625 2.33846 0.187954 0
M  V30 384 C 38.8785 1.48412 0.908293 0
M  V30 385 O 40.0545 1.81332 0.876388 0
M  V30 386 C 37.1195 3.25178 1.2025 0
M  V30 387 C 36.1805 4.26504 0.489208 0
M  V30 388 C 35.4135 5.13472 1.45542 0
M  V30 389 O 35.6365 5.02959 2.6905 0
M  V30 390 O 34.5705 5.93902 0.977963 0
M  V30 391 H 38.3965 2.99177 -0.522177 0
M  V30 392 H 35.9815 1.45903 -0.321364 0
M  V30 393 H 37.8635 3.81584 1.78805 0
M  V30 394 H 36.5385 2.6247 1.89449 0
M  V30 395 H 35.4455 3.73847 -0.137627 0
M  V30 396 H 36.7785 4.91935 -0.161399 0
M  V30 397 N 38.4306 0.297415 1.54768 0
M  V30 398 C 39.6786 -0.312295 1.99673 0
M  V30 399 C 39.9996 -1.54686 1.18732 0
M  V30 400 O 39.2696 -1.93854 0.282382 0
M  V30 401 H 37.8496 -0.118381 0.73756 0
M  V30 402 H 40.5116 0.407915 1.90583 0
M  V30 403 H 39.6076 -0.586813 3.06534 0
M  V30 404 N 39.9087 -1.5758 0.0250728 0
M  V30 405 C 40.8187 -2.1343 -0.973905 0
M  V30 406 C 41.8347 -1.08556 -1.35984 0
M  V30 407 O 43.0107 -1.40592 -1.44207 0
M  V30 408 C 40.0757 -2.64703 -2.23904 0
M  V30 409 C 39.1367 -3.84276 -1.91391 0
M  V30 410 C 38.3697 -4.33095 -3.11873 0
M  V30 411 O 38.5927 -3.81107 -4.24398 0
M  V30 412 O 37.5267 -5.24984 -2.94406 0
M  V30 413 H 41.3527 -2.99057 -0.529036 0
M  V30 414 H 38.9377 -1.48118 -0.195288 0
M  V30 415 H 40.8197 -2.97769 -2.98181 0
M  V30 416 H 39.4947 -1.82161 -2.6758 0
M  V30 417 H 38.4017 -3.56143 -1.14511 0
M  V30 418 H 39.7347 -4.67968 -1.52534 0
M  V30 419 N 41.3868 0.248026 -1.55636 0
M  V30 420 C 42.6268 0.983592 -1.79178 0
M  V30 421 C 42.9908 1.82567 -0.594414 0
M  V30 422 O 44.1918 2.59292 -0.708583 0
M  V30 423 C 42.4628 1.82228 -3.07454 0
M  V30 424 S 44.0218 2.61709 -3.52213 0
M  V30 425 H 40.8398 0.330866 -0.629324 0
M  V30 426 H 43.4418 0.251562 -1.93875 0
M  V30 427 H 42.1458 1.19333 -3.92668 0
M  V30 428 H 41.6768 2.59708 -2.95492 0
M  V30 429 H 43.6918 3.84655 -3.13457 0
M  V30 430 N 42.8649 1.48995 0.513639 0
M  V30 431 C 44.2759 1.5119 1.09537 0
M  V30 432 C 44.6269 0.290906 1.94031 0
M  V30 433 O 43.7519 -0.60049 2.07902 0
M  V30 434 C 44.3469 2.73964 1.99322 0
M  V30 435 C 42.9059 2.78978 2.52682 0
M  V30 436 C 42.0529 2.44934 1.30009 0
M  V30 437 H 45.0039 1.55875 0.298125 0
M  V30 438 H 45.0249 2.53409 2.83838 0
M  V30 439 H 44.5369 3.62813 1.37799 0
M  V30 440 H 42.6379 1.94378 3.1788 0
M  V30 441 H 42.7509 3.8083 2.90698 0
M  V30 442 H 41.1149 1.9644 1.62122 0
M  V30 443 H 41.8979 3.36043 0.702131 0
M  V30 444 N 44.343 -0.763751 1.37857 0
M  V30 445 C 45.273 -1.89103 1.36975 0
M  V30 446 C 46.254 -1.68439 0.237152 0
M  V30 447 O 47.439 -1.8918 0.438713 0
M  V30 448 C 44.569 -3.26496 1.18395 0
M  V30 449 C 43.523 -3.61741 2.28751 0
M  V30 450 C 42.849 -4.97762 1.95286 0
M  V30 451 C 44.149 -3.67665 3.70972 0
M  V30 452 H 45.843 -1.90099 2.31307 0
M  V30 453 H 43.389 -0.91319 1.11341 0
M  V30 454 H 45.342 -4.05003 1.16406 0
M  V30 455 H 44.066 -3.25955 0.205215 0
M  V30 456 H 42.725 -2.85547 2.29909 0
M  V30 457 H 42.373 -4.93769 0.959221 0
M  V30 458 H 42.073 -5.22313 2.69189 0
M  V30 459 H 43.597 -5.7866 1.94898 0
M  V30 460 H 45.011 -4.36307 3.719 0
M  V30 461 H 43.408 -4.03718 4.43995 0
M  V30 462 H 44.478 -2.68134 4.0402 0
M  V30 463 N 45.8211 -1.22559 -0.990812 0
M  V30 464 C 47.0461 -1.07862 -1.77145 0
M  V30 465 C 47.4711 0.366447 -1.84496 0
M  V30 466 O 46.8291 1.26478 -1.29896 0
M  V30 467 C 46.8771 -1.69686 -3.18181 0
M  V30 468 O 45.9811 -0.951946 -4.01263 0
M  V30 469 H 45.3221 -0.378712 -0.545411 0
M  V30 470 H 47.8521 -1.62399 -1.2445 0
M  V30 471 H 47.8621 -1.74496 -3.68802 0
M  V30 472 H 46.5371 -2.74841 -3.12146 0
M  V30 473 H 45.1141 -0.980011 -3.59792 0
M  V30 474 N 47.2992 1.18797 -1.03562 0
M  V30 475 C 48.7152 1.40671 -0.753917 0
M  V30 476 C 48.9152 1.9043 0.658686 0
M  V30 477 O 47.9712 2.08538 1.42366 0
M  V30 478 C 49.2842 2.41192 -1.79574 0
M  V30 479 C 50.8322 2.54928 -1.81606 0
M  V30 480 C 51.3072 3.58709 -2.84766 0
M  V30 481 N 52.7982 3.66212 -2.83625 0
M  V30 482 C 53.5332 4.46225 -3.60098 0
M  V30 483 N 53.0292 5.29888 -4.46308 0
M  V30 484 N 54.8222 4.40939 -3.4861 0
M  V30 485 H 46.9732 0.848221 -1.94728 0
M  V30 486 H 49.2362 0.435081 -0.842264 0
M  V30 487 H 48.9422 2.11669 -2.80872 0
M  V30 488 H 48.8162 3.40467 -1.62365 0
M  V30 489 H 51.2032 2.83771 -0.809817 0
M  V30 490 H 51.2842 1.55784 -2.02891 0
M  V30 491 H 50.9282 3.30607 -3.85566 0
M  V30 492 H 50.8582 4.57519 -2.60737 0
M  V30 493 H 53.3492 3.06466 -2.21105 0
M  V30 494 H 53.6622 5.88078 -5.01382 0
M  V30 495 H 52.0072 5.29326 -4.50377 0
M  V30 496 H 55.1982 3.74624 -2.80668 0
M  V30 497 H 55.3712 5.03056 -4.08459 0
M  V30 498 N 48.7773 0.814389 1.34928 0
M  V30 499 C 49.7073 0.244827 2.32213 0
M  V30 500 C 50.6883 -0.634024 1.57842 0
M  V30 501 O 51.8733 -0.562676 1.8587 0
M  V30 502 C 49.0033 -0.601106 3.42058 0
M  V30 503 C 47.9573 0.179896 4.27622 0
M  V30 504 C 47.2833 -0.788237 5.28858 0
M  V30 505 C 48.5833 1.38329 5.03649 0
M  V30 506 H 50.2773 1.05763 2.80097 0
M  V30 507 H 47.8233 0.510029 1.34665 0
M  V30 508 H 49.7763 -1.00968 4.09125 0
M  V30 509 H 48.5003 -1.44688 2.92802 0
M  V30 510 H 47.1593 0.569739 3.62146 0
M  V30 511 H 46.8073 -1.62973 4.75866 0
M  V30 512 H 46.5073 -0.269942 5.8698 0
M  V30 513 H 48.0313 -1.19485 5.98795 0
M  V30 514 H 49.4453 1.04918 5.63618 0
M  V30 515 H 47.8423 1.83662 5.71304 0
M  V30 516 H 48.9123 2.16592 4.33839 0
M  V30 517 N 50.2554 -1.46986 0.568584 0
M  V30 518 C 51.4954 -2.04336 0.0512999 0
M  V30 519 C 51.8594 -1.43214 -1.27881 0
M  V30 520 O 53.0604 -1.91679 -1.88448 0
M  V30 521 C 51.3314 -3.57389 -0.0282328 0
M  V30 522 S 52.8904 -4.36056 -0.489991 0
M  V30 523 H 49.7084 -0.71034 0.0306349 0
M  V30 524 H 52.3104 -1.80212 0.757891 0
M  V30 525 H 51.0144 -3.99395 0.944011 0
M  V30 526 H 50.5454 -3.86028 -0.75803 0
M  V30 527 H 52.5604 -4.6441 -1.74752 0
M  V30 528 N 51.7335 -0.305618 -1.54608 0
M  V30 529 C 52.9795 0.295595 -2.01241 0
M  V30 530 C 53.3345 1.51171 -1.19018 0
M  V30 531 O 52.6275 1.89832 -0.259684 0
M  V30 532 C 52.8215 0.698983 -3.50498 0
M  V30 533 C 52.6505 -0.476491 -4.47168 0
M  V30 534 C 51.4205 -0.969963 -4.95903 0
M  V30 535 C 53.6185 -1.32294 -4.96994 0
M  V30 536 N 51.6005 -2.11172 -5.76437 0
M  V30 537 C 52.9715 -2.31212 -5.75275 0
M  V30 538 C 55.0265 -1.35278 -4.7917 0
M  V30 539 C 53.7295 -3.32896 -6.37631 0
M  V30 540 C 55.7555 -2.35823 -5.42348 0
M  V30 541 C 55.1175 -3.33469 -6.20466 0
M  V30 542 H 51.2165 0.0724992 -0.778632 0
M  V30 543 H 53.8005 -0.436583 -1.89742 0
M  V30 544 H 51.9715 1.40032 -3.62278 0
M  V30 545 H 53.7035 1.28013 -3.8392 0
M  V30 546 H 50.4585 -0.544178 -4.70463 0
M  V30 547 H 50.8825 -2.68714 -6.21387 0
M  V30 548 H 55.5245 -0.61157 -4.18354 0
M  V30 549 H 53.2425 -4.07933 -6.97579 0
M  V30 550 H 56.8285 -2.38911 -5.30484 0
M  V30 551 H 55.7085 -4.09996 -6.68485 0
M  V30 552 N 53.2116 1.57565 -0.0334293 0
M  V30 553 C 54.1596 2.1164 0.96496 0
M  V30 554 C 55.1536 1.04398 1.33407 0
M  V30 555 O 56.3596 1.22828 1.3158 0
M  V30 556 H 52.7346 0.676222 0.32898 0
M  V30 557 H 54.7056 2.94455 0.483614 0
M  V30 558 C 53.4546 2.66207 2.23672 0
M  V30 559 H 52.7776 3.48378 1.96145 0
M  V30 560 H 54.2176 3.07685 2.9173 0
M  V30 561 C 52.6766 1.59151 2.96939 0
M  V30 562 O 53.2066 0.993858 3.89211 0
M  V30 563 N 51.4126 1.31093 2.59351 0
M  V30 564 H 50.9596 1.7988 1.84393 0
M  V30 565 H 50.9176 0.596889 3.08682 0
M  V30 566 N 54.6897 -0.239769 1.55765 0
M  V30 567 C 55.9377 -0.964892 1.77579 0
M  V30 568 C 56.2587 -1.85582 0.598699 0
M  V30 569 O 55.5287 -1.92075 -0.385226 0
M  V30 570 H 54.1087 -0.359265 0.654933 0
M  V30 571 H 56.7707 -0.256001 1.93211 0
M  V30 572 H 55.8667 -1.58243 2.69009 0
M  V30 573 N 56.1678 -1.49265 -0.50573 0
M  V30 574 C 57.3928 -1.62478 -1.28902 0
M  V30 575 C 57.8178 -0.294332 -1.85783 0
M  V30 576 O 57.1758 0.737412 -1.65626 0
M  V30 577 C 57.2238 -2.69268 -2.39848 0
M  V30 578 O 56.3278 -2.28113 -3.43567 0
M  V30 579 H 55.6688 -0.54399 -0.380751 0
M  V30 580 H 58.1988 -1.95421 -0.605952 0
M  V30 581 H 58.2088 -2.91291 -2.85681 0
M  V30 582 H 56.8838 -3.65846 -1.97812 0
M  V30 583 H 55.4608 -2.16401 -3.03685 0
M  V30 584 N 57.6459 0.756429 -1.3826 0
M  V30 585 C 59.0619 1.0591 -1.19395 0
M  V30 586 C 59.2619 2.01459 -0.0406567 0
M  V30 587 O 58.3179 2.44909 0.614467 0
M  V30 588 C 59.6309 1.64191 -2.51916 0
M  V30 589 C 61.1789 1.76376 -2.58574 0
M  V30 590 C 61.6539 2.38069 -3.91264 0
M  V30 591 N 63.1449 2.45503 -3.92788 0
M  V30 592 C 63.8799 2.94126 -4.92217 0
M  V30 593 N 63.3759 3.42805 -6.02043 0
M  V30 594 N 65.1689 2.9314 -4.7961 0
M  V30 595 H 57.3199 0.122313 -2.12048 0
M  V30 596 H 59.5829 0.116892 -0.940766 0
M  V30 597 H 59.2889 1.01451 -3.3675 0
M  V30 598 H 59.1629 2.6329 -2.70108 0
M  V30 599 H 61.5499 2.38244 -1.74137 0
M  V30 600 H 61.6309 0.759894 -2.44252 0
M  V30 601 H 61.2749 1.76835 -4.76121 0
M  V30 602 H 61.2049 3.39091 -4.02895 0
M  V30 603 H 63.6959 2.1107 -3.13461 0
M  V30 604 H 64.0089 3.78354 -6.73846 0
M  V30 605 H 62.3539 3.4087 -6.05667 0
M  V30 606 H 65.5449 2.54419 -3.92923 0
M  V30 607 H 65.7179 3.30721 -5.5725 0
M  V30 608 N 59.124 1.23083 0.984299 0
M  V30 609 C 60.349 1.088 1.76571 0
M  V30 610 C 60.774 -0.356657 1.84688 0
M  V30 611 O 60.132 -1.25788 1.30565 0
M  V30 612 C 60.18 1.71371 3.17277 0
M  V30 613 O 59.284 0.973213 4.00752 0
M  V30 614 H 58.625 0.381599 0.543395 0
M  V30 615 H 61.155 1.63057 1.23587 0
M  V30 616 H 61.165 1.76449 3.67872 0
M  V30 617 H 59.84 2.76493 3.10684 0
M  V30 618 H 58.417 0.999078 3.59267 0
M  V30 619 N 60.6021 -1.18246 1.0419 0
M  V30 620 C 62.0131 -1.69914 0.773698 0
M  V30 621 C 62.3641 -1.83085 -0.705297 0
M  V30 622 O 61.4891 -1.51123 -1.5489 0
M  V30 623 C 62.0841 -3.08619 1.39784 0
M  V30 624 C 60.6431 -3.57494 1.17792 0
M  V30 625 C 59.7901 -2.34013 1.48773 0
M  V30 626 H 62.7411 -1.02904 1.20816 0
M  V30 627 H 62.7621 -3.71958 0.801714 0
M  V30 628 H 62.2741 -2.99001 2.47426 0
M  V30 629 H 60.3751 -3.72406 0.120295 0
M  V30 630 H 60.4881 -4.40852 1.87581 0
M  V30 631 H 58.8521 -2.37986 0.907463 0
M  V30 632 H 59.6351 -2.27013 2.57527 0
M  V30 633 N 62.0802 -0.821533 -1.34494 0
M  V30 634 C 63.4912 -0.467956 -1.8074 0
M  V30 635 C 63.8422 1.01151 -1.68116 0
M  V30 636 O 62.9672 1.78707 -1.22036 0
M  V30 637 C 63.5622 -0.842627 -3.28154 0
M  V30 638 C 62.1212 -0.541439 -3.72485 0
M  V30 639 C 61.2682 -1.06028 -2.56229 0
M  V30 640 H 64.2192 -1.01183 -1.22261 0
M  V30 641 H 64.2402 -0.145876 -3.8022 0
M  V30 642 H 63.7522 -1.91945 -3.37311 0
M  V30 643 H 61.8532 0.526034 -3.68868 0
M  V30 644 H 61.9662 -1.08453 -4.66663 0
M  V30 645 H 60.3302 -0.481892 -2.501 0
M  V30 646 H 61.1132 -2.14352 -2.68157 0
M  V30 647 N 63.5583 1.46682 -0.576371 0
M  V30 648 C 64.8063 2.02013 -0.0594163 0
M  V30 649 C 65.1273 1.45101 1.30271 0
M  V30 650 O 64.3973 0.633317 1.8538 0
M  V30 651 H 62.9773 0.746759 -0.0189745 0
M  V30 652 H 65.6393 1.79862 -0.750717 0
M  V30 653 H 64.7353 3.12097 0.014345 0
M  V30 654 N 65.0364 0.313813 1.54444 0
M  V30 655 C 66.4474 -0.176243 1.85866 0
M  V30 656 C 66.7984 -1.52405 1.23561 0
M  V30 657 O 65.9234 -2.09605 0.538016 0
M  V30 658 C 66.5184 -0.32657 3.37222 0
M  V30 659 C 65.0774 -0.760846 3.6863 0
M  V30 660 C 64.2244 0.123247 2.77026 0
M  V30 661 H 67.1754 0.534418 1.49431 0
M  V30 662 H 67.1964 -1.15908 3.62416 0
M  V30 663 H 66.7084 0.654531 3.82541 0
M  V30 664 H 64.8094 -1.75204 3.28838 0
M  V30 665 H 64.9224 -0.571353 4.75681 0
M  V30 666 H 63.2864 -0.399597 2.51546 0
M  V30 667 H 64.0694 1.10094 3.25168 0
M  V30 668 N 66.5145 -1.57545 0.0417849 0
M  V30 669 C 67.4445 -2.14009 -0.933929 0
M  V30 670 C 68.4255 -1.05938 -1.33083 0
M  V30 671 O 69.6105 -1.33833 -1.40721 0
M  V30 672 C 66.7405 -2.67747 -2.21199 0
M  V30 673 C 65.6945 -3.80718 -1.95544 0
M  V30 674 C 65.0205 -4.20935 -3.29724 0
M  V30 675 C 66.3205 -5.06258 -1.28452 0
M  V30 676 H 68.0145 -2.95788 -0.463645 0
M  V30 677 H 65.5605 -1.42285 -0.221573 0
M  V30 678 H 67.5135 -3.05886 -2.89848 0
M  V30 679 H 66.2375 -1.83147 -2.70416 0
M  V30 680 H 64.8965 -3.43037 -1.2931 0
M  V30 681 H 64.5445 -3.33298 -3.76724 0
M  V30 682 H 64.2445 -4.9707 -3.13361 0
M  V30 683 H 65.7685 -4.61666 -3.9962 0
M  V30 684 H 67.1825 -5.41903 -1.8712 0
M  V30 685 H 65.5795 -5.87475 -1.22445 0
M  V30 686 H 66.6495 -4.84207 -0.259219 0
M  V30 687 N 67.9926 0.231505 -1.5589 0
M  V30 688 C 68.9026 1.308 -1.94752 0
M  V30 689 C 69.9186 1.51826 -0.849989 0
M  V30 690 O 71.0946 1.6515 -1.15271 0
M  V30 691 C 68.1596 2.63968 -2.24771 0
M  V30 692 C 67.2206 2.51331 -3.48039 0
M  V30 693 C 66.4536 3.78148 -3.76616 0
M  V30 694 O 66.6766 4.80722 -3.07022 0
M  V30 695 O 65.6106 3.75857 -4.70123 0
M  V30 696 H 69.4366 1.0083 -2.86474 0
M  V30 697 H 67.0216 0.433547 -1.42971 0
M  V30 698 H 68.9036 3.42633 -2.45318 0
M  V30 699 H 67.5786 2.9364 -1.36225 0
M  V30 700 H 66.4856 1.709 -3.32782 0
M  V30 701 H 67.8186 2.26601 -4.36936 0
M  V30 702 N 69.4707 1.49531 0.497807 0
M  V30 703 C 70.8817 1.52344 1.07927 0
M  V30 704 C 71.2327 0.311469 1.93712 0
M  V30 705 O 70.3577 -0.578405 2.08527 0
M  V30 706 C 70.9527 2.76062 1.96405 0
M  V30 707 C 69.5117 2.81643 2.49709 0
M  V30 708 C 68.6587 2.46299 1.27404 0
M  V30 709 H 71.6097 1.56182 0.281576 0
M  V30 710 H 71.6307 2.56405 2.81135 0
M  V30 711 H 71.1427 3.64254 1.33943 0
M  V30 712 H 69.2437 1.97739 3.15801 0
M  V30 713 H 69.3567 3.83891 2.86643 0
M  V30 714 H 67.7207 1.98148 1.60029 0
M  V30 715 H 68.5037 3.36769 0.66645 0
M  V30 716 N 70.9488 -0.749086 1.3866 0
M  V30 717 C 72.1738 -1.54344 1.38538 0
M  V30 718 C 72.5988 -1.88088 -0.0216655 0
M  V30 719 O 71.9568 -1.50899 -1.00494 0
M  V30 720 C 72.0048 -2.8164 2.25192 0
M  V30 721 O 71.1088 -3.7698 1.67212 0
M  V30 722 H 70.4498 -0.466654 0.472367 0
M  V30 723 H 72.9798 -0.925355 1.82478 0
M  V30 724 H 72.9898 -3.30519 2.3921 0
M  V30 725 H 71.6648 -2.56411 3.27454 0
M  V30 726 H 70.2418 -3.35699 1.6236 0
M  V30 727 N 72.4269 -1.23603 -0.977757 0
M  V30 728 C 73.8379 -1.06424 -1.53398 0
M  V30 729 C 74.1889 0.367578 -1.92726 0
M  V30 730 O 73.3139 1.25465 -1.76316 0
M  V30 731 C 73.9089 -1.92568 -2.78753 0
M  V30 732 C 72.4679 -1.79642 -3.30765 0
M  V30 733 C 71.6149 -1.88111 -2.03739 0
M  V30 734 H 74.5659 -1.37227 -0.797152 0
M  V30 735 H 74.5869 -1.45203 -3.51705 0
M  V30 736 H 74.0989 -2.96771 -2.50098 0
M  V30 737 H 72.1999 -0.782325 -3.64294 0
M  V30 738 H 72.3129 -2.63174 -4.00345 0
M  V30 739 H 70.6769 -1.31723 -2.17994 0
M  V30 740 H 71.4599 -2.93875 -1.77461 0
M  V30 741 N 73.905 1.17692 -1.04816 0
M  V30 742 C 74.868 2.19787 -0.650117 0
M  V30 743 C 75.868 1.58044 0.296427 0
M  V30 744 O 77.058 1.74012 0.0808097 0
M  V30 745 C 74.19 3.40869 0.0456987 0
M  V30 746 H 75.383 2.56516 -1.5537 0
M  V30 747 H 72.936 1.31708 -0.841594 0
M  V30 748 H 73.671 3.09681 0.962726 0
M  V30 749 H 73.456 3.86928 -0.634727 0
M  V30 750 H 74.946 4.16445 0.310432 0
M  V30 751 N 75.3831 0.828654 1.34056 0
M  V30 752 C 76.3461 0.259927 2.27721 0
M  V30 753 C 77.3461 -0.565478 1.50529 0
M  V30 754 O 78.5361 -0.38075 1.69988 0
M  V30 755 C 75.6681 -0.634944 3.34935 0
M  V30 756 H 76.8611 1.0863 2.79534 0
M  V30 757 H 74.4141 0.600951 1.44285 0
M  V30 758 H 75.1491 -1.48416 2.88346 0
M  V30 759 H 74.9341 -0.0444999 3.92075 0
M  V30 760 H 76.4241 -1.02648 4.04788 0
M  V30 761 N 76.8612 -1.46375 0.584142 0
M  V30 762 C 77.8242 -2.28784 -0.138108 0
M  V30 763 C 78.8242 -1.38471 -0.817462 0
M  V30 764 O 80.0142 -1.60833 -0.669199 0
M  V30 765 C 77.1462 -3.18892 -1.20503 0
M  V30 766 H 78.3392 -2.94117 0.586127 0
M  V30 767 H 75.8922 -1.52509 0.342171 0
M  V30 768 H 76.6272 -2.58309 -1.96079 0
M  V30 769 H 76.4122 -3.85388 -0.722384 0
M  V30 770 H 77.9022 -3.80914 -1.71155 0
M  V30 771 N 78.3393 -0.321999 -1.54275 0
M  V30 772 C 79.3023 0.531975 -2.22941 0
M  V30 773 C 80.3023 1.04478 -1.22234 0
M  V30 774 O 81.4923 0.937452 -1.46825 0
M  V30 775 C 78.6243 1.73874 -2.93224 0
M  V30 776 H 79.8173 -0.0682612 -2.99822 0
M  V30 777 H 77.3703 -0.0730644 -1.56129 0
M  V30 778 H 78.1053 2.37825 -2.20476 0
M  V30 779 H 77.8903 1.37847 -3.6707 0
M  V30 780 H 79.3803 2.34496 -3.45545 0
M  V30 781 N 79.8174 1.5752 -0.0501392 0
M  V30 782 C 80.7804 2.1037 0.909786 0
M  V30 783 C 81.7804 1.02308 1.24056 0
M  V30 784 O 82.9704 1.28385 1.17741 0
M  V30 785 C 80.1024 2.58708 2.21998 0
M  V30 786 H 81.2954 2.96479 0.451665 0
M  V30 787 H 78.8484 1.55038 0.198248 0
M  V30 788 H 79.5834 1.75989 2.72394 0
M  V30 789 H 79.3684 3.37675 1.99295 0
M  V30 790 H 80.8584 2.99747 2.9076 0
M  V30 791 N 81.2955 -0.223234 1.56011 0
M  V30 792 C 82.2585 -1.26014 1.9145 0
M  V30 793 C 83.2585 -1.3989 0.792937 0
M  V30 794 O 84.4485 -1.38184 1.0607 0
M  V30 795 C 81.5805 -2.63422 2.16383 0
M  V30 796 H 82.7735 -0.95796 2.84189 0
M  V30 797 H 80.3265 -0.463576 1.49267 0
M  V30 798 H 81.0615 -2.98741 1.2619 0
M  V30 799 H 80.8465 -2.54728 2.98088 0
M  V30 800 H 82.3365 -3.38249 2.44903 0
M  V30 801 N 82.7736 -1.49793 -0.48987 0
M  V30 802 C 83.7366 -1.66752 -1.57246 0
M  V30 803 C 84.7366 -0.538867 -1.51502 0
M  V30 804 O 85.9266 -0.805545 -1.54456 0
M  V30 805 C 83.0586 -1.67528 -2.96896 0
M  V30 806 H 84.2516 -2.63321 -1.43534 0
M  V30 807 H 81.8046 -1.38992 -0.714914 0
M  V30 808 H 82.5396 -0.725837 -3.16073 0
M  V30 809 H 82.3246 -2.49504 -3.02473 0
M  V30 810 H 83.8146 -1.82667 -3.7553 0
M  V30 811 N 84.2517 0.741722 -1.39055 0
M  V30 812 C 85.2147 1.83733 -1.37021 0
M  V30 813 C 86.2147 1.58542 -0.268534 0
M  V30 814 O 87.4047 1.66067 -0.526076 0
M  V30 815 C 84.5367 3.2141 -1.13617 0
M  V30 816 H 85.7297 1.86941 -2.34506 0
M  V30 817 H 83.2827 0.944676 -1.24521 0
M  V30 818 H 84.0177 3.23865 -0.167863 0
M  V30 819 H 83.8027 3.4109 -1.93391 0
M  V30 820 H 85.2927 4.01477 -1.14918 0
M  V30 821 N 85.7298 1.2412 0.971189 0
M  V30 822 C 87.1408 1.07236 1.52831 0
M  V30 823 C 87.4918 -0.357352 1.92918 0
M  V30 824 O 86.6168 -1.24528 1.76979 0
M  V30 825 C 87.2118 1.94043 2.77728 0
M  V30 826 C 85.7708 1.81394 3.29808 0
M  V30 827 C 84.9178 1.89189 2.02738 0
M  V30 828 H 87.8688 1.37648 0.789864 0
M  V30 829 H 87.8898 1.47066 3.5093 0
M  V30 830 H 87.4018 2.98093 2.4852 0
M  V30 831 H 85.5028 0.801634 3.63874 0
M  V30 832 H 85.6158 2.65294 3.98944 0
M  V30 833 H 83.9798 1.32877 2.17292 0
M  V30 834 H 84.7628 2.94812 1.759 0
M  V30 835 N 87.2079 -1.17134 1.05439 0
M  V30 836 C 88.1709 -2.19439 0.661764 0
M  V30 837 C 89.1709 -1.58199 -0.288042 0
M  V30 838 O 90.3609 -1.74053 -0.0715803 0
M  V30 839 C 87.4929 -3.40889 -0.0276209 0
M  V30 840 H 88.6859 -2.55688 1.56728 0
M  V30 841 H 86.2389 -1.31259 0.848567 0
M  V30 842 H 86.9739 -3.10187 -0.94629 0
M  V30 843 H 86.7589 -3.86586 0.655238 0
M  V30 844 H 88.2489 -4.16603 -0.288342 0
M  V30 845 N 88.686 -0.835752 -1.33615 0
M  V30 846 C 90.097 -0.487099 -1.80234 0
M  V30 847 C 90.448 0.993627 -1.69179 0
M  V30 848 O 89.573 1.77403 -1.23924 0
M  V30 849 C 90.168 -0.877385 -3.27242 0
M  V30 850 C 88.727 -0.580915 -3.7189 0
M  V30 851 C 87.874 -1.0874 -2.5509 0
M  V30 852 H 90.825 -1.02474 -1.2118 0
M  V30 853 H 90.846 -0.186195 -3.80044 0
M  V30 854 H 90.358 -1.95512 -3.35256 0
M  V30 855 H 88.459 0.486881 -3.69405 0
M  V30 856 H 88.572 -1.13396 -4.65487 0
M  V30 857 H 86.936 -0.508392 -2.49575 0
M  V30 858 H 87.719 -2.17184 -2.65868 0
M  V30 859 N 90.1641 1.46063 -0.591896 0
M  V30 860 C 91.3921 2.06717 -0.0868936 0
M  V30 861 C 91.8071 1.43916 1.22203 0
M  V30 862 O 91.1641 0.547698 1.74088 0
M  V30 863 C 91.2151 3.6142 0.0758725 0
M  V30 864 O 90.9361 4.21874 -1.18126 0
M  V30 865 C 92.4371 4.39025 0.61416 0
M  V30 866 H 89.6571 0.668162 -0.0616518 0
M  V30 867 H 92.2011 1.8755 -0.815175 0
M  V30 868 H 90.3561 3.79983 0.754413 0
M  V30 869 H 90.7701 5.14861 -1.00092 0
M  V30 870 H 92.2441 5.4783 0.677193 0
M  V30 871 H 92.7211 4.07708 1.63312 0
M  V30 872 H 93.3271 4.2529 -0.0298142 0
M  V30 873 N 91.6422 0.330177 1.54103 0
M  V30 874 C 93.0532 -0.15652 1.86043 0
M  V30 875 C 93.4042 -1.51086 1.2517 0
M  V30 876 O 92.5292 -2.09023 0.560217 0
M  V30 877 C 93.1242 -0.290784 3.3755 0
M  V30 878 C 91.6832 -0.721705 3.69416 0
M  V30 879 C 90.8302 0.152622 2.7688 0
M  V30 880 H 93.7812 0.550237 1.48856 0
M  V30 881 H 93.8022 -1.12058 3.63625 0
M  V30 882 H 93.3142 0.695068 3.81825 0
M  V30 883 H 91.4152 -1.71706 3.30678 0
M  V30 884 H 91.5282 -0.520869 4.7626 0
M  V30 885 H 89.8922 -0.372894 2.51956 0
M  V30 886 H 90.6752 1.13536 3.23982 0
M  V30 887 N 93.1203 -1.57491 0.0584922 0
M  V30 888 C 94.0833 -2.1085 -0.898617 0
M  V30 889 C 95.0833 -1.02964 -1.23511 0
M  V30 890 O 96.2733 -1.29007 -1.17059 0
M  V30 891 C 93.4053 -2.59881 -2.20623 0
M  V30 892 H 94.5983 -2.96715 -0.435936 0
M  V30 893 H 92.1513 -1.55141 -0.190023 0
M  V30 894 H 92.8863 -1.77431 -2.71457 0
M  V30 895 H 92.6713 -3.38727 -1.97501 0
M  V30 896 H 94.1613 -3.01285 -2.89166 0
M  V30 897 N 94.5984 0.214957 -1.56127 0
M  V30 898 C 95.5614 1.24997 -1.92116 0
M  V30 899 C 96.5614 1.39467 -0.800344 0
M  V30 900 O 97.7514 1.37619 -1.06802 0
M  V30 901 C 94.8834 2.62271 -2.17777 0
M  V30 902 H 96.0764 0.942875 -2.84693 0
M  V30 903 H 93.6294 0.455654 -1.49511 0
M  V30 904 H 94.3644 2.98068 -1.27773 0
M  V30 905 H 94.1494 2.53143 -2.99434 0
M  V30 906 H 95.6394 3.36946 -2.46693 0
M  V30 907 N 96.0765 1.50051 0.48192 0
M  V30 908 C 97.3015 1.64508 1.26301 0
M  V30 909 C 97.7265 0.323851 1.85291 0
M  V30 910 O 97.0845 -0.710969 1.66778 0
M  V30 911 C 97.1325 2.7305 2.35533 0
M  V30 912 O 96.2365 2.3355 3.39895 0
M  V30 913 H 95.5775 0.549978 0.372048 0
M  V30 914 H 98.1075 1.9636 0.574786 0
M  V30 915 H 98.1175 2.95799 2.8101 0
M  V30 916 H 96.7925 3.68946 1.91967 0
M  V30 917 H 95.3695 2.21205 3.00204 0
M  V30 918 N 97.5546 -0.734337 1.39446 0
M  V30 919 C 98.5176 -1.83004 1.37994 0
M  V30 920 C 99.5176 -1.58397 0.276938 0
M  V30 921 O 100.708 -1.65785 0.534875 0
M  V30 922 C 97.8396 -3.20802 1.1532 0
M  V30 923 H 99.0326 -1.85694 2.35494 0
M  V30 924 H 96.5856 -0.938059 1.25021 0
M  V30 925 H 97.3206 -3.23772 0.185036 0
M  V30 926 H 97.1056 -3.4006 1.95197 0
M  V30 927 H 98.5956 -4.00862 1.17046 0
M  V30 928 N 99.0327 -1.24633 -0.964593 0
M  V30 929 C 99.9957 -1.0424 -2.04124 0
M  V30 930 C 100.996 0.00137563 -1.608 0
M  V30 931 O 102.186 -0.239883 -1.7254 0
M  V30 932 C 99.3177 -0.580588 -3.3592 0
M  V30 933 H 100.511 -1.99803 -2.23649 0
M  V30 934 H 98.0637 -1.06899 -1.14027 0
M  V30 935 H 98.7987 0.3781 -3.22088 0
M  V30 936 H 98.5837 -1.33398 -3.6871 0
M  V30 937 H 100.074 -0.459034 -4.15069 0
M  V30 938 N 100.511 1.16574 -1.06058 0
M  V30 939 C 101.474 2.19085 -0.673392 0
M  V30 940 C 102.474 1.5835 0.279648 0
M  V30 941 O 103.664 1.74088 0.0623488 0
M  V30 942 C 100.796 3.40899 0.00954234 0
M  V30 943 H 101.989 2.54853 -1.58081 0
M  V30 944 H 99.5418 1.30808 -0.855516 0
M  V30 945 H 100.277 3.10684 0.929826 0
M  V30 946 H 100.062 3.86233 -0.67573 0
M  V30 947 H 101.552 4.1675 0.266245 0
M  V30 948 N 101.989 0.842826 1.3317 0
M  V30 949 C 102.952 0.284065 2.27433 0
M  V30 950 C 103.952 -0.54948 1.5112 0
M  V30 951 O 105.142 -0.362699 1.70382 0
M  V30 952 C 102.274 -0.599384 3.35589 0
M  V30 953 H 103.467 1.11589 2.78366 0
M  V30 954 H 101.02 0.616221 1.4364 0
M  V30 955 H 101.755 -1.45349 2.89904 0
M  V30 956 H 101.54 -0.00291266 3.921 0
M  V30 957 H 103.03 -0.983488 4.05854 0
M  V30 958 N 103.467 -1.45747 0.599634 0
M  V30 959 C 104.43 -2.28917 -0.113835 0
M  V30 960 C 105.43 -1.3933 -0.802729 0
M  V30 961 O 106.62 -1.61534 -0.652103 0
M  V30 962 C 103.752 -3.20152 -1.17114 0
M  V30 963 H 104.945 -2.93478 0.617289 0
M  V30 964 H 102.498 -1.52137 0.358327 0
M  V30 965 H 103.233 -2.60374 -1.93329 0
M  V30 966 H 103.018 -3.86133 -0.681468 0
M  V30 967 H 104.508 -3.82708 -1.67105 0
M  V30 968 N 104.945 -0.338344 -1.53925 0
M  V30 969 C 105.908 0.508299 -2.23493 0
M  V30 970 C 106.908 1.03175 -1.23335 0
M  V30 971 O 108.098 0.921826 -1.47811 0
M  V30 972 C 105.23 1.70754 -2.95052 0
M  V30 973 H 106.423 -0.100058 -2.99733 0
M  V30 974 H 103.976 -0.0896198 -1.56043 0
M  V30 975 H 104.711 2.35474 -2.22986 0
M  V30 976 H 104.496 1.33946 -3.68512 0
M  V30 977 H 105.986 2.30818 -3.48013 0
M  V30 978 N 106.423 1.57458 -0.0668435 0
M  V30 979 C 107.651 1.97624 0.612565 0
M  V30 980 C 108.066 0.94502 1.63447 0
M  V30 981 O 107.423 -0.0689276 1.8237 0
M  V30 982 C 107.474 3.37869 1.28555 0
M  V30 983 O 107.195 4.3704 0.304557 0
M  V30 984 C 108.696 3.92882 2.05325 0
M  V30 985 H 105.916 0.650045 0.166381 0
M  V30 986 H 108.46 2.04035 -0.137782 0
M  V30 987 H 106.615 3.3256 1.98702 0
M  V30 988 H 107.029 5.18565 0.786779 0
M  V30 989 H 108.503 4.93247 2.47812 0
M  V30 990 H 108.98 3.29156 2.9078 0
M  V30 991 H 109.586 4.01577 1.40056 0
M  V30 992 N 107.901 -0.206675 1.56239 0
M  V30 993 C 108.864 -1.23976 1.92776 0
M  V30 994 C 109.864 -1.39041 0.807729 0
M  V30 995 O 111.054 -1.37051 1.0753 0
M  V30 996 C 108.186 -2.61112 2.19165 0
M  V30 997 H 109.379 -0.927764 2.85189 0
M  V30 998 H 106.932 -0.447718 1.4975 0
M  V30 999 H 107.667 -2.97386 1.29352 0
M  V30 1000 H 107.452 -2.51552 3.00772 0
M  V30 1001 H 108.942 -3.35633 2.48476 0
M  V30 1002 N 109.379 -1.50304 -0.473955 0
M  V30 1003 C 110.627 -1.60832 -1.22382 0
M  V30 1004 C 110.948 -0.30939 -1.9253 0
M  V30 1005 O 110.218 0.67296 -1.83978 0
M  V30 1006 H 108.798 -0.592652 -0.454723 0
M  V30 1007 H 111.46 -1.87068 -0.546968 0
M  V30 1008 H 110.556 -2.41803 -1.97327 0
M  V30 1009 N 110.857 0.726932 -1.39834 0
M  V30 1010 C 111.82 1.82269 -1.38962 0
M  V30 1011 C 112.82 1.58248 -0.285334 0
M  V30 1012 O 114.01 1.65499 -0.54366 0
M  V30 1013 C 111.142 3.20186 -1.17019 0
M  V30 1014 H 112.335 1.84443 -2.36476 0
M  V30 1015 H 109.888 0.931416 -1.25516 0
M  V30 1016 H 110.623 3.23669 -0.202204 0
M  V30 1017 H 110.408 3.3902 -1.96998 0
M  V30 1018 H 111.898 4.00235 -1.1917 0
M  V30 1019 N 112.336 1.25143 0.95797 0
M  V30 1020 C 113.752 1.01892 1.22842 0
M  V30 1021 C 113.952 -0.266311 1.99732 0
M  V30 1022 O 113.008 -0.979913 2.3271 0
M  V30 1023 C 114.321 2.24004 2.00606 0
M  V30 1024 C 115.869 2.28731 2.13662 0
M  V30 1025 C 116.344 3.5049 2.94823 0
M  V30 1026 N 117.835 3.50866 3.02403 0
M  V30 1027 C 118.57 4.4174 3.65586 0
M  V30 1028 N 118.066 5.42882 4.30408 0
M  V30 1029 N 119.859 4.29429 3.62694 0
M  V30 1030 H 112.01 2.07718 0.443493 0
M  V30 1031 H 114.273 0.912031 0.258657 0
M  V30 1032 H 113.979 3.17395 1.51503 0
M  V30 1033 H 113.853 2.26907 3.01319 0
M  V30 1034 H 116.24 1.35865 2.61963 0
M  V30 1035 H 116.321 2.29848 1.12265 0
M  V30 1036 H 115.965 4.43676 2.47213 0
M  V30 1037 H 115.895 3.46617 3.96439 0
M  V30 1038 H 118.386 2.777 2.56302 0
M  V30 1039 H 118.699 6.0844 4.76467 0
M  V30 1040 H 117.044 5.46758 4.29047 0
M  V30 1041 H 120.235 3.49643 3.11236 0
M  V30 1042 H 120.408 5.00448 4.1165 0
M  V30 1043 N 113.814 -1.1601 1.06675 0
M  V30 1044 C 115.23 -1.38622 0.790948 0
M  V30 1045 C 115.43 -1.92109 -0.607965 0
M  V30 1046 O 114.486 -2.12239 -1.36787 0
M  V30 1047 C 115.799 -2.36347 1.85905 0
M  V30 1048 C 117.347 -2.50023 1.88301 0
M  V30 1049 C 117.822 -3.51033 2.94176 0
M  V30 1050 N 119.313 -3.58563 2.93235 0
M  V30 1051 C 120.048 -4.36521 3.71803 0
M  V30 1052 N 119.544 -5.17869 4.602 0
M  V30 1053 N 121.337 -4.31541 3.60178 0
M  V30 1054 H 113.488 -0.796294 1.96908 0
M  V30 1055 H 115.751 -0.412597 0.853503 0
M  V30 1056 H 115.457 -2.04147 2.86386 0
M  V30 1057 H 115.331 -3.36042 1.71334 0
M  V30 1058 H 117.718 -2.81524 0.884769 0
M  V30 1059 H 117.799 -1.5035 2.06951 0
M  V30 1060 H 117.443 -3.20268 3.94196 0
M  V30 1061 H 117.373 -4.50445 2.72776 0
M  V30 1062 H 119.864 -3.00496 2.29152 0
M  V30 1063 H 120.177 -5.74578 5.16797 0
M  V30 1064 H 118.522 -5.17199 4.64253 0
M  V30 1065 H 121.713 -3.67051 2.90502 0
M  V30 1066 H 121.886 -4.9205 4.21653 0
M  V30 1067 N 115.292 -0.849877 -1.32721 0
M  V30 1068 C 116.538 -0.451591 -1.97708 0
M  V30 1069 C 116.871 0.989175 -1.6712 0
M  V30 1070 O 116.146 1.69334 -0.956891 0
M  V30 1071 C 116.429 -0.685598 -3.53513 0
M  V30 1072 C 116.282 -2.17444 -3.93749 0
M  V30 1073 C 117.601 -0.138874 -4.39881 0
M  V30 1074 H 114.72 -0.16555 -0.718166 0
M  V30 1075 H 117.362 -1.06742 -1.57182 0
M  V30 1076 H 115.512 -0.161416 -3.88165 0
M  V30 1077 H 117.184 -2.76433 -3.693 0
M  V30 1078 H 115.427 -2.65476 -3.43081 0
M  V30 1079 H 116.098 -2.28888 -5.02309 0
M  V30 1080 H 118.574 -0.587068 -4.11938 0
M  V30 1081 H 117.45 -0.332213 -5.47894 0
M  V30 1082 H 117.711 0.95806 -4.31594 0
M  V30 1083 N 116.77 1.45427 -0.607355 0
M  V30 1084 C 117.702 2.2871 0.149752 0
M  V30 1085 C 118.715 1.39937 0.831958 0
M  V30 1086 O 119.904 1.64313 0.697385 0
M  V30 1087 C 117.004 3.15673 1.23304 0
M  V30 1088 C 116.177 4.32722 0.637996 0
M  V30 1089 C 115.236 5.00895 1.61215 0
M  V30 1090 O 114.262 5.57697 1.13854 0
M  V30 1091 N 115.464 5.00159 2.94655 0
M  V30 1092 H 118.229 2.94328 -0.564882 0
M  V30 1093 H 115.79 1.55612 -0.446823 0
M  V30 1094 H 117.782 3.58144 1.88454 0
M  V30 1095 H 116.352 2.51965 1.8502 0
M  V30 1096 H 115.572 3.93734 -0.191572 0
M  V30 1097 H 116.86 5.08321 0.220665 0
M  V30 1098 H 116.258 4.553 3.35735 0
M  V30 1099 H 114.815 5.46495 3.55228 0
M  V30 1100 N 118.248 0.346503 1.53744 0
M  V30 1101 C 119.664 -0.00530975 1.59599 0
M  V30 1102 C 119.864 -1.48465 1.36236 0
M  V30 1103 O 118.92 -2.24376 1.15808 0
M  V30 1104 C 120.233 0.433516 2.97559 0
M  V30 1105 C 121.781 0.386111 3.10609 0
M  V30 1106 C 122.256 0.800451 4.50951 0
M  V30 1107 N 123.747 0.754753 4.5701 0
M  V30 1108 C 124.482 1.04727 5.63755 0
M  V30 1109 N 123.978 1.4081 6.7834 0
M  V30 1110 N 125.771 0.971316 5.53644 0
M  V30 1111 H 117.922 1.31009 1.67184 0
M  V30 1112 H 120.185 0.534242 0.783128 0
M  V30 1113 H 119.891 1.46509 3.19731 0
M  V30 1114 H 119.765 -0.189753 3.76722 0
M  V30 1115 H 122.152 -0.636295 2.88158 0
M  V30 1116 H 122.233 1.04462 2.33498 0
M  V30 1117 H 121.877 1.82088 4.74137 0
M  V30 1118 H 121.807 0.119386 5.26465 0
M  V30 1119 H 124.298 0.488662 3.74727 0
M  V30 1120 H 124.611 1.61607 7.55714 0
M  V30 1121 H 122.956 1.44657 6.79779 0
M  V30 1122 H 126.147 0.688748 4.63005 0
M  V30 1123 H 126.32 1.20263 6.36742 0
M  V30 1124 N 119.726 -1.57421 0.075193 0
M  V30 1125 C 121.142 -1.57099 -0.281444 0
M  V30 1126 C 121.342 -1.08486 -1.69803 0
M  V30 1127 O 120.398 -0.752279 -2.41033 0
M  V30 1128 C 121.711 -3.00571 -0.0880041 0
M  V30 1129 C 123.259 -3.12605 -0.157281 0
M  V30 1130 C 123.734 -4.57999 0.0079207 0
M  V30 1131 N 125.225 -4.63176 -0.0475725 0
M  V30 1132 C 125.96 -5.73373 0.0557876 0
M  V30 1133 N 125.456 -6.92473 0.21286 0
M  V30 1134 N 127.249 -5.621 -0.00152098 0
M  V30 1135 H 119.4 -1.87335 1.00098 0
M  V30 1136 H 121.663 -0.86377 0.390646 0
M  V30 1137 H 121.369 -3.40262 0.889629 0
M  V30 1138 H 121.243 -3.67754 -0.838875 0
M  V30 1139 H 123.63 -2.72798 -1.1254 0
M  V30 1140 H 123.711 -2.48053 0.62475 0
M  V30 1141 H 123.355 -4.98496 0.972824 0
M  V30 1142 H 123.285 -5.20586 -0.793556 0
M  V30 1143 H 125.776 -3.7753 -0.167244 0
M  V30 1144 H 126.089 -7.72279 0.283781 0
M  V30 1145 H 124.434 -6.94556 0.248267 0
M  V30 1146 H 127.625 -4.67938 -0.122958 0
M  V30 1147 H 127.798 -6.47948 0.0824844 0
M  V30 1148 N 121.204 0.198386 -1.56346 0
M  V30 1149 C 122.62 0.549085 -1.49857 0
M  V30 1150 C 122.82 1.86016 -0.774611 0
M  V30 1151 O 121.876 2.50416 -0.323776 0
M  V30 1152 C 123.189 0.606868 -2.94512 0
M  V30 1153 C 124.737 0.695925 -3.05165 0
M  V30 1154 C 125.212 0.784848 -4.51225 0
M  V30 1155 N 126.703 0.848463 -4.55363 0
M  V30 1156 C 127.438 0.937378 -5.65686 0
M  V30 1157 N 126.934 0.9888 -6.85707 0
M  V30 1158 N 128.727 0.974312 -5.53592 0
M  V30 1159 H 120.878 -0.661655 -2.01831 0
M  V30 1160 H 123.141 -0.235261 -0.918344 0
M  V30 1161 H 122.847 -0.28732 -3.50524 0
M  V30 1162 H 122.721 1.46268 -3.47686 0
M  V30 1163 H 125.108 1.58055 -2.49204 0
M  V30 1164 H 125.189 -0.186022 -2.55123 0
M  V30 1165 H 124.833 -0.0954072 -5.0781 0
M  V30 1166 H 124.763 1.68255 -4.98997 0
M  V30 1167 H 127.254 0.818103 -3.68938 0
M  V30 1168 H 127.567 1.05707 -7.65536 0
M  V30 1169 H 125.912 0.957534 -6.88372 0
M  V30 1170 H 129.103 0.930954 -4.58749 0
M  V30 1171 H 129.276 1.04015 -6.39597 0
M  V30 1172 N 122.682 1.50554 0.465978 0
M  V30 1173 C 124.098 1.38093 0.800154 0
M  V30 1174 C 124.298 0.440988 1.96615 0
M  V30 1175 O 123.354 -0.114499 2.5224 0
M  V30 1176 C 124.667 2.79565 1.10742 0
M  V30 1177 C 126.215 2.88516 1.21357 0
M  V30 1178 C 126.69 4.30833 1.55393 0
M  V30 1179 N 128.181 4.33807 1.62375 0
M  V30 1180 C 128.916 5.40927 1.90225 0
M  V30 1181 N 128.412 6.58247 2.16062 0
M  V30 1182 N 130.205 5.28376 1.9177 0
M  V30 1183 H 122.356 2.10237 -0.302366 0
M  V30 1184 H 124.619 0.945203 -0.0727746 0
M  V30 1185 H 124.325 3.50208 0.323661 0
M  V30 1186 H 124.199 3.17125 2.04234 0
M  V30 1187 H 126.586 2.1809 1.98799 0
M  V30 1188 H 126.667 2.54492 0.258321 0
M  V30 1189 H 126.311 5.01799 0.784889 0
M  V30 1190 H 126.241 4.62347 2.52076 0
M  V30 1191 H 128.732 3.49212 1.44427 0
M  V30 1192 H 129.045 7.3569 2.36601 0
M  V30 1193 H 127.39 6.61413 2.13444 0
M  V30 1194 H 130.581 4.35715 1.71085 0
M  V30 1195 H 130.754 6.11944 2.13139 0
M  V30 1196 N 124.16 -0.719506 1.40217 0
M  V30 1197 C 125.406 -1.48152 1.38488 0
M  V30 1198 C 125.739 -1.94195 -0.0141867 0
M  V30 1199 O 125.014 -1.67884 -0.982096 0
M  V30 1200 C 125.297 -2.71035 2.37091 0
M  V30 1201 C 125.15 -2.30912 3.86005 0
M  V30 1202 C 126.469 -3.73182 2.33288 0
M  V30 1203 H 123.588 -0.537395 0.504357 0
M  V30 1204 H 126.23 -0.821472 1.71324 0
M  V30 1205 H 124.38 -3.27352 2.0922 0
M  V30 1206 H 126.052 -1.80107 4.24687 0
M  V30 1207 H 124.295 -1.62958 4.02029 0
M  V30 1208 H 124.966 -3.18978 4.50508 0
M  V30 1209 H 127.442 -3.26485 2.57966 0
M  V30 1210 H 126.318 -4.56806 3.04334 0
M  V30 1211 H 126.579 -4.21202 1.34317 0
M  V30 1212 N 125.638 -1.25649 -0.95132 0
M  V30 1213 C 126.586 -1.06118 -2.06982 0
M  V30 1214 C 127.58 0.00889169 -1.69398 0
M  V30 1215 O 128.786 -0.146988 -1.79399 0
M  V30 1216 H 125.161 -0.326248 -0.677544 0
M  V30 1217 H 127.132 -2.00932 -2.2061 0
M  V30 1218 C 125.881 -0.700145 -3.40578 0
M  V30 1219 H 125.204 -1.51537 -3.69968 0
M  V30 1220 H 126.644 -0.603211 -4.19687 0
M  V30 1221 C 125.103 0.59403 -3.31622 0
M  V30 1222 O 125.633 1.63522 -3.66911 0
M  V30 1223 N 123.839 0.58089 -2.84735 0
M  V30 1224 H 123.386 -0.266783 -2.56215 0
M  V30 1225 H 123.344 1.44695 -2.79125 0
M  V30 1226 N 127.117 1.15442 -1.07289 0
M  V30 1227 C 128.047 2.22312 -0.714107 0
M  V30 1228 C 129.028 1.67467 0.298155 0
M  V30 1229 O 130.213 1.93445 0.171048 0
M  V30 1230 C 127.343 3.47124 -0.110448 0
M  V30 1231 C 126.297 4.14926 -1.04979 0
M  V30 1232 C 125.623 5.33807 -0.308924 0
M  V30 1233 C 126.923 4.64762 -2.38314 0
M  V30 1234 H 128.617 2.5258 -1.6076 0
M  V30 1235 H 126.163 1.21404 -0.77441 0
M  V30 1236 H 128.116 4.21124 0.152482 0
M  V30 1237 H 126.84 3.16187 0.81812 0
M  V30 1238 H 125.499 3.42866 -1.29764 0
M  V30 1239 H 125.147 4.99126 0.623084 0
M  V30 1240 H 124.847 5.80113 -0.935036 0
M  V30 1241 H 126.371 6.10576 -0.0537771 0
M  V30 1242 H 127.785 5.30292 -2.1786 0
M  V30 1243 H 126.182 5.21728 -2.96514 0
M  V30 1244 H 127.252 3.80434 -3.00663 0
M  V30 1245 N 128.595 0.856903 1.32268 0
M  V30 1246 C 129.872 0.382583 1.91822 0
M  V30 1247 C 130.252 -1.13407 1.78051 0
M  V30 1248 O 129.6 -1.95673 1.18001 0
M  V30 1249 C 129.81 0.849446 3.38505 0
M  V30 1250 C 131.158 0.867936 4.15634 0
M  V30 1251 O 132.182 0.794232 3.47232 0
M  V30 1252 O 131.041 0.972286 5.37781 0
M  V30 1253 H 128.135 0.112014 0.819379 0
M  V30 1254 H 130.681 0.943952 1.41024 0
M  V30 1255 H 129.453 1.89267 3.42482 0
M  V30 1256 H 129.076 0.265652 3.96712 0
M  V30 1257 N 130.073 -1.45103 0.615059 0
M  V30 1258 C 131.298 -2.07064 0.117988 0
M  V30 1259 C 131.723 -1.4554 -1.19163 0
M  V30 1260 O 131.081 -0.550855 -1.72729 0
M  V30 1261 C 131.129 -3.606 -0.000288387 0
M  V30 1262 O 130.233 -3.98847 -1.04856 0
M  V30 1263 H 129.574 -0.659467 0.0774581 0
M  V30 1264 H 132.104 -1.86236 0.847186 0
M  V30 1265 H 132.114 -4.07529 -0.196091 0
M  V30 1266 H 130.789 -4.04765 0.955932 0
M  V30 1267 H 129.366 -3.63577 -0.828619 0
M  V30 1268 N 131.551 -0.354651 -1.53558 0
M  V30 1269 C 132.481 0.489091 -2.2832 0
M  V30 1270 C 133.462 1.09324 -1.30316 0
M  V30 1271 O 134.647 1.11255 -1.59173 0
M  V30 1272 C 131.777 1.63456 -3.0643 0
M  V30 1273 C 130.731 1.1582 -4.12031 0
M  V30 1274 C 130.057 2.39305 -4.7816 0
M  V30 1275 C 131.357 0.250731 -5.21698 0
M  V30 1276 H 133.051 -0.134614 -2.99097 0
M  V30 1277 H 130.597 -0.0661826 -1.43848 0
M  V30 1278 H 132.55 2.23136 -3.57475 0
M  V30 1279 H 131.274 2.28533 -2.33325 0
M  V30 1280 H 129.933 0.584146 -3.61916 0
M  V30 1281 H 129.581 3.02814 -4.01637 0
M  V30 1282 H 129.281 2.08109 -5.49513 0
M  V30 1283 H 130.805 2.99691 -5.31994 0
M  V30 1284 H 132.219 0.754695 -5.68311 0
M  V30 1285 H 130.616 0.0301468 -6.00092 0
M  V30 1286 H 131.686 -0.710125 -4.79672 0
M  V30 1287 N 133.029 1.57378 -0.0835403 0
M  V30 1288 C 134.277 1.93547 0.581718 0
M  V30 1289 C 134.598 0.96524 1.69435 0
M  V30 1290 O 133.868 0.0153369 1.95894 0
M  V30 1291 H 132.448 0.714521 0.217874 0
M  V30 1292 H 135.11 1.94366 -0.144158 0
M  V30 1293 H 134.206 2.95665 0.999423 0
M  V30 1294 N 134.507 -0.190092 1.56449 0
M  V30 1295 C 135.417 -1.25591 1.98152 0
M  V30 1296 C 136.433 -1.49519 0.889944 0
M  V30 1297 O 137.609 -1.62036 1.19609 0
M  V30 1298 C 134.674 -2.57916 2.3169 0
M  V30 1299 C 133.735 -2.42015 3.5458 0
M  V30 1300 C 132.968 -3.6803 3.8651 0
M  V30 1301 O 133.191 -4.72413 3.1966 0
M  V30 1302 O 132.125 -3.6326 4.79923 0
M  V30 1303 H 135.951 -0.931988 2.89046 0
M  V30 1304 H 133.536 -0.395488 1.4407 0
M  V30 1305 H 135.418 -3.36008 2.54316 0
M  V30 1306 H 134.093 -2.89925 1.43963 0
M  V30 1307 H 133 -1.62017 3.37196 0
M  V30 1308 H 134.333 -2.14937 4.4279 0
M  V30 1309 N 135.985 -1.50799 -0.457987 0
M  V30 1310 C 137.21 -1.66496 -1.23668 0
M  V30 1311 C 137.635 -0.353288 -1.84752 0
M  V30 1312 O 136.993 0.684346 -1.67888 0
M  V30 1313 C 137.041 -2.76763 -2.3116 0
M  V30 1314 O 136.145 -2.38928 -3.36136 0
M  V30 1315 H 135.486 -0.555828 -0.363252 0
M  V30 1316 H 138.016 -1.9725 -0.543474 0
M  V30 1317 H 138.026 -3.00232 -2.76269 0
M  V30 1318 H 136.701 -3.71954 -1.86073 0
M  V30 1319 H 135.278 -2.25953 -2.96647 0
M  V30 1320 N 137.463 0.71206 -1.40597 0
M  V30 1321 C 138.712 1.46754 -1.38369 0
M  V30 1322 C 139.025 1.95598 0.0097839 0
M  V30 1323 O 140.231 2.71059 0.154677 0
M  V30 1324 C 138.687 2.65289 -2.43207 0
M  V30 1325 C 138.295 2.23301 -3.88382 0
M  V30 1326 C 140.039 3.43008 -2.50091 0
M  V30 1327 C 137.946 3.38696 -4.84808 0
M  V30 1328 H 136.876 0.55118 -0.514506 0
M  V30 1329 H 139.527 0.774616 -1.66349 0
M  V30 1330 H 137.909 3.36769 -2.08332 0
M  V30 1331 H 139.083 1.59218 -4.32419 0
M  V30 1332 H 137.398 1.58618 -3.85006 0
M  V30 1333 H 139.995 4.28881 -3.1932 0
M  V30 1334 H 140.338 3.87065 -1.53253 0
M  V30 1335 H 140.871 2.78574 -2.83974 0
M  V30 1336 H 137.61 2.99668 -5.82992 0
M  V30 1337 H 137.13 4.01683 -4.45433 0
M  V30 1338 H 138.809 4.04712 -5.04794 0
M  V30 1339 N 138.941 1.26152 0.944643 0
M  V30 1340 C 140.166 1.14363 1.7302 0
M  V30 1341 C 140.591 -0.29772 1.85729 0
M  V30 1342 O 139.949 -1.2157 1.34501 0
M  V30 1343 C 139.997 1.81378 3.11664 0
M  V30 1344 O 139.101 1.10022 3.97453 0
M  V30 1345 H 138.442 0.398694 0.53098 0
M  V30 1346 H 140.972 1.66906 1.18337 0
M  V30 1347 H 140.982 1.88064 3.62072 0
M  V30 1348 H 139.657 2.86237 3.0173 0
M  V30 1349 H 138.234 1.11287 3.55907 0
M  V30 1350 N 140.419 -1.14872 1.07899 0
M  V30 1351 C 141.835 -1.37776 0.805606 0
M  V30 1352 C 142.035 -1.92743 -0.587555 0
M  V30 1353 O 141.091 -2.13678 -1.34528 0
M  V30 1354 C 142.404 -2.34361 1.88402 0
M  V30 1355 C 143.952 -2.48012 1.90942 0
M  V30 1356 C 144.427 -3.47893 2.97883 0
M  V30 1357 N 145.918 -3.55433 2.97021 0
M  V30 1358 C 146.653 -4.32553 3.76412 0
M  V30 1359 N 146.149 -5.12959 4.65666 0
M  V30 1360 N 147.942 -4.27697 3.64735 0
M  V30 1361 H 140.093 -0.775365 1.97742 0
M  V30 1362 H 142.356 -0.403521 0.857831 0
M  V30 1363 H 142.062 -2.01098 2.88535 0
M  V30 1364 H 141.936 -3.34206 1.74889 0
M  V30 1365 H 144.323 -2.8057 0.914579 0
M  V30 1366 H 144.404 -1.48147 2.08534 0
M  V30 1367 H 144.048 -3.16069 3.97571 0
M  V30 1368 H 143.978 -4.47527 2.77538 0
M  V30 1369 H 146.469 -2.98048 2.32326 0
M  V30 1370 H 146.782 -5.69065 5.22862 0
M  V30 1371 H 145.127 -5.12245 4.69712 0
M  V30 1372 H 148.318 -3.63949 2.94378 0
M  V30 1373 H 148.491 -4.8755 4.26848 0
M  V30 1374 N 141.898 -0.863906 -1.31812 0
M  V30 1375 C 142.828 -0.330843 -2.31144 0
M  V30 1376 C 143.809 0.575005 -1.60087 0
M  V30 1377 O 144.994 0.493304 -1.8783 0
M  V30 1378 C 142.124 0.47374 -3.44054 0
M  V30 1379 C 141.078 -0.338481 -4.26659 0
M  V30 1380 C 140.404 0.591412 -5.31419 0
M  V30 1381 C 141.704 -1.56926 -4.98168 0
M  V30 1382 H 143.398 -1.16086 -2.75979 0
M  V30 1383 H 140.944 -0.559657 -1.32679 0
M  V30 1384 H 142.897 0.857143 -4.12591 0
M  V30 1385 H 141.621 1.33721 -2.9797 0
M  V30 1386 H 140.28 -0.703754 -3.59782 0
M  V30 1387 H 139.928 1.45199 -4.81587 0
M  V30 1388 H 139.628 0.0519022 -5.87577 0
M  V30 1389 H 141.152 0.97179 -6.02817 0
M  V30 1390 H 142.566 -1.25764 -5.59336 0
M  V30 1391 H 140.963 -2.04739 -5.64094 0
M  V30 1392 H 142.033 -2.32544 -4.25501 0
M  V30 1393 N 143.376 1.44774 -0.622745 0
M  V30 1394 C 144.604 2.06487 -0.130722 0
M  V30 1395 C 145.019 1.46476 1.19123 0
M  V30 1396 O 144.376 0.584502 1.72887 0
M  V30 1397 C 144.427 3.615 -0.000807207 0
M  V30 1398 O 144.148 4.19274 -1.27048 0
M  V30 1399 C 145.649 4.40229 0.520898 0
M  V30 1400 H 142.869 0.666704 -0.0758106 0
M  V30 1401 H 145.413 1.85779 -0.854774 0
M  V30 1402 H 143.568 3.81498 0.673643 0
M  V30 1403 H 143.982 5.12622 -1.1099 0
M  V30 1404 H 145.456 5.49144 0.560838 0
M  V30 1405 H 145.933 4.1108 1.54627 0
M  V30 1406 H 146.539 4.25131 -0.120018 0
M  V30 1407 N 144.854 0.36279 1.53368 0
M  V30 1408 C 145.817 -0.472679 2.24273 0
M  V30 1409 C 146.817 -1.012 1.24961 0
M  V30 1410 O 148.007 -0.898194 1.49259 0
M  V30 1411 C 145.139 -1.66039 2.97731 0
M  V30 1412 H 146.332 0.14773 2.99536 0
M  V30 1413 H 143.885 0.114434 1.55881 0
M  V30 1414 H 144.62 -2.31896 2.26704 0
M  V30 1415 H 144.405 -1.28066 3.70596 0
M  V30 1416 H 145.895 -2.25252 3.51641 0
M  V30 1417 N 146.332 -1.57332 0.0918853 0
M  V30 1418 C 147.743 -1.81496 -0.437739 0
M  V30 1419 C 148.094 -1.00727 -1.6837 0
M  V30 1420 O 147.219 -0.235694 -2.15113 0
M  V30 1421 C 147.814 -3.29197 -0.800939 0
M  V30 1422 C 146.373 -3.54136 -1.27532 0
M  V30 1423 C 145.52 -2.75979 -0.270392 0
M  V30 1424 H 148.471 -1.55494 0.317366 0
M  V30 1425 H 148.492 -3.42344 -1.66074 0
M  V30 1426 H 148.004 -3.87955 0.106078 0
M  V30 1427 H 146.105 -3.00705 -2.20016 0
M  V30 1428 H 146.218 -4.62792 -1.23938 0
M  V30 1429 H 144.582 -2.43349 -0.751872 0
M  V30 1430 H 145.365 -3.37484 0.629248 0
M  V30 1431 N 147.81 0.181792 -1.56548 0
M  V30 1432 C 149.035 0.920019 -1.85877 0
M  V30 1433 C 149.46 1.75494 -0.677021 0
M  V30 1434 O 148.818 1.77399 0.374056 0
M  V30 1435 C 148.866 1.78112 -3.13542 0
M  V30 1436 O 147.97 2.88152 -2.95029 0
M  V30 1437 H 147.311 0.258334 -0.611686 0
M  V30 1438 H 149.841 0.183092 -2.03779 0
M  V30 1439 H 149.851 2.18314 -3.44678 0
M  V30 1440 H 148.526 1.16777 -3.99169 0
M  V30 1441 H 147.103 2.51609 -2.75222 0
M  V30 1442 N 149.288 1.51039 0.449983 0
M  V30 1443 C 150.699 1.557 1.03026 0
M  V30 1444 C 151.05 0.372939 1.92623 0
M  V30 1445 O 150.175 -0.511771 2.10261 0
M  V30 1446 C 150.77 2.82171 1.87523 0
M  V30 1447 C 149.329 2.89444 2.40622 0
M  V30 1448 C 148.476 2.50228 1.19504 0
M  V30 1449 H 151.427 1.56999 0.231745 0
M  V30 1450 H 151.448 2.65219 2.72835 0
M  V30 1451 H 150.96 3.68331 1.22286 0
M  V30 1452 H 149.061 2.07685 3.0935 0
M  V30 1453 H 149.174 3.92816 2.74285 0
M  V30 1454 H 147.538 2.03139 1.53644 0
M  V30 1455 H 148.321 3.38719 0.558972 0
M  V30 1456 N 150.766 -0.704594 1.40972 0
M  V30 1457 C 151.698 -1.82974 1.38033 0
M  V30 1458 C 152.711 -1.60305 0.283931 0
M  V30 1459 O 153.9 -1.69975 0.545042 0
M  V30 1460 C 151 -3.19578 1.12795 0
M  V30 1461 C 150.173 -3.69352 2.34302 0
M  V30 1462 C 149.232 -4.84601 2.05058 0
M  V30 1463 O 148.258 -4.96682 2.7802 0
M  V30 1464 N 149.46 -5.71194 1.03528 0
M  V30 1465 H 152.225 -1.85991 2.35005 0
M  V30 1466 H 149.786 -0.886567 1.35468 0
M  V30 1467 H 151.778 -3.9429 0.911987 0
M  V30 1468 H 150.348 -3.11642 0.24452 0
M  V30 1469 H 149.568 -2.85649 2.71659 0
M  V30 1470 H 150.856 -3.99345 3.1528 0
M  V30 1471 H 150.254 -5.64054 0.431217 0
M  V30 1472 H 148.811 -6.45843 0.879205 0
M  V30 1473 N 152.244 -1.26651 -0.937939 0
M  V30 1474 C 153.472 -1.15173 -1.7188 0
M  V30 1475 C 153.887 0.292668 -1.86518 0
M  V30 1476 O 153.244 1.20014 -1.37488 0
M  V30 1477 C 153.295 -1.81925 -3.12387 0
M  V30 1478 O 153.016 -3.2072 -2.98446 0
M  V30 1479 C 154.517 -1.76442 -4.06673 0
M  V30 1480 H 151.737 -0.400911 -0.538063 0
M  V30 1481 H 154.281 -1.67332 -1.1756 0
M  V30 1482 H 152.436 -1.33696 -3.63599 0
M  V30 1483 H 152.85 -3.53802 -3.872 0
M  V30 1484 H 154.324 -2.27781 -5.02812 0
M  V30 1485 H 154.801 -0.731608 -4.33064 0
M  V30 1486 H 155.407 -2.24238 -3.61382 0
M  V30 1487 N 153.722 1.14298 -1.08507 0
M  V30 1488 C 154.971 1.84708 -0.810305 0
M  V30 1489 C 155.284 1.83903 0.666271 0
M  V30 1490 O 156.49 2.50112 1.05624 0
M  V30 1491 C 154.946 3.31572 -1.39957 0
M  V30 1492 C 154.554 3.40791 -2.90801 0
M  V30 1493 C 156.298 4.07087 -1.20334 0
M  V30 1494 C 154.205 4.81872 -3.4286 0
M  V30 1495 H 153.135 0.691985 -0.299454 0
M  V30 1496 H 155.786 1.28841 -1.30661 0
M  V30 1497 H 154.168 3.87183 -0.830976 0
M  V30 1498 H 155.342 2.95225 -3.53806 0
M  V30 1499 H 153.657 2.78732 -3.0935 0
M  V30 1500 H 156.254 5.11225 -1.56693 0
M  V30 1501 H 156.597 4.16054 -0.143237 0
M  V30 1502 H 157.13 3.57779 -1.73893 0
M  V30 1503 H 153.869 4.78094 -4.48449 0
M  V30 1504 H 153.389 5.27972 -2.84615 0
M  V30 1505 H 155.068 5.50765 -3.39509 0
M  V30 1506 N 155.201 0.870884 1.31352 0
M  V30 1507 C 156.133 0.28455 2.27427 0
M  V30 1508 C 157.146 -0.552927 1.53123 0
M  V30 1509 O 158.335 -0.374771 1.74521 0
M  V30 1510 C 155.435 -0.615164 3.3327 0
M  V30 1511 C 154.608 0.190079 4.36987 0
M  V30 1512 C 153.667 -0.637917 5.22319 0
M  V30 1513 O 152.693 -0.065626 5.69162 0
M  V30 1514 N 153.895 -1.94973 5.46778 0
M  V30 1515 H 156.66 1.11017 2.7838 0
M  V30 1516 H 154.221 0.732458 1.44384 0
M  V30 1517 H 156.213 -1.1748 3.87273 0
M  V30 1518 H 154.783 -1.34146 2.82354 0
M  V30 1519 H 154.003 0.931165 3.83044 0
M  V30 1520 H 155.291 0.742579 5.03352 0
M  V30 1521 H 154.689 -2.4378 5.10478 0
M  V30 1522 H 153.246 -2.45713 6.03712 0
M  V30 1523 N 156.679 -1.44442 0.630414 0
M  V30 1524 C 157.611 -2.2892 -0.113347 0
M  V30 1525 C 158.624 -1.41243 -0.80959 0
M  V30 1526 O 159.813 -1.65402 -0.671156 0
M  V30 1527 C 156.913 -3.17594 -1.18266 0
M  V30 1528 C 156.086 -4.33682 -0.569073 0
M  V30 1529 C 155.145 -5.03397 -1.53226 0
M  V30 1530 O 154.171 -5.59438 -1.04967 0
M  V30 1531 N 155.373 -5.04783 -2.86661 0
M  V30 1532 H 158.138 -2.93392 0.611636 0
M  V30 1533 H 155.699 -1.54881 0.471523 0
M  V30 1534 H 157.691 -3.61097 -1.82732 0
M  V30 1535 H 156.261 -2.54876 -1.80988 0
M  V30 1536 H 155.481 -3.9338 0.254187 0
M  V30 1537 H 156.769 -5.08608 -0.139767 0
M  V30 1538 H 156.167 -4.60584 -3.28449 0
M  V30 1539 H 154.724 -5.52077 -3.46489 0
M  V30 1540 N 158.157 -0.370918 -1.53173 0
M  V30 1541 C 159.385 0.217704 -2.05751 0
M  V30 1542 C 159.8 1.42018 -1.24404 0
M  V30 1543 O 159.157 1.80245 -0.286033 0
M  V30 1544 C 159.208 0.605954 -3.56385 0
M  V30 1545 O 158.929 -0.548734 -4.3465 0
M  V30 1546 C 160.43 1.2524 -4.25241 0
M  V30 1547 H 157.65 0.0371659 -0.66997 0
M  V30 1548 H 160.194 -0.530832 -1.9749 0
M  V30 1549 H 158.349 1.3044 -3.6478 0
M  V30 1550 H 158.763 -0.23376 -5.23979 0
M  V30 1551 H 160.237 1.47458 -5.3194 0
M  V30 1552 H 160.714 2.2143 -3.79296 0
M  V30 1553 H 161.32 0.595233 -4.21114 0
M  V30 1554 N 159.635 1.57281 -0.100228 0
M  V30 1555 C 160.565 2.17328 0.853857 0
M  V30 1556 C 161.546 1.10804 1.2906 0
M  V30 1557 O 162.731 1.38963 1.35657 0
M  V30 1558 C 159.861 2.75772 2.11109 0
M  V30 1559 C 158.815 3.87713 1.81279 0
M  V30 1560 C 158.141 4.32882 3.13874 0
M  V30 1561 C 159.441 5.10677 1.09574 0
M  V30 1562 H 161.135 2.97305 0.353545 0
M  V30 1563 H 158.681 1.43009 0.168612 0
M  V30 1564 H 160.634 3.16433 2.78296 0
M  V30 1565 H 159.358 1.93057 2.63432 0
M  V30 1566 H 158.017 3.476 1.16489 0
M  V30 1567 H 157.665 3.47051 3.64095 0
M  V30 1568 H 157.365 5.08358 2.94696 0
M  V30 1569 H 158.889 4.7618 3.82211 0
M  V30 1570 H 160.303 5.48474 1.66879 0
M  V30 1571 H 158.7 5.91615 1.00557 0
M  V30 1572 H 159.77 4.84835 0.0793299 0
M  V30 1573 N 161.113 -0.173488 1.56642 0
M  V30 1574 C 162.06 -1.21482 1.96242 0
M  V30 1575 C 163.03 -1.44104 0.826027 0
M  V30 1576 O 164.215 -1.5688 1.08597 0
M  V30 1577 C 161.355 -2.54964 2.32567 0
M  V30 1578 C 160.468 -2.39739 3.59373 0
M  V30 1579 C 159.603 -3.66072 3.84921 0
M  V30 1580 C 158.642 -3.45771 5.05083 0
M  V30 1581 N 157.779 -4.64169 5.26775 0
M  V30 1582 H 162.619 -0.870123 2.85014 0
M  V30 1583 H 160.156 -0.418245 1.41029 0
M  V30 1584 H 162.114 -3.32758 2.5165 0
M  V30 1585 H 160.744 -2.87433 1.46908 0
M  V30 1586 H 159.796 -1.53131 3.48217 0
M  V30 1587 H 161.108 -2.20683 4.47326 0
M  V30 1588 H 160.262 -4.52303 4.0436 0
M  V30 1589 H 159.001 -3.88105 2.9534 0
M  V30 1590 H 158.006 -2.57927 4.85545 0
M  V30 1591 H 159.231 -3.25163 5.96193 0
M  V30 1592 H 157.177 -4.86425 4.40144 0
M  V30 1593 H 157.094 -4.48019 6.08946 0
M  V30 1594 H 158.362 -5.51689 5.5069 0
M  V30 1595 N 162.591 -1.51276 -0.441967 0
M  V30 1596 C 164.007 -1.39349 -0.778083 0
M  V30 1597 C 164.207 -0.472212 -1.95889 0
M  V30 1598 O 163.263 0.0743551 -2.5239 0
M  V30 1599 C 164.576 -2.81292 -1.0628 0
M  V30 1600 C 166.124 -2.9041 -1.16751 0
M  V30 1601 C 166.599 -4.33251 -1.48519 0
M  V30 1602 N 168.09 -4.36336 -1.55453 0
M  V30 1603 C 168.825 -5.43885 -1.81596 0
M  V30 1604 N 168.321 -6.61601 -2.05562 0
M  V30 1605 N 170.114 -5.3136 -1.8334 0
M  V30 1606 H 162.265 -2.09729 0.335774 0
M  V30 1607 H 164.528 -0.943925 0.0878028 0
M  V30 1608 H 164.234 -3.50678 -0.267905 0
M  V30 1609 H 164.108 -3.20334 -1.99163 0
M  V30 1610 H 166.495 -2.21225 -1.95304 0
M  V30 1611 H 166.576 -2.54871 -0.217801 0
M  V30 1612 H 166.22 -5.02984 -0.704958 0
M  V30 1613 H 166.15 -4.66299 -2.44689 0
M  V30 1614 H 168.641 -3.51466 -1.38853 0
M  V30 1615 H 168.954 -7.39361 -2.24867 0
M  V30 1616 H 167.299 -6.64725 -2.02894 0
M  V30 1617 H 170.49 -4.38382 -1.64132 0
M  V30 1618 H 170.663 -6.15258 -2.03377 0
M  V30 1619 N 164.069 0.697108 -1.41344 0
M  V30 1620 C 165.297 1.48593 -1.43972 0
M  V30 1621 C 165.712 1.88747 -0.0445612 0
M  V30 1622 O 165.069 1.56682 0.935785 0
M  V30 1623 C 165.12 2.74946 -2.34706 0
M  V30 1624 O 164.841 2.36484 -3.68791 0
M  V30 1625 C 166.342 3.687 -2.46121 0
M  V30 1626 H 163.562 0.457964 -0.490418 0
M  V30 1627 H 166.106 0.858429 -1.8561 0
M  V30 1628 H 164.261 3.33937 -1.9638 0
M  V30 1629 H 164.675 3.17918 -4.17167 0
M  V30 1630 H 166.149 4.54145 -3.13777 0
M  V30 1631 H 166.626 4.13081 -1.49199 0
M  V30 1632 H 167.232 3.15613 -2.85076 0
M  V30 1633 N 165.547 1.27147 0.931209 0
M  V30 1634 C 166.477 1.12081 2.04842 0
M  V30 1635 C 167.458 0.0232364 1.70084 0
M  V30 1636 O 168.643 0.197085 1.93197 0
M  V30 1637 C 165.773 0.76354 3.38803 0
M  V30 1638 C 164.727 1.81396 3.87659 0
M  V30 1639 C 164.053 1.31075 5.18385 0
M  V30 1640 C 165.353 3.21739 4.11438 0
M  V30 1641 H 167.047 2.05537 2.17703 0
M  V30 1642 H 164.593 0.989603 1.04608 0
M  V30 1643 H 166.546 0.644982 4.16435 0
M  V30 1644 H 165.27 -0.206727 3.25945 0
M  V30 1645 H 163.929 1.92136 3.12217 0
M  V30 1646 H 163.577 0.330037 5.01916 0
M  V30 1647 H 163.277 2.013 5.52044 0
M  V30 1648 H 164.801 1.20506 5.98591 0
M  V30 1649 H 166.215 3.14019 4.79651 0
M  V30 1650 H 164.612 3.89644 4.56397 0
M  V30 1651 H 165.682 3.67054 3.16859 0
M  V30 1652 N 167.025 -1.13721 1.09112 0
M  V30 1653 C 167.957 -2.1871 0.685467 0
M  V30 1654 C 168.97 -1.60527 -0.271068 0
M  V30 1655 O 170.159 -1.78407 -0.0576148 0
M  V30 1656 C 167.259 -3.38898 -0.0111255 0
M  V30 1657 C 166.432 -4.26597 0.966131 0
M  V30 1658 C 165.491 -5.25324 0.303539 0
M  V30 1659 O 164.517 -5.61213 0.950177 0
M  V30 1660 N 165.719 -5.72779 -0.943651 0
M  V30 1661 H 168.484 -2.54126 1.58871 0
M  V30 1662 H 166.045 -1.29012 0.978143 0
M  V30 1663 H 168.037 -4.02014 -0.465517 0
M  V30 1664 H 166.607 -3.01747 -0.816565 0
M  V30 1665 H 165.827 -3.60306 1.59917 0
M  V30 1666 H 167.115 -4.82048 1.6281 0
M  V30 1667 H 166.513 -5.45762 -1.48862 0
M  V30 1668 H 165.07 -6.37847 -1.34142 0
M  V30 1669 N 168.503 -0.877838 -1.30888 0
M  V30 1670 C 169.733 -0.506678 -2.00291 0
M  V30 1671 C 170.141 0.907449 -1.66018 0
M  V30 1672 O 169.484 1.60719 -0.88967 0
M  V30 1673 C 169.546 -0.59323 -3.54572 0
M  V30 1674 C 169.21 -1.97038 -4.12341 0
M  V30 1675 C 170.207 -2.93889 -4.28865 0
M  V30 1676 C 167.892 -2.27383 -4.47886 0
M  V30 1677 C 169.886 -4.19224 -4.80136 0
M  V30 1678 C 167.573 -3.52965 -4.98857 0
M  V30 1679 C 168.571 -4.48701 -5.14934 0
M  V30 1680 O 168.259 -5.72056 -5.64808 0
M  V30 1681 H 167.991 -0.1951 -0.647234 0
M  V30 1682 H 170.545 -1.18301 -1.6791 0
M  V30 1683 H 168.775 0.140057 -3.86446 0
M  V30 1684 H 170.464 -0.234372 -4.05223 0
M  V30 1685 H 171.23 -2.71756 -4.01714 0
M  V30 1686 H 167.109 -1.53639 -4.34645 0
M  V30 1687 H 170.653 -4.93956 -4.92599 0
M  V30 1688 H 166.55 -3.74939 -5.25443 0
M  V30 1689 H 167.318 -5.74337 -5.83163 0
M  V30 1690 N 169.982 1.44106 -0.638065 0
M  V30 1691 C 171.212 2.06037 -0.152394 0
M  V30 1692 C 171.62 1.47808 1.18108 0
M  V30 1693 O 170.963 0.598092 1.73691 0
M  V30 1694 C 171.025 3.59488 0.0293714 0
M  V30 1695 C 170.689 4.4022 -1.22702 0
M  V30 1696 C 171.686 4.73256 -2.15232 0
M  V30 1697 C 169.371 4.8048 -1.46437 0
M  V30 1698 C 171.365 5.45444 -3.29802 0
M  V30 1699 C 169.052 5.52417 -2.61303 0
M  V30 1700 C 170.05 5.84819 -3.52811 0
M  V30 1701 O 169.738 6.55289 -4.65673 0
M  V30 1702 H 169.47 0.671233 -0.0801401 0
M  V30 1703 H 172.024 1.85851 -0.874563 0
M  V30 1704 H 170.254 3.78191 0.806758 0
M  V30 1705 H 171.943 4.03164 0.470475 0
M  V30 1706 H 172.709 4.42684 -1.98131 0
M  V30 1707 H 168.588 4.54676 -0.760977 0
M  V30 1708 H 172.132 5.70653 -4.01249 0
M  V30 1709 H 168.029 5.82404 -2.78344 0
M  V30 1710 H 168.797 6.73762 -4.64744 0
M  V30 1711 N 171.46 0.379036 1.52974 0
M  V30 1712 C 172.37 -0.468639 2.29872 0
M  V30 1713 C 173.386 -1.08067 1.36373 0
M  V30 1714 O 174.562 -1.08871 1.69438 0
M  V30 1715 C 171.627 -1.58594 3.083 0
M  V30 1716 C 170.688 -1.00007 4.17489 0
M  V30 1717 C 169.921 -2.06413 4.92168 0
M  V30 1718 O 170.144 -3.27751 4.66835 0
M  V30 1719 O 169.078 -1.68717 5.7777 0
M  V30 1720 H 172.904 0.157508 3.03291 0
M  V30 1721 H 170.489 0.143035 1.48714 0
M  V30 1722 H 172.371 -2.23525 3.57232 0
M  V30 1723 H 171.046 -2.19724 2.37703 0
M  V30 1724 H 169.953 -0.314299 3.72777 0
M  V30 1725 H 171.286 -0.433135 4.90291 0
M  V30 1726 N 172.938 -1.57226 0.108567 0
M  V30 1727 C 173.888 -2.11305 -0.856396 0
M  V30 1728 C 174.872 -1.03129 -1.23504 0
M  V30 1729 O 176.064 -1.29381 -1.20787 0
M  V30 1730 C 173.193 -2.70771 -2.11041 0
M  V30 1731 C 172.279 -3.86011 -1.7566 0
M  V30 1732 N 172.67 -4.93492 -1.10902 0
M  V30 1733 C 170.968 -3.95999 -2.05185 0
M  V30 1734 C 171.669 -5.73984 -0.944308 0
M  V30 1735 N 170.645 -5.2346 -1.46596 0
M  V30 1736 H 174.447 -2.91784 -0.352002 0
M  V30 1737 H 171.961 -1.62126 -0.0942324 0
M  V30 1738 H 173.958 -3.07851 -2.81128 0
M  V30 1739 H 172.618 -1.91751 -2.62034 0
M  V30 1740 H 173.629 -5.1208 -0.774235 0
M  V30 1741 H 170.306 -3.28007 -2.58298 0
M  V30 1742 H 171.696 -6.70479 -0.436813 0
M  V30 1743 N 174.416 0.165178 -1.56732 0
M  V30 1744 C 175.348 1.22911 -1.93457 0
M  V30 1745 C 176.361 1.40152 -0.828333 0
M  V30 1746 O 177.55 1.40046 -1.10677 0
M  V30 1747 C 174.65 2.59686 -2.17753 0
M  V30 1748 C 173.823 2.63663 -3.48999 0
M  V30 1749 C 172.882 3.81845 -3.62051 0
M  V30 1750 O 171.908 3.67559 -4.34613 0
M  V30 1751 N 173.11 4.98557 -2.97357 0
M  V30 1752 H 175.875 0.917118 -2.85323 0
M  V30 1753 H 173.436 0.354895 -1.57962 0
M  V30 1754 H 175.428 3.37225 -2.23743 0
M  V30 1755 H 173.998 2.83251 -1.32242 0
M  V30 1756 H 173.218 1.72173 -3.54612 0
M  V30 1757 H 174.506 2.63336 -4.35352 0
M  V30 1758 H 173.904 5.13065 -2.38287 0
M  V30 1759 H 172.461 5.73936 -3.08934 0
M  V30 1760 N 175.894 1.51508 0.433938 0
M  V30 1761 C 177.14 1.64588 1.18484 0
M  V30 1762 C 177.473 0.362666 1.90784 0
M  V30 1763 O 176.748 -0.637892 1.83742 0
M  V30 1764 C 177.031 2.85149 2.19913 0
M  V30 1765 C 176.884 4.23456 1.51674 0
M  V30 1766 C 178.203 3.01227 3.20858 0
M  V30 1767 H 175.322 0.598994 0.429389 0
M  V30 1768 H 177.964 1.84002 0.473647 0
M  V30 1769 H 176.114 2.68729 2.80566 0
M  V30 1770 H 177.786 4.51552 0.943322 0
M  V30 1771 H 176.029 4.25998 0.819035 0
M  V30 1772 H 176.7 5.03812 2.2556 0
M  V30 1773 H 179.176 3.16382 2.70263 0
M  V30 1774 H 178.052 3.87141 3.89118 0
M  V30 1775 H 178.313 2.13447 3.8716 0
M  V30 1776 N 177.372 -0.689602 1.41712 0
M  V30 1777 C 178.621 -1.44534 1.40686 0
M  V30 1778 C 178.934 -1.95588 0.0213352 0
M  V30 1779 O 180.14 -2.71271 -0.111534 0
M  V30 1780 C 178.596 -2.61387 2.47396 0
M  V30 1781 C 178.204 -2.17094 3.91885 0
M  V30 1782 C 179.948 -3.38986 2.55517 0
M  V30 1783 C 177.855 -3.3094 4.90135 0
M  V30 1784 H 176.785 -0.542925 0.52321 0
M  V30 1785 H 179.436 -0.748054 1.6756 0
M  V30 1786 H 177.818 -3.33412 2.13664 0
M  V30 1787 H 178.992 -1.52318 4.34897 0
M  V30 1788 H 177.307 -1.52473 3.8748 0
M  V30 1789 H 179.904 -4.23747 3.26102 0
M  V30 1790 H 180.247 -3.84578 1.59391 0
M  V30 1791 H 180.78 -2.74021 2.8837 0
M  V30 1792 H 177.519 -2.90355 5.87685 0
M  V30 1793 H 177.039 -3.94546 4.51767 0
M  V30 1794 H 178.718 -3.9663 5.11169 0
M  V30 1795 N 178.85 -1.27639 -0.924453 0
M  V30 1796 C 180.098 -1.13941 -1.66918 0
M  V30 1797 C 180.419 0.314589 -1.92446 0
M  V30 1798 O 179.689 1.21964 -1.53303 0
M  V30 1799 H 178.269 -0.418678 -0.618642 0
M  V30 1800 H 180.931 -1.60213 -1.10985 0
M  V30 1801 H 180.027 -1.67094 -2.63602 0
M  V30 1802 N 180.328 1.1314 -1.09713 0
M  V30 1803 C 181.558 1.88048 -0.855656 0
M  V30 1804 C 181.966 1.79537 0.596919 0
M  V30 1805 O 181.309 1.16196 1.42282 0
M  V30 1806 C 181.371 3.38314 -1.21589 0
M  V30 1807 C 181.035 3.70605 -2.67397 0
M  V30 1808 C 182.032 3.69596 -3.65643 0
M  V30 1809 C 179.717 4.0017 -3.03593 0
M  V30 1810 C 181.711 3.977 -4.9811 0
M  V30 1811 C 179.398 4.27935 -4.36251 0
M  V30 1812 C 180.396 4.26685 -5.33318 0
M  V30 1813 O 180.084 4.53767 -6.63589 0
M  V30 1814 H 179.816 0.60208 -0.307368 0
M  V30 1815 H 182.37 1.44128 -1.46343 0
M  V30 1816 H 180.6 3.82752 -0.551177 0
M  V30 1817 H 182.289 3.94552 -0.953083 0
M  V30 1818 H 183.055 3.46826 -3.39023 0
M  V30 1819 H 178.934 4.00289 -2.2867 0
M  V30 1820 H 182.478 3.9664 -5.73866 0
M  V30 1821 H 178.375 4.50178 -4.62613 0
M  V30 1822 H 179.143 4.71422 -6.69107 0
M  V30 1823 N 181.806 0.884767 1.30421 0
M  V30 1824 C 183.222 0.57874 1.48737 0
M  V30 1825 C 183.422 -0.883567 1.81095 0
M  V30 1826 O 182.478 -1.6648 1.89844 0
M  V30 1827 C 183.791 1.49171 2.61091 0
M  V30 1828 C 185.339 1.49532 2.74971 0
M  V30 1829 C 185.814 2.39421 3.90438 0
M  V30 1830 N 187.305 2.37383 3.97748 0
M  V30 1831 C 188.04 3.03647 4.86401 0
M  V30 1832 N 187.536 3.79136 5.79852 0
M  V30 1833 N 189.329 2.9288 4.79768 0
M  V30 1834 H 181.48 1.83075 1.0769 0
M  V30 1835 H 183.743 0.783637 0.533495 0
M  V30 1836 H 183.449 2.53291 2.44001 0
M  V30 1837 H 183.323 1.20113 3.57565 0
M  V30 1838 H 185.71 0.46163 2.91467 0
M  V30 1839 H 185.791 1.8262 1.79119 0
M  V30 1840 H 185.435 3.42874 3.74699 0
M  V30 1841 H 185.365 2.03649 4.85628 0
M  V30 1842 H 187.856 1.82525 3.30897 0
M  V30 1843 H 188.169 4.26789 6.4426 0
M  V30 1844 H 186.514 3.83243 5.79784 0
M  V30 1845 H 189.705 2.33433 4.05742 0
M  V30 1846 H 189.878 3.448 5.4865 0
M  V30 1847 N 183.284 -1.43765 0.645699 0
M  V30 1848 C 184.561 -1.9541 0.0862963 0
M  V30 1849 C 184.941 -1.58725 -1.39175 0
M  V30 1850 O 184.289 -0.868581 -2.11348 0
M  V30 1851 C 184.499 -3.47488 0.324565 0
M  V30 1852 C 185.847 -4.24001 0.225497 0
M  V30 1853 O 186.871 -3.55274 0.256715 0
M  V30 1854 O 185.73 -5.46313 0.142801 0
M  V30 1855 H 182.824 -0.826882 -0.0139483 0
M  V30 1856 H 185.37 -1.53743 0.718415 0
M  V30 1857 H 184.142 -3.67289 1.3496 0
M  V30 1858 H 183.765 -3.96135 -0.340987 0
M  V30 1859 N 184.763 -0.387143 -1.52771 0
M  V30 1860 C 185.726 0.436939 -2.24997 0
M  V30 1861 C 186.726 0.991991 -1.26555 0
M  V30 1862 O 187.916 0.874335 -1.50669 0
M  V30 1863 C 185.048 1.61281 -3.00335 0
M  V30 1864 H 186.241 -0.195365 -2.99263 0
M  V30 1865 H 183.794 -0.139218 -1.55679 0
M  V30 1866 H 184.529 2.2826 -2.30364 0
M  V30 1867 H 184.314 1.22154 -3.72587 0
M  V30 1868 H 185.804 2.19629 -3.5518 0
M  V30 1869 N 186.241 1.57166 -0.116904 0
M  V30 1870 C 187.151 2.18745 0.847812 0
M  V30 1871 C 188.167 1.163 1.29423 0
M  V30 1872 O 189.343 1.48761 1.35765 0
M  V30 1873 C 186.408 2.77307 2.0809 0
M  V30 1874 C 185.469 3.94781 1.68661 0
M  V30 1875 C 184.702 4.50541 2.86091 0
M  V30 1876 O 184.925 4.05202 4.01456 0
M  V30 1877 O 183.859 5.41256 2.63298 0
M  V30 1878 H 187.685 3.01632 0.353778 0
M  V30 1879 H 185.27 1.49005 0.108599 0
M  V30 1880 H 187.152 3.14647 2.80313 0
M  V30 1881 H 185.827 1.97452 2.56504 0
M  V30 1882 H 184.734 3.62214 0.935518 0
M  V30 1883 H 186.067 4.76065 1.24991 0
M  V30 1884 N 187.719 -0.156864 1.56817 0
M  V30 1885 C 188.666 -1.19394 1.97519 0
M  V30 1886 C 189.636 -1.4322 0.841265 0
M  V30 1887 O 190.821 -1.55719 1.10255 0
M  V30 1888 C 187.961 -2.52483 2.35258 0
M  V30 1889 C 187.074 -2.35914 3.61896 0
M  V30 1890 C 186.209 -3.61969 3.88782 0
M  V30 1891 C 185.248 -3.40395 5.08722 0
M  V30 1892 N 184.385 -4.58556 5.31668 0
M  V30 1893 H 189.225 -0.839845 2.85921 0
M  V30 1894 H 186.762 -0.403264 1.41464 0
M  V30 1895 H 188.72 -3.30071 2.55165 0
M  V30 1896 H 187.35 -2.85859 1.49949 0
M  V30 1897 H 186.402 -1.49429 3.49821 0
M  V30 1898 H 187.714 -2.15926 4.49641 0
M  V30 1899 H 186.868 -4.47989 4.09135 0
M  V30 1900 H 185.607 -3.84951 2.9944 0
M  V30 1901 H 184.612 -2.52763 4.88253 0
M  V30 1902 H 185.837 -3.18822 5.99608 0
M  V30 1903 H 183.783 -4.81729 4.45279 0
M  V30 1904 H 183.7 -4.41535 6.13664 0
M  V30 1905 H 184.968 -5.45817 5.5651 0
M  V30 1906 N 189.197 -1.51736 -0.425897 0
M  V30 1907 C 190.145 -1.74464 -1.53834 0
M  V30 1908 C 191.139 -0.611241 -1.57988 0
M  V30 1909 O 192.345 -0.792899 -1.61596 0
M  V30 1910 H 188.72 -0.551437 -0.511293 0
M  V30 1911 H 190.691 -2.67694 -1.31843 0
M  V30 1912 C 189.44 -1.8972 -2.91379 0
M  V30 1913 H 188.763 -2.76344 -2.88919 0
M  V30 1914 H 190.203 -2.09629 -3.68553 0
M  V30 1915 C 188.662 -0.65992 -3.30374 0
M  V30 1916 O 189.192 0.180083 -4.01296 0
M  V30 1917 N 187.398 -0.500677 -2.86254 0
M  V30 1918 H 186.945 -1.18532 -2.28709 0
M  V30 1919 H 186.903 0.325903 -3.12706 0
M  V30 1920 N 190.675 0.682077 -1.42076 0
M  V30 1921 C 191.922 1.44215 -1.42156 0
M  V30 1922 C 192.25 1.94468 -0.0354186 0
M  V30 1923 O 191.505 1.70816 0.955002 0
M  V30 1924 C 191.804 2.66036 -2.38662 0
M  V30 1925 C 191.47 2.34366 -3.85206 0
M  V30 1926 C 190.132 2.25439 -4.25124 0
M  V30 1927 C 192.484 2.08513 -4.77673 0
M  V30 1928 C 189.812 1.88775 -5.55501 0
M  V30 1929 C 192.164 1.73354 -6.08384 0
M  V30 1930 C 190.828 1.62933 -6.47309 0
M  V30 1931 H 190.098 0.527718 -0.520187 0
M  V30 1932 H 192.745 0.778387 -1.74967 0
M  V30 1933 H 191.05 3.3741 -1.99152 0
M  V30 1934 H 192.747 3.24205 -2.35991 0
M  V30 1935 H 189.337 2.42213 -3.53597 0
M  V30 1936 H 193.521 2.14346 -4.47626 0
M  V30 1937 H 188.777 1.7927 -5.84527 0
M  V30 1938 H 192.951 1.52373 -6.79526 0
M  V30 1939 H 190.578 1.34292 -7.48244 0
M  V30 1940 N 192.153 1.28127 0.917671 0
M  V30 1941 C 193.103 1.08361 2.00604 0
M  V30 1942 C 194.087 0.00847518 1.60898 0
M  V30 1943 O 195.279 0.228167 1.75523 0
M  V30 1944 C 192.408 0.743376 3.35155 0
M  V30 1945 C 191.494 1.85716 3.81275 0
M  V30 1946 N 191.885 3.09822 3.99805 0
M  V30 1947 C 190.183 1.74612 4.10398 0
M  V30 1948 C 190.884 3.82368 4.38372 0
M  V30 1949 N 189.86 3.10192 4.4641 0
M  V30 1950 H 193.662 2.02531 2.12975 0
M  V30 1951 H 191.176 1.18989 1.10523 0
M  V30 1952 H 193.173 0.582859 4.12805 0
M  V30 1953 H 191.833 -0.190595 3.2414 0
M  V30 1954 H 192.844 3.45475 3.85833 0
M  V30 1955 H 189.521 0.883657 4.08041 0
M  V30 1956 H 190.911 4.89082 4.60704 0
M  V30 1957 N 193.631 -1.12557 1.10312 0
M  V30 1958 C 194.579 -2.20325 0.745629 0
M  V30 1959 C 195.573 -1.67429 -0.25763 0
M  V30 1960 O 196.779 -1.79612 -0.118132 0
M  V30 1961 H 193.154 -0.718118 0.223182 0
M  V30 1962 H 195.125 -2.47733 1.66346 0
M  V30 1963 C 193.874 -3.47168 0.192262 0
M  V30 1964 H 193.197 -3.88215 0.955475 0
M  V30 1965 H 194.637 -4.23995 -0.0198274 0
M  V30 1966 C 193.096 -3.19298 -1.07472 0
M  V30 1967 O 193.626 -3.3891 -2.15645 0
M  V30 1968 N 191.832 -2.73113 -0.992847 0
M  V30 1969 H 191.379 -2.57354 -0.112474 0
M  V30 1970 H 191.337 -2.54842 -1.84127 0
M  V30 1971 N 195.109 -0.891671 -1.2995 0
M  V30 1972 C 196.358 -0.509521 -1.95158 0
M  V30 1973 C 196.671 0.947388 -1.71125 0
M  V30 1974 O 197.877 1.43669 -2.30372 0
M  V30 1975 C 196.333 -0.860315 -3.49466 0
M  V30 1976 C 195.941 -2.33545 -3.8231 0
M  V30 1977 C 197.685 -0.547687 -4.20952 0
M  V30 1978 C 195.592 -2.62752 -5.29826 0
M  V30 1979 H 194.522 -0.18682 -0.730489 0
M  V30 1980 H 197.173 -1.08756 -1.47798 0
M  V30 1981 H 195.555 -0.211285 -3.95436 0
M  V30 1982 H 196.729 -3.02936 -3.47227 0
M  V30 1983 H 195.044 -2.61629 -3.23944 0
M  V30 1984 H 197.641 -0.742854 -5.29515 0
M  V30 1985 H 197.984 0.51332 -4.13123 0
M  V30 1986 H 198.517 -1.1542 -3.80688 0
M  V30 1987 H 195.256 -3.6762 -5.42712 0
M  V30 1988 H 194.776 -1.97977 -5.66185 0
M  V30 1989 H 196.455 -2.48601 -5.97333 0
M  V30 1990 N 196.587 1.43421 -0.653314 0
M  V30 1991 C 197.812 2.06678 -0.172846 0
M  V30 1992 C 198.237 1.48648 1.15262 0
M  V30 1993 O 197.595 0.596457 1.71208 0
M  V30 1994 C 197.643 3.60474 -0.0953184 0
M  V30 1995 O 196.747 4.01487 0.942442 0
M  V30 1996 H 196.088 0.657181 -0.0949155 0
M  V30 1997 H 198.618 1.83925 -0.896265 0
M  V30 1998 H 198.628 4.07905 0.0879728 0
M  V30 1999 H 197.303 4.02088 -1.06291 0
M  V30 2000 H 195.88 3.65646 0.731932 0
M  V30 2001 N 198.065 0.39524 1.52563 0
M  V30 2002 C 199.013 -0.451859 2.28169 0
M  V30 2003 C 200.007 -1.05792 1.32304 0
M  V30 2004 O 201.213 -0.997718 1.49818 0
M  V30 2005 H 197.588 -0.164481 0.733792 0
M  V30 2006 H 199.559 0.207199 2.9768 0
M  V30 2007 C 198.308 -1.56385 3.10546 0
M  V30 2008 H 197.631 -1.10682 3.84174 0
M  V30 2009 H 199.071 -2.13067 3.66577 0
M  V30 2010 C 197.53 -2.52328 2.23231 0
M  V30 2011 O 198.06 -3.5588 1.86312 0
M  V30 2012 N 196.266 -2.22209 1.87274 0
M  V30 2013 H 195.813 -1.38033 2.17496 0
M  V30 2014 H 195.771 -2.86652 1.29143 0
M  V30 2015 N 199.544 -1.57102 0.125237 0
M  V30 2016 C 200.96 -1.57915 -0.231322 0
M  V30 2017 C 201.16 -1.13833 -1.66266 0
M  V30 2018 O 200.216 -0.828581 -2.38518 0
M  V30 2019 C 201.529 -3.00699 0.00766489 0
M  V30 2020 C 203.077 -3.12947 -0.0577483 0
M  V30 2021 C 203.552 -4.57742 0.153626 0
M  V30 2022 N 205.043 -4.63092 0.0998073 0
M  V30 2023 C 205.778 -5.72905 0.238174 0
M  V30 2024 N 205.274 -6.91445 0.433057 0
M  V30 2025 N 207.067 -5.6182 0.177308 0
M  V30 2026 H 199.218 -1.84055 1.06007 0
M  V30 2027 H 201.481 -0.850905 0.417929 0
M  V30 2028 H 201.187 -3.3726 0.997431 0
M  V30 2029 H 201.061 -3.70236 -0.721452 0
M  V30 2030 H 203.448 -2.7624 -1.03804 0
M  V30 2031 H 203.529 -2.4594 0.70335 0
M  V30 2032 H 203.173 -4.95149 1.13092 0
M  V30 2033 H 203.103 -5.22848 -0.627534 0
M  V30 2034 H 205.594 -3.77871 -0.047051 0
M  V30 2035 H 205.907 -7.70985 0.529332 0
M  V30 2036 H 204.252 -6.93415 0.469109 0
M  V30 2037 H 207.443 -4.68093 0.0259748 0
M  V30 2038 H 207.616 -6.47357 0.288582 0
M  V30 2039 N 201.022 0.148545 -1.56898 0
M  V30 2040 C 202.262 0.86765 -1.85071 0
M  V30 2041 C 202.626 1.78417 -0.709317 0
M  V30 2042 O 203.827 2.54261 -0.872049 0
M  V30 2043 C 202.098 1.62306 -3.1842 0
M  V30 2044 S 203.657 2.3878 -3.68143 0
M  V30 2045 H 200.475 0.290174 -0.649092 0
M  V30 2046 H 203.077 0.127755 -1.95082 0
M  V30 2047 H 201.781 0.941192 -3.99462 0
M  V30 2048 H 201.312 2.4039 -3.1141 0
M  V30 2049 H 203.327 3.63942 -3.37285 0
M  V30 2050 N 202.5 1.5196 0.417844 0
M  V30 2051 C 203.725 1.69717 1.1921 0
M  V30 2052 C 204.15 0.402148 1.83751 0
M  V30 2053 O 203.508 -0.639593 1.69643 0
M  V30 2054 C 203.556 2.82794 2.2374 0
M  V30 2055 O 202.66 2.47756 3.29683 0
M  V30 2056 H 202.001 0.565263 0.348387 0
M  V30 2057 H 204.531 1.98621 0.490985 0
M  V30 2058 H 204.541 3.07452 2.68212 0
M  V30 2059 H 203.216 3.76756 1.76146 0
M  V30 2060 H 201.793 2.33739 2.90552 0
M  V30 2061 N 203.978 -0.674533 1.42435 0
M  V30 2062 C 205.208 -1.46071 1.46105 0
M  V30 2063 C 205.616 -1.89067 0.0709605 0
M  V30 2064 O 204.959 -1.58731 -0.924677 0
M  V30 2065 C 205.021 -2.74145 2.32561 0
M  V30 2066 C 204.685 -2.53224 3.8043 0
M  V30 2067 C 205.682 -2.17809 4.72075 0
M  V30 2068 C 203.367 -2.6821 4.24698 0
M  V30 2069 C 205.361 -1.97648 6.05982 0
M  V30 2070 C 203.048 -2.47665 5.58664 0
M  V30 2071 C 204.046 -2.12437 6.49122 0
M  V30 2072 O 203.734 -1.9209 7.80613 0
M  V30 2073 H 203.466 -0.455959 0.499076 0
M  V30 2074 H 206.02 -0.836193 1.87609 0
M  V30 2075 H 204.25 -3.3908 1.85908 0
M  V30 2076 H 205.939 -3.36028 2.27683 0
M  V30 2077 H 206.705 -2.05826 4.39159 0
M  V30 2078 H 202.584 -2.94609 3.54579 0
M  V30 2079 H 206.128 -1.70075 6.7655 0
M  V30 2080 H 202.025 -2.59244 5.91154 0
M  V30 2081 H 202.793 -2.06686 7.91974 0
M  V30 2082 N 205.456 -1.28612 -0.910864 0
M  V30 2083 C 206.419 -1.12803 -1.9952 0
M  V30 2084 C 207.419 -0.0668264 -1.60661 0
M  V30 2085 O 208.609 -0.312847 -1.71368 0
M  V30 2086 C 205.741 -0.72254 -3.33155 0
M  V30 2087 H 206.934 -2.09109 -2.14973 0
M  V30 2088 H 204.487 -1.11639 -1.09391 0
M  V30 2089 H 205.222 0.241152 -3.23402 0
M  V30 2090 H 205.007 -1.48916 -3.62721 0
M  V30 2091 H 206.497 -0.634666 -4.12749 0
M  V30 2092 N 206.934 1.1197 -1.10907 0
M  V30 2093 C 208.211 1.79959 -0.766432 0
M  V30 2094 C 208.591 1.97466 0.746363 0
M  V30 2095 O 207.939 1.55491 1.67436 0
M  V30 2096 C 208.149 3.14009 -1.52314 0
M  V30 2097 C 209.497 3.89134 -1.69883 0
M  V30 2098 O 210.521 3.2368 -1.48692 0
M  V30 2099 O 209.38 5.06572 -2.05054 0
M  V30 2100 H 206.474 0.779208 -0.277062 0
M  V30 2101 H 209.02 1.18762 -1.21217 0
M  V30 2102 H 207.792 2.96587 -2.55249 0
M  V30 2103 H 207.415 3.82915 -1.07059 0
M  V30 2104 N 208.412 0.89855 1.29475 0
M  V30 2105 C 209.362 0.346767 2.25348 0
M  V30 2106 C 210.346 -0.532509 1.51833 0
M  V30 2107 O 211.538 -0.374714 1.72988 0
M  V30 2108 C 208.667 -0.425681 3.40651 0
M  V30 2109 C 207.753 0.46845 4.21505 0
M  V30 2110 N 208.144 1.57514 4.80648 0
M  V30 2111 C 206.442 0.26603 4.45206 0
M  V30 2112 C 207.143 2.12889 5.41344 0
M  V30 2113 N 206.119 1.42208 5.24669 0
M  V30 2114 H 209.921 1.19219 2.68634 0
M  V30 2115 H 207.435 0.749473 1.44072 0
M  V30 2116 H 209.432 -0.837716 4.08397 0
M  V30 2117 H 208.092 -1.26838 2.98902 0
M  V30 2118 H 209.103 1.95789 4.79465 0
M  V30 2119 H 205.78 -0.538394 4.14014 0
M  V30 2120 H 207.17 3.05901 5.98226 0
M  V30 2121 N 209.89 -1.43072 0.660911 0
M  V30 2122 C 211.115 -2.06584 0.183805 0
M  V30 2123 C 211.54 -1.49257 -1.14472 0
M  V30 2124 O 210.898 -0.605528 -1.70889 0
M  V30 2125 C 210.946 -3.60418 0.114434 0
M  V30 2126 O 210.05 -4.01981 -0.921137 0
M  V30 2127 H 209.391 -0.656669 0.0983994 0
M  V30 2128 H 211.921 -1.83447 0.906006 0
M  V30 2129 H 211.931 -4.07946 -0.0663394 0
M  V30 2130 H 210.606 -4.01519 1.08422 0
M  V30 2131 H 209.183 -3.66029 -0.71253 0
M  V30 2132 N 211.368 -0.403325 -1.52352 0
M  V30 2133 C 212.316 0.439752 -2.28405 0
M  V30 2134 C 213.31 1.05089 -1.32863 0
M  V30 2135 O 214.516 0.989759 -1.50345 0
M  V30 2136 H 210.891 0.160587 -0.734653 0
M  V30 2137 H 212.862 -0.222983 -2.97566 0
M  V30 2138 C 211.611 1.54736 -3.11371 0
M  V30 2139 H 210.934 1.08643 -3.84755 0
M  V30 2140 H 212.374 2.1112 -3.67701 0
M  V30 2141 C 210.833 2.51141 -2.24566 0
M  V30 2142 O 211.363 3.54887 -1.88196 0
M  V30 2143 N 209.569 2.21213 -1.8845 0
M  V30 2144 H 209.116 1.36878 -2.18225 0
M  V30 2145 H 209.074 2.85963 -1.30662 0
M  V30 2146 N 212.846 1.57033 -0.133567 0
M  V30 2147 C 213.793 2.16074 0.811208 0
M  V30 2148 C 214.763 1.08979 1.2535 0
M  V30 2149 O 215.948 1.36958 1.32843 0
M  V30 2150 C 213.088 2.77595 2.05024 0
M  V30 2151 C 212.201 3.99042 1.65498 0
M  V30 2152 C 211.336 4.48603 2.84479 0
M  V30 2153 C 210.375 5.62547 2.41262 0
M  V30 2154 N 209.512 6.06787 3.53206 0
M  V30 2155 H 214.352 2.96477 0.300906 0
M  V30 2156 H 211.889 1.46462 0.136822 0
M  V30 2157 H 213.847 3.11402 2.77642 0
M  V30 2158 H 212.477 1.99859 2.53488 0
M  V30 2159 H 211.529 3.71302 0.826981 0
M  V30 2160 H 212.841 4.81629 1.29748 0
M  V30 2161 H 211.995 4.84395 3.65303 0
M  V30 2162 H 210.734 3.64995 3.23465 0
M  V30 2163 H 209.739 5.26345 1.58874 0
M  V30 2164 H 210.964 6.47931 2.03377 0
M  V30 2165 H 208.91 5.26117 3.91838 0
M  V30 2166 H 208.827 6.84266 3.21427 0
M  V30 2167 H 210.095 6.4722 4.34427 0
M  V30 2168 N 214.325 -0.140222 1.56975 0
M  V30 2169 C 215.235 -1.19223 2.02047 0
M  V30 2170 C 216.251 -1.46612 0.937062 0
M  V30 2171 O 217.427 -1.58148 1.24704 0
M  V30 2172 C 214.492 -2.50414 2.39778 0
M  V30 2173 C 213.553 -2.30612 3.621 0
M  V30 2174 C 212.786 -3.55547 3.98023 0
M  V30 2175 O 213.009 -4.62004 3.34528 0
M  V30 2176 O 211.943 -3.47808 4.91237 0
M  V30 2177 H 215.769 -0.839559 2.91865 0
M  V30 2178 H 213.354 -0.349453 1.45256 0
M  V30 2179 H 215.236 -3.27747 2.64877 0
M  V30 2180 H 213.911 -2.85198 1.53114 0
M  V30 2181 H 212.818 -1.51207 3.4218 0
M  V30 2182 H 214.151 -2.00741 4.49404 0
M  V30 2183 N 215.803 -1.52179 -0.40978 0
M  V30 2184 C 216.713 -1.78364 -1.52392 0
M  V30 2185 C 217.729 -0.669183 -1.60617 0
M  V30 2186 O 218.905 -0.954518 -1.77344 0
M  V30 2187 C 215.97 -1.92822 -2.88133 0
M  V30 2188 C 215.031 -3.16725 -2.898 0
M  V30 2189 C 214.264 -3.30483 -4.19067 0
M  V30 2190 O 214.487 -2.49522 -5.12928 0
M  V30 2191 O 213.421 -4.2363 -4.27576 0
M  V30 2192 H 217.247 -2.72931 -1.33201 0
M  V30 2193 H 214.832 -1.37016 -0.59557 0
M  V30 2194 H 216.714 -2.04157 -3.68643 0
M  V30 2195 H 215.389 -1.01444 -3.07393 0
M  V30 2196 H 214.296 -3.10848 -2.08146 0
M  V30 2197 H 215.629 -4.07881 -2.75489 0
M  V30 2198 N 217.281 0.66697 -1.42791 0
M  V30 2199 C 218.53 1.42278 -1.42968 0
M  V30 2200 C 218.843 1.9553 -0.0524489 0
M  V30 2201 O 220.049 2.71414 0.068363 0
M  V30 2202 C 218.505 2.57418 -2.51524 0
M  V30 2203 C 218.113 2.10832 -3.9529 0
M  V30 2204 C 219.857 3.34878 -2.60877 0
M  V30 2205 C 217.764 3.23101 -4.95338 0
M  V30 2206 H 216.694 0.534533 -0.531781 0
M  V30 2207 H 219.345 0.721302 -1.68729 0
M  V30 2208 H 217.727 3.29971 -2.18941 0
M  V30 2209 H 218.901 1.4538 -4.37266 0
M  V30 2210 H 217.216 1.46289 -3.89857 0
M  V30 2211 H 219.813 4.18505 -3.32802 0
M  V30 2212 H 220.156 3.81993 -1.6549 0
M  V30 2213 H 220.689 2.69398 -2.92693 0
M  V30 2214 H 217.428 2.80969 -5.9223 0
M  V30 2215 H 216.948 3.87309 -4.57987 0
M  V30 2216 H 218.627 3.88447 -5.17415 0
M  V30 2217 N 218.759 1.29093 0.90403 0
M  V30 2218 C 219.669 1.15727 2.0407 0
M  V30 2219 C 220.685 0.0815308 1.73809 0
M  V30 2220 O 221.861 0.292749 1.99261 0
M  V30 2221 C 218.926 0.830424 3.36608 0
M  V30 2222 C 217.987 1.98955 3.80415 0
M  V30 2223 C 217.22 1.6782 5.06628 0
M  V30 2224 O 217.443 0.597105 5.67266 0
M  V30 2225 O 216.377 2.52486 5.46383 0
M  V30 2226 H 220.203 2.11171 2.18267 0
M  V30 2227 H 217.788 1.08504 1.027 0
M  V30 2228 H 219.67 0.662521 4.16159 0
M  V30 2229 H 218.345 -0.0942678 3.23563 0
M  V30 2230 H 217.252 2.21267 3.01648 0
M  V30 2231 H 218.585 2.89529 3.98037 0
M  V30 2232 N 220.237 -1.11381 1.11499 0
M  V30 2233 C 221.514 -1.7955 0.775965 0
M  V30 2234 C 221.894 -1.97859 -0.73588 0
M  V30 2235 O 221.242 -1.56376 -1.66609 0
M  V30 2236 C 221.452 -3.13196 1.53977 0
M  V30 2237 C 222.8 -3.88227 1.71944 0
M  V30 2238 O 223.824 -3.22887 1.50407 0
M  V30 2239 O 222.683 -5.05477 2.07738 0
M  V30 2240 H 219.777 -0.777728 0.28119 0
M  V30 2241 H 222.323 -1.18118 1.21845 0
M  V30 2242 H 221.095 -2.95229 2.56818 0
M  V30 2243 H 220.718 -3.82342 1.09088 0
M  V30 2244 N 221.715 -0.905404 -1.28997 0
M  V30 2245 C 222.961 -0.535039 -1.95615 0
M  V30 2246 C 223.294 0.917404 -1.71165 0
M  V30 2247 O 222.569 1.65123 -1.02785 0
M  V30 2248 C 222.852 -0.834918 -3.50287 0
M  V30 2249 C 222.705 -2.33948 -3.84172 0
M  V30 2250 C 224.024 -0.325318 -4.38896 0
M  V30 2251 H 221.143 -0.195861 -0.710498 0
M  V30 2252 H 223.785 -1.13313 -1.52513 0
M  V30 2253 H 221.935 -0.325904 -3.87131 0
M  V30 2254 H 223.607 -2.91847 -3.57243 0
M  V30 2255 H 221.85 -2.79789 -3.31513 0
M  V30 2256 H 222.521 -2.49987 -4.92149 0
M  V30 2257 H 224.997 -0.761256 -4.09077 0
M  V30 2258 H 223.873 -0.564295 -5.45992 0
M  V30 2259 H 224.134 0.774144 -4.35269 0
M  V30 2260 N 223.193 1.4272 -0.668489 0
M  V30 2261 C 224.418 2.06484 -0.194758 0
M  V30 2262 C 224.843 1.49862 1.13679 0
M  V30 2263 O 224.201 0.614582 1.70565 0
M  V30 2264 C 224.249 3.60353 -0.133546 0
M  V30 2265 O 223.353 4.02464 0.899806 0
M  V30 2266 H 222.694 0.656137 -0.10188 0
M  V30 2267 H 225.224 1.82964 -0.915722 0
M  V30 2268 H 225.234 4.07976 0.0447041 0
M  V30 2269 H 223.909 4.00938 -1.1055 0
M  V30 2270 H 222.486 3.66402 0.693109 0
M  V30 2271 N 224.671 0.411399 1.52136 0
M  V30 2272 C 225.919 -0.163322 2.01439 0
M  V30 2273 C 226.24 -1.45453 1.29879 0
M  V30 2274 O 225.51 -1.91225 0.4254 0
M  V30 2275 H 224.09 -0.0633447 0.744309 0
M  V30 2276 H 226.752 0.548161 1.87033 0
M  V30 2277 H 225.848 -0.357817 3.10042 0
M  V30 2278 N 226.149 -1.5696 0.141893 0
M  V30 2279 C 227.398 -1.95135 -0.510427 0
M  V30 2280 C 227.711 -1.02896 -1.66348 0
M  V30 2281 O 228.917 -1.30629 -2.38009 0
M  V30 2282 C 227.373 -3.46876 -0.959427 0
M  V30 2283 C 226.981 -4.47691 0.166419 0
M  V30 2284 C 228.725 -3.93927 -1.58183 0
M  V30 2285 C 226.632 -5.90636 -0.300565 0
M  V30 2286 H 225.562 -0.728494 -0.194454 0
M  V30 2287 H 228.213 -1.8211 0.22542 0
M  V30 2288 H 226.595 -3.55215 -1.75038 0
M  V30 2289 H 227.769 -4.51043 0.94325 0
M  V30 2290 H 226.084 -4.10527 0.696905 0
M  V30 2291 H 228.681 -4.98158 -1.94275 0
M  V30 2292 H 229.024 -3.3519 -2.46888 0
M  V30 2293 H 229.557 -3.88484 -0.855863 0
M  V30 2294 H 226.296 -6.5318 0.550989 0
M  V30 2295 H 225.816 -5.90655 -1.04338 0
M  V30 2296 H 227.495 -6.42588 -0.754265 0
M  V30 2297 N 227.627 0.131896 -1.57047 0
M  V30 2298 C 228.557 1.16384 -2.02428 0
M  V30 2299 C 229.538 1.43936 -0.90644 0
M  V30 2300 O 230.723 1.54599 -1.17528 0
M  V30 2301 C 227.853 2.49328 -2.4177 0
M  V30 2302 C 226.807 2.36266 -3.56879 0
M  V30 2303 C 226.133 3.74057 -3.8208 0
M  V30 2304 C 227.433 1.834 -4.89042 0
M  V30 2305 H 229.127 0.786433 -2.88887 0
M  V30 2306 H 226.673 0.376855 -1.38981 0
M  V30 2307 H 228.626 3.21759 -2.7212 0
M  V30 2308 H 227.35 2.88934 -1.52266 0
M  V30 2309 H 226.009 1.66286 -3.26718 0
M  V30 2310 H 225.657 4.11125 -2.89803 0
M  V30 2311 H 225.357 3.66174 -4.59554 0
M  V30 2312 H 226.881 4.48012 -4.1487 0
M  V30 2313 H 228.295 2.45636 -5.18011 0
M  V30 2314 H 226.692 1.8637 -5.70426 0
M  V30 2315 H 227.762 0.790662 -4.7841 0
M  V30 2316 N 229.106 1.52395 0.401703 0
M  V30 2317 C 230.038 1.72505 1.50912 0
M  V30 2318 C 231.051 0.605468 1.51122 0
M  V30 2319 O 232.24 0.880828 1.55254 0
M  V30 2320 C 229.34 1.75711 2.89791 0
M  V30 2321 C 228.513 3.04824 3.1369 0
M  V30 2322 C 227.572 2.99743 4.32482 0
M  V30 2323 O 226.598 3.73635 4.29402 0
M  V30 2324 N 227.8 2.18047 5.37992 0
M  V30 2325 H 230.565 2.68049 1.34052 0
M  V30 2326 H 228.126 1.50724 0.591084 0
M  V30 2327 H 230.118 1.69834 3.6734 0
M  V30 2328 H 228.688 0.876092 3.00072 0
M  V30 2329 H 227.908 3.2429 2.24119 0
M  V30 2330 H 229.196 3.90221 3.26504 0
M  V30 2331 H 228.594 1.57456 5.43345 0
M  V30 2332 H 227.151 2.18021 6.14256 0
M  V30 2333 N 230.584 -0.659388 1.43143 0
M  V30 2334 C 231.824 -1.43121 1.45931 0
M  V30 2335 C 232.188 -1.91838 0.0789298 0
M  V30 2336 O 233.389 -2.68794 -0.018491 0
M  V30 2337 C 231.66 -2.58534 2.46769 0
M  V30 2338 S 233.219 -3.47154 2.68384 0
M  V30 2339 H 230.037 -0.488624 0.516496 0
M  V30 2340 H 232.639 -0.766128 1.79863 0
M  V30 2341 H 231.343 -2.21007 3.45809 0
M  V30 2342 H 230.874 -3.29898 2.14315 0
M  V30 2343 H 232.889 -4.55051 1.97845 0
M  V30 2344 N 232.062 -1.29571 -0.897171 0
M  V30 2345 C 233.29 -1.20583 -1.68129 0
M  V30 2346 C 233.705 0.233181 -1.87354 0
M  V30 2347 O 233.062 1.15579 -1.41236 0
M  V30 2348 C 233.113 -1.91772 -3.06441 0
M  V30 2349 O 232.834 -3.30053 -2.88091 0
M  V30 2350 C 234.335 -1.89291 -4.00854 0
M  V30 2351 H 231.555 -0.417826 -0.525036 0
M  V30 2352 H 234.099 -1.70987 -1.12177 0
M  V30 2353 H 232.254 -1.45196 -3.59161 0
M  V30 2354 H 232.668 -3.65942 -3.75748 0
M  V30 2355 H 234.142 -2.43662 -4.95311 0
M  V30 2356 H 234.619 -0.869014 -4.30517 0
M  V30 2357 H 235.225 -2.35622 -3.54066 0
M  V30 2358 N 233.54 1.10788 -1.12088 0
M  V30 2359 C 234.503 2.15207 -0.788577 0
M  V30 2360 C 235.503 1.59609 0.195317 0
M  V30 2361 O 236.693 1.74174 -0.0300193 0
M  V30 2362 C 233.825 3.4047 -0.171174 0
M  V30 2363 H 235.018 2.46116 -1.71368 0
M  V30 2364 H 232.571 1.26089 -0.923652 0
M  V30 2365 H 233.306 3.15176 0.763832 0
M  V30 2366 H 233.091 3.82109 -0.879514 0
M  V30 2367 H 234.581 4.17576 0.04496 0
M  V30 2368 N 235.018 0.912232 1.28515 0
M  V30 2369 C 235.966 0.389597 2.29314 0
M  V30 2370 C 236.96 -0.517915 1.61289 0
M  V30 2371 O 238.166 -0.399328 1.75515 0
M  V30 2372 H 234.541 0.107386 0.744293 0
M  V30 2373 H 236.512 1.25286 2.70825 0
M  V30 2374 C 235.261 -0.356496 3.45868 0
M  V30 2375 H 234.584 0.332608 3.98414 0
M  V30 2376 H 236.024 -0.686851 4.184 0
M  V30 2377 C 234.483 -1.56383 2.98406 0
M  V30 2378 O 235.013 -2.66294 3.00749 0
M  V30 2379 N 233.219 -1.41029 2.54085 0
M  V30 2380 H 232.766 -0.516089 2.52377 0
M  V30 2381 H 232.724 -2.21939 2.22689 0
M  V30 2382 N 236.496 -1.42363 0.676048 0
M  V30 2383 C 237.745 -2.00745 0.196037 0
M  V30 2384 C 238.058 -1.54083 -1.20489 0
M  V30 2385 O 239.264 -2.04891 -1.78134 0
M  V30 2386 C 237.72 -3.58651 0.299616 0
M  V30 2387 C 237.328 -4.143 1.70468 0
M  V30 2388 C 239.072 -4.24326 -0.121619 0
M  V30 2389 C 236.979 -5.64574 1.76096 0
M  V30 2390 H 235.909 -0.750787 0.0695301 0
M  V30 2391 H 238.56 -1.63072 0.841412 0
M  V30 2392 H 236.942 -3.93833 -0.413673 0
M  V30 2393 H 238.116 -3.90575 2.44515 0
M  V30 2394 H 236.431 -3.61081 2.07387 0
M  V30 2395 H 239.028 -5.34607 -0.0997362 0
M  V30 2396 H 239.371 -3.99897 -1.15708 0
M  V30 2397 H 239.904 -3.94108 0.540706 0
M  V30 2398 H 236.643 -5.93804 2.77628 0
M  V30 2399 H 236.163 -5.90286 1.06406 0
M  V30 2400 H 237.842 -6.29013 1.51496 0
M  V30 2401 N 237.974 -0.419461 -1.51915 0
M  V30 2402 C 238.904 0.391813 -2.30189 0
M  V30 2403 C 239.885 1.03699 -1.34836 0
M  V30 2404 O 241.07 1.04403 -1.63748 0
M  V30 2405 C 238.2 1.50312 -3.13087 0
M  V30 2406 C 237.154 0.9824 -4.16573 0
M  V30 2407 C 236.48 2.18809 -4.8788 0
M  V30 2408 C 237.78 0.0292356 -5.22292 0
M  V30 2409 H 239.474 -0.26135 -2.98257 0
M  V30 2410 H 237.02 -0.127134 -1.43438 0
M  V30 2411 H 238.973 2.07773 -3.66617 0
M  V30 2412 H 237.697 2.18431 -2.42807 0
M  V30 2413 H 236.356 0.430119 -3.64068 0
M  V30 2414 H 236.004 2.85507 -4.14119 0
M  V30 2415 H 235.704 1.84615 -5.57845 0
M  V30 2416 H 237.228 2.76858 -5.44226 0
M  V30 2417 H 238.642 0.512976 -5.71 0
M  V30 2418 H 237.039 -0.2244 -5.9968 0
M  V30 2419 H 238.109 -0.912931 -4.76228 0
M  V30 2420 N 239.452 1.56882 -0.150215 0
M  V30 2421 C 240.7 1.9584 0.499105 0
M  V30 2422 C 241.021 1.03623 1.65188 0
M  V30 2423 O 240.291 0.0984084 1.95653 0
M  V30 2424 H 238.871 0.723119 0.187373 0
M  V30 2425 H 241.533 1.9358 -0.226466 0
M  V30 2426 H 240.629 2.99638 0.873122 0
M  V30 2427 N 240.93 -0.123565 1.57115 0
M  V30 2428 C 241.86 -1.15309 2.03042 0
M  V30 2429 C 242.841 -1.43454 0.914061 0
M  V30 2430 O 244.026 -1.53973 1.18347 0
M  V30 2431 C 241.156 -2.48043 2.43089 0
M  V30 2432 C 240.11 -2.3437 3.58127 0
M  V30 2433 C 239.436 -3.72026 3.84059 0
M  V30 2434 C 240.736 -1.80804 4.90007 0
M  V30 2435 H 242.43 -0.771102 2.893 0
M  V30 2436 H 239.976 -0.369479 1.39179 0
M  V30 2437 H 241.929 -3.20311 2.73823 0
M  V30 2438 H 240.653 -2.88122 1.53796 0
M  V30 2439 H 239.312 -1.64551 3.27595 0
M  V30 2440 H 238.96 -4.09582 2.91979 0
M  V30 2441 H 238.66 -3.63732 4.6149 0
M  V30 2442 H 240.184 -4.45806 4.1724 0
M  V30 2443 H 241.598 -2.42886 5.19307 0
M  V30 2444 H 239.995 -1.83343 5.71407 0
M  V30 2445 H 241.065 -0.76528 4.78823 0
M  V30 2446 N 242.408 -1.52605 -0.393616 0
M  V30 2447 C 243.355 -1.77055 -1.48054 0
M  V30 2448 C 244.325 -0.61358 -1.54352 0
M  V30 2449 O 245.51 -0.852806 -1.70681 0
M  V30 2450 C 242.65 -1.94108 -2.85335 0
M  V30 2451 C 241.763 -3.21792 -2.88226 0
M  V30 2452 C 240.898 -3.29188 -4.16904 0
M  V30 2453 C 239.937 -4.51013 -4.13828 0
M  V30 2454 N 239.074 -4.55716 -5.34105 0
M  V30 2455 H 243.914 -2.69815 -1.26506 0
M  V30 2456 H 241.451 -1.33683 -0.61379 0
M  V30 2457 H 243.409 -2.01979 -3.65049 0
M  V30 2458 H 242.039 -1.04713 -3.05344 0
M  V30 2459 H 241.091 -3.23015 -2.00911 0
M  V30 2460 H 242.403 -4.11557 -2.8182 0
M  V30 2461 H 241.557 -3.36216 -5.05018 0
M  V30 2462 H 240.296 -2.37389 -4.26026 0
M  V30 2463 H 239.301 -4.44115 -3.24102 0
M  V30 2464 H 240.526 -5.44123 -4.06333 0
M  V30 2465 H 238.472 -3.66807 -5.43865 0
M  V30 2466 H 238.389 -5.39346 -5.29756 0
M  V30 2467 H 239.657 -4.66993 -6.2413 0
M  V30 2468 N 243.887 0.651787 -1.4349 0
M  V30 2469 C 245.134 1.41167 -1.45183 0
M  V30 2470 C 245.462 1.94349 -0.0766601 0
M  V30 2471 O 244.717 1.72804 0.918555 0
M  V30 2472 C 245.016 2.60914 -2.44251 0
M  V30 2473 C 244.682 2.26142 -3.9009 0
M  V30 2474 C 243.344 2.16371 -4.2981 0
M  V30 2475 C 245.696 1.98334 -4.81989 0
M  V30 2476 C 243.024 1.7695 -5.5938 0
M  V30 2477 C 245.376 1.6041 -6.11924 0
M  V30 2478 C 244.04 1.49166 -6.5062 0
M  V30 2479 H 243.31 0.516566 -0.531263 0
M  V30 2480 H 245.957 0.741099 -1.76579 0
M  V30 2481 H 244.262 3.3311 -2.06265 0
M  V30 2482 H 245.959 3.19127 -2.42815 0
M  V30 2483 H 242.549 2.34658 -3.58655 0
M  V30 2484 H 246.733 2.04803 -4.52072 0
M  V30 2485 H 241.989 1.66831 -5.88198 0
M  V30 2486 H 246.163 1.37925 -6.82605 0
M  V30 2487 H 243.79 1.1839 -7.50925 0
M  V30 2488 N 245.365 1.30045 0.890287 0
M  V30 2489 C 246.275 1.17885 2.02831 0
M  V30 2490 C 247.291 0.0999609 1.73713 0
M  V30 2491 O 248.467 0.313867 1.98939 0
M  V30 2492 C 245.532 0.866079 3.35708 0
M  V30 2493 C 244.593 2.02979 3.78283 0
M  V30 2494 C 243.826 1.73184 5.0482 0
M  V30 2495 O 244.049 0.657237 5.66601 0
M  V30 2496 O 242.983 2.58267 5.43674 0
M  V30 2497 H 246.809 2.13474 2.16015 0
M  V30 2498 H 244.394 1.09587 1.01543 0
M  V30 2499 H 246.276 0.706623 4.15433 0
M  V30 2500 H 244.951 -0.0599443 3.23644 0
M  V30 2501 H 243.858 2.24454 2.99285 0
M  V30 2502 H 245.191 2.93734 3.94944 0
M  V30 2503 N 246.843 -1.10192 1.12674 0
M  V30 2504 C 247.753 -2.20172 0.810026 0
M  V30 2505 C 248.769 -1.72821 -0.202188 0
M  V30 2506 O 249.945 -2.01369 -0.0351691 0
M  V30 2507 C 247.01 -3.45631 0.272007 0
M  V30 2508 C 246.071 -4.07704 1.34447 0
M  V30 2509 C 245.304 -5.27175 0.832029 0
M  V30 2510 O 245.527 -5.69425 -0.333284 0
M  V30 2511 O 244.461 -5.80168 1.60277 0
M  V30 2512 H 248.287 -2.49701 1.72867 0
M  V30 2513 H 245.872 -1.18977 0.903597 0
M  V30 2514 H 247.754 -4.21394 -0.0230219 0
M  V30 2515 H 246.429 -3.17723 -0.619164 0
M  V30 2516 H 245.336 -3.33614 1.6927 0
M  V30 2517 H 246.669 -4.3982 2.2095 0
M  V30 2518 N 248.321 -0.919034 -1.28029 0
M  V30 2519 C 249.57 -0.550802 -1.94034 0
M  V30 2520 C 249.883 0.910877 -1.73096 0
M  V30 2521 O 251.089 1.3875 -2.33368 0
M  V30 2522 C 249.545 -0.934249 -3.47563 0
M  V30 2523 C 249.153 -2.41602 -3.7727 0
M  V30 2524 C 250.897 -0.636854 -4.19696 0
M  V30 2525 C 248.804 -2.73932 -5.24133 0
M  V30 2526 H 247.734 -0.202273 -0.726362 0
M  V30 2527 H 250.385 -1.11867 -1.45458 0
M  V30 2528 H 248.767 -0.295115 -3.94899 0
M  V30 2529 H 249.941 -3.10233 -3.40723 0
M  V30 2530 H 248.256 -2.68441 -3.18321 0
M  V30 2531 H 250.853 -0.855005 -5.2782 0
M  V30 2532 H 251.196 0.425575 -4.14119 0
M  V30 2533 H 251.729 -1.23469 -3.78154 0
M  V30 2534 H 248.468 -3.79049 -5.34792 0
M  V30 2535 H 247.988 -2.09942 -5.61858 0
M  V30 2536 H 249.667 -2.61215 -5.91925 0
M  V30 2537 N 249.799 1.42003 -0.683588 0
M  V30 2538 C 250.731 2.29183 0.0283068 0
M  V30 2539 C 251.744 1.4415 0.756611 0
M  V30 2540 O 252.933 1.67779 0.609306 0
M  V30 2541 C 250.033 3.21765 1.06398 0
M  V30 2542 C 249.206 4.35496 0.407723 0
M  V30 2543 C 248.265 5.08737 1.34437 0
M  V30 2544 O 247.291 5.62948 0.841318 0
M  V30 2545 N 248.493 5.15075 2.67728 0
M  V30 2546 H 251.258 2.9092 -0.720105 0
M  V30 2547 H 248.819 1.53025 -0.528682 0
M  V30 2548 H 250.811 3.6763 1.69204 0
M  V30 2549 H 249.381 2.61418 1.71404 0
M  V30 2550 H 248.601 3.92165 -0.400012 0
M  V30 2551 H 249.889 5.08776 -0.0490956 0
M  V30 2552 H 249.287 4.72457 3.11129 0
M  V30 2553 H 247.844 5.64556 3.2576 0
M  V30 2554 N 251.277 0.427512 1.51691 0
M  V30 2555 C 252.224 -0.388867 2.275 0
M  V30 2556 C 253.194 -1.02532 1.30677 0
M  V30 2557 O 254.379 -1.0461 1.59566 0
M  V30 2558 C 251.519 -1.48954 3.11298 0
M  V30 2559 C 250.632 -0.872194 4.23104 0
M  V30 2560 C 249.767 -1.94709 4.94228 0
M  V30 2561 C 248.806 -1.30766 5.97969 0
M  V30 2562 N 247.943 -2.32349 6.62539 0
M  V30 2563 H 252.783 0.263997 2.96828 0
M  V30 2564 H 250.32 0.142033 1.46413 0
M  V30 2565 H 252.278 -2.13887 3.58201 0
M  V30 2566 H 250.908 -2.11217 2.44105 0
M  V30 2567 H 249.96 -0.111419 3.80237 0
M  V30 2568 H 251.272 -0.365264 4.97461 0
M  V30 2569 H 250.426 -2.67327 5.44629 0
M  V30 2570 H 249.165 -2.48773 4.1948 0
M  V30 2571 H 248.17 -0.566902 5.4687 0
M  V30 2572 H 249.395 -0.774483 6.74669 0
M  V30 2573 H 247.341 -2.85511 5.90609 0
M  V30 2574 H 247.258 -1.8652 7.3263 0
M  V30 2575 H 248.526 -3.04481 7.17574 0
M  V30 2576 N 252.755 -1.56801 0.158532 0
M  V30 2577 C 254.171 -1.5837 -0.197774 0
M  V30 2578 C 254.371 -1.17334 -1.63814 0
M  V30 2579 O 253.427 -0.878988 -2.36707 0
M  V30 2580 C 254.74 -3.00615 0.0714459 0
M  V30 2581 C 256.288 -3.12999 0.00864533 0
M  V30 2582 C 256.763 -4.57313 0.250685 0
M  V30 2583 N 258.254 -4.62777 0.198014 0
M  V30 2584 C 258.989 -5.72271 0.359642 0
M  V30 2585 N 258.485 -6.90371 0.579625 0
M  V30 2586 N 260.278 -5.61318 0.296438 0
M  V30 2587 H 252.429 -1.81765 1.09887 0
M  V30 2588 H 254.692 -0.841849 0.435884 0
M  V30 2589 H 254.398 -3.35068 1.06874 0
M  V30 2590 H 254.272 -3.71683 -0.642757 0
M  V30 2591 H 256.659 -2.7838 -0.979217 0
M  V30 2592 H 256.74 -2.44393 0.755359 0
M  V30 2593 H 256.384 -4.92639 1.2357 0
M  V30 2594 H 256.314 -5.24061 -0.516489 0
M  V30 2595 H 258.805 -3.77885 0.0331115 0
M  V30 2596 H 259.118 -7.69689 0.69275 0
M  V30 2597 H 257.463 -6.92264 0.616087 0
M  V30 2598 H 260.654 -4.67932 0.125258 0
M  V30 2599 H 260.827 -6.46599 0.425831 0
M  V30 2600 N 254.233 0.115231 -1.57178 0
M  V30 2601 C 255.48 0.822351 -1.8505 0
M  V30 2602 C 255.808 1.79701 -0.744168 0
M  V30 2603 O 255.063 1.93909 0.26414 0
M  V30 2604 C 255.362 1.60324 -3.19423 0
M  V30 2605 C 255.028 0.772536 -4.44233 0
M  V30 2606 C 253.69 0.543468 -4.78121 0
M  V30 2607 C 256.042 0.193746 -5.2084 0
M  V30 2608 C 253.37 -0.274583 -5.86057 0
M  V30 2609 C 255.722 -0.611517 -6.29637 0
M  V30 2610 C 254.386 -0.850867 -6.62055 0
M  V30 2611 H 253.656 0.30092 -0.677147 0
M  V30 2612 H 256.303 0.0845802 -1.91313 0
M  V30 2613 H 254.608 2.41203 -3.08753 0
M  V30 2614 H 256.305 2.1544 -3.38211 0
M  V30 2615 H 252.895 0.96117 -4.17683 0
M  V30 2616 H 257.079 0.357926 -4.95008 0
M  V30 2617 H 252.335 -0.469206 -6.09597 0
M  V30 2618 H 256.509 -1.06697 -6.88178 0
M  V30 2619 H 254.136 -1.48657 -7.45523 0
M  V30 2620 N 255.711 1.52812 0.385517 0
M  V30 2621 C 256.959 1.67694 1.12797 0
M  V30 2622 C 257.28 0.421115 1.90399 0
M  V30 2623 O 256.55 -0.564551 1.87589 0
M  V30 2624 H 255.13 0.618155 0.419396 0
M  V30 2625 H 257.792 1.89938 0.436972 0
M  V30 2626 H 256.888 2.52896 1.82894 0
M  V30 2627 N 257.189 -0.644168 1.43834 0
M  V30 2628 C 258.099 -1.78563 1.52159 0
M  V30 2629 C 259.115 -1.69147 0.408069 0
M  V30 2630 O 260.291 -1.90156 0.663524 0
M  V30 2631 C 257.356 -3.14888 1.45073 0
M  V30 2632 C 256.417 -3.36034 2.6717 0
M  V30 2633 C 255.65 -4.65855 2.60413 0
M  V30 2634 O 255.873 -5.45805 1.65689 0
M  V30 2635 O 254.807 -4.88918 3.5106 0
M  V30 2636 H 258.633 -1.74494 2.48567 0
M  V30 2637 H 256.218 -0.80378 1.25935 0
M  V30 2638 H 258.1 -3.96179 1.43597 0
M  V30 2639 H 256.775 -3.19528 0.518037 0
M  V30 2640 H 255.682 -2.54472 2.74217 0
M  V30 2641 H 257.015 -3.36247 3.59442 0
M  V30 2642 N 258.668 -1.30515 -0.883378 0
M  V30 2643 C 259.578 -1.18959 -2.02203 0
M  V30 2644 C 260.594 -0.109172 -1.73657 0
M  V30 2645 O 261.77 -0.324413 -1.9877 0
M  V30 2646 C 258.835 -0.883871 -3.35244 0
M  V30 2647 C 257.896 -2.04982 -3.77201 0
M  V30 2648 C 257.129 -1.75859 -5.03894 0
M  V30 2649 O 257.352 -0.687276 -5.66244 0
M  V30 2650 O 256.286 -2.61146 -5.42297 0
M  V30 2651 H 260.112 -2.14616 -2.1488 0
M  V30 2652 H 257.697 -1.10124 -1.0096 0
M  V30 2653 H 259.579 -0.728644 -4.15053 0
M  V30 2654 H 258.254 0.0427798 -3.23672 0
M  V30 2655 H 257.161 -2.26038 -2.9809 0
M  V30 2656 H 258.494 -2.95825 -3.93381 0
M  V30 2657 N 260.146 1.09593 -1.13257 0
M  V30 2658 C 261.393 1.81734 -0.893257 0
M  V30 2659 C 261.721 1.8563 0.580656 0
M  V30 2660 O 260.976 1.31906 1.44566 0
M  V30 2661 C 261.275 3.27802 -1.42411 0
M  V30 2662 C 260.941 3.44041 -2.91456 0
M  V30 2663 C 259.603 3.48181 -3.3215 0
M  V30 2664 C 261.955 3.48719 -3.87356 0
M  V30 2665 C 259.283 3.54575 -4.67433 0
M  V30 2666 C 261.635 3.56648 -5.2248 0
M  V30 2667 C 260.299 3.59055 -5.62704 0
M  V30 2668 H 259.569 0.665011 -0.326866 0
M  V30 2669 H 262.216 1.2912 -1.41422 0
M  V30 2670 H 260.521 3.83042 -0.823795 0
M  V30 2671 H 262.218 3.82149 -1.21503 0
M  V30 2672 H 258.808 3.41502 -2.58987 0
M  V30 2673 H 262.992 3.44763 -3.57004 0
M  V30 2674 H 258.248 3.54725 -4.97976 0
M  V30 2675 H 262.422 3.59212 -5.96607 0
M  V30 2676 H 260.049 3.63763 -6.67518 0
M  V30 2677 N 261.624 0.925811 1.2754 0
M  V30 2678 C 262.871 0.565255 1.94451 0
M  V30 2679 C 263.199 -0.89316 1.7278 0
M  V30 2680 O 262.454 -1.65213 1.04895 0
M  V30 2681 C 262.753 0.835296 3.47502 0
M  V30 2682 C 262.419 2.27515 3.89291 0
M  V30 2683 C 261.081 2.66879 4.00411 0
M  V30 2684 C 263.433 3.21158 4.10496 0
M  V30 2685 C 260.761 3.99014 4.30122 0
M  V30 2686 C 263.113 4.52871 4.4169 0
M  V30 2687 C 261.777 4.92072 4.51023 0
M  V30 2688 H 261.047 0.206841 0.711546 0
M  V30 2689 H 263.694 1.16942 1.51647 0
M  V30 2690 H 261.999 0.148442 3.91519 0
M  V30 2691 H 263.696 0.535322 3.97411 0
M  V30 2692 H 260.286 1.95976 3.81171 0
M  V30 2693 H 264.47 2.9195 4.01346 0
M  V30 2694 H 259.726 4.2907 4.35556 0
M  V30 2695 H 263.9 5.25436 4.57045 0
M  V30 2696 H 261.527 5.9449 4.738 0
M  V30 2697 N 263.102 -1.41638 0.69111 0
M  V30 2698 C 264.05 -2.32597 0.0115199 0
M  V30 2699 C 265.044 -1.5072 -0.773296 0
M  V30 2700 O 266.25 -1.66685 -0.67942 0
M  V30 2701 H 262.625 -0.751849 -0.0150746 0
M  V30 2702 H 264.596 -2.87593 0.795791 0
M  V30 2703 C 263.345 -3.35467 -0.914172 0
M  V30 2704 H 262.668 -3.9852 -0.319687 0
M  V30 2705 H 264.108 -4.01662 -1.35808 0
M  V30 2706 C 262.567 -2.69004 -2.02826 0
M  V30 2707 O 263.097 -2.53444 -3.11655 0
M  V30 2708 N 261.303 -2.2777 -1.80469 0
M  V30 2709 H 260.85 -2.40626 -0.919615 0
M  V30 2710 H 260.808 -1.83635 -2.55197 0
M  V30 2711 N 264.58 -0.43555 -1.51462 0
M  V30 2712 C 265.829 0.133007 -2.01261 0
M  V30 2713 C 266.142 1.43942 -1.32439 0
M  V30 2714 O 267.348 2.09081 -1.73198 0
M  V30 2715 C 265.804 0.287581 -3.58749 0
M  V30 2716 C 265.412 -1.00829 -4.36506 0
M  V30 2717 C 267.156 0.810004 -4.167 0
M  V30 2718 C 265.063 -0.819454 -5.85695 0
M  V30 2719 H 263.993 0.0534822 -0.752101 0
M  V30 2720 H 266.644 -0.565038 -1.74584 0
M  V30 2721 H 265.026 1.04859 -3.81865 0
M  V30 2722 H 266.2 -1.77749 -4.25138 0
M  V30 2723 H 264.515 -1.45911 -3.89999 0
M  V30 2724 H 267.112 0.967743 -5.2587 0
M  V30 2725 H 267.455 1.79196 -3.75758 0
M  V30 2726 H 267.988 0.107357 -3.97655 0
M  V30 2727 H 264.727 -1.77374 -6.31046 0
M  V30 2728 H 264.247 -0.0900208 -5.99732 0
M  V30 2729 H 265.926 -0.471949 -6.45276 0
M  V30 2730 N 266.058 1.56714 -0.166846 0
M  V30 2731 C 267.298 1.98641 0.481763 0
M  V30 2732 C 267.662 1.05038 1.6072 0
M  V30 2733 O 268.863 1.36087 2.31805 0
M  V30 2734 C 267.134 3.44362 0.956517 0
M  V30 2735 S 268.693 4.08317 1.60694 0
M  V30 2736 H 265.511 0.693873 0.155116 0
M  V30 2737 H 268.113 1.93719 -0.263251 0
M  V30 2738 H 266.817 4.10204 0.126936 0
M  V30 2739 H 266.348 3.53041 1.73568 0
M  V30 2740 H 268.363 4.02999 2.89494 0
M  V30 2741 N 267.536 -0.106894 1.57237 0
M  V30 2742 C 268.783 -0.812526 1.85484 0
M  V30 2743 C 269.111 -1.79304 0.753687 0
M  V30 2744 O 268.366 -1.94047 -0.253853 0
M  V30 2745 C 268.665 -1.58628 3.20268 0
M  V30 2746 C 268.331 -0.748967 4.44636 0
M  V30 2747 C 266.993 -0.518104 4.78403 0
M  V30 2748 C 269.345 -0.166122 5.20935 0
M  V30 2749 C 266.673 0.305659 5.85903 0
M  V30 2750 C 269.025 0.644899 6.29304 0
M  V30 2751 C 267.689 0.885965 6.61594 0
M  V30 2752 H 266.959 -0.297324 0.678734 0
M  V30 2753 H 269.606 -0.0744332 1.91355 0
M  V30 2754 H 267.911 -2.39562 3.10028 0
M  V30 2755 H 269.608 -2.13643 3.39349 0
M  V30 2756 H 266.198 -0.939006 4.18187 0
M  V30 2757 H 270.382 -0.33167 4.95191 0
M  V30 2758 H 265.638 0.501528 6.0934 0
M  V30 2759 H 269.812 1.10345 6.87602 0
M  V30 2760 H 267.439 1.52609 7.44725 0
M  V30 2761 N 269.014 -1.53014 -0.377408 0
M  V30 2762 C 269.964 -1.74996 -1.46152 0
M  V30 2763 C 270.948 -0.604236 -1.49123 0
M  V30 2764 O 272.14 -0.862489 -1.54564 0
M  V30 2765 C 269.269 -1.93267 -2.8373 0
M  V30 2766 C 268.355 -3.13807 -2.85283 0
M  V30 2767 N 268.746 -4.35941 -2.56493 0
M  V30 2768 C 267.044 -3.14288 -3.16448 0
M  V30 2769 C 267.745 -5.17615 -2.65424 0
M  V30 2770 N 266.721 -4.53559 -2.99641 0
M  V30 2771 H 270.523 -2.67044 -1.22738 0
M  V30 2772 H 268.037 -1.51479 -0.585479 0
M  V30 2773 H 270.034 -2.0714 -3.61799 0
M  V30 2774 H 268.694 -1.0244 -3.08117 0
M  V30 2775 H 269.705 -4.63876 -2.30302 0
M  V30 2776 H 266.382 -2.33312 -3.46225 0
M  V30 2777 H 267.772 -6.25006 -2.46612 0
M  V30 2778 N 270.492 0.636531 -1.44174 0
M  V30 2779 C 271.402 1.77754 -1.53103 0
M  V30 2780 C 272.418 1.68928 -0.417034 0
M  V30 2781 O 273.594 1.89801 -0.6736 0
M  V30 2782 C 270.659 3.14115 -1.46741 0
M  V30 2783 C 269.72 3.34612 -2.68948 0
M  V30 2784 C 268.953 4.64467 -2.6288 0
M  V30 2785 O 269.176 5.44919 -1.68581 0
M  V30 2786 O 268.11 4.87049 -3.53648 0
M  V30 2787 H 271.936 1.73174 -2.49489 0
M  V30 2788 H 269.521 0.79709 -1.2636 0
M  V30 2789 H 271.403 3.95412 -1.45696 0
M  V30 2790 H 270.078 3.19249 -0.534975 0
M  V30 2791 H 268.985 2.53014 -2.75562 0
M  V30 2792 H 270.318 3.34336 -3.61221 0
M  V30 2793 N 271.97 1.30982 0.876444 0
M  V30 2794 C 272.918 1.18006 2.00443 0
M  V30 2795 C 273.912 0.0898871 1.69161 0
M  V30 2796 O 275.118 0.251333 1.78237 0
M  V30 2797 H 271.493 0.365196 0.65737 0
M  V30 2798 H 273.464 2.13453 2.0852 0
M  V30 2799 C 272.213 0.897521 3.35916 0
M  V30 2800 H 271.536 1.7285 3.60504 0
M  V30 2801 H 272.976 0.846874 4.15456 0
M  V30 2802 C 271.435 -0.399674 3.34521 0
M  V30 2803 O 271.965 -1.41852 3.7582 0
M  V30 2804 N 270.171 -0.413893 2.87637 0
M  V30 2805 H 269.718 0.41571 2.54224 0
M  V30 2806 H 269.676 -1.28175 2.87086 0
M  V30 2807 N 273.449 -1.08991 1.13837 0
M  V30 2808 C 274.359 -2.19301 0.833333 0
M  V30 2809 C 275.375 -1.73026 -0.183847 0
M  V30 2810 O 276.551 -2.01395 -0.0138092 0
M  V30 2811 C 273.616 -3.45323 0.308651 0
M  V30 2812 C 272.677 -4.06255 1.38764 0
M  V30 2813 C 271.91 -5.26262 0.887896 0
M  V30 2814 O 272.133 -5.69747 -0.27287 0
M  V30 2815 O 271.067 -5.78435 1.66421 0
M  V30 2816 H 274.893 -2.47854 1.75506 0
M  V30 2817 H 272.478 -1.18012 0.916166 0
M  V30 2818 H 274.36 -4.21394 0.0216739 0
M  V30 2819 H 273.035 -3.18362 -0.585431 0
M  V30 2820 H 271.942 -3.318 1.72799 0
M  V30 2821 H 273.275 -4.37452 2.25602 0
M  V30 2822 N 274.927 -0.932562 -1.27047 0
M  V30 2823 C 276.343 -0.633544 -1.46487 0
M  V30 2824 C 276.543 0.815746 -1.84249 0
M  V30 2825 O 275.599 1.59319 -1.95892 0
M  V30 2826 C 276.912 -1.58758 -2.55375 0
M  V30 2827 C 278.46 -1.59634 -2.69232 0
M  V30 2828 C 278.935 -2.53747 -3.81283 0
M  V30 2829 N 280.426 -2.51982 -3.88664 0
M  V30 2830 C 281.161 -3.21491 -4.74796 0
M  V30 2831 N 280.657 -4.00395 -5.65381 0
M  V30 2832 N 282.45 -3.10485 -4.68568 0
M  V30 2833 H 274.601 -1.86946 -1.00821 0
M  V30 2834 H 276.864 -0.802897 -0.504044 0
M  V30 2835 H 276.57 -2.62172 -2.34432 0
M  V30 2836 H 276.444 -1.33301 -3.52861 0
M  V30 2837 H 278.831 -0.569488 -2.89553 0
M  V30 2838 H 278.912 -1.89142 -1.72218 0
M  V30 2839 H 278.556 -3.56545 -3.61715 0
M  V30 2840 H 278.486 -2.21532 -4.77735 0
M  V30 2841 H 280.977 -1.94681 -3.23895 0
M  V30 2842 H 281.29 -4.50406 -6.27976 0
M  V30 2843 H 279.635 -4.04498 -5.65161 0
M  V30 2844 H 282.826 -2.48331 -3.96799 0
M  V30 2845 H 282.999 -3.64925 -5.35475 0
M  V30 2846 N 276.405 1.4127 -0.698611 0
M  V30 2847 C 277.651 2.01478 -0.231207 0
M  V30 2848 C 277.984 1.55215 1.16713 0
M  V30 2849 O 277.259 0.764672 1.78838 0
M  V30 2850 C 277.542 3.58912 -0.292281 0
M  V30 2851 C 277.395 4.15293 -1.72778 0
M  V30 2852 C 278.714 4.38736 0.346194 0
M  V30 2853 H 275.833 0.732025 -0.0854878 0
M  V30 2854 H 278.475 1.67977 -0.887906 0
M  V30 2855 H 276.625 3.87582 0.26686 0
M  V30 2856 H 278.297 3.97486 -2.341 0
M  V30 2857 H 276.54 3.7022 -2.26096 0
M  V30 2858 H 277.211 5.24452 -1.72202 0
M  V30 2859 H 279.687 4.15897 -0.130035 0
M  V30 2860 H 278.563 5.48221 0.272932 0
M  V30 2861 H 278.824 4.18425 1.42734 0
M  V30 2862 N 277.883 0.443576 1.51229 0
M  V30 2863 C 278.813 -0.355142 2.30783 0
M  V30 2864 C 279.794 -1.0154 1.36468 0
M  V30 2865 O 280.979 -1.01785 1.65389 0
M  V30 2866 C 278.109 -1.45312 3.15439 0
M  V30 2867 C 277.063 -0.916002 4.18083 0
M  V30 2868 C 276.389 -2.1102 4.91299 0
M  V30 2869 C 277.689 0.0538602 5.22272 0
M  V30 2870 H 279.383 0.308767 2.97804 0
M  V30 2871 H 276.929 0.149937 1.43217 0
M  V30 2872 H 278.882 -2.01914 3.69876 0
M  V30 2873 H 277.606 -2.14541 2.46252 0
M  V30 2874 H 276.265 -0.372145 3.64706 0
M  V30 2875 H 275.913 -2.78882 4.18609 0
M  V30 2876 H 275.613 -1.75717 5.60712 0
M  V30 2877 H 277.137 -2.68164 5.48562 0
M  V30 2878 H 278.551 -0.422069 5.71744 0
M  V30 2879 H 276.948 0.319776 5.99247 0
M  V30 2880 H 278.018 0.98858 4.74716 0
M  V30 2881 N 279.361 -1.56624 0.175154 0
M  V30 2882 C 280.777 -1.58571 -0.180966 0
M  V30 2883 C 280.977 -1.19065 -1.6256 0
M  V30 2884 O 280.033 -0.904044 -2.35761 0
M  V30 2885 C 281.346 -3.00522 0.103326 0
M  V30 2886 C 282.894 -3.12972 0.0418426 0
M  V30 2887 C 283.369 -4.57022 0.299175 0
M  V30 2888 N 284.86 -4.62541 0.247086 0
M  V30 2889 C 285.595 -5.71857 0.420318 0
M  V30 2890 N 285.091 -6.89717 0.652816 0
M  V30 2891 N 286.884 -5.60972 0.355957 0
M  V30 2892 H 279.035 -1.80589 1.11809 0
M  V30 2893 H 281.298 -0.837178 0.444788 0
M  V30 2894 H 281.004 -3.33916 1.10422 0
M  V30 2895 H 280.878 -3.72344 -0.603299 0
M  V30 2896 H 283.265 -2.79403 -0.949636 0
M  V30 2897 H 283.346 -2.43578 0.781238 0
M  V30 2898 H 282.99 -4.913 1.28788 0
M  V30 2899 H 282.92 -5.24579 -0.460876 0
M  V30 2900 H 285.411 -3.77829 0.0731895 0
M  V30 2901 H 285.724 -7.68911 0.774347 0
M  V30 2902 H 284.069 -6.91572 0.689476 0
M  V30 2903 H 287.26 -4.67773 0.174882 0
M  V30 2904 H 287.433 -6.46111 0.494388 0
M  V30 2905 N 280.839 0.0985539 -1.57292 0
M  V30 2906 C 281.802 1.10402 -2.00858 0
M  V30 2907 C 282.802 1.33146 -0.901593 0
M  V30 2908 O 283.992 1.29318 -1.16716 0
M  V30 2909 C 281.124 2.45394 -2.36632 0
M  V30 2910 H 282.317 0.729099 -2.90902 0
M  V30 2911 H 279.87 0.343495 -1.52479 0
M  V30 2912 H 280.605 2.87769 -1.49531 0
M  V30 2913 H 280.39 2.30235 -3.17387 0
M  V30 2914 H 281.88 3.17718 -2.71007 0
M  V30 2915 N 282.317 1.53212 0.369288 0
M  V30 2916 C 283.563 1.69466 1.11397 0
M  V30 2917 C 283.896 0.443257 1.89074 0
M  V30 2918 O 283.171 -0.559386 1.86282 0
M  V30 2919 C 283.454 2.9422 2.07621 0
M  V30 2920 C 283.307 4.29508 1.33577 0
M  V30 2921 C 284.626 3.14565 3.07794 0
M  V30 2922 H 281.745 0.616667 0.403597 0
M  V30 2923 H 284.387 1.85845 0.395179 0
M  V30 2924 H 282.537 2.80387 2.68916 0
M  V30 2925 H 284.209 4.55147 0.750955 0
M  V30 2926 H 282.452 4.29088 0.637618 0
M  V30 2927 H 283.123 5.12926 2.03989 0
M  V30 2928 H 285.599 3.2756 2.56601 0
M  V30 2929 H 284.475 4.03297 3.72348 0
M  V30 2930 H 284.736 2.29675 3.77759 0
M  V30 2931 N 283.795 -0.628877 1.44509 0
M  V30 2932 C 285.043 -1.38565 1.4712 0
M  V30 2933 C 285.364 -1.94712 0.105899 0
M  V30 2934 O 284.634 -1.75912 -0.862079 0
M  V30 2935 H 283.214 -0.514333 0.541729 0
M  V30 2936 H 285.876 -0.740018 1.80305 0
M  V30 2937 H 284.972 -2.21583 2.19789 0
M  V30 2938 N 285.273 -1.31445 -0.869486 0
M  V30 2939 C 286.521 -1.20918 -1.61936 0
M  V30 2940 C 286.842 0.232683 -1.93607 0
M  V30 2941 O 286.112 1.15352 -1.58338 0
M  V30 2942 H 284.692 -0.44454 -0.600328 0
M  V30 2943 H 287.354 -1.64776 -1.0409 0
M  V30 2944 H 286.45 -1.78124 -2.56278 0
M  V30 2945 N 286.751 1.08385 -1.14413 0
M  V30 2946 C 287.979 1.84517 -0.936001 0
M  V30 2947 C 288.394 1.81626 0.515503 0
M  V30 2948 O 287.751 1.22008 1.35721 0
M  V30 2949 C 287.802 3.32049 -1.42918 0
M  V30 2950 O 287.523 3.34951 -2.82381 0
M  V30 2951 C 289.024 4.24986 -1.26103 0
M  V30 2952 H 286.244 0.582491 -0.333084 0
M  V30 2953 H 288.788 1.36885 -1.5193 0
M  V30 2954 H 286.943 3.7707 -0.888641 0
M  V30 2955 H 287.357 4.27048 -3.04517 0
M  V30 2956 H 288.831 5.26615 -1.6547 0
M  V30 2957 H 289.308 4.38726 -0.20392 0
M  V30 2958 H 289.914 3.85791 -1.79012 0
M  V30 2959 N 288.23 0.939286 1.26551 0
M  V30 2960 C 289.16 0.465044 2.28822 0
M  V30 2961 C 290.141 -0.480692 1.63167 0
M  V30 2962 O 291.326 -0.382955 1.90387 0
M  V30 2963 C 288.456 -0.27234 3.46231 0
M  V30 2964 C 287.41 0.58666 4.2396 0
M  V30 2965 C 286.736 -0.280573 5.33963 0
M  V30 2966 C 288.036 1.85704 4.88171 0
M  V30 2967 H 289.73 1.31979 2.68741 0
M  V30 2968 H 287.276 0.636061 1.29191 0
M  V30 2969 H 289.229 -0.615133 4.16886 0
M  V30 2970 H 287.953 -1.16121 3.0526 0
M  V30 2971 H 286.612 0.91232 3.55067 0
M  V30 2972 H 286.26 -1.16874 4.89234 0
M  V30 2973 H 285.96 0.29076 5.8688 0
M  V30 2974 H 287.484 -0.618678 6.07458 0
M  V30 2975 H 288.898 1.58161 5.51052 0
M  V30 2976 H 287.295 2.37279 5.51197 0
M  V30 2977 H 288.365 2.56957 4.11219 0
M  V30 2978 N 289.708 -1.40897 0.706093 0
M  V30 2979 C 290.64 -2.29199 0.00815776 0
M  V30 2980 C 291.653 -1.45336 -0.733582 0
M  V30 2981 O 292.842 -1.68727 -0.582537 0
M  V30 2982 C 289.942 -3.23417 -1.01265 0
M  V30 2983 C 289.115 -4.36089 -0.338387 0
M  V30 2984 C 288.174 -5.10811 -1.26326 0
M  V30 2985 O 287.2 -5.64215 -0.751651 0
M  V30 2986 N 288.402 -5.19269 -2.595 0
M  V30 2987 H 291.167 -2.89738 0.766297 0
M  V30 2988 H 288.728 -1.52164 0.55296 0
M  V30 2989 H 290.72 -3.70276 -1.63334 0
M  V30 2990 H 289.29 -2.64112 -1.67223 0
M  V30 2991 H 288.51 -3.91479 0.462352 0
M  V30 2992 H 289.798 -5.08634 0.130031 0
M  V30 2993 H 289.196 -4.77347 -3.03573 0
M  V30 2994 H 287.753 -5.69667 -3.16737 0
M  V30 2995 N 291.186 -0.45159 -1.50991 0
M  V30 2996 C 292.463 0.170707 -1.94854 0
M  V30 2997 C 292.843 1.58788 -1.39103 0
M  V30 2998 O 292.191 2.20913 -0.583921 0
M  V30 2999 C 292.401 0.133929 -3.48743 0
M  V30 3000 C 293.749 0.33248 -4.23296 0
M  V30 3001 O 294.773 0.211403 -3.55572 0
M  V30 3002 O 293.632 0.57486 -5.43468 0
M  V30 3003 H 290.726 0.122264 -0.817912 0
M  V30 3004 H 293.272 -0.510594 -1.61836 0
M  V30 3005 H 292.044 -0.856283 -3.81816 0
M  V30 3006 H 291.667 0.857529 -3.88242 0
M  V30 3007 N 292.664 1.56529 -0.183458 0
M  V30 3008 C 293.911 1.97244 0.458357 0
M  V30 3009 C 294.239 1.06992 1.62428 0
M  V30 3010 O 293.494 0.106542 1.9541 0
M  V30 3011 C 293.793 3.43939 0.971637 0
M  V30 3012 C 293.459 4.5083 -0.0796784 0
M  V30 3013 C 292.121 4.79786 -0.368584 0
M  V30 3014 C 294.473 5.15138 -0.792638 0
M  V30 3015 C 291.801 5.70345 -1.37563 0
M  V30 3016 C 294.153 6.06784 -1.78875 0
M  V30 3017 C 292.817 6.34102 -2.08497 0
M  V30 3018 H 292.087 0.721768 0.167725 0
M  V30 3019 H 294.734 1.89472 -0.277976 0
M  V30 3020 H 293.039 3.48724 1.78602 0
M  V30 3021 H 294.736 3.72791 1.47744 0
M  V30 3022 H 291.326 4.28317 0.155668 0
M  V30 3023 H 295.51 4.92868 -0.582659 0
M  V30 3024 H 290.766 5.89789 -1.61118 0
M  V30 3025 H 294.94 6.55677 -2.3465 0
M  V30 3026 H 292.567 7.04074 -2.86678 0
M  V30 3027 N 294.142 -0.090211 1.57342 0
M  V30 3028 C 295.389 -0.792807 1.86335 0
M  V30 3029 C 295.717 -1.78494 0.772662 0
M  V30 3030 O 294.972 -1.94305 -0.233258 0
M  V30 3031 C 295.271 -1.55222 3.21933 0
M  V30 3032 C 294.937 -0.701765 4.45406 0
M  V30 3033 C 293.599 -0.467334 4.78925 0
M  V30 3034 C 295.951 -0.11086 5.21082 0
M  V30 3035 C 293.279 0.367785 5.85546 0
M  V30 3036 C 295.631 0.711609 6.28585 0
M  V30 3037 C 294.295 0.956086 6.60617 0
M  V30 3038 H 293.565 -0.290109 0.681849 0
M  V30 3039 H 296.212 -0.0541332 1.91423 0
M  V30 3040 H 294.517 -2.3626 3.12551 0
M  V30 3041 H 296.214 -2.10032 3.41595 0
M  V30 3042 H 292.804 -0.894598 4.1916 0
M  V30 3043 H 296.988 -0.279129 4.95514 0
M  V30 3044 H 292.244 0.566128 6.08773 0
M  V30 3045 H 296.418 1.17632 6.86393 0
M  V30 3046 H 294.045 1.60499 7.43064 0
M  V30 3047 N 295.62 -1.53406 -0.361157 0
M  V30 3048 C 296.568 -1.80832 -1.46296 0
M  V30 3049 C 297.562 -0.677699 -1.55253 0
M  V30 3050 O 298.768 -0.860723 -1.58087 0
M  V30 3051 H 295.143 -0.572627 -0.487445 0
M  V30 3052 H 297.114 -2.73045 -1.20371 0
M  V30 3053 C 295.863 -2.01907 -2.8307 0
M  V30 3054 H 295.186 -2.88349 -2.76938 0
M  V30 3055 H 296.626 -2.25072 -3.59331 0
M  V30 3056 C 295.085 -0.799449 -3.27277 0
M  V30 3057 O 295.615 0.00971761 -4.01699 0
M  V30 3058 N 293.821 -0.621637 -2.83873 0
M  V30 3059 H 293.368 -1.28126 -2.23476 0
M  V30 3060 H 293.326 0.19298 -3.13807 0
M  V30 3061 N 297.098 0.621204 -1.44841 0
M  V30 3062 C 298.346 1.37783 -1.47852 0
M  V30 3063 C 298.667 1.94653 -0.116224 0
M  V30 3064 O 297.937 1.76367 0.852737 0
M  V30 3065 H 296.517 0.511453 -0.544449 0
M  V30 3066 H 299.179 0.730446 -1.80694 0
M  V30 3067 H 298.275 2.20414 -2.20961 0
M  V30 3068 N 298.576 1.31904 0.862503 0
M  V30 3069 C 299.823 1.22017 1.61611 0
M  V30 3070 C 300.151 -0.21991 1.93253 0
M  V30 3071 O 299.406 -1.17076 1.56817 0
M  V30 3072 C 299.705 2.01713 2.95037 0
M  V30 3073 C 299.371 3.51145 2.82857 0
M  V30 3074 C 298.033 3.91889 2.79243 0
M  V30 3075 C 300.385 4.46204 2.69353 0
M  V30 3076 C 297.713 5.25947 2.59993 0
M  V30 3077 C 300.065 5.80397 2.5164 0
M  V30 3078 C 298.729 6.20352 2.46413 0
M  V30 3079 H 297.999 0.44649 0.591378 0
M  V30 3080 H 300.646 1.63248 1.00111 0
M  V30 3081 H 298.951 1.53185 3.60613 0
M  V30 3082 H 300.648 1.91437 3.52353 0
M  V30 3083 H 297.238 3.1878 2.86491 0
M  V30 3084 H 301.422 4.15652 2.71196 0
M  V30 3085 H 296.678 5.5597 2.54376 0
M  V30 3086 H 300.852 6.53676 2.40169 0
M  V30 3087 H 298.479 7.24172 2.31256 0
M  V30 3088 N 300.054 -1.07777 1.14986 0
M  V30 3089 C 301.331 -1.7699 0.832695 0
M  V30 3090 C 301.711 -2.001 -0.672561 0
M  V30 3091 O 301.059 -1.61598 -1.6155 0
M  V30 3092 C 301.269 -3.08139 1.63863 0
M  V30 3093 C 302.617 -3.8256 1.84208 0
M  V30 3094 O 303.641 -3.17939 1.60603 0
M  V30 3095 O 302.5 -4.98612 2.23714 0
M  V30 3096 H 299.594 -0.768389 0.305791 0
M  V30 3097 H 302.14 -1.14182 1.25541 0
M  V30 3098 H 300.912 -2.86909 2.6608 0
M  V30 3099 H 300.535 -3.78678 1.21197 0
M  V30 3100 N 301.532 -0.945985 -1.26051 0
M  V30 3101 C 302.495 -0.463897 -2.24456 0
M  V30 3102 C 303.495 0.427655 -1.55009 0
M  V30 3103 O 304.685 0.226157 -1.72726 0
M  V30 3104 C 301.817 0.330812 -3.39291 0
M  V30 3105 H 303.01 -1.33357 -2.68619 0
M  V30 3106 H 300.563 -0.728416 -1.38289 0
M  V30 3107 H 301.298 1.21852 -3.00537 0
M  V30 3108 H 301.083 -0.308679 -3.90883 0
M  V30 3109 H 302.573 0.657865 -4.12386 0
M  V30 3110 N 303.011 1.40521 -0.713556 0
M  V30 3111 C 303.941 2.33381 -0.0743864 0
M  V30 3112 C 304.922 1.52784 0.747735 0
M  V30 3113 O 306.107 1.81258 0.697071 0
M  V30 3114 C 303.237 3.36748 0.849598 0
M  V30 3115 C 302.191 4.27793 0.133247 0
M  V30 3116 C 301.517 5.21679 1.17281 0
M  V30 3117 C 302.817 5.12415 -1.01134 0
M  V30 3118 H 304.511 2.87081 -0.850007 0
M  V30 3119 H 302.057 1.38034 -0.410201 0
M  V30 3120 H 304.01 4.00648 1.30612 0
M  V30 3121 H 302.734 2.81439 1.65709 0
M  V30 3122 H 301.393 3.65342 -0.303426 0
M  V30 3123 H 301.041 4.62677 1.9733 0
M  V30 3124 H 300.741 5.83435 0.698397 0
M  V30 3125 H 302.265 5.88456 1.62947 0
M  V30 3126 H 303.679 5.69781 -0.634274 0
M  V30 3127 H 302.076 5.83203 -1.41399 0
M  V30 3128 H 303.146 4.48514 -1.84292 0
M  V30 3129 N 304.489 0.459591 1.5075 0
M  V30 3130 C 305.419 -0.330644 2.31147 0
M  V30 3131 C 306.4 -1.00087 1.37538 0
M  V30 3132 O 307.585 -1.00025 1.66459 0
M  V30 3133 C 304.715 -1.41958 3.16962 0
M  V30 3134 C 303.669 -0.871608 4.19031 0
M  V30 3135 C 302.995 -2.05797 4.9351 0
M  V30 3136 C 304.295 0.109251 5.22186 0
M  V30 3137 H 305.989 0.340336 2.97459 0
M  V30 3138 H 303.535 0.165119 1.4305 0
M  V30 3139 H 305.488 -1.9798 3.71997 0
M  V30 3140 H 304.212 -2.11917 2.48513 0
M  V30 3141 H 302.871 -0.333442 3.6508 0
M  V30 3142 H 302.519 -2.74427 4.21544 0
M  V30 3143 H 302.219 -1.6976 5.62544 0
M  V30 3144 H 303.743 -2.62331 5.51375 0
M  V30 3145 H 305.157 -0.361405 5.7216 0
M  V30 3146 H 303.554 0.383316 5.98875 0
M  V30 3147 H 304.624 1.03887 4.73641 0
M  V30 3148 N 305.967 -1.56429 0.191757 0
M  V30 3149 C 306.877 -2.22541 -0.742481 0
M  V30 3150 C 307.893 -1.22342 -1.23727 0
M  V30 3151 O 309.069 -1.55069 -1.28513 0
M  V30 3152 C 306.134 -2.8692 -1.94623 0
M  V30 3153 C 305.195 -4.02378 -1.49633 0
M  V30 3154 C 304.428 -4.63678 -2.6427 0
M  V30 3155 O 304.651 -4.23895 -3.81666 0
M  V30 3156 O 303.585 -5.53202 -2.37174 0
M  V30 3157 H 307.411 -3.02977 -0.209462 0
M  V30 3158 H 304.996 -1.49353 -0.0373832 0
M  V30 3159 H 306.878 -3.27663 -2.64982 0
M  V30 3160 H 305.553 -2.09466 -2.46791 0
M  V30 3161 H 304.46 -3.66265 -0.761636 0
M  V30 3162 H 305.793 -4.81487 -1.02134 0
M  V30 3163 N 307.445 0.0818655 -1.57387 0
M  V30 3164 C 308.395 1.10501 -1.99433 0
M  V30 3165 C 309.379 1.35041 -0.874798 0
M  V30 3166 O 310.571 1.35511 -1.13868 0
M  V30 3167 C 307.7 2.42159 -2.43339 0
M  V30 3168 C 306.786 2.20937 -3.62005 0
M  V30 3169 N 307.177 1.69616 -4.76512 0
M  V30 3170 C 305.475 2.51451 -3.68359 0
M  V30 3171 C 306.176 1.62973 -5.58404 0
M  V30 3172 N 305.152 2.08664 -5.01956 0
M  V30 3173 H 308.954 0.701373 -2.85408 0
M  V30 3174 H 306.468 0.289096 -1.59806 0
M  V30 3175 H 308.465 3.16208 -2.71695 0
M  V30 3176 H 307.125 2.83249 -1.58746 0
M  V30 3177 H 308.136 1.38624 -4.99003 0
M  V30 3178 H 304.813 2.95975 -2.94457 0
M  V30 3179 H 306.203 1.24233 -6.60315 0
M  V30 3180 N 308.923 1.53595 0.353017 0
M  V30 3181 C 310.172 1.69603 1.09168 0
M  V30 3182 C 310.485 0.460925 1.90092 0
M  V30 3183 O 311.691 0.501774 2.66823 0
M  V30 3184 C 310.147 2.99872 1.9901 0
M  V30 3185 C 309.755 4.30687 1.23339 0
M  V30 3186 C 311.499 3.25246 2.72792 0
M  V30 3187 C 309.406 5.52036 2.12156 0
M  V30 3188 H 308.336 0.631966 0.411261 0
M  V30 3189 H 310.987 1.80096 0.351802 0
M  V30 3190 H 309.369 2.83212 2.7678 0
M  V30 3191 H 310.543 4.58019 0.505456 0
M  V30 3192 H 308.858 4.11853 0.613663 0
M  V30 3193 H 311.455 4.13095 3.39495 0
M  V30 3194 H 311.798 2.41846 3.38846 0
M  V30 3195 H 312.331 3.42638 2.021 0
M  V30 3196 H 309.07 6.37951 1.50659 0
M  V30 3197 H 308.59 5.28966 2.82764 0
M  V30 3198 H 310.269 5.87313 2.71427 0
M  V30 3199 N 310.401 -0.613514 1.45168 0
M  V30 3200 C 311.817 -0.933629 1.29443 0
M  V30 3201 C 312.017 -2.00028 0.243101 0
M  V30 3202 O 311.073 -2.49848 -0.364992 0
M  V30 3203 C 312.386 -1.38018 2.67155 0
M  V30 3204 C 313.934 -1.49471 2.75004 0
M  V30 3205 C 314.409 -1.97503 4.13227 0
M  V30 3206 N 315.9 -2.04746 4.15491 0
M  V30 3207 C 316.635 -2.43121 5.19307 0
M  V30 3208 N 316.131 -2.80506 6.33473 0
M  V30 3209 N 317.924 -2.43408 5.06664 0
M  V30 3210 H 310.075 0.0916097 2.12202 0
M  V30 3211 H 312.338 -0.0216655 0.947752 0
M  V30 3212 H 312.044 -0.670625 3.45247 0
M  V30 3213 H 311.918 -2.34784 2.95222 0
M  V30 3214 H 314.305 -2.19519 1.9722 0
M  V30 3215 H 314.386 -0.510342 2.50657 0
M  V30 3216 H 314.03 -1.28045 4.91495 0
M  V30 3217 H 313.96 -2.96843 4.34962 0
M  V30 3218 H 316.451 -1.78468 3.33103 0
M  V30 3219 H 316.764 -3.08652 7.08487 0
M  V30 3220 H 315.109 -2.78216 6.36884 0
M  V30 3221 H 318.3 -2.13604 4.16523 0
M  V30 3222 H 318.473 -2.72989 5.87691 0
M  V30 3223 N 311.879 -1.3236 -0.855495 0
M  V30 3224 C 313.107 -1.2587 -1.64208 0
M  V30 3225 C 313.522 0.173457 -1.88002 0
M  V30 3226 O 312.879 1.11027 -1.44842 0
M  V30 3227 C 312.93 -2.01424 -3.00184 0
M  V30 3228 O 312.651 -3.39051 -2.77445 0
M  V30 3229 C 314.152 -2.01948 -3.94629 0
M  V30 3230 H 311.372 -0.434318 -0.511477 0
M  V30 3231 H 313.916 -1.74469 -1.0668 0
M  V30 3232 H 312.071 -1.56549 -3.5436 0
M  V30 3233 H 312.485 -3.77711 -3.63916 0
M  V30 3234 H 313.959 -2.59297 -4.87308 0
M  V30 3235 H 314.436 -1.00554 -4.27534 0
M  V30 3236 H 315.042 -2.46767 -3.4639 0
M  V30 3237 N 313.357 1.07166 -1.15556 0
M  V30 3238 C 314.582 1.84053 -0.955988 0
M  V30 3239 C 315.007 1.81586 0.490739 0
M  V30 3240 O 314.365 1.21018 1.34997 0
M  V30 3241 C 314.413 3.28957 -1.47714 0
M  V30 3242 O 313.517 4.06795 -0.677593 0
M  V30 3243 H 312.858 0.569842 -0.340847 0
M  V30 3244 H 315.388 1.35178 -1.53584 0
M  V30 3245 H 315.398 3.79788 -1.4908 0
M  V30 3246 H 314.073 3.30068 -2.53037 0
M  V30 3247 H 312.65 3.6561 -0.733721 0
M  V30 3248 N 314.835 0.952656 1.25548 0
M  V30 3249 C 316.082 0.606373 1.93208 0
M  V30 3250 C 316.41 -0.85631 1.74636 0
M  V30 3251 O 315.665 -1.62951 1.08376 0
M  V30 3252 C 315.964 0.908818 3.45652 0
M  V30 3253 C 315.63 2.35722 3.84378 0
M  V30 3254 C 314.292 2.75312 3.9466 0
M  V30 3255 C 316.644 3.29793 4.03591 0
M  V30 3256 C 313.972 4.08047 4.21562 0
M  V30 3257 C 316.324 4.62138 4.31985 0
M  V30 3258 C 314.988 5.01528 4.40484 0
M  V30 3259 H 314.258 0.221888 0.706998 0
M  V30 3260 H 316.905 1.20132 1.49133 0
M  V30 3261 H 315.21 0.231456 3.91116 0
M  V30 3262 H 316.907 0.619498 3.96186 0
M  V30 3263 H 313.497 2.04017 3.76928 0
M  V30 3264 H 317.681 3.00397 3.95064 0
M  V30 3265 H 312.937 4.38212 4.26357 0
M  V30 3266 H 317.111 5.35012 4.45797 0
M  V30 3267 H 314.738 6.04406 4.61083 0
M  V30 3268 N 316.313 -1.40141 0.720998 0
M  V30 3269 C 317.561 -2.0039 0.262323 0
M  V30 3270 C 317.882 -1.57469 -1.15015 0
M  V30 3271 O 317.152 -0.816582 -1.78069 0
M  V30 3272 H 315.732 -0.741063 0.093996 0
M  V30 3273 H 318.394 -1.71398 0.927835 0
M  V30 3274 H 317.49 -3.10658 0.299671 0
M  V30 3275 N 317.792 -0.46758 -1.50504 0
M  V30 3276 C 318.739 0.328413 -2.28452 0
M  V30 3277 C 319.709 0.990313 -1.33349 0
M  V30 3278 O 320.894 1.00343 -1.62284 0
M  V30 3279 C 318.034 1.40648 -3.15138 0
M  V30 3280 C 317.147 0.759709 -4.25267 0
M  V30 3281 C 316.282 1.81537 -4.99217 0
M  V30 3282 C 315.321 1.14866 -6.01226 0
M  V30 3283 N 314.458 2.14702 -6.68467 0
M  V30 3284 H 319.298 -0.342603 -2.96024 0
M  V30 3285 H 316.835 -0.180801 -1.45985 0
M  V30 3286 H 318.793 2.04315 -3.63746 0
M  V30 3287 H 317.423 2.04671 -2.49619 0
M  V30 3288 H 316.475 0.0105671 -3.80399 0
M  V30 3289 H 317.787 0.233243 -4.98254 0
M  V30 3290 H 316.941 2.52793 -5.51526 0
M  V30 3291 H 315.68 2.37564 -4.25928 0
M  V30 3292 H 314.685 0.42171 -5.4818 0
M  V30 3293 H 315.91 0.595334 -6.76485 0
M  V30 3294 H 313.856 2.69752 -5.97972 0
M  V30 3295 H 313.773 1.6703 -7.37317 0
M  V30 3296 H 315.041 2.85348 -7.25394 0
M  V30 3297 N 319.27 1.56325 -0.20005 0
M  V30 3298 C 320.202 2.16555 0.750771 0
M  V30 3299 C 321.215 1.12871 1.1732 0
M  V30 3300 O 322.404 1.39943 1.10807 0
M  V30 3301 C 319.504 2.71684 2.02586 0
M  V30 3302 C 318.677 4.00321 1.76244 0
M  V30 3303 C 317.736 4.40227 2.88248 0
M  V30 3304 O 316.762 5.07552 2.57642 0
M  V30 3305 N 317.964 4.04138 4.16717 0
M  V30 3306 H 320.729 2.98772 0.235685 0
M  V30 3307 H 318.29 1.6189 -0.0182594 0
M  V30 3308 H 320.282 2.95363 2.76664 0
M  V30 3309 H 318.852 1.93893 2.45202 0
M  V30 3310 H 318.072 3.84723 0.85919 0
M  V30 3311 H 319.36 4.84279 1.56048 0
M  V30 3312 H 318.758 3.49993 4.44434 0
M  V30 3313 H 317.315 4.32756 4.87407 0
M  V30 3314 N 320.748 -0.0735177 1.57428 0
M  V30 3315 C 321.711 -1.07192 2.02589 0
M  V30 3316 C 322.711 -1.31695 0.922661 0
M  V30 3317 O 323.901 -1.27445 1.18758 0
M  V30 3318 C 321.033 -2.41599 2.40506 0
M  V30 3319 H 322.226 -0.682727 2.92025 0
M  V30 3320 H 319.779 -0.319193 1.53006 0
M  V30 3321 H 320.514 -2.85354 1.5409 0
M  V30 3322 H 320.299 -2.25156 3.21009 0
M  V30 3323 H 321.789 -3.13367 2.76027 0
M  V30 3324 N 322.226 -1.5378 -0.344866 0
M  V30 3325 C 323.454 -1.74899 -1.10534 0
M  V30 3326 C 323.869 -0.487534 -1.82397 0
M  V30 3327 O 323.226 0.540741 -1.74305 0
M  V30 3328 C 323.277 -2.92822 -2.11984 0
M  V30 3329 O 322.998 -4.14089 -1.43044 0
M  V30 3330 C 324.499 -3.25982 -3.00417 0
M  V30 3331 H 321.719 -0.584426 -0.329678 0
M  V30 3332 H 324.263 -2.006 -0.397474 0
M  V30 3333 H 322.418 -2.69457 -2.78338 0
M  V30 3334 H 322.832 -4.80272 -2.10805 0
M  V30 3335 H 324.306 -4.11848 -3.67539 0
M  V30 3336 H 324.783 -2.42228 -3.66363 0
M  V30 3337 H 325.389 -3.51349 -2.39654 0
M  V30 3338 N 323.704 0.605807 -1.45491 0
M  V30 3339 C 324.634 1.72709 -1.57143 0
M  V30 3340 C 325.615 1.6476 -0.422884 0
M  V30 3341 O 326.8 1.83132 -0.646247 0
M  V30 3342 C 323.93 3.11316 -1.53948 0
M  V30 3343 C 322.884 3.34077 -2.67537 0
M  V30 3344 C 322.21 4.72975 -2.49397 0
M  V30 3345 C 323.51 3.24158 -4.09535 0
M  V30 3346 H 325.204 1.63214 -2.51001 0
M  V30 3347 H 322.75 0.78379 -1.208 0
M  V30 3348 H 324.703 3.89557 -1.60696 0
M  V30 3349 H 323.427 3.21655 -0.566205 0
M  V30 3350 H 322.086 2.58227 -2.6022 0
M  V30 3351 H 321.734 4.8005 -1.50205 0
M  V30 3352 H 321.434 4.8916 -3.25571 0
M  V30 3353 H 322.958 5.53414 -2.58002 0
M  V30 3354 H 324.372 3.92271 -4.18086 0
M  V30 3355 H 322.769 3.51872 -4.86113 0
M  V30 3356 H 323.839 2.2157 -4.31317 0
M  V30 3357 N 325.182 1.32811 0.848464 0
M  V30 3358 C 326.092 1.24278 1.98978 0
M  V30 3359 C 327.108 0.155176 1.73307 0
M  V30 3360 O 328.284 0.376999 1.9784 0
M  V30 3361 C 325.349 0.972444 3.32783 0
M  V30 3362 C 324.41 2.14911 3.71634 0
M  V30 3363 C 323.643 1.89157 4.99054 0
M  V30 3364 O 323.866 0.837165 5.64223 0
M  V30 3365 O 322.8 2.75433 5.35183 0
M  V30 3366 H 326.626 2.20238 2.09115 0
M  V30 3367 H 324.211 1.12762 0.980052 0
M  V30 3368 H 326.093 0.838432 4.12975 0
M  V30 3369 H 324.768 0.043051 3.23671 0
M  V30 3370 H 323.675 2.33862 2.91992 0
M  V30 3371 H 325.008 3.06151 3.85399 0
M  V30 3372 N 326.66 -1.06551 1.16123 0
M  V30 3373 C 327.885 -1.83544 0.965735 0
M  V30 3374 C 328.31 -1.81843 -0.481102 0
M  V30 3375 O 327.668 -1.21732 -1.34354 0
M  V30 3376 C 327.716 -3.28169 1.49457 0
M  V30 3377 O 326.82 -4.0643 0.699157 0
M  V30 3378 H 326.161 -0.568026 0.343864 0
M  V30 3379 H 328.691 -1.34362 1.54299 0
M  V30 3380 H 328.701 -3.78992 1.51092 0
M  V30 3381 H 327.376 -3.28722 2.54784 0
M  V30 3382 H 325.953 -3.65216 0.7531 0
M  V30 3383 N 328.138 -0.959301 -1.25041 0
M  V30 3384 C 329.549 -0.65667 -1.74771 0
M  V30 3385 C 329.9 0.827852 -1.77879 0
M  V30 3386 O 329.025 1.64783 -1.40269 0
M  V30 3387 C 329.62 -1.1853 -3.1739 0
M  V30 3388 C 328.179 -0.932734 -3.6466 0
M  V30 3389 C 327.326 -1.32558 -2.43564 0
M  V30 3390 H 330.277 -1.13558 -1.10862 0
M  V30 3391 H 330.298 -0.547582 -3.76539 0
M  V30 3392 H 329.81 -2.26576 -3.15095 0
M  V30 3393 H 327.911 0.13257 -3.72364 0
M  V30 3394 H 328.024 -1.57248 -4.52559 0
M  V30 3395 H 326.388 -0.743956 -2.43593 0
M  V30 3396 H 327.171 -2.41537 -2.43957 0
M  V30 3397 N 329.616 1.39756 -0.72842 0
M  V30 3398 C 330.841 2.05472 -0.282159 0
M  V30 3399 C 331.266 1.54549 1.07221 0
M  V30 3400 O 330.624 0.686372 1.67805 0
M  V30 3401 C 330.672 3.59462 -0.286264 0
M  V30 3402 O 329.776 4.05918 0.728298 0
M  V30 3403 H 329.117 0.651226 -0.129618 0
M  V30 3404 H 331.647 1.78915 -0.992499 0
M  V30 3405 H 331.657 4.07798 -0.128373 0
M  V30 3406 H 330.332 3.95889 -1.27456 0
M  V30 3407 H 328.909 3.69012 0.537081 0
M  V30 3408 N 331.094 0.475555 1.50254 0
M  V30 3409 C 332.341 -0.0778919 2.0235 0
M  V30 3410 C 332.669 -1.39319 1.35722 0
M  V30 3411 O 331.924 -1.89888 0.473395 0
M  V30 3412 C 332.223 -0.305114 3.56095 0
M  V30 3413 C 331.889 0.92903 4.41225 0
M  V30 3414 C 330.551 1.26739 4.6421 0
M  V30 3415 C 332.903 1.75054 4.90923 0
M  V30 3416 C 330.231 2.42724 5.34137 0
M  V30 3417 C 332.583 2.9017 5.62125 0
M  V30 3418 C 331.247 3.24416 5.83362 0
M  V30 3419 H 330.517 -0.0285027 0.740452 0
M  V30 3420 H 333.164 0.630543 1.80821 0
M  V30 3421 H 331.469 -1.09584 3.76163 0
M  V30 3422 H 333.166 -0.747377 3.93974 0
M  V30 3423 H 329.756 0.655428 4.23559 0
M  V30 3424 H 333.94 1.50231 4.73016 0
M  V30 3425 H 329.196 2.69525 5.48786 0
M  V30 3426 H 333.37 3.54169 5.99614 0
M  V30 3427 H 330.997 4.14396 6.37323 0
M  V30 3428 N 332.573 -1.56217 0.208337 0
M  V30 3429 C 333.503 -2.22694 -0.702116 0
M  V30 3430 C 334.484 -1.19432 -1.2112 0
M  V30 3431 O 335.669 -1.47978 -1.25762 0
M  V30 3432 C 332.799 -2.8966 -1.9161 0
M  V30 3433 C 331.753 -3.9928 -1.5414 0
M  V30 3434 C 331.079 -4.53476 -2.83308 0
M  V30 3435 C 332.379 -5.17012 -0.741339 0
M  V30 3436 H 334.073 -2.99034 -0.147898 0
M  V30 3437 H 331.619 -1.43831 -0.0696951 0
M  V30 3438 H 333.572 -3.34852 -2.55836 0
M  V30 3439 H 332.296 -2.10746 -2.49507 0
M  V30 3440 H 330.955 -3.54799 -0.922668 0
M  V30 3441 H 330.603 -3.71308 -3.39322 0
M  V30 3442 H 330.303 -5.27451 -2.58976 0
M  V30 3443 H 331.827 -5.01378 -3.485 0
M  V30 3444 H 333.241 -5.58667 -1.28699 0
M  V30 3445 H 331.638 -5.97137 -0.595627 0
M  V30 3446 H 332.708 -4.8423 0.254851 0
M  V30 3447 N 334.051 0.0651679 -1.57465 0
M  V30 3448 C 335.291 0.768329 -1.8941 0
M  V30 3449 C 335.655 1.74406 -0.802894 0
M  V30 3450 O 336.856 2.49281 -1.0056 0
M  V30 3451 C 335.127 1.45199 -3.26576 0
M  V30 3452 S 336.686 2.1893 -3.80283 0
M  V30 3453 H 333.504 0.255359 -0.663561 0
M  V30 3454 H 336.106 0.024167 -1.95485 0
M  V30 3455 H 334.81 0.728123 -4.03889 0
M  V30 3456 H 334.341 2.23545 -3.23715 0
M  V30 3457 H 336.356 3.45551 -3.56102 0
M  V30 3458 N 335.529 1.53961 0.336706 0
M  V30 3459 C 336.476 1.82428 1.41381 0
M  V30 3460 C 337.446 0.670444 1.51968 0
M  V30 3461 O 338.631 0.915565 1.67398 0
M  V30 3462 C 335.771 2.04564 2.77934 0
M  V30 3463 C 334.884 3.32267 2.76084 0
M  V30 3464 C 334.019 3.44434 4.04399 0
M  V30 3465 C 333.058 4.66061 3.96804 0
M  V30 3466 N 332.195 4.75224 5.16823 0
M  V30 3467 H 337.035 2.74324 1.16405 0
M  V30 3468 H 334.572 1.35869 0.563752 0
M  V30 3469 H 336.53 2.15388 3.57301 0
M  V30 3470 H 335.16 1.15974 3.01247 0
M  V30 3471 H 334.212 3.3025 1.88784 0
M  V30 3472 H 335.524 4.21733 2.66351 0
M  V30 3473 H 334.678 3.54728 4.92192 0
M  V30 3474 H 333.417 2.53037 4.16921 0
M  V30 3475 H 332.422 4.55838 3.07396 0
M  V30 3476 H 333.647 5.58829 3.85858 0
M  V30 3477 H 331.593 3.86739 5.29876 0
M  V30 3478 H 331.51 5.58636 5.09374 0
M  V30 3479 H 332.778 4.89835 6.06367 0
M  V30 3480 N 337.007 -0.598083 1.45811 0
M  V30 3481 C 337.917 -1.73632 1.57763 0
M  V30 3482 C 338.933 -1.67763 0.461676 0
M  V30 3483 O 340.109 -1.87949 0.723685 0
M  V30 3484 C 337.174 -3.10114 1.55018 0
M  V30 3485 C 336.235 -3.27364 2.77726 0
M  V30 3486 C 335.468 -4.57334 2.75102 0
M  V30 3487 O 335.691 -5.40258 1.8297 0
M  V30 3488 O 334.625 -4.77502 3.66437 0
M  V30 3489 H 338.451 -1.66498 2.53992 0
M  V30 3490 H 336.036 -0.763308 1.28429 0
M  V30 3491 H 337.918 -3.9141 1.56129 0
M  V30 3492 H 336.593 -3.17718 0.619431 0
M  V30 3493 H 335.5 -2.45619 2.82174 0
M  V30 3494 H 336.833 -3.24641 3.69958 0
M  V30 3495 N 338.485 -1.33259 -0.841409 0
M  V30 3496 C 339.415 -1.25926 -1.96634 0
M  V30 3497 C 340.396 -0.140349 -1.6952 0
M  V30 3498 O 341.581 -0.329707 -1.91381 0
M  V30 3499 C 338.711 -0.99512 -3.32738 0
M  V30 3500 C 337.665 -2.0767 -3.74242 0
M  V30 3501 C 336.991 -1.66474 -5.08125 0
M  V30 3502 C 338.291 -3.49318 -3.88297 0
M  V30 3503 H 339.985 -2.20046 -2.03027 0
M  V30 3504 H 337.531 -1.05931 -0.975425 0
M  V30 3505 H 339.484 -0.930323 -4.11002 0
M  V30 3506 H 338.208 -0.0183004 -3.26595 0
M  V30 3507 H 336.867 -2.13187 -2.98239 0
M  V30 3508 H 336.515 -0.675012 -4.9845 0
M  V30 3509 H 336.215 -2.3885 -5.36865 0
M  V30 3510 H 337.739 -1.61455 -5.88867 0
M  V30 3511 H 339.153 -3.46316 -4.56879 0
M  V30 3512 H 337.55 -4.20158 -4.28471 0
M  V30 3513 H 338.62 -3.8801 -2.9082 0
M  V30 3514 N 339.963 1.05934 -1.16686 0
M  V30 3515 C 341.374 1.60263 -0.957745 0
M  V30 3516 C 341.725 1.89789 0.49745 0
M  V30 3517 O 340.85 1.67401 1.37135 0
M  V30 3518 C 341.445 2.91172 -1.73218 0
M  V30 3519 C 340.004 3.42188 -1.56794 0
M  V30 3520 C 339.151 2.16028 -1.73859 0
M  V30 3521 H 342.102 0.888392 -1.31504 0
M  V30 3522 H 342.123 3.60744 -1.21014 0
M  V30 3523 H 341.635 2.6965 -2.79124 0
M  V30 3524 H 339.736 3.68762 -0.533437 0
M  V30 3525 H 339.849 4.17273 -2.35414 0
M  V30 3526 H 338.213 2.26426 -1.16633 0
M  V30 3527 H 338.996 1.96985 -2.81161 0
M  V30 3528 N 341.441 0.965919 1.2453 0
M  V30 3529 C 342.351 0.502154 2.29163 0
M  V30 3530 C 343.367 -0.436017 1.68448 0
M  V30 3531 O 344.543 -0.309497 1.99008 0
M  V30 3532 C 341.608 -0.201956 3.46111 0
M  V30 3533 C 340.669 0.775821 4.22232 0
M  V30 3534 C 339.902 0.105217 5.33596 0
M  V30 3535 O 340.125 -1.10683 5.59558 0
M  V30 3536 O 339.059 0.796475 5.96607 0
M  V30 3537 H 342.885 1.37194 2.70946 0
M  V30 3538 H 340.47 0.732875 1.30189 0
M  V30 3539 H 342.352 -0.597564 4.17142 0
M  V30 3540 H 341.027 -1.04673 3.06309 0
M  V30 3541 H 339.934 1.22185 3.53584 0
M  V30 3542 H 341.267 1.58896 4.65846 0
M  V30 3543 N 342.919 -1.39368 0.735821 0
M  V30 3544 C 344.167 -2.00101 0.283562 0
M  V30 3545 C 344.488 -1.5868 -1.13338 0
M  V30 3546 O 343.758 -0.835423 -1.77193 0
M  V30 3547 H 342.338 -0.740024 0.101851 0
M  V30 3548 H 345 -1.70404 0.945962 0
M  V30 3549 H 344.096 -3.10323 0.332604 0
M  V30 3550 N 344.397 -0.483516 -1.5 0
M  V30 3551 C 345.625 0.0644831 -2.06799 0
M  V30 3552 C 346.04 1.32399 -1.34596 0
M  V30 3553 O 345.397 1.77626 -0.418946 0
M  V30 3554 C 345.448 0.339927 -3.59898 0
M  V30 3555 O 345.169 -0.869635 -4.29382 0
M  V30 3556 C 346.67 0.933515 -4.33359 0
M  V30 3557 H 343.89 -0.0126333 -0.670881 0
M  V30 3558 H 346.434 -0.675864 -1.93009 0
M  V30 3559 H 344.589 1.03022 -3.7345 0
M  V30 3560 H 345.003 -0.62179 -5.20801 0
M  V30 3561 H 346.477 1.07593 -5.41413 0
M  V30 3562 H 346.954 1.92685 -3.94676 0
M  V30 3563 H 347.56 0.281221 -4.24369 0
M  V30 3564 N 345.875 1.56104 -0.216619 0
M  V30 3565 C 346.805 2.23063 0.690296 0
M  V30 3566 C 347.786 1.20072 1.20485 0
M  V30 3567 O 348.971 1.48643 1.24976 0
M  V30 3568 C 346.101 2.90672 1.90072 0
M  V30 3569 C 345.055 4.00092 1.5202 0
M  V30 3570 C 344.381 4.54972 2.80899 0
M  V30 3571 C 345.681 5.17398 0.71391 0
M  V30 3572 H 347.375 2.99109 0.132038 0
M  V30 3573 H 344.921 1.43866 0.0620664 0
M  V30 3574 H 346.874 3.36204 2.54057 0
M  V30 3575 H 345.598 2.12066 2.48386 0
M  V30 3576 H 344.257 3.55283 0.903839 0
M  V30 3577 H 343.905 3.73102 3.37348 0
M  V30 3578 H 343.605 5.28817 2.56176 0
M  V30 3579 H 345.129 5.0322 3.45836 0
M  V30 3580 H 346.543 5.59342 1.25735 0
M  V30 3581 H 344.94 5.97444 0.563951 0
M  V30 3582 H 346.01 4.84088 -0.280527 0
M  V30 3583 N 347.353 -0.0568162 1.57498 0
M  V30 3584 C 348.286 -1.09817 2.00039 0
M  V30 3585 C 349.264 -1.3674 0.879819 0
M  V30 3586 O 350.448 -1.49863 1.14338 0
M  V30 3587 C 347.575 -2.43924 2.34986 0
M  V30 3588 C 346.621 -2.33039 3.57204 0
M  V30 3589 S 347.454 -1.7102 5.07457 0
M  V30 3590 C 348.61 -3.06674 5.45621 0
M  V30 3591 H 348.843 -0.735701 2.88053 0
M  V30 3592 H 346.376 -0.265871 1.52094 0
M  V30 3593 H 348.334 -3.2106 2.55795 0
M  V30 3594 H 346.995 -2.77327 1.47474 0
M  V30 3595 H 346.188 -3.31973 3.79223 0
M  V30 3596 H 345.79 -1.64043 3.36104 0
M  V30 3597 H 348.082 -4.03 5.44608 0
M  V30 3598 H 349.025 -2.8942 6.46252 0
M  V30 3599 H 349.433 -3.07969 4.73091 0
M  V30 3600 N 348.832 -1.54138 -0.328536 0
M  V30 3601 C 349.762 -1.86167 -1.40939 0
M  V30 3602 C 350.743 -0.718044 -1.54202 0
M  V30 3603 O 351.928 -0.971328 -1.68163 0
M  V30 3604 C 349.058 -2.08461 -2.77779 0
M  V30 3605 C 348.012 -3.24299 -2.7931 0
M  V30 3606 C 347.338 -3.31955 -4.19178 0
M  V30 3607 C 348.638 -4.62065 -2.43502 0
M  V30 3608 H 350.332 -2.76689 -1.14383 0
M  V30 3609 H 347.878 -1.33132 -0.548806 0
M  V30 3610 H 349.831 -2.29453 -3.53454 0
M  V30 3611 H 348.555 -1.14684 -3.05802 0
M  V30 3612 H 347.214 -3.03187 -2.0609 0
M  V30 3613 H 346.862 -2.35745 -4.44335 0
M  V30 3614 H 346.562 -4.09805 -4.2111 0
M  V30 3615 H 348.086 -3.55175 -4.96672 0
M  V30 3616 H 349.5 -4.8297 -3.08889 0
M  V30 3617 H 347.897 -5.42429 -2.56693 0
M  V30 3618 H 348.967 -4.64652 -1.38659 0
M  V30 3619 N 350.31 0.590341 -1.46126 0
M  V30 3620 C 351.26 1.69466 -1.5253 0
M  V30 3621 C 352.244 1.56179 -0.386917 0
M  V30 3622 O 353.436 1.65223 -0.634858 0
M  V30 3623 C 350.565 3.08245 -1.5113 0
M  V30 3624 C 349.651 3.26856 -2.70233 0
M  V30 3625 N 350.042 3.15657 -3.95214 0
M  V30 3626 C 348.34 3.57775 -2.66296 0
M  V30 3627 C 349.041 3.36066 -4.74799 0
M  V30 3628 N 348.017 3.60865 -4.06543 0
M  V30 3629 H 351.819 1.59326 -2.46966 0
M  V30 3630 H 349.333 0.79414 -1.41659 0
M  V30 3631 H 351.33 3.87492 -1.53804 0
M  V30 3632 H 349.99 3.19521 -0.577636 0
M  V30 3633 H 351.001 2.93686 -4.26578 0
M  V30 3634 H 347.678 3.75782 -1.81918 0
M  V30 3635 H 349.068 3.32655 -5.83772 0
M  V30 3636 N 351.788 1.33704 0.83433 0
M  V30 3637 C 353.018 1.28281 1.6195 0
M  V30 3638 C 353.426 -0.147603 1.88623 0
M  V30 3639 O 352.769 -1.1016 1.47005 0
M  V30 3640 C 352.831 1.99386 2.99141 0
M  V30 3641 C 352.495 3.48681 2.95416 0
M  V30 3642 C 353.492 4.438 2.70809 0
M  V30 3643 C 351.177 3.90925 3.15409 0
M  V30 3644 C 353.171 5.79138 2.66229 0
M  V30 3645 C 350.858 5.26366 3.10454 0
M  V30 3646 C 351.856 6.20284 2.85895 0
M  V30 3647 O 351.544 7.53245 2.80852 0
M  V30 3648 H 351.276 0.44315 0.510484 0
M  V30 3649 H 353.83 1.76711 1.04702 0
M  V30 3650 H 352.06 1.45554 3.58261 0
M  V30 3651 H 353.749 1.87403 3.60049 0
M  V30 3652 H 354.515 4.12485 2.5511 0
M  V30 3653 H 350.394 3.18229 3.33543 0
M  V30 3654 H 353.938 6.52416 2.4698 0
M  V30 3655 H 349.835 5.57304 3.25703 0
M  V30 3656 H 350.603 7.62846 2.96661 0
M  V30 3657 N 353.266 -1.05314 1.17247 0
M  V30 3658 C 354.513 -1.78293 0.960091 0
M  V30 3659 C 354.841 -1.87658 -0.51136 0
M  V30 3660 O 354.096 -1.3718 -1.39571 0
M  V30 3661 C 354.395 -3.2229 1.54479 0
M  V30 3662 C 354.061 -3.32987 3.04024 0
M  V30 3663 C 352.723 -3.35613 3.44844 0
M  V30 3664 C 355.075 -3.34102 4.00031 0
M  V30 3665 C 352.403 -3.36982 4.8027 0
M  V30 3666 C 354.755 -3.3701 5.35357 0
M  V30 3667 C 353.419 -3.37923 5.75642 0
M  V30 3668 H 352.689 -0.652422 0.351322 0
M  V30 3669 H 355.336 -1.23782 1.46117 0
M  V30 3670 H 353.641 -3.7972 0.965391 0
M  V30 3671 H 355.338 -3.77376 1.35603 0
M  V30 3672 H 351.928 -3.31655 2.71483 0
M  V30 3673 H 356.112 -3.31276 3.69554 0
M  V30 3674 H 351.368 -3.35999 5.10798 0
M  V30 3675 H 355.542 -3.36822 6.09528 0
M  V30 3676 H 353.169 -3.38738 6.80559 0
M  V30 3677 N 354.744 -0.972509 -1.24016 0
M  V30 3678 C 355.694 -0.477561 -2.22942 0
M  V30 3679 C 356.678 0.44308 -1.54679 0
M  V30 3680 O 357.87 0.273219 -1.74879 0
M  V30 3681 C 354.999 0.226348 -3.42553 0
M  V30 3682 C 354.085 -0.713403 -4.18057 0
M  V30 3683 N 354.476 -1.8527 -4.70647 0
M  V30 3684 C 352.774 -0.525145 -4.42898 0
M  V30 3685 C 353.475 -2.44089 -5.28011 0
M  V30 3686 N 352.451 -1.72556 -5.15486 0
M  V30 3687 H 356.253 -1.34678 -2.61226 0
M  V30 3688 H 353.767 -0.832196 -1.39457 0
M  V30 3689 H 355.764 0.598184 -4.12586 0
M  V30 3690 H 354.424 1.09195 -3.05788 0
M  V30 3691 H 355.435 -2.2341 -4.67235 0
M  V30 3692 H 352.112 0.296096 -4.16449 0
M  V30 3693 H 353.502 -3.40259 -5.79374 0
M  V30 3694 N 356.222 1.38976 -0.743202 0
M  V30 3695 C 357.633 1.83123 -0.363732 0
M  V30 3696 C 357.984 1.6205 1.10609 0
M  V30 3697 O 357.109 1.11606 1.854 0
M  V30 3698 C 357.704 3.32439 -0.653408 0
M  V30 3699 C 356.263 3.74974 -0.327338 0
M  V30 3700 C 355.41 2.61878 -0.911875 0
M  V30 3701 H 358.361 1.27852 -0.940191 0
M  V30 3702 H 358.382 3.80432 0.0720031 0
M  V30 3703 H 357.894 3.47745 -1.72323 0
M  V30 3704 H 355.995 3.65252 0.736314 0
M  V30 3705 H 356.108 4.72106 -0.815631 0
M  V30 3706 H 354.472 2.52448 -0.337944 0
M  V30 3707 H 355.255 2.79987 -1.98651 0
M  V30 3708 N 357.7 0.491464 1.49741 0
M  V30 3709 C 358.65 -0.311086 2.25868 0
M  V30 3710 C 359.634 -0.943857 1.30308 0
M  V30 3711 O 360.826 -0.853035 1.55088 0
M  V30 3712 C 357.955 -1.38059 3.14316 0
M  V30 3713 C 357.041 -0.754541 4.17334 0
M  V30 3714 N 357.432 0.137216 5.05614 0
M  V30 3715 C 355.73 -1.01621 4.34269 0
M  V30 3716 C 356.431 0.494614 5.79593 0
M  V30 3717 N 355.407 -0.135169 5.43432 0
M  V30 3718 H 359.209 0.37555 2.91491 0
M  V30 3719 H 356.723 0.306917 1.59473 0
M  V30 3720 H 358.72 -1.96891 3.67477 0
M  V30 3721 H 357.38 -2.06901 2.50244 0
M  V30 3722 H 358.391 0.50741 5.15408 0
M  V30 3723 H 355.068 -1.69808 3.81407 0
M  V30 3724 H 356.458 1.2236 6.60665 0
M  V30 3725 N 359.178 -1.55987 0.224894 0
M  V30 3726 C 360.128 -2.17076 -0.697296 0
M  V30 3727 C 361.112 -1.12006 -1.15514 0
M  V30 3728 O 362.304 -1.37985 -1.10857 0
M  V30 3729 C 359.433 -2.85679 -1.90374 0
M  V30 3730 C 358.519 -3.97977 -1.46543 0
M  V30 3731 N 358.91 -5.00359 -0.739909 0
M  V30 3732 C 357.208 -4.10128 -1.75245 0
M  V30 3733 C 357.909 -5.79407 -0.515939 0
M  V30 3734 N 356.885 -5.32892 -1.07364 0
M  V30 3735 H 360.687 -2.93592 -0.134594 0
M  V30 3736 H 358.201 -1.62379 0.0262885 0
M  V30 3737 H 360.198 -3.27857 -2.57518 0
M  V30 3738 H 358.858 -2.1066 -2.47088 0
M  V30 3739 H 359.869 -5.16412 -0.392253 0
M  V30 3740 H 356.546 -3.46263 -2.33255 0
M  V30 3741 H 357.936 -6.71872 0.0617349 0
M  V30 3742 N 360.656 0.0484629 -1.57525 0
M  V30 3743 C 361.905 0.742065 -1.87553 0
M  V30 3744 C 362.218 1.77545 -0.820802 0
M  V30 3745 O 363.424 2.52027 -1.00967 0
M  V30 3746 C 361.88 1.37081 -3.32771 0
M  V30 3747 C 361.488 0.374786 -4.4643 0
M  V30 3748 C 363.232 2.04542 -3.71972 0
M  V30 3749 C 361.139 1.01077 -5.82698 0
M  V30 3750 H 360.069 0.280903 -0.699721 0
M  V30 3751 H 362.72 -0.00411877 -1.835 0
M  V30 3752 H 361.102 2.16605 -3.31509 0
M  V30 3753 H 362.276 -0.392331 -4.59127 0
M  V30 3754 H 360.591 -0.196653 -4.15935 0
M  V30 3755 H 363.188 2.52943 -4.71088 0
M  V30 3756 H 363.531 2.85515 -3.02964 0
M  V30 3757 H 364.064 1.31819 -3.75325 0
M  V30 3758 H 360.803 0.240878 -6.55057 0
M  V30 3759 H 360.323 1.74819 -5.73758 0
M  V30 3760 H 362.002 1.52383 -6.28799 0
M  V30 3761 N 362.134 1.5431 0.320358 0
M  V30 3762 C 363.38 1.72924 1.05949 0
M  V30 3763 C 363.713 0.503185 1.87568 0
M  V30 3764 O 362.988 -0.499839 1.87968 0
M  V30 3765 C 363.271 3.00676 1.98156 0
M  V30 3766 C 363.124 4.3354 1.19845 0
M  V30 3767 C 364.443 3.24198 2.9763 0
M  V30 3768 H 361.562 0.629195 0.383774 0
M  V30 3769 H 364.204 1.87008 0.335854 0
M  V30 3770 H 362.354 2.888 2.59859 0
M  V30 3771 H 364.026 4.57305 0.605773 0
M  V30 3772 H 362.269 4.309 0.500784 0
M  V30 3773 H 362.94 5.19156 1.87567 0
M  V30 3774 H 365.416 3.35557 2.4605 0
M  V30 3775 H 364.292 4.14938 3.59329 0
M  V30 3776 H 364.553 2.41577 3.7026 0
M  V30 3777 N 363.613 -0.582584 1.46437 0
M  V30 3778 C 364.861 -1.33814 1.51453 0
M  V30 3779 C 365.182 -1.94277 0.167792 0
M  V30 3780 O 364.452 -1.78566 -0.805677 0
M  V30 3781 H 363.032 -0.496838 0.557818 0
M  V30 3782 H 365.694 -0.682281 1.82568 0
M  V30 3783 H 364.79 -2.14479 2.26728 0
M  V30 3784 N 365.091 -1.34144 -0.827227 0
M  V30 3785 C 366.338 -1.26258 -1.58319 0
M  V30 3786 C 366.666 0.168595 -1.93768 0
M  V30 3787 O 365.921 1.12877 -1.59866 0
M  V30 3788 C 366.22 -2.09464 -2.89585 0
M  V30 3789 C 365.886 -3.58521 -2.73448 0
M  V30 3790 C 364.548 -3.99155 -2.68754 0
M  V30 3791 C 366.9 -4.53189 -2.57428 0
M  V30 3792 C 364.228 -5.32656 -2.45957 0
M  V30 3793 C 366.58 -5.86864 -2.36163 0
M  V30 3794 C 365.244 -6.26667 -2.29879 0
M  V30 3795 H 364.514 -0.462013 -0.579332 0
M  V30 3796 H 367.161 -1.65845 -0.95748 0
M  V30 3797 H 365.466 -1.62692 -3.56425 0
M  V30 3798 H 367.163 -2.00712 -3.47154 0
M  V30 3799 H 363.753 -3.26264 -2.77939 0
M  V30 3800 H 367.937 -4.22696 -2.60081 0
M  V30 3801 H 363.193 -5.62519 -2.39546 0
M  V30 3802 H 367.367 -6.59813 -2.22754 0
M  V30 3803 H 364.994 -7.30049 -2.11975 0
M  V30 3804 N 366.569 1.04691 -1.17803 0
M  V30 3805 C 367.532 2.10724 -0.901545 0
M  V30 3806 C 368.532 1.6042 0.110437 0
M  V30 3807 O 369.722 1.7377 -0.122303 0
M  V30 3808 C 366.854 3.39084 -0.351409 0
M  V30 3809 H 368.047 2.36686 -1.84174 0
M  V30 3810 H 365.6 1.21015 -0.98919 0
M  V30 3811 H 366.335 3.18782 0.59569 0
M  V30 3812 H 366.12 3.76909 -1.08083 0
M  V30 3813 H 367.61 4.17227 -0.176451 0
M  V30 3814 N 368.047 0.979072 1.23499 0
M  V30 3815 C 368.98 0.463027 2.23453 0
M  V30 3816 C 369.958 -0.469128 1.55685 0
M  V30 3817 O 371.142 -0.397882 1.84253 0
M  V30 3818 C 368.269 -0.330308 3.37086 0
M  V30 3819 C 367.315 0.545795 4.22993 0
M  V30 3820 S 368.148 1.99285 4.97037 0
M  V30 3821 C 369.304 1.20862 6.1412 0
M  V30 3822 H 369.537 1.31005 2.6688 0
M  V30 3823 H 367.07 0.784965 1.32957 0
M  V30 3824 H 369.028 -0.782027 4.02982 0
M  V30 3825 H 367.689 -1.15244 2.92194 0
M  V30 3826 H 366.882 -0.0638928 5.03959 0
M  V30 3827 H 366.484 0.933705 3.62157 0
M  V30 3828 H 368.776 0.469284 6.75873 0
M  V30 3829 H 369.719 1.99307 6.79472 0
M  V30 3830 H 370.127 0.727992 5.59786 0
M  V30 3831 N 369.525 -1.3858 0.750561 0
M  V30 3832 C 370.455 -2.33102 0.136237 0
M  V30 3833 C 371.436 -1.54713 -0.706965 0
M  V30 3834 O 372.621 -1.83043 -0.648769 0
M  V30 3835 C 369.751 -3.38882 -0.760017 0
M  V30 3836 C 368.705 -4.27995 -0.0197785 0
M  V30 3837 C 368.031 -5.24605 -1.03408 0
M  V30 3838 C 369.331 -5.09554 1.14684 0
M  V30 3839 H 371.025 -2.84726 0.925822 0
M  V30 3840 H 368.571 -1.36898 0.446654 0
M  V30 3841 H 370.524 -4.0397 -1.19943 0
M  V30 3842 H 369.248 -2.85734 -1.58189 0
M  V30 3843 H 367.907 -3.64409 0.400184 0
M  V30 3844 H 367.555 -4.67746 -1.84994 0
M  V30 3845 H 367.255 -5.85081 -0.543464 0
M  V30 3846 H 368.779 -5.9257 -1.47288 0
M  V30 3847 H 370.193 -5.67899 0.785118 0
M  V30 3848 H 368.59 -5.7925 1.56812 0
M  V30 3849 H 369.66 -4.4347 1.96118 0
M  V30 3850 N 371.003 -0.499398 -1.49478 0
M  V30 3851 C 372.251 0.0455996 -2.02049 0
M  V30 3852 C 372.572 1.37633 -1.38138 0
M  V30 3853 O 371.842 1.8842 -0.536166 0
M  V30 3854 H 370.422 0.0198416 -0.746736 0
M  V30 3855 H 373.084 -0.656274 -1.83519 0
M  V30 3856 H 372.18 0.176445 -3.11601 0
M  V30 3857 N 372.481 1.55866 -0.233164 0
M  V30 3858 C 373.414 2.16794 0.712442 0
M  V30 3859 C 374.392 1.1158 1.18273 0
M  V30 3860 O 375.576 1.39897 1.26337 0
M  V30 3861 C 372.703 2.75757 1.96661 0
M  V30 3862 C 371.749 3.93902 1.63533 0
M  V30 3863 S 372.582 5.30223 0.74995 0
M  V30 3864 C 373.738 5.92631 2.01343 0
M  V30 3865 H 373.971 2.96662 0.194617 0
M  V30 3866 H 371.504 1.5439 -0.0177425 0
M  V30 3867 H 373.462 3.10367 2.68668 0
M  V30 3868 H 372.123 1.9586 2.45556 0
M  V30 3869 H 371.316 4.33702 2.56747 0
M  V30 3870 H 370.918 3.60499 0.995804 0
M  V30 3871 H 373.21 6.09312 2.96219 0
M  V30 3872 H 374.153 6.88388 1.65915 0
M  V30 3873 H 374.561 5.21571 2.15925 0
M  V30 3874 N 373.959 -0.0401083 1.57549 0
M  V30 3875 C 375.208 -0.732108 1.87944 0
M  V30 3876 C 375.521 -1.77107 0.830206 0
M  V30 3877 O 376.727 -2.51488 1.02302 0
M  V30 3878 C 375.183 -1.35315 3.33494 0
M  V30 3879 C 374.791 -0.351105 4.46622 0
M  V30 3880 C 376.535 -2.02566 3.73051 0
M  V30 3881 C 374.442 -0.979859 5.83226 0
M  V30 3882 H 373.372 -0.277188 0.701201 0
M  V30 3883 H 376.023 0.0138501 1.83495 0
M  V30 3884 H 374.405 -2.14844 3.32653 0
M  V30 3885 H 375.579 0.416674 4.58912 0
M  V30 3886 H 373.894 0.218708 4.15825 0
M  V30 3887 H 376.491 -2.50441 4.72423 0
M  V30 3888 H 376.834 -2.83904 3.04474 0
M  V30 3889 H 377.367 -1.29827 3.76018 0
M  V30 3890 H 374.106 -0.206135 6.55176 0
M  V30 3891 H 373.626 -1.71774 5.74677 0
M  V30 3892 H 375.305 -1.49046 6.29599 0
M  V30 3893 N 375.437 -1.54477 -0.31217 0
M  V30 3894 C 376.384 -1.84655 -1.38461 0
M  V30 3895 C 377.354 -0.694536 -1.50882 0
M  V30 3896 O 378.539 -0.942081 -1.6592 0
M  V30 3897 C 375.679 -2.0896 -2.74645 0
M  V30 3898 C 374.792 -3.36618 -2.70763 0
M  V30 3899 C 373.927 -3.50824 -3.98868 0
M  V30 3900 C 372.966 -4.72315 -3.89339 0
M  V30 3901 N 372.103 -4.83387 -5.09197 0
M  V30 3902 H 376.943 -2.76142 -1.12026 0
M  V30 3903 H 374.48 -1.36748 -0.542065 0
M  V30 3904 H 376.438 -2.21045 -3.53829 0
M  V30 3905 H 375.068 -1.20752 -2.99364 0
M  V30 3906 H 374.12 -3.33211 -1.83506 0
M  V30 3907 H 375.432 -4.25917 -2.59608 0
M  V30 3908 H 374.586 -3.62513 -4.86486 0
M  V30 3909 H 373.325 -2.59638 -4.12843 0
M  V30 3910 H 372.33 -4.6067 -3.00105 0
M  V30 3911 H 373.555 -5.64897 -3.76919 0
M  V30 3912 H 371.501 -3.9512 -5.23657 0
M  V30 3913 H 371.418 -5.66669 -5.00422 0
M  V30 3914 H 372.686 -4.9942 -5.98498 0
M  V30 3915 N 376.915 0.57481 -1.46744 0
M  V30 3916 C 377.878 1.66533 -1.57478 0
M  V30 3917 C 378.878 1.54338 -0.451263 0
M  V30 3918 O 380.068 1.58814 -0.715813 0
M  V30 3919 C 377.2 3.05999 -1.50259 0
M  V30 3920 H 378.393 1.58372 -2.54673 0
M  V30 3921 H 375.946 0.793301 -1.34672 0
M  V30 3922 H 376.681 3.19709 -0.543725 0
M  V30 3923 H 376.466 3.16259 -2.31781 0
M  V30 3924 H 377.956 3.8537 -1.60872 0
M  V30 3925 N 378.394 1.34581 0.820102 0
M  V30 3926 C 379.357 1.2628 1.91275 0
M  V30 3927 C 380.357 0.177344 1.59819 0
M  V30 3928 O 381.547 0.430156 1.68806 0
M  V30 3929 C 378.679 0.950327 3.27386 0
M  V30 3930 H 379.872 2.23421 2.00057 0
M  V30 3931 H 377.425 1.1891 1.0144 0
M  V30 3932 H 378.16 -0.0177938 3.24295 0
M  V30 3933 H 377.945 1.73549 3.51601 0
M  V30 3934 H 379.435 0.917492 4.07396 0
M  V30 3935 N 379.872 -1.04064 1.18357 0
M  V30 3936 C 381.12 -1.76915 0.977013 0
M  V30 3937 C 381.441 -1.88624 -0.494577 0
M  V30 3938 O 380.711 -1.41125 -1.3587 0
M  V30 3939 H 379.291 -0.65535 0.358504 0
M  V30 3940 H 381.953 -1.25592 1.49039 0
M  V30 3941 H 381.049 -2.78178 1.41504 0
M  V30 3942 N 381.35 -0.985608 -1.22978 0
M  V30 3943 C 382.297 -0.529825 -2.24636 0
M  V30 3944 C 383.267 0.434028 -1.60329 0
M  V30 3945 O 384.452 0.340414 -1.87739 0
M  V30 3946 C 381.592 0.156533 -3.44745 0
M  V30 3947 C 380.705 -0.848197 -4.23591 0
M  V30 3948 C 379.84 -0.136109 -5.31026 0
M  V30 3949 C 378.879 -1.1297 -6.01585 0
M  V30 3950 N 378.016 -0.446415 -7.00679 0
M  V30 3951 H 382.856 -1.40148 -2.62988 0
M  V30 3952 H 380.393 -0.702168 -1.29259 0
M  V30 3953 H 382.351 0.571324 -4.1327 0
M  V30 3954 H 380.981 0.992025 -3.07179 0
M  V30 3955 H 380.033 -1.38135 -3.54433 0
M  V30 3956 H 381.345 -1.60512 -4.72268 0
M  V30 3957 H 380.499 0.335784 -6.0577 0
M  V30 3958 H 379.238 0.653373 -4.83304 0
M  V30 3959 H 378.243 -1.6123 -5.25628 0
M  V30 3960 H 379.468 -1.91993 -6.51395 0
M  V30 3961 H 377.414 0.323763 -6.55201 0
M  V30 3962 H 377.331 -1.1419 -7.47326 0
M  V30 3963 H 378.599 0.00291697 -7.795 0
M  V30 3964 N 382.828 1.3818 -0.7579 0
M  V30 3965 C 383.775 2.30416 -0.133057 0
M  V30 3966 C 384.745 1.50398 0.704957 0
M  V30 3967 O 385.93 1.79014 0.660192 0
M  V30 3968 C 383.07 3.36834 0.750813 0
M  V30 3969 C 382.183 4.31879 -0.102297 0
M  V30 3970 C 381.318 5.25368 0.784979 0
M  V30 3971 C 380.357 6.12058 -0.0715046 0
M  V30 3972 N 379.494 6.97832 0.772972 0
M  V30 3973 H 384.334 2.83274 -0.925186 0
M  V30 3974 H 381.871 1.39461 -0.467866 0
M  V30 3975 H 383.829 3.97145 1.27794 0
M  V30 3976 H 382.459 2.85374 1.50868 0
M  V30 3977 H 381.511 3.72991 -0.747095 0
M  V30 3978 H 382.823 4.92921 -0.763552 0
M  V30 3979 H 381.977 5.90818 1.37911 0
M  V30 3980 H 380.716 4.64703 1.47996 0
M  V30 3981 H 379.721 5.456 -0.678272 0
M  V30 3982 H 380.946 6.74793 -0.763606 0
M  V30 3983 H 378.892 6.3971 1.45282 0
M  V30 3984 H 378.809 7.55812 0.168709 0
M  V30 3985 H 380.077 7.67687 1.35194 0
M  V30 3986 N 384.306 0.507319 1.49211 0
M  V30 3987 C 385.555 -0.0368315 2.01666 0
M  V30 3988 C 385.868 -1.37459 1.39156 0
M  V30 3989 O 387.074 -2.00579 1.82976 0
M  V30 3990 C 385.53 -0.116089 3.59713 0
M  V30 3991 C 385.138 1.2154 4.31198 0
M  V30 3992 C 386.882 -0.610268 4.2009 0
M  V30 3993 C 384.789 1.09796 5.81119 0
M  V30 3994 H 383.719 -0.0175376 0.753796 0
M  V30 3995 H 386.37 0.647691 1.71689 0
M  V30 3996 H 384.752 -0.8652 3.86433 0
M  V30 3997 H 385.926 1.9783 4.16173 0
M  V30 3998 H 384.241 1.64352 3.82593 0
M  V30 3999 H 386.838 -0.715742 5.29888 0
M  V30 4000 H 387.181 -1.61064 3.8388 0
M  V30 4001 H 387.714 0.0824916 3.97714 0
M  V30 4002 H 384.453 2.0728 6.21864 0
M  V30 4003 H 383.973 0.376058 5.9862 0
M  V30 4004 H 385.652 0.779281 6.4229 0
M  V30 4005 N 385.784 -1.5574 0.241426 0
M  V30 4006 C 387.014 -2.02913 -0.38857 0
M  V30 4007 C 387.422 -1.12014 -1.52478 0
M  V30 4008 O 386.765 -0.125903 -1.83268 0
M  V30 4009 C 386.827 -3.4636 -0.963075 0
M  V30 4010 C 386.491 -4.56982 0.0401916 0
M  V30 4011 C 387.488 -5.12941 0.847766 0
M  V30 4012 C 385.173 -5.0203 0.164699 0
M  V30 4013 C 387.167 -6.12437 1.76636 0
M  V30 4014 C 384.854 -6.01358 1.0868 0
M  V30 4015 C 385.852 -6.5644 1.88616 0
M  V30 4016 O 385.54 -7.53831 2.79273 0
M  V30 4017 H 385.272 -0.668983 -0.0971452 0
M  V30 4018 H 387.826 -2.02198 0.361248 0
M  V30 4019 H 386.056 -3.44206 -1.76235 0
M  V30 4020 H 387.745 -3.77065 -1.50257 0
M  V30 4021 H 388.511 -4.78974 0.762133 0
M  V30 4022 H 384.39 -4.58824 -0.447411 0
M  V30 4023 H 387.934 -6.55355 2.39071 0
M  V30 4024 H 383.831 -6.34746 1.17338 0
M  V30 4025 H 384.599 -7.71428 2.73572 0
M  V30 4026 N 387.262 0.0317525 -1.57568 0
M  V30 4027 C 388.678 0.38735 -1.54828 0
M  V30 4028 C 388.878 1.7677 -0.967187 0
M  V30 4029 O 387.934 2.45581 -0.587063 0
M  V30 4030 C 389.247 0.291667 -2.99282 0
M  V30 4031 C 390.795 0.368946 -3.10818 0
M  V30 4032 C 391.27 0.302741 -4.56998 0
M  V30 4033 N 392.761 0.361617 -4.61786 0
M  V30 4034 C 393.496 0.333238 -5.72431 0
M  V30 4035 N 392.992 0.257308 -6.92322 0
M  V30 4036 N 394.785 0.382769 -5.60795 0
M  V30 4037 H 386.936 -0.871609 -1.93692 0
M  V30 4038 H 389.199 -0.331161 -0.888277 0
M  V30 4039 H 388.905 -0.656794 -3.45513 0
M  V30 4040 H 388.779 1.08638 -3.61217 0
M  V30 4041 H 391.166 1.30784 -2.64536 0
M  V30 4042 H 391.247 -0.455066 -2.5172 0
M  V30 4043 H 390.891 -0.632473 -5.03947 0
M  V30 4044 H 390.821 1.14482 -5.14005 0
M  V30 4045 H 393.312 0.422923 -3.75526 0
M  V30 4046 H 393.625 0.24068 -7.72425 0
M  V30 4047 H 391.97 0.223396 -6.94641 0
M  V30 4048 H 395.161 0.44006 -4.66027 0
M  V30 4049 H 395.334 0.357184 -6.47015 0
M  V30 4050 N 388.74 1.54641 0.303973 0
M  V30 4051 C 389.67 1.88386 1.3796 0
M  V30 4052 C 390.651 0.742485 1.5304 0
M  V30 4053 O 391.836 0.997959 1.66597 0
M  V30 4054 C 388.966 2.12854 2.74427 0
M  V30 4055 C 387.92 3.28702 2.74115 0
M  V30 4056 C 387.246 3.38582 4.13844 0
M  V30 4057 C 388.546 4.65881 2.3612 0
M  V30 4058 H 390.24 2.78474 1.09966 0
M  V30 4059 H 387.786 1.33988 0.527556 0
M  V30 4060 H 389.739 2.35047 3.49758 0
M  V30 4061 H 388.463 1.19535 3.03939 0
M  V30 4062 H 387.122 3.06428 2.0124 0
M  V30 4063 H 386.77 2.42784 4.40528 0
M  V30 4064 H 386.47 4.16453 4.14537 0
M  V30 4065 H 387.994 3.63031 4.90959 0
M  V30 4066 H 389.408 4.87823 3.01167 0
M  V30 4067 H 387.805 5.46444 2.48031 0
M  V30 4068 H 388.875 4.66799 1.3125 0
M  V30 4069 N 390.218 -0.567019 1.47046 0
M  V30 4070 C 391.495 -1.3276 1.43646 0
M  V30 4071 C 391.875 -2.1071 0.128186 0
M  V30 4072 O 391.223 -2.10441 -0.890326 0
M  V30 4073 C 391.433 -2.2404 2.67595 0
M  V30 4074 C 392.781 -2.85372 3.14401 0
M  V30 4075 O 393.805 -2.34346 2.68254 0
M  V30 4076 O 392.664 -3.78091 3.946 0
M  V30 4077 H 389.758 -0.597293 0.571988 0
M  V30 4078 H 392.304 -0.586735 1.59234 0
M  V30 4079 H 391.076 -1.65975 3.54356 0
M  V30 4080 H 390.699 -3.05439 2.54544 0
M  V30 4081 N 391.696 -1.35014 -0.812953 0
M  V30 4082 C 392.942 -1.2812 -1.57204 0
M  V30 4083 C 393.275 0.145869 -1.93651 0
M  V30 4084 O 392.55 1.0937 -1.60836 0
M  V30 4085 C 392.833 -2.18162 -2.86492 0
M  V30 4086 C 392.686 -3.69454 -2.56561 0
M  V30 4087 C 394.005 -2.07439 -3.88145 0
M  V30 4088 H 391.124 -0.466746 -0.570366 0
M  V30 4089 H 393.766 -1.65357 -0.935783 0
M  V30 4090 H 391.916 -1.86535 -3.40789 0
M  V30 4091 H 393.588 -4.11493 -2.08497 0
M  V30 4092 H 391.831 -3.9005 -1.89851 0
M  V30 4093 H 392.502 -4.27835 -3.48799 0
M  V30 4094 H 394.978 -2.35228 -3.4323 0
M  V30 4095 H 393.854 -2.7265 -4.76396 0
M  V30 4096 H 394.115 -1.05439 -4.29343 0
M  V30 4097 N 393.175 1.03435 -1.18907 0
M  V30 4098 C 394.085 2.15075 -0.937015 0
M  V30 4099 C 395.101 1.73706 0.101085 0
M  V30 4100 O 396.277 2.01232 -0.0822948 0
M  V30 4101 C 393.342 3.43458 -0.473057 0
M  V30 4102 C 392.403 3.99172 -1.57989 0
M  V30 4103 C 391.636 5.21427 -1.13797 0
M  V30 4104 O 391.859 5.704 0.000725941 0
M  V30 4105 O 390.793 5.69837 -1.9383 0
M  V30 4106 H 394.619 2.39198 -1.87131 0
M  V30 4107 H 392.204 1.13506 -0.971427 0
M  V30 4108 H 394.086 4.20811 -0.222702 0
M  V30 4109 H 392.761 3.20793 0.432869 0
M  V30 4110 H 391.668 3.23178 -1.88433 0
M  V30 4111 H 393.001 4.2619 -2.46217 0
M  V30 4112 N 394.653 0.992116 1.22453 0
M  V30 4113 C 395.899 0.668523 1.91464 0
M  V30 4114 C 396.232 -0.797313 1.77078 0
M  V30 4115 O 395.507 -1.5765 1.13916 0
M  V30 4116 C 395.79 1.07424 3.43703 0
M  V30 4117 C 395.643 2.59857 3.67143 0
M  V30 4118 C 396.962 0.626891 4.35612 0
M  V30 4119 H 394.081 0.244341 0.695318 0
M  V30 4120 H 396.723 1.2355 1.44345 0
M  V30 4121 H 394.873 0.591816 3.83966 0
M  V30 4122 H 396.545 3.15764 3.3629 0
M  V30 4123 H 394.788 3.01961 3.11451 0
M  V30 4124 H 395.459 2.83296 4.73759 0
M  V30 4125 H 397.935 1.04125 4.02861 0
M  V30 4126 H 396.811 0.939076 5.40807 0
M  V30 4127 H 397.072 -0.472457 4.39568 0
M  V30 4128 N 396.131 -1.37776 0.765217 0
M  V30 4129 C 397.041 -2.34135 0.147666 0
M  V30 4130 C 398.057 -1.59854 -0.687215 0
M  V30 4131 O 399.233 -1.91983 -0.608659 0
M  V30 4132 C 396.298 -3.3901 -0.72617 0
M  V30 4133 C 395.359 -4.2912 0.124417 0
M  V30 4134 C 394.592 -5.28986 -0.707807 0
M  V30 4135 O 394.815 -5.36205 -1.94525 0
M  V30 4136 O 393.749 -6.01779 -0.12046 0
M  V30 4137 H 397.575 -2.88664 0.943758 0
M  V30 4138 H 395.16 -1.39824 0.526277 0
M  V30 4139 H 397.042 -4.03195 -1.22524 0
M  V30 4140 H 395.717 -2.86819 -1.50056 0
M  V30 4141 H 394.624 -3.68057 0.669696 0
M  V30 4142 H 395.957 -4.84598 0.861736 0
M  V30 4143 N 397.609 -0.515225 -1.4894 0
M  V30 4144 C 398.541 0.292481 -2.27326 0
M  V30 4145 C 399.554 0.917838 -1.3446 0
M  V30 4146 O 400.743 0.798772 -1.5963 0
M  V30 4147 C 397.843 1.42803 -3.07344 0
M  V30 4148 C 397.016 0.907347 -4.27885 0
M  V30 4149 C 396.075 1.92222 -4.89834 0
M  V30 4150 O 395.101 1.48506 -5.49486 0
M  V30 4151 N 396.303 3.25355 -4.80754 0
M  V30 4152 H 399.068 -0.379721 -2.97285 0
M  V30 4153 H 396.629 -0.348638 -1.58102 0
M  V30 4154 H 398.621 2.10481 -3.45658 0
M  V30 4155 H 397.191 2.00414 -2.39902 0
M  V30 4156 H 396.411 0.0550218 -3.94162 0
M  V30 4157 H 397.699 0.538108 -5.05946 0
M  V30 4158 H 397.097 3.6355 -4.33414 0
M  V30 4159 H 395.654 3.88707 -5.23211 0
M  V30 4160 N 399.087 1.5561 -0.249682 0
M  V30 4161 C 400.333 1.99306 0.374841 0
M  V30 4162 C 400.666 1.13767 1.57387 0
M  V30 4163 O 399.941 0.201711 1.93451 0
M  V30 4164 C 400.224 3.51507 0.781986 0
M  V30 4165 C 400.077 4.4781 -0.422629 0
M  V30 4166 C 401.396 4.08884 1.62793 0
M  V30 4167 H 398.515 0.724572 0.134773 0
M  V30 4168 H 401.157 1.86719 -0.351549 0
M  V30 4169 H 399.307 3.62363 1.4009 0
M  V30 4170 H 400.979 4.48931 -1.06108 0
M  V30 4171 H 399.222 4.20518 -1.06524 0
M  V30 4172 H 399.893 5.51919 -0.0943766 0
M  V30 4173 H 402.369 4.01147 1.10547 0
M  V30 4174 H 401.245 5.1564 1.88166 0
M  V30 4175 H 401.506 3.57515 2.60068 0
M  V30 4176 N 400.565 -0.0233959 1.57583 0
M  V30 4177 C 401.528 -1.00693 2.05897 0
M  V30 4178 C 402.528 -1.28693 0.964092 0
M  V30 4179 O 403.718 -1.23602 1.22753 0
M  V30 4180 C 400.85 -2.33825 2.4807 0
M  V30 4181 H 402.043 -0.589476 2.9405 0
M  V30 4182 H 399.596 -0.270354 1.53944 0
M  V30 4183 H 400.331 -2.80307 1.6309 0
M  V30 4184 H 400.116 -2.1483 3.2801 0
M  V30 4185 H 401.606 -3.04426 2.85857 0
M  V30 4186 N 402.043 -1.548 -0.295768 0
M  V30 4187 C 402.991 -1.86874 -1.38495 0
M  V30 4188 C 403.985 -0.742938 -1.52239 0
M  V30 4189 O 405.191 -0.926999 -1.54294 0
M  V30 4190 H 401.566 -0.592786 -0.462719 0
M  V30 4191 H 403.537 -2.77904 -1.08682 0
M  V30 4192 C 402.286 -2.13732 -2.74252 0
M  V30 4193 H 401.609 -2.99835 -2.64459 0
M  V30 4194 H 403.049 -2.4011 -3.49461 0
M  V30 4195 C 401.508 -0.937539 -3.23592 0
M  V30 4196 O 402.038 -0.160665 -4.01379 0
M  V30 4197 N 400.244 -0.741478 -2.80981 0
M  V30 4198 H 399.791 -1.37489 -2.1784 0
M  V30 4199 H 399.749 0.0597103 -3.14343 0
M  V30 4200 N 403.521 0.559213 -1.47345 0
M  V30 4201 C 404.431 1.69388 -1.62311 0
M  V30 4202 C 405.447 1.6648 -0.505993 0
M  V30 4203 O 406.623 1.85964 -0.773262 0
M  V30 4204 C 403.688 3.05894 -1.63185 0
M  V30 4205 C 402.749 3.19885 -2.86307 0
M  V30 4206 C 401.982 4.49879 -2.87131 0
M  V30 4207 O 402.205 5.35217 -1.97229 0
M  V30 4208 O 401.139 4.67618 -3.78968 0
M  V30 4209 H 404.965 1.59706 -2.58317 0
M  V30 4210 H 402.55 0.728989 -1.30407 0
M  V30 4211 H 404.432 3.87133 -1.66451 0
M  V30 4212 H 403.107 3.15964 -0.70345 0
M  V30 4213 H 402.014 2.38052 -2.88587 0
M  V30 4214 H 403.347 3.14718 -3.78435 0
M  V30 4215 N 404.999 1.35443 0.805782 0
M  V30 4216 C 405.946 1.28431 1.91766 0
M  V30 4217 C 406.916 0.156102 1.65365 0
M  V30 4218 O 408.101 0.339936 1.87747 0
M  V30 4219 C 405.241 1.06301 3.2832 0
M  V30 4220 C 404.354 2.2805 3.66902 0
M  V30 4221 C 403.489 1.99064 4.92491 0
M  V30 4222 C 402.528 3.16863 5.23703 0
M  V30 4223 N 401.665 2.87647 6.40471 0
M  V30 4224 H 406.505 2.23511 1.97096 0
M  V30 4225 H 404.042 1.11105 0.964054 0
M  V30 4226 H 406 0.915012 4.07042 0
M  V30 4227 H 404.63 0.148822 3.22457 0
M  V30 4228 H 403.682 2.53711 2.83434 0
M  V30 4229 H 404.994 3.1601 3.85927 0
M  V30 4230 H 404.148 1.81099 5.7904 0
M  V30 4231 H 402.887 1.0839 4.75503 0
M  V30 4232 H 401.892 3.35404 4.35642 0
M  V30 4233 H 403.117 4.08339 5.4262 0
M  V30 4234 H 401.063 1.99568 6.24907 0
M  V30 4235 H 400.98 3.69141 6.59751 0
M  V30 4236 H 402.248 2.73226 7.30047 0
M  V30 4237 N 406.477 -1.02803 1.19454 0
M  V30 4238 C 407.407 -2.12999 0.956758 0
M  V30 4239 C 408.388 -1.69743 -0.110188 0
M  V30 4240 O 409.573 -1.94148 0.0450038 0
M  V30 4241 C 406.703 -3.43746 0.495553 0
M  V30 4242 C 405.657 -4.00688 1.50443 0
M  V30 4243 C 404.983 -5.27067 0.900275 0
M  V30 4244 C 406.283 -4.35397 2.8849 0
M  V30 4245 H 407.977 -2.33148 1.87836 0
M  V30 4246 H 405.523 -1.12045 0.904539 0
M  V30 4247 H 407.476 -4.2021 0.316493 0
M  V30 4248 H 406.2 -3.23321 -0.461646 0
M  V30 4249 H 404.859 -3.2632 1.67065 0
M  V30 4250 H 404.507 -5.02959 -0.064503 0
M  V30 4251 H 404.207 -5.66127 1.57397 0
M  V30 4252 H 405.731 -6.06196 0.73203 0
M  V30 4253 H 407.145 -5.02795 2.75446 0
M  V30 4254 H 405.542 -4.85541 3.52661 0
M  V30 4255 H 406.612 -3.44662 3.41081 0
M  V30 4256 N 407.956 -0.998596 -1.21925 0
M  V30 4257 C 409.196 -0.685948 -1.92546 0
M  V30 4258 C 409.56 0.768441 -1.75952 0
M  V30 4259 O 410.761 1.19277 -2.40887 0
M  V30 4260 C 409.032 -1.08767 -3.40448 0
M  V30 4261 S 410.591 -0.894251 -4.29591 0
M  V30 4262 H 407.409 -0.250622 -0.665364 0
M  V30 4263 H 410.011 -1.28207 -1.47591 0
M  V30 4264 H 408.715 -2.14242 -3.50041 0
M  V30 4265 H 408.246 -0.48357 -3.90417 0
M  V30 4266 H 410.261 0.212149 -4.95746 0
M  V30 4267 N 409.434 1.37368 -0.772513 0
M  V30 4268 C 410.659 2.0447 -0.347386 0
M  V30 4269 C 411.084 1.57882 1.0225 0
M  V30 4270 O 410.442 0.73941 1.65537 0
M  V30 4271 C 410.49 3.58369 -0.400479 0
M  V30 4272 O 409.594 4.0803 0.598789 0
M  V30 4273 H 408.935 0.646773 -0.15027 0
M  V30 4274 H 411.465 1.75667 -1.04892 0
M  V30 4275 H 411.475 4.07183 -0.258045 0
M  V30 4276 H 410.15 3.91633 -1.39986 0
M  V30 4277 H 408.727 3.70534 0.419411 0
M  V30 4278 N 410.912 0.523116 1.48665 0
M  V30 4279 C 412.189 -0.0775449 1.95446 0
M  V30 4280 C 412.569 -1.5197 1.4652 0
M  V30 4281 O 411.917 -2.17876 0.688657 0
M  V30 4282 C 412.127 0.0326135 3.48985 0
M  V30 4283 C 413.475 -0.130141 4.24401 0
M  V30 4284 O 414.499 -0.0415142 3.56176 0
M  V30 4285 O 413.358 -0.31491 5.45592 0
M  V30 4286 H 410.452 -0.0831012 0.822814 0
M  V30 4287 H 412.998 0.587227 1.59216 0
M  V30 4288 H 411.77 1.03748 3.77296 0
M  V30 4289 H 411.393 -0.671317 3.91892 0
M  V30 4290 N 412.39 -1.55475 0.257931 0
M  V30 4291 C 413.636 -1.99502 -0.364266 0
M  V30 4292 C 413.969 -1.146 -1.56782 0
M  V30 4293 O 413.244 -0.211968 -1.93342 0
M  V30 4294 C 413.527 -3.51917 -0.763333 0
M  V30 4295 C 413.38 -4.4758 0.446371 0
M  V30 4296 C 414.699 -4.09742 -1.60623 0
M  V30 4297 H 411.818 -0.725277 -0.130929 0
M  V30 4298 H 414.46 -1.8653 0.361446 0
M  V30 4299 H 412.61 -3.63101 -1.38166 0
M  V30 4300 H 414.282 -4.48362 1.08487 0
M  V30 4301 H 412.525 -4.19947 1.08753 0
M  V30 4302 H 413.196 -5.51862 0.123645 0
M  V30 4303 H 415.672 -4.01727 -1.08418 0
M  V30 4304 H 414.548 -5.16631 -1.85429 0
M  V30 4305 H 414.809 -3.58889 -2.58169 0
M  V30 4306 N 413.868 0.0150385 -1.57593 0
M  V30 4307 C 415.093 0.718067 -1.94573 0
M  V30 4308 C 415.518 1.6734 -0.859005 0
M  V30 4309 O 414.876 1.80362 0.184147 0
M  V30 4310 C 414.924 1.43918 -3.30636 0
M  V30 4311 O 414.028 2.55299 -3.23876 0
M  V30 4312 H 413.369 0.192125 -0.635597 0
M  V30 4313 H 415.899 -0.0336708 -2.04572 0
M  V30 4314 H 415.909 1.80598 -3.65853 0
M  V30 4315 H 414.584 0.738619 -4.09289 0
M  V30 4316 H 413.161 2.21058 -3.00312 0
M  V30 4317 N 415.346 1.54954 0.287554 0
M  V30 4318 C 416.294 1.87606 1.37502 0
M  V30 4319 C 417.288 0.751001 1.51843 0
M  V30 4320 O 418.494 0.935169 1.53801 0
M  V30 4321 H 414.869 0.595231 0.459569 0
M  V30 4322 H 416.84 2.78477 1.07206 0
M  V30 4323 C 415.589 2.15183 2.73115 0
M  V30 4324 H 414.912 3.01234 2.62866 0
M  V30 4325 H 416.352 2.4196 3.48183 0
M  V30 4326 C 414.811 0.954686 3.2309 0
M  V30 4327 O 415.341 0.181949 4.01288 0
M  V30 4328 N 413.547 0.756368 2.80584 0
M  V30 4329 H 413.094 1.38643 2.17108 0
M  V30 4330 H 413.052 -0.0430391 3.14371 0
M  V30 4331 N 416.824 -0.551391 1.4764 0
M  V30 4332 C 418.235 -1.13349 1.48354 0
M  V30 4333 C 418.586 -1.94709 0.241432 0
M  V30 4334 O 417.711 -2.06306 -0.653205 0
M  V30 4335 C 418.306 -2.0623 2.68802 0
M  V30 4336 C 416.865 -2.597 2.72457 0
M  V30 4337 C 416.012 -1.36201 2.41546 0
M  V30 4338 H 418.963 -0.337698 1.55065 0
M  V30 4339 H 418.984 -2.90196 2.46103 0
M  V30 4340 H 418.496 -1.46987 3.59188 0
M  V30 4341 H 416.597 -3.22724 1.86225 0
M  V30 4342 H 416.71 -3.00296 3.73308 0
M  V30 4343 H 415.074 -1.67068 1.9225 0
M  V30 4344 H 415.857 -0.787425 3.34147 0
M  V30 4345 N 418.302 -1.35869 -0.798587 0
M  V30 4346 C 419.55 -1.29332 -1.55298 0
M  V30 4347 C 419.871 0.129729 -1.94568 0
M  V30 4348 O 419.141 1.06796 -1.6423 0
M  V30 4349 H 417.721 -0.475737 -0.57592 0
M  V30 4350 H 420.383 -1.70062 -0.952093 0
M  V30 4351 H 419.479 -1.91458 -2.46476 0
M  V30 4352 N 419.78 1.02168 -1.19998 0
M  V30 4353 C 420.728 2.12717 -0.940967 0
M  V30 4354 C 421.722 1.69069 0.105841 0
M  V30 4355 O 422.928 1.79946 -0.0440583 0
M  V30 4356 H 419.303 0.695108 -0.28693 0
M  V30 4357 H 421.274 2.3175 -1.87975 0
M  V30 4358 C 420.023 3.44027 -0.504049 0
M  V30 4359 H 419.346 3.78036 -1.30112 0
M  V30 4360 H 420.786 4.22452 -0.361991 0
M  V30 4361 C 419.245 3.27678 0.782878 0
M  V30 4362 O 419.775 3.56949 1.84256 0
M  V30 4363 N 417.981 2.80943 0.742921 0
M  V30 4364 H 417.528 2.57322 -0.119687 0
M  V30 4365 H 417.486 2.70385 1.60435 0
M  V30 4366 N 421.258 1.00505 1.21394 0
M  V30 4367 C 422.498 0.696149 1.9218 0
M  V30 4368 C 422.862 -0.759099 1.76357 0
M  V30 4369 O 424.063 -1.17998 2.41516 0
M  V30 4370 C 422.334 1.10571 3.39866 0
M  V30 4371 S 423.893 0.91702 4.29111 0
M  V30 4372 H 420.711 0.254147 0.664026 0
M  V30 4373 H 423.313 1.28988 1.46909 0
M  V30 4374 H 422.017 2.16096 3.489 0
M  V30 4375 H 421.548 0.504268 3.90155 0
M  V30 4376 H 423.563 -0.185855 4.95852 0
M  V30 4377 N 422.737 -1.36956 0.779787 0
M  V30 4378 C 423.962 -2.04283 0.358224 0
M  V30 4379 C 424.387 -1.58422 -1.01411 0
M  V30 4380 O 423.745 -0.748179 -1.65142 0
M  V30 4381 C 423.793 -3.58152 0.419479 0
M  V30 4382 O 422.897 -4.08342 -0.577142 0
M  V30 4383 H 422.238 -0.645967 0.153698 0
M  V30 4384 H 424.768 -1.75108 1.05822 0
M  V30 4385 H 424.778 -4.07041 0.279636 0
M  V30 4386 H 423.453 -3.90886 1.42061 0
M  V30 4387 H 422.03 -3.70751 -0.399755 0
M  V30 4388 N 424.215 -0.530993 -1.48385 0
M  V30 4389 C 425.455 0.000718982 -2.044 0
M  V30 4390 C 425.819 1.31485 -1.39913 0
M  V30 4391 O 427.02 1.93265 -1.86821 0
M  V30 4392 C 425.291 0.119177 -3.57201 0
M  V30 4393 S 426.85 0.600806 -4.34667 0
M  V30 4394 H 423.668 -0.0125473 -0.710889 0
M  V30 4395 H 426.27 -0.711783 -1.82082 0
M  V30 4396 H 424.974 -0.842061 -4.01668 0
M  V30 4397 H 424.505 0.856026 -3.83974 0
M  V30 4398 H 426.52 1.86514 -4.59812 0
M  V30 4399 N 425.693 1.55336 -0.266172 0
M  V30 4400 C 426.623 2.25146 0.618981 0
M  V30 4401 C 427.604 1.23845 1.16604 0
M  V30 4402 O 428.789 1.52544 1.20183 0
M  V30 4403 C 425.919 2.96572 1.80728 0
M  V30 4404 C 424.873 4.04726 1.39215 0
M  V30 4405 C 424.199 4.63678 2.66283 0
M  V30 4406 C 425.499 5.19407 0.548942 0
M  V30 4407 H 427.193 2.99377 0.0368116 0
M  V30 4408 H 424.739 1.43991 0.0162651 0
M  V30 4409 H 426.692 3.44116 2.43232 0
M  V30 4410 H 425.416 2.19861 2.41514 0
M  V30 4411 H 424.075 3.57979 0.790351 0
M  V30 4412 H 423.723 3.83646 3.25308 0
M  V30 4413 H 423.423 5.367 2.39222 0
M  V30 4414 H 424.947 5.13967 3.29651 0
M  V30 4415 H 426.361 5.63059 1.07876 0
M  V30 4416 H 424.758 5.98936 0.373593 0
M  V30 4417 H 425.828 4.8295 -0.434394 0
M  V30 4418 N 427.171 -0.0066808 1.57599 0
M  V30 4419 C 428.399 -0.704087 1.94551 0
M  V30 4420 C 428.814 -1.67677 0.867746 0
M  V30 4421 O 428.171 -1.8185 -0.153925 0
M  V30 4422 C 428.222 -1.44177 3.31505 0
M  V30 4423 O 427.943 -0.508097 4.35144 0
M  V30 4424 C 429.444 -2.23429 3.82876 0
M  V30 4425 H 426.664 -0.196523 0.641576 0
M  V30 4426 H 429.208 0.042453 2.04456 0
M  V30 4427 H 427.363 -2.13999 3.22929 0
M  V30 4428 H 427.777 -1.02782 5.14331 0
M  V30 4429 H 429.251 -2.70552 4.8115 0
M  V30 4430 H 429.728 -3.05818 3.15233 0
M  V30 4431 H 430.334 -1.58636 3.94607 0
M  V30 4432 N 428.649 -1.55105 -0.279332 0
M  V30 4433 C 429.896 -1.75412 -1.01177 0
M  V30 4434 C 430.224 -0.551728 -1.86511 0
M  V30 4435 O 429.479 0.465919 -1.90073 0
M  V30 4436 C 429.778 -3.0086 -1.92919 0
M  V30 4437 C 429.444 -4.33689 -1.23387 0
M  V30 4438 C 428.106 -4.69792 -1.04159 0
M  V30 4439 C 430.458 -5.15941 -0.738562 0
M  V30 4440 C 427.786 -5.85707 -0.341166 0
M  V30 4441 C 430.138 -6.32579 -0.0517636 0
M  V30 4442 C 428.802 -6.67326 0.152292 0
M  V30 4443 H 428.072 -0.641879 -0.370233 0
M  V30 4444 H 430.719 -1.89373 -0.284627 0
M  V30 4445 H 429.024 -2.81773 -2.72234 0
M  V30 4446 H 430.721 -3.13768 -2.49701 0
M  V30 4447 H 427.311 -4.05309 -1.39364 0
M  V30 4448 H 431.495 -4.8853 -0.874764 0
M  V30 4449 H 426.751 -6.11157 -0.172287 0
M  V30 4450 H 430.925 -6.9557 0.339828 0
M  V30 4451 H 428.552 -7.56998 0.697014 0
M  V30 4452 N 430.127 0.543554 -1.4793 0
M  V30 4453 C 431.057 1.65888 -1.64327 0
M  V30 4454 C 432.038 1.62818 -0.492383 0
M  V30 4455 O 433.223 1.80226 -0.723338 0
M  V30 4456 C 430.353 3.04506 -1.67013 0
M  V30 4457 C 429.307 3.2243 -2.81466 0
M  V30 4458 C 428.633 4.61972 -2.69233 0
M  V30 4459 C 429.933 3.06496 -4.22915 0
M  V30 4460 H 431.627 1.52421 -2.57698 0
M  V30 4461 H 429.173 0.731849 -1.24016 0
M  V30 4462 H 431.126 3.82391 -1.77074 0
M  V30 4463 H 429.85 3.18964 -0.70212 0
M  V30 4464 H 428.509 2.46957 -2.70938 0
M  V30 4465 H 428.157 4.73247 -1.7043 0
M  V30 4466 H 427.857 4.74911 -3.46025 0
M  V30 4467 H 429.381 5.41974 -2.81242 0
M  V30 4468 H 430.795 3.74186 -4.34348 0
M  V30 4469 H 429.192 3.30938 -5.006 0
M  V30 4470 H 430.262 2.03077 -4.40327 0
M  V30 4471 N 431.605 1.3629 0.791371 0
M  V30 4472 C 432.854 1.29742 1.54434 0
M  V30 4473 C 433.167 -0.121729 1.95221 0
M  V30 4474 O 434.373 -0.309579 2.69729 0
M  V30 4475 C 432.829 2.27623 2.78776 0
M  V30 4476 C 432.437 3.74963 2.45166 0
M  V30 4477 C 434.181 2.30047 3.56761 0
M  V30 4478 C 432.088 4.64626 3.65891 0
M  V30 4479 H 431.018 0.482113 0.579727 0
M  V30 4480 H 433.669 1.61642 0.868565 0
M  V30 4481 H 432.051 1.88714 3.48142 0
M  V30 4482 H 433.225 4.22596 1.83709 0
M  V30 4483 H 431.54 3.75295 1.80396 0
M  V30 4484 H 434.137 2.94247 4.46456 0
M  V30 4485 H 434.48 1.30846 3.95203 0
M  V30 4486 H 435.013 2.67563 2.94372 0
M  V30 4487 H 431.752 5.64883 3.32547 0
M  V30 4488 H 431.272 4.2171 4.26521 0
M  V30 4489 H 432.951 4.80801 4.32943 0
M  V30 4490 N 433.083 -1.0153 1.20538 0
M  V30 4491 C 434.03 -2.10098 0.955383 0
M  V30 4492 C 435 -1.65702 -0.114878 0
M  V30 4493 O 436.185 -1.90776 0.0301118 0
M  V30 4494 C 433.325 -3.41236 0.514969 0
M  V30 4495 C 432.438 -3.99102 1.65353 0
M  V30 4496 C 431.573 -5.18306 1.16329 0
M  V30 4497 C 430.612 -5.68258 2.27485 0
M  V30 4498 N 429.749 -6.78722 1.7967 0
M  V30 4499 H 434.589 -2.30818 1.88486 0
M  V30 4500 H 432.126 -1.13189 0.939499 0
M  V30 4501 H 434.084 -4.16504 0.240935 0
M  V30 4502 H 432.714 -3.20585 -0.377512 0
M  V30 4503 H 431.766 -3.20918 2.04245 0
M  V30 4504 H 433.078 -4.32177 2.49047 0
M  V30 4505 H 432.232 -6.00782 0.845302 0
M  V30 4506 H 430.971 -4.86799 0.296254 0
M  V30 4507 H 429.976 -4.84385 2.60099 0
M  V30 4508 H 431.201 -6.01798 3.14667 0
M  V30 4509 H 429.147 -6.49042 0.95295 0
M  V30 4510 H 429.064 -7.10996 2.56944 0
M  V30 4511 H 430.332 -7.64759 1.50875 0
M  V30 4512 N 434.561 -1.01147 -1.20859 0
M  V30 4513 C 435.471 -0.58686 -2.27141 0
M  V30 4514 C 436.487 0.373198 -1.69951 0
M  V30 4515 O 437.663 0.235423 -2.00019 0
M  V30 4516 C 434.728 0.0733602 -3.46622 0
M  V30 4517 C 433.789 -0.931995 -4.19061 0
M  V30 4518 C 433.022 -0.303186 -5.32838 0
M  V30 4519 O 433.245 0.898395 -5.63281 0
M  V30 4520 O 432.179 -1.01735 -5.9324 0
M  V30 4521 H 436.005 -1.47155 -2.65667 0
M  V30 4522 H 433.59 -0.780689 -1.2738 0
M  V30 4523 H 435.472 0.442333 -4.19072 0
M  V30 4524 H 434.147 0.932329 -3.09983 0
M  V30 4525 H 433.054 -1.35224 -3.48805 0
M  V30 4526 H 434.387 -1.76076 -4.59628 0
M  V30 4527 N 436.039 1.36541 -0.78704 0
M  V30 4528 C 437.279 2.01138 -0.363714 0
M  V30 4529 C 437.643 1.61114 1.04433 0
M  V30 4530 O 438.844 2.18285 1.56861 0
M  V30 4531 C 437.115 3.53603 -0.519582 0
M  V30 4532 S 438.674 4.38415 -0.183782 0
M  V30 4533 H 435.492 0.697263 -0.13909 0
M  V30 4534 H 438.094 1.66475 -1.02501 0
M  V30 4535 H 436.798 3.8022 -1.5447 0
M  V30 4536 H 436.329 3.93084 0.15773 0
M  V30 4537 H 438.344 4.85698 1.01547 0
M  V30 4538 N 437.518 0.538854 1.48102 0
M  V30 4539 C 438.428 -0.222648 2.33541 0
M  V30 4540 C 439.444 -0.930225 1.47047 0
M  V30 4541 O 440.62 -0.903211 1.80011 0
M  V30 4542 C 437.685 -1.25064 3.23357 0
M  V30 4543 C 436.746 -0.552469 4.2573 0
M  V30 4544 C 435.979 -1.53149 5.11254 0
M  V30 4545 O 436.202 -2.76487 4.9891 0
M  V30 4546 O 435.136 -1.06602 5.92385 0
M  V30 4547 H 438.962 0.477707 2.99919 0
M  V30 4548 H 436.547 0.299669 1.46364 0
M  V30 4549 H 438.429 -1.8445 3.78888 0
M  V30 4550 H 437.104 -1.93325 2.59629 0
M  V30 4551 H 436.011 0.082114 3.7401 0
M  V30 4552 H 437.344 0.0883526 4.92121 0
M  V30 4553 N 438.996 -1.55193 0.274407 0
M  V30 4554 C 439.944 -2.23924 -0.629362 0
M  V30 4555 C 440.938 -1.23602 -1.1584 0
M  V30 4556 O 442.144 -1.41535 -1.11211 0
M  V30 4557 H 438.519 -0.718637 -0.221507 0
M  V30 4558 H 440.49 -2.98388 -0.0268322 0
M  V30 4559 C 439.239 -2.97329 -1.80252 0
M  V30 4560 H 438.562 -3.74313 -1.40462 0
M  V30 4561 H 440.002 -3.48743 -2.41152 0
M  V30 4562 C 438.461 -2.0276 -2.69054 0
M  V30 4563 O 438.991 -1.57836 -3.69392 0
M  V30 4564 N 437.197 -1.69275 -2.36208 0
M  V30 4565 H 436.744 -2.06004 -1.54661 0
M  V30 4566 H 436.702 -1.06271 -2.95895 0
M  V30 4567 N 440.474 -0.00167713 -1.576 0
M  V30 4568 C 441.702 0.693759 -1.94922 0
M  V30 4569 C 442.117 1.67215 -0.876626 0
M  V30 4570 O 441.474 1.81929 0.144279 0
M  V30 4571 C 441.525 1.42416 -3.32265 0
M  V30 4572 O 441.246 0.485014 -4.35407 0
M  V30 4573 C 442.747 2.21395 -3.84056 0
M  V30 4574 H 439.967 0.193118 -0.642609 0
M  V30 4575 H 442.511 -0.0532952 -2.04431 0
M  V30 4576 H 440.666 2.12284 -3.24059 0
M  V30 4577 H 441.08 1.00053 -5.14868 0
M  V30 4578 H 442.554 2.67996 -4.82578 0
M  V30 4579 H 443.031 3.04142 -3.16851 0
M  V30 4580 H 443.637 1.56542 -3.95443 0
M  V30 4581 N 441.952 1.55251 0.271103 0
M  V30 4582 C 442.9 1.89054 1.35504 0
M  V30 4583 C 443.894 0.767064 1.51038 0
M  V30 4584 O 445.1 0.951429 1.528 0
M  V30 4585 H 441.475 0.600072 0.45323 0
M  V30 4586 H 443.446 2.79598 1.04247 0
M  V30 4587 C 442.195 2.18068 2.70817 0
M  V30 4588 H 441.518 3.04005 2.59656 0
M  V30 4589 H 442.958 2.4564 3.45597 0
M  V30 4590 C 441.417 0.988901 3.2206 0
M  V30 4591 O 441.947 0.224501 4.01072 0
M  V30 4592 N 440.153 0.786085 2.79766 0
M  V30 4593 H 439.7 1.40937 2.15626 0
M  V30 4594 H 439.658 -0.00969349 3.14399 0
M  V30 4595 N 443.43 -0.535701 1.48216 0
M  V30 4596 C 444.679 -1.28828 1.55197 0
M  V30 4597 C 444.992 -1.94263 0.228278 0
M  V30 4598 O 446.198 -2.70927 0.176278 0
M  V30 4599 C 444.654 -2.33727 2.73678 0
M  V30 4600 C 444.262 -1.74386 4.12666 0
M  V30 4601 C 446.006 -3.1003 2.89968 0
M  V30 4602 C 443.913 -2.77192 5.22416 0
M  V30 4603 H 442.843 -0.484484 0.577747 0
M  V30 4604 H 445.494 -0.56646 1.74538 0
M  V30 4605 H 443.876 -3.08919 2.4776 0
M  V30 4606 H 445.05 -1.05421 4.48579 0
M  V30 4607 H 443.365 -1.10595 4.01445 0
M  V30 4608 H 445.962 -3.86842 3.6913 0
M  V30 4609 H 446.305 -3.65542 1.9921 0
M  V30 4610 H 446.838 -2.41952 3.15759 0
M  V30 4611 H 443.577 -2.26507 6.15122 0
M  V30 4612 H 443.097 -3.44502 4.90998 0
M  V30 4613 H 444.776 -3.40285 5.50286 0
M  V30 4614 N 444.908 -1.36708 -0.784132 0
M  V30 4615 C 445.841 -1.25827 -1.90375 0
M  V30 4616 C 446.819 -0.141331 -1.61985 0
M  V30 4617 O 448.003 -0.313389 -1.85877 0
M  V30 4618 C 445.13 -0.942621 -3.25319 0
M  V30 4619 C 444.176 -2.07474 -3.72635 0
M  V30 4620 S 445.009 -3.69317 -3.8777 0
M  V30 4621 C 446.165 -3.39876 -5.25581 0
M  V30 4622 H 446.398 -2.20593 -1.99314 0
M  V30 4623 H 443.931 -1.22186 -0.943926 0
M  V30 4624 H 445.889 -0.767321 -4.03265 0
M  V30 4625 H 444.55 -0.0126566 -3.14097 0
M  V30 4626 H 443.743 -1.80858 -4.70432 0
M  V30 4627 H 443.345 -2.20953 -3.01754 0
M  V30 4628 H 445.637 -2.94097 -6.10339 0
M  V30 4629 H 446.58 -4.36956 -5.57203 0
M  V30 4630 H 446.988 -2.75098 -4.92931 0
M  V30 4631 N 446.386 1.0089 -1.21074 0
M  V30 4632 C 447.333 2.09588 -0.966512 0
M  V30 4633 C 448.303 1.65761 0.106089 0
M  V30 4634 O 449.488 1.90758 -0.0402287 0
M  V30 4635 C 446.628 3.40958 -0.533058 0
M  V30 4636 C 445.741 3.9822 -1.67467 0
M  V30 4637 C 444.876 5.17682 -1.19076 0
M  V30 4638 C 443.915 5.67043 -2.30496 0
M  V30 4639 N 443.052 6.77759 -1.83267 0
M  V30 4640 H 447.892 2.29815 -1.89708 0
M  V30 4641 H 445.429 1.12689 -0.945489 0
M  V30 4642 H 447.387 4.1637 -0.263019 0
M  V30 4643 H 446.017 3.20781 0.360505 0
M  V30 4644 H 445.069 3.1983 -2.05944 0
M  V30 4645 H 446.381 4.3085 -2.51336 0
M  V30 4646 H 445.535 6.00326 -0.877151 0
M  V30 4647 H 444.274 4.86635 -0.322066 0
M  V30 4648 H 443.279 4.82999 -2.62664 0
M  V30 4649 H 444.504 6.00121 -3.17855 0
M  V30 4650 H 442.45 6.48527 -0.987356 0
M  V30 4651 H 442.367 7.09624 -2.60711 0
M  V30 4652 H 443.635 7.63949 -1.54928 0
M  V30 4653 N 447.864 1.01787 1.20321 0
M  V30 4654 C 448.812 0.58254 2.25187 0
M  V30 4655 C 449.806 -0.379359 1.65098 0
M  V30 4656 O 451.012 -0.249142 1.78267 0
M  V30 4657 H 447.387 0.170078 0.732514 0
M  V30 4658 H 449.358 1.47788 2.59232 0
M  V30 4659 C 448.107 -0.0620885 3.47645 0
M  V30 4660 H 447.43 0.669069 3.94162 0
M  V30 4661 H 448.87 -0.329784 4.22716 0
M  V30 4662 C 447.329 -1.3053 3.10586 0
M  V30 4663 O 447.859 -2.39848 3.22236 0
M  V30 4664 N 446.065 -1.18988 2.65123 0
M  V30 4665 H 445.612 -0.300341 2.55843 0
M  V30 4666 H 445.57 -2.02267 2.40698 0
M  V30 4667 N 449.342 -1.36122 0.79427 0
M  V30 4668 C 450.272 -2.32551 0.210328 0
M  V30 4669 C 451.253 -1.56884 -0.657386 0
M  V30 4670 O 452.438 -1.85014 -0.590207 0
M  V30 4671 C 449.568 -3.41128 -0.651819 0
M  V30 4672 C 448.522 -4.27842 0.116395 0
M  V30 4673 C 447.848 -5.2763 -0.86666 0
M  V30 4674 C 449.148 -5.05647 1.30837 0
M  V30 4675 H 450.842 -2.81636 1.01594 0
M  V30 4676 H 448.388 -1.35407 0.489981 0
M  V30 4677 H 450.341 -4.07581 -1.07031 0
M  V30 4678 H 449.065 -2.90622 -1.49019 0
M  V30 4679 H 447.724 -3.62952 0.515915 0
M  V30 4680 H 447.372 -4.73395 -1.70019 0
M  V30 4681 H 447.072 -5.86514 -0.35705 0
M  V30 4682 H 448.596 -5.96955 -1.28361 0
M  V30 4683 H 450.01 -5.65113 0.965393 0
M  V30 4684 H 448.407 -5.73967 1.75161 0
M  V30 4685 H 449.477 -4.37006 2.10128 0
M  V30 4686 N 450.82 -0.546701 -1.47814 0
M  V30 4687 C 452.231 -0.110564 -1.86372 0
M  V30 4688 C 452.582 1.31678 -1.45449 0
M  V30 4689 O 451.707 1.98889 -0.852758 0
M  V30 4690 C 452.302 -0.193873 -3.38245 0
M  V30 4691 C 450.861 0.187164 -3.75934 0
M  V30 4692 C 450.008 -0.546166 -2.71868 0
M  V30 4693 H 452.959 -0.757022 -1.39481 0
M  V30 4694 H 452.98 0.590218 -3.75895 0
M  V30 4695 H 452.492 -1.23282 -3.67999 0
M  V30 4696 H 450.593 1.22762 -3.51796 0
M  V30 4697 H 450.706 -0.164083 -4.78819 0
M  V30 4698 H 449.07 0.00953904 -2.54698 0
M  V30 4699 H 449.853 -1.58606 -3.04465 0
M  V30 4700 N 452.299 1.55045 -0.282633 0
M  V30 4701 C 453.231 2.2023 0.634924 0
M  V30 4702 C 454.244 1.18931 1.11172 0
M  V30 4703 O 455.433 1.4562 1.03233 0
M  V30 4704 C 452.533 2.82041 1.87899 0
M  V30 4705 C 451.706 4.091 1.54776 0
M  V30 4706 C 450.765 4.54887 2.64507 0
M  V30 4707 O 449.791 5.20496 2.30375 0
M  V30 4708 N 450.993 4.25659 3.94709 0
M  V30 4709 H 453.758 2.99601 0.0769811 0
M  V30 4710 H 451.319 1.61565 -0.104048 0
M  V30 4711 H 453.311 3.09613 2.60619 0
M  V30 4712 H 451.881 2.06618 2.3458 0
M  V30 4713 H 451.101 3.88736 0.654049 0
M  V30 4714 H 452.389 4.9187 1.30158 0
M  V30 4715 H 451.787 3.7306 4.25256 0
M  V30 4716 H 450.344 4.57984 4.63782 0
M  V30 4717 N 453.777 0.010035 1.57597 0
M  V30 4718 C 455.025 -0.671371 1.90623 0
M  V30 4719 C 455.346 -1.73753 0.885151 0
M  V30 4720 O 454.616 -1.95752 -0.0760611 0
M  V30 4721 H 453.196 -0.250968 0.703579 0
M  V30 4722 H 455.858 0.0533325 1.94827 0
M  V30 4723 H 454.954 -1.13626 2.90681 0
M  V30 4724 N 455.255 -1.55392 -0.262866 0
M  V30 4725 C 456.483 -1.80513 -1.01108 0
M  V30 4726 C 456.898 -0.583533 -1.79556 0
M  V30 4727 O 456.255 0.447585 -1.76926 0
M  V30 4728 C 456.306 -3.03648 -1.96164 0
M  V30 4729 O 456.027 -4.2109 -1.20893 0
M  V30 4730 C 457.528 -3.41448 -2.82715 0
M  V30 4731 H 454.748 -0.601079 -0.298236 0
M  V30 4732 H 457.292 -2.02425 -0.290582 0
M  V30 4733 H 455.447 -2.83832 -2.63663 0
M  V30 4734 H 455.861 -4.90771 -1.85051 0
M  V30 4735 H 457.335 -4.30751 -3.45192 0
M  V30 4736 H 457.812 -2.61308 -3.53008 0
M  V30 4737 H 458.418 -3.63559 -2.20693 0
M  V30 4738 N 456.733 0.527833 -1.48498 0
M  V30 4739 C 457.958 1.313 -1.60546 0
M  V30 4740 C 458.383 1.86199 -0.26672 0
M  V30 4741 O 457.741 1.64513 0.761918 0
M  V30 4742 C 457.789 2.43818 -2.65678 0
M  V30 4743 O 456.893 3.46916 -2.22987 0
M  V30 4744 H 456.234 0.388784 -0.538277 0
M  V30 4745 H 458.764 0.634896 -1.945 0
M  V30 4746 H 458.774 2.89973 -2.87018 0
M  V30 4747 H 457.449 2.03222 -3.62869 0
M  V30 4748 H 456.026 3.06864 -2.11869 0
M  V30 4749 N 458.211 1.37122 0.776871 0
M  V30 4750 C 459.143 1.28342 1.89897 0
M  V30 4751 C 460.156 0.200277 1.61563 0
M  V30 4752 O 461.345 0.456012 1.72577 0
M  V30 4753 C 458.445 0.960427 3.25006 0
M  V30 4754 C 457.618 2.148 3.81025 0
M  V30 4755 C 456.677 1.79608 4.94598 0
M  V30 4756 O 455.703 2.51845 5.10454 0
M  V30 4757 N 456.905 0.737171 5.758 0
M  V30 4758 H 459.67 2.25027 1.97947 0
M  V30 4759 H 457.231 1.3068 0.955739 0
M  V30 4760 H 459.223 0.705942 3.98495 0
M  V30 4761 H 457.793 0.0823066 3.12492 0
M  V30 4762 H 457.013 2.56454 2.99374 0
M  V30 4763 H 458.301 2.9411 4.15183 0
M  V30 4764 H 457.699 0.137637 5.65533 0
M  V30 4765 H 456.256 0.542534 6.49538 0
M  V30 4766 N 459.689 -1.00246 1.21608 0
M  V30 4767 C 460.935 -1.74319 1.03638 0
M  V30 4768 C 461.268 -1.89408 -0.428749 0
M  V30 4769 O 460.543 -1.43026 -1.3181 0
M  V30 4770 C 460.826 -3.15431 1.73711 0
M  V30 4771 C 460.679 -3.08049 3.27759 0
M  V30 4772 C 461.998 -4.14407 1.48173 0
M  V30 4773 H 459.117 -0.632741 0.377899 0
M  V30 4774 H 461.759 -1.16853 1.49818 0
M  V30 4775 H 459.909 -3.64493 1.34452 0
M  V30 4776 H 461.581 -2.66681 3.76403 0
M  V30 4777 H 459.824 -2.45088 3.57931 0
M  V30 4778 H 460.495 -4.07862 3.71958 0
M  V30 4779 H 462.971 -3.74061 1.82258 0
M  V30 4780 H 461.847 -5.11279 1.99713 0
M  V30 4781 H 462.108 -4.40174 0.412273 0
M  V30 4782 N 461.167 -1.02423 -1.1978 0
M  V30 4783 C 462.578 -0.748389 -1.71044 0
M  V30 4784 C 462.929 0.732398 -1.82017 0
M  V30 4785 O 462.054 1.57116 -1.48807 0
M  V30 4786 C 462.649 -1.35187 -3.1066 0
M  V30 4787 C 461.208 -1.12472 -3.59203 0
M  V30 4788 C 460.355 -1.45283 -2.36195 0
M  V30 4789 H 463.306 -1.19275 -1.04686 0
M  V30 4790 H 463.327 -0.746408 -3.73107 0
M  V30 4791 H 462.839 -2.4296 -3.02642 0
M  V30 4792 H 460.94 -0.0649983 -3.72543 0
M  V30 4793 H 461.053 -1.81016 -4.43588 0
M  V30 4794 H 459.417 -0.872034 -2.39307 0
M  V30 4795 H 460.2 -2.54129 -2.30811 0
M  V30 4796 N 462.645 1.35699 -0.801477 0
M  V30 4797 C 463.608 2.28199 -0.213994 0
M  V30 4798 C 464.608 1.49359 0.595691 0
M  V30 4799 O 465.798 1.69186 0.414921 0
M  V30 4800 C 462.93 3.33587 0.702297 0
M  V30 4801 H 464.123 2.81666 -1.02976 0
M  V30 4802 H 461.676 1.45467 -0.571759 0
M  V30 4803 H 462.411 2.85297 1.54195 0
M  V30 4804 H 462.196 3.91906 0.123484 0
M  V30 4805 H 463.686 4.02638 1.10783 0
M  V30 4806 N 464.123 0.554532 1.47522 0
M  V30 4807 C 465.4 -0.0360704 1.95567 0
M  V30 4808 C 465.78 -1.48828 1.49711 0
M  V30 4809 O 465.128 -2.16366 0.734717 0
M  V30 4810 C 465.338 0.106631 3.48837 0
M  V30 4811 C 466.686 -0.0400899 4.24581 0
M  V30 4812 O 467.71 0.0340453 3.56184 0
M  V30 4813 O 466.569 -0.199111 5.46137 0
M  V30 4814 H 463.663 -0.0656294 0.824392 0
M  V30 4815 H 466.209 0.620867 1.57935 0
M  V30 4816 H 464.981 1.11727 3.7501 0
M  V30 4817 H 464.604 -0.58804 3.93227 0
M  V30 4818 N 465.601 -1.54893 0.290851 0
M  V30 4819 C 466.531 -2.26103 -0.583084 0
M  V30 4820 C 467.512 -1.25684 -1.14619 0
M  V30 4821 O 468.697 -1.54436 -1.17741 0
M  V30 4822 C 465.827 -2.99409 -1.75987 0
M  V30 4823 C 464.781 -4.0689 -1.32758 0
M  V30 4824 C 464.107 -4.67856 -2.58872 0
M  V30 4825 C 465.407 -5.20215 -0.46624 0
M  V30 4826 H 467.101 -2.99398 0.0108214 0
M  V30 4827 H 464.647 -1.43998 0.00664468 0
M  V30 4828 H 466.6 -3.47943 -2.37727 0
M  V30 4829 H 465.324 -2.23675 -2.37985 0
M  V30 4830 H 463.983 -3.59191 -0.733299 0
M  V30 4831 H 463.631 -3.88772 -3.19163 0
M  V30 4832 H 463.331 -5.40438 -2.30653 0
M  V30 4833 H 464.855 -5.19147 -3.21433 0
M  V30 4834 H 466.269 -5.64704 -0.989047 0
M  V30 4835 H 464.666 -5.99455 -0.27826 0
M  V30 4836 H 465.736 -4.82198 0.511173 0
M  V30 4837 N 467.08 -0.0183926 -1.57589 0
M  V30 4838 C 468.496 0.337897 -1.55982 0
M  V30 4839 C 468.696 1.73604 -1.02294 0
M  V30 4840 O 467.752 2.43589 -0.664895 0
M  V30 4841 C 469.065 0.196305 -3.00059 0
M  V30 4842 C 470.613 0.269875 -3.11834 0
M  V30 4843 C 471.088 0.157197 -4.5773 0
M  V30 4844 N 472.579 0.214521 -4.62703 0
M  V30 4845 C 473.314 0.150955 -5.73201 0
M  V30 4846 N 472.81 0.0369212 -6.9279 0
M  V30 4847 N 474.603 0.204162 -5.61729 0
M  V30 4848 H 466.754 -0.93279 -1.90821 0
M  V30 4849 H 469.017 -0.359253 -0.877292 0
M  V30 4850 H 468.723 -0.766383 -3.43248 0
M  V30 4851 H 468.597 0.970908 -3.6449 0
M  V30 4852 H 470.984 1.22302 -2.68563 0
M  V30 4853 H 471.065 -0.534918 -2.50144 0
M  V30 4854 H 470.709 -0.792479 -5.01679 0
M  V30 4855 H 470.639 0.980717 -5.17387 0
M  V30 4856 H 473.13 0.303238 -3.76681 0
M  V30 4857 H 473.443 -0.00518321 -7.728 0
M  V30 4858 H 471.788 0.0022886 -6.95 0
M  V30 4859 H 474.979 0.291575 -4.67191 0
M  V30 4860 H 475.152 0.15116 -6.47824 0
M  V30 4861 N 468.558 1.5553 0.254621 0
M  V30 4862 C 469.807 1.76202 0.981612 0
M  V30 4863 C 470.12 0.580883 1.86776 0
M  V30 4864 O 471.326 0.670448 2.63092 0
M  V30 4865 C 469.782 3.11921 1.79537 0
M  V30 4866 C 469.39 4.37659 0.956991 0
M  V30 4867 C 471.134 3.41936 2.51555 0
M  V30 4868 C 469.041 5.64411 1.76619 0
M  V30 4869 H 467.971 0.656841 0.370237 0
M  V30 4870 H 470.622 1.81969 0.236556 0
M  V30 4871 H 469.004 3.00241 2.58208 0
M  V30 4872 H 470.178 4.60307 0.21315 0
M  V30 4873 H 468.493 4.14922 0.350497 0
M  V30 4874 H 471.09 4.33849 3.12536 0
M  V30 4875 H 471.433 2.62905 3.22779 0
M  V30 4876 H 471.966 3.54797 1.799 0
M  V30 4877 H 468.705 6.46241 1.09783 0
M  V30 4878 H 468.225 5.45877 2.48551 0
M  V30 4879 H 469.904 6.03386 2.33527 0
M  V30 4880 N 470.036 -0.519951 1.48776 0
M  V30 4881 C 471.261 -1.30447 1.6124 0
M  V30 4882 C 471.686 -1.86055 0.276591 0
M  V30 4883 O 471.044 -1.64915 -0.753183 0
M  V30 4884 C 471.092 -2.42406 2.66967 0
M  V30 4885 O 470.196 -3.45728 2.24824 0
M  V30 4886 H 469.537 -0.385924 0.540332 0
M  V30 4887 H 472.067 -0.624572 1.94834 0
M  V30 4888 H 472.077 -2.88447 2.88552 0
M  V30 4889 H 470.752 -2.01294 3.63941 0
M  V30 4890 H 469.329 -3.05737 2.13494 0
M  V30 4891 N 471.514 -1.37532 -0.769588 0
M  V30 4892 C 472.763 -1.32183 -1.5235 0
M  V30 4893 C 473.076 0.0906555 -1.9539 0
M  V30 4894 O 474.282 0.266628 -2.70188 0
M  V30 4895 C 472.738 -2.32029 -2.75119 0
M  V30 4896 C 472.346 -3.78816 -2.3917 0
M  V30 4897 C 474.09 -2.35694 -3.53056 0
M  V30 4898 C 471.997 -4.70388 -3.58453 0
M  V30 4899 H 470.927 -0.491275 -0.571984 0
M  V30 4900 H 473.578 -1.63004 -0.842739 0
M  V30 4901 H 471.96 -1.94229 -3.45096 0
M  V30 4902 H 473.134 -4.25466 -1.76962 0
M  V30 4903 H 471.449 -3.78117 -1.74402 0
M  V30 4904 H 474.046 -3.01312 -4.41718 0
M  V30 4905 H 474.389 -1.37117 -3.93071 0
M  V30 4906 H 474.922 -2.72212 -2.90078 0
M  V30 4907 H 471.661 -5.70102 -3.23518 0
M  V30 4908 H 471.181 -4.28442 -4.19758 0
M  V30 4909 H 472.86 -4.87628 -4.25239 0
M  V30 4910 N 472.992 0.995999 -1.22138 0
M  V30 4911 C 473.94 2.10673 -0.985876 0
M  V30 4912 C 474.934 1.69255 0.0699553 0
M  V30 4913 O 476.14 1.79812 -0.0822176 0
M  V30 4914 H 472.515 0.688865 -0.30161 0
M  V30 4915 H 474.486 2.27711 -1.92848 0
M  V30 4916 C 473.235 3.42881 -0.576909 0
M  V30 4917 H 472.558 3.75191 -1.38101 0
M  V30 4918 H 473.998 4.21589 -0.451518 0
M  V30 4919 C 472.457 3.29265 0.713196 0
M  V30 4920 O 472.987 3.60777 1.76643 0
M  V30 4921 N 471.193 2.82456 0.683162 0
M  V30 4922 H 470.74 2.5701 -0.174242 0
M  V30 4923 H 470.698 2.73727 1.54663 0
M  V30 4924 N 474.47 1.03057 1.19235 0
M  V30 4925 C 475.698 0.747697 1.92917 0
M  V30 4926 C 476.113 -0.69372 1.75593 0
M  V30 4927 O 475.47 -1.47191 1.07894 0
M  V30 4928 C 475.521 1.09159 3.44625 0
M  V30 4929 O 475.242 2.47641 3.61394 0
M  V30 4930 C 476.743 0.831763 4.35427 0
M  V30 4931 H 473.963 0.273453 0.612751 0
M  V30 4932 H 476.507 1.37552 1.51327 0
M  V30 4933 H 474.662 0.508919 3.84043 0
M  V30 4934 H 475.076 2.60499 4.55237 0
M  V30 4935 H 476.55 1.12233 5.4047 0
M  V30 4936 H 477.027 -0.233769 4.38577 0
M  V30 4937 H 477.633 1.39725 4.01693 0
M  V30 4938 N 475.948 -1.35272 0.808662 0
M  V30 4939 C 477.195 -1.98709 0.390003 0
M  V30 4940 C 477.523 -1.64148 -1.04335 0
M  V30 4941 O 476.778 -0.897797 -1.73891 0
M  V30 4942 C 477.077 -3.53556 0.522798 0
M  V30 4943 C 476.743 -4.0799 1.91977 0
M  V30 4944 C 475.405 -4.22568 2.30195 0
M  V30 4945 C 477.757 -4.37442 2.83361 0
M  V30 4946 C 475.085 -4.63918 3.59162 0
M  V30 4947 C 477.437 -4.80232 4.11776 0
M  V30 4948 C 476.101 -4.93016 4.49991 0
M  V30 4949 H 475.371 -0.727127 0.142712 0
M  V30 4950 H 478.018 -1.6145 1.02985 0
M  V30 4951 H 476.323 -3.91287 -0.200494 0
M  V30 4952 H 478.02 -4.00598 0.179608 0
M  V30 4953 H 474.61 -3.97096 1.61284 0
M  V30 4954 H 478.794 -4.25731 2.55083 0
M  V30 4955 H 474.05 -4.72005 3.88615 0
M  V30 4956 H 478.224 -5.01982 4.82687 0
M  V30 4957 H 475.851 -5.24814 5.49976 0
M  V30 4958 N 477.426 -0.562348 -1.47226 0
M  V30 4959 C 478.666 -0.0426374 -2.04356 0
M  V30 4960 C 479.03 1.28487 -1.42671 0
M  V30 4961 O 480.231 1.89259 -1.90878 0
M  V30 4962 C 478.502 0.0433826 -3.57374 0
M  V30 4963 S 480.061 0.508472 -4.35844 0
M  V30 4964 H 476.879 -0.0276234 -0.710463 0
M  V30 4965 H 479.481 -0.750245 -1.80531 0
M  V30 4966 H 478.185 -0.927072 -3.99792 0
M  V30 4967 H 477.716 0.774387 -3.85703 0
M  V30 4968 H 479.731 1.76719 -4.63665 0
M  V30 4969 N 478.904 1.54736 -0.299062 0
M  V30 4970 C 480.32 1.59507 0.0543849 0
M  V30 4971 C 480.52 1.31606 1.52585 0
M  V30 4972 O 479.576 1.08853 2.27832 0
M  V30 4973 C 480.889 2.98751 -0.34181 0
M  V30 4974 C 482.437 3.1165 -0.290414 0
M  V30 4975 C 482.912 4.53199 -0.661402 0
M  V30 4976 N 484.403 4.59114 -0.613863 0
M  V30 4977 C 485.138 5.66709 -0.873417 0
M  V30 4978 N 484.634 6.82349 -1.19884 0
M  V30 4979 N 486.427 5.56369 -0.800608 0
M  V30 4980 H 478.578 1.71133 -1.25806 0
M  V30 4981 H 480.841 0.799186 -0.509908 0
M  V30 4982 H 480.547 3.24085 -1.36608 0
M  V30 4983 H 480.421 3.75961 0.305508 0
M  V30 4984 H 482.808 2.86066 0.724605 0
M  V30 4985 H 482.889 2.366 -0.972327 0
M  V30 4986 H 482.533 4.79513 -1.67422 0
M  V30 4987 H 482.463 5.26583 0.0425612 0
M  V30 4988 H 484.954 3.76053 -0.3732 0
M  V30 4989 H 485.267 7.60326 -1.38291 0
M  V30 4990 H 483.612 6.83906 -1.23685 0
M  V30 4991 H 486.803 4.64904 -0.546045 0
M  V30 4992 H 486.976 6.40139 -1.00626 0
M  V30 4993 N 480.382 0.0267497 1.57577 0
M  V30 4994 C 481.345 -0.940916 2.08996 0
M  V30 4995 C 482.345 -1.25561 1.00455 0
M  V30 4996 O 483.535 -1.19634 1.26623 0
M  V30 4997 C 480.667 -2.25814 2.55384 0
M  V30 4998 H 481.86 -0.495628 2.95776 0
M  V30 4999 H 479.413 -0.221241 1.54726 0
M  V30 5000 H 480.148 -2.74976 1.71926 0
M  V30 5001 H 479.933 -2.04285 3.34679 0
M  V30 5002 H 481.423 -2.95178 2.95398 0
M  V30 5003 N 481.861 -1.55662 -0.24637 0
M  V30 5004 C 483.108 -1.77519 -0.974335 0
M  V30 5005 C 483.436 -0.591165 -1.85298 0
M  V30 5006 O 482.691 0.425497 -1.91018 0
M  V30 5007 C 482.99 -3.04885 -1.86494 0
M  V30 5008 C 482.656 -4.36209 -1.14161 0
M  V30 5009 C 481.318 -4.71896 -0.941701 0
M  V30 5010 C 483.67 -5.17391 -0.628957 0
M  V30 5011 C 480.998 -5.86299 -0.216852 0
M  V30 5012 C 483.35 -6.32546 0.0824273 0
M  V30 5013 C 482.014 -6.66853 0.293807 0
M  V30 5014 H 481.284 -0.649588 -0.356535 0
M  V30 5015 H 483.931 -1.89934 -0.244394 0
M  V30 5016 H 482.236 -2.87484 -2.66196 0
M  V30 5017 H 483.933 -3.18994 -2.42989 0
M  V30 5018 H 480.523 -4.08174 -1.30736 0
M  V30 5019 H 484.707 -4.90276 -0.770943 0
M  V30 5020 H 479.963 -6.11385 -0.0426124 0
M  V30 5021 H 484.137 -6.94693 0.487292 0
M  V30 5022 H 481.764 -7.55349 0.857428 0
M  V30 5023 N 483.339 0.512053 -1.4905 0
M  V30 5024 C 484.75 1.09376 -1.51307 0
M  V30 5025 C 485.101 1.94 -0.292971 0
M  V30 5026 O 484.226 2.07965 0.598277 0
M  V30 5027 C 484.821 1.99031 -2.74176 0
M  V30 5028 C 483.38 2.52385 -2.79247 0
M  V30 5029 C 482.527 1.29749 -2.45073 0
M  V30 5030 H 485.478 0.296467 -1.55906 0
M  V30 5031 H 485.499 2.83569 -2.53711 0
M  V30 5032 H 485.011 1.37412 -3.62959 0
M  V30 5033 H 483.112 3.17673 -1.94716 0
M  V30 5034 H 483.225 2.90293 -3.81139 0
M  V30 5035 H 481.589 1.61912 -1.96612 0
M  V30 5036 H 482.372 0.698555 -3.36118 0
M  V30 5037 N 484.817 1.37938 0.762283 0
M  V30 5038 C 486.064 1.33668 1.52115 0
M  V30 5039 C 486.392 -0.0759538 1.94352 0
M  V30 5040 O 485.647 -1.05121 1.6507 0
M  V30 5041 C 485.946 2.23042 2.79261 0
M  V30 5042 C 485.612 3.71159 2.56031 0
M  V30 5043 C 484.274 4.11523 2.49404 0
M  V30 5044 C 486.626 4.64955 2.35513 0
M  V30 5045 C 483.954 5.43784 2.20263 0
M  V30 5046 C 486.306 5.97464 2.07894 0
M  V30 5047 C 484.97 6.36922 1.99718 0
M  V30 5048 H 484.24 0.489127 0.556629 0
M  V30 5049 H 486.887 1.70224 0.877262 0
M  V30 5050 H 485.192 1.79512 3.48256 0
M  V30 5051 H 486.889 2.17047 3.37182 0
M  V30 5052 H 483.479 3.39153 2.62056 0
M  V30 5053 H 487.663 4.34623 2.39617 0
M  V30 5054 H 482.919 5.73307 2.12435 0
M  V30 5055 H 487.093 6.6969 1.91019 0
M  V30 5056 H 484.72 7.39331 1.76902 0
M  V30 5057 N 486.295 -0.989507 1.22664 0
M  V30 5058 C 487.245 -2.06478 0.967005 0
M  V30 5059 C 488.229 -1.60682 -0.0836374 0
M  V30 5060 O 489.421 -1.76541 0.127322 0
M  V30 5061 C 486.55 -3.38861 0.550313 0
M  V30 5062 C 485.636 -3.9128 1.63587 0
M  V30 5063 N 486.027 -4.16884 2.86429 0
M  V30 5064 C 484.325 -4.1972 1.50834 0
M  V30 5065 C 485.026 -4.5954 3.56648 0
M  V30 5066 N 484.002 -4.63434 2.84131 0
M  V30 5067 H 487.804 -2.24219 1.90008 0
M  V30 5068 H 485.318 -1.17153 1.12467 0
M  V30 5069 H 487.315 -4.15465 0.345612 0
M  V30 5070 H 485.975 -3.22518 -0.375822 0
M  V30 5071 H 486.986 -4.04976 3.22823 0
M  V30 5072 H 483.663 -4.1243 0.648643 0
M  V30 5073 H 485.053 -4.87944 4.61909 0
M  V30 5074 N 487.773 -1.03688 -1.18687 0
M  V30 5075 C 488.703 -0.645407 -2.24403 0
M  V30 5076 C 489.684 0.349511 -1.66471 0
M  V30 5077 O 490.869 0.230453 -1.92828 0
M  V30 5078 C 487.999 -0.00365337 -3.473 0
M  V30 5079 C 486.953 -0.921705 -4.17958 0
M  V30 5080 C 486.279 -0.144629 -5.34504 0
M  V30 5081 C 487.579 -2.23909 -4.71871 0
M  V30 5082 H 489.273 -1.52917 -2.57404 0
M  V30 5083 H 486.819 -0.736711 -1.23728 0
M  V30 5084 H 488.772 0.281908 -4.20456 0
M  V30 5085 H 487.496 0.914963 -3.13522 0
M  V30 5086 H 486.155 -1.19159 -3.46694 0
M  V30 5087 H 485.803 0.776274 -4.96974 0
M  V30 5088 H 485.503 -0.756206 -5.82714 0
M  V30 5089 H 487.027 0.134004 -6.10453 0
M  V30 5090 H 488.441 -2.0145 -5.36741 0
M  V30 5091 H 486.838 -2.8033 -5.30599 0
M  V30 5092 H 487.908 -2.88822 -3.895 0
M  V30 5093 N 489.251 1.34841 -0.815825 0
M  V30 5094 C 490.184 2.27504 -0.178062 0
M  V30 5095 C 491.162 1.48542 0.661373 0
M  V30 5096 O 492.346 1.77779 0.626653 0
M  V30 5097 C 489.473 3.30246 0.752002 0
M  V30 5098 C 488.519 4.26499 -0.00899172 0
M  V30 5099 S 489.352 5.18169 -1.35134 0
M  V30 5100 C 490.508 6.24449 -0.42596 0
M  V30 5101 H 490.741 2.81248 -0.963684 0
M  V30 5102 H 488.274 1.41781 -0.611355 0
M  V30 5103 H 490.232 3.89933 1.28308 0
M  V30 5104 H 488.893 2.75363 1.51109 0
M  V30 5105 H 488.086 4.99146 0.697766 0
M  V30 5106 H 487.688 3.7103 -0.470396 0
M  V30 5107 H 489.98 6.76404 0.385234 0
M  V30 5108 H 490.923 6.99156 -1.1219 0
M  V30 5109 H 491.331 5.64497 -0.0175461 0
M  V30 5110 N 490.729 0.570148 1.46925 0
M  V30 5111 C 491.976 0.0509529 2.02436 0
M  V30 5112 C 492.304 -1.30405 1.44308 0
M  V30 5113 O 491.559 -1.86493 0.593198 0
M  V30 5114 C 491.858 -0.0780336 3.57315 0
M  V30 5115 C 491.524 1.20775 4.34424 0
M  V30 5116 C 490.186 1.56004 4.5521 0
M  V30 5117 C 492.538 2.0592 4.78797 0
M  V30 5118 C 489.866 2.76201 5.17619 0
M  V30 5119 C 492.218 3.25332 5.42533 0
M  V30 5120 C 490.882 3.60859 5.61549 0
M  V30 5121 H 490.152 0.018645 0.740765 0
M  V30 5122 H 492.799 0.744262 1.76445 0
M  V30 5123 H 491.104 -0.854394 3.82371 0
M  V30 5124 H 492.801 -0.495312 3.97929 0
M  V30 5125 H 489.391 0.923469 4.18533 0
M  V30 5126 H 493.575 1.80008 4.62505 0
M  V30 5127 H 488.831 3.0388 5.30535 0
M  V30 5128 H 493.005 3.91586 5.75876 0
M  V30 5129 H 490.632 4.54088 6.09678 0
M  V30 5130 N 492.207 -1.54576 0.307264 0
M  V30 5131 C 493.484 -1.92377 -0.353605 0
M  V30 5132 C 493.864 -1.23517 -1.71192 0
M  V30 5133 O 493.212 -0.373101 -2.25433 0
M  V30 5134 C 493.422 -3.45928 -0.462039 0
M  V30 5135 C 494.77 -4.18278 -0.729975 0
M  V30 5136 O 495.794 -3.51997 -0.545605 0
M  V30 5137 O 494.653 -5.3563 -1.08454 0
M  V30 5138 H 491.747 -0.802747 -0.198812 0
M  V30 5139 H 494.293 -1.65929 0.355783 0
M  V30 5140 H 493.065 -3.88187 0.492592 0
M  V30 5141 H 492.688 -3.78431 -1.21965 0
M  V30 5142 N 493.685 -0.035106 -1.57561 0
M  V30 5143 C 495.096 0.502885 -1.798 0
M  V30 5144 C 495.447 1.71892 -0.945921 0
M  V30 5145 O 494.572 2.15822 -0.157991 0
M  V30 5146 C 495.167 0.919097 -3.26095 0
M  V30 5147 C 493.726 1.40216 -3.49308 0
M  V30 5148 C 492.873 0.369709 -2.74824 0
M  V30 5149 H 495.824 -0.261102 -1.56537 0
M  V30 5150 H 495.845 1.78308 -3.36135 0
M  V30 5151 H 495.357 0.0338526 -3.88085 0
M  V30 5152 H 493.458 2.30714 -2.92578 0
M  V30 5153 H 493.571 1.40541 -4.58023 0
M  V30 5154 H 491.935 0.839113 -2.40481 0
M  V30 5155 H 492.718 -0.507173 -3.39533 0
M  V30 5156 N 495.163 1.55791 0.238111 0
M  V30 5157 C 496.388 1.8244 0.986432 0
M  V30 5158 C 496.813 0.613314 1.7782 0
M  V30 5159 O 496.171 -0.437767 1.75935 0
M  V30 5160 C 496.219 3.06917 1.893 0
M  V30 5161 O 495.323 2.84449 2.98601 0
M  V30 5162 H 494.664 0.601975 0.280218 0
M  V30 5163 H 497.194 2.02987 0.256437 0
M  V30 5164 H 497.204 3.36583 2.30598 0
M  V30 5165 H 495.879 3.947 1.31091 0
M  V30 5166 H 494.456 2.65972 2.61368 0
M  V30 5167 N 496.642 -0.504142 1.49319 0
M  V30 5168 C 497.575 -1.62361 1.60356 0
M  V30 5169 C 498.553 -1.56169 0.45277 0
M  V30 5170 O 499.737 -1.76271 0.667892 0
M  V30 5171 C 496.864 -3.00864 1.55559 0
M  V30 5172 C 495.91 -3.25328 2.75797 0
M  V30 5173 S 496.743 -3.08791 4.37503 0
M  V30 5174 C 497.899 -4.49695 4.35345 0
M  V30 5175 H 498.132 -1.52753 2.55056 0
M  V30 5176 H 495.665 -0.689065 1.38171 0
M  V30 5177 H 497.623 -3.8073 1.53477 0
M  V30 5178 H 496.284 -3.0789 0.621515 0
M  V30 5179 H 495.477 -4.2643 2.68651 0
M  V30 5180 H 495.079 -2.53179 2.75275 0
M  V30 5181 H 497.371 -5.41721 4.06871 0
M  V30 5182 H 498.314 -4.61891 5.36714 0
M  V30 5183 H 498.722 -4.30227 3.65465 0
M  V30 5184 N 498.12 -1.38341 -0.754957 0
M  V30 5185 C 499.345 -1.37882 -1.5493 0
M  V30 5186 C 499.77 0.0296385 -1.88077 0
M  V30 5187 O 499.128 1.01133 -1.50472 0
M  V30 5188 C 499.176 -2.23996 -2.82592 0
M  V30 5189 O 498.28 -1.65612 -3.77686 0
M  V30 5190 H 497.621 -0.470384 -0.468652 0
M  V30 5191 H 500.151 -1.82084 -0.933082 0
M  V30 5192 H 500.161 -2.37806 -3.3153 0
M  V30 5193 H 498.836 -3.26365 -2.57796 0
M  V30 5194 H 497.413 -1.60936 -3.36384 0
M  V30 5195 N 499.598 0.982988 -1.23187 0
M  V30 5196 C 500.844 1.72648 -1.06398 0
M  V30 5197 C 501.177 1.90066 0.398561 0
M  V30 5198 O 500.452 1.45105 1.29518 0
M  V30 5199 C 500.735 3.12627 -1.78707 0
M  V30 5200 C 500.588 3.02795 -3.32618 0
M  V30 5201 C 501.907 4.11997 -1.54747 0
M  V30 5202 H 499.026 0.626649 -0.387918 0
M  V30 5203 H 501.668 1.14455 -1.51658 0
M  V30 5204 H 499.818 3.62308 -1.40234 0
M  V30 5205 H 501.49 2.60659 -3.80598 0
M  V30 5206 H 499.733 2.39362 -3.61785 0
M  V30 5207 H 500.404 4.01893 -3.78399 0
M  V30 5208 H 502.88 3.71114 -1.88186 0
M  V30 5209 H 501.756 5.08037 -2.07821 0
M  V30 5210 H 502.017 4.39462 -0.482249 0
M  V30 5211 N 501.076 1.04316 1.18135 0
M  V30 5212 C 502.006 0.657299 2.24058 0
M  V30 5213 C 502.987 -0.340678 1.66654 0
M  V30 5214 O 504.172 -0.220223 1.92947 0
M  V30 5215 C 501.302 0.0220715 3.47293 0
M  V30 5216 C 500.256 0.943857 4.17463 0
M  V30 5217 C 499.582 0.172973 5.3442 0
M  V30 5218 C 500.882 2.26409 4.70677 0
M  V30 5219 H 502.576 1.5428 2.56589 0
M  V30 5220 H 500.122 0.743263 1.23335 0
M  V30 5221 H 502.075 -0.259607 4.206 0
M  V30 5222 H 500.799 -0.898323 3.14003 0
M  V30 5223 H 499.458 1.20996 3.46057 0
M  V30 5224 H 499.106 -0.749907 4.97379 0
M  V30 5225 H 498.806 0.787098 5.82304 0
M  V30 5226 H 500.33 -0.101628 6.10515 0
M  V30 5227 H 501.744 2.04294 5.35665 0
M  V30 5228 H 500.141 2.8314 5.29105 0
M  V30 5229 H 501.211 2.90883 3.87962 0
M  V30 5230 N 502.554 -1.34406 0.822964 0
M  V30 5231 C 503.486 -2.28305 0.202375 0
M  V30 5232 C 504.499 -1.5103 -0.60777 0
M  V30 5233 O 505.688 -1.73057 -0.437444 0
M  V30 5234 C 502.788 -3.30836 -0.734911 0
M  V30 5235 C 501.961 -4.37388 0.0324177 0
M  V30 5236 C 501.02 -5.1968 -0.825803 0
M  V30 5237 O 500.046 -5.68556 -0.270771 0
M  V30 5238 N 501.248 -5.39393 -2.14558 0
M  V30 5239 H 504.013 -2.82201 1.00909 0
M  V30 5240 H 501.574 -1.4693 0.67993 0
M  V30 5241 H 503.566 -3.82786 -1.31365 0
M  V30 5242 H 502.136 -2.77334 -1.44238 0
M  V30 5243 H 501.356 -3.86152 0.792469 0
M  V30 5244 H 502.644 -5.05702 0.560633 0
M  V30 5245 H 502.042 -5.01357 -2.62025 0
M  V30 5246 H 500.599 -5.94461 -2.67318 0
M  V30 5247 N 504.032 -0.577932 -1.46621 0
M  V30 5248 C 504.962 0.145917 -2.33044 0
M  V30 5249 C 505.943 0.888412 -1.45056 0
M  V30 5250 O 507.128 0.864812 -1.73881 0
M  V30 5251 C 504.258 1.16322 -3.27241 0
M  V30 5252 C 503.212 0.535868 -4.24632 0
M  V30 5253 C 502.538 1.65929 -5.08303 0
M  V30 5254 C 503.838 -0.523861 -5.19666 0
M  V30 5255 H 505.532 -0.575636 -2.93814 0
M  V30 5256 H 503.078 -0.278272 -1.41286 0
M  V30 5257 H 505.031 1.67793 -3.86553 0
M  V30 5258 H 503.755 1.91498 -2.64567 0
M  V30 5259 H 502.414 0.0422759 -3.66576 0
M  V30 5260 H 502.062 2.40061 -4.42018 0
M  V30 5261 H 501.762 1.2452 -5.74255 0
M  V30 5262 H 503.286 2.17686 -5.70478 0
M  V30 5263 H 504.7 -0.0944059 -5.73222 0
M  V30 5264 H 503.097 -0.858 -5.93935 0
M  V30 5265 H 504.167 -1.41197 -4.63887 0
M  V30 5266 N 505.51 1.54411 -0.315457 0
M  V30 5267 C 506.758 2.00023 0.288971 0
M  V30 5268 C 507.079 1.20529 1.5329 0
M  V30 5269 O 506.349 0.304986 1.93511 0
M  V30 5270 H 504.929 0.738891 0.109766 0
M  V30 5271 H 507.591 1.90094 -0.430129 0
M  V30 5272 H 506.687 3.07198 0.550999 0
M  V30 5273 N 506.988 0.0434614 1.5754 0
M  V30 5274 C 507.898 -0.94893 2.14552 0
M  V30 5275 C 508.914 -1.34707 1.10136 0
M  V30 5276 O 510.09 -1.42557 1.42266 0
M  V30 5277 C 507.155 -2.208 2.67298 0
M  V30 5278 C 506.216 -1.86893 3.86484 0
M  V30 5279 C 505.449 -3.06797 4.36705 0
M  V30 5280 O 505.672 -4.19921 3.86034 0
M  V30 5281 O 504.606 -2.8826 5.28384 0
M  V30 5282 H 508.432 -0.494099 2.99654 0
M  V30 5283 H 506.017 -0.177989 1.48336 0
M  V30 5284 H 507.899 -2.94686 3.01228 0
M  V30 5285 H 506.574 -2.65436 1.85272 0
M  V30 5286 H 505.481 -1.10347 3.57455 0
M  V30 5287 H 506.814 -1.47062 4.69716 0
M  V30 5288 N 508.466 -1.55915 -0.229846 0
M  V30 5289 C 509.714 -1.7819 -0.953565 0
M  V30 5290 C 510.035 -0.610504 -1.85197 0
M  V30 5291 O 509.305 0.372988 -1.92316 0
M  V30 5292 H 507.885 -0.657208 -0.355087 0
M  V30 5293 H 510.547 -1.9337 -0.243693 0
M  V30 5294 H 509.643 -2.70011 -1.56527 0
M  V30 5295 N 509.944 0.496216 -1.49584 0
M  V30 5296 C 510.874 1.60576 -1.69521 0
M  V30 5297 C 511.855 1.61169 -0.543933 0
M  V30 5298 O 513.04 1.77834 -0.78031 0
M  V30 5299 C 510.17 2.99038 -1.76616 0
M  V30 5300 C 509.124 3.13312 -2.91581 0
M  V30 5301 C 508.45 4.53172 -2.83794 0
M  V30 5302 C 509.75 2.92886 -4.32452 0
M  V30 5303 H 511.444 1.44146 -2.62416 0
M  V30 5304 H 508.99 0.692024 -1.26282 0
M  V30 5305 H 510.943 3.76564 -1.8915 0
M  V30 5306 H 509.667 3.16568 -0.80324 0
M  V30 5307 H 508.326 2.38213 -2.78658 0
M  V30 5308 H 507.974 4.67585 -1.854 0
M  V30 5309 H 507.674 4.63662 -3.60958 0
M  V30 5310 H 509.198 5.32752 -2.98342 0
M  V30 5311 H 510.612 3.60178 -4.46032 0
M  V30 5312 H 509.009 3.14844 -5.10875 0
M  V30 5313 H 510.079 1.88966 -4.46565 0
M  V30 5314 N 511.423 1.38739 0.74761 0
M  V30 5315 C 512.839 1.20067 1.05148 0
M  V30 5316 C 513.039 0.0534835 2.01429 0
M  V30 5317 O 512.095 -0.59886 2.45296 0
M  V30 5318 C 513.408 2.52957 1.62584 0
M  V30 5319 C 514.956 2.59692 1.74726 0
M  V30 5320 C 515.431 3.92772 2.35573 0
M  V30 5321 N 516.922 3.94343 2.42997 0
M  V30 5322 C 517.657 4.9408 2.90985 0
M  V30 5323 N 517.153 6.04214 3.38965 0
M  V30 5324 N 518.946 4.81466 2.9008 0
M  V30 5325 H 511.097 2.12121 0.108808 0
M  V30 5326 H 513.36 0.941491 0.110899 0
M  V30 5327 H 513.066 3.37389 0.993051 0
M  V30 5328 H 512.94 2.71779 2.61565 0
M  V30 5329 H 515.327 1.75651 2.3713 0
M  V30 5330 H 515.408 2.44731 0.744326 0
M  V30 5331 H 515.052 4.77238 1.738 0
M  V30 5332 H 514.982 4.05046 3.36519 0
M  V30 5333 H 517.473 3.14799 2.0907 0
M  V30 5334 H 517.786 6.76241 3.74056 0
M  V30 5335 H 516.131 6.07825 3.37007 0
M  V30 5336 H 519.322 3.94535 2.51912 0
M  V30 5337 H 519.495 5.59344 3.27166 0
M  V30 5338 N 512.901 -0.976442 1.23707 0
M  V30 5339 C 513.848 -2.06952 1.02174 0
M  V30 5340 C 514.818 -1.65984 -0.0621034 0
M  V30 5341 O 516.003 -1.90584 0.0907906 0
M  V30 5342 C 513.143 -3.39425 0.62327 0
M  V30 5343 C 512.256 -3.9364 1.77966 0
M  V30 5344 C 511.391 -5.14343 1.3276 0
M  V30 5345 C 510.43 -5.60733 2.45449 0
M  V30 5346 N 509.567 -6.72662 2.01172 0
M  V30 5347 H 514.407 -2.24704 1.95734 0
M  V30 5348 H 511.944 -1.10143 0.975034 0
M  V30 5349 H 513.902 -4.15526 0.37332 0
M  V30 5350 H 512.532 -3.21624 -0.275329 0
M  V30 5351 H 511.584 -3.14258 2.14351 0
M  V30 5352 H 512.896 -4.24035 2.62671 0
M  V30 5353 H 512.05 -5.97789 1.03601 0
M  V30 5354 H 510.789 -4.8561 0.450975 0
M  V30 5355 H 509.794 -4.75865 2.75378 0
M  V30 5356 H 511.019 -5.91483 3.33654 0
M  V30 5357 H 508.965 -6.45681 1.15895 0
M  V30 5358 H 508.882 -7.02462 2.79434 0
M  V30 5359 H 510.15 -7.59572 1.75129 0
M  V30 5360 N 514.379 -1.04941 -1.1758 0
M  V30 5361 C 515.311 -0.606174 -2.21039 0
M  V30 5362 C 516.324 0.328763 -1.59446 0
M  V30 5363 O 517.513 0.121895 -1.78083 0
M  V30 5364 C 514.613 0.133294 -3.38638 0
M  V30 5365 C 513.786 -0.811711 -4.29802 0
M  V30 5366 C 512.845 -0.113958 -5.26077 0
M  V30 5367 O 511.871 -0.747237 -5.64274 0
M  V30 5368 N 513.073 1.14953 -5.69004 0
M  V30 5369 H 515.838 -1.49606 -2.59689 0
M  V30 5370 H 513.399 -0.930997 -1.32454 0
M  V30 5371 H 515.391 0.610144 -4.00074 0
M  V30 5372 H 513.961 0.924816 -2.98607 0
M  V30 5373 H 513.181 -1.46824 -3.65837 0
M  V30 5374 H 514.469 -1.45326 -4.87604 0
M  V30 5375 H 513.867 1.68441 -5.40041 0
M  V30 5376 H 512.424 1.57049 -6.32597 0
M  V30 5377 N 515.857 1.33968 -0.830081 0
M  V30 5378 C 516.787 2.31911 -0.271911 0
M  V30 5379 C 517.768 1.58571 0.61556 0
M  V30 5380 O 518.953 1.86514 0.540946 0
M  V30 5381 C 516.083 3.42737 0.561146 0
M  V30 5382 C 515.037 4.27383 -0.229789 0
M  V30 5383 C 514.363 5.29742 0.726463 0
M  V30 5384 C 515.663 5.02 -1.44197 0
M  V30 5385 H 517.357 2.78844 -1.09025 0
M  V30 5386 H 514.903 1.34061 -0.52571 0
M  V30 5387 H 516.856 4.10276 0.961867 0
M  V30 5388 H 515.58 2.94471 1.41261 0
M  V30 5389 H 514.239 3.61456 -0.611964 0
M  V30 5390 H 513.887 4.77736 1.57408 0
M  V30 5391 H 513.587 5.87255 0.20142 0
M  V30 5392 H 515.111 6.00149 1.12489 0
M  V30 5393 H 516.525 5.62355 -1.11488 0
M  V30 5394 H 514.922 5.69122 -1.90317 0
M  V30 5395 H 515.992 4.31281 -2.2164 0
M  V30 5396 N 517.335 0.585699 1.46312 0
M  V30 5397 C 518.751 0.247607 1.57668 0
M  V30 5398 C 518.951 -1.25007 1.58037 0
M  V30 5399 O 518.007 -2.03196 1.49893 0
M  V30 5400 C 519.32 0.899456 2.86933 0
M  V30 5401 C 520.868 0.873326 3.00569 0
M  V30 5402 C 521.343 1.50477 4.32574 0
M  V30 5403 N 522.834 1.46925 4.3928 0
M  V30 5404 C 523.569 1.92719 5.40044 0
M  V30 5405 N 523.065 2.46499 6.47464 0
M  V30 5406 N 524.858 1.83617 5.31264 0
M  V30 5407 H 517.009 1.55841 1.44317 0
M  V30 5408 H 519.272 0.651564 0.688599 0
M  V30 5409 H 518.978 1.95313 2.92482 0
M  V30 5410 H 518.852 0.409476 3.74971 0
M  V30 5411 H 521.239 -0.171736 2.946 0
M  V30 5412 H 521.32 1.40136 2.13999 0
M  V30 5413 H 520.964 2.54905 4.39302 0
M  V30 5414 H 520.894 0.951944 5.17924 0
M  V30 5415 H 523.385 1.07616 3.62253 0
M  V30 5416 H 523.698 2.79291 7.20567 0
M  V30 5417 H 522.043 2.50526 6.48276 0
M  V30 5418 H 525.234 1.41358 4.46246 0
M  V30 5419 H 525.407 2.19622 6.09648 0
M  V30 5420 N 518.813 -1.54241 0.323641 0
M  V30 5421 C 520.053 -2.0248 -0.279502 0
M  V30 5422 C 520.417 -1.20672 -1.49339 0
M  V30 5423 O 521.618 -1.58715 -2.1694 0
M  V30 5424 C 519.889 -3.52238 -0.605266 0
M  V30 5425 S 521.448 -4.22411 -1.18805 0
M  V30 5426 H 518.266 -0.705957 -0.0845313 0
M  V30 5427 H 520.868 -1.90089 0.456781 0
M  V30 5428 H 519.572 -4.094 0.286339 0
M  V30 5429 H 519.103 -3.6871 -1.37174 0
M  V30 5430 H 521.118 -4.30075 -2.47487 0
M  V30 5431 N 520.291 -0.0518155 -1.57515 0
M  V30 5432 C 521.568 0.661727 -1.84067 0
M  V30 5433 C 521.948 1.88999 -0.940351 0
M  V30 5434 O 521.296 2.285 -0.00155404 0
M  V30 5435 C 521.506 1.01841 -3.3381 0
M  V30 5436 C 522.854 1.40043 -4.00841 0
M  V30 5437 O 523.878 1.11073 -3.38439 0
M  V30 5438 O 522.737 1.94111 -5.10865 0
M  V30 5439 H 519.831 0.326702 -0.759733 0
M  V30 5440 H 522.377 -0.0812277 -1.69505 0
M  V30 5441 H 521.149 0.145202 -3.91031 0
M  V30 5442 H 520.772 1.81879 -3.53562 0
M  V30 5443 N 521.769 1.56035 0.221574 0
M  V30 5444 C 522.997 1.8313 0.962864 0
M  V30 5445 C 523.412 0.630934 1.77946 0
M  V30 5446 O 522.769 -0.400519 1.78051 0
M  V30 5447 C 522.82 3.08742 1.88045 0
M  V30 5448 O 522.541 4.24147 1.09686 0
M  V30 5449 C 524.042 3.48824 2.73563 0
M  V30 5450 H 521.262 0.608775 0.282194 0
M  V30 5451 H 523.806 2.03124 0.23681 0
M  V30 5452 H 521.961 2.90723 2.56045 0
M  V30 5453 H 522.375 4.95505 1.71974 0
M  V30 5454 H 523.849 4.39752 3.3365 0
M  V30 5455 H 524.326 2.70575 3.45956 0
M  V30 5456 H 524.932 3.69282 2.10976 0
M  V30 5457 N 523.247 -0.488276 1.49845 0
M  V30 5458 C 524.197 -1.58556 1.63842 0
M  V30 5459 C 525.181 -1.53142 0.493586 0
M  V30 5460 O 526.373 -1.60457 0.747169 0
M  V30 5461 C 523.502 -2.97101 1.72005 0
M  V30 5462 C 522.588 -3.07463 2.92108 0
M  V30 5463 N 522.979 -2.87681 4.16021 0
M  V30 5464 C 521.277 -3.3858 2.90309 0
M  V30 5465 C 521.978 -3.0256 4.96822 0
M  V30 5466 N 520.954 -3.32002 4.30437 0
M  V30 5467 H 524.756 -1.41935 2.57355 0
M  V30 5468 H 522.27 -0.694668 1.46793 0
M  V30 5469 H 524.267 -3.75976 1.80132 0
M  V30 5470 H 522.927 -3.14782 0.796375 0
M  V30 5471 H 523.938 -2.63603 4.45796 0
M  V30 5472 H 520.615 -3.62357 2.07372 0
M  V30 5473 H 522.005 -2.9165 6.05301 0
M  V30 5474 N 524.725 -1.39134 -0.740242 0
M  V30 5475 C 525.672 -1.37434 -1.8542 0
M  V30 5476 C 526.642 -0.234822 -1.64432 0
M  V30 5477 O 527.827 -0.429125 -1.85912 0
M  V30 5478 C 524.967 -1.21844 -3.22875 0
M  V30 5479 C 524.08 -2.45296 -3.55603 0
M  V30 5480 C 523.215 -2.22334 -4.82432 0
M  V30 5481 C 522.254 -3.41488 -5.07988 0
M  V30 5482 N 521.391 -3.17877 -6.26018 0
M  V30 5483 H 526.231 -2.3266 -1.86207 0
M  V30 5484 H 523.768 -1.15578 -0.909946 0
M  V30 5485 H 525.726 -1.10818 -4.02213 0
M  V30 5486 H 524.356 -0.3025 -3.21379 0
M  V30 5487 H 523.408 -2.66945 -2.71006 0
M  V30 5488 H 524.72 -3.34063 -3.7041 0
M  V30 5489 H 523.874 -2.0852 -5.69741 0
M  V30 5490 H 522.613 -1.30954 -4.6979 0
M  V30 5491 H 521.618 -3.55807 -4.19144 0
M  V30 5492 H 522.843 -4.33763 -5.22519 0
M  V30 5493 H 520.789 -2.29156 -6.14673 0
M  V30 5494 H 520.706 -4.00198 -6.41387 0
M  V30 5495 H 521.974 -3.07746 -7.16179 0
M  V30 5496 N 526.204 0.969867 -1.24223 0
M  V30 5497 C 527.45 1.7151 -1.08223 0
M  V30 5498 C 527.783 1.90478 0.37838 0
M  V30 5499 O 527.058 1.4647 1.27971 0
M  V30 5500 C 527.341 3.10714 -1.82013 0
M  V30 5501 C 527.194 2.9925 -3.35811 0
M  V30 5502 C 528.513 4.10332 -1.59108 0
M  V30 5503 H 525.632 0.622499 -0.394543 0
M  V30 5504 H 528.274 1.1284 -1.52863 0
M  V30 5505 H 526.424 3.608 -1.44068 0
M  V30 5506 H 528.096 2.56608 -3.83341 0
M  V30 5507 H 526.339 2.35512 -3.64303 0
M  V30 5508 H 527.01 3.97857 -3.82641 0
M  V30 5509 H 529.486 3.69097 -1.92111 0
M  V30 5510 H 528.362 5.05804 -2.13198 0
M  V30 5511 H 528.623 4.38926 -0.528832 0
M  V30 5512 N 527.682 1.05563 1.17022 0
M  V30 5513 C 528.612 0.681026 2.23348 0
M  V30 5514 C 529.593 -0.322983 1.67005 0
M  V30 5515 O 530.778 -0.199746 1.9317 0
M  V30 5516 C 527.908 0.0589053 3.4725 0
M  V30 5517 C 526.862 0.988082 4.16438 0
M  V30 5518 C 526.188 0.229646 5.34207 0
M  V30 5519 C 527.488 2.31388 4.68249 0
M  V30 5520 H 529.182 1.56993 2.54938 0
M  V30 5521 H 526.728 0.756302 1.2254 0
M  V30 5522 H 528.681 -0.214982 4.20851 0
M  V30 5523 H 527.405 -0.864968 3.14938 0
M  V30 5524 H 526.064 1.24659 3.44754 0
M  V30 5525 H 525.712 -0.697111 4.98146 0
M  V30 5526 H 525.412 0.848815 5.81437 0
M  V30 5527 H 526.936 -0.0368694 6.10589 0
M  V30 5528 H 528.35 2.09964 5.33468 0
M  V30 5529 H 526.747 2.88736 5.26072 0
M  V30 5530 H 527.817 2.94982 3.84855 0
M  V30 5531 N 529.16 -1.33526 0.837174 0
M  V30 5532 C 530.107 -2.29248 0.267169 0
M  V30 5533 C 531.077 -1.54252 -0.616071 0
M  V30 5534 O 532.262 -1.82559 -0.554699 0
M  V30 5535 C 529.402 -3.40638 -0.553152 0
M  V30 5536 C 528.515 -4.30548 0.353921 0
M  V30 5537 C 527.65 -5.29051 -0.477339 0
M  V30 5538 C 526.689 -6.106 0.42823 0
M  V30 5539 N 525.826 -7.01152 -0.364801 0
M  V30 5540 H 530.666 -2.77398 1.08877 0
M  V30 5541 H 528.203 -1.36496 0.54838 0
M  V30 5542 H 530.161 -4.03921 -1.04422 0
M  V30 5543 H 528.791 -2.93685 -1.33973 0
M  V30 5544 H 527.843 -3.68001 0.963289 0
M  V30 5545 H 529.155 -4.87631 1.04964 0
M  V30 5546 H 528.309 -5.97853 -1.0323 0
M  V30 5547 H 527.048 -4.72541 -1.2065 0
M  V30 5548 H 526.053 -5.40718 0.995219 0
M  V30 5549 H 527.278 -6.69193 1.15573 0
M  V30 5550 H 525.224 -6.47092 -1.07738 0
M  V30 5551 H 525.141 -7.5551 0.272238 0
M  V30 5552 H 526.409 -7.74263 -0.902054 0
M  V30 5553 N 530.638 -0.59345 -1.46 0
M  V30 5554 C 531.885 -0.0831523 -2.02329 0
M  V30 5555 C 532.213 1.28093 -1.46364 0
M  V30 5556 O 531.468 1.85526 -0.622793 0
M  V30 5557 C 531.767 0.021178 -3.57394 0
M  V30 5558 C 531.433 -1.27671 -4.32448 0
M  V30 5559 C 530.095 -1.63227 -4.5267 0
M  V30 5560 C 532.447 -2.13511 -4.7546 0
M  V30 5561 C 529.775 -2.84401 -5.1316 0
M  V30 5562 C 532.127 -3.33922 -5.37289 0
M  V30 5563 C 530.791 -3.69747 -5.55737 0
M  V30 5564 H 530.061 -0.0304276 -0.740375 0
M  V30 5565 H 532.708 -0.772239 -1.75239 0
M  V30 5566 H 531.013 0.793454 -3.83682 0
M  V30 5567 H 532.71 0.431942 -3.98667 0
M  V30 5568 H 529.3 -0.989937 -4.17011 0
M  V30 5569 H 533.484 -1.87344 -4.59582 0
M  V30 5570 H 528.74 -3.12282 -5.25633 0
M  V30 5571 H 532.914 -4.00698 -5.69574 0
M  V30 5572 H 530.541 -4.6373 -6.02377 0
M  V30 5573 N 532.116 1.54067 -0.331816 0
M  V30 5574 C 533.026 2.28322 0.539104 0
M  V30 5575 C 534.042 1.32985 1.1221 0
M  V30 5576 O 535.218 1.6601 1.1403 0
M  V30 5577 C 532.283 3.03277 1.68 0
M  V30 5578 C 531.344 4.14216 1.12798 0
M  V30 5579 C 530.577 4.85588 2.2145 0
M  V30 5580 O 530.8 4.56536 3.41952 0
M  V30 5581 O 529.734 5.72309 1.86404 0
M  V30 5582 H 533.56 3.03632 -0.0641692 0
M  V30 5583 H 531.145 1.49083 -0.0972365 0
M  V30 5584 H 533.027 3.50189 2.34405 0
M  V30 5585 H 531.702 2.30834 2.2693 0
M  V30 5586 H 530.609 3.71635 0.428782 0
M  V30 5587 H 531.942 4.88727 0.583698 0
M  V30 5588 N 533.594 0.0601682 1.57485 0
M  V30 5589 C 534.871 -0.651956 1.84415 0
M  V30 5590 C 535.251 -1.88498 0.950361 0
M  V30 5591 O 534.599 -2.28496 0.0136719 0
M  V30 5592 C 534.809 -1.00069 3.34346 0
M  V30 5593 C 536.157 -1.37915 4.01578 0
M  V30 5594 O 537.181 -1.09277 3.39024 0
M  V30 5595 O 536.04 -1.91399 5.11887 0
M  V30 5596 H 533.134 -0.322668 0.761455 0
M  V30 5597 H 535.68 0.0902159 1.6946 0
M  V30 5598 H 534.452 -0.124463 3.91102 0
M  V30 5599 H 534.075 -1.80001 3.54521 0
M  V30 5600 N 535.072 -1.5615 -0.213296 0
M  V30 5601 C 536.312 -1.81325 -0.943435 0
M  V30 5602 C 536.676 -0.634934 -1.81198 0
M  V30 5603 O 537.877 -0.766166 -2.5765 0
M  V30 5604 C 536.148 -3.11437 -1.75334 0
M  V30 5605 S 537.707 -3.57955 -2.53799 0
M  V30 5606 H 534.525 -0.636538 -0.316766 0
M  V30 5607 H 537.127 -1.94387 -0.208313 0
M  V30 5608 H 535.831 -3.95228 -1.10556 0
M  V30 5609 H 535.362 -3.01204 -2.53061 0
M  V30 5610 H 537.377 -3.21947 -3.77577 0
M  V30 5611 N 536.55 0.480323 -1.50102 0
M  V30 5612 C 537.797 1.23307 -1.60629 0
M  V30 5613 C 538.125 1.92135 -0.302375 0
M  V30 5614 O 537.38 1.82321 0.711154 0
M  V30 5615 C 537.679 2.30708 -2.72963 0
M  V30 5616 C 537.345 1.79195 -4.13763 0
M  V30 5617 C 536.007 1.64867 -4.52076 0
M  V30 5618 C 538.359 1.40878 -5.018 0
M  V30 5619 C 535.687 1.10631 -5.76175 0
M  V30 5620 C 538.039 0.880872 -6.26437 0
M  V30 5621 C 536.703 0.724146 -6.6356 0
M  V30 5622 H 535.973 0.451211 -0.587784 0
M  V30 5623 H 538.62 0.53051 -1.84005 0
M  V30 5624 H 536.925 3.06834 -2.43639 0
M  V30 5625 H 538.622 2.88692 -2.78313 0
M  V30 5626 H 535.212 1.91313 -3.83533 0
M  V30 5627 H 539.396 1.50786 -4.7284 0
M  V30 5628 H 534.652 0.972263 -6.0362 0
M  V30 5629 H 538.826 0.575269 -6.9402 0
M  V30 5630 H 536.453 0.301722 -7.59601 0
M  V30 5631 N 538.028 1.39524 0.732853 0
M  V30 5632 C 538.938 1.40695 1.87729 0
M  V30 5633 C 539.954 0.301496 1.71368 0
M  V30 5634 O 541.13 0.543313 1.93933 0
M  V30 5635 C 538.195 1.25098 3.23344 0
M  V30 5636 C 537.256 2.45634 3.52083 0
M  V30 5637 C 536.489 2.30772 4.81228 0
M  V30 5638 O 536.712 1.31233 5.55098 0
M  V30 5639 O 535.646 3.19799 5.09914 0
M  V30 5640 H 539.472 2.37168 1.89697 0
M  V30 5641 H 537.057 1.20663 0.880959 0
M  V30 5642 H 538.939 1.18541 4.04383 0
M  V30 5643 H 537.614 0.317209 3.22142 0
M  V30 5644 H 536.521 2.57767 2.71122 0
M  V30 5645 H 537.854 3.37712 3.58066 0
M  V30 5646 N 539.506 -0.963266 1.24736 0
M  V30 5647 C 540.755 -1.70115 1.08369 0
M  V30 5648 C 541.068 -1.91939 -0.376688 0
M  V30 5649 O 542.274 -2.6334 -0.660624 0
M  V30 5650 C 540.73 -3.06218 1.89099 0
M  V30 5651 C 540.338 -2.92221 3.39574 0
M  V30 5652 C 542.082 -3.83848 1.81275 0
M  V30 5653 C 539.989 -4.23662 4.12631 0
M  V30 5654 H 538.919 -0.637944 0.401924 0
M  V30 5655 H 541.57 -1.07304 1.48856 0
M  V30 5656 H 539.952 -3.69884 1.41429 0
M  V30 5657 H 541.126 -2.37541 3.94856 0
M  V30 5658 H 539.441 -2.28054 3.48397 0
M  V30 5659 H 542.038 -4.81188 2.33158 0
M  V30 5660 H 542.381 -4.08949 0.778895 0
M  V30 5661 H 542.914 -3.26918 2.26649 0
M  V30 5662 H 539.653 -4.03753 5.16395 0
M  V30 5663 H 539.173 -4.78141 3.62135 0
M  V30 5664 H 540.852 -4.92256 4.19873 0
M  V30 5665 N 540.985 -1.06182 -1.16461 0
M  V30 5666 C 542.231 -0.779015 -1.87241 0
M  V30 5667 C 542.564 0.692715 -1.81425 0
M  V30 5668 O 541.839 1.5074 -1.22913 0
M  V30 5669 C 542.122 -1.2728 -3.36856 0
M  V30 5670 C 541.975 -2.80821 -3.51368 0
M  V30 5671 C 543.294 -0.879799 -4.31216 0
M  V30 5672 H 540.413 -0.284464 -0.679889 0
M  V30 5673 H 543.055 -1.31755 -1.36896 0
M  V30 5674 H 541.205 -0.814673 -3.79862 0
M  V30 5675 H 542.877 -3.34833 -3.17308 0
M  V30 5676 H 541.12 -3.19606 -2.93316 0
M  V30 5677 H 541.791 -3.10435 -4.56436 0
M  V30 5678 H 544.267 -1.27436 -3.96105 0
M  V30 5679 H 543.143 -1.25278 -5.34412 0
M  V30 5680 H 543.404 0.215372 -4.41575 0
M  V30 5681 N 542.463 1.3308 -0.844243 0
M  V30 5682 C 543.688 2.02341 -0.455282 0
M  V30 5683 C 544.113 1.6308 0.93737 0
M  V30 5684 O 543.471 0.826118 1.61385 0
M  V30 5685 C 543.519 3.55743 -0.58988 0
M  V30 5686 O 542.623 4.1063 0.38166 0
M  V30 5687 H 541.964 0.637898 -0.184343 0
M  V30 5688 H 544.494 1.6986 -1.14056 0
M  V30 5689 H 544.504 4.05243 -0.473522 0
M  V30 5690 H 543.179 3.83662 -1.60549 0
M  V30 5691 H 541.756 3.72236 0.22241 0
M  V30 5692 N 543.941 0.601185 1.45683 0
M  V30 5693 C 545.352 0.179659 1.85834 0
M  V30 5694 C 545.703 -1.26189 1.50236 0
M  V30 5695 O 544.828 -1.95587 0.925987 0
M  V30 5696 C 545.423 0.319277 3.37292 0
M  V30 5697 C 543.982 -0.0475092 3.7637 0
M  V30 5698 C 543.129 0.646692 2.69654 0
M  V30 5699 H 546.08 0.808268 1.36575 0
M  V30 5700 H 546.101 -0.4503 3.77826 0
M  V30 5701 H 545.613 1.36855 3.6317 0
M  V30 5702 H 543.714 -1.0962 3.5611 0
M  V30 5703 H 543.827 0.34168 4.7788 0
M  V30 5704 H 542.191 0.0849971 2.54558 0
M  V30 5705 H 542.974 1.69797 2.98369 0
M  V30 5706 N 545.419 -1.53889 0.339982 0
M  V30 5707 C 546.366 -2.24902 -0.518452 0
M  V30 5708 C 547.336 -1.24593 -1.09844 0
M  V30 5709 O 548.521 -1.53317 -1.13572 0
M  V30 5710 C 545.661 -3.02262 -1.66529 0
M  V30 5711 C 544.774 -4.17418 -1.11295 0
M  V30 5712 C 543.909 -4.82273 -2.2268 0
M  V30 5713 C 542.948 -5.89503 -1.6478 0
M  V30 5714 N 542.085 -6.48153 -2.69893 0
M  V30 5715 H 546.925 -2.97853 0.0936579 0
M  V30 5716 H 544.462 -1.46986 0.0579924 0
M  V30 5717 H 546.42 -3.45371 -2.3404 0
M  V30 5718 H 545.05 -2.31614 -2.24844 0
M  V30 5719 H 544.102 -3.78976 -0.328886 0
M  V30 5720 H 545.414 -4.94554 -0.649414 0
M  V30 5721 H 544.568 -5.28435 -2.98063 0
M  V30 5722 H 543.307 -4.04552 -2.72376 0
M  V30 5723 H 542.312 -5.42728 -0.879004 0
M  V30 5724 H 543.537 -6.6913 -1.1594 0
M  V30 5725 H 541.483 -5.73298 -3.1885 0
M  V30 5726 H 541.4 -7.20752 -2.28151 0
M  V30 5727 H 542.668 -6.98968 -3.45056 0
M  V30 5728 N 546.897 -0.0685191 -1.57451 0
M  V30 5729 C 548.143 0.602239 -1.93652 0
M  V30 5730 C 548.476 1.6946 -0.948526 0
M  V30 5731 O 547.751 1.94487 0.022782 0
M  V30 5732 C 548.034 1.18223 -3.4014 0
M  V30 5733 C 547.887 0.0967431 -4.49696 0
M  V30 5734 C 549.206 2.08872 -3.87377 0
M  V30 5735 H 546.325 0.217453 -0.70419 0
M  V30 5736 H 548.967 -0.133821 -1.89528 0
M  V30 5737 H 547.117 1.80953 -3.43785 0
M  V30 5738 H 548.789 -0.536155 -4.58174 0
M  V30 5739 H 547.032 -0.573063 -4.29998 0
M  V30 5740 H 547.703 0.542894 -5.49324 0
M  V30 5741 H 550.179 1.56081 -3.85717 0
M  V30 5742 H 549.055 2.46389 -4.90493 0
M  V30 5743 H 549.316 2.99572 -3.25129 0
M  V30 5744 N 548.375 1.56261 0.205012 0
M  V30 5745 C 549.323 1.94631 1.27364 0
M  V30 5746 C 550.317 0.830434 1.47649 0
M  V30 5747 O 551.523 1.01538 1.48627 0
M  V30 5748 H 547.898 0.618755 0.427371 0
M  V30 5749 H 549.869 2.83768 0.922941 0
M  V30 5750 C 548.618 2.29358 2.61324 0
M  V30 5751 H 547.941 3.14744 2.46528 0
M  V30 5752 H 549.381 2.60076 3.34868 0
M  V30 5753 C 547.84 1.12461 3.17575 0
M  V30 5754 O 548.37 0.394407 3.99759 0
M  V30 5755 N 546.576 0.904036 2.7618 0
M  V30 5756 H 546.123 1.49956 2.09454 0
M  V30 5757 H 546.081 0.123662 3.14157 0
M  V30 5758 N 549.853 -0.472356 1.50355 0
M  V30 5759 C 550.816 -1.5529 1.68576 0
M  V30 5760 C 551.816 -1.50863 0.556511 0
M  V30 5761 O 553.006 -1.53505 0.823516 0
M  V30 5762 C 550.138 -2.94921 1.70981 0
M  V30 5763 H 551.331 -1.40451 2.64978 0
M  V30 5764 H 548.884 -0.698645 1.39816 0
M  V30 5765 H 549.619 -3.15204 0.762675 0
M  V30 5766 H 549.404 -2.99541 2.53017 0
M  V30 5767 H 550.894 -3.73372 1.87037 0
M  V30 5768 N 551.331 -1.39911 -0.725443 0
M  V30 5769 C 552.559 -1.40949 -1.51463 0
M  V30 5770 C 552.974 -0.0065242 -1.88799 0
M  V30 5771 O 552.331 0.967163 -1.54765 0
M  V30 5772 C 552.382 -2.29119 -2.79619 0
M  V30 5773 O 552.103 -3.63952 -2.43866 0
M  V30 5774 C 553.604 -2.38642 -3.73584 0
M  V30 5775 H 550.824 -0.481091 -0.467752 0
M  V30 5776 H 553.368 -1.83843 -0.895651 0
M  V30 5777 H 551.523 -1.89612 -3.37826 0
M  V30 5778 H 551.937 -4.10677 -3.26258 0
M  V30 5779 H 553.411 -3.04563 -4.60375 0
M  V30 5780 H 553.888 -1.40846 -4.16004 0
M  V30 5781 H 554.494 -2.78659 -3.21293 0
M  V30 5782 N 552.809 0.956637 -1.25245 0
M  V30 5783 C 554.056 1.701 -1.09874 0
M  V30 5784 C 554.384 1.91128 0.36062 0
M  V30 5785 O 553.639 1.47837 1.28229 0
M  V30 5786 C 553.938 3.08996 -1.79601 0
M  V30 5787 C 553.604 3.07774 -3.29523 0
M  V30 5788 C 552.266 3.07149 -3.70423 0
M  V30 5789 C 554.618 3.01257 -4.25316 0
M  V30 5790 C 551.946 2.97752 -5.0553 0
M  V30 5791 C 554.298 2.93403 -5.60444 0
M  V30 5792 C 552.962 2.91111 -6.00675 0
M  V30 5793 H 552.232 0.62244 -0.402056 0
M  V30 5794 H 554.879 1.1178 -1.55491 0
M  V30 5795 H 553.184 3.70848 -1.26408 0
M  V30 5796 H 554.881 3.65407 -1.65162 0
M  V30 5797 H 551.471 3.09032 -2.9698 0
M  V30 5798 H 555.655 3.00861 -3.9471 0
M  V30 5799 H 550.911 2.94346 -5.35883 0
M  V30 5800 H 555.085 2.87321 -6.34366 0
M  V30 5801 H 552.712 2.83586 -7.05325 0
M  V30 5802 N 554.287 1.06798 1.15896 0
M  V30 5803 C 555.197 0.694564 2.24083 0
M  V30 5804 C 556.213 -0.291687 1.71538 0
M  V30 5805 O 557.389 -0.139723 2.00915 0
M  V30 5806 C 554.454 0.0921014 3.46578 0
M  V30 5807 C 553.515 1.13087 4.14137 0
M  V30 5808 C 552.748 0.557064 5.30785 0
M  V30 5809 O 552.971 -0.628623 5.66925 0
M  V30 5810 O 551.905 1.29924 5.8771 0
M  V30 5811 H 555.731 1.59663 2.58344 0
M  V30 5812 H 553.316 0.840575 1.2351 0
M  V30 5813 H 555.198 -0.241884 4.20705 0
M  V30 5814 H 553.873 -0.78337 3.14078 0
M  V30 5815 H 552.78 1.51712 3.41957 0
M  V30 5816 H 554.113 1.97805 4.50704 0
M  V30 5817 N 555.766 -1.3263 0.851289 0
M  V30 5818 C 557.182 -1.50162 0.5407 0
M  V30 5819 C 557.382 -1.78788 -0.929369 0
M  V30 5820 O 556.438 -1.85545 -1.71258 0
M  V30 5821 C 557.751 -2.64803 1.42478 0
M  V30 5822 C 559.299 -2.78688 1.42485 0
M  V30 5823 C 559.774 -3.96405 2.29407 0
M  V30 5824 N 561.265 -4.0366 2.27184 0
M  V30 5825 C 562 -4.93971 2.9117 0
M  V30 5826 N 561.496 -5.89313 3.64256 0
M  V30 5827 N 563.289 -4.87066 2.80576 0
M  V30 5828 H 555.44 -1.12315 1.80275 0
M  V30 5829 H 557.703 -0.553266 0.769806 0
M  V30 5830 H 557.409 -2.50368 2.46999 0
M  V30 5831 H 557.283 -3.60506 1.10974 0
M  V30 5832 H 559.67 -2.92547 0.387304 0
M  V30 5833 H 559.751 -1.83708 1.78002 0
M  V30 5834 H 559.395 -3.83304 3.33228 0
M  V30 5835 H 559.325 -4.90654 1.91224 0
M  V30 5836 H 561.816 -3.35435 1.74045 0
M  V30 5837 H 562.129 -6.54913 4.10255 0
M  V30 5838 H 560.474 -5.8935 3.68364 0
M  V30 5839 H 563.665 -4.11552 2.23031 0
M  V30 5840 H 563.838 -5.57248 3.30725 0
M  V30 5841 N 557.244 -0.608902 -1.45362 0
M  V30 5842 C 558.49 -0.104762 -2.02529 0
M  V30 5843 C 558.823 1.26191 -1.47613 0
M  V30 5844 O 558.098 1.8327 -0.65134 0
M  V30 5845 C 558.381 -0.0672661 -3.60037 0
M  V30 5846 C 558.234 -1.4647 -4.25284 0
M  V30 5847 C 559.553 0.619877 -4.35713 0
M  V30 5848 H 556.672 -0.0395438 -0.735938 0
M  V30 5849 H 559.314 -0.781126 -1.73201 0
M  V30 5850 H 557.464 0.50871 -3.85155 0
M  V30 5851 H 559.136 -2.08785 -4.11347 0
M  V30 5852 H 557.379 -2.02502 -3.83634 0
M  V30 5853 H 558.05 -1.39069 -5.34195 0
M  V30 5854 H 560.526 0.130297 -4.15896 0
M  V30 5855 H 559.402 0.615224 -5.45441 0
M  V30 5856 H 559.663 1.68621 -4.0868 0
M  V30 5857 N 558.722 1.53707 -0.348139 0
M  V30 5858 C 559.652 2.28111 0.498766 0
M  V30 5859 C 560.633 1.29851 1.09876 0
M  V30 5860 O 561.818 1.587 1.11928 0
M  V30 5861 C 558.948 3.05735 1.64753 0
M  V30 5862 C 557.902 4.11537 1.17565 0
M  V30 5863 C 557.228 4.77142 2.4133 0
M  V30 5864 C 558.528 5.21587 0.272844 0
M  V30 5865 H 560.222 2.99152 -0.121934 0
M  V30 5866 H 557.768 1.43875 -0.0600842 0
M  V30 5867 H 559.721 3.56526 2.24649 0
M  V30 5868 H 558.445 2.32354 2.2952 0
M  V30 5869 H 557.104 3.61665 0.599483 0
M  V30 5870 H 556.752 4.0035 3.04514 0
M  V30 5871 H 556.452 5.48626 2.10436 0
M  V30 5872 H 557.976 5.30719 3.01943 0
M  V30 5873 H 559.39 5.67986 0.778779 0
M  V30 5874 H 557.787 6.00074 0.0555849 0
M  V30 5875 H 558.857 4.79969 -0.689785 0
M  V30 5876 N 560.2 0.0768682 1.57412 0
M  V30 5877 C 561.13 -0.886026 2.16037 0
M  V30 5878 C 562.111 -1.30691 1.08876 0
M  V30 5879 O 563.296 -1.37705 1.36934 0
M  V30 5880 C 560.426 -2.1518 2.72608 0
M  V30 5881 C 559.38 -1.87015 3.8498 0
M  V30 5882 C 558.706 -3.20266 4.28175 0
M  V30 5883 C 560.006 -1.17143 5.08994 0
M  V30 5884 H 561.7 -0.397642 2.96748 0
M  V30 5885 H 559.246 -0.189823 1.42743 0
M  V30 5886 H 561.199 -2.82962 3.12266 0
M  V30 5887 H 559.923 -2.66269 1.89125 0
M  V30 5888 H 558.582 -1.21636 3.45833 0
M  V30 5889 H 558.23 -3.69207 3.41607 0
M  V30 5890 H 557.93 -3.0221 5.03927 0
M  V30 5891 H 559.454 -3.89237 4.70454 0
M  V30 5892 H 560.868 -1.75003 5.45937 0
M  V30 5893 H 559.265 -1.09328 5.90057 0
M  V30 5894 H 560.335 -0.151295 4.84664 0
M  V30 5895 N 561.678 -1.56367 -0.196722 0
M  V30 5896 C 563.094 -1.49916 -0.54749 0
M  V30 5897 C 563.294 -0.77659 -1.85934 0
M  V30 5898 O 562.35 -0.32644 -2.50381 0
M  V30 5899 C 563.663 -2.94577 -0.603734 0
M  V30 5900 C 565.211 -3.05239 -0.692677 0
M  V30 5901 C 565.686 -4.51308 -0.780046 0
M  V30 5902 N 567.177 -4.55453 -0.843616 0
M  V30 5903 C 567.912 -5.65786 -0.931358 0
M  V30 5904 N 567.408 -6.85812 -0.981503 0
M  V30 5905 N 569.201 -5.53695 -0.968421 0
M  V30 5906 H 561.352 -2.01761 0.663803 0
M  V30 5907 H 563.615 -0.918094 0.236238 0
M  V30 5908 H 563.321 -3.50494 0.29105 0
M  V30 5909 H 563.195 -3.47841 -1.45898 0
M  V30 5910 H 565.582 -2.49372 -1.57789 0
M  V30 5911 H 565.663 -2.55103 0.188736 0
M  V30 5912 H 565.307 -5.078 0.100811 0
M  V30 5913 H 565.237 -4.99176 -1.67724 0
M  V30 5914 H 567.728 -3.69025 -0.814176 0
M  V30 5915 H 568.041 -7.65648 -1.04892 0
M  V30 5916 H 566.386 -6.88474 -0.950208 0
M  V30 5917 H 569.577 -4.58848 -0.926072 0
M  V30 5918 H 569.75 -6.39708 -1.03334 0
M  V30 5919 N 563.156 0.464375 -1.50603 0
M  V30 5920 C 564.086 1.56944 -1.72889 0
M  V30 5921 C 565.067 1.59979 -0.577997 0
M  V30 5922 O 566.252 1.76138 -0.817855 0
M  V30 5923 C 563.382 2.95225 -1.8292 0
M  V30 5924 C 562.336 3.07056 -2.98162 0
M  V30 5925 C 561.662 4.47051 -2.93343 0
M  V30 5926 C 562.962 2.83648 -4.38567 0
M  V30 5927 H 564.656 1.38547 -2.65415 0
M  V30 5928 H 562.202 0.665082 -1.27721 0
M  V30 5929 H 564.155 3.72467 -1.97095 0
M  V30 5930 H 562.879 3.14793 -0.870209 0
M  V30 5931 H 561.538 2.32248 -2.83648 0
M  V30 5932 H 561.186 4.63547 -1.95276 0
M  V30 5933 H 560.886 4.55902 -3.70712 0
M  V30 5934 H 562.41 5.26304 -3.09575 0
M  V30 5935 H 563.824 3.50636 -4.53572 0
M  V30 5936 H 562.221 3.03937 -5.17438 0
M  V30 5937 H 563.291 1.79451 -4.50472 0
M  V30 5938 N 564.634 1.40294 0.718013 0
M  V30 5939 C 565.859 1.41941 1.5122 0
M  V30 5940 C 566.284 0.0202371 1.88089 0
M  V30 5941 O 565.642 -0.971078 1.53101 0
M  V30 5942 C 565.69 2.3141 2.76554 0
M  V30 5943 O 564.794 1.75567 3.73162 0
M  V30 5944 H 564.135 0.482644 0.456016 0
M  V30 5945 H 566.665 1.84494 0.884478 0
M  V30 5946 H 566.675 2.46513 3.25108 0
M  V30 5947 H 565.35 3.33085 2.49053 0
M  V30 5948 H 563.927 1.69798 3.31999 0
M  V30 5949 N 566.112 -0.949982 1.2575 0
M  V30 5950 C 567.34 -1.72972 1.13527 0
M  V30 5951 C 567.755 -1.8623 -0.310453 0
M  V30 5952 O 567.112 -1.36336 -1.2132 0
M  V30 5953 C 567.163 -3.14108 1.78936 0
M  V30 5954 O 566.884 -3.01493 3.17858 0
M  V30 5955 C 568.385 -4.08338 1.72554 0
M  V30 5956 H 565.605 -0.541864 0.395758 0
M  V30 5957 H 568.149 -1.19151 1.66202 0
M  V30 5958 H 566.304 -3.64858 1.30221 0
M  V30 5959 H 566.718 -3.90559 3.50092 0
M  V30 5960 H 568.192 -5.04963 2.22973 0
M  V30 5961 H 568.669 -4.33742 0.690251 0
M  V30 5962 H 569.275 -3.63506 2.2078 0
M  V30 5963 N 567.59 -1.07411 -1.15328 0
M  V30 5964 C 569.001 -0.820261 -1.67716 0
M  V30 5965 C 569.352 0.654539 -1.8496 0
M  V30 5966 O 568.477 1.50664 -1.55337 0
M  V30 5967 C 569.072 -1.48242 -3.04647 0
M  V30 5968 C 567.631 -1.27606 -3.5411 0
M  V30 5969 C 566.778 -1.5517 -2.29821 0
M  V30 5970 H 569.729 -1.23608 -0.995332 0
M  V30 5971 H 569.75 -0.903984 -3.69606 0
M  V30 5972 H 569.262 -2.55578 -2.92064 0
M  V30 5973 H 567.363 -0.222948 -3.71932 0
M  V30 5974 H 567.476 -1.99667 -4.35511 0
M  V30 5975 H 565.84 -0.972747 -2.35393 0
M  V30 5976 H 566.623 -2.63689 -2.19824 0
M  V30 5977 N 569.068 1.32177 -0.85831 0
M  V30 5978 C 570.315 1.97125 -0.463484 0
M  V30 5979 C 570.643 1.67907 0.981705 0
M  V30 5980 O 569.898 0.961717 1.70439 0
M  V30 5981 C 570.197 3.51372 -0.653658 0
M  V30 5982 C 569.863 4.00584 -2.06987 0
M  V30 5983 C 568.525 4.13733 -2.4572 0
M  V30 5984 C 570.877 4.26624 -2.99402 0
M  V30 5985 C 568.205 4.50268 -3.76132 0
M  V30 5986 C 570.557 4.64618 -4.29316 0
M  V30 5987 C 569.221 4.75975 -4.67979 0
M  V30 5988 H 568.491 0.72133 -0.169601 0
M  V30 5989 H 571.138 1.57517 -1.08907 0
M  V30 5990 H 569.443 3.91761 0.0551328 0
M  V30 5991 H 571.14 3.99655 -0.328163 0
M  V30 5992 H 567.73 3.90837 -1.75911 0
M  V30 5993 H 571.914 4.1597 -2.70708 0
M  V30 5994 H 567.17 4.57256 -4.05865 0
M  V30 5995 H 571.344 4.83722 -5.00985 0
M  V30 5996 H 568.971 5.04041 -5.69076 0
M  V30 5997 N 570.547 0.616602 1.45037 0
M  V30 5998 C 571.793 0.115501 2.02471 0
M  V30 5999 C 572.126 -1.25406 1.4828 0
M  V30 6000 O 571.401 -1.82922 0.661051 0
M  V30 6001 C 571.684 0.0863588 3.59996 0
M  V30 6002 C 571.537 1.48723 4.24501 0
M  V30 6003 C 572.856 -0.596762 4.36035 0
M  V30 6004 H 569.975 0.0434461 0.735718 0
M  V30 6005 H 572.617 0.7903 1.72784 0
M  V30 6006 H 570.767 -0.488277 3.85419 0
M  V30 6007 H 572.439 2.10964 4.10234 0
M  V30 6008 H 570.682 2.04534 3.82555 0
M  V30 6009 H 571.353 1.419 5.3345 0
M  V30 6010 H 573.829 -0.10824 4.15959 0
M  V30 6011 H 572.705 -0.586289 5.4576 0
M  V30 6012 H 572.966 -1.66451 4.09569 0
M  V30 6013 N 572.025 -1.5352 0.356285 0
M  V30 6014 C 573.274 -2.00298 -0.237373 0
M  V30 6015 C 573.587 -1.24784 -1.50627 0
M  V30 6016 O 574.793 -1.62103 -2.17795 0
M  V30 6017 C 573.249 -3.56771 -0.473545 0
M  V30 6018 C 572.857 -4.41154 0.780183 0
M  V30 6019 C 574.601 -4.1193 -1.02537 0
M  V30 6020 C 572.508 -5.89161 0.514108 0
M  V30 6021 H 571.438 -0.748307 -0.092478 0
M  V30 6022 H 574.089 -1.77283 0.473588 0
M  V30 6023 H 572.471 -3.75902 -1.24553 0
M  V30 6024 H 573.645 -4.33797 1.55425 0
M  V30 6025 H 571.96 -3.97052 1.25455 0
M  V30 6026 H 574.557 -5.20133 -1.2396 0
M  V30 6027 H 574.9 -3.65943 -1.98473 0
M  V30 6028 H 575.433 -3.96561 -0.313775 0
M  V30 6029 H 572.172 -6.39408 1.44355 0
M  V30 6030 H 571.692 -5.9939 -0.221632 0
M  V30 6031 H 573.371 -6.46857 0.136122 0
M  V30 6032 N 573.503 -0.0852151 -1.57369 0
M  V30 6033 C 574.919 0.271436 -1.57275 0
M  V30 6034 C 575.119 1.69109 -1.09565 0
M  V30 6035 O 574.175 2.40549 -0.767611 0
M  V30 6036 C 575.488 0.0688638 -3.00621 0
M  V30 6037 C 577.036 0.137373 -3.12698 0
M  V30 6038 C 577.511 -0.0370832 -4.57985 0
M  V30 6039 N 579.002 0.0180794 -4.63196 0
M  V30 6040 C 579.737 -0.0922953 -5.73326 0
M  V30 6041 N 579.233 -0.256948 -6.92323 0
M  V30 6042 N 581.026 -0.0342702 -5.6209 0
M  V30 6043 H 573.177 -1.01288 -1.86693 0
M  V30 6044 H 575.44 -0.396138 -0.861266 0
M  V30 6045 H 575.146 -0.911277 -3.39689 0
M  V30 6046 H 575.02 0.815442 -3.6828 0
M  V30 6047 H 577.407 1.10801 -2.73509 0
M  V30 6048 H 577.488 -0.640532 -2.47651 0
M  V30 6049 H 577.132 -1.00455 -4.97867 0
M  V30 6050 H 577.062 0.760392 -5.21081 0
M  V30 6051 H 579.553 0.143202 -3.77629 0
M  V30 6052 H 579.866 -0.332949 -7.72082 0
M  V30 6053 H 578.211 -0.292487 -6.94384 0
M  V30 6054 H 581.402 0.0931605 -4.68007 0
M  V30 6055 H 581.575 -0.12374 -6.47882 0
M  V30 6056 N 574.981 1.5647 0.188427 0
M  V30 6057 C 576.209 1.85131 0.923803 0
M  V30 6058 C 576.624 0.668537 1.76567 0
M  V30 6059 O 575.981 -0.362662 1.7886 0
M  V30 6060 C 576.032 3.12661 1.81453 0
M  V30 6061 O 575.753 4.26378 1.00665 0
M  V30 6062 C 577.254 3.54548 2.66103 0
M  V30 6063 H 574.474 0.614624 0.269218 0
M  V30 6064 H 577.018 2.03581 0.193671 0
M  V30 6065 H 575.173 2.96088 2.49821 0
M  V30 6066 H 575.587 4.99041 1.61425 0
M  V30 6067 H 577.061 4.4673 3.24247 0
M  V30 6068 H 577.538 2.77853 3.40139 0
M  V30 6069 H 578.144 3.73674 2.03096 0
M  V30 6070 N 576.459 -0.456382 1.50847 0
M  V30 6071 C 577.406 -1.55249 1.70782 0
M  V30 6072 C 578.376 -1.56757 0.549231 0
M  V30 6073 O 579.561 -1.74061 0.7815 0
M  V30 6074 C 576.701 -2.93118 1.82143 0
M  V30 6075 C 575.814 -3.01285 3.09598 0
M  V30 6076 C 574.949 -4.30159 3.11667 0
M  V30 6077 C 573.988 -4.32124 4.33515 0
M  V30 6078 N 573.125 -5.52492 4.3324 0
M  V30 6079 H 577.965 -1.37555 2.64353 0
M  V30 6080 H 575.502 -0.668543 1.3103 0
M  V30 6081 H 577.46 -3.73088 1.86711 0
M  V30 6082 H 576.09 -3.09413 0.919978 0
M  V30 6083 H 575.142 -2.14096 3.14431 0
M  V30 6084 H 576.454 -2.98597 3.99551 0
M  V30 6085 H 575.608 -5.18489 3.15046 0
M  V30 6086 H 574.347 -4.35477 2.1957 0
M  V30 6087 H 573.352 -3.42189 4.30333 0
M  V30 6088 H 574.577 -4.28485 5.26856 0
M  V30 6089 H 572.523 -5.58567 3.44004 0
M  V30 6090 H 572.44 -5.51605 5.16979 0
M  V30 6091 H 573.708 -6.42906 4.40786 0
M  V30 6092 N 577.937 -1.40673 -0.710563 0
M  V30 6093 C 579.348 -1.34975 -1.28991 0
M  V30 6094 C 579.699 -0.0256272 -1.96183 0
M  V30 6095 O 578.824 0.876339 -1.97862 0
M  V30 6096 C 579.419 -2.44467 -2.34567 0
M  V30 6097 C 577.978 -2.42213 -2.88114 0
M  V30 6098 C 577.125 -2.25085 -1.61963 0
M  V30 6099 H 580.076 -1.50406 -0.506343 0
M  V30 6100 H 580.097 -2.12663 -3.15523 0
M  V30 6101 H 579.609 -3.40825 -1.85634 0
M  V30 6102 H 577.71 -1.49568 -3.41263 0
M  V30 6103 H 577.823 -3.37983 -3.39565 0
M  V30 6104 H 576.187 -1.72691 -1.87216 0
M  V30 6105 H 576.97 -3.23449 -1.15047 0
M  V30 6106 N 579.415 0.9433 -1.26252 0
M  V30 6107 C 580.325 2.07532 -1.09397 0
M  V30 6108 C 581.341 1.73977 -0.0280449 0
M  V30 6109 O 582.517 2.00067 -0.231337 0
M  V30 6110 C 579.582 3.39002 -0.726523 0
M  V30 6111 C 578.643 3.86353 -1.87163 0
M  V30 6112 C 577.876 5.11549 -1.52162 0
M  V30 6113 O 578.099 5.68834 -0.422385 0
M  V30 6114 O 577.033 5.53889 -2.35565 0
M  V30 6115 H 580.859 2.24658 -2.04359 0
M  V30 6116 H 578.444 1.05988 -1.05295 0
M  V30 6117 H 580.326 4.18 -0.534236 0
M  V30 6118 H 579.001 3.2312 0.193721 0
M  V30 6119 H 577.908 3.0831 -2.11886 0
M  V30 6120 H 579.241 4.06752 -2.77152 0
M  V30 6121 N 580.893 1.08022 1.14757 0
M  V30 6122 C 581.856 0.71048 2.1791 0
M  V30 6123 C 582.856 -0.252731 1.58801 0
M  V30 6124 O 584.046 -0.0327915 1.74169 0
M  V30 6125 C 581.178 0.0483203 3.40866 0
M  V30 6126 H 582.371 1.62384 2.52134 0
M  V30 6127 H 579.924 0.877595 1.29337 0
M  V30 6128 H 580.659 -0.876959 3.12218 0
M  V30 6129 H 580.444 0.741189 3.85031 0
M  V30 6130 H 581.934 -0.195471 4.17142 0
M  V30 6131 N 582.371 -1.3172 0.865308 0
M  V30 6132 C 583.596 -2.01591 0.487415 0
M  V30 6133 C 584.021 -1.6455 -0.911307 0
M  V30 6134 O 583.379 -0.851689 -1.6005 0
M  V30 6135 C 583.427 -3.54759 0.646401 0
M  V30 6136 O 582.531 -4.11185 -0.316284 0
M  V30 6137 H 581.872 -0.634884 0.194468 0
M  V30 6138 H 584.402 -1.68024 1.16744 0
M  V30 6139 H 584.412 -4.04438 0.537932 0
M  V30 6140 H 583.087 -3.8106 1.66632 0
M  V30 6141 H 581.664 -3.72543 -0.163162 0
M  V30 6142 N 583.85 -0.624285 -1.44708 0
M  V30 6143 C 585.098 -0.125802 -2.01708 0
M  V30 6144 C 585.418 1.2543 -1.49306 0
M  V30 6145 O 584.689 1.83198 -0.693924 0
M  V30 6146 H 583.269 -0.0435161 -0.745731 0
M  V30 6147 H 585.931 -0.809446 -1.77296 0
M  V30 6148 H 585.027 -0.0882734 -3.11975 0
M  V30 6149 N 585.328 1.53329 -0.364422 0
M  V30 6150 C 586.553 2.06132 0.229033 0
M  V30 6151 C 586.978 1.23625 1.41769 0
M  V30 6152 O 586.336 0.255038 1.79497 0
M  V30 6153 C 586.384 3.55544 0.60174 0
M  V30 6154 O 585.488 3.75771 1.69912 0
M  V30 6155 H 584.829 0.663148 0.0336213 0
M  V30 6156 H 587.359 1.97758 -0.524689 0
M  V30 6157 H 587.369 3.98549 0.873073 0
M  V30 6158 H 586.044 4.15039 -0.267421 0
M  V30 6159 H 584.621 3.44663 1.42343 0
M  V30 6160 N 586.806 0.0935595 1.57322 0
M  V30 6161 C 587.716 -0.880192 2.17462 0
M  V30 6162 C 588.732 -1.31135 1.14366 0
M  V30 6163 O 589.908 -1.37958 1.46729 0
M  V30 6164 C 586.973 -2.12184 2.74188 0
M  V30 6165 C 586.034 -1.74503 3.92234 0
M  V30 6166 C 585.267 -2.92748 4.46245 0
M  V30 6167 O 585.49 -4.07427 3.99198 0
M  V30 6168 O 584.424 -2.71303 5.37288 0
M  V30 6169 H 588.25 -0.398516 3.01074 0
M  V30 6170 H 585.835 -0.130707 1.48827 0
M  V30 6171 H 587.717 -2.84953 3.10451 0
M  V30 6172 H 586.392 -2.59407 1.93623 0
M  V30 6173 H 585.299 -0.989186 3.60785 0
M  V30 6174 H 586.632 -1.32044 4.74157 0
M  V30 6175 N 588.284 -1.56567 -0.180126 0
M  V30 6176 C 589.232 -1.96632 -1.24251 0
M  V30 6177 C 590.226 -0.853818 -1.46309 0
M  V30 6178 O 591.432 -1.0389 -1.46993 0
M  V30 6179 H 587.807 -0.625476 -0.417473 0
M  V30 6180 H 589.778 -2.85201 -0.877679 0
M  V30 6181 C 588.527 -2.33486 -2.57642 0
M  V30 6182 H 587.85 -3.18626 -2.4149 0
M  V30 6183 H 589.29 -2.65371 -3.30688 0
M  V30 6184 C 587.749 -1.17499 -3.15746 0
M  V30 6185 O 588.279 -0.457956 -3.99081 0
M  V30 6186 N 586.485 -0.94786 -2.74707 0
M  V30 6187 H 586.032 -1.53269 -2.07042 0
M  V30 6188 H 585.99 -0.173626 -3.1392 0
M  V30 6189 N 589.762 0.448376 -1.51087 0
M  V30 6190 C 590.709 1.54341 -1.71603 0
M  V30 6191 C 591.679 1.56463 -0.557536 0
M  V30 6192 O 592.864 1.73644 -0.79072 0
M  V30 6193 C 590.004 2.92148 -1.83695 0
M  V30 6194 C 589.117 2.99639 -3.11192 0
M  V30 6195 C 588.252 4.285 -3.13944 0
M  V30 6196 C 587.291 4.29819 -4.35801 0
M  V30 6197 N 586.428 5.50186 -4.36164 0
M  V30 6198 H 591.268 1.36151 -2.65079 0
M  V30 6199 H 588.805 0.661585 -1.31383 0
M  V30 6200 H 590.763 3.72093 -1.88687 0
M  V30 6201 H 589.393 3.0892 -0.936374 0
M  V30 6202 H 588.445 2.12425 -3.15562 0
M  V30 6203 H 589.757 2.96474 -4.01129 0
M  V30 6204 H 588.911 5.16811 -3.17791 0
M  V30 6205 H 587.65 4.34307 -2.21876 0
M  V30 6206 H 586.655 3.39902 -4.32142 0
M  V30 6207 H 587.88 4.25685 -5.29121 0
M  V30 6208 H 585.826 5.56735 -3.46961 0
M  V30 6209 H 585.743 5.48856 -5.19897 0
M  V30 6210 H 587.011 6.40559 -4.44189 0
M  V30 6211 N 591.24 1.41047 0.703093 0
M  V30 6212 C 592.517 1.30493 1.45708 0
M  V30 6213 C 592.897 -0.0709892 2.10981 0
M  V30 6214 O 592.245 -1.08471 2.01113 0
M  V30 6215 C 592.455 2.45287 2.48265 0
M  V30 6216 C 593.803 2.86104 3.13735 0
M  V30 6217 O 594.827 2.44971 2.58587 0
M  V30 6218 O 593.686 3.57206 4.13601 0
M  V30 6219 H 590.78 0.513144 0.648546 0
M  V30 6220 H 593.326 1.52995 0.734208 0
M  V30 6221 H 592.098 3.37135 1.98635 0
M  V30 6222 H 591.721 2.24622 3.28071 0
M  V30 6223 N 592.718 -0.936591 1.26751 0
M  V30 6224 C 593.665 -2.03597 1.08706 0
M  V30 6225 C 594.635 -1.66097 -0.00926542 0
M  V30 6226 O 595.82 -1.90199 0.151377 0
M  V30 6227 C 592.96 -3.3727 0.73094 0
M  V30 6228 C 592.073 -3.87778 1.90399 0
M  V30 6229 C 591.208 -5.09859 1.49056 0
M  V30 6230 C 590.247 -5.5264 2.63164 0
M  V30 6231 N 589.384 -6.65921 2.22471 0
M  V30 6232 H 594.224 -2.18364 2.02784 0
M  V30 6233 H 591.761 -1.06985 1.00958 0
M  V30 6234 H 593.719 -4.14128 0.505328 0
M  V30 6235 H 592.349 -3.22337 -0.172868 0
M  V30 6236 H 591.401 -3.07279 2.2424 0
M  V30 6237 H 592.713 -4.15464 2.76028 0
M  V30 6238 H 591.867 -5.9419 1.22567 0
M  V30 6239 H 590.606 -4.8393 0.60524 0
M  V30 6240 H 589.611 -4.66863 2.90377 0
M  V30 6241 H 590.836 -5.80568 3.52303 0
M  V30 6242 H 588.782 -6.41667 1.36379 0
M  V30 6243 H 588.699 -6.93216 3.01641 0
M  V30 6244 H 589.967 -7.53616 1.99205 0
M  V30 6245 N 594.196 -1.08629 -1.14182 0
M  V30 6246 C 595.442 -0.818556 -1.85546 0
M  V30 6247 C 595.775 0.654076 -1.82854 0
M  V30 6248 O 595.05 1.48099 -1.26083 0
M  V30 6249 C 595.333 -1.34397 -3.3408 0
M  V30 6250 C 595.186 -2.8821 -3.45333 0
M  V30 6251 C 596.505 -0.971069 -4.29253 0
M  V30 6252 H 593.624 -0.298821 -0.673702 0
M  V30 6253 H 596.266 -1.34629 -1.34071 0
M  V30 6254 H 594.416 -0.895064 -3.78049 0
M  V30 6255 H 596.088 -3.41488 -3.10134 0
M  V30 6256 H 594.331 -3.25756 -2.86471 0
M  V30 6257 H 595.002 -3.20047 -4.49749 0
M  V30 6258 H 597.478 -1.35809 -3.93313 0
M  V30 6259 H 596.354 -1.36586 -5.31635 0
M  V30 6260 H 596.615 0.121659 -4.41933 0
M  V30 6261 N 595.674 1.31259 -0.872281 0
M  V30 6262 C 596.607 2.26544 -0.274394 0
M  V30 6263 C 597.585 1.51213 0.597776 0
M  V30 6264 O 598.769 1.80277 0.550687 0
M  V30 6265 C 595.896 3.33139 0.611256 0
M  V30 6266 C 594.942 4.26077 -0.189876 0
M  V30 6267 S 595.775 5.11971 -1.56989 0
M  V30 6268 C 596.931 6.2208 -0.690427 0
M  V30 6269 H 597.164 2.76908 -1.0821 0
M  V30 6270 H 594.697 1.3906 -0.670939 0
M  V30 6271 H 596.655 3.95024 1.11654 0
M  V30 6272 H 595.316 2.81525 1.39294 0
M  V30 6273 H 594.509 5.01657 0.485433 0
M  V30 6274 H 594.111 3.68701 -0.627339 0
M  V30 6275 H 596.403 6.77429 0.098001 0
M  V30 6276 H 597.346 6.93768 -1.41742 0
M  V30 6277 H 597.754 5.63915 -0.256953 0
M  V30 6278 N 597.152 0.631951 1.44375 0
M  V30 6279 C 598.062 -0.073674 2.34484 0
M  V30 6280 C 599.078 -0.834825 1.52665 0
M  V30 6281 O 600.254 -0.786902 1.85391 0
M  V30 6282 C 597.319 -1.04247 3.30656 0
M  V30 6283 C 596.38 -0.280602 4.28382 0
M  V30 6284 C 595.613 -1.20325 5.19959 0
M  V30 6285 O 595.836 -2.44199 5.15484 0
M  V30 6286 O 594.77 -0.687128 5.97965 0
M  V30 6287 H 598.596 0.667477 2.96274 0
M  V30 6288 H 596.181 0.392144 1.44162 0
M  V30 6289 H 598.063 -1.59981 3.89851 0
M  V30 6290 H 596.738 -1.76422 2.71398 0
M  V30 6291 H 595.645 0.319804 3.72731 0
M  V30 6292 H 596.978 0.401144 4.90563 0
M  V30 6293 N 598.631 -1.53133 0.372548 0
M  V30 6294 C 599.877 -2.01654 -0.215277 0
M  V30 6295 C 600.21 -1.25914 -1.47849 0
M  V30 6296 O 599.485 -0.3548 -1.91237 0
M  V30 6297 C 599.768 -3.56609 -0.500187 0
M  V30 6298 C 599.621 -4.43036 0.777145 0
M  V30 6299 C 600.94 -4.20528 -1.29786 0
M  V30 6300 H 598.059 -0.732991 -0.0767686 0
M  V30 6301 H 600.701 -1.83335 0.498814 0
M  V30 6302 H 598.851 -3.7235 -1.10852 0
M  V30 6303 H 600.523 -4.39079 1.41447 0
M  V30 6304 H 598.766 -4.10723 1.39604 0
M  V30 6305 H 599.437 -5.49424 0.532662 0
M  V30 6306 H 601.913 -4.08663 -0.783198 0
M  V30 6307 H 600.789 -5.28962 -1.46596 0
M  V30 6308 H 601.05 -3.77051 -2.30836 0
M  V30 6309 N 600.109 -0.101901 -1.5727 0
M  V30 6310 C 601.056 0.854577 -2.14396 0
M  V30 6311 C 602.026 1.27521 -1.06432 0
M  V30 6312 O 603.211 1.35575 -1.34253 0
M  V30 6313 C 600.351 2.10576 -2.73408 0
M  V30 6314 C 599.464 1.73504 -3.95626 0
M  V30 6315 C 598.599 2.9346 -4.42781 0
M  V30 6316 C 597.638 2.52547 -5.57572 0
M  V30 6317 N 596.775 3.65359 -5.99547 0
M  V30 6318 H 601.615 0.360578 -2.9581 0
M  V30 6319 H 599.152 0.166303 -1.46157 0
M  V30 6320 H 601.11 2.83859 -3.05745 0
M  V30 6321 H 599.74 2.57463 -1.94711 0
M  V30 6322 H 598.792 0.901622 -3.6956 0
M  V30 6323 H 600.104 1.39426 -4.78917 0
M  V30 6324 H 599.258 3.74988 -4.76937 0
M  V30 6325 H 597.997 3.30753 -3.58404 0
M  V30 6326 H 597.002 1.69446 -5.23037 0
M  V30 6327 H 598.227 2.1639 -6.43702 0
M  V30 6328 H 596.173 4.02358 -5.18116 0
M  V30 6329 H 596.09 3.35148 -6.77652 0
M  V30 6330 H 597.358 4.47378 -6.38336 0
M  V30 6331 N 601.587 1.56661 0.17182 0
M  V30 6332 C 602.835 1.81606 0.886774 0
M  V30 6333 C 603.156 0.678818 1.82803 0
M  V30 6334 O 602.426 -0.301354 1.93568 0
M  V30 6335 H 601.006 0.669934 0.330451 0
M  V30 6336 H 603.668 1.94142 0.171757 0
M  V30 6337 H 602.764 2.75634 1.46398 0
M  V30 6338 N 603.065 -0.440357 1.51323 0
M  V30 6339 C 603.997 -1.55254 1.68609 0
M  V30 6340 C 605.01 -1.52614 0.566812 0
M  V30 6341 O 606.199 -1.57445 0.841032 0
M  V30 6342 C 603.299 -2.94169 1.68279 0
M  V30 6343 C 602.472 -3.21346 2.96742 0
M  V30 6344 C 601.531 -4.3997 2.8864 0
M  V30 6345 O 600.557 -4.38771 3.62586 0
M  V30 6346 N 601.759 -5.43367 2.04285 0
M  V30 6347 H 604.524 -1.40831 2.6455 0
M  V30 6348 H 602.085 -0.629251 1.49171 0
M  V30 6349 H 604.077 -3.71543 1.60431 0
M  V30 6350 H 602.647 -3.02205 0.799441 0
M  V30 6351 H 601.867 -2.32299 3.18482 0
M  V30 6352 H 603.155 -3.3633 3.81785 0
M  V30 6353 H 602.553 -5.47176 1.43578 0
M  V30 6354 H 601.11 -6.19605 2.02318 0
M  V30 6355 N 604.543 -1.41418 -0.695603 0
M  V30 6356 C 605.476 -1.3768 -1.81988 0
M  V30 6357 C 606.454 -0.244061 -1.60758 0
M  V30 6358 O 607.638 -0.430965 -1.83507 0
M  V30 6359 C 604.765 -1.1476 -3.18666 0
M  V30 6360 C 603.811 -2.30752 -3.58686 0
M  V30 6361 S 604.644 -3.9323 -3.63498 0
M  V30 6362 C 605.8 -3.72613 -5.02902 0
M  V30 6363 H 606.033 -2.32822 -1.84882 0
M  V30 6364 H 603.566 -1.27942 -0.86431 0
M  V30 6365 H 605.524 -1.02223 -3.97569 0
M  V30 6366 H 604.185 -0.212385 -3.13381 0
M  V30 6367 H 603.378 -2.10409 -4.57978 0
M  V30 6368 H 602.98 -2.39696 -2.87092 0
M  V30 6369 H 605.272 -3.32317 -5.904 0
M  V30 6370 H 606.215 -4.71507 -5.28286 0
M  V30 6371 H 606.623 -3.0589 -4.74438 0
M  V30 6372 N 606.021 0.929856 -1.27246 0
M  V30 6373 C 607.27 1.67182 -1.12842 0
M  V30 6374 C 607.583 1.9287 0.325666 0
M  V30 6375 O 608.789 2.64999 0.590572 0
M  V30 6376 C 607.245 3.01097 -1.97151 0
M  V30 6377 C 606.853 2.83115 -3.47203 0
M  V30 6378 C 608.597 3.78907 -1.91389 0
M  V30 6379 C 606.504 4.12573 -4.23719 0
M  V30 6380 H 605.434 0.627064 -0.418697 0
M  V30 6381 H 608.085 1.0332 -1.51649 0
M  V30 6382 H 606.467 3.66004 -1.51186 0
M  V30 6383 H 607.641 2.26989 -4.01015 0
M  V30 6384 H 605.956 2.18736 -3.54321 0
M  V30 6385 H 608.553 4.74837 -2.45834 0
M  V30 6386 H 608.896 4.0674 -0.887047 0
M  V30 6387 H 609.429 3.20794 -2.35237 0
M  V30 6388 H 606.168 3.8992 -5.26918 0
M  V30 6389 H 605.688 4.68371 -3.74685 0
M  V30 6390 H 607.367 4.8095 -4.32777 0
M  V30 6391 N 607.499 1.09233 1.13605 0
M  V30 6392 C 608.449 0.6994 2.17008 0
M  V30 6393 C 609.433 -0.285238 1.58352 0
M  V30 6394 O 610.625 -0.09592 1.7674 0
M  V30 6395 C 607.754 0.11938 3.43092 0
M  V30 6396 C 606.84 1.13031 4.0876 0
M  V30 6397 N 607.231 2.31673 4.49623 0
M  V30 6398 C 605.529 0.967999 4.35369 0
M  V30 6399 C 606.23 2.95964 5.00779 0
M  V30 6400 N 605.206 2.23534 4.95513 0
M  V30 6401 H 609.008 1.60272 2.46354 0
M  V30 6402 H 606.522 0.968257 1.30378 0
M  V30 6403 H 608.519 -0.180122 4.16511 0
M  V30 6404 H 607.179 -0.778816 3.15221 0
M  V30 6405 H 608.19 2.69277 4.42391 0
M  V30 6406 H 604.867 0.124319 4.17315 0
M  V30 6407 H 606.257 3.96813 5.42208 0
M  V30 6408 N 608.977 -1.30795 0.87923 0
M  V30 6409 C 610.223 -1.96653 0.495519 0
M  V30 6410 C 610.556 -1.69282 -0.951703 0
M  V30 6411 O 609.831 -0.994374 -1.6716 0
M  V30 6412 C 610.114 -3.51898 0.764174 0
M  V30 6413 C 609.967 -3.88808 2.2616 0
M  V30 6414 C 611.286 -4.39462 0.236825 0
M  V30 6415 H 608.405 -0.7143 0.181507 0
M  V30 6416 H 611.047 -1.54765 1.10217 0
M  V30 6417 H 609.197 -3.87709 0.247841 0
M  V30 6418 H 610.869 -3.63051 2.8459 0
M  V30 6419 H 609.112 -3.37082 2.73053 0
M  V30 6420 H 609.783 -4.97086 2.4002 0
M  V30 6421 H 612.259 -4.10528 0.678683 0
M  V30 6422 H 611.135 -5.47018 0.454176 0
M  V30 6423 H 611.396 -4.33621 -0.861683 0
M  V30 6424 N 610.455 -0.639598 -1.44038 0
M  V30 6425 C 611.866 -0.228866 -1.85292 0
M  V30 6426 C 612.217 1.22161 -1.53529 0
M  V30 6427 O 611.342 1.93064 -0.977518 0
M  V30 6428 C 611.937 -0.408592 -3.36327 0
M  V30 6429 C 610.496 -0.0522953 -3.76364 0
M  V30 6430 C 609.643 -0.717959 -2.67844 0
M  V30 6431 H 612.594 -0.844194 -1.34384 0
M  V30 6432 H 612.615 0.349968 -3.78887 0
M  V30 6433 H 612.127 -1.46435 -3.59414 0
M  V30 6434 H 610.228 1.0014 -3.58891 0
M  V30 6435 H 610.341 -0.468261 -4.76806 0
M  V30 6436 H 608.705 -0.152459 -2.54243 0
M  V30 6437 H 609.488 -1.77648 -2.93762 0
M  V30 6438 N 611.933 1.52934 -0.380664 0
M  V30 6439 C 612.843 2.29921 0.466192 0
M  V30 6440 C 613.859 1.36488 1.07922 0
M  V30 6441 O 615.035 1.69553 1.0869 0
M  V30 6442 C 612.1 3.08468 1.58266 0
M  V30 6443 C 611.161 4.17595 0.995627 0
M  V30 6444 C 610.394 4.92387 2.05889 0
M  V30 6445 O 610.617 4.67184 3.27254 0
M  V30 6446 O 609.551 5.77949 1.68102 0
M  V30 6447 H 613.377 3.03274 -0.160735 0
M  V30 6448 H 610.962 1.48698 -0.144617 0
M  V30 6449 H 612.844 3.57469 2.23145 0
M  V30 6450 H 611.519 2.37937 2.19471 0
M  V30 6451 H 610.426 3.72811 0.310332 0
M  V30 6452 H 611.759 4.90336 0.427918 0
M  V30 6453 N 613.412 0.11024 1.57214 0
M  V30 6454 C 614.637 -0.561179 1.99664 0
M  V30 6455 C 615.062 -1.59985 0.989266 0
M  V30 6456 O 614.42 -1.81255 -0.0402399 0
M  V30 6457 C 614.468 -1.17189 3.41027 0
M  V30 6458 O 613.572 -2.28755 3.4314 0
M  V30 6459 H 612.913 -0.14101 0.648855 0
M  V30 6460 H 615.443 0.196128 2.03658 0
M  V30 6461 H 615.453 -1.50954 3.79047 0
M  V30 6462 H 614.128 -0.411041 4.13864 0
M  V30 6463 H 612.705 -1.96495 3.16929 0
M  V30 6464 N 614.89 -1.56749 -0.16351 0
M  V30 6465 C 615.838 -1.97939 -1.22159 0
M  V30 6466 C 616.832 -0.869288 -1.45395 0
M  V30 6467 O 618.038 -1.05443 -1.45883 0
M  V30 6468 H 614.413 -0.629869 -0.410815 0
M  V30 6469 H 616.384 -2.86115 -0.847381 0
M  V30 6470 C 615.133 -2.36206 -2.55151 0
M  V30 6471 H 614.456 -3.2117 -2.38097 0
M  V30 6472 H 615.896 -2.68863 -3.27854 0
M  V30 6473 C 614.355 -1.20841 -3.14482 0
M  V30 6474 O 614.885 -0.500258 -3.98573 0
M  V30 6475 N 613.091 -0.976943 -2.73686 0
M  V30 6476 H 612.638 -1.55457 -2.05404 0
M  V30 6477 H 612.596 -0.206912 -3.13718 0
M  V30 6478 N 616.368 0.432326 -1.51554 0
M  V30 6479 C 617.593 1.20824 -1.68571 0
M  V30 6480 C 618.018 1.84126 -0.384596 0
M  V30 6481 O 617.376 1.69025 0.655751 0
M  V30 6482 C 617.424 2.26429 -2.80646 0
M  V30 6483 O 616.528 3.32032 -2.44598 0
M  V30 6484 H 615.869 0.353765 -0.561913 0
M  V30 6485 H 618.399 0.509916 -1.98144 0
M  V30 6486 H 618.409 2.71133 -3.04878 0
M  V30 6487 H 617.084 1.79733 -3.75058 0
M  V30 6488 H 615.661 2.92769 -2.30956 0
M  V30 6489 N 617.846 1.41785 0.688094 0
M  V30 6490 C 619.095 1.4084 1.44385 0
M  V30 6491 C 619.408 0.0234166 1.95586 0
M  V30 6492 O 620.614 -0.108647 2.71283 0
M  V30 6493 C 619.07 2.47675 2.61123 0
M  V30 6494 C 618.678 3.92116 2.16677 0
M  V30 6495 C 620.422 2.55877 3.38714 0
M  V30 6496 C 618.329 4.90487 3.30419 0
M  V30 6497 H 617.259 0.523787 0.542368 0
M  V30 6498 H 619.91 1.6764 0.74627 0
M  V30 6499 H 618.292 2.14018 3.33185 0
M  V30 6500 H 619.466 4.35059 1.51856 0
M  V30 6501 H 617.781 3.87642 1.5206 0
M  V30 6502 H 620.378 3.26553 4.234 0
M  V30 6503 H 620.721 1.59801 3.84408 0
M  V30 6504 H 621.254 2.88662 2.73714 0
M  V30 6505 H 617.993 5.87994 2.89729 0
M  V30 6506 H 617.513 4.52187 3.94065 0
M  V30 6507 H 619.192 5.11591 3.96085 0
M  V30 6508 N 619.324 -0.923095 1.27737 0
M  V30 6509 C 620.254 -2.04124 1.13383 0
M  V30 6510 C 621.235 -1.70066 0.0340658 0
M  V30 6511 O 622.42 -1.93068 0.209383 0
M  V30 6512 C 619.55 -3.3831 0.785097 0
M  V30 6513 C 618.504 -3.86496 1.8386 0
M  V30 6514 C 617.83 -5.1754 1.34373 0
M  V30 6515 C 619.13 -4.09381 3.24353 0
M  V30 6516 H 620.824 -2.1639 2.06919 0
M  V30 6517 H 618.37 -1.03976 0.996243 0
M  V30 6518 H 620.323 -4.16016 0.671485 0
M  V30 6519 H 619.047 -3.2607 -0.185969 0
M  V30 6520 H 617.706 -3.10987 1.9412 0
M  V30 6521 H 617.354 -5.01696 0.361989 0
M  V30 6522 H 617.054 -5.50751 2.04811 0
M  V30 6523 H 618.578 -5.97811 1.24315 0
M  V30 6524 H 619.992 -4.77641 3.17067 0
M  V30 6525 H 618.389 -4.53906 3.92542 0
M  V30 6526 H 619.459 -3.14515 3.69064 0
M  V30 6527 N 620.802 -1.09834 -1.13024 0
M  V30 6528 C 622.049 -0.83695 -1.84395 0
M  V30 6529 C 622.377 0.637463 -1.83757 0
M  V30 6530 O 621.632 1.48554 -1.27398 0
M  V30 6531 C 621.931 -1.32263 -3.32026 0
M  V30 6532 C 621.597 -2.80739 -3.52841 0
M  V30 6533 C 620.259 -3.21286 -3.5823 0
M  V30 6534 C 622.611 -3.76449 -3.60466 0
M  V30 6535 C 619.939 -4.56308 -3.68781 0
M  V30 6536 C 622.291 -5.11266 -3.72546 0
M  V30 6537 C 620.955 -5.51397 -3.76189 0
M  V30 6538 H 620.225 -0.306262 -0.674748 0
M  V30 6539 H 622.872 -1.37385 -1.33408 0
M  V30 6540 H 621.177 -0.705618 -3.85394 0
M  V30 6541 H 622.874 -1.09695 -3.85705 0
M  V30 6542 H 619.464 -2.48363 -3.49305 0
M  V30 6543 H 623.648 -3.46234 -3.55578 0
M  V30 6544 H 618.904 -4.86832 -3.69871 0
M  V30 6545 H 623.078 -5.85279 -3.77388 0
M  V30 6546 H 620.705 -6.56017 -3.84117 0
M  V30 6547 N 622.28 1.30327 -0.886154 0
M  V30 6548 C 623.21 2.30549 -0.370028 0
M  V30 6549 C 624.191 1.61039 0.547751 0
M  V30 6550 O 625.376 1.8864 0.461353 0
M  V30 6551 C 622.506 3.44808 0.415275 0
M  V30 6552 C 621.46 4.26024 -0.41085 0
M  V30 6553 C 620.786 5.32347 0.501128 0
M  V30 6554 C 622.086 4.95433 -1.65359 0
M  V30 6555 H 623.78 2.73969 -1.20754 0
M  V30 6556 H 621.326 1.3171 -0.582097 0
M  V30 6557 H 623.279 4.13986 0.78699 0
M  V30 6558 H 622.003 3.00197 1.28644 0
M  V30 6559 H 620.662 3.58535 -0.764719 0
M  V30 6560 H 620.31 4.83982 1.37004 0
M  V30 6561 H 620.01 5.87581 -0.0478356 0
M  V30 6562 H 621.534 6.0438 0.869333 0
M  V30 6563 H 622.948 5.5712 -1.35239 0
M  V30 6564 H 621.345 5.60537 -2.14284 0
M  V30 6565 H 622.415 4.21493 -2.39733 0
M  V30 6566 N 623.758 0.647228 1.43697 0
M  V30 6567 C 625.006 0.157876 2.01482 0
M  V30 6568 C 625.327 -1.23039 1.51282 0
M  V30 6569 O 624.597 -1.82071 0.722982 0
M  V30 6570 H 623.177 0.0553745 0.744945 0
M  V30 6571 H 625.839 0.83755 1.75986 0
M  V30 6572 H 624.935 0.137895 3.11795 0
M  V30 6573 N 625.236 -1.5273 0.388769 0
M  V30 6574 C 626.461 -2.0647 -0.19621 0
M  V30 6575 C 626.886 -1.25865 -1.39784 0
M  V30 6576 O 626.244 -0.283562 -1.79069 0
M  V30 6577 C 626.292 -3.56456 -0.5451 0
M  V30 6578 O 625.396 -3.78426 -1.63912 0
M  V30 6579 H 624.737 -0.663599 -0.023067 0
M  V30 6580 H 627.267 -1.96898 0.556084 0
M  V30 6581 H 627.277 -3.99888 -0.809557 0
M  V30 6582 H 625.952 -4.14561 0.333417 0
M  V30 6583 H 624.529 -3.46884 -1.36842 0
M  V30 6584 N 626.714 -0.118576 -1.57153 0
M  V30 6585 C 628.125 0.40687 -1.82213 0
M  V30 6586 C 628.476 1.66636 -1.03571 0
M  V30 6587 O 627.601 2.14682 -0.272171 0
M  V30 6588 C 628.196 0.744949 -3.30509 0
M  V30 6589 C 626.755 1.21503 -3.5625 0
M  V30 6590 C 625.902 0.223511 -2.76398 0
M  V30 6591 H 628.853 -0.343712 -1.54933 0
M  V30 6592 H 628.874 1.6024 -3.45114 0
M  V30 6593 H 628.386 -0.171911 -3.87719 0
M  V30 6594 H 626.487 2.1488 -3.04396 0
M  V30 6595 H 626.6 1.16065 -4.64829 0
M  V30 6596 H 624.964 0.71046 -2.44591 0
M  V30 6597 H 625.747 -0.686439 -3.36367 0
M  V30 6598 N 628.193 1.56834 0.155195 0
M  V30 6599 C 629.433 1.84701 0.875488 0
M  V30 6600 C 629.797 0.701747 1.78716 0
M  V30 6601 O 630.998 0.861263 2.54629 0
M  V30 6602 C 629.269 3.1773 1.63654 0
M  V30 6603 S 630.828 3.67128 2.40338 0
M  V30 6604 H 627.646 0.647856 0.292923 0
M  V30 6605 H 630.248 1.95026 0.136024 0
M  V30 6606 H 628.952 3.99059 0.958117 0
M  V30 6607 H 628.483 3.10388 2.41708 0
M  V30 6608 H 630.498 3.35739 3.65368 0
M  V30 6609 N 629.671 -0.424282 1.51781 0
M  V30 6610 C 630.917 -1.17434 1.6534 0
M  V30 6611 C 631.25 -1.90549 0.374806 0
M  V30 6612 O 630.525 -1.84145 -0.626179 0
M  V30 6613 C 630.808 -2.18093 2.86544 0
M  V30 6614 C 630.661 -1.48975 4.24413 0
M  V30 6615 C 631.98 -3.18934 3.03264 0
M  V30 6616 H 629.099 -0.425566 0.601716 0
M  V30 6617 H 631.741 -0.461921 1.84299 0
M  V30 6618 H 629.891 -2.78849 2.7051 0
M  V30 6619 H 631.563 -0.914551 4.52143 0
M  V30 6620 H 629.806 -0.791893 4.26511 0
M  V30 6621 H 630.477 -2.22347 5.05238 0
M  V30 6622 H 632.953 -2.68243 3.18096 0
M  V30 6623 H 631.829 -3.86645 3.89611 0
M  V30 6624 H 632.09 -3.85793 2.15908 0
M  V30 6625 N 631.149 -1.42148 -0.680565 0
M  V30 6626 C 632.426 -1.32795 -1.43614 0
M  V30 6627 C 632.806 0.037415 -2.11067 0
M  V30 6628 O 632.154 1.05258 -2.02813 0
M  V30 6629 C 632.364 -2.49206 -2.44331 0
M  V30 6630 C 633.712 -2.91059 -3.09144 0
M  V30 6631 O 634.736 -2.49054 -2.54657 0
M  V30 6632 O 633.595 -3.63741 -4.07866 0
M  V30 6633 H 630.689 -0.523397 -0.640301 0
M  V30 6634 H 633.235 -1.54144 -0.709775 0
M  V30 6635 H 632.007 -3.40252 -1.93247 0
M  V30 6636 H 631.63 -2.29813 -3.24456 0
M  V30 6637 N 632.627 0.916307 -1.28225 0
M  V30 6638 C 633.574 2.01841 -1.11932 0
M  V30 6639 C 634.544 1.66091 -0.0171604 0
M  V30 6640 O 635.729 1.89934 -0.181617 0
M  V30 6641 C 632.869 3.36065 -0.784504 0
M  V30 6642 C 631.982 3.847 -1.96544 0
M  V30 6643 C 631.117 5.07423 -1.57149 0
M  V30 6644 C 630.156 5.48384 -2.71922 0
M  V30 6645 N 629.293 6.62298 -2.33037 0
M  V30 6646 H 634.133 2.1511 -2.06232 0
M  V30 6647 H 631.67 1.05366 -1.02647 0
M  V30 6648 H 633.628 4.13272 -0.571148 0
M  V30 6649 H 632.258 3.22571 0.121565 0
M  V30 6650 H 631.31 3.03673 -2.291 0
M  V30 6651 H 632.622 4.1102 -2.82603 0
M  V30 6652 H 631.776 5.92165 -1.32004 0
M  V30 6653 H 630.515 4.82906 -0.682153 0
M  V30 6654 H 629.52 4.62184 -2.97768 0
M  V30 6655 H 630.745 5.7489 -3.61494 0
M  V30 6656 H 628.691 6.39416 -1.4657 0
M  V30 6657 H 628.608 6.8833 -3.12631 0
M  V30 6658 H 629.876 7.50352 -2.11169 0
M  V30 6659 N 634.105 1.10431 1.1244 0
M  V30 6660 C 635.035 0.775143 2.20258 0
M  V30 6661 C 636.016 -0.25186 1.68225 0
M  V30 6662 O 637.201 -0.117637 1.93843 0
M  V30 6663 C 634.331 0.206133 3.46688 0
M  V30 6664 C 633.285 1.16382 4.11873 0
M  V30 6665 C 632.611 0.456014 5.32752 0
M  V30 6666 C 633.911 2.5104 4.58013 0
M  V30 6667 H 635.605 1.67665 2.4805 0
M  V30 6668 H 633.151 0.807595 1.19222 0
M  V30 6669 H 635.104 -0.036291 4.21384 0
M  V30 6670 H 633.828 -0.730614 3.18323 0
M  V30 6671 H 632.487 1.39169 3.39157 0
M  V30 6672 H 632.135 -0.485203 5.00654 0
M  V30 6673 H 631.835 1.09466 5.77314 0
M  V30 6674 H 633.359 0.222135 6.10196 0
M  V30 6675 H 634.773 2.32401 5.24083 0
M  V30 6676 H 633.17 3.10789 5.13352 0
M  V30 6677 H 634.24 3.11039 3.71998 0
M  V30 6678 N 635.583 -1.29855 0.893053 0
M  V30 6679 C 636.86 -1.90694 0.435336 0
M  V30 6680 C 637.24 -1.8111 -1.08454 0
M  V30 6681 O 636.588 -1.23352 -1.92345 0
M  V30 6682 C 636.798 -3.36033 0.942472 0
M  V30 6683 C 638.146 -4.13083 0.982226 0
M  V30 6684 O 639.17 -3.4491 0.889686 0
M  V30 6685 O 638.029 -5.34896 1.12022 0
M  V30 6686 H 635.123 -0.815978 0.134567 0
M  V30 6687 H 637.669 -1.38367 0.982484 0
M  V30 6688 H 636.441 -3.37132 1.9864 0
M  V30 6689 H 636.064 -3.95828 0.374952 0
M  V30 6690 N 637.061 -0.65484 -1.43351 0
M  V30 6691 C 637.971 0.0363603 -2.34572 0
M  V30 6692 C 638.987 0.810432 -1.53974 0
M  V30 6693 O 640.163 0.757308 -1.86619 0
M  V30 6694 C 637.228 0.989733 -3.32273 0
M  V30 6695 C 636.289 0.212414 -4.28774 0
M  V30 6696 C 635.522 1.12038 -5.21808 0
M  V30 6697 O 635.745 2.35967 -5.19303 0
M  V30 6698 O 634.679 0.59191 -5.98982 0
M  V30 6699 H 638.505 -0.714527 -2.95175 0
M  V30 6700 H 636.09 -0.415029 -1.4352 0
M  V30 6701 H 637.972 1.53759 -3.92347 0
M  V30 6702 H 636.647 1.72082 -2.74171 0
M  V30 6703 H 635.554 -0.379062 -3.72175 0
M  V30 6704 H 636.887 -0.479138 -4.89862 0
M  V30 6705 N 638.539 1.52521 -0.396863 0
M  V30 6706 C 639.469 2.29582 0.425941 0
M  V30 6707 C 640.45 1.33281 1.05689 0
M  V30 6708 O 641.635 1.62181 1.06823 0
M  V30 6709 C 638.765 3.10821 1.54943 0
M  V30 6710 C 637.719 4.15069 1.04413 0
M  V30 6711 C 637.045 4.84578 2.26028 0
M  V30 6712 C 638.345 5.22191 0.106767 0
M  V30 6713 H 640.039 2.98612 -0.217045 0
M  V30 6714 H 637.585 1.43611 -0.105826 0
M  V30 6715 H 639.538 3.63492 2.13193 0
M  V30 6716 H 638.262 2.39538 2.22011 0
M  V30 6717 H 636.921 3.63389 0.484118 0
M  V30 6718 H 636.569 4.09835 2.91623 0
M  V30 6719 H 636.269 5.55043 1.92876 0
M  V30 6720 H 637.793 5.40056 2.84906 0
M  V30 6721 H 639.207 5.70176 0.597685 0
M  V30 6722 H 637.604 5.99947 -0.135352 0
M  V30 6723 H 638.674 4.77531 -0.842134 0
M  V30 6724 N 640.017 0.126909 1.57088 0
M  V30 6725 C 640.95 -0.857844 2.11462 0
M  V30 6726 C 641.928 -1.25569 1.03301 0
M  V30 6727 O 643.112 -1.35535 1.31006 0
M  V30 6728 C 640.239 -2.14912 2.61784 0
M  V30 6729 C 639.285 -1.89874 3.81903 0
M  V30 6730 S 640.118 -1.10785 5.23915 0
M  V30 6731 C 641.274 -2.41075 5.7761 0
M  V30 6732 H 641.507 -0.395384 2.94659 0
M  V30 6733 H 639.04 -0.0870151 1.54155 0
M  V30 6734 H 640.998 -2.89101 2.91429 0
M  V30 6735 H 639.659 -2.58275 1.78754 0
M  V30 6736 H 638.852 -2.85572 4.15289 0
M  V30 6737 H 638.454 -1.23802 3.52915 0
M  V30 6738 H 640.746 -3.36864 5.87817 0
M  V30 6739 H 641.689 -2.12223 6.75549 0
M  V30 6740 H 642.097 -2.50804 5.05725 0
M  V30 6741 N 641.495 -1.56914 -0.146875 0
M  V30 6742 C 642.743 -1.82994 -0.85777 0
M  V30 6743 C 643.064 -0.707814 -1.817 0
M  V30 6744 O 642.334 0.270521 -1.94023 0
M  V30 6745 H 640.914 -0.675106 -0.319751 0
M  V30 6746 H 643.576 -1.9439 -0.140849 0
M  V30 6747 H 642.672 -2.77928 -1.41994 0
M  V30 6748 N 642.974 0.416227 -1.52004 0
M  V30 6749 C 644.39 0.754319 -1.40649 0
M  V30 6750 C 644.59 1.95059 -0.505392 0
M  V30 6751 O 643.646 2.5248 0.0315057 0
M  V30 6752 C 644.959 1.0149 -2.83055 0
M  V30 6753 C 646.507 1.11805 -2.9235 0
M  V30 6754 C 646.982 1.41144 -4.35709 0
M  V30 6755 N 648.473 1.48024 -4.38911 0
M  V30 6756 C 649.208 1.72338 -5.46889 0
M  V30 6757 N 648.704 1.94303 -6.64995 0
M  V30 6758 N 650.497 1.74294 -5.34395 0
M  V30 6759 H 642.648 -0.371324 -2.09129 0
M  V30 6760 H 644.911 -0.103811 -0.942299 0
M  V30 6761 H 644.617 0.208345 -3.51082 0
M  V30 6762 H 644.491 1.93697 -3.23668 0
M  V30 6763 H 646.878 1.91521 -2.24508 0
M  V30 6764 H 646.959 0.17451 -2.55204 0
M  V30 6765 H 646.603 0.619484 -5.04108 0
M  V30 6766 H 646.533 2.36739 -4.70385 0
M  V30 6767 H 649.024 1.32868 -3.53772 0
M  V30 6768 H 649.337 2.12286 -7.43071 0
M  V30 6769 H 647.682 1.91582 -6.68073 0
M  V30 6770 H 650.873 1.56667 -4.41104 0
M  V30 6771 H 651.046 1.92904 -6.18621 0
M  V30 6772 N 644.452 1.42507 0.673017 0
M  V30 6773 C 645.7 1.42789 1.43023 0
M  V30 6774 C 646.021 0.0459738 1.94946 0
M  V30 6775 O 645.291 -0.915765 1.73178 0
M  V30 6776 H 643.871 0.525657 0.530748 0
M  V30 6777 H 646.533 1.77944 0.795113 0
M  V30 6778 H 645.629 2.12872 2.28237 0
M  V30 6779 N 645.93 -0.909495 1.28709 0
M  V30 6780 C 646.86 -2.0291 1.15542 0
M  V30 6781 C 647.841 -1.7002 0.0521017 0
M  V30 6782 O 649.026 -1.92835 0.229849 0
M  V30 6783 C 646.156 -3.37458 0.820935 0
M  V30 6784 C 645.11 -3.84524 1.87949 0
M  V30 6785 C 644.436 -5.16086 1.39854 0
M  V30 6786 C 645.736 -4.05918 3.28676 0
M  V30 6787 H 647.43 -2.14183 2.09203 0
M  V30 6788 H 644.976 -1.02913 1.00722 0
M  V30 6789 H 646.929 -4.1528 0.715571 0
M  V30 6790 H 645.653 -3.26249 -0.151374 0
M  V30 6791 H 644.312 -3.08911 1.97408 0
M  V30 6792 H 643.96 -5.01284 0.41518 0
M  V30 6793 H 643.66 -5.48547 2.1064 0
M  V30 6794 H 645.184 -5.96459 1.30649 0
M  V30 6795 H 646.598 -4.74252 3.22115 0
M  V30 6796 H 644.995 -4.49717 3.97334 0
M  V30 6797 H 646.065 -3.10583 3.72379 0
M  V30 6798 N 647.408 -1.11026 -1.11852 0
M  V30 6799 C 648.358 -0.733836 -2.15868 0
M  V30 6800 C 649.342 0.26001 -1.58785 0
M  V30 6801 O 650.534 0.0677901 -1.7687 0
M  V30 6802 C 647.663 -0.173948 -3.42859 0
M  V30 6803 C 646.749 -1.1952 -4.0691 0
M  V30 6804 N 647.14 -2.38797 -4.45881 0
M  V30 6805 C 645.438 -1.03714 -4.33773 0
M  V30 6806 C 646.139 -3.03894 -4.96007 0
M  V30 6807 N 645.115 -2.31389 -4.91894 0
M  V30 6808 H 648.917 -1.64171 -2.43773 0
M  V30 6809 H 646.431 -0.988877 -1.28822 0
M  V30 6810 H 648.428 0.113836 -4.16745 0
M  V30 6811 H 647.088 0.728568 -3.16421 0
M  V30 6812 H 648.099 -2.76281 -4.38051 0
M  V30 6813 H 644.776 -0.190694 -4.17064 0
M  V30 6814 H 646.166 -4.05389 -5.35826 0
M  V30 6815 N 648.886 1.2938 -0.899927 0
M  V30 6816 C 649.816 2.30144 -0.39446 0
M  V30 6817 C 650.797 1.61611 0.530639 0
M  V30 6818 O 651.982 1.89119 0.441319 0
M  V30 6819 C 649.112 3.45229 0.37868 0
M  V30 6820 C 648.066 4.25564 -0.456012 0
M  V30 6821 C 647.392 5.32848 0.444637 0
M  V30 6822 C 648.692 4.93651 -1.70605 0
M  V30 6823 H 650.386 2.72673 -1.23653 0
M  V30 6824 H 647.932 1.31086 -0.596034 0
M  V30 6825 H 649.885 4.14797 0.743037 0
M  V30 6826 H 648.609 3.01545 1.25453 0
M  V30 6827 H 647.268 3.57704 -0.802704 0
M  V30 6828 H 646.916 4.85408 1.31863 0
M  V30 6829 H 646.616 5.87497 -0.110154 0
M  V30 6830 H 648.14 6.05268 0.805182 0
M  V30 6831 H 649.554 5.55655 -1.41141 0
M  V30 6832 H 647.951 5.58233 -2.20217 0
M  V30 6833 H 649.021 4.18926 -2.4419 0
M  V30 6834 N 650.364 0.662433 1.43002 0
M  V30 6835 C 651.589 0.186003 2.06564 0
M  V30 6836 C 652.014 -1.14314 1.49379 0
M  V30 6837 O 651.372 -1.70824 0.607346 0
M  V30 6838 C 651.42 0.118269 3.60406 0
M  V30 6839 O 650.524 -0.916859 4.02079 0
M  V30 6840 H 649.865 0.0990981 0.656563 0
M  V30 6841 H 652.395 0.907958 1.8335 0
M  V30 6842 H 652.405 -0.0619981 4.07953 0
M  V30 6843 H 651.08 1.08849 4.01403 0
M  V30 6844 H 649.657 -0.708635 3.66105 0
M  V30 6845 N 651.842 -1.52309 0.404946 0
M  V30 6846 C 653.119 -1.94237 -0.230544 0
M  V30 6847 C 653.499 -1.34154 -1.6299 0
M  V30 6848 O 652.847 -0.515713 -2.22604 0
M  V30 6849 C 653.057 -3.48166 -0.241106 0
M  V30 6850 C 654.405 -4.22074 -0.462488 0
M  V30 6851 O 655.429 -3.54754 -0.320644 0
M  V30 6852 O 654.288 -5.41443 -0.741708 0
M  V30 6853 H 651.382 -0.813766 -0.147358 0
M  V30 6854 H 653.928 -1.6333 0.460587 0
M  V30 6855 H 652.7 -3.84269 0.738467 0
M  V30 6856 H 652.323 -3.85422 -0.97651 0
M  V30 6857 N 653.32 -0.135238 -1.57019 0
M  V30 6858 C 654.569 0.518694 -1.94917 0
M  V30 6859 C 654.882 1.66783 -1.0219 0
M  V30 6860 O 656.088 2.38561 -1.29619 0
M  V30 6861 C 654.544 0.974123 -3.46466 0
M  V30 6862 C 654.152 -0.147439 -4.47757 0
M  V30 6863 C 655.896 1.59851 -3.93253 0
M  V30 6864 C 653.803 0.325599 -5.90503 0
M  V30 6865 H 652.733 0.19754 -0.727663 0
M  V30 6866 H 655.384 -0.217698 -1.82204 0
M  V30 6867 H 653.766 1.76542 -3.5447 0
M  V30 6868 H 654.94 -0.924122 -4.51438 0
M  V30 6869 H 653.255 -0.679496 -4.10818 0
M  V30 6870 H 655.852 1.96385 -4.9733 0
M  V30 6871 H 656.195 2.48306 -3.3414 0
M  V30 6872 H 656.728 0.872323 -3.88118 0
M  V30 6873 H 653.467 -0.523295 -6.53408 0
M  V30 6874 H 652.987 1.06841 -5.90208 0
M  V30 6875 H 654.666 0.781498 -6.42263 0
M  V30 6876 N 654.798 1.5699 0.138552 0
M  V30 6877 C 656.209 1.73171 0.697754 0
M  V30 6878 C 656.56 0.750952 1.8126 0
M  V30 6879 O 655.685 -0.080549 2.1625 0
M  V30 6880 C 656.28 3.13996 1.27248 0
M  V30 6881 C 654.839 3.3175 1.77816 0
M  V30 6882 C 653.986 2.69084 0.669991 0
M  V30 6883 H 656.937 1.5846 -0.0871979 0
M  V30 6884 H 656.958 3.14463 2.14227 0
M  V30 6885 H 656.47 3.85354 0.460855 0
M  V30 6886 H 654.571 2.65403 2.61519 0
M  V30 6887 H 654.684 4.39768 1.90107 0
M  V30 6888 H 653.048 2.29782 1.09874 0
M  V30 6889 H 653.831 3.43053 -0.130329 0
M  V30 6890 N 656.276 -0.40816 1.52223 0
M  V30 6891 C 657.525 -1.15212 1.65557 0
M  V30 6892 C 657.838 -1.9163 0.392096 0
M  V30 6893 O 659.044 -2.68458 0.405256 0
M  V30 6894 C 657.5 -2.09691 2.92502 0
M  V30 6895 C 657.108 -1.38785 4.25961 0
M  V30 6896 C 658.852 -2.8434 3.152 0
M  V30 6897 C 656.759 -2.31919 5.44029 0
M  V30 6898 H 655.689 -0.433776 0.616729 0
M  V30 6899 H 658.34 -0.4165 1.78711 0
M  V30 6900 H 656.722 -2.8681 2.7305 0
M  V30 6901 H 657.896 -0.670248 4.55899 0
M  V30 6902 H 656.211 -0.761741 4.09373 0
M  V30 6903 H 658.808 -3.54166 4.00587 0
M  V30 6904 H 659.151 -3.47344 2.29473 0
M  V30 6905 H 659.684 -2.14321 3.35129 0
M  V30 6906 H 656.423 -1.7356 6.32105 0
M  V30 6907 H 655.943 -3.0165 5.18428 0
M  V30 6908 H 657.622 -2.92424 5.77146 0
M  V30 6909 N 657.755 -1.42862 -0.66545 0
M  V30 6910 C 658.705 -1.43521 -1.7716 0
M  V30 6911 C 659.689 -0.305267 -1.57978 0
M  V30 6912 O 660.881 -0.548176 -1.68297 0
M  V30 6913 C 658.01 -1.34914 -3.15679 0
M  V30 6914 C 657.096 -2.5289 -3.40452 0
M  V30 6915 N 657.487 -3.78284 -3.3576 0
M  V30 6916 C 655.785 -2.47351 -3.71124 0
M  V30 6917 C 656.486 -4.56701 -3.60276 0
M  V30 6918 N 655.462 -3.87249 -3.81496 0
M  V30 6919 H 659.264 -2.38357 -1.7194 0
M  V30 6920 H 656.778 -1.37342 -0.866653 0
M  V30 6921 H 658.775 -1.33468 -3.94958 0
M  V30 6922 H 657.435 -0.410881 -3.2209 0
M  V30 6923 H 658.446 -4.10746 -3.15448 0
M  V30 6924 H 655.123 -1.62152 -3.84725 0
M  V30 6925 H 656.513 -5.65704 -3.6253 0
M  V30 6926 N 659.233 0.902656 -1.29189 0
M  V30 6927 C 660.51 1.63296 -1.07674 0
M  V30 6928 C 660.89 2.07649 0.380137 0
M  V30 6929 O 660.238 1.82997 1.36837 0
M  V30 6930 C 660.448 2.81603 -2.06158 0
M  V30 6931 C 661.796 3.52359 -2.36914 0
M  V30 6932 O 662.82 2.91767 -2.04329 0
M  V30 6933 O 661.679 4.61586 -2.92576 0
M  V30 6934 H 658.773 0.716889 -0.41231 0
M  V30 6935 H 661.319 0.950984 -1.4055 0
M  V30 6936 H 660.091 2.46004 -3.04299 0
M  V30 6937 H 659.714 3.57508 -1.73993 0
M  V30 6938 N 660.711 1.11618 1.11262 0
M  V30 6939 C 661.674 0.779447 2.15539 0
M  V30 6940 C 662.674 -0.202081 1.59525 0
M  V30 6941 O 663.864 0.0226356 1.74185 0
M  V30 6942 C 660.996 0.15674 3.40539 0
M  V30 6943 H 662.189 1.70324 2.4684 0
M  V30 6944 H 659.742 0.918298 1.26479 0
M  V30 6945 H 660.477 -0.777186 3.1485 0
M  V30 6946 H 660.262 0.863308 3.82478 0
M  V30 6947 H 661.752 -0.062661 4.17553 0
M  V30 6948 N 662.189 -1.289 0.906776 0
M  V30 6949 C 663.417 -1.99401 0.551969 0
M  V30 6950 C 663.832 -1.67816 -0.865048 0
M  V30 6951 O 663.189 -0.927078 -1.57199 0
M  V30 6952 C 663.24 -3.53779 0.743152 0
M  V30 6953 O 662.961 -3.84248 2.1044 0
M  V30 6954 C 664.462 -4.41543 0.39424 0
M  V30 6955 H 661.682 -0.636926 0.211106 0
M  V30 6956 H 664.226 -1.64266 1.21807 0
M  V30 6957 H 662.381 -3.87201 0.124143 0
M  V30 6958 H 662.795 -4.78904 2.13895 0
M  V30 6959 H 664.269 -5.48957 0.578814 0
M  V30 6960 H 664.746 -4.34073 -0.669137 0
M  V30 6961 H 665.352 -4.13605 0.990491 0
M  V30 6962 N 663.667 -0.670007 -1.42649 0
M  V30 6963 C 665.083 -0.33911 -1.55956 0
M  V30 6964 C 665.283 1.1558 -1.65056 0
M  V30 6965 O 664.339 1.94111 -1.61485 0
M  V30 6966 C 665.652 -1.06522 -2.812 0
M  V30 6967 C 667.2 -1.04708 -2.94966 0
M  V30 6968 C 667.675 -1.75442 -4.23065 0
M  V30 6969 N 669.166 -1.72286 -4.29967 0
M  V30 6970 C 669.901 -2.23877 -5.27889 0
M  V30 6971 N 669.397 -2.83829 -6.31991 0
M  V30 6972 N 671.19 -2.14279 -5.19654 0
M  V30 6973 H 663.341 -1.6399 -1.34986 0
M  V30 6974 H 665.604 -0.690603 -0.649439 0
M  V30 6975 H 665.31 -2.12033 -2.80597 0
M  V30 6976 H 665.184 -0.627398 -3.71946 0
M  V30 6977 H 667.571 -0.000315966 -2.951 0
M  V30 6978 H 667.652 -1.52374 -2.05465 0
M  V30 6979 H 667.296 -2.80084 -4.23693 0
M  V30 6980 H 667.226 -1.25229 -5.11493 0
M  V30 6981 H 669.717 -1.28554 -3.55362 0
M  V30 6982 H 670.03 -3.20827 -7.03057 0
M  V30 6983 H 668.375 -2.87896 -6.32567 0
M  V30 6984 H 671.566 -1.67135 -4.37245 0
M  V30 6985 H 671.739 -2.54792 -5.95806 0
M  V30 6986 N 665.145 1.52092 -0.413018 0
M  V30 6987 C 666.422 1.94356 0.22024 0
M  V30 6988 C 666.802 1.35017 1.62277 0
M  V30 6989 O 666.15 0.527511 2.22328 0
M  V30 6990 C 666.36 3.48289 0.222638 0
M  V30 6991 C 667.708 4.22313 0.440098 0
M  V30 6992 O 668.732 3.54919 0.301826 0
M  V30 6993 O 667.591 5.41829 0.712984 0
M  V30 6994 H 664.685 0.814536 0.14304 0
M  V30 6995 H 667.231 1.63083 -0.469242 0
M  V30 6996 H 666.003 3.83872 -0.758836 0
M  V30 6997 H 665.626 3.85934 0.956057 0
M  V30 6998 N 666.623 0.143563 1.56945 0
M  V30 6999 C 667.869 -0.50916 1.96304 0
M  V30 7000 C 668.202 -1.64741 1.0283 0
M  V30 7001 O 667.477 -1.94374 0.0700361 0
M  V30 7002 C 667.76 -1.0186 3.45393 0
M  V30 7003 C 667.613 0.117923 4.49645 0
M  V30 7004 C 668.932 -1.90151 3.96901 0
M  V30 7005 H 666.051 -0.183608 0.713763 0
M  V30 7006 H 668.693 0.224095 1.88674 0
M  V30 7007 H 666.843 -1.64345 3.52027 0
M  V30 7008 H 668.515 0.754145 4.55094 0
M  V30 7009 H 666.758 0.777568 4.26774 0
M  V30 7010 H 667.429 -0.280187 5.51288 0
M  V30 7011 H 669.905 -1.375 3.92725 0
M  V30 7012 H 668.781 -2.22707 5.0169 0
M  V30 7013 H 669.042 -2.83718 3.39052 0
M  V30 7014 N 668.101 -1.57061 -0.130224 0
M  V30 7015 C 669.35 -1.83446 -0.838488 0
M  V30 7016 C 669.663 -0.727468 -1.81569 0
M  V30 7017 O 670.869 -0.877394 -2.56932 0
M  V30 7018 C 669.325 -3.25201 -1.54182 0
M  V30 7019 C 668.933 -4.4388 -0.606178 0
M  V30 7020 C 670.677 -3.60844 -2.23588 0
M  V30 7021 C 668.584 -5.76661 -1.31209 0
M  V30 7022 H 667.514 -0.684185 -0.316871 0
M  V30 7023 H 670.165 -1.83273 -0.0912059 0
M  V30 7024 H 668.547 -3.1981 -2.33533 0
M  V30 7025 H 669.721 -4.60545 0.153308 0
M  V30 7026 H 668.036 -4.16395 -0.0196705 0
M  V30 7027 H 670.633 -4.57313 -2.77072 0
M  V30 7028 H 670.976 -2.87724 -3.00867 0
M  V30 7029 H 671.509 -3.67971 -1.51137 0
M  V30 7030 H 668.248 -6.52922 -0.580823 0
M  V30 7031 H 667.768 -5.63902 -2.04387 0
M  V30 7032 H 669.447 -6.20035 -1.8484 0
M  V30 7033 N 669.579 0.400081 -1.52437 0
M  V30 7034 C 670.509 1.4947 -1.7939 0
M  V30 7035 C 671.49 1.57383 -0.645329 0
M  V30 7036 O 672.675 1.72511 -0.891826 0
M  V30 7037 C 669.805 2.87201 -1.95276 0
M  V30 7038 C 668.759 2.94134 -3.10917 0
M  V30 7039 C 668.085 4.34207 -3.1204 0
M  V30 7040 C 669.385 2.64791 -4.50203 0
M  V30 7041 H 671.079 1.27165 -2.71052 0
M  V30 7042 H 668.625 0.610312 -1.30427 0
M  V30 7043 H 670.578 3.63772 -2.12715 0
M  V30 7044 H 669.302 3.10819 -1.00294 0
M  V30 7045 H 667.961 2.20009 -2.93243 0
M  V30 7046 H 667.609 4.54848 -2.14761 0
M  V30 7047 H 667.309 4.39768 -3.89715 0
M  V30 7048 H 668.833 5.127 -3.31619 0
M  V30 7049 H 670.247 3.31083 -4.68035 0
M  V30 7050 H 668.644 2.81717 -5.29864 0
M  V30 7051 H 669.714 1.60184 -4.57678 0
M  V30 7052 N 671.057 1.43213 0.657864 0
M  V30 7053 C 672.303 1.44798 1.41991 0
M  V30 7054 C 672.636 0.070256 1.94073 0
M  V30 7055 O 671.911 -0.908177 1.71995 0
M  V30 7056 C 672.194 2.4865 2.60471 0
M  V30 7057 C 672.047 3.95679 2.13911 0
M  V30 7058 C 673.366 2.49292 3.62686 0
M  V30 7059 H 670.485 0.527244 0.514959 0
M  V30 7060 H 673.127 1.74733 0.74621 0
M  V30 7061 H 671.277 2.23254 3.17946 0
M  V30 7062 H 672.949 4.32116 1.61472 0
M  V30 7063 H 671.192 4.08733 1.45325 0
M  V30 7064 H 671.863 4.6395 2.99089 0
M  V30 7065 H 674.339 2.71917 3.14961 0
M  V30 7066 H 673.215 3.23907 4.43143 0
M  V30 7067 H 673.476 1.52502 4.14964 0
M  V30 7068 N 672.536 -0.895792 1.29666 0
M  V30 7069 C 673.784 -1.64339 1.17631 0
M  V30 7070 C 674.105 -1.93099 -0.271643 0
M  V30 7071 O 673.375 -1.55981 -1.18518 0
M  V30 7072 H 671.955 -0.609162 0.432354 0
M  V30 7073 H 674.617 -1.07389 1.62646 0
M  V30 7074 H 673.713 -2.59815 1.72924 0
M  V30 7075 N 674.014 -1.12206 -1.10668 0
M  V30 7076 C 674.924 -0.800686 -2.20513 0
M  V30 7077 C 675.94 0.209512 -1.72734 0
M  V30 7078 O 677.116 0.043705 -2.01353 0
M  V30 7079 C 674.181 -0.257353 -3.45744 0
M  V30 7080 C 673.242 -1.32718 -4.0827 0
M  V30 7081 C 672.475 -0.809674 -5.27522 0
M  V30 7082 O 672.698 0.35742 -5.69279 0
M  V30 7083 O 671.632 -1.57816 -5.80842 0
M  V30 7084 H 675.458 -1.71807 -2.50432 0
M  V30 7085 H 673.043 -0.898546 -1.19359 0
M  V30 7086 H 674.925 0.0408849 -4.2138 0
M  V30 7087 H 673.6 0.632627 -3.17458 0
M  V30 7088 H 672.507 -1.67855 -3.34329 0
M  V30 7089 H 673.84 -2.19083 -4.40753 0
M  V30 7090 N 675.492 1.28418 -0.913599 0
M  V30 7091 C 676.424 2.26368 -0.359169 0
M  V30 7092 C 677.437 1.54858 0.502285 0
M  V30 7093 O 678.626 1.75659 0.31719 0
M  V30 7094 C 675.726 3.35112 0.50526 0
M  V30 7095 C 674.899 4.36126 -0.333648 0
M  V30 7096 C 673.958 5.24134 0.465845 0
M  V30 7097 O 672.984 5.6907 -0.121538 0
M  V30 7098 N 674.186 5.52892 1.76891 0
M  V30 7099 H 676.951 2.74579 -1.2011 0
M  V30 7100 H 674.512 1.41898 -0.779532 0
M  V30 7101 H 676.504 3.90926 1.04684 0
M  V30 7102 H 675.074 2.86611 1.2479 0
M  V30 7103 H 674.294 3.79776 -1.0566 0
M  V30 7104 H 675.582 5.00638 -0.907669 0
M  V30 7105 H 674.98 5.18217 2.26865 0
M  V30 7106 H 673.537 6.11464 2.25732 0
M  V30 7107 N 676.97 0.677563 1.42291 0
M  V30 7108 C 677.933 0.0101085 2.29198 0
M  V30 7109 C 678.933 -0.726219 1.43467 0
M  V30 7110 O 680.123 -0.563807 1.64824 0
M  V30 7111 C 677.255 -0.996316 3.26016 0
M  V30 7112 H 678.448 0.775071 2.89711 0
M  V30 7113 H 676.001 0.440065 1.49977 0
M  V30 7114 H 676.736 -1.78967 2.70446 0
M  V30 7115 H 676.521 -0.471687 3.89253 0
M  V30 7116 H 678.011 -1.46167 3.91184 0
M  V30 7117 N 678.448 -1.51871 0.421078 0
M  V30 7118 C 679.395 -2.27334 -0.398508 0
M  V30 7119 C 680.365 -1.30241 -1.03085 0
M  V30 7120 O 681.55 -1.59121 -1.05285 0
M  V30 7121 C 678.69 -3.10664 -1.50272 0
M  V30 7122 C 677.803 -4.2273 -0.890122 0
M  V30 7123 C 676.938 -4.93399 -1.96803 0
M  V30 7124 C 675.977 -5.97409 -1.333 0
M  V30 7125 N 675.114 -6.61548 -2.35156 0
M  V30 7126 H 679.954 -2.96938 0.251411 0
M  V30 7127 H 677.491 -1.46472 0.135825 0
M  V30 7128 H 679.449 -3.57292 -2.15403 0
M  V30 7129 H 678.079 -2.43207 -2.1225 0
M  V30 7130 H 677.131 -3.80186 -0.127537 0
M  V30 7131 H 678.443 -4.97302 -0.386349 0
M  V30 7132 H 677.597 -5.43491 -2.69633 0
M  V30 7133 H 676.336 -4.18421 -2.50549 0
M  V30 7134 H 675.341 -5.46624 -0.59008 0
M  V30 7135 H 676.566 -6.74335 -0.803076 0
M  V30 7136 H 674.512 -5.89394 -2.88012 0
M  V30 7137 H 674.429 -7.31832 -1.89624 0
M  V30 7138 H 675.697 -7.16276 -3.0752 0
M  V30 7139 N 679.926 -0.151884 -1.56866 0
M  V30 7140 C 680.889 0.771861 -2.15812 0
M  V30 7141 C 681.889 1.17181 -1.10115 0
M  V30 7142 O 683.079 1.09194 -1.35729 0
M  V30 7143 C 680.211 2.04806 -2.7252 0
M  V30 7144 H 681.404 0.259021 -2.98779 0
M  V30 7145 H 678.957 0.097588 -1.55995 0
M  V30 7146 H 679.692 2.60445 -1.93233 0
M  V30 7147 H 679.477 1.77044 -3.49854 0
M  V30 7148 H 680.967 2.70771 -3.1792 0
M  V30 7149 N 681.404 1.57128 0.121893 0
M  V30 7150 C 682.336 1.96773 1.17529 0
M  V30 7151 C 683.349 0.866668 1.37814 0
M  V30 7152 O 684.538 1.14497 1.3694 0
M  V30 7153 C 681.638 2.24832 2.53582 0
M  V30 7154 C 680.811 3.56138 2.53939 0
M  V30 7155 C 679.87 3.72443 3.71716 0
M  V30 7156 O 678.896 4.44584 3.55434 0
M  V30 7157 N 680.098 3.10993 4.90167 0
M  V30 7158 H 682.863 2.87743 0.838086 0
M  V30 7159 H 680.424 1.58881 0.311199 0
M  V30 7160 H 682.416 2.32958 3.30927 0
M  V30 7161 H 680.986 1.40002 2.79496 0
M  V30 7162 H 680.206 3.59226 1.62329 0
M  V30 7163 H 681.494 4.42448 2.51231 0
M  V30 7164 H 680.892 2.52345 5.06299 0
M  V30 7165 H 679.449 3.24644 5.65198 0
M  V30 7166 N 682.882 -0.391992 1.52647 0
M  V30 7167 C 684.159 -1.15136 1.58123 0
M  V30 7168 C 684.539 -2.07786 0.372597 0
M  V30 7169 O 683.887 -2.19374 -0.639304 0
M  V30 7170 C 684.097 -1.91367 2.91856 0
M  V30 7171 C 685.445 -2.46833 3.45483 0
M  V30 7172 O 686.469 -2.01527 2.9371 0
M  V30 7173 O 685.328 -3.29587 4.3593 0
M  V30 7174 H 682.422 -0.526649 0.637629 0
M  V30 7175 H 684.968 -0.397386 1.64982 0
M  V30 7176 H 683.74 -1.23597 3.71268 0
M  V30 7177 H 683.363 -2.73732 2.88369 0
M  V30 7178 N 684.36 -1.4356 -0.65026 0
M  V30 7179 C 685.608 -1.45046 -1.40734 0
M  V30 7180 C 685.929 -0.0769822 -1.94848 0
M  V30 7181 O 685.199 0.888098 -1.74613 0
M  V30 7182 H 683.779 -0.534034 -0.522318 0
M  V30 7183 H 686.441 -1.79186 -0.766703 0
M  V30 7184 H 685.537 -2.16476 -2.24822 0
M  V30 7185 N 685.838 0.888903 -1.30139 0
M  V30 7186 C 686.768 2.01046 -1.18755 0
M  V30 7187 C 687.749 1.69916 -0.0791438 0
M  V30 7188 O 688.934 1.92445 -0.260498 0
M  V30 7189 C 686.064 3.36109 -0.874518 0
M  V30 7190 C 685.018 3.81486 -1.94043 0
M  V30 7191 C 684.344 5.13796 -1.48047 0
M  V30 7192 C 685.644 4.00637 -3.35093 0
M  V30 7193 H 687.338 2.10828 -2.12584 0
M  V30 7194 H 684.884 1.01298 -1.02346 0
M  V30 7195 H 686.837 4.14089 -0.781548 0
M  V30 7196 H 685.561 3.26449 0.0994519 0
M  V30 7197 H 684.22 3.05731 -2.02297 0
M  V30 7198 H 683.868 5.0056 -0.494878 0
M  V30 7199 H 683.568 5.45127 -2.19341 0
M  V30 7200 H 685.092 5.94305 -1.40121 0
M  V30 7201 H 686.506 4.69067 -3.2962 0
M  V30 7202 H 684.903 4.43339 -4.04438 0
M  V30 7203 H 685.973 3.0462 -3.77273 0
M  V30 7204 N 687.317 1.12792 1.10072 0
M  V30 7205 C 688.264 0.79921 2.16521 0
M  V30 7206 C 689.234 -0.235726 1.64419 0
M  V30 7207 O 690.419 -0.109457 1.90486 0
M  V30 7208 C 687.559 0.264091 3.44088 0
M  V30 7209 C 686.672 1.35729 4.10124 0
M  V30 7210 C 685.807 0.781212 5.25424 0
M  V30 7211 C 684.846 1.85327 5.8337 0
M  V30 7212 N 683.983 1.29564 6.90042 0
M  V30 7213 H 688.823 1.71105 2.43981 0
M  V30 7214 H 686.36 0.854225 1.19756 0
M  V30 7215 H 688.318 -0.0642423 4.17151 0
M  V30 7216 H 686.948 -0.610901 3.16967 0
M  V30 7217 H 686 1.80234 3.34993 0
M  V30 7218 H 687.312 2.16782 4.4923 0
M  V30 7219 H 686.466 0.403769 6.05355 0
M  V30 7220 H 685.205 -0.0604686 4.87663 0
M  V30 7221 H 684.21 2.23986 5.02106 0
M  V30 7222 H 685.435 2.69824 6.23195 0
M  V30 7223 H 683.381 0.475844 6.54272 0
M  V30 7224 H 683.298 2.04271 7.2788 0
M  V30 7225 H 684.566 0.945545 7.73744 0
M  V30 7226 N 688.795 -1.27931 0.920396 0
M  V30 7227 C 689.742 -2.27085 0.412422 0
M  V30 7228 C 690.712 -1.57858 -0.516725 0
M  V30 7229 O 691.897 -1.85717 -0.437475 0
M  V30 7230 C 689.037 -3.43466 -0.335399 0
M  V30 7231 C 688.15 -4.27425 0.627017 0
M  V30 7232 C 687.285 -5.31016 -0.139916 0
M  V30 7233 C 686.324 -6.06641 0.815683 0
M  V30 7234 N 685.461 -7.02052 0.0818439 0
M  V30 7235 H 690.301 -2.69913 1.26298 0
M  V30 7236 H 687.838 -1.32732 0.634076 0
M  V30 7237 H 689.796 -4.09744 -0.785226 0
M  V30 7238 H 688.426 -3.01611 -1.15025 0
M  V30 7239 H 687.478 -3.6113 1.19537 0
M  V30 7240 H 688.79 -4.79969 1.35763 0
M  V30 7241 H 687.944 -6.03208 -0.649998 0
M  V30 7242 H 686.683 -4.79257 -0.903543 0
M  V30 7243 H 685.688 -5.33294 1.33708 0
M  V30 7244 H 686.913 -6.60489 1.57897 0
M  V30 7245 H 684.859 -6.52634 -0.663671 0
M  V30 7246 H 684.776 -7.52249 0.752163 0
M  V30 7247 H 686.044 -7.78432 -0.407825 0
M  V30 7248 N 690.273 -0.685099 -1.4193 0
M  V30 7249 C 691.689 -0.355632 -1.55587 0
M  V30 7250 C 691.889 1.13823 -1.66273 0
M  V30 7251 O 690.945 1.92387 -1.63534 0
M  V30 7252 C 692.258 -1.09498 -2.80055 0
M  V30 7253 C 693.806 -1.07831 -2.93839 0
M  V30 7254 C 694.281 -1.79919 -4.21181 0
M  V30 7255 N 695.772 -1.76837 -4.28115 0
M  V30 7256 C 696.507 -2.29463 -5.25485 0
M  V30 7257 N 696.003 -2.90516 -6.28945 0
M  V30 7258 N 697.796 -2.19779 -5.17353 0
M  V30 7259 H 689.947 -1.65412 -1.33239 0
M  V30 7260 H 692.21 -0.697453 -0.642078 0
M  V30 7261 H 691.916 -2.14997 -2.78333 0
M  V30 7262 H 691.79 -0.666813 -3.71259 0
M  V30 7263 H 694.177 -0.0316152 -2.95083 0
M  V30 7264 H 694.258 -1.54545 -2.03837 0
M  V30 7265 H 693.902 -2.84562 -4.20698 0
M  V30 7266 H 693.832 -1.30647 -5.10136 0
M  V30 7267 H 696.323 -1.32315 -3.53979 0
M  V30 7268 H 696.636 -3.28266 -6.99615 0
M  V30 7269 H 694.981 -2.94589 -6.29478 0
M  V30 7270 H 698.172 -1.71763 -4.35448 0
M  V30 7271 H 698.345 -2.61097 -5.9307 0
M  V30 7272 N 691.751 1.51645 -0.429126 0
M  V30 7273 C 692.684 2.24083 0.431492 0
M  V30 7274 C 693.662 1.25691 1.03153 0
M  V30 7275 O 694.846 1.54802 1.07557 0
M  V30 7276 C 691.973 2.9849 1.60067 0
M  V30 7277 C 691.019 4.11474 1.12211 0
M  V30 7278 S 691.852 5.35453 0.0708449 0
M  V30 7279 C 693.008 6.13395 1.24488 0
M  V30 7280 H 693.241 2.96733 -0.183525 0
M  V30 7281 H 690.774 1.52916 -0.213574 0
M  V30 7282 H 692.732 3.4196 2.27099 0
M  V30 7283 H 691.393 2.25445 2.18708 0
M  V30 7284 H 690.586 4.62784 1.99618 0
M  V30 7285 H 690.188 3.70223 0.530149 0
M  V30 7286 H 692.48 6.41984 2.16479 0
M  V30 7287 H 693.423 7.0388 0.771921 0
M  V30 7288 H 693.831 5.44761 1.47973 0
M  V30 7289 N 693.229 0.160201 1.56784 0
M  V30 7290 C 694.506 -0.533355 1.88188 0
M  V30 7291 C 694.886 -1.82072 1.06831 0
M  V30 7292 O 694.234 -2.27946 0.158959 0
M  V30 7293 C 694.444 -0.786034 3.40033 0
M  V30 7294 C 695.792 -1.12097 4.09536 0
M  V30 7295 O 696.816 -0.874949 3.45287 0
M  V30 7296 O 695.675 -1.58457 5.23023 0
M  V30 7297 H 692.769 -0.273589 0.780434 0
M  V30 7298 H 695.315 0.197803 1.68543 0
M  V30 7299 H 694.087 0.124515 3.91102 0
M  V30 7300 H 693.71 -1.57091 3.65251 0
M  V30 7301 N 694.707 -1.5719 -0.113559 0
M  V30 7302 C 695.654 -2.00736 -1.13901 0
M  V30 7303 C 696.624 -0.88044 -1.40846 0
M  V30 7304 O 697.809 -1.14507 -1.5262 0
M  V30 7305 C 694.949 -2.42132 -2.45899 0
M  V30 7306 C 694.062 -3.68264 -2.25844 0
M  V30 7307 C 693.197 -3.98617 -3.5111 0
M  V30 7308 C 692.236 -5.17915 -3.26236 0
M  V30 7309 N 691.373 -5.44111 -4.4372 0
M  V30 7310 H 696.213 -2.88128 -0.760677 0
M  V30 7311 H 693.75 -1.42523 -0.364099 0
M  V30 7312 H 695.708 -2.6417 -3.22908 0
M  V30 7313 H 694.338 -1.57775 -2.81615 0
M  V30 7314 H 693.39 -3.53809 -1.39726 0
M  V30 7315 H 694.702 -4.55425 -2.03444 0
M  V30 7316 H 693.856 -4.21333 -4.36536 0
M  V30 7317 H 692.595 -3.09942 -3.76546 0
M  V30 7318 H 691.6 -4.95038 -2.39202 0
M  V30 7319 H 692.825 -6.08172 -3.02165 0
M  V30 7320 H 690.771 -4.58394 -4.69266 0
M  V30 7321 H 690.688 -6.25606 -4.24444 0
M  V30 7322 H 691.956 -5.71351 -5.30263 0
M  V30 7323 N 696.185 0.383891 -1.52853 0
M  V30 7324 C 697.115 1.47559 -1.80965 0
M  V30 7325 C 698.096 1.5669 -0.661986 0
M  V30 7326 O 699.281 1.71556 -0.910072 0
M  V30 7327 C 696.411 2.85114 -1.98312 0
M  V30 7328 C 695.365 2.9082 -3.14019 0
M  V30 7329 C 694.691 4.30873 -3.16627 0
M  V30 7330 C 695.991 2.60001 -4.52986 0
M  V30 7331 H 697.685 1.24283 -2.72386 0
M  V30 7332 H 695.231 0.596445 -1.31067 0
M  V30 7333 H 697.184 3.61496 -2.16561 0
M  V30 7334 H 695.908 3.09738 -1.03585 0
M  V30 7335 H 694.567 2.16886 -2.9556 0
M  V30 7336 H 694.215 4.52545 -2.19573 0
M  V30 7337 H 693.915 4.3561 -3.94357 0
M  V30 7338 H 695.439 5.09154 -3.37038 0
M  V30 7339 H 696.853 3.261 -4.71521 0
M  V30 7340 H 695.25 2.76081 -5.32822 0
M  V30 7341 H 696.32 1.5532 -4.59351 0
M  V30 7342 N 697.663 1.43903 0.642637 0
M  V30 7343 C 698.61 1.49881 1.75512 0
M  V30 7344 C 699.58 0.347538 1.62423 0
M  V30 7345 O 700.765 0.556177 1.82514 0
M  V30 7346 C 697.905 1.43797 3.13714 0
M  V30 7347 C 697.018 2.6921 3.37861 0
M  V30 7348 C 696.153 2.5504 4.6597 0
M  V30 7349 C 695.192 3.75671 4.83257 0
M  V30 7350 N 694.329 3.60247 6.02633 0
M  V30 7351 H 699.169 2.44935 1.69737 0
M  V30 7352 H 696.706 1.21572 0.828165 0
M  V30 7353 H 698.664 1.38262 3.93624 0
M  V30 7354 H 697.294 0.523173 3.18532 0
M  V30 7355 H 696.346 2.8498 2.51973 0
M  V30 7356 H 697.658 3.58786 3.46517 0
M  V30 7357 H 696.812 2.47273 5.54023 0
M  V30 7358 H 695.551 1.63006 4.59653 0
M  V30 7359 H 694.556 3.83836 3.93637 0
M  V30 7360 H 695.781 4.68728 4.91397 0
M  V30 7361 H 693.727 2.70955 5.97427 0
M  V30 7362 H 693.644 4.43431 6.12295 0
M  V30 7363 H 694.912 3.56351 6.93278 0
M  V30 7364 N 699.141 -0.881989 1.30609 0
M  V30 7365 C 700.104 -1.96957 1.1722 0
M  V30 7366 C 701.104 -1.60472 0.102598 0
M  V30 7367 O 702.294 -1.70628 0.350943 0
M  V30 7368 C 699.426 -3.31463 0.796572 0
M  V30 7369 H 700.619 -2.10262 2.13846 0
M  V30 7370 H 698.172 -1.06877 1.14048 0
M  V30 7371 H 698.907 -3.23859 -0.169053 0
M  V30 7372 H 698.692 -3.59314 1.56959 0
M  V30 7373 H 700.182 -4.11233 0.72645 0
M  V30 7374 N 700.619 -1.13374 -1.09472 0
M  V30 7375 C 701.847 -0.918351 -1.85402 0
M  V30 7376 C 702.262 0.53281 -1.81126 0
M  V30 7377 O 701.619 1.36879 -1.20708 0
M  V30 7378 C 701.67 -1.39743 -3.33398 0
M  V30 7379 O 701.391 -2.79172 -3.37631 0
M  V30 7380 C 702.892 -1.22042 -4.2617 0
M  V30 7381 H 700.112 -0.327511 -0.585643 0
M  V30 7382 H 702.656 -1.50617 -1.38328 0
M  V30 7383 H 700.811 -0.852619 -3.77901 0
M  V30 7384 H 701.225 -3.00428 -4.29934 0
M  V30 7385 H 702.699 -1.60438 -5.2817 0
M  V30 7386 H 703.176 -0.162047 -4.38901 0
M  V30 7387 H 703.782 -1.75323 -3.87482 0
M  V30 7388 N 702.098 1.27442 -0.927168 0
M  V30 7389 C 703.028 2.29256 -0.443188 0
M  V30 7390 C 704.009 1.62701 0.49624 0
M  V30 7391 O 705.194 1.90013 0.401105 0
M  V30 7392 C 702.324 3.45955 0.305366 0
M  V30 7393 C 701.278 4.24501 -0.546178 0
M  V30 7394 C 700.604 5.33671 0.331512 0
M  V30 7395 C 701.904 4.89921 -1.81037 0
M  V30 7396 H 703.598 2.69988 -1.29409 0
M  V30 7397 H 701.144 1.29792 -0.623705 0
M  V30 7398 H 703.097 4.1628 0.654885 0
M  V30 7399 H 701.821 3.04138 1.19029 0
M  V30 7400 H 700.48 3.55921 -0.878398 0
M  V30 7401 H 700.128 4.88096 1.21537 0
M  V30 7402 H 699.828 5.87131 -0.234746 0
M  V30 7403 H 701.352 6.0684 0.676614 0
M  V30 7404 H 702.766 5.52536 -1.52895 0
M  V30 7405 H 701.163 5.53436 -2.32009 0
M  V30 7406 H 702.233 4.13652 -2.53021 0
M  V30 7407 N 703.576 0.692616 1.41565 0
M  V30 7408 C 704.486 0.0258451 2.34586 0
M  V30 7409 C 705.502 -0.769324 1.56069 0
M  V30 7410 O 706.678 -0.707563 1.88562 0
M  V30 7411 C 703.743 -0.901289 3.3478 0
M  V30 7412 C 702.804 -0.0986579 4.29187 0
M  V30 7413 C 702.037 -0.981634 5.24595 0
M  V30 7414 O 702.26 -2.22115 5.25377 0
M  V30 7415 O 701.194 -0.432892 6.00341 0
M  V30 7416 H 705.02 0.792537 2.93177 0
M  V30 7417 H 702.605 0.452935 1.42369 0
M  V30 7418 H 704.487 -1.43302 3.96286 0
M  V30 7419 H 703.162 -1.64752 2.78637 0
M  V30 7420 H 702.069 0.477604 3.71039 0
M  V30 7421 H 703.402 0.608848 4.8842 0
M  V30 7422 N 705.054 -1.51416 0.437162 0
M  V30 7423 C 706.47 -1.59349 0.0894459 0
M  V30 7424 C 706.67 -1.44809 -1.40116 0
M  V30 7425 O 705.726 -1.28924 -2.17106 0
M  V30 7426 C 707.039 -2.9446 0.609398 0
M  V30 7427 C 708.587 -3.07769 0.569824 0
M  V30 7428 C 709.062 -4.45404 1.06675 0
M  V30 7429 N 710.553 -4.51723 1.02473 0
M  V30 7430 C 711.288 -5.56544 1.3801 0
M  V30 7431 N 710.784 -6.68784 1.80831 0
M  V30 7432 N 712.577 -5.46901 1.29828 0
M  V30 7433 H 704.728 -1.59112 1.40703 0
M  V30 7434 H 706.991 -0.750031 0.579791 0
M  V30 7435 H 706.697 -3.1047 1.65231 0
M  V30 7436 H 706.571 -3.77184 0.0342236 0
M  V30 7437 H 708.958 -2.91428 -0.464107 0
M  V30 7438 H 709.039 -2.26885 1.1814 0
M  V30 7439 H 708.683 -4.62492 2.09914 0
M  V30 7440 H 708.613 -5.24827 0.431712 0
M  V30 7441 H 711.104 -3.71165 0.710258 0
M  V30 7442 H 711.417 -7.44787 2.06185 0
M  V30 7443 H 709.762 -6.69992 1.84757 0
M  V30 7444 H 712.953 -4.581 0.962397 0
M  V30 7445 H 713.126 -6.2848 1.57851 0
M  V30 7446 N 706.532 -0.168513 -1.56696 0
M  V30 7447 C 707.76 0.483503 -2.01171 0
M  V30 7448 C 708.175 1.56994 -1.04872 0
M  V30 7449 O 707.532 1.82434 -0.0491337 0
M  V30 7450 C 707.583 1.0644 -3.45475 0
M  V30 7451 O 707.304 0.0213375 -4.38095 0
M  V30 7452 C 708.805 1.79493 -4.05336 0
M  V30 7453 H 706.025 0.124002 -0.659443 0
M  V30 7454 H 708.569 -0.269419 -2.02717 0
M  V30 7455 H 706.724 1.76784 -3.44712 0
M  V30 7456 H 707.138 0.449837 -5.22567 0
M  V30 7457 H 708.612 2.15401 -5.08238 0
M  V30 7458 H 709.089 2.68889 -3.47269 0
M  V30 7459 H 709.695 1.13798 -4.09793 0
M  V30 7460 N 708.01 1.57248 0.105221 0
M  V30 7461 C 708.96 1.9777 1.1345 0
M  V30 7462 C 709.944 0.854654 1.36325 0
M  V30 7463 O 711.136 1.11844 1.37186 0
M  V30 7464 C 708.265 2.39717 2.45745 0
M  V30 7465 C 707.351 3.58686 2.26286 0
M  V30 7466 N 707.742 4.73942 1.76671 0
M  V30 7467 C 706.04 3.64586 2.56891 0
M  V30 7468 C 706.741 5.55923 1.71245 0
M  V30 7469 N 705.717 4.98803 2.16093 0
M  V30 7470 H 709.519 2.84336 0.743664 0
M  V30 7471 H 707.033 1.59359 0.312787 0
M  V30 7472 H 709.03 2.66971 3.20206 0
M  V30 7473 H 707.69 1.54523 2.85574 0
M  V30 7474 H 708.701 4.9689 1.46016 0
M  V30 7475 H 705.378 2.90031 3.00314 0
M  V30 7476 H 706.768 6.58398 1.34022 0
M  V30 7477 N 709.488 -0.375779 1.53054 0
M  V30 7478 C 710.42 -1.47963 1.75042 0
M  V30 7479 C 711.433 -1.50073 0.631031 0
M  V30 7480 O 712.622 -1.53736 0.907052 0
M  V30 7481 C 709.722 -2.86767 1.80604 0
M  V30 7482 C 708.895 -3.08471 3.10104 0
M  V30 7483 C 707.954 -4.27332 3.07041 0
M  V30 7484 O 706.98 -4.22998 3.80869 0
M  V30 7485 N 708.182 -5.34214 2.27147 0
M  V30 7486 H 710.947 -1.29484 2.70285 0
M  V30 7487 H 708.508 -0.565416 1.51706 0
M  V30 7488 H 710.5 -3.64404 1.76045 0
M  V30 7489 H 709.07 -2.98542 0.926897 0
M  V30 7490 H 708.29 -2.18583 3.28048 0
M  V30 7491 H 709.578 -3.19834 3.95706 0
M  V30 7492 H 708.976 -5.40594 1.66656 0
M  V30 7493 H 707.533 -6.10467 2.28415 0
M  V30 7494 N 710.966 -1.44241 -0.634997 0
M  V30 7495 C 711.929 -1.50457 -1.72903 0
M  V30 7496 C 712.929 -0.387058 -1.56072 0
M  V30 7497 O 714.119 -0.649531 -1.61638 0
M  V30 7498 C 711.251 -1.37477 -3.1195 0
M  V30 7499 H 712.444 -2.47907 -1.68767 0
M  V30 7500 H 709.997 -1.31276 -0.84831 0
M  V30 7501 H 710.732 -0.41106 -3.21684 0
M  V30 7502 H 710.517 -2.18506 -3.25573 0
M  V30 7503 H 712.007 -1.44799 -3.91692 0
M  V30 7504 N 712.444 0.87505 -1.31075 0
M  V30 7505 C 713.374 1.99775 -1.20881 0
M  V30 7506 C 714.355 1.69822 -0.0971612 0
M  V30 7507 O 715.54 1.92158 -0.280895 0
M  V30 7508 C 712.67 3.35163 -0.910118 0
M  V30 7509 C 711.624 3.79406 -1.98078 0
M  V30 7510 C 710.95 5.12197 -1.53488 0
M  V30 7511 C 712.25 3.97061 -3.39323 0
M  V30 7512 H 713.944 2.08562 -2.14808 0
M  V30 7513 H 711.49 1.00207 -1.03415 0
M  V30 7514 H 713.443 4.13237 -0.825423 0
M  V30 7515 H 712.167 3.26536 0.064822 0
M  V30 7516 H 710.826 3.03568 -2.05528 0
M  V30 7517 H 710.474 5.00007 -0.547941 0
M  V30 7518 H 710.174 5.4277 -2.2511 0
M  V30 7519 H 711.698 5.92785 -1.46417 0
M  V30 7520 H 713.112 4.65545 -3.34576 0
M  V30 7521 H 711.509 4.39025 -4.09118 0
M  V30 7522 H 712.579 3.00601 -3.80483 0
M  V30 7523 N 713.922 1.13953 1.08869 0
M  V30 7524 C 714.832 0.835666 2.19212 0
M  V30 7525 C 715.848 -0.182005 1.73045 0
M  V30 7526 O 717.024 -0.0116661 2.01397 0
M  V30 7527 C 714.089 0.312325 3.4529 0
M  V30 7528 C 713.15 1.39196 4.06107 0
M  V30 7529 C 712.383 0.893496 5.26168 0
M  V30 7530 O 712.606 -0.266807 5.69776 0
M  V30 7531 O 711.54 1.67037 5.78258 0
M  V30 7532 H 715.366 1.75769 2.47667 0
M  V30 7533 H 712.951 0.917421 1.17914 0
M  V30 7534 H 714.833 0.0261582 4.21392 0
M  V30 7535 H 713.508 -0.582042 3.18424 0
M  V30 7536 H 712.415 1.73152 3.31616 0
M  V30 7537 H 713.748 2.26068 4.37212 0
M  V30 7538 N 715.4 -1.26948 0.933913 0
M  V30 7539 C 716.31 -2.30366 0.443671 0
M  V30 7540 C 717.326 -1.67284 -0.478745 0
M  V30 7541 O 718.502 -1.98156 -0.360043 0
M  V30 7542 C 715.567 -3.45485 -0.289974 0
M  V30 7543 C 714.628 -4.24069 0.668114 0
M  V30 7544 C 713.861 -5.33691 -0.0306138 0
M  V30 7545 O 714.084 -5.5656 -1.24888 0
M  V30 7546 O 713.018 -5.98441 0.644384 0
M  V30 7547 H 716.844 -2.74349 1.30254 0
M  V30 7548 H 714.429 -1.32012 0.699506 0
M  V30 7549 H 716.311 -4.15486 -0.70353 0
M  V30 7550 H 714.986 -3.03546 -1.12435 0
M  V30 7551 H 713.893 -3.56579 1.13147 0
M  V30 7552 H 715.226 -4.69739 1.46989 0
M  V30 7553 N 716.879 -0.700114 -1.41195 0
M  V30 7554 C 717.789 -0.0382854 -2.34569 0
M  V30 7555 C 718.805 0.761036 -1.56474 0
M  V30 7556 O 719.981 0.697553 -1.88934 0
M  V30 7557 C 717.046 0.883522 -3.35253 0
M  V30 7558 C 716.107 0.0758957 -4.29233 0
M  V30 7559 C 715.34 0.9538 -5.25108 0
M  V30 7560 O 715.563 2.19326 -5.26547 0
M  V30 7561 O 714.497 0.401049 -6.00562 0
M  V30 7562 H 718.323 -0.808073 -2.92752 0
M  V30 7563 H 715.908 -0.460479 -1.42127 0
M  V30 7564 H 717.79 1.41199 -3.9704 0
M  V30 7565 H 716.465 1.63272 -2.79506 0
M  V30 7566 H 715.372 -0.497274 -3.7078 0
M  V30 7567 H 716.705 -0.634741 -4.8809 0
M  V30 7568 N 718.357 1.51182 -0.445186 0
M  V30 7569 C 719.304 2.27939 0.362291 0
M  V30 7570 C 720.274 1.31864 1.01 0
M  V30 7571 O 721.459 1.60776 1.02741 0
M  V30 7572 C 718.599 3.13016 1.45311 0
M  V30 7573 C 717.712 4.24093 0.822757 0
M  V30 7574 C 716.847 4.96467 1.88928 0
M  V30 7575 C 715.886 5.99454 1.23778 0
M  V30 7576 N 715.023 6.65206 2.24602 0
M  V30 7577 H 719.863 2.965 -0.29862 0
M  V30 7578 H 717.4 1.46237 -0.15911 0
M  V30 7579 H 719.358 3.60673 2.09692 0
M  V30 7580 H 717.988 2.46553 2.08354 0
M  V30 7581 H 717.04 3.80341 0.0670364 0
M  V30 7582 H 718.352 4.97853 0.307184 0
M  V30 7583 H 717.506 5.47712 2.60953 0
M  V30 7584 H 716.245 4.22355 2.4386 0
M  V30 7585 H 715.25 5.47494 0.503042 0
M  V30 7586 H 716.475 6.75527 0.695694 0
M  V30 7587 H 714.421 5.93901 2.78599 0
M  V30 7588 H 714.338 7.34756 1.77958 0
M  V30 7589 H 715.606 7.21078 2.96085 0
M  V30 7590 N 719.835 0.176821 1.56605 0
M  V30 7591 C 720.782 -0.751312 2.18229 0
M  V30 7592 C 721.752 -1.22297 1.12395 0
M  V30 7593 O 722.937 -1.29015 1.40569 0
M  V30 7594 C 720.077 -1.97291 2.83143 0
M  V30 7595 C 719.19 -1.54431 4.03454 0
M  V30 7596 C 718.325 -2.72 4.56278 0
M  V30 7597 C 717.364 -2.25657 5.68986 0
M  V30 7598 N 716.501 -3.36338 6.16296 0
M  V30 7599 H 721.341 -0.219033 2.97194 0
M  V30 7600 H 718.878 -0.0963803 1.46784 0
M  V30 7601 H 720.836 -2.68949 3.1894 0
M  V30 7602 H 719.466 -2.4788 2.06773 0
M  V30 7603 H 718.518 -0.724273 3.73441 0
M  V30 7604 H 719.83 -1.16417 4.85024 0
M  V30 7605 H 718.984 -3.51806 4.94285 0
M  V30 7606 H 717.723 -3.13277 3.73777 0
M  V30 7607 H 716.728 -1.44299 5.30526 0
M  V30 7608 H 717.953 -1.85432 6.53293 0
M  V30 7609 H 715.899 -3.7718 5.36723 0
M  V30 7610 H 715.816 -3.02435 6.9287 0
M  V30 7611 H 717.084 -4.16413 6.58954 0
M  V30 7612 N 721.313 -1.57302 -0.09688 0
M  V30 7613 C 722.26 -2.01933 -1.11766 0
M  V30 7614 C 723.23 -0.895329 -1.39904 0
M  V30 7615 O 724.415 -1.16119 -1.51397 0
M  V30 7616 C 721.555 -2.44726 -2.43317 0
M  V30 7617 C 720.668 -3.70639 -2.21925 0
M  V30 7618 C 719.803 -4.02318 -3.46862 0
M  V30 7619 C 718.842 -5.21346 -3.20725 0
M  V30 7620 N 717.979 -5.48787 -4.37924 0
M  V30 7621 H 722.819 -2.88919 -0.730075 0
M  V30 7622 H 720.356 -1.42901 -0.348962 0
M  V30 7623 H 722.314 -2.6758 -3.20088 0
M  V30 7624 H 720.944 -1.60753 -2.79926 0
M  V30 7625 H 719.996 -3.55271 -1.35965 0
M  V30 7626 H 721.308 -4.57557 -1.98603 0
M  V30 7627 H 720.462 -4.25939 -4.32042 0
M  V30 7628 H 719.201 -3.13918 -3.73238 0
M  V30 7629 H 718.206 -4.97547 -2.33938 0
M  V30 7630 H 719.431 -6.11343 -2.95697 0
M  V30 7631 H 717.377 -4.63346 -4.64378 0
M  V30 7632 H 717.294 -6.30073 -4.17785 0
M  V30 7633 H 718.562 -5.76943 -5.24173 0
M  V30 7634 N 722.791 0.367657 -1.53252 0
M  V30 7635 C 724.019 1.13119 -1.73239 0
M  V30 7636 C 724.434 1.831 -0.460404 0
M  V30 7637 O 723.791 1.73483 0.566557 0
M  V30 7638 C 723.842 2.16308 -2.89643 0
M  V30 7639 O 723.563 1.49175 -4.1192 0
M  V30 7640 C 725.064 3.05224 -3.21486 0
M  V30 7641 H 722.284 0.338318 -0.579467 0
M  V30 7642 H 724.828 0.42721 -1.99988 0
M  V30 7643 H 722.983 2.82307 -2.65295 0
M  V30 7644 H 723.397 2.17912 -4.7709 0
M  V30 7645 H 724.871 3.73613 -4.06346 0
M  V30 7646 H 725.348 3.69919 -2.36763 0
M  V30 7647 H 725.954 2.44843 -3.47753 0
M  V30 7648 N 724.269 1.44576 0.627338 0
M  V30 7649 C 725.515 1.47777 1.38888 0
M  V30 7650 C 725.848 0.111406 1.9388 0
M  V30 7651 O 725.123 -0.87149 1.73883 0
M  V30 7652 C 725.406 2.54119 2.55138 0
M  V30 7653 C 725.259 4.00128 2.0547 0
M  V30 7654 C 726.578 2.56929 3.57317 0
M  V30 7655 H 723.697 0.538048 0.50366 0
M  V30 7656 H 726.339 1.76277 0.708978 0
M  V30 7657 H 724.489 2.29948 3.13139 0
M  V30 7658 H 726.161 4.35444 1.5227 0
M  V30 7659 H 724.404 4.11724 1.36623 0
M  V30 7660 H 725.075 4.7019 2.89181 0
M  V30 7661 H 727.551 2.78536 3.09122 0
M  V30 7662 H 726.427 3.33234 4.36173 0
M  V30 7663 H 726.688 1.6127 4.11636 0
M  V30 7664 N 725.747 -0.868086 1.31537 0
M  V30 7665 C 727.024 -1.60384 1.11965 0
M  V30 7666 C 727.404 -2.08584 -0.324949 0
M  V30 7667 O 726.752 -1.86561 -1.31937 0
M  V30 7668 C 726.962 -2.76038 2.13551 0
M  V30 7669 C 728.31 -3.45954 2.46173 0
M  V30 7670 O 729.334 -2.86247 2.11993 0
M  V30 7671 O 728.193 -4.53666 3.04711 0
M  V30 7672 H 725.287 -0.705705 0.431172 0
M  V30 7673 H 727.833 -0.913385 1.43022 0
M  V30 7674 H 726.605 -2.37849 3.10714 0
M  V30 7675 H 726.228 -3.52769 1.83411 0
M  V30 7676 N 727.225 -1.14528 -1.08264 0
M  V30 7677 C 728.155 -0.856356 -2.1723 0
M  V30 7678 C 729.136 0.189251 -1.69044 0
M  V30 7679 O 730.321 0.0456119 -1.94146 0
M  V30 7680 C 727.451 -0.334662 -3.45684 0
M  V30 7681 C 726.405 -1.31588 -4.0727 0
M  V30 7682 C 725.731 -0.653428 -5.30692 0
M  V30 7683 C 727.031 -2.67866 -4.48381 0
M  V30 7684 H 728.725 -1.76755 -2.41657 0
M  V30 7685 H 726.271 -0.851287 -1.16143 0
M  V30 7686 H 728.224 -0.120128 -4.21229 0
M  V30 7687 H 726.948 0.611967 -3.20815 0
M  V30 7688 H 725.607 -1.51661 -3.33758 0
M  V30 7689 H 725.255 0.299054 -5.0211 0
M  V30 7690 H 724.955 -1.30817 -5.72853 0
M  V30 7691 H 726.479 -0.448453 -6.08951 0
M  V30 7692 H 727.893 -2.51692 -5.15096 0
M  V30 7693 H 726.29 -3.29627 -5.01464 0
M  V30 7694 H 727.36 -3.24632 -3.60198 0
M  V30 7695 N 728.703 1.26451 -0.940633 0
M  V30 7696 C 729.633 2.28773 -0.467479 0
M  V30 7697 C 730.614 1.63218 0.478955 0
M  V30 7698 O 731.799 1.90427 0.380929 0
M  V30 7699 C 728.929 3.46259 0.268656 0
M  V30 7700 C 727.883 4.23898 -0.591171 0
M  V30 7701 C 727.209 5.33993 0.274891 0
M  V30 7702 C 728.509 4.87974 -1.86223 0
M  V30 7703 H 730.203 2.68601 -1.32265 0
M  V30 7704 H 727.749 1.29123 -0.637436 0
M  V30 7705 H 729.702 4.16951 0.610696 0
M  V30 7706 H 728.426 3.05383 1.15796 0
M  V30 7707 H 727.085 3.54969 -0.916098 0
M  V30 7708 H 726.733 4.89358 1.16353 0
M  V30 7709 H 726.433 5.86849 -0.297006 0
M  V30 7710 H 727.957 6.07523 0.612213 0
M  V30 7711 H 729.371 5.50883 -1.58747 0
M  V30 7712 H 727.768 5.50945 -2.37866 0
M  V30 7713 H 728.838 4.10945 -2.57394 0
M  V30 7714 N 730.181 0.707592 1.40822 0
M  V30 7715 C 731.411 0.252706 2.05049 0
M  V30 7716 C 731.819 -1.10758 1.53393 0
M  V30 7717 O 731.162 -1.70567 0.682097 0
M  V30 7718 C 731.224 0.146001 3.59203 0
M  V30 7719 C 730.888 1.44027 4.33711 0
M  V30 7720 C 731.885 2.38058 4.62195 0
M  V30 7721 C 729.57 1.69698 4.72766 0
M  V30 7722 C 731.564 3.56013 5.28709 0
M  V30 7723 C 729.251 2.87936 5.39014 0
M  V30 7724 C 730.249 3.80915 5.66915 0
M  V30 7725 O 729.937 4.9708 6.31796 0
M  V30 7726 H 729.669 0.112784 0.666525 0
M  V30 7727 H 732.223 0.96417 1.81364 0
M  V30 7728 H 730.453 -0.621338 3.81676 0
M  V30 7729 H 732.142 -0.273275 4.04979 0
M  V30 7730 H 732.908 2.19487 4.32493 0
M  V30 7731 H 728.787 0.981835 4.50423 0
M  V30 7732 H 732.331 4.28604 5.50404 0
M  V30 7733 H 728.228 3.06419 5.68135 0
M  V30 7734 H 728.996 4.97053 6.50293 0
M  V30 7735 N 731.66 -1.50943 0.453197 0
M  V30 7736 C 732.885 -2.07116 -0.108463 0
M  V30 7737 C 733.31 -1.31681 -1.3432 0
M  V30 7738 O 732.668 -0.359256 -1.77705 0
M  V30 7739 C 732.716 -3.58447 -0.393424 0
M  V30 7740 O 731.82 -3.85038 -1.47714 0
M  V30 7741 H 731.161 -0.66398 0.0050993 0
M  V30 7742 H 733.691 -1.94362 0.639095 0
M  V30 7743 H 733.701 -4.02961 -0.639222 0
M  V30 7744 H 732.376 -4.12774 0.508946 0
M  V30 7745 H 730.953 -3.52376 -1.22006 0
M  V30 7746 N 733.138 -0.185124 -1.56509 0
M  V30 7747 C 734.387 0.456421 -1.96468 0
M  V30 7748 C 734.7 1.63448 -1.07444 0
M  V30 7749 O 735.906 2.34316 -1.37143 0
M  V30 7750 C 734.362 0.863404 -3.4939 0
M  V30 7751 C 733.97 -0.289815 -4.47062 0
M  V30 7752 C 735.714 1.47259 -3.98139 0
M  V30 7753 C 733.621 0.137571 -5.9124 0
M  V30 7754 H 732.551 0.17429 -0.733579 0
M  V30 7755 H 735.202 -0.275554 -1.81419 0
M  V30 7756 H 733.584 1.65176 -3.59907 0
M  V30 7757 H 734.758 -1.06728 -4.4827 0
M  V30 7758 H 733.073 -0.809851 -4.08449 0
M  V30 7759 H 735.67 1.80463 -5.03326 0
M  V30 7760 H 736.013 2.3755 -3.41871 0
M  V30 7761 H 736.546 0.748405 -3.90696 0
M  V30 7762 H 733.285 -0.730907 -6.51412 0
M  V30 7763 H 732.805 0.8801 -5.93308 0
M  V30 7764 H 734.484 0.576771 -6.44424 0
M  V30 7765 N 734.616 1.57351 0.0885366 0
M  V30 7766 C 735.863 1.86419 0.790824 0
M  V30 7767 C 736.191 0.774561 1.78412 0
M  V30 7768 O 735.446 -0.23119 1.9433 0
M  V30 7769 C 735.745 3.22098 1.5488 0
M  V30 7770 C 735.411 4.4548 0.697025 0
M  V30 7771 C 734.073 4.78975 0.462237 0
M  V30 7772 C 736.425 5.21094 0.105315 0
M  V30 7773 C 733.753 5.85507 -0.374016 0
M  V30 7774 C 736.105 6.28509 -0.718298 0
M  V30 7775 C 734.769 6.60515 -0.963116 0
M  V30 7776 H 734.039 0.682157 0.289383 0
M  V30 7777 H 736.686 1.91429 0.0520961 0
M  V30 7778 H 734.991 3.12803 2.35927 0
M  V30 7779 H 736.688 3.41819 2.09669 0
M  V30 7780 H 733.278 4.19255 0.890137 0
M  V30 7781 H 737.462 4.95544 0.273856 0
M  V30 7782 H 732.718 6.08713 -0.572606 0
M  V30 7783 H 736.892 6.86268 -1.18362 0
M  V30 7784 H 734.519 7.42893 -1.6129 0
M  V30 7785 N 736.094 -0.359525 1.53444 0
M  V30 7786 C 737.505 -0.936009 1.61542 0
M  V30 7787 C 737.856 -1.90069 0.486633 0
M  V30 7788 O 736.981 -2.12929 -0.386047 0
M  V30 7789 C 737.576 -1.70441 2.92806 0
M  V30 7790 C 736.135 -2.23015 3.03218 0
M  V30 7791 C 735.282 -1.04438 2.56881 0
M  V30 7792 H 738.233 -0.138134 1.58098 0
M  V30 7793 H 738.254 -2.56609 2.80948 0
M  V30 7794 H 737.766 -1.00205 3.74941 0
M  V30 7795 H 735.867 -2.96475 2.25684 0
M  V30 7796 H 735.98 -2.50481 4.08407 0
M  V30 7797 H 734.344 -1.41314 2.11902 0
M  V30 7798 H 735.127 -0.356905 3.4144 0
M  V30 7799 N 737.572 -1.44907 -0.619662 0
M  V30 7800 C 738.82 -1.47999 -1.37625 0
M  V30 7801 C 739.141 -0.118295 -1.94641 0
M  V30 7802 O 738.411 0.85086 -1.76457 0
M  V30 7803 H 736.991 -0.544993 -0.510873 0
M  V30 7804 H 739.653 -1.80772 -0.728522 0
M  V30 7805 H 738.749 -2.21196 -2.20179 0
M  V30 7806 N 739.05 0.861098 -1.31996 0
M  V30 7807 C 740.327 1.59788 -1.12814 0
M  V30 7808 C 740.707 2.08753 0.313882 0
M  V30 7809 O 740.055 1.87258 1.30946 0
M  V30 7810 C 740.265 2.74901 -2.15012 0
M  V30 7811 C 741.613 3.44643 -2.48004 0
M  V30 7812 O 742.637 2.85119 -2.13508 0
M  V30 7813 O 741.496 4.52044 -3.07113 0
M  V30 7814 H 738.59 0.703408 -0.434909 0
M  V30 7815 H 741.136 0.905788 -1.43505 0
M  V30 7816 H 739.908 2.36198 -3.11971 0
M  V30 7817 H 739.531 3.51792 -1.85279 0
M  V30 7818 N 740.528 1.15101 1.07655 0
M  V30 7819 C 741.774 0.925343 1.80458 0
M  V30 7820 C 742.107 -0.546354 1.86356 0
M  V30 7821 O 741.382 -1.40496 1.34503 0
M  V30 7822 C 741.665 1.53646 3.25676 0
M  V30 7823 C 741.518 3.07854 3.27942 0
M  V30 7824 C 742.837 1.21968 4.22861 0
M  V30 7825 H 739.956 0.337592 0.655134 0
M  V30 7826 H 742.598 1.42217 1.25993 0
M  V30 7827 H 740.748 1.11395 3.72187 0
M  V30 7828 H 742.42 3.58989 2.89697 0
M  V30 7829 H 740.663 3.41904 2.66991 0
M  V30 7830 H 741.334 3.45725 4.30324 0
M  V30 7831 H 743.81 1.5851 3.84726 0
M  V30 7832 H 742.686 1.67349 5.22767 0
M  V30 7833 H 742.947 0.136207 4.4189 0
M  V30 7834 N 742.006 -1.2595 0.947325 0
M  V30 7835 C 742.969 -2.24407 0.466285 0
M  V30 7836 C 743.969 -1.55054 -0.426005 0
M  V30 7837 O 745.159 -1.7275 -0.224319 0
M  V30 7838 C 742.291 -3.39326 -0.327201 0
M  V30 7839 H 743.484 -2.68477 1.33642 0
M  V30 7840 H 741.037 -1.38211 0.729887 0
M  V30 7841 H 741.772 -3.00667 -1.21532 0
M  V30 7842 H 741.557 -3.9085 0.312839 0
M  V30 7843 H 743.047 -4.12455 -0.653477 0
M  V30 7844 N 743.484 -0.715051 -1.40445 0
M  V30 7845 C 744.416 -0.0227516 -2.29189 0
M  V30 7846 C 745.429 0.724313 -1.458 0
M  V30 7847 O 746.618 0.571781 -1.69094 0
M  V30 7848 C 743.718 0.992038 -3.24055 0
M  V30 7849 C 742.891 0.310613 -4.36296 0
M  V30 7850 C 741.95 1.23071 -5.11605 0
M  V30 7851 O 740.976 0.71571 -5.64682 0
M  V30 7852 N 742.178 2.56188 -5.2091 0
M  V30 7853 H 744.943 -0.78473 -2.89244 0
M  V30 7854 H 742.504 -0.562637 -1.51809 0
M  V30 7855 H 744.496 1.60973 -3.71308 0
M  V30 7856 H 743.066 1.65538 -2.65171 0
M  V30 7857 H 742.286 -0.487269 -3.91177 0
M  V30 7858 H 743.574 -0.162415 -5.08541 0
M  V30 7859 H 742.972 3.00527 -4.7927 0
M  V30 7860 H 741.529 3.13103 -5.71673 0
M  V30 7861 N 744.962 1.50701 -0.461195 0
M  V30 7862 C 745.894 2.26124 0.374244 0
M  V30 7863 C 746.907 1.31064 0.965715 0
M  V30 7864 O 748.096 1.56647 0.855801 0
M  V30 7865 C 745.196 3.01996 1.5379 0
M  V30 7866 C 744.369 4.24336 1.06101 0
M  V30 7867 C 743.428 4.82585 2.09756 0
M  V30 7868 O 742.454 5.43775 1.68219 0
M  V30 7869 N 743.656 4.68712 3.42475 0
M  V30 7870 H 746.421 2.9846 -0.2723 0
M  V30 7871 H 743.982 1.59256 -0.291415 0
M  V30 7872 H 745.974 3.37846 2.22806 0
M  V30 7873 H 744.544 2.32521 2.08933 0
M  V30 7874 H 743.764 3.93707 0.197085 0
M  V30 7875 H 745.052 5.03678 0.720156 0
M  V30 7876 H 744.45 4.20026 3.78938 0
M  V30 7877 H 743.007 5.08858 4.07317 0
M  V30 7878 N 746.441 0.193421 1.56409 0
M  V30 7879 C 747.371 -0.723334 2.22014 0
M  V30 7880 C 748.352 -1.22254 1.1827 0
M  V30 7881 O 749.537 -1.27168 1.46771 0
M  V30 7882 C 746.667 -1.94366 2.87818 0
M  V30 7883 C 745.621 -1.57943 3.97791 0
M  V30 7884 C 744.947 -2.87623 4.50752 0
M  V30 7885 C 746.247 -0.790639 5.16281 0
M  V30 7886 H 747.941 -0.176426 2.9888 0
M  V30 7887 H 745.487 -0.0834166 1.43758 0
M  V30 7888 H 747.44 -2.5902 3.32396 0
M  V30 7889 H 746.164 -2.51507 2.08355 0
M  V30 7890 H 744.823 -0.956482 3.53903 0
M  V30 7891 H 744.471 -3.4285 3.68053 0
M  V30 7892 H 744.171 -2.63998 5.24956 0
M  V30 7893 H 745.695 -3.53268 4.9803 0
M  V30 7894 H 747.109 -1.34024 5.57414 0
M  V30 7895 H 745.506 -0.65258 5.96541 0
M  V30 7896 H 746.576 0.208633 4.84451 0
M  V30 7897 N 747.919 -1.57396 -0.0801906 0
M  V30 7898 C 749.165 -1.87979 -0.776884 0
M  V30 7899 C 749.52 -0.786098 -1.75608 0
M  V30 7900 O 748.813 0.210541 -1.9044 0
M  V30 7901 C 749.007 -3.22915 -1.53169 0
M  V30 7902 C 748.836 -4.45306 -0.627099 0
M  V30 7903 C 747.606 -5.04593 -0.267201 0
M  V30 7904 C 749.804 -5.14249 0.0724916 0
M  V30 7905 N 747.786 -6.10513 0.643995 0
M  V30 7906 C 749.157 -6.14267 0.841191 0
M  V30 7907 C 751.212 -4.97689 0.144847 0
M  V30 7908 C 749.915 -6.99514 1.67551 0
M  V30 7909 C 751.941 -5.83455 0.966112 0
M  V30 7910 C 751.303 -6.83005 1.72288 0
M  V30 7911 H 747.402 -0.737519 -0.259979 0
M  V30 7912 H 749.986 -1.94661 -0.0387512 0
M  V30 7913 H 748.157 -3.17256 -2.2406 0
M  V30 7914 H 749.889 -3.41174 -2.17675 0
M  V30 7915 H 746.644 -4.69548 -0.618194 0
M  V30 7916 H 747.068 -6.68125 1.09259 0
M  V30 7917 H 751.71 -4.20649 -0.4259 0
M  V30 7918 H 749.428 -7.75934 2.25726 0
M  V30 7919 H 753.014 -5.727 1.02497 0
M  V30 7920 H 751.894 -7.48219 2.34813 0
M  V30 7921 N 749.397 0.351382 -1.53633 0
M  V30 7922 C 750.329 1.45159 -1.77374 0
M  V30 7923 C 751.342 1.4905 -0.654826 0
M  V30 7924 O 752.531 1.52274 -0.931396 0
M  V30 7925 C 749.631 2.83858 -1.85143 0
M  V30 7926 C 748.804 3.03498 -3.14972 0
M  V30 7927 C 747.863 4.22393 -3.138 0
M  V30 7928 O 746.889 4.16885 -3.87551 0
M  V30 7929 N 748.091 5.30533 -2.35617 0
M  V30 7930 H 750.856 1.25167 -2.72311 0
M  V30 7931 H 748.417 0.54121 -1.52586 0
M  V30 7932 H 750.409 3.61557 -1.8182 0
M  V30 7933 H 748.979 2.9703 -0.974275 0
M  V30 7934 H 748.199 2.13336 -3.31484 0
M  V30 7935 H 749.487 3.13498 -4.00745 0
M  V30 7936 H 748.885 5.37875 -1.75235 0
M  V30 7937 H 747.442 6.06756 -2.38098 0
M  V30 7938 N 750.875 1.45233 0.611969 0
M  V30 7939 C 752.123 1.48727 1.36838 0
M  V30 7940 C 752.444 0.128616 1.94575 0
M  V30 7941 O 751.714 -0.84149 1.76906 0
M  V30 7942 H 750.294 0.547695 0.507976 0
M  V30 7943 H 752.956 1.81156 0.718925 0
M  V30 7944 H 752.052 2.2236 2.19003 0
M  V30 7945 N 752.353 -0.854086 1.3245 0
M  V30 7946 C 753.285 -1.96932 1.17262 0
M  V30 7947 C 754.298 -1.62445 0.107469 0
M  V30 7948 O 755.487 -1.74904 0.356481 0
M  V30 7949 C 752.587 -3.29971 0.772817 0
M  V30 7950 C 751.76 -3.92695 1.92638 0
M  V30 7951 C 750.819 -5.04068 1.51003 0
M  V30 7952 O 749.845 -5.24032 2.22213 0
M  V30 7953 N 751.047 -5.79076 0.406371 0
M  V30 7954 H 753.812 -2.10503 2.13327 0
M  V30 7955 H 751.373 -1.02897 1.24995 0
M  V30 7956 H 753.365 -4.01883 0.476684 0
M  V30 7957 H 751.935 -3.1245 -0.0967 0
M  V30 7958 H 751.155 -3.13563 2.38897 0
M  V30 7959 H 752.443 -4.31337 2.69863 0
M  V30 7960 H 751.841 -5.65393 -0.186302 0
M  V30 7961 H 750.398 -6.51579 0.169846 0
M  V30 7962 N 753.831 -1.1567 -1.07043 0
M  V30 7963 C 754.763 -0.814095 -2.14255 0
M  V30 7964 C 755.776 0.175293 -1.61854 0
M  V30 7965 O 756.965 -0.0483984 -1.78434 0
M  V30 7966 C 754.065 -0.190082 -3.38367 0
M  V30 7967 C 753.238 -1.21768 -4.20109 0
M  V30 7968 C 752.297 -0.614863 -5.22595 0
M  V30 7969 O 751.323 -1.28167 -5.54583 0
M  V30 7970 N 752.525 0.601955 -5.77371 0
M  V30 7971 H 755.29 -1.73677 -2.44247 0
M  V30 7972 H 752.851 -1.05301 -1.22977 0
M  V30 7973 H 754.843 0.22604 -4.04068 0
M  V30 7974 H 753.413 0.635992 -3.06062 0
M  V30 7975 H 752.633 -1.81025 -3.50177 0
M  V30 7976 H 753.921 -1.9114 -4.71533 0
M  V30 7977 H 753.319 1.162 -5.53637 0
M  V30 7978 H 751.876 0.96039 -6.44686 0
M  V30 7979 N 755.309 1.25446 -0.953992 0
M  V30 7980 C 756.555 1.9343 -0.60933 0
M  V30 7981 C 756.888 1.74542 0.851388 0
M  V30 7982 O 756.163 1.09014 1.61078 0
M  V30 7983 C 756.446 3.46844 -0.968041 0
M  V30 7984 C 756.299 3.74961 -2.48444 0
M  V30 7985 C 757.618 4.37334 -0.492641 0
M  V30 7986 H 754.737 0.702502 -0.222844 0
M  V30 7987 H 757.379 1.48076 -1.19053 0
M  V30 7988 H 755.529 3.85604 -0.473465 0
M  V30 7989 H 757.201 3.45841 -3.05273 0
M  V30 7990 H 755.444 3.20589 -2.92241 0
M  V30 7991 H 756.115 4.82246 -2.68594 0
M  V30 7992 H 758.591 4.05873 -0.916878 0
M  V30 7993 H 757.467 5.43439 -0.772331 0
M  V30 7994 H 757.728 4.37908 0.607403 0
M  V30 7995 N 756.787 0.722489 1.40064 0
M  V30 7996 C 757.719 0.0349057 2.29173 0
M  V30 7997 C 758.732 -0.716571 1.46182 0
M  V30 7998 O 759.921 -0.562806 1.69395 0
M  V30 7999 C 757.021 -0.974839 3.24577 0
M  V30 8000 C 756.194 -0.287471 4.36454 0
M  V30 8001 C 755.253 -1.20356 5.12251 0
M  V30 8002 O 754.279 -0.685753 5.65054 0
M  V30 8003 N 755.481 -2.53422 5.22262 0
M  V30 8004 H 758.246 0.800058 2.88824 0
M  V30 8005 H 755.807 0.57068 1.51509 0
M  V30 8006 H 757.799 -1.59002 3.72157 0
M  V30 8007 H 756.369 -1.6413 2.66046 0
M  V30 8008 H 755.589 0.508008 3.90913 0
M  V30 8009 H 756.877 0.189382 5.08447 0
M  V30 8010 H 756.275 -2.97981 4.80857 0
M  V30 8011 H 754.832 -3.10067 5.73325 0
M  V30 8012 N 758.265 -1.50454 0.469181 0
M  V30 8013 C 759.228 -2.2703 -0.314643 0
M  V30 8014 C 760.228 -1.31734 -0.922111 0
M  V30 8015 O 761.418 -1.55176 -0.791588 0
M  V30 8016 C 758.55 -3.08616 -1.44806 0
M  V30 8017 H 759.743 -2.97769 0.356892 0
M  V30 8018 H 757.296 -1.54698 0.223191 0
M  V30 8019 H 758.031 -2.42369 -2.1547 0
M  V30 8020 H 757.816 -3.78647 -1.01829 0
M  V30 8021 H 759.306 -3.66536 -2.00103 0
M  V30 8022 N 759.743 -0.201713 -1.56304 0
M  V30 8023 C 761.159 0.154025 -1.58855 0
M  V30 8024 C 761.359 1.60516 -1.21807 0
M  V30 8025 O 760.415 2.34193 -0.94393 0
M  V30 8026 C 761.728 -0.154319 -3.00304 0
M  V30 8027 C 763.276 -0.0949578 -3.12856 0
M  V30 8028 C 763.751 -0.376703 -4.56448 0
M  V30 8029 N 765.242 -0.325558 -4.62054 0
M  V30 8030 C 765.977 -0.51732 -5.71062 0
M  V30 8031 N 765.473 -0.769789 -6.8851 0
M  V30 8032 N 767.266 -0.45112 -5.60287 0
M  V30 8033 H 759.417 -1.14858 -1.78666 0
M  V30 8034 H 761.68 -0.458934 -0.829508 0
M  V30 8035 H 761.386 -1.16074 -3.31994 0
M  V30 8036 H 761.26 0.540014 -3.73314 0
M  V30 8037 H 763.647 0.902075 -2.80974 0
M  V30 8038 H 763.728 -0.822468 -2.42217 0
M  V30 8039 H 763.372 -1.37108 -4.89044 0
M  V30 8040 H 763.302 0.371772 -5.25286 0
M  V30 8041 H 765.793 -0.137308 -3.7765 0
M  V30 8042 H 766.106 -0.904744 -7.67486 0
M  V30 8043 H 764.451 -0.806758 -6.90302 0
M  V30 8044 H 767.642 -0.254253 -4.67409 0
M  V30 8045 H 767.815 -0.603982 -6.45179 0
M  V30 8046 N 761.222 1.57436 0.0718424 0
M  V30 8047 C 762.169 2.03686 1.08539 0
M  V30 8048 C 763.139 0.917474 1.38462 0
M  V30 8049 O 764.324 1.18513 1.4953 0
M  V30 8050 C 761.464 2.48566 2.39393 0
M  V30 8051 C 760.577 3.74122 2.16001 0
M  V30 8052 C 759.712 4.07786 3.40418 0
M  V30 8053 C 758.751 5.26383 3.1239 0
M  V30 8054 N 757.888 5.55685 4.29138 0
M  V30 8055 H 762.728 2.90043 0.684018 0
M  V30 8056 H 760.265 1.43438 0.326183 0
M  V30 8057 H 762.223 2.72639 3.15791 0
M  V30 8058 H 760.853 1.65186 2.77333 0
M  V30 8059 H 759.905 3.57389 1.30296 0
M  V30 8060 H 761.217 4.60659 1.91298 0
M  V30 8061 H 760.371 4.32759 4.25211 0
M  V30 8062 H 759.11 3.19817 3.68197 0
M  V30 8063 H 758.115 5.01206 2.25993 0
M  V30 8064 H 759.34 6.1597 2.85934 0
M  V30 8065 H 757.286 4.70675 4.56948 0
M  V30 8066 H 757.203 6.3664 4.07708 0
M  V30 8067 H 758.471 5.85209 5.14928 0
M  V30 8068 N 762.7 -0.34323 1.53817 0
M  V30 8069 C 763.947 -1.08344 1.71079 0
M  V30 8070 C 764.275 -1.88633 0.474133 0
M  V30 8071 O 763.53 -1.87984 -0.544116 0
M  V30 8072 C 763.829 -2.05195 2.92626 0
M  V30 8073 C 763.495 -1.41215 4.28216 0
M  V30 8074 C 762.157 -1.23495 4.65083 0
M  V30 8075 C 764.509 -0.951273 5.12445 0
M  V30 8076 C 761.837 -0.583065 5.83796 0
M  V30 8077 C 764.189 -0.313292 6.31824 0
M  V30 8078 C 762.853 -0.123779 6.67385 0
M  V30 8079 H 762.123 -0.396458 0.626021 0
M  V30 8080 H 764.77 -0.362689 1.88034 0
M  V30 8081 H 763.075 -2.83653 2.70275 0
M  V30 8082 H 764.772 -2.62462 3.03175 0
M  V30 8083 H 761.362 -1.56005 3.992 0
M  V30 8084 H 765.546 -1.07602 4.84495 0
M  V30 8085 H 760.802 -0.424854 6.09922 0
M  V30 8086 H 764.976 0.0519179 6.96381 0
M  V30 8087 H 762.603 0.383398 7.59233 0
M  V30 8088 N 764.178 -1.45556 -0.604258 0
M  V30 8089 C 765.455 -1.40221 -1.36373 0
M  V30 8090 C 765.835 -0.0745195 -2.10968 0
M  V30 8091 O 765.183 0.943594 -2.08107 0
M  V30 8092 C 765.393 -2.61807 -2.30777 0
M  V30 8093 C 766.741 -3.07037 -2.93281 0
M  V30 8094 O 767.765 -2.62203 -2.41097 0
M  V30 8095 O 766.624 -3.8485 -3.88011 0
M  V30 8096 H 763.718 -0.556602 -0.611656 0
M  V30 8097 H 766.264 -1.57689 -0.627069 0
M  V30 8098 H 765.036 -3.50017 -1.74939 0
M  V30 8099 H 764.659 -2.46688 -3.11818 0
M  V30 8100 N 765.656 0.84705 -1.32902 0
M  V30 8101 C 766.933 1.58583 -1.14503 0
M  V30 8102 C 767.313 2.09075 0.291724 0
M  V30 8103 O 766.661 1.88636 1.28952 0
M  V30 8104 C 766.871 2.72605 -2.17916 0
M  V30 8105 C 768.219 3.41993 -2.51646 0
M  V30 8106 O 769.243 2.82838 -2.1652 0
M  V30 8107 O 768.102 4.48761 -3.1189 0
M  V30 8108 H 765.196 0.698756 -0.442345 0
M  V30 8109 H 767.742 0.890516 -1.44457 0
M  V30 8110 H 766.514 2.32876 -3.14459 0
M  V30 8111 H 766.137 3.49807 -1.89 0
M  V30 8112 N 767.134 1.16236 1.06428 0
M  V30 8113 C 768.38 0.944431 1.79467 0
M  V30 8114 C 768.713 -0.526558 1.86925 0
M  V30 8115 O 767.988 -1.39061 1.35986 0
M  V30 8116 C 768.271 1.57092 3.24028 0
M  V30 8117 C 768.124 3.11315 3.24658 0
M  V30 8118 C 769.443 1.26447 4.21544 0
M  V30 8119 H 766.562 0.344521 0.651517 0
M  V30 8120 H 769.204 1.43545 1.24478 0
M  V30 8121 H 767.354 1.15337 3.70985 0
M  V30 8122 H 769.026 3.62042 2.85873 0
M  V30 8123 H 767.269 3.44716 2.6335 0
M  V30 8124 H 767.94 3.50269 4.26633 0
M  V30 8125 H 770.416 1.62581 3.83023 0
M  V30 8126 H 769.292 1.72885 5.20963 0
M  V30 8127 H 769.553 0.183068 4.41721 0
M  V30 8128 N 768.612 -1.24939 0.960631 0
M  V30 8129 C 769.84 -1.96881 0.636045 0
M  V30 8130 C 770.255 -1.71334 -0.793093 0
M  V30 8131 O 769.612 -0.992917 -1.53125 0
M  V30 8132 C 769.663 -3.50309 0.892533 0
M  V30 8133 O 769.384 -3.74977 2.26548 0
M  V30 8134 C 770.885 -4.39474 0.581159 0
M  V30 8135 H 768.105 -0.627399 0.237931 0
M  V30 8136 H 770.649 -1.58952 1.28664 0
M  V30 8137 H 768.804 -3.86326 0.288257 0
M  V30 8138 H 769.218 -4.69401 2.34014 0
M  V30 8139 H 770.692 -5.46008 0.811125 0
M  V30 8140 H 771.169 -4.3652 -0.48443 0
M  V30 8141 H 771.775 -4.09032 1.16502 0
M  V30 8142 N 770.09 -0.729906 -1.39679 0
M  V30 8143 C 771.023 -0.0354454 -2.28172 0
M  V30 8144 C 772.001 0.752968 -1.44115 0
M  V30 8145 O 773.185 0.736599 -1.73512 0
M  V30 8146 C 770.312 0.957047 -3.24897 0
M  V30 8147 C 769.358 0.257734 -4.25721 0
M  V30 8148 S 770.191 -1.02466 -5.25605 0
M  V30 8149 C 771.347 -0.0346322 -6.2589 0
M  V30 8150 H 771.58 -0.785922 -2.86724 0
M  V30 8151 H 769.113 -0.521497 -1.45326 0
M  V30 8152 H 771.071 1.52441 -3.81146 0
M  V30 8153 H 769.732 1.68033 -2.65375 0
M  V30 8154 H 768.925 1.00854 -4.93806 0
M  V30 8155 H 768.527 -0.237454 -3.73245 0
M  V30 8156 H 770.819 0.807464 -6.72671 0
M  V30 8157 H 771.762 -0.682491 -7.04803 0
M  V30 8158 H 772.17 0.335492 -5.63502 0
M  V30 8159 N 771.568 1.50203 -0.477153 0
M  V30 8160 C 772.498 2.31517 0.303646 0
M  V30 8161 C 773.479 1.38696 0.984753 0
M  V30 8162 O 774.664 1.67615 0.980758 0
M  V30 8163 C 771.794 3.18598 1.38249 0
M  V30 8164 C 770.748 4.2002 0.822645 0
M  V30 8165 C 770.074 4.95878 2.00024 0
M  V30 8166 C 771.374 5.22023 -0.170185 0
M  V30 8167 H 773.068 2.97042 -0.375027 0
M  V30 8168 H 770.614 1.42848 -0.181802 0
M  V30 8169 H 772.567 3.74282 1.93625 0
M  V30 8170 H 771.291 2.5097 2.09002 0
M  V30 8171 H 769.95 3.65445 0.290813 0
M  V30 8172 H 769.598 4.24717 2.69489 0
M  V30 8173 H 769.298 5.64487 1.63183 0
M  V30 8174 H 770.822 5.54399 2.55878 0
M  V30 8175 H 772.236 5.72543 0.294606 0
M  V30 8176 H 770.633 5.98386 -0.453181 0
M  V30 8177 H 771.703 4.72396 -1.09408 0
M  V30 8178 N 773.046 0.209999 1.56195 0
M  V30 8179 C 774.293 -0.424813 1.97994 0
M  V30 8180 C 774.621 -1.60589 1.09733 0
M  V30 8181 O 773.876 -1.95201 0.139693 0
M  V30 8182 C 774.175 -0.91312 3.45539 0
M  V30 8183 C 773.841 0.156187 4.50629 0
M  V30 8184 C 772.503 0.449966 4.79092 0
M  V30 8185 C 774.855 0.879959 5.13718 0
M  V30 8186 C 772.183 1.47223 5.67928 0
M  V30 8187 C 774.535 1.89148 6.0366 0
M  V30 8188 C 773.199 2.1923 6.30472 0
M  V30 8189 H 772.469 -0.15545 0.724511 0
M  V30 8190 H 775.116 0.310095 1.88973 0
M  V30 8191 H 773.421 -1.72658 3.51705 0
M  V30 8192 H 775.118 -1.41395 3.75245 0
M  V30 8193 H 771.708 -0.0829466 4.2852 0
M  V30 8194 H 775.892 0.66623 4.91808 0
M  V30 8195 H 771.148 1.71105 5.86969 0
M  V30 8196 H 775.322 2.45745 6.516 0
M  V30 8197 H 772.949 2.98587 6.99107 0
M  V30 8198 N 774.524 -1.57472 -0.0634922 0
M  V30 8199 C 775.749 -1.92273 -0.77756 0
M  V30 8200 C 776.174 -0.807141 -1.69902 0
M  V30 8201 O 775.532 0.239523 -1.79711 0
M  V30 8202 C 775.58 -3.26054 -1.54017 0
M  V30 8203 O 774.684 -3.15873 -2.65138 0
M  V30 8204 H 774.025 -0.629389 -0.211579 0
M  V30 8205 H 776.555 -2.04579 -0.0292523 0
M  V30 8206 H 776.565 -3.60127 -1.91763 0
M  V30 8207 H 775.24 -4.06824 -0.864128 0
M  V30 8208 H 773.817 -2.93373 -2.30189 0
M  V30 8209 N 776.003 0.335068 -1.53997 0
M  V30 8210 C 777.28 1.09188 -1.62288 0
M  V30 8211 C 777.66 2.0626 -0.449458 0
M  V30 8212 O 777.008 2.21596 0.557444 0
M  V30 8213 C 777.218 1.80403 -2.98757 0
M  V30 8214 C 778.566 2.33841 -3.54406 0
M  V30 8215 O 779.59 1.90487 -3.00987 0
M  V30 8216 O 778.449 3.1318 -4.47862 0
M  V30 8217 H 775.543 0.502621 -0.656736 0
M  V30 8218 H 778.089 0.33588 -1.66343 0
M  V30 8219 H 776.861 1.09732 -3.75599 0
M  V30 8220 H 776.484 2.62841 -2.9833 0
M  V30 8221 N 777.481 1.45874 0.596531 0
M  V30 8222 C 778.73 1.49737 1.35135 0
M  V30 8223 C 779.043 0.147755 1.95041 0
M  V30 8224 O 780.249 0.0640984 2.71424 0
M  V30 8225 C 778.705 2.6378 2.44843 0
M  V30 8226 C 778.313 4.05102 1.91301 0
M  V30 8227 C 780.057 2.769 3.21755 0
M  V30 8228 C 777.964 5.10508 2.98557 0
M  V30 8229 H 776.894 0.557219 0.507959 0
M  V30 8230 H 779.545 1.72046 0.638147 0
M  V30 8231 H 777.927 2.34774 3.189 0
M  V30 8232 H 779.101 4.43836 1.2388 0
M  V30 8233 H 777.416 3.96528 1.271 0
M  V30 8234 H 780.013 3.52819 4.01775 0
M  V30 8235 H 780.356 1.83924 3.73467 0
M  V30 8236 H 780.889 3.05485 2.54802 0
M  V30 8237 H 777.628 6.0523 2.51749 0
M  V30 8238 H 777.148 4.76332 3.6451 0
M  V30 8239 H 778.827 5.35745 3.62748 0
M  V30 8240 N 778.959 -0.83999 1.33349 0
M  V30 8241 C 780.205 -1.59753 1.24927 0
M  V30 8242 C 780.538 -1.93318 -0.184855 0
M  V30 8243 O 779.813 -1.586 -1.12589 0
M  V30 8244 C 780.096 -2.90829 2.12345 0
M  V30 8245 C 779.949 -2.63953 3.6421 0
M  V30 8246 C 781.268 -3.92246 1.99577 0
M  V30 8247 H 778.387 -0.579654 0.45516 0
M  V30 8248 H 781.029 -0.968909 1.63439 0
M  V30 8249 H 779.179 -3.44478 1.79631 0
M  V30 8250 H 780.851 -2.16745 4.07209 0
M  V30 8251 H 779.094 -1.97671 3.86146 0
M  V30 8252 H 779.765 -3.57348 4.20721 0
M  V30 8253 H 782.241 -3.479 2.28265 0
M  V30 8254 H 781.117 -4.81793 2.62996 0
M  V30 8255 H 781.378 -4.3138 0.967673 0
M  V30 8256 N 780.437 -1.16799 -1.0581 0
M  V30 8257 C 781.685 -0.950642 -1.78346 0
M  V30 8258 C 782.006 0.522524 -1.87869 0
M  V30 8259 O 781.276 1.3795 -1.39092 0
M  V30 8260 H 779.856 -0.348736 -0.6606 0
M  V30 8261 H 782.518 -1.47158 -1.27791 0
M  V30 8262 H 781.614 -1.37359 -2.80248 0
M  V30 8263 N 781.915 1.24427 -0.967243 0
M  V30 8264 C 783.162 1.92487 -0.62888 0
M  V30 8265 C 783.49 1.75623 0.835871 0
M  V30 8266 O 782.745 1.1027 1.61675 0
M  V30 8267 C 783.044 3.44568 -0.949096 0
M  V30 8268 C 782.71 3.816 -2.40192 0
M  V30 8269 C 781.372 3.9142 -2.799 0
M  V30 8270 C 783.724 3.99715 -3.34481 0
M  V30 8271 C 781.052 4.16771 -4.12939 0
M  V30 8272 C 783.404 4.26562 -4.67148 0
M  V30 8273 C 782.068 4.34601 -5.06634 0
M  V30 8274 H 781.338 0.704361 -0.230124 0
M  V30 8275 H 783.985 1.4772 -1.21864 0
M  V30 8276 H 782.29 3.90819 -0.277085 0
M  V30 8277 H 783.987 3.95436 -0.665692 0
M  V30 8278 H 780.577 3.74522 -2.08402 0
M  V30 8279 H 784.761 3.91531 -3.04987 0
M  V30 8280 H 780.017 4.21214 -4.43158 0
M  V30 8281 H 784.191 4.39523 -5.40178 0
M  V30 8282 H 781.818 4.53998 -6.09746 0
M  V30 8283 N 783.393 0.737304 1.3929 0
M  V30 8284 C 784.621 0.296573 2.04763 0
M  V30 8285 C 785.036 -1.06941 1.55592 0
M  V30 8286 O 784.393 -1.67619 0.721822 0
M  V30 8287 C 784.444 0.291906 3.6032 0
M  V30 8288 O 784.165 1.60397 4.07682 0
M  V30 8289 C 785.666 -0.164708 4.42994 0
M  V30 8290 H 782.886 0.129251 0.658434 0
M  V30 8291 H 785.43 1.0016 1.78293 0
M  V30 8292 H 783.585 -0.364251 3.85684 0
M  V30 8293 H 783.999 1.51909 5.0202 0
M  V30 8294 H 785.473 -0.116814 5.51876 0
M  V30 8295 H 785.95 -1.21022 4.22197 0
M  V30 8296 H 786.556 0.461968 4.22784 0
M  V30 8297 N 784.871 -1.49948 0.485112 0
M  V30 8298 C 785.834 -2.27351 -0.290546 0
M  V30 8299 C 786.834 -1.32704 -0.908087 0
M  V30 8300 O 788.024 -1.56007 -0.775085 0
M  V30 8301 C 785.156 -3.10135 -1.41524 0
M  V30 8302 H 786.349 -2.97374 0.388454 0
M  V30 8303 H 783.902 -1.54453 0.239586 0
M  V30 8304 H 784.637 -2.44641 -2.12888 0
M  V30 8305 H 784.422 -3.79705 -0.978074 0
M  V30 8306 H 785.912 -3.68638 -1.96204 0
M  V30 8307 N 786.349 -0.21828 -1.56081 0
M  V30 8308 C 787.598 0.414644 -1.97392 0
M  V30 8309 C 787.911 1.61132 -1.10887 0
M  V30 8310 O 789.117 2.31355 -1.42082 0
M  V30 8311 C 787.573 0.789099 -3.51143 0
M  V30 8312 C 787.181 -0.384578 -4.46346 0
M  V30 8313 C 788.925 1.38781 -4.01173 0
M  V30 8314 C 786.832 0.0121288 -5.91399 0
M  V30 8315 H 785.762 0.158691 -0.737111 0
M  V30 8316 H 788.413 -0.313974 -1.80794 0
M  V30 8317 H 786.795 1.57505 -3.6333 0
M  V30 8318 H 787.969 -1.16212 -4.45905 0
M  V30 8319 H 786.284 -0.896306 -4.06639 0
M  V30 8320 H 788.881 1.69746 -5.07041 0
M  V30 8321 H 789.224 2.30245 -3.46833 0
M  V30 8322 H 789.757 0.665364 -3.92196 0
M  V30 8323 H 786.496 -0.868917 -6.49715 0
M  V30 8324 H 786.016 0.754053 -5.95041 0
M  V30 8325 H 787.695 0.439949 -6.45502 0
M  V30 8326 N 787.827 1.57504 0.0551401 0
M  V30 8327 C 789.067 1.89895 0.756252 0
M  V30 8328 C 789.431 0.813983 1.73892 0
M  V30 8329 O 790.632 1.02145 2.48636 0
M  V30 8330 C 788.903 3.27494 1.43116 0
M  V30 8331 S 790.462 3.81669 2.16504 0
M  V30 8332 H 787.28 0.665173 0.251129 0
M  V30 8333 H 789.882 1.95496 0.0117193 0
M  V30 8334 H 788.586 4.04345 0.702391 0
M  V30 8335 H 788.117 3.25132 2.21479 0
M  V30 8336 H 790.132 3.58295 3.43277 0
M  V30 8337 N 789.305 -0.326896 1.54172 0
M  V30 8338 C 790.268 -1.38515 1.8261 0
M  V30 8339 C 791.268 -1.44872 0.697771 0
M  V30 8340 O 792.458 -1.44957 0.966078 0
M  V30 8341 C 789.59 -2.77281 1.98313 0
M  V30 8342 H 790.783 -1.14556 2.77159 0
M  V30 8343 H 788.336 -0.562199 1.45839 0
M  V30 8344 H 789.071 -3.065 1.05964 0
M  V30 8345 H 788.856 -2.74061 2.80416 0
M  V30 8346 H 790.346 -3.53845 2.21773 0
M  V30 8347 N 790.784 -1.46188 -0.588786 0
M  V30 8348 C 791.716 -1.52319 -1.71265 0
M  V30 8349 C 792.729 -0.412096 -1.57498 0
M  V30 8350 O 793.918 -0.680146 -1.65034 0
M  V30 8351 C 791.018 -1.38164 -3.09458 0
M  V30 8352 C 790.191 -2.63284 -3.49286 0
M  V30 8353 C 789.25 -2.43415 -4.66514 0
M  V30 8354 O 788.276 -3.17113 -4.72682 0
M  V30 8355 N 789.478 -1.49187 -5.61002 0
M  V30 8356 H 792.243 -2.49219 -1.66463 0
M  V30 8357 H 789.804 -1.42167 -0.774601 0
M  V30 8358 H 791.796 -1.22653 -3.85666 0
M  V30 8359 H 790.366 -0.494678 -3.08661 0
M  V30 8360 H 789.586 -2.93779 -2.62845 0
M  V30 8361 H 790.874 -3.46413 -3.7266 0
M  V30 8362 H 790.272 -0.884027 -5.5875 0
M  V30 8363 H 788.829 -1.39642 -6.36666 0
M  V30 8364 N 792.262 0.832906 -1.33792 0
M  V30 8365 C 793.502 1.60217 -1.26925 0
M  V30 8366 C 793.866 1.91323 0.161146 0
M  V30 8367 O 795.067 2.66461 0.353864 0
M  V30 8368 C 793.338 2.87314 -2.12568 0
M  V30 8369 S 794.897 3.77939 -2.22952 0
M  V30 8370 H 791.715 0.549273 -0.451464 0
M  V30 8371 H 794.317 0.984648 -1.68893 0
M  V30 8372 H 793.021 2.62444 -3.15518 0
M  V30 8373 H 792.552 3.5407 -1.71459 0
M  V30 8374 H 794.567 4.76188 -1.39496 0
M  V30 8375 N 793.74 1.17359 1.05189 0
M  V30 8376 C 794.968 0.986529 1.81866 0
M  V30 8377 C 795.383 -0.46522 1.82979 0
M  V30 8378 O 794.74 -1.32305 1.25705 0
M  V30 8379 C 794.791 1.52021 3.27982 0
M  V30 8380 O 794.512 2.91511 3.27037 0
M  V30 8381 C 796.013 1.37774 4.21347 0
M  V30 8382 H 793.233 0.349021 0.573084 0
M  V30 8383 H 795.777 1.55648 1.32643 0
M  V30 8384 H 793.932 0.992287 3.74476 0
M  V30 8385 H 794.346 3.16178 4.18488 0
M  V30 8386 H 795.82 1.7993 5.21852 0
M  V30 8387 H 796.297 0.32483 4.37997 0
M  V30 8388 H 796.903 1.89583 3.80708 0
M  V30 8389 N 795.218 -1.23913 0.973828 0
M  V30 8390 C 796.629 -1.73992 0.677021 0
M  V30 8391 C 796.98 -1.78833 -0.807036 0
M  V30 8392 O 796.105 -1.42183 -1.63135 0
M  V30 8393 C 796.7 -3.15985 1.22226 0
M  V30 8394 C 795.259 -3.63547 0.975228 0
M  V30 8395 C 794.406 -2.42001 1.35392 0
M  V30 8396 H 797.357 -1.09529 1.14844 0
M  V30 8397 H 797.378 -3.75875 0.591489 0
M  V30 8398 H 796.89 -3.12429 2.30238 0
M  V30 8399 H 794.991 -3.72493 -0.0891047 0
M  V30 8400 H 795.104 -4.50693 1.62518 0
M  V30 8401 H 793.468 -2.42708 0.772334 0
M  V30 8402 H 794.251 -2.41122 2.44367 0
M  V30 8403 N 796.696 -0.74468 -1.38897 0
M  V30 8404 C 797.629 -0.0596441 -2.28122 0
M  V30 8405 C 798.607 0.73764 -1.44906 0
M  V30 8406 O 799.791 0.718155 -1.74284 0
M  V30 8407 C 796.918 0.922533 -3.25894 0
M  V30 8408 C 795.964 0.212566 -4.2597 0
M  V30 8409 S 796.797 -1.08035 -5.24489 0
M  V30 8410 C 797.953 -0.101014 -6.25818 0
M  V30 8411 H 798.186 -0.816289 -2.85874 0
M  V30 8412 H 795.719 -0.536882 -1.44765 0
M  V30 8413 H 797.677 1.4839 -3.82741 0
M  V30 8414 H 796.338 1.65209 -2.67142 0
M  V30 8415 H 795.531 0.956106 -4.94848 0
M  V30 8416 H 795.133 -0.277029 -3.72973 0
M  V30 8417 H 797.425 0.736072 -6.7349 0
M  V30 8418 H 798.368 -0.757206 -7.0404 0
M  V30 8419 H 798.776 0.275706 -5.63826 0
M  V30 8420 N 798.174 1.49689 -0.493057 0
M  V30 8421 C 799.106 2.26867 0.326195 0
M  V30 8422 C 800.119 1.33083 0.937697 0
M  V30 8423 O 801.308 1.58427 0.822382 0
M  V30 8424 C 798.408 3.0519 1.4735 0
M  V30 8425 C 797.581 4.26491 0.970767 0
M  V30 8426 C 796.64 4.86926 1.99473 0
M  V30 8427 O 795.666 5.47221 1.56647 0
M  V30 8428 N 796.868 4.75871 3.32456 0
M  V30 8429 H 799.633 2.97816 -0.335547 0
M  V30 8430 H 797.194 1.58602 -0.325129 0
M  V30 8431 H 799.186 3.42496 2.15589 0
M  V30 8432 H 797.756 2.369 2.03954 0
M  V30 8433 H 796.976 3.94036 0.113529 0
M  V30 8434 H 798.264 5.05092 0.613156 0
M  V30 8435 H 797.662 4.2797 3.69944 0
M  V30 8436 H 796.219 5.17383 3.96431 0
M  V30 8437 N 799.652 0.226554 1.55963 0
M  V30 8438 C 800.898 -0.404387 1.98727 0
M  V30 8439 C 801.231 -1.59059 1.11418 0
M  V30 8440 O 800.506 -1.93729 0.172971 0
M  V30 8441 C 800.789 -0.834081 3.50307 0
M  V30 8442 C 800.642 0.356104 4.48388 0
M  V30 8443 C 801.961 -1.68845 4.06423 0
M  V30 8444 H 799.08 -0.145515 0.722492 0
M  V30 8445 H 801.722 0.323791 1.87221 0
M  V30 8446 H 799.872 -1.45454 3.60244 0
M  V30 8447 H 801.544 0.99432 4.50456 0
M  V30 8448 H 799.787 1.0027 4.22053 0
M  V30 8449 H 800.458 0.0124333 5.51999 0
M  V30 8450 H 802.934 -1.16489 3.99461 0
M  V30 8451 H 801.81 -1.958 5.1279 0
M  V30 8452 H 802.071 -2.65347 3.53615 0
M  V30 8453 N 801.13 -1.57531 -0.0467866 0
M  V30 8454 C 802.379 -1.87632 -0.740069 0
M  V30 8455 C 802.692 -0.822691 -1.77457 0
M  V30 8456 O 803.898 -1.01235 -2.5192 0
M  V30 8457 C 802.354 -3.32917 -1.36727 0
M  V30 8458 C 801.962 -4.46469 -0.370035 0
M  V30 8459 C 803.706 -3.72189 -2.04146 0
M  V30 8460 C 801.613 -5.82806 -1.00457 0
M  V30 8461 H 800.543 -0.70002 -0.280158 0
M  V30 8462 H 803.194 -1.83499 0.00607151 0
M  V30 8463 H 801.576 -3.31739 -2.16252 0
M  V30 8464 H 802.75 -4.59085 0.397217 0
M  V30 8465 H 801.065 -4.15914 0.201079 0
M  V30 8466 H 803.662 -4.71357 -2.52441 0
M  V30 8467 H 804.005 -3.03268 -2.85192 0
M  V30 8468 H 804.538 -3.75465 -1.3142 0
M  V30 8469 H 801.277 -6.55083 -0.233907 0
M  V30 8470 H 800.797 -5.73944 -1.74209 0
M  V30 8471 H 802.476 -6.28961 -1.51713 0
M  V30 8472 N 802.608 0.318715 -1.54344 0
M  V30 8473 C 803.833 1.07987 -1.77069 0
M  V30 8474 C 804.258 1.80766 -0.520117 0
M  V30 8475 O 803.616 1.73424 0.528566 0
M  V30 8476 C 803.664 2.04987 -2.96669 0
M  V30 8477 O 802.768 3.12974 -2.68554 0
M  V30 8478 H 802.109 0.311109 -0.586606 0
M  V30 8479 H 804.639 0.361533 -2.0138 0
M  V30 8480 H 804.649 2.47771 -3.2415 0
M  V30 8481 H 803.324 1.51417 -3.87357 0
M  V30 8482 H 801.901 2.74831 -2.52037 0
M  V30 8483 N 804.086 1.46499 0.581025 0
M  V30 8484 C 805.019 1.51706 1.70472 0
M  V30 8485 C 805.997 0.371036 1.5831 0
M  V30 8486 O 807.181 0.575426 1.79502 0
M  V30 8487 C 804.308 1.3972 3.08538 0
M  V30 8488 C 803.354 2.58525 3.39215 0
M  V30 8489 S 804.187 4.20872 3.311 0
M  V30 8490 C 805.343 4.11398 4.71702 0
M  V30 8491 H 805.576 2.46777 1.65796 0
M  V30 8492 H 803.109 1.34405 0.759908 0
M  V30 8493 H 805.067 1.33492 3.88188 0
M  V30 8494 H 803.728 0.460742 3.10702 0
M  V30 8495 H 802.921 2.46137 4.3981 0
M  V30 8496 H 802.523 2.61752 2.67136 0
M  V30 8497 H 804.815 3.78182 5.62125 0
M  V30 8498 H 805.758 5.11997 4.89147 0
M  V30 8499 H 806.166 3.42624 4.48631 0
M  V30 8500 N 805.565 -0.825799 1.34232 0
M  V30 8501 C 806.495 -1.95151 1.28212 0
M  V30 8502 C 807.476 -1.69345 0.160123 0
M  V30 8503 O 808.661 -1.90983 0.352019 0
M  V30 8504 C 805.791 -3.31554 1.03388 0
M  V30 8505 C 804.745 -3.71793 2.12023 0
M  V30 8506 C 804.071 -5.06147 1.72392 0
M  V30 8507 C 805.371 -3.84193 3.53826 0
M  V30 8508 H 807.065 -2.00445 2.22401 0
M  V30 8509 H 804.611 -0.962996 1.07063 0
M  V30 8510 H 806.564 -4.09889 0.978225 0
M  V30 8511 H 805.288 -3.26551 0.0564142 0
M  V30 8512 H 803.947 -2.95731 2.16654 0
M  V30 8513 H 803.595 -4.97628 0.733137 0
M  V30 8514 H 803.295 -5.34041 2.451 0
M  V30 8515 H 804.819 -5.86943 1.68317 0
M  V30 8516 H 806.233 -4.52806 3.51624 0
M  V30 8517 H 804.63 -4.23538 4.2513 0
M  V30 8518 H 805.7 -2.86272 3.91377 0
M  V30 8519 N 807.043 -1.17915 -1.04565 0
M  V30 8520 C 807.991 -0.897919 -2.1457 0
M  V30 8521 C 808.985 0.139883 -1.68821 0
M  V30 8522 O 810.191 -0.00779463 -1.79998 0
M  V30 8523 H 806.566 -0.272867 -0.700748 0
M  V30 8524 H 808.537 -1.83268 -2.3549 0
M  V30 8525 C 807.286 -0.434634 -3.44973 0
M  V30 8526 H 806.609 -1.22469 -3.8058 0
M  V30 8527 H 808.049 -0.276804 -4.23095 0
M  V30 8528 C 806.508 0.848738 -3.26034 0
M  V30 8529 O 807.038 1.9141 -3.53164 0
M  V30 8530 N 805.244 0.799373 -2.79389 0
M  V30 8531 H 804.791 -0.0678192 -2.57511 0
M  V30 8532 H 804.749 1.6585 -2.67098 0
M  V30 8533 N 808.521 1.23394 -0.980386 0
M  V30 8534 C 809.431 2.28561 -0.528864 0
M  V30 8535 C 810.447 1.68946 0.416329 0
M  V30 8536 O 811.623 1.99355 0.286251 0
M  V30 8537 C 808.688 3.46323 0.16155 0
M  V30 8538 C 807.749 4.21297 -0.825044 0
M  V30 8539 C 806.982 5.33437 -0.167483 0
M  V30 8540 O 807.205 5.60812 1.04146 0
M  V30 8541 O 806.139 5.95637 -0.866047 0
M  V30 8542 H 809.965 2.69326 -1.40346 0
M  V30 8543 H 807.55 1.29325 -0.748019 0
M  V30 8544 H 809.432 4.17811 0.548841 0
M  V30 8545 H 808.107 3.0751 1.01092 0
M  V30 8546 H 807.014 3.52134 -1.26303 0
M  V30 8547 H 808.347 4.6396 -1.64322 0
M  V30 8548 N 809.999 0.752036 1.385 0
M  V30 8549 C 810.929 0.138718 2.33088 0
M  V30 8550 C 811.91 -0.705318 1.54788 0
M  V30 8551 O 813.095 -0.646821 1.83112 0
M  V30 8552 C 810.225 -0.75641 3.38963 0
M  V30 8553 C 809.179 -0.0152239 4.27997 0
M  V30 8554 C 808.505 -1.0285 5.24715 0
M  V30 8555 C 809.805 1.15226 5.09431 0
M  V30 8556 H 811.499 0.928852 2.84627 0
M  V30 8557 H 809.045 0.448111 1.3685 0
M  V30 8558 H 810.998 -1.19513 4.04097 0
M  V30 8559 H 809.722 -1.57885 2.85902 0
M  V30 8560 H 808.381 0.404061 3.64366 0
M  V30 8561 H 808.029 -1.84496 4.67943 0
M  V30 8562 H 807.729 -0.537238 5.85139 0
M  V30 8563 H 809.253 -1.46657 5.92726 0
M  V30 8564 H 810.667 0.791161 5.67815 0
M  V30 8565 H 809.064 1.57428 5.79082 0
M  V30 8566 H 810.134 1.9659 4.43261 0
M  V30 8567 N 811.477 -1.49425 0.500989 0
M  V30 8568 C 812.707 -2.06561 -0.0402858 0
M  V30 8569 C 813.115 -1.36157 -1.31369 0
M  V30 8570 O 812.458 -0.433618 -1.78509 0
M  V30 8571 C 812.52 -3.5765 -0.364269 0
M  V30 8572 C 812.184 -4.49739 0.811417 0
M  V30 8573 C 813.181 -4.91255 1.7019 0
M  V30 8574 C 810.866 -4.92036 1.01022 0
M  V30 8575 C 812.86 -5.73806 2.77534 0
M  V30 8576 C 810.547 -5.74364 2.08683 0
M  V30 8577 C 811.545 -6.15154 2.96774 0
M  V30 8578 O 811.233 -6.95836 4.02577 0
M  V30 8579 H 810.965 -0.67578 0.0172357 0
M  V30 8580 H 813.519 -1.93193 0.697553 0
M  V30 8581 H 811.749 -3.69026 -1.1557 0
M  V30 8582 H 813.438 -3.97025 -0.844156 0
M  V30 8583 H 814.204 -4.59222 1.56013 0
M  V30 8584 H 810.083 -4.59789 0.333929 0
M  V30 8585 H 813.627 -6.05564 3.4632 0
M  V30 8586 H 809.524 -6.0581 2.22855 0
M  V30 8587 H 810.292 -7.14142 3.9993 0
M  V30 8588 N 812.955 -0.234822 -1.55841 0
M  V30 8589 C 814.183 0.397745 -2.03041 0
M  V30 8590 C 814.598 1.52405 -1.11437 0
M  V30 8591 O 813.955 1.82061 -0.126466 0
M  V30 8592 C 814.006 0.916919 -3.49678 0
M  V30 8593 O 813.727 -0.164493 -4.37791 0
M  V30 8594 C 815.228 1.62139 -4.12584 0
M  V30 8595 H 812.448 0.0959214 -0.664108 0
M  V30 8596 H 814.992 -0.355156 -2.01392 0
M  V30 8597 H 813.147 1.62004 -3.519 0
M  V30 8598 H 813.561 0.227794 -5.24005 0
M  V30 8599 H 815.035 1.93651 -5.16917 0
M  V30 8600 H 815.512 2.53918 -3.58361 0
M  V30 8601 H 816.118 0.963145 -4.14251 0
M  V30 8602 N 814.433 1.57553 0.0384317 0
M  V30 8603 C 815.849 1.54663 0.39391 0
M  V30 8604 C 816.049 0.959685 1.77179 0
M  V30 8605 O 815.105 0.576647 2.45827 0
M  V30 8606 C 816.418 2.99156 0.304352 0
M  V30 8607 C 817.966 3.10659 0.382119 0
M  V30 8608 C 818.441 4.56866 0.322111 0
M  V30 8609 N 819.932 4.61629 0.38119 0
M  V30 8610 C 820.667 5.72284 0.357501 0
M  V30 8611 N 820.163 6.92207 0.286654 0
M  V30 8612 N 821.956 5.60628 0.406538 0
M  V30 8613 H 814.107 1.9406 -0.86339 0
M  V30 8614 H 816.37 0.889673 -0.327392 0
M  V30 8615 H 816.076 3.45788 -0.642141 0
M  V30 8616 H 815.95 3.60753 1.10168 0
M  V30 8617 H 818.337 2.6398 1.31904 0
M  V30 8618 H 818.418 2.5191 -0.444391 0
M  V30 8619 H 818.062 5.0421 -0.611104 0
M  V30 8620 H 817.992 5.13515 1.1666 0
M  V30 8621 H 820.483 3.75343 0.438838 0
M  V30 8622 H 820.796 7.72316 0.273421 0
M  V30 8623 H 819.141 6.9454 0.252841 0
M  V30 8624 H 822.332 4.65836 0.459812 0
M  V30 8625 H 822.505 6.46858 0.384608 0
M  V30 8626 N 815.911 -0.310526 1.54511 0
M  V30 8627 C 817.158 -1.04691 1.73338 0
M  V30 8628 C 817.486 -1.87584 0.514038 0
M  V30 8629 O 816.741 -1.89096 -0.504119 0
M  V30 8630 C 817.04 -1.98942 2.96912 0
M  V30 8631 C 816.706 -1.321 4.31115 0
M  V30 8632 C 815.368 -1.13603 4.67598 0
M  V30 8633 C 817.72 -0.842362 5.14348 0
M  V30 8634 C 815.048 -0.459102 5.84901 0
M  V30 8635 C 817.4 -0.179202 6.32346 0
M  V30 8636 C 816.064 0.0178111 6.67498 0
M  V30 8637 H 815.334 -0.38309 0.634289 0
M  V30 8638 H 817.981 -0.322723 1.88761 0
M  V30 8639 H 816.286 -2.77856 2.76231 0
M  V30 8640 H 817.983 -2.55972 3.08674 0
M  V30 8641 H 814.573 -1.47502 4.02419 0
M  V30 8642 H 818.757 -0.973013 4.86668 0
M  V30 8643 H 814.013 -0.295385 6.10686 0
M  V30 8644 H 818.187 0.199619 6.96114 0
M  V30 8645 H 815.814 0.544356 7.58249 0
M  V30 8646 N 817.389 -1.46805 -0.573248 0
M  V30 8647 C 818.666 -1.43082 -1.33368 0
M  V30 8648 C 819.046 -0.119252 -2.10763 0
M  V30 8649 O 818.394 0.899239 -2.10062 0
M  V30 8650 C 818.604 -2.66643 -2.25172 0
M  V30 8651 C 819.952 -3.13188 -2.86702 0
M  V30 8652 O 820.976 -2.67258 -2.35482 0
M  V30 8653 O 819.835 -3.92994 -3.79761 0
M  V30 8654 H 816.929 -0.569451 -0.599712 0
M  V30 8655 H 819.475 -1.58984 -0.59348 0
M  V30 8656 H 818.247 -3.53649 -1.67475 0
M  V30 8657 H 817.87 -2.53247 -3.06516 0
M  V30 8658 N 818.867 0.818669 -1.34668 0
M  V30 8659 C 819.817 1.91882 -1.23147 0
M  V30 8660 C 820.801 1.60378 -0.129509 0
M  V30 8661 O 821.993 1.73309 -0.359581 0
M  V30 8662 C 819.122 3.28612 -0.993436 0
M  V30 8663 C 818.208 3.66221 -2.13876 0
M  V30 8664 N 818.599 3.75361 -3.39024 0
M  V30 8665 C 816.897 3.96098 -2.04994 0
M  V30 8666 C 817.598 4.0836 -4.14266 0
M  V30 8667 N 816.574 4.21806 -3.429 0
M  V30 8668 H 820.376 1.97133 -2.17981 0
M  V30 8669 H 817.89 1.01257 -1.26967 0
M  V30 8670 H 819.887 4.0725 -0.891797 0
M  V30 8671 H 818.547 3.24655 -0.053824 0
M  V30 8672 H 819.558 3.58747 -3.73525 0
M  V30 8673 H 816.235 4.00236 -1.18816 0
M  V30 8674 H 817.625 4.226 -5.22359 0
M  V30 8675 N 820.346 1.18468 1.03938 0
M  V30 8676 C 821.278 0.870615 2.12021 0
M  V30 8677 C 822.291 -0.132318 1.62261 0
M  V30 8678 O 823.48 0.0956901 1.78243 0
M  V30 8679 C 820.58 0.279727 3.37744 0
M  V30 8680 C 819.753 1.32863 4.16733 0
M  V30 8681 C 818.812 0.753204 5.20781 0
M  V30 8682 O 817.838 1.42825 5.5099 0
M  V30 8683 N 819.04 -0.448664 5.78764 0
M  V30 8684 H 821.805 1.80091 2.39556 0
M  V30 8685 H 819.366 1.08524 1.20142 0
M  V30 8686 H 821.358 -0.118829 4.04526 0
M  V30 8687 H 819.928 -0.554621 3.07641 0
M  V30 8688 H 819.148 1.90245 3.45254 0
M  V30 8689 H 820.436 2.03574 4.66299 0
M  V30 8690 H 819.834 -1.01481 5.56523 0
M  V30 8691 H 818.391 -0.789125 6.47005 0
M  V30 8692 N 821.824 -1.22873 0.986916 0
M  V30 8693 C 823.064 -1.93192 0.667543 0
M  V30 8694 C 823.428 -1.7521 -0.785196 0
M  V30 8695 O 824.629 -2.39737 -1.2157 0
M  V30 8696 C 822.9 -3.4147 1.05513 0
M  V30 8697 S 824.459 -4.30425 0.853218 0
M  V30 8698 H 821.277 -0.667726 0.244261 0
M  V30 8699 H 823.879 -1.48808 1.26793 0
M  V30 8700 H 822.583 -3.52069 2.10892 0
M  V30 8701 H 822.114 -3.9086 0.446293 0
M  V30 8702 H 824.129 -4.95521 -0.259444 0
M  V30 8703 N 823.302 -0.75937 -1.38099 0
M  V30 8704 C 824.55 -0.317485 -1.99591 0
M  V30 8705 C 824.871 1.10628 -1.60581 0
M  V30 8706 O 824.141 1.7575 -0.865378 0
M  V30 8707 H 822.721 -0.114397 -0.738189 0
M  V30 8708 H 825.383 -0.974749 -1.68774 0
M  V30 8709 H 824.479 -0.385227 -3.09713 0
M  V30 8710 N 824.78 1.49157 -0.508906 0
M  V30 8711 C 826.027 2.02473 0.0327983 0
M  V30 8712 C 826.355 1.38792 1.36261 0
M  V30 8713 O 825.61 0.515576 1.88786 0
M  V30 8714 C 825.909 3.56687 0.225717 0
M  V30 8715 C 825.575 4.39046 -1.02708 0
M  V30 8716 C 824.237 4.61271 -1.37048 0
M  V30 8717 C 826.589 4.86902 -1.85946 0
M  V30 8718 C 823.917 5.28598 -2.54562 0
M  V30 8719 C 826.269 5.55521 -3.0262 0
M  V30 8720 C 824.933 5.7599 -3.3733 0
M  V30 8721 H 824.203 0.740903 0.0120017 0
M  V30 8722 H 826.85 1.79372 -0.670665 0
M  V30 8723 H 825.155 3.78511 1.01177 0
M  V30 8724 H 826.852 3.95541 0.659433 0
M  V30 8725 H 823.442 4.21994 -0.749615 0
M  V30 8726 H 827.626 4.69553 -1.6073 0
M  V30 8727 H 822.882 5.42646 -2.81682 0
M  V30 8728 H 827.056 5.91576 -3.67438 0
M  V30 8729 H 824.683 6.27934 -4.2849 0
M  V30 8730 N 826.258 0.243083 1.55714 0
M  V30 8731 C 827.188 -0.652336 2.24203 0
M  V30 8732 C 828.169 -1.1843 1.221 0
M  V30 8733 O 829.354 -1.22435 1.50743 0
M  V30 8734 C 826.484 -1.85111 2.93856 0
M  V30 8735 C 825.438 -1.45208 4.02615 0
M  V30 8736 C 824.764 -2.73137 4.59674 0
M  V30 8737 C 826.064 -0.625988 5.18535 0
M  V30 8738 H 827.758 -0.0812504 2.9929 0
M  V30 8739 H 825.304 -0.0376388 1.43951 0
M  V30 8740 H 827.257 -2.48314 3.40468 0
M  V30 8741 H 825.981 -2.44751 2.16251 0
M  V30 8742 H 824.64 -0.843406 3.56766 0
M  V30 8743 H 824.288 -3.30967 3.78774 0
M  V30 8744 H 823.988 -2.47163 5.33089 0
M  V30 8745 H 825.512 -3.37245 5.09017 0
M  V30 8746 H 826.926 -1.16223 5.61396 0
M  V30 8747 H 825.323 -0.462465 5.98315 0
M  V30 8748 H 826.393 0.362652 4.83542 0
M  V30 8749 N 827.736 -1.57571 -0.0300757 0
M  V30 8750 C 829.013 -1.80381 -0.756447 0
M  V30 8751 C 829.393 -0.840906 -1.93628 0
M  V30 8752 O 828.741 0.117143 -2.282 0
M  V30 8753 C 828.951 -3.2807 -1.19043 0
M  V30 8754 C 830.299 -3.93025 -1.60676 0
M  V30 8755 O 831.323 -3.32213 -1.28503 0
M  V30 8756 O 830.182 -5.00092 -2.20386 0
M  V30 8757 H 827.276 -0.741737 -0.365725 0
M  V30 8758 H 829.822 -1.69699 -0.00693177 0
M  V30 8759 H 828.594 -3.89748 -0.348128 0
M  V30 8760 H 828.217 -3.43637 -1.99999 0
M  V30 8761 N 829.214 0.302327 -1.54673 0
M  V30 8762 C 830.463 1.03533 -1.73101 0
M  V30 8763 C 830.776 1.88473 -0.523174 0
M  V30 8764 O 831.982 2.65029 -0.589229 0
M  V30 8765 C 830.438 1.89043 -3.06252 0
M  V30 8766 C 830.046 1.09112 -4.3451 0
M  V30 8767 C 831.79 2.61951 -3.34039 0
M  V30 8768 C 829.697 1.93891 -5.58713 0
M  V30 8769 H 828.627 0.390261 -0.645145 0
M  V30 8770 H 831.278 0.2924 -1.81155 0
M  V30 8771 H 829.66 2.67319 -2.92159 0
M  V30 8772 H 830.834 0.354596 -4.59434 0
M  V30 8773 H 829.149 0.477923 -4.13648 0
M  V30 8774 H 831.746 3.25729 -4.24033 0
M  V30 8775 H 832.089 3.30711 -2.52855 0
M  V30 8776 H 832.622 1.90725 -3.49097 0
M  V30 8777 H 829.361 1.29604 -6.4256 0
M  V30 8778 H 828.881 2.6522 -5.37976 0
M  V30 8779 H 830.56 2.51971 -5.95919 0
M  V30 8780 N 830.692 1.47107 0.565454 0
M  V30 8781 C 831.922 1.56681 1.34664 0
M  V30 8782 C 832.33 0.213011 1.87997 0
M  V30 8783 O 831.673 -0.802629 1.65238 0
M  V30 8784 C 831.735 2.52528 2.55871 0
M  V30 8785 C 831.399 3.98403 2.23883 0
M  V30 8786 C 832.396 4.87125 1.81673 0
M  V30 8787 C 830.081 4.43674 2.35496 0
M  V30 8788 C 832.075 6.19135 1.51494 0
M  V30 8789 C 829.762 5.75714 2.0493 0
M  V30 8790 C 830.76 6.63266 1.62996 0
M  V30 8791 O 830.448 7.92853 1.32813 0
M  V30 8792 H 830.18 0.531967 0.417117 0
M  V30 8793 H 832.734 1.93368 0.692669 0
M  V30 8794 H 830.964 2.10893 3.24131 0
M  V30 8795 H 832.653 2.5232 3.17945 0
M  V30 8796 H 833.419 4.534 1.72201 0
M  V30 8797 H 829.298 3.7574 2.67096 0
M  V30 8798 H 832.842 6.87429 1.1869 0
M  V30 8799 H 828.739 6.08983 2.14031 0
M  V30 8800 H 829.507 8.0528 1.46513 0
M  V30 8801 N 832.17 -0.811516 1.35101 0
M  V30 8802 C 833.117 -1.92308 1.27617 0
M  V30 8803 C 834.087 -1.6543 0.149091 0
M  V30 8804 O 835.272 -1.8789 0.331974 0
M  V30 8805 C 832.412 -3.28768 1.04908 0
M  V30 8806 C 831.525 -3.67865 2.26493 0
M  V30 8807 C 830.66 -4.9333 1.96974 0
M  V30 8808 C 829.699 -5.25041 3.1464 0
M  V30 8809 N 828.836 -6.41685 2.84929 0
M  V30 8810 H 833.676 -1.98041 2.22674 0
M  V30 8811 H 831.213 -0.968755 1.10696 0
M  V30 8812 H 833.171 -4.07426 0.897749 0
M  V30 8813 H 831.801 -3.22517 0.135151 0
M  V30 8814 H 830.853 -2.84507 2.52507 0
M  V30 8815 H 832.165 -3.87263 3.14371 0
M  V30 8816 H 831.319 -5.79803 1.78643 0
M  V30 8817 H 830.058 -4.75958 1.06374 0
M  V30 8818 H 829.063 -4.3706 3.33554 0
M  V30 8819 H 830.288 -5.44346 4.06035 0
M  V30 8820 H 828.234 -6.25747 1.96918 0
M  V30 8821 H 828.151 -6.6131 3.66341 0
M  V30 8822 H 829.419 -7.31198 2.70128 0
M  V30 8823 N 833.648 -1.19017 -1.03309 0
M  V30 8824 C 834.894 -0.991681 -1.769 0
M  V30 8825 C 835.227 0.476813 -1.88255 0
M  V30 8826 O 834.502 1.35407 -1.39625 0
M  V30 8827 C 834.785 -1.65627 -3.19749 0
M  V30 8828 C 834.638 -3.19813 -3.1629 0
M  V30 8829 C 835.957 -1.37579 -4.18043 0
M  V30 8830 H 833.076 -0.361674 -0.642153 0
M  V30 8831 H 835.718 -1.46795 -1.20628 0
M  V30 8832 H 833.868 -1.25132 -3.67796 0
M  V30 8833 H 835.54 -3.69494 -2.76174 0
M  V30 8834 H 833.783 -3.51578 -2.54117 0
M  V30 8835 H 834.454 -3.61457 -4.17196 0
M  V30 8836 H 836.93 -1.72679 -3.78578 0
M  V30 8837 H 835.806 -1.86636 -5.16196 0
M  V30 8838 H 836.067 -0.300118 -4.4108 0
M  V30 8839 N 835.127 1.22348 -0.993418 0
M  V30 8840 C 836.037 2.27987 -0.553076 0
M  V30 8841 C 837.053 1.69378 0.398386 0
M  V30 8842 O 838.229 1.99648 0.26509 0
M  V30 8843 C 835.294 3.46475 0.124809 0
M  V30 8844 C 834.355 4.20399 -0.869682 0
M  V30 8845 C 833.588 5.33229 -0.224052 0
M  V30 8846 O 833.811 5.61885 0.981915 0
M  V30 8847 O 832.745 5.94685 -0.929174 0
M  V30 8848 H 836.571 2.67822 -1.43195 0
M  V30 8849 H 834.156 1.28525 -0.761694 0
M  V30 8850 H 836.038 4.18369 0.504496 0
M  V30 8851 H 834.713 3.08565 0.978243 0
M  V30 8852 H 833.62 3.50774 -1.30031 0
M  V30 8853 H 834.953 4.62191 -1.69233 0
M  V30 8854 N 836.605 0.766683 1.37694 0
M  V30 8855 C 837.833 0.339939 2.04088 0
M  V30 8856 C 838.248 -1.03617 1.57826 0
M  V30 8857 O 837.605 -1.6605 0.757214 0
M  V30 8858 C 837.656 0.368269 3.59619 0
M  V30 8859 O 837.377 1.69009 4.04188 0
M  V30 8860 C 838.878 -0.0707053 4.43244 0
M  V30 8861 H 836.098 0.143189 0.655544 0
M  V30 8862 H 838.642 1.03919 1.76128 0
M  V30 8863 H 836.797 -0.282359 3.8637 0
M  V30 8864 H 837.211 1.62523 4.98685 0
M  V30 8865 H 838.685 0.000273538 5.52 0
M  V30 8866 H 839.162 -1.1204 4.24669 0
M  V30 8867 H 839.768 0.551543 4.21709 0
M  V30 8868 N 838.083 -1.48885 0.516809 0
M  V30 8869 C 839.332 -2.01686 -0.0239899 0
M  V30 8870 C 839.645 -1.40029 -1.3657 0
M  V30 8871 O 840.851 -1.84249 -1.9941 0
M  V30 8872 C 839.307 -3.59779 -0.0931825 0
M  V30 8873 C 838.915 -4.30416 1.24283 0
M  V30 8874 C 840.659 -4.20471 -0.583507 0
M  V30 8875 C 838.566 -5.80408 1.13494 0
M  V30 8876 H 837.496 -0.753892 -0.0127376 0
M  V30 8877 H 840.147 -1.71273 0.65861 0
M  V30 8878 H 838.529 -3.86976 -0.840577 0
M  V30 8879 H 839.703 -4.14905 2.00476 0
M  V30 8880 H 838.018 -3.81539 1.66785 0
M  V30 8881 H 840.615 -5.30333 -0.681987 0
M  V30 8882 H 840.958 -3.84898 -1.58617 0
M  V30 8883 H 841.491 -3.97654 0.107814 0
M  V30 8884 H 838.23 -6.20532 2.11235 0
M  V30 8885 H 837.75 -5.98368 0.414167 0
M  V30 8886 H 839.429 -6.41781 0.820162 0
M  V30 8887 N 839.561 -0.251338 -1.55583 0
M  V30 8888 C 840.809 0.371434 -1.98657 0
M  V30 8889 C 841.13 1.58143 -1.14087 0
M  V30 8890 O 840.4 1.94607 -0.224708 0
M  V30 8891 H 838.98 0.140225 -0.733721 0
M  V30 8892 H 841.642 -0.351157 -1.9171 0
M  V30 8893 H 840.738 0.677554 -3.04657 0
M  V30 8894 N 841.039 1.57585 0.0217189 0
M  V30 8895 C 842.316 1.80779 0.74687 0
M  V30 8896 C 842.696 0.851163 1.9318 0
M  V30 8897 O 842.044 -0.105039 2.28258 0
M  V30 8898 C 842.254 3.28696 1.17302 0
M  V30 8899 C 843.602 3.93871 1.58589 0
M  V30 8900 O 844.626 3.3289 1.2674 0
M  V30 8901 O 843.485 5.01254 2.1773 0
M  V30 8902 H 840.579 0.743666 0.361786 0
M  V30 8903 H 843.125 1.697 -0.00206785 0
M  V30 8904 H 841.897 3.89927 0.327453 0
M  V30 8905 H 841.52 3.44692 1.98174 0
M  V30 8906 N 842.517 -0.29412 1.54831 0
M  V30 8907 C 843.48 -1.3461 1.85507 0
M  V30 8908 C 844.48 -1.43359 0.728343 0
M  V30 8909 O 845.67 -1.42875 0.996609 0
M  V30 8910 C 842.802 -2.73012 2.0415 0
M  V30 8911 H 843.995 -1.08651 2.79526 0
M  V30 8912 H 841.548 -0.531138 1.46999 0
M  V30 8913 H 842.283 -3.04183 1.12441 0
M  V30 8914 H 842.068 -2.68051 2.86166 0
M  V30 8915 H 843.558 -3.49061 2.29229 0
M  V30 8916 N 843.995 -1.47404 -0.557645 0
M  V30 8917 C 845.225 -1.57393 -1.33832 0
M  V30 8918 C 845.633 -0.222978 -1.87881 0
M  V30 8919 O 844.976 0.793854 -1.65661 0
M  V30 8920 C 845.038 -2.53882 -2.54528 0
M  V30 8921 C 844.702 -3.99585 -2.21767 0
M  V30 8922 C 845.699 -4.88082 -1.79087 0
M  V30 8923 C 843.384 -4.44917 -2.3314 0
M  V30 8924 C 845.378 -6.1993 -1.48209 0
M  V30 8925 C 843.065 -5.76793 -2.01874 0
M  V30 8926 C 844.063 -6.64121 -1.59476 0
M  V30 8927 O 843.751 -7.93546 -1.28607 0
M  V30 8928 H 843.483 -0.534172 -0.41429 0
M  V30 8929 H 846.037 -1.93733 -0.682404 0
M  V30 8930 H 844.267 -2.12609 -3.23009 0
M  V30 8931 H 845.956 -2.54003 -3.16603 0
M  V30 8932 H 846.722 -4.54307 -1.69794 0
M  V30 8933 H 842.601 -3.77152 -2.65099 0
M  V30 8934 H 846.145 -6.88049 -1.15043 0
M  V30 8935 H 842.042 -6.1011 -2.10799 0
M  V30 8936 H 842.81 -8.06046 -1.42241 0
M  V30 8937 N 845.473 0.80434 -1.35529 0
M  V30 8938 C 846.713 1.57489 -1.30295 0
M  V30 8939 C 847.077 1.91621 0.120528 0
M  V30 8940 O 848.278 2.67151 0.297265 0
M  V30 8941 C 846.549 2.82741 -2.18615 0
M  V30 8942 S 848.108 3.73125 -2.30918 0
M  V30 8943 H 844.926 0.539573 -0.463014 0
M  V30 8944 H 847.528 0.948601 -1.70944 0
M  V30 8945 H 846.232 2.55692 -3.21014 0
M  V30 8946 H 845.763 3.50353 -1.78931 0
M  V30 8947 H 847.778 4.73122 -1.49566 0
M  V30 8948 N 846.951 1.19563 1.02676 0
M  V30 8949 C 848.197 1.00105 1.76371 0
M  V30 8950 C 848.53 -0.466823 1.88506 0
M  V30 8951 O 847.805 -1.34665 1.40341 0
M  V30 8952 C 848.088 1.67321 3.18866 0
M  V30 8953 C 847.941 3.21486 3.1459 0
M  V30 8954 C 849.26 1.39794 4.17308 0
M  V30 8955 H 846.379 0.365075 0.640226 0
M  V30 8956 H 849.021 1.47433 1.19848 0
M  V30 8957 H 847.171 1.27081 3.67128 0
M  V30 8958 H 848.843 3.70953 2.7421 0
M  V30 8959 H 847.086 3.5292 2.52249 0
M  V30 8960 H 847.757 3.63665 4.15273 0
M  V30 8961 H 850.233 1.74685 3.77657 0
M  V30 8962 H 849.109 1.89371 5.15199 0
M  V30 8963 H 849.37 0.323505 4.40915 0
M  V30 8964 N 848.429 -1.21819 0.999893 0
M  V30 8965 C 849.392 -2.22227 0.561044 0
M  V30 8966 C 850.392 -1.56722 -0.359858 0
M  V30 8967 O 851.582 -1.73546 -0.150848 0
M  V30 8968 C 848.714 -3.40409 -0.182987 0
M  V30 8969 H 849.907 -2.62567 1.44909 0
M  V30 8970 H 847.46 -1.34991 0.78785 0
M  V30 8971 H 848.195 -3.05551 -1.08671 0
M  V30 8972 H 847.98 -3.89171 0.47833 0
M  V30 8973 H 849.47 -4.14856 -0.477952 0
M  V30 8974 N 849.908 -0.773975 -1.37286 0
M  V30 8975 C 850.871 -0.167974 -2.28584 0
M  V30 8976 C 851.871 0.625662 -1.48129 0
M  V30 8977 O 853.061 0.448924 -1.68316 0
M  V30 8978 C 850.193 0.769364 -3.32105 0
M  V30 8979 H 851.386 -0.972806 -2.83684 0
M  V30 8980 H 848.939 -0.542335 -1.46589 0
M  V30 8981 H 849.674 1.59912 -2.82132 0
M  V30 8982 H 849.459 0.202419 -3.91577 0
M  V30 8983 H 850.949 1.18872 -4.00324 0
M  V30 8984 N 851.386 1.48609 -0.524698 0
M  V30 8985 C 852.634 2.02097 0.0112991 0
M  V30 8986 C 852.955 1.40455 1.35268 0
M  V30 8987 O 852.225 0.56807 1.87483 0
M  V30 8988 H 850.805 0.746966 0.00716426 0
M  V30 8989 H 853.467 1.82378 -0.687329 0
M  V30 8990 H 852.563 3.11855 0.123531 0
M  V30 8991 N 852.864 0.259585 1.55447 0
M  V30 8992 C 853.794 -0.62852 2.24882 0
M  V30 8993 C 854.775 -1.17128 1.23349 0
M  V30 8994 O 855.96 -1.20829 1.52033 0
M  V30 8995 C 853.09 -1.81983 2.95803 0
M  V30 8996 C 852.044 -1.40929 4.04132 0
M  V30 8997 C 851.37 -2.68246 4.62545 0
M  V30 8998 C 852.67 -0.570956 5.1917 0
M  V30 8999 H 854.364 -0.0495021 2.99359 0
M  V30 9000 H 851.91 -0.0223688 1.43983 0
M  V30 9001 H 853.863 -2.44689 3.43082 0
M  V30 9002 H 852.587 -2.42444 2.18835 0
M  V30 9003 H 851.246 -0.805519 3.57641 0
M  V30 9004 H 850.894 -3.26931 3.82263 0
M  V30 9005 H 850.594 -2.41495 5.35681 0
M  V30 9006 H 852.118 -3.31827 5.12565 0
M  V30 9007 H 853.532 -1.10262 5.62597 0
M  V30 9008 H 851.929 -0.398979 5.98772 0
M  V30 9009 H 852.999 0.413918 4.8313 0
M  V30 9010 N 854.342 -1.57594 -0.0133615 0
M  V30 9011 C 855.292 -2.04048 -1.01726 0
M  V30 9012 C 856.276 -0.932682 -1.3111 0
M  V30 9013 O 857.468 -1.19652 -1.30432 0
M  V30 9014 C 854.597 -2.53637 -2.31351 0
M  V30 9015 C 853.683 -3.71269 -2.04989 0
M  V30 9016 N 854.074 -4.83436 -1.48739 0
M  V30 9017 C 852.372 -3.78943 -2.35198 0
M  V30 9018 C 853.073 -5.64961 -1.38542 0
M  V30 9019 N 852.049 -5.10554 -1.86643 0
M  V30 9020 H 855.851 -2.88188 -0.576623 0
M  V30 9021 H 853.365 -1.60912 -0.219344 0
M  V30 9022 H 855.362 -2.85186 -3.04096 0
M  V30 9023 H 854.022 -1.7091 -2.76079 0
M  V30 9024 H 855.033 -5.04558 -1.16798 0
M  V30 9025 H 851.71 -3.07047 -2.82893 0
M  V30 9026 H 853.1 -6.65092 -0.954075 0
M  V30 9027 N 855.82 0.285905 -1.54985 0
M  V30 9028 C 857.236 0.632405 -1.46536 0
M  V30 9029 C 857.436 1.90074 -0.668888 0
M  V30 9030 O 856.492 2.51839 -0.182586 0
M  V30 9031 C 857.805 0.771361 -2.90638 0
M  V30 9032 C 859.353 0.866262 -3.00774 0
M  V30 9033 C 859.828 1.0371 -4.46103 0
M  V30 9034 N 861.319 1.10294 -4.49877 0
M  V30 9035 C 862.054 1.25369 -5.59527 0
M  V30 9036 N 861.55 1.37246 -6.7907 0
M  V30 9037 N 863.343 1.28377 -5.47244 0
M  V30 9038 H 855.494 -0.547226 -2.0523 0
M  V30 9039 H 857.757 -0.183298 -0.930111 0
M  V30 9040 H 857.463 -0.0899485 -3.51585 0
M  V30 9041 H 857.337 1.65569 -3.3892 0
M  V30 9042 H 859.724 1.71805 -2.39931 0
M  V30 9043 H 859.805 -0.0424049 -2.55765 0
M  V30 9044 H 859.449 0.190021 -5.07544 0
M  V30 9045 H 859.379 1.96022 -4.88757 0
M  V30 9046 H 861.87 1.02407 -3.6376 0
M  V30 9047 H 862.183 1.48546 -7.58389 0
M  V30 9048 H 860.528 1.34274 -6.81906 0
M  V30 9049 H 863.719 1.1872 -4.52795 0
M  V30 9050 H 863.892 1.39782 -6.32744 0
M  V30 9051 N 857.298 1.47698 0.54982 0
M  V30 9052 C 858.245 1.60739 1.65625 0
M  V30 9053 C 859.215 0.450129 1.59884 0
M  V30 9054 O 860.4 0.671123 1.78607 0
M  V30 9055 C 857.54 1.63457 3.03934 0
M  V30 9056 C 856.653 2.90152 3.20056 0
M  V30 9057 C 855.788 2.84157 4.48807 0
M  V30 9058 C 854.827 4.05644 4.58387 0
M  V30 9059 N 853.964 3.97843 5.78503 0
M  V30 9060 H 858.804 2.55234 1.53817 0
M  V30 9061 H 856.341 1.26593 0.749173 0
M  V30 9062 H 858.299 1.63015 3.84034 0
M  V30 9063 H 856.929 0.724689 3.1456 0
M  V30 9064 H 855.981 3.00428 2.33339 0
M  V30 9065 H 857.293 3.80097 3.22998 0
M  V30 9066 H 856.447 2.82006 5.37175 0
M  V30 9067 H 855.186 1.91908 4.48356 0
M  V30 9068 H 854.191 4.08092 3.6843 0
M  V30 9069 H 855.416 4.9903 4.60593 0
M  V30 9070 H 853.362 3.08401 5.78986 0
M  V30 9071 H 853.279 4.81473 5.82855 0
M  V30 9072 H 854.547 3.99719 6.69212 0
M  V30 9073 N 858.776 -0.797141 1.35954 0
M  V30 9074 C 860.001 -1.59097 1.33053 0
M  V30 9075 C 860.426 -1.87897 -0.0874592 0
M  V30 9076 O 859.784 -1.47291 -1.05712 0
M  V30 9077 C 859.832 -2.89346 2.152 0
M  V30 9078 O 858.936 -3.826 1.5392 0
M  V30 9079 H 858.277 -0.482895 0.45575 0
M  V30 9080 H 860.807 -0.988633 1.79129 0
M  V30 9081 H 860.817 -3.38686 2.27499 0
M  V30 9082 H 859.492 -2.6771 3.18283 0
M  V30 9083 H 858.069 -3.41174 1.50516 0
M  V30 9084 N 860.254 -1.20106 -1.0204 0
M  V30 9085 C 861.184 -0.970301 -2.12385 0
M  V30 9086 C 862.165 0.099378 -1.69809 0
M  V30 9087 O 863.35 -0.057365 -1.94115 0
M  V30 9088 C 860.48 -0.517431 -3.43424 0
M  V30 9089 C 859.434 -1.52992 -3.99722 0
M  V30 9090 C 858.76 -0.933817 -5.26483 0
M  V30 9091 C 860.06 -2.91257 -4.33551 0
M  V30 9092 H 861.754 -1.89316 -2.31948 0
M  V30 9093 H 859.3 -0.911655 -1.11467 0
M  V30 9094 H 861.253 -0.343243 -4.2 0
M  V30 9095 H 859.977 0.441049 -3.23608 0
M  V30 9096 H 858.636 -1.6914 -3.2525 0
M  V30 9097 H 858.284 0.0324763 -5.0299 0
M  V30 9098 H 857.984 -1.60999 -5.65113 0
M  V30 9099 H 859.508 -0.770614 -6.05718 0
M  V30 9100 H 860.922 -2.78642 -5.0103 0
M  V30 9101 H 859.319 -3.55745 -4.83286 0
M  V30 9102 H 860.389 -3.43269 -3.42483 0
M  V30 9103 N 861.732 1.21287 -1.00634 0
M  V30 9104 C 862.972 1.92106 -0.698194 0
M  V30 9105 C 863.336 1.76437 0.757222 0
M  V30 9106 O 864.537 2.41641 1.17741 0
M  V30 9107 C 862.808 3.39748 -1.10932 0
M  V30 9108 S 864.367 4.29013 -0.921586 0
M  V30 9109 H 861.185 0.663755 -0.254853 0
M  V30 9110 H 863.787 1.46772 -1.29145 0
M  V30 9111 H 862.491 3.48669 -2.16467 0
M  V30 9112 H 862.022 3.90101 -0.508419 0
M  V30 9113 H 864.037 4.95871 0.180578 0
M  V30 9114 N 863.21 0.781244 1.36873 0
M  V30 9115 C 864.16 0.147313 2.27524 0
M  V30 9116 C 865.144 -0.663928 1.46563 0
M  V30 9117 O 866.336 -0.525343 1.69024 0
M  V30 9118 C 863.465 -0.723511 3.35589 0
M  V30 9119 C 862.551 0.0960763 4.23991 0
M  V30 9120 N 862.942 1.14649 4.92635 0
M  V30 9121 C 861.24 -0.126397 4.45821 0
M  V30 9122 C 861.941 1.64474 5.57964 0
M  V30 9123 N 860.917 0.955316 5.3514 0
M  V30 9124 H 864.719 0.951406 2.78075 0
M  V30 9125 H 862.233 0.619913 1.50103 0
M  V30 9126 H 864.23 -1.19351 3.99451 0
M  V30 9127 H 862.89 -1.52624 2.86594 0
M  V30 9128 H 863.901 1.5288 4.94821 0
M  V30 9129 H 860.578 -0.900284 4.07678 0
M  V30 9130 H 861.968 2.52124 6.22803 0
M  V30 9131 N 864.689 -1.48329 0.532571 0
M  V30 9132 C 865.652 -2.2816 -0.218069 0
M  V30 9133 C 866.652 -1.35526 -0.865409 0
M  V30 9134 O 867.842 -1.58394 -0.725061 0
M  V30 9135 C 864.974 -3.1448 -1.31586 0
M  V30 9136 H 866.167 -2.95987 0.482865 0
M  V30 9137 H 863.72 -1.53612 0.288603 0
M  V30 9138 H 864.455 -2.5129 -2.04997 0
M  V30 9139 H 864.24 -3.82625 -0.856779 0
M  V30 9140 H 865.73 -3.74693 -1.84377 0
M  V30 9141 N 866.167 -0.267825 -1.55308 0
M  V30 9142 C 867.114 0.6228 -2.22238 0
M  V30 9143 C 868.084 1.15536 -1.19334 0
M  V30 9144 O 869.269 1.206 -1.47852 0
M  V30 9145 C 866.409 1.80447 -2.94164 0
M  V30 9146 C 865.522 1.30646 -4.11771 0
M  V30 9147 C 864.657 2.44935 -4.7136 0
M  V30 9148 C 863.696 1.92099 -5.81175 0
M  V30 9149 N 862.833 2.99834 -6.34857 0
M  V30 9150 H 867.673 0.0453874 -2.97965 0
M  V30 9151 H 865.21 0.0106371 -1.47096 0
M  V30 9152 H 867.168 2.49896 -3.34078 0
M  V30 9153 H 865.798 2.35403 -2.20874 0
M  V30 9154 H 864.85 0.505314 -3.77029 0
M  V30 9155 H 866.162 0.879409 -4.90987 0
M  V30 9156 H 865.316 3.2239 -5.13955 0
M  V30 9157 H 864.055 2.90951 -3.91406 0
M  V30 9158 H 863.06 1.13122 -5.38037 0
M  V30 9159 H 864.285 1.47027 -6.62993 0
M  V30 9160 H 862.231 3.45246 -5.578 0
M  V30 9161 H 862.148 2.61524 -7.09324 0
M  V30 9162 H 863.416 3.77286 -6.82111 0
M  V30 9163 N 867.645 1.57599 0.00500368 0
M  V30 9164 C 869.056 1.78462 0.54848 0
M  V30 9165 C 869.407 0.901869 1.74243 0
M  V30 9166 O 868.532 0.103014 2.16155 0
M  V30 9167 C 869.127 3.2365 1.00179 0
M  V30 9168 C 867.686 3.45627 1.49061 0
M  V30 9169 C 866.833 2.73794 0.439531 0
M  V30 9170 H 869.784 1.57151 -0.22118 0
M  V30 9171 H 869.805 3.31488 1.86805 0
M  V30 9172 H 869.317 3.87873 0.132607 0
M  V30 9173 H 867.418 2.86612 2.38085 0
M  V30 9174 H 867.531 4.54298 1.52152 0
M  V30 9175 H 865.895 2.38267 0.900043 0
M  V30 9176 H 866.678 3.40714 -0.420599 0
M  V30 9177 N 869.123 -0.277682 1.55134 0
M  V30 9178 C 870.372 -1.00766 1.74726 0
M  V30 9179 C 870.685 -1.87617 0.553092 0
M  V30 9180 O 871.891 -2.64058 0.631318 0
M  V30 9181 C 870.347 -1.84147 3.09221 0
M  V30 9182 C 869.955 -1.02186 4.3619 0
M  V30 9183 C 871.699 -2.56604 3.38164 0
M  V30 9184 C 869.606 -1.84978 5.61727 0
M  V30 9185 H 868.536 -0.379948 0.651273 0
M  V30 9186 H 871.187 -0.263543 1.81598 0
M  V30 9187 H 869.569 -2.62637 2.96375 0
M  V30 9188 H 870.743 -0.281459 4.5994 0
M  V30 9189 H 869.058 -0.412054 4.14356 0
M  V30 9190 H 871.655 -3.18942 4.29162 0
M  V30 9191 H 871.998 -3.26647 2.58085 0
M  V30 9192 H 872.531 -1.85147 3.52087 0
M  V30 9193 H 869.27 -1.19365 6.4454 0
M  V30 9194 H 868.79 -2.56628 5.42128 0
M  V30 9195 H 870.469 -2.42458 5.99853 0
M  V30 9196 N 870.601 -1.47988 -0.541979 0
M  V30 9197 C 871.564 -1.61148 -1.62984 0
M  V30 9198 C 872.564 -0.48553 -1.53295 0
M  V30 9199 O 873.754 -0.751012 -1.5718 0
M  V30 9200 C 870.886 -1.57038 -3.02576 0
M  V30 9201 H 872.079 -2.58138 -1.52659 0
M  V30 9202 H 869.632 -1.36405 -0.763106 0
M  V30 9203 H 870.367 -0.614807 -3.18419 0
M  V30 9204 H 870.152 -2.38769 -3.11018 0
M  V30 9205 H 871.642 -1.69416 -3.81691 0
M  V30 9206 N 872.079 0.78992 -1.36375 0
M  V30 9207 C 873.009 1.91683 -1.33341 0
M  V30 9208 C 873.99 1.68861 -0.204965 0
M  V30 9209 O 875.175 1.89982 -0.402531 0
M  V30 9210 C 872.305 3.28696 -1.12143 0
M  V30 9211 C 871.259 3.66041 -2.21806 0
M  V30 9212 C 870.585 5.01399 -1.85751 0
M  V30 9213 C 871.885 3.74677 -3.63888 0
M  V30 9214 H 873.579 1.94478 -2.27637 0
M  V30 9215 H 871.125 0.934271 -1.09578 0
M  V30 9216 H 873.078 4.07151 -1.08656 0
M  V30 9217 H 871.802 3.26287 -0.142974 0
M  V30 9218 H 870.461 2.89883 -2.24418 0
M  V30 9219 H 870.109 4.9551 -0.864817 0
M  V30 9220 H 869.809 5.27355 -2.59173 0
M  V30 9221 H 871.333 5.82274 -1.83819 0
M  V30 9222 H 872.747 4.43324 -3.63506 0
M  V30 9223 H 871.144 4.12118 -4.3621 0
M  V30 9224 H 872.214 2.75795 -3.9883 0
M  V30 9225 N 873.557 1.20646 1.01402 0
M  V30 9226 C 874.49 0.900926 2.09663 0
M  V30 9227 C 875.468 -0.14801 1.61925 0
M  V30 9228 O 876.652 -0.0210235 1.88488 0
M  V30 9229 C 873.779 0.351097 3.36875 0
M  V30 9230 C 872.825 1.38142 4.03508 0
M  V30 9231 S 873.658 2.94741 4.47089 0
M  V30 9232 C 874.814 2.41341 5.77499 0
M  V30 9233 H 875.047 1.81773 2.35257 0
M  V30 9234 H 872.58 1.03521 1.14555 0
M  V30 9235 H 874.538 0.0404201 4.1048 0
M  V30 9236 H 873.199 -0.544255 3.09349 0
M  V30 9237 H 872.392 0.94614 4.9504 0
M  V30 9238 H 871.994 1.63971 3.36139 0
M  V30 9239 H 874.286 1.81263 6.52802 0
M  V30 9240 H 875.229 3.31278 6.25828 0
M  V30 9241 H 875.637 1.83374 5.33886 0
M  V30 9242 N 875.035 -1.20752 1.01276 0
M  V30 9243 C 875.998 -2.2162 0.584583 0
M  V30 9244 C 876.998 -1.57094 -0.343215 0
M  V30 9245 O 878.188 -1.73696 -0.132433 0
M  V30 9246 C 875.32 -3.40583 -0.146872 0
M  V30 9247 H 876.513 -2.61015 1.47686 0
M  V30 9248 H 874.066 -1.34148 0.802123 0
M  V30 9249 H 874.801 -3.06686 -1.05424 0
M  V30 9250 H 874.586 -3.88642 0.51958 0
M  V30 9251 H 876.076 -4.15339 -0.433924 0
M  V30 9252 N 876.513 -0.788492 -1.36457 0
M  V30 9253 C 877.443 -0.200468 -2.32638 0
M  V30 9254 C 878.424 0.664031 -1.56603 0
M  V30 9255 O 879.609 0.598045 -1.84762 0
M  V30 9256 C 876.739 0.666274 -3.40849 0
M  V30 9257 C 875.693 -0.0982574 -4.27887 0
M  V30 9258 C 875.019 0.889018 -5.27258 0
M  V30 9259 C 876.319 -1.28692 -5.06197 0
M  V30 9260 H 878.013 -1.00399 -2.82065 0
M  V30 9261 H 875.559 -0.484237 -1.35614 0
M  V30 9262 H 877.512 1.08757 -4.07124 0
M  V30 9263 H 876.236 1.50249 -2.89987 0
M  V30 9264 H 874.895 -0.500525 -3.63167 0
M  V30 9265 H 874.543 1.72024 -4.7267 0
M  V30 9266 H 874.243 0.381909 -5.86358 0
M  V30 9267 H 875.767 1.30891 -5.96406 0
M  V30 9268 H 877.181 -0.941429 -5.65517 0
M  V30 9269 H 875.578 -1.72726 -5.74705 0
M  V30 9270 H 876.648 -2.08273 -4.37893 0
M  V30 9271 N 877.991 1.48044 -0.54043 0
M  V30 9272 C 878.938 2.29781 0.216597 0
M  V30 9273 C 879.908 1.38021 0.924094 0
M  V30 9274 O 881.093 1.66985 0.923078 0
M  V30 9275 C 878.233 3.21623 1.2511 0
M  V30 9276 C 877.346 4.28467 0.551384 0
M  V30 9277 C 876.481 5.07477 1.56972 0
M  V30 9278 C 875.52 6.06113 0.854048 0
M  V30 9279 N 874.657 6.78143 1.81842 0
M  V30 9280 H 879.497 2.94001 -0.486578 0
M  V30 9281 H 877.034 1.44929 -0.251789 0
M  V30 9282 H 878.992 3.73279 1.8633 0
M  V30 9283 H 877.622 2.59305 1.92252 0
M  V30 9284 H 876.674 3.79997 -0.174982 0
M  V30 9285 H 877.986 4.98799 -0.0100542 0
M  V30 9286 H 877.14 5.63199 2.25592 0
M  V30 9287 H 875.879 4.37008 2.16507 0
M  V30 9288 H 874.884 5.49585 0.153838 0
M  V30 9289 H 876.109 6.78584 0.264675 0
M  V30 9290 H 874.055 6.10417 2.40265 0
M  V30 9291 H 873.972 7.44587 1.3087 0
M  V30 9292 H 875.24 7.38448 2.49628 0
M  V30 9293 N 879.47 0.276058 1.55163 0
M  V30 9294 C 880.403 -0.652386 2.18676 0
M  V30 9295 C 881.381 -1.15151 1.148 0
M  V30 9296 O 882.565 -1.22431 1.43328 0
M  V30 9297 C 879.692 -1.88982 2.81076 0
M  V30 9298 C 878.738 -1.52609 3.98262 0
M  V30 9299 S 879.571 -0.603445 5.32089 0
M  V30 9300 C 880.727 -1.84923 5.97958 0
M  V30 9301 H 880.96 -0.112733 2.97086 0
M  V30 9302 H 878.493 0.0603118 1.54282 0
M  V30 9303 H 880.451 -2.60007 3.17658 0
M  V30 9304 H 879.112 -2.40061 2.02557 0
M  V30 9305 H 878.305 -2.44689 4.40617 0
M  V30 9306 H 877.907 -0.89601 3.63108 0
M  V30 9307 H 880.199 -2.79303 6.17249 0
M  V30 9308 H 881.142 -1.46868 6.92702 0
M  V30 9309 H 881.55 -2.0146 5.27327 0
M  V30 9310 N 880.948 -1.576 0.00335426 0
M  V30 9311 C 881.881 -2.04085 -1.021 0
M  V30 9312 C 882.859 -0.931382 -1.33282 0
M  V30 9313 O 884.043 -1.19976 -1.45389 0
M  V30 9314 C 881.17 -2.44128 -2.34775 0
M  V30 9315 C 880.216 -3.65841 -2.19232 0
M  V30 9316 S 881.049 -5.13616 -1.51521 0
M  V30 9317 C 882.205 -5.56931 -2.8562 0
M  V30 9318 H 882.438 -2.90652 -0.625192 0
M  V30 9319 H 879.971 -1.52998 -0.207611 0
M  V30 9320 H 881.929 -2.67866 -3.1106 0
M  V30 9321 H 880.59 -1.57954 -2.71495 0
M  V30 9322 H 879.783 -3.9162 -3.17253 0
M  V30 9323 H 879.385 -3.42122 -1.51091 0
M  V30 9324 H 881.677 -5.59596 -3.81914 0
M  V30 9325 H 882.62 -6.5683 -2.64536 0
M  V30 9326 H 883.028 -4.84504 -2.89683 0
M  V30 9327 N 882.426 0.269451 -1.5528 0
M  V30 9328 C 883.336 1.35511 -1.91505 0
M  V30 9329 C 884.352 1.53854 -0.812712 0
M  V30 9330 O 885.528 1.67912 -1.1121 0
M  V30 9331 C 882.593 2.6937 -2.18267 0
M  V30 9332 C 881.654 2.59743 -3.41807 0
M  V30 9333 C 880.887 3.87219 -3.67283 0
M  V30 9334 O 881.11 4.88066 -2.95208 0
M  V30 9335 O 880.044 3.87209 -4.60818 0
M  V30 9336 H 883.87 1.07785 -2.8393 0
M  V30 9337 H 881.455 0.468282 -1.41871 0
M  V30 9338 H 883.337 3.48513 -2.36889 0
M  V30 9339 H 882.012 2.96874 -1.29024 0
M  V30 9340 H 880.919 1.78964 -3.28516 0
M  V30 9341 H 882.252 2.37188 -4.3128 0
M  V30 9342 N 883.904 1.48273 0.534124 0
M  V30 9343 C 884.834 1.6538 1.64839 0
M  V30 9344 C 885.815 0.502741 1.62501 0
M  V30 9345 O 887 0.734799 1.79762 0
M  V30 9346 C 884.13 1.68949 3.03436 0
M  V30 9347 C 883.084 2.83513 3.20631 0
M  V30 9348 C 882.41 2.72169 4.60248 0
M  V30 9349 C 883.71 4.24858 3.03797 0
M  V30 9350 H 885.404 2.58663 1.50777 0
M  V30 9351 H 882.95 1.24479 0.723937 0
M  V30 9352 H 884.903 1.79505 3.81256 0
M  V30 9353 H 883.627 0.722415 3.1851 0
M  V30 9354 H 882.286 2.72505 2.45227 0
M  V30 9355 H 881.934 1.7344 4.72152 0
M  V30 9356 H 881.634 3.49042 4.72698 0
M  V30 9357 H 883.158 2.84687 5.40172 0
M  V30 9358 H 884.572 4.36721 3.71413 0
M  V30 9359 H 882.969 5.02697 3.27743 0
M  V30 9360 H 884.039 4.41611 2.0027 0
M  V30 9361 N 885.382 -0.782676 1.36792 0
M  V30 9362 C 886.607 -1.57676 1.34733 0
M  V30 9363 C 887.032 -1.87979 -0.0675253 0
M  V30 9364 O 886.39 -1.48404 -1.04144 0
M  V30 9365 C 886.438 -2.87047 2.18257 0
M  V30 9366 O 885.542 -3.80946 1.57969 0
M  V30 9367 H 884.883 -0.478034 0.460846 0
M  V30 9368 H 887.413 -0.969578 1.80168 0
M  V30 9369 H 887.423 -3.36254 2.31079 0
M  V30 9370 H 886.098 -2.64319 3.21104 0
M  V30 9371 H 884.675 -3.39558 1.54126 0
M  V30 9372 N 886.86 -1.21182 -1.00761 0
M  V30 9373 C 887.77 -0.984691 -2.12934 0
M  V30 9374 C 888.786 0.0623657 -1.73888 0
M  V30 9375 O 889.962 -0.1271 -2.00999 0
M  V30 9376 C 887.027 -0.549447 -3.42319 0
M  V30 9377 C 886.088 -1.66841 -3.95553 0
M  V30 9378 C 885.321 -1.25384 -5.18763 0
M  V30 9379 O 885.544 -0.126333 -5.7026 0
M  V30 9380 O 884.478 -2.06475 -5.65377 0
M  V30 9381 H 888.304 -1.92413 -2.3497 0
M  V30 9382 H 885.889 -0.99647 -1.11314 0
M  V30 9383 H 887.771 -0.316384 -4.20211 0
M  V30 9384 H 886.446 0.361304 -3.21677 0
M  V30 9385 H 885.353 -1.95585 -3.189 0
M  V30 9386 H 886.686 -2.55649 -4.206 0
M  V30 9387 N 888.338 1.20213 -1.01915 0
M  V30 9388 C 889.248 2.26763 -0.601311 0
M  V30 9389 C 890.264 1.70185 0.362369 0
M  V30 9390 O 891.44 2.00165 0.222682 0
M  V30 9391 C 888.505 3.46662 0.0512879 0
M  V30 9392 C 887.566 4.18459 -0.958659 0
M  V30 9393 C 886.799 5.32634 -0.337107 0
M  V30 9394 O 887.022 5.63841 0.86251 0
M  V30 9395 O 885.956 5.9258 -1.05511 0
M  V30 9396 H 889.782 2.64725 -1.48844 0
M  V30 9397 H 887.367 1.2688 -0.788784 0
M  V30 9398 H 889.249 4.19345 0.41564 0
M  V30 9399 H 887.924 3.1057 0.912572 0
M  V30 9400 H 886.831 3.47937 -1.37442 0
M  V30 9401 H 888.164 4.58498 -1.78999 0
M  V30 9402 N 889.816 0.795718 1.36037 0
M  V30 9403 C 891.062 0.371574 1.99367 0
M  V30 9404 C 891.395 -1.0557 1.62999 0
M  V30 9405 O 890.67 -1.73051 0.887895 0
M  V30 9406 C 890.953 0.542622 3.55988 0
M  V30 9407 C 890.806 2.01404 4.0219 0
M  V30 9408 C 892.125 -0.0384527 4.40083 0
M  V30 9409 H 889.244 0.136483 0.724252 0
M  V30 9410 H 891.886 1.00323 1.61355 0
M  V30 9411 H 890.036 0.0049053 3.885 0
M  V30 9412 H 891.708 2.6133 3.80137 0
M  V30 9413 H 889.951 2.51439 3.53498 0
M  V30 9414 H 890.622 2.08466 5.11122 0
M  V30 9415 H 893.098 0.420634 4.13968 0
M  V30 9416 H 891.974 0.111214 5.48787 0
M  V30 9417 H 892.235 -1.13116 4.27384 0
M  V30 9418 N 891.294 -1.47756 0.548274 0
M  V30 9419 C 892.224 -2.32702 -0.19284 0
M  V30 9420 C 893.205 -1.43237 -0.917457 0
M  V30 9421 O 894.39 -1.72103 -0.89967 0
M  V30 9422 C 891.52 -3.24831 -1.22891 0
M  V30 9423 C 890.474 -4.23466 -0.621312 0
M  V30 9424 C 889.8 -5.04856 -1.76137 0
M  V30 9425 C 891.1 -5.20616 0.419055 0
M  V30 9426 H 892.794 -2.94914 0.516323 0
M  V30 9427 H 890.34 -1.41818 0.24975 0
M  V30 9428 H 892.293 -3.83094 -1.75547 0
M  V30 9429 H 891.017 -2.60656 -1.9679 0
M  V30 9430 H 889.676 -3.66416 -0.116123 0
M  V30 9431 H 889.324 -4.37091 -2.48918 0
M  V30 9432 H 889.024 -5.71629 -1.36065 0
M  V30 9433 H 890.548 -5.65976 -2.29136 0
M  V30 9434 H 891.962 -5.73296 -0.0211034 0
M  V30 9435 H 890.359 -5.95543 0.738163 0
M  V30 9436 H 891.429 -4.66638 1.31822 0
M  V30 9437 N 892.772 -0.284283 -1.55015 0
M  V30 9438 C 894 0.332948 -2.04203 0
M  V30 9439 C 894.415 1.48783 -1.16229 0
M  V30 9440 O 893.772 1.81567 -0.184323 0
M  V30 9441 C 893.823 0.805207 -3.52418 0
M  V30 9442 O 893.544 -0.303689 -4.37046 0
M  V30 9443 C 895.045 1.48931 -4.17534 0
M  V30 9444 H 892.265 0.0747447 -0.666824 0
M  V30 9445 H 894.809 -0.419048 -2.00161 0
M  V30 9446 H 892.964 1.50727 -3.56876 0
M  V30 9447 H 893.378 0.0609703 -5.24465 0
M  V30 9448 H 894.852 1.77108 -5.22816 0
M  V30 9449 H 895.329 2.42389 -3.66257 0
M  V30 9450 H 895.935 0.830867 -4.17105 0
M  V30 9451 N 894.251 1.57596 -0.0117121 0
M  V30 9452 C 895.662 1.79033 0.529521 0
M  V30 9453 C 896.013 0.920299 1.73277 0
M  V30 9454 O 895.138 0.125934 2.16033 0
M  V30 9455 C 895.733 3.24695 0.967405 0
M  V30 9456 C 894.292 3.47188 1.45387 0
M  V30 9457 C 893.439 2.74245 0.410466 0
M  V30 9458 H 896.39 1.56908 -0.237836 0
M  V30 9459 H 896.411 3.33451 1.83278 0
M  V30 9460 H 895.923 3.87992 0.0914605 0
M  V30 9461 H 894.024 2.89121 2.35032 0
M  V30 9462 H 894.137 4.55886 1.47325 0
M  V30 9463 H 892.501 2.39209 0.874721 0
M  V30 9464 H 893.284 3.40248 -0.456713 0
M  V30 9465 N 895.729 -0.261212 1.5542 0
M  V30 9466 C 897.006 -1.01321 1.67312 0
M  V30 9467 C 897.386 -2.0388 0.547356 0
M  V30 9468 O 896.734 -2.24003 -0.451083 0
M  V30 9469 C 896.944 -1.65943 3.07024 0
M  V30 9470 C 898.292 -2.16666 3.65159 0
M  V30 9471 O 899.316 -1.75909 3.09733 0
M  V30 9472 O 898.175 -2.91455 4.62294 0
M  V30 9473 H 895.269 -0.470714 0.679968 0
M  V30 9474 H 897.815 -0.256133 1.67756 0
M  V30 9475 H 896.587 -0.916868 3.80407 0
M  V30 9476 H 896.21 -2.48308 3.1053 0
M  V30 9477 N 897.207 -1.48554 -0.526253 0
M  V30 9478 C 898.455 -1.56452 -1.27935 0
M  V30 9479 C 898.776 -0.24184 -1.93495 0
M  V30 9480 O 898.046 0.736917 -1.81511 0
M  V30 9481 H 896.626 -0.576379 -0.47518 0
M  V30 9482 H 899.288 -1.85039 -0.612083 0
M  V30 9483 H 898.384 -2.34751 -2.05666 0
M  V30 9484 N 898.685 0.775411 -1.37205 0
M  V30 9485 C 900.101 1.07546 -1.17924 0
M  V30 9486 C 900.301 2.01496 -0.0128897 0
M  V30 9487 O 899.357 2.44039 0.64816 0
M  V30 9488 C 900.67 1.67647 -2.49629 0
M  V30 9489 C 902.218 1.79923 -2.56119 0
M  V30 9490 C 902.693 2.43438 -3.87946 0
M  V30 9491 N 904.184 2.50893 -3.89368 0
M  V30 9492 C 904.919 3.00881 -4.88117 0
M  V30 9493 N 904.415 3.5107 -5.97262 0
M  V30 9494 N 906.208 2.99722 -4.75524 0
M  V30 9495 H 898.359 0.151524 -2.11859 0
M  V30 9496 H 900.622 0.129845 -0.939066 0
M  V30 9497 H 900.328 1.06082 -3.3532 0
M  V30 9498 H 900.202 2.66988 -2.66453 0
M  V30 9499 H 902.589 2.40621 -1.70838 0
M  V30 9500 H 902.67 0.793482 -2.43182 0
M  V30 9501 H 902.314 1.8338 -4.73639 0
M  V30 9502 H 902.244 3.44611 -3.98184 0
M  V30 9503 H 904.735 2.1537 -3.10522 0
M  V30 9504 H 905.048 3.87604 -6.68568 0
M  V30 9505 H 903.393 3.49184 -6.00912 0
M  V30 9506 H 906.584 2.5981 -3.8938 0
M  V30 9507 H 906.757 3.38369 -5.52639 0
M  V30 9508 N 900.163 1.21714 1.00117 0
M  V30 9509 C 901.574 1.03477 1.55401 0
M  V30 9510 C 901.925 -0.40429 1.91989 0
M  V30 9511 O 901.05 -1.28807 1.7389 0
M  V30 9512 C 901.645 1.87213 2.82377 0
M  V30 9513 C 900.204 1.73297 3.34133 0
M  V30 9514 C 899.351 1.84189 2.07291 0
M  V30 9515 H 902.302 1.3568 0.823195 0
M  V30 9516 H 902.323 1.38465 3.54412 0
M  V30 9517 H 901.835 2.91944 2.55715 0
M  V30 9518 H 899.936 0.712662 3.65721 0
M  V30 9519 H 900.049 2.55486 4.05294 0
M  V30 9520 H 898.413 1.27538 2.20468 0
M  V30 9521 H 899.196 2.90435 1.83037 0
M  V30 9522 N 901.641 -1.19671 1.02551 0
M  V30 9523 C 902.89 -1.88591 0.715272 0
M  V30 9524 C 903.203 -1.80274 -0.758982 0
M  V30 9525 O 904.409 -2.44413 -1.18213 0
M  V30 9526 C 902.865 -3.38264 1.22905 0
M  V30 9527 C 902.473 -3.55146 2.73084 0
M  V30 9528 C 904.217 -4.12683 0.994649 0
M  V30 9529 C 902.124 -4.98693 3.17897 0
M  V30 9530 H 901.054 -0.706326 0.263857 0
M  V30 9531 H 903.705 -1.35322 1.23936 0
M  V30 9532 H 902.087 -3.9091 0.632892 0
M  V30 9533 H 903.261 -3.12845 3.38326 0
M  V30 9534 H 901.576 -2.94112 2.94766 0
M  V30 9535 H 904.173 -5.18536 1.30478 0
M  V30 9536 H 904.516 -4.16243 -0.0686466 0
M  V30 9537 H 905.049 -3.66164 1.55464 0
M  V30 9538 H 901.788 -5.00293 4.23542 0
M  V30 9539 H 901.308 -5.4177 2.57381 0
M  V30 9540 H 902.987 -5.67327 3.11045 0
M  V30 9541 N 903.119 -0.802921 -1.35613 0
M  V30 9542 C 904.051 -0.168461 -2.2858 0
M  V30 9543 C 905.064 0.630123 -1.50111 0
M  V30 9544 O 906.253 0.463086 -1.72388 0
M  V30 9545 C 903.353 0.783943 -3.29708 0
M  V30 9546 C 902.526 0.0325165 -4.37388 0
M  V30 9547 C 901.585 0.902859 -5.18396 0
M  V30 9548 O 900.611 0.355144 -5.68091 0
M  V30 9549 N 901.813 2.22542 -5.36149 0
M  V30 9550 H 904.578 -0.96709 -2.83668 0
M  V30 9551 H 902.139 -0.658043 -1.47924 0
M  V30 9552 H 904.131 1.37034 -3.80794 0
M  V30 9553 H 902.701 1.48339 -2.75162 0
M  V30 9554 H 901.921 -0.735057 -3.87286 0
M  V30 9555 H 903.209 -0.485499 -5.06478 0
M  V30 9556 H 902.607 2.69439 -4.97412 0
M  V30 9557 H 901.164 2.76113 -5.90428 0
M  V30 9558 N 904.597 1.47463 -0.556102 0
M  V30 9559 C 905.53 2.26934 0.240027 0
M  V30 9560 C 906.508 1.33981 0.921297 0
M  V30 9561 O 907.692 1.63361 0.940506 0
M  V30 9562 C 904.819 3.10982 1.34194 0
M  V30 9563 C 903.865 4.19504 0.769342 0
M  V30 9564 S 904.698 5.34127 -0.383209 0
M  V30 9565 C 905.854 6.21739 0.720548 0
M  V30 9566 H 906.087 2.9411 -0.434348 0
M  V30 9567 H 903.62 1.50556 -0.342402 0
M  V30 9568 H 905.578 3.59976 1.973 0
M  V30 9569 H 904.239 2.4317 1.98814 0
M  V30 9570 H 903.432 4.78036 1.59679 0
M  V30 9571 H 903.034 3.73385 0.214475 0
M  V30 9572 H 905.326 6.58021 1.61292 0
M  V30 9573 H 906.269 7.0789 0.172602 0
M  V30 9574 H 906.677 5.55342 1.01272 0
M  V30 9575 N 906.075 0.2925 1.54862 0
M  V30 9576 C 907.491 -0.0611461 1.59483 0
M  V30 9577 C 907.691 -1.53141 1.30958 0
M  V30 9578 O 906.747 -2.28291 1.07887 0
M  V30 9579 C 908.06 0.329143 2.98893 0
M  V30 9580 C 909.608 0.2772 3.1177 0
M  V30 9581 C 910.083 0.642185 4.53475 0
M  V30 9582 N 911.574 0.594396 4.5937 0
M  V30 9583 C 912.309 0.849385 5.67074 0
M  V30 9584 N 911.805 1.1699 6.82851 0
M  V30 9585 N 913.598 0.777016 5.56704 0
M  V30 9586 H 905.749 1.25079 1.71665 0
M  V30 9587 H 908.012 0.506516 0.80134 0
M  V30 9588 H 907.718 1.35233 3.24661 0
M  V30 9589 H 907.592 -0.321442 3.75828 0
M  V30 9590 H 909.979 -0.736725 2.85756 0
M  V30 9591 H 910.06 0.962289 2.3701 0
M  V30 9592 H 909.704 1.65388 4.80218 0
M  V30 9593 H 909.634 -0.0648831 5.2656 0
M  V30 9594 H 912.125 0.357256 3.76208 0
M  V30 9595 H 912.438 1.35067 7.60905 0
M  V30 9596 H 910.783 1.20785 6.84424 0
M  V30 9597 H 913.974 0.526333 4.65132 0
M  V30 9598 H 914.147 0.979113 6.4056 0
M  V30 9599 N 907.553 -1.57587 0.0200696 0
M  V30 9600 C 908.802 -1.90602 -0.659822 0
M  V30 9601 C 909.115 -0.897216 -1.73808 0
M  V30 9602 O 910.321 -1.11829 -2.47399 0
M  V30 9603 C 908.777 -3.38416 -1.22484 0
M  V30 9604 C 908.385 -4.47637 -0.180339 0
M  V30 9605 C 910.129 -3.80513 -1.88176 0
M  V30 9606 C 908.036 -5.86542 -0.756482 0
M  V30 9607 H 906.966 -0.711272 -0.250216 0
M  V30 9608 H 909.617 -1.83308 0.0838942 0
M  V30 9609 H 907.999 -3.40613 -2.01987 0
M  V30 9610 H 909.173 -4.56987 0.591573 0
M  V30 9611 H 907.488 -4.14687 0.377302 0
M  V30 9612 H 910.085 -4.8164 -2.32222 0
M  V30 9613 H 910.428 -3.15091 -2.72073 0
M  V30 9614 H 910.961 -3.80701 -1.15377 0
M  V30 9615 H 907.7 -6.55485 0.0441468 0
M  V30 9616 H 907.22 -5.80816 -1.49709 0
M  V30 9617 H 908.899 -6.3483 -1.249 0
M  V30 9618 N 909.032 0.252966 -1.55557 0
M  V30 9619 C 910.28 0.979912 -1.76754 0
M  V30 9620 C 910.601 1.86083 -0.582944 0
M  V30 9621 O 909.871 1.91742 0.401497 0
M  V30 9622 H 908.451 0.364805 -0.651864 0
M  V30 9623 H 911.113 0.272372 -1.92987 0
M  V30 9624 H 910.209 1.60518 -2.67657 0
M  V30 9625 N 910.51 1.48831 0.518367 0
M  V30 9626 C 911.759 1.5669 1.27008 0
M  V30 9627 C 912.072 0.250934 1.93984 0
M  V30 9628 O 913.278 0.207884 2.70703 0
M  V30 9629 C 911.734 2.76387 2.30517 0
M  V30 9630 C 911.342 4.14673 1.69559 0
M  V30 9631 C 913.086 2.93566 3.06625 0
M  V30 9632 C 910.993 5.25616 2.71076 0
M  V30 9633 H 909.923 0.583362 0.477708 0
M  V30 9634 H 912.574 1.75187 0.546052 0
M  V30 9635 H 910.956 2.51348 3.06006 0
M  V30 9636 H 912.13 4.49779 1.00179 0
M  V30 9637 H 910.445 4.02708 1.05902 0
M  V30 9638 H 913.042 3.7362 3.82508 0
M  V30 9639 H 913.385 2.03462 3.63193 0
M  V30 9640 H 913.918 3.18562 2.38251 0
M  V30 9641 H 910.657 6.17723 2.19313 0
M  V30 9642 H 910.177 4.94985 3.38748 0
M  V30 9643 H 911.856 5.5422 3.3384 0
M  V30 9644 N 911.988 -0.768124 1.37614 0
M  V30 9645 C 912.938 -1.8718 1.30184 0
M  V30 9646 C 913.922 -1.59787 0.188943 0
M  V30 9647 O 915.114 -1.71855 0.423656 0
M  V30 9648 C 912.243 -3.24698 1.11471 0
M  V30 9649 C 911.329 -3.58031 2.27321 0
M  V30 9650 N 911.72 -3.6252 3.52722 0
M  V30 9651 C 910.018 -3.88216 2.19554 0
M  V30 9652 C 910.719 -3.92704 4.29137 0
M  V30 9653 N 909.695 -4.08789 3.58319 0
M  V30 9654 H 913.497 -1.88907 2.25147 0
M  V30 9655 H 911.011 -0.964753 1.30638 0
M  V30 9656 H 913.008 -4.0366 1.04233 0
M  V30 9657 H 911.668 -3.24232 0.174281 0
M  V30 9658 H 912.679 -3.44636 3.86583 0
M  V30 9659 H 909.356 -3.95551 1.33588 0
M  V30 9660 H 910.746 -4.02922 5.37683 0
M  V30 9661 N 913.466 -1.22244 -0.994698 0
M  V30 9662 C 914.691 -1.07299 -1.77487 0
M  V30 9663 C 915.116 0.372302 -1.84379 0
M  V30 9664 O 914.474 1.2689 -1.29494 0
M  V30 9665 C 914.522 -1.68675 -3.18718 0
M  V30 9666 O 913.626 -0.939202 -4.01563 0
M  V30 9667 H 912.967 -0.376979 -0.546611 0
M  V30 9668 H 915.497 -1.62003 -1.24965 0
M  V30 9669 H 915.507 -1.73324 -3.69354 0
M  V30 9670 H 914.182 -2.73849 -3.13017 0
M  V30 9671 H 912.759 -0.968583 -3.60101 0
M  V30 9672 N 914.944 1.19125 -1.03184 0
M  V30 9673 C 916.192 1.8851 -0.728587 0
M  V30 9674 C 916.513 1.80195 0.74531 0
M  V30 9675 O 915.783 1.21437 1.5372 0
M  V30 9676 H 914.363 0.69784 -0.266511 0
M  V30 9677 H 917.025 1.44607 -1.3067 0
M  V30 9678 H 916.121 2.9477 -1.02554 0
M  V30 9679 N 916.422 0.810101 1.35185 0
M  V30 9680 C 917.647 0.40364 2.03434 0
M  V30 9681 C 918.072 -0.97857 1.60641 0
M  V30 9682 O 917.43 -1.63435 0.784779 0
M  V30 9683 C 917.478 0.499154 3.57129 0
M  V30 9684 O 916.582 -0.486039 4.09526 0
M  V30 9685 H 915.923 0.168049 0.642383 0
M  V30 9686 H 918.453 1.09696 1.72708 0
M  V30 9687 H 918.463 0.370236 4.06317 0
M  V30 9688 H 917.138 1.50733 3.87624 0
M  V30 9689 H 915.715 -0.31707 3.7155 0
M  V30 9690 N 917.9 -1.47166 0.563914 0
M  V30 9691 C 919.146 -2.02756 0.0424338 0
M  V30 9692 C 919.479 -1.43662 -1.3067 0
M  V30 9693 O 918.754 -0.594676 -1.85186 0
M  V30 9694 C 919.037 -3.60074 -0.0434793 0
M  V30 9695 C 918.89 -4.29587 1.33323 0
M  V30 9696 C 920.209 -4.336 -0.753568 0
M  V30 9697 H 917.328 -0.736806 0.0168946 0
M  V30 9698 H 919.97 -1.75521 0.727496 0
M  V30 9699 H 918.12 -3.83409 -0.626906 0
M  V30 9700 H 919.792 -4.17573 1.96037 0
M  V30 9701 H 918.035 -3.8968 1.9061 0
M  V30 9702 H 918.706 -5.38218 1.22576 0
M  V30 9703 H 921.182 -4.15299 -0.258126 0
M  V30 9704 H 920.058 -5.43291 -0.782659 0
M  V30 9705 H 920.319 -4.03302 -1.81108 0
M  V30 9706 N 919.378 -0.300708 -1.54705 0
M  V30 9707 C 920.308 0.568675 -2.26469 0
M  V30 9708 C 921.289 1.13817 -1.26411 0
M  V30 9709 O 922.474 1.16756 -1.55183 0
M  V30 9710 C 919.604 1.74077 -3.00524 0
M  V30 9711 C 918.558 1.30165 -4.07727 0
M  V30 9712 C 917.884 2.55888 -4.69495 0
M  V30 9713 C 919.184 0.433106 -5.20501 0
M  V30 9714 H 920.878 -0.0298851 -2.99385 0
M  V30 9715 H 918.424 -0.0158135 -1.43991 0
M  V30 9716 H 920.377 2.35506 -3.49449 0
M  V30 9717 H 919.101 2.36556 -2.25186 0
M  V30 9718 H 917.76 0.710414 -3.59651 0
M  V30 9719 H 917.408 3.16681 -3.90797 0
M  V30 9720 H 917.108 2.27207 -5.41895 0
M  V30 9721 H 918.632 3.18121 -5.21183 0
M  V30 9722 H 920.046 0.95307 -5.65322 0
M  V30 9723 H 918.443 0.240085 -5.9962 0
M  V30 9724 H 919.513 -0.541866 -4.81863 0
M  V30 9725 N 920.856 1.57574 -0.0284266 0
M  V30 9726 C 921.819 2.09096 0.938691 0
M  V30 9727 C 922.819 1.00588 1.25454 0
M  V30 9728 O 924.009 1.2675 1.19499 0
M  V30 9729 C 921.141 2.55624 2.25542 0
M  V30 9730 H 922.334 2.95829 0.49248 0
M  V30 9731 H 919.887 1.5475 0.219594 0
M  V30 9732 H 920.622 1.72218 2.74793 0
M  V30 9733 H 920.407 3.34896 2.03929 0
M  V30 9734 H 921.897 2.95712 2.94863 0
M  V30 9735 N 922.334 -0.244713 1.55689 0
M  V30 9736 C 923.582 -0.970525 1.77272 0
M  V30 9737 C 923.903 -1.85771 0.592804 0
M  V30 9738 O 923.173 -1.91952 -0.391323 0
M  V30 9739 H 921.753 -0.361342 0.653789 0
M  V30 9740 H 924.415 -0.262134 1.93129 0
M  V30 9741 H 923.511 -1.59096 2.68505 0
M  V30 9742 N 923.813 -1.49104 -0.510467 0
M  V30 9743 C 925.059 -1.58346 -1.26705 0
M  V30 9744 C 925.392 -0.265121 -1.92382 0
M  V30 9745 O 924.667 0.730558 -1.80258 0
M  V30 9746 C 924.95 -2.7359 -2.34137 0
M  V30 9747 C 924.803 -4.1519 -1.73024 0
M  V30 9748 C 926.122 -2.84511 -3.3577 0
M  V30 9749 H 923.241 -0.57637 -0.459311 0
M  V30 9750 H 925.883 -1.81353 -0.566658 0
M  V30 9751 H 924.033 -2.54105 -2.93876 0
M  V30 9752 H 925.705 -4.46167 -1.17186 0
M  V30 9753 H 923.948 -4.21279 -1.03473 0
M  V30 9754 H 924.619 -4.91683 -2.50903 0
M  V30 9755 H 927.095 -3.0222 -2.86011 0
M  V30 9756 H 925.971 -3.6684 -4.08313 0
M  V30 9757 H 926.232 -1.93471 -3.97519 0
M  V30 9758 N 925.291 0.760815 -1.38019 0
M  V30 9759 C 926.537 1.52198 -1.34028 0
M  V30 9760 C 926.87 1.94067 0.0718309 0
M  V30 9761 O 926.145 1.64895 1.0315 0
M  V30 9762 C 926.428 2.77954 -2.2894 0
M  V30 9763 C 926.281 2.42269 -3.7898 0
M  V30 9764 C 927.6 3.79943 -2.22107 0
M  V30 9765 H 924.719 0.552131 -0.488181 0
M  V30 9766 H 927.361 0.871971 -1.6881 0
M  V30 9767 H 925.511 3.33419 -1.9941 0
M  V30 9768 H 927.183 1.92635 -4.19153 0
M  V30 9769 H 925.426 1.74822 -3.97014 0
M  V30 9770 H 926.097 3.32211 -4.4084 0
M  V30 9771 H 928.573 3.34 -2.4816 0
M  V30 9772 H 927.449 4.6564 -2.90639 0
M  V30 9773 H 927.71 4.25004 -1.21753 0
M  V30 9774 N 926.769 1.22769 0.988202 0
M  V30 9775 C 928.017 1.05301 1.725 0
M  V30 9776 C 928.338 -0.412103 1.90596 0
M  V30 9777 O 927.608 -1.29606 1.46898 0
M  V30 9778 H 926.188 0.386658 0.639144 0
M  V30 9779 H 928.85 1.54359 1.18993 0
M  V30 9780 H 927.946 1.53465 2.71763 0
M  V30 9781 N 928.247 -1.18576 1.03814 0
M  V30 9782 C 929.493 -1.88773 0.741132 0
M  V30 9783 C 929.826 -1.79993 -0.729127 0
M  V30 9784 O 929.101 -1.19851 -1.53186 0
M  V30 9785 C 929.384 -3.39352 1.20468 0
M  V30 9786 C 929.237 -3.56955 2.73684 0
M  V30 9787 C 930.556 -4.32901 0.792741 0
M  V30 9788 H 927.675 -0.685482 0.270708 0
M  V30 9789 H 930.317 -1.39523 1.2897 0
M  V30 9790 H 928.467 -3.81427 0.737974 0
M  V30 9791 H 930.139 -3.2399 3.28372 0
M  V30 9792 H 928.382 -2.99696 3.13632 0
M  V30 9793 H 929.053 -4.62598 3.01176 0
M  V30 9794 H 931.529 -3.98592 1.1943 0
M  V30 9795 H 930.405 -5.36828 1.14486 0
M  V30 9796 H 930.666 -4.41052 -0.304295 0
M  V30 9797 N 929.725 -0.817259 -1.34754 0
M  V30 9798 C 931.141 -0.502309 -1.51489 0
M  V30 9799 C 931.341 0.974568 -1.76364 0
M  V30 9800 O 930.397 1.75924 -1.81127 0
M  V30 9801 C 931.71 -1.35693 -2.68343 0
M  V30 9802 C 933.258 -1.35347 -2.82224 0
M  V30 9803 C 933.733 -2.19244 -4.02114 0
M  V30 9804 N 935.224 -2.16837 -4.09311 0
M  V30 9805 C 935.959 -2.78505 -5.01221 0
M  V30 9806 N 935.455 -3.4914 -5.98392 0
M  V30 9807 N 937.248 -2.68089 -4.94049 0
M  V30 9808 H 929.399 -1.77359 -1.16866 0
M  V30 9809 H 931.662 -0.755476 -0.572678 0
M  V30 9810 H 931.368 -2.40548 -2.56573 0
M  V30 9811 H 931.242 -1.01764 -3.63213 0
M  V30 9812 H 933.629 -0.312727 -2.93438 0
M  V30 9813 H 933.71 -1.7327 -1.88179 0
M  V30 9814 H 933.354 -3.23365 -3.9166 0
M  V30 9815 H 933.284 -1.78675 -4.95361 0
M  V30 9816 H 935.775 -1.65452 -3.39756 0
M  V30 9817 H 936.088 -3.93455 -6.65141 0
M  V30 9818 H 934.433 -3.53246 -5.98533 0
M  V30 9819 H 937.624 -2.12485 -4.17094 0
M  V30 9820 H 937.797 -3.16436 -5.65484 0
M  V30 9821 N 931.203 1.46865 -0.571711 0
M  V30 9822 C 932.136 2.27176 0.215944 0
M  V30 9823 C 933.114 1.34951 0.907035 0
M  V30 9824 O 934.298 1.64349 0.923127 0
M  V30 9825 C 931.425 3.12388 1.30888 0
M  V30 9826 C 930.471 4.20296 0.724804 0
M  V30 9827 S 931.304 5.33691 -0.439839 0
M  V30 9828 C 932.46 6.22468 0.654564 0
M  V30 9829 H 932.693 2.93633 -0.465518 0
M  V30 9830 H 930.226 1.50184 -0.358351 0
M  V30 9831 H 932.184 3.62049 1.93471 0
M  V30 9832 H 930.845 2.45265 1.96224 0
M  V30 9833 H 930.038 4.79703 1.54599 0
M  V30 9834 H 929.64 3.73591 0.174861 0
M  V30 9835 H 931.932 6.59694 1.54304 0
M  V30 9836 H 932.875 7.08033 0.0975111 0
M  V30 9837 H 933.283 5.56384 0.953762 0
M  V30 9838 N 932.681 0.308908 1.54543 0
M  V30 9839 C 934.092 -0.182144 1.85809 0
M  V30 9840 C 934.443 -1.52796 1.23076 0
M  V30 9841 O 933.568 -2.09775 0.531358 0
M  V30 9842 C 934.163 -0.337275 3.37117 0
M  V30 9843 C 932.722 -0.772545 3.68387 0
M  V30 9844 C 931.869 0.114451 2.77064 0
M  V30 9845 H 934.82 0.529671 1.496 0
M  V30 9846 H 934.841 -1.17058 3.62046 0
M  V30 9847 H 934.353 0.642382 3.82747 0
M  V30 9848 H 932.454 -1.76247 3.2828 0
M  V30 9849 H 932.567 -0.586453 4.75497 0
M  V30 9850 H 930.931 -0.407581 2.51418 0
M  V30 9851 H 931.714 1.09061 3.25516 0
M  V30 9852 N 934.159 -1.57557 0.0367827 0
M  V30 9853 C 935.575 -1.56366 -0.31967 0
M  V30 9854 C 935.775 -1.04313 -1.72398 0
M  V30 9855 O 934.831 -0.693278 -2.42796 0
M  V30 9856 C 936.144 -3.00267 -0.161274 0
M  V30 9857 C 937.692 -3.12128 -0.233464 0
M  V30 9858 C 938.167 -4.57882 -0.103767 0
M  V30 9859 N 939.658 -4.62922 -0.160506 0
M  V30 9860 C 940.393 -5.73338 -0.0840493 0
M  V30 9861 N 939.889 -6.92786 0.043933 0
M  V30 9862 N 941.682 -5.61929 -0.138592 0
M  V30 9863 H 933.833 -1.8972 0.954996 0
M  V30 9864 H 936.096 -0.87304 0.369467 0
M  V30 9865 H 935.802 -3.42331 0.80639 0
M  V30 9866 H 935.676 -3.65599 -0.928304 0
M  V30 9867 H 938.063 -2.69972 -1.19159 0
M  V30 9868 H 938.144 -2.49503 0.564075 0
M  V30 9869 H 937.788 -5.0072 0.850973 0
M  V30 9870 H 937.718 -5.18496 -0.920268 0
M  V30 9871 H 940.209 -3.7701 -0.259257 0
M  V30 9872 H 940.522 -7.72741 0.095372 0
M  V30 9873 H 938.867 -6.94955 0.0788211 0
M  V30 9874 H 942.058 -4.67499 -0.237031 0
M  V30 9875 H 942.231 -6.47956 -0.075546 0
M  V30 9876 N 935.637 0.236453 -1.55816 0
M  V30 9877 C 936.867 0.978873 -1.81939 0
M  V30 9878 C 937.275 1.79041 -0.611647 0
M  V30 9879 O 936.618 1.78616 0.429172 0
M  V30 9880 C 936.68 1.9569 -3.01572 0
M  V30 9881 C 936.344 1.33131 -4.37178 0
M  V30 9882 C 937.341 0.728585 -5.1477 0
M  V30 9883 C 935.026 1.34755 -4.83887 0
M  V30 9884 C 937.02 0.150427 -6.37222 0
M  V30 9885 C 934.707 0.765539 -6.06286 0
M  V30 9886 C 935.705 0.168017 -6.82793 0
M  V30 9887 O 935.393 -0.404976 -8.02879 0
M  V30 9888 H 935.125 0.293186 -0.609113 0
M  V30 9889 H 937.679 0.261384 -2.0373 0
M  V30 9890 H 935.909 2.71298 -2.75562 0
M  V30 9891 H 937.598 2.56362 -3.14695 0
M  V30 9892 H 938.364 0.708477 -4.79797 0
M  V30 9893 H 934.243 1.80202 -4.24321 0
M  V30 9894 H 937.787 -0.316586 -6.96881 0
M  V30 9895 H 933.684 0.78301 -6.40733 0
M  V30 9896 H 934.452 -0.29785 -8.17958 0
M  V30 9897 N 937.115 1.49373 0.502552 0
M  V30 9898 C 938.355 1.60398 1.26696 0
M  V30 9899 C 938.719 0.283599 1.89894 0
M  V30 9900 O 939.92 0.269022 2.6745 0
M  V30 9901 C 938.191 2.72998 2.30666 0
M  V30 9902 S 939.75 3.03964 3.16466 0
M  V30 9903 H 936.568 0.565781 0.430596 0
M  V30 9904 H 939.17 1.87024 0.569418 0
M  V30 9905 H 937.874 3.67458 1.82765 0
M  V30 9906 H 937.405 2.4836 3.05091 0
M  V30 9907 H 939.42 2.45367 4.31288 0
M  V30 9908 N 938.594 -0.753485 1.38421 0
M  V30 9909 C 939.524 -1.8808 1.38377 0
M  V30 9910 C 940.505 -1.68258 0.249664 0
M  V30 9911 O 941.69 -1.88848 0.45276 0
M  V30 9912 C 938.82 -3.25608 1.20818 0
M  V30 9913 C 937.774 -3.60032 2.31433 0
M  V30 9914 C 937.1 -4.96297 1.9898 0
M  V30 9915 C 938.4 -3.64898 3.73694 0
M  V30 9916 H 940.094 -1.88375 2.32713 0
M  V30 9917 H 937.64 -0.90489 1.12017 0
M  V30 9918 H 939.593 -4.04127 1.19412 0
M  V30 9919 H 938.317 -3.25793 0.229433 0
M  V30 9920 H 936.976 -2.83831 2.32025 0
M  V30 9921 H 936.624 -4.93043 0.995889 0
M  V30 9922 H 936.324 -5.20298 2.73063 0
M  V30 9923 H 937.848 -5.77196 1.99193 0
M  V30 9924 H 939.262 -4.33531 3.75132 0
M  V30 9925 H 937.659 -4.00407 4.46983 0
M  V30 9926 H 938.729 -2.65124 4.06002 0
M  V30 9927 N 940.072 -1.23292 -0.981677 0
M  V30 9928 C 941.319 -1.06424 -1.72279 0
M  V30 9929 C 941.647 0.399055 -1.90362 0
M  V30 9930 O 940.902 1.31181 -1.45224 0
M  V30 9931 C 941.201 -1.73339 -3.12551 0
M  V30 9932 C 940.867 -3.23256 -3.14351 0
M  V30 9933 C 939.529 -3.64159 -3.14549 0
M  V30 9934 C 941.881 -4.1916 -3.09765 0
M  V30 9935 C 939.209 -4.99428 -3.07877 0
M  V30 9936 C 941.561 -5.54419 -3.04635 0
M  V30 9937 C 940.225 -5.94688 -3.03154 0
M  V30 9938 H 939.495 -0.389434 -0.630415 0
M  V30 9939 H 942.142 -1.53208 -1.1489 0
M  V30 9940 H 940.447 -1.18911 -3.73319 0
M  V30 9941 H 942.144 -1.57767 -3.68661 0
M  V30 9942 H 938.734 -2.90693 -3.14953 0
M  V30 9943 H 942.918 -3.88569 -3.08753 0
M  V30 9944 H 938.174 -5.29844 -3.05083 0
M  V30 9945 H 942.348 -6.28448 -3.00043 0
M  V30 9946 H 939.975 -6.99468 -2.97739 0
M  V30 9947 N 941.55 1.18024 -1.04442 0
M  V30 9948 C 942.798 1.87727 -0.74854 0
M  V30 9949 C 943.119 1.80975 0.726156 0
M  V30 9950 O 942.389 1.23061 1.52423 0
M  V30 9951 H 940.969 0.694974 -0.273897 0
M  V30 9952 H 943.631 1.43213 -1.32197 0
M  V30 9953 H 942.727 2.93665 -1.05674 0
M  V30 9954 N 943.028 0.824394 1.34319 0
M  V30 9955 C 943.976 0.235628 2.31403 0
M  V30 9956 C 944.97 -0.624443 1.57471 0
M  V30 9957 O 946.176 -0.515618 1.72457 0
M  V30 9958 H 942.551 0.0574537 0.749802 0
M  V30 9959 H 944.522 1.06925 2.78585 0
M  V30 9960 C 943.271 -0.586617 3.42716 0
M  V30 9961 H 942.594 0.0658669 3.99746 0
M  V30 9962 H 944.034 -0.964661 4.1288 0
M  V30 9963 C 942.493 -1.75957 2.87299 0
M  V30 9964 O 943.023 -2.8578 2.82299 0
M  V30 9965 N 941.229 -1.57678 2.44102 0
M  V30 9966 H 940.776 -0.683436 2.48369 0
M  V30 9967 H 940.734 -2.36311 2.07375 0
M  V30 9968 N 944.506 -1.46559 0.579492 0
M  V30 9969 C 945.454 -2.3199 -0.168413 0
M  V30 9970 C 946.448 -1.44288 -0.887551 0
M  V30 9971 O 947.654 -1.60931 -0.806305 0
M  V30 9972 H 944.029 -0.748431 -0.0731799 0
M  V30 9973 H 946 -2.92886 0.570973 0
M  V30 9974 C 944.749 -3.27392 -1.1709 0
M  V30 9975 H 944.072 -3.94853 -0.626958 0
M  V30 9976 H 945.512 -3.89955 -1.66467 0
M  V30 9977 C 943.971 -2.52511 -2.23024 0
M  V30 9978 O 944.501 -2.2858 -3.30324 0
M  V30 9979 N 942.707 -2.1313 -1.97545 0
M  V30 9980 H 942.254 -2.32793 -1.10297 0
M  V30 9981 H 942.212 -1.63348 -2.68635 0
M  V30 9982 N 945.984 -0.3171 -1.54377 0
M  V30 9983 C 947.23 0.287836 -2.00747 0
M  V30 9984 C 947.563 1.52292 -1.20502 0
M  V30 9985 O 946.838 1.92391 -0.285626 0
M  V30 9986 C 947.121 0.628423 -3.54574 0
M  V30 9987 C 946.974 -0.616922 -4.45549 0
M  V30 9988 C 948.293 1.44862 -4.15575 0
M  V30 9989 H 945.412 0.103144 -0.729747 0
M  V30 9990 H 948.054 -0.432396 -1.85014 0
M  V30 9991 H 946.204 1.24203 -3.68111 0
M  V30 9992 H 947.876 -1.25526 -4.43893 0
M  V30 9993 H 946.119 -1.24706 -4.15489 0
M  V30 9994 H 946.79 -0.334243 -5.50987 0
M  V30 9995 H 949.266 0.930015 -4.05574 0
M  V30 9996 H 948.142 1.6557 -5.23333 0
M  V30 9997 H 948.403 2.44279 -3.68484 0
M  V30 9998 N 947.462 1.57535 -0.0451378 0
M  V30 9999 C 948.69 1.96761 0.639742 0
M  V30 10000 C 949.105 0.922405 1.64734 0
M  V30 10001 O 948.462 -0.0940535 1.82257 0
M  V30 10002 C 948.513 3.36066 1.33199 0
M  V30 10003 O 948.234 4.36579 0.364757 0
M  V30 10004 C 949.735 3.90015 2.1072 0
M  V30 10005 H 946.955 0.64769 0.175324 0
M  V30 10006 H 949.499 2.04206 -0.109651 0
M  V30 10007 H 947.654 3.2979 2.03266 0
M  V30 10008 H 948.068 5.17432 0.858168 0
M  V30 10009 H 949.542 4.89785 2.54586 0
M  V30 10010 H 950.019 3.25117 2.95288 0
M  V30 10011 H 950.625 3.99609 1.45577 0
M  V30 10012 N 948.94 -0.228186 1.55939 0
M  V30 10013 C 949.87 -1.28607 1.94891 0
M  V30 10014 C 950.851 -1.49236 0.816245 0
M  V30 10015 O 952.036 -1.61531 1.07803 0
M  V30 10016 C 949.166 -2.63719 2.25986 0
M  V30 10017 C 948.12 -2.57757 3.4168 0
M  V30 10018 C 947.446 -3.96837 3.58364 0
M  V30 10019 C 948.746 -2.13116 4.76843 0
M  V30 10020 H 950.44 -0.962531 2.83506 0
M  V30 10021 H 947.986 -0.461577 1.36402 0
M  V30 10022 H 949.939 -3.37878 2.51826 0
M  V30 10023 H 948.663 -2.97747 1.34217 0
M  V30 10024 H 947.322 -1.86055 3.15878 0
M  V30 10025 H 946.97 -4.28162 2.63982 0
M  V30 10026 H 946.67 -3.93731 4.36176 0
M  V30 10027 H 948.194 -4.72668 3.86545 0
M  V30 10028 H 949.608 -2.77015 5.01932 0
M  V30 10029 H 948.005 -2.21083 5.57891 0
M  V30 10030 H 949.075 -1.08326 4.72645 0
M  V30 10031 N 950.418 -1.49637 -0.494624 0
M  V30 10032 C 951.381 -1.66252 -1.57775 0
M  V30 10033 C 952.381 -0.534054 -1.51672 0
M  V30 10034 O 953.571 -0.800637 -1.54711 0
M  V30 10035 C 950.703 -1.66584 -2.97426 0
M  V30 10036 H 951.896 -2.62864 -1.4437 0
M  V30 10037 H 949.449 -1.38764 -0.719323 0
M  V30 10038 H 950.184 -0.715798 -3.16302 0
M  V30 10039 H 949.969 -2.48543 -3.03264 0
M  V30 10040 H 951.459 -1.81474 -3.76108 0
M  V30 10041 N 951.896 0.746133 -1.38819 0
M  V30 10042 C 953.121 1.54049 -1.38866 0
M  V30 10043 C 953.546 1.88092 0.0176624 0
M  V30 10044 O 952.904 1.51113 1.00173 0
M  V30 10045 C 952.952 2.8116 -2.25791 0
M  V30 10046 O 952.056 3.76623 -1.68014 0
M  V30 10047 H 951.397 0.465648 -0.473359 0
M  V30 10048 H 953.927 0.921469 -1.82675 0
M  V30 10049 H 953.937 3.30009 -2.39913 0
M  V30 10050 H 952.612 2.55713 -3.27999 0
M  V30 10051 H 951.189 3.35352 -1.63074 0
M  V30 10052 N 953.375 1.23811 0.975125 0
M  V30 10053 C 954.322 1.02394 2.06843 0
M  V30 10054 C 955.292 -0.060337 1.6599 0
M  V30 10055 O 956.477 0.0928187 1.90574 0
M  V30 10056 C 953.617 0.626882 3.39359 0
M  V30 10057 C 952.73 1.78385 3.9345 0
M  V30 10058 C 951.865 1.33307 5.14201 0
M  V30 10059 C 950.904 2.46045 5.60471 0
M  V30 10060 N 950.041 2.01888 6.72448 0
M  V30 10061 H 954.881 1.95973 2.24496 0
M  V30 10062 H 952.418 0.976206 1.10039 0
M  V30 10063 H 954.376 0.377742 4.15486 0
M  V30 10064 H 953.006 -0.271907 3.21653 0
M  V30 10065 H 952.058 2.14685 3.14029 0
M  V30 10066 H 953.37 2.63122 4.23755 0
M  V30 10067 H 952.524 1.04237 5.97678 0
M  V30 10068 H 951.263 0.456143 4.85562 0
M  V30 10069 H 950.268 2.75884 4.75571 0
M  V30 10070 H 951.493 3.34283 5.91127 0
M  V30 10071 H 949.439 1.16583 6.45558 0
M  V30 10072 H 949.356 2.80182 7.02164 0
M  V30 10073 H 950.624 1.75937 7.59386 0
M  V30 10074 N 954.853 -1.17469 1.05066 0
M  V30 10075 C 956.1 -1.87698 0.759987 0
M  V30 10076 C 956.428 -1.80964 -0.712902 0
M  V30 10077 O 955.683 -1.21146 -1.53695 0
M  V30 10078 C 955.982 -3.37211 1.18421 0
M  V30 10079 C 955.648 -3.64148 2.65909 0
M  V30 10080 C 954.31 -3.71209 3.06199 0
M  V30 10081 C 956.662 -3.75724 3.61222 0
M  V30 10082 C 953.99 -3.87334 4.40669 0
M  V30 10083 C 956.342 -3.93368 4.95424 0
M  V30 10084 C 955.006 -3.98667 5.3537 0
M  V30 10085 H 954.276 -0.686835 0.278099 0
M  V30 10086 H 956.923 -1.38975 1.31751 0
M  V30 10087 H 955.228 -3.87982 0.545654 0
M  V30 10088 H 956.925 -3.89911 0.936518 0
M  V30 10089 H 953.515 -3.59276 2.33707 0
M  V30 10090 H 957.699 -3.69591 3.31235 0
M  V30 10091 H 952.955 -3.89685 4.71122 0
M  V30 10092 H 957.129 -4.01267 5.69173 0
M  V30 10093 H 954.756 -4.10915 6.39572 0
M  V30 10094 N 956.331 -0.831506 -1.3388 0
M  V30 10095 C 957.241 -0.261688 -2.33136 0
M  V30 10096 C 958.257 0.608429 -1.63016 0
M  V30 10097 O 959.433 0.514297 -1.94723 0
M  V30 10098 C 956.498 0.559957 -3.42148 0
M  V30 10099 C 955.559 -0.333569 -4.28002 0
M  V30 10100 C 954.792 0.448956 -5.31808 0
M  V30 10101 O 955.015 1.6814 -5.45055 0
M  V30 10102 O 953.949 -0.173197 -6.01651 0
M  V30 10103 H 957.775 -1.08343 -2.83717 0
M  V30 10104 H 955.36 -0.593849 -1.3709 0
M  V30 10105 H 957.242 1.02712 -4.08691 0
M  V30 10106 H 955.917 1.35888 -2.93796 0
M  V30 10107 H 954.824 -0.848416 -3.64352 0
M  V30 10108 H 956.157 -1.09707 -4.79818 0
M  V30 10109 N 957.809 1.4625 -0.587256 0
M  V30 10110 C 959.034 2.07252 -0.0784517 0
M  V30 10111 C 959.459 1.43239 1.21919 0
M  V30 10112 O 958.817 0.517791 1.73749 0
M  V30 10113 C 958.865 3.60534 0.0691037 0
M  V30 10114 O 957.969 3.96773 1.12448 0
M  V30 10115 H 957.31 0.660825 -0.064859 0
M  V30 10116 H 959.84 1.87819 -0.811491 0
M  V30 10117 H 959.85 4.0708 0.273826 0
M  V30 10118 H 958.525 4.06516 -0.878514 0
M  V30 10119 H 957.102 3.6193 0.897852 0
M  V30 10120 N 959.287 0.325282 1.54207 0
M  V30 10121 C 960.535 -0.276229 2.00203 0
M  V30 10122 C 960.856 -1.52519 1.21503 0
M  V30 10123 O 960.126 -1.93313 0.317302 0
M  V30 10124 H 958.706 -0.105059 0.739575 0
M  V30 10125 H 961.368 0.442225 1.89817 0
M  V30 10126 H 960.464 -0.531427 3.07542 0
M  V30 10127 N 960.765 -1.57509 0.0534917 0
M  V30 10128 C 961.99 -1.97511 -0.632794 0
M  V30 10129 C 962.415 -0.930947 -1.63447 0
M  V30 10130 O 961.773 0.105558 -1.80992 0
M  V30 10131 C 961.821 -3.3658 -1.29407 0
M  V30 10132 O 960.925 -3.3467 -2.40977 0
M  V30 10133 H 960.266 -0.643349 -0.16431 0
M  V30 10134 H 962.796 -2.04232 0.12258 0
M  V30 10135 H 962.806 -3.73359 -1.64521 0
M  V30 10136 H 961.481 -4.12113 -0.559976 0
M  V30 10137 H 960.058 -3.09639 -2.07793 0
M  V30 10138 N 962.243 0.219913 -1.56058 0
M  V30 10139 C 963.193 1.27606 -1.88946 0
M  V30 10140 C 964.177 1.42209 -0.752691 0
M  V30 10141 O 965.369 1.44996 -1.01514 0
M  V30 10142 C 962.498 2.62614 -2.21108 0
M  V30 10143 C 961.584 2.51906 -3.4118 0
M  V30 10144 N 961.975 2.10851 -4.59756 0
M  V30 10145 C 960.273 2.82861 -3.44827 0
M  V30 10146 C 960.974 2.11434 -5.41914 0
M  V30 10147 N 959.95 2.51985 -4.81669 0
M  V30 10148 H 963.752 0.94957 -2.78137 0
M  V30 10149 H 961.266 0.428468 -1.56646 0
M  V30 10150 H 963.263 3.38869 -2.42844 0
M  V30 10151 H 961.923 2.96108 -1.3323 0
M  V30 10152 H 962.934 1.81956 -4.84884 0
M  V30 10153 H 959.611 3.20716 -2.67297 0
M  V30 10154 H 961.001 1.81803 -6.46836 0
M  V30 10155 N 963.721 1.49897 0.486681 0
M  V30 10156 C 965.132 1.53142 1.06792 0
M  V30 10157 C 965.483 0.325856 1.93475 0
M  V30 10158 O 964.608 -0.562893 2.08951 0
M  V30 10159 C 965.203 2.77514 1.94348 0
M  V30 10160 C 963.762 2.83491 2.47609 0
M  V30 10161 C 962.909 2.47239 1.2557 0
M  V30 10162 H 965.86 1.56387 0.269962 0
M  V30 10163 H 965.881 2.58487 2.79221 0
M  V30 10164 H 965.393 3.65239 1.31232 0
M  V30 10165 H 963.494 2.0008 3.14323 0
M  V30 10166 H 963.607 3.86011 2.83782 0
M  V30 10167 H 961.971 1.99332 1.58552 0
M  V30 10168 H 962.754 3.37255 0.641404 0
M  V30 10169 N 965.199 -0.738761 1.39212 0
M  V30 10170 C 966.615 -1.04381 1.20734 0
M  V30 10171 C 966.815 -2.01391 0.0663082 0
M  V30 10172 O 965.871 -2.45672 -0.583229 0
M  V30 10173 C 967.184 -1.6097 2.53987 0
M  V30 10174 C 968.732 -1.73069 2.60799 0
M  V30 10175 C 969.207 -2.33067 3.94264 0
M  V30 10176 N 970.698 -2.40481 3.95883 0
M  V30 10177 C 971.433 -2.87834 4.95923 0
M  V30 10178 N 970.929 -3.35111 6.0636 0
M  V30 10179 N 972.722 -2.87009 4.83304 0
M  V30 10180 H 964.873 -0.0952996 2.12186 0
M  V30 10181 H 967.136 -0.104902 0.942178 0
M  V30 10182 H 966.842 -0.971548 3.38015 0
M  V30 10183 H 966.716 -2.59829 2.73439 0
M  V30 10184 H 969.103 -2.36007 1.77157 0
M  V30 10185 H 969.184 -0.728728 2.452 0
M  V30 10186 H 968.828 -1.70758 4.78335 0
M  V30 10187 H 968.758 -3.33933 4.07181 0
M  V30 10188 H 971.249 -2.07061 3.16123 0
M  V30 10189 H 971.562 -3.69742 6.78609 0
M  V30 10190 H 969.907 -3.33129 6.09959 0
M  V30 10191 H 973.098 -2.49395 3.96131 0
M  V30 10192 H 973.271 -3.23598 5.61416 0
M  V30 10193 N 966.677 -1.24326 -0.968545 0
M  V30 10194 C 968.093 -1.00847 -1.23701 0
M  V30 10195 C 968.293 0.283235 -1.99499 0
M  V30 10196 O 967.349 0.999607 -2.31871 0
M  V30 10197 C 968.662 -2.22295 -2.02498 0
M  V30 10198 C 970.21 -2.26911 -2.15593 0
M  V30 10199 C 970.685 -3.47978 -2.97784 0
M  V30 10200 N 972.176 -3.48289 -3.05367 0
M  V30 10201 C 972.911 -4.38625 -3.69318 0
M  V30 10202 N 972.407 -5.39213 -4.34995 0
M  V30 10203 N 974.2 -4.26339 -3.66322 0
M  V30 10204 H 966.351 -2.07335 -0.461087 0
M  V30 10205 H 968.614 -0.909805 -0.26638 0
M  V30 10206 H 968.32 -3.161 -1.54188 0
M  V30 10207 H 968.194 -2.24344 -3.03232 0
M  V30 10208 H 970.581 -1.33639 -2.63106 0
M  V30 10209 H 970.662 -2.28888 -1.14209 0
M  V30 10210 H 970.306 -4.41564 -2.50965 0
M  V30 10211 H 970.236 -3.43244 -3.99364 0
M  V30 10212 H 972.727 -2.75517 -2.58648 0
M  V30 10213 H 973.04 -6.04378 -4.81608 0
M  V30 10214 H 971.385 -5.43101 -4.33667 0
M  V30 10215 H 974.576 -3.46991 -3.14189 0
M  V30 10216 H 974.749 -4.9694 -4.15878 0
M  V30 10217 N 968.156 1.1691 -1.05688 0
M  V30 10218 C 969.405 1.86629 -0.765022 0
M  V30 10219 C 969.718 1.82223 0.710918 0
M  V30 10220 O 970.924 2.47462 1.11691 0
M  V30 10221 C 969.38 3.34886 -1.3183 0
M  V30 10222 C 968.988 3.47781 -2.82404 0
M  V30 10223 C 970.732 4.099 -1.10372 0
M  V30 10224 C 968.639 4.9009 -3.31008 0
M  V30 10225 H 967.569 0.699082 -0.282491 0
M  V30 10226 H 970.22 1.31989 -1.27481 0
M  V30 10227 H 968.602 3.89094 -0.736312 0
M  V30 10228 H 969.776 3.03765 -3.46502 0
M  V30 10229 H 968.091 2.86193 -3.02461 0
M  V30 10230 H 970.688 5.14894 -1.4418 0
M  V30 10231 H 971.031 4.16279 -0.0417372 0
M  V30 10232 H 971.564 3.61913 -1.65117 0
M  V30 10233 H 968.303 4.88887 -4.36657 0
M  V30 10234 H 967.823 5.34756 -2.71655 0
M  V30 10235 H 969.502 5.58881 -3.25977 0
M  V30 10236 N 969.634 0.838594 1.33437 0
M  V30 10237 C 970.582 0.260158 2.31141 0
M  V30 10238 C 971.576 -0.607706 1.58124 0
M  V30 10239 O 972.782 -0.497298 1.72994 0
M  V30 10240 H 969.157 0.0654031 0.74915 0
M  V30 10241 H 971.128 1.09874 2.77435 0
M  V30 10242 C 969.877 -0.550234 3.43319 0
M  V30 10243 H 969.2 0.108262 3.99653 0
M  V30 10244 H 970.64 -0.920815 4.1388 0
M  V30 10245 C 969.099 -1.729 2.89149 0
M  V30 10246 O 969.629 -2.82769 2.85315 0
M  V30 10247 N 967.835 -1.5508 2.45761 0
M  V30 10248 H 967.382 -0.657055 2.49079 0
M  V30 10249 H 967.34 -2.34099 2.0987 0
M  V30 10250 N 971.112 -1.45937 0.595003 0
M  V30 10251 C 972.358 -2.0262 0.0854317 0
M  V30 10252 C 972.691 -1.46402 -1.27594 0
M  V30 10253 O 971.966 -0.633823 -1.83883 0
M  V30 10254 C 972.249 -3.60085 0.0329075 0
M  V30 10255 C 972.102 -4.26663 1.42405 0
M  V30 10256 C 973.421 -4.35101 -0.661426 0
M  V30 10257 H 970.54 -0.736282 0.0325196 0
M  V30 10258 H 973.182 -1.73938 0.764563 0
M  V30 10259 H 971.332 -3.84652 -0.545439 0
M  V30 10260 H 973.004 -4.13321 2.04851 0
M  V30 10261 H 971.247 -3.85549 1.98833 0
M  V30 10262 H 971.918 -5.35497 1.33965 0
M  V30 10263 H 974.394 -4.15753 -0.169977 0
M  V30 10264 H 973.27 -5.44829 -0.667243 0
M  V30 10265 H 973.531 -4.07053 -1.72513 0
M  V30 10266 N 972.59 -0.333456 -1.54032 0
M  V30 10267 C 973.815 0.270517 -2.05628 0
M  V30 10268 C 974.24 1.44231 -1.20744 0
M  V30 10269 O 973.598 1.79975 -0.218822 0
M  V30 10270 C 973.646 0.673251 -3.54259 0
M  V30 10271 O 972.75 1.77448 -3.72271 0
M  V30 10272 H 972.091 0.0469753 -0.662336 0
M  V30 10273 H 974.621 -0.484739 -1.98775 0
M  V30 10274 H 974.631 0.953194 -3.96709 0
M  V30 10275 H 973.306 -0.183747 -4.15494 0
M  V30 10276 H 971.883 1.49259 -3.41725 0
M  V30 10277 N 974.068 1.57479 -0.061844 0
M  V30 10278 C 975.479 1.80627 0.472295 0
M  V30 10279 C 975.83 0.97496 1.70261 0
M  V30 10280 O 974.955 0.1946 2.15523 0
M  V30 10281 C 975.55 3.27608 0.863616 0
M  V30 10282 C 974.109 3.51638 1.34267 0
M  V30 10283 C 973.256 2.75412 0.323009 0
M  V30 10284 H 976.207 1.56072 -0.287634 0
M  V30 10285 H 976.228 3.39113 1.72577 0
M  V30 10286 H 975.74 3.88087 -0.0320226 0
M  V30 10287 H 973.841 2.96452 2.25714 0
M  V30 10288 H 973.954 4.60342 1.32747 0
M  V30 10289 H 972.318 2.4187 0.798175 0
M  V30 10290 H 973.101 3.38623 -0.564729 0
M  V30 10291 N 975.546 -0.211634 1.56173 0
M  V30 10292 C 976.774 -0.951184 1.83739 0
M  V30 10293 C 977.189 -1.7754 0.642252 0
M  V30 10294 O 976.546 -1.78302 -0.389174 0
M  V30 10295 C 976.597 -1.86075 3.09933 0
M  V30 10296 O 976.318 -1.06983 4.24837 0
M  V30 10297 C 977.819 -2.71337 3.50559 0
M  V30 10298 H 975.039 -0.278312 0.61056 0
M  V30 10299 H 977.583 -0.223871 2.03271 0
M  V30 10300 H 975.738 -2.54189 2.92347 0
M  V30 10301 H 976.152 -1.68815 4.9659 0
M  V30 10302 H 977.626 -3.30843 4.41868 0
M  V30 10303 H 978.103 -3.44226 2.72773 0
M  V30 10304 H 978.709 -2.0862 3.70618 0
M  V30 10305 N 977.024 -1.50153 -0.478725 0
M  V30 10306 C 978.252 -1.64505 -1.25482 0
M  V30 10307 C 978.667 -0.325295 -1.85977 0
M  V30 10308 O 978.024 0.691885 -1.68876 0
M  V30 10309 C 978.075 -2.73052 -2.36906 0
M  V30 10310 O 977.796 -3.99911 -1.78894 0
M  V30 10311 C 979.297 -2.98309 -3.27912 0
M  V30 10312 H 976.517 -0.55318 -0.379781 0
M  V30 10313 H 979.061 -1.96329 -0.57229 0
M  V30 10314 H 977.216 -2.43944 -3.00949 0
M  V30 10315 H 977.63 -4.5988 -2.52211 0
M  V30 10316 H 979.104 -3.77942 -4.02323 0
M  V30 10317 H 979.581 -2.09082 -3.8624 0
M  V30 10318 H 980.187 -3.2892 -2.69614 0
M  V30 10319 N 978.502 0.731368 -1.39602 0
M  V30 10320 C 979.732 1.51839 -1.40102 0
M  V30 10321 C 980.14 1.89199 0.00526634 0
M  V30 10322 O 979.483 1.54877 0.987874 0
M  V30 10323 C 979.545 2.83292 -2.21328 0
M  V30 10324 C 979.209 2.68345 -3.69919 0
M  V30 10325 C 980.206 2.36651 -4.62917 0
M  V30 10326 C 977.891 2.85102 -4.13548 0
M  V30 10327 C 979.885 2.21901 -5.97527 0
M  V30 10328 C 977.572 2.69971 -5.48233 0
M  V30 10329 C 978.57 2.38416 -6.40037 0
M  V30 10330 O 978.258 2.23383 -7.72241 0
M  V30 10331 H 977.99 0.475695 -0.480302 0
M  V30 10332 H 980.544 0.911096 -1.84087 0
M  V30 10333 H 978.774 3.46294 -1.72096 0
M  V30 10334 H 980.463 3.44928 -2.13961 0
M  V30 10335 H 981.229 2.23352 -4.3051 0
M  V30 10336 H 977.108 3.08655 -3.42423 0
M  V30 10337 H 980.652 1.97193 -6.69149 0
M  V30 10338 H 976.549 2.82849 -5.8023 0
M  V30 10339 H 977.317 2.38425 -7.83004 0
M  V30 10340 N 979.98 1.24838 0.961938 0
M  V30 10341 C 980.912 1.00369 2.06055 0
M  V30 10342 C 981.925 -0.0288583 1.62774 0
M  V30 10343 O 983.114 0.208853 1.77274 0
M  V30 10344 C 980.214 0.493953 3.35281 0
M  V30 10345 C 979.387 1.59097 4.07439 0
M  V30 10346 C 978.446 1.08288 5.14937 0
M  V30 10347 O 977.472 1.77577 5.40791 0
M  V30 10348 N 978.674 -0.0796836 5.80445 0
M  V30 10349 H 981.439 1.94962 2.27618 0
M  V30 10350 H 979 1.15945 1.12997 0
M  V30 10351 H 980.992 0.138675 4.04462 0
M  V30 10352 H 979.562 -0.357851 3.10545 0
M  V30 10353 H 978.782 2.11817 3.32456 0
M  V30 10354 H 980.07 2.32817 4.52409 0
M  V30 10355 H 979.468 -0.658827 5.6185 0
M  V30 10356 H 978.025 -0.376057 6.50714 0
M  V30 10357 N 981.458 -1.16348 1.06306 0
M  V30 10358 C 982.388 -2.2291 0.695234 0
M  V30 10359 C 983.369 -1.67208 -0.312343 0
M  V30 10360 O 984.554 -1.93293 -0.187442 0
M  V30 10361 C 981.684 -3.47205 0.0810149 0
M  V30 10362 C 980.638 -4.15801 1.01458 0
M  V30 10363 C 979.964 -5.3405 0.263656 0
M  V30 10364 C 981.264 -4.66766 2.34365 0
M  V30 10365 H 982.958 -2.53934 1.58613 0
M  V30 10366 H 980.504 -1.22056 0.76409 0
M  V30 10367 H 982.457 -4.2098 -0.18818 0
M  V30 10368 H 981.181 -3.15482 -0.844897 0
M  V30 10369 H 979.84 -3.43954 1.26852 0
M  V30 10370 H 979.488 -4.9858 -0.665378 0
M  V30 10371 H 979.188 -5.80885 0.88582 0
M  V30 10372 H 980.712 -6.106 0.00200994 0
M  V30 10373 H 982.126 -5.3212 2.13356 0
M  V30 10374 H 980.523 -5.24223 2.9208 0
M  V30 10375 H 981.593 -3.82969 2.97426 0
M  V30 10376 N 982.937 -0.845659 -1.3299 0
M  V30 10377 C 983.867 -0.298957 -2.31578 0
M  V30 10378 C 984.848 0.597012 -1.59279 0
M  V30 10379 O 986.033 0.519142 -1.87132 0
M  V30 10380 C 983.163 0.521109 -3.43368 0
M  V30 10381 C 982.117 -0.279651 -4.27085 0
M  V30 10382 C 981.443 0.664591 -5.30554 0
M  V30 10383 C 982.743 -1.50046 -5.00283 0
M  V30 10384 H 984.437 -1.12272 -2.77552 0
M  V30 10385 H 981.983 -0.54132 -1.33438 0
M  V30 10386 H 983.936 0.913921 -4.1137 0
M  V30 10387 H 982.66 1.37815 -2.96099 0
M  V30 10388 H 981.319 -0.654106 -3.60717 0
M  V30 10389 H 980.967 1.51822 -4.79541 0
M  V30 10390 H 980.667 0.132871 -5.8745 0
M  V30 10391 H 982.191 1.05477 -6.01421 0
M  V30 10392 H 983.605 -1.18044 -5.61016 0
M  V30 10393 H 982.002 -1.96946 -5.66862 0
M  V30 10394 H 983.072 -2.26659 -4.28665 0
M  V30 10395 N 984.415 1.45619 -0.602734 0
M  V30 10396 C 985.362 2.30493 0.118944 0
M  V30 10397 C 986.332 1.41816 0.864723 0
M  V30 10398 O 987.517 1.7075 0.851424 0
M  V30 10399 C 984.657 3.2664 1.11356 0
M  V30 10400 C 983.77 4.3042 0.369161 0
M  V30 10401 C 982.905 5.13678 1.35307 0
M  V30 10402 C 981.944 6.09189 0.596207 0
M  V30 10403 N 981.081 6.85245 1.52916 0
M  V30 10404 H 985.921 2.91672 -0.610836 0
M  V30 10405 H 983.458 1.43731 -0.313032 0
M  V30 10406 H 985.416 3.80846 1.7033 0
M  V30 10407 H 984.046 2.67225 1.81081 0
M  V30 10408 H 983.098 3.78913 -0.335994 0
M  V30 10409 H 984.41 4.98307 -0.221603 0
M  V30 10410 H 983.564 5.7226 2.01502 0
M  V30 10411 H 982.303 4.45798 1.97777 0
M  V30 10412 H 981.308 5.49743 -0.0793984 0
M  V30 10413 H 982.533 6.79096 -0.0233734 0
M  V30 10414 H 980.479 6.20058 2.14159 0
M  V30 10415 H 980.396 7.49467 0.991713 0
M  V30 10416 H 981.664 7.48371 2.18083 0
M  V30 10417 N 985.893 0.34162 1.53853 0
M  V30 10418 C 987.309 -0.0103769 1.59597 0
M  V30 10419 C 987.509 -1.48897 1.35764 0
M  V30 10420 O 986.565 -2.24743 1.15095 0
M  V30 10421 C 987.878 0.424067 2.97695 0
M  V30 10422 C 989.426 0.376247 3.1073 0
M  V30 10423 C 989.901 0.786129 4.51203 0
M  V30 10424 N 991.392 0.74024 4.57247 0
M  V30 10425 C 992.127 1.02937 5.64085 0
M  V30 10426 N 991.623 1.38655 6.78783 0
M  V30 10427 N 993.416 0.953734 5.5395 0
M  V30 10428 H 985.567 1.30477 1.67599 0
M  V30 10429 H 987.83 0.531753 0.78482 0
M  V30 10430 H 987.536 1.45493 3.20195 0
M  V30 10431 H 987.41 -0.201713 3.7666 0
M  V30 10432 H 989.797 -0.645441 2.87955 0
M  V30 10433 H 989.878 1.0372 2.33828 0
M  V30 10434 H 989.522 1.80582 4.74713 0
M  V30 10435 H 989.452 0.102671 5.265 0
M  V30 10436 H 991.943 0.476763 3.7488 0
M  V30 10437 H 992.256 1.59206 7.56223 0
M  V30 10438 H 990.601 1.42498 6.80235 0
M  V30 10439 H 993.792 0.674044 4.63222 0
M  V30 10440 H 993.965 1.18241 6.37121 0
M  V30 10441 N 987.371 -1.57444 0.0701946 0
M  V30 10442 C 988.281 -2.16132 -0.912377 0
M  V30 10443 C 989.297 -1.12406 -1.32819 0
M  V30 10444 O 990.473 -1.44665 -1.40121 0
M  V30 10445 C 987.538 -2.71008 -2.16231 0
M  V30 10446 C 986.599 -3.896 -1.80306 0
M  V30 10447 C 985.832 -4.4185 -2.9934 0
M  V30 10448 O 986.055 -3.93106 -4.13309 0
M  V30 10449 O 984.989 -5.33201 -2.7925 0
M  V30 10450 H 988.815 -3.00449 -0.443167 0
M  V30 10451 H 986.4 -1.48617 -0.152786 0
M  V30 10452 H 988.282 -3.06186 -2.8953 0
M  V30 10453 H 986.957 -1.8975 -2.62253 0
M  V30 10454 H 985.864 -3.59277 -1.04264 0
M  V30 10455 H 987.197 -4.72145 -1.39068 0
M  V30 10456 N 988.849 0.203349 -1.56283 0
M  V30 10457 C 989.759 1.27266 -1.9708 0
M  V30 10458 C 990.775 1.50268 -0.877236 0
M  V30 10459 O 991.951 1.63044 -1.18231 0
M  V30 10460 C 989.016 2.59871 -2.29495 0
M  V30 10461 C 988.077 2.45012 -3.52516 0
M  V30 10462 C 987.31 3.71293 -3.83376 0
M  V30 10463 O 987.533 4.75106 -3.15643 0
M  V30 10464 O 986.467 3.67316 -4.76826 0
M  V30 10465 H 990.293 0.956461 -2.88246 0
M  V30 10466 H 987.878 0.407688 -1.4373 0
M  V30 10467 H 989.76 3.38152 -2.51458 0
M  V30 10468 H 988.435 2.91135 -1.415 0
M  V30 10469 H 987.342 1.6487 -3.35811 0
M  V30 10470 H 988.675 2.18683 -4.40952 0
M  V30 10471 N 990.327 1.50405 0.470755 0
M  V30 10472 C 991.552 1.65442 1.25075 0
M  V30 10473 C 991.977 0.337612 1.85045 0
M  V30 10474 O 991.335 -0.698555 1.67302 0
M  V30 10475 C 991.383 2.74793 2.33498 0
M  V30 10476 O 990.487 2.36069 3.3815 0
M  V30 10477 H 989.828 0.552728 0.367951 0
M  V30 10478 H 992.358 1.96782 0.560177 0
M  V30 10479 H 992.368 2.97879 2.78804 0
M  V30 10480 H 991.043 3.70363 1.8922 0
M  V30 10481 H 989.62 2.2343 2.98552 0
M  V30 10482 N 991.805 -0.723954 1.39988 0
M  V30 10483 C 993.052 -1.48371 1.37812 0
M  V30 10484 C 993.38 -1.94487 -0.0223285 0
M  V30 10485 O 992.635 -1.67906 -1.00529 0
M  V30 10486 C 992.934 -2.73004 2.30659 0
M  V30 10487 C 992.6 -2.45698 3.78078 0
M  V30 10488 C 991.262 -2.37961 4.18244 0
M  V30 10489 C 993.614 -2.22601 4.71273 0
M  V30 10490 C 990.942 -2.05183 5.49652 0
M  V30 10491 C 993.294 -1.91339 6.0297 0
M  V30 10492 C 991.958 -1.82078 6.42187 0
M  V30 10493 H 991.228 -0.542929 0.504291 0
M  V30 10494 H 993.875 -0.829986 1.72579 0
M  V30 10495 H 992.18 -3.43174 1.89048 0
M  V30 10496 H 993.877 -3.31068 2.26263 0
M  V30 10497 H 990.467 -2.52603 3.46251 0
M  V30 10498 H 994.651 -2.2754 4.41066 0
M  V30 10499 H 989.907 -1.96544 5.78948 0
M  V30 10500 H 994.081 -1.72479 6.74703 0
M  V30 10501 H 991.708 -1.56446 7.43928 0
M  V30 10502 N 993.283 -1.25346 -0.955304 0
M  V30 10503 C 994.511 -1.12793 -1.73451 0
M  V30 10504 C 994.926 0.318344 -1.86097 0
M  V30 10505 O 994.283 1.21897 -1.35821 0
M  V30 10506 C 994.334 -1.77603 -3.14864 0
M  V30 10507 O 994.055 -3.16577 -3.02837 0
M  V30 10508 C 995.556 -1.70821 -4.09066 0
M  V30 10509 H 992.776 -0.393457 -0.543537 0
M  V30 10510 H 995.32 -1.65696 -1.19855 0
M  V30 10511 H 993.475 -1.28673 -3.65407 0
M  V30 10512 H 993.889 -3.48433 -3.92039 0
M  V30 10513 H 995.363 -2.2083 -5.05903 0
M  V30 10514 H 995.84 -0.671858 -4.34031 0
M  V30 10515 H 996.446 -2.19237 -3.64438 0
M  V30 10516 N 994.761 1.15782 -1.06922 0
M  V30 10517 C 996.008 1.86465 -0.789752 0
M  V30 10518 C 996.336 1.82075 0.684022 0
M  V30 10519 O 995.591 1.23576 1.51748 0
M  V30 10520 C 995.89 3.35284 -1.2377 0
M  V30 10521 C 995.556 3.59871 -2.71668 0
M  V30 10522 C 994.218 3.6629 -3.12066 0
M  V30 10523 C 996.57 3.69929 -3.67154 0
M  V30 10524 C 993.898 3.80275 -4.46775 0
M  V30 10525 C 996.25 3.85436 -5.01619 0
M  V30 10526 C 994.914 3.901 -5.41644 0
M  V30 10527 H 994.184 0.682324 -0.288991 0
M  V30 10528 H 996.831 1.36861 -1.33945 0
M  V30 10529 H 995.136 3.87065 -0.607309 0
M  V30 10530 H 996.833 3.88371 -0.998431 0
M  V30 10531 H 993.423 3.55512 -2.39393 0
M  V30 10532 H 997.607 3.64274 -3.37073 0
M  V30 10533 H 992.863 3.8214 -4.77262 0
M  V30 10534 H 997.037 3.92161 -5.75485 0
M  V30 10535 H 994.664 4.00688 -6.46029 0
M  V30 10536 N 996.239 0.8527 1.3254 0
M  V30 10537 C 997.488 0.45136 1.96585 0
M  V30 10538 C 997.801 -0.997773 1.68237 0
M  V30 10539 O 999.007 -1.50445 2.26006 0
M  V30 10540 C 997.463 0.75619 3.51866 0
M  V30 10541 C 997.071 2.22092 3.89075 0
M  V30 10542 C 998.815 0.422478 4.22392 0
M  V30 10543 C 996.722 2.46908 5.37392 0
M  V30 10544 H 995.652 0.165052 0.735713 0
M  V30 10545 H 998.303 1.04321 1.50962 0
M  V30 10546 H 996.685 0.0937988 3.95889 0
M  V30 10547 H 997.859 2.92494 3.56067 0
M  V30 10548 H 996.174 2.51896 3.31568 0
M  V30 10549 H 998.771 0.58533 5.31487 0
M  V30 10550 H 999.114 -0.635737 4.11417 0
M  V30 10551 H 999.647 1.04068 3.83946 0
M  V30 10552 H 996.386 3.51346 5.53386 0
M  V30 10553 H 995.906 1.81082 5.71812 0
M  V30 10554 H 997.585 2.30758 6.0445 0
M  V30 10555 N 997.718 -1.45297 0.610449 0
M  V30 10556 C 999.129 -1.85715 0.191488 0
M  V30 10557 C 999.48 -1.51036 -1.25229 0
M  V30 10558 O 998.605 -0.938422 -1.94994 0
M  V30 10559 C 999.2 -3.37082 0.340747 0
M  V30 10560 C 997.759 -3.76393 -0.0235433 0
M  V30 10561 C 996.906 -2.69237 0.663849 0
M  V30 10562 H 999.857 -1.36058 0.816948 0
M  V30 10563 H 999.878 -3.78105 -0.426233 0
M  V30 10564 H 999.39 -3.62291 1.39164 0
M  V30 10565 H 997.491 -3.56801 -1.07351 0
M  V30 10566 H 997.604 -4.77653 0.372102 0
M  V30 10567 H 995.968 -2.54499 0.101204 0
M  V30 10568 H 996.751 -2.97281 1.71694 0
M  V30 10569 N 999.196 -0.349774 -1.5367 0
M  V30 10570 C 1000.61 0.00191293 -1.596 0
M  V30 10571 C 1000.81 1.48175 -1.36552 0
M  V30 10572 O 999.868 2.24129 -1.16285 0
M  V30 10573 C 1001.18 -0.439848 -2.97466 0
M  V30 10574 C 1002.73 -0.392721 -3.10526 0
M  V30 10575 C 1003.2 -0.810047 -4.5078 0
M  V30 10576 N 1004.69 -0.764478 -4.56848 0
M  V30 10577 C 1005.43 -1.05927 -5.63531 0
M  V30 10578 N 1004.93 -1.42253 -6.78038 0
M  V30 10579 N 1006.72 -0.983098 -5.53436 0
M  V30 10580 H 998.87 -1.31364 -1.66905 0
M  V30 10581 H 1001.13 -0.535908 -0.781989 0
M  V30 10582 H 1000.84 -1.47189 -3.19419 0
M  V30 10583 H 1000.71 0.181735 -3.76762 0
M  V30 10584 H 1003.1 0.630161 -2.88293 0
M  V30 10585 H 1003.18 -1.04959 -2.33275 0
M  V30 10586 H 1002.82 -1.83097 -4.73749 0
M  V30 10587 H 1002.75 -0.130591 -5.26438 0
M  V30 10588 H 1005.25 -0.496637 -3.74622 0
M  V30 10589 H 1005.56 -1.63215 -7.55368 0
M  V30 10590 H 1003.9 -1.46104 -6.79469 0
M  V30 10591 H 1007.09 -0.698601 -4.62858 0
M  V30 10592 H 1007.27 -1.21618 -6.36485 0
M  V30 10593 N 1000.67 1.57404 -0.0785433 0
M  V30 10594 C 1001.9 1.98492 0.601292 0
M  V30 10595 C 1002.32 0.956832 1.61945 0
M  V30 10596 O 1001.68 -0.0767502 1.81137 0
M  V30 10597 C 1001.73 3.38596 1.24036 0
M  V30 10598 O 1000.83 3.38461 2.35622 0
M  V30 10599 H 1000.17 0.645882 0.154054 0
M  V30 10600 H 1002.7 2.04012 -0.155056 0
M  V30 10601 H 1002.71 3.75929 1.5856 0
M  V30 10602 H 1001.39 4.12952 0.494341 0
M  V30 10603 H 999.967 3.12906 2.02841 0
M  V30 10604 N 1002.15 -0.195058 1.56388 0
M  V30 10605 C 1003.57 -0.545894 1.49974 0
M  V30 10606 C 1003.77 -1.85851 0.778568 0
M  V30 10607 O 1002.82 -2.50346 0.329105 0
M  V30 10608 C 1004.14 -0.600599 2.94641 0
M  V30 10609 C 1005.68 -0.689429 3.05313 0
M  V30 10610 C 1006.16 -0.775243 4.51391 0
M  V30 10611 N 1007.65 -0.838769 4.55542 0
M  V30 10612 C 1008.39 -0.925337 5.65884 0
M  V30 10613 N 1007.88 -0.974204 6.85916 0
M  V30 10614 N 1009.67 -0.962528 5.53798 0
M  V30 10615 H 1001.83 0.66595 2.0169 0
M  V30 10616 H 1004.09 0.237215 0.917842 0
M  V30 10617 H 1003.79 0.29478 3.50462 0
M  V30 10618 H 1003.67 -1.45528 3.47996 0
M  V30 10619 H 1006.06 -1.57524 2.4954 0
M  V30 10620 H 1006.14 0.191451 2.55083 0
M  V30 10621 H 1005.78 0.106215 5.07789 0
M  V30 10622 H 1005.71 -1.67193 4.99354 0
M  V30 10623 H 1008.2 -0.810249 3.69112 0
M  V30 10624 H 1008.51 -1.04077 7.6576 0
M  V30 10625 H 1006.86 -0.942881 6.88574 0
M  V30 10626 H 1010.05 -0.921188 4.58946 0
M  V30 10627 H 1010.22 -1.02653 6.39817 0
M  V30 10628 N 1003.63 -1.50653 -0.462772 0
M  V30 10629 C 1004.54 -1.72923 -1.58539 0
M  V30 10630 C 1005.56 -0.612577 -1.6286 0
M  V30 10631 O 1006.73 -0.891885 -1.80575 0
M  V30 10632 C 1003.8 -1.82623 -2.94703 0
M  V30 10633 C 1002.86 -3.06392 -3.00704 0
M  V30 10634 C 1002.09 -3.15618 -4.30373 0
M  V30 10635 O 1002.31 -2.31423 -5.21344 0
M  V30 10636 O 1001.25 -4.0841 -4.42136 0
M  V30 10637 H 1005.07 -2.68103 -1.42669 0
M  V30 10638 H 1002.66 -1.34848 -0.643144 0
M  V30 10639 H 1004.54 -1.91134 -3.7556 0
M  V30 10640 H 1003.22 -0.906275 -3.10754 0
M  V30 10641 H 1002.12 -3.03375 -2.18894 0
M  V30 10642 H 1003.46 -3.97992 -2.89591 0
M  V30 10643 N 1005.11 0.71652 -1.4037 0
M  V30 10644 C 1006.02 1.86074 -1.42876 0
M  V30 10645 C 1007.03 1.71005 -0.321475 0
M  V30 10646 O 1008.21 1.93286 -0.565909 0
M  V30 10647 C 1005.28 3.21862 -1.28863 0
M  V30 10648 C 1004.34 3.49193 -2.49726 0
M  V30 10649 C 1003.57 4.78502 -2.36372 0
M  V30 10650 O 1003.79 5.53529 -1.37703 0
M  V30 10651 O 1002.73 5.06147 -3.25728 0
M  V30 10652 H 1006.55 1.86916 -2.39366 0
M  V30 10653 H 1004.14 0.866818 -1.21683 0
M  V30 10654 H 1006.02 4.02972 -1.23253 0
M  V30 10655 H 1004.69 3.2175 -0.354783 0
M  V30 10656 H 1003.6 2.68095 -2.60913 0
M  V30 10657 H 1004.93 3.54101 -3.41868 0
M  V30 10658 N 1006.59 1.25851 0.948643 0
M  V30 10659 C 1007.52 1.09248 2.06367 0
M  V30 10660 C 1008.5 -0.000205168 1.701 0
M  V30 10661 O 1009.68 0.170442 1.93451 0
M  V30 10662 C 1006.81 0.716777 3.39823 0
M  V30 10663 C 1005.77 1.76036 3.90122 0
M  V30 10664 C 1005.09 1.23918 5.20143 0
M  V30 10665 C 1006.39 3.16039 4.15833 0
M  V30 10666 H 1008.09 2.02518 2.20515 0
M  V30 10667 H 1005.63 0.975093 1.05962 0
M  V30 10668 H 1007.59 0.587531 4.17284 0
M  V30 10669 H 1006.31 -0.251626 3.25629 0
M  V30 10670 H 1004.97 1.87815 3.14835 0
M  V30 10671 H 1004.62 0.260836 5.02323 0
M  V30 10672 H 1004.32 1.93673 5.54765 0
M  V30 10673 H 1005.84 1.12245 6.00194 0
M  V30 10674 H 1007.25 3.0738 4.83933 0
M  V30 10675 H 1005.65 3.83317 4.61723 0
M  V30 10676 H 1006.72 3.62652 3.21887 0
M  V30 10677 N 1008.06 -1.15214 1.07534 0
M  V30 10678 C 1009.48 -1.67628 0.822045 0
M  V30 10679 C 1009.83 -1.8503 -0.652571 0
M  V30 10680 O 1008.95 -1.55497 -1.50498 0
M  V30 10681 C 1009.55 -3.04489 1.48566 0
M  V30 10682 C 1008.11 -3.53974 1.27983 0
M  V30 10683 C 1007.25 -2.29656 1.55414 0
M  V30 10684 H 1010.2 -0.994016 1.23713 0
M  V30 10685 H 1010.22 -3.69509 0.907916 0
M  V30 10686 H 1009.74 -2.91792 2.55888 0
M  V30 10687 H 1007.84 -3.71908 0.226906 0
M  V30 10688 H 1007.95 -4.35298 2.0013 0
M  V30 10689 H 1006.31 -2.35289 0.975251 0
M  V30 10690 H 1007.1 -2.19544 2.63923 0
M  V30 10691 N 1009.54 -0.859717 -1.32086 0
M  V30 10692 C 1010.82 -0.386665 -1.9174 0
M  V30 10693 C 1011.2 1.13028 -1.78292 0
M  V30 10694 O 1010.55 1.95422 -1.18417 0
M  V30 10695 C 1010.76 -0.856648 -3.38323 0
M  V30 10696 C 1012.11 -0.87678 -4.15449 0
M  V30 10697 O 1013.13 -0.80162 -3.47063 0
M  V30 10698 O 1011.99 -0.98373 -5.37573 0
M  V30 10699 H 1009.08 -0.113758 -0.819139 0
M  V30 10700 H 1011.63 -0.946952 -1.40822 0
M  V30 10701 H 1010.4 -1.89996 -3.42078 0
M  V30 10702 H 1010.02 -0.274095 -3.96654 0
M  V30 10703 N 1011.02 1.44971 -0.618145 0
M  V30 10704 C 1011.97 2.32354 0.106846 0
M  V30 10705 C 1012.96 1.4659 0.848984 0
M  V30 10706 O 1014.17 1.63012 0.763354 0
M  V30 10707 H 1010.54 0.750108 0.0533109 0
M  V30 10708 H 1012.51 2.9127 -0.648426 0
M  V30 10709 C 1011.26 3.30381 1.08368 0
M  V30 10710 H 1010.59 3.96377 0.52205 0
M  V30 10711 H 1012.03 3.94231 1.56069 0
M  V30 10712 C 1010.49 2.58336 2.1625 0
M  V30 10713 O 1011.02 2.37258 3.24148 0
M  V30 10714 N 1009.22 2.18292 1.91825 0
M  V30 10715 H 1008.77 2.35635 1.04086 0
M  V30 10716 H 1008.73 1.70413 2.6421 0
M  V30 10717 N 1012.5 0.357919 1.53482 0
M  V30 10718 C 1013.75 -0.234163 2.01142 0
M  V30 10719 C 1014.07 -1.49399 1.2454 0
M  V30 10720 O 1013.33 -1.92981 0.325111 0
M  V30 10721 C 1013.63 -0.579617 3.52669 0
M  V30 10722 C 1013.29 0.584988 4.47089 0
M  V30 10723 C 1011.96 0.904558 4.72622 0
M  V30 10724 C 1014.31 1.3656 5.02992 0
M  V30 10725 C 1011.64 2.00685 5.5131 0
M  V30 10726 C 1013.99 2.45824 5.82884 0
M  V30 10727 C 1012.65 2.78325 6.06706 0
M  V30 10728 H 1011.92 -0.0856863 0.736029 0
M  V30 10729 H 1014.57 0.488801 1.85157 0
M  V30 10730 H 1012.87 -1.38349 3.66561 0
M  V30 10731 H 1014.57 -1.04985 3.87013 0
M  V30 10732 H 1011.16 0.32587 4.27359 0
M  V30 10733 H 1015.34 1.13196 4.83219 0
M  V30 10734 H 1010.6 2.26272 5.67988 0
M  V30 10735 H 1014.77 3.06732 6.25211 0
M  V30 10736 H 1012.4 3.63862 6.67464 0
M  V30 10737 N 1013.98 -1.5736 0.0868897 0
M  V30 10738 C 1015.39 -1.81356 -0.443499 0
M  V30 10739 C 1015.74 -1.00192 -1.68689 0
M  V30 10740 O 1014.86 -0.228863 -2.15186 0
M  V30 10741 C 1015.46 -3.28941 -0.811387 0
M  V30 10742 C 1014.02 -3.53729 -1.28656 0
M  V30 10743 C 1013.16 -2.75891 -0.279153 0
M  V30 10744 H 1016.12 -1.55594 0.312427 0
M  V30 10745 H 1016.14 -3.41815 -1.6716 0
M  V30 10746 H 1015.65 -3.87987 0.0937598 0
M  V30 10747 H 1013.75 -3.00005 -2.2097 0
M  V30 10748 H 1013.86 -4.62396 -1.25406 0
M  V30 10749 H 1012.23 -2.4311 -0.759595 0
M  V30 10750 H 1013.01 -3.37682 0.618529 0
M  V30 10751 N 1015.45 0.186762 -1.56489 0
M  V30 10752 C 1016.4 1.23141 -1.95205 0
M  V30 10753 C 1017.37 1.44799 -0.81378 0
M  V30 10754 O 1018.56 1.57795 -1.07263 0
M  V30 10755 C 1015.7 2.56926 -2.30397 0
M  V30 10756 C 1014.81 2.42777 -3.57328 0
M  V30 10757 C 1013.94 3.69323 -3.81804 0
M  V30 10758 C 1012.98 3.50041 -5.02133 0
M  V30 10759 N 1012.12 4.68619 -5.2282 0
M  V30 10760 H 1016.96 0.894256 -2.84266 0
M  V30 10761 H 1014.5 0.430187 -1.40669 0
M  V30 10762 H 1016.46 3.3488 -2.4882 0
M  V30 10763 H 1015.09 2.88668 -1.44466 0
M  V30 10764 H 1014.14 1.56078 -3.46906 0
M  V30 10765 H 1015.45 2.24468 -4.45439 0
M  V30 10766 H 1014.6 4.55715 -4.00511 0
M  V30 10767 H 1013.34 3.90595 -2.92039 0
M  V30 10768 H 1012.35 2.62034 -4.8334 0
M  V30 10769 H 1013.57 3.30206 -5.93414 0
M  V30 10770 H 1011.52 4.90139 -4.36005 0
M  V30 10771 H 1011.44 4.53165 -6.05126 0
M  V30 10772 H 1012.7 5.56338 -5.45993 0
M  V30 10773 N 1016.93 1.50896 0.454776 0
M  V30 10774 C 1017.84 1.73762 1.5762 0
M  V30 10775 C 1018.86 0.621206 1.62533 0
M  V30 10776 O 1020.03 0.901449 1.801 0
M  V30 10777 C 1017.1 1.84183 2.9373 0
M  V30 10778 C 1016.16 3.07982 2.99075 0
M  V30 10779 C 1015.39 3.17896 4.28693 0
M  V30 10780 O 1015.62 2.34184 5.20109 0
M  V30 10781 O 1014.55 4.10749 4.39964 0
M  V30 10782 H 1018.38 2.68856 1.41245 0
M  V30 10783 H 1015.96 1.35187 0.635984 0
M  V30 10784 H 1017.84 1.93123 3.74542 0
M  V30 10785 H 1016.52 0.922742 3.10269 0
M  V30 10786 H 1015.43 3.04531 2.17282 0
M  V30 10787 H 1016.76 3.99523 2.87476 0
M  V30 10788 N 1018.41 -0.709066 1.40748 0
M  V30 10789 C 1019.66 -1.4646 1.38681 0
M  V30 10790 C 1019.97 -1.95599 -0.0056209 0
M  V30 10791 O 1021.18 -2.71091 -0.148907 0
M  V30 10792 C 1019.63 -2.64771 2.43771 0
M  V30 10793 C 1019.24 -2.22474 3.88856 0
M  V30 10794 C 1020.99 -3.42475 2.50821 0
M  V30 10795 C 1018.89 -3.37663 4.85528 0
M  V30 10796 H 1017.82 -0.550084 0.515678 0
M  V30 10797 H 1020.47 -0.771074 1.66513 0
M  V30 10798 H 1018.86 -3.36325 2.09048 0
M  V30 10799 H 1020.03 -1.58297 4.32757 0
M  V30 10800 H 1018.35 -1.57798 3.85342 0
M  V30 10801 H 1020.94 -4.28201 3.20232 0
M  V30 10802 H 1021.29 -3.86738 1.54076 0
M  V30 10803 H 1021.82 -2.77969 2.84567 0
M  V30 10804 H 1018.56 -2.98426 5.83628 0
M  V30 10805 H 1018.08 -4.00734 4.46287 0
M  V30 10806 H 1019.76 -4.03636 5.05655 0
M  V30 10807 N 1019.89 -1.26353 -0.941956 0
M  V30 10808 C 1021.3 -1.10774 -1.50287 0
M  V30 10809 C 1021.65 0.312229 -1.937 0
M  V30 10810 O 1020.78 1.20364 -1.79838 0
M  V30 10811 C 1021.37 -2.00473 -2.73123 0
M  V30 10812 C 1019.93 -1.89042 -3.25485 0
M  V30 10813 C 1019.08 -1.93869 -1.98267 0
M  V30 10814 H 1022.03 -1.39454 -0.757523 0
M  V30 10815 H 1022.05 -1.55216 -3.47402 0
M  V30 10816 H 1021.56 -3.03812 -2.41495 0
M  V30 10817 H 1019.66 -0.886341 -3.61904 0
M  V30 10818 H 1019.78 -2.74533 -3.92643 0
M  V30 10819 H 1018.14 -1.37912 -2.14132 0
M  V30 10820 H 1018.92 -2.98837 -1.68972 0
M  V30 10821 N 1021.37 1.14642 -1.08144 0
M  V30 10822 C 1022.62 1.8525 -0.807885 0
M  V30 10823 C 1022.94 1.83194 0.668213 0
M  V30 10824 O 1022.21 1.27848 1.48431 0
M  V30 10825 H 1020.79 0.685909 -0.295868 0
M  V30 10826 H 1023.45 1.38935 -1.36686 0
M  V30 10827 H 1022.54 2.90155 -1.14964 0
M  V30 10828 N 1022.85 0.866709 1.31628 0
M  V30 10829 C 1024.09 0.472185 1.96095 0
M  V30 10830 C 1024.41 -0.979873 1.69286 0
M  V30 10831 O 1025.61 -1.48039 2.27589 0
M  V30 10832 C 1024.07 0.793468 3.51044 0
M  V30 10833 C 1023.68 2.26206 3.86697 0
M  V30 10834 C 1025.42 0.467255 4.21921 0
M  V30 10835 C 1023.33 2.52593 5.34743 0
M  V30 10836 H 1022.26 0.172846 0.733921 0
M  V30 10837 H 1024.91 1.05916 1.49847 0
M  V30 10838 H 1023.29 0.135783 3.95767 0
M  V30 10839 H 1024.47 2.96254 3.52945 0
M  V30 10840 H 1022.78 2.55399 3.28877 0
M  V30 10841 H 1025.38 0.641669 5.30836 0
M  V30 10842 H 1025.72 -0.592065 4.12068 0
M  V30 10843 H 1026.25 1.08134 3.82821 0
M  V30 10844 H 1022.99 3.57196 5.49628 0
M  V30 10845 H 1022.51 1.87136 5.6986 0
M  V30 10846 H 1024.19 2.37156 6.01968 0
M  V30 10847 N 1024.32 -1.44642 0.625825 0
M  V30 10848 C 1025.56 -2.03977 0.131444 0
M  V30 10849 C 1025.93 -1.48122 -1.22163 0
M  V30 10850 O 1027.13 -1.98926 -1.80781 0
M  V30 10851 C 1025.4 -3.57224 0.112032 0
M  V30 10852 S 1026.96 -4.37643 -0.318501 0
M  V30 10853 H 1023.78 -0.70859 0.0584859 0
M  V30 10854 H 1026.38 -1.77099 0.828024 0
M  V30 10855 H 1025.08 -3.95383 1.10001 0
M  V30 10856 H 1024.61 -3.88705 -0.605965 0
M  V30 10857 H 1026.63 -4.70909 -1.56393 0
M  V30 10858 N 1025.8 -0.366053 -1.5329 0
M  V30 10859 C 1027.03 0.22391 -2.05383 0
M  V30 10860 C 1027.44 1.42962 -1.23929 0
M  V30 10861 O 1026.78 1.81659 -0.273072 0
M  V30 10862 C 1026.84 0.681038 -3.5299 0
M  V30 10863 C 1026.51 -0.40805 -4.55175 0
M  V30 10864 C 1027.51 -1.25806 -5.04449 0
M  V30 10865 C 1025.19 -0.568428 -4.99073 0
M  V30 10866 C 1027.18 -2.25379 -5.96224 0
M  V30 10867 C 1024.87 -1.56752 -5.90654 0
M  V30 10868 C 1025.87 -2.40864 -6.39119 0
M  V30 10869 O 1025.56 -3.39069 -7.28895 0
M  V30 10870 H 1025.29 0.0429593 -0.674634 0
M  V30 10871 H 1027.84 -0.522897 -1.98633 0
M  V30 10872 H 1026.07 1.47945 -3.5728 0
M  V30 10873 H 1027.76 1.19406 -3.8794 0
M  V30 10874 H 1028.53 -1.14536 -4.71282 0
M  V30 10875 H 1024.41 0.0764858 -4.60937 0
M  V30 10876 H 1027.95 -2.91068 -6.33976 0
M  V30 10877 H 1023.85 -1.6807 -6.23236 0
M  V30 10878 H 1024.62 -3.34804 -7.46893 0
M  V30 10879 N 1027.28 1.57312 -0.0952337 0
M  V30 10880 C 1028.53 1.94358 0.568442 0
M  V30 10881 C 1028.85 0.97698 1.68182 0
M  V30 10882 O 1028.11 -0.00340398 1.957 0
M  V30 10883 C 1028.41 3.37937 1.16332 0
M  V30 10884 C 1028.07 4.50565 0.173715 0
M  V30 10885 C 1026.74 4.81099 -0.0984673 0
M  V30 10886 C 1029.09 5.18777 -0.501992 0
M  V30 10887 C 1026.42 5.77172 -1.05305 0
M  V30 10888 C 1028.77 6.15874 -1.44505 0
M  V30 10889 C 1027.43 6.44813 -1.72546 0
M  V30 10890 H 1026.7 0.711206 0.208007 0
M  V30 10891 H 1029.35 1.90734 -0.171096 0
M  V30 10892 H 1027.65 3.3814 1.97911 0
M  V30 10893 H 1029.35 3.63902 1.68453 0
M  V30 10894 H 1025.94 4.26766 0.396042 0
M  V30 10895 H 1030.13 4.95363 -0.304855 0
M  V30 10896 H 1025.38 5.97909 -1.2773 0
M  V30 10897 H 1029.56 6.67824 -1.97444 0
M  V30 10898 H 1027.18 7.19067 -2.46671 0
M  V30 10899 N 1028.76 -0.17846 1.56586 0
M  V30 10900 C 1029.69 -1.22342 1.98884 0
M  V30 10901 C 1030.67 -1.46564 0.86331 0
M  V30 10902 O 1031.85 -1.58019 1.12887 0
M  V30 10903 C 1028.98 -2.56396 2.34261 0
M  V30 10904 C 1027.94 -2.46756 3.49708 0
M  V30 10905 C 1027.26 -3.85235 3.70807 0
M  V30 10906 C 1028.56 -1.97838 4.83381 0
M  V30 10907 H 1030.26 -0.871848 2.86425 0
M  V30 10908 H 1027.8 -0.417948 1.37801 0
M  V30 10909 H 1029.76 -3.29695 2.62448 0
M  V30 10910 H 1028.48 -2.93327 1.43621 0
M  V30 10911 H 1027.14 -1.75912 3.21637 0
M  V30 10912 H 1026.79 -4.19547 2.7747 0
M  V30 10913 H 1026.49 -3.79655 4.48481 0
M  V30 10914 H 1028.01 -4.60131 4.01387 0
M  V30 10915 H 1029.43 -2.60906 5.10491 0
M  V30 10916 H 1027.82 -2.03223 5.64642 0
M  V30 10917 H 1028.89 -0.932339 4.75852 0
M  V30 10918 N 1030.24 -1.51135 -0.446768 0
M  V30 10919 C 1031.15 -1.74595 -1.56696 0
M  V30 10920 C 1032.16 -0.629816 -1.62201 0
M  V30 10921 O 1033.34 -0.910987 -1.79619 0
M  V30 10922 C 1030.4 -1.85738 -2.9275 0
M  V30 10923 C 1029.46 -3.09564 -2.97437 0
M  V30 10924 C 1028.7 -3.20165 -4.27001 0
M  V30 10925 O 1028.92 -2.36939 -5.1886 0
M  V30 10926 O 1027.85 -4.13077 -4.3778 0
M  V30 10927 H 1031.68 -2.69601 -1.39817 0
M  V30 10928 H 1029.26 -1.35523 -0.628805 0
M  V30 10929 H 1031.15 -1.95107 -3.73512 0
M  V30 10930 H 1029.82 -0.939184 -3.09776 0
M  V30 10931 H 1028.73 -3.05679 -2.15664 0
M  V30 10932 H 1030.06 -4.01041 -2.85353 0
M  V30 10933 N 1031.71 0.701592 -1.41122 0
M  V30 10934 C 1032.96 1.46376 -1.40363 0
M  V30 10935 C 1033.29 1.94197 -0.0105442 0
M  V30 10936 O 1032.57 1.69121 0.960637 0
M  V30 10937 C 1032.85 2.67994 -2.40523 0
M  V30 10938 C 1032.7 2.25977 -3.88914 0
M  V30 10939 C 1034.02 3.70181 -2.38022 0
M  V30 10940 H 1031.14 0.530929 -0.511159 0
M  V30 10941 H 1033.78 0.799588 -1.72356 0
M  V30 10942 H 1031.93 3.24661 -2.13372 0
M  V30 10943 H 1033.61 1.74684 -4.26946 0
M  V30 10944 H 1031.85 1.57826 -4.04071 0
M  V30 10945 H 1032.52 3.13215 -4.54533 0
M  V30 10946 H 1035 3.23174 -2.62103 0
M  V30 10947 H 1033.87 4.52894 -3.10127 0
M  V30 10948 H 1034.13 4.19458 -1.3967 0
M  V30 10949 N 1033.19 1.2685 0.935242 0
M  V30 10950 C 1034.61 1.04091 1.20984 0
M  V30 10951 C 1034.81 -0.230242 2.0018 0
M  V30 10952 O 1033.86 -0.93778 2.3444 0
M  V30 10953 C 1035.18 2.27586 1.96533 0
M  V30 10954 C 1036.72 2.32547 2.09501 0
M  V30 10955 C 1037.2 3.55751 2.88454 0
M  V30 10956 N 1038.69 3.56263 2.96025 0
M  V30 10957 C 1039.43 4.48262 3.57559 0
M  V30 10958 N 1038.92 5.50557 4.20546 0
M  V30 10959 N 1040.71 4.35901 3.5489 0
M  V30 10960 H 1032.87 2.08484 0.405954 0
M  V30 10961 H 1035.13 0.916548 0.242164 0
M  V30 10962 H 1034.83 3.20076 1.45753 0
M  V30 10963 H 1034.71 2.32305 2.97177 0
M  V30 10964 H 1037.1 1.40568 2.5947 0
M  V30 10965 H 1037.18 2.31836 1.08101 0
M  V30 10966 H 1036.82 4.48063 2.3917 0
M  V30 10967 H 1036.75 3.53711 3.90123 0
M  V30 10968 H 1039.24 2.82278 2.51252 0
M  V30 10969 H 1039.55 6.16935 4.65415 0
M  V30 10970 H 1037.9 5.54407 4.19115 0
M  V30 10971 H 1041.09 3.552 3.04879 0
M  V30 10972 H 1041.26 5.07792 4.02557 0
M  V30 10973 N 1034.67 -1.14067 1.0875 0
M  V30 10974 C 1035.9 -1.89041 0.840902 0
M  V30 10975 C 1036.31 -1.78768 -0.60725 0
M  V30 10976 O 1035.67 -1.14945 -1.41753 0
M  V30 10977 C 1035.72 -3.38891 1.25838 0
M  V30 10978 O 1035.44 -3.48886 2.64972 0
M  V30 10979 C 1036.94 -4.30852 1.04315 0
M  V30 10980 H 1034.16 -0.598685 0.303014 0
M  V30 10981 H 1036.71 -1.44438 1.44769 0
M  V30 10982 H 1034.86 -3.81103 0.695627 0
M  V30 10983 H 1035.28 -4.41989 2.82393 0
M  V30 10984 H 1036.75 -5.34353 1.38461 0
M  V30 10985 H 1037.23 -4.39196 -0.0195784 0
M  V30 10986 H 1037.83 -3.944 1.59151 0
M  V30 10987 N 1036.15 -0.873678 -1.31166 0
M  V30 10988 C 1037.4 -0.485497 -1.96182 0
M  V30 10989 C 1037.72 0.96621 -1.69379 0
M  V30 10990 O 1036.99 1.67783 -1.01121 0
M  V30 10991 H 1035.57 -0.176547 -0.725838 0
M  V30 10992 H 1038.23 -1.11428 -1.59906 0
M  V30 10993 H 1037.33 -0.646325 -3.05334 0
M  V30 10994 N 1037.63 1.44308 -0.633487 0
M  V30 10995 C 1039.04 1.85387 -0.221009 0
M  V30 10996 C 1039.39 1.5301 1.22811 0
M  V30 10997 O 1038.51 0.969325 1.93476 0
M  V30 10998 C 1039.11 3.36497 -0.394331 0
M  V30 10999 C 1037.67 3.76382 -0.0363405 0
M  V30 11000 C 1036.81 2.68146 -0.706598 0
M  V30 11001 H 1039.77 1.34741 -0.83849 0
M  V30 11002 H 1039.79 3.78735 0.366026 0
M  V30 11003 H 1039.3 3.60031 -1.44911 0
M  V30 11004 H 1037.4 3.58463 1.01661 0
M  V30 11005 H 1037.51 4.77 -0.448045 0
M  V30 11006 H 1035.88 2.54306 -0.14168 0
M  V30 11007 H 1036.66 2.94512 -1.76401 0
M  V30 11008 N 1039.1 0.374177 1.53094 0
M  V30 11009 C 1040.05 -0.468226 2.26001 0
M  V30 11010 C 1041.02 -1.07041 1.27009 0
M  V30 11011 O 1042.21 -1.10129 1.55809 0
M  V30 11012 C 1039.35 -1.59754 3.05896 0
M  V30 11013 C 1038.46 -1.01969 4.19793 0
M  V30 11014 C 1037.59 -2.11882 4.87113 0
M  V30 11015 C 1036.63 -1.51607 5.93028 0
M  V30 11016 N 1035.77 -2.55388 6.54004 0
M  V30 11017 H 1040.61 0.159983 2.9757 0
M  V30 11018 H 1038.15 0.0907196 1.4682 0
M  V30 11019 H 1040.11 -2.26288 3.50499 0
M  V30 11020 H 1038.74 -2.19628 2.36565 0
M  V30 11021 H 1037.79 -0.244386 3.79614 0
M  V30 11022 H 1039.1 -0.539089 4.95878 0
M  V30 11023 H 1038.25 -2.86218 5.34943 0
M  V30 11024 H 1036.99 -2.63297 4.10519 0
M  V30 11025 H 1036 -0.757891 5.44551 0
M  V30 11026 H 1037.22 -1.01006 6.71546 0
M  V30 11027 H 1035.17 -3.06 5.80258 0
M  V30 11028 H 1035.09 -2.12039 7.25655 0
M  V30 11029 H 1036.35 -3.294 7.06481 0
M  V30 11030 N 1040.58 -1.57259 0.103575 0
M  V30 11031 C 1041.99 -1.81816 -0.424239 0
M  V30 11032 C 1042.34 -1.01976 -1.67617 0
M  V30 11033 O 1041.47 -0.251673 -2.14932 0
M  V30 11034 C 1042.06 -3.29783 -0.776453 0
M  V30 11035 C 1040.62 -3.55074 -1.24897 0
M  V30 11036 C 1039.77 -2.76172 -0.249875 0
M  V30 11037 H 1042.72 -1.55254 0.328913 0
M  V30 11038 H 1042.74 -3.43569 -1.63526 0
M  V30 11039 H 1042.25 -3.87865 0.134906 0
M  V30 11040 H 1040.36 -3.02332 -2.17775 0
M  V30 11041 H 1040.47 -4.637 -1.20495 0
M  V30 11042 H 1038.83 -2.43902 -0.733767 0
M  V30 11043 H 1039.62 -3.37007 0.65431 0
M  V30 11044 N 1042.06 0.170153 -1.56679 0
M  V30 11045 C 1043.47 0.732502 -1.7173 0
M  V30 11046 C 1043.82 1.82736 -0.71428 0
M  V30 11047 O 1042.95 2.16044 0.124102 0
M  V30 11048 C 1043.54 1.33548 -3.11368 0
M  V30 11049 C 1042.1 1.84464 -3.281 0
M  V30 11050 C 1041.25 0.724069 -2.6768 0
M  V30 11051 H 1044.2 -0.0552543 -1.58604 0
M  V30 11052 H 1044.22 2.20519 -3.10083 0
M  V30 11053 H 1043.73 0.5384 -3.84347 0
M  V30 11054 H 1041.83 2.66813 -2.6008 0
M  V30 11055 H 1041.95 1.98928 -4.35849 0
M  V30 11056 H 1040.31 1.14481 -2.27522 0
M  V30 11057 H 1041.09 -0.0611861 -3.43245 0
M  V30 11058 N 1043.54 1.5137 0.438746 0
M  V30 11059 C 1044.49 1.72582 1.53245 0
M  V30 11060 C 1045.46 0.567488 1.56105 0
M  V30 11061 O 1046.64 0.80176 1.73137 0
M  V30 11062 C 1043.78 1.85551 2.90972 0
M  V30 11063 C 1042.89 3.13094 2.97652 0
M  V30 11064 C 1042.03 3.16666 4.26493 0
M  V30 11065 C 1041.07 4.38529 4.27035 0
M  V30 11066 N 1040.2 4.39659 5.47398 0
M  V30 11067 H 1045.04 2.65941 1.3446 0
M  V30 11068 H 1042.58 1.31801 0.653206 0
M  V30 11069 H 1044.54 1.91053 3.70884 0
M  V30 11070 H 1043.17 0.956025 3.08318 0
M  V30 11071 H 1042.22 3.16909 2.10412 0
M  V30 11072 H 1043.53 4.03009 2.93914 0
M  V30 11073 H 1042.69 3.21075 5.14777 0
M  V30 11074 H 1041.43 2.24637 4.32885 0
M  V30 11075 H 1040.43 4.34297 3.37144 0
M  V30 11076 H 1041.66 5.31821 4.22307 0
M  V30 11077 H 1039.6 3.50499 5.54514 0
M  V30 11078 H 1039.52 5.23382 5.45534 0
M  V30 11079 H 1040.79 4.48259 6.37718 0
M  V30 11080 N 1045.02 -0.694098 1.41492 0
M  V30 11081 C 1046.43 -1.27407 1.36471 0
M  V30 11082 C 1046.78 -1.9614 0.0485209 0
M  V30 11083 O 1045.9 -1.98871 -0.853188 0
M  V30 11084 C 1046.5 -2.31698 2.47188 0
M  V30 11085 C 1045.06 -2.85268 2.45559 0
M  V30 11086 C 1044.2 -1.59325 2.2696 0
M  V30 11087 H 1047.16 -0.488756 1.50986 0
M  V30 11088 H 1047.18 -3.1302 2.1633 0
M  V30 11089 H 1046.69 -1.81644 3.42968 0
M  V30 11090 H 1044.79 -3.39494 1.5354 0
M  V30 11091 H 1044.9 -3.35598 3.41922 0
M  V30 11092 H 1043.27 -1.85188 1.74864 0
M  V30 11093 H 1044.05 -1.11265 3.24769 0
M  V30 11094 N 1046.49 -1.27344 -0.928501 0
M  V30 11095 C 1047.72 -1.16557 -1.7155 0
M  V30 11096 C 1048.14 0.274044 -1.86093 0
M  V30 11097 O 1047.5 1.19847 -1.36038 0
M  V30 11098 C 1047.55 -1.85332 -3.09329 0
M  V30 11099 O 1046.65 -1.15074 -3.9602 0
M  V30 11100 H 1046 -0.405423 -0.525859 0
M  V30 11101 H 1048.53 -1.68399 -1.16202 0
M  V30 11102 H 1048.54 -1.92659 -3.59648 0
M  V30 11103 H 1047.21 -2.90056 -2.98061 0
M  V30 11104 H 1045.79 -1.1581 -3.54461 0
M  V30 11105 N 1047.97 1.13488 -1.09353 0
M  V30 11106 C 1048.9 2.20988 -0.75409 0
M  V30 11107 C 1049.88 1.67977 0.267901 0
M  V30 11108 O 1051.07 1.93722 0.136128 0
M  V30 11109 C 1048.2 3.46869 -0.173042 0
M  V30 11110 C 1047.15 4.12965 -1.12446 0
M  V30 11111 C 1046.48 5.33163 -0.405157 0
M  V30 11112 C 1047.78 4.60388 -2.46658 0
M  V30 11113 H 1049.47 2.49639 -1.6529 0
M  V30 11114 H 1047.02 1.19987 -0.796182 0
M  V30 11115 H 1048.97 4.21331 0.0764988 0
M  V30 11116 H 1047.7 3.17611 0.760956 0
M  V30 11117 H 1046.35 3.40469 -1.35927 0
M  V30 11118 H 1046 5.00169 0.532955 0
M  V30 11119 H 1045.7 5.78332 -1.03952 0
M  V30 11120 H 1047.23 6.1038 -0.163899 0
M  V30 11121 H 1048.64 5.26276 -2.27389 0
M  V30 11122 H 1047.04 5.16294 -3.05876 0
M  V30 11123 H 1048.11 3.74949 -3.07476 0
M  V30 11124 N 1049.45 0.880621 1.30701 0
M  V30 11125 C 1050.68 0.510909 2.01009 0
M  V30 11126 C 1051.1 -0.892041 1.65603 0
M  V30 11127 O 1050.46 -1.59045 0.870309 0
M  V30 11128 C 1050.51 0.687759 3.53981 0
M  V30 11129 O 1049.61 -0.268275 4.11526 0
M  V30 11130 H 1048.95 0.201864 0.632572 0
M  V30 11131 H 1051.48 1.18697 1.6665 0
M  V30 11132 H 1051.49 0.585095 4.03783 0
M  V30 11133 H 1050.17 1.71068 3.79089 0
M  V30 11134 H 1048.74 -0.119673 3.72708 0
M  V30 11135 N 1050.93 -1.4397 0.641131 0
M  V30 11136 C 1052.15 -2.06818 0.155318 0
M  V30 11137 C 1052.58 -1.47665 -1.16519 0
M  V30 11138 O 1051.94 -0.58192 -1.71707 0
M  V30 11139 C 1051.99 -3.60542 0.0647537 0
M  V30 11140 O 1051.09 -4.00674 -0.976447 0
M  V30 11141 H 1050.43 -0.657962 0.0893404 0
M  V30 11142 H 1052.96 -1.84678 0.88064 0
M  V30 11143 H 1052.97 -4.07816 -0.122552 0
M  V30 11144 H 1051.65 -4.02975 1.02878 0
M  V30 11145 H 1050.22 -3.65013 -0.762905 0
M  V30 11146 N 1052.41 -0.382291 -1.52893 0
M  V30 11147 C 1053.63 0.204961 -2.06385 0
M  V30 11148 C 1054.06 1.40316 -1.25271 0
M  V30 11149 O 1053.42 1.79187 -0.275969 0
M  V30 11150 C 1053.46 0.560205 -3.56222 0
M  V30 11151 O 1052.57 1.65515 -3.77728 0
M  V30 11152 H 1051.91 0.0258798 -0.663495 0
M  V30 11153 H 1054.44 -0.547733 -1.97132 0
M  V30 11154 H 1054.45 0.826501 -3.99541 0
M  V30 11155 H 1053.12 -0.31584 -4.14699 0
M  V30 11156 H 1051.7 1.38311 -3.46301 0
M  V30 11157 N 1053.89 1.57202 -0.111913 0
M  V30 11158 C 1055.3 1.57713 0.244702 0
M  V30 11159 C 1055.5 1.12419 1.67225 0
M  V30 11160 O 1054.56 0.808329 2.39212 0
M  V30 11161 C 1055.87 3.00695 0.0178289 0
M  V30 11162 C 1057.42 3.12887 0.0842781 0
M  V30 11163 C 1057.89 4.57856 -0.114812 0
M  V30 11164 N 1059.38 4.6316 -0.0605423 0
M  V30 11165 C 1060.12 5.73086 -0.189594 0
M  V30 11166 N 1059.62 6.91787 -0.37442 0
M  V30 11167 N 1061.41 5.6195 -0.12967 0
M  V30 11168 H 1053.56 1.84947 -1.04443 0
M  V30 11169 H 1055.82 0.854418 -0.4107 0
M  V30 11170 H 1055.53 3.38093 -0.968802 0
M  V30 11171 H 1055.4 3.69611 0.752815 0
M  V30 11172 H 1057.79 2.7535 1.06143 0
M  V30 11173 H 1057.87 2.46528 -0.682474 0
M  V30 11174 H 1057.51 4.9609 -1.0889 0
M  V30 11175 H 1057.44 5.22297 0.671839 0
M  V30 11176 H 1059.94 3.77817 0.0790856 0
M  V30 11177 H 1060.25 7.71406 -0.463948 0
M  V30 11178 H 1058.59 6.93788 -0.410303 0
M  V30 11179 H 1061.78 4.68098 0.0137115 0
M  V30 11180 H 1061.96 6.47578 -0.233688 0
M  V30 11181 N 1055.36 -0.161842 1.56767 0
M  V30 11182 C 1056.61 -0.875278 1.81719 0
M  V30 11183 C 1056.93 -1.82998 0.690739 0
M  V30 11184 O 1058.13 -2.58648 0.82545 0
M  V30 11185 C 1056.59 -1.60703 3.22029 0
M  V30 11186 C 1056.2 -0.695486 4.42569 0
M  V30 11187 C 1057.94 -2.30813 3.56266 0
M  V30 11188 C 1055.85 -1.42801 5.73901 0
M  V30 11189 H 1054.78 -0.330591 0.677662 0
M  V30 11190 H 1057.43 -0.128112 1.83052 0
M  V30 11191 H 1055.81 -2.39929 3.1504 0
M  V30 11192 H 1056.98 0.0604882 4.6076 0
M  V30 11193 H 1055.3 -0.10356 4.16271 0
M  V30 11194 H 1057.9 -2.86229 4.51638 0
M  V30 11195 H 1058.24 -3.06603 2.81604 0
M  V30 11196 H 1058.77 -1.5852 3.64851 0
M  V30 11197 H 1055.51 -0.712253 6.51619 0
M  V30 11198 H 1055.03 -2.15707 5.5967 0
M  V30 11199 H 1056.71 -1.97295 6.16185 0
M  V30 11200 N 1056.84 -1.516 -0.430713 0
M  V30 11201 C 1057.79 -1.73392 -1.52328 0
M  V30 11202 C 1058.76 -0.575758 -1.55802 0
M  V30 11203 O 1059.94 -0.810931 -1.72709 0
M  V30 11204 C 1057.08 -1.87092 -2.89984 0
M  V30 11205 C 1056.2 -3.14668 -2.95987 0
M  V30 11206 C 1055.33 -3.18923 -4.24807 0
M  V30 11207 C 1054.37 -4.40787 -4.24703 0
M  V30 11208 N 1053.51 -4.42556 -5.45059 0
M  V30 11209 H 1058.35 -2.6665 -1.33048 0
M  V30 11210 H 1055.88 -1.32146 -0.646207 0
M  V30 11211 H 1057.84 -1.93017 -3.69865 0
M  V30 11212 H 1056.47 -0.972363 -3.07807 0
M  V30 11213 H 1055.52 -3.1802 -2.08728 0
M  V30 11214 H 1056.84 -4.04562 -2.91772 0
M  V30 11215 H 1055.99 -3.23801 -5.13067 0
M  V30 11216 H 1054.73 -2.2693 -4.31688 0
M  V30 11217 H 1053.73 -4.36079 -3.34836 0
M  V30 11218 H 1054.96 -5.34053 -4.19481 0
M  V30 11219 H 1052.91 -3.53435 -5.52648 0
M  V30 11220 H 1052.82 -5.26267 -5.42751 0
M  V30 11221 H 1054.09 -4.51634 -6.35332 0
M  V30 11222 N 1058.32 0.686584 -1.41858 0
M  V30 11223 C 1059.27 1.80038 -1.44413 0
M  V30 11224 C 1060.24 1.63415 -0.297427 0
M  V30 11225 O 1061.42 1.84138 -0.499789 0
M  V30 11226 C 1058.56 3.17988 -1.34082 0
M  V30 11227 C 1057.67 3.45979 -2.58693 0
M  V30 11228 C 1056.81 4.73592 -2.4059 0
M  V30 11229 C 1055.85 4.94581 -3.60633 0
M  V30 11230 N 1054.99 6.13426 -3.41545 0
M  V30 11231 H 1059.83 1.77189 -2.396 0
M  V30 11232 H 1057.36 0.865158 -1.18968 0
M  V30 11233 H 1059.32 3.97689 -1.26092 0
M  V30 11234 H 1057.95 3.1999 -0.424975 0
M  V30 11235 H 1057 2.60617 -2.77097 0
M  V30 11236 H 1058.31 3.57386 -3.47961 0
M  V30 11237 H 1057.47 5.61364 -2.30119 0
M  V30 11238 H 1056.21 4.64448 -1.48794 0
M  V30 11239 H 1055.21 4.05254 -3.71549 0
M  V30 11240 H 1056.44 5.05578 -4.53395 0
M  V30 11241 H 1054.38 6.05477 -2.52456 0
M  V30 11242 H 1054.3 6.25641 -4.24393 0
M  V30 11243 H 1055.57 7.03908 -3.34864 0
M  V30 11244 N 1059.8 1.27835 0.921735 0
M  V30 11245 C 1061.04 1.14692 1.67253 0
M  V30 11246 C 1061.38 -0.305384 1.91784 0
M  V30 11247 O 1060.65 -1.22286 1.51249 0
M  V30 11248 C 1060.93 1.93743 3.03539 0
M  V30 11249 C 1060.79 3.46991 2.86212 0
M  V30 11250 C 1062.11 1.74658 4.03959 0
M  V30 11251 H 1059.23 0.418021 0.606983 0
M  V30 11252 H 1061.87 1.5706 1.06922 0
M  V30 11253 H 1060.02 1.57738 3.55037 0
M  V30 11254 H 1061.69 3.92858 2.41785 0
M  V30 11255 H 1059.93 3.73029 2.21432 0
M  V30 11256 H 1060.6 3.97551 3.82958 0
M  V30 11257 H 1063.08 2.06063 3.61493 0
M  V30 11258 H 1061.96 2.32353 4.97296 0
M  V30 11259 H 1062.22 0.696019 4.36587 0
M  V30 11260 N 1061.28 -1.12907 1.09954 0
M  V30 11261 C 1062.5 -1.88679 0.861099 0
M  V30 11262 C 1062.93 -1.78853 -0.582499 0
M  V30 11263 O 1062.28 -1.13992 -1.4098 0
M  V30 11264 C 1062.33 -3.36047 1.30785 0
M  V30 11265 O 1061.44 -4.09716 0.469728 0
M  V30 11266 H 1060.78 -0.586447 0.31141 0
M  V30 11267 H 1063.31 -1.42818 1.46507 0
M  V30 11268 H 1063.32 -3.86882 1.29562 0
M  V30 11269 H 1061.99 -3.42516 2.35914 0
M  V30 11270 H 1060.57 -3.6887 0.54674 0
M  V30 11271 N 1062.75 -0.88754 -1.30232 0
M  V30 11272 C 1063.98 -0.521549 -1.99909 0
M  V30 11273 C 1064.39 0.895086 -1.66688 0
M  V30 11274 O 1063.73 1.60053 -0.90159 0
M  V30 11275 C 1063.8 -0.619564 -3.54121 0
M  V30 11276 C 1063.46 -2.00097 -4.10865 0
M  V30 11277 C 1064.46 -2.97068 -4.26669 0
M  V30 11278 C 1062.14 -2.30706 -4.46184 0
M  V30 11279 C 1064.14 -4.2278 -4.77007 0
M  V30 11280 C 1061.82 -3.56663 -4.96221 0
M  V30 11281 C 1062.82 -4.52515 -5.11585 0
M  V30 11282 O 1062.51 -5.76237 -5.60541 0
M  V30 11283 H 1062.24 -0.199904 -0.645766 0
M  V30 11284 H 1064.8 -1.19546 -1.67027 0
M  V30 11285 H 1063.03 0.111334 -3.8654 0
M  V30 11286 H 1064.71 -0.26448 -4.05037 0
M  V30 11287 H 1065.48 -2.74734 -3.99683 0
M  V30 11288 H 1061.36 -1.56865 -4.33491 0
M  V30 11289 H 1064.9 -4.97603 -4.88914 0
M  V30 11290 H 1060.8 -3.78834 -5.22643 0
M  V30 11291 H 1061.57 -5.78655 -5.78879 0
M  V30 11292 N 1064.23 1.43628 -0.648757 0
M  V30 11293 C 1065.18 2.32529 0.057536 0
M  V30 11294 C 1066.17 1.48358 0.817699 0
M  V30 11295 O 1067.38 1.64595 0.728605 0
M  V30 11296 H 1063.76 0.75107 0.037388 0
M  V30 11297 H 1065.73 2.89829 -0.710062 0
M  V30 11298 C 1064.48 3.32605 1.01336 0
M  V30 11299 H 1063.8 3.97395 0.437855 0
M  V30 11300 H 1065.24 3.97453 1.47672 0
M  V30 11301 C 1063.7 2.62865 2.10722 0
M  V30 11302 O 1064.23 2.4408 3.19042 0
M  V30 11303 N 1062.43 2.22312 1.87152 0
M  V30 11304 H 1061.98 2.3779 0.990644 0
M  V30 11305 H 1061.94 1.75979 2.60536 0
M  V30 11306 N 1065.71 0.390394 1.52688 0
M  V30 11307 C 1066.96 -0.192697 2.00777 0
M  V30 11308 C 1067.27 -1.4781 1.28108 0
M  V30 11309 O 1068.48 -2.1413 1.66914 0
M  V30 11310 C 1066.93 -0.393955 3.57737 0
M  V30 11311 C 1066.54 0.878259 4.39307 0
M  V30 11312 C 1068.29 -0.933352 4.14112 0
M  V30 11313 C 1066.19 0.645218 5.8787 0
M  V30 11314 H 1065.12 -0.0757862 0.750182 0
M  V30 11315 H 1067.77 0.512961 1.76184 0
M  V30 11316 H 1066.16 -1.16149 3.78583 0
M  V30 11317 H 1067.33 1.65049 4.30227 0
M  V30 11318 H 1065.65 1.34269 3.94158 0
M  V30 11319 H 1068.24 -1.12343 5.22765 0
M  V30 11320 H 1068.59 -1.90272 3.70273 0
M  V30 11321 H 1069.12 -0.225361 3.97161 0
M  V30 11322 H 1065.86 1.58562 6.36033 0
M  V30 11323 H 1065.38 -0.0880609 5.99735 0
M  V30 11324 H 1067.06 0.280178 6.46393 0
M  V30 11325 N 1067.19 -1.57141 0.120249 0
M  V30 11326 C 1068.44 -1.94852 -0.536387 0
M  V30 11327 C 1068.76 -1.00452 -1.67136 0
M  V30 11328 O 1068.03 -0.061053 -1.95805 0
M  V30 11329 H 1066.61 -0.719411 -0.201138 0
M  V30 11330 H 1069.27 -1.93977 0.189482 0
M  V30 11331 H 1068.37 -2.97917 -0.930145 0
M  V30 11332 N 1068.67 0.153526 -1.5685 0
M  V30 11333 C 1069.89 0.882335 -1.87143 0
M  V30 11334 C 1070.31 1.75034 -0.707702 0
M  V30 11335 O 1069.67 1.79624 0.32273 0
M  V30 11336 C 1069.72 1.74444 -3.16625 0
M  V30 11337 O 1069.44 0.911419 -4.28515 0
M  V30 11338 C 1070.94 2.58139 -3.60388 0
M  V30 11339 H 1068.16 0.25546 -0.620469 0
M  V30 11340 H 1070.7 0.148275 -2.03962 0
M  V30 11341 H 1068.86 2.43163 -3.0158 0
M  V30 11342 H 1069.27 1.50268 -5.02513 0
M  V30 11343 H 1070.75 3.14215 -4.53842 0
M  V30 11344 H 1071.22 3.33865 -2.85361 0
M  V30 11345 H 1071.83 1.94721 -3.78105 0
M  V30 11346 N 1070.14 1.51827 0.422667 0
M  V30 11347 C 1071.08 1.68901 1.53453 0
M  V30 11348 C 1072.06 0.536549 1.53492 0
M  V30 11349 O 1073.24 0.762226 1.72402 0
M  V30 11350 C 1070.37 1.71599 2.92013 0
M  V30 11351 C 1069.41 2.92984 3.0994 0
M  V30 11352 S 1070.25 4.53559 2.84683 0
M  V30 11353 C 1071.4 4.59024 4.25498 0
M  V30 11354 H 1071.63 2.62943 1.38739 0
M  V30 11355 H 1069.17 1.41695 0.613347 0
M  V30 11356 H 1071.13 1.73838 3.71874 0
M  V30 11357 H 1069.79 0.787083 3.04079 0
M  V30 11358 H 1068.98 2.91315 4.1128 0
M  V30 11359 H 1068.58 2.88562 2.37924 0
M  V30 11360 H 1070.87 4.35567 5.18929 0
M  V30 11361 H 1071.82 5.60904 4.32195 0
M  V30 11362 H 1072.22 3.88193 4.09837 0
M  V30 11363 N 1071.62 -0.679052 1.4222 0
M  V30 11364 C 1072.87 -1.43912 1.42463 0
M  V30 11365 C 1073.2 -1.9446 0.0395574 0
M  V30 11366 O 1072.45 -1.71019 -0.951365 0
M  V30 11367 C 1072.75 -2.65528 2.39227 0
M  V30 11368 C 1072.42 -2.33545 3.85704 0
M  V30 11369 C 1071.08 -2.24534 4.25603 0
M  V30 11370 C 1073.43 -2.07496 4.78116 0
M  V30 11371 C 1070.76 -1.87592 5.55901 0
M  V30 11372 C 1073.11 -1.72059 6.08752 0
M  V30 11373 C 1071.78 -1.61555 6.47654 0
M  V30 11374 H 1071.05 -0.52661 0.521309 0
M  V30 11375 H 1073.69 -0.774661 1.75132 0
M  V30 11376 H 1072 -3.36985 1.9987 0
M  V30 11377 H 1073.69 -3.23702 2.36681 0
M  V30 11378 H 1070.28 -2.4146 3.54112 0
M  V30 11379 H 1074.47 -2.13393 4.48082 0
M  V30 11380 H 1069.72 -1.78026 5.84908 0
M  V30 11381 H 1073.9 -1.50926 6.79849 0
M  V30 11382 H 1071.53 -1.32699 7.48529 0
M  V30 11383 N 1073.1 -1.28322 -0.914942 0
M  V30 11384 C 1074.03 -1.14681 -2.03398 0
M  V30 11385 C 1075.01 -0.0448939 -1.70041 0
M  V30 11386 O 1076.2 -0.221672 -1.92931 0
M  V30 11387 C 1073.33 -0.806623 -3.37803 0
M  V30 11388 C 1072.28 -1.86318 -3.85318 0
M  V30 11389 C 1071.61 -1.37665 -5.16674 0
M  V30 11390 C 1072.91 -3.26953 -4.07307 0
M  V30 11391 H 1074.6 -2.08293 -2.15068 0
M  V30 11392 H 1072.15 -1.00284 -1.03339 0
M  V30 11393 H 1074.1 -0.69796 -4.1558 0
M  V30 11394 H 1072.82 0.165203 -3.26182 0
M  V30 11395 H 1071.48 -1.96096 -3.09745 0
M  V30 11396 H 1071.13 -0.393927 -5.01455 0
M  V30 11397 H 1070.83 -2.08313 -5.49435 0
M  V30 11398 H 1072.35 -1.28119 -5.97007 0
M  V30 11399 H 1073.77 -3.20102 -4.75613 0
M  V30 11400 H 1072.17 -3.95424 -4.51398 0
M  V30 11401 H 1073.24 -3.71059 -3.12159 0
M  V30 11402 N 1074.58 1.12322 -1.10551 0
M  V30 11403 C 1075.99 1.35858 -0.837543 0
M  V30 11404 C 1076.19 1.94062 0.54241 0
M  V30 11405 O 1075.25 2.1676 1.29505 0
M  V30 11406 C 1076.56 2.299 -1.9382 0
M  V30 11407 C 1078.11 2.43488 -1.96679 0
M  V30 11408 C 1078.59 3.40846 -3.05922 0
M  V30 11409 N 1080.08 3.48404 -3.05236 0
M  V30 11410 C 1080.81 4.2365 -3.86405 0
M  V30 11411 N 1080.31 5.01951 -4.77512 0
M  V30 11412 N 1082.1 4.19068 -3.74618 0
M  V30 11413 H 1074.25 0.729002 -1.99498 0
M  V30 11414 H 1076.52 0.38339 -0.867016 0
M  V30 11415 H 1076.22 1.94309 -2.9315 0
M  V30 11416 H 1076.1 3.30033 -1.82641 0
M  V30 11417 H 1078.48 2.78359 -0.979813 0
M  V30 11418 H 1078.56 1.43239 -2.11934 0
M  V30 11419 H 1078.21 3.06704 -4.04839 0
M  V30 11420 H 1078.14 4.40927 -2.87907 0
M  V30 11421 H 1080.63 2.92545 -2.39219 0
M  V30 11422 H 1080.94 5.56707 -5.36002 0
M  V30 11423 H 1079.29 5.01143 -4.8154 0
M  V30 11424 H 1082.48 3.5698 -3.02792 0
M  V30 11425 H 1082.65 4.77455 -4.38111 0
M  V30 11426 N 1076.06 0.894434 1.2976 0
M  V30 11427 C 1076.97 0.372622 2.31622 0
M  V30 11428 C 1077.98 -0.52996 1.65733 0
M  V30 11429 O 1079.16 -0.420807 1.96955 0
M  V30 11430 C 1076.22 -0.396076 3.4443 0
M  V30 11431 C 1075.28 0.537394 4.25923 0
M  V30 11432 C 1074.52 -0.194713 5.33345 0
M  V30 11433 O 1074.74 -1.41943 5.52457 0
M  V30 11434 O 1073.67 0.460055 6.00139 0
M  V30 11435 H 1077.5 1.21756 2.78225 0
M  V30 11436 H 1075.09 0.65858 1.34101 0
M  V30 11437 H 1076.97 -0.830962 4.13126 0
M  V30 11438 H 1075.64 -1.21716 2.99945 0
M  V30 11439 H 1074.55 1.02129 3.5989 0
M  V30 11440 H 1075.88 1.32475 4.74037 0
M  V30 11441 N 1077.53 -1.43282 0.656365 0
M  V30 11442 C 1078.76 -2.06125 0.178879 0
M  V30 11443 C 1079.18 -1.49216 -1.15672 0
M  V30 11444 O 1078.53 -0.624693 -1.71475 0
M  V30 11445 C 1078.59 -3.614 0.0851785 0
M  V30 11446 O 1078.31 -4.16194 1.36798 0
M  V30 11447 C 1079.81 -4.41325 -0.41801 0
M  V30 11448 H 1077.03 -0.664753 0.0913504 0
M  V30 11449 H 1079.57 -1.83733 0.897901 0
M  V30 11450 H 1077.73 -3.82966 -0.584421 0
M  V30 11451 H 1078.14 -5.09892 1.22924 0
M  V30 11452 H 1079.61 -5.50303 -0.432519 0
M  V30 11453 H 1080.09 -4.14577 -1.44991 0
M  V30 11454 H 1080.7 -4.24735 0.219208 0
M  V30 11455 N 1079.01 -0.398486 -1.52479 0
M  V30 11456 C 1080.24 0.183059 -2.06591 0
M  V30 11457 C 1080.66 1.3898 -1.26753 0
M  V30 11458 O 1080.02 1.78885 -0.294959 0
M  V30 11459 C 1080.07 0.522392 -3.56796 0
M  V30 11460 O 1079.17 1.61499 -3.79462 0
M  V30 11461 H 1078.51 0.0188411 -0.663733 0
M  V30 11462 H 1081.04 -0.56861 -1.9654 0
M  V30 11463 H 1081.05 0.784078 -4.00395 0
M  V30 11464 H 1079.73 -0.359807 -4.14341 0
M  V30 11465 H 1078.31 1.3463 -3.47749 0
M  V30 11466 N 1080.49 1.57075 -0.12858 0
M  V30 11467 C 1081.42 2.18833 0.814519 0
M  V30 11468 C 1082.4 1.13114 1.2704 0
M  V30 11469 O 1083.59 1.41387 1.33129 0
M  V30 11470 C 1080.72 2.79535 2.06101 0
M  V30 11471 C 1079.67 3.9092 1.74257 0
M  V30 11472 C 1079 4.38473 3.06015 0
M  V30 11473 C 1080.3 5.1257 1.00345 0
M  V30 11474 H 1081.99 2.97895 0.299862 0
M  V30 11475 H 1079.54 1.4329 0.14279 0
M  V30 11476 H 1081.49 3.21401 2.72543 0
M  V30 11477 H 1080.21 1.97777 2.59907 0
M  V30 11478 H 1078.87 3.49645 1.102 0
M  V30 11479 H 1078.52 3.53561 3.57776 0
M  V30 11480 H 1078.22 5.13591 2.85479 0
M  V30 11481 H 1079.75 4.82997 3.7356 0
M  V30 11482 H 1081.16 5.51395 1.56959 0
M  V30 11483 H 1079.56 5.93333 0.898693 0
M  V30 11484 H 1080.63 4.84899 -0.0081335 0
M  V30 11485 O 1082.01 -0.0105399 1.61497 0
M  V30 11486 H 1082.7 -0.628636 1.83215 0
M  V30 END ATOM
M  V30 BEGIN BOND
M  V30 END BOND
M  V30 END CTAB
M  END
$$$$
