drugbank_target|P0DMS8 Adenosine receptor A3 (DB00201; DB00640; DB00824; DB01223; DB05511; DB12010)
 OpenBabel12092119303D

  0  0  0     0  0            999 V3000
M  V30 BEGIN CTAB
M  V30 COUNTS 5211 5272 0 0 0
M  V30 BEGIN ATOM
M  V30 1 H -0.908 1.98254 -0.117106 0
M  V30 2 N 0 1.576 0 0
M  V30 3 C 0.933 2.03868 1.02534 0
M  V30 4 C 1.911 0.928543 1.3348 0
M  V30 5 O 3.095 1.19667 1.45644 0
M  V30 6 C 0.222 2.43627 2.35294 0
M  V30 7 C -0.732 3.65373 2.2001 0
M  V30 8 S 0.101 5.13292 1.52614 0
M  V30 9 C 1.257 5.56322 2.86805 0
M  V30 10 H 1.49 2.90518 0.631377 0
M  V30 11 H -0.977 1.52953 0.210867 0
M  V30 12 H 0.981 2.67203 3.11629 0
M  V30 13 H -0.358 1.57376 2.7183 0
M  V30 14 H -1.165 3.90944 3.18086 0
M  V30 15 H -1.563 3.418 1.51819 0
M  V30 16 H 0.729 5.58782 3.83104 0
M  V30 17 H 1.672 6.56266 2.65933 0
M  V30 18 H 2.08 4.83886 2.90714 0
M  V30 19 N 1.4781 -0.272755 1.55222 0
M  V30 20 C 2.8891 -0.84378 1.66545 0
M  V30 21 C 3.2401 -1.87035 0.592641 0
M  V30 22 O 2.3651 -2.14761 -0.265818 0
M  V30 23 C 2.9601 -1.53723 3.01918 0
M  V30 24 C 1.5191 -2.05628 3.15268 0
M  V30 25 C 0.6661 -0.898424 2.62343 0
M  V30 26 H 3.6171 -0.0490998 1.58624 0
M  V30 27 H 3.6381 -2.40421 2.94921 0
M  V30 28 H 3.1501 -0.78983 3.79978 0
M  V30 29 H 1.2511 -2.83329 2.41983 0
M  V30 30 H 1.3641 -2.27142 4.21833 0
M  V30 31 H -0.2719 -1.29186 2.19506 0
M  V30 32 H 0.5111 -0.164528 3.42906 0
M  V30 33 N 2.9562 -1.48159 -0.537278 0
M  V30 34 C 3.9042 -1.62573 -1.66352 0
M  V30 35 C 4.8982 -0.492366 -1.62087 0
M  V30 36 O 6.1042 -0.670847 -1.67032 0
M  V30 37 H 2.4792 -0.511992 -0.550789 0
M  V30 38 H 4.4502 -2.57176 -1.51337 0
M  V30 39 C 3.1992 -1.67583 -3.04649 0
M  V30 40 H 2.5222 -2.54151 -3.08622 0
M  V30 41 H 3.9622 -1.81713 -3.83088 0
M  V30 42 C 2.4212 -0.413039 -3.34358 0
M  V30 43 O 2.9512 0.477259 -3.98855 0
M  V30 44 N 1.1572 -0.286961 -2.8918 0
M  V30 45 H 0.7042 -1.01241 -2.36871 0
M  V30 46 H 0.6622 0.556963 -3.09427 0
M  V30 47 N 4.4343 0.785586 -1.36625 0
M  V30 48 C 5.3823 1.91978 -1.31329 0
M  V30 49 C 6.3763 1.68162 -0.204416 0
M  V30 50 O 7.5823 1.76122 -0.371645 0
M  V30 51 H 3.9573 0.631087 -0.408942 0
M  V30 52 H 5.9283 1.93562 -2.27104 0
M  V30 53 C 4.6773 3.29055 -1.12329 0
M  V30 54 H 4.0003 3.4795 -1.96903 0
M  V30 55 H 5.4403 4.08756 -1.12671 0
M  V30 56 C 3.8993 3.36461 0.171861 0
M  V30 57 O 4.4293 3.84576 1.16035 0
M  V30 58 N 2.6353 2.89782 0.217846 0
M  V30 59 H 2.1823 2.50819 -0.587183 0
M  V30 60 H 2.1403 2.95119 1.08408 0
M  V30 61 N 5.9124 1.20967 1.01018 0
M  V30 62 C 7.1374 1.0503 1.78839 0
M  V30 63 C 7.5624 -0.395752 1.8389 0
M  V30 64 O 6.9204 -1.28529 1.27867 0
M  V30 65 C 6.9684 1.64602 3.2084 0
M  V30 66 O 6.0724 0.887988 4.02726 0
M  V30 67 H 5.4134 0.369987 0.551367 0
M  V30 68 H 7.9434 1.60399 1.27018 0
M  V30 69 H 7.9534 1.68607 3.71532 0
M  V30 70 H 6.6284 2.69841 3.16479 0
M  V30 71 H 5.2054 0.922648 3.61305 0
M  V30 72 N 7.3905 -1.2043 1.01659 0
M  V30 73 C 8.6185 -1.93777 0.725132 0
M  V30 74 C 9.0335 -1.74772 -0.714166 0
M  V30 75 O 8.3905 -1.06169 -1.4844 0
M  V30 76 C 8.4415 -3.45876 1.05129 0
M  V30 77 O 8.1625 -3.6426 2.43406 0
M  V30 78 C 9.6635 -4.36368 0.780891 0
M  V30 79 H 6.8835 -0.615901 0.266284 0
M  V30 80 H 9.4275 -1.52922 1.35776 0
M  V30 81 H 7.5825 -3.8461 0.464065 0
M  V30 82 H 7.9965 -4.58246 2.55169 0
M  V30 83 H 9.4705 -5.41743 1.05918 0
M  V30 84 H 9.9475 -4.38275 -0.284937 0
M  V30 85 H 10.5535 -4.03296 1.35027 0
M  V30 86 N 8.8686 -0.792821 -1.36206 0
M  V30 87 C 9.8316 -0.199459 -2.2833 0
M  V30 88 C 10.8316 0.605189 -1.48977 0
M  V30 89 O 12.0216 0.425685 -1.68919 0
M  V30 90 C 9.1536 0.723523 -3.33134 0
M  V30 91 H 10.3466 -1.01181 -2.82316 0
M  V30 92 H 7.8996 -0.562485 -1.45828 0
M  V30 93 H 8.6346 1.56008 -2.84309 0
M  V30 94 H 8.4196 0.148436 -3.91819 0
M  V30 95 H 9.9096 1.13344 -4.01924 0
M  V30 96 N 10.3467 1.47872 -0.545128 0
M  V30 97 C 11.2767 2.32661 0.197793 0
M  V30 98 C 12.2577 1.43041 0.920504 0
M  V30 99 O 13.4427 1.71912 0.90333 0
M  V30 100 C 10.5727 3.24569 1.23582 0
M  V30 101 C 9.5267 4.23333 0.630323 0
M  V30 102 C 8.8527 5.0448 1.77211 0
M  V30 103 C 10.1527 5.20704 -0.407974 0
M  V30 104 H 11.8467 2.95024 -0.510045 0
M  V30 105 H 9.3927 1.4187 -0.246731 0
M  V30 106 H 11.3457 3.8272 1.76362 0
M  V30 107 H 10.0697 2.60236 1.97344 0
M  V30 108 H 8.7287 3.6639 0.123922 0
M  V30 109 H 8.3767 4.36561 2.49847 0
M  V30 110 H 8.0767 5.71339 1.37281 0
M  V30 111 H 9.6007 5.65487 2.3034 0
M  V30 112 H 11.0147 5.7329 0.033305 0
M  V30 113 H 9.4117 5.95699 -0.725486 0
M  V30 114 H 10.4817 4.66917 -1.30828 0
M  V30 115 N 11.8248 0.280983 1.55075 0
M  V30 116 C 13.0498 -0.340154 2.04592 0
M  V30 117 C 13.4748 -1.48246 1.15779 0
M  V30 118 O 12.8328 -1.80614 0.15761 0
M  V30 119 C 12.8808 -0.793104 3.5177 0
M  V30 120 O 11.9848 -1.89981 3.66034 0
M  V30 121 H 11.3258 -0.0694289 0.66036 0
M  V30 122 H 13.8558 0.416993 2.00306 0
M  V30 123 H 13.8658 -1.08729 3.93245 0
M  V30 124 H 12.5408 0.0426163 4.15878 0
M  V30 125 H 11.1178 -1.60771 3.36463 0
M  V30 126 N 13.3029 -1.57598 0.00835791 0
M  V30 127 C 14.2329 -2.1198 -0.979113 0
M  V30 128 C 15.2139 -1.03091 -1.35301 0
M  V30 129 O 16.3989 -1.30818 -1.43528 0
M  V30 130 C 13.5289 -2.62995 -2.26828 0
M  V30 131 C 12.4829 -3.76485 -2.03576 0
M  V30 132 C 11.8089 -4.13846 -3.38579 0
M  V30 133 C 13.1089 -5.0342 -1.39161 0
M  V30 134 H 14.8029 -2.94738 -0.526281 0
M  V30 135 H 12.3489 -1.41783 -0.251704 0
M  V30 136 H 14.3019 -2.99669 -2.96271 0
M  V30 137 H 13.0259 -1.7737 -2.7424 0
M  V30 138 H 11.6849 -3.40217 -1.36557 0
M  V30 139 H 11.3329 -3.25232 -3.83709 0
M  V30 140 H 11.0329 -4.90312 -3.23834 0
M  V30 141 H 12.5569 -4.53086 -4.09323 0
M  V30 142 H 13.9709 -5.37812 -1.98573 0
M  V30 143 H 12.3679 -5.84746 -1.34878 0
M  V30 144 H 13.4379 -4.83548 -0.361868 0
M  V30 145 N 14.781 0.264519 -1.55364 0
M  V30 146 C 15.744 1.31046 -1.88042 0
M  V30 147 C 16.744 1.41943 -0.755569 0
M  V30 148 O 17.934 1.40947 -1.02369 0
M  V30 149 C 15.066 2.69067 -2.09323 0
M  V30 150 H 16.259 1.03297 -2.81549 0
M  V30 151 H 13.812 0.502989 -1.47986 0
M  V30 152 H 14.547 3.01982 -1.18226 0
M  V30 153 H 14.332 2.62542 -2.91229 0
M  V30 154 H 15.822 3.44623 -2.35848 0
M  V30 155 N 16.2591 1.48442 0.529413 0
M  V30 156 C 17.2071 1.63452 1.65487 0
M  V30 157 C 18.2011 0.500955 1.61823 0
M  V30 158 O 19.4071 0.679695 1.66674 0
M  V30 159 H 15.7821 0.514905 0.548066 0
M  V30 160 H 17.7531 2.57975 1.49971 0
M  V30 161 C 16.5021 1.69196 3.03756 0
M  V30 162 H 15.8251 2.55784 3.07269 0
M  V30 163 H 17.2651 1.83743 3.82119 0
M  V30 164 C 15.7241 0.430765 3.34135 0
M  V30 165 O 16.2541 -0.4561 3.99102 0
M  V30 166 N 14.4601 0.302293 2.89023 0
M  V30 167 H 14.0071 1.02496 2.36331 0
M  V30 168 H 13.9651 -0.540546 3.09718 0
M  V30 169 N 17.7372 -0.778329 1.37039 0
M  V30 170 C 18.9832 -1.53892 1.32079 0
M  V30 171 C 19.3162 -1.9396 -0.0965386 0
M  V30 172 O 18.5912 -1.63568 -1.05242 0
M  V30 173 C 18.8742 -2.80847 2.25382 0
M  V30 174 C 18.7272 -2.47076 3.75864 0
M  V30 175 C 20.0462 -3.82741 2.1725 0
M  V30 176 H 17.1652 -0.558303 0.48111 0
M  V30 177 H 19.8072 -0.893397 1.67685 0
M  V30 178 H 17.9572 -3.35931 1.95148 0
M  V30 179 H 19.6292 -1.97957 4.16666 0
M  V30 180 H 17.8722 -1.79863 3.94755 0
M  V30 181 H 18.5432 -3.37798 4.36574 0
M  V30 182 H 21.0192 -3.37133 2.43887 0
M  V30 183 H 19.8952 -4.69303 2.84686 0
M  V30 184 H 20.1562 -4.2652 1.16331 0
M  V30 185 N 19.2153 -1.21501 -1.00376 0
M  V30 186 C 20.4433 -1.059 -1.77744 0
M  V30 187 C 20.8583 0.391125 -1.84704 0
M  V30 188 O 20.2153 1.27133 -1.30933 0
M  V30 189 C 20.2663 -1.65111 -3.21591 0
M  V30 190 O 19.9873 -3.0445 -3.15027 0
M  V30 191 C 21.4883 -1.54637 -4.15454 0
M  V30 192 H 18.7083 -0.371825 -0.558558 0
M  V30 193 H 21.2523 -1.60865 -1.26264 0
M  V30 194 H 19.4073 -1.14235 -3.70175 0
M  V30 195 H 19.8213 -3.3278 -4.0541 0
M  V30 196 H 21.2953 -2.00808 -5.14179 0
M  V30 197 H 21.7723 -0.501022 -4.36333 0
M  V30 198 H 22.3783 -2.04767 -3.72761 0
M  V30 199 N 20.6934 1.19889 -1.02296 0
M  V30 200 C 21.9234 1.93109 -0.734332 0
M  V30 201 C 22.3314 1.75377 0.709889 0
M  V30 202 O 21.6744 1.06912 1.49384 0
M  V30 203 C 21.7364 3.45362 -0.99827 0
M  V30 204 C 21.4004 3.8686 -2.43287 0
M  V30 205 C 22.3974 3.92102 -3.41397 0
M  V30 206 C 20.0824 4.18668 -2.77529 0
M  V30 207 C 22.0764 4.28573 -4.71809 0
M  V30 208 C 19.7634 4.54813 -4.08153 0
M  V30 209 C 20.7614 4.59739 -5.05103 0
M  V30 210 O 20.4494 4.95051 -6.33388 0
M  V30 211 H 20.1814 0.620409 -0.268456 0
M  V30 212 H 22.7354 1.53144 -1.3688 0
M  V30 213 H 20.9654 3.85482 -0.306645 0
M  V30 214 H 22.6544 3.99814 -0.700234 0
M  V30 215 H 23.4204 3.67685 -3.1628 0
M  V30 216 H 19.2994 4.14021 -2.0275 0
M  V30 217 H 22.8434 4.32333 -5.4748 0
M  V30 218 H 18.7404 4.78687 -4.33047 0
M  V30 219 H 19.5084 5.1302 -6.37772 0
M  V30 220 N 22.1715 0.800033 1.35784 0
M  V30 221 C 23.4205 0.37387 1.98205 0
M  V30 222 C 23.7335 -1.06302 1.64193 0
M  V30 223 O 24.9395 -1.59198 2.19928 0
M  V30 224 C 23.3955 0.617532 3.54562 0
M  V30 225 C 23.0035 2.06654 3.9749 0
M  V30 226 C 24.7475 0.256401 4.23725 0
M  V30 227 C 22.6545 2.2563 5.46667 0
M  V30 228 H 21.5845 0.136055 0.741623 0
M  V30 229 H 24.2355 0.983166 1.54939 0
M  V30 230 H 22.6175 -0.0616248 3.95952 0
M  V30 231 H 23.7915 2.78296 3.67271 0
M  V30 232 H 22.1065 2.38691 3.41197 0
M  V30 233 H 24.7035 0.376318 5.33374 0
M  V30 234 H 25.0465 -0.796692 4.08606 0
M  V30 235 H 25.5795 0.889214 3.87734 0
M  V30 236 H 22.3185 3.2936 5.66747 0
M  V30 237 H 21.8385 1.58504 5.78478 0
M  V30 238 H 23.5175 2.06861 6.1304 0
M  V30 239 N 23.6496 -1.47581 0.552962 0
M  V30 240 C 24.8776 -2.06875 0.0320556 0
M  V30 241 C 25.2926 -1.40625 -1.25976 0
M  V30 242 O 24.6496 -0.501349 -1.75479 0
M  V30 243 C 24.7006 -3.61092 -0.17167 0
M  V30 244 O 24.4216 -4.24858 1.06899 0
M  V30 245 C 25.9226 -4.37242 -0.730344 0
M  V30 246 H 23.1426 -0.669561 0.043915 0
M  V30 247 H 25.6866 -1.89646 0.765163 0
M  V30 248 H 23.8416 -3.7785 -0.854894 0
M  V30 249 H 24.2556 -5.17334 0.864059 0
M  V30 250 H 25.7296 -5.45842 -0.822203 0
M  V30 251 H 26.2066 -4.03235 -1.74064 0
M  V30 252 H 26.8126 -4.25219 -0.0829543 0
M  V30 253 N 25.1277 -0.289203 -1.54924 0
M  V30 254 C 26.0607 0.633823 -2.19221 0
M  V30 255 C 27.0387 1.14174 -1.15772 0
M  V30 256 O 28.2227 1.21211 -1.44361 0
M  V30 257 C 25.3497 1.86592 -2.82668 0
M  V30 258 C 24.3957 1.49227 -3.99542 0
M  V30 259 S 25.2287 0.558312 -5.32582 0
M  V30 260 C 26.3847 1.79847 -5.99505 0
M  V30 261 H 26.6177 0.0875416 -2.97171 0
M  V30 262 H 24.1507 -0.0733899 -1.54225 0
M  V30 263 H 26.1087 2.57305 -3.19851 0
M  V30 264 H 24.7697 2.38335 -2.04585 0
M  V30 265 H 23.9627 2.40945 -4.42676 0
M  V30 266 H 23.5647 0.865193 -3.63855 0
M  V30 267 H 25.8567 2.7406 -6.19595 0
M  V30 268 H 26.7997 1.4099 -6.93922 0
M  V30 269 H 27.2077 1.96982 -5.29016 0
M  V30 270 N 26.6058 1.57591 -0.0167156 0
M  V30 271 C 27.5158 2.1291 0.98521 0
M  V30 272 C 28.5318 1.07834 1.36557 0
M  V30 273 O 29.7078 1.39826 1.44951 0
M  V30 274 C 26.7728 2.63512 2.25305 0
M  V30 275 C 25.8338 3.83256 1.93426 0
M  V30 276 C 25.0668 4.31435 3.14165 0
M  V30 277 O 25.2898 3.78851 4.26413 0
M  V30 278 O 24.2238 5.23416 2.97186 0
M  V30 279 H 28.0498 2.98772 0.544888 0
M  V30 280 H 25.6348 1.48012 0.203141 0
M  V30 281 H 27.5168 2.96183 2.99756 0
M  V30 282 H 26.1918 1.8074 2.68542 0
M  V30 283 H 25.0988 3.55531 1.16398 0
M  V30 284 H 26.4318 4.67153 1.55013 0
M  V30 285 N 28.0839 -0.256276 1.55502 0
M  V30 286 C 29.3329 -0.983486 1.76098 0
M  V30 287 C 29.6459 -1.86837 0.578896 0
M  V30 288 O 30.8519 -2.63163 0.667648 0
M  V30 289 C 29.3079 -1.79868 3.1173 0
M  V30 290 C 28.9159 -0.961648 4.37557 0
M  V30 291 C 30.6599 -2.51919 3.41668 0
M  V30 292 C 28.5669 -1.77219 5.64223 0
M  V30 293 H 27.4969 -0.370936 0.656447 0
M  V30 294 H 30.1479 -0.238492 1.81944 0
M  V30 295 H 28.5299 -2.58527 2.99966 0
M  V30 296 H 29.7039 -0.218048 4.60284 0
M  V30 297 H 28.0189 -0.354913 4.14885 0
M  V30 298 H 30.6159 -3.12998 4.33516 0
M  V30 299 H 30.9589 -3.23059 2.62562 0
M  V30 300 H 31.4919 -1.80278 3.54605 0
M  V30 301 H 28.2309 -1.10471 6.46124 0
M  V30 302 H 27.7509 -2.49132 5.45613 0
M  V30 303 H 29.4299 -2.34169 6.03137 0
M  V30 304 N 29.562 -1.4872 -0.521534 0
M  V30 305 C 30.809 -1.57168 -1.27689 0
M  V30 306 C 31.137 -0.249275 -1.92896 0
M  V30 307 O 30.392 0.761162 -1.80291 0
M  V30 308 C 30.691 -2.66497 -2.38148 0
M  V30 309 C 30.357 -4.08664 -1.90538 0
M  V30 310 C 29.019 -4.47357 -1.77271 0
M  V30 311 C 31.371 -4.97724 -1.54663 0
M  V30 312 C 28.699 -5.72905 -1.26478 0
M  V30 313 C 31.051 -6.2377 -1.05329 0
M  V30 314 C 29.715 -6.61311 -0.906861 0
M  V30 315 H 28.985 -0.575117 -0.467249 0
M  V30 316 H 31.632 -1.82472 -0.581051 0
M  V30 317 H 29.937 -2.35085 -3.13437 0
M  V30 318 H 31.634 -2.70246 -2.96257 0
M  V30 319 H 28.224 -3.78111 -2.01816 0
M  V30 320 H 32.408 -4.68501 -1.63768 0
M  V30 321 H 27.664 -6.00709 -1.13835 0
M  V30 322 H 31.838 -6.9217 -0.76644 0
M  V30 323 H 29.465 -7.5848 -0.511083 0
M  V30 324 N 31.0401 0.771051 -1.3745 0
M  V30 325 C 32.2891 1.52491 -1.3202 0
M  V30 326 C 32.6021 1.9538 0.0927347 0
M  V30 327 O 33.8081 2.70159 0.269503 0
M  V30 328 C 32.2641 2.75366 -2.31736 0
M  V30 329 C 31.8721 2.39573 -3.78562 0
M  V30 330 C 33.6161 3.53307 -2.35318 0
M  V30 331 C 31.5231 3.58954 -4.70007 0
M  V30 332 H 30.4531 0.572506 -0.490666 0
M  V30 333 H 33.1041 0.844474 -1.62914 0
M  V30 334 H 31.4861 3.45303 -1.93861 0
M  V30 335 H 32.6601 1.77415 -4.25277 0
M  V30 336 H 30.9751 1.74805 -3.77932 0
M  V30 337 H 33.5721 4.42039 -3.00842 0
M  V30 338 H 33.9151 3.93217 -1.36698 0
M  V30 339 H 34.4481 2.90367 -2.71904 0
M  V30 340 H 31.1871 3.24125 -5.69757 0
M  V30 341 H 30.7071 4.20214 -4.27996 0
M  V30 342 H 32.3861 4.25758 -4.87175 0
M  V30 343 N 32.5182 1.22032 0.997298 0
M  V30 344 C 33.7662 1.04016 1.73278 0
M  V30 345 C 34.0872 -0.426255 1.90284 0
M  V30 346 O 33.3572 -1.30694 1.45931 0
M  V30 347 H 31.9372 0.381897 0.642 0
M  V30 348 H 34.5992 1.5347 1.20137 0
M  V30 349 H 33.6952 1.51441 2.72896 0
M  V30 350 N 33.9963 -1.19345 1.0293 0
M  V30 351 C 34.9263 -2.2481 0.631105 0
M  V30 352 C 35.9073 -1.66245 -0.360104 0
M  V30 353 O 37.0923 -1.92677 -0.242726 0
M  V30 354 C 34.2223 -3.47295 -0.0184607 0
M  V30 355 C 33.1763 -4.18536 0.895073 0
M  V30 356 C 32.5023 -5.34586 0.110592 0
M  V30 357 C 33.8023 -4.73287 2.209 0
M  V30 358 H 35.4963 -2.58372 1.51275 0
M  V30 359 H 33.0423 -1.24194 0.728818 0
M  V30 360 H 34.9953 -4.20268 -0.308675 0
M  V30 361 H 33.7193 -3.12933 -0.934907 0
M  V30 362 H 32.3783 -3.47446 1.16949 0
M  V30 363 H 32.0263 -4.96469 -0.807902 0
M  V30 364 H 31.7263 -5.83183 0.719087 0
M  V30 365 H 33.2503 -6.10355 -0.172871 0
M  V30 366 H 34.6643 -5.38013 1.98028 0
M  V30 367 H 33.0613 -5.32373 2.76946 0
M  V30 368 H 34.1313 -3.91331 2.86336 0
M  V30 369 N 35.4744 -0.807222 -1.35358 0
M  V30 370 C 36.7144 -0.393534 -2.00576 0
M  V30 371 C 37.0784 1.0203 -1.62647 0
M  V30 372 O 38.2794 1.53603 -2.20589 0
M  V30 373 C 36.5504 -0.572017 -3.52793 0
M  V30 374 S 38.1094 -0.248845 -4.38094 0
M  V30 375 H 34.9274 -0.149425 -0.695121 0
M  V30 376 H 37.5294 -1.04961 -1.64935 0
M  V30 377 H 36.2334 -1.60097 -3.77885 0
M  V30 378 H 35.7644 0.099359 -3.93275 0
M  V30 379 H 37.7794 0.943253 -4.87152 0
M  V30 380 N 36.9525 1.47285 -0.560781 0
M  V30 381 C 37.9155 2.28535 0.174488 0
M  V30 382 C 38.9155 1.37153 0.839388 0
M  V30 383 O 40.1055 1.59748 0.694702 0
M  V30 384 C 37.2375 3.16934 1.25561 0
M  V30 385 H 38.4305 2.95012 -0.539262 0
M  V30 386 H 35.9835 1.53034 -0.317865 0
M  V30 387 H 36.7185 2.55157 2.00164 0
M  V30 388 H 36.5035 3.8419 0.783604 0
M  V30 389 H 37.9935 3.78143 1.77193 0
M  V30 390 N 38.4306 0.297415 1.54768 0
M  V30 391 C 39.6796 -0.313669 1.99246 0
M  V30 392 C 39.9926 -1.55281 1.18942 0
M  V30 393 O 41.1986 -2.23825 1.5367 0
M  V30 394 C 39.6546 -0.609407 3.54703 0
M  V30 395 C 39.2626 0.611192 4.43811 0
M  V30 396 C 41.0066 -1.18188 4.07715 0
M  V30 397 C 38.9136 0.288805 5.90694 0
M  V30 398 H 37.8436 -0.120979 0.744231 0
M  V30 399 H 40.4946 0.40556 1.78962 0
M  V30 400 H 38.8766 -1.38813 3.70873 0
M  V30 401 H 40.0506 1.3875 4.39414 0
M  V30 402 H 38.3656 1.10205 4.01552 0
M  V30 403 H 40.9626 -1.43727 5.15021 0
M  V30 404 H 41.3056 -2.12299 3.58099 0
M  V30 405 H 41.8386 -0.464944 3.95074 0
M  V30 406 H 38.5776 1.19838 6.44453 0
M  V30 407 H 38.0976 -0.450305 5.98107 0
M  V30 408 H 39.7766 -0.110933 6.46905 0
M  V30 409 N 39.9087 -1.5758 0.0250728 0
M  V30 410 C 41.1547 -1.91917 -0.655413 0
M  V30 411 C 41.4877 -0.901433 -1.72011 0
M  V30 412 O 40.7627 0.0764069 -1.9435 0
M  V30 413 C 41.0457 -3.36751 -1.27558 0
M  V30 414 C 40.8987 -4.49258 -0.220719 0
M  V30 415 C 42.2177 -3.81469 -2.19475 0
M  V30 416 H 39.3367 -0.697925 -0.23679 0
M  V30 417 H 41.9787 -1.89825 0.0815036 0
M  V30 418 H 40.1287 -3.38664 -1.90365 0
M  V30 419 H 41.8007 -4.59478 0.409601 0
M  V30 420 H 40.0437 -4.31415 0.454264 0
M  V30 421 H 40.7147 -5.47618 -0.694175 0
M  V30 422 H 43.1907 -3.81266 -1.66659 0
M  V30 423 H 42.0667 -4.83512 -2.59822 0
M  V30 424 H 42.3277 -3.16744 -3.08424 0
M  V30 425 N 41.3868 0.248026 -1.55636 0
M  V30 426 C 42.6348 0.974295 -1.77065 0
M  V30 427 C 42.9558 1.85897 -0.588849 0
M  V30 428 O 42.2258 1.91868 0.395407 0
M  V30 429 H 40.8058 0.362733 -0.653019 0
M  V30 430 H 43.4678 0.266244 -1.93073 0
M  V30 431 H 42.5638 1.59667 -2.68166 0
M  V30 432 N 42.8649 1.48995 0.513639 0
M  V30 433 C 43.8129 1.65199 1.63744 0
M  V30 434 C 44.8069 0.51809 1.61283 0
M  V30 435 O 46.0129 0.697335 1.65943 0
M  V30 436 H 42.3879 0.52069 0.542574 0
M  V30 437 H 44.3589 2.59552 1.47226 0
M  V30 438 C 43.1079 1.72409 3.01945 0
M  V30 439 H 42.4309 2.59029 3.04539 0
M  V30 440 H 43.8709 1.87785 3.80148 0
M  V30 441 C 42.3299 0.46618 3.33659 0
M  V30 442 O 42.8599 -0.413744 3.99564 0
M  V30 443 N 41.0659 0.332931 2.88687 0
M  V30 444 H 40.6129 1.04996 2.35231 0
M  V30 445 H 40.5709 -0.507665 3.10274 0
M  V30 446 N 44.343 -0.763751 1.37857 0
M  V30 447 C 45.589 -1.52483 1.33704 0
M  V30 448 C 45.922 -1.94051 -0.0759612 0
M  V30 449 O 45.197 -1.64675 -1.03501 0
M  V30 450 C 45.48 -2.78441 2.28348 0
M  V30 451 C 45.333 -2.43075 3.78463 0
M  V30 452 C 46.652 -3.80415 2.21298 0
M  V30 453 H 43.771 -0.553169 0.487005 0
M  V30 454 H 46.413 -0.875562 1.68624 0
M  V30 455 H 44.563 -3.33842 1.987 0
M  V30 456 H 46.235 -1.93527 4.18742 0
M  V30 457 H 44.478 -1.75666 3.96641 0
M  V30 458 H 45.149 -3.33149 4.40132 0
M  V30 459 H 47.625 -3.34527 2.47449 0
M  V30 460 H 46.501 -4.66257 2.89647 0
M  V30 461 H 46.762 -4.25262 1.20849 0
M  V30 462 N 45.8211 -1.22559 -0.990812 0
M  V30 463 C 46.7511 -1.0218 -2.09956 0
M  V30 464 C 47.7321 0.0579394 -1.70001 0
M  V30 465 O 48.9171 -0.104684 -1.93918 0
M  V30 466 C 46.0471 -0.601023 -3.4206 0
M  V30 467 C 45.0011 -1.62694 -3.95872 0
M  V30 468 C 44.3271 -1.06193 -5.24049 0
M  V30 469 C 45.6271 -3.01743 -4.2632 0
M  V30 470 H 47.3211 -1.94916 -2.27262 0
M  V30 471 H 44.8671 -0.938566 -1.09211 0
M  V30 472 H 46.8201 -0.445561 -4.19038 0
M  V30 473 H 45.5441 0.362005 -3.24588 0
M  V30 474 H 44.2031 -1.77021 -3.21028 0
M  V30 475 H 43.8511 -0.0901903 -5.02919 0
M  V30 476 H 43.5511 -1.74732 -5.61019 0
M  V30 477 H 45.0751 -0.918092 -6.03658 0
M  V30 478 H 46.4891 -2.90777 -4.94087 0
M  V30 479 H 44.8861 -3.67425 -4.74467 0
M  V30 480 H 45.9561 -3.51518 -3.34011 0
M  V30 481 N 47.2992 1.18797 -1.03562 0
M  V30 482 C 48.5452 1.8893 -0.737113 0
M  V30 483 C 48.8782 1.79837 0.732956 0
M  V30 484 O 48.1532 1.19525 1.5344 0
M  V30 485 C 48.4362 3.39607 -1.19745 0
M  V30 486 C 48.2892 3.57537 -2.72924 0
M  V30 487 C 49.6082 4.33069 -0.783526 0
M  V30 488 H 46.7272 0.686057 -0.269249 0
M  V30 489 H 49.3692 1.39797 -1.28673 0
M  V30 490 H 47.5192 3.81583 -0.729855 0
M  V30 491 H 49.1912 3.24688 -3.27682 0
M  V30 492 H 47.4342 3.00363 -3.12993 0
M  V30 493 H 48.1052 4.63238 -3.00191 0
M  V30 494 H 50.5812 3.98846 -1.18581 0
M  V30 495 H 49.4572 5.3707 -1.13343 0
M  V30 496 H 49.7182 4.40986 0.313681 0
M  V30 497 N 48.7773 0.814389 1.34928 0
M  V30 498 C 50.0263 0.394871 1.97797 0
M  V30 499 C 50.3393 -1.04555 1.65311 0
M  V30 500 O 51.5453 -1.56856 2.21604 0
M  V30 501 C 50.0013 0.655103 3.53888 0
M  V30 502 C 49.6093 2.10858 3.95276 0
M  V30 503 C 51.3533 0.301329 4.23429 0
M  V30 504 C 49.2603 2.31415 5.44244 0
M  V30 505 H 48.1903 0.143913 0.740139 0
M  V30 506 H 50.8413 0.999544 1.53888 0
M  V30 507 H 49.2233 -0.0196253 3.95995 0
M  V30 508 H 50.3973 2.82176 3.64298 0
M  V30 509 H 48.7123 2.42297 3.38646 0
M  V30 510 H 51.3093 0.432869 5.32945 0
M  V30 511 H 51.6523 -0.75331 4.09428 0
M  V30 512 H 52.1853 0.930288 3.86769 0
M  V30 513 H 48.9243 3.35353 5.63222 0
M  V30 514 H 48.4443 1.6463 5.76764 0
M  V30 515 H 50.1233 2.13352 6.10811 0
M  V30 516 N 50.2554 -1.46986 0.568584 0
M  V30 517 C 51.4954 -2.04336 0.0512999 0
M  V30 518 C 51.8594 -1.43214 -1.27881 0
M  V30 519 O 53.0604 -1.91679 -1.88448 0
M  V30 520 C 51.3314 -3.57389 -0.0282328 0
M  V30 521 S 52.8904 -4.36056 -0.489991 0
M  V30 522 H 49.7084 -0.71034 0.0306349 0
M  V30 523 H 52.3104 -1.80212 0.757891 0
M  V30 524 H 51.0144 -3.99395 0.944011 0
M  V30 525 H 50.5454 -3.86028 -0.75803 0
M  V30 526 H 52.5604 -4.6441 -1.74752 0
M  V30 527 N 51.7335 -0.305618 -1.54608 0
M  V30 528 C 52.9795 0.302746 -2.00528 0
M  V30 529 C 53.3125 1.53184 -1.19367 0
M  V30 530 O 52.5875 1.92598 -0.271321 0
M  V30 531 C 52.8705 0.654756 -3.54097 0
M  V30 532 C 52.7235 -0.583793 -4.45995 0
M  V30 533 C 54.0425 1.47947 -4.14487 0
M  V30 534 H 51.1615 0.108564 -0.72896 0
M  V30 535 H 53.8035 -0.418634 -1.85331 0
M  V30 536 H 51.9535 1.26935 -3.67178 0
M  V30 537 H 53.6255 -1.22224 -4.44814 0
M  V30 538 H 51.8685 -1.21615 -4.16404 0
M  V30 539 H 52.5395 -0.293287 -5.5122 0
M  V30 540 H 55.0155 0.96013 -4.04871 0
M  V30 541 H 53.8915 1.69454 -5.22088 0
M  V30 542 H 54.1525 2.47011 -3.66658 0
M  V30 543 N 53.2116 1.57565 -0.0334293 0
M  V30 544 C 54.4576 1.92262 0.645226 0
M  V30 545 C 54.7906 0.910543 1.71531 0
M  V30 546 O 54.0656 -0.066099 1.94388 0
M  V30 547 C 54.3486 3.37422 1.2577 0
M  V30 548 C 54.2016 4.49369 0.196891 0
M  V30 549 C 55.5206 3.82628 2.17449 0
M  V30 550 H 52.6396 0.699171 0.233085 0
M  V30 551 H 55.2816 1.89779 -0.0915694 0
M  V30 552 H 53.4316 3.39669 1.88566 0
M  V30 553 H 55.1036 4.59254 -0.433962 0
M  V30 554 H 53.3466 4.31168 -0.477137 0
M  V30 555 H 54.0176 5.47978 0.665124 0
M  V30 556 H 56.4936 3.82145 1.64634 0
M  V30 557 H 55.3696 4.84883 2.57254 0
M  V30 558 H 55.6306 3.18376 3.0674 0
M  V30 559 N 54.6897 -0.239769 1.55765 0
M  V30 560 C 55.6367 -1.29696 1.90913 0
M  V30 561 C 56.6067 -1.47478 0.764164 0
M  V30 562 O 57.7917 -1.61345 1.01845 0
M  V30 563 C 54.9317 -2.64598 2.21544 0
M  V30 564 C 54.0447 -2.54765 3.48882 0
M  V30 565 C 53.1797 -3.82069 3.69049 0
M  V30 566 C 52.2187 -3.66883 4.89963 0
M  V30 567 N 51.3557 -4.86094 5.06614 0
M  V30 568 H 56.1957 -0.990224 2.81067 0
M  V30 569 H 53.7327 -0.477684 1.39128 0
M  V30 570 H 55.6907 -3.43132 2.3731 0
M  V30 571 H 54.3207 -2.93405 1.34585 0
M  V30 572 H 53.3727 -1.67763 3.41409 0
M  V30 573 H 54.6847 -2.39457 4.37563 0
M  V30 574 H 53.8387 -4.69046 3.84812 0
M  V30 575 H 52.5777 -4.00282 2.78614 0
M  V30 576 H 51.5827 -2.78289 4.74168 0
M  V30 577 H 52.8077 -3.50157 5.81865 0
M  V30 578 H 50.7537 -5.04655 4.19117 0
M  V30 579 H 50.6707 -4.73443 5.89396 0
M  V30 580 H 51.9387 -5.74549 5.26795 0
M  V30 581 N 56.1678 -1.49265 -0.50573 0
M  V30 582 C 57.0978 -1.68495 -1.61653 0
M  V30 583 C 58.0788 -0.53366 -1.61512 0
M  V30 584 O 59.2638 -0.76897 -1.78327 0
M  V30 585 C 56.3938 -1.74709 -3.00157 0
M  V30 586 C 55.3478 -2.89581 -3.15162 0
M  V30 587 C 54.6738 -2.80903 -4.5497 0
M  V30 588 C 55.9738 -4.30578 -2.95634 0
M  V30 589 H 57.6678 -2.61493 -1.45814 0
M  V30 590 H 55.2138 -1.25838 -0.70005 0
M  V30 591 H 57.1668 -1.86748 -3.77761 0
M  V30 592 H 55.8908 -0.783067 -3.17074 0
M  V30 593 H 54.5498 -2.77136 -2.39982 0
M  V30 594 H 54.1978 -1.82419 -4.68756 0
M  V30 595 H 53.8978 -3.57999 -4.65951 0
M  V30 596 H 55.4218 -2.94944 -5.34641 0
M  V30 597 H 56.8358 -4.4373 -3.63011 0
M  V30 598 H 55.2328 -5.0886 -3.18091 0
M  V30 599 H 56.3028 -4.45352 -1.91806 0
M  V30 600 N 57.6459 0.756429 -1.3826 0
M  V30 601 C 58.5939 1.89149 -1.35372 0
M  V30 602 C 59.5879 1.67691 -0.24004 0
M  V30 603 O 60.7939 1.75294 -0.408919 0
M  V30 604 H 57.1689 0.622271 -0.422236 0
M  V30 605 H 59.1399 1.88701 -2.31159 0
M  V30 606 C 57.8889 3.26599 -1.19284 0
M  V30 607 H 57.2119 3.43695 -2.0424 0
M  V30 608 H 58.6519 4.06274 -1.21316 0
M  V30 609 C 57.1109 3.3675 0.100454 0
M  V30 610 O 57.6409 3.86951 1.07851 0
M  V30 611 N 55.8469 2.90179 0.15633 0
M  V30 612 H 55.3939 2.49517 -0.640253 0
M  V30 613 H 55.3519 2.97352 1.02123 0
M  V30 614 N 59.124 1.23083 0.984299 0
M  V30 615 C 60.535 1.05609 1.5396 0
M  V30 616 C 60.886 -0.377793 1.92528 0
M  V30 617 O 60.011 -1.26398 1.75649 0
M  V30 618 C 60.606 1.91087 2.7977 0
M  V30 619 C 59.165 1.77885 3.31713 0
M  V30 620 C 58.312 1.87028 2.04733 0
M  V30 621 H 61.263 1.36802 0.804419 0
M  V30 622 H 61.284 1.43336 3.5247 0
M  V30 623 H 60.796 2.9544 2.51668 0
M  V30 624 H 58.897 0.762995 3.64704 0
M  V30 625 H 59.01 2.61047 4.01735 0
M  V30 626 H 57.374 1.30565 2.18689 0
M  V30 627 H 58.157 2.92929 1.79017 0
M  V30 628 N 60.6021 -1.18246 1.0419 0
M  V30 629 C 61.8271 -1.92736 0.765996 0
M  V30 630 C 62.2521 -1.75728 -0.67091 0
M  V30 631 O 61.6101 -1.06825 -1.46486 0
M  V30 632 C 61.6581 -3.42148 1.13875 0
M  V30 633 O 60.7621 -4.11548 0.264954 0
M  V30 634 H 60.1031 -0.601238 0.281797 0
M  V30 635 H 62.6331 -1.49942 1.39207 0
M  V30 636 H 62.6431 -3.92858 1.1012 0
M  V30 637 H 61.3181 -3.53848 2.18551 0
M  V30 638 H 59.8951 -3.71137 0.362226 0
M  V30 639 N 62.0802 -0.821533 -1.34494 0
M  V30 640 C 63.0102 -0.257138 -2.3208 0
M  V30 641 C 63.9912 0.625645 -1.58176 0
M  V30 642 O 65.1762 0.552811 -1.86166 0
M  V30 643 C 62.3062 0.582958 -3.42372 0
M  V30 644 C 61.2602 -0.202571 -4.2752 0
M  V30 645 C 60.5862 0.760179 -5.29269 0
M  V30 646 C 61.8862 -1.40998 -5.02908 0
M  V30 647 H 63.5802 -1.07247 -2.79532 0
M  V30 648 H 61.1262 -0.517163 -1.34393 0
M  V30 649 H 63.0792 0.987972 -4.09655 0
M  V30 650 H 61.8032 1.43133 -2.93565 0
M  V30 651 H 60.4622 -0.588936 -3.61838 0
M  V30 652 H 60.1102 1.60447 -4.76724 0
M  V30 653 H 59.8102 0.238809 -5.87115 0
M  V30 654 H 61.3342 1.16308 -5.9942 0
M  V30 655 H 62.7482 -1.07905 -5.63054 0
M  V30 656 H 61.1452 -1.86689 -5.70322 0
M  V30 657 H 62.2152 -2.1889 -4.32684 0
M  V30 658 N 63.5583 1.46682 -0.576371 0
M  V30 659 C 64.4903 2.28341 0.198231 0
M  V30 660 C 65.5033 1.38141 0.861453 0
M  V30 661 O 66.6923 1.62797 0.732082 0
M  V30 662 C 63.7923 3.12986 1.29972 0
M  V30 663 C 62.9653 4.31271 0.729639 0
M  V30 664 C 62.0243 4.97363 1.71803 0
M  V30 665 O 61.0503 5.55156 1.25658 0
M  V30 666 N 62.2523 4.93796 3.05198 0
M  V30 667 H 65.0173 2.9546 -0.502324 0
M  V30 668 H 62.5783 1.56525 -0.413715 0
M  V30 669 H 64.5703 3.54066 1.96008 0
M  V30 670 H 63.1403 2.47984 1.90323 0
M  V30 671 H 62.3603 3.94052 -0.108012 0
M  V30 672 H 63.6483 5.07739 0.328438 0
M  V30 673 H 63.0463 4.48077 3.45317 0
M  V30 674 H 61.6033 5.38837 3.6674 0
M  V30 675 N 65.0364 0.313813 1.54444 0
M  V30 676 C 66.2644 -0.293918 2.04802 0
M  V30 677 C 66.6794 -1.46537 1.19047 0
M  V30 678 O 66.0364 -1.81182 0.218939 0
M  V30 679 C 66.0874 -0.737806 3.53891 0
M  V30 680 O 65.8084 0.387038 4.36387 0
M  V30 681 C 67.3094 -1.40936 4.203 0
M  V30 682 H 64.5294 -0.0620057 0.668129 0
M  V30 683 H 67.0734 0.457169 1.99324 0
M  V30 684 H 65.2284 -1.43889 3.59687 0
M  V30 685 H 65.6424 0.0391274 5.24485 0
M  V30 686 H 67.1164 -1.67099 5.26101 0
M  V30 687 H 67.5934 -2.35355 3.70816 0
M  V30 688 H 68.1994 -0.751117 4.18615 0
M  V30 689 N 66.5145 -1.57545 0.0417849 0
M  V30 690 C 67.7425 -1.96624 -0.643928 0
M  V30 691 C 68.1575 -0.918897 -1.64929 0
M  V30 692 O 67.5145 0.0979323 -1.82237 0
M  V30 693 C 67.5655 -3.35781 -1.33914 0
M  V30 694 O 67.2865 -4.365 -0.374048 0
M  V30 695 C 68.7875 -3.89566 -2.1155 0
M  V30 696 H 66.0075 -0.647316 -0.176702 0
M  V30 697 H 68.5515 -2.04229 0.105304 0
M  V30 698 H 66.7065 -3.29357 -2.03968 0
M  V30 699 H 67.1205 -5.17248 -0.869179 0
M  V30 700 H 68.5945 -4.89242 -2.55628 0
M  V30 701 H 69.0715 -3.24488 -2.9598 0
M  V30 702 H 69.6775 -3.99298 -1.46427 0
M  V30 703 N 67.9926 0.231505 -1.5589 0
M  V30 704 C 69.2206 0.974505 -1.82513 0
M  V30 705 C 69.6356 1.78344 -0.619591 0
M  V30 706 O 68.9926 1.77792 0.411848 0
M  V30 707 C 69.0436 1.90007 -3.07538 0
M  V30 708 O 68.7646 1.12385 -4.2344 0
M  V30 709 C 70.2656 2.75779 -3.47075 0
M  V30 710 H 67.4856 0.286065 -0.606966 0
M  V30 711 H 70.0296 0.249739 -2.02969 0
M  V30 712 H 68.1846 2.57891 -2.89086 0
M  V30 713 H 68.5986 1.75125 -4.944 0
M  V30 714 H 70.0726 3.36443 -4.37619 0
M  V30 715 H 70.5496 3.47672 -2.68367 0
M  V30 716 H 71.1556 2.13323 -3.67931 0
M  V30 717 N 69.4707 1.49531 0.497807 0
M  V30 718 C 70.7177 1.59179 1.25173 0
M  V30 719 C 71.0457 0.279932 1.92475 0
M  V30 720 O 70.3007 -0.732383 1.81479 0
M  V30 721 C 70.5997 2.70252 2.33878 0
M  V30 722 C 70.2657 4.11644 1.84012 0
M  V30 723 C 68.9277 4.50121 1.70132 0
M  V30 724 C 71.2797 5.00121 1.46725 0
M  V30 725 C 68.6077 5.74845 1.17348 0
M  V30 726 C 70.9597 6.25366 0.95392 0
M  V30 727 C 69.6237 6.6267 0.801538 0
M  V30 728 H 68.8937 0.582478 0.45804 0
M  V30 729 H 71.5407 1.83373 0.551948 0
M  V30 730 H 69.8457 2.40041 3.09657 0
M  V30 731 H 71.5427 2.74925 2.9192 0
M  V30 732 H 68.1327 3.81274 1.95775 0
M  V30 733 H 72.3167 4.71048 1.56294 0
M  V30 734 H 67.5727 6.02444 1.04264 0
M  V30 735 H 71.7467 6.93301 0.656225 0
M  V30 736 H 69.3737 7.59197 0.390351 0
M  V30 737 N 70.9488 -0.749086 1.3866 0
M  V30 738 C 72.1788 -1.53611 1.38157 0
M  V30 739 C 72.5868 -1.89177 -0.0293595 0
M  V30 740 O 71.9298 -1.53606 -1.00752 0
M  V30 741 C 71.9918 -2.86087 2.17702 0
M  V30 742 C 71.6558 -2.73034 3.66472 0
M  V30 743 C 72.6528 -2.42526 4.59866 0
M  V30 744 C 70.3378 -2.90345 4.09884 0
M  V30 745 C 72.3318 -2.29492 5.94653 0
M  V30 746 C 70.0188 -2.7693 5.4475 0
M  V30 747 C 71.0168 -2.46547 6.36949 0
M  V30 748 O 70.7048 -2.33199 7.69333 0
M  V30 749 H 70.4368 -0.481773 0.474205 0
M  V30 750 H 72.9908 -0.934465 1.82912 0
M  V30 751 H 71.2208 -3.48458 1.67672 0
M  V30 752 H 72.9098 -3.47625 2.09551 0
M  V30 753 H 73.6758 -2.28816 4.27631 0
M  V30 754 H 69.5548 -3.1299 3.38464 0
M  V30 755 H 73.0988 -2.05698 6.66584 0
M  V30 756 H 68.9958 -2.90215 5.76581 0
M  V30 757 H 69.7638 -2.48376 7.79905 0
M  V30 758 N 72.4269 -1.23603 -0.977757 0
M  V30 759 C 73.6739 -1.06971 -1.71941 0
M  V30 760 C 74.0019 0.393009 -1.90488 0
M  V30 761 O 73.2569 1.30719 -1.4564 0
M  V30 762 C 73.5559 -1.7433 -3.11999 0
M  V30 763 C 73.2219 -3.24252 -3.13323 0
M  V30 764 C 71.8839 -3.65156 -3.13392 0
M  V30 765 C 74.2359 -4.20141 -3.08433 0
M  V30 766 C 71.5639 -5.00403 -3.0629 0
M  V30 767 C 73.9159 -5.55384 -3.02873 0
M  V30 768 C 72.5799 -5.95647 -3.01265 0
M  V30 769 H 71.8499 -0.391433 -0.629175 0
M  V30 770 H 74.4969 -1.53572 -1.14403 0
M  V30 771 H 72.8019 -1.20096 -3.7294 0
M  V30 772 H 74.4989 -1.58936 -3.68158 0
M  V30 773 H 71.0889 -2.91692 -3.14029 0
M  V30 774 H 75.2729 -3.89547 -3.07517 0
M  V30 775 H 70.5289 -5.3081 -3.03399 0
M  V30 776 H 74.7029 -6.29398 -2.98046 0
M  V30 777 H 72.3299 -7.0041 -2.95516 0
M  V30 778 N 73.905 1.17692 -1.04816 0
M  V30 779 C 75.154 1.87192 -0.751132 0
M  V30 780 C 75.467 1.8169 0.724441 0
M  V30 781 O 76.673 2.46625 1.13527 0
M  V30 782 C 75.129 3.35857 -1.29338 0
M  V30 783 C 74.737 3.4987 -2.79812 0
M  V30 784 C 76.481 4.10709 -1.07322 0
M  V30 785 C 74.388 4.92536 -3.27356 0
M  V30 786 H 73.318 0.701162 -0.277288 0
M  V30 787 H 75.969 1.32932 -1.26496 0
M  V30 788 H 74.351 3.89631 -0.707376 0
M  V30 789 H 75.525 3.06332 -3.44235 0
M  V30 790 H 73.84 2.88433 -3.00325 0
M  V30 791 H 76.437 5.15952 -1.4035 0
M  V30 792 H 76.78 4.16299 -0.0108001 0
M  V30 793 H 77.313 3.6313 -1.62423 0
M  V30 794 H 74.052 4.92119 -4.33012 0
M  V30 795 H 73.572 5.3676 -2.67673 0
M  V30 796 H 75.251 5.61288 -3.21815 0
M  V30 797 N 75.3831 0.828654 1.34056 0
M  V30 798 C 76.6291 0.42008 1.98402 0
M  V30 799 C 76.9621 -1.01564 1.65525 0
M  V30 800 O 76.2371 -1.70834 0.929831 0
M  V30 801 C 76.5201 0.62927 3.54559 0
M  V30 802 C 76.3731 2.11152 3.97159 0
M  V30 803 C 77.6921 0.0688756 4.40046 0
M  V30 804 H 74.8111 0.154104 0.720709 0
M  V30 805 H 77.4531 1.04228 1.5886 0
M  V30 806 H 75.6031 0.0996418 3.88372 0
M  V30 807 H 77.2751 2.70522 3.73651 0
M  V30 808 H 75.5181 2.59985 3.47261 0
M  V30 809 H 76.1891 2.20868 5.05887 0
M  V30 810 H 78.6651 0.521458 4.1282 0
M  V30 811 H 77.5411 0.245006 5.48353 0
M  V30 812 H 77.8021 -1.0266 4.30015 0
M  V30 813 N 76.8612 -1.46375 0.584142 0
M  V30 814 C 78.0862 -2.07268 0.0740405 0
M  V30 815 C 78.5112 -1.42979 -1.22223 0
M  V30 816 O 77.8692 -0.514092 -1.73859 0
M  V30 817 C 77.9172 -3.60518 -0.0767769 0
M  V30 818 O 77.0212 -3.96533 -1.13292 0
M  V30 819 H 76.3622 -0.660961 0.0634524 0
M  V30 820 H 78.8922 -1.87991 0.807492 0
M  V30 821 H 78.9022 -4.07021 -0.282489 0
M  V30 822 H 77.5772 -4.06702 0.86986 0
M  V30 823 H 76.1542 -3.61738 -0.905553 0
M  V30 824 N 78.3393 -0.321999 -1.54275 0
M  V30 825 C 79.2693 0.537411 -2.27231 0
M  V30 826 C 80.2503 1.12064 -1.27968 0
M  V30 827 O 81.4353 1.14606 -1.56777 0
M  V30 828 C 78.5653 1.69919 -3.02894 0
M  V30 829 C 77.5193 1.24534 -4.09482 0
M  V30 830 C 76.8453 2.49394 -4.72977 0
M  V30 831 C 78.1453 0.361335 -5.21049 0
M  V30 832 H 79.8393 -0.0711406 -2.99315 0
M  V30 833 H 77.3853 -0.0356555 -1.43956 0
M  V30 834 H 79.3383 2.30668 -3.52662 0
M  V30 835 H 78.0623 2.33431 -2.28424 0
M  V30 836 H 76.7213 0.660782 -3.60596 0
M  V30 837 H 76.3693 3.11265 -3.95124 0
M  V30 838 H 76.0693 2.19718 -5.44975 0
M  V30 839 H 77.5933 3.10908 -5.25517 0
M  V30 840 H 79.0073 0.875072 -5.66582 0
M  V30 841 H 77.4043 0.157428 -5.99893 0
M  V30 842 H 78.4743 -0.60822 -4.8107 0
M  V30 843 N 79.8174 1.5752 -0.0501392 0
M  V30 844 C 80.7804 2.1037 0.909786 0
M  V30 845 C 81.7804 1.02308 1.24056 0
M  V30 846 O 82.9704 1.28385 1.17741 0
M  V30 847 C 80.1024 2.58708 2.21998 0
M  V30 848 H 81.2954 2.96479 0.451665 0
M  V30 849 H 78.8484 1.55038 0.198248 0
M  V30 850 H 79.5834 1.75989 2.72394 0
M  V30 851 H 79.3684 3.37675 1.99295 0
M  V30 852 H 80.8584 2.99747 2.9076 0
M  V30 853 N 81.2955 -0.223234 1.56011 0
M  V30 854 C 82.2255 -1.27988 1.95298 0
M  V30 855 C 83.2065 -1.48976 0.820979 0
M  V30 856 O 84.3915 -1.61188 1.08315 0
M  V30 857 C 81.5215 -2.63 2.26822 0
M  V30 858 C 80.4755 -2.56671 3.42497 0
M  V30 859 C 79.8015 -3.95697 3.59622 0
M  V30 860 C 81.1015 -2.11601 4.77517 0
M  V30 861 H 82.7955 -0.953525 2.8381 0
M  V30 862 H 80.3415 -0.457244 1.36548 0
M  V30 863 H 82.2945 -3.37077 2.52898 0
M  V30 864 H 81.0185 -2.9732 1.35161 0
M  V30 865 H 79.6775 -1.85051 3.16467 0
M  V30 866 H 79.3255 -4.27322 2.6534 0
M  V30 867 H 79.0255 -3.92345 4.37424 0
M  V30 868 H 80.5495 -4.71438 3.88044 0
M  V30 869 H 81.9635 -2.7542 5.02809 0
M  V30 870 H 80.3605 -2.19311 5.5859 0
M  V30 871 H 81.4305 -1.06824 4.72987 0
M  V30 872 N 82.7736 -1.49793 -0.48987 0
M  V30 873 C 83.7366 -1.66752 -1.57246 0
M  V30 874 C 84.7366 -0.538867 -1.51502 0
M  V30 875 O 85.9266 -0.805545 -1.54456 0
M  V30 876 C 83.0586 -1.67528 -2.96896 0
M  V30 877 H 84.2516 -2.63321 -1.43534 0
M  V30 878 H 81.8046 -1.38992 -0.714914 0
M  V30 879 H 82.5396 -0.725837 -3.16073 0
M  V30 880 H 82.3246 -2.49504 -3.02473 0
M  V30 881 H 83.8146 -1.82667 -3.7553 0
M  V30 882 N 84.2517 0.741722 -1.39055 0
M  V30 883 C 85.5287 1.49252 -1.26425 0
M  V30 884 C 85.9087 2.10705 0.129144 0
M  V30 885 O 85.2567 1.98045 1.13976 0
M  V30 886 C 85.4667 2.54934 -2.38347 0
M  V30 887 C 86.8147 3.21506 -2.77343 0
M  V30 888 O 87.8387 2.65245 -2.37747 0
M  V30 889 O 86.6977 4.23294 -3.45665 0
M  V30 890 H 83.7917 0.662451 -0.495064 0
M  V30 891 H 86.3377 0.776121 -1.50912 0
M  V30 892 H 85.1097 2.07857 -3.31529 0
M  V30 893 H 84.7327 3.34141 -2.15489 0
M  V30 894 N 85.7298 1.2412 0.971189 0
M  V30 895 C 86.9788 1.07284 1.70801 0
M  V30 896 C 87.2918 -0.388902 1.91695 0
M  V30 897 O 88.4978 -0.677379 2.62914 0
M  V30 898 C 86.9538 1.87145 3.07416 0
M  V30 899 C 86.5618 3.37707 2.94377 0
M  V30 900 C 88.3058 1.78828 3.84995 0
M  V30 901 C 86.2128 4.09925 4.26281 0
M  V30 902 H 85.1428 0.397854 0.64049 0
M  V30 903 H 87.7938 1.4817 1.0825 0
M  V30 904 H 86.1758 1.39071 3.70777 0
M  V30 905 H 87.3498 3.93335 2.4005 0
M  V30 906 H 85.6648 3.46938 2.30267 0
M  V30 907 H 88.2618 2.30089 4.82662 0
M  V30 908 H 88.6048 0.75284 4.09436 0
M  V30 909 H 89.1378 2.24563 3.28354 0
M  V30 910 H 85.8768 5.13813 4.07033 0
M  V30 911 H 85.3968 3.59083 4.80437 0
M  V30 912 H 87.0758 4.1673 4.94919 0
M  V30 913 N 87.2079 -1.17134 1.05439 0
M  V30 914 C 88.1709 -2.19439 0.661764 0
M  V30 915 C 89.1709 -1.58199 -0.288042 0
M  V30 916 O 90.3609 -1.74053 -0.0715803 0
M  V30 917 C 87.4929 -3.40889 -0.0276209 0
M  V30 918 H 88.6859 -2.55688 1.56728 0
M  V30 919 H 86.2389 -1.31259 0.848567 0
M  V30 920 H 86.9739 -3.10187 -0.94629 0
M  V30 921 H 86.7589 -3.86586 0.655238 0
M  V30 922 H 88.2489 -4.16603 -0.288342 0
M  V30 923 N 88.686 -0.835752 -1.33615 0
M  V30 924 C 89.932 -0.430596 -1.98176 0
M  V30 925 C 90.265 1.00684 -1.66061 0
M  V30 926 O 89.54 1.70339 -0.938877 0
M  V30 927 C 89.823 -0.648065 -3.5422 0
M  V30 928 C 89.676 -2.13255 -3.96033 0
M  V30 929 C 90.995 -0.0922113 -4.40003 0
M  V30 930 H 88.114 -0.157924 -0.719881 0
M  V30 931 H 90.756 -1.05069 -1.58305 0
M  V30 932 H 88.906 -0.120237 -3.88314 0
M  V30 933 H 90.578 -2.725 -3.72211 0
M  V30 934 H 88.821 -2.61823 -3.45878 0
M  V30 935 H 89.492 -2.23547 -5.04708 0
M  V30 936 H 91.968 -0.543343 -4.12537 0
M  V30 937 H 90.844 -0.274083 -5.48215 0
M  V30 938 H 91.105 1.00378 -4.30554 0
M  V30 939 N 90.1641 1.46063 -0.591896 0
M  V30 940 C 91.4121 2.01938 -0.0808391 0
M  V30 941 C 91.7331 1.46475 1.28725 0
M  V30 942 O 91.0031 0.652944 1.84698 0
M  V30 943 H 89.5831 0.746516 -0.0268938 0
M  V30 944 H 92.2451 1.79055 -0.769752 0
M  V30 945 H 91.3411 3.12094 -0.0187578 0
M  V30 946 N 91.6422 0.330177 1.54103 0
M  V30 947 C 92.8882 -0.270806 2.00984 0
M  V30 948 C 93.2212 -1.51265 1.21789 0
M  V30 949 O 92.4962 -1.92142 0.301927 0
M  V30 950 C 92.7792 -0.598339 3.55094 0
M  V30 951 C 92.6322 0.654674 4.4501 0
M  V30 952 C 93.9512 -1.41334 4.16789 0
M  V30 953 H 91.0702 -0.0969531 0.730595 0
M  V30 954 H 93.7122 0.448066 1.84641 0
M  V30 955 H 91.8622 -1.21078 3.69151 0
M  V30 956 H 93.5342 1.29285 4.42813 0
M  V30 957 H 91.7772 1.28224 4.14416 0
M  V30 958 H 92.4482 0.380944 5.50684 0
M  V30 959 H 94.9242 -0.895597 4.06347 0
M  V30 960 H 93.8002 -1.61127 5.24718 0
M  V30 961 H 94.0612 -2.41146 3.70541 0
M  V30 962 N 93.1203 -1.57491 0.0584922 0
M  V30 963 C 94.0503 -2.14988 -0.911178 0
M  V30 964 C 95.0313 -1.07343 -1.31952 0
M  V30 965 O 96.2163 -1.35318 -1.39294 0
M  V30 966 C 93.3463 -2.70078 -2.18347 0
M  V30 967 C 92.3003 -3.82771 -1.91495 0
M  V30 968 C 91.6263 -4.24408 -3.25241 0
M  V30 969 C 92.9263 -5.07592 -1.23075 0
M  V30 970 H 94.6203 -2.96263 -0.432246 0
M  V30 971 H 92.1663 -1.42512 -0.206469 0
M  V30 972 H 94.1193 -3.08943 -2.86587 0
M  V30 973 H 92.8433 -1.86005 -2.68458 0
M  V30 974 H 91.5023 -3.44389 -1.25664 0
M  V30 975 H 91.1503 -3.37275 -3.73168 0
M  V30 976 H 90.8503 -5.00366 -3.08071 0
M  V30 977 H 92.3743 -4.65879 -3.94701 0
M  V30 978 H 93.7883 -5.43857 -1.81362 0
M  V30 979 H 92.1853 -5.88741 -1.16207 0
M  V30 980 H 93.2553 -4.84454 -0.207847 0
M  V30 981 N 94.5984 0.214957 -1.56127 0
M  V30 982 C 95.8444 0.939762 -1.79712 0
M  V30 983 C 96.1774 1.83723 -0.629247 0
M  V30 984 O 95.4524 1.90925 0.371197 0
M  V30 985 C 95.7354 1.77306 -3.13424 0
M  V30 986 C 95.5884 0.90164 -4.40671 0
M  V30 987 C 96.9074 2.74956 -3.43638 0
M  V30 988 H 94.0264 0.340214 -0.653776 0
M  V30 989 H 96.6684 0.20824 -1.88855 0
M  V30 990 H 94.8184 2.39673 -3.0576 0
M  V30 991 H 96.4904 0.294206 -4.60361 0
M  V30 992 H 94.7334 0.207368 -4.33304 0
M  V30 993 H 95.4044 1.51923 -5.30682 0
M  V30 994 H 97.8804 2.22724 -3.51473 0
M  V30 995 H 96.7564 3.30358 -4.38355 0
M  V30 996 H 97.0174 3.53023 -2.66134 0
M  V30 997 N 96.0765 1.50051 0.48192 0
M  V30 998 C 97.0095 1.62749 1.59963 0
M  V30 999 C 97.9875 0.475903 1.5548 0
M  V30 1000 O 99.1715 0.693986 1.7526 0
M  V30 1001 C 96.2985 1.60008 2.98522 0
M  V30 1002 C 95.3445 2.80596 3.21198 0
M  V30 1003 S 96.1775 4.42038 3.02262 0
M  V30 1004 C 97.3335 4.41973 4.43182 0
M  V30 1005 H 97.5665 2.57296 1.4895 0
M  V30 1006 H 95.0995 1.39179 0.668477 0
M  V30 1007 H 97.0575 1.59112 3.78409 0
M  V30 1008 H 95.7185 0.667153 3.06933 0
M  V30 1009 H 94.9115 2.74952 4.22395 0
M  V30 1010 H 94.5135 2.79003 2.49065 0
M  V30 1011 H 96.8055 4.14868 5.35622 0
M  V30 1012 H 97.7485 5.43512 4.53873 0
M  V30 1013 H 98.1565 3.71812 4.24755 0
M  V30 1014 N 97.5546 -0.734337 1.39446 0
M  V30 1015 C 98.9656 -1.31264 1.32766 0
M  V30 1016 C 99.3166 -1.96198 -0.00767497 0
M  V30 1017 O 98.4416 -1.96346 -0.909796 0
M  V30 1018 C 99.0366 -2.38682 2.4045 0
M  V30 1019 C 97.5956 -2.92184 2.37288 0
M  V30 1020 C 96.7426 -1.6576 2.22304 0
M  V30 1021 H 99.6936 -0.531799 1.49525 0
M  V30 1022 H 99.7146 -3.19087 2.07276 0
M  V30 1023 H 99.2266 -1.91392 3.37625 0
M  V30 1024 H 97.3276 -3.43752 1.43754 0
M  V30 1025 H 97.4406 -3.45253 3.3217 0
M  V30 1026 H 95.8046 -1.9012 1.69489 0
M  V30 1027 H 96.5876 -1.20521 3.21449 0
M  V30 1028 N 99.0327 -1.24633 -0.964593 0
M  V30 1029 C 99.9627 -1.06611 -2.07741 0
M  V30 1030 C 100.944 0.0218666 -1.70086 0
M  V30 1031 O 102.129 -0.145793 -1.93652 0
M  V30 1032 C 99.2587 -0.673444 -3.40708 0
M  V30 1033 C 98.2127 -1.71054 -3.92332 0
M  V30 1034 C 97.5387 -1.17285 -5.21678 0
M  V30 1035 C 98.8387 -3.10718 -4.19824 0
M  V30 1036 H 100.533 -1.99693 -2.23076 0
M  V30 1037 H 98.0787 -0.96152 -1.07195 0
M  V30 1038 H 100.032 -0.534345 -4.17998 0
M  V30 1039 H 98.7557 0.293073 -3.25282 0
M  V30 1040 H 97.4147 -1.83791 -3.17201 0
M  V30 1041 H 97.0627 -0.196847 -5.02615 0
M  V30 1042 H 96.7627 -1.86592 -5.57187 0
M  V30 1043 H 98.2867 -1.04593 -6.01575 0
M  V30 1044 H 99.7007 -3.01192 -4.87808 0
M  V30 1045 H 98.0977 -3.77406 -4.66567 0
M  V30 1046 H 99.1677 -3.58524 -3.26479 0
M  V30 1047 N 100.511 1.16574 -1.06058 0
M  V30 1048 C 101.474 2.19085 -0.673392 0
M  V30 1049 C 102.474 1.5835 0.279648 0
M  V30 1050 O 103.664 1.74088 0.0623488 0
M  V30 1051 C 100.796 3.40899 0.00954234 0
M  V30 1052 H 101.989 2.54853 -1.58081 0
M  V30 1053 H 99.5418 1.30808 -0.855516 0
M  V30 1054 H 100.277 3.10684 0.929826 0
M  V30 1055 H 100.062 3.86233 -0.67573 0
M  V30 1056 H 101.552 4.1675 0.266245 0
M  V30 1057 N 101.989 0.842826 1.3317 0
M  V30 1058 C 103.238 0.436738 1.96915 0
M  V30 1059 C 103.551 -1.01025 1.67491 0
M  V30 1060 O 104.757 -1.5212 2.24881 0
M  V30 1061 C 103.213 0.730021 3.52418 0
M  V30 1062 C 102.821 2.19195 3.90714 0
M  V30 1063 C 104.565 0.391076 4.22695 0
M  V30 1064 C 102.472 2.42907 5.39212 0
M  V30 1065 H 101.402 0.15958 0.736919 0
M  V30 1066 H 104.053 1.03196 1.51733 0
M  V30 1067 H 102.435 0.0643755 3.95948 0
M  V30 1068 H 103.609 2.8984 3.58231 0
M  V30 1069 H 101.924 2.49425 3.33431 0
M  V30 1070 H 104.521 0.545817 5.31907 0
M  V30 1071 H 104.864 -0.666294 4.10933 0
M  V30 1072 H 105.397 1.01212 3.84709 0
M  V30 1073 H 102.136 3.47224 5.55982 0
M  V30 1074 H 101.656 1.76827 5.73142 0
M  V30 1075 H 103.335 2.2626 6.06148 0
M  V30 1076 N 103.467 -1.45747 0.599634 0
M  V30 1077 C 104.713 -2.02592 0.0918643 0
M  V30 1078 C 105.046 -1.46806 -1.27128 0
M  V30 1079 O 104.321 -0.639658 -1.83681 0
M  V30 1080 C 104.604 -3.60073 0.0443398 0
M  V30 1081 C 104.457 -4.26208 1.43759 0
M  V30 1082 C 105.776 -4.35309 -0.647608 0
M  V30 1083 H 102.895 -0.736175 0.034857 0
M  V30 1084 H 105.537 -1.73694 0.770081 0
M  V30 1085 H 103.687 -3.84823 -0.533224 0
M  V30 1086 H 105.359 -4.12668 2.06162 0
M  V30 1087 H 103.602 -3.84916 2.00056 0
M  V30 1088 H 104.273 -5.35069 1.35665 0
M  V30 1089 H 106.749 -4.15805 -0.156776 0
M  V30 1090 H 105.625 -5.45038 -0.649942 0
M  V30 1091 H 105.886 -4.07598 -1.71219 0
M  V30 1092 N 104.945 -0.338344 -1.53925 0
M  V30 1093 C 106.191 0.260143 -2.01125 0
M  V30 1094 C 106.524 1.50617 -1.22589 0
M  V30 1095 O 105.799 1.91979 -0.312113 0
M  V30 1096 C 106.082 0.579499 -3.55407 0
M  V30 1097 C 105.935 -0.678264 -4.44657 0
M  V30 1098 C 107.254 1.39122 -4.17532 0
M  V30 1099 H 104.373 0.0930772 -0.731099 0
M  V30 1100 H 107.015 -0.457852 -1.84401 0
M  V30 1101 H 105.165 1.19118 -3.69788 0
M  V30 1102 H 106.837 -1.31631 -4.42121 0
M  V30 1103 H 105.08 -1.3042 -4.13731 0
M  V30 1104 H 105.751 -0.410143 -5.50474 0
M  V30 1105 H 108.227 0.874035 -4.06817 0
M  V30 1106 H 107.103 1.58342 -5.25565 0
M  V30 1107 H 107.364 2.39178 -3.71815 0
M  V30 1108 N 106.423 1.57458 -0.0668435 0
M  V30 1109 C 107.648 1.9804 0.616027 0
M  V30 1110 C 108.073 0.944771 1.62652 0
M  V30 1111 O 107.431 -0.0902094 1.81075 0
M  V30 1112 C 107.479 3.37665 1.26549 0
M  V30 1113 O 106.583 3.36701 2.38131 0
M  V30 1114 H 105.924 0.644719 0.158849 0
M  V30 1115 H 108.454 2.04121 -0.139891 0
M  V30 1116 H 108.464 3.7474 1.6135 0
M  V30 1117 H 107.139 4.12573 0.525016 0
M  V30 1118 H 105.716 3.1139 2.0516 0
M  V30 1119 N 107.901 -0.206675 1.56239 0
M  V30 1120 C 108.831 -1.25909 1.96645 0
M  V30 1121 C 109.812 -1.48097 0.836734 0
M  V30 1122 O 110.997 -1.6003 1.10019 0
M  V30 1123 C 108.127 -2.6058 2.29599 0
M  V30 1124 C 107.081 -2.53024 3.452 0
M  V30 1125 C 106.407 -3.91861 3.63798 0
M  V30 1126 C 107.707 -2.06524 4.79734 0
M  V30 1127 H 109.401 -0.923369 2.84806 0
M  V30 1128 H 106.947 -0.442735 1.37025 0
M  V30 1129 H 108.9 -3.34375 2.56459 0
M  V30 1130 H 107.624 -2.95869 1.38307 0
M  V30 1131 H 106.283 -1.81684 3.18412 0
M  V30 1132 H 105.931 -4.24483 2.69857 0
M  V30 1133 H 105.631 -3.87683 4.4156 0
M  V30 1134 H 107.155 -4.67296 3.93022 0
M  V30 1135 H 108.569 -2.70072 5.05702 0
M  V30 1136 H 106.966 -2.13374 5.60885 0
M  V30 1137 H 108.036 -1.01802 4.74093 0
M  V30 1138 N 109.379 -1.50304 -0.473955 0
M  V30 1139 C 110.627 -1.60832 -1.22382 0
M  V30 1140 C 110.948 -0.30939 -1.9253 0
M  V30 1141 O 110.218 0.67296 -1.83978 0
M  V30 1142 H 108.798 -0.592652 -0.454723 0
M  V30 1143 H 111.46 -1.87068 -0.546968 0
M  V30 1144 H 110.556 -2.41803 -1.97327 0
M  V30 1145 N 110.857 0.726932 -1.39834 0
M  V30 1146 C 112.106 1.48214 -1.36805 0
M  V30 1147 C 112.419 1.95576 0.0305291 0
M  V30 1148 O 113.625 2.7088 0.183417 0
M  V30 1149 C 112.081 2.67854 -2.40379 0
M  V30 1150 C 111.689 2.27408 -3.85992 0
M  V30 1151 C 113.433 3.45641 -2.46439 0
M  V30 1152 C 111.34 3.43819 -4.81189 0
M  V30 1153 H 110.27 0.556606 -0.508631 0
M  V30 1154 H 112.921 0.792216 -1.65518 0
M  V30 1155 H 111.303 3.3896 -2.04749 0
M  V30 1156 H 112.477 1.63795 -4.30706 0
M  V30 1157 H 110.792 1.62692 -3.83302 0
M  V30 1158 H 113.389 4.32244 -3.14753 0
M  V30 1159 H 113.732 3.88669 -1.49139 0
M  V30 1160 H 114.265 2.8157 -2.81004 0
M  V30 1161 H 111.004 3.05834 -5.79781 0
M  V30 1162 H 110.524 4.06385 -4.41148 0
M  V30 1163 H 112.203 4.10043 -5.00474 0
M  V30 1164 N 112.336 1.25143 0.95797 0
M  V30 1165 C 113.564 1.12424 1.73691 0
M  V30 1166 C 113.979 -0.322304 1.86029 0
M  V30 1167 O 113.336 -1.22186 1.35561 0
M  V30 1168 C 113.387 1.76933 3.15241 0
M  V30 1169 O 113.108 3.15932 3.03511 0
M  V30 1170 C 114.609 1.6995 4.09429 0
M  V30 1171 H 111.829 0.3923 0.544373 0
M  V30 1172 H 114.373 1.6544 1.20207 0
M  V30 1173 H 112.528 1.27895 3.6568 0
M  V30 1174 H 112.942 3.47598 3.9278 0
M  V30 1175 H 114.416 2.19753 5.06372 0
M  V30 1176 H 114.893 0.662619 4.34173 0
M  V30 1177 H 115.499 2.18461 3.64904 0
M  V30 1178 N 113.814 -1.1601 1.06675 0
M  V30 1179 C 115.063 -1.85973 0.780818 0
M  V30 1180 C 115.376 -1.82819 -0.695444 0
M  V30 1181 O 116.582 -2.484 -1.09589 0
M  V30 1182 C 115.038 -3.33757 1.34665 0
M  V30 1183 C 114.646 -3.45374 2.85343 0
M  V30 1184 C 116.39 -4.0895 1.13843 0
M  V30 1185 C 114.297 -4.87266 3.35151 0
M  V30 1186 H 113.227 -0.696661 0.288407 0
M  V30 1187 H 115.878 -1.30903 1.28595 0
M  V30 1188 H 114.26 -3.88456 0.769274 0
M  V30 1189 H 115.434 -3.00816 3.49065 0
M  V30 1190 H 113.749 -2.83619 3.04876 0
M  V30 1191 H 116.346 -5.13654 1.4854 0
M  V30 1192 H 116.689 -4.16229 0.0770282 0
M  V30 1193 H 117.222 -3.605 1.68179 0
M  V30 1194 H 113.961 -4.85168 4.40786 0
M  V30 1195 H 113.481 -5.32433 2.76179 0
M  V30 1196 H 115.16 -5.56097 3.30704 0
M  V30 1197 N 115.292 -0.849877 -1.32721 0
M  V30 1198 C 116.242 -0.262892 -2.26479 0
M  V30 1199 C 117.226 0.588493 -1.49752 0
M  V30 1200 O 118.418 0.438659 -1.71478 0
M  V30 1201 C 115.547 0.551818 -3.38836 0
M  V30 1202 C 114.633 -0.311689 -4.22953 0
M  V30 1203 N 115.024 -1.39567 -4.86163 0
M  V30 1204 C 113.322 -0.100611 -4.45887 0
M  V30 1205 C 114.023 -1.92651 -5.48872 0
M  V30 1206 N 112.999 -1.22637 -5.29586 0
M  V30 1207 H 116.801 -1.09166 -2.72873 0
M  V30 1208 H 114.315 -0.695486 -1.46754 0
M  V30 1209 H 116.312 0.988713 -4.05006 0
M  V30 1210 H 114.972 1.37844 -2.93988 0
M  V30 1211 H 115.983 -1.77859 -4.86402 0
M  V30 1212 H 112.66 0.691681 -4.11731 0
M  V30 1213 H 114.05 -2.83487 -6.09167 0
M  V30 1214 N 116.77 1.45427 -0.607355 0
M  V30 1215 C 118.017 2.02241 -0.102455 0
M  V30 1216 C 118.345 1.4758 1.26691 0
M  V30 1217 O 117.6 0.640468 1.84923 0
M  V30 1218 C 117.899 3.57398 -0.0129263 0
M  V30 1219 C 117.565 4.3121 -1.31792 0
M  V30 1220 C 116.227 4.51092 -1.67539 0
M  V30 1221 C 118.579 4.73401 -2.18039 0
M  V30 1222 C 115.907 5.10422 -2.89285 0
M  V30 1223 C 118.259 5.34078 -3.39034 0
M  V30 1224 C 116.923 5.52184 -3.75033 0
M  V30 1225 H 116.193 0.740051 -0.037491 0
M  V30 1226 H 118.84 1.74494 -0.788926 0
M  V30 1227 H 117.145 3.84421 0.756806 0
M  V30 1228 H 118.842 3.99061 0.393881 0
M  V30 1229 H 115.432 4.16047 -1.02968 0
M  V30 1230 H 119.616 4.57774 -1.91721 0
M  V30 1231 H 114.872 5.22629 -3.17283 0
M  V30 1232 H 119.046 5.65724 -4.06115 0
M  V30 1233 H 116.673 5.97925 -4.69457 0
M  V30 1234 N 118.248 0.346503 1.53744 0
M  V30 1235 C 119.478 -0.250047 2.05081 0
M  V30 1236 C 119.886 -1.44529 1.22098 0
M  V30 1237 O 119.229 -1.81992 0.249917 0
M  V30 1238 C 119.291 -0.725934 3.52094 0
M  V30 1239 C 118.955 0.350053 4.55657 0
M  V30 1240 C 119.952 1.19372 5.0601 0
M  V30 1241 C 117.637 0.504827 4.99757 0
M  V30 1242 C 119.631 2.17768 5.99046 0
M  V30 1243 C 117.318 1.49218 5.92602 0
M  V30 1244 C 118.316 2.32706 6.42135 0
M  V30 1245 O 118.004 3.2976 7.33153 0
M  V30 1246 H 117.736 -0.0515469 0.674032 0
M  V30 1247 H 120.29 0.497559 1.99282 0
M  V30 1248 H 118.52 -1.52483 3.55367 0
M  V30 1249 H 120.209 -1.24336 3.86388 0
M  V30 1250 H 120.975 1.08525 4.72702 0
M  V30 1251 H 116.854 -0.135178 4.60802 0
M  V30 1252 H 120.398 2.82971 6.37631 0
M  V30 1253 H 116.295 1.6012 6.25325 0
M  V30 1254 H 117.063 3.25265 7.51096 0
M  V30 1255 N 119.726 -1.57421 0.075193 0
M  V30 1256 C 120.951 -1.98364 -0.605515 0
M  V30 1257 C 121.376 -0.953383 -1.62149 0
M  V30 1258 O 120.734 0.0806053 -1.81121 0
M  V30 1259 C 120.782 -3.38332 -1.24756 0
M  V30 1260 O 119.886 -3.37959 -2.36342 0
M  V30 1261 H 119.227 -0.645553 -0.155428 0
M  V30 1262 H 121.757 -2.04044 0.150714 0
M  V30 1263 H 121.767 -3.75591 -1.5936 0
M  V30 1264 H 120.442 -4.12846 -0.503129 0
M  V30 1265 H 119.019 -3.12474 -2.03506 0
M  V30 1266 N 121.204 0.198386 -1.56346 0
M  V30 1267 C 122.444 0.92609 -1.82217 0
M  V30 1268 C 122.808 1.80584 -0.652195 0
M  V30 1269 O 124.009 2.56907 -0.790716 0
M  V30 1270 C 122.28 1.72354 -3.13096 0
M  V30 1271 S 123.839 2.50371 -3.6036 0
M  V30 1272 H 120.657 0.310677 -0.639532 0
M  V30 1273 H 123.259 0.189755 -1.94577 0
M  V30 1274 H 121.963 1.0678 -3.96265 0
M  V30 1275 H 121.494 2.50175 -3.03605 0
M  V30 1276 H 123.509 3.74488 -3.25535 0
M  V30 1277 N 122.682 1.50554 0.465978 0
M  V30 1278 C 123.612 1.72722 1.57128 0
M  V30 1279 C 124.593 0.576294 1.6004 0
M  V30 1280 O 125.778 0.81598 1.76225 0
M  V30 1281 C 122.908 1.82605 2.95419 0
M  V30 1282 C 121.862 2.97835 3.07373 0
M  V30 1283 C 121.188 2.92867 4.47363 0
M  V30 1284 C 122.488 4.38265 2.84114 0
M  V30 1285 H 124.182 2.65267 1.38829 0
M  V30 1286 H 121.728 1.2765 0.666441 0
M  V30 1287 H 123.681 1.96698 3.72677 0
M  V30 1288 H 122.405 0.866858 3.14886 0
M  V30 1289 H 121.064 2.83401 2.3255 0
M  V30 1290 H 120.712 1.94783 4.63755 0
M  V30 1291 H 120.412 3.70227 4.56296 0
M  V30 1292 H 121.936 3.09015 5.26633 0
M  V30 1293 H 123.35 4.53198 3.51118 0
M  V30 1294 H 121.747 5.17115 3.04487 0
M  V30 1295 H 122.817 4.50281 1.7993 0
M  V30 1296 N 124.16 -0.719506 1.40217 0
M  V30 1297 C 125.407 -1.47933 1.38283 0
M  V30 1298 C 125.735 -1.94493 -0.0161536 0
M  V30 1299 O 124.99 -1.68224 -0.999956 0
M  V30 1300 C 125.289 -2.72271 2.31524 0
M  V30 1301 C 124.955 -2.44496 3.78857 0
M  V30 1302 C 123.617 -2.36631 4.18998 0
M  V30 1303 C 125.969 -2.21104 4.71977 0
M  V30 1304 C 123.297 -2.03437 5.503 0
M  V30 1305 C 125.649 -1.89423 6.03574 0
M  V30 1306 C 124.313 -1.80038 6.42762 0
M  V30 1307 H 123.583 -0.541325 0.506012 0
M  V30 1308 H 126.23 -0.824502 1.72842 0
M  V30 1309 H 124.535 -3.42572 1.90137 0
M  V30 1310 H 126.232 -3.30348 2.27313 0
M  V30 1311 H 122.822 -2.51503 3.47051 0
M  V30 1312 H 127.006 -2.26139 4.41786 0
M  V30 1313 H 122.262 -1.94705 5.79569 0
M  V30 1314 H 126.436 -1.70336 6.75247 0
M  V30 1315 H 124.063 -1.54083 7.44421 0
M  V30 1316 N 125.638 -1.25649 -0.95132 0
M  V30 1317 C 126.571 -1.00644 -2.04807 0
M  V30 1318 C 127.549 0.0654271 -1.62468 0
M  V30 1319 O 128.733 -0.074911 -1.88351 0
M  V30 1320 C 125.86 -0.522052 -3.34653 0
M  V30 1321 C 124.906 -1.58495 -3.95957 0
M  V30 1322 S 125.739 -3.17108 -4.31512 0
M  V30 1323 C 126.895 -2.70412 -5.64471 0
M  V30 1324 H 127.128 -1.93508 -2.25703 0
M  V30 1325 H 124.661 -1.09216 -1.09139 0
M  V30 1326 H 126.619 -0.24923 -4.09743 0
M  V30 1327 H 125.28 0.386146 -3.11717 0
M  V30 1328 H 124.473 -1.1968 -4.89584 0
M  V30 1329 H 124.075 -1.80862 -3.2736 0
M  V30 1330 H 126.367 -2.14245 -6.42733 0
M  V30 1331 H 127.31 -3.62693 -6.08161 0
M  V30 1332 H 127.718 -2.10302 -5.23864 0
M  V30 1333 N 127.117 1.15442 -1.07289 0
M  V30 1334 C 128.345 1.90096 -0.81676 0
M  V30 1335 C 128.76 1.7798 0.629966 0
M  V30 1336 O 128.117 1.1313 1.43206 0
M  V30 1337 C 128.168 3.40466 -1.21512 0
M  V30 1338 O 127.889 3.52232 -2.60508 0
M  V30 1339 C 129.39 4.32145 -0.988198 0
M  V30 1340 H 126.61 0.602495 -0.295366 0
M  V30 1341 H 129.154 1.4627 -1.42918 0
M  V30 1342 H 127.309 3.81958 -0.647039 0
M  V30 1343 H 127.723 4.45549 -2.76742 0
M  V30 1344 H 129.197 5.36072 -1.31645 0
M  V30 1345 H 129.674 4.39135 0.0755063 0
M  V30 1346 H 130.28 3.96395 -1.54115 0
M  V30 1347 N 128.595 0.856903 1.32268 0
M  V30 1348 C 129.835 0.467705 1.98977 0
M  V30 1349 C 130.199 -0.959231 1.66321 0
M  V30 1350 O 131.4 -1.4531 2.26138 0
M  V30 1351 C 129.671 0.70256 3.50427 0
M  V30 1352 S 131.23 0.411269 4.36868 0
M  V30 1353 H 128.048 0.175121 0.689096 0
M  V30 1354 H 130.65 1.1101 1.60925 0
M  V30 1355 H 129.354 1.74012 3.71683 0
M  V30 1356 H 128.885 0.0466707 3.93372 0
M  V30 1357 H 130.9 -0.761799 4.90317 0
M  V30 1358 N 130.073 -1.45103 0.615059 0
M  V30 1359 C 131.003 -2.33339 -0.0865619 0
M  V30 1360 C 131.984 -1.4727 -0.851209 0
M  V30 1361 O 133.169 -1.76026 -0.820281 0
M  V30 1362 C 130.299 -3.30095 -1.07956 0
M  V30 1363 C 129.253 -4.25858 -0.427628 0
M  V30 1364 C 128.579 -5.12361 -1.5294 0
M  V30 1365 C 129.879 -5.18165 0.655944 0
M  V30 1366 H 131.573 -2.92254 0.650224 0
M  V30 1367 H 129.119 -1.40532 0.314138 0
M  V30 1368 H 131.072 -3.90698 -1.57901 0
M  V30 1369 H 129.796 -2.69355 -1.84703 0
M  V30 1370 H 128.455 -3.66564 0.0510292 0
M  V30 1371 H 128.103 -4.47984 -2.28734 0
M  V30 1372 H 127.803 -5.77238 -1.09865 0
M  V30 1373 H 129.327 -5.75833 -2.03098 0
M  V30 1374 H 130.741 -5.72796 0.240257 0
M  V30 1375 H 129.138 -5.91559 1.00888 0
M  V30 1376 H 130.208 -4.60144 1.52957 0
M  V30 1377 N 131.551 -0.354651 -1.53558 0
M  V30 1378 C 132.481 0.489091 -2.2832 0
M  V30 1379 C 133.462 1.09324 -1.30316 0
M  V30 1380 O 134.647 1.11255 -1.59173 0
M  V30 1381 C 131.777 1.63456 -3.0643 0
M  V30 1382 C 130.731 1.1582 -4.12031 0
M  V30 1383 C 130.057 2.39305 -4.7816 0
M  V30 1384 C 131.357 0.250731 -5.21698 0
M  V30 1385 H 133.051 -0.134614 -2.99097 0
M  V30 1386 H 130.597 -0.0661826 -1.43848 0
M  V30 1387 H 132.55 2.23136 -3.57475 0
M  V30 1388 H 131.274 2.28533 -2.33325 0
M  V30 1389 H 129.933 0.584146 -3.61916 0
M  V30 1390 H 129.581 3.02814 -4.01637 0
M  V30 1391 H 129.281 2.08109 -5.49513 0
M  V30 1392 H 130.805 2.99691 -5.31994 0
M  V30 1393 H 132.219 0.754695 -5.68311 0
M  V30 1394 H 130.616 0.0301468 -6.00092 0
M  V30 1395 H 131.686 -0.710125 -4.79672 0
M  V30 1396 N 133.029 1.57378 -0.0835403 0
M  V30 1397 C 133.959 2.1641 0.87686 0
M  V30 1398 C 134.94 1.09429 1.30228 0
M  V30 1399 O 136.125 1.37516 1.37124 0
M  V30 1400 C 133.255 2.73517 2.14022 0
M  V30 1401 C 132.209 3.85769 1.85381 0
M  V30 1402 C 131.535 4.29529 3.18448 0
M  V30 1403 C 132.835 5.09486 1.14984 0
M  V30 1404 H 134.529 2.96914 0.385059 0
M  V30 1405 H 132.075 1.42823 0.18377 0
M  V30 1406 H 134.028 3.13463 2.81636 0
M  V30 1407 H 132.752 1.90252 2.65465 0
M  V30 1408 H 131.411 3.46345 1.20169 0
M  V30 1409 H 131.059 3.43169 3.67755 0
M  V30 1410 H 130.759 5.05204 3.00071 0
M  V30 1411 H 132.283 4.72099 3.8724 0
M  V30 1412 H 133.697 5.46674 1.72687 0
M  V30 1413 H 132.094 5.90515 1.06826 0
M  V30 1414 H 133.164 4.84724 0.130749 0
M  V30 1415 N 134.507 -0.190092 1.56449 0
M  V30 1416 C 135.756 -0.907912 1.80111 0
M  V30 1417 C 136.069 -1.84214 0.657619 0
M  V30 1418 O 137.275 -2.60094 0.778663 0
M  V30 1419 C 135.731 -1.66485 3.19078 0
M  V30 1420 C 135.339 -0.7752 4.41242 0
M  V30 1421 C 137.083 -2.37201 3.52045 0
M  V30 1422 C 134.99 -1.53129 5.71231 0
M  V30 1423 H 133.92 -0.34276 0.671589 0
M  V30 1424 H 136.571 -0.161109 1.82791 0
M  V30 1425 H 134.953 -2.45572 3.10661 0
M  V30 1426 H 136.127 -0.0226298 4.60794 0
M  V30 1427 H 134.442 -0.178627 4.16017 0
M  V30 1428 H 137.039 -2.94329 4.46402 0
M  V30 1429 H 137.382 -3.11632 2.76028 0
M  V30 1430 H 137.915 -1.65075 3.61932 0
M  V30 1431 H 134.654 -0.82967 6.50228 0
M  V30 1432 H 134.174 -2.25767 5.55688 0
M  V30 1433 H 135.853 -2.08377 6.12526 0
M  V30 1434 N 135.985 -1.50799 -0.457987 0
M  V30 1435 C 137.232 -1.62442 -1.20908 0
M  V30 1436 C 137.56 -0.330865 -1.91665 0
M  V30 1437 O 136.815 0.68401 -1.83357 0
M  V30 1438 C 137.114 -2.76358 -2.2663 0
M  V30 1439 C 136.78 -4.16378 -1.73033 0
M  V30 1440 C 135.442 -4.54473 -1.58138 0
M  V30 1441 C 137.794 -5.03836 -1.33413 0
M  V30 1442 C 135.122 -5.77754 -1.02065 0
M  V30 1443 C 137.474 -6.27676 -0.78778 0
M  V30 1444 C 136.138 -6.64562 -0.625561 0
M  V30 1445 H 135.408 -0.594417 -0.442435 0
M  V30 1446 H 138.055 -1.84772 -0.503136 0
M  V30 1447 H 136.36 -2.48167 -3.03184 0
M  V30 1448 H 138.057 -2.82568 -2.84528 0
M  V30 1449 H 134.647 -3.86331 -1.85598 0
M  V30 1450 H 138.831 -4.75026 -1.4375 0
M  V30 1451 H 134.087 -6.04997 -0.882547 0
M  V30 1452 H 138.261 -6.94797 -0.472177 0
M  V30 1453 H 135.888 -7.59965 -0.188926 0
M  V30 1454 N 137.463 0.71206 -1.40597 0
M  V30 1455 C 138.691 1.50111 -1.42388 0
M  V30 1456 C 139.106 1.88784 -0.0245395 0
M  V30 1457 O 138.463 1.55681 0.952351 0
M  V30 1458 C 138.514 2.7742 -2.31776 0
M  V30 1459 O 138.235 2.40382 -3.66262 0
M  V30 1460 C 139.736 3.7129 -2.42196 0
M  V30 1461 H 136.956 0.46314 -0.485533 0
M  V30 1462 H 139.5 0.878068 -1.8469 0
M  V30 1463 H 137.655 3.36001 -1.92827 0
M  V30 1464 H 138.069 3.22324 -4.13772 0
M  V30 1465 H 139.543 4.57448 -3.08943 0
M  V30 1466 H 140.02 4.14641 -1.44809 0
M  V30 1467 H 140.626 3.18619 -2.81712 0
M  V30 1468 N 138.941 1.26152 0.944643 0
M  V30 1469 C 139.891 1.04081 2.02857 0
M  V30 1470 C 140.875 -0.0256555 1.6088 0
M  V30 1471 O 142.067 0.190884 1.75968 0
M  V30 1472 C 139.196 0.672118 3.36656 0
M  V30 1473 C 138.282 1.77586 3.85128 0
M  V30 1474 N 138.673 3.01272 4.06287 0
M  V30 1475 C 136.971 1.65867 4.1401 0
M  V30 1476 C 137.672 3.72983 4.46384 0
M  V30 1477 N 136.648 3.00653 4.52889 0
M  V30 1478 H 140.45 1.97968 2.17223 0
M  V30 1479 H 137.964 1.16618 1.13022 0
M  V30 1480 H 139.961 0.495166 4.13949 0
M  V30 1481 H 138.621 -0.259307 3.23663 0
M  V30 1482 H 139.632 3.37213 3.93075 0
M  V30 1483 H 136.309 0.796907 4.09824 0
M  V30 1484 H 137.699 4.792 4.70975 0
M  V30 1485 N 140.419 -1.14872 1.07899 0
M  V30 1486 C 141.382 -2.17986 0.708161 0
M  V30 1487 C 142.382 -1.58775 -0.25442 0
M  V30 1488 O 143.572 -1.74166 -0.034645 0
M  V30 1489 C 140.704 -3.40871 0.0446929 0
M  V30 1490 H 141.897 -2.52306 1.62116 0
M  V30 1491 H 139.45 -1.2943 0.876218 0
M  V30 1492 H 140.185 -3.12124 -0.880281 0
M  V30 1493 H 139.97 -3.8511 0.737091 0
M  V30 1494 H 141.46 -4.17121 -0.19991 0
M  V30 1495 N 141.898 -0.863906 -1.31812 0
M  V30 1496 C 143.123 -0.48527 -2.01643 0
M  V30 1497 C 143.548 0.913058 -1.64453 0
M  V30 1498 O 142.906 1.6014 -0.849985 0
M  V30 1499 C 142.954 -0.642625 -3.54828 0
M  V30 1500 O 142.058 0.320659 -4.11151 0
M  V30 1501 H 141.399 -0.193793 -0.635091 0
M  V30 1502 H 143.929 -1.16565 -1.68148 0
M  V30 1503 H 143.939 -0.533628 -4.04495 0
M  V30 1504 H 142.614 -1.66227 -3.81237 0
M  V30 1505 H 141.191 0.167126 -3.72525 0
M  V30 1506 N 143.376 1.44774 -0.622745 0
M  V30 1507 C 144.625 2.01334 -0.121397 0
M  V30 1508 C 144.938 1.49505 1.26125 0
M  V30 1509 O 146.144 1.98139 1.85616 0
M  V30 1510 C 144.6 3.59516 -0.166298 0
M  V30 1511 C 144.208 4.20342 -1.54974 0
M  V30 1512 C 145.952 4.23582 0.279021 0
M  V30 1513 C 143.859 5.70721 -1.55021 0
M  V30 1514 H 142.789 0.752851 -0.0416172 0
M  V30 1515 H 145.44 1.66083 -0.780309 0
M  V30 1516 H 143.822 3.92027 0.559557 0
M  V30 1517 H 144.996 3.99381 -2.29851 0
M  V30 1518 H 143.311 3.68529 -1.93843 0
M  V30 1519 H 145.908 5.33868 0.298083 0
M  V30 1520 H 146.251 3.95327 1.30471 0
M  V30 1521 H 146.784 3.95843 -0.394063 0
M  V30 1522 H 143.523 6.03698 -2.55399 0
M  V30 1523 H 143.043 5.93829 -0.844245 0
M  V30 1524 H 144.722 6.34203 -1.28047 0
M  V30 1525 N 144.854 0.36279 1.53368 0
M  V30 1526 C 145.787 -0.528507 2.21996 0
M  V30 1527 C 146.765 -1.0852 1.21087 0
M  V30 1528 O 147.949 -1.14186 1.4998 0
M  V30 1529 C 145.076 -1.72893 2.91249 0
M  V30 1530 C 144.122 -1.29994 4.06207 0
M  V30 1531 S 144.955 -0.303575 5.34639 0
M  V30 1532 C 146.111 -1.51039 6.07403 0
M  V30 1533 H 146.344 0.0543423 2.9725 0
M  V30 1534 H 143.877 0.146889 1.537 0
M  V30 1535 H 145.835 -2.41751 3.31763 0
M  V30 1536 H 144.496 -2.28303 2.15724 0
M  V30 1537 H 143.689 -2.19549 4.53667 0
M  V30 1538 H 143.291 -0.690608 3.67569 0
M  V30 1539 H 145.583 -2.44186 6.31965 0
M  V30 1540 H 146.526 -1.07721 6.99858 0
M  V30 1541 H 146.934 -1.71518 5.37812 0
M  V30 1542 N 146.332 -1.57332 0.0918853 0
M  V30 1543 C 147.557 -1.98995 -0.584442 0
M  V30 1544 C 147.982 -0.970528 -1.61128 0
M  V30 1545 O 147.34 0.0613904 -1.81196 0
M  V30 1546 C 147.388 -3.39636 -1.21161 0
M  V30 1547 O 146.492 -3.40447 -2.32744 0
M  V30 1548 H 145.833 -0.647165 -0.148572 0
M  V30 1549 H 148.363 -2.03873 0.172347 0
M  V30 1550 H 148.373 -3.7726 -1.55367 0
M  V30 1551 H 147.048 -4.13356 -0.459313 0
M  V30 1552 H 145.625 -3.14614 -2.0018 0
M  V30 1553 N 147.81 0.181792 -1.56548 0
M  V30 1554 C 148.74 1.22765 -1.98623 0
M  V30 1555 C 149.721 1.46747 -0.860189 0
M  V30 1556 O 150.906 1.58259 -1.12551 0
M  V30 1557 C 148.036 2.56894 -2.33715 0
M  V30 1558 C 146.99 2.475 -3.49182 0
M  V30 1559 C 146.316 3.86023 -3.69986 0
M  V30 1560 C 147.616 1.98866 -4.82959 0
M  V30 1561 H 149.31 0.877942 -2.86239 0
M  V30 1562 H 146.856 0.42088 -1.37712 0
M  V30 1563 H 148.809 3.30253 -2.61746 0
M  V30 1564 H 147.533 2.93632 -1.42997 0
M  V30 1565 H 146.192 1.76596 -3.21262 0
M  V30 1566 H 145.84 4.20136 -2.76576 0
M  V30 1567 H 145.54 3.80609 -4.47672 0
M  V30 1568 H 147.064 4.60984 -4.00407 0
M  V30 1569 H 148.478 2.61992 -5.09934 0
M  V30 1570 H 146.875 2.04424 -5.64208 0
M  V30 1571 H 147.945 0.942465 -4.75653 0
M  V30 1572 N 149.288 1.51039 0.449983 0
M  V30 1573 C 150.218 1.74379 1.55288 0
M  V30 1574 C 151.199 0.593236 1.5942 0
M  V30 1575 O 152.384 0.834625 1.7535 0
M  V30 1576 C 149.514 1.85728 2.93466 0
M  V30 1577 C 148.468 3.01078 3.04197 0
M  V30 1578 C 147.794 2.97595 4.44231 0
M  V30 1579 C 149.094 4.41254 2.7945 0
M  V30 1580 H 150.788 2.66725 1.36008 0
M  V30 1581 H 148.334 1.2835 0.652864 0
M  V30 1582 H 150.287 2.0064 3.70569 0
M  V30 1583 H 149.011 0.900207 3.13949 0
M  V30 1584 H 147.67 2.85851 2.29531 0
M  V30 1585 H 147.318 1.99691 4.61663 0
M  V30 1586 H 147.018 3.75046 4.52343 0
M  V30 1587 H 148.542 3.14583 5.23326 0
M  V30 1588 H 149.956 4.56897 3.46292 0
M  V30 1589 H 148.353 5.20315 2.98985 0
M  V30 1590 H 149.423 4.52164 1.75144 0
M  V30 1591 N 150.766 -0.704594 1.40972 0
M  V30 1592 C 151.729 -1.80035 1.41845 0
M  V30 1593 C 152.729 -1.57774 0.310474 0
M  V30 1594 O 153.919 -1.64613 0.56992 0
M  V30 1595 C 151.051 -3.18284 1.22098 0
M  V30 1596 H 152.244 -1.80658 2.3938 0
M  V30 1597 H 149.797 -0.911329 1.26982 0
M  V30 1598 H 150.532 -3.23306 0.253672 0
M  V30 1599 H 150.317 -3.35843 2.02366 0
M  V30 1600 H 151.807 -3.98289 1.25522 0
M  V30 1601 N 152.244 -1.26651 -0.937939 0
M  V30 1602 C 153.493 -1.11775 -1.67897 0
M  V30 1603 C 153.806 0.33794 -1.92659 0
M  V30 1604 O 155.012 0.607434 -2.64618 0
M  V30 1605 C 153.468 -1.9523 -3.02346 0
M  V30 1606 C 153.076 -3.45393 -2.8532 0
M  V30 1607 C 154.82 -1.88972 -3.80118 0
M  V30 1608 C 152.727 -4.21083 -4.15263 0
M  V30 1609 H 151.657 -0.414696 -0.629717 0
M  V30 1610 H 154.308 -1.50988 -1.04283 0
M  V30 1611 H 152.69 -1.48853 -3.66959 0
M  V30 1612 H 153.864 -3.99561 -2.29537 0
M  V30 1613 H 152.179 -3.52921 -2.20988 0
M  V30 1614 H 154.776 -2.42805 -4.76392 0
M  V30 1615 H 155.119 -0.86113 -4.07296 0
M  V30 1616 H 155.652 -2.33189 -3.22285 0
M  V30 1617 H 152.391 -5.24425 -3.93267 0
M  V30 1618 H 151.911 -3.71695 -4.70747 0
M  V30 1619 H 153.59 -4.29706 -4.83696 0
M  V30 1620 N 153.722 1.14298 -1.08507 0
M  V30 1621 C 154.685 2.17607 -0.719711 0
M  V30 1622 C 155.685 1.58907 0.245997 0
M  V30 1623 O 156.875 1.74181 0.0254081 0
M  V30 1624 C 154.007 3.40842 -0.0627695 0
M  V30 1625 H 155.2 2.51443 -1.63452 0
M  V30 1626 H 152.753 1.28963 -0.88307 0
M  V30 1627 H 153.488 3.12587 0.863716 0
M  V30 1628 H 153.273 3.84713 -0.757504 0
M  V30 1629 H 154.763 4.17221 0.177786 0
M  V30 1630 N 155.201 0.870884 1.31352 0
M  V30 1631 C 156.447 0.482987 1.96965 0
M  V30 1632 C 156.78 -0.962462 1.68672 0
M  V30 1633 O 156.055 -1.6779 0.98371 0
M  V30 1634 C 156.338 0.741752 3.52378 0
M  V30 1635 C 156.191 2.2368 3.9024 0
M  V30 1636 C 157.51 0.208838 4.39604 0
M  V30 1637 H 154.629 0.176955 0.715441 0
M  V30 1638 H 157.271 1.09229 1.55464 0
M  V30 1639 H 155.421 0.223149 3.87859 0
M  V30 1640 H 157.093 2.82273 3.64856 0
M  V30 1641 H 155.336 2.70901 3.38814 0
M  V30 1642 H 156.007 2.3685 4.98604 0
M  V30 1643 H 158.483 0.652529 4.10952 0
M  V30 1644 H 157.359 0.419336 5.47296 0
M  V30 1645 H 157.62 -0.889275 4.33064 0
M  V30 1646 N 156.679 -1.44442 0.630414 0
M  V30 1647 C 157.956 -1.9549 0.0655657 0
M  V30 1648 C 158.336 -1.5724 -1.40851 0
M  V30 1649 O 157.684 -0.846116 -2.12257 0
M  V30 1650 C 157.894 -3.47812 0.287691 0
M  V30 1651 C 159.242 -4.24216 0.180513 0
M  V30 1652 O 160.266 -3.55526 0.219019 0
M  V30 1653 O 159.125 -5.46434 0.0848493 0
M  V30 1654 H 156.219 -0.826688 -0.0227177 0
M  V30 1655 H 158.765 -1.54496 0.702068 0
M  V30 1656 H 157.537 -3.687 1.31056 0
M  V30 1657 H 157.16 -3.95751 -0.382984 0
M  V30 1658 N 158.157 -0.370918 -1.53173 0
M  V30 1659 C 159.573 -0.0200818 -1.59587 0
M  V30 1660 C 159.773 1.46279 -1.38581 0
M  V30 1661 O 158.829 2.22506 -1.19363 0
M  V30 1662 C 160.142 -0.4808 -2.96831 0
M  V30 1663 C 161.69 -0.435477 -3.09956 0
M  V30 1664 C 162.165 -0.872092 -4.4962 0
M  V30 1665 N 163.656 -0.827364 -4.55751 0
M  V30 1666 C 164.391 -1.13683 -5.62018 0
M  V30 1667 N 163.887 -1.51584 -6.76014 0
M  V30 1668 N 165.68 -1.05927 -5.52029 0
M  V30 1669 H 157.831 -1.33652 -1.65079 0
M  V30 1670 H 160.094 -0.546634 -0.774529 0
M  V30 1671 H 159.8 -1.51577 -3.1736 0
M  V30 1672 H 159.674 0.129796 -3.76977 0
M  V30 1673 H 162.061 0.590371 -2.89134 0
M  V30 1674 H 162.142 -1.08164 -2.31806 0
M  V30 1675 H 161.786 -1.89608 -4.71181 0
M  V30 1676 H 161.716 -0.203127 -5.26208 0
M  V30 1677 H 164.207 -0.548216 -3.73902 0
M  V30 1678 H 164.52 -1.73609 -7.53047 0
M  V30 1679 H 162.865 -1.55454 -6.77391 0
M  V30 1680 H 166.056 -0.762321 -4.61851 0
M  V30 1681 H 166.229 -1.30378 -6.34749 0
M  V30 1682 N 159.635 1.57281 -0.100228 0
M  V30 1683 C 160.865 1.98591 0.569681 0
M  V30 1684 C 161.273 0.978315 1.61943 0
M  V30 1685 O 160.616 -0.0396108 1.83657 0
M  V30 1686 C 160.678 3.36282 1.271 0
M  V30 1687 C 160.342 4.55488 0.371409 0
M  V30 1688 C 161.339 5.18491 -0.382504 0
M  V30 1689 C 159.024 5.01474 0.287965 0
M  V30 1690 C 161.018 6.25852 -1.20779 0
M  V30 1691 C 158.705 6.08701 -0.540965 0
M  V30 1692 C 159.703 6.70755 -1.28749 0
M  V30 1693 O 159.391 7.75914 -2.10269 0
M  V30 1694 H 159.123 0.65752 0.156982 0
M  V30 1695 H 161.677 2.0463 -0.177734 0
M  V30 1696 H 159.907 3.26941 2.0651 0
M  V30 1697 H 161.596 3.62005 1.83595 0
M  V30 1698 H 162.362 4.83891 -0.3278 0
M  V30 1699 H 158.241 4.52932 0.858689 0
M  V30 1700 H 161.785 6.74218 -1.79096 0
M  V30 1701 H 157.682 6.42732 -0.597131 0
M  V30 1702 H 158.45 7.92925 -2.03007 0
M  V30 1703 N 161.113 -0.173488 1.56642 0
M  V30 1704 C 162.043 -1.2171 1.99271 0
M  V30 1705 C 163.024 -1.46289 0.867959 0
M  V30 1706 O 164.209 -1.5766 1.13388 0
M  V30 1707 C 161.339 -2.55651 2.35074 0
M  V30 1708 C 160.293 -2.45645 3.50489 0
M  V30 1709 C 159.619 -3.84056 3.72028 0
M  V30 1710 C 160.919 -1.96302 4.84007 0
M  V30 1711 H 162.613 -0.86275 2.867 0
M  V30 1712 H 160.159 -0.413571 1.37933 0
M  V30 1713 H 162.112 -3.2886 2.63494 0
M  V30 1714 H 160.836 -2.92869 1.44552 0
M  V30 1715 H 159.495 -1.7489 3.22194 0
M  V30 1716 H 159.143 -4.18664 2.788 0
M  V30 1717 H 158.843 -3.7823 4.49684 0
M  V30 1718 H 160.367 -4.58854 4.02846 0
M  V30 1719 H 161.781 -2.59284 5.11317 0
M  V30 1720 H 160.178 -2.01429 5.65284 0
M  V30 1721 H 161.248 -0.917226 4.76146 0
M  V30 1722 N 162.591 -1.51276 -0.441967 0
M  V30 1723 C 164.007 -1.39349 -0.778083 0
M  V30 1724 C 164.207 -0.472212 -1.95889 0
M  V30 1725 O 163.263 0.0743551 -2.5239 0
M  V30 1726 C 164.576 -2.81292 -1.0628 0
M  V30 1727 C 166.124 -2.9041 -1.16751 0
M  V30 1728 C 166.599 -4.33251 -1.48519 0
M  V30 1729 N 168.09 -4.36336 -1.55453 0
M  V30 1730 C 168.825 -5.43885 -1.81596 0
M  V30 1731 N 168.321 -6.61601 -2.05562 0
M  V30 1732 N 170.114 -5.3136 -1.8334 0
M  V30 1733 H 162.265 -2.09729 0.335774 0
M  V30 1734 H 164.528 -0.943925 0.0878028 0
M  V30 1735 H 164.234 -3.50678 -0.267905 0
M  V30 1736 H 164.108 -3.20334 -1.99163 0
M  V30 1737 H 166.495 -2.21225 -1.95304 0
M  V30 1738 H 166.576 -2.54871 -0.217801 0
M  V30 1739 H 166.22 -5.02984 -0.704958 0
M  V30 1740 H 166.15 -4.66299 -2.44689 0
M  V30 1741 H 168.641 -3.51466 -1.38853 0
M  V30 1742 H 168.954 -7.39361 -2.24867 0
M  V30 1743 H 167.299 -6.64725 -2.02894 0
M  V30 1744 H 170.49 -4.38382 -1.64132 0
M  V30 1745 H 170.663 -6.15258 -2.03377 0
M  V30 1746 N 164.069 0.697108 -1.41344 0
M  V30 1747 C 165.315 1.4593 -1.40827 0
M  V30 1748 C 165.648 1.94193 -0.0167098 0
M  V30 1749 O 164.923 1.69425 0.955263 0
M  V30 1750 C 165.206 2.67229 -2.41373 0
M  V30 1751 C 165.059 2.24741 -3.8963 0
M  V30 1752 C 166.378 3.69423 -2.39196 0
M  V30 1753 H 163.497 0.529303 -0.512842 0
M  V30 1754 H 166.139 0.794112 -1.72609 0
M  V30 1755 H 164.289 3.23982 -2.14401 0
M  V30 1756 H 165.961 1.73327 -4.27499 0
M  V30 1757 H 164.204 1.56542 -4.0457 0
M  V30 1758 H 164.875 3.1177 -4.55525 0
M  V30 1759 H 167.351 3.2234 -2.63128 0
M  V30 1760 H 166.227 4.51907 -3.11563 0
M  V30 1761 H 166.488 4.19012 -1.41001 0
M  V30 1762 N 165.547 1.27147 0.931209 0
M  V30 1763 C 166.494 1.09568 2.03134 0
M  V30 1764 C 167.464 -0.00222433 1.661 0
M  V30 1765 O 168.649 0.159439 1.90133 0
M  V30 1766 C 165.789 0.745231 3.36957 0
M  V30 1767 C 164.902 1.92041 3.86968 0
M  V30 1768 C 164.037 1.51216 5.09222 0
M  V30 1769 C 163.076 2.65504 5.5152 0
M  V30 1770 N 162.213 2.25291 6.64972 0
M  V30 1771 H 167.053 2.03708 2.17502 0
M  V30 1772 H 164.59 1.01411 1.06556 0
M  V30 1773 H 166.548 0.522878 4.1391 0
M  V30 1774 H 165.178 -0.159202 3.22407 0
M  V30 1775 H 164.23 2.25541 3.06326 0
M  V30 1776 H 165.542 2.77787 4.1429 0
M  V30 1777 H 164.696 1.25084 5.93666 0
M  V30 1778 H 163.435 0.625749 4.83669 0
M  V30 1779 H 162.44 2.92354 4.65628 0
M  V30 1780 H 163.665 3.54761 5.7907 0
M  V30 1781 H 161.611 1.39098 6.41083 0
M  V30 1782 H 161.528 3.04577 6.91931 0
M  V30 1783 H 162.796 2.02398 7.52765 0
M  V30 1784 N 167.025 -1.13721 1.09112 0
M  V30 1785 C 167.955 -2.21148 0.749385 0
M  V30 1786 C 168.936 -1.6792 -0.271475 0
M  V30 1787 O 170.121 -1.93693 -0.140251 0
M  V30 1788 C 167.251 -3.46905 0.165659 0
M  V30 1789 C 166.205 -4.13203 1.11567 0
M  V30 1790 C 165.531 -5.33248 0.393809 0
M  V30 1791 C 166.831 -4.60912 2.45678 0
M  V30 1792 H 168.525 -2.4999 1.64758 0
M  V30 1793 H 166.071 -1.20156 0.793626 0
M  V30 1794 H 168.024 -4.21313 -0.085466 0
M  V30 1795 H 166.748 -3.17449 -0.767714 0
M  V30 1796 H 165.407 -3.40758 1.35202 0
M  V30 1797 H 165.055 -5.00054 -0.543599 0
M  V30 1798 H 164.755 -5.78552 1.02721 0
M  V30 1799 H 166.279 -6.10413 0.150908 0
M  V30 1800 H 167.693 -5.26759 2.26269 0
M  V30 1801 H 166.09 -5.16944 3.04776 0
M  V30 1802 H 167.16 -3.75603 3.06677 0
M  V30 1803 N 168.503 -0.877838 -1.30888 0
M  V30 1804 C 169.731 -0.507414 -2.00581 0
M  V30 1805 C 170.146 0.902216 -1.65848 0
M  V30 1806 O 169.503 1.59225 -0.891831 0
M  V30 1807 C 169.554 -0.664162 -3.55347 0
M  V30 1808 O 169.275 -2.01829 -3.8884 0
M  V30 1809 C 170.776 -0.295787 -4.42312 0
M  V30 1810 H 167.996 -0.196866 -0.641471 0
M  V30 1811 H 170.54 -1.18117 -1.66939 0
M  V30 1812 H 168.695 -0.0378619 -3.87381 0
M  V30 1813 H 169.109 -2.03174 -4.8355 0
M  V30 1814 H 170.583 -0.456388 -5.5011 0
M  V30 1815 H 171.06 0.765663 -4.32475 0
M  V30 1816 H 171.666 -0.898113 -4.15709 0
M  V30 1817 N 169.982 1.44106 -0.638065 0
M  V30 1818 C 171.228 2.02277 -0.145546 0
M  V30 1819 C 171.561 1.50125 1.23191 0
M  V30 1820 O 170.836 0.688133 1.8192 0
M  V30 1821 C 171.119 3.59829 -0.139791 0
M  V30 1822 C 170.972 4.22247 -1.55008 0
M  V30 1823 C 172.291 4.36873 0.531966 0
M  V30 1824 H 169.41 0.734992 -0.0543632 0
M  V30 1825 H 172.052 1.71592 -0.815863 0
M  V30 1826 H 170.202 3.86102 0.431007 0
M  V30 1827 H 171.874 4.07057 -2.1703 0
M  V30 1828 H 170.117 3.79476 -2.10191 0
M  V30 1829 H 170.788 5.31284 -1.49804 0
M  V30 1830 H 173.264 4.16074 0.0464781 0
M  V30 1831 H 172.14 5.4657 0.505206 0
M  V30 1832 H 172.401 4.11995 1.60352 0
M  V30 1833 N 171.46 0.379036 1.52974 0
M  V30 1834 C 172.876 0.0285448 1.59574 0
M  V30 1835 C 173.076 -1.45542 1.39355 0
M  V30 1836 O 172.132 -2.2187 1.20541 0
M  V30 1837 C 173.445 0.496535 2.96572 0
M  V30 1838 C 174.993 0.451909 3.0972 0
M  V30 1839 C 175.468 0.895924 4.49152 0
M  V30 1840 N 176.959 0.851522 4.55306 0
M  V30 1841 C 177.694 1.16661 5.61407 0
M  V30 1842 N 177.19 1.55166 6.752 0
M  V30 1843 N 178.983 1.08853 5.51459 0
M  V30 1844 H 171.134 1.34525 1.64367 0
M  V30 1845 H 173.397 0.550733 0.771619 0
M  V30 1846 H 173.103 1.53258 3.16552 0
M  V30 1847 H 172.977 -0.109802 3.7704 0
M  V30 1848 H 175.364 -0.575029 2.89443 0
M  V30 1849 H 175.445 1.09392 2.3123 0
M  V30 1850 H 175.089 1.92104 4.70168 0
M  V30 1851 H 175.019 0.23103 5.26093 0
M  V30 1852 H 177.51 0.568038 3.73606 0
M  V30 1853 H 177.823 1.776 7.52116 0
M  V30 1854 H 176.168 1.59044 6.76557 0
M  V30 1855 H 179.359 0.786803 4.6144 0
M  V30 1856 H 179.532 1.33742 6.34048 0
M  V30 1857 N 172.938 -1.57226 0.108567 0
M  V30 1858 C 174.168 -1.9889 -0.559142 0
M  V30 1859 C 174.576 -0.986889 -1.61422 0
M  V30 1860 O 173.919 0.0298705 -1.83676 0
M  V30 1861 C 173.981 -3.36952 -1.25315 0
M  V30 1862 C 173.645 -4.55679 -0.347248 0
M  V30 1863 C 174.642 -5.18281 0.409996 0
M  V30 1864 C 172.327 -5.0162 -0.261367 0
M  V30 1865 C 174.321 -6.25203 1.24096 0
M  V30 1866 C 172.008 -6.08405 0.573238 0
M  V30 1867 C 173.006 -6.70063 1.32304 0
M  V30 1868 O 172.694 -7.74788 2.14381 0
M  V30 1869 H 172.426 -0.658343 -0.153492 0
M  V30 1870 H 174.98 -2.04532 0.188584 0
M  V30 1871 H 173.21 -3.28032 -2.04773 0
M  V30 1872 H 174.899 -3.62974 -1.81673 0
M  V30 1873 H 175.665 -4.8371 0.353457 0
M  V30 1874 H 171.544 -4.53381 -0.834656 0
M  V30 1875 H 175.088 -6.73259 1.82669 0
M  V30 1876 H 170.985 -6.42406 0.631208 0
M  V30 1877 H 171.753 -7.91837 2.07209 0
M  V30 1878 N 174.416 0.165178 -1.56732 0
M  V30 1879 C 175.363 1.2044 -1.96883 0
M  V30 1880 C 176.333 1.43664 -0.833657 0
M  V30 1881 O 177.518 1.56302 -1.09427 0
M  V30 1882 C 174.658 2.53727 -2.33916 0
M  V30 1883 C 173.771 2.3783 -3.6064 0
M  V30 1884 C 172.906 3.64026 -3.86857 0
M  V30 1885 C 171.945 3.43088 -5.06909 0
M  V30 1886 N 171.082 4.61369 -5.29229 0
M  V30 1887 H 175.922 0.854996 -2.85471 0
M  V30 1888 H 173.459 0.41076 -1.41249 0
M  V30 1889 H 175.417 3.31419 -2.53411 0
M  V30 1890 H 174.047 2.8665 -1.48431 0
M  V30 1891 H 173.099 1.51282 -3.49024 0
M  V30 1892 H 174.411 2.18308 -4.4849 0
M  V30 1893 H 173.565 4.50152 -4.06753 0
M  V30 1894 H 172.304 3.86533 -2.97394 0
M  V30 1895 H 171.309 2.55349 -4.86906 0
M  V30 1896 H 172.534 3.21997 -5.97909 0
M  V30 1897 H 170.48 4.84084 -4.42718 0
M  V30 1898 H 170.397 4.44783 -6.11313 0
M  V30 1899 H 171.665 5.48761 -5.53608 0
M  V30 1900 N 175.894 1.51508 0.433938 0
M  V30 1901 C 177.31 1.39759 0.770682 0
M  V30 1902 C 177.51 0.482594 1.95636 0
M  V30 1903 O 176.566 -0.0609691 2.52426 0
M  V30 1904 C 177.879 2.81851 1.04787 0
M  V30 1905 C 179.427 2.91025 1.1521 0
M  V30 1906 C 179.902 4.34032 1.46219 0
M  V30 1907 N 181.393 4.37154 1.53136 0
M  V30 1908 C 182.128 5.4484 1.78709 0
M  V30 1909 N 181.624 6.62682 2.02051 0
M  V30 1910 N 183.417 5.32324 1.80519 0
M  V30 1911 H 175.568 2.09548 -0.346892 0
M  V30 1912 H 177.831 0.943446 -0.0928074 0
M  V30 1913 H 177.537 3.50815 0.249304 0
M  V30 1914 H 177.411 3.21386 1.97461 0
M  V30 1915 H 179.798 2.22257 1.94128 0
M  V30 1916 H 179.879 2.54983 0.204281 0
M  V30 1917 H 179.523 5.03351 0.678274 0
M  V30 1918 H 179.453 4.6759 2.42212 0
M  V30 1919 H 181.944 3.52197 1.36987 0
M  V30 1920 H 182.257 7.40543 2.20943 0
M  V30 1921 H 180.602 6.65791 1.99366 0
M  V30 1922 H 183.793 4.39246 1.61805 0
M  V30 1923 H 183.966 6.16328 2.00111 0
M  V30 1924 N 177.372 -0.689602 1.41712 0
M  V30 1925 C 178.618 -1.45181 1.41599 0
M  V30 1926 C 178.951 -1.94181 0.0270081 0
M  V30 1927 O 178.226 -1.6993 -0.946265 0
M  V30 1928 C 178.509 -2.65945 2.42787 0
M  V30 1929 C 178.362 -2.22672 3.90816 0
M  V30 1930 C 179.681 -3.68149 2.41151 0
M  V30 1931 H 176.8 -0.526576 0.515642 0
M  V30 1932 H 179.442 -0.784947 1.73028 0
M  V30 1933 H 177.592 -3.2284 2.16116 0
M  V30 1934 H 179.264 -1.71058 4.28412 0
M  V30 1935 H 177.507 -1.54394 4.05395 0
M  V30 1936 H 178.178 -3.0935 4.57172 0
M  V30 1937 H 180.654 -3.2094 2.64834 0
M  V30 1938 H 179.53 -4.50248 3.13955 0
M  V30 1939 H 179.791 -4.18259 1.43221 0
M  V30 1940 N 178.85 -1.27639 -0.924453 0
M  V30 1941 C 180.078 -1.16989 -1.70649 0
M  V30 1942 C 180.493 0.272869 -1.86818 0
M  V30 1943 O 179.85 1.18549 -1.38753 0
M  V30 1944 C 179.901 -1.85229 -3.10439 0
M  V30 1945 O 179.622 -3.23868 -2.95028 0
M  V30 1946 C 181.123 -1.80746 -4.04779 0
M  V30 1947 H 178.343 -0.406595 -0.53378 0
M  V30 1948 H 180.887 -1.68569 -1.15778 0
M  V30 1949 H 179.042 -1.37545 -3.6216 0
M  V30 1950 H 179.456 -3.57889 -3.83426 0
M  V30 1951 H 180.93 -2.33101 -5.00368 0
M  V30 1952 H 181.407 -0.777499 -4.32263 0
M  V30 1953 H 182.013 -2.28059 -3.58984 0
M  V30 1954 N 180.328 1.1314 -1.09713 0
M  V30 1955 C 181.556 1.88321 -0.856898 0
M  V30 1956 C 181.971 1.79276 0.592073 0
M  V30 1957 O 181.328 1.16142 1.40774 0
M  V30 1958 C 181.379 3.37812 -1.28706 0
M  V30 1959 O 181.1 3.46627 -2.67921 0
M  V30 1960 C 182.601 4.29952 -1.07964 0
M  V30 1961 H 179.821 0.596094 -0.308079 0
M  V30 1962 H 182.365 1.43205 -1.45988 0
M  V30 1963 H 180.52 3.805 -0.727912 0
M  V30 1964 H 180.934 4.39579 -2.8613 0
M  V30 1965 H 182.408 5.33159 -1.42986 0
M  V30 1966 H 182.885 4.39196 -0.0176577 0
M  V30 1967 H 183.491 3.93036 -1.62489 0
M  V30 1968 N 181.806 0.884767 1.30421 0
M  V30 1969 C 182.756 0.322846 2.25703 0
M  V30 1970 C 183.74 -0.548582 1.51259 0
M  V30 1971 O 184.932 -0.39304 1.72581 0
M  V30 1972 C 182.061 -0.461787 3.4018 0
M  V30 1973 C 181.147 0.423717 4.21978 0
M  V30 1974 N 181.538 1.52408 4.82292 0
M  V30 1975 C 179.836 0.218795 4.45463 0
M  V30 1976 C 180.537 2.07136 5.43571 0
M  V30 1977 N 179.513 1.36635 5.26148 0
M  V30 1978 H 183.315 1.16363 2.69883 0
M  V30 1979 H 180.829 0.73415 1.44859 0
M  V30 1980 H 182.826 -0.880985 4.07485 0
M  V30 1981 H 181.486 -1.30001 2.9754 0
M  V30 1982 H 182.497 1.90693 4.81515 0
M  V30 1983 H 179.174 -0.582275 4.1342 0
M  V30 1984 H 180.564 2.99538 6.01437 0
M  V30 1985 N 183.284 -1.43765 0.645699 0
M  V30 1986 C 184.7 -1.56509 0.312591 0
M  V30 1987 C 184.9 -1.6307 -1.18365 0
M  V30 1988 O 183.956 -1.58167 -1.96824 0
M  V30 1989 C 185.269 -2.82968 1.01733 0
M  V30 1990 C 186.817 -2.96701 0.996865 0
M  V30 1991 C 187.292 -4.25982 1.68236 0
M  V30 1992 N 188.783 -4.32829 1.64964 0
M  V30 1993 C 189.518 -5.31613 2.14885 0
M  V30 1994 N 189.014 -6.36718 2.73061 0
M  V30 1995 N 190.807 -5.23217 2.05428 0
M  V30 1996 H 182.958 -1.3775 1.61675 0
M  V30 1997 H 185.221 -0.661067 0.679481 0
M  V30 1998 H 184.927 -2.84156 2.0724 0
M  V30 1999 H 184.801 -3.72957 0.564177 0
M  V30 2000 H 187.188 -2.95058 -0.0497719 0
M  V30 2001 H 187.269 -2.08022 1.48865 0
M  V30 2002 H 186.913 -4.28386 2.72852 0
M  V30 2003 H 186.843 -5.13545 1.16529 0
M  V30 2004 H 189.334 -3.57493 1.22503 0
M  V30 2005 H 189.647 -7.08401 3.08848 0
M  V30 2006 H 187.992 -6.37362 2.77118 0
M  V30 2007 H 191.183 -4.40019 1.59689 0
M  V30 2008 H 191.356 -6.00045 2.44643 0
M  V30 2009 N 184.763 -0.387143 -1.52771 0
M  V30 2010 C 186.179 -0.037007 -1.59557 0
M  V30 2011 C 186.379 1.44801 -1.40124 0
M  V30 2012 O 185.435 2.21227 -1.21716 0
M  V30 2013 C 186.748 -0.512256 -2.96305 0
M  V30 2014 C 188.296 -0.468328 -3.09476 0
M  V30 2015 C 188.771 -0.919731 -4.4867 0
M  V30 2016 N 190.262 -0.875656 -4.54848 0
M  V30 2017 C 190.997 -1.19637 -5.6078 0
M  V30 2018 N 190.493 -1.58745 -6.74368 0
M  V30 2019 N 192.286 -1.11776 -5.50874 0
M  V30 2020 H 184.437 -1.35395 -1.63652 0
M  V30 2021 H 186.7 -0.554818 -0.768688 0
M  V30 2022 H 186.406 -1.54935 -3.15734 0
M  V30 2023 H 186.28 0.089805 -3.77093 0
M  V30 2024 H 188.667 0.559671 -2.89744 0
M  V30 2025 H 188.748 -1.10616 -2.30646 0
M  V30 2026 H 188.392 -1.94595 -4.69143 0
M  V30 2027 H 188.322 -0.258927 -5.25963 0
M  V30 2028 H 190.813 -0.587843 -3.733 0
M  V30 2029 H 191.126 -1.81586 -7.51163 0
M  V30 2030 H 189.471 -1.6263 -6.75705 0
M  V30 2031 H 192.662 -0.811264 -4.61016 0
M  V30 2032 H 192.835 -1.37103 -6.3333 0
M  V30 2033 N 186.241 1.57166 -0.116904 0
M  V30 2034 C 187.49 1.94298 0.541407 0
M  V30 2035 C 187.803 1.00236 1.67964 0
M  V30 2036 O 189.009 1.26826 2.40057 0
M  V30 2037 C 187.465 3.45306 1.01449 0
M  V30 2038 C 187.073 4.47899 -0.0951738 0
M  V30 2039 C 188.817 3.91361 1.6443 0
M  V30 2040 C 186.724 5.90083 0.394491 0
M  V30 2041 H 185.654 0.725308 0.206019 0
M  V30 2042 H 188.305 1.82446 -0.196419 0
M  V30 2043 H 186.687 3.52385 1.80667 0
M  V30 2044 H 187.861 4.52486 -0.871374 0
M  V30 2045 H 186.176 4.11583 -0.631505 0
M  V30 2046 H 188.773 4.95004 2.02176 0
M  V30 2047 H 189.116 3.3122 2.52189 0
M  V30 2048 H 189.649 3.87073 0.917559 0
M  V30 2049 H 186.388 6.53974 -0.447004 0
M  V30 2050 H 185.908 5.88921 1.13722 0
M  V30 2051 H 187.587 6.41307 0.856399 0
M  V30 2052 N 187.719 -0.156864 1.56817 0
M  V30 2053 C 188.965 -0.867645 1.83966 0
M  V30 2054 C 189.32 -1.79233 0.699511 0
M  V30 2055 O 188.613 -1.89186 -0.303176 0
M  V30 2056 C 188.807 -1.68737 3.1506 0
M  V30 2057 C 188.636 -0.843548 4.41718 0
M  V30 2058 C 187.406 -0.512994 5.02689 0
M  V30 2059 C 189.604 -0.178416 5.1399 0
M  V30 2060 N 187.586 0.345456 6.12927 0
M  V30 2061 C 188.957 0.540586 6.17639 0
M  V30 2062 C 191.012 -0.0980696 4.97803 0
M  V30 2063 C 189.715 1.33233 7.06853 0
M  V30 2064 C 191.741 0.680387 5.87473 0
M  V30 2065 C 191.103 1.3877 6.90596 0
M  V30 2066 H 187.202 -0.295642 0.723961 0
M  V30 2067 H 189.786 -0.13365 1.94241 0
M  V30 2068 H 187.957 -2.39268 3.0595 0
M  V30 2069 H 189.689 -2.34056 3.30151 0
M  V30 2070 H 186.444 -0.846476 4.65974 0
M  V30 2071 H 186.868 0.765415 6.72659 0
M  V30 2072 H 191.51 -0.630562 4.18071 0
M  V30 2073 H 189.228 1.87612 7.8602 0
M  V30 2074 H 192.814 0.744415 5.77018 0
M  V30 2075 H 191.694 1.9804 7.58782 0
M  V30 2076 N 189.197 -1.51736 -0.425897 0
M  V30 2077 C 190.127 -1.76827 -1.52494 0
M  V30 2078 C 191.108 -0.618524 -1.58456 0
M  V30 2079 O 192.293 -0.862416 -1.74 0
M  V30 2080 C 189.423 -1.90374 -2.90474 0
M  V30 2081 C 188.377 -3.0588 -2.99369 0
M  V30 2082 C 187.703 -3.04625 -4.3944 0
M  V30 2083 C 189.003 -4.45644 -2.72394 0
M  V30 2084 H 190.697 -2.68855 -1.31748 0
M  V30 2085 H 188.243 -1.29372 -0.632362 0
M  V30 2086 H 190.196 -2.0651 -3.6733 0
M  V30 2087 H 188.92 -0.95004 -3.12477 0
M  V30 2088 H 187.579 -2.89467 -2.24954 0
M  V30 2089 H 187.227 -2.0701 -4.58428 0
M  V30 2090 H 186.927 -3.82195 -4.46319 0
M  V30 2091 H 188.451 -3.22869 -5.18255 0
M  V30 2092 H 189.865 -4.62348 -3.38979 0
M  V30 2093 H 188.262 -5.25006 -2.9067 0
M  V30 2094 H 189.332 -4.54893 -1.67929 0
M  V30 2095 N 190.675 0.682077 -1.42076 0
M  V30 2096 C 191.638 1.77756 -1.44691 0
M  V30 2097 C 192.638 1.5726 -0.335535 0
M  V30 2098 O 193.828 1.63686 -0.596037 0
M  V30 2099 C 190.96 3.16301 -1.27146 0
M  V30 2100 H 192.153 1.76826 -2.42224 0
M  V30 2101 H 189.706 0.891012 -1.28416 0
M  V30 2102 H 190.441 3.22862 -0.305075 0
M  V30 2103 H 190.226 3.32581 -2.07683 0
M  V30 2104 H 191.716 3.96241 -1.31843 0
M  V30 2105 N 192.153 1.28127 0.917671 0
M  V30 2106 C 193.083 1.14248 2.03641 0
M  V30 2107 C 194.064 0.0412748 1.7005 0
M  V30 2108 O 195.249 0.217566 1.92977 0
M  V30 2109 C 192.379 0.799431 3.37974 0
M  V30 2110 C 191.333 1.85497 3.85713 0
M  V30 2111 C 190.659 1.36565 5.16966 0
M  V30 2112 C 191.959 3.26085 4.08002 0
M  V30 2113 H 193.653 2.07835 2.15511 0
M  V30 2114 H 191.199 1.00064 1.03553 0
M  V30 2115 H 193.152 0.689114 4.15727 0
M  V30 2116 H 191.876 -0.172145 3.26146 0
M  V30 2117 H 190.535 1.95437 3.10161 0
M  V30 2118 H 190.183 0.383253 5.01538 0
M  V30 2119 H 189.883 2.07143 5.49878 0
M  V30 2120 H 191.407 1.26848 5.97279 0
M  V30 2121 H 192.821 3.19089 4.76293 0
M  V30 2122 H 191.218 3.94462 4.52238 0
M  V30 2123 H 192.288 3.70394 3.12948 0
M  V30 2124 N 193.631 -1.12557 1.10312 0
M  V30 2125 C 194.879 -1.83675 0.843091 0
M  V30 2126 C 195.2 -1.84435 -0.633131 0
M  V30 2127 O 194.47 -1.30657 -1.45964 0
M  V30 2128 H 193.05 -0.680138 0.308904 0
M  V30 2129 H 195.712 -1.36301 1.39313 0
M  V30 2130 H 194.808 -2.87908 1.2048 0
M  V30 2131 N 195.109 -0.891671 -1.2995 0
M  V30 2132 C 196.039 -0.379797 -2.30391 0
M  V30 2133 C 197.02 0.540919 -1.6127 0
M  V30 2134 O 198.205 0.453352 -1.88834 0
M  V30 2135 C 195.335 0.400654 -3.44981 0
M  V30 2136 C 194.289 -0.428905 -4.25846 0
M  V30 2137 C 193.615 0.478557 -5.32554 0
M  V30 2138 C 194.915 -1.67458 -4.94727 0
M  V30 2139 H 196.609 -1.21914 -2.73454 0
M  V30 2140 H 194.155 -0.587675 -1.31462 0
M  V30 2141 H 196.108 0.769434 -4.14316 0
M  V30 2142 H 194.832 1.27371 -3.0074 0
M  V30 2143 H 193.491 -0.779911 -3.58208 0
M  V30 2144 H 193.139 1.34951 -4.84559 0
M  V30 2145 H 192.839 -0.0727433 -5.87555 0
M  V30 2146 H 194.363 0.843705 -6.04743 0
M  V30 2147 H 195.777 -1.376 -5.56542 0
M  V30 2148 H 194.174 -2.16659 -5.59624 0
M  V30 2149 H 195.244 -2.41518 -4.20473 0
M  V30 2150 N 196.587 1.43421 -0.653314 0
M  V30 2151 C 197.827 2.03689 -0.170346 0
M  V30 2152 C 198.191 1.50427 1.19314 0
M  V30 2153 O 199.392 2.0234 1.76952 0
M  V30 2154 C 197.663 3.56946 -0.180183 0
M  V30 2155 S 199.222 4.38171 0.234925 0
M  V30 2156 H 196.04 0.707345 -0.0719976 0
M  V30 2157 H 198.642 1.75486 -0.86167 0
M  V30 2158 H 197.346 3.93212 -1.17526 0
M  V30 2159 H 196.877 3.89791 0.531675 0
M  V30 2160 H 198.892 4.73808 1.47378 0
M  V30 2161 N 198.065 0.39524 1.52563 0
M  V30 2162 C 199.311 -0.177763 2.02622 0
M  V30 2163 C 199.666 -1.43974 1.27629 0
M  V30 2164 O 198.959 -1.87995 0.36992 0
M  V30 2165 C 199.153 -0.493444 3.53977 0
M  V30 2166 C 198.982 0.736392 4.4363 0
M  V30 2167 C 197.752 1.25744 4.89404 0
M  V30 2168 C 199.95 1.61046 4.88435 0
M  V30 2169 N 197.932 2.44421 5.63145 0
M  V30 2170 C 199.303 2.64359 5.60816 0
M  V30 2171 C 201.358 1.62985 4.70468 0
M  V30 2172 C 200.061 3.69505 6.17137 0
M  V30 2173 C 202.087 2.67042 5.27677 0
M  V30 2174 C 201.449 3.69077 5.99968 0
M  V30 2175 H 197.548 -0.0269794 0.781534 0
M  V30 2176 H 200.132 0.546466 1.86874 0
M  V30 2177 H 198.303 -1.18672 3.69826 0
M  V30 2178 H 200.035 -1.05412 3.90731 0
M  V30 2179 H 196.79 0.817546 4.6649 0
M  V30 2180 H 197.214 3.04485 6.04663 0
M  V30 2181 H 201.856 0.854442 4.14076 0
M  V30 2182 H 199.574 4.4791 6.72608 0
M  V30 2183 H 203.16 2.69433 5.15652 0
M  V30 2184 H 202.04 4.48273 6.43444 0
M  V30 2185 N 199.544 -1.57102 0.125237 0
M  V30 2186 C 200.474 -2.18659 -0.819174 0
M  V30 2187 C 201.455 -1.12843 -1.27281 0
M  V30 2188 O 202.64 -1.41104 -1.33429 0
M  V30 2189 C 199.77 -2.79096 -2.06695 0
M  V30 2190 C 198.724 -3.90548 -1.75088 0
M  V30 2191 C 198.05 -4.37821 -3.06948 0
M  V30 2192 C 199.35 -5.12356 -1.01435 0
M  V30 2193 H 201.044 -2.9783 -0.306202 0
M  V30 2194 H 198.59 -1.4326 -0.145839 0
M  V30 2195 H 200.543 -3.2082 -2.73226 0
M  V30 2196 H 199.267 -1.97223 -2.60328 0
M  V30 2197 H 197.926 -3.49409 -1.10944 0
M  V30 2198 H 197.574 -3.52799 -3.58527 0
M  V30 2199 H 197.274 -5.12982 -2.86571 0
M  V30 2200 H 198.798 -4.822 -3.74587 0
M  V30 2201 H 200.212 -5.5106 -1.58132 0
M  V30 2202 H 198.609 -5.9314 -0.911319 0
M  V30 2203 H 199.679 -4.849 -0.00218681 0
M  V30 2204 N 201.022 0.148545 -1.56898 0
M  V30 2205 C 202.268 0.862694 -1.83536 0
M  V30 2206 C 202.601 1.80889 -0.706604 0
M  V30 2207 O 201.876 1.92328 0.289885 0
M  V30 2208 C 202.159 1.63853 -3.20662 0
M  V30 2209 C 202.012 0.713925 -4.44098 0
M  V30 2210 C 203.331 2.60133 -3.54991 0
M  V30 2211 H 200.45 0.312179 -0.667618 0
M  V30 2212 H 203.092 0.127953 -1.89569 0
M  V30 2213 H 201.242 2.26489 -3.1565 0
M  V30 2214 H 202.914 0.098686 -4.61194 0
M  V30 2215 H 201.157 0.0234019 -4.33794 0
M  V30 2216 H 201.828 1.29278 -5.36648 0
M  V30 2217 H 204.304 2.07616 -3.60603 0
M  V30 2218 H 203.18 3.11468 -4.51972 0
M  V30 2219 H 203.441 3.41417 -2.80868 0
M  V30 2220 N 202.5 1.5196 0.417844 0
M  V30 2221 C 203.725 1.69717 1.1921 0
M  V30 2222 C 204.15 0.402148 1.83751 0
M  V30 2223 O 203.508 -0.639593 1.69643 0
M  V30 2224 C 203.556 2.82794 2.2374 0
M  V30 2225 O 202.66 2.47756 3.29683 0
M  V30 2226 H 202.001 0.565263 0.348387 0
M  V30 2227 H 204.531 1.98621 0.490985 0
M  V30 2228 H 204.541 3.07452 2.68212 0
M  V30 2229 H 203.216 3.76756 1.76146 0
M  V30 2230 H 201.793 2.33739 2.90552 0
M  V30 2231 N 203.978 -0.674533 1.42435 0
M  V30 2232 C 205.225 -1.43459 1.42919 0
M  V30 2233 C 205.553 -1.94446 0.0457312 0
M  V30 2234 O 204.808 -1.7132 -0.94593 0
M  V30 2235 C 205.107 -2.64767 2.40069 0
M  V30 2236 C 204.773 -2.3232 3.86443 0
M  V30 2237 C 203.435 -2.23182 4.26314 0
M  V30 2238 C 205.787 -2.05977 4.78773 0
M  V30 2239 C 203.115 -1.85827 5.56494 0
M  V30 2240 C 205.467 -1.70125 6.09295 0
M  V30 2241 C 204.131 -1.59498 6.48164 0
M  V30 2242 H 203.401 -0.524952 0.522978 0
M  V30 2243 H 206.048 -0.769097 1.75377 0
M  V30 2244 H 204.353 -3.36349 2.00939 0
M  V30 2245 H 206.05 -3.22949 2.37707 0
M  V30 2246 H 202.64 -2.40334 3.54877 0
M  V30 2247 H 206.824 -2.11969 4.48757 0
M  V30 2248 H 202.08 -1.76168 5.8547 0
M  V30 2249 H 206.254 -1.48767 6.80324 0
M  V30 2250 H 203.881 -1.30322 7.48946 0
M  V30 2251 N 205.456 -1.28612 -0.910864 0
M  V30 2252 C 206.386 -1.15326 -2.03032 0
M  V30 2253 C 207.367 -0.0502924 -1.70026 0
M  V30 2254 O 208.552 -0.227797 -1.92859 0
M  V30 2255 C 205.682 -0.817343 -3.37545 0
M  V30 2256 C 204.636 -1.8754 -3.84724 0
M  V30 2257 C 203.962 -1.39305 -5.16235 0
M  V30 2258 C 205.262 -3.28244 -4.06267 0
M  V30 2259 H 206.956 -2.08975 -2.14406 0
M  V30 2260 H 204.502 -1.00612 -1.03021 0
M  V30 2261 H 206.455 -0.711151 -4.15356 0
M  V30 2262 H 205.179 0.154846 -3.26233 0
M  V30 2263 H 203.838 -1.97079 -3.09121 0
M  V30 2264 H 203.486 -0.409846 -5.01328 0
M  V30 2265 H 203.186 -2.10057 -5.48771 0
M  V30 2266 H 204.71 -1.30014 -5.96598 0
M  V30 2267 H 206.124 -3.21611 -4.74594 0
M  V30 2268 H 204.521 -3.96855 -4.5014 0
M  V30 2269 H 205.591 -3.72048 -3.10979 0
M  V30 2270 N 206.934 1.1197 -1.10907 0
M  V30 2271 C 208.18 1.8386 -0.855773 0
M  V30 2272 C 208.513 1.84134 0.617103 0
M  V30 2273 O 207.788 1.29041 1.45529 0
M  V30 2274 C 208.071 3.31305 -1.411 0
M  V30 2275 C 207.924 3.39456 -2.9511 0
M  V30 2276 C 209.243 4.2721 -1.05736 0
M  V30 2277 H 206.362 0.667545 -0.312334 0
M  V30 2278 H 209.004 1.31331 -1.37303 0
M  V30 2279 H 207.154 3.76169 -0.97105 0
M  V30 2280 H 208.826 3.03191 -3.47668 0
M  V30 2281 H 207.069 2.79849 -3.31462 0
M  V30 2282 H 207.74 4.43209 -3.29044 0
M  V30 2283 H 210.216 3.90497 -1.43706 0
M  V30 2284 H 209.092 5.28775 -1.47269 0
M  V30 2285 H 209.353 4.42088 0.0325958 0
M  V30 2286 N 208.412 0.89855 1.29475 0
M  V30 2287 C 209.66 0.522847 1.9522 0
M  V30 2288 C 209.981 -0.93371 1.71192 0
M  V30 2289 O 209.251 -1.65823 1.04305 0
M  V30 2290 H 207.831 0.190366 0.722336 0
M  V30 2291 H 210.493 1.14459 1.5775 0
M  V30 2292 H 209.589 0.704476 3.04045 0
M  V30 2293 N 209.89 -1.43072 0.660911 0
M  V30 2294 C 210.82 -2.33497 -0.0122829 0
M  V30 2295 C 211.801 -1.49903 -0.803925 0
M  V30 2296 O 212.986 -1.78546 -0.763864 0
M  V30 2297 C 210.116 -3.33363 -0.973994 0
M  V30 2298 C 209.07 -4.27003 -0.291928 0
M  V30 2299 C 208.396 -5.16967 -1.36562 0
M  V30 2300 C 209.696 -5.15816 0.820462 0
M  V30 2301 H 211.39 -2.90038 0.742873 0
M  V30 2302 H 208.936 -1.39461 0.358688 0
M  V30 2303 H 210.889 -3.95524 -1.45392 0
M  V30 2304 H 209.613 -2.75095 -1.7604 0
M  V30 2305 H 208.272 -3.66217 0.167623 0
M  V30 2306 H 207.92 -4.55034 -2.14366 0
M  V30 2307 H 207.62 -5.80441 -0.914454 0
M  V30 2308 H 209.144 -5.82003 -1.84675 0
M  V30 2309 H 210.558 -5.71742 0.422366 0
M  V30 2310 H 208.955 -5.8805 1.19656 0
M  V30 2311 H 210.025 -4.55045 1.67518 0
M  V30 2312 N 211.368 -0.403325 -1.52352 0
M  V30 2313 C 212.596 0.174012 -2.06167 0
M  V30 2314 C 213.011 1.39347 -1.27388 0
M  V30 2315 O 212.368 1.79597 -0.324201 0
M  V30 2316 C 212.419 0.530223 -3.5759 0
M  V30 2317 O 212.14 -0.640806 -4.33388 0
M  V30 2318 C 213.641 1.16192 -4.27802 0
M  V30 2319 H 210.861 0.0229464 -0.670608 0
M  V30 2320 H 213.405 -0.572604 -1.9632 0
M  V30 2321 H 211.56 1.22673 -3.67464 0
M  V30 2322 H 211.974 -0.344851 -5.23365 0
M  V30 2323 H 213.448 1.36141 -5.34948 0
M  V30 2324 H 213.925 2.13335 -3.83907 0
M  V30 2325 H 214.531 0.505775 -4.22282 0
M  V30 2326 N 212.846 1.57033 -0.133567 0
M  V30 2327 C 214.257 1.82593 0.389464 0
M  V30 2328 C 214.608 1.05156 1.6564 0
M  V30 2329 O 213.733 0.292644 2.14412 0
M  V30 2330 C 214.328 3.31204 0.713377 0
M  V30 2331 C 212.887 3.57393 1.18098 0
M  V30 2332 C 212.034 2.76598 0.197126 0
M  V30 2333 H 214.985 1.54598 -0.358481 0
M  V30 2334 H 215.006 3.46627 1.56939 0
M  V30 2335 H 214.518 3.87537 -0.2089 0
M  V30 2336 H 212.619 3.06433 2.11966 0
M  V30 2337 H 212.732 4.65915 1.11624 0
M  V30 2338 H 211.096 2.45257 0.687088 0
M  V30 2339 H 211.879 3.35697 -0.718504 0
M  V30 2340 N 214.325 -0.140222 1.56975 0
M  V30 2341 C 215.258 -1.20266 1.93936 0
M  V30 2342 C 216.236 -1.41212 0.806099 0
M  V30 2343 O 217.42 -1.55713 1.06234 0
M  V30 2344 C 214.547 -2.56037 2.21726 0
M  V30 2345 C 213.593 -2.51646 3.44349 0
M  V30 2346 S 214.426 -1.97678 4.97678 0
M  V30 2347 C 215.582 -3.35165 5.28597 0
M  V30 2348 H 215.815 -0.887358 2.83749 0
M  V30 2349 H 213.348 -0.346119 1.50471 0
M  V30 2350 H 215.306 -3.34167 2.38416 0
M  V30 2351 H 213.967 -2.84755 1.32566 0
M  V30 2352 H 213.16 -3.51608 3.61092 0
M  V30 2353 H 212.762 -1.81628 3.26936 0
M  V30 2354 H 215.054 -4.31302 5.2248 0
M  V30 2355 H 215.997 -3.23269 6.30002 0
M  V30 2356 H 216.405 -3.32614 4.56101 0
M  V30 2357 N 215.803 -1.52179 -0.40978 0
M  V30 2358 C 217.05 -1.66206 -1.15679 0
M  V30 2359 C 217.378 -0.391674 -1.90516 0
M  V30 2360 O 216.633 0.62533 -1.8544 0
M  V30 2361 C 216.932 -2.83428 -2.17723 0
M  V30 2362 C 216.598 -4.21672 -1.59699 0
M  V30 2363 C 215.26 -4.59274 -1.43599 0
M  V30 2364 C 217.612 -5.07825 -1.17317 0
M  V30 2365 C 214.94 -5.80709 -0.836328 0
M  V30 2366 C 217.292 -6.29864 -0.587691 0
M  V30 2367 C 215.956 -6.66216 -0.413818 0
M  V30 2368 H 215.226 -0.608192 -0.423301 0
M  V30 2369 H 217.873 -1.86279 -0.444097 0
M  V30 2370 H 216.178 -2.57687 -2.95135 0
M  V30 2371 H 217.875 -2.91477 -2.75394 0
M  V30 2372 H 214.465 -3.9204 -1.73213 0
M  V30 2373 H 218.649 -4.79359 -1.28565 0
M  V30 2374 H 213.905 -6.07498 -0.689626 0
M  V30 2375 H 218.079 -6.95948 -0.250894 0
M  V30 2376 H 215.706 -7.60182 0.0529471 0
M  V30 2377 N 217.281 0.66697 -1.42791 0
M  V30 2378 C 218.529 1.42417 -1.43394 0
M  V30 2379 C 218.85 1.94925 -0.0542373 0
M  V30 2380 O 218.12 1.73564 0.908415 0
M  V30 2381 H 216.7 0.528515 -0.527902 0
M  V30 2382 H 219.362 0.787562 -1.78279 0
M  V30 2383 H 218.458 2.27333 -2.13837 0
M  V30 2384 N 218.759 1.29093 0.90403 0
M  V30 2385 C 220.005 1.17996 1.65676 0
M  V30 2386 C 220.36 -0.266816 1.90541 0
M  V30 2387 O 219.653 -1.19 1.50165 0
M  V30 2388 C 219.847 1.92224 3.01305 0
M  V30 2389 C 219.676 3.43972 2.89678 0
M  V30 2390 C 218.446 4.1332 2.90679 0
M  V30 2391 C 220.644 4.39546 2.67028 0
M  V30 2392 N 218.626 5.51463 2.69743 0
M  V30 2393 C 219.997 5.65119 2.5503 0
M  V30 2394 C 222.052 4.29359 2.52101 0
M  V30 2395 C 220.755 6.81663 2.29626 0
M  V30 2396 C 222.781 5.4565 2.28079 0
M  V30 2397 C 222.143 6.70193 2.16843 0
M  V30 2398 H 218.242 0.486759 0.612037 0
M  V30 2399 H 220.826 1.62868 1.06688 0
M  V30 2400 H 218.997 1.49773 3.58361 0
M  V30 2401 H 220.729 1.73429 3.65656 0
M  V30 2402 H 217.484 3.64984 3.01801 0
M  V30 2403 H 217.908 6.24105 2.6234 0
M  V30 2404 H 222.55 3.33769 2.59534 0
M  V30 2405 H 220.268 7.77313 2.20932 0
M  V30 2406 H 223.854 5.39664 2.1738 0
M  V30 2407 H 222.734 7.58659 1.98511 0
M  V30 2408 N 220.237 -1.11381 1.11499 0
M  V30 2409 C 221.185 -2.19522 0.768956 0
M  V30 2410 C 222.179 -1.67693 -0.239857 0
M  V30 2411 O 223.385 -1.79727 -0.0990755 0
M  V30 2412 H 219.76 -0.715711 0.230786 0
M  V30 2413 H 221.731 -2.45954 1.68964 0
M  V30 2414 C 220.48 -3.46945 0.229073 0
M  V30 2415 H 219.803 -3.8718 0.996596 0
M  V30 2416 H 221.243 -4.23993 0.0251441 0
M  V30 2417 C 219.702 -3.2042 -1.04079 0
M  V30 2418 O 220.232 -3.41178 -2.12038 0
M  V30 2419 N 218.438 -2.74151 -0.963823 0
M  V30 2420 H 217.985 -2.57459 -0.0851722 0
M  V30 2421 H 217.943 -2.56781 -1.81414 0
M  V30 2422 N 221.715 -0.905404 -1.28997 0
M  V30 2423 C 222.648 -0.331959 -2.25773 0
M  V30 2424 C 223.626 0.559099 -1.52685 0
M  V30 2425 O 224.81 0.50463 -1.8162 0
M  V30 2426 C 221.937 0.526276 -3.34586 0
M  V30 2427 C 220.983 -0.298249 -4.25456 0
M  V30 2428 S 221.816 -1.69968 -5.0781 0
M  V30 2429 C 222.972 -0.848519 -6.20122 0
M  V30 2430 H 223.205 -1.15222 -2.74064 0
M  V30 2431 H 220.738 -0.706112 -1.37308 0
M  V30 2432 H 222.696 1.01565 -3.97737 0
M  V30 2433 H 221.357 1.32084 -2.84978 0
M  V30 2434 H 220.55 0.357607 -5.0273 0
M  V30 2435 H 220.152 -0.720968 -3.66985 0
M  V30 2436 H 222.444 -0.0744325 -6.77459 0
M  V30 2437 H 223.387 -1.59353 -6.89937 0
M  V30 2438 H 223.795 -0.400383 -5.63078 0
M  V30 2439 N 223.193 1.4272 -0.668489 0
M  V30 2440 C 224.14 2.30796 0.0137489 0
M  V30 2441 C 225.11 1.4561 0.799177 0
M  V30 2442 O 226.295 1.74453 0.772702 0
M  V30 2443 C 223.435 3.31377 0.963507 0
M  V30 2444 C 222.548 4.31655 0.172569 0
M  V30 2445 C 221.683 5.19312 1.1175 0
M  V30 2446 C 220.722 6.11274 0.317886 0
M  V30 2447 N 219.859 6.91504 1.2152 0
M  V30 2448 H 224.699 2.88585 -0.743161 0
M  V30 2449 H 222.236 1.42154 -0.378226 0
M  V30 2450 H 224.194 3.88214 1.52792 0
M  V30 2451 H 222.824 2.75202 1.68712 0
M  V30 2452 H 221.876 3.76988 -0.508374 0
M  V30 2453 H 223.188 4.96779 -0.448527 0
M  V30 2454 H 222.342 5.80851 1.75206 0
M  V30 2455 H 221.081 4.5435 1.77249 0
M  V30 2456 H 220.086 5.48809 -0.329918 0
M  V30 2457 H 221.311 6.78283 -0.332917 0
M  V30 2458 H 219.257 6.29176 1.85671 0
M  V30 2459 H 219.174 7.53209 0.649036 0
M  V30 2460 H 220.442 7.57535 1.83742 0
M  V30 2461 N 224.671 0.411399 1.52136 0
M  V30 2462 C 225.601 -0.404015 2.29978 0
M  V30 2463 C 226.582 -1.04412 1.34284 0
M  V30 2464 O 227.767 -1.0527 1.63192 0
M  V30 2465 C 224.897 -1.5197 3.12286 0
M  V30 2466 C 223.851 -1.00448 4.16046 0
M  V30 2467 C 223.177 -2.21393 4.86712 0
M  V30 2468 C 224.477 -0.0569336 5.22269 0
M  V30 2469 H 226.171 0.245529 2.98392 0
M  V30 2470 H 223.717 0.119525 1.43503 0
M  V30 2471 H 225.67 -2.09715 3.6551 0
M  V30 2472 H 224.394 -2.19716 2.41646 0
M  V30 2473 H 223.053 -0.449421 3.63835 0
M  V30 2474 H 222.701 -2.87699 4.12599 0
M  V30 2475 H 222.401 -1.87571 5.56858 0
M  V30 2476 H 223.925 -2.7974 5.4275 0
M  V30 2477 H 225.339 -0.54325 5.7072 0
M  V30 2478 H 223.736 0.192594 5.99791 0
M  V30 2479 H 224.806 0.887663 4.76706 0
M  V30 2480 N 226.149 -1.5696 0.141893 0
M  V30 2481 C 227.377 -2.00322 -0.517579 0
M  V30 2482 C 227.792 -1.02193 -1.58752 0
M  V30 2483 O 227.149 -0.0181619 -1.82491 0
M  V30 2484 C 227.2 -3.43618 -1.12289 0
M  V30 2485 O 226.921 -4.37995 -0.0956929 0
M  V30 2486 C 228.422 -4.02231 -1.86347 0
M  V30 2487 H 225.642 -0.657243 -0.135177 0
M  V30 2488 H 228.186 -2.03146 0.234973 0
M  V30 2489 H 226.341 -3.41662 -1.82609 0
M  V30 2490 H 226.755 -5.21729 -0.538469 0
M  V30 2491 H 228.229 -5.04509 -2.23997 0
M  V30 2492 H 228.706 -3.42655 -2.74744 0
M  V30 2493 H 229.312 -4.07802 -1.20737 0
M  V30 2494 N 227.627 0.131896 -1.57047 0
M  V30 2495 C 228.852 0.860418 -1.8871 0
M  V30 2496 C 229.277 1.73251 -0.73251 0
M  V30 2497 O 228.635 1.785 0.317429 0
M  V30 2498 C 228.683 1.68047 -3.19049 0
M  V30 2499 O 227.787 2.7862 -3.04047 0
M  V30 2500 H 227.128 0.238743 -0.619595 0
M  V30 2501 H 229.658 0.118169 -2.04258 0
M  V30 2502 H 229.668 2.07238 -3.51449 0
M  V30 2503 H 228.343 1.04018 -4.02682 0
M  V30 2504 H 226.92 2.42726 -2.83088 0
M  V30 2505 N 229.106 1.52395 0.401703 0
M  V30 2506 C 230.016 1.7917 1.51444 0
M  V30 2507 C 231.032 0.677691 1.6026 0
M  V30 2508 O 232.208 0.963909 1.76835 0
M  V30 2509 C 229.273 1.94347 2.87107 0
M  V30 2510 C 228.334 3.18257 2.88116 0
M  V30 2511 C 227.567 3.32701 4.17308 0
M  V30 2512 O 227.79 2.52238 5.11598 0
M  V30 2513 O 226.724 4.25891 4.25324 0
M  V30 2514 H 230.55 2.73633 1.31752 0
M  V30 2515 H 228.135 1.3733 0.588296 0
M  V30 2516 H 230.017 2.06109 3.67555 0
M  V30 2517 H 228.692 1.03073 3.06851 0
M  V30 2518 H 227.599 3.11947 2.06494 0
M  V30 2519 H 228.932 4.09336 2.73322 0
M  V30 2520 N 230.584 -0.659388 1.43143 0
M  V30 2521 C 231.814 -1.44513 1.47646 0
M  V30 2522 C 232.222 -1.88981 0.0910095 0
M  V30 2523 O 231.565 -1.59702 -0.907789 0
M  V30 2524 C 231.627 -2.71663 2.35456 0
M  V30 2525 C 231.291 -2.49175 3.83094 0
M  V30 2526 C 232.288 -2.1279 4.74359 0
M  V30 2527 C 229.973 -2.63691 4.27519 0
M  V30 2528 C 231.967 -1.9121 6.08044 0
M  V30 2529 C 229.654 -2.41726 5.61259 0
M  V30 2530 C 230.652 -2.0554 6.51339 0
M  V30 2531 O 230.34 -1.838 7.82606 0
M  V30 2532 H 230.072 -0.45064 0.503884 0
M  V30 2533 H 232.626 -0.816248 1.88485 0
M  V30 2534 H 230.856 -3.37089 1.89493 0
M  V30 2535 H 232.545 -3.33595 2.31235 0
M  V30 2536 H 233.311 -2.01157 4.41317 0
M  V30 2537 H 229.19 -2.90832 3.57684 0
M  V30 2538 H 232.734 -1.62889 6.78316 0
M  V30 2539 H 228.631 -2.52959 5.9387 0
M  V30 2540 H 229.399 -1.98275 7.94122 0
M  V30 2541 N 232.062 -1.29571 -0.897171 0
M  V30 2542 C 233.012 -1.11539 -1.98855 0
M  V30 2543 C 233.996 -0.0340716 -1.60864 0
M  V30 2544 O 235.188 -0.256062 -1.75138 0
M  V30 2545 C 232.317 -0.796603 -3.3393 0
M  V30 2546 C 231.403 -1.91758 -3.78272 0
M  V30 2547 N 231.794 -3.16143 -3.94826 0
M  V30 2548 C 230.092 -1.81119 -4.07568 0
M  V30 2549 C 230.793 -3.89293 -4.32233 0
M  V30 2550 N 229.769 -3.17255 -4.41419 0
M  V30 2551 H 233.571 -2.05894 -2.09726 0
M  V30 2552 H 231.085 -1.20732 -1.08616 0
M  V30 2553 H 233.082 -0.648459 -4.11826 0
M  V30 2554 H 231.742 0.139003 -3.24402 0
M  V30 2555 H 232.753 -3.5157 -3.80288 0
M  V30 2556 H 229.43 -0.948461 -4.06584 0
M  V30 2557 H 230.82 -4.9635 -4.52865 0
M  V30 2558 N 233.54 1.10788 -1.12088 0
M  V30 2559 C 234.956 1.34691 -0.856186 0
M  V30 2560 C 235.156 1.94791 0.515615 0
M  V30 2561 O 234.212 2.18524 1.26505 0
M  V30 2562 C 235.525 2.27208 -1.9697 0
M  V30 2563 C 237.073 2.40755 -2.00016 0
M  V30 2564 C 237.548 3.36598 -3.1059 0
M  V30 2565 N 239.039 3.44164 -3.10008 0
M  V30 2566 C 239.774 4.18284 -3.92206 0
M  V30 2567 N 239.27 4.95322 -4.84384 0
M  V30 2568 N 241.063 4.13865 -3.80357 0
M  V30 2569 H 233.214 0.70144 -2.00483 0
M  V30 2570 H 235.477 0.371405 -0.872217 0
M  V30 2571 H 235.183 1.90251 -2.958 0
M  V30 2572 H 235.057 3.27485 -1.87172 0
M  V30 2573 H 237.444 2.76982 -1.01808 0
M  V30 2574 H 237.525 1.40305 -2.13888 0
M  V30 2575 H 237.169 3.01096 -4.09028 0
M  V30 2576 H 237.099 4.36918 -2.93956 0
M  V30 2577 H 239.59 2.8922 -2.43228 0
M  V30 2578 H 239.903 5.49267 -5.43623 0
M  V30 2579 H 238.248 4.94459 -4.884 0
M  V30 2580 H 241.439 3.52773 -3.07683 0
M  V30 2581 H 241.612 4.71372 -4.44649 0
M  V30 2582 N 235.018 0.912232 1.28515 0
M  V30 2583 C 235.966 0.389597 2.29314 0
M  V30 2584 C 236.96 -0.517915 1.61289 0
M  V30 2585 O 238.166 -0.399328 1.75515 0
M  V30 2586 H 234.541 0.107386 0.744293 0
M  V30 2587 H 236.512 1.25286 2.70825 0
M  V30 2588 C 235.261 -0.356496 3.45868 0
M  V30 2589 H 234.584 0.332608 3.98414 0
M  V30 2590 H 236.024 -0.686851 4.184 0
M  V30 2591 C 234.483 -1.56383 2.98406 0
M  V30 2592 O 235.013 -2.66294 3.00749 0
M  V30 2593 N 233.219 -1.41029 2.54085 0
M  V30 2594 H 232.766 -0.516089 2.52377 0
M  V30 2595 H 232.724 -2.21939 2.22689 0
M  V30 2596 N 236.496 -1.42363 0.676048 0
M  V30 2597 C 237.742 -2.0182 0.199125 0
M  V30 2598 C 238.075 -1.53339 -1.19168 0
M  V30 2599 O 237.35 -0.736124 -1.80032 0
M  V30 2600 C 237.633 -3.59331 0.235144 0
M  V30 2601 C 237.486 -4.17989 1.66149 0
M  V30 2602 C 238.805 -4.3813 -0.41595 0
M  V30 2603 H 235.924 -0.733293 0.0738311 0
M  V30 2604 H 238.566 -1.69368 0.86107 0
M  V30 2605 H 236.716 -3.87109 -0.328487 0
M  V30 2606 H 238.388 -4.0116 2.27747 0
M  V30 2607 H 236.631 -3.7377 2.20178 0
M  V30 2608 H 237.302 -5.27126 1.63837 0
M  V30 2609 H 239.778 -4.16051 0.0638529 0
M  V30 2610 H 238.654 -5.47717 -0.360115 0
M  V30 2611 H 238.915 -4.16101 -1.49373 0
M  V30 2612 N 237.974 -0.419461 -1.51915 0
M  V30 2613 C 239.202 0.152136 -2.0634 0
M  V30 2614 C 239.617 1.37988 -1.28859 0
M  V30 2615 O 238.974 1.79243 -0.343232 0
M  V30 2616 C 239.025 0.492266 -3.58133 0
M  V30 2617 O 238.746 -0.686736 -4.32684 0
M  V30 2618 C 240.247 1.11648 -4.2901 0
M  V30 2619 H 237.467 0.0158325 -0.670813 0
M  V30 2620 H 240.011 -0.593394 -1.95702 0
M  V30 2621 H 238.166 1.18769 -3.68745 0
M  V30 2622 H 238.58 -0.400341 -5.2297 0
M  V30 2623 H 240.054 1.3046 -5.36362 0
M  V30 2624 H 240.531 2.09251 -3.86148 0
M  V30 2625 H 241.137 0.460958 -4.22795 0
M  V30 2626 N 239.452 1.56882 -0.150215 0
M  V30 2627 C 240.699 1.96228 0.500093 0
M  V30 2628 C 241.027 1.03522 1.64661 0
M  V30 2629 O 240.282 0.0650683 1.95592 0
M  V30 2630 C 240.581 3.41801 1.04437 0
M  V30 2631 C 240.247 4.50897 0.0159671 0
M  V30 2632 C 238.909 4.8046 -0.266731 0
M  V30 2633 C 241.261 5.16703 -0.683192 0
M  V30 2634 C 238.589 5.73135 -1.25434 0
M  V30 2635 C 240.941 6.10441 -1.65964 0
M  V30 2636 C 239.605 6.38382 -1.95 0
M  V30 2637 H 238.875 0.718048 0.182997 0
M  V30 2638 H 241.522 1.90019 -0.237724 0
M  V30 2639 H 239.827 3.44857 1.85959 0
M  V30 2640 H 241.524 3.69573 1.55618 0
M  V30 2641 H 238.114 4.27891 0.246485 0
M  V30 2642 H 242.298 4.93993 -0.477983 0
M  V30 2643 H 237.554 5.93074 -1.48571 0
M  V30 2644 H 241.728 6.60507 -2.20689 0
M  V30 2645 H 239.355 7.09996 -2.71679 0
M  V30 2646 N 240.93 -0.123565 1.57115 0
M  V30 2647 C 241.86 -1.15309 2.03042 0
M  V30 2648 C 242.841 -1.43454 0.914061 0
M  V30 2649 O 244.026 -1.53973 1.18347 0
M  V30 2650 C 241.156 -2.48043 2.43089 0
M  V30 2651 C 240.11 -2.3437 3.58127 0
M  V30 2652 C 239.436 -3.72026 3.84059 0
M  V30 2653 C 240.736 -1.80804 4.90007 0
M  V30 2654 H 242.43 -0.771102 2.893 0
M  V30 2655 H 239.976 -0.369479 1.39179 0
M  V30 2656 H 241.929 -3.20311 2.73823 0
M  V30 2657 H 240.653 -2.88122 1.53796 0
M  V30 2658 H 239.312 -1.64551 3.27595 0
M  V30 2659 H 238.96 -4.09582 2.91979 0
M  V30 2660 H 238.66 -3.63732 4.6149 0
M  V30 2661 H 240.184 -4.45806 4.1724 0
M  V30 2662 H 241.598 -2.42886 5.19307 0
M  V30 2663 H 239.995 -1.83343 5.71407 0
M  V30 2664 H 241.065 -0.76528 4.78823 0
M  V30 2665 N 242.408 -1.52605 -0.393616 0
M  V30 2666 C 243.633 -1.71592 -1.16495 0
M  V30 2667 C 244.058 -0.43133 -1.83088 0
M  V30 2668 O 243.416 0.612523 -1.7064 0
M  V30 2669 C 243.464 -2.86318 -2.19213 0
M  V30 2670 O 242.568 -2.52969 -3.257 0
M  V30 2671 H 241.909 -0.570734 -0.33935 0
M  V30 2672 H 244.439 -1.99377 -0.459324 0
M  V30 2673 H 244.449 -3.1168 -2.63286 0
M  V30 2674 H 243.124 -3.79511 -1.7013 0
M  V30 2675 H 241.701 -2.38332 -2.86797 0
M  V30 2676 N 243.887 0.651787 -1.4349 0
M  V30 2677 C 245.127 1.42345 -1.46688 0
M  V30 2678 C 245.491 1.91793 -0.0891023 0
M  V30 2679 O 246.692 2.688 0.00423594 0
M  V30 2680 C 244.963 2.57221 -2.48137 0
M  V30 2681 S 246.522 3.45725 -2.70221 0
M  V30 2682 H 243.34 0.485878 -0.51908 0
M  V30 2683 H 245.942 0.756578 -1.80267 0
M  V30 2684 H 244.646 2.1917 -3.46976 0
M  V30 2685 H 244.177 3.28757 -2.16061 0
M  V30 2686 H 246.192 4.53996 -2.00255 0
M  V30 2687 N 245.365 1.30045 0.890287 0
M  V30 2688 C 246.297 1.11786 2.00091 0
M  V30 2689 C 247.31 0.0626307 1.62679 0
M  V30 2690 O 248.499 0.308112 1.75821 0
M  V30 2691 C 245.599 0.681527 3.31977 0
M  V30 2692 C 244.772 1.81735 3.97858 0
M  V30 2693 C 243.831 1.37045 5.08041 0
M  V30 2694 O 242.857 2.07677 5.29961 0
M  V30 2695 N 244.059 0.246525 5.79976 0
M  V30 2696 H 246.824 2.07441 2.16306 0
M  V30 2697 H 244.385 1.2211 1.06305 0
M  V30 2698 H 246.377 0.365675 4.03045 0
M  V30 2699 H 244.947 -0.182828 3.12065 0
M  V30 2700 H 244.167 2.30159 3.20032 0
M  V30 2701 H 245.455 2.57865 4.38615 0
M  V30 2702 H 244.853 -0.34215 5.64664 0
M  V30 2703 H 243.41 -0.00990438 6.51799 0
M  V30 2704 N 246.843 -1.10192 1.12674 0
M  V30 2705 C 248.09 -1.82205 0.883606 0
M  V30 2706 C 248.418 -1.8532 -0.590492 0
M  V30 2707 O 247.673 -1.31137 -1.45264 0
M  V30 2708 C 247.972 -3.28552 1.4067 0
M  V30 2709 C 247.638 -3.45582 2.89627 0
M  V30 2710 C 246.3 -3.49937 3.30299 0
M  V30 2711 C 248.652 -3.50768 3.85501 0
M  V30 2712 C 245.98 -3.57049 4.65546 0
M  V30 2713 C 248.332 -3.59414 5.20581 0
M  V30 2714 C 246.996 -3.62034 5.60792 0
M  V30 2715 H 246.266 -0.666735 0.323334 0
M  V30 2716 H 248.913 -1.29868 1.40736 0
M  V30 2717 H 247.218 -3.83473 0.80347 0
M  V30 2718 H 248.915 -3.82788 1.19475 0
M  V30 2719 H 245.505 -3.42871 2.57172 0
M  V30 2720 H 249.689 -3.46651 3.55171 0
M  V30 2721 H 244.945 -3.57361 4.96088 0
M  V30 2722 H 249.119 -3.62371 5.94693 0
M  V30 2723 H 246.746 -3.67298 6.6558 0
M  V30 2724 N 248.321 -0.919034 -1.28029 0
M  V30 2725 C 249.567 -0.555757 -1.95036 0
M  V30 2726 C 249.9 0.899198 -1.72128 0
M  V30 2727 O 249.175 1.64023 -1.04531 0
M  V30 2728 C 249.458 -0.872024 -3.49382 0
M  V30 2729 C 249.311 -2.3801 -3.81669 0
M  V30 2730 C 250.63 -0.37185 -4.38526 0
M  V30 2731 H 247.749 -0.203386 -0.708381 0
M  V30 2732 H 250.391 -1.14924 -1.51303 0
M  V30 2733 H 248.541 -0.366946 -3.86763 0
M  V30 2734 H 250.213 -2.9562 -3.54128 0
M  V30 2735 H 248.456 -2.83289 -3.28526 0
M  V30 2736 H 249.127 -2.55192 -4.8947 0
M  V30 2737 H 251.603 -0.804602 -4.08247 0
M  V30 2738 H 250.479 -0.622173 -5.45362 0
M  V30 2739 H 250.74 0.727934 -4.36066 0
M  V30 2740 N 249.799 1.42003 -0.683588 0
M  V30 2741 C 251.024 2.06265 -0.216647 0
M  V30 2742 C 251.449 1.51059 1.12083 0
M  V30 2743 O 250.807 0.632638 1.69904 0
M  V30 2744 C 250.855 3.60191 -0.171759 0
M  V30 2745 O 249.959 4.03396 0.857069 0
M  V30 2746 H 249.3 0.65502 -0.108834 0
M  V30 2747 H 251.83 1.81982 -0.935077 0
M  V30 2748 H 251.84 4.08 0.0014303 0
M  V30 2749 H 250.515 3.99743 -1.14796 0
M  V30 2750 H 249.092 3.67117 0.654208 0
M  V30 2751 N 251.277 0.427512 1.51691 0
M  V30 2752 C 252.523 -0.142439 2.02299 0
M  V30 2753 C 252.856 -1.43214 1.31162 0
M  V30 2754 O 252.131 -1.89833 0.423511 0
M  V30 2755 C 252.414 -0.371301 3.58181 0
M  V30 2756 C 252.267 0.936358 4.39946 0
M  V30 2757 C 253.586 -1.14542 4.24933 0
M  V30 2758 H 250.705 -0.0502937 0.735282 0
M  V30 2759 H 253.347 0.564584 1.81418 0
M  V30 2760 H 251.497 -0.973559 3.76104 0
M  V30 2761 H 253.169 1.57184 4.33694 0
M  V30 2762 H 251.412 1.5432 4.05423 0
M  V30 2763 H 252.083 0.730388 5.47147 0
M  V30 2764 H 254.559 -0.635362 4.11221 0
M  V30 2765 H 253.435 -1.27431 5.33903 0
M  V30 2766 H 253.696 -2.17093 3.85127 0
M  V30 2767 N 252.755 -1.56801 0.158532 0
M  V30 2768 C 253.688 -2.13148 -0.815065 0
M  V30 2769 C 254.666 -1.0581 -1.23462 0
M  V30 2770 O 255.85 -1.3371 -1.32868 0
M  V30 2771 C 252.977 -2.6606 -2.09594 0
M  V30 2772 C 252.023 -3.85651 -1.82141 0
M  V30 2773 S 252.856 -5.26041 -1.00207 0
M  V30 2774 C 254.012 -5.8235 -2.29389 0
M  V30 2775 H 254.245 -2.95396 -0.335937 0
M  V30 2776 H 251.778 -1.54299 -0.0559391 0
M  V30 2777 H 253.736 -2.97195 -2.8317 0
M  V30 2778 H 252.397 -1.83921 -2.54621 0
M  V30 2779 H 251.59 -4.20958 -2.77147 0
M  V30 2780 H 251.192 -3.55338 -1.16667 0
M  V30 2781 H 253.484 -5.94485 -3.24952 0
M  V30 2782 H 254.427 -6.79688 -1.9857 0
M  V30 2783 H 254.835 -5.10675 -2.40564 0
M  V30 2784 N 254.233 0.115231 -1.57178 0
M  V30 2785 C 255.649 0.468877 -1.52557 0
M  V30 2786 C 255.849 1.81649 -0.872125 0
M  V30 2787 O 254.905 2.48347 -0.45606 0
M  V30 2788 C 256.218 0.4499 -2.97315 0
M  V30 2789 C 257.766 0.533185 -3.08425 0
M  V30 2790 C 258.241 0.54456 -4.54751 0
M  V30 2791 N 259.732 0.605892 -4.5922 0
M  V30 2792 C 260.467 0.636203 -5.6986 0
M  V30 2793 N 259.963 0.623931 -6.89985 0
M  V30 2794 N 261.756 0.679496 -5.57978 0
M  V30 2795 H 253.907 -0.767712 -1.9804 0
M  V30 2796 H 256.17 -0.283609 -0.904583 0
M  V30 2797 H 255.876 -0.472721 -3.48509 0
M  V30 2798 H 255.75 1.27632 -3.5495 0
M  V30 2799 H 258.137 1.44623 -2.57232 0
M  V30 2800 H 258.218 -0.320995 -2.53778 0
M  V30 2801 H 257.862 -0.364452 -5.06591 0
M  V30 2802 H 257.792 1.41568 -5.07214 0
M  V30 2803 H 260.283 0.621386 -3.72756 0
M  V30 2804 H 260.596 0.649787 -7.70063 0
M  V30 2805 H 258.941 0.591296 -6.9248 0
M  V30 2806 H 262.132 0.686472 -4.63039 0
M  V30 2807 H 262.305 0.69965 -6.44212 0
M  V30 2808 N 255.711 1.52812 0.385517 0
M  V30 2809 C 256.644 1.72592 1.49289 0
M  V30 2810 C 257.622 0.573819 1.52138 0
M  V30 2811 O 258.806 0.80404 1.70492 0
M  V30 2812 C 255.933 1.78669 2.87741 0
M  V30 2813 C 254.979 3.00455 3.02703 0
M  V30 2814 S 255.812 4.60366 2.73538 0
M  V30 2815 C 256.968 4.69263 4.14177 0
M  V30 2816 H 257.201 2.66248 1.32285 0
M  V30 2817 H 254.734 1.43148 0.578611 0
M  V30 2818 H 256.692 1.82855 3.67524 0
M  V30 2819 H 255.353 0.861 3.02069 0
M  V30 2820 H 254.546 3.01258 4.04054 0
M  V30 2821 H 254.148 2.94278 2.30817 0
M  V30 2822 H 256.44 4.48092 5.08153 0
M  V30 2823 H 257.383 5.71276 4.18388 0
M  V30 2824 H 257.791 3.98072 4.00249 0
M  V30 2825 N 257.189 -0.644168 1.43834 0
M  V30 2826 C 258.466 -1.40188 1.36406 0
M  V30 2827 C 258.846 -2.11094 0.0163124 0
M  V30 2828 O 258.194 -2.05426 -1.00062 0
M  V30 2829 C 258.404 -2.3791 2.55343 0
M  V30 2830 C 259.752 -3.01637 2.98832 0
M  V30 2831 O 260.776 -2.48237 2.55455 0
M  V30 2832 O 259.635 -3.98477 3.74003 0
M  V30 2833 H 256.729 -0.626773 0.539523 0
M  V30 2834 H 259.275 -0.670317 1.559 0
M  V30 2835 H 258.047 -1.84525 3.4506 0
M  V30 2836 H 257.67 -3.18503 2.37995 0
M  V30 2837 N 258.668 -1.30515 -0.883378 0
M  V30 2838 C 259.898 -1.22182 -1.66599 0
M  V30 2839 C 260.306 0.217507 -1.87946 0
M  V30 2840 O 259.649 1.1554 -1.42815 0
M  V30 2841 C 259.711 -1.88146 -3.06335 0
M  V30 2842 C 259.375 -3.37476 -3.08154 0
M  V30 2843 C 260.372 -4.33443 -2.87094 0
M  V30 2844 C 258.057 -3.7895 -3.29701 0
M  V30 2845 C 260.051 -5.68858 -2.8754 0
M  V30 2846 C 257.738 -5.14482 -3.29776 0
M  V30 2847 C 258.736 -6.09246 -3.0872 0
M  V30 2848 O 258.424 -7.42302 -3.08615 0
M  V30 2849 H 258.156 -0.423898 -0.52658 0
M  V30 2850 H 260.71 -1.72703 -1.11188 0
M  V30 2851 H 258.94 -1.32157 -3.63416 0
M  V30 2852 H 260.629 -1.7391 -3.66756 0
M  V30 2853 H 261.395 -4.02733 -2.70243 0
M  V30 2854 H 257.274 -3.05631 -3.45124 0
M  V30 2855 H 260.818 -6.428 -2.71024 0
M  V30 2856 H 256.715 -5.44832 -3.46163 0
M  V30 2857 H 257.483 -7.5131 -3.24769 0
M  V30 2858 N 260.146 1.09593 -1.13257 0
M  V30 2859 C 261.079 2.15451 -0.752061 0
M  V30 2860 C 262.057 1.60493 0.260913 0
M  V30 2861 O 263.241 1.8788 0.152819 0
M  V30 2862 C 260.368 3.38506 -0.114594 0
M  V30 2863 C 259.414 4.12183 -1.09579 0
M  V30 2864 S 260.247 4.6661 -2.62745 0
M  V30 2865 C 261.403 5.92966 -2.00354 0
M  V30 2866 H 261.636 2.47395 -1.64872 0
M  V30 2867 H 259.169 1.21515 -0.952545 0
M  V30 2868 H 261.127 4.09757 0.246808 0
M  V30 2869 H 259.788 3.04784 0.759309 0
M  V30 2870 H 258.981 5.00445 -0.597545 0
M  V30 2871 H 258.583 3.46785 -1.40057 0
M  V30 2872 H 260.875 6.63882 -1.35156 0
M  V30 2873 H 261.818 6.47467 -2.86691 0
M  V30 2874 H 262.226 5.45405 -1.4558 0
M  V30 2875 N 261.624 0.925811 1.2754 0
M  V30 2876 C 262.87 0.566092 1.94739 0
M  V30 2877 C 263.203 -0.890057 1.72603 0
M  V30 2878 O 262.478 -1.63467 1.05399 0
M  V30 2879 C 262.761 0.89054 3.48915 0
M  V30 2880 C 262.614 2.4003 3.80402 0
M  V30 2881 C 263.933 0.395101 4.38323 0
M  V30 2882 H 261.052 0.20714 0.707292 0
M  V30 2883 H 263.694 1.15725 1.50691 0
M  V30 2884 H 261.844 0.387452 3.86563 0
M  V30 2885 H 263.516 2.97494 3.52555 0
M  V30 2886 H 261.759 2.85028 3.2702 0
M  V30 2887 H 262.43 2.57785 4.8811 0
M  V30 2888 H 264.906 0.826241 4.07814 0
M  V30 2889 H 263.782 0.651086 5.45025 0
M  V30 2890 H 264.043 -0.704798 4.36446 0
M  V30 2891 N 263.102 -1.41638 0.69111 0
M  V30 2892 C 264.332 -2.0533 0.228758 0
M  V30 2893 C 264.74 -1.52089 -1.12541 0
M  V30 2894 O 264.083 -0.662145 -1.71351 0
M  V30 2895 C 264.145 -3.59349 0.10407 0
M  V30 2896 C 263.809 -4.35362 1.38956 0
M  V30 2897 C 264.806 -4.64942 2.32648 0
M  V30 2898 C 262.491 -4.74714 1.64169 0
M  V30 2899 C 264.485 -5.32828 3.49818 0
M  V30 2900 C 262.172 -5.42338 2.81625 0
M  V30 2901 C 263.17 -5.71322 3.74273 0
M  V30 2902 O 262.858 -6.37554 4.89673 0
M  V30 2903 H 262.59 -0.667796 0.104997 0
M  V30 2904 H 265.144 -1.82477 0.942938 0
M  V30 2905 H 263.374 -3.80924 -0.665839 0
M  V30 2906 H 265.063 -4.04633 -0.320519 0
M  V30 2907 H 265.829 -4.35025 2.14425 0
M  V30 2908 H 261.708 -4.51538 0.929202 0
M  V30 2909 H 265.252 -5.55368 4.22152 0
M  V30 2910 H 261.149 -5.71673 2.99768 0
M  V30 2911 H 261.917 -6.56049 4.8943 0
M  V30 2912 N 264.58 -0.43555 -1.51462 0
M  V30 2913 C 265.827 0.131514 -2.02072 0
M  V30 2914 C 266.155 1.42868 -1.31981 0
M  V30 2915 O 265.41 1.91076 -0.422883 0
M  V30 2916 C 265.709 0.39942 -3.55161 0
M  V30 2917 C 265.375 -0.81172 -4.43533 0
M  V30 2918 C 264.037 -1.14387 -4.67407 0
M  V30 2919 C 266.389 -1.61976 -4.95392 0
M  V30 2920 C 263.717 -2.28477 -5.40384 0
M  V30 2921 C 266.069 -2.75164 -5.6962 0
M  V30 2922 C 264.733 -3.08835 -5.91758 0
M  V30 2923 H 264.003 0.0481244 -0.739436 0
M  V30 2924 H 266.65 -0.58238 -1.8243 0
M  V30 2925 H 264.955 1.19519 -3.73125 0
M  V30 2926 H 266.652 0.85157 -3.91854 0
M  V30 2927 H 263.242 -0.542898 -4.25148 0
M  V30 2928 H 267.426 -1.37637 -4.76833 0
M  V30 2929 H 262.682 -2.5488 -5.55739 0
M  V30 2930 H 266.856 -3.38147 -6.08793 0
M  V30 2931 H 264.483 -3.97353 -6.48086 0
M  V30 2932 N 266.058 1.56714 -0.166846 0
M  V30 2933 C 267.283 2.01557 0.488833 0
M  V30 2934 C 267.708 1.0463 1.56314 0
M  V30 2935 O 267.066 0.0251304 1.81283 0
M  V30 2936 C 267.114 3.4503 1.04818 0
M  V30 2937 O 266.218 3.51163 2.16236 0
M  V30 2938 H 265.559 0.653516 0.117526 0
M  V30 2939 H 268.089 2.02818 -0.269421 0
M  V30 2940 H 268.099 3.84243 1.37191 0
M  V30 2941 H 266.774 4.15077 0.261572 0
M  V30 2942 H 265.351 3.23807 1.84942 0
M  V30 2943 N 267.536 -0.106894 1.57237 0
M  V30 2944 C 268.783 -0.812526 1.85484 0
M  V30 2945 C 269.111 -1.79304 0.753687 0
M  V30 2946 O 268.366 -1.94047 -0.253853 0
M  V30 2947 C 268.665 -1.58628 3.20268 0
M  V30 2948 C 268.331 -0.748967 4.44636 0
M  V30 2949 C 266.993 -0.518104 4.78403 0
M  V30 2950 C 269.345 -0.166122 5.20935 0
M  V30 2951 C 266.673 0.305659 5.85903 0
M  V30 2952 C 269.025 0.644899 6.29304 0
M  V30 2953 C 267.689 0.885965 6.61594 0
M  V30 2954 H 266.959 -0.297324 0.678734 0
M  V30 2955 H 269.606 -0.0744332 1.91355 0
M  V30 2956 H 267.911 -2.39562 3.10028 0
M  V30 2957 H 269.608 -2.13643 3.39349 0
M  V30 2958 H 266.198 -0.939006 4.18187 0
M  V30 2959 H 270.382 -0.33167 4.95191 0
M  V30 2960 H 265.638 0.501528 6.0934 0
M  V30 2961 H 269.812 1.10345 6.87602 0
M  V30 2962 H 267.439 1.52609 7.44725 0
M  V30 2963 N 269.014 -1.53014 -0.377408 0
M  V30 2964 C 269.944 -1.81589 -1.46791 0
M  V30 2965 C 270.925 -0.668622 -1.56408 0
M  V30 2966 O 272.11 -0.917337 -1.71168 0
M  V30 2967 C 269.24 -1.99519 -2.8427 0
M  V30 2968 C 268.194 -3.15249 -2.89486 0
M  V30 2969 C 267.52 -3.18451 -4.29527 0
M  V30 2970 C 268.82 -4.54084 -2.58079 0
M  V30 2971 H 270.514 -2.7291 -1.23127 0
M  V30 2972 H 268.06 -1.31319 -0.590883 0
M  V30 2973 H 270.013 -2.18092 -3.60575 0
M  V30 2974 H 268.737 -1.04897 -3.09296 0
M  V30 2975 H 267.396 -2.96477 -2.15631 0
M  V30 2976 H 267.044 -2.2149 -4.5161 0
M  V30 2977 H 266.744 -3.962 -4.33934 0
M  V30 2978 H 268.268 -3.39193 -5.07721 0
M  V30 2979 H 269.682 -4.72899 -3.24098 0
M  V30 2980 H 268.079 -5.33987 -2.7382 0
M  V30 2981 H 269.149 -4.60006 -1.53372 0
M  V30 2982 N 270.492 0.636531 -1.44174 0
M  V30 2983 C 271.72 1.42353 -1.50144 0
M  V30 2984 C 272.135 1.88389 -0.124575 0
M  V30 2985 O 271.492 1.6051 0.868489 0
M  V30 2986 C 271.543 2.64744 -2.46156 0
M  V30 2987 O 271.264 2.20629 -3.7849 0
M  V30 2988 C 272.765 3.57929 -2.61537 0
M  V30 2989 H 269.985 0.436752 -0.5094 0
M  V30 2990 H 272.529 0.778933 -1.89084 0
M  V30 2991 H 270.684 3.25307 -2.10366 0
M  V30 2992 H 271.098 2.99938 -4.30276 0
M  V30 2993 H 272.572 4.40428 -3.32757 0
M  V30 2994 H 273.049 4.06382 -1.66585 0
M  V30 2995 H 273.655 3.03238 -2.98206 0
M  V30 2996 N 271.97 1.30982 0.876444 0
M  V30 2997 C 273.216 1.21484 1.63136 0
M  V30 2998 C 273.571 -0.226339 1.91064 0
M  V30 2999 O 272.864 -1.15788 1.52656 0
M  V30 3000 C 273.058 1.98572 2.9716 0
M  V30 3001 C 272.887 3.50039 2.82317 0
M  V30 3002 C 271.657 4.19393 2.81847 0
M  V30 3003 C 273.855 4.45111 2.57644 0
M  V30 3004 N 271.837 5.57061 2.57985 0
M  V30 3005 C 273.208 5.70402 2.42986 0
M  V30 3006 C 275.263 4.3461 2.42937 0
M  V30 3007 C 273.966 6.8638 2.15115 0
M  V30 3008 C 275.992 5.50365 2.16454 0
M  V30 3009 C 275.354 6.74642 2.02578 0
M  V30 3010 H 271.453 0.499632 0.601575 0
M  V30 3011 H 274.037 1.65094 1.03209 0
M  V30 3012 H 272.208 1.5734 3.55104 0
M  V30 3013 H 273.94 1.81146 3.61895 0
M  V30 3014 H 270.695 3.71303 2.93991 0
M  V30 3015 H 271.119 6.29529 2.49043 0
M  V30 3016 H 275.761 3.39199 2.52396 0
M  V30 3017 H 273.479 7.81824 2.04394 0
M  V30 3018 H 277.065 5.44154 2.05884 0
M  V30 3019 H 275.945 7.62699 1.82374 0
M  V30 3020 N 273.449 -1.08991 1.13837 0
M  V30 3021 C 274.698 -1.80631 0.897509 0
M  V30 3022 C 275.011 -1.86872 -0.57777 0
M  V30 3023 O 276.217 -2.54866 -0.935701 0
M  V30 3024 C 274.673 -3.24517 1.55618 0
M  V30 3025 C 274.281 -3.26529 3.0673 0
M  V30 3026 C 276.025 -4.00882 1.3962 0
M  V30 3027 C 273.932 -4.64965 3.65461 0
M  V30 3028 H 272.862 -0.67691 0.332129 0
M  V30 3029 H 275.513 -1.2246 1.3666 0
M  V30 3030 H 273.895 -3.82778 1.01476 0
M  V30 3031 H 275.069 -2.78008 3.67489 0
M  V30 3032 H 273.384 -2.63656 3.22296 0
M  V30 3033 H 275.981 -5.03167 1.80906 0
M  V30 3034 H 276.324 -4.14896 0.341578 0
M  V30 3035 H 276.857 -3.49075 1.90766 0
M  V30 3036 H 273.596 -4.56153 4.70749 0
M  V30 3037 H 273.116 -5.13792 3.09481 0
M  V30 3038 H 274.795 -5.3394 3.654 0
M  V30 3039 N 274.927 -0.932562 -1.27047 0
M  V30 3040 C 276.174 -0.575559 -1.94148 0
M  V30 3041 C 276.502 0.883984 -1.73251 0
M  V30 3042 O 275.757 1.64655 -1.0577 0
M  V30 3043 C 276.056 -0.853713 -3.47054 0
M  V30 3044 C 275.722 -2.29577 -3.88079 0
M  V30 3045 C 274.384 -2.68999 -3.9899 0
M  V30 3046 C 276.736 -3.23331 -4.08787 0
M  V30 3047 C 274.064 -4.01289 -4.28 0
M  V30 3048 C 276.416 -4.55207 -4.39282 0
M  V30 3049 C 275.08 -4.94457 -4.48407 0
M  V30 3050 H 274.35 -0.210612 -0.710439 0
M  V30 3051 H 276.997 -1.17744 -1.51025 0
M  V30 3052 H 275.302 -0.169204 -3.91434 0
M  V30 3053 H 276.999 -0.55639 -3.97121 0
M  V30 3054 H 273.589 -1.97994 -3.80127 0
M  V30 3055 H 277.773 -2.94074 -3.99793 0
M  V30 3056 H 273.029 -4.31374 -4.33275 0
M  V30 3057 H 277.203 -5.27852 -4.54252 0
M  V30 3058 H 274.83 -5.96994 -4.7064 0
M  V30 3059 N 276.405 1.4127 -0.698611 0
M  V30 3060 C 277.654 2.00408 -0.227949 0
M  V30 3061 C 277.967 1.55981 1.18023 0
M  V30 3062 O 279.173 2.07699 1.74852 0
M  V30 3063 C 277.629 3.58129 -0.356636 0
M  V30 3064 C 277.237 4.11536 -1.77037 0
M  V30 3065 C 278.981 4.24466 0.0540969 0
M  V30 3066 C 276.888 5.61701 -1.85055 0
M  V30 3067 H 275.818 0.749586 -0.0814657 0
M  V30 3068 H 278.469 1.61713 -0.867249 0
M  V30 3069 H 276.851 3.94442 0.350965 0
M  V30 3070 H 278.025 3.86636 -2.50698 0
M  V30 3071 H 276.34 3.57736 -2.13105 0
M  V30 3072 H 278.937 5.34698 0.0146723 0
M  V30 3073 H 279.28 4.01687 1.09332 0
M  V30 3074 H 279.813 3.93198 -0.603337 0
M  V30 3075 H 276.552 5.89312 -2.8704 0
M  V30 3076 H 276.072 5.88519 -1.15783 0
M  V30 3077 H 277.751 6.26524 -1.61484 0
M  V30 3078 N 277.883 0.443576 1.51229 0
M  V30 3079 C 279.294 -0.0180867 1.86691 0
M  V30 3080 C 279.645 -1.41384 1.36033 0
M  V30 3081 O 278.77 -2.04291 0.713722 0
M  V30 3082 C 279.365 -0.039597 3.38777 0
M  V30 3083 C 277.924 -0.445692 3.73752 0
M  V30 3084 C 277.071 0.357584 2.74985 0
M  V30 3085 H 280.022 0.659138 1.44364 0
M  V30 3086 H 280.043 -0.847761 3.70936 0
M  V30 3087 H 279.555 0.976382 3.75617 0
M  V30 3088 H 277.656 -1.46704 3.42503 0
M  V30 3089 H 277.769 -0.166155 4.78812 0
M  V30 3090 H 276.133 -0.184973 2.54027 0
M  V30 3091 H 276.916 1.37256 3.14668 0
M  V30 3092 N 279.361 -1.56624 0.175154 0
M  V30 3093 C 280.291 -2.21155 -0.749195 0
M  V30 3094 C 281.272 -1.16836 -1.23626 0
M  V30 3095 O 282.457 -1.45277 -1.28873 0
M  V30 3096 C 279.587 -2.8553 -1.97711 0
M  V30 3097 C 278.541 -3.95921 -1.62575 0
M  V30 3098 C 277.867 -4.47365 -2.92864 0
M  V30 3099 C 279.167 -5.15323 -0.850838 0
M  V30 3100 H 280.861 -2.98653 -0.211295 0
M  V30 3101 H 278.407 -1.43651 -0.100188 0
M  V30 3102 H 280.36 -3.2935 -2.62881 0
M  V30 3103 H 279.084 -2.05406 -2.53921 0
M  V30 3104 H 277.743 -3.52762 -0.997719 0
M  V30 3105 H 277.391 -3.64027 -3.47122 0
M  V30 3106 H 277.091 -5.21839 -2.70106 0
M  V30 3107 H 278.615 -4.93873 -3.59056 0
M  V30 3108 H 280.029 -5.55812 -1.40521 0
M  V30 3109 H 278.426 -5.95739 -0.722154 0
M  V30 3110 H 279.496 -4.84661 0.152082 0
M  V30 3111 N 280.839 0.0985539 -1.57292 0
M  V30 3112 C 282.085 0.803867 -1.86188 0
M  V30 3113 C 282.418 1.78549 -0.763794 0
M  V30 3114 O 281.693 1.93153 0.22855 0
M  V30 3115 C 281.976 1.53568 -3.25713 0
M  V30 3116 C 281.829 0.572277 -4.46145 0
M  V30 3117 C 283.148 2.48708 -3.63087 0
M  V30 3118 H 280.267 0.290781 -0.677211 0
M  V30 3119 H 282.909 0.0675783 -1.8988 0
M  V30 3120 H 281.059 2.16332 -3.22696 0
M  V30 3121 H 282.731 -0.0480894 -4.61275 0
M  V30 3122 H 280.974 -0.114618 -4.33649 0
M  V30 3123 H 281.645 1.12139 -5.40489 0
M  V30 3124 H 284.121 1.96039 -3.67026 0
M  V30 3125 H 282.997 2.96932 -4.61652 0
M  V30 3126 H 283.258 3.32309 -2.91588 0
M  V30 3127 N 282.317 1.53212 0.369288 0
M  V30 3128 C 283.563 1.69466 1.11397 0
M  V30 3129 C 283.896 0.443257 1.89074 0
M  V30 3130 O 283.171 -0.559386 1.86282 0
M  V30 3131 C 283.454 2.9422 2.07621 0
M  V30 3132 C 283.307 4.29508 1.33577 0
M  V30 3133 C 284.626 3.14565 3.07794 0
M  V30 3134 H 281.745 0.616667 0.403597 0
M  V30 3135 H 284.387 1.85845 0.395179 0
M  V30 3136 H 282.537 2.80387 2.68916 0
M  V30 3137 H 284.209 4.55147 0.750955 0
M  V30 3138 H 282.452 4.29088 0.637618 0
M  V30 3139 H 283.123 5.12926 2.03989 0
M  V30 3140 H 285.599 3.2756 2.56601 0
M  V30 3141 H 284.475 4.03297 3.72348 0
M  V30 3142 H 284.736 2.29675 3.77759 0
M  V30 3143 N 283.795 -0.628877 1.44509 0
M  V30 3144 C 284.728 -1.75367 1.46019 0
M  V30 3145 C 285.706 -1.59444 0.318787 0
M  V30 3146 O 286.89 -1.81297 0.516099 0
M  V30 3147 C 284.017 -3.12965 1.29501 0
M  V30 3148 C 283.063 -3.47532 2.47233 0
M  V30 3149 S 283.896 -3.44758 4.09758 0
M  V30 3150 C 285.052 -4.84973 3.95667 0
M  V30 3151 H 285.285 -1.7382 2.41193 0
M  V30 3152 H 282.818 -0.803686 1.31834 0
M  V30 3153 H 284.776 -3.92367 1.20658 0
M  V30 3154 H 283.437 -3.12049 0.358341 0
M  V30 3155 H 282.63 -4.47664 2.31544 0
M  V30 3156 H 282.232 -2.75598 2.52828 0
M  V30 3157 H 284.524 -5.74255 3.59496 0
M  V30 3158 H 285.467 -5.05716 4.95638 0
M  V30 3159 H 285.875 -4.59653 3.27688 0
M  V30 3160 N 285.273 -1.31445 -0.869486 0
M  V30 3161 C 286.513 -1.22458 -1.63656 0
M  V30 3162 C 286.877 0.213846 -1.90805 0
M  V30 3163 O 288.078 0.427212 -2.65383 0
M  V30 3164 C 286.349 -2.04564 -2.93067 0
M  V30 3165 S 287.908 -2.12445 -3.83944 0
M  V30 3166 H 284.726 -0.436145 -0.561514 0
M  V30 3167 H 287.328 -1.66114 -1.03085 0
M  V30 3168 H 286.032 -3.0816 -2.71045 0
M  V30 3169 H 285.563 -1.6163 -3.58663 0
M  V30 3170 H 287.578 -1.26312 -4.79854 0
M  V30 3171 N 286.751 1.08385 -1.14413 0
M  V30 3172 C 287.714 2.13486 -0.834048 0
M  V30 3173 C 288.714 1.59988 0.161418 0
M  V30 3174 O 289.904 1.74071 -0.0669575 0
M  V30 3175 C 287.036 3.4003 -0.243354 0
M  V30 3176 H 288.229 2.42425 -1.7655 0
M  V30 3177 H 285.782 1.24101 -0.950189 0
M  V30 3178 H 286.517 3.16726 0.696807 0
M  V30 3179 H 286.302 3.80157 -0.960367 0
M  V30 3180 H 287.792 4.17577 -0.0436242 0
M  V30 3181 N 288.23 0.939286 1.26551 0
M  V30 3182 C 289.479 0.581601 1.93133 0
M  V30 3183 C 289.792 -0.883224 1.74524 0
M  V30 3184 O 290.998 -1.3502 2.35546 0
M  V30 3185 C 289.454 0.989425 3.46032 0
M  V30 3186 C 289.062 2.47573 3.73379 0
M  V30 3187 C 290.806 0.703544 4.18629 0
M  V30 3188 C 288.713 2.82235 5.19709 0
M  V30 3189 H 287.643 0.213803 0.723052 0
M  V30 3190 H 290.294 1.14167 1.4366 0
M  V30 3191 H 288.676 0.357902 3.94379 0
M  V30 3192 H 289.85 3.15614 3.35744 0
M  V30 3193 H 288.165 2.73471 3.1401 0
M  V30 3194 H 290.762 0.938869 5.26393 0
M  V30 3195 H 291.105 -0.359639 4.14744 0
M  V30 3196 H 291.638 1.2947 3.76141 0
M  V30 3197 H 288.377 3.87509 5.28694 0
M  V30 3198 H 287.897 2.18854 5.58447 0
M  V30 3199 H 289.576 2.70599 5.87695 0
M  V30 3200 N 289.708 -1.40897 0.706093 0
M  V30 3201 C 290.938 -2.05075 0.250523 0
M  V30 3202 C 291.346 -1.53275 -1.10921 0
M  V30 3203 O 290.689 -0.680281 -1.7064 0
M  V30 3204 C 290.751 -3.59219 0.142178 0
M  V30 3205 C 290.415 -4.33864 1.43566 0
M  V30 3206 C 291.412 -4.62448 2.37566 0
M  V30 3207 C 289.097 -4.72946 1.69195 0
M  V30 3208 C 291.091 -5.29088 3.5545 0
M  V30 3209 C 288.778 -5.3932 2.87362 0
M  V30 3210 C 289.776 -5.6732 3.80312 0
M  V30 3211 O 289.464 -6.32325 4.96408 0
M  V30 3212 H 289.196 -0.666645 0.112074 0
M  V30 3213 H 291.75 -1.81467 0.962239 0
M  V30 3214 H 289.98 -3.81609 -0.6254 0
M  V30 3215 H 291.669 -4.0495 -0.277584 0
M  V30 3216 H 292.435 -4.32727 2.19027 0
M  V30 3217 H 288.314 -4.50527 0.977042 0
M  V30 3218 H 291.858 -5.50859 4.28018 0
M  V30 3219 H 287.755 -5.68461 3.05814 0
M  V30 3220 H 288.523 -6.50821 4.9636 0
M  V30 3221 N 291.186 -0.45159 -1.50991 0
M  V30 3222 C 292.116 0.342898 -2.30969 0
M  V30 3223 C 293.097 1.00815 -1.37005 0
M  V30 3224 O 294.282 1.00907 -1.65926 0
M  V30 3225 C 291.412 1.43637 -3.16205 0
M  V30 3226 C 290.366 0.893818 -4.18563 0
M  V30 3227 C 289.692 2.08411 -4.92411 0
M  V30 3228 C 290.992 -0.0815568 -5.22236 0
M  V30 3229 H 292.686 -0.324556 -2.97636 0
M  V30 3230 H 290.232 -0.157531 -1.43136 0
M  V30 3231 H 292.185 1.9995 -3.70942 0
M  V30 3232 H 290.909 2.13232 -2.47386 0
M  V30 3233 H 289.568 0.352798 -3.64898 0
M  V30 3234 H 289.216 2.76658 -4.20082 0
M  V30 3235 H 288.916 1.72741 -5.61636 0
M  V30 3236 H 290.44 2.65251 -5.49976 0
M  V30 3237 H 291.854 0.391742 -5.7196 0
M  V30 3238 H 290.251 -0.351551 -5.99069 0
M  V30 3239 H 291.321 -1.01374 -4.74185 0
M  V30 3240 N 292.664 1.56529 -0.183458 0
M  V30 3241 C 293.941 1.88959 0.50536 0
M  V30 3242 C 294.321 1.09523 1.80466 0
M  V30 3243 O 293.669 0.19278 2.27685 0
M  V30 3244 C 293.879 3.41162 0.73547 0
M  V30 3245 C 295.227 4.11155 1.06005 0
M  V30 3246 O 296.251 3.46548 0.823594 0
M  V30 3247 O 295.11 5.25318 1.50675 0
M  V30 3248 H 292.204 0.78441 0.261973 0
M  V30 3249 H 294.75 1.68231 -0.222802 0
M  V30 3250 H 293.522 3.90874 -0.182561 0
M  V30 3251 H 293.145 3.67543 1.51651 0
M  V30 3252 N 294.142 -0.090211 1.57342 0
M  V30 3253 C 295.391 -0.791531 1.8552 0
M  V30 3254 C 295.704 -1.79659 0.773441 0
M  V30 3255 O 296.91 -2.54616 0.942497 0
M  V30 3256 C 295.366 -1.45856 3.2902 0
M  V30 3257 C 294.974 -0.493017 4.45279 0
M  V30 3258 C 296.718 -2.14332 3.66418 0
M  V30 3259 C 294.625 -1.16491 5.79814 0
M  V30 3260 H 293.555 -0.299356 0.692027 0
M  V30 3261 H 296.206 -0.0445343 1.83446 0
M  V30 3262 H 294.588 -2.25318 3.2565 0
M  V30 3263 H 295.762 0.270464 4.60006 0
M  V30 3264 H 294.077 0.0863061 4.16311 0
M  V30 3265 H 296.674 -2.65344 4.64216 0
M  V30 3266 H 297.017 -2.93447 2.95287 0
M  V30 3267 H 297.55 -1.41724 3.71698 0
M  V30 3268 H 294.289 -0.41447 6.54188 0
M  V30 3269 H 293.809 -1.8997 5.68921 0
M  V30 3270 H 295.488 -1.69001 6.24538 0
M  V30 3271 N 295.62 -1.53406 -0.361157 0
M  V30 3272 C 296.867 -1.69802 -1.10333 0
M  V30 3273 C 297.195 -0.452087 -1.89173 0
M  V30 3274 O 296.45 0.566017 -1.87336 0
M  V30 3275 C 296.749 -2.90211 -2.08596 0
M  V30 3276 C 296.415 -4.26539 -1.46203 0
M  V30 3277 C 295.077 -4.6361 -1.28915 0
M  V30 3278 C 297.429 -5.113 -1.01101 0
M  V30 3279 C 294.757 -5.83075 -0.651157 0
M  V30 3280 C 297.109 -6.31415 -0.387007 0
M  V30 3281 C 295.773 -6.67195 -0.201657 0
M  V30 3282 H 295.043 -0.621351 -0.403737 0
M  V30 3283 H 297.69 -1.87598 -0.384609 0
M  V30 3284 H 295.995 -2.66946 -2.86788 0
M  V30 3285 H 297.692 -3.00091 -2.65982 0
M  V30 3286 H 294.282 -3.97352 -1.60653 0
M  V30 3287 H 298.466 -4.83206 -1.13249 0
M  V30 3288 H 293.722 -6.09385 -0.496006 0
M  V30 3289 H 297.896 -6.96394 -0.0293563 0
M  V30 3290 H 295.523 -7.59628 0.294766 0
M  V30 3291 N 297.098 0.621204 -1.44841 0
M  V30 3292 C 298.328 1.40548 -1.51426 0
M  V30 3293 C 298.736 1.88673 -0.141083 0
M  V30 3294 O 298.079 1.62053 0.865128 0
M  V30 3295 C 298.141 2.65325 -2.42576 0
M  V30 3296 C 297.805 2.3893 -3.89566 0
M  V30 3297 C 298.802 2.00138 -4.79834 0
M  V30 3298 C 296.487 2.52263 -4.3436 0
M  V30 3299 C 298.481 1.75021 -6.129 0
M  V30 3300 C 296.168 2.2676 -5.67471 0
M  V30 3301 C 297.166 1.88199 -6.56559 0
M  V30 3302 O 296.854 1.62986 -7.87204 0
M  V30 3303 H 296.586 0.437122 -0.515655 0
M  V30 3304 H 299.14 0.765987 -1.90583 0
M  V30 3305 H 297.37 3.31947 -1.98364 0
M  V30 3306 H 299.059 3.27347 -2.39998 0
M  V30 3307 H 299.825 1.89386 -4.46495 0
M  V30 3308 H 295.704 2.81246 -3.65269 0
M  V30 3309 H 299.248 1.44848 -6.82396 0
M  V30 3310 H 295.145 2.37125 -6.00368 0
M  V30 3311 H 295.913 1.7715 -7.991 0
M  V30 3312 N 298.576 1.31904 0.862503 0
M  V30 3313 C 299.825 1.21373 1.61094 0
M  V30 3314 C 300.138 -0.22504 1.94301 0
M  V30 3315 O 301.344 -0.452121 2.67709 0
M  V30 3316 C 299.8 2.12525 2.9045 0
M  V30 3317 C 299.408 3.61441 2.64697 0
M  V30 3318 C 301.152 2.10813 3.68454 0
M  V30 3319 C 299.059 4.44578 3.90006 0
M  V30 3320 H 297.989 0.450705 0.604468 0
M  V30 3321 H 300.64 1.56811 0.953027 0
M  V30 3322 H 299.022 1.69994 3.57656 0
M  V30 3323 H 300.196 4.12264 2.05851 0
M  V30 3324 H 298.511 3.65205 2.00036 0
M  V30 3325 H 301.108 2.70167 4.61426 0
M  V30 3326 H 301.451 1.09713 4.01583 0
M  V30 3327 H 301.984 2.51583 3.08141 0
M  V30 3328 H 298.723 5.46461 3.62023 0
M  V30 3329 H 298.243 3.98508 4.48276 0
M  V30 3330 H 299.922 4.57176 4.5782 0
M  V30 3331 N 300.054 -1.07777 1.14986 0
M  V30 3332 C 301.303 -1.79669 0.916617 0
M  V30 3333 C 301.616 -1.87474 -0.557917 0
M  V30 3334 O 302.822 -2.55845 -0.908617 0
M  V30 3335 C 301.278 -3.22848 1.59051 0
M  V30 3336 C 300.886 -3.23257 3.10176 0
M  V30 3337 C 302.63 -3.99379 1.43864 0
M  V30 3338 C 300.537 -4.61063 3.70372 0
M  V30 3339 H 299.467 -0.673349 0.33929 0
M  V30 3340 H 302.118 -1.21003 1.37951 0
M  V30 3341 H 300.5 -3.8168 1.0553 0
M  V30 3342 H 301.674 -2.74095 3.70417 0
M  V30 3343 H 299.989 -2.60222 3.25074 0
M  V30 3344 H 302.586 -5.0122 1.86232 0
M  V30 3345 H 302.929 -4.14511 0.385564 0
M  V30 3346 H 303.462 -3.47032 1.94457 0
M  V30 3347 H 300.201 -4.51135 4.7556 0
M  V30 3348 H 299.721 -5.1048 3.14913 0
M  V30 3349 H 301.4 -5.30034 3.71043 0
M  V30 3350 N 301.532 -0.945985 -1.26051 0
M  V30 3351 C 302.948 -0.649045 -1.45807 0
M  V30 3352 C 303.148 0.796158 -1.85104 0
M  V30 3353 O 302.204 1.57233 -1.97571 0
M  V30 3354 C 303.517 -1.61458 -2.53677 0
M  V30 3355 C 305.065 -1.62481 -2.67524 0
M  V30 3356 C 305.54 -2.57776 -3.7857 0
M  V30 3357 N 307.031 -2.5609 -3.85969 0
M  V30 3358 C 307.766 -3.26508 -4.7136 0
M  V30 3359 N 307.262 -4.0637 -5.61102 0
M  V30 3360 N 309.055 -3.15437 -4.65248 0
M  V30 3361 H 301.206 -1.88005 -0.988328 0
M  V30 3362 H 303.469 -0.808198 -0.4955 0
M  V30 3363 H 303.175 -2.64644 -2.31638 0
M  V30 3364 H 303.049 -1.37036 -3.51427 0
M  V30 3365 H 305.436 -0.600167 -2.88933 0
M  V30 3366 H 305.517 -1.90958 -1.70202 0
M  V30 3367 H 305.161 -3.60361 -3.57913 0
M  V30 3368 H 305.091 -2.26587 -4.75359 0
M  V30 3369 H 307.582 -1.98105 -3.21812 0
M  V30 3370 H 307.895 -4.57042 -6.23164 0
M  V30 3371 H 306.24 -4.10469 -5.60839 0
M  V30 3372 H 309.431 -2.52525 -3.94143 0
M  V30 3373 H 309.604 -3.70584 -5.31575 0
M  V30 3374 N 303.011 1.40521 -0.713556 0
M  V30 3375 C 303.959 2.32549 -0.0485227 0
M  V30 3376 C 304.953 1.51931 0.74922 0
M  V30 3377 O 306.159 1.67745 0.652816 0
M  V30 3378 H 302.534 0.751994 0.00311138 0
M  V30 3379 H 304.505 2.86291 -0.841443 0
M  V30 3380 C 303.254 3.36879 0.860687 0
M  V30 3381 H 302.577 3.98978 0.256246 0
M  V30 3382 H 304.017 4.03772 1.294 0
M  V30 3383 C 302.476 2.72197 1.9852 0
M  V30 3384 O 303.006 2.5837 3.07584 0
M  V30 3385 N 301.212 2.30612 1.76823 0
M  V30 3386 H 300.759 2.42059 0.881217 0
M  V30 3387 H 300.717 1.87672 2.52243 0
M  V30 3388 N 304.489 0.459591 1.5075 0
M  V30 3389 C 305.436 -0.340524 2.28274 0
M  V30 3390 C 306.406 -0.997371 1.32822 0
M  V30 3391 O 307.591 -1.01202 1.61749 0
M  V30 3392 C 304.731 -1.42317 3.14388 0
M  V30 3393 C 303.844 -0.782251 4.24859 0
M  V30 3394 C 302.979 -1.84182 4.98247 0
M  V30 3395 C 302.018 -1.18053 6.00608 0
M  V30 3396 N 301.155 -2.18244 6.67319 0
M  V30 3397 H 305.995 0.326899 2.96202 0
M  V30 3398 H 303.532 0.173057 1.46078 0
M  V30 3399 H 305.49 -2.06241 3.62658 0
M  V30 3400 H 304.12 -2.05992 2.4853 0
M  V30 3401 H 303.172 -0.0307404 3.80388 0
M  V30 3402 H 304.484 -0.259663 4.98124 0
M  V30 3403 H 303.638 -2.55714 5.50177 0
M  V30 3404 H 302.377 -2.39819 4.24662 0
M  V30 3405 H 301.382 -0.450776 5.47949 0
M  V30 3406 H 302.607 -0.631202 6.7616 0
M  V30 3407 H 300.553 -2.72919 5.96533 0
M  V30 3408 H 300.47 -1.70938 7.36421 0
M  V30 3409 H 301.738 -2.89191 7.23871 0
M  V30 3410 N 305.967 -1.56429 0.191757 0
M  V30 3411 C 306.897 -2.21937 -0.725696 0
M  V30 3412 C 307.878 -1.1814 -1.2238 0
M  V30 3413 O 309.063 -1.46636 -1.27325 0
M  V30 3414 C 306.193 -2.87611 -1.94672 0
M  V30 3415 C 305.147 -3.97623 -1.58366 0
M  V30 3416 C 304.473 -4.50446 -2.88102 0
M  V30 3417 C 305.773 -5.16197 -0.796133 0
M  V30 3418 H 307.467 -2.98861 -0.179606 0
M  V30 3419 H 305.013 -1.43749 -0.0849464 0
M  V30 3420 H 306.966 -3.3212 -2.59373 0
M  V30 3421 H 305.69 -2.08087 -2.51728 0
M  V30 3422 H 304.349 -3.53801 -0.960247 0
M  V30 3423 H 303.997 -3.67688 -3.43241 0
M  V30 3424 H 303.697 -5.24675 -2.64556 0
M  V30 3425 H 305.221 -4.97654 -3.53798 0
M  V30 3426 H 306.635 -5.57271 -1.34618 0
M  V30 3427 H 305.032 -5.96471 -0.658928 0
M  V30 3428 H 306.102 -4.84473 0.203478 0
M  V30 3429 N 307.445 0.0818655 -1.57387 0
M  V30 3430 C 308.67 0.799946 -1.91352 0
M  V30 3431 C 309.095 1.70833 -0.787258 0
M  V30 3432 O 308.453 1.79419 0.26048 0
M  V30 3433 C 308.501 1.57812 -3.24234 0
M  V30 3434 O 307.605 2.68806 -3.12757 0
M  V30 3435 H 306.946 0.21891 -0.626877 0
M  V30 3436 H 309.476 0.0531256 -2.04531 0
M  V30 3437 H 309.486 1.95952 -3.57864 0
M  V30 3438 H 308.161 0.911548 -4.05788 0
M  V30 3439 H 306.738 2.33597 -2.90666 0
M  V30 3440 N 308.923 1.53595 0.353017 0
M  V30 3441 C 309.853 1.83902 1.43883 0
M  V30 3442 C 310.834 0.693421 1.55324 0
M  V30 3443 O 312.019 0.944452 1.69687 0
M  V30 3444 C 309.149 2.04016 2.8106 0
M  V30 3445 C 308.103 3.19814 2.84434 0
M  V30 3446 C 307.429 3.25244 4.24406 0
M  V30 3447 C 308.729 4.58133 2.50822 0
M  V30 3448 H 310.423 2.74835 1.1877 0
M  V30 3449 H 307.969 1.32242 0.569917 0
M  V30 3450 H 309.922 2.238 3.57059 0
M  V30 3451 H 308.646 1.09804 3.07588 0
M  V30 3452 H 307.305 2.9987 2.10887 0
M  V30 3453 H 306.953 2.28646 4.48029 0
M  V30 3454 H 306.653 4.03054 4.27576 0
M  V30 3455 H 308.177 3.47228 5.0226 0
M  V30 3456 H 309.591 4.77995 3.16534 0
M  V30 3457 H 307.988 5.38276 2.6529 0
M  V30 3458 H 309.058 4.62387 1.46034 0
M  V30 3459 N 310.401 -0.613514 1.45168 0
M  V30 3460 C 311.349 -1.74572 1.53712 0
M  V30 3461 C 312.343 -1.64426 0.407505 0
M  V30 3462 O 313.549 -1.70291 0.583176 0
M  V30 3463 H 309.924 -0.576641 0.48269 0
M  V30 3464 H 311.895 -1.64492 2.48968 0
M  V30 3465 C 310.644 -3.12943 1.51532 0
M  V30 3466 H 309.967 -3.21407 2.37776 0
M  V30 3467 H 311.407 -3.9201 1.61569 0
M  V30 3468 C 309.866 -3.36053 0.238798 0
M  V30 3469 O 310.396 -3.95837 -0.6838 0
M  V30 3470 N 308.602 -2.9028 0.136359 0
M  V30 3471 H 308.149 -2.41811 0.887999 0
M  V30 3472 H 308.107 -3.06116 -0.716944 0
M  V30 3473 N 311.879 -1.3236 -0.855495 0
M  V30 3474 C 312.809 -1.23833 -1.97958 0
M  V30 3475 C 313.79 -0.122361 -1.69659 0
M  V30 3476 O 314.975 -0.30939 -1.9172 0
M  V30 3477 C 312.105 -0.959772 -3.33775 0
M  V30 3478 C 311.059 -2.03689 -3.76424 0
M  V30 3479 C 310.385 -1.61075 -5.09862 0
M  V30 3480 C 311.685 -3.4518 -3.9198 0
M  V30 3481 H 313.379 -2.1788 -2.0535 0
M  V30 3482 H 310.925 -1.04891 -0.986605 0
M  V30 3483 H 312.878 -0.886678 -4.11966 0
M  V30 3484 H 311.602 0.0163404 -3.26596 0
M  V30 3485 H 310.261 -2.10012 -3.00484 0
M  V30 3486 H 309.909 -0.622107 -4.99138 0
M  V30 3487 H 309.609 -2.33143 -5.39368 0
M  V30 3488 H 311.133 -1.55201 -5.90546 0
M  V30 3489 H 312.547 -3.4145 -4.60526 0
M  V30 3490 H 310.944 -4.1559 -4.32903 0
M  V30 3491 H 312.014 -3.84903 -2.94919 0
M  V30 3492 N 313.357 1.07166 -1.15556 0
M  V30 3493 C 314.582 1.84053 -0.955988 0
M  V30 3494 C 315.007 1.81586 0.490739 0
M  V30 3495 O 314.365 1.21018 1.34997 0
M  V30 3496 C 314.413 3.28957 -1.47714 0
M  V30 3497 O 313.517 4.06795 -0.677593 0
M  V30 3498 H 312.858 0.569842 -0.340847 0
M  V30 3499 H 315.388 1.35178 -1.53584 0
M  V30 3500 H 315.398 3.79788 -1.4908 0
M  V30 3501 H 314.073 3.30068 -2.53037 0
M  V30 3502 H 312.65 3.6561 -0.733721 0
M  V30 3503 N 314.835 0.952656 1.25548 0
M  V30 3504 C 315.783 0.462354 2.27958 0
M  V30 3505 C 316.777 -0.46634 1.62855 0
M  V30 3506 O 317.983 -0.343287 1.76696 0
M  V30 3507 H 314.358 0.13101 0.7405 0
M  V30 3508 H 316.329 1.33839 2.66702 0
M  V30 3509 C 315.078 -0.24628 3.46827 0
M  V30 3510 H 314.401 0.459192 3.97154 0
M  V30 3511 H 315.841 -0.553393 4.20373 0
M  V30 3512 C 314.3 -1.4681 3.0323 0
M  V30 3513 O 314.83 -2.56591 3.09069 0
M  V30 3514 N 313.036 -1.32874 2.58443 0
M  V30 3515 H 312.583 -0.435536 2.53891 0
M  V30 3516 H 312.541 -2.14742 2.29637 0
M  V30 3517 N 316.313 -1.40141 0.720998 0
M  V30 3518 C 317.538 -2.05618 0.271258 0
M  V30 3519 C 317.963 -1.53978 -1.08039 0
M  V30 3520 O 317.321 -0.677463 -1.68167 0
M  V30 3521 C 317.369 -3.59609 0.267197 0
M  V30 3522 O 316.473 -4.05526 -0.749814 0
M  V30 3523 H 315.814 -0.651904 0.126162 0
M  V30 3524 H 318.344 -1.79439 0.982997 0
M  V30 3525 H 318.354 -4.0786 0.106744 0
M  V30 3526 H 317.029 -3.96559 1.25354 0
M  V30 3527 H 315.606 -3.68722 -0.556644 0
M  V30 3528 N 317.792 -0.46758 -1.50504 0
M  V30 3529 C 318.739 0.328413 -2.28452 0
M  V30 3530 C 319.709 0.990313 -1.33349 0
M  V30 3531 O 320.894 1.00343 -1.62284 0
M  V30 3532 C 318.034 1.40648 -3.15138 0
M  V30 3533 C 317.147 0.759709 -4.25267 0
M  V30 3534 C 316.282 1.81537 -4.99217 0
M  V30 3535 C 315.321 1.14866 -6.01226 0
M  V30 3536 N 314.458 2.14702 -6.68467 0
M  V30 3537 H 319.298 -0.342603 -2.96024 0
M  V30 3538 H 316.835 -0.180801 -1.45985 0
M  V30 3539 H 318.793 2.04315 -3.63746 0
M  V30 3540 H 317.423 2.04671 -2.49619 0
M  V30 3541 H 316.475 0.0105671 -3.80399 0
M  V30 3542 H 317.787 0.233243 -4.98254 0
M  V30 3543 H 316.941 2.52793 -5.51526 0
M  V30 3544 H 315.68 2.37564 -4.25928 0
M  V30 3545 H 314.685 0.42171 -5.4818 0
M  V30 3546 H 315.91 0.595334 -6.76485 0
M  V30 3547 H 313.856 2.69752 -5.97972 0
M  V30 3548 H 313.773 1.6703 -7.37317 0
M  V30 3549 H 315.041 2.85348 -7.25394 0
M  V30 3550 N 319.27 1.56325 -0.20005 0
M  V30 3551 C 320.18 2.22931 0.730668 0
M  V30 3552 C 321.196 1.22997 1.23076 0
M  V30 3553 O 322.372 1.55748 1.27689 0
M  V30 3554 C 319.437 2.87948 1.93098 0
M  V30 3555 C 318.498 4.03166 1.47497 0
M  V30 3556 C 317.731 4.65073 2.61807 0
M  V30 3557 O 317.954 4.25913 3.79413 0
M  V30 3558 O 316.888 5.54452 2.34237 0
M  V30 3559 H 320.714 3.03084 0.193391 0
M  V30 3560 H 318.299 1.49371 0.0294621 0
M  V30 3561 H 320.181 3.29063 2.6324 0
M  V30 3562 H 318.856 2.10771 2.45677 0
M  V30 3563 H 317.763 3.66664 0.742201 0
M  V30 3564 H 319.096 4.82022 0.995796 0
M  V30 3565 N 320.748 -0.0735177 1.57428 0
M  V30 3566 C 321.976 -0.785969 1.9139 0
M  V30 3567 C 322.391 -1.71207 0.795847 0
M  V30 3568 O 321.748 -1.81033 -0.230915 0
M  V30 3569 C 321.799 -1.58107 3.25091 0
M  V30 3570 O 321.52 -0.6922 4.32597 0
M  V30 3571 C 323.021 -2.39467 3.73055 0
M  V30 3572 H 320.241 -0.223558 0.632663 0
M  V30 3573 H 322.785 -0.044302 2.04452 0
M  V30 3574 H 320.94 -2.27503 3.13562 0
M  V30 3575 H 321.354 -1.24504 5.09508 0
M  V30 3576 H 322.828 -2.90716 4.69242 0
M  V30 3577 H 323.305 -3.18913 3.01979 0
M  V30 3578 H 323.911 -1.7523 3.87523 0
M  V30 3579 N 322.226 -1.5378 -0.344866 0
M  V30 3580 C 323.474 -1.70625 -1.08311 0
M  V30 3581 C 323.795 -0.471447 -1.89215 0
M  V30 3582 O 323.065 0.514616 -1.8902 0
M  V30 3583 H 321.645 -0.629058 -0.402859 0
M  V30 3584 H 324.307 -1.9103 -0.386459 0
M  V30 3585 H 323.403 -2.57656 -1.76124 0
M  V30 3586 N 323.704 0.605807 -1.45491 0
M  V30 3587 C 324.667 1.69836 -1.5391 0
M  V30 3588 C 325.667 1.55261 -0.418424 0
M  V30 3589 O 326.857 1.60296 -0.681965 0
M  V30 3590 C 323.989 3.09117 -1.43734 0
M  V30 3591 H 325.182 1.63738 -2.51257 0
M  V30 3592 H 322.735 0.821689 -1.32959 0
M  V30 3593 H 323.47 3.20791 -0.475788 0
M  V30 3594 H 323.255 3.21104 -2.25021 0
M  V30 3595 H 324.745 3.88696 -1.52661 0
M  V30 3596 N 325.182 1.32811 0.848464 0
M  V30 3597 C 326.429 1.23724 1.60308 0
M  V30 3598 C 326.757 -0.1994 1.93475 0
M  V30 3599 O 326.012 -1.15406 1.5805 0
M  V30 3600 C 326.311 2.04831 2.92881 0
M  V30 3601 C 325.977 3.54125 2.79117 0
M  V30 3602 C 324.639 3.94829 2.7507 0
M  V30 3603 C 326.991 4.49036 2.64606 0
M  V30 3604 C 324.319 5.28675 2.544 0
M  V30 3605 C 326.671 5.83033 2.4547 0
M  V30 3606 C 325.335 6.22931 2.39819 0
M  V30 3607 H 324.605 0.452737 0.586609 0
M  V30 3608 H 327.252 1.64301 0.983743 0
M  V30 3609 H 325.557 1.57001 3.58968 0
M  V30 3610 H 327.254 1.95164 3.50303 0
M  V30 3611 H 323.844 3.21801 2.83094 0
M  V30 3612 H 328.028 4.18505 2.66772 0
M  V30 3613 H 323.284 5.58637 2.48465 0
M  V30 3614 H 327.458 6.56186 2.33222 0
M  V30 3615 H 325.085 7.26584 2.23562 0
M  V30 3616 N 326.66 -1.06551 1.16123 0
M  V30 3617 C 327.89 -1.8274 0.963838 0
M  V30 3618 C 328.298 -1.82712 -0.491228 0
M  V30 3619 O 327.641 -1.24294 -1.35265 0
M  V30 3620 C 327.703 -3.3065 1.41106 0
M  V30 3621 C 327.367 -3.54384 2.88549 0
M  V30 3622 C 328.364 -3.4765 3.86569 0
M  V30 3623 C 326.049 -3.81789 3.26408 0
M  V30 3624 C 328.043 -3.67982 5.2045 0
M  V30 3625 C 325.73 -4.01772 4.60459 0
M  V30 3626 C 326.728 -3.94866 5.57288 0
M  V30 3627 O 326.416 -4.14306 6.88916 0
M  V30 3628 H 326.148 -0.583136 0.341948 0
M  V30 3629 H 328.702 -1.35351 1.54497 0
M  V30 3630 H 326.932 -3.78887 0.773394 0
M  V30 3631 H 328.621 -3.88324 1.1815 0
M  V30 3632 H 329.387 -3.2647 3.58667 0
M  V30 3633 H 325.266 -3.86276 2.51619 0
M  V30 3634 H 328.81 -3.62507 5.96015 0
M  V30 3635 H 324.707 -4.2244 4.88072 0
M  V30 3636 H 325.475 -4.31609 6.95454 0
M  V30 3637 N 328.138 -0.959301 -1.25041 0
M  V30 3638 C 329.386 -0.615393 -1.92503 0
M  V30 3639 C 329.707 0.850969 -1.75452 0
M  V30 3640 O 328.977 1.60658 -1.12098 0
M  V30 3641 H 327.557 -0.224613 -0.712431 0
M  V30 3642 H 330.219 -1.21855 -1.5211 0
M  V30 3643 H 329.315 -0.848738 -3.00338 0
M  V30 3644 N 329.616 1.39756 -0.72842 0
M  V30 3645 C 331.032 1.5442 -0.403308 0
M  V30 3646 C 331.232 1.69694 1.08656 0
M  V30 3647 O 330.288 1.69373 1.87267 0
M  V30 3648 C 331.601 2.76555 -1.18058 0
M  V30 3649 C 333.149 2.90384 -1.16815 0
M  V30 3650 C 333.624 4.15449 -1.92785 0
M  V30 3651 N 335.115 4.22475 -1.89918 0
M  V30 3652 C 335.85 5.1818 -2.45514 0
M  V30 3653 N 335.346 6.19714 -3.09719 0
M  V30 3654 N 337.139 5.1035 -2.35584 0
M  V30 3655 H 329.29 1.28089 -1.69431 0
M  V30 3656 H 331.553 0.620327 -0.716867 0
M  V30 3657 H 331.259 2.7159 -2.23455 0
M  V30 3658 H 331.133 3.69033 -0.780662 0
M  V30 3659 H 333.52 2.94846 -0.12234 0
M  V30 3660 H 333.601 1.98988 -1.6074 0
M  V30 3661 H 333.245 4.11749 -2.97364 0
M  V30 3662 H 333.175 5.05877 -1.46272 0
M  V30 3663 H 335.666 3.49743 -1.43138 0
M  V30 3664 H 335.979 6.8919 -3.49625 0
M  V30 3665 H 334.324 6.20121 -3.13807 0
M  V30 3666 H 337.515 4.2996 -1.85072 0
M  V30 3667 H 337.688 5.84761 -2.79211 0
M  V30 3668 N 331.094 0.475555 1.50254 0
M  V30 3669 C 332.004 -0.321501 2.32387 0
M  V30 3670 C 333.02 -0.991755 1.42969 0
M  V30 3671 O 334.196 -0.978747 1.76018 0
M  V30 3672 C 331.261 -1.38667 3.17762 0
M  V30 3673 C 330.322 -0.732538 4.23004 0
M  V30 3674 C 329.555 -1.74695 5.04299 0
M  V30 3675 O 329.778 -2.97399 4.86734 0
M  V30 3676 O 328.712 -1.31631 5.8733 0
M  V30 3677 H 332.538 0.350071 3.01676 0
M  V30 3678 H 330.123 0.237321 1.47503 0
M  V30 3679 H 332.005 -2.00354 3.70724 0
M  V30 3680 H 330.68 -2.04163 2.51196 0
M  V30 3681 H 329.587 -0.0765902 3.74022 0
M  V30 3682 H 330.92 -0.120452 4.92053 0
M  V30 3683 N 332.573 -1.56217 0.208337 0
M  V30 3684 C 333.82 -1.97949 -0.42692 0
M  V30 3685 C 334.148 -1.09562 -1.60706 0
M  V30 3686 O 333.403 -0.137616 -1.95216 0
M  V30 3687 C 333.702 -3.45441 -0.916797 0
M  V30 3688 C 333.368 -4.50646 0.151391 0
M  V30 3689 C 332.03 -4.79139 0.444867 0
M  V30 3690 C 334.382 -5.13811 0.874492 0
M  V30 3691 C 331.71 -5.68084 1.46619 0
M  V30 3692 C 334.062 -6.03861 1.88506 0
M  V30 3693 C 332.726 -6.30704 2.18559 0
M  V30 3694 H 331.996 -0.724345 -0.156221 0
M  V30 3695 H 334.643 -1.89006 0.308084 0
M  V30 3696 H 332.948 -3.51521 -1.73032 0
M  V30 3697 H 334.645 -3.75094 -1.41794 0
M  V30 3698 H 331.235 -4.28511 -0.0875068 0
M  V30 3699 H 335.419 -4.91879 0.660996 0
M  V30 3700 H 330.675 -5.87151 1.7048 0
M  V30 3701 H 334.849 -6.51861 2.45051 0
M  V30 3702 H 332.476 -6.99424 2.97843 0
M  V30 3703 N 334.051 0.0651679 -1.57465 0
M  V30 3704 C 334.998 1.07675 -2.04144 0
M  V30 3705 C 335.968 1.38071 -0.923335 0
M  V30 3706 O 337.153 1.49026 -1.19146 0
M  V30 3707 C 334.293 2.38337 -2.49579 0
M  V30 3708 C 333.406 2.14413 -3.75035 0
M  V30 3709 C 332.541 3.38686 -4.09225 0
M  V30 3710 C 331.58 3.10156 -5.27702 0
M  V30 3711 N 330.717 4.26778 -5.57499 0
M  V30 3712 H 335.557 0.671716 -2.90331 0
M  V30 3713 H 333.094 0.3201 -1.43575 0
M  V30 3714 H 335.052 3.14632 -2.73975 0
M  V30 3715 H 333.682 2.7663 -1.6636 0
M  V30 3716 H 332.734 1.2878 -3.57939 0
M  V30 3717 H 334.046 1.89344 -4.61466 0
M  V30 3718 H 333.2 4.23373 -4.34558 0
M  V30 3719 H 331.939 3.66837 -3.21374 0
M  V30 3720 H 330.944 2.23866 -5.02159 0
M  V30 3721 H 332.169 2.8332 -6.17176 0
M  V30 3722 H 330.115 4.54948 -4.72608 0
M  V30 3723 H 330.032 4.05005 -6.38362 0
M  V30 3724 H 331.3 5.12443 -5.87386 0
M  V30 3725 N 335.529 1.53961 0.336706 0
M  V30 3726 C 336.757 1.75483 1.09605 0
M  V30 3727 C 337.172 0.4972 1.82136 0
M  V30 3728 O 336.529 -0.53149 1.74589 0
M  V30 3729 C 336.58 2.93943 2.10428 0
M  V30 3730 O 336.301 4.14842 1.40846 0
M  V30 3731 C 337.802 3.27571 2.98684 0
M  V30 3732 H 335.022 0.586166 0.326574 0
M  V30 3733 H 337.566 2.00808 0.38683 0
M  V30 3734 H 335.721 2.70929 2.76905 0
M  V30 3735 H 336.135 4.81383 2.08255 0
M  V30 3736 H 337.609 4.13791 3.6535 0
M  V30 3737 H 338.086 2.44168 3.65074 0
M  V30 3738 H 338.692 3.52615 2.37787 0
M  V30 3739 N 337.007 -0.598083 1.45811 0
M  V30 3740 C 337.97 -1.69018 1.54808 0
M  V30 3741 C 338.97 -1.55037 0.426652 0
M  V30 3742 O 340.16 -1.59932 0.690456 0
M  V30 3743 C 337.292 -3.0835 1.45371 0
M  V30 3744 H 338.485 -1.62403 2.52121 0
M  V30 3745 H 336.038 -0.814626 1.33392 0
M  V30 3746 H 336.773 -3.20534 0.492793 0
M  V30 3747 H 336.558 -3.19907 2.26721 0
M  V30 3748 H 338.048 -3.8788 1.54721 0
M  V30 3749 N 338.485 -1.33259 -0.841409 0
M  V30 3750 C 339.432 -1.23302 -1.95103 0
M  V30 3751 C 340.402 -0.112204 -1.65721 0
M  V30 3752 O 341.587 -0.290038 -1.88583 0
M  V30 3753 C 338.727 -0.975583 -3.31023 0
M  V30 3754 C 337.84 -2.18243 -3.72819 0
M  V30 3755 C 336.975 -1.85936 -4.97595 0
M  V30 3756 C 336.014 -3.02866 -5.3192 0
M  V30 3757 N 335.151 -2.70565 -6.47873 0
M  V30 3758 H 339.991 -2.18207 -2.02952 0
M  V30 3759 H 337.528 -1.0851 -0.993173 0
M  V30 3760 H 339.486 -0.80677 -4.09325 0
M  V30 3761 H 338.116 -0.0632755 -3.22738 0
M  V30 3762 H 337.168 -2.46107 -2.90061 0
M  V30 3763 H 338.48 -3.05666 -3.94169 0
M  V30 3764 H 337.634 -1.65684 -5.83638 0
M  V30 3765 H 336.373 -0.957452 -4.78209 0
M  V30 3766 H 335.378 -3.23736 -4.44382 0
M  V30 3767 H 336.603 -3.93809 -5.53255 0
M  V30 3768 H 334.549 -1.8293 -6.29978 0
M  V30 3769 H 334.466 -3.51519 -6.69306 0
M  V30 3770 H 335.734 -2.53774 -7.37034 0
M  V30 3771 N 339.963 1.05934 -1.16686 0
M  V30 3772 C 341.188 1.83029 -0.975455 0
M  V30 3773 C 341.613 1.82096 0.471452 0
M  V30 3774 O 340.971 1.22443 1.33706 0
M  V30 3775 C 341.019 3.27372 -1.51195 0
M  V30 3776 O 340.123 4.06054 -0.720701 0
M  V30 3777 H 339.464 0.566194 -0.346872 0
M  V30 3778 H 341.994 1.33541 -1.55009 0
M  V30 3779 H 342.004 3.78186 -1.53099 0
M  V30 3780 H 340.679 3.27366 -2.56523 0
M  V30 3781 H 339.256 3.64812 -0.772458 0
M  V30 3782 N 341.441 0.965919 1.2453 0
M  V30 3783 C 342.371 0.513476 2.27784 0
M  V30 3784 C 343.352 -0.445974 1.6415 0
M  V30 3785 O 344.537 -0.342485 1.91156 0
M  V30 3786 C 341.667 -0.198839 3.4673 0
M  V30 3787 C 340.621 0.676456 4.2262 0
M  V30 3788 C 339.947 -0.167248 5.34438 0
M  V30 3789 C 341.247 1.96017 4.84123 0
M  V30 3790 H 342.941 1.3765 2.65881 0
M  V30 3791 H 340.487 0.663321 1.27813 0
M  V30 3792 H 342.44 -0.526567 4.18097 0
M  V30 3793 H 341.164 -1.0962 3.07654 0
M  V30 3794 H 339.823 0.98743 3.53052 0
M  V30 3795 H 339.471 -1.0647 4.91603 0
M  V30 3796 H 339.171 0.415181 5.86131 0
M  V30 3797 H 340.695 -0.489688 6.08633 0
M  V30 3798 H 342.109 1.69814 5.47573 0
M  V30 3799 H 340.506 2.48918 5.4604 0
M  V30 3800 H 341.576 2.65622 4.05676 0
M  V30 3801 N 342.919 -1.39368 0.735821 0
M  V30 3802 C 344.166 -2.00497 0.284123 0
M  V30 3803 C 344.494 -1.58387 -1.12889 0
M  V30 3804 O 343.749 -0.804359 -1.78406 0
M  V30 3805 C 344.048 -3.5583 0.334651 0
M  V30 3806 C 343.714 -4.17593 1.7008 0
M  V30 3807 C 342.376 -4.34176 2.07472 0
M  V30 3808 C 344.728 -4.51848 2.59775 0
M  V30 3809 C 342.056 -4.82304 3.34065 0
M  V30 3810 C 344.408 -5.01384 3.85741 0
M  V30 3811 C 343.072 -5.16175 4.23225 0
M  V30 3812 H 342.342 -0.73367 0.103968 0
M  V30 3813 H 344.989 -1.66683 0.942825 0
M  V30 3814 H 343.294 -3.89674 -0.407625 0
M  V30 3815 H 344.991 -4.00986 -0.0329927 0
M  V30 3816 H 341.581 -4.05087 1.40008 0
M  V30 3817 H 345.765 -4.38653 2.32157 0
M  V30 3818 H 341.021 -4.91941 3.63049 0
M  V30 3819 H 345.195 -5.26863 4.55399 0
M  V30 3820 H 342.822 -5.5323 5.21384 0
M  V30 3821 N 344.397 -0.483516 -1.5 0
M  V30 3822 C 345.327 0.293829 -2.31644 0
M  V30 3823 C 346.308 0.978864 -1.39112 0
M  V30 3824 O 347.493 0.973644 -1.68029 0
M  V30 3825 C 344.623 1.36897 -3.19181 0
M  V30 3826 C 343.577 0.804833 -4.20365 0
M  V30 3827 C 342.903 1.9792 -4.96721 0
M  V30 3828 C 344.203 -0.192313 -5.21946 0
M  V30 3829 H 345.897 -0.387616 -2.9688 0
M  V30 3830 H 343.443 -0.187856 -1.42769 0
M  V30 3831 H 345.396 1.92037 -3.751 0
M  V30 3832 H 344.12 2.07936 -2.51853 0
M  V30 3833 H 342.779 0.275319 -3.65565 0
M  V30 3834 H 342.427 2.67686 -4.25856 0
M  V30 3835 H 342.127 1.60789 -5.65173 0
M  V30 3836 H 343.651 2.53526 -5.55479 0
M  V30 3837 H 345.065 0.270333 -5.72662 0
M  V30 3838 H 343.462 -0.478543 -5.98189 0
M  V30 3839 H 344.532 -1.11409 -4.71928 0
M  V30 3840 N 345.875 1.56104 -0.216619 0
M  V30 3841 C 347.121 1.98466 0.417033 0
M  V30 3842 C 347.454 1.10403 1.59765 0
M  V30 3843 O 346.729 0.160632 1.93836 0
M  V30 3844 C 347.012 3.49769 0.85637 0
M  V30 3845 C 346.865 4.48606 -0.327546 0
M  V30 3846 C 348.184 4.05339 1.7143 0
M  V30 3847 H 345.303 0.721551 0.150112 0
M  V30 3848 H 347.945 1.87423 -0.311864 0
M  V30 3849 H 346.095 3.5931 1.47745 0
M  V30 3850 H 347.767 4.5108 -0.965618 0
M  V30 3851 H 346.01 4.22682 -0.975805 0
M  V30 3852 H 346.681 5.51995 0.0227149 0
M  V30 3853 H 349.157 3.98712 1.19031 0
M  V30 3854 H 348.033 5.11533 1.99061 0
M  V30 3855 H 348.294 3.51918 2.67593 0
M  V30 3856 N 347.353 -0.0568162 1.57498 0
M  V30 3857 C 348.283 -1.06593 2.0775 0
M  V30 3858 C 349.264 -1.39448 0.974082 0
M  V30 3859 O 350.449 -1.48815 1.24771 0
M  V30 3860 C 347.579 -2.37509 2.5339 0
M  V30 3861 C 346.533 -2.1897 3.67745 0
M  V30 3862 C 345.859 -3.55402 3.99492 0
M  V30 3863 C 347.159 -1.59859 4.97235 0
M  V30 3864 H 348.853 -0.647706 2.9231 0
M  V30 3865 H 346.399 -0.310116 1.40621 0
M  V30 3866 H 348.352 -3.08409 2.87162 0
M  V30 3867 H 347.076 -2.8134 1.65878 0
M  V30 3868 H 345.735 -1.50508 3.3428 0
M  V30 3869 H 345.383 -3.9683 3.09088 0
M  V30 3870 H 345.083 -3.43831 4.76502 0
M  V30 3871 H 346.607 -4.27708 4.35773 0
M  V30 3872 H 348.021 -2.20642 5.29141 0
M  V30 3873 H 346.418 -1.58942 5.78669 0
M  V30 3874 H 347.488 -0.561506 4.81638 0
M  V30 3875 N 348.832 -1.54138 -0.328536 0
M  V30 3876 C 350.079 -1.72105 -1.06706 0
M  V30 3877 C 350.407 -0.492111 -1.88171 0
M  V30 3878 O 349.662 0.526153 -1.88494 0
M  V30 3879 C 349.961 -2.9457 -2.02393 0
M  V30 3880 C 349.627 -4.29544 -1.37122 0
M  V30 3881 C 348.289 -4.6624 -1.19052 0
M  V30 3882 C 350.641 -5.1333 -0.902331 0
M  V30 3883 C 347.969 -5.84325 -0.527331 0
M  V30 3884 C 350.321 -6.32094 -0.252988 0
M  V30 3885 C 348.985 -6.67473 -0.0600901 0
M  V30 3886 H 348.255 -0.629775 -0.390466 0
M  V30 3887 H 350.902 -1.88372 -0.34473 0
M  V30 3888 H 349.207 -2.72969 -2.81061 0
M  V30 3889 H 350.904 -3.05665 -2.59557 0
M  V30 3890 H 347.494 -4.0067 -1.52188 0
M  V30 3891 H 351.678 -4.855 -1.02974 0
M  V30 3892 H 346.934 -6.103 -0.366634 0
M  V30 3893 H 351.108 -6.96299 0.118366 0
M  V30 3894 H 348.735 -7.58832 0.455828 0
M  V30 3895 N 350.31 0.590341 -1.46126 0
M  V30 3896 C 351.24 1.71032 -1.58966 0
M  V30 3897 C 352.221 1.64302 -0.440335 0
M  V30 3898 O 353.406 1.82436 -0.665634 0
M  V30 3899 C 350.536 3.09665 -1.57241 0
M  V30 3900 C 349.49 3.31221 -2.71066 0
M  V30 3901 C 348.816 4.70303 -2.54399 0
M  V30 3902 C 350.116 3.19796 -4.1295 0
M  V30 3903 H 351.81 1.60543 -2.52718 0
M  V30 3904 H 349.356 0.770933 -1.21625 0
M  V30 3905 H 351.309 3.87831 -1.64819 0
M  V30 3906 H 350.033 3.21036 -0.600289 0
M  V30 3907 H 348.692 2.55452 -2.62944 0
M  V30 3908 H 348.34 4.78429 -1.55288 0
M  V30 3909 H 348.04 4.85679 -3.30741 0
M  V30 3910 H 349.564 5.50647 -2.63857 0
M  V30 3911 H 350.978 3.87815 -4.22223 0
M  V30 3912 H 349.375 3.46696 -4.89818 0
M  V30 3913 H 350.445 2.16983 -4.33643 0
M  V30 3914 N 351.788 1.33704 0.83433 0
M  V30 3915 C 353.035 1.25417 1.58987 0
M  V30 3916 C 353.363 -0.178869 1.93676 0
M  V30 3917 O 352.618 -1.13723 1.59265 0
M  V30 3918 C 352.917 2.07926 2.90692 0
M  V30 3919 C 352.583 3.57066 2.75345 0
M  V30 3920 C 351.245 3.97724 2.70867 0
M  V30 3921 C 353.597 4.51817 2.59828 0
M  V30 3922 C 350.925 5.31344 2.48778 0
M  V30 3923 C 353.277 5.85604 2.39272 0
M  V30 3924 C 351.941 6.25439 2.33199 0
M  V30 3925 H 351.211 0.458934 0.581774 0
M  V30 3926 H 353.858 1.65335 0.966261 0
M  V30 3927 H 352.163 1.608 3.57282 0
M  V30 3928 H 353.86 1.98868 3.48213 0
M  V30 3929 H 350.45 3.24785 2.79665 0
M  V30 3930 H 354.634 4.21311 2.62319 0
M  V30 3931 H 349.89 5.61241 2.42526 0
M  V30 3932 H 354.064 6.58623 2.2625 0
M  V30 3933 H 351.691 7.28914 2.15843 0
M  V30 3934 N 353.266 -1.05314 1.17247 0
M  V30 3935 C 354.229 -2.112 0.890357 0
M  V30 3936 C 355.229 -1.60359 -0.118943 0
M  V30 3937 O 356.419 -1.73833 0.113086 0
M  V30 3938 C 353.551 -3.39266 0.333422 0
M  V30 3939 H 354.744 -2.37659 1.82916 0
M  V30 3940 H 352.297 -1.21538 0.982758 0
M  V30 3941 H 353.032 -3.18462 -0.612587 0
M  V30 3942 H 352.817 -3.77477 1.06082 0
M  V30 3943 H 354.307 -4.17315 0.154322 0
M  V30 3944 N 354.744 -0.972509 -1.24016 0
M  V30 3945 C 355.674 -0.525548 -2.27509 0
M  V30 3946 C 356.655 0.437262 -1.64384 0
M  V30 3947 O 357.84 0.332343 -1.91335 0
M  V30 3948 C 354.97 0.180448 -3.46831 0
M  V30 3949 C 353.924 -0.698859 -4.22256 0
M  V30 3950 C 353.25 0.138903 -5.3452 0
M  V30 3951 C 354.55 -1.98582 -4.83076 0
M  V30 3952 H 356.244 -1.39058 -2.65148 0
M  V30 3953 H 353.79 -0.67009 -1.27459 0
M  V30 3954 H 355.743 0.504387 -4.18371 0
M  V30 3955 H 354.467 1.07987 -3.08231 0
M  V30 3956 H 353.126 -1.00614 -3.52523 0
M  V30 3957 H 352.774 1.03862 -4.9216 0
M  V30 3958 H 352.474 -0.446259 -5.85903 0
M  V30 3959 H 353.998 0.457404 -6.08884 0
M  V30 3960 H 355.412 -1.72715 -5.46665 0
M  V30 3961 H 353.809 -2.5181 -5.44713 0
M  V30 3962 H 354.879 -2.67769 -4.04262 0
M  V30 3963 N 356.222 1.38976 -0.743202 0
M  V30 3964 C 357.447 2.05161 -0.303936 0
M  V30 3965 C 357.872 1.55677 1.05576 0
M  V30 3966 O 357.23 0.704131 1.67068 0
M  V30 3967 C 357.278 3.59138 -0.324373 0
M  V30 3968 O 356.382 4.06668 0.685204 0
M  V30 3969 H 355.723 0.649815 -0.136518 0
M  V30 3970 H 358.253 1.77852 -1.01142 0
M  V30 3971 H 358.263 4.07639 -0.171618 0
M  V30 3972 H 356.938 3.94515 -1.31647 0
M  V30 3973 H 355.515 3.69561 0.497913 0
M  V30 3974 N 357.7 0.491464 1.49741 0
M  V30 3975 C 358.946 -0.0485431 2.03342 0
M  V30 3976 C 359.301 -1.35566 1.36527 0
M  V30 3977 O 358.594 -1.85262 0.488729 0
M  V30 3978 C 358.788 -0.267329 3.56399 0
M  V30 3979 C 358.617 1.01703 4.38049 0
M  V30 3980 C 357.387 1.56614 4.80417 0
M  V30 3981 C 359.585 1.91782 4.77204 0
M  V30 3982 N 357.567 2.7974 5.4646 0
M  V30 3983 C 358.938 2.99489 5.42868 0
M  V30 3984 C 360.993 1.92575 4.5915 0
M  V30 3985 C 359.696 4.08005 5.92389 0
M  V30 3986 C 361.722 3.0006 5.09626 0
M  V30 3987 C 361.084 4.06485 5.75282 0
M  V30 3988 H 357.183 0.0227779 0.781668 0
M  V30 3989 H 359.767 0.664204 1.8302 0
M  V30 3990 H 357.938 -0.949126 3.76625 0
M  V30 3991 H 359.67 -0.803492 3.96644 0
M  V30 3992 H 356.425 1.11256 4.60347 0
M  V30 3993 H 356.849 3.42323 5.84075 0
M  V30 3994 H 361.491 1.11605 4.07804 0
M  V30 3995 H 359.209 4.89779 6.42761 0
M  V30 3996 H 362.795 3.01681 4.97473 0
M  V30 3997 H 361.675 4.88287 6.13633 0
M  V30 3998 N 359.178 -1.55987 0.224894 0
M  V30 3999 C 360.108 -2.23426 -0.678457 0
M  V30 4000 C 361.089 -1.20709 -1.19847 0
M  V30 4001 O 362.274 -1.49304 -1.24186 0
M  V30 4002 C 359.404 -2.91676 -1.88527 0
M  V30 4003 C 358.358 -4.00893 -1.49896 0
M  V30 4004 C 357.684 -4.56455 -2.78483 0
M  V30 4005 C 358.984 -5.17769 -0.686461 0
M  V30 4006 H 360.678 -2.99175 -0.116173 0
M  V30 4007 H 358.224 -1.43897 -0.054436 0
M  V30 4008 H 360.177 -3.37547 -2.5227 0
M  V30 4009 H 358.901 -2.1338 -2.47258 0
M  V30 4010 H 357.56 -3.55758 -0.884985 0
M  V30 4011 H 357.208 -3.74886 -3.35365 0
M  V30 4012 H 356.908 -5.30169 -2.53368 0
M  V30 4013 H 358.432 -5.05047 -3.43162 0
M  V30 4014 H 359.846 -5.60001 -1.22767 0
M  V30 4015 H 358.243 -5.97735 -0.532259 0
M  V30 4016 H 359.313 -4.83932 0.306196 0
M  V30 4017 N 360.656 0.0484629 -1.57525 0
M  V30 4018 C 362.067 0.597486 -1.76881 0
M  V30 4019 C 362.418 1.76664 -0.853475 0
M  V30 4020 O 361.543 2.16357 -0.0433656 0
M  V30 4021 C 362.138 1.09066 -3.20765 0
M  V30 4022 C 360.697 1.58535 -3.41385 0
M  V30 4023 C 359.844 0.514868 -2.72478 0
M  V30 4024 H 362.795 -0.177758 -1.57701 0
M  V30 4025 H 362.816 1.95875 -3.2621 0
M  V30 4026 H 362.328 0.239521 -3.8736 0
M  V30 4027 H 360.429 2.45898 -2.79937 0
M  V30 4028 H 360.542 1.64622 -4.49929 0
M  V30 4029 H 358.906 0.965407 -2.35695 0
M  V30 4030 H 359.689 -0.32648 -3.41744 0
M  V30 4031 N 362.134 1.5431 0.320358 0
M  V30 4032 C 363.064 1.86912 1.3995 0
M  V30 4033 C 364.045 0.726211 1.53819 0
M  V30 4034 O 365.23 0.980233 1.67646 0
M  V30 4035 C 362.36 2.09932 2.7667 0
M  V30 4036 C 361.314 3.25776 2.77586 0
M  V30 4037 C 360.64 3.34173 4.17412 0
M  V30 4038 C 361.94 4.6335 2.41048 0
M  V30 4039 H 363.634 2.77292 1.12914 0
M  V30 4040 H 361.18 1.33421 0.541738 0
M  V30 4041 H 363.133 2.31324 3.52232 0
M  V30 4042 H 361.857 1.16304 3.0519 0
M  V30 4043 H 360.516 3.04276 2.04479 0
M  V30 4044 H 360.164 2.38098 4.43078 0
M  V30 4045 H 359.864 4.12033 4.18931 0
M  V30 4046 H 361.388 3.57803 4.94782 0
M  V30 4047 H 362.802 4.84602 3.06324 0
M  V30 4048 H 361.199 5.43782 2.53813 0
M  V30 4049 H 362.269 4.65381 1.36193 0
M  V30 4050 N 363.613 -0.582584 1.46437 0
M  V30 4051 C 364.838 -1.37168 1.55563 0
M  V30 4052 C 365.263 -1.87061 0.19743 0
M  V30 4053 O 364.621 -1.61572 -0.822451 0
M  V30 4054 C 364.669 -2.53511 2.56446 0
M  V30 4055 O 363.773 -3.54953 2.09958 0
M  V30 4056 H 363.114 -0.408494 0.523477 0
M  V30 4057 H 365.644 -0.706646 1.9201 0
M  V30 4058 H 365.654 -3.00426 2.76058 0
M  V30 4059 H 364.329 -2.16549 3.55076 0
M  V30 4060 H 362.906 -3.14516 2.00334 0
M  V30 4061 N 365.091 -1.34144 -0.827227 0
M  V30 4062 C 366.34 -1.25602 -1.5782 0
M  V30 4063 C 366.653 0.173445 -1.94829 0
M  V30 4064 O 367.859 0.380984 -2.68814 0
M  V30 4065 C 366.315 -2.20151 -2.84713 0
M  V30 4066 C 365.923 -3.68331 -2.55021 0
M  V30 4067 C 367.667 -2.20508 -3.62735 0
M  V30 4068 C 365.574 -4.54762 -3.78082 0
M  V30 4069 H 364.504 -0.466573 -0.592306 0
M  V30 4070 H 367.155 -1.59283 -0.911116 0
M  V30 4071 H 365.537 -1.79417 -3.53023 0
M  V30 4072 H 366.711 -4.17577 -1.94849 0
M  V30 4073 H 365.026 -3.7038 -1.90283 0
M  V30 4074 H 367.623 -2.82306 -4.54101 0
M  V30 4075 H 367.966 -1.20322 -3.98533 0
M  V30 4076 H 368.499 -2.59664 -3.01362 0
M  V30 4077 H 365.238 -5.55867 -3.47407 0
M  V30 4078 H 364.758 -4.10254 -4.37552 0
M  V30 4079 H 366.437 -4.69153 -4.45538 0
M  V30 4080 N 366.569 1.04691 -1.17803 0
M  V30 4081 C 367.818 1.77176 -0.963931 0
M  V30 4082 C 368.131 1.88888 0.508015 0
M  V30 4083 O 369.337 2.58164 0.840465 0
M  V30 4084 C 367.793 3.18518 -1.67555 0
M  V30 4085 C 367.401 3.14919 -3.18637 0
M  V30 4086 C 369.145 3.95424 -1.54402 0
M  V30 4087 C 367.052 4.51081 -3.82466 0
M  V30 4088 H 365.982 0.664116 -0.357023 0
M  V30 4089 H 368.633 1.17303 -1.4111 0
M  V30 4090 H 367.015 3.78748 -1.15613 0
M  V30 4091 H 368.189 2.64178 -3.77554 0
M  V30 4092 H 366.504 2.51512 -3.31859 0
M  V30 4093 H 369.101 4.96106 -1.99456 0
M  V30 4094 H 369.444 4.13343 -0.495329 0
M  V30 4095 H 369.977 3.41754 -2.0359 0
M  V30 4096 H 366.716 4.38368 -4.87354 0
M  V30 4097 H 366.236 5.01951 -3.28337 0
M  V30 4098 H 367.915 5.2001 -3.84965 0
M  V30 4099 N 368.047 0.979072 1.23499 0
M  V30 4100 C 368.995 0.510604 2.26926 0
M  V30 4101 C 369.989 -0.431691 1.63807 0
M  V30 4102 O 371.195 -0.30573 1.77385 0
M  V30 4103 H 367.57 0.146688 0.737554 0
M  V30 4104 H 369.541 1.39466 2.63803 0
M  V30 4105 C 368.29 -0.172658 3.47271 0
M  V30 4106 H 367.613 0.543331 3.96091 0
M  V30 4107 H 369.053 -0.464101 4.21452 0
M  V30 4108 C 367.512 -1.40345 3.06276 0
M  V30 4109 O 368.042 -2.49978 3.14442 0
M  V30 4110 N 366.248 -1.27362 2.61203 0
M  V30 4111 H 365.795 -0.381584 2.54758 0
M  V30 4112 H 365.753 -2.09822 2.34141 0
M  V30 4113 N 369.525 -1.3858 0.750561 0
M  V30 4114 C 370.765 -2.02032 0.310258 0
M  V30 4115 C 371.129 -1.58288 -1.08668 0
M  V30 4116 O 372.33 -2.14049 -1.62593 0
M  V30 4117 C 370.601 -3.54856 0.425647 0
M  V30 4118 S 372.16 -4.38748 0.0674797 0
M  V30 4119 H 368.978 -0.700705 0.120554 0
M  V30 4120 H 371.58 -1.69134 0.980512 0
M  V30 4121 H 370.284 -3.84182 1.44335 0
M  V30 4122 H 369.815 -3.92527 -0.261894 0
M  V30 4123 H 371.83 -4.82835 -1.14388 0
M  V30 4124 N 371.003 -0.499398 -1.49478 0
M  V30 4125 C 372.252 0.0475259 -2.01644 0
M  V30 4126 C 372.565 1.38195 -1.38425 0
M  V30 4127 O 373.771 2.01547 -1.8191 0
M  V30 4128 C 372.227 0.135164 -3.59646 0
M  V30 4129 C 371.835 -1.19252 -4.31837 0
M  V30 4130 C 373.579 0.632538 -4.19761 0
M  V30 4131 C 371.486 -1.06713 -5.81693 0
M  V30 4132 H 370.416 0.0215349 -0.753692 0
M  V30 4133 H 373.067 -0.638577 -1.7203 0
M  V30 4134 H 371.449 0.885681 -3.85969 0
M  V30 4135 H 372.623 -1.9562 -4.17216 0
M  V30 4136 H 370.938 -1.62321 -3.83459 0
M  V30 4137 H 373.535 0.743833 -5.29501 0
M  V30 4138 H 373.878 1.63098 -3.83021 0
M  V30 4139 H 374.411 -0.0613987 -3.97753 0
M  V30 4140 H 371.15 -2.03979 -6.22955 0
M  V30 4141 H 370.67 -0.344307 -5.98811 0
M  V30 4142 H 372.349 -0.745208 -6.42694 0
M  V30 4143 N 372.481 1.55866 -0.233164 0
M  V30 4144 C 373.73 1.97779 0.39579 0
M  V30 4145 C 374.043 1.12419 1.60066 0
M  V30 4146 O 375.249 1.44283 2.29988 0
M  V30 4147 C 373.705 3.5188 0.755556 0
M  V30 4148 C 373.313 4.45959 -0.427152 0
M  V30 4149 C 375.057 4.02479 1.34946 0
M  V30 4150 C 372.964 5.91383 -0.0443043 0
M  V30 4151 H 371.894 0.738592 0.15165 0
M  V30 4152 H 374.545 1.80486 -0.331212 0
M  V30 4153 H 372.927 3.64816 1.5403 0
M  V30 4154 H 374.101 4.44776 -1.20462 0
M  V30 4155 H 372.416 4.05765 -0.935068 0
M  V30 4156 H 375.013 5.08637 1.649 0
M  V30 4157 H 375.356 3.49014 2.26925 0
M  V30 4158 H 375.889 3.92813 0.62791 0
M  V30 4159 H 372.628 6.48857 -0.930874 0
M  V30 4160 H 372.148 5.95734 0.697238 0
M  V30 4161 H 373.827 6.45893 0.378334 0
M  V30 4162 N 373.959 -0.0401083 1.57549 0
M  V30 4163 C 375.189 -0.744115 1.92734 0
M  V30 4164 C 375.597 -1.70005 0.830348 0
M  V30 4165 O 374.94 -1.82576 -0.20286 0
M  V30 4166 C 375.002 -1.56516 3.2364 0
M  V30 4167 C 374.666 -0.7752 4.50377 0
M  V30 4168 C 375.663 -0.0803326 5.19838 0
M  V30 4169 C 373.348 -0.733002 4.96923 0
M  V30 4170 C 375.342 0.646154 6.34116 0
M  V30 4171 C 373.029 -0.00276321 6.111 0
M  V30 4172 C 374.027 0.685585 6.7955 0
M  V30 4173 O 373.715 1.40399 7.91545 0
M  V30 4174 H 373.447 -0.214861 0.640945 0
M  V30 4175 H 376.001 -0.00503675 2.05399 0
M  V30 4176 H 374.231 -2.3478 3.07271 0
M  V30 4177 H 375.92 -2.15076 3.44234 0
M  V30 4178 H 376.686 -0.104035 4.84888 0
M  V30 4179 H 372.565 -1.25827 4.43496 0
M  V30 4180 H 376.109 1.18398 6.87479 0
M  V30 4181 H 372.006 0.0229012 6.45496 0
M  V30 4182 H 372.774 1.31653 8.07843 0
M  V30 4183 N 375.437 -1.54477 -0.31217 0
M  V30 4184 C 376.684 -1.73227 -1.04875 0
M  V30 4185 C 377.012 -0.512042 -1.87639 0
M  V30 4186 O 376.267 0.506131 -1.89042 0
M  V30 4187 C 376.566 -2.967 -1.99258 0
M  V30 4188 C 376.232 -4.30974 -1.32559 0
M  V30 4189 C 374.894 -4.67477 -1.141 0
M  V30 4190 C 377.246 -5.14258 -0.847835 0
M  V30 4191 C 374.574 -5.84852 -0.465326 0
M  V30 4192 C 376.926 -6.32327 -0.185931 0
M  V30 4193 C 375.59 -6.67499 0.0107077 0
M  V30 4194 H 374.86 -0.633881 -0.383765 0
M  V30 4195 H 377.507 -1.88727 -0.324731 0
M  V30 4196 H 375.812 -2.75935 -2.7815 0
M  V30 4197 H 377.509 -3.08401 -2.563 0
M  V30 4198 H 374.099 -4.02262 -1.4793 0
M  V30 4199 H 378.283 -4.86565 -0.978192 0
M  V30 4200 H 373.539 -6.10654 -0.301883 0
M  V30 4201 H 377.713 -6.96135 0.192211 0
M  V30 4202 H 375.34 -7.58306 0.536287 0
M  V30 4203 N 376.915 0.57481 -1.46744 0
M  V30 4204 C 377.863 1.70435 -1.58286 0
M  V30 4205 C 378.857 1.63287 -0.450956 0
M  V30 4206 O 380.063 1.68685 -0.628121 0
M  V30 4207 H 376.438 0.56364 -0.497809 0
M  V30 4208 H 378.409 1.57833 -2.53242 0
M  V30 4209 C 377.158 3.08815 -1.59776 0
M  V30 4210 H 376.481 3.1499 -2.46214 0
M  V30 4211 H 377.921 3.87588 -1.71905 0
M  V30 4212 C 376.38 3.35301 -0.327812 0
M  V30 4213 O 376.91 3.97511 0.57861 0
M  V30 4214 N 375.116 2.89816 -0.213274 0
M  V30 4215 H 374.663 2.39371 -0.951798 0
M  V30 4216 H 374.621 3.0791 0.63553 0
M  V30 4217 N 378.394 1.34581 0.820102 0
M  V30 4218 C 379.642 1.26845 1.57336 0
M  V30 4219 C 379.963 -0.160667 1.94337 0
M  V30 4220 O 379.233 -1.09396 1.6251 0
M  V30 4221 H 377.813 0.466514 0.583415 0
M  V30 4222 H 380.475 1.68526 0.979027 0
M  V30 4223 H 379.571 1.87513 2.4949 0
M  V30 4224 N 379.872 -1.04064 1.18357 0
M  V30 4225 C 380.782 -2.15569 0.925596 0
M  V30 4226 C 381.798 -1.7365 -0.110295 0
M  V30 4227 O 382.974 -2.01273 0.0716218 0
M  V30 4228 C 380.039 -3.43704 0.454836 0
M  V30 4229 C 379.1 -4.00004 1.55869 0
M  V30 4230 C 378.333 -5.22023 1.1103 0
M  V30 4231 O 378.556 -5.70392 -0.0309756 0
M  V30 4232 O 377.49 -5.70856 1.90805 0
M  V30 4233 H 381.316 -2.40187 1.8586 0
M  V30 4234 H 378.901 -1.1402 0.965394 0
M  V30 4235 H 380.783 -4.20923 0.200382 0
M  V30 4236 H 379.458 -3.20559 -0.449876 0
M  V30 4237 H 378.365 -3.24172 1.86716 0
M  V30 4238 H 379.698 -4.2749 2.43953 0
M  V30 4239 N 381.35 -0.985608 -1.22978 0
M  V30 4240 C 382.596 -0.65836 -1.91816 0
M  V30 4241 C 382.929 0.806692 -1.76653 0
M  V30 4242 O 382.204 1.58252 -1.13078 0
M  V30 4243 C 382.487 -1.056 -3.44268 0
M  V30 4244 C 382.34 -2.57906 -3.68516 0
M  V30 4245 C 383.659 -0.603781 -4.35939 0
M  V30 4246 H 380.778 -0.24065 -0.696604 0
M  V30 4247 H 383.42 -1.22783 -1.44998 0
M  V30 4248 H 381.57 -0.571445 -3.84274 0
M  V30 4249 H 383.242 -3.13976 -3.3796 0
M  V30 4250 H 381.485 -3.00305 -3.13048 0
M  V30 4251 H 382.156 -2.80779 -4.75255 0
M  V30 4252 H 384.632 -1.01987 -4.03408 0
M  V30 4253 H 383.508 -0.910383 -5.41298 0
M  V30 4254 H 383.769 0.495761 -4.39312 0
M  V30 4255 N 382.828 1.3818 -0.7579 0
M  V30 4256 C 384.239 1.82726 -0.383134 0
M  V30 4257 C 384.59 1.63214 1.08884 0
M  V30 4258 O 383.715 1.13566 1.84205 0
M  V30 4259 C 384.31 3.31728 -0.688631 0
M  V30 4260 C 382.869 3.74606 -0.367091 0
M  V30 4261 C 382.016 2.60896 -0.939599 0
M  V30 4262 H 384.967 1.26847 -0.953699 0
M  V30 4263 H 384.988 3.80487 0.0316492 0
M  V30 4264 H 384.5 3.45898 -1.76001 0
M  V30 4265 H 382.601 3.66013 0.697532 0
M  V30 4266 H 382.714 4.71215 -0.865658 0
M  V30 4267 H 381.078 2.52075 -0.3647 0
M  V30 4268 H 381.861 2.77864 -2.0161 0
M  V30 4269 N 384.306 0.507319 1.49211 0
M  V30 4270 C 385.238 -0.304532 2.27168 0
M  V30 4271 C 386.251 -0.924956 1.33972 0
M  V30 4272 O 387.44 -0.807227 1.59205 0
M  V30 4273 C 384.54 -1.44431 3.06583 0
M  V30 4274 C 383.713 -0.930026 4.27398 0
M  V30 4275 C 382.772 -1.94817 4.88807 0
M  V30 4276 O 381.798 -1.51418 5.4869 0
M  V30 4277 N 383 -3.279 4.79022 0
M  V30 4278 H 385.765 0.36395 2.97482 0
M  V30 4279 H 383.326 0.340249 1.58284 0
M  V30 4280 H 385.318 -2.12311 3.44537 0
M  V30 4281 H 383.888 -2.01684 2.38835 0
M  V30 4282 H 383.108 -0.0759244 3.94127 0
M  V30 4283 H 384.396 -0.564932 5.05654 0
M  V30 4284 H 383.794 -3.65843 4.3148 0
M  V30 4285 H 382.351 -3.91476 5.21142 0
M  V30 4286 N 385.784 -1.5574 0.241426 0
M  V30 4287 C 386.714 -2.24133 -0.654722 0
M  V30 4288 C 387.695 -1.21974 -1.1856 0
M  V30 4289 O 388.88 -1.50612 -1.22595 0
M  V30 4290 C 386.01 -2.93659 -1.85423 0
M  V30 4291 C 384.964 -4.0246 -1.45636 0
M  V30 4292 C 384.29 -4.59383 -2.73626 0
M  V30 4293 C 385.59 -5.18468 -0.631506 0
M  V30 4294 H 387.284 -2.99281 -0.0844353 0
M  V30 4295 H 384.83 -1.43947 -0.0391707 0
M  V30 4296 H 386.783 -3.40203 -2.48676 0
M  V30 4297 H 385.507 -2.15991 -2.44981 0
M  V30 4298 H 384.166 -3.56676 -0.847202 0
M  V30 4299 H 383.814 -3.78422 -3.3137 0
M  V30 4300 H 383.514 -5.32826 -2.4773 0
M  V30 4301 H 385.038 -5.08658 -3.37786 0
M  V30 4302 H 386.452 -5.61272 -1.1682 0
M  V30 4303 H 384.849 -5.98266 -0.468831 0
M  V30 4304 H 385.919 -4.8358 0.357506 0
M  V30 4305 N 387.262 0.0317525 -1.57568 0
M  V30 4306 C 388.508 0.724175 -1.8943 0
M  V30 4307 C 388.841 1.75149 -0.838836 0
M  V30 4308 O 388.116 1.93948 0.146422 0
M  V30 4309 C 388.399 1.39615 -3.31933 0
M  V30 4310 C 388.252 0.382537 -4.4817 0
M  V30 4311 C 389.571 2.33084 -3.73309 0
M  V30 4312 H 386.69 0.261797 -0.688935 0
M  V30 4313 H 389.332 -0.013017 -1.89996 0
M  V30 4314 H 387.482 2.02451 -3.31581 0
M  V30 4315 H 389.154 -0.243689 -4.60656 0
M  V30 4316 H 387.397 -0.29844 -4.32772 0
M  V30 4317 H 388.068 0.891145 -5.44759 0
M  V30 4318 H 390.544 1.80295 -3.7501 0
M  V30 4319 H 389.42 2.77084 -4.73831 0
M  V30 4320 H 389.681 3.19643 -3.05419 0
M  V30 4321 N 388.74 1.54641 0.303973 0
M  V30 4322 C 389.67 1.88386 1.3796 0
M  V30 4323 C 390.651 0.742485 1.5304 0
M  V30 4324 O 391.836 0.997959 1.66597 0
M  V30 4325 C 388.966 2.12854 2.74427 0
M  V30 4326 C 387.92 3.28702 2.74115 0
M  V30 4327 C 387.246 3.38582 4.13844 0
M  V30 4328 C 388.546 4.65881 2.3612 0
M  V30 4329 H 390.24 2.78474 1.09966 0
M  V30 4330 H 387.786 1.33988 0.527556 0
M  V30 4331 H 389.739 2.35047 3.49758 0
M  V30 4332 H 388.463 1.19535 3.03939 0
M  V30 4333 H 387.122 3.06428 2.0124 0
M  V30 4334 H 386.77 2.42784 4.40528 0
M  V30 4335 H 386.47 4.16453 4.14537 0
M  V30 4336 H 387.994 3.63031 4.90959 0
M  V30 4337 H 389.408 4.87823 3.01167 0
M  V30 4338 H 387.805 5.46444 2.48031 0
M  V30 4339 H 388.875 4.66799 1.3125 0
M  V30 4340 N 390.218 -0.567019 1.47046 0
M  V30 4341 C 391.448 -1.34831 1.56538 0
M  V30 4342 C 391.856 -1.8802 0.21101 0
M  V30 4343 O 391.199 -1.65152 -0.804387 0
M  V30 4344 C 391.261 -2.56139 2.52256 0
M  V30 4345 C 390.925 -2.24307 3.98165 0
M  V30 4346 C 391.922 -1.82192 4.86931 0
M  V30 4347 C 389.607 -2.35968 4.43423 0
M  V30 4348 C 391.601 -1.52153 6.18973 0
M  V30 4349 C 389.288 -2.05542 5.75496 0
M  V30 4350 C 390.286 -1.63701 6.63092 0
M  V30 4351 O 389.974 -1.33657 7.92711 0
M  V30 4352 H 389.706 -0.417683 0.531523 0
M  V30 4353 H 392.26 -0.694726 1.93294 0
M  V30 4354 H 390.49 -3.24356 2.10548 0
M  V30 4355 H 392.179 -3.18214 2.51982 0
M  V30 4356 H 392.945 -1.72684 4.53217 0
M  V30 4357 H 388.824 -2.67495 3.75456 0
M  V30 4358 H 392.368 -1.19421 6.87302 0
M  V30 4359 H 388.265 -2.14679 6.08755 0
M  V30 4360 H 389.033 -1.4737 8.05124 0
M  V30 4361 N 391.696 -1.35014 -0.812953 0
M  V30 4362 C 392.629 -1.21761 -1.93001 0
M  V30 4363 C 393.607 -0.10694 -1.62248 0
M  V30 4364 O 394.791 -0.273891 -1.865 0
M  V30 4365 C 391.918 -0.873404 -3.27245 0
M  V30 4366 C 390.964 -1.99523 -3.76952 0
M  V30 4367 S 391.797 -3.61009 -3.95516 0
M  V30 4368 C 392.953 -3.28651 -5.32672 0
M  V30 4369 H 393.186 -2.16315 -2.03948 0
M  V30 4370 H 390.719 -1.20156 -0.969631 0
M  V30 4371 H 392.677 -0.68161 -4.04802 0
M  V30 4372 H 391.338 0.053971 -3.14054 0
M  V30 4373 H 390.531 -1.70838 -4.74163 0
M  V30 4374 H 390.133 -2.14503 -3.06373 0
M  V30 4375 H 392.425 -2.81085 -6.1644 0
M  V30 4376 H 393.368 -4.25039 -5.66346 0
M  V30 4377 H 393.776 -2.6458 -4.98656 0
M  V30 4378 N 393.175 1.03435 -1.18907 0
M  V30 4379 C 394.423 1.76394 -0.986382 0
M  V30 4380 C 394.744 1.88883 0.484567 0
M  V30 4381 O 394.014 1.41843 1.3512 0
M  V30 4382 H 392.594 0.65344 -0.361975 0
M  V30 4383 H 395.256 1.248 -1.49703 0
M  V30 4384 H 394.352 2.77424 -1.42978 0
M  V30 4385 N 394.653 0.992116 1.22453 0
M  V30 4386 C 395.902 0.662992 1.90492 0
M  V30 4387 C 396.215 -0.808407 1.78113 0
M  V30 4388 O 397.421 -1.24908 2.41061 0
M  V30 4389 C 395.877 1.1353 3.41524 0
M  V30 4390 C 395.485 2.63187 3.62542 0
M  V30 4391 C 397.229 0.880465 4.15269 0
M  V30 4392 C 395.136 3.04024 5.0727 0
M  V30 4393 H 394.066 0.244278 0.713333 0
M  V30 4394 H 396.717 1.20157 1.38688 0
M  V30 4395 H 395.099 0.52485 3.92506 0
M  V30 4396 H 396.273 3.2957 3.22056 0
M  V30 4397 H 394.588 2.86543 3.02129 0
M  V30 4398 H 397.185 1.16128 5.21937 0
M  V30 4399 H 397.528 -0.183408 4.15896 0
M  V30 4400 H 398.061 1.45307 3.70312 0
M  V30 4401 H 394.8 4.09584 5.11782 0
M  V30 4402 H 394.32 2.42343 5.48662 0
M  V30 4403 H 395.999 2.95282 5.75689 0
M  V30 4404 N 396.131 -1.37776 0.765217 0
M  V30 4405 C 397.061 -2.32945 0.160953 0
M  V30 4406 C 398.042 -1.55454 -0.690516 0
M  V30 4407 O 399.227 -1.83721 -0.629318 0
M  V30 4408 C 396.357 -3.39669 -0.724031 0
M  V30 4409 C 395.311 -4.27992 0.0256173 0
M  V30 4410 C 394.637 -5.25673 -0.978383 0
M  V30 4411 C 395.937 -5.08309 1.20082 0
M  V30 4412 H 397.631 -2.83728 0.955969 0
M  V30 4413 H 395.177 -1.36416 0.461149 0
M  V30 4414 H 397.13 -4.05219 -1.15652 0
M  V30 4415 H 395.854 -2.87396 -1.5515 0
M  V30 4416 H 394.513 -3.63964 0.438812 0
M  V30 4417 H 394.161 -4.69682 -1.80022 0
M  V30 4418 H 393.861 -5.85625 -0.481378 0
M  V30 4419 H 395.385 -5.94098 -1.40995 0
M  V30 4420 H 396.799 -5.67034 0.845307 0
M  V30 4421 H 395.196 -5.77554 1.62947 0
M  V30 4422 H 396.266 -4.41365 2.00811 0
M  V30 4423 N 397.609 -0.515225 -1.4894 0
M  V30 4424 C 398.539 0.244628 -2.32215 0
M  V30 4425 C 399.52 0.949136 -1.41157 0
M  V30 4426 O 400.705 0.937783 -1.70057 0
M  V30 4427 C 397.835 1.30096 -3.22013 0
M  V30 4428 C 396.789 0.715486 -4.21977 0
M  V30 4429 C 396.115 1.87339 -5.00808 0
M  V30 4430 C 397.415 -0.302982 -5.2142 0
M  V30 4431 H 399.109 -0.450501 -2.95991 0
M  V30 4432 H 396.655 -0.218098 -1.42339 0
M  V30 4433 H 398.608 1.84037 -3.79089 0
M  V30 4434 H 397.332 2.02547 -2.56207 0
M  V30 4435 H 395.991 0.197715 -3.66066 0
M  V30 4436 H 395.639 2.58592 -4.31438 0
M  V30 4437 H 395.339 1.48764 -5.68457 0
M  V30 4438 H 396.863 2.41686 -5.60732 0
M  V30 4439 H 398.277 0.148802 -5.73107 0
M  V30 4440 H 396.674 -0.60532 -5.97039 0
M  V30 4441 H 397.744 -1.21395 -4.69459 0
M  V30 4442 N 399.087 1.5561 -0.249682 0
M  V30 4443 C 400.312 2.03865 0.381305 0
M  V30 4444 C 400.737 1.12769 1.50548 0
M  V30 4445 O 400.095 0.121189 1.80895 0
M  V30 4446 C 400.143 3.50101 0.863816 0
M  V30 4447 O 399.247 3.62132 1.97318 0
M  V30 4448 H 398.588 0.658827 0.0827194 0
M  V30 4449 H 401.118 2.01105 -0.376552 0
M  V30 4450 H 401.128 3.90975 1.1663 0
M  V30 4451 H 399.803 4.1588 0.0411816 0
M  V30 4452 H 398.38 3.33155 1.67517 0
M  V30 4453 N 400.565 -0.0233959 1.57583 0
M  V30 4454 C 401.515 -1.03023 2.03397 0
M  V30 4455 C 402.499 -1.31701 0.924315 0
M  V30 4456 O 403.691 -1.31191 1.18819 0
M  V30 4457 C 400.82 -2.32961 2.52159 0
M  V30 4458 C 399.906 -2.07349 3.69956 0
M  V30 4459 N 400.297 -1.51814 4.82479 0
M  V30 4460 C 398.595 -2.37606 3.77438 0
M  V30 4461 C 399.296 -1.42136 5.64068 0
M  V30 4462 N 398.272 -1.89891 5.09355 0
M  V30 4463 H 402.074 -0.594962 2.87815 0
M  V30 4464 H 399.588 -0.229586 1.60769 0
M  V30 4465 H 401.585 -3.05906 2.83244 0
M  V30 4466 H 400.245 -2.77162 1.69149 0
M  V30 4467 H 401.256 -1.20008 5.03804 0
M  V30 4468 H 397.933 -2.84842 3.05239 0
M  V30 4469 H 399.323 -0.996405 6.64471 0
M  V30 4470 N 402.043 -1.548 -0.295768 0
M  V30 4471 C 403.006 -1.85363 -1.34808 0
M  V30 4472 C 404.006 -0.726817 -1.43436 0
M  V30 4473 O 405.196 -0.995088 -1.42981 0
M  V30 4474 C 402.328 -2.03859 -2.73229 0
M  V30 4475 H 403.521 -2.7941 -1.08949 0
M  V30 4476 H 401.074 -1.46942 -0.532702 0
M  V30 4477 H 401.809 -1.12117 -3.04303 0
M  V30 4478 H 401.594 -2.8588 -2.68356 0
M  V30 4479 H 403.084 -2.28857 -3.49305 0
M  V30 4480 N 403.521 0.559213 -1.47345 0
M  V30 4481 C 404.469 1.68747 -1.60085 0
M  V30 4482 C 405.463 1.628 -0.46825 0
M  V30 4483 O 406.669 1.68009 -0.645977 0
M  V30 4484 H 403.044 0.558329 -0.503759 0
M  V30 4485 H 405.015 1.55138 -2.54902 0
M  V30 4486 C 403.764 3.07103 -1.63042 0
M  V30 4487 H 403.087 3.12361 -2.49541 0
M  V30 4488 H 404.527 3.85743 -1.76006 0
M  V30 4489 C 402.986 3.34935 -0.363357 0
M  V30 4490 O 403.516 3.98102 0.536416 0
M  V30 4491 N 401.722 2.89574 -0.244 0
M  V30 4492 H 401.269 2.38348 -0.977133 0
M  V30 4493 H 401.227 3.08566 0.602836 0
M  V30 4494 N 404.999 1.35443 0.805782 0
M  V30 4495 C 406.224 1.32037 1.59941 0
M  V30 4496 C 406.649 -0.0994215 1.87837 0
M  V30 4497 O 406.007 -1.06648 1.46615 0
M  V30 4498 C 406.055 2.13354 2.90711 0
M  V30 4499 O 405.159 1.5148 3.83572 0
M  V30 4500 H 404.5 0.452666 0.485787 0
M  V30 4501 H 407.03 1.78496 1.00002 0
M  V30 4502 H 407.04 2.25338 3.40128 0
M  V30 4503 H 405.715 3.16572 2.69732 0
M  V30 4504 H 404.292 1.4834 3.42125 0
M  V30 4505 N 406.477 -1.02803 1.19454 0
M  V30 4506 C 407.41 -2.107 0.876396 0
M  V30 4507 C 408.388 -1.61741 -0.166897 0
M  V30 4508 O 409.572 -1.88451 -0.0430195 0
M  V30 4509 C 406.699 -3.37262 0.311758 0
M  V30 4510 C 405.745 -4.05093 1.33424 0
M  V30 4511 S 406.578 -4.50498 2.89503 0
M  V30 4512 C 407.734 -5.80277 2.34584 0
M  V30 4513 H 407.967 -2.37362 1.79016 0
M  V30 4514 H 405.5 -1.15755 1.02177 0
M  V30 4515 H 407.458 -4.10499 -0.00748752 0
M  V30 4516 H 406.119 -3.08693 -0.58032 0
M  V30 4517 H 405.312 -4.9611 0.888302 0
M  V30 4518 H 404.914 -3.3803 1.60037 0
M  V30 4519 H 407.206 -6.54873 1.73633 0
M  V30 4520 H 408.149 -6.29651 3.23952 0
M  V30 4521 H 408.557 -5.3599 1.77131 0
M  V30 4522 N 407.956 -0.998596 -1.21925 0
M  V30 4523 C 408.889 -0.498517 -2.22688 0
M  V30 4524 C 409.867 0.444301 -1.56412 0
M  V30 4525 O 411.051 0.368518 -1.84863 0
M  V30 4526 C 408.178 0.276639 -3.37568 0
M  V30 4527 C 407.224 -0.61302 -4.22071 0
M  V30 4528 S 408.057 -2.07168 -4.93803 0
M  V30 4529 C 409.213 -1.30617 -6.12119 0
M  V30 4530 H 409.446 -1.35234 -2.64762 0
M  V30 4531 H 406.979 -0.806018 -1.31692 0
M  V30 4532 H 408.937 0.717817 -4.04175 0
M  V30 4533 H 407.598 1.10581 -2.93991 0
M  V30 4534 H 406.791 -0.0162909 -5.03997 0
M  V30 4535 H 406.393 -0.991202 -3.60626 0
M  V30 4536 H 408.685 -0.57675 -6.75041 0
M  V30 4537 H 409.628 -2.10091 -6.76215 0
M  V30 4538 H 410.036 -0.816957 -5.58557 0
M  V30 4539 N 409.434 1.37368 -0.772513 0
M  V30 4540 C 410.382 2.32134 -0.147111 0
M  V30 4541 C 411.376 1.54972 0.684106 0
M  V30 4542 O 412.582 1.70363 0.581083 0
M  V30 4543 H 408.957 0.751449 -0.028786 0
M  V30 4544 H 410.928 2.82464 -0.962112 0
M  V30 4545 C 409.677 3.40226 0.71703 0
M  V30 4546 H 409 3.99706 0.0867951 0
M  V30 4547 H 410.44 4.08897 1.12159 0
M  V30 4548 C 408.899 2.80372 1.86797 0
M  V30 4549 O 409.429 2.71183 2.96349 0
M  V30 4550 N 407.635 2.37904 1.66883 0
M  V30 4551 H 407.182 2.45578 0.777759 0
M  V30 4552 H 407.14 1.98202 2.44056 0
M  V30 4553 N 410.912 0.523116 1.48665 0
M  V30 4554 C 412.323 0.0808997 1.86525 0
M  V30 4555 C 412.674 -1.33975 1.43336 0
M  V30 4556 O 411.799 -2.00221 0.821009 0
M  V30 4557 C 412.394 0.140037 3.3851 0
M  V30 4558 C 410.953 -0.246948 3.75589 0
M  V30 4559 C 410.1 0.502845 2.72703 0
M  V30 4560 H 413.051 0.734736 1.40667 0
M  V30 4561 H 413.072 -0.649945 3.74908 0
M  V30 4562 H 412.584 1.17412 3.69914 0
M  V30 4563 H 410.685 -1.28343 3.49798 0
M  V30 4564 H 410.798 0.0878859 4.79019 0
M  V30 4565 H 409.162 -0.0500581 2.54651 0
M  V30 4566 H 409.945 1.53743 3.0695 0
M  V30 4567 N 412.39 -1.55475 0.257931 0
M  V30 4568 C 413.639 -1.98383 -0.364275 0
M  V30 4569 C 413.952 -1.14952 -1.58258 0
M  V30 4570 O 415.158 -1.47924 -2.27664 0
M  V30 4571 C 413.614 -3.53037 -0.699479 0
M  V30 4572 C 413.222 -4.45223 0.498046 0
M  V30 4573 C 414.966 -4.04575 -1.28526 0
M  V30 4574 C 412.873 -5.91238 0.138383 0
M  V30 4575 H 411.803 -0.740911 -0.13988 0
M  V30 4576 H 414.454 -1.79936 0.359883 0
M  V30 4577 H 412.836 -3.6722 -1.48207 0
M  V30 4578 H 414.01 -4.42803 1.27522 0
M  V30 4579 H 412.325 -4.04226 0.999503 0
M  V30 4580 H 414.922 -5.11196 -1.56788 0
M  V30 4581 H 415.265 -3.5258 -2.21344 0
M  V30 4582 H 415.798 -3.93762 -0.565337 0
M  V30 4583 H 412.537 -6.47294 1.03398 0
M  V30 4584 H 412.057 -5.96768 -0.602374 0
M  V30 4585 H 413.736 -6.46413 -0.27553 0
M  V30 4586 N 413.868 0.0150385 -1.57593 0
M  V30 4587 C 415.114 0.704043 -1.90187 0
M  V30 4588 C 415.447 1.74249 -0.857366 0
M  V30 4589 O 414.722 1.94092 0.125843 0
M  V30 4590 C 415.005 1.36087 -3.33395 0
M  V30 4591 C 414.858 0.334981 -4.48551 0
M  V30 4592 C 416.177 2.29112 -3.7576 0
M  V30 4593 H 413.296 0.254475 -0.691673 0
M  V30 4594 H 415.938 -0.0331678 -1.89971 0
M  V30 4595 H 414.088 1.98922 -3.3371 0
M  V30 4596 H 415.76 -0.292534 -4.60372 0
M  V30 4597 H 414.003 -0.344325 -4.32431 0
M  V30 4598 H 414.674 0.833316 -5.45674 0
M  V30 4599 H 417.15 1.76308 -3.76902 0
M  V30 4600 H 416.026 2.72043 -4.76743 0
M  V30 4601 H 416.287 3.16385 -3.08793 0
M  V30 4602 N 415.346 1.54954 0.287554 0
M  V30 4603 C 416.576 1.78622 1.03816 0
M  V30 4604 C 416.984 0.552451 1.80955 0
M  V30 4605 O 416.327 -0.487665 1.77109 0
M  V30 4606 C 416.389 2.94975 2.055 0
M  V30 4607 C 416.053 4.32565 1.47433 0
M  V30 4608 C 417.05 5.12096 0.897436 0
M  V30 4609 C 414.735 4.79195 1.50591 0
M  V30 4610 C 416.729 6.36383 0.359851 0
M  V30 4611 C 414.416 6.03441 0.964459 0
M  V30 4612 C 415.414 6.81872 0.392413 0
M  V30 4613 O 415.102 8.03777 -0.140788 0
M  V30 4614 H 414.834 0.599144 0.313053 0
M  V30 4615 H 417.388 2.02761 0.328225 0
M  V30 4616 H 415.618 2.66493 2.80211 0
M  V30 4617 H 417.307 3.06097 2.6657 0
M  V30 4618 H 418.073 4.77209 0.865841 0
M  V30 4619 H 413.952 4.18167 1.94055 0
M  V30 4620 H 417.496 6.97545 -0.0872951 0
M  V30 4621 H 413.393 6.37813 0.993246 0
M  V30 4622 H 414.161 8.18495 -0.0287617 0
M  V30 4623 N 416.824 -0.551391 1.4764 0
M  V30 4624 C 417.787 -1.64007 1.60107 0
M  V30 4625 C 418.787 -1.53601 0.47576 0
M  V30 4626 O 419.977 -1.57655 0.740988 0
M  V30 4627 C 417.109 -3.03569 1.55108 0
M  V30 4628 H 418.302 -1.543 2.57161 0
M  V30 4629 H 415.855 -0.771776 1.35917 0
M  V30 4630 H 416.59 -3.18804 0.594519 0
M  V30 4631 H 416.375 -3.12532 2.36783 0
M  V30 4632 H 417.865 -3.82762 1.66982 0
M  V30 4633 N 418.302 -1.35869 -0.798587 0
M  V30 4634 C 419.532 -1.32529 -1.58491 0
M  V30 4635 C 419.94 0.0975405 -1.88948 0
M  V30 4636 O 419.283 1.06224 -1.49874 0
M  V30 4637 C 419.345 -2.07247 -2.9375 0
M  V30 4638 C 419.009 -3.56391 -2.86068 0
M  V30 4639 C 420.006 -4.50824 -2.58947 0
M  V30 4640 C 417.691 -3.9915 -3.04933 0
M  V30 4641 C 419.685 -5.85993 -2.5078 0
M  V30 4642 C 417.372 -5.34413 -2.96389 0
M  V30 4643 C 418.37 -6.27646 -2.69349 0
M  V30 4644 O 418.058 -7.60426 -2.60782 0
M  V30 4645 H 417.79 -0.456529 -0.498556 0
M  V30 4646 H 420.344 -1.79425 -0.999799 0
M  V30 4647 H 418.574 -1.55001 -3.54276 0
M  V30 4648 H 420.263 -1.96883 -3.54954 0
M  V30 4649 H 421.029 -4.19104 -2.44084 0
M  V30 4650 H 416.908 -3.26961 -3.24989 0
M  V30 4651 H 420.452 -6.58735 -2.29595 0
M  V30 4652 H 416.349 -5.65743 -3.10813 0
M  V30 4653 H 417.117 -7.70444 -2.76331 0
M  V30 4654 N 419.78 1.02168 -1.19998 0
M  V30 4655 C 420.727 2.10601 -0.944228 0
M  V30 4656 C 421.697 1.65639 0.123664 0
M  V30 4657 O 422.882 1.9079 -0.0199941 0
M  V30 4658 C 420.022 3.41504 -0.496865 0
M  V30 4659 C 419.135 3.99973 -1.63234 0
M  V30 4660 C 418.27 5.18915 -1.13579 0
M  V30 4661 C 417.309 5.69456 -2.24468 0
M  V30 4662 N 416.446 6.79665 -1.76068 0
M  V30 4663 H 421.286 2.31814 -1.8726 0
M  V30 4664 H 418.823 1.13686 -0.933483 0
M  V30 4665 H 420.781 4.16626 -0.218843 0
M  V30 4666 H 419.411 3.2038 0.394508 0
M  V30 4667 H 418.463 3.21997 -2.0254 0
M  V30 4668 H 419.775 4.33492 -2.46752 0
M  V30 4669 H 418.929 6.01222 -0.813429 0
M  V30 4670 H 417.668 4.8695 -0.270434 0
M  V30 4671 H 416.673 4.85757 -2.57526 0
M  V30 4672 H 417.898 6.03459 -3.11472 0
M  V30 4673 H 415.844 6.49538 -0.918516 0
M  V30 4674 H 415.761 7.12349 -2.5317 0
M  V30 4675 H 417.029 7.65549 -1.46817 0
M  V30 4676 N 421.258 1.00505 1.21394 0
M  V30 4677 C 422.507 0.683159 1.89778 0
M  V30 4678 C 422.82 -0.789471 1.7896 0
M  V30 4679 O 424.026 -1.22344 2.42372 0
M  V30 4680 C 422.482 1.17146 3.40301 0
M  V30 4681 C 422.09 2.67017 3.5973 0
M  V30 4682 C 423.834 0.924461 4.14311 0
M  V30 4683 C 421.741 3.09387 5.04017 0
M  V30 4684 H 420.671 0.25183 0.710702 0
M  V30 4685 H 423.322 1.21622 1.37406 0
M  V30 4686 H 421.704 0.566451 3.91928 0
M  V30 4687 H 422.878 3.32968 3.18542 0
M  V30 4688 H 421.193 2.89732 2.99073 0
M  V30 4689 H 423.79 1.21658 5.20676 0
M  V30 4690 H 424.133 -0.139286 4.16067 0
M  V30 4691 H 424.666 1.49226 3.6875 0
M  V30 4692 H 421.405 4.14989 5.07409 0
M  V30 4693 H 420.925 2.48149 5.46061 0
M  V30 4694 H 422.604 3.01371 5.72525 0
M  V30 4695 N 422.737 -1.36956 0.779787 0
M  V30 4696 C 423.684 -2.30175 0.169697 0
M  V30 4697 C 424.654 -1.51501 -0.68094 0
M  V30 4698 O 425.839 -1.80042 -0.631629 0
M  V30 4699 C 422.979 -3.37985 -0.697131 0
M  V30 4700 C 422.092 -4.31661 0.170992 0
M  V30 4701 C 421.227 -5.2655 -0.701298 0
M  V30 4702 C 420.266 -6.11867 0.168869 0
M  V30 4703 N 419.403 -6.98973 -0.661855 0
M  V30 4704 H 424.243 -2.81767 0.970135 0
M  V30 4705 H 421.78 -1.38699 0.489994 0
M  V30 4706 H 423.738 -3.99128 -1.2146 0
M  V30 4707 H 422.368 -2.87739 -1.46309 0
M  V30 4708 H 421.42 -3.71756 0.80634 0
M  V30 4709 H 422.732 -4.91644 0.841875 0
M  V30 4710 H 421.886 -5.92937 -1.28494 0
M  V30 4711 H 420.625 -4.66998 -1.40584 0
M  V30 4712 H 419.63 -5.44452 0.764986 0
M  V30 4713 H 420.855 -6.73493 0.870863 0
M  V30 4714 H 418.801 -6.41941 -1.35086 0
M  V30 4715 H 418.718 -7.55984 -0.0484447 0
M  V30 4716 H 419.986 -7.6974 -1.22963 0
M  V30 4717 N 424.215 -0.530993 -1.48385 0
M  V30 4718 C 425.162 0.231223 -2.29639 0
M  V30 4719 C 426.132 0.932864 -1.37429 0
M  V30 4720 O 427.317 0.933692 -1.66394 0
M  V30 4721 C 424.457 1.27155 -3.2082 0
M  V30 4722 C 423.57 0.578655 -4.28107 0
M  V30 4723 C 422.705 1.602 -5.06467 0
M  V30 4724 C 421.744 0.892625 -6.05556 0
M  V30 4725 N 420.881 1.86157 -6.76971 0
M  V30 4726 H 425.721 -0.467848 -2.94305 0
M  V30 4727 H 423.258 -0.242556 -1.45086 0
M  V30 4728 H 425.216 1.88703 -3.72085 0
M  V30 4729 H 423.846 1.939 -2.58075 0
M  V30 4730 H 422.898 -0.150782 -3.80101 0
M  V30 4731 H 424.21 0.0217065 -4.98795 0
M  V30 4732 H 423.364 2.29173 -5.61751 0
M  V30 4733 H 422.103 2.19285 -4.35621 0
M  V30 4734 H 421.108 0.188829 -5.49476 0
M  V30 4735 H 422.333 0.307878 -6.78402 0
M  V30 4736 H 420.279 2.44147 -6.08875 0
M  V30 4737 H 420.196 1.35608 -7.43738 0
M  V30 4738 H 421.464 2.54325 -7.36844 0
M  V30 4739 N 425.693 1.55336 -0.266172 0
M  V30 4740 C 426.94 1.99397 0.353158 0
M  V30 4741 C 427.268 1.15451 1.56529 0
M  V30 4742 O 426.523 0.209974 1.9457 0
M  V30 4743 C 426.822 3.48606 0.787957 0
M  V30 4744 C 426.488 4.49773 -0.318541 0
M  V30 4745 C 425.15 4.77158 -0.62239 0
M  V30 4746 C 427.502 5.10212 -1.06459 0
M  V30 4747 C 424.83 5.62251 -1.67602 0
M  V30 4748 C 427.182 5.96449 -2.10788 0
M  V30 4749 C 425.846 6.22158 -2.41817 0
M  V30 4750 H 425.116 0.729644 0.12923 0
M  V30 4751 H 427.763 1.87732 -0.37802 0
M  V30 4752 H 426.068 3.57701 1.59866 0
M  V30 4753 H 427.765 3.80098 1.27775 0
M  V30 4754 H 424.355 4.2854 -0.0715925 0
M  V30 4755 H 428.539 4.89086 -0.843098 0
M  V30 4756 H 423.795 5.80419 -1.92155 0
M  V30 4757 H 427.969 6.42317 -2.69076 0
M  V30 4758 H 425.596 6.87888 -3.23596 0
M  V30 4759 N 427.171 -0.0066808 1.57599 0
M  V30 4760 C 428.118 -1.00024 2.08 0
M  V30 4761 C 429.088 -1.34549 0.973943 0
M  V30 4762 O 430.273 -1.44502 1.24595 0
M  V30 4763 C 427.413 -2.2891 2.58252 0
M  V30 4764 C 426.526 -2.00346 3.82734 0
M  V30 4765 C 425.661 -3.23265 4.21513 0
M  V30 4766 C 424.7 -2.90357 5.3885 0
M  V30 4767 N 423.837 -4.05793 5.72954 0
M  V30 4768 H 428.677 -0.563499 2.92624 0
M  V30 4769 H 426.214 -0.266592 1.44664 0
M  V30 4770 H 428.172 -3.04247 2.85464 0
M  V30 4771 H 426.802 -2.70265 1.76512 0
M  V30 4772 H 425.854 -1.15406 3.62471 0
M  V30 4773 H 427.166 -1.72086 4.68175 0
M  V30 4774 H 426.32 -4.06953 4.49971 0
M  V30 4775 H 425.059 -3.54657 3.34768 0
M  V30 4776 H 424.064 -2.05075 5.10122 0
M  V30 4777 H 425.289 -2.60219 6.27266 0
M  V30 4778 H 423.235 -4.37094 4.89167 0
M  V30 4779 H 423.152 -3.81034 6.52954 0
M  V30 4780 H 424.42 -4.90289 6.06001 0
M  V30 4781 N 428.649 -1.55105 -0.279332 0
M  V30 4782 C 429.559 -1.90638 -1.36727 0
M  V30 4783 C 430.575 -0.802899 -1.54368 0
M  V30 4784 O 431.751 -1.10138 -1.68616 0
M  V30 4785 C 428.816 -2.16547 -2.70755 0
M  V30 4786 C 427.877 -3.40146 -2.61915 0
M  V30 4787 C 427.11 -3.6481 -3.8955 0
M  V30 4788 O 427.333 -2.92095 -4.89935 0
M  V30 4789 O 426.267 -4.58343 -3.90135 0
M  V30 4790 H 430.093 -2.83237 -1.09591 0
M  V30 4791 H 427.678 -1.4157 -0.477306 0
M  V30 4792 H 429.56 -2.34665 -3.50014 0
M  V30 4793 H 428.235 -1.27131 -2.9769 0
M  V30 4794 H 427.142 -3.2737 -1.81052 0
M  V30 4795 H 428.475 -4.29761 -2.3993 0
M  V30 4796 N 430.127 0.543554 -1.4793 0
M  V30 4797 C 431.355 1.32516 -1.58894 0
M  V30 4798 C 431.77 1.87215 -0.244131 0
M  V30 4799 O 431.127 1.65709 0.764652 0
M  V30 4800 C 431.178 2.48554 -2.62494 0
M  V30 4801 O 430.899 1.96112 -3.91755 0
M  V30 4802 C 432.4 3.40572 -2.8377 0
M  V30 4803 H 429.62 0.403472 -0.536145 0
M  V30 4804 H 432.164 0.657106 -1.93655 0
M  V30 4805 H 430.319 3.1127 -2.30629 0
M  V30 4806 H 430.733 2.71967 -4.4848 0
M  V30 4807 H 432.207 4.18375 -3.60093 0
M  V30 4808 H 432.684 3.94965 -1.92092 0
M  V30 4809 H 433.29 2.8366 -3.16887 0
M  V30 4810 N 431.605 1.3629 0.791371 0
M  V30 4811 C 432.835 1.33368 1.57786 0
M  V30 4812 C 433.243 -0.0875188 1.88997 0
M  V30 4813 O 432.586 -1.05427 1.50435 0
M  V30 4814 C 432.648 2.08802 2.92646 0
M  V30 4815 C 432.312 3.57903 2.84174 0
M  V30 4816 C 433.309 4.52191 2.56553 0
M  V30 4817 C 430.994 4.00762 3.02812 0
M  V30 4818 C 432.988 5.87315 2.47669 0
M  V30 4819 C 430.675 5.35977 2.93551 0
M  V30 4820 C 431.673 6.29066 2.66017 0
M  V30 4821 O 431.361 7.61798 2.56746 0
M  V30 4822 H 431.093 0.459166 0.496128 0
M  V30 4823 H 433.647 1.79952 0.990269 0
M  V30 4824 H 431.877 1.56878 3.53449 0
M  V30 4825 H 433.566 1.98762 3.53904 0
M  V30 4826 H 434.332 4.20393 2.41858 0
M  V30 4827 H 430.211 3.2868 3.2325 0
M  V30 4828 H 433.755 6.59943 2.26099 0
M  V30 4829 H 429.652 5.67384 3.07808 0
M  V30 4830 H 430.42 7.71898 2.72242 0
M  V30 4831 N 433.083 -1.0153 1.20538 0
M  V30 4832 C 434.013 -2.11972 0.979295 0
M  V30 4833 C 434.994 -1.6985 -0.0921787 0
M  V30 4834 O 436.179 -1.94089 0.0655932 0
M  V30 4835 C 433.309 -3.43201 0.531984 0
M  V30 4836 C 432.263 -3.9907 1.54685 0
M  V30 4837 C 431.589 -5.26082 0.956127 0
M  V30 4838 C 432.889 -4.32313 2.93092 0
M  V30 4839 H 434.583 -2.31143 1.90298 0
M  V30 4840 H 432.129 -1.11079 0.916372 0
M  V30 4841 H 434.082 -4.1985 0.361044 0
M  V30 4842 H 432.806 -3.23792 -0.427327 0
M  V30 4843 H 431.465 -3.2453 1.70517 0
M  V30 4844 H 431.113 -5.02999 -0.0111538 0
M  V30 4845 H 430.813 -5.64426 1.63393 0
M  V30 4846 H 432.337 -6.05386 0.796284 0
M  V30 4847 H 433.751 -4.99845 2.80763 0
M  V30 4848 H 432.148 -4.81774 3.57791 0
M  V30 4849 H 433.218 -3.41025 3.44717 0
M  V30 4850 N 434.561 -1.01147 -1.20859 0
M  V30 4851 C 435.491 -0.597663 -2.25722 0
M  V30 4852 C 436.472 0.384744 -1.65692 0
M  V30 4853 O 437.657 0.271303 -1.92296 0
M  V30 4854 C 434.787 0.0700149 -3.47229 0
M  V30 4855 C 433.741 -0.832843 -4.19819 0
M  V30 4856 C 433.067 -0.0312202 -5.34691 0
M  V30 4857 C 434.367 -2.1385 -4.76514 0
M  V30 4858 H 436.061 -1.47423 -2.60589 0
M  V30 4859 H 433.607 -0.710301 -1.25263 0
M  V30 4860 H 435.56 0.37103 -4.19763 0
M  V30 4861 H 434.284 0.981259 -3.11511 0
M  V30 4862 H 432.943 -1.11778 -3.49144 0
M  V30 4863 H 432.591 0.881515 -4.95215 0
M  V30 4864 H 432.291 -0.632434 -5.84187 0
M  V30 4865 H 433.815 0.26346 -6.10031 0
M  V30 4866 H 435.229 -1.9002 -5.40893 0
M  V30 4867 H 433.626 -2.69012 -5.36426 0
M  V30 4868 H 434.696 -2.80495 -3.95538 0
M  V30 4869 N 436.039 1.36541 -0.78704 0
M  V30 4870 C 437.288 1.98552 -0.35494 0
M  V30 4871 C 437.601 1.63171 1.07864 0
M  V30 4872 O 438.807 2.18399 1.61289 0
M  V30 4873 C 437.263 3.55136 -0.583671 0
M  V30 4874 C 436.871 3.99444 -2.02851 0
M  V30 4875 C 438.615 4.2395 -0.215957 0
M  V30 4876 C 436.522 5.48796 -2.20403 0
M  V30 4877 H 435.452 0.742888 -0.128972 0
M  V30 4878 H 438.103 1.5587 -0.968337 0
M  V30 4879 H 436.485 3.95875 0.0994046 0
M  V30 4880 H 437.659 3.6991 -2.74779 0
M  V30 4881 H 435.974 3.43459 -2.35425 0
M  V30 4882 H 438.571 5.33709 -0.325405 0
M  V30 4883 H 438.914 4.07827 0.835646 0
M  V30 4884 H 439.447 3.88565 -0.852175 0
M  V30 4885 H 436.186 5.69864 -3.23937 0
M  V30 4886 H 435.706 5.79964 -1.52977 0
M  V30 4887 H 437.385 6.14986 -2.01002 0
M  V30 4888 N 437.518 0.538854 1.48102 0
M  V30 4889 C 438.448 -0.207654 2.32575 0
M  V30 4890 C 439.429 -0.926559 1.4265 0
M  V30 4891 O 440.614 -0.91061 1.71527 0
M  V30 4892 C 437.744 -1.24957 3.24042 0
M  V30 4893 C 436.698 -0.648263 4.23062 0
M  V30 4894 C 436.024 -1.79348 5.03725 0
M  V30 4895 C 437.324 0.385897 5.20872 0
M  V30 4896 H 439.018 0.497534 2.95237 0
M  V30 4897 H 436.564 0.240715 1.41974 0
M  V30 4898 H 438.517 -1.77983 3.81969 0
M  V30 4899 H 437.241 -1.98446 2.59397 0
M  V30 4900 H 435.9 -0.139452 3.66335 0
M  V30 4901 H 435.548 -2.51696 4.35498 0
M  V30 4902 H 435.248 -1.39702 5.70751 0
M  V30 4903 H 436.772 -2.32735 5.64506 0
M  V30 4904 H 438.186 -0.057607 5.73271 0
M  V30 4905 H 436.583 0.700227 5.96001 0
M  V30 4906 H 437.653 1.28848 4.67468 0
M  V30 4907 N 438.996 -1.55193 0.274407 0
M  V30 4908 C 439.943 -2.225 -0.613374 0
M  V30 4909 C 440.913 -1.19823 -1.15029 0
M  V30 4910 O 442.098 -1.48362 -1.19973 0
M  V30 4911 C 439.238 -2.94927 -1.79199 0
M  V30 4912 C 438.351 -4.12322 -1.28899 0
M  V30 4913 C 437.486 -4.72394 -2.42934 0
M  V30 4914 C 436.525 -5.81984 -1.89634 0
M  V30 4915 N 435.662 -6.36123 -2.9714 0
M  V30 4916 H 440.502 -2.97982 -0.032756 0
M  V30 4917 H 438.039 -1.47099 -0.00440146 0
M  V30 4918 H 439.997 -3.35134 -2.48478 0
M  V30 4919 H 438.627 -2.2187 -2.34465 0
M  V30 4920 H 437.679 -3.7724 -0.489327 0
M  V30 4921 H 438.991 -4.91355 -0.858587 0
M  V30 4922 H 438.145 -5.15317 -3.20208 0
M  V30 4923 H 436.884 -3.92636 -2.8929 0
M  V30 4924 H 435.889 -5.38511 -1.1084 0
M  V30 4925 H 437.114 -6.6361 -1.44215 0
M  V30 4926 H 435.06 -5.59259 -3.42878 0
M  V30 4927 H 434.977 -7.10427 -2.58515 0
M  V30 4928 H 436.245 -6.83704 -3.74391 0
M  V30 4929 N 440.474 -0.00167713 -1.576 0
M  V30 4930 C 441.437 0.974046 -2.07473 0
M  V30 4931 C 442.437 1.27143 -0.984444 0
M  V30 4932 O 443.627 1.21633 -1.24703 0
M  V30 4933 C 440.759 2.29849 -2.51759 0
M  V30 4934 H 441.952 0.54262 -2.9495 0
M  V30 4935 H 439.505 0.245829 -1.54355 0
M  V30 4936 H 440.24 2.77677 -1.67529 0
M  V30 4937 H 440.025 2.09584 -3.31386 0
M  V30 4938 H 441.515 2.9984 -2.90664 0
M  V30 4939 N 441.952 1.55251 0.271103 0
M  V30 4940 C 443.192 1.77698 1.01008 0
M  V30 4941 C 443.556 0.567246 1.83429 0
M  V30 4942 O 444.757 0.670013 2.60316 0
M  V30 4943 C 443.028 3.04715 1.86772 0
M  V30 4944 S 444.587 3.48289 2.66909 0
M  V30 4945 H 441.405 0.624343 0.340172 0
M  V30 4946 H 444.007 1.9348 0.280315 0
M  V30 4947 H 442.711 3.90853 1.25149 0
M  V30 4948 H 442.242 2.91604 2.64066 0
M  V30 4949 H 444.257 3.07712 3.89266 0
M  V30 4950 N 443.43 -0.535701 1.48216 0
M  V30 4951 C 444.676 -1.29375 1.56173 0
M  V30 4952 C 445.009 -1.92804 0.232429 0
M  V30 4953 O 444.284 -1.78992 -0.761048 0
M  V30 4954 C 444.567 -2.38747 2.69577 0
M  V30 4955 C 444.42 -1.80046 4.12193 0
M  V30 4956 C 445.739 -3.40551 2.78771 0
M  V30 4957 H 442.858 -0.469027 0.568491 0
M  V30 4958 H 445.5 -0.597358 1.80365 0
M  V30 4959 H 443.65 -2.98147 2.4908 0
M  V30 4960 H 445.322 -1.24742 4.44114 0
M  V30 4961 H 443.565 -1.10609 4.19462 0
M  V30 4962 H 444.236 -2.59212 4.87353 0
M  V30 4963 H 446.712 -2.91099 2.97322 0
M  V30 4964 H 445.588 -4.1448 3.59857 0
M  V30 4965 H 445.849 -4.00746 1.86696 0
M  V30 4966 N 444.908 -1.36708 -0.784132 0
M  V30 4967 C 446.154 -1.31426 -1.54451 0
M  V30 4968 C 446.487 0.10476 -1.93917 0
M  V30 4969 O 445.762 1.05934 -1.6312 0
M  V30 4970 C 446.045 -2.24189 -2.818 0
M  V30 4971 C 445.898 -3.74813 -2.48667 0
M  V30 4972 C 447.217 -2.15626 -3.83658 0
M  V30 4973 H 444.336 -0.478739 -0.560337 0
M  V30 4974 H 446.978 -1.67305 -0.900498 0
M  V30 4975 H 445.128 -1.93722 -3.36755 0
M  V30 4976 H 446.8 -4.15823 -1.99722 0
M  V30 4977 H 445.043 -3.93989 -1.81535 0
M  V30 4978 H 445.714 -4.35138 -3.39646 0
M  V30 4979 H 448.19 -2.42456 -3.38163 0
M  V30 4980 H 447.066 -2.82694 -4.70506 0
M  V30 4981 H 447.327 -1.14522 -4.27009 0
M  V30 4982 N 446.386 1.0089 -1.21074 0
M  V30 4983 C 447.626 1.76142 -1.03699 0
M  V30 4984 C 447.99 1.87292 0.422587 0
M  V30 4985 O 449.191 2.59068 0.716752 0
M  V30 4986 C 447.462 3.13805 -1.7106 0
M  V30 4987 S 449.021 4.04996 -1.68889 0
M  V30 4988 H 445.839 0.606113 -0.371683 0
M  V30 4989 H 448.441 1.20744 -1.53756 0
M  V30 4990 H 447.145 3.0332 -2.76451 0
M  V30 4991 H 446.676 3.74276 -1.21166 0
M  V30 4992 H 448.691 4.90842 -0.727211 0
M  V30 4993 N 447.864 1.01787 1.20321 0
M  V30 4994 C 448.814 0.559976 2.21016 0
M  V30 4995 C 449.798 -0.385366 1.56217 0
M  V30 4996 O 450.99 -0.208126 1.75772 0
M  V30 4997 C 448.119 -0.0990553 3.43157 0
M  V30 4998 C 447.205 0.86807 4.15121 0
M  V30 4999 N 447.596 2.0261 4.63447 0
M  V30 5000 C 445.894 0.689162 4.40643 0
M  V30 5001 C 446.595 2.63518 5.18588 0
M  V30 5002 N 445.571 1.91569 5.08726 0
M  V30 5003 H 449.373 1.44281 2.56048 0
M  V30 5004 H 446.887 0.883381 1.36272 0
M  V30 5005 H 448.884 -0.444643 4.14522 0
M  V30 5006 H 447.544 -0.977709 3.0963 0
M  V30 5007 H 448.555 2.40598 4.58621 0
M  V30 5008 H 445.232 -0.14133 4.17261 0
M  V30 5009 H 446.622 3.61527 5.66346 0
M  V30 5010 N 449.342 -1.36122 0.79427 0
M  V30 5011 C 450.753 -1.81646 0.431446 0
M  V30 5012 C 451.104 -1.66043 -1.04518 0
M  V30 5013 O 450.229 -1.1841 -1.8113 0
M  V30 5014 C 450.824 -3.29785 0.776341 0
M  V30 5015 C 449.383 -3.73501 0.466282 0
M  V30 5016 C 448.53 -2.58313 1.00844 0
M  V30 5017 H 451.481 -1.24274 0.986995 0
M  V30 5018 H 451.502 -3.80437 0.0692413 0
M  V30 5019 H 451.014 -3.4111 1.8511 0
M  V30 5020 H 449.115 -3.67733 -0.600245 0
M  V30 5021 H 449.228 -4.68754 0.990288 0
M  V30 5022 H 447.592 -2.5102 0.431406 0
M  V30 5023 H 448.375 -2.72421 2.08906 0
M  V30 5024 N 450.82 -0.546701 -1.47814 0
M  V30 5025 C 452.045 -0.021268 -2.07389 0
M  V30 5026 C 452.47 1.25822 -1.39822 0
M  V30 5027 O 451.828 1.75111 -0.46968 0
M  V30 5028 C 451.876 0.168502 -3.60206 0
M  V30 5029 O 450.98 1.23347 -3.93522 0
M  V30 5030 H 450.321 -0.0466108 -0.662362 0
M  V30 5031 H 452.851 -0.759387 -1.89985 0
M  V30 5032 H 452.861 0.385982 -4.0617 0
M  V30 5033 H 451.536 -0.766075 -4.08784 0
M  V30 5034 H 450.113 0.997319 -3.59316 0
M  V30 5035 N 452.299 1.55045 -0.282633 0
M  V30 5036 C 453.576 1.9179 0.384166 0
M  V30 5037 C 453.956 1.20778 1.73136 0
M  V30 5038 O 453.304 0.33719 2.25998 0
M  V30 5039 C 453.514 3.45149 0.517014 0
M  V30 5040 C 454.862 4.17064 0.796427 0
M  V30 5041 O 455.886 3.51084 0.601535 0
M  V30 5042 O 454.745 5.33837 1.16962 0
M  V30 5043 H 451.839 0.799483 0.211558 0
M  V30 5044 H 454.385 1.66474 -0.32934 0
M  V30 5045 H 453.157 3.88922 -0.430772 0
M  V30 5046 H 452.78 3.76443 1.2797 0
M  V30 5047 N 453.777 0.010035 1.57597 0
M  V30 5048 C 455.002 -0.687021 1.95691 0
M  V30 5049 C 455.427 -1.65952 0.885519 0
M  V30 5050 O 454.785 -1.80633 -0.15543 0
M  V30 5051 C 454.833 -1.3864 3.32884 0
M  V30 5052 O 453.937 -2.50115 3.27897 0
M  V30 5053 H 453.278 -0.181989 0.638573 0
M  V30 5054 H 455.808 0.0662122 2.04493 0
M  V30 5055 H 455.818 -1.74754 3.6868 0
M  V30 5056 H 454.493 -0.673411 4.10412 0
M  V30 5057 H 453.07 -2.16253 3.03791 0
M  V30 5058 N 455.255 -1.55392 -0.262866 0
M  V30 5059 C 456.185 -1.91978 -1.32917 0
M  V30 5060 C 457.166 -0.7828 -1.51017 0
M  V30 5061 O 458.351 -1.04178 -1.63892 0
M  V30 5062 C 455.481 -2.20055 -2.68687 0
M  V30 5063 C 454.435 -3.35854 -2.65304 0
M  V30 5064 C 453.761 -3.49435 -4.04721 0
M  V30 5065 C 455.061 -4.71977 -2.23685 0
M  V30 5066 H 456.755 -2.81292 -1.02544 0
M  V30 5067 H 454.301 -1.3534 -0.491846 0
M  V30 5068 H 456.254 -2.44237 -3.43404 0
M  V30 5069 H 454.978 -1.27551 -3.00663 0
M  V30 5070 H 453.637 -3.11655 -1.93045 0
M  V30 5071 H 453.285 -2.54379 -4.33936 0
M  V30 5072 H 452.985 -4.27297 -4.0335 0
M  V30 5073 H 454.509 -3.7592 -4.81161 0
M  V30 5074 H 455.923 -4.95637 -2.88127 0
M  V30 5075 H 454.32 -5.52828 -2.33456 0
M  V30 5076 H 455.39 -4.70115 -1.18827 0
M  V30 5077 N 456.733 0.527833 -1.48498 0
M  V30 5078 C 458.01 1.28905 -1.47115 0
M  V30 5079 C 458.39 2.10297 -0.184007 0
M  V30 5080 O 457.738 2.12728 0.834218 0
M  V30 5081 C 457.948 2.16866 -2.73441 0
M  V30 5082 C 459.296 2.76936 -3.21857 0
M  V30 5083 O 460.32 2.27152 -2.74373 0
M  V30 5084 O 459.179 3.67496 -4.04486 0
M  V30 5085 H 456.273 0.581918 -0.587623 0
M  V30 5086 H 458.819 0.544311 -1.60734 0
M  V30 5087 H 457.591 1.56521 -3.58632 0
M  V30 5088 H 457.214 2.98583 -2.62553 0
M  V30 5089 N 458.211 1.37122 0.776871 0
M  V30 5090 C 459.439 1.3523 1.5659 0
M  V30 5091 C 459.854 -0.0635518 1.88693 0
M  V30 5092 O 459.211 -1.02394 1.51069 0
M  V30 5093 C 459.262 2.18583 2.8793 0
M  V30 5094 O 458.983 3.5465 2.57206 0
M  V30 5095 C 460.484 2.24612 3.82183 0
M  V30 5096 H 457.704 0.4634 0.485285 0
M  V30 5097 H 460.248 1.80392 0.963266 0
M  V30 5098 H 458.403 1.76943 3.4463 0
M  V30 5099 H 458.817 3.98286 3.41275 0
M  V30 5100 H 460.291 2.87267 4.71361 0
M  V30 5101 H 460.768 1.25309 4.20944 0
M  V30 5102 H 461.374 2.66543 3.31414 0
M  V30 5103 N 459.689 -1.00246 1.21608 0
M  V30 5104 C 460.914 -1.78167 1.06167 0
M  V30 5105 C 461.339 -1.84138 -0.384035 0
M  V30 5106 O 460.697 -1.28683 -1.27712 0
M  V30 5107 C 460.745 -3.19786 1.66642 0
M  V30 5108 O 459.849 -4.02153 0.913613 0
M  V30 5109 H 459.19 -0.549 0.37349 0
M  V30 5110 H 461.72 -1.25994 1.61204 0
M  V30 5111 H 461.73 -3.70451 1.70969 0
M  V30 5112 H 460.405 -3.14754 2.7185 0
M  V30 5113 H 458.982 -3.60711 0.945635 0
M  V30 5114 N 461.167 -1.02423 -1.1978 0
M  V30 5115 C 462.416 -0.713265 -1.88667 0
M  V30 5116 C 462.729 0.7609 -1.80193 0
M  V30 5117 O 463.935 1.18473 -2.44288 0
M  V30 5118 C 462.391 -1.22545 -3.38394 0
M  V30 5119 C 461.999 -2.72706 -3.55437 0
M  V30 5120 C 463.743 -0.990257 -4.12788 0
M  V30 5121 C 461.65 -3.17367 -4.99031 0
M  V30 5122 H 460.58 -0.263105 -0.706606 0
M  V30 5123 H 463.231 -1.23792 -1.35454 0
M  V30 5124 H 461.613 -0.628732 -3.90977 0
M  V30 5125 H 462.787 -3.37993 -3.13205 0
M  V30 5126 H 461.102 -2.94453 -2.94425 0
M  V30 5127 H 463.699 -1.29926 -5.18675 0
M  V30 5128 H 464.042 0.0730761 -4.16236 0
M  V30 5129 H 464.575 -1.55074 -3.66329 0
M  V30 5130 H 461.314 -4.23009 -5.00743 0
M  V30 5131 H 460.834 -2.56805 -5.42044 0
M  V30 5132 H 462.513 -3.10441 -5.67658 0
M  V30 5133 N 462.645 1.35699 -0.801477 0
M  V30 5134 C 463.555 2.33661 -0.209691 0
M  V30 5135 C 464.571 1.6162 0.644591 0
M  V30 5136 O 465.747 1.93529 0.557545 0
M  V30 5137 C 462.812 3.40816 0.636033 0
M  V30 5138 C 461.873 4.28639 -0.238147 0
M  V30 5139 C 461.106 5.30676 0.567307 0
M  V30 5140 O 461.329 5.41174 1.8024 0
M  V30 5141 O 460.263 6.01887 -0.0391336 0
M  V30 5142 H 464.089 2.8606 -1.01996 0
M  V30 5143 H 461.674 1.38379 -0.563164 0
M  V30 5144 H 463.556 4.06301 1.11791 0
M  V30 5145 H 462.231 2.90696 1.42399 0
M  V30 5146 H 461.138 3.66152 -0.767044 0
M  V30 5147 H 462.471 4.82143 -0.989915 0
M  V30 5148 N 464.123 0.554532 1.47522 0
M  V30 5149 C 465.07 -0.19466 2.29978 0
M  V30 5150 C 466.04 -0.910882 1.38896 0
M  V30 5151 O 467.225 -0.907102 1.67858 0
M  V30 5152 C 464.365 -1.22035 3.22802 0
M  V30 5153 C 463.478 -0.510474 4.28973 0
M  V30 5154 C 462.613 -1.52123 5.08952 0
M  V30 5155 C 461.652 -0.796173 6.069 0
M  V30 5156 N 460.789 -1.75363 6.79847 0
M  V30 5157 H 465.629 0.51461 2.93523 0
M  V30 5158 H 463.166 0.265607 1.44682 0
M  V30 5159 H 465.124 -1.8276 3.7504 0
M  V30 5160 H 463.754 -1.89769 2.61127 0
M  V30 5161 H 462.806 0.211234 3.79813 0
M  V30 5162 H 464.118 0.0576503 4.98767 0
M  V30 5163 H 463.272 -2.20207 5.65326 0
M  V30 5164 H 462.011 -2.12327 4.39054 0
M  V30 5165 H 461.016 -0.101388 5.49707 0
M  V30 5166 H 462.241 -0.199911 6.78806 0
M  V30 5167 H 460.187 -2.3443 6.12682 0
M  V30 5168 H 460.104 -1.23759 7.45801 0
M  V30 5169 H 461.372 -2.4257 7.40797 0
M  V30 5170 N 465.601 -1.54893 0.290851 0
M  V30 5171 C 466.549 -2.24579 -0.605576 0
M  V30 5172 C 467.543 -1.24824 -1.14522 0
M  V30 5173 O 468.749 -1.42706 -1.09704 0
M  V30 5174 H 465.124 -0.720946 -0.213872 0
M  V30 5175 H 467.095 -2.984 0.0048173 0
M  V30 5176 C 465.844 -2.99224 -1.77088 0
M  V30 5177 H 465.167 -3.75782 -1.36484 0
M  V30 5178 H 466.607 -3.51281 -2.3744 0
M  V30 5179 C 465.066 -2.05602 -2.66888 0
M  V30 5180 O 465.596 -1.61745 -3.67698 0
M  V30 5181 N 463.802 -1.71771 -2.34399 0
M  V30 5182 H 463.349 -2.07633 -1.52468 0
M  V30 5183 H 463.307 -1.09403 -2.94751 0
M  V30 5184 N 467.08 -0.0183926 -1.57589 0
M  V30 5185 C 468.305 0.676634 -1.96052 0
M  V30 5186 C 468.73 1.6548 -0.894307 0
M  V30 5187 O 468.088 1.80712 0.145849 0
M  V30 5188 C 468.136 1.36872 -3.33614 0
M  V30 5189 O 467.24 2.48372 -3.29219 0
M  V30 5190 H 466.581 0.1786 -0.63953 0
M  V30 5191 H 469.111 -0.077056 -2.04455 0
M  V30 5192 H 469.121 1.72797 -3.69601 0
M  V30 5193 H 467.796 0.651636 -4.10763 0
M  V30 5194 H 466.373 2.14639 -3.04934 0
M  V30 5195 N 468.558 1.5553 0.254621 0
M  V30 5196 C 469.468 1.92789 1.33677 0
M  V30 5197 C 470.484 0.827356 1.53071 0
M  V30 5198 O 471.66 1.12807 1.66843 0
M  V30 5199 C 468.725 2.20827 2.67275 0
M  V30 5200 C 467.786 3.4427 2.5647 0
M  V30 5201 C 467.019 3.70961 3.83697 0
M  V30 5202 O 467.242 2.99852 4.85227 0
M  V30 5203 O 466.176 4.64491 3.82794 0
M  V30 5204 H 470.002 2.84945 1.05071 0
M  V30 5205 H 467.587 1.42312 0.454723 0
M  V30 5206 H 469.469 2.40204 3.46237 0
M  V30 5207 H 468.144 1.31851 2.9563 0
M  V30 5208 H 467.051 3.30209 1.75821 0
M  V30 5209 H 468.384 4.33524 2.33062 0
M  V30 5210 O 470.075 -0.400303 1.5646 0
M  V30 5211 H 470.766 -1.05256 1.62607 0
M  V30 END ATOM
M  V30 BEGIN BOND
M  V30 END BOND
M  V30 END CTAB
M  END
$$$$
