drugbank_target|P65389 Cyclic pyranopterin monophosphate synthase (DB04447)
 OpenBabel12092120293D

  0  0  0     0  0            999 V3000
M  V30 BEGIN CTAB
M  V30 COUNTS 5507 5551 0 0 0
M  V30 BEGIN ATOM
M  V30 1 H -0.908 1.98254 -0.117106 0
M  V30 2 N 0 1.576 0 0
M  V30 3 C 0.933 2.03868 1.02534 0
M  V30 4 C 1.911 0.928543 1.3348 0
M  V30 5 O 3.095 1.19667 1.45644 0
M  V30 6 C 0.222 2.43627 2.35294 0
M  V30 7 C -0.732 3.65373 2.2001 0
M  V30 8 S 0.101 5.13292 1.52614 0
M  V30 9 C 1.257 5.56322 2.86805 0
M  V30 10 H 1.49 2.90518 0.631377 0
M  V30 11 H -0.977 1.52953 0.210867 0
M  V30 12 H 0.981 2.67203 3.11629 0
M  V30 13 H -0.358 1.57376 2.7183 0
M  V30 14 H -1.165 3.90944 3.18086 0
M  V30 15 H -1.563 3.418 1.51819 0
M  V30 16 H 0.729 5.58782 3.83104 0
M  V30 17 H 1.672 6.56266 2.65933 0
M  V30 18 H 2.08 4.83886 2.90714 0
M  V30 19 N 1.4781 -0.272755 1.55222 0
M  V30 20 C 2.7241 -1.00581 1.761 0
M  V30 21 C 3.0571 -1.85932 0.560625 0
M  V30 22 O 2.3321 -1.89416 -0.441801 0
M  V30 23 C 2.6151 -1.88816 3.06628 0
M  V30 24 C 2.4681 -1.06457 4.37021 0
M  V30 25 C 3.7871 -2.8752 3.33197 0
M  V30 26 H 0.9061 -0.364244 0.640699 0
M  V30 27 H 3.5481 -0.278189 1.87952 0
M  V30 28 H 1.6981 -2.50856 2.96654 0
M  V30 29 H 3.3701 -0.464863 4.58952 0
M  V30 30 H 1.6131 -0.368043 4.32236 0
M  V30 31 H 2.2841 -1.71514 5.24678 0
M  V30 32 H 4.7601 -2.35615 3.42965 0
M  V30 33 H 3.6361 -3.46399 4.25792 0
M  V30 34 H 3.8971 -3.62657 2.52849 0
M  V30 35 N 2.9562 -1.48159 -0.537278 0
M  V30 36 C 3.8662 -1.64807 -1.6696 0
M  V30 37 C 4.8822 -0.530651 -1.65711 0
M  V30 38 O 6.0582 -0.800784 -1.84796 0
M  V30 39 C 3.1232 -1.67708 -3.03438 0
M  V30 40 C 2.1842 -2.91025 -3.156 0
M  V30 41 C 1.4172 -2.93778 -4.45567 0
M  V30 42 O 1.6402 -2.05153 -5.3223 0
M  V30 43 O 0.5742 -3.85868 -4.61941 0
M  V30 44 H 4.4002 -2.6066 -1.55853 0
M  V30 45 H 1.9852 -1.31475 -0.709549 0
M  V30 46 H 3.8672 -1.7218 -3.84619 0
M  V30 47 H 2.5422 -0.750278 -3.14885 0
M  V30 48 H 1.4492 -2.92089 -2.33741 0
M  V30 49 H 2.7822 -3.83065 -3.09066 0
M  V30 50 N 4.4343 0.785586 -1.36625 0
M  V30 51 C 5.3663 1.90711 -1.2713 0
M  V30 52 C 6.3793 1.61688 -0.189986 0
M  V30 53 O 7.5683 1.72864 -0.445014 0
M  V30 54 C 4.6683 3.25611 -0.939713 0
M  V30 55 C 3.8413 3.82385 -2.12369 0
M  V30 56 C 2.9003 4.95732 -1.76456 0
M  V30 57 O 1.9263 5.12047 -2.48589 0
M  V30 58 N 3.1283 5.76258 -0.700492 0
M  V30 59 H 5.8933 1.99376 -2.23762 0
M  V30 60 H 3.4543 0.964041 -1.30069 0
M  V30 61 H 5.4463 3.98937 -0.680554 0
M  V30 62 H 4.0163 3.12538 -0.0624074 0
M  V30 63 H 3.2363 3.01001 -2.54543 0
M  V30 64 H 4.5243 4.17047 -2.9146 0
M  V30 65 H 3.9223 5.65609 -0.101624 0
M  V30 66 H 2.4793 6.4987 -0.501165 0
M  V30 67 N 5.9124 1.20967 1.01018 0
M  V30 68 C 7.1614 1.01796 1.74128 0
M  V30 69 C 7.4744 -0.449691 1.90361 0
M  V30 70 O 8.6804 -0.76068 2.60626 0
M  V30 71 C 7.1364 1.7727 3.13215 0
M  V30 72 C 6.7444 3.28171 3.04972 0
M  V30 73 C 8.4884 1.66489 3.90489 0
M  V30 74 C 6.3954 3.96156 4.39107 0
M  V30 75 H 5.3254 0.377276 0.652824 0
M  V30 76 H 7.9764 1.44651 1.12909 0
M  V30 77 H 6.3584 1.27205 3.75013 0
M  V30 78 H 7.5324 3.85499 2.52443 0
M  V30 79 H 5.8474 3.39437 2.41188 0
M  V30 80 H 8.4444 2.14617 4.89738 0
M  V30 81 H 8.7874 0.6222 4.11624 0
M  V30 82 H 9.3204 2.14003 3.35332 0
M  V30 83 H 6.0594 5.00604 4.23174 0
M  V30 84 H 5.5794 3.43617 4.91617 0
M  V30 85 H 7.2584 4.00774 5.07926 0
M  V30 86 N 7.3905 -1.2043 1.01659 0
M  V30 87 C 8.3375 -2.23215 0.586822 0
M  V30 88 C 9.3075 -1.61382 -0.393085 0
M  V30 89 O 10.4925 -1.88544 -0.292525 0
M  V30 90 C 7.6325 -3.45032 -0.0687464 0
M  V30 91 C 6.7455 -4.21296 0.955724 0
M  V30 92 C 5.8805 -5.30507 0.271208 0
M  V30 93 C 4.9195 -5.98515 1.28244 0
M  V30 94 N 4.0565 -6.99316 0.62459 0
M  V30 95 H 8.8965 -2.59336 1.46796 0
M  V30 96 H 6.4335 -1.27431 0.734836 0
M  V30 97 H 8.3915 -4.1459 -0.465965 0
M  V30 98 H 7.0215 -3.09604 -0.913529 0
M  V30 99 H 6.0735 -3.50803 1.4711 0
M  V30 100 H 7.3855 -4.6803 1.72479 0
M  V30 101 H 6.5395 -6.06428 -0.18151 0
M  V30 102 H 5.2785 -4.8481 -0.530163 0
M  V30 103 H 4.2835 -5.21355 1.74554 0
M  V30 104 H 5.5085 -6.46298 2.08509 0
M  V30 105 H 3.4545 -6.55812 -0.156914 0
M  V30 106 H 3.3715 -7.44178 1.33172 0
M  V30 107 H 4.6395 -7.79255 0.195462 0
M  V30 108 N 8.8686 -0.792821 -1.36206 0
M  V30 109 C 10.1456 -0.290627 -1.93429 0
M  V30 110 C 10.5256 1.21773 -1.72437 0
M  V30 111 O 9.8736 2.0108 -1.08531 0
M  V30 112 C 10.0836 -0.686973 -3.42172 0
M  V30 113 C 11.4316 -0.668643 -4.19302 0
M  V30 114 O 12.4556 -0.627658 -3.50626 0
M  V30 115 O 11.3146 -0.714597 -5.41808 0
M  V30 116 H 8.4086 -0.0727927 -0.82379 0
M  V30 117 H 10.9546 -0.875593 -1.45367 0
M  V30 118 H 9.7266 -1.72711 -3.51122 0
M  V30 119 H 9.3496 -0.0760733 -3.97527 0
M  V30 120 N 10.3467 1.47872 -0.545128 0
M  V30 121 C 11.2937 2.29849 0.2093 0
M  V30 122 C 12.2637 1.38313 0.919707 0
M  V30 123 O 13.4487 1.67277 0.917772 0
M  V30 124 C 10.5887 3.22019 1.24088 0
M  V30 125 C 9.7017 4.2864 0.537778 0
M  V30 126 C 8.8367 5.07973 1.5536 0
M  V30 127 C 7.8757 6.06381 0.8348 0
M  V30 128 N 7.0127 6.78717 1.79688 0
M  V30 129 H 11.8527 2.93845 -0.49591 0
M  V30 130 H 9.3897 1.44848 -0.256389 0
M  V30 131 H 11.3477 3.73868 1.85144 0
M  V30 132 H 9.9777 2.59914 1.91428 0
M  V30 133 H 9.0297 3.7994 -0.187046 0
M  V30 134 H 10.3417 4.98793 -0.0258907 0
M  V30 135 H 9.4957 5.63912 2.23803 0
M  V30 136 H 8.2347 4.37693 2.15118 0
M  V30 137 H 7.2397 5.49631 0.136388 0
M  V30 138 H 8.4647 6.78665 0.24313 0
M  V30 139 H 6.4107 6.11177 2.38326 0
M  V30 140 H 6.3277 7.44998 1.28505 0
M  V30 141 H 7.5957 7.39237 2.47282 0
M  V30 142 N 11.8248 0.280983 1.55075 0
M  V30 143 C 12.7548 -0.597469 2.25727 0
M  V30 144 C 13.7358 -1.15417 1.24952 0
M  V30 145 O 14.9208 -1.18722 1.53684 0
M  V30 146 C 12.0508 -1.7789 2.98283 0
M  V30 147 C 11.0048 -1.35347 4.06036 0
M  V30 148 C 10.3308 -2.61846 4.66198 0
M  V30 149 C 11.6308 -0.499354 5.19907 0
M  V30 150 H 13.3248 -0.00824265 2.99399 0
M  V30 151 H 10.8708 -0.0025244 1.44 0
M  V30 152 H 12.8238 -2.39937 3.46422 0
M  V30 153 H 11.5478 -2.39405 2.22155 0
M  V30 154 H 10.2068 -0.756156 3.58717 0
M  V30 155 H 9.8548 -3.21632 3.86732 0
M  V30 156 H 9.5548 -2.3409 5.38958 0
M  V30 157 H 11.0788 -3.24732 5.1709 0
M  V30 158 H 12.4928 -1.02498 5.64063 0
M  V30 159 H 10.8898 -0.316424 5.99265 0
M  V30 160 H 11.9598 0.480459 4.82514 0
M  V30 161 N 13.3029 -1.57598 0.00835791 0
M  V30 162 C 14.5509 -1.90551 -0.6734 0
M  V30 163 C 14.8719 -0.883301 -1.73847 0
M  V30 164 O 14.1419 0.0781442 -1.95744 0
M  V30 165 H 12.7219 -0.703312 -0.251717 0
M  V30 166 H 15.3839 -1.94833 0.0512592 0
M  V30 167 H 14.4799 -2.9056 -1.13935 0
M  V30 168 N 14.781 0.264519 -1.55364 0
M  V30 169 C 16.197 0.61215 -1.47394 0
M  V30 170 C 16.397 1.89134 -0.695018 0
M  V30 171 O 15.453 2.51563 -0.217275 0
M  V30 172 C 16.766 0.731235 -2.91674 0
M  V30 173 C 18.314 0.82473 -3.01939 0
M  V30 174 C 18.789 0.975522 -4.4749 0
M  V30 175 N 20.28 1.04083 -4.51354 0
M  V30 176 C 21.015 1.17646 -5.61201 0
M  V30 177 N 20.511 1.27874 -6.80896 0
M  V30 178 N 22.304 1.20823 -5.48961 0
M  V30 179 H 14.455 -0.575456 -2.04456 0
M  V30 180 H 16.718 -0.196099 -0.927496 0
M  V30 181 H 16.424 -0.138392 -3.51428 0
M  V30 182 H 16.298 1.60883 -3.41169 0
M  V30 183 H 18.685 1.68482 -2.42276 0
M  V30 184 H 18.766 -0.0776479 -2.55682 0
M  V30 185 H 18.41 0.120058 -5.07758 0
M  V30 186 H 18.34 1.89268 -4.91412 0
M  V30 187 H 20.831 0.973846 -3.65136 0
M  V30 188 H 21.144 1.38081 -7.60364 0
M  V30 189 H 19.489 1.24863 -6.83692 0
M  V30 190 H 22.68 1.12469 -4.54388 0
M  V30 191 H 22.853 1.31049 -6.3461 0
M  V30 192 N 16.2591 1.48442 0.529413 0
M  V30 193 C 17.6701 1.5002 1.11134 0
M  V30 194 C 18.0211 0.27031 1.94329 0
M  V30 195 O 17.1461 -0.622507 2.07253 0
M  V30 196 C 17.7411 2.71834 2.02217 0
M  V30 197 C 16.3001 2.76283 2.55627 0
M  V30 198 C 15.4471 2.43542 1.326 0
M  V30 199 H 18.3981 1.5555 0.314641 0
M  V30 200 H 18.4191 2.50384 2.8651 0
M  V30 201 H 17.9311 3.61331 1.41639 0
M  V30 202 H 16.0321 1.90995 3.19924 0
M  V30 203 H 16.1451 3.77725 2.94721 0
M  V30 204 H 14.5091 1.94709 1.64196 0
M  V30 205 H 15.2921 3.3528 0.737734 0
M  V30 206 N 17.7372 -0.778329 1.37039 0
M  V30 207 C 18.9862 -1.53189 1.3121 0
M  V30 208 C 19.2992 -1.95328 -0.103095 0
M  V30 209 O 20.5052 -2.70012 -0.283826 0
M  V30 210 C 18.9612 -2.76591 2.30272 0
M  V30 211 C 18.5692 -2.41577 3.77286 0
M  V30 212 C 20.3132 -3.5455 2.33441 0
M  V30 213 C 18.2202 -3.61441 4.68096 0
M  V30 214 H 17.1502 -0.5751 0.487622 0
M  V30 215 H 19.8012 -0.853101 1.62464 0
M  V30 216 H 18.1832 -3.46326 1.92027 0
M  V30 217 H 19.3572 -1.79668 4.2433 0
M  V30 218 H 17.6722 -1.76806 3.76999 0
M  V30 219 H 20.2692 -4.43628 2.98493 0
M  V30 220 H 20.6122 -3.93936 1.34611 0
M  V30 221 H 21.1452 -2.91805 2.7036 0
M  V30 222 H 17.8842 -3.27142 5.6803 0
M  V30 223 H 17.4042 -4.22478 4.25761 0
M  V30 224 H 19.0832 -4.28335 4.8491 0
M  V30 225 N 19.2153 -1.21501 -1.00376 0
M  V30 226 C 20.6313 -0.972629 -1.26539 0
M  V30 227 C 20.8313 0.340257 -1.98606 0
M  V30 228 O 19.8873 1.06561 -2.28913 0
M  V30 229 C 21.2003 -2.16404 -2.08781 0
M  V30 230 C 22.7483 -2.20643 -2.22004 0
M  V30 231 C 23.2233 -3.39306 -3.07629 0
M  V30 232 N 24.7143 -3.39401 -3.15217 0
M  V30 233 C 25.4493 -4.27867 -3.81729 0
M  V30 234 N 24.9453 -5.26533 -4.5026 0
M  V30 235 N 26.7383 -4.15672 -3.78382 0
M  V30 236 H 18.8893 -2.05929 -0.520281 0
M  V30 237 H 21.1523 -0.901803 -0.292328 0
M  V30 238 H 20.8583 -3.11554 -1.63178 0
M  V30 239 H 20.7323 -2.15567 -3.09533 0
M  V30 240 H 23.1193 -1.26048 -2.66825 0
M  V30 241 H 23.2003 -2.25523 -1.20718 0
M  V30 242 H 22.8443 -4.34195 -2.63509 0
M  V30 243 H 22.7743 -3.31665 -4.09031 0
M  V30 244 H 25.2653 -2.67997 -2.66432 0
M  V30 245 H 25.5783 -5.90337 -4.98721 0
M  V30 246 H 23.9233 -5.30457 -4.49044 0
M  V30 247 H 27.1143 -3.3785 -3.23998 0
M  V30 248 H 27.2873 -4.84825 -4.2994 0
M  V30 249 N 20.6934 1.19889 -1.02296 0
M  V30 250 C 21.9704 1.85148 -0.630832 0
M  V30 251 C 22.3504 1.91385 0.890782 0
M  V30 252 O 21.6984 1.42642 1.78509 0
M  V30 253 C 21.9084 3.24442 -1.28602 0
M  V30 254 C 23.2564 4.00663 -1.4055 0
M  V30 255 O 24.2804 3.33818 -1.24273 0
M  V30 256 O 23.1394 5.20387 -1.66913 0
M  V30 257 H 20.2334 0.797613 -0.218499 0
M  V30 258 H 22.7794 1.27427 -1.12074 0
M  V30 259 H 21.5514 3.14704 -2.32545 0
M  V30 260 H 21.1744 3.89802 -0.7836 0
M  V30 261 N 22.1715 0.800033 1.35784 0
M  V30 262 C 23.1015 0.220184 2.3246 0
M  V30 263 C 24.0825 -0.65073 1.57161 0
M  V30 264 O 25.2675 -0.582359 1.85263 0
M  V30 265 C 22.3975 -0.637353 3.41402 0
M  V30 266 C 21.3515 0.134531 4.27789 0
M  V30 267 C 20.6775 -0.844285 5.27992 0
M  V30 268 C 21.9775 1.32979 5.05088 0
M  V30 269 H 23.6715 1.02787 2.81203 0
M  V30 270 H 21.2175 0.495717 1.35199 0
M  V30 271 H 23.1705 -1.05302 4.08031 0
M  V30 272 H 21.8945 -1.47785 2.91251 0
M  V30 273 H 20.5535 0.531296 3.6273 0
M  V30 274 H 20.2015 -1.68011 4.74111 0
M  V30 275 H 19.9015 -0.332184 5.8666 0
M  V30 276 H 21.4255 -1.2583 5.97494 0
M  V30 277 H 22.8395 0.98934 5.64699 0
M  V30 278 H 21.2365 1.77593 5.7322 0
M  V30 279 H 22.3065 2.11978 4.36111 0
M  V30 280 N 23.6496 -1.47581 0.552962 0
M  V30 281 C 25.0656 -1.5818 0.212424 0
M  V30 282 C 25.2656 -1.55213 -1.28496 0
M  V30 283 O 24.3216 -1.45329 -2.06484 0
M  V30 284 C 25.6346 -2.88865 0.835318 0
M  V30 285 C 27.1826 -3.0244 0.806156 0
M  V30 286 C 27.6576 -4.35819 1.40804 0
M  V30 287 N 29.1486 -4.42444 1.37103 0
M  V30 288 C 29.8836 -5.44202 1.80641 0
M  V30 289 N 29.3796 -6.52795 2.32015 0
M  V30 290 N 31.1726 -5.35222 1.71738 0
M  V30 291 H 23.3236 -1.47753 1.52587 0
M  V30 292 H 25.5866 -0.702941 0.636064 0
M  V30 293 H 25.2926 -2.9676 1.88749 0
M  V30 294 H 25.1666 -3.7579 0.325848 0
M  V30 295 H 27.5536 -2.94144 -0.237317 0
M  V30 296 H 27.6346 -2.17068 1.35334 0
M  V30 297 H 27.2786 -4.44871 2.45056 0
M  V30 298 H 27.2086 -5.19916 0.836338 0
M  V30 299 H 29.6996 -3.6456 0.995202 0
M  V30 300 H 30.0126 -7.26609 2.63171 0
M  V30 301 H 28.3576 -6.53696 2.36023 0
M  V30 302 H 31.5486 -4.49284 1.31382 0
M  V30 303 H 31.7216 -6.14389 2.05987 0
M  V30 304 N 25.1277 -0.289203 -1.54924 0
M  V30 305 C 26.0577 0.58549 -2.2604 0
M  V30 306 C 27.0387 1.14753 -1.25562 0
M  V30 307 O 28.2237 1.17906 -1.54311 0
M  V30 308 C 25.3537 1.76305 -2.99222 0
M  V30 309 C 24.3077 1.33191 -4.06748 0
M  V30 310 C 23.6337 2.5937 -4.6758 0
M  V30 311 C 24.9337 0.471775 -5.20165 0
M  V30 312 H 26.6277 -0.00763532 -2.99399 0
M  V30 313 H 24.1737 -0.00511229 -1.43999 0
M  V30 314 H 26.1267 2.38097 -3.47689 0
M  V30 315 H 24.8507 2.38223 -2.23422 0
M  V30 316 H 23.5097 0.737121 -3.59113 0
M  V30 317 H 23.1577 3.19576 -3.88433 0
M  V30 318 H 22.8577 2.31228 -5.40192 0
M  V30 319 H 24.3817 3.21985 -5.18804 0
M  V30 320 H 25.7957 0.995056 -5.64599 0
M  V30 321 H 24.1927 0.284639 -5.99425 0
M  V30 322 H 25.2627 -0.506041 -4.82252 0
M  V30 323 N 26.6058 1.57591 -0.0167156 0
M  V30 324 C 27.8308 1.9598 0.67872 0
M  V30 325 C 28.2558 0.892546 1.65575 0
M  V30 326 O 27.6138 -0.147772 1.80697 0
M  V30 327 C 27.6618 3.33468 1.37227 0
M  V30 328 O 26.7658 3.28954 2.48722 0
M  V30 329 H 26.1068 0.639339 0.17928 0
M  V30 330 H 28.6368 2.04463 -0.0748802 0
M  V30 331 H 28.6468 3.69417 1.7319 0
M  V30 332 H 27.3218 4.10694 0.656007 0
M  V30 333 H 25.8988 3.04705 2.14963 0
M  V30 334 N 28.0839 -0.256276 1.55502 0
M  V30 335 C 29.3299 -0.987079 1.77157 0
M  V30 336 C 29.6629 -1.85327 0.580315 0
M  V30 337 O 28.9379 -1.89874 -0.421686 0
M  V30 338 C 29.2209 -1.85553 3.08613 0
M  V30 339 C 29.0739 -1.01816 4.38125 0
M  V30 340 C 30.3929 -2.8397 3.36228 0
M  V30 341 H 27.5119 -0.357428 0.644526 0
M  V30 342 H 30.1539 -0.258239 1.88237 0
M  V30 343 H 28.3039 -2.47695 2.99298 0
M  V30 344 H 29.9759 -0.416159 4.59419 0
M  V30 345 H 28.2189 -0.322178 4.32602 0
M  V30 346 H 28.8899 -1.65939 5.26468 0
M  V30 347 H 31.3659 -2.31964 3.45445 0
M  V30 348 H 30.2419 -3.41864 4.29442 0
M  V30 349 H 30.5029 -3.59955 2.56681 0
M  V30 350 N 29.562 -1.4872 -0.521534 0
M  V30 351 C 30.79 -1.60843 -1.30142 0
M  V30 352 C 31.205 -0.271897 -1.86832 0
M  V30 353 O 30.562 0.739969 -1.66825 0
M  V30 354 C 30.613 -2.66155 -2.4463 0
M  V30 355 O 30.334 -3.94623 -1.90275 0
M  V30 356 C 31.835 -2.88795 -3.36322 0
M  V30 357 H 29.055 -0.542075 -0.395468 0
M  V30 358 H 31.599 -1.94609 -0.628285 0
M  V30 359 H 29.754 -2.35224 -3.07812 0
M  V30 360 H 30.168 -4.52468 -2.65279 0
M  V30 361 H 31.642 -3.66264 -4.12983 0
M  V30 362 H 32.119 -1.97934 -3.9207 0
M  V30 363 H 32.725 -3.21063 -2.78924 0
M  V30 364 N 31.0401 0.771051 -1.3745 0
M  V30 365 C 32.3171 1.519 -1.23231 0
M  V30 366 C 32.6971 2.10383 0.173809 0
M  V30 367 O 32.0451 1.95583 1.18151 0
M  V30 368 C 32.2551 2.59933 -2.32886 0
M  V30 369 C 33.6031 3.27316 -2.70461 0
M  V30 370 O 34.6271 2.70228 -2.32068 0
M  V30 371 O 33.4861 4.30531 -3.36608 0
M  V30 372 H 30.5801 0.672803 -0.480901 0
M  V30 373 H 33.1261 0.807957 -1.49232 0
M  V30 374 H 31.8981 2.14842 -3.27045 0
M  V30 375 H 31.5211 3.38637 -2.08353 0
M  V30 376 N 32.5182 1.22032 0.997298 0
M  V30 377 C 33.9342 0.979326 1.26021 0
M  V30 378 C 34.1342 -0.32972 1.98784 0
M  V30 379 O 33.1902 -1.05345 2.29475 0
M  V30 380 C 34.5032 2.17509 2.07631 0
M  V30 381 C 36.0512 2.21817 2.2083 0
M  V30 382 C 36.5262 3.40933 3.05825 0
M  V30 383 N 38.0172 3.41067 3.13412 0
M  V30 384 C 38.7522 4.29885 3.79455 0
M  V30 385 N 38.2482 5.28914 4.47462 0
M  V30 386 N 40.0412 4.17673 3.76173 0
M  V30 387 H 32.1922 2.06202 0.509352 0
M  V30 388 H 34.4552 0.90334 0.287541 0
M  V30 389 H 34.1612 3.12415 1.61524 0
M  V30 390 H 34.0352 2.17206 3.08385 0
M  V30 391 H 36.4222 1.27462 2.66153 0
M  V30 392 H 36.5032 2.2616 1.1952 0
M  V30 393 H 36.1472 4.35586 2.61203 0
M  V30 394 H 36.0772 3.33829 4.07266 0
M  V30 395 H 38.5682 2.69406 2.65007 0
M  V30 396 H 38.8812 5.92973 4.95583 0
M  V30 397 H 37.2262 5.32831 4.46224 0
M  V30 398 H 40.4172 3.39564 3.22202 0
M  V30 399 H 40.5902 4.87098 4.27363 0
M  V30 400 N 33.9963 -1.19345 1.0293 0
M  V30 401 C 35.2363 -1.90738 0.734727 0
M  V30 402 C 35.6003 -1.7785 -0.723414 0
M  V30 403 O 36.8013 -2.43844 -1.13108 0
M  V30 404 C 35.0723 -3.37569 1.17396 0
M  V30 405 S 36.6313 -4.27176 1.00329 0
M  V30 406 H 33.4493 -0.658771 0.267474 0
M  V30 407 H 36.0513 -1.4428 1.31922 0
M  V30 408 H 34.7553 -3.44475 2.23081 0
M  V30 409 H 34.2863 -3.8906 0.582772 0
M  V30 410 H 36.3013 -4.96126 -0.0859152 0
M  V30 411 N 35.4744 -0.807222 -1.35358 0
M  V30 412 C 36.4224 -0.20614 -2.31685 0
M  V30 413 C 37.4164 0.644445 -1.56663 0
M  V30 414 O 38.6224 0.537538 -1.71786 0
M  V30 415 H 34.9974 -0.0479006 -0.750473 0
M  V30 416 H 36.9684 -1.03369 -2.79924 0
M  V30 417 C 35.7174 0.630212 -3.41941 0
M  V30 418 H 35.0404 -0.0149558 -3.99797 0
M  V30 419 H 36.4804 1.01716 -4.11619 0
M  V30 420 C 34.9394 1.79601 -2.85035 0
M  V30 421 O 35.4694 2.89351 -2.78637 0
M  V30 422 N 33.6754 1.60774 -2.42074 0
M  V30 423 H 33.2224 0.715009 -2.47478 0
M  V30 424 H 33.1804 2.38933 -2.04349 0
M  V30 425 N 36.9525 1.47285 -0.560781 0
M  V30 426 C 38.1995 2.02464 -0.038062 0
M  V30 427 C 38.5275 1.43474 1.31322 0
M  V30 428 O 37.7825 0.581311 1.86867 0
M  V30 429 C 38.0815 3.57258 0.100784 0
M  V30 430 C 37.7475 4.35184 -1.18007 0
M  V30 431 C 36.4095 4.56194 -1.53103 0
M  V30 432 C 38.7615 4.80098 -2.02867 0
M  V30 433 C 36.0895 5.19367 -2.729 0
M  V30 434 C 38.4415 5.44593 -3.21871 0
M  V30 435 C 37.1055 5.63835 -3.57276 0
M  V30 436 H 36.3755 0.740869 -0.0139279 0
M  V30 437 H 39.0225 1.76916 -0.733012 0
M  V30 438 H 37.3275 3.81819 0.878724 0
M  V30 439 H 39.0245 3.97606 0.520639 0
M  V30 440 H 35.6145 4.19113 -0.8968 0
M  V30 441 H 39.7985 4.63642 -1.7706 0
M  V30 442 H 35.0545 5.32459 -3.00496 0
M  V30 443 H 39.2285 5.78358 -3.87911 0
M  V30 444 H 36.8555 6.12557 -4.50197 0
M  V30 445 N 38.4306 0.297415 1.54768 0
M  V30 446 C 39.8466 -0.0560823 1.59501 0
M  V30 447 C 40.0466 -1.52725 1.31444 0
M  V30 448 O 39.1026 -2.27947 1.08611 0
M  V30 449 C 40.4156 0.338631 2.98787 0
M  V30 450 C 41.9636 0.287097 3.11681 0
M  V30 451 C 42.4386 0.656579 4.53269 0
M  V30 452 N 43.9296 0.608977 4.59179 0
M  V30 453 C 44.6646 0.867385 5.66802 0
M  V30 454 N 44.1606 1.19157 6.82476 0
M  V30 455 N 45.9536 0.794687 5.56454 0
M  V30 456 H 38.1046 1.25624 1.71267 0
M  V30 457 H 40.3676 0.509057 0.799728 0
M  V30 458 H 40.0736 1.36263 3.2423 0
M  V30 459 H 39.9476 -0.309508 3.75928 0
M  V30 460 H 42.3346 -0.727649 2.85988 0
M  V30 461 H 42.4156 0.969809 2.36703 0
M  V30 462 H 42.0596 1.66912 4.7969 0
M  V30 463 H 41.9896 -0.0481649 5.26578 0
M  V30 464 H 44.4806 0.369198 3.76092 0
M  V30 465 H 44.7936 1.37482 7.60473 0
M  V30 466 H 43.1386 1.22958 6.84037 0
M  V30 467 H 46.3296 0.541098 4.64962 0
M  V30 468 H 46.5026 0.999445 6.40246 0
M  V30 469 N 39.9087 -1.5758 0.0250728 0
M  V30 470 C 41.1487 -1.93497 -0.65865 0
M  V30 471 C 41.5127 -0.901409 -1.69525 0
M  V30 472 O 42.7137 -1.14664 -2.43116 0
M  V30 473 C 40.9847 -3.34352 -1.26267 0
M  V30 474 S 42.5437 -3.92191 -1.96803 0
M  V30 475 H 39.3617 -0.67709 -0.216958 0
M  V30 476 H 41.9637 -1.95303 0.0877692 0
M  V30 477 H 40.6677 -4.07395 -0.495741 0
M  V30 478 H 40.1987 -3.3598 -2.04648 0
M  V30 479 H 42.2137 -3.75298 -3.24601 0
M  V30 480 N 41.3868 0.248026 -1.55636 0
M  V30 481 C 42.6638 0.998988 -1.68165 0
M  V30 482 C 43.0438 2.03409 -0.564621 0
M  V30 483 O 42.3918 2.24378 0.432076 0
M  V30 484 C 42.6018 1.63334 -3.0842 0
M  V30 485 C 43.9498 2.13562 -3.66983 0
M  V30 486 O 44.9738 1.73277 -3.11213 0
M  V30 487 O 43.8328 2.87526 -4.64749 0
M  V30 488 H 40.9268 0.464933 -0.683935 0
M  V30 489 H 43.4728 0.241902 -1.67967 0
M  V30 490 H 42.2448 0.884583 -3.8117 0
M  V30 491 H 41.8678 2.45666 -3.12624 0
M  V30 492 N 42.8649 1.48995 0.513639 0
M  V30 493 C 44.0949 1.61297 1.291 0
M  V30 494 C 44.5029 0.278656 1.87137 0
M  V30 495 O 43.8459 -0.744325 1.67945 0
M  V30 496 C 43.9079 2.61326 2.46879 0
M  V30 497 C 43.5719 4.05993 2.09807 0
M  V30 498 C 44.5689 4.93183 1.64519 0
M  V30 499 C 42.2539 4.51642 2.19829 0
M  V30 500 C 44.2479 6.24056 1.2974 0
M  V30 501 C 41.9349 5.82532 1.84662 0
M  V30 502 C 42.9329 6.68562 1.3969 0
M  V30 503 O 42.6209 7.97014 1.04992 0
M  V30 504 H 42.3529 0.546236 0.39825 0
M  V30 505 H 44.9069 1.95673 0.62459 0
M  V30 506 H 43.1369 2.22104 3.16554 0
M  V30 507 H 44.8259 2.6329 3.08923 0
M  V30 508 H 45.5919 4.59147 1.56233 0
M  V30 509 H 41.4709 3.84855 2.53786 0
M  V30 510 H 45.0149 6.91161 0.945659 0
M  V30 511 H 40.9119 6.16099 1.92594 0
M  V30 512 H 41.6799 8.09913 1.18249 0
M  V30 513 N 44.343 -0.763751 1.37857 0
M  V30 514 C 45.583 -1.53551 1.34913 0
M  V30 515 C 45.947 -1.91895 -0.0635882 0
M  V30 516 O 47.148 -2.67916 -0.217825 0
M  V30 517 C 45.419 -2.76126 2.26912 0
M  V30 518 S 46.978 -3.66105 2.41893 0
M  V30 519 H 43.796 -0.52559 0.478828 0
M  V30 520 H 46.398 -0.897435 1.73685 0
M  V30 521 H 45.102 -2.4605 3.28463 0
M  V30 522 H 44.633 -3.44887 1.89253 0
M  V30 523 H 46.648 -4.68473 1.63545 0
M  V30 524 N 45.8211 -1.22559 -0.990812 0
M  V30 525 C 46.7541 -0.940773 -2.07905 0
M  V30 526 C 47.7321 0.117082 -1.62178 0
M  V30 527 O 48.9161 -0.0149506 -1.88494 0
M  V30 528 C 46.0431 -0.415321 -3.36144 0
M  V30 529 C 45.0891 -1.45818 -4.00799 0
M  V30 530 S 45.9221 -3.03219 -4.41382 0
M  V30 531 C 47.0781 -2.52317 -5.72789 0
M  V30 532 H 47.3111 -1.8623 -2.31745 0
M  V30 533 H 44.8441 -1.05688 -1.12558 0
M  V30 534 H 46.8021 -0.118747 -4.10328 0
M  V30 535 H 45.4631 0.485121 -3.10331 0
M  V30 536 H 44.6561 -1.04044 -4.93144 0
M  V30 537 H 44.2581 -1.70356 -3.32949 0
M  V30 538 H 46.5501 -1.93688 -6.49224 0
M  V30 539 H 47.4931 -3.43161 -6.19392 0
M  V30 540 H 47.9011 -1.93529 -5.30289 0
M  V30 541 N 47.2992 1.18797 -1.03562 0
M  V30 542 C 48.7102 1.70322 -0.764676 0
M  V30 543 C 49.0612 1.82708 0.714996 0
M  V30 544 O 48.1862 1.50299 1.55689 0
M  V30 545 C 48.7812 3.09356 -1.38145 0
M  V30 546 C 47.3402 3.58114 -1.15895 0
M  V30 547 C 46.4872 2.34798 -1.4753 0
M  V30 548 H 49.4382 1.03543 -1.20268 0
M  V30 549 H 49.4592 3.72378 -0.781977 0
M  V30 550 H 48.9712 3.00309 -2.45837 0
M  V30 551 H 47.0722 3.72464 -0.100544 0
M  V30 552 H 47.1852 4.4184 -1.8524 0
M  V30 553 H 45.5492 2.38464 -0.894829 0
M  V30 554 H 46.3322 2.28375 -2.56319 0
M  V30 555 N 48.7773 0.814389 1.34928 0
M  V30 556 C 49.7243 0.22822 2.29669 0
M  V30 557 C 50.6943 -0.642164 1.53184 0
M  V30 558 O 51.8793 -0.585605 1.81591 0
M  V30 559 C 49.0193 -0.61089 3.3965 0
M  V30 560 C 48.1323 0.280792 4.31086 0
M  V30 561 C 47.2673 -0.567067 5.28165 0
M  V30 562 C 46.3063 0.324531 6.11239 0
M  V30 563 N 45.4433 -0.483756 7.00431 0
M  V30 564 H 50.2833 1.04153 2.79206 0
M  V30 565 H 47.8203 0.525133 1.37407 0
M  V30 566 H 49.7783 -1.11263 4.0209 0
M  V30 567 H 48.4083 -1.38939 2.91369 0
M  V30 568 H 47.4603 0.900688 3.69583 0
M  V30 569 H 48.7723 0.966723 4.89342 0
M  V30 570 H 47.9263 -1.13363 5.96015 0
M  V30 571 H 46.6653 -1.28654 4.70425 0
M  V30 572 H 45.6703 0.903298 5.42329 0
M  V30 573 H 46.8953 1.04198 6.71059 0
M  V30 574 H 44.8413 -1.18706 6.45171 0
M  V30 575 H 44.7583 0.143965 7.55863 0
M  V30 576 H 46.0263 -1.03334 7.7262 0
M  V30 577 N 50.2554 -1.46986 0.568584 0
M  V30 578 C 51.1654 -2.33942 -0.17555 0
M  V30 579 C 52.1814 -1.48891 -0.90041 0
M  V30 580 O 53.3574 -1.81794 -0.86676 0
M  V30 581 C 50.4224 -3.25811 -1.18524 0
M  V30 582 C 49.4834 -4.26757 -0.466582 0
M  V30 583 C 48.7164 -5.14236 -1.42817 0
M  V30 584 O 48.9394 -5.04379 -2.66379 0
M  V30 585 O 47.8734 -5.94412 -0.946453 0
M  V30 586 H 51.6994 -2.98896 0.538036 0
M  V30 587 H 49.2844 -1.4573 0.329097 0
M  V30 588 H 51.1664 -3.82527 -1.76779 0
M  V30 589 H 49.8414 -2.63471 -1.88055 0
M  V30 590 H 48.7484 -3.73769 0.157451 0
M  V30 591 H 50.0814 -4.91843 0.187485 0
M  V30 592 N 51.7335 -0.305618 -1.54608 0
M  V30 593 C 52.9795 0.302746 -2.00528 0
M  V30 594 C 53.3125 1.53184 -1.19367 0
M  V30 595 O 52.5875 1.92598 -0.271321 0
M  V30 596 C 52.8705 0.654756 -3.54097 0
M  V30 597 C 52.7235 -0.583793 -4.45995 0
M  V30 598 C 54.0425 1.47947 -4.14487 0
M  V30 599 H 51.1615 0.108564 -0.72896 0
M  V30 600 H 53.8035 -0.418634 -1.85331 0
M  V30 601 H 51.9535 1.26935 -3.67178 0
M  V30 602 H 53.6255 -1.22224 -4.44814 0
M  V30 603 H 51.8685 -1.21615 -4.16404 0
M  V30 604 H 52.5395 -0.293287 -5.5122 0
M  V30 605 H 55.0155 0.96013 -4.04871 0
M  V30 606 H 53.8915 1.69454 -5.22088 0
M  V30 607 H 54.1525 2.47011 -3.66658 0
M  V30 608 N 53.2116 1.57565 -0.0334293 0
M  V30 609 C 54.4586 1.91978 0.644272 0
M  V30 610 C 54.7866 0.910231 1.71887 0
M  V30 611 O 54.0416 -0.0801961 1.95536 0
M  V30 612 C 54.3406 3.33112 1.29504 0
M  V30 613 C 54.0066 4.49537 0.350388 0
M  V30 614 C 52.6686 4.81115 0.0903974 0
M  V30 615 C 55.0206 5.20347 -0.298032 0
M  V30 616 C 52.3486 5.8086 -0.825746 0
M  V30 617 C 54.7006 6.2107 -1.20226 0
M  V30 618 C 53.3646 6.51088 -1.4711 0
M  V30 619 H 52.6346 0.702496 0.235756 0
M  V30 620 H 55.2816 1.91259 -0.0961176 0
M  V30 621 H 53.5866 3.30113 2.11028 0
M  V30 622 H 55.2836 3.57011 1.82603 0
M  V30 623 H 51.8736 4.24883 0.563205 0
M  V30 624 H 56.0576 4.96178 -0.110234 0
M  V30 625 H 51.3136 6.02461 -1.04169 0
M  V30 626 H 55.4876 6.75057 -1.71086 0
M  V30 627 H 53.1146 7.28193 -2.18264 0
M  V30 628 N 54.6897 -0.239769 1.55765 0
M  V30 629 C 55.9377 -0.964892 1.77579 0
M  V30 630 C 56.2587 -1.85582 0.598699 0
M  V30 631 O 55.5287 -1.92075 -0.385226 0
M  V30 632 H 54.1087 -0.359265 0.654933 0
M  V30 633 H 56.7707 -0.256001 1.93211 0
M  V30 634 H 55.8667 -1.58243 2.69009 0
M  V30 635 N 56.1678 -1.49265 -0.50573 0
M  V30 636 C 57.4448 -1.49012 -1.26707 0
M  V30 637 C 57.8248 -0.215205 -2.1 0
M  V30 638 O 57.1728 0.802547 -2.13943 0
M  V30 639 C 57.3828 -2.7663 -2.12783 0
M  V30 640 C 58.7308 -3.25932 -2.72127 0
M  V30 641 O 59.7548 -2.77715 -2.23054 0
M  V30 642 O 58.6138 -4.09897 -3.61451 0
M  V30 643 H 55.7078 -0.596197 -0.57313 0
M  V30 644 H 58.2538 -1.61524 -0.52039 0
M  V30 645 H 57.0258 -3.60916 -1.5118 0
M  V30 646 H 56.6488 -2.66956 -2.94653 0
M  V30 647 N 57.6459 0.756429 -1.3826 0
M  V30 648 C 58.9229 1.50584 -1.24835 0
M  V30 649 C 59.3029 2.10556 0.151485 0
M  V30 650 O 58.6509 1.96825 1.1607 0
M  V30 651 C 58.8609 2.57448 -2.3563 0
M  V30 652 C 60.2089 3.24429 -2.73917 0
M  V30 653 O 61.2329 2.67751 -2.34921 0
M  V30 654 O 60.0919 4.26937 -3.41156 0
M  V30 655 H 57.1859 0.667664 -0.48801 0
M  V30 656 H 59.7319 0.792083 -1.5008 0
M  V30 657 H 58.5039 2.11362 -3.29305 0
M  V30 658 H 58.1269 3.36408 -2.11933 0
M  V30 659 N 59.124 1.23083 0.984299 0
M  V30 660 C 60.371 1.06057 1.72505 0
M  V30 661 C 60.699 -0.403105 1.90277 0
M  V30 662 O 59.954 -1.3149 1.44944 0
M  V30 663 C 60.253 1.72673 3.1292 0
M  V30 664 C 59.919 3.22586 3.15038 0
M  V30 665 C 58.581 3.63489 3.15324 0
M  V30 666 C 60.933 4.185 3.10657 0
M  V30 667 C 58.261 4.98772 3.08939 0
M  V30 668 C 60.613 5.53769 3.05814 0
M  V30 669 C 59.277 5.94041 3.04419 0
M  V30 670 H 58.547 0.388091 0.631242 0
M  V30 671 H 61.194 1.52963 1.15215 0
M  V30 672 H 59.499 1.18116 3.73572 0
M  V30 673 H 61.196 1.56982 3.68996 0
M  V30 674 H 57.786 2.90022 3.15571 0
M  V30 675 H 61.97 3.87911 3.09579 0
M  V30 676 H 57.226 5.29193 3.0621 0
M  V30 677 H 61.4 6.27808 3.0138 0
M  V30 678 H 59.027 6.98833 2.99227 0
M  V30 679 N 60.6021 -1.18246 1.0419 0
M  V30 680 C 61.8481 -1.88536 0.747122 0
M  V30 681 C 62.1811 -1.80223 -0.723409 0
M  V30 682 O 61.4561 -1.20337 -1.52804 0
M  V30 683 C 61.7391 -3.38968 1.21544 0
M  V30 684 C 61.5921 -3.56084 2.74816 0
M  V30 685 C 62.9111 -4.32648 0.806482 0
M  V30 686 H 60.0301 -0.684619 0.272883 0
M  V30 687 H 62.6721 -1.39113 1.29413 0
M  V30 688 H 60.8221 -3.8119 0.750081 0
M  V30 689 H 62.4941 -3.22946 3.29399 0
M  V30 690 H 60.7371 -2.98699 3.14582 0
M  V30 691 H 61.4081 -4.61639 3.02644 0
M  V30 692 H 63.8841 -3.98211 1.20695 0
M  V30 693 H 62.7601 -5.36462 1.1619 0
M  V30 694 H 63.0211 -4.41146 -0.29029 0
M  V30 695 N 62.0802 -0.821533 -1.34494 0
M  V30 696 C 63.3272 -0.408946 -1.98328 0
M  V30 697 C 63.6552 1.02764 -1.65136 0
M  V30 698 O 62.9102 1.73026 -0.914349 0
M  V30 699 C 63.2092 -0.556512 -3.53041 0
M  V30 700 C 62.8752 -1.95861 -4.0614 0
M  V30 701 C 61.5372 -2.34217 -4.20352 0
M  V30 702 C 63.8892 -2.87523 -4.34718 0
M  V30 703 C 61.2172 -3.63572 -4.6047 0
M  V30 704 C 63.5692 -4.1634 -4.76281 0
M  V30 705 C 62.2332 -4.54675 -4.88699 0
M  V30 706 H 61.5032 -0.149644 -0.725732 0
M  V30 707 H 64.1502 -1.04521 -1.6046 0
M  V30 708 H 62.4552 0.163148 -3.9146 0
M  V30 709 H 64.1522 -0.217826 -4.00408 0
M  V30 710 H 60.7422 -1.65066 -3.95539 0
M  V30 711 H 64.9262 -2.59133 -4.23277 0
M  V30 712 H 60.1822 -3.93101 -4.68275 0
M  V30 713 H 64.3562 -4.87455 -4.97354 0
M  V30 714 H 61.9832 -5.54959 -5.19542 0
M  V30 715 N 63.5583 1.46682 -0.576371 0
M  V30 716 C 64.4883 2.33028 0.148397 0
M  V30 717 C 65.4693 1.44961 0.889956 0
M  V30 718 O 66.6543 1.73789 0.866662 0
M  V30 719 C 63.7843 3.27117 1.1667 0
M  V30 720 C 62.7383 4.24575 0.540386 0
M  V30 721 C 62.0643 5.08126 1.6647 0
M  V30 722 C 63.3643 5.19722 -0.518331 0
M  V30 723 H 65.0583 2.93875 -0.572509 0
M  V30 724 H 62.6043 1.41315 -0.276768 0
M  V30 725 H 64.5573 3.86374 1.68204 0
M  V30 726 H 63.2813 2.64364 1.9178 0
M  V30 727 H 61.9403 3.66571 0.0461769 0
M  V30 728 H 61.5883 4.41762 2.40531 0
M  V30 729 H 61.2883 5.74122 1.25131 0
M  V30 730 H 62.8123 5.70246 2.18293 0
M  V30 731 H 64.2263 5.73232 -0.0883058 0
M  V30 732 H 62.6233 5.94026 -0.851679 0
M  V30 733 H 63.6933 4.64037 -1.40703 0
M  V30 734 N 65.0364 0.313813 1.54444 0
M  V30 735 C 66.4474 -0.176243 1.85866 0
M  V30 736 C 66.7984 -1.52405 1.23561 0
M  V30 737 O 65.9234 -2.09605 0.538016 0
M  V30 738 C 66.5184 -0.32657 3.37222 0
M  V30 739 C 65.0774 -0.760846 3.6863 0
M  V30 740 C 64.2244 0.123247 2.77026 0
M  V30 741 H 67.1754 0.534418 1.49431 0
M  V30 742 H 67.1964 -1.15908 3.62416 0
M  V30 743 H 66.7084 0.654531 3.82541 0
M  V30 744 H 64.8094 -1.75204 3.28838 0
M  V30 745 H 64.9224 -0.571353 4.75681 0
M  V30 746 H 63.2864 -0.399597 2.51546 0
M  V30 747 H 64.0694 1.10094 3.25168 0
M  V30 748 N 66.5145 -1.57545 0.0417849 0
M  V30 749 C 67.4615 -2.10977 -0.935805 0
M  V30 750 C 68.4315 -1.01486 -1.31491 0
M  V30 751 O 69.6165 -1.2898 -1.40602 0
M  V30 752 C 66.7565 -2.65169 -2.2086 0
M  V30 753 C 65.8695 -3.88714 -1.88482 0
M  V30 754 C 65.0045 -4.31254 -3.1015 0
M  V30 755 C 64.0435 -5.47524 -2.7365 0
M  V30 756 N 63.1805 -5.85162 -3.87982 0
M  V30 757 H 68.0205 -2.94218 -0.473249 0
M  V30 758 H 65.5575 -1.45415 -0.221981 0
M  V30 759 H 67.5155 -2.94685 -2.95325 0
M  V30 760 H 66.1455 -1.8474 -2.64709 0
M  V30 761 H 65.1975 -3.65849 -1.04205 0
M  V30 762 H 66.5095 -4.73245 -1.57608 0
M  V30 763 H 65.6635 -4.62273 -3.92923 0
M  V30 764 H 64.4025 -3.45516 -3.44195 0
M  V30 765 H 63.4075 -5.16187 -1.89291 0
M  V30 766 H 64.6325 -6.34971 -2.40807 0
M  V30 767 H 62.5785 -5.02377 -4.21846 0
M  V30 768 H 62.4955 -6.64362 -3.60775 0
M  V30 769 H 63.7635 -6.20791 -4.71422 0
M  V30 770 N 67.9926 0.231505 -1.5589 0
M  V30 771 C 68.9406 1.30649 -1.92441 0
M  V30 772 C 69.9346 1.49037 -0.805254 0
M  V30 773 O 71.1406 1.50329 -0.990007 0
M  V30 774 H 67.5156 0.437812 -0.611412 0
M  V30 775 H 69.4866 0.970973 -2.82161 0
M  V30 776 C 68.2356 2.65179 -2.24889 0
M  V30 777 H 67.5586 2.51835 -3.10514 0
M  V30 778 H 68.9986 3.39234 -2.54355 0
M  V30 779 C 67.4576 3.19439 -1.07054 0
M  V30 780 O 67.9876 4.00371 -0.326499 0
M  V30 781 N 66.1936 2.77675 -0.85703 0
M  V30 782 H 65.7406 2.11969 -1.46379 0
M  V30 783 H 65.6986 3.14321 -0.0703223 0
M  V30 784 N 69.4707 1.49531 0.497807 0
M  V30 785 C 70.3807 1.69176 1.62532 0
M  V30 786 C 71.3967 0.5744 1.64246 0
M  V30 787 O 72.5727 0.849497 1.82608 0
M  V30 788 C 69.6377 1.75695 2.98885 0
M  V30 789 C 68.6987 2.9929 3.07773 0
M  V30 790 C 67.9317 3.05488 4.37622 0
M  V30 791 O 68.1547 2.19192 5.26603 0
M  V30 792 O 67.0887 3.9798 4.51548 0
M  V30 793 H 70.9147 2.647 1.48887 0
M  V30 794 H 68.4997 1.3331 0.674441 0
M  V30 795 H 70.3817 1.82317 3.79919 0
M  V30 796 H 69.0567 0.8335 3.12785 0
M  V30 797 H 67.9637 2.98183 2.25915 0
M  V30 798 H 69.2967 3.91125 2.98801 0
M  V30 799 N 70.9488 -0.749086 1.3866 0
M  V30 800 C 71.8788 -1.8764 1.38973 0
M  V30 801 C 72.8598 -1.68178 0.255004 0
M  V30 802 O 74.0448 -1.88704 0.458754 0
M  V30 803 C 71.1748 -3.25222 1.21851 0
M  V30 804 C 70.1288 -3.59295 2.32575 0
M  V30 805 C 69.4548 -4.95663 2.00555 0
M  V30 806 C 70.7548 -3.63709 3.7485 0
M  V30 807 H 72.4488 -1.87635 2.3331 0
M  V30 808 H 69.9948 -0.901329 1.12303 0
M  V30 809 H 71.9478 -4.03746 1.20695 0
M  V30 810 H 70.6718 -3.25719 0.239775 0
M  V30 811 H 69.3308 -2.83093 2.32925 0
M  V30 812 H 68.9788 -4.92724 1.01154 0
M  V30 813 H 68.6788 -5.19429 2.74714 0
M  V30 814 H 70.2028 -5.7656 2.01024 0
M  V30 815 H 71.6168 -4.32338 3.76506 0
M  V30 816 H 70.0138 -3.98986 4.48252 0
M  V30 817 H 71.0838 -2.63834 4.06841 0
M  V30 818 N 72.4269 -1.23603 -0.977757 0
M  V30 819 C 73.3569 -1.04401 -2.0886 0
M  V30 820 C 74.3379 0.0399052 -1.70053 0
M  V30 821 O 75.5229 -0.125246 -1.93796 0
M  V30 822 C 72.6529 -0.637269 -3.41403 0
M  V30 823 C 71.6069 -1.66883 -3.94124 0
M  V30 824 C 70.9329 -1.11745 -5.22893 0
M  V30 825 C 72.2329 -3.06247 -4.23096 0
M  V30 826 H 73.9269 -1.97316 -2.25182 0
M  V30 827 H 71.4729 -0.950096 -1.08209 0
M  V30 828 H 73.4259 -0.48998 -4.18542 0
M  V30 829 H 72.1499 0.327557 -3.24953 0
M  V30 830 H 70.8089 -1.80416 -3.19133 0
M  V30 831 H 70.4569 -0.143527 -5.02795 0
M  V30 832 H 70.1569 -1.80672 -5.59134 0
M  V30 833 H 71.6809 -0.982067 -6.02651 0
M  V30 834 H 73.0949 -2.96001 -4.90975 0
M  V30 835 H 71.4919 -3.72436 -4.70544 0
M  V30 836 H 72.5619 -3.55041 -3.30263 0
M  V30 837 N 73.905 1.17692 -1.04816 0
M  V30 838 C 75.133 1.91786 -0.776254 0
M  V30 839 C 75.548 1.76604 0.667577 0
M  V30 840 O 74.905 1.10067 1.45573 0
M  V30 841 C 74.956 3.42967 -1.14263 0
M  V30 842 O 74.677 3.57678 -2.52978 0
M  V30 843 C 76.178 4.34144 -0.896311 0
M  V30 844 H 73.398 0.608624 -0.282519 0
M  V30 845 H 75.942 1.49268 -1.39783 0
M  V30 846 H 74.097 3.83245 -0.565874 0
M  V30 847 H 74.511 4.51319 -2.67229 0
M  V30 848 H 75.985 5.38744 -1.20244 0
M  V30 849 H 76.462 4.38876 0.168636 0
M  V30 850 H 77.068 3.99574 -1.45672 0
M  V30 851 N 75.3831 0.828654 1.34056 0
M  V30 852 C 76.6301 0.419458 1.98108 0
M  V30 853 C 76.9581 -1.01886 1.65679 0
M  V30 854 O 76.2131 -1.72539 0.923512 0
M  V30 855 C 76.5121 0.575226 3.52741 0
M  V30 856 C 76.1781 1.98012 4.05095 0
M  V30 857 C 74.8401 2.36442 4.19104 0
M  V30 858 C 77.1921 2.89824 4.33188 0
M  V30 859 C 74.5201 3.66009 4.58535 0
M  V30 860 C 76.8721 4.1886 4.74066 0
M  V30 861 C 75.5361 4.5726 4.86281 0
M  V30 862 H 74.8061 0.153491 0.724929 0
M  V30 863 H 77.4531 1.05371 1.59904 0
M  V30 864 H 75.7581 -0.142385 3.91541 0
M  V30 865 H 77.4551 0.239057 4.00287 0
M  V30 866 H 74.0451 1.67162 3.94658 0
M  V30 867 H 78.2291 2.61375 4.21897 0
M  V30 868 H 73.4851 3.95579 4.66184 0
M  V30 869 H 77.6591 4.90086 4.94761 0
M  V30 870 H 75.2861 5.57707 5.16592 0
M  V30 871 N 76.8612 -1.46375 0.584142 0
M  V30 872 C 78.1382 -1.956 0.0033388 0
M  V30 873 C 78.5182 -1.52679 -1.45782 0
M  V30 874 O 77.8662 -0.77816 -2.14842 0
M  V30 875 C 78.0762 -3.48551 0.176891 0
M  V30 876 C 79.4242 -4.24576 0.0454609 0
M  V30 877 O 80.4482 -3.56043 0.105801 0
M  V30 878 O 79.3072 -5.46427 -0.0890376 0
M  V30 879 H 76.4012 -0.825547 -0.0490066 0
M  V30 880 H 78.9472 -1.56652 0.65256 0
M  V30 881 H 77.7192 -3.72683 1.1926 0
M  V30 882 H 77.3422 -3.94332 -0.508695 0
M  V30 883 N 78.3393 -0.321999 -1.54275 0
M  V30 884 C 79.2493 0.553631 -2.27974 0
M  V30 885 C 80.2653 1.13054 -1.32268 0
M  V30 886 O 81.4413 1.15084 -1.6528 0
M  V30 887 C 78.5063 1.69927 -3.02201 0
M  V30 888 C 77.5673 1.15433 -4.1349 0
M  V30 889 C 76.8003 2.24537 -4.84168 0
M  V30 890 O 77.0233 3.44852 -4.5435 0
M  V30 891 O 75.9573 1.90044 -5.7111 0
M  V30 892 H 79.7833 -0.0448345 -3.03667 0
M  V30 893 H 77.3683 -0.0877418 -1.49142 0
M  V30 894 H 79.2503 2.3663 -3.48689 0
M  V30 895 H 77.9253 2.28395 -2.29385 0
M  V30 896 H 76.8323 0.452436 -3.71354 0
M  V30 897 H 78.1653 0.614805 -4.88345 0
M  V30 898 N 79.8174 1.5752 -0.0501392 0
M  V30 899 C 80.7504 2.07026 0.959962 0
M  V30 900 C 81.7284 0.970539 1.30458 0
M  V30 901 O 82.9124 1.2424 1.41763 0
M  V30 902 C 80.0394 2.5099 2.27424 0
M  V30 903 C 79.0854 3.72188 2.08275 0
M  V30 904 S 79.9184 5.17888 1.36207 0
M  V30 905 C 81.0744 5.65165 2.6896 0
M  V30 906 H 81.3074 2.9238 0.538631 0
M  V30 907 H 78.8404 1.53547 0.162099 0
M  V30 908 H 80.7984 2.76982 3.02971 0
M  V30 909 H 79.4594 1.65944 2.66686 0
M  V30 910 H 78.6524 4.00866 3.05487 0
M  V30 911 H 78.2544 3.46457 1.40868 0
M  V30 912 H 80.5464 5.70687 3.65133 0
M  V30 913 H 81.4894 6.64394 2.4492 0
M  V30 914 H 81.8974 4.9289 2.75172 0
M  V30 915 N 81.2955 -0.223234 1.56011 0
M  V30 916 C 82.2585 -1.26014 1.9145 0
M  V30 917 C 83.2585 -1.3989 0.792937 0
M  V30 918 O 84.4485 -1.38184 1.0607 0
M  V30 919 C 81.5805 -2.63422 2.16383 0
M  V30 920 H 82.7735 -0.95796 2.84189 0
M  V30 921 H 80.3265 -0.463576 1.49267 0
M  V30 922 H 81.0615 -2.98741 1.2619 0
M  V30 923 H 80.8465 -2.54728 2.98088 0
M  V30 924 H 82.3365 -3.38249 2.44903 0
M  V30 925 N 82.7736 -1.49793 -0.48987 0
M  V30 926 C 84.1896 -1.36803 -0.822022 0
M  V30 927 C 84.3896 -0.409652 -1.97292 0
M  V30 928 O 83.4456 0.154614 -2.52026 0
M  V30 929 C 84.7586 -2.77768 -1.15175 0
M  V30 930 C 86.3066 -2.86549 -1.25931 0
M  V30 931 C 86.7816 -4.28306 -1.62228 0
M  V30 932 N 88.2726 -4.31169 -1.69256 0
M  V30 933 C 89.0076 -5.37832 -1.98807 0
M  V30 934 N 88.5036 -6.54726 -2.26507 0
M  V30 935 N 90.2966 -5.25258 -2.00152 0
M  V30 936 H 82.4476 -2.10691 0.268881 0
M  V30 937 H 84.7106 -0.946241 0.057728 0
M  V30 938 H 84.4166 -3.49648 -0.379335 0
M  V30 939 H 84.2906 -3.13836 -2.09253 0
M  V30 940 H 86.6776 -2.14899 -2.02243 0
M  V30 941 H 86.7586 -2.54049 -0.298776 0
M  V30 942 H 86.4026 -5.00486 -0.864622 0
M  V30 943 H 86.3326 -4.58279 -2.594 0
M  V30 944 H 88.8236 -3.4687 -1.49965 0
M  V30 945 H 89.1366 -7.31833 -2.48276 0
M  V30 946 H 87.4816 -6.57933 -2.23939 0
M  V30 947 H 90.6726 -4.32938 -1.77996 0
M  V30 948 H 90.8456 -6.08476 -2.22848 0
M  V30 949 N 84.2517 0.741722 -1.39055 0
M  V30 950 C 85.5007 1.49656 -1.35225 0
M  V30 951 C 85.8137 1.95533 0.0512708 0
M  V30 952 O 87.0197 2.7067 0.212138 0
M  V30 953 C 85.4757 2.70389 -2.37525 0
M  V30 954 C 85.0837 2.31489 -3.83558 0
M  V30 955 C 86.8277 3.48236 -2.42759 0
M  V30 956 C 84.7347 3.48903 -4.77515 0
M  V30 957 H 83.6647 0.56197 -0.502699 0
M  V30 958 H 86.3157 0.809727 -1.64668 0
M  V30 959 H 84.6977 3.41113 -2.01142 0
M  V30 960 H 85.8717 1.68354 -4.28945 0
M  V30 961 H 84.1867 1.66749 -3.81554 0
M  V30 962 H 86.7837 4.35558 -3.1015 0
M  V30 963 H 87.1267 3.90229 -1.45008 0
M  V30 964 H 87.6597 2.84535 -2.78002 0
M  V30 965 H 84.3987 3.11966 -5.76504 0
M  V30 966 H 83.9187 4.11041 -4.36813 0
M  V30 967 H 85.5977 4.15328 -4.96096 0
M  V30 968 N 85.7298 1.2412 0.971189 0
M  V30 969 C 86.6928 1.03156 2.04674 0
M  V30 970 C 87.6928 -0.00990322 1.60797 0
M  V30 971 O 88.8828 0.230729 1.72665 0
M  V30 972 C 86.0148 0.562765 3.36223 0
M  V30 973 H 87.2078 1.98614 2.24705 0
M  V30 974 H 84.7608 1.06293 1.14593 0
M  V30 975 H 85.4958 -0.395176 3.21883 0
M  V30 976 H 85.2808 1.31441 3.69413 0
M  V30 977 H 86.7708 0.437015 4.15307 0
M  V30 978 N 87.2079 -1.17134 1.05439 0
M  V30 979 C 88.1549 -2.21235 0.657539 0
M  V30 980 C 89.1249 -1.62551 -0.341543 0
M  V30 981 O 90.3099 -1.89379 -0.232393 0
M  V30 982 C 87.4499 -3.45076 0.0410575 0
M  V30 983 C 86.5629 -4.18042 1.08927 0
M  V30 984 C 85.6979 -5.29376 0.439848 0
M  V30 985 C 84.7369 -5.94132 1.4722 0
M  V30 986 N 83.8739 -6.96975 0.846756 0
M  V30 987 H 88.7139 -2.54534 1.54972 0
M  V30 988 H 86.2509 -1.25028 0.775006 0
M  V30 989 H 88.2089 -4.15862 -0.33383 0
M  V30 990 H 86.8389 -3.12353 -0.814568 0
M  V30 991 H 85.8909 -3.45945 1.58196 0
M  V30 992 H 87.2029 -4.62306 1.87282 0
M  V30 993 H 86.3569 -6.06699 0.0115125 0
M  V30 994 H 85.0959 -4.86251 -0.375656 0
M  V30 995 H 84.1009 -5.15538 1.91052 0
M  V30 996 H 85.3259 -6.39337 2.28965 0
M  V30 997 H 83.2719 -6.5598 0.0518075 0
M  V30 998 H 83.1889 -7.39565 1.5678 0
M  V30 999 H 84.4569 -7.78239 0.443277 0
M  V30 1000 N 88.686 -0.835752 -1.33615 0
M  V30 1001 C 89.932 -0.430596 -1.98176 0
M  V30 1002 C 90.265 1.00684 -1.66061 0
M  V30 1003 O 89.54 1.70339 -0.938877 0
M  V30 1004 C 89.823 -0.648065 -3.5422 0
M  V30 1005 C 89.676 -2.13255 -3.96033 0
M  V30 1006 C 90.995 -0.0922113 -4.40003 0
M  V30 1007 H 88.114 -0.157924 -0.719881 0
M  V30 1008 H 90.756 -1.05069 -1.58305 0
M  V30 1009 H 88.906 -0.120237 -3.88314 0
M  V30 1010 H 90.578 -2.725 -3.72211 0
M  V30 1011 H 88.821 -2.61823 -3.45878 0
M  V30 1012 H 89.492 -2.23547 -5.04708 0
M  V30 1013 H 91.968 -0.543343 -4.12537 0
M  V30 1014 H 90.844 -0.274083 -5.48215 0
M  V30 1015 H 91.105 1.00378 -4.30554 0
M  V30 1016 N 90.1641 1.46063 -0.591896 0
M  V30 1017 C 91.3941 2.06418 -0.0867676 0
M  V30 1018 C 91.8021 1.43975 1.22751 0
M  V30 1019 O 91.1451 0.542531 1.75506 0
M  V30 1020 C 91.2071 3.59213 0.143725 0
M  V30 1021 C 90.8711 4.439 -1.08635 0
M  V30 1022 C 91.8681 4.79864 -2.00067 0
M  V30 1023 C 89.5531 4.84896 -1.31077 0
M  V30 1024 C 91.5471 5.55661 -3.12282 0
M  V30 1025 C 89.2341 5.6045 -2.43596 0
M  V30 1026 C 90.2321 5.95747 -3.34027 0
M  V30 1027 O 89.9201 6.69772 -4.4459 0
M  V30 1028 H 89.6521 0.673443 -0.0587447 0
M  V30 1029 H 92.2061 1.88539 -0.814994 0
M  V30 1030 H 90.4361 3.75433 0.926668 0
M  V30 1031 H 92.1251 4.01463 0.5985 0
M  V30 1032 H 92.8911 4.48763 -1.83947 0
M  V30 1033 H 88.7701 4.56867 -0.61594 0
M  V30 1034 H 92.3141 5.8313 -3.82891 0
M  V30 1035 H 88.2111 5.90965 -2.59674 0
M  V30 1036 H 88.9791 6.88207 -4.43073 0
M  V30 1037 N 91.6422 0.330177 1.54103 0
M  V30 1038 C 92.6052 -0.520144 2.2322 0
M  V30 1039 C 93.6052 -1.03828 1.22786 0
M  V30 1040 O 94.7952 -0.929652 1.4732 0
M  V30 1041 C 91.9272 -1.72317 2.94142 0
M  V30 1042 H 93.1202 0.0841605 2.99782 0
M  V30 1043 H 90.6732 0.0813433 1.56088 0
M  V30 1044 H 91.4082 -2.36653 2.21734 0
M  V30 1045 H 91.1932 -1.35898 3.67796 0
M  V30 1046 H 92.6832 -2.3266 3.46784 0
M  V30 1047 N 93.1203 -1.57491 0.0584922 0
M  V30 1048 C 94.0303 -2.15448 -0.928414 0
M  V30 1049 C 95.0463 -1.11416 -1.3365 0
M  V30 1050 O 96.2223 -1.4362 -1.41193 0
M  V30 1051 C 93.2873 -2.69393 -2.18239 0
M  V30 1052 C 92.3483 -3.88249 -1.83196 0
M  V30 1053 C 91.5813 -4.39613 -3.02616 0
M  V30 1054 O 91.8043 -3.90023 -4.16219 0
M  V30 1055 O 90.7383 -5.31111 -2.83204 0
M  V30 1056 H 94.5643 -3.00112 -0.465483 0
M  V30 1057 H 92.1493 -1.48499 -0.163826 0
M  V30 1058 H 94.0313 -3.04026 -2.91798 0
M  V30 1059 H 92.7063 -1.87796 -2.63656 0
M  V30 1060 H 91.6133 -3.58492 -1.06931 0
M  V30 1061 H 92.9463 -4.71098 -1.42573 0
M  V30 1062 N 94.5984 0.214957 -1.56127 0
M  V30 1063 C 95.5284 1.2695 -1.95974 0
M  V30 1064 C 96.5094 1.48539 -0.828868 0
M  V30 1065 O 97.6944 1.60611 -1.09168 0
M  V30 1066 C 94.8244 2.61794 -2.28214 0
M  V30 1067 C 93.7784 2.54851 -3.43853 0
M  V30 1068 C 93.1044 3.93785 -3.61715 0
M  V30 1069 C 94.4044 2.09065 -4.78632 0
M  V30 1070 H 96.0984 0.93846 -2.84312 0
M  V30 1071 H 93.6444 0.449996 -1.36788 0
M  V30 1072 H 95.5974 3.35731 -2.54682 0
M  V30 1073 H 94.3214 2.96599 -1.36736 0
M  V30 1074 H 92.9804 1.8337 -3.17444 0
M  V30 1075 H 92.6284 4.25908 -2.67602 0
M  V30 1076 H 92.3284 3.90019 -4.39498 0
M  V30 1077 H 93.8524 4.69374 -3.90539 0
M  V30 1078 H 95.2664 2.7275 -5.04262 0
M  V30 1079 H 93.6634 2.16346 -5.59745 0
M  V30 1080 H 94.7334 1.04315 -4.73547 0
M  V30 1081 N 96.0765 1.50051 0.48192 0
M  V30 1082 C 97.3245 1.60181 1.23234 0
M  V30 1083 C 97.6455 0.299176 1.92691 0
M  V30 1084 O 96.9155 -0.682708 1.83619 0
M  V30 1085 H 95.4955 0.590232 0.457859 0
M  V30 1086 H 98.1575 1.86775 0.556881 0
M  V30 1087 H 97.2535 2.40753 1.98607 0
M  V30 1088 N 97.5546 -0.734337 1.39446 0
M  V30 1089 C 98.8006 -1.49613 1.36908 0
M  V30 1090 C 99.1336 -1.94169 -0.0347829 0
M  V30 1091 O 98.4086 -1.66833 -0.999847 0
M  V30 1092 C 98.6916 -2.73534 2.34203 0
M  V30 1093 C 98.5446 -2.34993 3.83534 0
M  V30 1094 C 99.8636 -3.75635 2.29317 0
M  V30 1095 H 96.9826 -0.542714 0.498629 0
M  V30 1096 H 99.6246 -0.839597 1.70443 0
M  V30 1097 H 97.7746 -3.29553 2.05736 0
M  V30 1098 H 99.4466 -1.84601 4.22753 0
M  V30 1099 H 97.6896 -1.67213 4.00278 0
M  V30 1100 H 98.3606 -3.23738 4.47099 0
M  V30 1101 H 100.837 -3.29203 2.54489 0
M  V30 1102 H 99.7126 -4.60008 2.99472 0
M  V30 1103 H 99.9736 -4.22603 1.29842 0
M  V30 1104 N 99.0327 -1.24633 -0.964593 0
M  V30 1105 C 99.9797 -1.04144 -2.05968 0
M  V30 1106 C 100.95 0.046262 -1.66036 0
M  V30 1107 O 102.135 -0.108972 -1.90489 0
M  V30 1108 C 99.2747 -0.65563 -3.38815 0
M  V30 1109 C 98.3877 -1.81714 -3.91923 0
M  V30 1110 C 97.5227 -1.37662 -5.13052 0
M  V30 1111 C 96.5617 -2.50788 -5.58365 0
M  V30 1112 N 95.6987 -2.07582 -6.70712 0
M  V30 1113 H 100.539 -1.9787 -2.22827 0
M  V30 1114 H 98.0757 -0.9855 -1.09208 0
M  V30 1115 H 100.034 -0.412954 -4.15151 0
M  V30 1116 H 98.6637 0.244627 -3.21872 0
M  V30 1117 H 97.7157 -2.1734 -3.12198 0
M  V30 1118 H 99.0277 -2.66705 -4.21509 0
M  V30 1119 H 98.1817 -1.093 -5.96773 0
M  V30 1120 H 96.9207 -0.497293 -4.85158 0
M  V30 1121 H 95.9257 -2.79906 -4.73215 0
M  V30 1122 H 97.1507 -3.39283 -5.88272 0
M  V30 1123 H 95.0967 -1.22051 -6.44546 0
M  V30 1124 H 95.0137 -2.86125 -6.99763 0
M  V30 1125 H 96.2817 -1.82369 -7.57867 0
M  V30 1126 N 100.511 1.16574 -1.06058 0
M  V30 1127 C 101.458 2.20883 -0.669263 0
M  V30 1128 C 102.428 1.62729 0.332918 0
M  V30 1129 O 103.613 1.895 0.222346 0
M  V30 1130 C 100.753 3.45049 -0.0593572 0
M  V30 1131 C 99.8658 4.17458 -1.11143 0
M  V30 1132 C 99.0008 5.29135 -0.467916 0
M  V30 1133 C 98.0398 5.93343 -1.50369 0
M  V30 1134 N 97.1768 6.96516 -0.883706 0
M  V30 1135 H 102.017 2.53709 -1.5632 0
M  V30 1136 H 99.5538 1.24616 -0.781625 0
M  V30 1137 H 101.512 4.16033 0.311771 0
M  V30 1138 H 100.142 3.12781 0.797992 0
M  V30 1139 H 99.1938 3.45101 -1.60029 0
M  V30 1140 H 100.506 4.61307 -1.89731 0
M  V30 1141 H 99.6598 6.06684 -0.0436871 0
M  V30 1142 H 98.3988 4.86443 0.349864 0
M  V30 1143 H 97.4038 5.14517 -1.93784 0
M  V30 1144 H 98.6288 6.38114 -2.32352 0
M  V30 1145 H 96.5748 6.55943 -0.086595 0
M  V30 1146 H 96.4918 7.38723 -1.607 0
M  V30 1147 H 97.7598 7.77993 -0.484543 0
M  V30 1148 N 101.989 0.842826 1.3317 0
M  V30 1149 C 103.238 0.436738 1.96915 0
M  V30 1150 C 103.551 -1.01025 1.67491 0
M  V30 1151 O 104.757 -1.5212 2.24881 0
M  V30 1152 C 103.213 0.730021 3.52418 0
M  V30 1153 C 102.821 2.19195 3.90714 0
M  V30 1154 C 104.565 0.391076 4.22695 0
M  V30 1155 C 102.472 2.42907 5.39212 0
M  V30 1156 H 101.402 0.15958 0.736919 0
M  V30 1157 H 104.053 1.03196 1.51733 0
M  V30 1158 H 102.435 0.0643755 3.95948 0
M  V30 1159 H 103.609 2.8984 3.58231 0
M  V30 1160 H 101.924 2.49425 3.33431 0
M  V30 1161 H 104.521 0.545817 5.31907 0
M  V30 1162 H 104.864 -0.666294 4.10933 0
M  V30 1163 H 105.397 1.01212 3.84709 0
M  V30 1164 H 102.136 3.47224 5.55982 0
M  V30 1165 H 101.656 1.76827 5.73142 0
M  V30 1166 H 103.335 2.2626 6.06148 0
M  V30 1167 N 103.467 -1.45747 0.599634 0
M  V30 1168 C 104.883 -1.57424 0.26264 0
M  V30 1169 C 105.083 -1.59222 -1.23493 0
M  V30 1170 O 104.139 -1.51825 -2.01756 0
M  V30 1171 C 105.452 -2.86061 0.926795 0
M  V30 1172 C 107 -2.99722 0.901967 0
M  V30 1173 C 107.475 -4.31119 1.54598 0
M  V30 1174 N 108.966 -4.37858 1.5111 0
M  V30 1175 C 109.701 -5.3818 1.97863 0
M  V30 1176 N 109.197 -6.45083 2.52666 0
M  V30 1177 N 110.99 -5.29487 1.88679 0
M  V30 1178 H 103.141 -1.42823 1.57211 0
M  V30 1179 H 105.404 -0.68235 0.658105 0
M  V30 1180 H 105.11 -2.90605 1.98095 0
M  V30 1181 H 104.984 -3.74563 0.445238 0
M  V30 1182 H 107.371 -2.9475 -0.143617 0
M  V30 1183 H 107.452 -2.12652 1.42171 0
M  V30 1184 H 107.096 -4.36849 2.59085 0
M  V30 1185 H 107.026 -5.16992 1.00132 0
M  V30 1186 H 109.517 -3.61209 1.11068 0
M  V30 1187 H 109.83 -7.17869 2.86155 0
M  V30 1188 H 108.175 -6.45856 2.56701 0
M  V30 1189 H 111.366 -4.44877 1.4561 0
M  V30 1190 H 111.539 -6.07524 2.25429 0
M  V30 1191 N 104.945 -0.338344 -1.53925 0
M  V30 1192 C 106.194 0.260732 -2.00008 0
M  V30 1193 C 106.507 1.52073 -1.23017 0
M  V30 1194 O 107.713 2.19672 -1.5955 0
M  V30 1195 C 106.169 0.51515 -3.56194 0
M  V30 1196 C 105.777 -0.728645 -4.42035 0
M  V30 1197 C 107.521 1.07337 -4.10706 0
M  V30 1198 C 105.428 -0.445315 -5.89721 0
M  V30 1199 H 104.358 0.101205 -0.747177 0
M  V30 1200 H 107.009 -0.452866 -1.77824 0
M  V30 1201 H 105.391 1.28932 -3.74423 0
M  V30 1202 H 106.565 -1.50352 -4.35581 0
M  V30 1203 H 104.88 -1.20813 -3.98489 0
M  V30 1204 H 107.477 1.30022 -5.18651 0
M  V30 1205 H 107.82 2.0273 -3.63602 0
M  V30 1206 H 108.353 0.360034 -3.96167 0
M  V30 1207 H 105.092 -1.36883 -6.41049 0
M  V30 1208 H 104.612 0.291569 -5.99091 0
M  V30 1209 H 106.291 -0.0606218 -6.46972 0
M  V30 1210 N 106.423 1.57458 -0.0668435 0
M  V30 1211 C 107.651 1.97624 0.612565 0
M  V30 1212 C 108.066 0.94502 1.63447 0
M  V30 1213 O 107.423 -0.0689276 1.8237 0
M  V30 1214 C 107.474 3.37869 1.28555 0
M  V30 1215 O 107.195 4.3704 0.304557 0
M  V30 1216 C 108.696 3.92882 2.05325 0
M  V30 1217 H 105.916 0.650045 0.166381 0
M  V30 1218 H 108.46 2.04035 -0.137782 0
M  V30 1219 H 106.615 3.3256 1.98702 0
M  V30 1220 H 107.029 5.18565 0.786779 0
M  V30 1221 H 108.503 4.93247 2.47812 0
M  V30 1222 H 108.98 3.29156 2.9078 0
M  V30 1223 H 109.586 4.01577 1.40056 0
M  V30 1224 N 107.901 -0.206675 1.56239 0
M  V30 1225 C 109.149 -0.927007 1.79586 0
M  V30 1226 C 109.47 -1.8427 0.637929 0
M  V30 1227 O 108.74 -1.92849 -0.344398 0
M  V30 1228 H 107.32 -0.345292 0.662407 0
M  V30 1229 H 109.982 -0.21496 1.93711 0
M  V30 1230 H 109.078 -1.52501 2.72305 0
M  V30 1231 N 109.379 -1.50304 -0.473955 0
M  V30 1232 C 110.627 -1.60832 -1.22382 0
M  V30 1233 C 110.948 -0.30939 -1.9253 0
M  V30 1234 O 110.218 0.67296 -1.83978 0
M  V30 1235 H 108.798 -0.592652 -0.454723 0
M  V30 1236 H 111.46 -1.87068 -0.546968 0
M  V30 1237 H 110.556 -2.41803 -1.97327 0
M  V30 1238 N 110.857 0.726932 -1.39834 0
M  V30 1239 C 111.767 1.87131 -1.41489 0
M  V30 1240 C 112.783 1.71239 -0.308757 0
M  V30 1241 O 113.959 1.93701 -0.551529 0
M  V30 1242 C 111.024 3.22811 -1.26468 0
M  V30 1243 C 110.085 3.51039 -2.47124 0
M  V30 1244 C 109.318 4.80245 -2.3281 0
M  V30 1245 O 109.541 5.54537 -1.33585 0
M  V30 1246 O 108.475 5.08554 -3.21957 0
M  V30 1247 H 112.301 1.8869 -2.3797 0
M  V30 1248 H 109.886 0.875837 -1.21035 0
M  V30 1249 H 111.768 4.03877 -1.20255 0
M  V30 1250 H 110.443 3.22005 -0.330862 0
M  V30 1251 H 109.35 2.70027 -2.58914 0
M  V30 1252 H 110.683 3.56632 -3.39227 0
M  V30 1253 N 112.336 1.25143 0.95797 0
M  V30 1254 C 113.747 1.08851 1.51685 0
M  V30 1255 C 114.098 -0.33687 1.93286 0
M  V30 1256 O 113.223 -1.22644 1.7829 0
M  V30 1257 C 113.818 1.96978 2.75654 0
M  V30 1258 C 112.377 1.84881 3.27866 0
M  V30 1259 C 111.524 1.91329 2.0072 0
M  V30 1260 H 114.475 1.38478 0.77522 0
M  V30 1261 H 114.496 1.5078 3.4935 0
M  V30 1262 H 114.008 3.00712 2.45345 0
M  V30 1263 H 112.109 0.840182 3.63004 0
M  V30 1264 H 112.222 2.6951 3.96107 0
M  V30 1265 H 110.586 1.35174 2.15871 0
M  V30 1266 H 111.369 2.96661 1.72764 0
M  V30 1267 N 113.814 -1.1601 1.06675 0
M  V30 1268 C 114.744 -2.22688 0.702307 0
M  V30 1269 C 115.725 -1.67306 -0.307032 0
M  V30 1270 O 116.91 -1.93352 -0.181305 0
M  V30 1271 C 114.04 -3.47178 0.092038 0
M  V30 1272 C 112.994 -4.15477 1.02777 0
M  V30 1273 C 112.32 -5.33963 0.28061 0
M  V30 1274 C 113.62 -4.66019 2.35846 0
M  V30 1275 H 115.314 -2.53429 1.59419 0
M  V30 1276 H 112.86 -1.21813 0.767961 0
M  V30 1277 H 114.813 -4.21037 -0.174814 0
M  V30 1278 H 113.537 -3.15749 -0.834877 0
M  V30 1279 H 112.196 -3.43549 1.27944 0
M  V30 1280 H 111.844 -4.98788 -0.649545 0
M  V30 1281 H 111.544 -5.806 0.904258 0
M  V30 1282 H 113.068 -6.10596 0.021396 0
M  V30 1283 H 114.482 -5.3144 2.15045 0
M  V30 1284 H 112.879 -5.23293 2.93743 0
M  V30 1285 H 113.949 -3.82023 2.98641 0
M  V30 1286 N 115.292 -0.849877 -1.32721 0
M  V30 1287 C 116.225 -0.235903 -2.26977 0
M  V30 1288 C 117.203 0.623355 -1.50177 0
M  V30 1289 O 118.387 0.581207 -1.79316 0
M  V30 1290 C 115.514 0.667712 -3.32053 0
M  V30 1291 C 114.56 -0.11753 -4.26338 0
M  V30 1292 S 115.393 -1.48277 -5.14562 0
M  V30 1293 C 116.549 -0.584741 -6.23163 0
M  V30 1294 H 116.782 -1.03495 -2.78704 0
M  V30 1295 H 114.315 -0.64724 -1.40179 0
M  V30 1296 H 116.273 1.18343 -3.93072 0
M  V30 1297 H 114.934 1.44052 -2.7912 0
M  V30 1298 H 114.127 0.57051 -5.00761 0
M  V30 1299 H 113.729 -0.564668 -3.69713 0
M  V30 1300 H 116.021 0.212968 -6.77165 0
M  V30 1301 H 116.964 -1.29947 -6.96074 0
M  V30 1302 H 117.372 -0.161202 -5.6427 0
M  V30 1303 N 116.77 1.45427 -0.607355 0
M  V30 1304 C 118.186 1.57283 -0.270985 0
M  V30 1305 C 118.386 1.59875 1.22647 0
M  V30 1306 O 117.442 1.52893 2.00948 0
M  V30 1307 C 118.755 2.85566 -0.941952 0
M  V30 1308 C 120.303 2.9924 -0.917849 0
M  V30 1309 C 120.778 4.30293 -1.56882 0
M  V30 1310 N 122.269 4.37051 -1.5343 0
M  V30 1311 C 123.004 5.37123 -2.00715 0
M  V30 1312 N 122.5 6.43734 -2.56084 0
M  V30 1313 N 124.293 5.28479 -1.91484 0
M  V30 1314 H 116.444 1.41988 -1.57966 0
M  V30 1315 H 118.707 0.67885 -0.661715 0
M  V30 1316 H 118.413 2.8955 -1.99633 0
M  V30 1317 H 118.287 3.74322 -0.465096 0
M  V30 1318 H 120.674 2.94822 0.127984 0
M  V30 1319 H 120.755 2.11895 -1.43297 0
M  V30 1320 H 120.399 4.35469 -2.61398 0
M  V30 1321 H 120.329 5.16454 -1.02873 0
M  V30 1322 H 122.82 3.60615 -1.12982 0
M  V30 1323 H 123.133 7.16341 -2.89958 0
M  V30 1324 H 121.478 6.44485 -2.60122 0
M  V30 1325 H 124.669 4.44098 -1.47967 0
M  V30 1326 H 124.842 6.0632 -2.28648 0
M  V30 1327 N 118.248 0.346503 1.53744 0
M  V30 1328 C 119.664 -0.00530975 1.59599 0
M  V30 1329 C 119.864 -1.48465 1.36236 0
M  V30 1330 O 118.92 -2.24376 1.15808 0
M  V30 1331 C 120.233 0.433516 2.97559 0
M  V30 1332 C 121.781 0.386111 3.10609 0
M  V30 1333 C 122.256 0.800451 4.50951 0
M  V30 1334 N 123.747 0.754753 4.5701 0
M  V30 1335 C 124.482 1.04727 5.63755 0
M  V30 1336 N 123.978 1.4081 6.7834 0
M  V30 1337 N 125.771 0.971316 5.53644 0
M  V30 1338 H 117.922 1.31009 1.67184 0
M  V30 1339 H 120.185 0.534242 0.783128 0
M  V30 1340 H 119.891 1.46509 3.19731 0
M  V30 1341 H 119.765 -0.189753 3.76722 0
M  V30 1342 H 122.152 -0.636295 2.88158 0
M  V30 1343 H 122.233 1.04462 2.33498 0
M  V30 1344 H 121.877 1.82088 4.74137 0
M  V30 1345 H 121.807 0.119386 5.26465 0
M  V30 1346 H 124.298 0.488662 3.74727 0
M  V30 1347 H 124.611 1.61607 7.55714 0
M  V30 1348 H 122.956 1.44657 6.79779 0
M  V30 1349 H 126.147 0.688748 4.63005 0
M  V30 1350 H 126.32 1.20263 6.36742 0
M  V30 1351 N 119.726 -1.57421 0.075193 0
M  V30 1352 C 121.003 -1.85029 -0.634329 0
M  V30 1353 C 121.383 -0.968305 -1.87582 0
M  V30 1354 O 120.731 -0.0354749 -2.28472 0
M  V30 1355 C 120.941 -3.35286 -0.968742 0
M  V30 1356 C 122.289 -4.02875 -1.34077 0
M  V30 1357 O 123.313 -3.40051 -1.06037 0
M  V30 1358 O 122.172 -5.13691 -1.86506 0
M  V30 1359 H 119.266 -0.7645 -0.315387 0
M  V30 1360 H 121.812 -1.69366 0.106382 0
M  V30 1361 H 120.584 -3.91203 -0.0871376 0
M  V30 1362 H 120.207 -3.56223 -1.7661 0
M  V30 1363 N 121.204 0.198386 -1.56346 0
M  V30 1364 C 122.134 1.24865 -1.9731 0
M  V30 1365 C 123.115 1.47651 -0.844576 0
M  V30 1366 O 124.3 1.59444 -1.10866 0
M  V30 1367 C 121.43 2.59358 -2.30977 0
M  V30 1368 C 120.384 2.5119 -3.46537 0
M  V30 1369 C 119.71 3.89926 -3.65871 0
M  V30 1370 C 121.01 2.03977 -4.80823 0
M  V30 1371 H 122.704 0.908252 -2.85291 0
M  V30 1372 H 120.25 0.435462 -1.37258 0
M  V30 1373 H 122.203 3.33011 -2.58228 0
M  V30 1374 H 120.927 2.95132 -1.39874 0
M  V30 1375 H 119.586 1.79993 -3.19371 0
M  V30 1376 H 119.234 4.23046 -2.72105 0
M  V30 1377 H 118.934 3.85336 -4.4361 0
M  V30 1378 H 120.458 4.65205 -3.95495 0
M  V30 1379 H 121.872 2.67386 -5.07127 0
M  V30 1380 H 120.269 2.10397 -5.62008 0
M  V30 1381 H 121.339 0.992861 -4.74626 0
M  V30 1382 N 122.682 1.50554 0.465978 0
M  V30 1383 C 123.959 1.5232 1.22712 0
M  V30 1384 C 124.339 0.270807 2.09356 0
M  V30 1385 O 123.687 -0.745541 2.15995 0
M  V30 1386 C 123.897 2.82175 2.05374 0
M  V30 1387 C 125.245 3.33033 2.6339 0
M  V30 1388 O 126.269 2.83531 2.15612 0
M  V30 1389 O 125.128 4.19336 3.50456 0
M  V30 1390 H 122.222 0.611183 0.557122 0
M  V30 1391 H 124.768 1.62847 0.477381 0
M  V30 1392 H 123.54 3.64797 1.41558 0
M  V30 1393 H 123.163 2.74675 2.87471 0
M  V30 1394 N 124.16 -0.719506 1.40217 0
M  V30 1395 C 125.406 -1.48152 1.38488 0
M  V30 1396 C 125.739 -1.94195 -0.0141867 0
M  V30 1397 O 125.014 -1.67884 -0.982096 0
M  V30 1398 C 125.297 -2.71035 2.37091 0
M  V30 1399 C 125.15 -2.30912 3.86005 0
M  V30 1400 C 126.469 -3.73182 2.33288 0
M  V30 1401 H 123.588 -0.537395 0.504357 0
M  V30 1402 H 126.23 -0.821472 1.71324 0
M  V30 1403 H 124.38 -3.27352 2.0922 0
M  V30 1404 H 126.052 -1.80107 4.24687 0
M  V30 1405 H 124.295 -1.62958 4.02029 0
M  V30 1406 H 124.966 -3.18978 4.50508 0
M  V30 1407 H 127.442 -3.26485 2.57966 0
M  V30 1408 H 126.318 -4.56806 3.04334 0
M  V30 1409 H 126.579 -4.21202 1.34317 0
M  V30 1410 N 125.638 -1.25649 -0.95132 0
M  V30 1411 C 126.568 -1.08808 -2.06599 0
M  V30 1412 C 127.549 0.00382547 -1.701 0
M  V30 1413 O 128.734 -0.166325 -1.93486 0
M  V30 1414 C 125.864 -0.709542 -3.39975 0
M  V30 1415 C 124.818 -1.75206 -3.90496 0
M  V30 1416 C 124.144 -1.22811 -5.20405 0
M  V30 1417 C 125.444 -3.15153 -4.16504 0
M  V30 1418 H 127.138 -2.02048 -2.20946 0
M  V30 1419 H 124.684 -0.972835 -1.06169 0
M  V30 1420 H 126.637 -0.578649 -4.17408 0
M  V30 1421 H 125.361 0.258556 -3.25575 0
M  V30 1422 H 124.02 -1.87145 -3.15234 0
M  V30 1423 H 123.668 -0.250145 -5.02378 0
M  V30 1424 H 123.368 -1.92492 -5.55176 0
M  V30 1425 H 124.892 -1.10968 -6.00432 0
M  V30 1426 H 126.306 -3.06349 -4.84586 0
M  V30 1427 H 124.703 -3.82333 -4.62538 0
M  V30 1428 H 125.773 -3.61966 -3.22658 0
M  V30 1429 N 127.117 1.15442 -1.07289 0
M  V30 1430 C 128.366 1.85557 -0.790669 0
M  V30 1431 C 128.679 1.83186 0.685739 0
M  V30 1432 O 129.885 2.48977 1.0827 0
M  V30 1433 C 128.341 3.33038 -1.36433 0
M  V30 1434 C 127.949 3.43856 -2.8717 0
M  V30 1435 C 129.693 4.0834 -1.1601 0
M  V30 1436 C 127.6 4.85482 -3.3773 0
M  V30 1437 H 126.53 0.695122 -0.292098 0
M  V30 1438 H 129.181 1.30219 -1.29287 0
M  V30 1439 H 127.563 3.88043 -0.789864 0
M  V30 1440 H 128.737 2.98961 -3.50655 0
M  V30 1441 H 127.052 2.81998 -3.06376 0
M  V30 1442 H 129.649 5.12859 -1.51262 0
M  V30 1443 H 129.992 4.16182 -0.0991007 0
M  V30 1444 H 130.525 3.59603 -1.70089 0
M  V30 1445 H 127.264 4.82823 -4.43353 0
M  V30 1446 H 126.784 5.30961 -2.78999 0
M  V30 1447 H 128.463 5.54335 -3.33648 0
M  V30 1448 N 128.595 0.856903 1.32268 0
M  V30 1449 C 129.558 0.308171 2.27119 0
M  V30 1450 C 130.558 -0.533421 1.51695 0
M  V30 1451 O 131.748 -0.344607 1.70757 0
M  V30 1452 C 128.88 -0.563757 3.36206 0
M  V30 1453 H 130.073 1.14535 2.77167 0
M  V30 1454 H 127.626 0.631421 1.42978 0
M  V30 1455 H 128.361 -1.42266 2.91429 0
M  V30 1456 H 128.146 0.0386749 3.92081 0
M  V30 1457 H 129.636 -0.940386 4.06874 0
M  V30 1458 N 130.073 -1.45103 0.615059 0
M  V30 1459 C 131.02 -2.30586 -0.0993978 0
M  V30 1460 C 131.99 -1.42544 -0.852669 0
M  V30 1461 O 133.175 -1.71465 -0.836917 0
M  V30 1462 C 130.315 -3.27572 -1.08583 0
M  V30 1463 C 129.428 -4.30717 -0.332656 0
M  V30 1464 C 128.563 -5.14807 -1.30947 0
M  V30 1465 C 127.602 -6.09673 -0.544538 0
M  V30 1466 N 126.739 -6.86517 -1.47101 0
M  V30 1467 H 131.579 -2.91144 0.635542 0
M  V30 1468 H 129.116 -1.4346 0.325206 0
M  V30 1469 H 131.074 -3.82276 -1.67095 0
M  V30 1470 H 129.704 -2.68751 -1.78809 0
M  V30 1471 H 128.756 -3.78615 0.368107 0
M  V30 1472 H 130.068 -4.98102 0.263842 0
M  V30 1473 H 129.222 -5.73948 -1.96643 0
M  V30 1474 H 127.961 -4.47458 -1.9399 0
M  V30 1475 H 126.966 -5.49656 0.126003 0
M  V30 1476 H 128.191 -6.79052 0.080947 0
M  V30 1477 H 126.137 -6.21851 -2.08895 0
M  V30 1478 H 126.054 -7.50281 -0.928137 0
M  V30 1479 H 127.322 -7.50194 -2.11731 0
M  V30 1480 N 131.551 -0.354651 -1.53558 0
M  V30 1481 C 132.481 0.489091 -2.2832 0
M  V30 1482 C 133.462 1.09324 -1.30316 0
M  V30 1483 O 134.647 1.11255 -1.59173 0
M  V30 1484 C 131.777 1.63456 -3.0643 0
M  V30 1485 C 130.731 1.1582 -4.12031 0
M  V30 1486 C 130.057 2.39305 -4.7816 0
M  V30 1487 C 131.357 0.250731 -5.21698 0
M  V30 1488 H 133.051 -0.134614 -2.99097 0
M  V30 1489 H 130.597 -0.0661826 -1.43848 0
M  V30 1490 H 132.55 2.23136 -3.57475 0
M  V30 1491 H 131.274 2.28533 -2.33325 0
M  V30 1492 H 129.933 0.584146 -3.61916 0
M  V30 1493 H 129.581 3.02814 -4.01637 0
M  V30 1494 H 129.281 2.08109 -5.49513 0
M  V30 1495 H 130.805 2.99691 -5.31994 0
M  V30 1496 H 132.219 0.754695 -5.68311 0
M  V30 1497 H 130.616 0.0301468 -6.00092 0
M  V30 1498 H 131.686 -0.710125 -4.79672 0
M  V30 1499 N 133.029 1.57378 -0.0835403 0
M  V30 1500 C 133.977 2.14602 0.89714 0
M  V30 1501 C 134.971 1.08589 1.30018 0
M  V30 1502 O 136.177 1.26952 1.27606 0
M  V30 1503 H 132.552 0.686346 0.3073 0
M  V30 1504 H 134.523 2.95845 0.38969 0
M  V30 1505 C 133.272 2.73188 2.15089 0
M  V30 1506 H 132.595 3.54442 1.84962 0
M  V30 1507 H 134.035 3.1681 2.81793 0
M  V30 1508 C 132.494 1.68517 2.91725 0
M  V30 1509 O 133.024 1.11718 3.85852 0
M  V30 1510 N 131.23 1.39277 2.55049 0
M  V30 1511 H 130.777 1.85655 1.78577 0
M  V30 1512 H 130.735 0.694791 3.06627 0
M  V30 1513 N 134.507 -0.190092 1.56449 0
M  V30 1514 C 135.439 -1.25973 1.91477 0
M  V30 1515 C 136.452 -1.41452 0.805931 0
M  V30 1516 O 137.641 -1.41789 1.08435 0
M  V30 1517 C 134.741 -2.63117 2.13594 0
M  V30 1518 C 133.914 -2.69182 3.4476 0
M  V30 1519 C 132.973 -3.87557 3.5593 0
M  V30 1520 O 131.999 -3.74427 4.28711 0
M  V30 1521 N 133.201 -5.03224 2.89388 0
M  V30 1522 H 135.966 -0.962394 2.83828 0
M  V30 1523 H 133.527 -0.379981 1.57378 0
M  V30 1524 H 135.519 -3.40742 2.1835 0
M  V30 1525 H 134.089 -2.85319 1.27719 0
M  V30 1526 H 133.309 -1.77793 3.51828 0
M  V30 1527 H 134.597 -2.70229 4.31107 0
M  V30 1528 H 133.995 -5.16791 2.30094 0
M  V30 1529 H 132.552 -5.78778 2.99764 0
M  V30 1530 N 135.985 -1.50799 -0.457987 0
M  V30 1531 C 137.234 -1.6168 -1.20593 0
M  V30 1532 C 137.547 -0.32888 -1.92815 0
M  V30 1533 O 138.753 -0.316773 -2.69646 0
M  V30 1534 C 137.209 -2.8545 -2.19195 0
M  V30 1535 C 136.817 -4.21168 -1.52715 0
M  V30 1536 C 138.561 -3.05681 -2.94549 0
M  V30 1537 C 136.468 -5.3611 -2.4968 0
M  V30 1538 H 135.398 -0.602134 -0.453818 0
M  V30 1539 H 138.049 -1.77245 -0.475031 0
M  V30 1540 H 136.431 -2.63472 -2.95632 0
M  V30 1541 H 137.605 -4.53449 -0.819775 0
M  V30 1542 H 135.92 -4.06648 -0.895922 0
M  V30 1543 H 138.517 -3.88727 -3.67145 0
M  V30 1544 H 138.86 -2.17929 -3.54701 0
M  V30 1545 H 139.393 -3.27901 -2.25223 0
M  V30 1546 H 136.132 -6.26057 -1.94249 0
M  V30 1547 H 135.652 -5.0823 -3.18532 0
M  V30 1548 H 137.331 -5.6722 -3.11241 0
M  V30 1549 N 137.463 0.71206 -1.40597 0
M  V30 1550 C 138.74 1.46536 -1.29563 0
M  V30 1551 C 139.12 2.10931 0.0844217 0
M  V30 1552 O 138.468 2.00418 1.0975 0
M  V30 1553 C 138.678 2.49821 -2.43701 0
M  V30 1554 C 140.026 3.15551 -2.841 0
M  V30 1555 O 141.05 2.60142 -2.4332 0
M  V30 1556 O 139.909 4.15867 -3.54566 0
M  V30 1557 H 137.003 0.651801 -0.509004 0
M  V30 1558 H 139.549 0.743935 -1.52524 0
M  V30 1559 H 138.321 2.00778 -3.35863 0
M  V30 1560 H 137.944 3.29495 -2.22528 0
M  V30 1561 N 138.941 1.26152 0.944643 0
M  V30 1562 C 140.189 1.11271 1.6871 0
M  V30 1563 C 140.51 -0.345166 1.91921 0
M  V30 1564 O 139.78 -1.24387 1.51343 0
M  V30 1565 H 138.36 0.408783 0.625224 0
M  V30 1566 H 141.022 1.58427 1.1352 0
M  V30 1567 H 140.118 1.62879 2.66227 0
M  V30 1568 N 140.419 -1.14872 1.07899 0
M  V30 1569 C 141.668 -1.85135 0.800499 0
M  V30 1570 C 141.981 -1.83547 -0.676014 0
M  V30 1571 O 143.187 -2.49548 -1.06948 0
M  V30 1572 C 141.643 -3.3231 1.38197 0
M  V30 1573 C 141.251 -3.42329 2.8899 0
M  V30 1574 C 142.995 -4.0772 1.18174 0
M  V30 1575 C 140.902 -4.83684 3.403 0
M  V30 1576 H 139.832 -0.693563 0.29578 0
M  V30 1577 H 142.483 -1.29532 1.29976 0
M  V30 1578 H 140.865 -3.87618 0.810431 0
M  V30 1579 H 142.039 -2.97097 3.52236 0
M  V30 1580 H 140.354 -2.80369 3.07867 0
M  V30 1581 H 142.951 -5.12049 1.5398 0
M  V30 1582 H 143.294 -4.16124 0.12117 0
M  V30 1583 H 143.827 -3.58696 1.71994 0
M  V30 1584 H 140.566 -4.80465 4.45907 0
M  V30 1585 H 140.086 -5.29474 2.81811 0
M  V30 1586 H 141.765 -5.52558 3.36584 0
M  V30 1587 N 141.898 -0.863906 -1.31812 0
M  V30 1588 C 142.808 -0.318461 -2.32428 0
M  V30 1589 C 143.824 0.568496 -1.64451 0
M  V30 1590 O 145 0.46666 -1.95919 0
M  V30 1591 C 142.065 0.476355 -3.43412 0
M  V30 1592 C 141.126 -0.43784 -4.27061 0
M  V30 1593 C 140.359 0.319138 -5.32745 0
M  V30 1594 O 140.582 1.54799 -5.48993 0
M  V30 1595 O 139.516 -0.319861 -6.01049 0
M  V30 1596 H 143.342 -1.15229 -2.80991 0
M  V30 1597 H 140.927 -0.627103 -1.35602 0
M  V30 1598 H 142.809 0.927156 -4.11074 0
M  V30 1599 H 141.484 1.28683 -2.97022 0
M  V30 1600 H 140.391 -0.937013 -3.62175 0
M  V30 1601 H 141.724 -1.21375 -4.77 0
M  V30 1602 N 143.376 1.44774 -0.622745 0
M  V30 1603 C 144.653 1.95522 -0.0551974 0
M  V30 1604 C 145.033 1.5649 1.41683 0
M  V30 1605 O 144.381 0.834848 2.12703 0
M  V30 1606 C 144.591 3.4796 -0.269242 0
M  V30 1607 C 145.939 4.24306 -0.158014 0
M  V30 1608 O 146.963 3.55637 -0.200162 0
M  V30 1609 O 145.822 5.46471 -0.0558693 0
M  V30 1610 H 142.916 0.826556 0.0271015 0
M  V30 1611 H 145.462 1.54866 -0.693864 0
M  V30 1612 H 144.234 3.6939 -1.29099 0
M  V30 1613 H 143.857 3.95543 0.403966 0
M  V30 1614 N 144.854 0.36279 1.53368 0
M  V30 1615 C 146.103 -0.22888 2.00397 0
M  V30 1616 C 146.416 -1.50096 1.25421 0
M  V30 1617 O 147.622 -2.17106 1.63025 0
M  V30 1618 C 146.078 -0.458417 3.56969 0
M  V30 1619 C 145.686 0.798877 4.4082 0
M  V30 1620 C 147.43 -1.00789 4.12361 0
M  V30 1621 C 145.337 0.539078 5.88938 0
M  V30 1622 H 144.267 -0.089305 0.748693 0
M  V30 1623 H 146.918 0.481099 1.77081 0
M  V30 1624 H 145.3 -1.22959 3.76427 0
M  V30 1625 H 146.474 1.57262 4.33134 0
M  V30 1626 H 144.789 1.27137 3.96516 0
M  V30 1627 H 147.386 -1.21754 5.20653 0
M  V30 1628 H 147.729 -1.9692 3.66781 0
M  V30 1629 H 148.262 -0.296961 3.9669 0
M  V30 1630 H 145.001 1.47064 6.3879 0
M  V30 1631 H 144.521 -0.196222 5.99479 0
M  V30 1632 H 146.2 0.163542 6.46793 0
M  V30 1633 N 146.332 -1.57332 0.0918853 0
M  V30 1634 C 147.58 -1.93853 -0.571446 0
M  V30 1635 C 147.901 -0.974212 -1.6892 0
M  V30 1636 O 147.171 -0.0257254 -1.95883 0
M  V30 1637 H 145.751 -0.715666 -0.214082 0
M  V30 1638 H 148.413 -1.94287 0.154464 0
M  V30 1639 H 147.509 -2.96191 -0.983729 0
M  V30 1640 N 147.81 0.181792 -1.56548 0
M  V30 1641 C 148.74 1.22765 -1.98623 0
M  V30 1642 C 149.721 1.46747 -0.860189 0
M  V30 1643 O 150.906 1.58259 -1.12551 0
M  V30 1644 C 148.036 2.56894 -2.33715 0
M  V30 1645 C 146.99 2.475 -3.49182 0
M  V30 1646 C 146.316 3.86023 -3.69986 0
M  V30 1647 C 147.616 1.98866 -4.82959 0
M  V30 1648 H 149.31 0.877942 -2.86239 0
M  V30 1649 H 146.856 0.42088 -1.37712 0
M  V30 1650 H 148.809 3.30253 -2.61746 0
M  V30 1651 H 147.533 2.93632 -1.42997 0
M  V30 1652 H 146.192 1.76596 -3.21262 0
M  V30 1653 H 145.84 4.20136 -2.76576 0
M  V30 1654 H 145.54 3.80609 -4.47672 0
M  V30 1655 H 147.064 4.60984 -4.00407 0
M  V30 1656 H 148.478 2.61992 -5.09934 0
M  V30 1657 H 146.875 2.04424 -5.64208 0
M  V30 1658 H 147.945 0.942465 -4.75653 0
M  V30 1659 N 149.288 1.51039 0.449983 0
M  V30 1660 C 150.516 1.66869 1.2232 0
M  V30 1661 C 150.931 0.360727 1.85322 0
M  V30 1662 O 150.288 -0.659531 1.70166 0
M  V30 1663 C 150.339 2.77524 2.31652 0
M  V30 1664 O 150.06 4.03252 1.7123 0
M  V30 1665 C 151.561 3.04512 3.2216 0
M  V30 1666 H 148.781 0.560326 0.369155 0
M  V30 1667 H 151.325 1.97385 0.534719 0
M  V30 1668 H 149.48 2.49642 2.96239 0
M  V30 1669 H 149.894 4.64609 2.43389 0
M  V30 1670 H 151.368 3.85551 3.95038 0
M  V30 1671 H 151.845 2.16415 3.8218 0
M  V30 1672 H 152.451 3.34005 2.63288 0
M  V30 1673 N 150.766 -0.704594 1.40972 0
M  V30 1674 C 151.994 -1.49354 1.43182 0
M  V30 1675 C 152.409 -1.88768 0.0345508 0
M  V30 1676 O 151.766 -1.56184 -0.944081 0
M  V30 1677 C 151.817 -2.76187 2.33244 0
M  V30 1678 O 151.538 -2.38436 3.67532 0
M  V30 1679 C 153.039 -3.7 2.44162 0
M  V30 1680 H 150.259 -0.460559 0.487982 0
M  V30 1681 H 152.803 -0.868261 1.85153 0
M  V30 1682 H 150.958 -3.34974 1.94606 0
M  V30 1683 H 151.372 -3.20126 4.15475 0
M  V30 1684 H 152.846 -4.55803 3.11364 0
M  V30 1685 H 153.323 -4.13867 1.47006 0
M  V30 1686 H 153.929 -3.17121 2.83398 0
M  V30 1687 N 152.244 -1.26651 -0.937939 0
M  V30 1688 C 153.192 -1.08308 -2.05845 0
M  V30 1689 C 154.186 -0.0090757 -1.69398 0
M  V30 1690 O 155.392 -0.166007 -1.79233 0
M  V30 1691 H 151.767 -0.333416 -0.674046 0
M  V30 1692 H 153.738 -2.03261 -2.18467 0
M  V30 1693 C 152.487 -0.736229 -3.39816 0
M  V30 1694 H 151.81 -1.55453 -3.6834 0
M  V30 1695 H 153.25 -0.64769 -4.19024 0
M  V30 1696 C 151.709 0.558824 -3.32233 0
M  V30 1697 O 152.239 1.59621 -3.68624 0
M  V30 1698 N 150.445 0.550657 -2.85335 0
M  V30 1699 H 149.992 -0.293943 -2.55917 0
M  V30 1700 H 149.95 1.41726 -2.80644 0
M  V30 1701 N 153.722 1.14298 -1.08507 0
M  V30 1702 C 154.97 1.84993 -0.813763 0
M  V30 1703 C 155.291 1.83405 0.662393 0
M  V30 1704 O 154.561 1.28319 1.48024 0
M  V30 1705 H 153.141 0.684966 -0.298045 0
M  V30 1706 H 155.803 1.385 -1.37126 0
M  V30 1707 H 154.899 2.89788 -1.15884 0
M  V30 1708 N 155.201 0.870884 1.31352 0
M  V30 1709 C 156.131 0.343096 2.30966 0
M  V30 1710 C 157.112 -0.566507 1.60389 0
M  V30 1711 O 158.297 -0.483336 1.88089 0
M  V30 1712 C 155.427 -0.455487 3.443 0
M  V30 1713 C 154.381 0.361103 4.26474 0
M  V30 1714 C 153.707 -0.563221 5.31725 0
M  V30 1715 C 155.007 1.59566 4.97329 0
M  V30 1716 H 156.701 1.17548 2.75359 0
M  V30 1717 H 154.247 0.566686 1.32381 0
M  V30 1718 H 156.2 -0.83525 4.13039 0
M  V30 1719 H 154.924 -1.32139 2.98675 0
M  V30 1720 H 153.583 0.722825 3.59403 0
M  V30 1721 H 153.231 -1.42643 4.82351 0
M  V30 1722 H 152.931 -0.0207409 5.87596 0
M  V30 1723 H 154.455 -0.939808 6.03324 0
M  V30 1724 H 155.869 1.28728 5.58661 0
M  V30 1725 H 154.266 2.07728 5.63 0
M  V30 1726 H 155.336 2.34798 4.24262 0
M  V30 1727 N 156.679 -1.44442 0.630414 0
M  V30 1728 C 157.609 -2.33418 -0.0618083 0
M  V30 1729 C 158.59 -1.48165 -0.835541 0
M  V30 1730 O 159.775 -1.76886 -0.801564 0
M  V30 1731 C 156.905 -3.31222 -1.04449 0
M  V30 1732 C 155.859 -4.26288 -0.382436 0
M  V30 1733 C 155.185 -5.13954 -1.47497 0
M  V30 1734 C 156.485 -5.1744 0.710865 0
M  V30 1735 H 158.179 -2.91548 0.681184 0
M  V30 1736 H 155.725 -1.40191 0.329026 0
M  V30 1737 H 157.678 -3.92351 -1.53748 0
M  V30 1738 H 156.402 -2.71299 -1.81836 0
M  V30 1739 H 155.061 -3.6649 0.0899054 0
M  V30 1740 H 154.709 -4.50385 -2.2397 0
M  V30 1741 H 154.409 -5.7837 -1.03737 0
M  V30 1742 H 155.933 -5.77955 -1.96979 0
M  V30 1743 H 157.347 -5.72509 0.300996 0
M  V30 1744 H 155.744 -5.90455 1.07156 0
M  V30 1745 H 156.814 -4.58496 1.57829 0
M  V30 1746 N 158.157 -0.370918 -1.53173 0
M  V30 1747 C 159.087 0.464847 -2.28826 0
M  V30 1748 C 160.068 1.07936 -1.31468 0
M  V30 1749 O 161.253 1.0956 -1.60344 0
M  V30 1750 C 158.383 1.60196 -3.08147 0
M  V30 1751 C 157.337 1.11443 -4.13237 0
M  V30 1752 C 156.663 2.3422 -4.80672 0
M  V30 1753 C 157.963 0.195384 -5.21934 0
M  V30 1754 H 159.657 -0.166329 -2.98938 0
M  V30 1755 H 157.203 -0.0814359 -1.4377 0
M  V30 1756 H 159.156 2.19332 -3.59822 0
M  V30 1757 H 157.88 2.26045 -2.35735 0
M  V30 1758 H 156.539 0.545727 -3.62515 0
M  V30 1759 H 156.187 2.98537 -4.04827 0
M  V30 1760 H 155.887 2.02269 -5.51689 0
M  V30 1761 H 157.411 2.94032 -5.35143 0
M  V30 1762 H 158.825 0.694375 -5.69079 0
M  V30 1763 H 157.222 -0.0335027 -6.00091 0
M  V30 1764 H 158.292 -0.760961 -4.78892 0
M  V30 1765 N 159.635 1.57281 -0.100228 0
M  V30 1766 C 160.582 2.14305 0.856858 0
M  V30 1767 C 161.552 1.06296 1.27634 0
M  V30 1768 O 162.737 1.34109 1.35718 0
M  V30 1769 C 159.877 2.73184 2.10866 0
M  V30 1770 C 158.99 3.95442 1.73925 0
M  V30 1771 C 158.125 4.42468 2.93931 0
M  V30 1772 C 157.164 5.57303 2.5314 0
M  V30 1773 N 156.301 5.99158 3.65997 0
M  V30 1774 H 161.141 2.95772 0.363726 0
M  V30 1775 H 158.678 1.46139 0.167858 0
M  V30 1776 H 160.636 3.05442 2.84185 0
M  V30 1777 H 159.266 1.94437 2.57671 0
M  V30 1778 H 158.318 3.69464 0.905554 0
M  V30 1779 H 159.63 4.78769 1.39935 0
M  V30 1780 H 158.784 4.76537 3.75496 0
M  V30 1781 H 157.523 3.58052 3.31134 0
M  V30 1782 H 156.528 5.22857 1.70003 0
M  V30 1783 H 157.753 6.43471 2.17075 0
M  V30 1784 H 155.699 5.17687 4.02909 0
M  V30 1785 H 155.616 6.77295 3.35869 0
M  V30 1786 H 156.884 6.3786 4.48057 0
M  V30 1787 N 161.113 -0.173488 1.56642 0
M  V30 1788 C 162.06 -1.21482 1.96242 0
M  V30 1789 C 163.03 -1.44104 0.826027 0
M  V30 1790 O 164.215 -1.5688 1.08597 0
M  V30 1791 C 161.355 -2.54964 2.32567 0
M  V30 1792 C 160.468 -2.39739 3.59373 0
M  V30 1793 C 159.603 -3.66072 3.84921 0
M  V30 1794 C 158.642 -3.45771 5.05083 0
M  V30 1795 N 157.779 -4.64169 5.26775 0
M  V30 1796 H 162.619 -0.870123 2.85014 0
M  V30 1797 H 160.156 -0.418245 1.41029 0
M  V30 1798 H 162.114 -3.32758 2.5165 0
M  V30 1799 H 160.744 -2.87433 1.46908 0
M  V30 1800 H 159.796 -1.53131 3.48217 0
M  V30 1801 H 161.108 -2.20683 4.47326 0
M  V30 1802 H 160.262 -4.52303 4.0436 0
M  V30 1803 H 159.001 -3.88105 2.9534 0
M  V30 1804 H 158.006 -2.57927 4.85545 0
M  V30 1805 H 159.231 -3.25163 5.96193 0
M  V30 1806 H 157.177 -4.86425 4.40144 0
M  V30 1807 H 157.094 -4.48019 6.08946 0
M  V30 1808 H 158.362 -5.51689 5.5069 0
M  V30 1809 N 162.591 -1.51276 -0.441967 0
M  V30 1810 C 163.541 -1.6864 -1.53442 0
M  V30 1811 C 164.525 -0.540444 -1.51552 0
M  V30 1812 O 165.717 -0.796157 -1.58083 0
M  V30 1813 C 162.846 -1.8106 -2.91672 0
M  V30 1814 C 161.932 -3.01424 -2.98336 0
M  V30 1815 N 162.323 -4.2467 -2.74752 0
M  V30 1816 C 160.621 -3.00584 -3.29493 0
M  V30 1817 C 161.322 -5.05891 -2.87139 0
M  V30 1818 N 160.298 -4.40442 -3.18609 0
M  V30 1819 H 164.1 -2.61598 -1.33954 0
M  V30 1820 H 161.614 -1.4886 -0.6492 0
M  V30 1821 H 163.611 -1.91609 -3.70259 0
M  V30 1822 H 162.271 -0.892795 -3.12185 0
M  V30 1823 H 163.282 -4.53691 -2.49769 0
M  V30 1824 H 159.959 -2.18417 -3.55809 0
M  V30 1825 H 161.349 -6.13983 -2.72899 0
M  V30 1826 N 164.069 0.697108 -1.41344 0
M  V30 1827 C 165.317 1.45426 -1.40341 0
M  V30 1828 C 165.638 1.94996 -0.0128787 0
M  V30 1829 O 164.908 1.71599 0.945027 0
M  V30 1830 H 163.488 0.539594 -0.516573 0
M  V30 1831 H 166.15 0.825201 -1.76569 0
M  V30 1832 H 165.246 2.31817 -2.08967 0
M  V30 1833 N 165.547 1.27147 0.931209 0
M  V30 1834 C 166.479 1.05364 2.03546 0
M  V30 1835 C 167.492 0.0108438 1.62796 0
M  V30 1836 O 168.681 0.25202 1.76712 0
M  V30 1837 C 165.781 0.575566 3.33977 0
M  V30 1838 C 164.954 1.68985 4.03439 0
M  V30 1839 C 164.013 1.20813 5.12143 0
M  V30 1840 O 163.039 1.90712 5.363 0
M  V30 1841 N 164.241 0.0618851 5.80467 0
M  V30 1842 H 167.006 2.00454 2.22796 0
M  V30 1843 H 164.567 1.18666 1.10136 0
M  V30 1844 H 166.559 0.237264 4.04004 0
M  V30 1845 H 165.129 -0.282016 3.11325 0
M  V30 1846 H 164.349 2.19861 3.27192 0
M  V30 1847 H 165.637 2.4378 4.46597 0
M  V30 1848 H 165.035 -0.521621 5.6329 0
M  V30 1849 H 163.592 -0.217264 6.51438 0
M  V30 1850 N 167.025 -1.13721 1.09112 0
M  V30 1851 C 167.972 -2.19031 0.727591 0
M  V30 1852 C 168.942 -1.63555 -0.289656 0
M  V30 1853 O 170.127 -1.90023 -0.172026 0
M  V30 1854 C 167.267 -3.4477 0.15082 0
M  V30 1855 C 166.38 -4.14365 1.22172 0
M  V30 1856 C 165.515 -5.27709 0.608042 0
M  V30 1857 C 164.554 -5.89147 1.66047 0
M  V30 1858 N 163.691 -6.93929 1.06806 0
M  V30 1859 H 168.531 -2.49475 1.62991 0
M  V30 1860 H 166.068 -1.22499 0.81439 0
M  V30 1861 H 168.026 -4.16714 -0.201358 0
M  V30 1862 H 166.656 -3.14787 -0.714783 0
M  V30 1863 H 165.708 -3.40737 1.69122 0
M  V30 1864 H 167.02 -4.56114 2.01895 0
M  V30 1865 H 166.174 -6.06355 0.204523 0
M  V30 1866 H 164.913 -4.872 -0.220769 0
M  V30 1867 H 163.918 -5.09198 2.07357 0
M  V30 1868 H 165.143 -6.31729 2.49189 0
M  V30 1869 H 163.089 -6.55483 0.260476 0
M  V30 1870 H 163.006 -7.34202 1.8023 0
M  V30 1871 H 164.274 -7.76434 0.690644 0
M  V30 1872 N 168.503 -0.877838 -1.30888 0
M  V30 1873 C 169.433 -0.35534 -2.3078 0
M  V30 1874 C 170.414 0.557994 -1.60687 0
M  V30 1875 O 171.599 0.473355 -1.88343 0
M  V30 1876 C 168.729 0.437221 -3.44537 0
M  V30 1877 C 167.683 -0.383715 -4.26276 0
M  V30 1878 C 167.009 0.535014 -5.32017 0
M  V30 1879 C 168.309 -1.62201 -4.96476 0
M  V30 1880 H 170.003 -1.19007 -2.74732 0
M  V30 1881 H 167.549 -0.573698 -1.32078 0
M  V30 1882 H 169.502 0.813334 -4.13477 0
M  V30 1883 H 168.226 1.30553 -2.99372 0
M  V30 1884 H 166.885 -0.741874 -3.59015 0
M  V30 1885 H 166.533 1.40083 -4.831 0
M  V30 1886 H 166.233 -0.0104211 -5.87599 0
M  V30 1887 H 167.757 0.907799 -6.03814 0
M  V30 1888 H 169.171 -1.31689 -5.5797 0
M  V30 1889 H 167.568 -2.10711 -5.61891 0
M  V30 1890 H 168.638 -2.37044 -4.23011 0
M  V30 1891 N 169.982 1.44106 -0.638065 0
M  V30 1892 C 171.212 2.06037 -0.152394 0
M  V30 1893 C 171.62 1.47808 1.18108 0
M  V30 1894 O 170.963 0.598092 1.73691 0
M  V30 1895 C 171.025 3.59488 0.0293714 0
M  V30 1896 C 170.689 4.4022 -1.22702 0
M  V30 1897 C 171.686 4.73256 -2.15232 0
M  V30 1898 C 169.371 4.8048 -1.46437 0
M  V30 1899 C 171.365 5.45444 -3.29802 0
M  V30 1900 C 169.052 5.52417 -2.61303 0
M  V30 1901 C 170.05 5.84819 -3.52811 0
M  V30 1902 O 169.738 6.55289 -4.65673 0
M  V30 1903 H 169.47 0.671233 -0.0801401 0
M  V30 1904 H 172.024 1.85851 -0.874563 0
M  V30 1905 H 170.254 3.78191 0.806758 0
M  V30 1906 H 171.943 4.03164 0.470475 0
M  V30 1907 H 172.709 4.42684 -1.98131 0
M  V30 1908 H 168.588 4.54676 -0.760977 0
M  V30 1909 H 172.132 5.70653 -4.01249 0
M  V30 1910 H 168.029 5.82404 -2.78344 0
M  V30 1911 H 168.797 6.73762 -4.64744 0
M  V30 1912 N 171.46 0.379036 1.52974 0
M  V30 1913 C 172.737 -0.263479 1.93817 0
M  V30 1914 C 173.117 -1.65244 1.31368 0
M  V30 1915 O 172.465 -2.23448 0.477856 0
M  V30 1916 C 172.675 -0.300166 3.47707 0
M  V30 1917 C 174.023 -0.534061 4.21228 0
M  V30 1918 O 175.047 -0.38081 3.54159 0
M  V30 1919 O 173.906 -0.833501 5.40106 0
M  V30 1920 H 171 -0.161149 0.811147 0
M  V30 1921 H 173.546 0.432798 1.64088 0
M  V30 1922 H 172.318 0.673138 3.85467 0
M  V30 1923 H 171.941 -1.04179 3.83709 0
M  V30 1924 N 172.938 -1.57226 0.108567 0
M  V30 1925 C 173.901 -2.13602 -0.831082 0
M  V30 1926 C 174.901 -1.06841 -1.20173 0
M  V30 1927 O 176.091 -1.32666 -1.12895 0
M  V30 1928 C 173.223 -2.66769 -2.12243 0
M  V30 1929 H 174.416 -2.97951 -0.341317 0
M  V30 1930 H 171.969 -1.55667 -0.14057 0
M  V30 1931 H 172.704 -1.85977 -2.65675 0
M  V30 1932 H 172.489 -3.44839 -1.86625 0
M  V30 1933 H 173.979 -3.10332 -2.79435 0
M  V30 1934 N 174.416 0.165178 -1.56732 0
M  V30 1935 C 175.664 0.879068 -1.8198 0
M  V30 1936 C 175.985 1.82514 -0.686561 0
M  V30 1937 O 175.255 1.93694 0.293146 0
M  V30 1938 H 173.835 0.327608 -0.671329 0
M  V30 1939 H 176.497 0.163526 -1.94213 0
M  V30 1940 H 175.593 1.45228 -2.76252 0
M  V30 1941 N 175.894 1.51508 0.433938 0
M  V30 1942 C 176.824 1.76016 1.53429 0
M  V30 1943 C 177.805 0.610112 1.58782 0
M  V30 1944 O 178.99 0.853177 1.74455 0
M  V30 1945 C 176.12 1.88831 2.9148 0
M  V30 1946 C 175.074 3.04288 3.00987 0
M  V30 1947 C 174.4 3.0229 4.4105 0
M  V30 1948 C 175.7 4.44193 2.74754 0
M  V30 1949 H 177.394 2.68152 1.33171 0
M  V30 1950 H 174.94 1.29035 0.639214 0
M  V30 1951 H 176.893 2.04559 3.6842 0
M  V30 1952 H 175.617 0.933455 3.12976 0
M  V30 1953 H 174.276 2.8827 2.26486 0
M  V30 1954 H 173.924 2.04576 4.59519 0
M  V30 1955 H 173.624 3.79822 4.4834 0
M  V30 1956 H 175.148 3.20116 5.1996 0
M  V30 1957 H 176.562 4.60544 3.41426 0
M  V30 1958 H 174.959 5.23457 2.9345 0
M  V30 1959 H 176.029 4.53996 1.70339 0
M  V30 1960 N 177.372 -0.689602 1.41712 0
M  V30 1961 C 178.788 -1.00093 1.24312 0
M  V30 1962 C 178.988 -2.01036 0.136729 0
M  V30 1963 O 178.044 -2.47562 -0.496918 0
M  V30 1964 C 179.357 -1.51985 2.59463 0
M  V30 1965 C 180.905 -1.63838 2.66695 0
M  V30 1966 C 181.38 -2.1913 4.02177 0
M  V30 1967 N 182.871 -2.26483 4.04054 0
M  V30 1968 C 183.606 -2.70306 5.0569 0
M  V30 1969 N 183.102 -3.13691 6.17713 0
M  V30 1970 N 184.895 -2.69923 4.9305 0
M  V30 1971 H 177.046 -0.0210029 2.1239 0
M  V30 1972 H 179.309 -0.0718733 0.945272 0
M  V30 1973 H 179.015 -0.85269 3.41207 0
M  V30 1974 H 178.889 -2.50103 2.82362 0
M  V30 1975 H 181.276 -2.29664 1.85306 0
M  V30 1976 H 181.357 -0.642492 2.476 0
M  V30 1977 H 181.001 -1.53918 4.84016 0
M  V30 1978 H 180.931 -3.19482 4.18615 0
M  V30 1979 H 183.422 -1.95874 3.23174 0
M  V30 1980 H 183.735 -3.45773 6.9113 0
M  V30 1981 H 182.08 -3.11585 6.21241 0
M  V30 1982 H 185.271 -2.35382 4.04614 0
M  V30 1983 H 185.444 -3.03758 5.72394 0
M  V30 1984 N 178.85 -1.27639 -0.924453 0
M  V30 1985 C 180.266 -1.05113 -1.20097 0
M  V30 1986 C 180.466 0.213262 -2.00368 0
M  V30 1987 O 179.522 0.91787 -2.35226 0
M  V30 1988 C 180.835 -2.29244 -1.94596 0
M  V30 1989 C 182.383 -2.34315 -2.07522 0
M  V30 1990 C 182.858 -3.58183 -2.85427 0
M  V30 1991 N 184.349 -3.5876 -2.92994 0
M  V30 1992 C 185.084 -4.51277 -3.53746 0
M  V30 1993 N 184.58 -5.54102 -4.15863 0
M  V30 1994 N 186.373 -4.38894 -3.51181 0
M  V30 1995 H 178.524 -2.08821 -0.388264 0
M  V30 1996 H 180.787 -0.918568 -0.234385 0
M  V30 1997 H 180.493 -3.21301 -1.43034 0
M  V30 1998 H 180.367 -2.34816 -2.95197 0
M  V30 1999 H 182.754 -1.42762 -2.58269 0
M  V30 2000 H 182.835 -2.32744 -1.06131 0
M  V30 2001 H 182.479 -4.50074 -2.35363 0
M  V30 2002 H 182.409 -3.57006 -3.8711 0
M  V30 2003 H 184.9 -2.84398 -2.4885 0
M  V30 2004 H 185.213 -6.20859 -4.60168 0
M  V30 2005 H 183.558 -5.57941 -4.144 0
M  V30 2006 H 186.749 -3.57772 -3.01856 0
M  V30 2007 H 186.922 -5.11186 -3.98237 0
M  V30 2008 N 180.328 1.1314 -1.09713 0
M  V30 2009 C 181.577 1.83838 -0.829851 0
M  V30 2010 C 181.89 1.84599 0.646728 0
M  V30 2011 O 183.096 2.51218 1.02965 0
M  V30 2012 C 181.552 3.30069 -1.43466 0
M  V30 2013 C 181.16 3.37688 -2.94399 0
M  V30 2014 C 182.904 4.05788 -1.24645 0
M  V30 2015 C 180.811 4.78209 -3.47952 0
M  V30 2016 H 179.741 0.68877 -0.306777 0
M  V30 2017 H 182.392 1.27448 -1.3202 0
M  V30 2018 H 180.774 3.8628 -0.871996 0
M  V30 2019 H 181.948 2.91456 -3.56918 0
M  V30 2020 H 180.263 2.75436 -3.12289 0
M  V30 2021 H 182.86 5.09535 -1.62107 0
M  V30 2022 H 183.203 4.15878 -0.187357 0
M  V30 2023 H 183.736 3.55915 -1.77678 0
M  V30 2024 H 180.475 4.73311 -4.53495 0
M  V30 2025 H 179.995 5.24924 -2.90198 0
M  V30 2026 H 181.674 5.47133 -3.45332 0
M  V30 2027 N 181.806 0.884767 1.30421 0
M  V30 2028 C 182.754 0.340869 2.30089 0
M  V30 2029 C 183.748 -0.55201 1.60154 0
M  V30 2030 O 184.954 -0.436467 1.74628 0
M  V30 2031 H 181.329 0.0915739 0.746404 0
M  V30 2032 H 183.3 1.19513 2.73421 0
M  V30 2033 C 182.049 -0.429779 3.45034 0
M  V30 2034 H 181.372 0.248024 3.9903 0
M  V30 2035 H 182.812 -0.775445 4.16849 0
M  V30 2036 C 181.271 -1.62677 2.95022 0
M  V30 2037 O 181.801 -2.72614 2.95033 0
M  V30 2038 N 180.007 -1.46387 2.51036 0
M  V30 2039 H 179.554 -0.569506 2.51226 0
M  V30 2040 H 179.512 -2.26612 2.17932 0
M  V30 2041 N 183.284 -1.43765 0.645699 0
M  V30 2042 C 184.53 -2.02197 0.156271 0
M  V30 2043 C 184.863 -1.50776 -1.22393 0
M  V30 2044 O 184.138 -0.697771 -1.81553 0
M  V30 2045 C 184.421 -3.59749 0.158872 0
M  V30 2046 C 184.274 -4.21419 1.57245 0
M  V30 2047 C 185.593 -4.37149 -0.50879 0
M  V30 2048 H 182.712 -0.734694 0.0582602 0
M  V30 2049 H 185.354 -1.71157 0.824951 0
M  V30 2050 H 183.504 -3.86325 -0.410525 0
M  V30 2051 H 185.176 -4.059 2.19186 0
M  V30 2052 H 183.419 -3.78356 2.122 0
M  V30 2053 H 184.09 -5.30482 1.52619 0
M  V30 2054 H 186.566 -4.16093 -0.024412 0
M  V30 2055 H 185.442 -5.4683 -0.476213 0
M  V30 2056 H 185.703 -4.12839 -1.58165 0
M  V30 2057 N 184.763 -0.387143 -1.52771 0
M  V30 2058 C 185.988 0.198407 -2.06449 0
M  V30 2059 C 186.413 1.39918 -1.25716 0
M  V30 2060 O 185.771 1.79099 -0.281657 0
M  V30 2061 C 185.819 0.548893 -3.56398 0
M  V30 2062 O 184.923 1.64315 -3.78252 0
M  V30 2063 H 184.264 0.0237731 -0.663574 0
M  V30 2064 H 186.794 -0.553989 -1.96957 0
M  V30 2065 H 186.804 0.813812 -3.99801 0
M  V30 2066 H 185.479 -0.329005 -4.14597 0
M  V30 2067 H 184.056 1.37211 -3.46738 0
M  V30 2068 N 186.241 1.57166 -0.116904 0
M  V30 2069 C 187.171 2.18222 0.830759 0
M  V30 2070 C 188.152 1.12167 1.27877 0
M  V30 2071 O 189.337 1.40394 1.34176 0
M  V30 2072 C 186.467 2.77996 2.08172 0
M  V30 2073 C 185.421 3.89614 1.77157 0
M  V30 2074 C 184.747 4.36187 3.09265 0
M  V30 2075 C 186.047 5.1181 1.04151 0
M  V30 2076 H 187.741 2.97664 0.321992 0
M  V30 2077 H 185.287 1.4318 0.153434 0
M  V30 2078 H 187.24 3.19366 2.74924 0
M  V30 2079 H 185.964 1.9584 2.6137 0
M  V30 2080 H 184.623 3.48816 1.12796 0
M  V30 2081 H 184.271 3.50893 3.60393 0
M  V30 2082 H 183.971 5.11455 2.89288 0
M  V30 2083 H 185.495 4.80207 3.77139 0
M  V30 2084 H 186.909 5.50214 1.61052 0
M  V30 2085 H 185.306 5.92648 0.942762 0
M  V30 2086 H 186.376 4.84892 0.0279022 0
M  V30 2087 N 187.719 -0.156864 1.56817 0
M  V30 2088 C 188.996 -0.899244 1.73704 0
M  V30 2089 C 189.376 -1.99771 0.682254 0
M  V30 2090 O 188.724 -2.26515 -0.300522 0
M  V30 2091 C 188.934 -1.45075 3.17418 0
M  V30 2092 C 190.282 -1.91802 3.7881 0
M  V30 2093 O 191.306 -1.54838 3.20786 0
M  V30 2094 O 190.165 -2.5994 4.80722 0
M  V30 2095 H 187.259 -0.424267 0.709878 0
M  V30 2096 H 189.805 -0.143561 1.69092 0
M  V30 2097 H 188.577 -0.660846 3.85679 0
M  V30 2098 H 188.2 -2.27021 3.26416 0
M  V30 2099 N 189.197 -1.51736 -0.425897 0
M  V30 2100 C 190.16 -1.73271 -1.50032 0
M  V30 2101 C 191.16 -0.602639 -1.4908 0
M  V30 2102 O 192.35 -0.87033 -1.509 0
M  V30 2103 C 189.482 -1.79969 -2.89523 0
M  V30 2104 H 190.675 -2.69172 -1.32237 0
M  V30 2105 H 188.228 -1.41899 -0.65532 0
M  V30 2106 H 188.963 -0.859241 -3.1271 0
M  V30 2107 H 188.748 -2.62109 -2.91619 0
M  V30 2108 H 190.238 -1.9843 -3.67444 0
M  V30 2109 N 190.675 0.682077 -1.42076 0
M  V30 2110 C 191.924 1.43786 -1.41451 0
M  V30 2111 C 192.237 1.95574 -0.0317074 0
M  V30 2112 O 193.443 2.71326 0.0971462 0
M  V30 2113 C 191.899 2.60071 -2.48779 0
M  V30 2114 C 191.507 2.15013 -3.93031 0
M  V30 2115 C 193.251 3.37626 -2.57311 0
M  V30 2116 C 191.158 3.28336 -4.91883 0
M  V30 2117 H 190.088 0.540143 -0.526082 0
M  V30 2118 H 192.739 0.739157 -1.67955 0
M  V30 2119 H 191.121 3.32275 -2.15429 0
M  V30 2120 H 192.295 1.5001 -4.35699 0
M  V30 2121 H 190.61 1.50416 -3.88284 0
M  V30 2122 H 193.207 4.22012 -3.28345 0
M  V30 2123 H 193.55 3.83727 -1.61429 0
M  V30 2124 H 194.083 2.72488 -2.89819 0
M  V30 2125 H 190.822 2.87234 -5.89217 0
M  V30 2126 H 190.342 3.92145 -4.53853 0
M  V30 2127 H 192.021 3.93913 -5.13265 0
M  V30 2128 N 192.153 1.28127 0.917671 0
M  V30 2129 C 193.43 1.05761 1.64542 0
M  V30 2130 C 193.81 -0.404344 2.07191 0
M  V30 2131 O 193.158 -1.38963 1.81388 0
M  V30 2132 C 193.368 2.02857 2.83989 0
M  V30 2133 C 194.716 2.32786 3.551 0
M  V30 2134 O 195.74 2.0091 2.94132 0
M  V30 2135 O 194.599 2.87169 4.64969 0
M  V30 2136 H 191.693 0.403916 0.721652 0
M  V30 2137 H 194.239 1.39431 0.967322 0
M  V30 2138 H 193.011 3.01407 2.49538 0
M  V30 2139 H 192.634 1.69809 3.59514 0
M  V30 2140 N 193.631 -1.12557 1.10312 0
M  V30 2141 C 194.908 -1.80363 0.756878 0
M  V30 2142 C 195.288 -1.97067 -0.756824 0
M  V30 2143 O 194.636 -1.54601 -1.68259 0
M  V30 2144 C 194.846 -3.14812 1.50647 0
M  V30 2145 C 196.194 -3.90029 1.67817 0
M  V30 2146 O 197.218 -3.24464 1.46974 0
M  V30 2147 O 196.077 -5.07652 2.02365 0
M  V30 2148 H 193.171 -0.780667 0.272926 0
M  V30 2149 H 195.717 -1.19404 1.20586 0
M  V30 2150 H 194.489 -2.97936 2.53672 0
M  V30 2151 H 194.112 -3.83478 1.05026 0
M  V30 2152 N 195.109 -0.891671 -1.2995 0
M  V30 2153 C 196.337 -0.52866 -2.00032 0
M  V30 2154 C 196.752 0.884574 -1.66795 0
M  V30 2155 O 196.109 1.5827 -0.908669 0
M  V30 2156 C 196.16 -0.701814 -3.54622 0
M  V30 2157 O 195.881 -2.05942 -3.86678 0
M  V30 2158 C 197.382 -0.342683 -4.41973 0
M  V30 2159 H 194.602 -0.203659 -0.639347 0
M  V30 2160 H 197.146 -1.19881 -1.65677 0
M  V30 2161 H 195.301 -0.0789468 -3.8732 0
M  V30 2162 H 195.715 -2.08291 -4.81368 0
M  V30 2163 H 197.189 -0.514709 -5.49595 0
M  V30 2164 H 197.666 0.71975 -4.33262 0
M  V30 2165 H 198.272 -0.942154 -4.14733 0
M  V30 2166 N 196.587 1.43421 -0.653314 0
M  V30 2167 C 197.517 2.33487 0.0246656 0
M  V30 2168 C 198.498 1.49475 0.811863 0
M  V30 2169 O 199.683 1.78139 0.773322 0
M  V30 2170 C 196.813 3.32841 0.99166 0
M  V30 2171 C 195.767 4.26842 0.314568 0
M  V30 2172 C 195.093 5.16236 1.39302 0
M  V30 2173 C 196.393 5.16243 -0.793095 0
M  V30 2174 H 198.087 2.90427 -0.727481 0
M  V30 2175 H 195.633 1.39649 -0.351287 0
M  V30 2176 H 197.586 3.94747 1.47487 0
M  V30 2177 H 196.31 2.74158 1.77497 0
M  V30 2178 H 194.969 3.663 -0.148199 0
M  V30 2179 H 194.617 4.53891 2.16776 0
M  V30 2180 H 194.317 5.79948 0.945223 0
M  V30 2181 H 195.841 5.81015 1.87759 0
M  V30 2182 H 197.255 5.71958 -0.392039 0
M  V30 2183 H 195.652 5.88676 -1.16536 0
M  V30 2184 H 196.722 4.55927 -1.65103 0
M  V30 2185 N 198.065 0.39524 1.52563 0
M  V30 2186 C 199.312 -0.185044 2.01653 0
M  V30 2187 C 199.64 -1.46317 1.28146 0
M  V30 2188 O 198.895 -1.9213 0.372074 0
M  V30 2189 C 199.194 -0.493444 3.53977 0
M  V30 2190 C 198.86 0.69384 4.4553 0
M  V30 2191 C 197.522 1.01954 4.70275 0
M  V30 2192 C 199.874 1.48785 4.99512 0
M  V30 2193 C 197.202 2.14069 5.46252 0
M  V30 2194 C 199.554 2.59965 5.76716 0
M  V30 2195 C 198.218 2.93037 5.99738 0
M  V30 2196 H 197.488 -0.0677123 0.7379 0
M  V30 2197 H 200.135 0.533807 1.8391 0
M  V30 2198 H 198.44 -1.29369 3.69825 0
M  V30 2199 H 200.137 -0.955163 3.89458 0
M  V30 2200 H 196.727 0.429987 4.26438 0
M  V30 2201 H 200.911 1.24946 4.80315 0
M  V30 2202 H 196.167 2.40056 5.62302 0
M  V30 2203 H 200.341 3.21887 6.17545 0
M  V30 2204 H 197.968 3.8003 6.58393 0
M  V30 2205 N 199.544 -1.57102 0.125237 0
M  V30 2206 C 200.476 -2.12726 -0.853237 0
M  V30 2207 C 201.489 -1.07145 -1.22571 0
M  V30 2208 O 202.678 -1.34497 -1.17358 0
M  V30 2209 C 199.778 -2.61709 -2.15317 0
M  V30 2210 C 198.951 -3.91456 -1.95143 0
M  V30 2211 C 198.01 -4.25973 -3.08923 0
M  V30 2212 O 197.036 -4.94682 -2.81564 0
M  V30 2213 N 198.238 -3.83795 -4.35524 0
M  V30 2214 H 201.003 -2.97307 -0.377964 0
M  V30 2215 H 198.564 -1.61792 -0.0590011 0
M  V30 2216 H 200.556 -2.81826 -2.90441 0
M  V30 2217 H 199.126 -1.81974 -2.54174 0
M  V30 2218 H 198.346 -3.80185 -1.04177 0
M  V30 2219 H 199.634 -4.76283 -1.78976 0
M  V30 2220 H 199.032 -3.2839 -4.60626 0
M  V30 2221 H 197.589 -4.09008 -5.07499 0
M  V30 2222 N 201.022 0.148545 -1.56898 0
M  V30 2223 C 202.247 0.880385 -1.87787 0
M  V30 2224 C 202.672 1.74018 -0.714093 0
M  V30 2225 O 202.03 1.78153 0.336343 0
M  V30 2226 C 202.078 1.71422 -3.17249 0
M  V30 2227 O 201.182 2.8183 -3.01074 0
M  V30 2228 H 200.523 0.245301 -0.617028 0
M  V30 2229 H 203.053 0.139826 -2.04122 0
M  V30 2230 H 203.063 2.10954 -3.49231 0
M  V30 2231 H 201.738 1.08284 -4.01556 0
M  V30 2232 H 200.315 2.45715 -2.80497 0
M  V30 2233 N 202.5 1.5196 0.417844 0
M  V30 2234 C 203.749 1.6482 1.16264 0
M  V30 2235 C 204.062 0.379886 1.91876 0
M  V30 2236 O 205.268 0.388154 2.68711 0
M  V30 2237 C 203.724 2.91161 2.1155 0
M  V30 2238 C 203.332 4.25068 1.41495 0
M  V30 2239 C 205.076 3.13383 2.86341 0
M  V30 2240 C 202.983 5.42541 2.35379 0
M  V30 2241 H 201.913 0.613954 0.437694 0
M  V30 2242 H 204.564 1.78442 0.427871 0
M  V30 2243 H 202.946 2.71218 2.88543 0
M  V30 2244 H 204.12 4.55463 0.699263 0
M  V30 2245 H 202.435 4.0888 0.787792 0
M  V30 2246 H 205.032 3.98324 3.5671 0
M  V30 2247 H 205.375 2.27256 3.48798 0
M  V30 2248 H 205.908 3.33757 2.1645 0
M  V30 2249 H 202.647 6.30987 1.77582 0
M  V30 2250 H 202.167 5.16497 3.04945 0
M  V30 2251 H 203.846 5.75272 2.96093 0
M  V30 2252 N 203.978 -0.674533 1.42435 0
M  V30 2253 C 204.926 -1.80934 1.46169 0
M  V30 2254 C 205.92 -1.66006 0.3374 0
M  V30 2255 O 207.126 -1.72611 0.510425 0
M  V30 2256 H 203.501 -0.596594 0.457798 0
M  V30 2257 H 205.472 -1.74903 2.41767 0
M  V30 2258 C 204.221 -3.19088 1.38123 0
M  V30 2259 H 203.544 -3.31203 2.23931 0
M  V30 2260 H 204.984 -3.9851 1.44797 0
M  V30 2261 C 203.443 -3.36763 0.0960517 0
M  V30 2262 O 203.973 -3.92581 -0.851073 0
M  V30 2263 N 202.179 -2.90597 0.0131186 0
M  V30 2264 H 201.726 -2.45359 0.784639 0
M  V30 2265 H 201.684 -3.028 -0.846133 0
M  V30 2266 N 205.456 -1.28612 -0.910864 0
M  V30 2267 C 206.404 -1.1265 -2.03501 0
M  V30 2268 C 207.398 -0.0450054 -1.6934 0
M  V30 2269 O 208.604 -0.203988 -1.7884 0
M  V30 2270 H 204.979 -0.347639 -0.666822 0
M  V30 2271 H 206.95 -2.07849 -2.14106 0
M  V30 2272 C 205.699 -0.808143 -3.38178 0
M  V30 2273 H 205.022 -1.63231 -3.6496 0
M  V30 2274 H 206.462 -0.736426 -4.17556 0
M  V30 2275 C 204.921 0.488226 -3.33344 0
M  V30 2276 O 205.451 1.51766 -3.71927 0
M  V30 2277 N 203.657 0.490009 -2.86439 0
M  V30 2278 H 203.204 -0.348161 -2.55236 0
M  V30 2279 H 203.162 1.35741 -2.83587 0
M  V30 2280 N 206.934 1.1197 -1.10907 0
M  V30 2281 C 208.35 1.35591 -0.841852 0
M  V30 2282 C 208.55 1.94233 0.536246 0
M  V30 2283 O 207.606 2.1717 1.28816 0
M  V30 2284 C 208.919 2.29284 -1.94549 0
M  V30 2285 C 210.467 2.42862 -1.97451 0
M  V30 2286 C 210.942 3.39873 -3.07002 0
M  V30 2287 N 212.433 3.47433 -3.06341 0
M  V30 2288 C 213.168 4.22421 -3.87748 0
M  V30 2289 N 212.664 5.00432 -4.79103 0
M  V30 2290 N 214.457 4.17876 -3.75946 0
M  V30 2291 H 206.608 0.722664 -1.99728 0
M  V30 2292 H 208.871 0.380635 -0.868229 0
M  V30 2293 H 208.577 1.93378 -2.93765 0
M  V30 2294 H 208.451 3.29452 -1.83688 0
M  V30 2295 H 210.838 2.78046 -0.988645 0
M  V30 2296 H 210.919 1.42566 -2.12388 0
M  V30 2297 H 210.563 3.05417 -4.05811 0
M  V30 2298 H 210.493 4.40011 -2.89306 0
M  V30 2299 H 212.984 2.91784 -2.40147 0
M  V30 2300 H 213.297 5.55002 -5.37766 0
M  V30 2301 H 211.642 4.99612 -4.83128 0
M  V30 2302 H 214.833 3.56016 -3.03924 0
M  V30 2303 H 215.006 4.76061 -4.39624 0
M  V30 2304 N 208.412 0.89855 1.29475 0
M  V30 2305 C 209.36 0.365253 2.29714 0
M  V30 2306 C 210.354 -0.534993 1.6073 0
M  V30 2307 O 211.56 -0.417921 1.75081 0
M  V30 2308 H 207.935 0.0994853 0.74539 0
M  V30 2309 H 209.906 1.22406 2.72138 0
M  V30 2310 C 208.655 -0.393159 3.4547 0
M  V30 2311 H 207.978 0.290332 3.98744 0
M  V30 2312 H 209.418 -0.731189 4.17648 0
M  V30 2313 C 207.877 -1.59539 2.9673 0
M  V30 2314 O 208.407 -2.69469 2.97908 0
M  V30 2315 N 206.613 -1.43716 2.52575 0
M  V30 2316 H 206.16 -0.542828 2.51816 0
M  V30 2317 H 206.118 -2.24288 2.20323 0
M  V30 2318 N 209.89 -1.43072 0.660911 0
M  V30 2319 C 211.139 -2.00942 0.174735 0
M  V30 2320 C 211.452 -1.52797 -1.22117 0
M  V30 2321 O 212.658 -2.02991 -1.80297 0
M  V30 2322 C 211.114 -3.58948 0.261559 0
M  V30 2323 C 210.722 -4.16085 1.66064 0
M  V30 2324 C 212.466 -4.24173 -0.166617 0
M  V30 2325 C 210.373 -5.6641 1.70098 0
M  V30 2326 H 209.303 -0.751483 0.0615631 0
M  V30 2327 H 211.954 -1.63955 0.824069 0
M  V30 2328 H 210.336 -3.93372 -0.455421 0
M  V30 2329 H 211.51 -3.93147 2.40359 0
M  V30 2330 H 209.825 -3.6326 2.03546 0
M  V30 2331 H 212.422 -5.34471 -0.156433 0
M  V30 2332 H 212.765 -3.98647 -1.19943 0
M  V30 2333 H 213.298 -3.94659 0.498875 0
M  V30 2334 H 210.037 -5.96715 2.71315 0
M  V30 2335 H 209.557 -5.91382 1.00139 0
M  V30 2336 H 211.236 -6.30585 1.44816 0
M  V30 2337 N 211.368 -0.403325 -1.52352 0
M  V30 2338 C 212.315 0.425011 -2.26853 0
M  V30 2339 C 213.285 1.04598 -1.29029 0
M  V30 2340 O 214.47 1.07135 -1.57882 0
M  V30 2341 C 211.61 1.53888 -3.08889 0
M  V30 2342 C 210.723 0.939396 -4.21663 0
M  V30 2343 C 209.858 2.02547 -4.91068 0
M  V30 2344 C 208.897 1.40263 -5.95813 0
M  V30 2345 N 208.034 2.4286 -6.58759 0
M  V30 2346 H 212.874 -0.21674 -2.97211 0
M  V30 2347 H 210.411 -0.118722 -1.4662 0
M  V30 2348 H 212.369 2.19558 -3.54753 0
M  V30 2349 H 210.999 2.15074 -2.40714 0
M  V30 2350 H 210.051 0.171898 -3.80011 0
M  V30 2351 H 211.363 0.44436 -4.96817 0
M  V30 2352 H 210.517 2.75958 -5.40308 0
M  V30 2353 H 209.256 2.55415 -4.15469 0
M  V30 2354 H 208.261 0.653833 -5.45898 0
M  V30 2355 H 209.486 0.881719 -6.73352 0
M  V30 2356 H 207.432 2.94871 -5.85992 0
M  V30 2357 H 207.349 1.98152 -7.2957 0
M  V30 2358 H 208.617 3.15858 -7.12639 0
M  V30 2359 N 212.846 1.57033 -0.133567 0
M  V30 2360 C 213.809 2.14897 0.796995 0
M  V30 2361 C 214.809 1.0874 1.18458 0
M  V30 2362 O 215.999 1.34446 1.1077 0
M  V30 2363 C 213.131 2.70112 2.07973 0
M  V30 2364 H 214.324 2.98457 0.293873 0
M  V30 2365 H 211.877 1.55871 0.115787 0
M  V30 2366 H 212.612 1.9018 2.62682 0
M  V30 2367 H 212.397 3.47764 1.81115 0
M  V30 2368 H 213.887 3.14738 2.74462 0
M  V30 2369 N 214.325 -0.140222 1.56975 0
M  V30 2370 C 215.553 -0.866437 1.87884 0
M  V30 2371 C 215.968 -1.74428 0.722517 0
M  V30 2372 O 215.325 -1.79891 -0.30749 0
M  V30 2373 C 215.376 -1.71753 3.18093 0
M  V30 2374 O 215.097 -0.875056 4.29272 0
M  V30 2375 C 216.598 -2.55074 3.62563 0
M  V30 2376 H 213.818 -0.25019 0.622612 0
M  V30 2377 H 216.362 -0.130977 2.0408 0
M  V30 2378 H 214.517 -2.40598 3.03631 0
M  V30 2379 H 214.931 -1.46002 5.03769 0
M  V30 2380 H 216.405 -3.10356 4.5649 0
M  V30 2381 H 216.882 -3.31434 2.88181 0
M  V30 2382 H 217.488 -1.91509 3.79743 0
M  V30 2383 N 215.803 -1.52179 -0.40978 0
M  V30 2384 C 217.031 -1.70054 -1.17853 0
M  V30 2385 C 217.446 -0.409735 -1.843 0
M  V30 2386 O 216.803 0.614183 -1.71855 0
M  V30 2387 C 216.854 -2.83568 -2.24213 0
M  V30 2388 O 216.575 -4.0765 -1.60478 0
M  V30 2389 C 218.076 -3.12947 -3.13973 0
M  V30 2390 H 215.296 -0.569917 -0.354169 0
M  V30 2391 H 217.84 -1.98734 -0.482198 0
M  V30 2392 H 215.995 -2.57409 -2.89516 0
M  V30 2393 H 216.409 -4.70899 -2.30986 0
M  V30 2394 H 217.883 -3.95889 -3.84677 0
M  V30 2395 H 218.36 -2.26472 -3.76307 0
M  V30 2396 H 218.966 -3.40868 -2.5434 0
M  V30 2397 N 217.281 0.66697 -1.42791 0
M  V30 2398 C 218.53 1.42278 -1.42968 0
M  V30 2399 C 218.843 1.9553 -0.0524489 0
M  V30 2400 O 220.049 2.71414 0.068363 0
M  V30 2401 C 218.505 2.57418 -2.51524 0
M  V30 2402 C 218.113 2.10832 -3.9529 0
M  V30 2403 C 219.857 3.34878 -2.60877 0
M  V30 2404 C 217.764 3.23101 -4.95338 0
M  V30 2405 H 216.694 0.534533 -0.531781 0
M  V30 2406 H 219.345 0.721302 -1.68729 0
M  V30 2407 H 217.727 3.29971 -2.18941 0
M  V30 2408 H 218.901 1.4538 -4.37266 0
M  V30 2409 H 217.216 1.46289 -3.89857 0
M  V30 2410 H 219.813 4.18505 -3.32802 0
M  V30 2411 H 220.156 3.81993 -1.6549 0
M  V30 2412 H 220.689 2.69398 -2.92693 0
M  V30 2413 H 217.428 2.80969 -5.9223 0
M  V30 2414 H 216.948 3.87309 -4.57987 0
M  V30 2415 H 218.627 3.88447 -5.17415 0
M  V30 2416 N 218.759 1.29093 0.90403 0
M  V30 2417 C 219.689 1.16401 2.02418 0
M  V30 2418 C 220.67 0.0593085 1.69997 0
M  V30 2419 O 221.855 0.238021 1.92736 0
M  V30 2420 C 218.985 0.835233 3.37107 0
M  V30 2421 C 217.939 1.89578 3.83724 0
M  V30 2422 C 217.265 1.42041 5.15489 0
M  V30 2423 C 218.565 3.30394 4.04521 0
M  V30 2424 H 220.259 2.10109 2.13295 0
M  V30 2425 H 217.805 1.01157 1.02486 0
M  V30 2426 H 219.758 0.733169 4.14973 0
M  V30 2427 H 218.482 -0.137543 3.2631 0
M  V30 2428 H 217.141 1.98715 3.08071 0
M  V30 2429 H 216.789 0.436426 5.01103 0
M  V30 2430 H 216.489 2.12964 5.4765 0
M  V30 2431 H 218.013 1.33176 5.959 0
M  V30 2432 H 219.427 3.24123 4.72882 0
M  V30 2433 H 217.824 3.99237 4.48029 0
M  V30 2434 H 218.894 3.73692 3.09002 0
M  V30 2435 N 220.237 -1.11381 1.11499 0
M  V30 2436 C 221.147 -2.21019 0.786628 0
M  V30 2437 C 222.163 -1.72597 -0.220507 0
M  V30 2438 O 223.339 -2.01321 -0.0565251 0
M  V30 2439 C 220.404 -3.459 0.235333 0
M  V30 2440 C 219.465 -4.09107 1.30115 0
M  V30 2441 C 218.698 -5.28027 0.776068 0
M  V30 2442 O 218.921 -5.6904 -0.393661 0
M  V30 2443 O 217.855 -5.81835 1.54114 0
M  V30 2444 H 221.681 -2.51521 1.70209 0
M  V30 2445 H 219.266 -1.19928 0.890928 0
M  V30 2446 H 221.148 -4.21346 -0.067715 0
M  V30 2447 H 219.823 -3.17049 -0.652828 0
M  V30 2448 H 218.73 -3.35391 1.65722 0
M  V30 2449 H 220.063 -4.42139 2.16273 0
M  V30 2450 N 221.715 -0.905404 -1.28997 0
M  V30 2451 C 222.647 -0.344748 -2.26592 0
M  V30 2452 C 223.66 0.512135 -1.54535 0
M  V30 2453 O 224.849 0.328368 -1.75454 0
M  V30 2454 C 221.949 0.526587 -3.34784 0
M  V30 2455 C 221.122 -0.305871 -4.36329 0
M  V30 2456 C 220.181 0.499209 -5.23827 0
M  V30 2457 O 219.207 -0.0853004 -5.69136 0
M  V30 2458 N 220.409 1.80408 -5.51755 0
M  V30 2459 H 223.174 -1.18359 -2.75338 0
M  V30 2460 H 220.735 -0.770481 -1.42391 0
M  V30 2461 H 222.727 1.07171 -3.90252 0
M  V30 2462 H 221.297 1.26613 -2.85811 0
M  V30 2463 H 220.517 -1.0324 -3.80441 0
M  V30 2464 H 221.805 -0.875773 -5.01206 0
M  V30 2465 H 221.203 2.3016 -5.16762 0
M  V30 2466 H 219.76 2.29621 -6.10014 0
M  V30 2467 N 223.193 1.4272 -0.668489 0
M  V30 2468 C 224.442 2.00846 -0.185389 0
M  V30 2469 C 224.755 1.53442 1.21305 0
M  V30 2470 O 225.961 2.03944 1.79218 0
M  V30 2471 C 224.417 3.58805 -0.280591 0
M  V30 2472 C 224.025 4.15198 -1.68268 0
M  V30 2473 C 225.769 4.24255 0.14412 0
M  V30 2474 C 223.676 5.655 -1.73099 0
M  V30 2475 H 222.606 0.751145 -0.0655475 0
M  V30 2476 H 225.257 1.63516 -0.832752 0
M  V30 2477 H 223.639 3.93608 0.434553 0
M  V30 2478 H 224.813 3.91866 -2.42441 0
M  V30 2479 H 223.128 3.62176 -2.05469 0
M  V30 2480 H 225.725 5.34547 0.128086 0
M  V30 2481 H 226.068 3.99277 1.17827 0
M  V30 2482 H 226.601 3.94389 -0.519798 0
M  V30 2483 H 223.34 5.95268 -2.74475 0
M  V30 2484 H 222.86 5.90842 -1.03274 0
M  V30 2485 H 224.539 6.29808 -1.48158 0
M  V30 2486 N 224.671 0.411399 1.52136 0
M  V30 2487 C 225.948 -0.222308 1.94333 0
M  V30 2488 C 226.328 -1.6242 1.34844 0
M  V30 2489 O 225.676 -2.22384 0.525145 0
M  V30 2490 C 225.886 -0.226345 3.48265 0
M  V30 2491 C 227.234 -0.444592 4.22266 0
M  V30 2492 O 228.258 -0.305602 3.54887 0
M  V30 2493 O 227.117 -0.718749 5.41753 0
M  V30 2494 H 224.211 -0.143907 0.814383 0
M  V30 2495 H 226.757 0.467506 1.63133 0
M  V30 2496 H 225.529 0.75475 3.83952 0
M  V30 2497 H 225.152 -0.960163 3.85832 0
M  V30 2498 N 226.149 -1.5696 0.141893 0
M  V30 2499 C 227.379 -2.00031 -0.516828 0
M  V30 2500 C 227.787 -1.02091 -1.59293 0
M  V30 2501 O 227.13 -0.00909657 -1.83698 0
M  V30 2502 C 227.192 -3.39534 -1.1814 0
M  V30 2503 C 226.856 -4.56313 -0.250513 0
M  V30 2504 C 227.853 -5.17295 0.519839 0
M  V30 2505 C 225.538 -5.02061 -0.154907 0
M  V30 2506 C 227.532 -6.2243 1.3733 0
M  V30 2507 C 225.219 -6.07053 0.702161 0
M  V30 2508 C 226.217 -6.67106 1.46487 0
M  V30 2509 O 225.905 -7.70066 2.30767 0
M  V30 2510 H 225.637 -0.661451 -0.139493 0
M  V30 2511 H 228.191 -2.04086 0.231926 0
M  V30 2512 H 226.421 -3.32302 -1.97769 0
M  V30 2513 H 228.11 -3.66745 -1.73933 0
M  V30 2514 H 228.876 -4.82852 0.45598 0
M  V30 2515 H 224.755 -4.5505 -0.7383 0
M  V30 2516 H 228.299 -6.69233 1.96909 0
M  V30 2517 H 224.196 -6.40923 0.76733 0
M  V30 2518 H 224.964 -7.87264 2.23959 0
M  V30 2519 N 227.627 0.131896 -1.57047 0
M  V30 2520 C 228.59 1.14638 -1.98471 0
M  V30 2521 C 229.59 1.35029 -0.873148 0
M  V30 2522 O 230.78 1.31764 -1.13946 0
M  V30 2523 C 227.912 2.50358 -2.31373 0
M  V30 2524 H 229.105 0.79064 -2.8929 0
M  V30 2525 H 226.658 0.375761 -1.51716 0
M  V30 2526 H 227.393 2.90876 -1.43393 0
M  V30 2527 H 227.178 2.36915 -3.12432 0
M  V30 2528 H 228.668 3.23395 -2.64207 0
M  V30 2529 N 229.106 1.52395 0.401703 0
M  V30 2530 C 230.334 1.70676 1.16949 0
M  V30 2531 C 230.749 0.419503 1.8408 0
M  V30 2532 O 230.106 -0.605061 1.72178 0
M  V30 2533 C 230.157 2.84753 2.22706 0
M  V30 2534 O 229.878 4.08495 1.58314 0
M  V30 2535 C 231.379 3.14608 3.12309 0
M  V30 2536 H 228.599 0.571787 0.351142 0
M  V30 2537 H 231.143 1.98987 0.471652 0
M  V30 2538 H 229.298 2.58941 2.88147 0
M  V30 2539 H 229.712 4.72117 2.28485 0
M  V30 2540 H 231.186 3.97923 3.82572 0
M  V30 2541 H 231.663 2.28464 3.75101 0
M  V30 2542 H 232.269 3.42212 2.52529 0
M  V30 2543 N 230.584 -0.659388 1.43143 0
M  V30 2544 C 231.809 -1.45221 1.48073 0
M  V30 2545 C 232.234 -1.87845 0.097995 0
M  V30 2546 O 231.592 -1.56985 -0.90694 0
M  V30 2547 C 231.64 -2.66748 2.42647 0
M  V30 2548 O 230.744 -3.65583 1.90848 0
M  V30 2549 H 230.085 -0.435669 0.501088 0
M  V30 2550 H 232.615 -0.807432 1.87994 0
M  V30 2551 H 232.625 -3.14637 2.59745 0
M  V30 2552 H 231.3 -2.35067 3.43098 0
M  V30 2553 H 229.877 -3.24693 1.83381 0
M  V30 2554 N 232.062 -1.29571 -0.897171 0
M  V30 2555 C 233.311 -1.1706 -1.64256 0
M  V30 2556 C 233.624 0.276476 -1.93636 0
M  V30 2557 O 234.83 0.52294 -2.66416 0
M  V30 2558 C 233.286 -2.0475 -2.95982 0
M  V30 2559 C 232.894 -3.54295 -2.74187 0
M  V30 2560 C 234.638 -2.0097 -3.73914 0
M  V30 2561 C 232.545 -4.34081 -4.01656 0
M  V30 2562 H 231.475 -0.43452 -0.616205 0
M  V30 2563 H 234.126 -1.54229 -0.994268 0
M  V30 2564 H 232.508 -1.60452 -3.62038 0
M  V30 2565 H 233.682 -4.06662 -2.1671 0
M  V30 2566 H 231.997 -3.59773 -2.09648 0
M  V30 2567 H 234.594 -2.57838 -4.68427 0
M  V30 2568 H 234.937 -0.990273 -4.0435 0
M  V30 2569 H 235.47 -2.43325 -3.14703 0
M  V30 2570 H 232.209 -5.36671 -3.76384 0
M  V30 2571 H 231.729 -3.86483 -4.58684 0
M  V30 2572 H 233.408 -4.44877 -4.69781 0
M  V30 2573 N 233.54 1.10788 -1.12088 0
M  V30 2574 C 234.788 1.8231 -0.872205 0
M  V30 2575 C 235.109 1.85419 0.603709 0
M  V30 2576 O 234.379 1.32963 1.43867 0
M  V30 2577 H 232.959 0.675137 -0.319686 0
M  V30 2578 H 235.621 1.34068 -1.41463 0
M  V30 2579 H 234.717 2.85955 -1.25045 0
M  V30 2580 N 235.018 0.912232 1.28515 0
M  V30 2581 C 235.948 0.416403 2.29757 0
M  V30 2582 C 236.929 -0.515194 1.6211 0
M  V30 2583 O 238.114 -0.423253 1.89532 0
M  V30 2584 C 235.244 -0.34572 3.45575 0
M  V30 2585 C 234.198 0.496599 4.25109 0
M  V30 2586 C 233.524 -0.393771 5.33248 0
M  V30 2587 C 234.824 1.75307 4.92001 0
M  V30 2588 H 236.518 1.26249 2.7148 0
M  V30 2589 H 234.064 0.608515 1.30511 0
M  V30 2590 H 236.017 -0.703422 4.15488 0
M  V30 2591 H 234.741 -1.2257 3.02728 0
M  V30 2592 H 233.4 0.8368 3.56922 0
M  V30 2593 H 233.048 -1.27225 4.86644 0
M  V30 2594 H 232.748 0.166209 5.87365 0
M  V30 2595 H 234.272 -0.747389 6.06009 0
M  V30 2596 H 235.686 1.46437 5.54283 0
M  V30 2597 H 234.083 2.25534 5.56106 0
M  V30 2598 H 235.153 2.48176 4.16577 0
M  V30 2599 N 236.496 -1.42363 0.676048 0
M  V30 2600 C 237.444 -2.32596 -0.0131507 0
M  V30 2601 C 238.438 -1.49891 -0.789238 0
M  V30 2602 O 239.644 -1.65955 -0.697061 0
M  V30 2603 H 236.019 -0.751647 -0.0230481 0
M  V30 2604 H 237.99 -2.88421 0.765243 0
M  V30 2605 C 236.739 -3.34479 -0.949702 0
M  V30 2606 H 236.062 -3.98158 -0.361938 0
M  V30 2607 H 237.502 -4.00199 -1.4006 0
M  V30 2608 C 235.961 -2.66838 -2.05667 0
M  V30 2609 O 236.491 -2.50124 -3.14326 0
M  V30 2610 N 234.697 -2.25843 -1.82875 0
M  V30 2611 H 234.244 -2.39637 -0.945085 0
M  V30 2612 H 234.202 -1.80918 -2.5713 0
M  V30 2613 N 237.974 -0.419461 -1.51915 0
M  V30 2614 C 239.22 0.153166 -2.02221 0
M  V30 2615 C 239.553 1.43907 -1.30401 0
M  V30 2616 O 238.828 1.90055 -0.413438 0
M  V30 2617 C 239.111 0.390291 -3.57979 0
M  V30 2618 C 238.964 -0.913014 -4.40436 0
M  V30 2619 C 240.283 1.16794 -4.2432 0
M  V30 2620 H 237.402 0.0541924 -0.735005 0
M  V30 2621 H 240.044 -0.554955 -1.81715 0
M  V30 2622 H 238.194 0.993491 -3.75582 0
M  V30 2623 H 239.866 -1.54882 -4.34522 0
M  V30 2624 H 238.109 -1.52168 -4.06236 0
M  V30 2625 H 238.78 -0.701361 -5.47526 0
M  V30 2626 H 241.256 0.657161 -4.10878 0
M  V30 2627 H 240.132 1.3026 -5.3322 0
M  V30 2628 H 240.393 2.19132 -3.83971 0
M  V30 2629 N 239.452 1.56882 -0.150215 0
M  V30 2630 C 240.399 2.16922 0.788244 0
M  V30 2631 C 241.369 1.10303 1.24187 0
M  V30 2632 O 242.554 1.38359 1.31383 0
M  V30 2633 C 239.694 2.79754 2.02068 0
M  V30 2634 C 238.807 4.00775 1.61257 0
M  V30 2635 C 237.942 4.51595 2.79705 0
M  V30 2636 C 236.981 5.65074 2.35282 0
M  V30 2637 N 236.118 6.10499 3.4675 0
M  V30 2638 H 240.958 2.96779 0.269444 0
M  V30 2639 H 238.495 1.46599 0.12128 0
M  V30 2640 H 240.453 3.14329 2.74323 0
M  V30 2641 H 239.083 2.02536 2.51354 0
M  V30 2642 H 238.135 3.72158 0.787553 0
M  V30 2643 H 239.447 4.82978 1.24633 0
M  V30 2644 H 238.601 4.88242 3.60145 0
M  V30 2645 H 237.34 3.68406 3.19576 0
M  V30 2646 H 236.345 5.28 1.53283 0
M  V30 2647 H 237.57 6.50052 1.96493 0
M  V30 2648 H 235.516 5.30243 3.86236 0
M  V30 2649 H 235.433 6.87637 3.14152 0
M  V30 2650 H 236.701 6.51791 4.27537 0
M  V30 2651 N 240.93 -0.123565 1.57115 0
M  V30 2652 C 242.176 -0.833386 1.84885 0
M  V30 2653 C 242.509 -1.79742 0.735292 0
M  V30 2654 O 241.784 -1.92764 -0.25925 0
M  V30 2655 C 242.067 -1.5873 3.23228 0
M  V30 2656 C 241.92 -0.643183 4.45178 0
M  V30 2657 C 243.239 -2.54453 3.59085 0
M  V30 2658 H 240.358 -0.301518 0.6725 0
M  V30 2659 H 243 -0.097778 1.89748 0
M  V30 2660 H 241.15 -2.21438 3.19214 0
M  V30 2661 H 242.822 -0.0253015 4.61293 0
M  V30 2662 H 241.065 0.0456139 4.33776 0
M  V30 2663 H 241.736 -1.20724 5.38637 0
M  V30 2664 H 244.212 -2.01853 3.63861 0
M  V30 2665 H 243.088 -3.04238 4.5687 0
M  V30 2666 H 243.349 -3.36906 2.86264 0
M  V30 2667 N 242.408 -1.52605 -0.393616 0
M  V30 2668 C 243.356 -1.77688 -1.50099 0
M  V30 2669 C 244.35 -0.644615 -1.56656 0
M  V30 2670 O 245.556 -0.826997 -1.59877 0
M  V30 2671 H 241.931 -0.562159 -0.499481 0
M  V30 2672 H 243.902 -2.7043 -1.26135 0
M  V30 2673 C 242.651 -1.95858 -2.87289 0
M  V30 2674 H 241.974 -2.8241 -2.82992 0
M  V30 2675 H 243.414 -2.174 -3.64024 0
M  V30 2676 C 241.873 -0.729848 -3.28899 0
M  V30 2677 O 242.403 0.0949217 -4.01588 0
M  V30 2678 N 240.609 -0.561283 -2.85128 0
M  V30 2679 H 240.156 -1.23357 -2.26143 0
M  V30 2680 H 240.114 0.2595 -3.13327 0
M  V30 2681 N 243.887 0.651787 -1.4349 0
M  V30 2682 C 245.133 1.41376 -1.45398 0
M  V30 2683 C 245.466 1.94041 -0.0784823 0
M  V30 2684 O 244.741 1.72379 0.900878 0
M  V30 2685 C 245.024 2.59414 -2.49752 0
M  V30 2686 C 244.877 2.12232 -3.96582 0
M  V30 2687 C 246.196 3.61626 -2.50827 0
M  V30 2688 H 243.315 0.512719 -0.529422 0
M  V30 2689 H 245.957 0.738796 -1.75048 0
M  V30 2690 H 244.107 3.16997 -2.246 0
M  V30 2691 H 245.779 1.59639 -4.32797 0
M  V30 2692 H 244.022 1.43592 -4.09346 0
M  V30 2693 H 244.693 2.9712 -4.65214 0
M  V30 2694 H 247.169 3.13805 -2.7325 0
M  V30 2695 H 246.045 4.41766 -3.25783 0
M  V30 2696 H 246.306 4.14314 -1.5426 0
M  V30 2697 N 245.365 1.30045 0.890287 0
M  V30 2698 C 246.611 1.18737 1.64406 0
M  V30 2699 C 246.944 -0.258525 1.92472 0
M  V30 2700 O 246.219 -1.18562 1.54186 0
M  V30 2701 C 246.502 2.01087 2.98724 0
M  V30 2702 C 246.355 3.53867 2.77665 0
M  V30 2703 C 247.674 1.84457 3.9958 0
M  V30 2704 H 244.793 0.432698 0.596608 0
M  V30 2705 H 247.435 1.5962 1.0306 0
M  V30 2706 H 245.585 1.66349 3.51084 0
M  V30 2707 H 247.257 3.98637 2.32133 0
M  V30 2708 H 245.5 3.78318 2.12269 0
M  V30 2709 H 246.171 4.06772 3.7315 0
M  V30 2710 H 248.647 2.14817 3.56361 0
M  V30 2711 H 247.523 2.44411 4.91482 0
M  V30 2712 H 247.784 0.802276 4.3476 0
M  V30 2713 N 246.843 -1.10192 1.12674 0
M  V30 2714 C 248.092 -1.81573 0.8783 0
M  V30 2715 C 248.405 -1.86249 -0.597557 0
M  V30 2716 O 249.611 -2.5386 -0.962681 0
M  V30 2717 C 248.067 -3.26149 1.52167 0
M  V30 2718 C 247.675 -3.29763 3.03249 0
M  V30 2719 C 249.419 -4.0234 1.3536 0
M  V30 2720 C 247.326 -4.68815 3.60508 0
M  V30 2721 H 246.256 -0.680394 0.324931 0
M  V30 2722 H 248.907 -1.23902 1.35353 0
M  V30 2723 H 247.289 -3.83832 0.974104 0
M  V30 2724 H 248.463 -2.8189 3.6452 0
M  V30 2725 H 246.778 -2.67059 3.19481 0
M  V30 2726 H 249.375 -5.05058 1.75559 0
M  V30 2727 H 249.718 -4.15235 0.297554 0
M  V30 2728 H 250.251 -3.51079 1.87052 0
M  V30 2729 H 246.99 -4.61121 4.65884 0
M  V30 2730 H 246.51 -5.17045 3.04014 0
M  V30 2731 H 248.189 -5.37785 3.59717 0
M  V30 2732 N 248.321 -0.919034 -1.28029 0
M  V30 2733 C 249.253 -0.368762 -2.26214 0
M  V30 2734 C 250.266 0.495716 -1.55069 0
M  V30 2735 O 251.455 0.30974 -1.75792 0
M  V30 2736 C 248.555 0.491049 -3.35324 0
M  V30 2737 C 247.728 -0.352133 -4.3598 0
M  V30 2738 C 246.787 0.443622 -5.24327 0
M  V30 2739 O 245.813 -0.14566 -5.69014 0
M  V30 2740 N 247.015 1.74545 -5.53637 0
M  V30 2741 H 249.78 -1.21273 -2.74068 0
M  V30 2742 H 247.341 -0.785541 -1.41566 0
M  V30 2743 H 249.333 1.03026 -3.91366 0
M  V30 2744 H 247.903 1.23574 -2.87138 0
M  V30 2745 H 247.123 -1.07269 -3.79324 0
M  V30 2746 H 248.411 -0.928883 -5.00249 0
M  V30 2747 H 247.809 2.24666 -5.19174 0
M  V30 2748 H 246.366 2.23138 -6.12416 0
M  V30 2749 N 249.799 1.42003 -0.683588 0
M  V30 2750 C 250.746 2.30798 -0.0107309 0
M  V30 2751 C 251.716 1.4645 0.783688 0
M  V30 2752 O 252.901 1.75263 0.754156 0
M  V30 2753 C 250.041 3.3238 0.928306 0
M  V30 2754 C 249.154 4.31814 0.126776 0
M  V30 2755 C 248.289 5.20468 1.06236 0
M  V30 2756 C 247.328 6.11577 0.253035 0
M  V30 2757 N 246.465 6.92754 1.14179 0
M  V30 2758 H 251.305 2.8778 -0.773727 0
M  V30 2759 H 248.842 1.41745 -0.393283 0
M  V30 2760 H 250.8 3.89813 1.48666 0
M  V30 2761 H 249.43 2.76976 1.65783 0
M  V30 2762 H 248.482 3.76427 -0.54833 0
M  V30 2763 H 249.794 4.96276 -0.501192 0
M  V30 2764 H 248.948 5.82677 1.69035 0
M  V30 2765 H 247.687 4.56204 1.7242 0
M  V30 2766 H 246.692 5.48428 -0.388108 0
M  V30 2767 H 247.917 6.77892 -0.404839 0
M  V30 2768 H 245.863 6.3111 1.78987 0
M  V30 2769 H 245.78 7.53855 0.569111 0
M  V30 2770 H 247.048 7.59441 1.75697 0
M  V30 2771 N 251.277 0.427512 1.51691 0
M  V30 2772 C 252.525 -0.141948 2.01601 0
M  V30 2773 C 252.846 -1.44067 1.31414 0
M  V30 2774 O 252.116 -1.90763 0.445658 0
M  V30 2775 H 250.696 -0.0554468 0.744939 0
M  V30 2776 H 253.358 0.567968 1.86441 0
M  V30 2777 H 252.454 -0.324913 3.10404 0
M  V30 2778 N 252.755 -1.56801 0.158532 0
M  V30 2779 C 254.004 -1.95665 -0.489702 0
M  V30 2780 C 254.317 -1.04654 -1.65248 0
M  V30 2781 O 255.523 -1.33146 -2.3661 0
M  V30 2782 C 253.979 -3.47874 -0.922582 0
M  V30 2783 C 253.587 -4.47489 0.213893 0
M  V30 2784 C 255.331 -3.95583 -1.53996 0
M  V30 2785 C 253.238 -5.90921 -0.237903 0
M  V30 2786 H 252.168 -0.730516 -0.186716 0
M  V30 2787 H 254.819 -1.81861 0.244722 0
M  V30 2788 H 253.201 -3.57051 -1.71261 0
M  V30 2789 H 254.375 -4.50017 0.991036 0
M  V30 2790 H 252.69 -4.09764 0.740407 0
M  V30 2791 H 255.287 -5.0019 -1.8898 0
M  V30 2792 H 255.63 -3.37789 -2.43319 0
M  V30 2793 H 256.163 -3.8937 -0.814611 0
M  V30 2794 H 252.902 -6.52559 0.620236 0
M  V30 2795 H 252.422 -5.91729 -0.980676 0
M  V30 2796 H 254.101 -6.43352 -0.686067 0
M  V30 2797 N 254.233 0.115231 -1.57178 0
M  V30 2798 C 255.181 1.16014 -2.01602 0
M  V30 2799 C 256.175 1.42653 -0.913587 0
M  V30 2800 O 257.381 1.42571 -1.09879 0
M  V30 2801 H 253.756 0.391252 -0.642204 0
M  V30 2802 H 255.727 0.758998 -2.88586 0
M  V30 2803 C 254.476 2.47767 -2.4394 0
M  V30 2804 H 253.799 2.28108 -3.28339 0
M  V30 2805 H 255.239 3.19432 -2.78818 0
M  V30 2806 C 253.698 3.10617 -1.30455 0
M  V30 2807 O 254.228 3.96846 -0.622585 0
M  V30 2808 N 252.434 2.70553 -1.06064 0
M  V30 2809 H 251.981 2.00527 -1.61699 0
M  V30 2810 H 251.939 3.12934 -0.303284 0
M  V30 2811 N 255.711 1.52812 0.385517 0
M  V30 2812 C 256.988 1.5861 1.14465 0
M  V30 2813 C 257.368 0.381402 2.07626 0
M  V30 2814 O 256.716 -0.629999 2.19643 0
M  V30 2815 C 256.926 2.92664 1.90128 0
M  V30 2816 C 258.274 3.46526 2.45367 0
M  V30 2817 O 259.298 2.94562 2.0028 0
M  V30 2818 O 258.157 4.37323 3.27736 0
M  V30 2819 H 255.251 0.639855 0.523941 0
M  V30 2820 H 257.797 1.65149 0.390389 0
M  V30 2821 H 256.569 3.71788 1.22022 0
M  V30 2822 H 256.192 2.89527 2.72507 0
M  V30 2823 N 257.189 -0.644168 1.43834 0
M  V30 2824 C 258.466 -1.40188 1.36406 0
M  V30 2825 C 258.846 -2.11094 0.0163124 0
M  V30 2826 O 258.194 -2.05426 -1.00062 0
M  V30 2827 C 258.404 -2.3791 2.55343 0
M  V30 2828 C 259.752 -3.01637 2.98832 0
M  V30 2829 O 260.776 -2.48237 2.55455 0
M  V30 2830 O 259.635 -3.98477 3.74003 0
M  V30 2831 H 256.729 -0.626773 0.539523 0
M  V30 2832 H 259.275 -0.670317 1.559 0
M  V30 2833 H 258.047 -1.84525 3.4506 0
M  V30 2834 H 257.67 -3.18503 2.37995 0
M  V30 2835 N 258.668 -1.30515 -0.883378 0
M  V30 2836 C 259.6 -1.12846 -1.99496 0
M  V30 2837 C 260.613 -0.0712571 -1.62644 0
M  V30 2838 O 261.802 -0.317432 -1.75655 0
M  V30 2839 C 258.902 -0.699123 -3.3161 0
M  V30 2840 C 258.075 -1.83842 -3.96889 0
M  V30 2841 C 257.134 -1.39737 -5.07307 0
M  V30 2842 O 256.16 -2.10485 -5.28852 0
M  V30 2843 N 257.362 -0.277279 -5.79837 0
M  V30 2844 H 260.127 -2.08585 -2.15203 0
M  V30 2845 H 257.688 -1.22672 -1.05656 0
M  V30 2846 H 259.68 -0.387044 -4.02845 0
M  V30 2847 H 258.25 0.166276 -3.12157 0
M  V30 2848 H 257.47 -2.31853 -3.18807 0
M  V30 2849 H 258.758 -2.60187 -4.37241 0
M  V30 2850 H 258.156 0.3122 -5.64838 0
M  V30 2851 H 256.713 -0.0246623 -6.51795 0
M  V30 2852 N 260.146 1.09593 -1.13257 0
M  V30 2853 C 261.395 1.81105 -0.887917 0
M  V30 2854 C 261.708 1.86563 0.587672 0
M  V30 2855 O 262.914 2.54367 0.949204 0
M  V30 2856 C 261.37 3.25338 -1.53895 0
M  V30 2857 C 260.978 3.28151 -3.04994 0
M  V30 2858 C 262.722 4.01617 -1.37492 0
M  V30 2859 C 260.629 4.66897 -3.6299 0
M  V30 2860 H 259.559 0.678661 -0.328534 0
M  V30 2861 H 262.21 1.23183 -1.36008 0
M  V30 2862 H 260.592 3.8331 -0.994446 0
M  V30 2863 H 261.766 2.79953 -3.66009 0
M  V30 2864 H 260.081 2.65361 -3.20893 0
M  V30 2865 H 262.678 5.04119 -1.78235 0
M  V30 2866 H 263.021 4.15072 -0.31957 0
M  V30 2867 H 263.554 3.50082 -1.88912 0
M  V30 2868 H 260.293 4.58643 -4.68323 0
M  V30 2869 H 259.813 5.15426 -3.06752 0
M  V30 2870 H 261.492 5.3587 -3.62563 0
M  V30 2871 N 261.624 0.925811 1.2754 0
M  V30 2872 C 262.873 0.561084 1.93739 0
M  V30 2873 C 263.186 -0.901685 1.73577 0
M  V30 2874 O 264.392 -1.37511 2.34101 0
M  V30 2875 C 262.848 0.952668 3.47062 0
M  V30 2876 C 262.456 2.43599 3.75983 0
M  V30 2877 C 264.2 0.659103 4.19352 0
M  V30 2878 C 262.107 2.76707 5.22673 0
M  V30 2879 H 261.037 0.206122 0.725279 0
M  V30 2880 H 263.688 1.12637 1.44863 0
M  V30 2881 H 262.07 0.316053 3.94737 0
M  V30 2882 H 263.244 3.12035 3.39073 0
M  V30 2883 H 261.559 2.70125 3.16893 0
M  V30 2884 H 264.156 0.882985 5.27359 0
M  V30 2885 H 264.499 -0.403607 4.14339 0
M  V30 2886 H 265.032 1.25473 3.77494 0
M  V30 2887 H 261.771 3.8188 5.32774 0
M  V30 2888 H 261.291 2.12919 5.60737 0
M  V30 2889 H 262.97 2.6435 5.90532 0
M  V30 2890 N 263.102 -1.41638 0.69111 0
M  V30 2891 C 264.513 -1.84346 0.295517 0
M  V30 2892 C 264.864 -1.57833 -1.16547 0
M  V30 2893 O 263.989 -1.04648 -1.89414 0
M  V30 2894 C 264.584 -3.34636 0.529575 0
M  V30 2895 C 263.143 -3.7593 0.187944 0
M  V30 2896 C 262.29 -2.65082 0.814052 0
M  V30 2897 H 265.241 -1.31253 0.892092 0
M  V30 2898 H 265.262 -3.79903 -0.213148 0
M  V30 2899 H 264.774 -3.53901 1.59297 0
M  V30 2900 H 262.875 -3.62268 -0.871367 0
M  V30 2901 H 262.988 -4.74808 0.63985 0
M  V30 2902 H 261.352 -2.53528 0.244017 0
M  V30 2903 H 262.135 -2.87167 1.88123 0
M  V30 2904 N 264.58 -0.43555 -1.51462 0
M  V30 2905 C 265.513 0.421989 -2.24264 0
M  V30 2906 C 266.491 1.02619 -1.26127 0
M  V30 2907 O 267.675 1.069 -1.55257 0
M  V30 2908 C 264.802 1.588 -2.99166 0
M  V30 2909 C 263.848 1.10465 -4.11946 0
M  V30 2910 S 264.681 0.048146 -5.35478 0
M  V30 2911 C 265.837 1.21887 -6.13917 0
M  V30 2912 H 266.07 -0.196102 -2.96653 0
M  V30 2913 H 263.603 -0.220054 -1.52824 0
M  V30 2914 H 265.561 2.25647 -3.42919 0
M  V30 2915 H 264.222 2.1775 -2.26371 0
M  V30 2916 H 263.415 1.97654 -4.63626 0
M  V30 2917 H 263.017 0.51445 -3.70445 0
M  V30 2918 H 265.309 2.13756 -6.42895 0
M  V30 2919 H 266.252 0.742076 -7.04201 0
M  V30 2920 H 266.66 1.45663 -5.45383 0
M  V30 2921 N 266.058 1.56714 -0.166846 0
M  V30 2922 C 266.988 2.20754 0.760913 0
M  V30 2923 C 267.969 1.16178 1.24244 0
M  V30 2924 O 269.154 1.44592 1.29641 0
M  V30 2925 C 266.284 2.84478 1.99223 0
M  V30 2926 C 265.238 3.95053 1.64672 0
M  V30 2927 C 264.564 4.45805 2.95232 0
M  V30 2928 C 265.864 5.14865 0.878155 0
M  V30 2929 H 267.558 2.98537 0.22713 0
M  V30 2930 H 265.104 1.43596 0.107805 0
M  V30 2931 H 267.057 3.27951 2.64624 0
M  V30 2932 H 265.781 2.04056 2.55007 0
M  V30 2933 H 264.44 3.52228 1.01641 0
M  V30 2934 H 264.088 3.62181 3.49047 0
M  V30 2935 H 263.788 5.204 2.7287 0
M  V30 2936 H 265.312 4.91962 3.6167 0
M  V30 2937 H 266.726 5.55059 1.43466 0
M  V30 2938 H 265.123 5.95348 0.753738 0
M  V30 2939 H 266.193 4.84735 -0.126377 0
M  V30 2940 N 267.536 -0.106894 1.57237 0
M  V30 2941 C 268.446 -1.14911 2.0453 0
M  V30 2942 C 269.462 -1.44592 0.96795 0
M  V30 2943 O 270.638 -1.55468 1.2803 0
M  V30 2944 C 267.703 -2.45272 2.45036 0
M  V30 2945 C 266.764 -2.22879 3.66911 0
M  V30 2946 C 265.997 -3.47024 4.05475 0
M  V30 2947 O 266.22 -4.54804 3.44252 0
M  V30 2948 O 265.154 -3.3731 4.98504 0
M  V30 2949 H 268.98 -0.777461 2.9358 0
M  V30 2950 H 266.565 -0.318563 1.45964 0
M  V30 2951 H 268.447 -3.22055 2.71769 0
M  V30 2952 H 267.122 -2.81886 1.59129 0
M  V30 2953 H 266.029 -1.43915 3.45311 0
M  V30 2954 H 267.362 -1.91163 4.53561 0
M  V30 2955 N 269.014 -1.53014 -0.377408 0
M  V30 2956 C 270.244 -1.72265 -1.14054 0
M  V30 2957 C 270.652 -0.44601 -1.83868 0
M  V30 2958 O 269.995 0.590095 -1.73964 0
M  V30 2959 C 270.057 -2.82492 -2.22348 0
M  V30 2960 C 269.721 -4.23233 -1.72402 0
M  V30 2961 C 270.718 -5.05992 -1.19448 0
M  V30 2962 C 268.403 -4.696 -1.78273 0
M  V30 2963 C 270.397 -6.33203 -0.730268 0
M  V30 2964 C 268.084 -5.96792 -1.31464 0
M  V30 2965 C 269.082 -6.78424 -0.789297 0
M  V30 2966 O 268.77 -8.0323 -0.328077 0
M  V30 2967 H 268.502 -0.579873 -0.347453 0
M  V30 2968 H 271.056 -2.00502 -0.445882 0
M  V30 2969 H 269.286 -2.49702 -2.95272 0
M  V30 2970 H 270.975 -2.90034 -2.83963 0
M  V30 2971 H 271.741 -4.71349 -1.14259 0
M  V30 2972 H 267.62 -4.06142 -2.18106 0
M  V30 2973 H 271.164 -6.96868 -0.319542 0
M  V30 2974 H 267.061 -6.30937 -1.36342 0
M  V30 2975 H 267.829 -8.1727 -0.448493 0
M  V30 2976 N 270.492 0.636531 -1.44174 0
M  V30 2977 C 271.739 1.39619 -1.46672 0
M  V30 2978 C 272.067 1.94257 -0.0972691 0
M  V30 2979 O 271.322 1.73768 0.900175 0
M  V30 2980 C 271.621 2.58309 -2.47005 0
M  V30 2981 C 271.287 2.21992 -3.92467 0
M  V30 2982 C 269.949 2.118 -4.32081 0
M  V30 2983 C 272.301 1.9321 -4.84065 0
M  V30 2984 C 269.629 1.71007 -5.61225 0
M  V30 2985 C 271.981 1.53911 -6.13591 0
M  V30 2986 C 270.645 1.42257 -6.52165 0
M  V30 2987 H 269.915 0.510902 -0.536712 0
M  V30 2988 H 272.562 0.722328 -1.77355 0
M  V30 2989 H 270.867 3.30903 -2.09786 0
M  V30 2990 H 272.564 3.16533 -2.46186 0
M  V30 2991 H 269.154 2.30841 -3.61124 0
M  V30 2992 H 273.338 1.99997 -4.54219 0
M  V30 2993 H 268.594 1.60583 -5.89935 0
M  V30 2994 H 272.768 1.30677 -6.8403 0
M  V30 2995 H 270.395 1.10419 -7.52138 0
M  V30 2996 N 271.97 1.30982 0.876444 0
M  V30 2997 C 272.917 1.18085 1.98304 0
M  V30 2998 C 273.887 0.0682263 1.6596 0
M  V30 2999 O 275.072 0.239937 1.89285 0
M  V30 3000 C 272.212 0.887475 3.33493 0
M  V30 3001 C 271.325 2.08281 3.78475 0
M  V30 3002 C 270.46 1.72678 5.0235 0
M  V30 3003 C 269.499 2.88657 5.39762 0
M  V30 3004 N 268.636 2.53292 6.54819 0
M  V30 3005 H 273.476 2.1275 2.08666 0
M  V30 3006 H 271.013 1.05839 1.02159 0
M  V30 3007 H 272.971 0.697961 4.1132 0
M  V30 3008 H 271.601 -0.022315 3.22792 0
M  V30 3009 H 270.653 2.3833 2.96484 0
M  V30 3010 H 271.965 2.95108 4.02135 0
M  V30 3011 H 271.119 1.50151 5.87826 0
M  V30 3012 H 269.858 0.830327 4.8058 0
M  V30 3013 H 268.863 3.1184 4.52809 0
M  V30 3014 H 270.088 3.79002 5.63502 0
M  V30 3015 H 268.034 1.66163 6.34607 0
M  V30 3016 H 267.951 3.3365 6.7839 0
M  V30 3017 H 269.219 2.34143 7.43503 0
M  V30 3018 N 273.449 -1.08991 1.13837 0
M  V30 3019 C 274.726 -1.77863 0.813876 0
M  V30 3020 C 275.106 -1.99375 -0.693746 0
M  V30 3021 O 274.454 -1.59875 -1.63255 0
M  V30 3022 C 274.664 -3.0986 1.60586 0
M  V30 3023 C 276.012 -3.84493 1.8014 0
M  V30 3024 O 277.036 -3.19624 1.57222 0
M  V30 3025 O 275.895 -5.00957 2.18413 0
M  V30 3026 H 272.989 -0.771589 0.297624 0
M  V30 3027 H 275.535 -1.15507 1.24323 0
M  V30 3028 H 274.307 -2.89715 2.63022 0
M  V30 3029 H 273.93 -3.79942 1.17173 0
M  V30 3030 N 274.927 -0.932562 -1.27047 0
M  V30 3031 C 275.874 -0.434072 -2.26681 0
M  V30 3032 C 276.844 0.501639 -1.58344 0
M  V30 3033 O 278.029 0.419734 -1.86126 0
M  V30 3034 C 275.169 0.30261 -3.43771 0
M  V30 3035 C 274.282 -0.667774 -4.26808 0
M  V30 3036 C 273.417 0.0892393 -5.31125 0
M  V30 3037 C 272.456 -0.873532 -6.05835 0
M  V30 3038 N 271.593 -0.148832 -7.01942 0
M  V30 3039 H 276.433 -1.28868 -2.68695 0
M  V30 3040 H 273.97 -0.646713 -1.32121 0
M  V30 3041 H 275.928 0.746092 -4.10474 0
M  V30 3042 H 274.558 1.12142 -3.02695 0
M  V30 3043 H 273.61 -1.22978 -3.59973 0
M  V30 3044 H 274.922 -1.40337 -4.78651 0
M  V30 3045 H 274.076 0.592409 -6.03801 0
M  V30 3046 H 272.815 0.85777 -4.80097 0
M  V30 3047 H 271.82 -1.38791 -5.31994 0
M  V30 3048 H 273.045 -1.64193 -6.58952 0
M  V30 3049 H 270.991 0.601365 -6.53238 0
M  V30 3050 H 270.908 -0.82391 -7.51497 0
M  V30 3051 H 272.176 0.333527 -7.78786 0
M  V30 3052 N 276.405 1.4127 -0.698611 0
M  V30 3053 C 277.355 2.27997 -0.0119836 0
M  V30 3054 C 278.339 1.42363 0.749765 0
M  V30 3055 O 279.531 1.65607 0.624758 0
M  V30 3056 C 276.66 3.30702 0.921458 0
M  V30 3057 C 275.746 4.23814 0.155796 0
M  V30 3058 N 276.137 4.98572 -0.852015 0
M  V30 3059 C 274.435 4.44284 0.390836 0
M  V30 3060 C 275.136 5.66744 -1.3106 0
M  V30 3061 N 274.112 5.39867 -0.635944 0
M  V30 3062 H 277.914 2.83232 -0.784649 0
M  V30 3063 H 275.428 1.53518 -0.529711 0
M  V30 3064 H 277.425 3.91661 1.42854 0
M  V30 3065 H 276.085 2.77028 1.69369 0
M  V30 3066 H 277.096 5.03024 -1.23235 0
M  V30 3067 H 273.773 4.01614 1.14071 0
M  V30 3068 H 275.163 6.36672 -2.14707 0
M  V30 3069 N 277.883 0.443576 1.51229 0
M  V30 3070 C 279.132 -0.122332 2.01329 0
M  V30 3071 C 279.445 -1.43237 1.33201 0
M  V30 3072 O 280.651 -2.0816 1.74304 0
M  V30 3073 C 279.107 -0.268551 3.58897 0
M  V30 3074 C 278.715 1.03142 4.35965 0
M  V30 3075 C 280.459 -0.787894 4.17124 0
M  V30 3076 C 278.366 0.850504 5.85252 0
M  V30 3077 H 277.296 -0.0494929 0.752374 0
M  V30 3078 H 279.947 0.574289 1.74282 0
M  V30 3079 H 278.329 -1.02832 3.82415 0
M  V30 3080 H 279.503 1.80001 4.24189 0
M  V30 3081 H 277.818 1.47977 3.89219 0
M  V30 3082 H 280.415 -0.939841 5.26375 0
M  V30 3083 H 280.758 -1.77201 3.76703 0
M  V30 3084 H 281.291 -0.0862669 3.97706 0
M  V30 3085 H 278.03 1.80718 6.30096 0
M  V30 3086 H 277.55 0.121825 5.99676 0
M  V30 3087 H 279.229 0.506163 6.45017 0
M  V30 3088 N 279.361 -1.56624 0.175154 0
M  V30 3089 C 280.271 -2.21741 -0.766042 0
M  V30 3090 C 281.287 -1.21023 -1.25018 0
M  V30 3091 O 282.463 -1.53697 -1.3015 0
M  V30 3092 C 279.528 -2.84839 -1.97655 0
M  V30 3093 C 278.589 -4.00769 -1.53892 0
M  V30 3094 C 277.822 -4.60849 -2.69173 0
M  V30 3095 O 278.045 -4.19823 -3.86141 0
M  V30 3096 O 276.979 -5.50655 -2.43028 0
M  V30 3097 H 280.805 -3.02738 -0.241585 0
M  V30 3098 H 278.39 -1.49305 -0.053222 0
M  V30 3099 H 280.272 -3.24834 -2.68442 0
M  V30 3100 H 278.947 -2.06836 -2.48999 0
M  V30 3101 H 277.854 -3.65436 -0.80044 0
M  V30 3102 H 279.187 -4.80376 -1.07236 0
M  V30 3103 N 280.839 0.0985539 -1.57292 0
M  V30 3104 C 282.088 0.801358 -1.85098 0
M  V30 3105 C 282.401 1.80066 -0.763902 0
M  V30 3106 O 283.607 2.55112 -0.928981 0
M  V30 3107 C 282.063 1.47599 -3.28242 0
M  V30 3108 C 281.671 0.516624 -4.45011 0
M  V30 3109 C 283.415 2.16272 -3.65276 0
M  V30 3110 C 281.322 1.19564 -5.79188 0
M  V30 3111 H 280.252 0.303022 -0.69043 0
M  V30 3112 H 282.903 0.0542623 -1.8342 0
M  V30 3113 H 281.285 2.27042 -3.2445 0
M  V30 3114 H 282.459 -0.246065 -4.60143 0
M  V30 3115 H 280.774 -0.064227 -4.1635 0
M  V30 3116 H 283.371 2.67802 -4.62803 0
M  V30 3117 H 283.714 2.95009 -2.93727 0
M  V30 3118 H 284.247 1.43693 -3.70941 0
M  V30 3119 H 280.986 0.449157 -6.53959 0
M  V30 3120 H 280.506 1.92984 -5.67906 0
M  V30 3121 H 282.185 1.7231 -6.23633 0
M  V30 3122 N 282.317 1.53212 0.369288 0
M  V30 3123 C 283.733 1.42902 0.710712 0
M  V30 3124 C 283.933 0.565135 1.93413 0
M  V30 3125 O 282.989 0.0461484 2.52458 0
M  V30 3126 C 284.302 2.86042 0.927382 0
M  V30 3127 C 285.85 2.9565 1.02762 0
M  V30 3128 C 286.325 4.39843 1.27679 0
M  V30 3129 N 287.816 4.43256 1.34457 0
M  V30 3130 C 288.551 5.51929 1.55439 0
M  V30 3131 N 288.047 6.70655 1.73762 0
M  V30 3132 N 289.84 5.39502 1.57779 0
M  V30 3133 H 281.991 2.07888 -0.435457 0
M  V30 3134 H 284.254 0.938661 -0.132739 0
M  V30 3135 H 283.96 3.51557 0.100287 0
M  V30 3136 H 283.834 3.29472 1.83653 0
M  V30 3137 H 286.221 2.30291 1.84527 0
M  V30 3138 H 286.302 2.5562 0.0959504 0
M  V30 3139 H 285.946 5.05774 0.464175 0
M  V30 3140 H 285.876 4.77443 2.22162 0
M  V30 3141 H 288.367 3.5769 1.21926 0
M  V30 3142 H 288.68 7.49248 1.89335 0
M  V30 3143 H 287.025 6.73648 1.70948 0
M  V30 3144 H 290.216 4.45713 1.43029 0
M  V30 3145 H 290.389 6.2426 1.7379 0
M  V30 3146 N 283.795 -0.628877 1.44509 0
M  V30 3147 C 285.042 -1.38839 1.47411 0
M  V30 3148 C 285.37 -1.94202 0.10757 0
M  V30 3149 O 284.625 -1.74243 -0.890947 0
M  V30 3150 C 284.924 -2.56995 2.48371 0
M  V30 3151 C 284.59 -2.19908 3.93639 0
M  V30 3152 C 283.252 -2.09506 4.33198 0
M  V30 3153 C 285.604 -1.9064 4.85083 0
M  V30 3154 C 282.932 -1.68028 5.62124 0
M  V30 3155 C 285.284 -1.50655 6.14399 0
M  V30 3156 C 283.948 -1.38796 6.5291 0
M  V30 3157 H 283.218 -0.508048 0.539414 0
M  V30 3158 H 285.865 -0.712913 1.77735 0
M  V30 3159 H 284.17 -3.29786 2.11538 0
M  V30 3160 H 285.867 -3.15223 2.47861 0
M  V30 3161 H 282.457 -2.28922 3.62343 0
M  V30 3162 H 286.641 -1.97585 4.55273 0
M  V30 3163 H 281.897 -1.57452 5.90778 0
M  V30 3164 H 286.071 -1.27048 6.84713 0
M  V30 3165 H 283.698 -1.06429 7.52713 0
M  V30 3166 N 285.273 -1.31445 -0.869486 0
M  V30 3167 C 286.522 -1.20517 -1.61736 0
M  V30 3168 C 286.835 0.235341 -1.94179 0
M  V30 3169 O 288.041 0.466312 -2.67465 0
M  V30 3170 C 286.497 -2.10982 -2.91573 0
M  V30 3171 C 286.105 -3.60032 -2.66611 0
M  V30 3172 C 287.849 -2.08856 -3.69567 0
M  V30 3173 C 285.756 -4.42503 -3.92358 0
M  V30 3174 H 284.686 -0.447493 -0.606849 0
M  V30 3175 H 287.337 -1.56303 -0.96133 0
M  V30 3176 H 285.719 -1.68095 -3.58553 0
M  V30 3177 H 286.893 -4.11167 -2.08035 0
M  V30 3178 H 285.208 -3.64139 -2.0197 0
M  V30 3179 H 287.805 -2.67716 -4.62852 0
M  V30 3180 H 288.148 -1.07582 -4.02159 0
M  V30 3181 H 288.681 -2.49945 -3.09471 0
M  V30 3182 H 285.42 -5.44533 -3.64916 0
M  V30 3183 H 284.94 -3.96125 -4.50383 0
M  V30 3184 H 286.619 -4.54741 -4.60238 0
M  V30 3185 N 286.751 1.08385 -1.14413 0
M  V30 3186 C 287.661 2.18856 -0.844951 0
M  V30 3187 C 288.677 1.73121 0.174668 0
M  V30 3188 O 289.853 2.014 0.00312857 0
M  V30 3189 C 286.918 3.45155 -0.32696 0
M  V30 3190 C 285.979 4.05513 -1.40916 0
M  V30 3191 C 285.212 5.25784 -0.915793 0
M  V30 3192 O 285.435 5.69884 0.242651 0
M  V30 3193 O 284.369 5.77545 -1.69487 0
M  V30 3194 H 288.195 2.46919 -1.76818 0
M  V30 3195 H 285.78 1.17524 -0.922411 0
M  V30 3196 H 287.662 4.21377 -0.0440211 0
M  V30 3197 H 286.337 3.18668 0.568539 0
M  V30 3198 H 285.244 3.30879 -1.74556 0
M  V30 3199 H 286.577 4.3625 -2.27919 0
M  V30 3200 N 288.23 0.939286 1.26551 0
M  V30 3201 C 289.477 0.585847 1.9384 0
M  V30 3202 C 289.805 -0.874784 1.73718 0
M  V30 3203 O 289.06 -1.64092 1.06642 0
M  V30 3204 C 289.359 0.872106 3.46596 0
M  V30 3205 C 289.025 2.31632 3.86856 0
M  V30 3206 C 287.687 2.71111 3.97558 0
M  V30 3207 C 290.039 3.25494 4.07066 0
M  V30 3208 C 287.367 4.03553 4.25866 0
M  V30 3209 C 289.719 4.57531 4.36862 0
M  V30 3210 C 288.383 4.96828 4.45778 0
M  V30 3211 H 287.653 0.214377 0.709312 0
M  V30 3212 H 290.3 1.18544 1.50398 0
M  V30 3213 H 288.605 0.18996 3.91339 0
M  V30 3214 H 290.302 0.577442 3.96821 0
M  V30 3215 H 286.892 2.00008 3.79071 0
M  V30 3216 H 291.076 2.9619 3.98227 0
M  V30 3217 H 286.332 4.33665 4.30981 0
M  V30 3218 H 290.506 5.30254 4.51446 0
M  V30 3219 H 288.133 5.99482 4.67468 0
M  V30 3220 N 289.708 -1.40897 0.706093 0
M  V30 3221 C 290.641 -2.282 -0.00328781 0
M  V30 3222 C 291.619 -1.42816 -0.77732 0
M  V30 3223 O 292.803 -1.72237 -0.765944 0
M  V30 3224 C 289.93 -3.23226 -1.01205 0
M  V30 3225 C 288.976 -4.25222 -0.329955 0
M  V30 3226 S 289.809 -5.27269 0.935298 0
M  V30 3227 C 290.965 -6.25859 -0.0716061 0
M  V30 3228 H 291.198 -2.88016 0.737143 0
M  V30 3229 H 288.731 -1.46191 0.496756 0
M  V30 3230 H 290.689 -3.78503 -1.58888 0
M  V30 3231 H 289.35 -2.62485 -1.72513 0
M  V30 3232 H 288.543 -4.92023 -1.09221 0
M  V30 3233 H 288.145 -3.73595 0.174069 0
M  V30 3234 H 290.437 -6.71204 -0.921521 0
M  V30 3235 H 291.38 -7.0586 0.562765 0
M  V30 3236 H 291.788 -5.62852 -0.431088 0
M  V30 3237 N 291.186 -0.45159 -1.50991 0
M  V30 3238 C 292.463 0.170707 -1.94854 0
M  V30 3239 C 292.843 1.58788 -1.39103 0
M  V30 3240 O 292.191 2.20913 -0.583921 0
M  V30 3241 C 292.401 0.133929 -3.48743 0
M  V30 3242 C 293.749 0.33248 -4.23296 0
M  V30 3243 O 294.773 0.211403 -3.55572 0
M  V30 3244 O 293.632 0.57486 -5.43468 0
M  V30 3245 H 290.726 0.122264 -0.817912 0
M  V30 3246 H 293.272 -0.510594 -1.61836 0
M  V30 3247 H 292.044 -0.856283 -3.81816 0
M  V30 3248 H 291.667 0.857529 -3.88242 0
M  V30 3249 N 292.664 1.56529 -0.183458 0
M  V30 3250 C 293.91 1.97537 0.459036 0
M  V30 3251 C 294.243 1.06989 1.62071 0
M  V30 3252 O 293.518 0.11948 1.94133 0
M  V30 3253 C 293.801 3.47874 0.930368 0
M  V30 3254 C 293.654 4.492 -0.232317 0
M  V30 3255 C 294.973 4.01612 1.79989 0
M  V30 3256 H 292.092 0.718204 0.165383 0
M  V30 3257 H 294.734 1.88042 -0.272038 0
M  V30 3258 H 292.884 3.56095 1.55333 0
M  V30 3259 H 294.556 4.53027 -0.86972 0
M  V30 3260 H 292.799 4.24657 -0.885928 0
M  V30 3261 H 293.47 5.51823 0.139796 0
M  V30 3262 H 295.946 3.96097 1.27461 0
M  V30 3263 H 294.822 5.07195 2.09867 0
M  V30 3264 H 295.083 3.46163 2.74998 0
M  V30 3265 N 294.142 -0.090211 1.57342 0
M  V30 3266 C 295.39 -0.791241 1.85967 0
M  V30 3267 C 295.711 -1.7903 0.772859 0
M  V30 3268 O 294.981 -1.94872 -0.200398 0
M  V30 3269 H 293.561 -0.295205 0.686195 0
M  V30 3270 H 296.223 -0.0706782 1.94772 0
M  V30 3271 H 295.319 -1.31882 2.82867 0
M  V30 3272 N 295.62 -1.53406 -0.361157 0
M  V30 3273 C 296.568 -1.80832 -1.46296 0
M  V30 3274 C 297.562 -0.677699 -1.55253 0
M  V30 3275 O 298.768 -0.860723 -1.58087 0
M  V30 3276 H 295.143 -0.572627 -0.487445 0
M  V30 3277 H 297.114 -2.73045 -1.20371 0
M  V30 3278 C 295.863 -2.01907 -2.8307 0
M  V30 3279 H 295.186 -2.88349 -2.76938 0
M  V30 3280 H 296.626 -2.25072 -3.59331 0
M  V30 3281 C 295.085 -0.799449 -3.27277 0
M  V30 3282 O 295.615 0.00971761 -4.01699 0
M  V30 3283 N 293.821 -0.621637 -2.83873 0
M  V30 3284 H 293.368 -1.28126 -2.23476 0
M  V30 3285 H 293.326 0.19298 -3.13807 0
M  V30 3286 N 297.098 0.621204 -1.44841 0
M  V30 3287 C 298.375 1.38 -1.38619 0
M  V30 3288 C 298.755 2.11041 -0.0498935 0
M  V30 3289 O 298.103 2.06992 0.967816 0
M  V30 3290 C 298.313 2.33817 -2.59096 0
M  V30 3291 C 299.661 2.96844 -3.03593 0
M  V30 3292 O 300.685 2.44141 -2.59371 0
M  V30 3293 O 299.544 3.92476 -3.80296 0
M  V30 3294 H 296.638 0.61811 -0.549426 0
M  V30 3295 H 299.184 0.645429 -1.56947 0
M  V30 3296 H 297.956 1.79012 -3.47952 0
M  V30 3297 H 297.579 3.14676 -2.43032 0
M  V30 3298 N 298.576 1.31904 0.862503 0
M  V30 3299 C 299.524 1.20125 1.9918 0
M  V30 3300 C 300.518 0.107824 1.69056 0
M  V30 3301 O 301.724 0.270223 1.7796 0
M  V30 3302 H 298.099 0.372148 0.65346 0
M  V30 3303 H 300.07 2.15652 2.06244 0
M  V30 3304 C 298.819 0.933099 3.34946 0
M  V30 3305 H 298.142 1.76664 3.5865 0
M  V30 3306 H 299.582 0.890892 4.14535 0
M  V30 3307 C 298.041 -0.364172 3.34926 0
M  V30 3308 O 298.571 -1.37858 3.77304 0
M  V30 3309 N 296.777 -0.383362 2.8806 0
M  V30 3310 H 296.324 0.442651 2.53768 0
M  V30 3311 H 296.282 -1.25123 2.8843 0
M  V30 3312 N 300.054 -1.07777 1.14986 0
M  V30 3313 C 301.302 -1.79934 0.920235 0
M  V30 3314 C 301.623 -1.86955 -0.554336 0
M  V30 3315 O 300.893 -1.36731 -1.40291 0
M  V30 3316 H 299.473 -0.666424 0.337473 0
M  V30 3317 H 302.135 -1.3027 1.44968 0
M  V30 3318 H 301.231 -2.82539 1.32583 0
M  V30 3319 N 301.532 -0.945985 -1.26051 0
M  V30 3320 C 302.778 -0.606539 -1.94146 0
M  V30 3321 C 303.133 0.84586 -1.72809 0
M  V30 3322 O 302.426 1.59781 -1.05738 0
M  V30 3323 C 302.62 -0.890475 -3.46129 0
M  V30 3324 C 302.449 -2.36892 -3.82246 0
M  V30 3325 C 301.219 -3.02494 -4.04753 0
M  V30 3326 C 303.417 -3.34772 -3.90425 0
M  V30 3327 N 301.399 -4.40302 -4.27794 0
M  V30 3328 C 302.77 -4.57855 -4.18054 0
M  V30 3329 C 304.825 -3.2973 -3.73072 0
M  V30 3330 C 303.528 -5.76522 -4.30134 0
M  V30 3331 C 305.554 -4.47727 -3.86386 0
M  V30 3332 C 304.916 -5.69593 -4.14419 0
M  V30 3333 H 301.015 -0.272407 -0.73302 0
M  V30 3334 H 303.599 -1.21638 -1.52027 0
M  V30 3335 H 301.77 -0.309638 -3.87164 0
M  V30 3336 H 303.502 -0.51181 -4.01451 0
M  V30 3337 H 300.257 -2.53095 -4.003 0
M  V30 3338 H 300.681 -5.11646 -4.43337 0
M  V30 3339 H 305.323 -2.36565 -3.50424 0
M  V30 3340 H 303.041 -6.70136 -4.51601 0
M  V30 3341 H 306.627 -4.45363 -3.74356 0
M  V30 3342 H 305.507 -6.59375 -4.24493 0
M  V30 3343 N 303.011 1.40521 -0.713556 0
M  V30 3344 C 304.288 1.94775 -0.17943 0
M  V30 3345 C 304.668 1.65184 1.31444 0
M  V30 3346 O 304.016 0.968429 2.06963 0
M  V30 3347 C 304.226 3.45543 -0.489986 0
M  V30 3348 C 305.574 4.22442 -0.427536 0
M  V30 3349 O 306.598 3.53644 -0.425929 0
M  V30 3350 O 305.457 5.4501 -0.403292 0
M  V30 3351 H 302.551 0.826606 -0.0255192 0
M  V30 3352 H 305.097 1.5014 -0.790949 0
M  V30 3353 H 303.869 3.60432 -1.5233 0
M  V30 3354 H 303.492 3.97311 0.151598 0
M  V30 3355 N 304.489 0.459591 1.5075 0
M  V30 3356 C 305.736 -0.0993495 2.02256 0
M  V30 3357 C 306.064 -1.40751 1.34237 0
M  V30 3358 O 305.319 -1.90379 0.453228 0
M  V30 3359 C 305.618 -0.342866 3.55752 0
M  V30 3360 C 305.284 0.88218 4.42186 0
M  V30 3361 C 303.946 1.21808 4.65528 0
M  V30 3362 C 306.298 1.69837 4.92752 0
M  V30 3363 C 303.626 2.37045 5.36681 0
M  V30 3364 C 305.978 2.84192 5.65171 0
M  V30 3365 C 304.642 3.1821 5.8677 0
M  V30 3366 H 303.912 -0.0363545 0.740108 0
M  V30 3367 H 306.559 0.611329 1.8148 0
M  V30 3368 H 304.864 -1.13567 3.7498 0
M  V30 3369 H 306.561 -0.789121 3.93159 0
M  V30 3370 H 303.151 0.610467 4.2423 0
M  V30 3371 H 307.335 1.45205 4.74583 0
M  V30 3372 H 302.591 2.63689 5.51614 0
M  V30 3373 H 306.765 3.4779 6.03337 0
M  V30 3374 H 304.392 4.07613 6.41682 0
M  V30 3375 N 305.967 -1.56429 0.191757 0
M  V30 3376 C 307.192 -2.02309 -0.456706 0
M  V30 3377 C 307.617 -1.07103 -1.5463 0
M  V30 3378 O 306.975 -0.0539677 -1.8122 0
M  V30 3379 C 307.023 -3.46654 -0.993159 0
M  V30 3380 O 306.127 -3.54559 -2.10622 0
M  V30 3381 H 305.468 -0.655303 -0.107114 0
M  V30 3382 H 307.998 -2.02364 0.301653 0
M  V30 3383 H 308.008 -3.86377 -1.31061 0
M  V30 3384 H 306.683 -4.1544 -0.195504 0
M  V30 3385 H 305.26 -3.26708 -1.79767 0
M  V30 3386 N 307.445 0.0818655 -1.57387 0
M  V30 3387 C 308.392 1.09834 -2.0299 0
M  V30 3388 C 309.362 1.39043 -0.908639 0
M  V30 3389 O 310.547 1.50282 -1.17559 0
M  V30 3390 C 307.687 2.40971 -2.47037 0
M  V30 3391 C 306.8 2.18379 -3.7274 0
M  V30 3392 C 305.935 3.43008 -4.0561 0
M  V30 3393 C 304.974 3.15736 -5.24383 0
M  V30 3394 N 304.111 4.32667 -5.52941 0
M  V30 3395 H 308.951 0.702472 -2.89602 0
M  V30 3396 H 306.488 0.33531 -1.43227 0
M  V30 3397 H 308.446 3.1752 -2.70623 0
M  V30 3398 H 307.076 2.78379 -1.63417 0
M  V30 3399 H 306.128 1.32569 -3.56552 0
M  V30 3400 H 307.44 1.94227 -4.59431 0
M  V30 3401 H 306.594 4.27958 -4.30043 0
M  V30 3402 H 305.333 3.70225 -3.17466 0
M  V30 3403 H 304.338 2.2918 -4.99757 0
M  V30 3404 H 305.563 2.8985 -6.14136 0
M  V30 3405 H 303.509 4.59935 -4.67756 0
M  V30 3406 H 303.426 4.11753 -6.34031 0
M  V30 3407 H 304.694 5.18644 -5.81918 0
M  V30 3408 N 308.923 1.53595 0.353017 0
M  V30 3409 C 310.169 1.70638 1.09593 0
M  V30 3410 C 310.502 0.463286 1.88593 0
M  V30 3411 O 309.777 -0.539597 1.86865 0
M  V30 3412 C 310.06 2.96406 2.04489 0
M  V30 3413 C 309.913 4.30901 1.29014 0
M  V30 3414 C 311.232 3.17812 3.0444 0
M  V30 3415 H 308.351 0.620913 0.397034 0
M  V30 3416 H 310.993 1.86254 0.375446 0
M  V30 3417 H 309.143 2.83223 2.65927 0
M  V30 3418 H 310.815 4.55917 0.702638 0
M  V30 3419 H 309.058 4.29741 0.592071 0
M  V30 3420 H 309.729 5.1506 1.98537 0
M  V30 3421 H 312.205 3.30263 2.53112 0
M  V30 3422 H 311.081 4.07223 3.6805 0
M  V30 3423 H 311.342 2.33669 3.75301 0
M  V30 3424 N 310.401 -0.613514 1.45168 0
M  V30 3425 C 311.647 -1.37471 1.49096 0
M  V30 3426 C 311.98 -1.93765 0.129901 0
M  V30 3427 O 311.255 -1.74707 -0.854858 0
M  V30 3428 C 311.538 -2.52701 2.56542 0
M  V30 3429 C 311.391 -2.01643 4.0207 0
M  V30 3430 C 312.71 -3.54849 2.60327 0
M  V30 3431 H 309.829 -0.498502 0.54283 0
M  V30 3432 H 312.471 -0.692125 1.76945 0
M  V30 3433 H 310.621 -3.10931 2.32926 0
M  V30 3434 H 312.293 -1.48108 4.36877 0
M  V30 3435 H 310.536 -1.32688 4.13009 0
M  V30 3436 H 311.207 -2.84681 4.72928 0
M  V30 3437 H 313.683 -3.0645 2.81474 0
M  V30 3438 H 312.559 -4.32973 3.37381 0
M  V30 3439 H 312.82 -4.10079 1.6519 0
M  V30 3440 N 311.879 -1.3236 -0.855495 0
M  V30 3441 C 313.107 -1.2587 -1.64208 0
M  V30 3442 C 313.522 0.173457 -1.88002 0
M  V30 3443 O 312.879 1.11027 -1.44842 0
M  V30 3444 C 312.93 -2.01424 -3.00184 0
M  V30 3445 O 312.651 -3.39051 -2.77445 0
M  V30 3446 C 314.152 -2.01948 -3.94629 0
M  V30 3447 H 311.372 -0.434318 -0.511477 0
M  V30 3448 H 313.916 -1.74469 -1.0668 0
M  V30 3449 H 312.071 -1.56549 -3.5436 0
M  V30 3450 H 312.485 -3.77711 -3.63916 0
M  V30 3451 H 313.959 -2.59297 -4.87308 0
M  V30 3452 H 314.436 -1.00554 -4.27534 0
M  V30 3453 H 315.042 -2.46767 -3.4639 0
M  V30 3454 N 313.357 1.07166 -1.15556 0
M  V30 3455 C 314.304 2.14417 -0.854055 0
M  V30 3456 C 315.274 1.64965 0.193806 0
M  V30 3457 O 316.459 1.90703 0.0609443 0
M  V30 3458 C 313.599 3.43304 -0.351574 0
M  V30 3459 C 312.712 4.06537 -1.46123 0
M  V30 3460 C 311.847 5.23266 -0.914677 0
M  V30 3461 C 310.886 5.78464 -2.00114 0
M  V30 3462 N 310.023 6.86521 -1.47083 0
M  V30 3463 H 314.863 2.39548 -1.77259 0
M  V30 3464 H 312.4 1.17543 -0.884425 0
M  V30 3465 H 314.358 4.17179 -0.0419409 0
M  V30 3466 H 312.988 3.18419 0.530037 0
M  V30 3467 H 312.04 3.30297 -1.88701 0
M  V30 3468 H 313.352 4.43567 -2.28144 0
M  V30 3469 H 312.506 6.04131 -0.557698 0
M  V30 3470 H 311.245 4.87658 -0.0636583 0
M  V30 3471 H 310.25 4.96243 -2.36692 0
M  V30 3472 H 311.475 6.16126 -2.85597 0
M  V30 3473 H 309.421 6.52849 -0.642198 0
M  V30 3474 H 309.338 7.22446 -2.22729 0
M  V30 3475 H 310.606 7.71087 -1.14215 0
M  V30 3476 N 314.835 0.952656 1.25548 0
M  V30 3477 C 316.112 0.523818 1.88456 0
M  V30 3478 C 316.492 -0.998871 1.85973 0
M  V30 3479 O 315.84 -1.86381 1.3219 0
M  V30 3480 C 316.05 1.0982 3.31271 0
M  V30 3481 C 317.398 1.17385 4.08051 0
M  V30 3482 O 318.422 1.04961 3.40384 0
M  V30 3483 O 317.281 1.36852 5.29088 0
M  V30 3484 H 314.375 0.172485 0.808813 0
M  V30 3485 H 316.921 1.04596 1.33633 0
M  V30 3486 H 315.693 2.1415 3.27499 0
M  V30 3487 H 315.316 0.559191 3.93648 0
M  V30 3488 N 316.313 -1.40141 0.720998 0
M  V30 3489 C 317.223 -2.34486 0.0731031 0
M  V30 3490 C 318.239 -1.57587 -0.737723 0
M  V30 3491 O 319.415 -1.89949 -0.669429 0
M  V30 3492 C 316.48 -3.36528 -0.833656 0
M  V30 3493 C 315.541 -4.29298 -0.0121673 0
M  V30 3494 C 314.774 -5.26466 -0.875742 0
M  V30 3495 O 314.997 -5.29745 -2.11485 0
M  V30 3496 O 313.931 -6.01092 -0.31185 0
M  V30 3497 H 317.757 -2.9152 0.851444 0
M  V30 3498 H 315.342 -1.41427 0.481527 0
M  V30 3499 H 317.224 -3.99093 -1.35289 0
M  V30 3500 H 315.899 -2.81899 -1.59105 0
M  V30 3501 H 314.806 -3.70001 0.552262 0
M  V30 3502 H 316.139 -4.87094 0.707129 0
M  V30 3503 N 317.792 -0.46758 -1.50504 0
M  V30 3504 C 318.725 0.374324 -2.25109 0
M  V30 3505 C 319.703 0.99921 -1.28275 0
M  V30 3506 O 320.887 1.03583 -1.57489 0
M  V30 3507 C 318.014 1.52419 -3.02467 0
M  V30 3508 C 317.06 1.01702 -4.14197 0
M  V30 3509 S 317.893 -0.0654477 -5.3546 0
M  V30 3510 C 319.049 1.08837 -6.16365 0
M  V30 3511 H 319.282 -0.258983 -2.9617 0
M  V30 3512 H 316.815 -0.252421 -1.52323 0
M  V30 3513 H 318.773 2.18322 -3.47628 0
M  V30 3514 H 317.434 2.129 -2.30938 0
M  V30 3515 H 316.627 1.87776 -4.67714 0
M  V30 3516 H 316.229 0.435757 -3.71453 0
M  V30 3517 H 318.521 2.00071 -6.47285 0
M  V30 3518 H 319.464 0.592538 -7.05616 0
M  V30 3519 H 319.872 1.34061 -5.4835 0
M  V30 3520 N 319.27 1.56325 -0.20005 0
M  V30 3521 C 320.2 2.22318 0.713916 0
M  V30 3522 C 321.181 1.18788 1.21752 0
M  V30 3523 O 322.366 1.47309 1.26545 0
M  V30 3524 C 319.496 2.88639 1.93144 0
M  V30 3525 C 318.45 3.98457 1.56255 0
M  V30 3526 C 317.776 4.51967 2.85709 0
M  V30 3527 C 319.076 5.16612 0.768747 0
M  V30 3528 H 320.77 2.98952 0.163755 0
M  V30 3529 H 318.316 1.43792 0.0773219 0
M  V30 3530 H 320.269 3.33491 2.57608 0
M  V30 3531 H 318.993 2.09419 2.50621 0
M  V30 3532 H 317.652 3.54305 0.941471 0
M  V30 3533 H 317.3 3.69503 3.41287 0
M  V30 3534 H 317 5.26071 2.6177 0
M  V30 3535 H 318.524 4.99523 3.51154 0
M  V30 3536 H 319.938 5.57977 1.3166 0
M  V30 3537 H 318.335 5.96812 0.627286 0
M  V30 3538 H 319.405 4.84358 -0.229168 0
M  V30 3539 N 320.748 -0.0735177 1.57428 0
M  V30 3540 C 321.976 -0.785969 1.9139 0
M  V30 3541 C 322.391 -1.71207 0.795847 0
M  V30 3542 O 321.748 -1.81033 -0.230915 0
M  V30 3543 C 321.799 -1.58107 3.25091 0
M  V30 3544 O 321.52 -0.6922 4.32597 0
M  V30 3545 C 323.021 -2.39467 3.73055 0
M  V30 3546 H 320.241 -0.223558 0.632663 0
M  V30 3547 H 322.785 -0.044302 2.04452 0
M  V30 3548 H 320.94 -2.27503 3.13562 0
M  V30 3549 H 321.354 -1.24504 5.09508 0
M  V30 3550 H 322.828 -2.90716 4.69242 0
M  V30 3551 H 323.305 -3.18913 3.01979 0
M  V30 3552 H 323.911 -1.7523 3.87523 0
M  V30 3553 N 322.226 -1.5378 -0.344866 0
M  V30 3554 C 323.159 -1.7649 -1.4466 0
M  V30 3555 C 324.137 -0.613954 -1.50563 0
M  V30 3556 O 325.321 -0.84896 -1.683 0
M  V30 3557 C 322.448 -1.86235 -2.82903 0
M  V30 3558 C 321.494 -3.08375 -2.94631 0
M  V30 3559 S 322.327 -4.67457 -2.61236 0
M  V30 3560 C 323.483 -4.80079 -4.0159 0
M  V30 3561 H 323.716 -2.69661 -1.2518 0
M  V30 3562 H 321.249 -1.44632 -0.540455 0
M  V30 3563 H 323.207 -1.92535 -3.62547 0
M  V30 3564 H 321.868 -0.940786 -2.9968 0
M  V30 3565 H 321.061 -3.11865 -3.95925 0
M  V30 3566 H 320.663 -3.00294 -2.22934 0
M  V30 3567 H 322.955 -4.61407 -4.96094 0
M  V30 3568 H 323.898 -5.82168 -4.03095 0
M  V30 3569 H 324.306 -4.08544 -3.89554 0
M  V30 3570 N 323.704 0.605807 -1.45491 0
M  V30 3571 C 324.953 1.36086 -1.48874 0
M  V30 3572 C 325.266 1.95131 -0.135333 0
M  V30 3573 O 326.472 2.7146 -0.0468144 0
M  V30 3574 C 324.928 2.46518 -2.62215 0
M  V30 3575 C 324.536 1.93877 -4.03876 0
M  V30 3576 C 326.28 3.23512 -2.74846 0
M  V30 3577 C 324.187 3.01801 -5.08596 0
M  V30 3578 H 323.117 0.511497 -0.553974 0
M  V30 3579 H 325.768 0.649089 -1.71636 0
M  V30 3580 H 324.15 3.20388 -2.32739 0
M  V30 3581 H 325.324 1.26704 -4.43038 0
M  V30 3582 H 323.639 1.29622 -3.95711 0
M  V30 3583 H 326.236 4.04013 -3.50253 0
M  V30 3584 H 326.579 3.74631 -1.81542 0
M  V30 3585 H 327.112 2.56742 -3.03856 0
M  V30 3586 H 323.851 2.55597 -6.03614 0
M  V30 3587 H 323.371 3.67535 -4.74002 0
M  V30 3588 H 325.05 3.66152 -5.33424 0
M  V30 3589 N 325.182 1.32811 0.848464 0
M  V30 3590 C 326.092 1.24278 1.98978 0
M  V30 3591 C 327.108 0.155176 1.73307 0
M  V30 3592 O 328.284 0.376999 1.9784 0
M  V30 3593 C 325.349 0.972444 3.32783 0
M  V30 3594 C 324.41 2.14911 3.71634 0
M  V30 3595 C 323.643 1.89157 4.99054 0
M  V30 3596 O 323.866 0.837165 5.64223 0
M  V30 3597 O 322.8 2.75433 5.35183 0
M  V30 3598 H 326.626 2.20238 2.09115 0
M  V30 3599 H 324.211 1.12762 0.980052 0
M  V30 3600 H 326.093 0.838432 4.12975 0
M  V30 3601 H 324.768 0.043051 3.23671 0
M  V30 3602 H 323.675 2.33862 2.91992 0
M  V30 3603 H 325.008 3.06151 3.85399 0
M  V30 3604 N 326.66 -1.06551 1.16123 0
M  V30 3605 C 327.592 -2.13908 0.823171 0
M  V30 3606 C 328.605 -1.61926 -0.16843 0
M  V30 3607 O 329.794 -1.78412 0.055962 0
M  V30 3608 C 326.894 -3.38283 0.204424 0
M  V30 3609 C 326.067 -4.19589 1.23548 0
M  V30 3610 C 325.126 -5.2233 0.637011 0
M  V30 3611 O 324.152 -5.54034 1.30516 0
M  V30 3612 N 325.354 -5.77621 -0.577474 0
M  V30 3613 H 328.119 -2.43508 1.74711 0
M  V30 3614 H 325.68 -1.2253 1.05821 0
M  V30 3615 H 327.672 -4.0416 -0.208909 0
M  V30 3616 H 326.242 -3.06329 -0.623012 0
M  V30 3617 H 325.462 -3.49406 1.82507 0
M  V30 3618 H 326.75 -4.70718 1.93137 0
M  V30 3619 H 326.148 -5.54125 -1.13853 0
M  V30 3620 H 324.705 -6.45087 -0.933053 0
M  V30 3621 N 328.138 -0.959301 -1.25041 0
M  V30 3622 C 329.088 -0.453888 -2.23436 0
M  V30 3623 C 330.072 0.459461 -1.542 0
M  V30 3624 O 331.264 0.291752 -1.74579 0
M  V30 3625 C 328.393 0.262667 -3.42294 0
M  V30 3626 C 327.479 -0.669022 -4.1879 0
M  V30 3627 N 327.87 -1.80267 -4.72586 0
M  V30 3628 C 326.168 -0.47814 -4.4343 0
M  V30 3629 C 326.869 -2.38475 -5.3057 0
M  V30 3630 N 325.845 -1.67078 -5.17287 0
M  V30 3631 H 329.647 -1.319 -2.6264 0
M  V30 3632 H 327.161 -0.817358 -1.40332 0
M  V30 3633 H 329.158 0.641911 -4.11929 0
M  V30 3634 H 327.818 1.12432 -3.04613 0
M  V30 3635 H 328.829 -2.18442 -4.69578 0
M  V30 3636 H 325.506 0.340249 -4.16111 0
M  V30 3637 H 326.896 -3.34094 -5.8295 0
M  V30 3638 N 329.616 1.39756 -0.72842 0
M  V30 3639 C 330.863 2.00645 -0.273487 0
M  V30 3640 C 331.191 1.57786 1.13727 0
M  V30 3641 O 330.446 0.794886 1.7883 0
M  V30 3642 C 330.745 3.56002 -0.315776 0
M  V30 3643 C 330.411 4.18489 -1.67863 0
M  V30 3644 C 329.073 4.3527 -2.05166 0
M  V30 3645 C 331.425 4.53219 -2.57375 0
M  V30 3646 C 328.753 4.84069 -3.31503 0
M  V30 3647 C 331.105 5.03423 -3.83077 0
M  V30 3648 C 329.769 5.18413 -4.20481 0
M  V30 3649 H 329.039 0.734211 -0.100076 0
M  V30 3650 H 331.686 1.6718 -0.933972 0
M  V30 3651 H 329.991 3.89452 0.428285 0
M  V30 3652 H 331.688 4.00963 0.0542575 0
M  V30 3653 H 328.278 4.05824 -1.37858 0
M  V30 3654 H 332.462 4.39878 -2.29827 0
M  V30 3655 H 327.718 4.93859 -3.60435 0
M  V30 3656 H 331.892 5.2927 -4.52599 0
M  V30 3657 H 329.519 5.55987 -5.18443 0
M  V30 3658 N 331.094 0.475555 1.50254 0
M  V30 3659 C 332.004 -0.321501 2.32387 0
M  V30 3660 C 333.02 -0.991755 1.42969 0
M  V30 3661 O 334.196 -0.978747 1.76018 0
M  V30 3662 C 331.261 -1.38667 3.17762 0
M  V30 3663 C 330.322 -0.732538 4.23004 0
M  V30 3664 C 329.555 -1.74695 5.04299 0
M  V30 3665 O 329.778 -2.97399 4.86734 0
M  V30 3666 O 328.712 -1.31631 5.8733 0
M  V30 3667 H 332.538 0.350071 3.01676 0
M  V30 3668 H 330.123 0.237321 1.47503 0
M  V30 3669 H 332.005 -2.00354 3.70724 0
M  V30 3670 H 330.68 -2.04163 2.51196 0
M  V30 3671 H 329.587 -0.0765902 3.74022 0
M  V30 3672 H 330.92 -0.120452 4.92053 0
M  V30 3673 N 332.573 -1.56217 0.208337 0
M  V30 3674 C 333.822 -1.97124 -0.427204 0
M  V30 3675 C 334.135 -1.09859 -1.61835 0
M  V30 3676 O 335.341 -1.40606 -2.32255 0
M  V30 3677 C 333.797 -3.50633 -0.811442 0
M  V30 3678 C 333.405 -4.46582 0.35615 0
M  V30 3679 C 335.149 -4.00282 -1.41332 0
M  V30 3680 C 333.056 -5.91379 -0.0497852 0
M  V30 3681 H 331.986 -0.736086 -0.163381 0
M  V30 3682 H 334.637 -1.8099 0.302456 0
M  V30 3683 H 333.019 -3.62319 -1.59815 0
M  V30 3684 H 334.193 -4.46636 1.1337 0
M  V30 3685 H 332.508 -4.07202 0.870396 0
M  V30 3686 H 335.105 -5.0595 -1.72972 0
M  V30 3687 H 335.448 -3.45359 -2.32449 0
M  V30 3688 H 335.981 -3.91764 -0.690323 0
M  V30 3689 H 332.72 -6.50255 0.827529 0
M  V30 3690 H 332.24 -5.94549 -0.791926 0
M  V30 3691 H 333.919 -6.45209 -0.481042 0
M  V30 3692 N 334.051 0.0651679 -1.57465 0
M  V30 3693 C 335.328 0.79644 -1.78651 0
M  V30 3694 C 335.708 1.95454 -0.797566 0
M  V30 3695 O 335.056 2.27882 0.167946 0
M  V30 3696 C 335.266 1.26322 -3.25337 0
M  V30 3697 C 336.614 1.6939 -3.89348 0
M  V30 3698 O 337.638 1.35872 -3.29268 0
M  V30 3699 O 336.497 2.31471 -4.95059 0
M  V30 3700 H 333.591 0.382157 -0.733407 0
M  V30 3701 H 336.137 0.0447311 -1.69641 0
M  V30 3702 H 334.909 0.434859 -3.88876 0
M  V30 3703 H 334.532 2.07604 -3.39096 0
M  V30 3704 N 335.529 1.53961 0.336706 0
M  V30 3705 C 336.94 1.62914 0.911925 0
M  V30 3706 C 337.291 0.514795 1.89326 0
M  V30 3707 O 336.416 -0.354395 2.13478 0
M  V30 3708 C 337.011 2.95304 1.66076 0
M  V30 3709 C 335.57 3.06496 2.18489 0
M  V30 3710 C 334.717 2.58403 1.00613 0
M  V30 3711 H 337.668 1.58285 0.114649 0
M  V30 3712 H 337.689 2.84727 2.5241 0
M  V30 3713 H 337.201 3.76387 0.946276 0
M  V30 3714 H 335.302 2.3006 2.93092 0
M  V30 3715 H 335.415 4.1208 2.44391 0
M  V30 3716 H 333.779 2.13977 1.38152 0
M  V30 3717 H 334.562 3.41932 0.306179 0
M  V30 3718 N 337.007 -0.598083 1.45811 0
M  V30 3719 C 338.253 -1.35882 1.50545 0
M  V30 3720 C 338.586 -1.93616 0.150445 0
M  V30 3721 O 337.861 -1.75604 -0.83628 0
M  V30 3722 C 338.144 -2.49966 2.59208 0
M  V30 3723 C 337.997 -1.97367 4.04186 0
M  V30 3724 C 339.316 -3.52068 2.64076 0
M  V30 3725 H 336.435 -0.492717 0.548087 0
M  V30 3726 H 339.077 -0.673319 1.77669 0
M  V30 3727 H 337.227 -3.08443 2.3621 0
M  V30 3728 H 338.899 -1.43466 4.38423 0
M  V30 3729 H 337.142 -1.283 4.14393 0
M  V30 3730 H 337.813 -2.79649 4.75921 0
M  V30 3731 H 340.289 -3.03448 2.84708 0
M  V30 3732 H 339.165 -4.2937 3.41954 0
M  V30 3733 H 339.426 -4.08304 1.69531 0
M  V30 3734 N 338.485 -1.33259 -0.841409 0
M  V30 3735 C 339.395 -1.25332 -1.98316 0
M  V30 3736 C 340.411 -0.164364 -1.73222 0
M  V30 3737 O 341.587 -0.387486 -1.97637 0
M  V30 3738 C 338.652 -0.990078 -3.32262 0
M  V30 3739 C 337.713 -2.16879 -3.70489 0
M  V30 3740 C 336.946 -1.91801 -4.98044 0
M  V30 3741 O 337.169 -0.867075 -5.63771 0
M  V30 3742 O 336.103 -2.78267 -5.33714 0
M  V30 3743 H 339.929 -2.21344 -2.07944 0
M  V30 3744 H 337.514 -1.1328 -0.974058 0
M  V30 3745 H 339.396 -0.860321 -4.12524 0
M  V30 3746 H 338.071 -0.0602155 -3.23644 0
M  V30 3747 H 336.978 -2.35407 -2.90748 0
M  V30 3748 H 338.311 -3.0819 -3.8377 0
M  V30 3749 N 339.963 1.05934 -1.16686 0
M  V30 3750 C 341.374 1.60263 -0.957745 0
M  V30 3751 C 341.725 1.89789 0.49745 0
M  V30 3752 O 340.85 1.67401 1.37135 0
M  V30 3753 C 341.445 2.91172 -1.73218 0
M  V30 3754 C 340.004 3.42188 -1.56794 0
M  V30 3755 C 339.151 2.16028 -1.73859 0
M  V30 3756 H 342.102 0.888392 -1.31504 0
M  V30 3757 H 342.123 3.60744 -1.21014 0
M  V30 3758 H 341.635 2.6965 -2.79124 0
M  V30 3759 H 339.736 3.68762 -0.533437 0
M  V30 3760 H 339.849 4.17273 -2.35414 0
M  V30 3761 H 338.213 2.26426 -1.16633 0
M  V30 3762 H 338.996 1.96985 -2.81161 0
M  V30 3763 N 341.441 0.965919 1.2453 0
M  V30 3764 C 342.388 0.49402 2.25451 0
M  V30 3765 C 343.358 -0.45948 1.59618 0
M  V30 3766 O 344.543 -0.370238 1.87173 0
M  V30 3767 C 341.683 -0.211359 3.44452 0
M  V30 3768 C 340.796 0.7807 4.24887 0
M  V30 3769 C 339.931 0.0516105 5.31175 0
M  V30 3770 C 338.97 1.03385 6.03306 0
M  V30 3771 N 338.107 0.334887 7.01301 0
M  V30 3772 H 342.947 1.35946 2.65184 0
M  V30 3773 H 340.484 0.681515 1.3036 0
M  V30 3774 H 342.442 -0.637 4.12308 0
M  V30 3775 H 341.072 -1.04077 3.05562 0
M  V30 3776 H 340.124 1.32479 3.56586 0
M  V30 3777 H 341.436 1.52978 4.74762 0
M  V30 3778 H 340.59 -0.432114 6.05159 0
M  V30 3779 H 339.329 -0.730179 4.82203 0
M  V30 3780 H 338.334 1.52847 5.28127 0
M  V30 3781 H 339.559 1.81606 6.54367 0
M  V30 3782 H 337.505 -0.427959 6.54603 0
M  V30 3783 H 337.422 1.02287 7.49048 0
M  V30 3784 H 338.69 -0.126928 7.79397 0
M  V30 3785 N 342.919 -1.39368 0.735821 0
M  V30 3786 C 344.149 -2.04498 0.293967 0
M  V30 3787 C 344.557 -1.55593 -1.07645 0
M  V30 3788 O 343.9 -0.716324 -1.69158 0
M  V30 3789 C 343.962 -3.58836 0.218342 0
M  V30 3790 C 343.626 -4.30721 1.52736 0
M  V30 3791 C 344.623 -4.57305 2.47322 0
M  V30 3792 C 342.308 -4.69251 1.79189 0
M  V30 3793 C 344.302 -5.21429 3.66593 0
M  V30 3794 C 341.989 -5.33104 2.98737 0
M  V30 3795 C 342.987 -5.59125 3.9226 0
M  V30 3796 O 342.675 -6.21653 5.09708 0
M  V30 3797 H 342.407 -0.664118 0.126189 0
M  V30 3798 H 344.961 -1.79385 1.00051 0
M  V30 3799 H 343.191 -3.8285 -0.544314 0
M  V30 3800 H 344.88 -4.05447 -0.191626 0
M  V30 3801 H 345.646 -4.27983 2.28156 0
M  V30 3802 H 341.525 -4.48354 1.07239 0
M  V30 3803 H 345.069 -5.41656 4.39607 0
M  V30 3804 H 340.966 -5.61846 3.17803 0
M  V30 3805 H 341.734 -6.40146 5.10054 0
M  V30 3806 N 344.397 -0.483516 -1.5 0
M  V30 3807 C 345.644 0.0671597 -2.02389 0
M  V30 3808 C 345.972 1.38597 -1.36459 0
M  V30 3809 O 345.227 1.89634 -0.483458 0
M  V30 3810 C 345.526 0.286226 -3.56252 0
M  V30 3811 C 345.192 -0.952416 -4.40726 0
M  V30 3812 C 343.854 -1.29199 -4.63531 0
M  V30 3813 C 346.206 -1.77655 -4.89988 0
M  V30 3814 C 343.534 -2.45553 -5.32842 0
M  V30 3815 C 345.886 -2.93147 -5.60578 0
M  V30 3816 C 344.55 -3.27505 -5.81633 0
M  V30 3817 H 343.82 0.0245755 -0.740592 0
M  V30 3818 H 346.467 -0.640124 -1.80485 0
M  V30 3819 H 344.772 1.07587 -3.76739 0
M  V30 3820 H 346.469 0.726473 -3.94365 0
M  V30 3821 H 343.059 -0.677881 -4.23205 0
M  V30 3822 H 347.243 -1.52737 -4.72213 0
M  V30 3823 H 342.499 -2.72431 -5.47349 0
M  V30 3824 H 346.673 -3.57344 -5.97727 0
M  V30 3825 H 344.3 -4.1777 -6.35116 0
M  V30 3826 N 345.875 1.56104 -0.216619 0
M  V30 3827 C 347.123 1.97781 0.415593 0
M  V30 3828 C 347.444 1.10536 1.60645 0
M  V30 3829 O 346.714 0.181303 1.95059 0
M  V30 3830 H 345.294 0.730415 0.156534 0
M  V30 3831 H 347.956 1.92445 -0.308366 0
M  V30 3832 H 347.052 3.03072 0.74525 0
M  V30 3833 N 347.353 -0.0568162 1.57498 0
M  V30 3834 C 348.263 -1.08346 2.08083 0
M  V30 3835 C 349.279 -1.41439 1.01346 0
M  V30 3836 O 350.455 -1.51316 1.32912 0
M  V30 3837 C 347.52 -2.37352 2.52715 0
M  V30 3838 C 346.581 -2.11093 3.73816 0
M  V30 3839 C 345.814 -3.33949 4.1631 0
M  V30 3840 O 346.037 -4.43622 3.58547 0
M  V30 3841 O 344.971 -3.21279 5.08983 0
M  V30 3842 H 348.797 -0.683667 2.95905 0
M  V30 3843 H 346.382 -0.271965 1.46904 0
M  V30 3844 H 348.264 -3.13246 2.81877 0
M  V30 3845 H 346.939 -2.76681 1.68016 0
M  V30 3846 H 345.846 -1.32856 3.49714 0
M  V30 3847 H 347.179 -1.76637 4.59413 0
M  V30 3848 N 348.832 -1.54138 -0.328536 0
M  V30 3849 C 350.078 -1.7236 -1.06865 0
M  V30 3850 C 350.411 -0.493231 -1.87832 0
M  V30 3851 O 349.686 0.5098 -1.877 0
M  V30 3852 C 349.969 -2.99621 -1.99747 0
M  V30 3853 C 349.822 -4.32899 -1.22143 0
M  V30 3854 C 351.141 -3.22615 -2.99345 0
M  V30 3855 H 348.26 -0.627151 -0.387105 0
M  V30 3856 H 350.902 -1.86827 -0.345767 0
M  V30 3857 H 349.052 -2.87418 -2.61387 0
M  V30 3858 H 350.724 -4.56978 -0.630017 0
M  V30 3859 H 348.967 -4.30628 -0.523628 0
M  V30 3860 H 349.638 -5.18154 -1.90318 0
M  V30 3861 H 352.114 -3.34248 -2.47826 0
M  V30 3862 H 350.99 -4.13027 -3.61524 0
M  V30 3863 H 351.251 -2.3961 -3.71536 0
M  V30 3864 N 350.31 0.590341 -1.46126 0
M  V30 3865 C 351.273 1.68194 -1.55703 0
M  V30 3866 C 352.273 1.54808 -0.434868 0
M  V30 3867 O 353.463 1.59564 -0.698928 0
M  V30 3868 C 350.595 3.07575 -1.47005 0
M  V30 3869 H 351.788 1.61064 -2.52979 0
M  V30 3870 H 349.341 0.807541 -1.33823 0
M  V30 3871 H 350.076 3.20268 -0.509785 0
M  V30 3872 H 349.861 3.187 -2.28414 0
M  V30 3873 H 351.351 3.87055 -1.56776 0
M  V30 3874 N 351.788 1.33704 0.83433 0
M  V30 3875 C 352.735 1.24335 1.94447 0
M  V30 3876 C 353.705 0.120991 1.65659 0
M  V30 3877 O 354.89 0.300035 1.88426 0
M  V30 3878 C 352.03 0.993124 3.30501 0
M  V30 3879 C 351.143 2.20217 3.71657 0
M  V30 3880 C 350.278 1.88572 4.96602 0
M  V30 3881 C 349.317 3.05683 5.30306 0
M  V30 3882 N 348.454 2.73997 6.46429 0
M  V30 3883 H 353.294 2.1928 2.01792 0
M  V30 3884 H 350.831 1.09035 0.987404 0
M  V30 3885 H 352.789 0.828467 4.08892 0
M  V30 3886 H 351.419 0.0803902 3.227 0
M  V30 3887 H 350.471 2.47642 2.88752 0
M  V30 3888 H 351.783 3.07752 3.92543 0
M  V30 3889 H 350.937 1.68776 5.82752 0
M  V30 3890 H 349.676 0.982799 4.77695 0
M  V30 3891 H 348.681 3.26088 4.42659 0
M  V30 3892 H 349.906 3.96737 5.51159 0
M  V30 3893 H 347.852 1.86268 6.28999 0
M  V30 3894 H 347.769 3.55064 6.67432 0
M  V30 3895 H 349.037 2.57679 7.35678 0
M  V30 3896 N 353.266 -1.05314 1.17247 0
M  V30 3897 C 354.496 -1.81707 0.983166 0
M  V30 3898 C 354.904 -1.83222 -0.471822 0
M  V30 3899 O 354.247 -1.25721 -1.3394 0
M  V30 3900 C 354.309 -3.29134 1.44606 0
M  V30 3901 C 353.973 -3.51304 2.92292 0
M  V30 3902 C 354.97 -3.4353 3.90235 0
M  V30 3903 C 352.655 -3.78306 3.30439 0
M  V30 3904 C 354.649 -3.62442 5.24323 0
M  V30 3905 C 352.336 -3.96866 4.64694 0
M  V30 3906 C 353.334 -3.88933 5.61445 0
M  V30 3907 O 353.022 -4.06976 6.93272 0
M  V30 3908 H 352.754 -0.579476 0.348114 0
M  V30 3909 H 355.308 -1.33705 1.55924 0
M  V30 3910 H 353.538 -3.78046 0.813537 0
M  V30 3911 H 355.227 -3.87049 1.22262 0
M  V30 3912 H 355.993 -3.22648 3.62109 0
M  V30 3913 H 351.872 -3.83585 2.55702 0
M  V30 3914 H 355.416 -3.56165 5.99827 0
M  V30 3915 H 351.313 -4.1724 4.92525 0
M  V30 3916 H 352.081 -4.24209 6.99992 0
M  V30 3917 N 354.744 -0.972509 -1.24016 0
M  V30 3918 C 355.974 -0.653853 -1.9598 0
M  V30 3919 C 356.382 0.781801 -1.72292 0
M  V30 3920 O 355.725 1.53677 -1.00644 0
M  V30 3921 C 355.787 -0.854608 -3.49194 0
M  V30 3922 C 355.451 -2.27082 -3.96589 0
M  V30 3923 C 356.448 -3.24892 -4.05883 0
M  V30 3924 C 354.133 -2.5998 -4.29786 0
M  V30 3925 C 356.127 -4.53684 -4.47716 0
M  V30 3926 C 353.814 -3.88997 -4.71301 0
M  V30 3927 C 354.812 -4.85661 -4.80232 0
M  V30 3928 O 354.5 -6.12376 -5.20818 0
M  V30 3929 H 354.232 -0.242572 -0.630979 0
M  V30 3930 H 356.786 -1.30431 -1.58673 0
M  V30 3931 H 355.016 -0.146985 -3.86421 0
M  V30 3932 H 356.705 -0.534311 -4.02368 0
M  V30 3933 H 357.471 -3.00805 -3.80449 0
M  V30 3934 H 353.35 -1.85457 -4.22051 0
M  V30 3935 H 356.894 -5.29135 -4.54601 0
M  V30 3936 H 352.791 -4.12882 -4.96184 0
M  V30 3937 H 353.559 -6.16013 -5.38953 0
M  V30 3938 N 356.222 1.38976 -0.743202 0
M  V30 3939 C 357.638 1.53984 -0.419664 0
M  V30 3940 C 357.838 1.70837 1.0685 0
M  V30 3941 O 356.894 1.7135 1.8546 0
M  V30 3942 C 358.207 2.75287 -1.20985 0
M  V30 3943 C 359.755 2.89129 -1.19889 0
M  V30 3944 C 360.23 4.13381 -1.97181 0
M  V30 3945 N 361.721 4.20437 -1.94389 0
M  V30 3946 C 362.456 5.15547 -2.50996 0
M  V30 3947 N 361.952 6.16395 -3.16274 0
M  V30 3948 N 363.745 5.07822 -2.40984 0
M  V30 3949 H 355.896 1.26285 -1.7078 0
M  V30 3950 H 358.159 0.612689 -0.723406 0
M  V30 3951 H 357.865 2.69204 -2.26323 0
M  V30 3952 H 357.739 3.68184 -0.819759 0
M  V30 3953 H 360.126 2.947 -0.153606 0
M  V30 3954 H 360.207 1.97272 -1.62841 0
M  V30 3955 H 359.851 4.08572 -3.01714 0
M  V30 3956 H 359.781 5.04298 -1.51629 0
M  V30 3957 H 362.272 3.48205 -1.46839 0
M  V30 3958 H 362.585 6.85443 -3.56915 0
M  V30 3959 H 360.93 6.16758 -3.20367 0
M  V30 3960 H 364.121 4.27973 -1.89622 0
M  V30 3961 H 364.294 5.81767 -2.85397 0
M  V30 3962 N 357.7 0.491464 1.49741 0
M  V30 3963 C 358.65 -0.311086 2.25868 0
M  V30 3964 C 359.634 -0.943857 1.30308 0
M  V30 3965 O 360.826 -0.853035 1.55088 0
M  V30 3966 C 357.955 -1.38059 3.14316 0
M  V30 3967 C 357.041 -0.754541 4.17334 0
M  V30 3968 N 357.432 0.137216 5.05614 0
M  V30 3969 C 355.73 -1.01621 4.34269 0
M  V30 3970 C 356.431 0.494614 5.79593 0
M  V30 3971 N 355.407 -0.135169 5.43432 0
M  V30 3972 H 359.209 0.37555 2.91491 0
M  V30 3973 H 356.723 0.306917 1.59473 0
M  V30 3974 H 358.72 -1.96891 3.67477 0
M  V30 3975 H 357.38 -2.06901 2.50244 0
M  V30 3976 H 358.391 0.50741 5.15408 0
M  V30 3977 H 355.068 -1.69808 3.81407 0
M  V30 3978 H 356.458 1.2236 6.60665 0
M  V30 3979 N 359.178 -1.55987 0.224894 0
M  V30 3980 C 360.125 -2.20436 -0.68385 0
M  V30 3981 C 361.095 -1.16102 -1.18783 0
M  V30 3982 O 362.28 -1.4447 -1.24632 0
M  V30 3983 C 359.42 -2.89076 -1.88491 0
M  V30 3984 C 358.533 -4.08012 -1.41951 0
M  V30 3985 C 357.668 -4.64426 -2.5784 0
M  V30 3986 C 356.707 -5.75656 -2.08053 0
M  V30 3987 N 355.844 -6.26347 -3.17227 0
M  V30 3988 H 360.684 -2.97727 -0.12754 0
M  V30 3989 H 358.221 -1.47011 -0.0511978 0
M  V30 3990 H 360.179 -3.27059 -2.59014 0
M  V30 3991 H 358.809 -2.14298 -2.41405 0
M  V30 3992 H 357.861 -3.75492 -0.609095 0
M  V30 3993 H 359.173 -4.88375 -1.01447 0
M  V30 3994 H 358.327 -5.04869 -3.3644 0
M  V30 3995 H 357.066 -3.83233 -3.01635 0
M  V30 3996 H 356.071 -5.34712 -1.27916 0
M  V30 3997 H 357.296 -6.58686 -1.65255 0
M  V30 3998 H 355.242 -5.48067 -3.60497 0
M  V30 3999 H 355.159 -7.01843 -2.80986 0
M  V30 4000 H 356.427 -6.71447 -3.95953 0
M  V30 4001 N 360.656 0.0484629 -1.57525 0
M  V30 4002 C 361.933 0.777447 -1.79486 0
M  V30 4003 C 362.313 1.94597 -0.818251 0
M  V30 4004 O 361.661 2.28047 0.143767 0
M  V30 4005 C 361.871 1.22864 -3.26658 0
M  V30 4006 C 363.219 1.65251 -3.91123 0
M  V30 4007 O 364.243 1.32372 -3.3069 0
M  V30 4008 O 363.102 2.26207 -4.97486 0
M  V30 4009 H 360.196 0.374357 -0.737419 0
M  V30 4010 H 362.742 0.0267359 -1.69679 0
M  V30 4011 H 361.514 0.393589 -3.89316 0
M  V30 4012 H 361.137 2.03996 -3.41279 0
M  V30 4013 N 362.134 1.5431 0.320358 0
M  V30 4014 C 363.082 1.84647 1.4145 0
M  V30 4015 C 364.076 0.718624 1.53402 0
M  V30 4016 O 365.282 0.902335 1.5575 0
M  V30 4017 H 361.657 0.585349 0.472091 0
M  V30 4018 H 363.628 2.7614 1.13089 0
M  V30 4019 C 362.377 2.09341 2.77617 0
M  V30 4020 H 361.7 2.9559 2.69196 0
M  V30 4021 H 363.14 2.3452 3.53237 0
M  V30 4022 C 361.599 0.885939 3.25043 0
M  V30 4023 O 362.129 0.0967891 4.01583 0
M  V30 4024 N 360.335 0.696682 2.82125 0
M  V30 4025 H 359.882 1.34006 2.2 0
M  V30 4026 H 359.84 -0.109712 3.14209 0
M  V30 4027 N 363.613 -0.582584 1.46437 0
M  V30 4028 C 364.861 -1.33814 1.51453 0
M  V30 4029 C 365.182 -1.94277 0.167792 0
M  V30 4030 O 364.452 -1.78566 -0.805677 0
M  V30 4031 H 363.032 -0.496838 0.557818 0
M  V30 4032 H 365.694 -0.682281 1.82568 0
M  V30 4033 H 364.79 -2.14479 2.26728 0
M  V30 4034 N 365.091 -1.34144 -0.827227 0
M  V30 4035 C 366.337 -1.26446 -1.58554 0
M  V30 4036 C 366.67 0.1664 -1.93486 0
M  V30 4037 O 365.945 1.1107 -1.59667 0
M  V30 4038 C 366.228 -2.15111 -2.8879 0
M  V30 4039 C 366.081 -3.66712 -2.60465 0
M  V30 4040 C 367.4 -2.03311 -3.90324 0
M  V30 4041 H 364.519 -0.46067 -0.575284 0
M  V30 4042 H 367.161 -1.64356 -0.953269 0
M  V30 4043 H 365.311 -1.8291 -3.42748 0
M  V30 4044 H 366.983 -4.09259 -2.1285 0
M  V30 4045 H 365.226 -3.88014 -1.93978 0
M  V30 4046 H 365.897 -4.24112 -3.53317 0
M  V30 4047 H 368.373 -2.31574 -3.45706 0
M  V30 4048 H 367.249 -2.67582 -4.79261 0
M  V30 4049 H 367.51 -1.00879 -4.30437 0
M  V30 4050 N 366.569 1.04691 -1.17803 0
M  V30 4051 C 367.501 2.12571 -0.857097 0
M  V30 4052 C 368.514 1.62174 0.142647 0
M  V30 4053 O 369.703 1.78301 -0.0843387 0
M  V30 4054 C 366.803 3.37915 -0.258216 0
M  V30 4055 C 365.976 4.1757 -1.30207 0
M  V30 4056 C 365.035 5.2125 -0.720029 0
M  V30 4057 O 364.061 5.51888 -1.39314 0
M  V30 4058 N 365.263 5.78466 0.485507 0
M  V30 4059 H 368.028 2.40698 -1.78562 0
M  V30 4060 H 365.589 1.20831 -1.07757 0
M  V30 4061 H 367.581 4.04442 0.144584 0
M  V30 4062 H 366.151 3.07281 0.574199 0
M  V30 4063 H 365.371 3.46458 -1.88043 0
M  V30 4064 H 366.659 4.67586 -2.00601 0
M  V30 4065 H 366.057 5.55866 1.05022 0
M  V30 4066 H 364.614 6.4649 0.830307 0
M  V30 4067 N 368.047 0.979072 1.23499 0
M  V30 4068 C 369.294 0.647219 1.91878 0
M  V30 4069 C 369.622 -0.819074 1.76413 0
M  V30 4070 O 368.877 -1.60616 1.11808 0
M  V30 4071 C 369.176 0.981932 3.43646 0
M  V30 4072 C 368.842 2.43822 3.79291 0
M  V30 4073 C 367.504 2.83622 3.88731 0
M  V30 4074 C 369.856 3.3828 3.96505 0
M  V30 4075 C 367.184 4.16897 4.12812 0
M  V30 4076 C 369.536 4.71197 4.22085 0
M  V30 4077 C 368.2 5.10758 4.29747 0
M  V30 4078 H 367.47 0.236834 0.702133 0
M  V30 4079 H 370.117 1.23268 1.46551 0
M  V30 4080 H 368.422 0.314365 3.90537 0
M  V30 4081 H 370.119 0.703395 3.94783 0
M  V30 4082 H 366.709 2.11966 3.72516 0
M  V30 4083 H 370.893 3.0871 3.88603 0
M  V30 4084 H 366.149 4.47157 4.16966 0
M  V30 4085 H 370.323 5.44348 4.34348 0
M  V30 4086 H 367.95 6.1405 4.48159 0
M  V30 4087 N 369.525 -1.3858 0.750561 0
M  V30 4088 C 370.773 -1.99789 0.30477 0
M  V30 4089 C 371.094 -1.59874 -1.11649 0
M  V30 4090 O 370.364 -0.85417 -1.76297 0
M  V30 4091 H 368.944 -0.738902 0.109694 0
M  V30 4092 H 371.606 -1.69391 0.963983 0
M  V30 4093 H 370.702 -3.09952 0.365499 0
M  V30 4094 N 371.003 -0.499398 -1.49478 0
M  V30 4095 C 371.933 0.269244 -2.31943 0
M  V30 4096 C 372.914 0.964054 -1.40143 0
M  V30 4097 O 374.099 0.955767 -1.69052 0
M  V30 4098 C 371.229 1.33504 -3.20615 0
M  V30 4099 C 370.183 0.760202 -4.21195 0
M  V30 4100 C 369.509 1.9264 -4.98792 0
M  V30 4101 C 370.809 -0.247661 -5.21712 0
M  V30 4102 H 372.503 -0.419082 -2.96452 0
M  V30 4103 H 370.049 -0.202988 -1.42562 0
M  V30 4104 H 372.002 1.88048 -3.77115 0
M  V30 4105 H 370.726 2.05253 -2.54045 0
M  V30 4106 H 369.385 0.23653 -3.65836 0
M  V30 4107 H 369.033 2.63154 -4.28671 0
M  V30 4108 H 368.733 1.54785 -5.66847 0
M  V30 4109 H 370.257 2.4762 -5.58137 0
M  V30 4110 H 371.671 0.209579 -5.72917 0
M  V30 4111 H 370.068 -0.541962 -5.97648 0
M  V30 4112 H 371.138 -1.16409 -4.7072 0
M  V30 4113 N 372.481 1.55866 -0.233164 0
M  V30 4114 C 373.73 1.97779 0.39579 0
M  V30 4115 C 374.043 1.12419 1.60066 0
M  V30 4116 O 375.249 1.44283 2.29988 0
M  V30 4117 C 373.705 3.5188 0.755556 0
M  V30 4118 C 373.313 4.45959 -0.427152 0
M  V30 4119 C 375.057 4.02479 1.34946 0
M  V30 4120 C 372.964 5.91383 -0.0443043 0
M  V30 4121 H 371.894 0.738592 0.15165 0
M  V30 4122 H 374.545 1.80486 -0.331212 0
M  V30 4123 H 372.927 3.64816 1.5403 0
M  V30 4124 H 374.101 4.44776 -1.20462 0
M  V30 4125 H 372.416 4.05765 -0.935068 0
M  V30 4126 H 375.013 5.08637 1.649 0
M  V30 4127 H 375.356 3.49014 2.26925 0
M  V30 4128 H 375.889 3.92813 0.62791 0
M  V30 4129 H 372.628 6.48857 -0.930874 0
M  V30 4130 H 372.148 5.95734 0.697238 0
M  V30 4131 H 373.827 6.45893 0.378334 0
M  V30 4132 N 373.959 -0.0401083 1.57549 0
M  V30 4133 C 375.187 -0.745196 1.93014 0
M  V30 4134 C 375.602 -1.6948 0.831984 0
M  V30 4135 O 374.959 -1.81482 -0.192463 0
M  V30 4136 C 375.01 -1.51176 3.28372 0
M  V30 4137 O 374.731 -0.600284 4.33968 0
M  V30 4138 C 376.232 -2.315 3.78051 0
M  V30 4139 H 373.452 -0.210088 0.637263 0
M  V30 4140 H 375.996 -0.000924689 2.045 0
M  V30 4141 H 374.151 -2.20801 3.18317 0
M  V30 4142 H 374.565 -1.13669 5.12035 0
M  V30 4143 H 376.039 -2.80697 4.75303 0
M  V30 4144 H 376.516 -3.12436 3.08675 0
M  V30 4145 H 377.122 -1.66971 3.91153 0
M  V30 4146 N 375.437 -1.54477 -0.31217 0
M  V30 4147 C 376.662 -1.77526 -1.07235 0
M  V30 4148 C 377.087 -0.527775 -1.80544 0
M  V30 4149 O 376.445 0.52121 -1.73646 0
M  V30 4150 C 376.493 -2.97535 -2.03728 0
M  V30 4151 O 375.597 -2.69878 -3.11833 0
M  V30 4152 H 374.938 -0.58792 -0.30862 0
M  V30 4153 H 377.468 -2.01532 -0.352993 0
M  V30 4154 H 377.478 -3.25198 -2.46395 0
M  V30 4155 H 376.153 -3.87996 -1.49774 0
M  V30 4156 H 374.73 -2.53199 -2.7376 0
M  V30 4157 N 376.915 0.57481 -1.46744 0
M  V30 4158 C 378.161 1.3347 -1.52688 0
M  V30 4159 C 378.494 1.93353 -0.181229 0
M  V30 4160 O 377.769 1.76912 0.808237 0
M  V30 4161 C 378.052 2.45811 -2.63152 0
M  V30 4162 C 377.905 1.90912 -4.07275 0
M  V30 4163 C 379.224 3.47822 -2.69644 0
M  V30 4164 H 376.343 0.483935 -0.555856 0
M  V30 4165 H 378.985 0.644968 -1.78718 0
M  V30 4166 H 377.135 3.04646 -2.41088 0
M  V30 4167 H 378.807 1.36473 -4.4065 0
M  V30 4168 H 377.05 1.21691 -4.16382 0
M  V30 4169 H 377.721 2.72042 -4.80309 0
M  V30 4170 H 380.197 2.9888 -2.895 0
M  V30 4171 H 379.073 4.23876 -3.48742 0
M  V30 4172 H 379.334 4.05555 -1.76005 0
M  V30 4173 N 378.394 1.34581 0.820102 0
M  V30 4174 C 379.619 1.30333 1.61332 0
M  V30 4175 C 380.044 -0.119339 1.87721 0
M  V30 4176 O 379.402 -1.08197 1.45475 0
M  V30 4177 C 379.45 2.10258 2.92957 0
M  V30 4178 O 378.554 1.47404 3.85157 0
M  V30 4179 H 377.895 0.447488 0.490561 0
M  V30 4180 H 380.425 1.77425 1.01889 0
M  V30 4181 H 380.435 2.21718 3.42498 0
M  V30 4182 H 379.11 3.13693 2.73074 0
M  V30 4183 H 377.687 1.44703 3.43679 0
M  V30 4184 N 379.872 -1.04064 1.18357 0
M  V30 4185 C 380.804 -2.12114 0.868358 0
M  V30 4186 C 381.817 -1.62247 -0.134045 0
M  V30 4187 O 383.006 -1.78253 0.0937933 0
M  V30 4188 C 380.106 -3.37773 0.276132 0
M  V30 4189 C 379.279 -4.16874 1.3242 0
M  V30 4190 C 378.338 -5.20861 0.747662 0
M  V30 4191 O 377.364 -5.51141 1.42239 0
M  V30 4192 N 378.566 -5.78715 -0.454823 0
M  V30 4193 H 381.331 -2.39748 1.79836 0
M  V30 4194 H 378.892 -1.20258 1.08396 0
M  V30 4195 H 380.884 -4.04513 -0.123133 0
M  V30 4196 H 379.454 -3.07581 -0.557895 0
M  V30 4197 H 378.674 -3.45456 1.89878 0
M  V30 4198 H 379.962 -4.66516 2.03078 0
M  V30 4199 H 379.36 -5.56415 -1.02073 0
M  V30 4200 H 377.917 -6.46921 -0.79601 0
M  V30 4201 N 381.35 -0.985608 -1.22978 0
M  V30 4202 C 382.575 -0.675254 -1.961 0
M  V30 4203 C 383 0.752154 -1.72407 0
M  V30 4204 O 382.358 1.5131 -0.998751 0
M  V30 4205 C 382.406 -0.977899 -3.47087 0
M  V30 4206 O 381.51 -0.072685 -4.12336 0
M  V30 4207 H 380.851 -0.253443 -0.613728 0
M  V30 4208 H 383.381 -1.32061 -1.56272 0
M  V30 4209 H 383.391 -0.916739 -3.97567 0
M  V30 4210 H 382.066 -2.01807 -3.63657 0
M  V30 4211 H 380.643 -0.188703 -3.72422 0
M  V30 4212 N 382.828 1.3818 -0.7579 0
M  V30 4213 C 384.075 2.00019 -0.315985 0
M  V30 4214 C 384.403 1.60163 1.10355 0
M  V30 4215 O 383.658 0.83264 1.77103 0
M  V30 4216 C 383.957 3.55252 -0.391218 0
M  V30 4217 C 383.623 4.14834 -1.76702 0
M  V30 4218 C 382.285 4.30821 -2.14353 0
M  V30 4219 C 384.637 4.47658 -2.66931 0
M  V30 4220 C 381.965 4.76928 -3.41696 0
M  V30 4221 C 384.317 4.95184 -3.93669 0
M  V30 4222 C 382.981 5.09377 -4.31383 0
M  V30 4223 H 382.251 0.731923 -0.115627 0
M  V30 4224 H 384.898 1.65161 -0.969223 0
M  V30 4225 H 383.203 3.90273 0.34558 0
M  V30 4226 H 384.9 4.00988 -0.030805 0
M  V30 4227 H 381.49 4.02808 -1.46435 0
M  V30 4228 H 385.674 4.34904 -2.39106 0
M  V30 4229 H 380.93 4.86103 -3.70829 0
M  V30 4230 H 385.104 5.19551 -4.63724 0
M  V30 4231 H 382.731 5.44865 -5.30119 0
M  V30 4232 N 384.306 0.507319 1.49211 0
M  V30 4233 C 385.546 -0.0332372 2.04373 0
M  V30 4234 C 385.91 -1.33694 1.37804 0
M  V30 4235 O 387.111 -1.96213 1.83722 0
M  V30 4236 C 385.382 -0.17599 3.56966 0
M  V30 4237 S 386.941 -0.669882 4.33657 0
M  V30 4238 H 383.759 0.00123603 0.710999 0
M  V30 4239 H 386.361 0.682725 1.83191 0
M  V30 4240 H 385.065 0.778053 4.02957 0
M  V30 4241 H 384.596 -0.917005 3.82563 0
M  V30 4242 H 386.611 -1.93806 4.56786 0
M  V30 4243 N 385.784 -1.5574 0.241426 0
M  V30 4244 C 387.009 -2.0366 -0.392111 0
M  V30 4245 C 387.434 -1.11969 -1.51144 0
M  V30 4246 O 386.792 -0.111594 -1.80956 0
M  V30 4247 C 386.84 -3.49638 -0.882371 0
M  V30 4248 O 385.944 -3.6108 -1.99235 0
M  V30 4249 H 385.285 -0.658379 -0.0862122 0
M  V30 4250 H 387.815 -2.01302 0.365881 0
M  V30 4251 H 387.825 -3.90351 -1.18702 0
M  V30 4252 H 386.5 -4.15852 -0.0632361 0
M  V30 4253 H 385.077 -3.32262 -1.69282 0
M  V30 4254 N 387.262 0.0317525 -1.57568 0
M  V30 4255 C 388.49 0.734949 -1.93407 0
M  V30 4256 C 388.905 1.69036 -0.84096 0
M  V30 4257 O 388.262 1.81582 0.182836 0
M  V30 4258 C 388.313 1.49432 -3.29169 0
M  V30 4259 O 388.034 0.577261 -4.3428 0
M  V30 4260 C 389.535 2.29492 -3.79273 0
M  V30 4261 H 386.755 0.206706 -0.638368 0
M  V30 4262 H 389.299 -0.00992046 -2.04498 0
M  V30 4263 H 387.454 2.1911 -3.19483 0
M  V30 4264 H 387.868 1.10952 -5.1263 0
M  V30 4265 H 389.342 2.78172 -4.76785 0
M  V30 4266 H 389.819 3.10794 -3.10328 0
M  V30 4267 H 390.425 1.64894 -3.92033 0
M  V30 4268 N 388.74 1.54641 0.303973 0
M  V30 4269 C 389.98 1.75516 1.04755 0
M  V30 4270 C 390.344 0.528211 1.84591 0
M  V30 4271 O 391.545 0.614645 2.61678 0
M  V30 4272 C 389.816 3.00685 1.93193 0
M  V30 4273 S 391.375 3.42549 2.74237 0
M  V30 4274 H 388.193 0.616987 0.353339 0
M  V30 4275 H 390.795 1.92842 0.321292 0
M  V30 4276 H 389.499 3.8811 1.33411 0
M  V30 4277 H 389.03 2.85937 2.70191 0
M  V30 4278 H 391.045 2.99386 3.95705 0
M  V30 4279 N 390.218 -0.567019 1.47046 0
M  V30 4280 C 391.446 -1.35027 1.56765 0
M  V30 4281 C 391.861 -1.8758 0.214316 0
M  V30 4282 O 391.218 -1.64471 -0.790919 0
M  V30 4283 C 391.269 -2.52698 2.58507 0
M  V30 4284 O 390.99 -2.0232 3.88585 0
M  V30 4285 C 392.491 -3.45043 2.78316 0
M  V30 4286 H 389.711 -0.41195 0.529658 0
M  V30 4287 H 392.255 -0.687832 1.92585 0
M  V30 4288 H 390.41 -3.149 2.25648 0
M  V30 4289 H 390.824 -2.79068 4.44096 0
M  V30 4290 H 392.298 -4.2405 3.53391 0
M  V30 4291 H 392.775 -3.97971 1.85784 0
M  V30 4292 H 393.381 -2.88665 3.12334 0
M  V30 4293 N 391.696 -1.35014 -0.812953 0
M  V30 4294 C 393.112 -1.14914 -1.10757 0
M  V30 4295 C 393.312 0.0426818 -2.01455 0
M  V30 4296 O 392.368 0.715212 -2.42159 0
M  V30 4297 C 393.681 -2.44911 -1.74468 0
M  V30 4298 C 395.229 -2.5106 -1.86917 0
M  V30 4299 C 395.704 -3.81085 -2.54044 0
M  V30 4300 N 397.195 -3.82301 -2.61535 0
M  V30 4301 C 397.93 -4.79634 -3.14227 0
M  V30 4302 N 397.426 -5.87353 -3.67407 0
M  V30 4303 N 399.219 -4.67078 -3.12721 0
M  V30 4304 H 391.37 -2.1136 -0.20989 0
M  V30 4305 H 393.633 -0.935128 -0.155692 0
M  V30 4306 H 393.339 -3.32267 -1.15289 0
M  V30 4307 H 393.213 -2.58989 -2.74234 0
M  V30 4308 H 395.6 -1.64137 -2.45241 0
M  V30 4309 H 395.681 -2.40901 -0.860242 0
M  V30 4310 H 395.325 -4.68402 -1.96372 0
M  V30 4311 H 395.255 -3.88529 -3.55461 0
M  V30 4312 H 397.746 -3.04465 -2.23851 0
M  V30 4313 H 398.059 -6.57624 -4.05894 0
M  V30 4314 H 396.404 -5.91054 -3.65623 0
M  V30 4315 H 399.595 -3.82067 -2.70449 0
M  V30 4316 H 399.768 -5.43098 -3.53481 0
M  V30 4317 N 393.175 1.03435 -1.18907 0
M  V30 4318 C 394.138 2.09756 -0.923844 0
M  V30 4319 C 395.138 1.60528 0.093416 0
M  V30 4320 O 396.328 1.73631 -0.140727 0
M  V30 4321 C 393.46 3.38692 -0.387354 0
M  V30 4322 H 394.653 2.34719 -1.86674 0
M  V30 4323 H 392.206 1.19959 -1.00197 0
M  V30 4324 H 392.941 3.19396 0.561845 0
M  V30 4325 H 392.726 3.75742 -1.12074 0
M  V30 4326 H 394.216 4.17016 -0.220694 0
M  V30 4327 N 394.653 0.992116 1.22453 0
M  V30 4328 C 396.069 0.702713 1.43297 0
M  V30 4329 C 396.269 -0.726909 1.87932 0
M  V30 4330 O 395.325 -1.49792 2.0327 0
M  V30 4331 C 396.638 1.70762 2.47509 0
M  V30 4332 C 398.186 1.72298 2.61309 0
M  V30 4333 C 398.661 2.71649 3.68742 0
M  V30 4334 N 400.152 2.70239 3.76199 0
M  V30 4335 C 400.887 3.43778 4.58917 0
M  V30 4336 N 400.383 4.26914 5.45633 0
M  V30 4337 N 402.176 3.32487 4.5322 0
M  V30 4338 H 394.327 1.91543 0.917871 0
M  V30 4339 H 396.59 0.826031 0.465162 0
M  V30 4340 H 396.296 2.73059 2.21657 0
M  V30 4341 H 396.17 1.49985 3.46099 0
M  V30 4342 H 398.557 0.706989 2.86506 0
M  V30 4343 H 398.638 1.97143 1.62997 0
M  V30 4344 H 398.282 3.73397 3.44292 0
M  V30 4345 H 398.212 2.44074 4.66622 0
M  V30 4346 H 400.703 2.09912 3.14237 0
M  V30 4347 H 401.016 4.79855 6.05771 0
M  V30 4348 H 399.361 4.31002 5.45218 0
M  V30 4349 H 402.552 2.6698 3.84499 0
M  V30 4350 H 402.725 3.90058 5.17454 0
M  V30 4351 N 396.131 -1.37776 0.765217 0
M  V30 4352 C 397.061 -2.32945 0.160953 0
M  V30 4353 C 398.042 -1.55454 -0.690516 0
M  V30 4354 O 399.227 -1.83721 -0.629318 0
M  V30 4355 C 396.357 -3.39669 -0.724031 0
M  V30 4356 C 395.311 -4.27992 0.0256173 0
M  V30 4357 C 394.637 -5.25673 -0.978383 0
M  V30 4358 C 395.937 -5.08309 1.20082 0
M  V30 4359 H 397.631 -2.83728 0.955969 0
M  V30 4360 H 395.177 -1.36416 0.461149 0
M  V30 4361 H 397.13 -4.05219 -1.15652 0
M  V30 4362 H 395.854 -2.87396 -1.5515 0
M  V30 4363 H 394.513 -3.63964 0.438812 0
M  V30 4364 H 394.161 -4.69682 -1.80022 0
M  V30 4365 H 393.861 -5.85625 -0.481378 0
M  V30 4366 H 395.385 -5.94098 -1.40995 0
M  V30 4367 H 396.799 -5.67034 0.845307 0
M  V30 4368 H 395.196 -5.77554 1.62947 0
M  V30 4369 H 396.266 -4.41365 2.00811 0
M  V30 4370 N 397.609 -0.515225 -1.4894 0
M  V30 4371 C 398.834 0.022727 -2.07388 0
M  V30 4372 C 399.259 1.2876 -1.37122 0
M  V30 4373 O 398.617 1.76067 -0.432431 0
M  V30 4374 C 398.665 0.244869 -3.59768 0
M  V30 4375 O 397.769 1.31667 -3.90817 0
M  V30 4376 H 397.11 -0.0325506 -0.663202 0
M  V30 4377 H 399.64 -0.718918 -1.91553 0
M  V30 4378 H 399.65 0.47205 -4.0526 0
M  V30 4379 H 398.325 -0.679194 -4.10317 0
M  V30 4380 H 396.902 1.07331 -3.5712 0
M  V30 4381 N 399.087 1.5561 -0.249682 0
M  V30 4382 C 400.312 2.03865 0.381305 0
M  V30 4383 C 400.737 1.12769 1.50548 0
M  V30 4384 O 400.095 0.121189 1.80895 0
M  V30 4385 C 400.143 3.50101 0.863816 0
M  V30 4386 O 399.247 3.62132 1.97318 0
M  V30 4387 H 398.588 0.658827 0.0827194 0
M  V30 4388 H 401.118 2.01105 -0.376552 0
M  V30 4389 H 401.128 3.90975 1.1663 0
M  V30 4390 H 399.803 4.1588 0.0411816 0
M  V30 4391 H 398.38 3.33155 1.67517 0
M  V30 4392 N 400.565 -0.0233959 1.57583 0
M  V30 4393 C 401.842 -0.748794 1.807 0
M  V30 4394 C 402.222 -1.9327 0.849106 0
M  V30 4395 O 401.57 -2.28247 -0.107468 0
M  V30 4396 C 401.78 -1.17651 3.28571 0
M  V30 4397 C 403.128 -1.59008 3.93702 0
M  V30 4398 O 404.152 -1.27094 3.32755 0
M  V30 4399 O 403.011 -2.18264 5.01022 0
M  V30 4400 H 400.105 -0.362578 0.743281 0
M  V30 4401 H 402.651 0.000261958 1.697 0
M  V30 4402 H 401.423 -0.331603 3.89892 0
M  V30 4403 H 401.046 -1.98541 3.44481 0
M  V30 4404 N 402.043 -1.548 -0.295768 0
M  V30 4405 C 403.291 -1.73985 -1.02828 0
M  V30 4406 C 403.612 -0.531406 -1.87619 0
M  V30 4407 O 402.882 0.454221 -1.90561 0
M  V30 4408 H 401.462 -0.641556 -0.382642 0
M  V30 4409 H 404.124 -1.92163 -0.325489 0
M  V30 4410 H 403.22 -2.63129 -1.67838 0
M  V30 4411 N 403.521 0.559213 -1.47345 0
M  V30 4412 C 404.468 1.66645 -1.59682 0
M  V30 4413 C 405.438 1.60168 -0.43994 0
M  V30 4414 O 406.623 1.79031 -0.659736 0
M  V30 4415 C 403.763 3.04969 -1.61518 0
M  V30 4416 C 402.876 3.21897 -2.88108 0
M  V30 4417 C 402.011 4.50608 -2.81294 0
M  V30 4418 C 401.05 4.60961 -4.02717 0
M  V30 4419 N 400.187 5.81024 -3.94151 0
M  V30 4420 H 405.027 1.55439 -2.54249 0
M  V30 4421 H 402.564 0.757219 -1.26113 0
M  V30 4422 H 404.522 3.85064 -1.60566 0
M  V30 4423 H 403.152 3.15015 -0.704645 0
M  V30 4424 H 402.204 2.35248 -2.98936 0
M  V30 4425 H 403.516 3.25412 -3.78032 0
M  V30 4426 H 402.67 5.3896 -2.7858 0
M  V30 4427 H 401.409 4.49568 -1.89049 0
M  V30 4428 H 400.414 3.71021 -4.05738 0
M  V30 4429 H 401.639 4.63761 -4.96087 0
M  V30 4430 H 399.585 5.80938 -3.04708 0
M  V30 4431 H 399.502 5.85909 -4.77752 0
M  V30 4432 H 400.77 6.71744 -3.9545 0
M  V30 4433 N 404.999 1.35443 0.805782 0
M  V30 4434 C 406.246 1.28761 1.56291 0
M  V30 4435 C 406.574 -0.137747 1.94012 0
M  V30 4436 O 405.829 -1.1032 1.61642 0
M  V30 4437 C 406.128 2.14045 2.86216 0
M  V30 4438 C 405.794 3.62826 2.67709 0
M  V30 4439 C 404.456 4.0338 2.6237 0
M  V30 4440 C 406.808 4.57227 2.50186 0
M  V30 4441 C 404.136 5.36501 2.37451 0
M  V30 4442 C 406.488 5.90547 2.26797 0
M  V30 4443 C 405.152 6.30245 2.1988 0
M  V30 4444 H 404.422 0.471171 0.571908 0
M  V30 4445 H 407.069 1.67347 0.930974 0
M  V30 4446 H 405.374 1.68342 3.53791 0
M  V30 4447 H 407.071 2.0621 3.43917 0
M  V30 4448 H 403.661 3.30644 2.72713 0
M  V30 4449 H 407.845 4.2678 2.53323 0
M  V30 4450 H 403.101 5.66259 2.30567 0
M  V30 4451 H 407.275 6.63274 2.12228 0
M  V30 4452 H 404.902 7.33328 2.00333 0
M  V30 4453 N 406.477 -1.02803 1.19454 0
M  V30 4454 C 407.707 -1.79581 1.02149 0
M  V30 4455 C 408.115 -1.84182 -0.432851 0
M  V30 4456 O 407.458 -1.28534 -1.31243 0
M  V30 4457 C 407.52 -3.25993 1.51554 0
M  V30 4458 C 407.184 -3.45025 2.99678 0
M  V30 4459 C 408.181 -3.35175 3.97434 0
M  V30 4460 C 405.866 -3.71212 3.38389 0
M  V30 4461 C 407.86 -3.51238 5.31893 0
M  V30 4462 C 405.547 -3.8692 4.73008 0
M  V30 4463 C 406.545 -3.76936 5.69569 0
M  V30 4464 O 406.233 -3.92179 7.01748 0
M  V30 4465 H 405.965 -0.571962 0.360327 0
M  V30 4466 H 408.519 -1.30367 1.58725 0
M  V30 4467 H 406.749 -3.76235 0.893543 0
M  V30 4468 H 408.438 -3.84368 1.30444 0
M  V30 4469 H 409.204 -3.14895 3.68872 0
M  V30 4470 H 405.083 -3.78075 2.6378 0
M  V30 4471 H 408.627 -3.43362 6.07247 0
M  V30 4472 H 404.524 -4.06699 5.01265 0
M  V30 4473 H 405.292 -4.09265 7.08833 0
M  V30 4474 N 407.956 -0.998596 -1.21925 0
M  V30 4475 C 409.204 -0.676325 -1.90448 0
M  V30 4476 C 409.525 0.794719 -1.78071 0
M  V30 4477 O 408.795 1.5701 -1.17152 0
M  V30 4478 H 407.375 -0.247165 -0.704925 0
M  V30 4479 H 410.037 -1.26633 -1.48156 0
M  V30 4480 H 409.133 -0.943858 -2.97486 0
M  V30 4481 N 409.434 1.37368 -0.772513 0
M  V30 4482 C 410.674 2.01512 -0.342361 0
M  V30 4483 C 411.038 1.59997 1.06136 0
M  V30 4484 O 412.239 2.16609 1.59167 0
M  V30 4485 C 410.51 3.54134 -0.482048 0
M  V30 4486 S 412.069 4.38585 -0.137272 0
M  V30 4487 H 408.887 0.698699 -0.131686 0
M  V30 4488 H 411.489 1.67552 -1.0073 0
M  V30 4489 H 410.193 3.81837 -1.50428 0
M  V30 4490 H 409.724 3.92894 0.199413 0
M  V30 4491 H 411.739 4.84594 1.06692 0
M  V30 4492 N 410.912 0.523116 1.48665 0
M  V30 4493 C 411.842 -0.23231 2.32342 0
M  V30 4494 C 412.823 -0.941637 1.41659 0
M  V30 4495 O 414.008 -0.928751 1.70552 0
M  V30 4496 C 411.138 -1.28387 3.22698 0
M  V30 4497 C 410.092 -0.693098 4.22351 0
M  V30 4498 C 409.418 -1.8468 5.01794 0
M  V30 4499 C 410.718 0.33063 5.21252 0
M  V30 4500 H 412.412 0.466192 2.95748 0
M  V30 4501 H 409.958 0.225643 1.42221 0
M  V30 4502 H 411.911 -1.82024 3.80059 0
M  V30 4503 H 410.635 -2.01186 2.57278 0
M  V30 4504 H 409.294 -0.178299 3.66166 0
M  V30 4505 H 408.942 -2.56301 4.32804 0
M  V30 4506 H 408.642 -1.45747 5.69238 0
M  V30 4507 H 410.166 -2.38709 5.62006 0
M  V30 4508 H 411.58 -0.118407 5.73178 0
M  V30 4509 H 409.977 0.636974 5.9671 0
M  V30 4510 H 411.047 1.23883 4.68808 0
M  V30 4511 N 412.39 -1.55475 0.257931 0
M  V30 4512 C 413.637 -1.99207 -0.363728 0
M  V30 4513 C 413.965 -1.1462 -1.57139 0
M  V30 4514 O 413.22 -0.199653 -1.94679 0
M  V30 4515 C 413.519 -3.48183 -0.806433 0
M  V30 4516 C 413.185 -4.49936 0.294684 0
M  V30 4517 C 411.847 -4.77481 0.597076 0
M  V30 4518 C 414.199 -5.10769 1.03751 0
M  V30 4519 C 411.527 -5.63132 1.64618 0
M  V30 4520 C 413.879 -5.97558 2.07622 0
M  V30 4521 C 412.543 -6.23432 2.38514 0
M  V30 4522 H 411.813 -0.728949 -0.133097 0
M  V30 4523 H 414.46 -1.8793 0.368059 0
M  V30 4524 H 412.765 -3.56848 -1.61761 0
M  V30 4525 H 414.462 -3.79415 -1.29789 0
M  V30 4526 H 411.052 -4.28572 0.0488649 0
M  V30 4527 H 415.236 -4.89527 0.817149 0
M  V30 4528 H 410.492 -5.8143 1.89074 0
M  V30 4529 H 414.666 -6.43735 2.65666 0
M  V30 4530 H 412.293 -6.89594 3.19943 0
M  V30 4531 N 413.868 0.0150385 -1.57593 0
M  V30 4532 C 414.831 0.995996 -2.06428 0
M  V30 4533 C 415.831 1.2818 -0.970903 0
M  V30 4534 O 417.021 1.22949 -1.23406 0
M  V30 4535 C 414.153 2.32506 -2.49307 0
M  V30 4536 H 415.346 0.573873 -2.94358 0
M  V30 4537 H 412.899 0.262186 -1.54085 0
M  V30 4538 H 413.634 2.79438 -1.64575 0
M  V30 4539 H 413.419 2.13087 -3.29145 0
M  V30 4540 H 414.909 3.02906 -2.87468 0
M  V30 4541 N 415.346 1.54954 0.287554 0
M  V30 4542 C 416.574 1.78881 1.03967 0
M  V30 4543 C 416.989 0.554894 1.80462 0
M  V30 4544 O 416.346 -0.475676 1.76192 0
M  V30 4545 C 416.397 3.00488 2.0097 0
M  V30 4546 O 416.118 4.19113 1.27577 0
M  V30 4547 C 417.619 3.36907 2.88112 0
M  V30 4548 H 414.839 0.596259 0.307761 0
M  V30 4549 H 417.383 2.01937 0.322749 0
M  V30 4550 H 415.538 2.79601 2.68145 0
M  V30 4551 H 415.952 4.87765 1.92835 0
M  V30 4552 H 417.426 4.25205 3.52001 0
M  V30 4553 H 417.903 2.55659 3.57121 0
M  V30 4554 H 418.509 3.60001 2.26449 0
M  V30 4555 N 416.824 -0.551391 1.4764 0
M  V30 4556 C 418.07 -1.31024 1.54792 0
M  V30 4557 C 418.403 -1.9304 0.211967 0
M  V30 4558 O 417.678 -1.78175 -0.77999 0
M  V30 4559 C 417.961 -2.41593 2.67029 0
M  V30 4560 C 417.814 -1.84408 4.10261 0
M  V30 4561 C 419.133 -3.43488 2.75143 0
M  V30 4562 H 416.252 -0.475031 0.563485 0
M  V30 4563 H 418.894 -0.616454 1.79722 0
M  V30 4564 H 417.044 -3.00772 2.45904 0
M  V30 4565 H 418.716 -1.29445 4.42766 0
M  V30 4566 H 416.959 -1.15051 4.18265 0
M  V30 4567 H 417.63 -2.64367 4.84576 0
M  V30 4568 H 420.106 -2.94236 2.94218 0
M  V30 4569 H 418.982 -4.18274 3.55441 0
M  V30 4570 H 419.243 -4.02703 1.82435 0
M  V30 4571 N 418.302 -1.35869 -0.798587 0
M  V30 4572 C 419.579 -1.20145 -1.54352 0
M  V30 4573 C 419.959 0.216161 -2.0999 0
M  V30 4574 O 419.307 1.22068 -1.93162 0
M  V30 4575 C 419.517 -2.27602 -2.64572 0
M  V30 4576 C 420.865 -2.63811 -3.32699 0
M  V30 4577 O 421.889 -2.26576 -2.74849 0
M  V30 4578 O 420.748 -3.27866 -4.37226 0
M  V30 4579 H 417.842 -0.467248 -0.682355 0
M  V30 4580 H 420.388 -1.47574 -0.837859 0
M  V30 4581 H 419.16 -3.2265 -2.21388 0
M  V30 4582 H 418.783 -2.01488 -3.42766 0
M  V30 4583 N 419.78 1.02168 -1.19998 0
M  V30 4584 C 421.028 1.75338 -1.00504 0
M  V30 4585 C 421.349 1.89387 0.464506 0
M  V30 4586 O 420.619 1.43268 1.33608 0
M  V30 4587 H 419.199 0.649564 -0.368885 0
M  V30 4588 H 421.861 1.23205 -1.51018 0
M  V30 4589 H 420.957 2.75892 -1.45912 0
M  V30 4590 N 421.258 1.00505 1.21394 0
M  V30 4591 C 422.505 0.687774 1.90462 0
M  V30 4592 C 422.833 -0.78147 1.7811 0
M  V30 4593 O 422.088 -1.58208 1.1519 0
M  V30 4594 C 422.387 1.0546 3.41486 0
M  V30 4595 C 422.053 2.51812 3.74034 0
M  V30 4596 C 420.715 2.91804 3.82628 0
M  V30 4597 C 423.067 3.46614 3.8924 0
M  V30 4598 C 420.395 4.2556 4.03876 0
M  V30 4599 C 422.747 4.80044 4.11995 0
M  V30 4600 C 421.411 5.19759 4.18816 0
M  V30 4601 H 420.681 0.251674 0.696951 0
M  V30 4602 H 423.328 1.26349 1.43903 0
M  V30 4603 H 421.633 0.397133 3.89782 0
M  V30 4604 H 423.33 0.786976 3.93202 0
M  V30 4605 H 419.92 2.1982 3.67936 0
M  V30 4606 H 424.104 3.16883 3.81967 0
M  V30 4607 H 419.36 4.55901 4.07387 0
M  V30 4608 H 423.534 5.53439 4.22704 0
M  V30 4609 H 421.161 6.23418 4.35033 0
M  V30 4610 N 422.737 -1.36956 0.779787 0
M  V30 4611 C 423.685 -2.32053 0.15942 0
M  V30 4612 C 424.679 -1.55333 -0.675878 0
M  V30 4613 O 425.885 -1.70668 -0.57204 0
M  V30 4614 H 422.26 -0.751286 0.0327707 0
M  V30 4615 H 424.231 -2.8195 0.977078 0
M  V30 4616 C 422.98 -3.40602 -0.698977 0
M  V30 4617 H 422.303 -3.99746 -0.0655966 0
M  V30 4618 H 423.743 -4.09486 -1.09989 0
M  V30 4619 C 422.202 -2.81359 -1.85307 0
M  V30 4620 O 422.732 -2.72751 -2.94906 0
M  V30 4621 N 420.938 -2.38786 -1.65619 0
M  V30 4622 H 420.485 -2.45987 -0.764725 0
M  V30 4623 H 420.443 -1.99493 -2.43002 0
M  V30 4624 N 424.215 -0.530993 -1.48385 0
M  V30 4625 C 425.461 0.00274135 -2.028 0
M  V30 4626 C 425.794 1.33838 -1.40716 0
M  V30 4627 O 425.069 1.86465 -0.553277 0
M  V30 4628 C 425.352 0.123676 -3.59888 0
M  V30 4629 C 425.205 -1.2372 -4.3245 0
M  V30 4630 C 426.524 0.849967 -4.31814 0
M  V30 4631 H 423.643 -0.000477758 -0.737 0
M  V30 4632 H 426.285 -0.688217 -1.77098 0
M  V30 4633 H 424.435 0.712157 -3.81917 0
M  V30 4634 H 426.107 -1.86687 -4.21836 0
M  V30 4635 H 424.35 -1.81882 -3.93829 0
M  V30 4636 H 425.021 -1.10557 -5.40815 0
M  V30 4637 H 427.497 0.350572 -4.14621 0
M  V30 4638 H 426.373 0.903486 -5.41413 0
M  V30 4639 H 426.634 1.90047 -3.99167 0
M  V30 4640 N 425.693 1.55336 -0.266172 0
M  V30 4641 C 426.64 2.22172 0.625165 0
M  V30 4642 C 427.61 1.19211 1.15663 0
M  V30 4643 O 428.795 1.47723 1.20758 0
M  V30 4644 C 425.935 2.93972 1.8076 0
M  V30 4645 C 425.048 4.11632 1.31084 0
M  V30 4646 C 424.183 4.71099 2.45436 0
M  V30 4647 C 423.222 5.8097 1.92718 0
M  V30 4648 N 422.359 6.34538 3.00509 0
M  V30 4649 H 427.199 2.9796 0.0485582 0
M  V30 4650 H 424.736 1.47095 0.0122024 0
M  V30 4651 H 426.694 3.33811 2.50251 0
M  V30 4652 H 425.324 2.20623 2.35638 0
M  V30 4653 H 424.376 3.76975 0.509326 0
M  V30 4654 H 425.688 4.90893 0.884633 0
M  V30 4655 H 424.842 5.13612 3.22936 0
M  V30 4656 H 423.581 3.91096 2.91368 0
M  V30 4657 H 422.586 5.37916 1.13695 0
M  V30 4658 H 423.811 6.62836 1.47733 0
M  V30 4659 H 421.757 5.57433 3.45839 0
M  V30 4660 H 421.674 7.09046 2.62279 0
M  V30 4661 H 422.942 6.81709 3.78011 0
M  V30 4662 N 427.171 -0.0066808 1.57599 0
M  V30 4663 C 428.134 -0.985035 2.06953 0
M  V30 4664 C 429.134 -1.27663 0.977687 0
M  V30 4665 O 430.324 -1.22293 1.24057 0
M  V30 4666 C 427.456 -2.3118 2.50536 0
M  V30 4667 H 428.649 -0.558255 2.94658 0
M  V30 4668 H 426.202 -0.254011 1.54222 0
M  V30 4669 H 426.937 -2.78561 1.66054 0
M  V30 4670 H 426.722 -2.11338 3.3027 0
M  V30 4671 H 428.212 -3.01377 2.8907 0
M  V30 4672 N 428.649 -1.55105 -0.279332 0
M  V30 4673 C 429.896 -1.75412 -1.01177 0
M  V30 4674 C 430.224 -0.551728 -1.86511 0
M  V30 4675 O 429.479 0.465919 -1.90073 0
M  V30 4676 C 429.778 -3.0086 -1.92919 0
M  V30 4677 C 429.444 -4.33689 -1.23387 0
M  V30 4678 C 428.106 -4.69792 -1.04159 0
M  V30 4679 C 430.458 -5.15941 -0.738562 0
M  V30 4680 C 427.786 -5.85707 -0.341166 0
M  V30 4681 C 430.138 -6.32579 -0.0517636 0
M  V30 4682 C 428.802 -6.67326 0.152292 0
M  V30 4683 H 428.072 -0.641879 -0.370233 0
M  V30 4684 H 430.719 -1.89373 -0.284627 0
M  V30 4685 H 429.024 -2.81773 -2.72234 0
M  V30 4686 H 430.721 -3.13768 -2.49701 0
M  V30 4687 H 427.311 -4.05309 -1.39364 0
M  V30 4688 H 431.495 -4.8853 -0.874764 0
M  V30 4689 H 426.751 -6.11157 -0.172287 0
M  V30 4690 H 430.925 -6.9557 0.339828 0
M  V30 4691 H 428.552 -7.56998 0.697014 0
M  V30 4692 N 430.127 0.543554 -1.4793 0
M  V30 4693 C 431.376 1.29649 -1.54512 0
M  V30 4694 C 431.689 1.94382 -0.217973 0
M  V30 4695 O 432.895 2.71017 -0.161908 0
M  V30 4696 C 431.351 2.35175 -2.72435 0
M  V30 4697 C 430.959 1.76572 -4.11736 0
M  V30 4698 C 432.703 3.11564 -2.8832 0
M  V30 4699 C 430.61 2.79958 -5.20939 0
M  V30 4700 H 429.54 0.487541 -0.57517 0
M  V30 4701 H 432.191 0.575708 -1.74235 0
M  V30 4702 H 430.573 3.10229 -2.46118 0
M  V30 4703 H 431.747 1.07799 -4.48013 0
M  V30 4704 H 430.062 1.12722 -4.00852 0
M  V30 4705 H 432.659 3.88794 -3.67074 0
M  V30 4706 H 433.002 3.66594 -1.97268 0
M  V30 4707 H 433.535 2.43623 -3.14472 0
M  V30 4708 H 430.274 2.29766 -6.13912 0
M  V30 4709 H 429.794 3.47101 -4.89164 0
M  V30 4710 H 431.473 3.43198 -5.48474 0
M  V30 4711 N 431.605 1.3629 0.791371 0
M  V30 4712 C 433.021 1.16661 1.08914 0
M  V30 4713 C 433.221 -0.0106266 2.01497 0
M  V30 4714 O 432.277 -0.676596 2.43266 0
M  V30 4715 C 433.59 2.47656 1.70549 0
M  V30 4716 C 435.138 2.54002 1.82899 0
M  V30 4717 C 435.613 3.85078 2.47949 0
M  V30 4718 N 437.104 3.86413 2.5542 0
M  V30 4719 C 437.839 4.84572 3.06557 0
M  V30 4720 N 437.335 5.93124 3.58016 0
M  V30 4721 N 439.128 4.71994 3.05251 0
M  V30 4722 H 431.279 2.11668 0.176238 0
M  V30 4723 H 433.542 0.937486 0.140796 0
M  V30 4724 H 433.248 3.34059 1.09989 0
M  V30 4725 H 433.122 2.63319 2.70079 0
M  V30 4726 H 435.509 1.68018 2.42598 0
M  V30 4727 H 435.59 2.42239 0.821808 0
M  V30 4728 H 435.234 4.71467 1.88895 0
M  V30 4729 H 435.164 3.94135 3.49235 0
M  V30 4730 H 437.655 3.07988 2.18979 0
M  V30 4731 H 437.968 6.63999 3.95381 0
M  V30 4732 H 436.313 5.96796 3.56173 0
M  V30 4733 H 439.504 3.86321 2.64336 0
M  V30 4734 H 439.677 5.48653 3.44796 0
M  V30 4735 N 433.083 -1.0153 1.20538 0
M  V30 4736 C 434.308 -1.79283 1.04271 0
M  V30 4737 C 434.733 -1.8372 -0.403544 0
M  V30 4738 O 434.091 -1.27321 -1.2907 0
M  V30 4739 C 434.139 -3.21535 1.63241 0
M  V30 4740 O 433.243 -4.03099 0.870908 0
M  V30 4741 H 432.584 -0.55293 0.367647 0
M  V30 4742 H 435.114 -1.27696 1.59859 0
M  V30 4743 H 435.124 -3.72243 1.6703 0
M  V30 4744 H 433.799 -3.1762 2.68497 0
M  V30 4745 H 432.376 -3.61693 0.907323 0
M  V30 4746 N 434.561 -1.01147 -1.20859 0
M  V30 4747 C 435.809 -0.696486 -1.89719 0
M  V30 4748 C 436.13 0.775788 -1.78904 0
M  V30 4749 O 435.4 1.55759 -1.18811 0
M  V30 4750 H 433.98 -0.254628 -0.702263 0
M  V30 4751 H 436.642 -1.28197 -1.46804 0
M  V30 4752 H 435.738 -0.975357 -2.96468 0
M  V30 4753 N 436.039 1.36541 -0.78704 0
M  V30 4754 C 437.285 1.99599 -0.358872 0
M  V30 4755 C 437.618 1.62323 1.06606 0
M  V30 4756 O 436.893 0.876858 1.73613 0
M  V30 4757 C 437.176 3.56327 -0.519944 0
M  V30 4758 C 437.029 4.03464 -1.98839 0
M  V30 4759 C 438.348 4.4005 0.0664737 0
M  V30 4760 H 435.467 0.725107 -0.131869 0
M  V30 4761 H 438.109 1.6199 -0.992936 0
M  V30 4762 H 436.259 3.88495 0.0198321 0
M  V30 4763 H 437.931 3.81793 -2.58905 0
M  V30 4764 H 436.174 3.55092 -2.49183 0
M  V30 4765 H 436.845 5.12439 -2.05207 0
M  V30 4766 H 439.321 4.14228 -0.394267 0
M  V30 4767 H 438.197 5.48847 -0.0762682 0
M  V30 4768 H 438.458 4.26655 1.15835 0
M  V30 4769 N 437.518 0.538854 1.48102 0
M  V30 4770 C 438.746 0.0123136 2.06896 0
M  V30 4771 C 439.161 -1.27312 1.39417 0
M  V30 4772 O 438.518 -1.75949 0.484582 0
M  V30 4773 C 438.569 -0.206118 3.60912 0
M  V30 4774 O 438.29 1.0284 4.25859 0
M  V30 4775 C 439.791 -0.772033 4.36526 0
M  V30 4776 H 437.011 0.0375239 0.66995 0
M  V30 4777 H 439.555 0.747032 1.90367 0
M  V30 4778 H 437.71 -0.89091 3.77017 0
M  V30 4779 H 438.124 0.814654 5.18135 0
M  V30 4780 H 439.598 -0.874251 5.45033 0
M  V30 4781 H 440.075 -1.77904 4.01555 0
M  V30 4782 H 440.681 -0.123526 4.25121 0
M  V30 4783 N 438.996 -1.55193 0.274407 0
M  V30 4784 C 440.273 -1.91584 -0.394331 0
M  V30 4785 C 440.653 -1.19858 -1.73774 0
M  V30 4786 O 440.001 -0.3252 -2.26174 0
M  V30 4787 C 440.211 -3.4487 -0.535311 0
M  V30 4788 C 441.559 -4.16636 -0.818534 0
M  V30 4789 O 442.583 -3.5076 -0.620146 0
M  V30 4790 O 441.442 -5.33209 -1.19792 0
M  V30 4791 H 438.536 -0.798349 -0.215794 0
M  V30 4792 H 441.082 -1.66646 0.320507 0
M  V30 4793 H 439.854 -3.89145 0.410141 0
M  V30 4794 H 439.477 -3.75759 -1.29964 0
M  V30 4795 N 440.474 -0.00167713 -1.576 0
M  V30 4796 C 441.384 1.00548 -2.1196 0
M  V30 4797 C 442.4 1.3758 -1.06526 0
M  V30 4798 O 443.576 1.46278 -1.38436 0
M  V30 4799 C 440.641 2.27809 -2.6135 0
M  V30 4800 C 439.702 1.97074 -3.81393 0
M  V30 4801 C 438.935 3.18267 -4.28417 0
M  V30 4802 O 439.158 4.30009 -3.74765 0
M  V30 4803 O 438.092 3.02167 -5.20556 0
M  V30 4804 H 441.918 0.573373 -2.98238 0
M  V30 4805 H 439.503 0.217255 -1.47812 0
M  V30 4806 H 441.385 3.02568 -2.93309 0
M  V30 4807 H 440.06 2.70254 -1.78169 0
M  V30 4808 H 438.967 1.19785 -3.54404 0
M  V30 4809 H 440.3 1.59464 -4.65652 0
M  V30 4810 N 441.952 1.55251 0.271103 0
M  V30 4811 C 442.862 1.9136 1.35714 0
M  V30 4812 C 443.878 0.811075 1.5394 0
M  V30 4813 O 445.054 1.11031 1.6803 0
M  V30 4814 C 442.119 2.1798 2.69603 0
M  V30 4815 C 441.18 3.4153 2.60107 0
M  V30 4816 C 440.413 3.66871 3.8761 0
M  V30 4817 O 440.636 2.94689 4.8838 0
M  V30 4818 O 439.57 4.60405 3.87699 0
M  V30 4819 H 443.396 2.83815 1.08088 0
M  V30 4820 H 440.981 1.41821 0.469792 0
M  V30 4821 H 442.863 2.36518 3.48765 0
M  V30 4822 H 441.538 1.28708 2.97012 0
M  V30 4823 H 440.445 3.28325 1.79314 0
M  V30 4824 H 441.778 4.31027 2.37647 0
M  V30 4825 N 443.43 -0.535701 1.48216 0
M  V30 4826 C 444.36 -1.65014 1.65204 0
M  V30 4827 C 445.341 -1.62554 0.501011 0
M  V30 4828 O 446.526 -1.7984 0.732886 0
M  V30 4829 C 443.656 -3.03616 1.68626 0
M  V30 4830 C 442.61 -3.20932 2.83172 0
M  V30 4831 C 441.936 -4.60537 2.71679 0
M  V30 4832 C 443.236 -3.04249 4.24535 0
M  V30 4833 H 444.93 -1.51053 2.58502 0
M  V30 4834 H 442.476 -0.725262 1.24402 0
M  V30 4835 H 444.429 -3.81446 1.79099 0
M  V30 4836 H 443.153 -3.18587 0.719026 0
M  V30 4837 H 441.812 -2.45517 2.72244 0
M  V30 4838 H 441.46 -4.72336 1.72937 0
M  V30 4839 H 441.16 -4.73069 3.48538 0
M  V30 4840 H 442.684 -5.40475 2.84112 0
M  V30 4841 H 444.098 -3.71877 4.36326 0
M  V30 4842 H 442.495 -3.28278 5.02348 0
M  V30 4843 H 443.565 -2.00739 4.41397 0
M  V30 4844 N 444.908 -1.36708 -0.784132 0
M  V30 4845 C 445.855 -1.31466 -1.89698 0
M  V30 4846 C 446.825 -0.18239 -1.65096 0
M  V30 4847 O 448.01 -0.369762 -1.87183 0
M  V30 4848 C 445.15 -1.1151 -3.26588 0
M  V30 4849 C 444.263 -2.33859 -3.63227 0
M  V30 4850 C 443.398 -2.06873 -4.89262 0
M  V30 4851 C 442.437 -3.25154 -5.18595 0
M  V30 4852 N 441.574 -2.978 -6.35814 0
M  V30 4853 H 446.414 -2.26619 -1.93515 0
M  V30 4854 H 443.951 -1.12625 -0.946256 0
M  V30 4855 H 445.909 -0.979653 -4.05535 0
M  V30 4856 H 444.539 -0.200103 -3.22179 0
M  V30 4857 H 443.591 -2.58188 -2.79362 0
M  V30 4858 H 444.903 -3.22109 -3.8085 0
M  V30 4859 H 444.057 -1.90289 -5.76086 0
M  V30 4860 H 442.796 -1.15942 -4.73718 0
M  V30 4861 H 441.801 -3.42292 -4.30251 0
M  V30 4862 H 443.026 -4.1692 -5.36055 0
M  V30 4863 H 440.972 -2.09485 -6.21653 0
M  V30 4864 H 440.889 -3.7959 -6.53794 0
M  V30 4865 H 442.157 -2.84805 -7.25607 0
M  V30 4866 N 446.386 1.0089 -1.21074 0
M  V30 4867 C 447.296 2.13039 -0.982425 0
M  V30 4868 C 448.312 1.73881 0.0642161 0
M  V30 4869 O 449.488 2.01012 -0.12496 0
M  V30 4870 C 446.553 3.42377 -0.545803 0
M  V30 4871 C 445.614 3.95731 -1.6642 0
M  V30 4872 C 444.847 5.18896 -1.24832 0
M  V30 4873 O 445.07 5.70273 -0.120265 0
M  V30 4874 O 444.004 5.65597 -2.05873 0
M  V30 4875 H 447.83 2.35175 -1.92163 0
M  V30 4876 H 445.415 1.1142 -0.995285 0
M  V30 4877 H 447.297 4.20244 -0.311912 0
M  V30 4878 H 445.972 3.21639 0.364727 0
M  V30 4879 H 444.879 3.19108 -1.95246 0
M  V30 4880 H 446.212 4.20872 -2.55201 0
M  V30 4881 N 447.864 1.01787 1.20321 0
M  V30 4882 C 448.796 0.547357 2.22568 0
M  V30 4883 C 449.809 -0.370922 1.58518 0
M  V30 4884 O 450.998 -0.169067 1.77698 0
M  V30 4885 C 448.098 -0.223031 3.38165 0
M  V30 4886 C 447.271 0.697472 4.31803 0
M  V30 4887 C 446.33 -0.025562 5.26194 0
M  V30 4888 O 445.356 0.597367 5.66057 0
M  V30 4889 N 446.558 -1.29999 5.65757 0
M  V30 4890 H 449.323 1.42668 2.63564 0
M  V30 4891 H 446.884 0.895552 1.34876 0
M  V30 4892 H 448.876 -0.716002 3.98316 0
M  V30 4893 H 447.446 -1.00366 2.9605 0
M  V30 4894 H 446.666 1.37073 3.69601 0
M  V30 4895 H 447.954 1.32347 4.91286 0
M  V30 4896 H 447.352 -1.827 5.35385 0
M  V30 4897 H 445.909 -1.73766 6.28211 0
M  V30 4898 N 449.342 -1.36122 0.79427 0
M  V30 4899 C 450.589 -1.99111 0.368905 0
M  V30 4900 C 450.917 -1.63032 -1.0607 0
M  V30 4901 O 450.172 -0.879303 -1.74833 0
M  V30 4902 C 450.471 -3.5409 0.48527 0
M  V30 4903 C 450.137 -4.10003 1.87638 0
M  V30 4904 C 448.799 -4.24986 2.257 0
M  V30 4905 C 451.151 -4.40423 2.78706 0
M  V30 4906 C 448.479 -4.67701 3.54221 0
M  V30 4907 C 450.831 -4.84573 4.0666 0
M  V30 4908 C 449.495 -4.97761 4.44737 0
M  V30 4909 H 448.765 -0.7286 0.134992 0
M  V30 4910 H 451.412 -1.62534 1.01267 0
M  V30 4911 H 449.717 -3.91052 -0.241984 0
M  V30 4912 H 451.414 -4.00766 0.137109 0
M  V30 4913 H 448.004 -3.98784 1.57064 0
M  V30 4914 H 452.188 -4.28412 2.50553 0
M  V30 4915 H 447.444 -4.761 3.83587 0
M  V30 4916 H 451.618 -5.07074 4.77336 0
M  V30 4917 H 449.245 -5.30618 5.44379 0
M  V30 4918 N 450.82 -0.546701 -1.47814 0
M  V30 4919 C 451.767 0.206854 -2.29871 0
M  V30 4920 C 452.737 0.918235 -1.38411 0
M  V30 4921 O 453.922 0.915991 -1.67375 0
M  V30 4922 C 451.062 1.23746 -3.22151 0
M  V30 4923 C 450.175 0.533216 -4.28697 0
M  V30 4924 C 449.31 1.5482 -5.08138 0
M  V30 4925 C 448.349 0.828347 -6.06469 0
M  V30 4926 N 447.486 1.78966 -6.78908 0
M  V30 4927 H 452.326 -0.499037 -2.93792 0
M  V30 4928 H 449.863 -0.25793 -1.44821 0
M  V30 4929 H 451.821 1.84746 -3.74065 0
M  V30 4930 H 450.451 1.91151 -2.60117 0
M  V30 4931 H 449.503 -0.191089 -3.7992 0
M  V30 4932 H 450.815 -0.0311987 -4.9879 0
M  V30 4933 H 449.969 2.23202 -5.6415 0
M  V30 4934 H 448.708 2.14652 -4.37922 0
M  V30 4935 H 447.713 0.130539 -5.49645 0
M  V30 4936 H 448.938 0.235907 -6.7869 0
M  V30 4937 H 446.884 2.37675 -6.1143 0
M  V30 4938 H 446.801 1.27712 -7.45135 0
M  V30 4939 H 448.069 2.46496 -7.395 0
M  V30 4940 N 452.299 1.55045 -0.282633 0
M  V30 4941 C 453.262 2.21515 0.588539 0
M  V30 4942 C 454.262 1.19535 1.07554 0
M  V30 4943 O 455.452 1.44391 0.974514 0
M  V30 4944 C 452.584 2.88704 1.8128 0
M  V30 4945 H 453.777 2.99899 0.00806397 0
M  V30 4946 H 451.33 1.56265 -0.0333067 0
M  V30 4947 H 452.065 2.14352 2.43359 0
M  V30 4948 H 451.85 3.63443 1.47144 0
M  V30 4949 H 453.34 3.39465 2.43214 0
M  V30 4950 N 453.777 0.010035 1.57597 0
M  V30 4951 C 454.707 -0.976857 2.12084 0
M  V30 4952 C 455.688 -1.35191 1.03235 0
M  V30 4953 O 456.873 -1.43389 1.3097 0
M  V30 4954 C 454.003 -2.26548 2.63236 0
M  V30 4955 C 452.957 -2.03175 3.76701 0
M  V30 4956 C 452.283 -3.38138 4.14206 0
M  V30 4957 C 453.583 -1.38625 5.03568 0
M  V30 4958 H 455.277 -0.523145 2.94794 0
M  V30 4959 H 452.823 -0.250195 1.4181 0
M  V30 4960 H 454.776 -2.95952 2.99984 0
M  V30 4961 H 453.5 -2.74051 1.77661 0
M  V30 4962 H 452.159 -1.36195 3.40362 0
M  V30 4963 H 451.807 -3.83363 3.25641 0
M  V30 4964 H 451.507 -3.23312 4.90656 0
M  V30 4965 H 453.031 -4.08841 4.53521 0
M  V30 4966 H 454.445 -1.98 5.38023 0
M  V30 4967 H 452.842 -1.34256 5.84889 0
M  V30 4968 H 453.912 -0.356722 4.83586 0
M  V30 4969 N 455.255 -1.55392 -0.262866 0
M  V30 4970 C 456.501 -1.77657 -0.990424 0
M  V30 4971 C 456.856 -0.576333 -1.83565 0
M  V30 4972 O 456.149 0.430795 -1.86694 0
M  V30 4973 C 456.343 -3.02889 -1.89718 0
M  V30 4974 C 456.172 -4.34979 -1.14121 0
M  V30 4975 C 454.942 -4.98052 -0.852768 0
M  V30 4976 C 457.14 -5.11597 -0.526625 0
M  V30 4977 N 455.122 -6.13859 -0.0710649 0
M  V30 4978 C 456.493 -6.19883 0.12042 0
M  V30 4979 C 458.548 -4.95992 -0.435485 0
M  V30 4980 C 457.251 -7.14262 0.849833 0
M  V30 4981 C 459.277 -5.90735 0.280359 0
M  V30 4982 C 458.639 -6.98417 0.916103 0
M  V30 4983 H 454.738 -0.702242 -0.344064 0
M  V30 4984 H 457.322 -1.92887 -0.265088 0
M  V30 4985 H 455.493 -2.89017 -2.59468 0
M  V30 4986 H 457.225 -3.13516 -2.5591 0
M  V30 4987 H 453.98 -4.5916 -1.16058 0
M  V30 4988 H 454.404 -6.76302 0.307413 0
M  V30 4989 H 459.046 -4.12832 -0.912671 0
M  V30 4990 H 456.764 -7.96935 1.33867 0
M  V30 4991 H 460.35 -5.80738 0.351332 0
M  V30 4992 H 459.23 -7.70467 1.46119 0
M  V30 4993 N 456.733 0.527833 -1.48498 0
M  V30 4994 C 457.665 1.6482 -1.5927 0
M  V30 4995 C 458.678 1.55659 -0.476869 0
M  V30 4996 O 459.867 1.62081 -0.747806 0
M  V30 4997 C 456.967 3.0348 -1.50842 0
M  V30 4998 C 456.14 3.381 -2.77502 0
M  V30 4999 C 455.199 4.5605 -2.62497 0
M  V30 5000 O 454.225 4.59165 -3.36387 0
M  V30 5001 N 455.427 5.54353 -1.72257 0
M  V30 5002 H 458.192 1.56015 -2.55889 0
M  V30 5003 H 455.753 0.715152 -1.45249 0
M  V30 5004 H 457.745 3.80264 -1.38496 0
M  V30 5005 H 456.315 3.06352 -0.621887 0
M  V30 5006 H 455.535 2.50473 -3.04396 0
M  V30 5007 H 456.823 3.58017 -3.61527 0
M  V30 5008 H 456.221 5.54617 -1.11431 0
M  V30 5009 H 454.778 6.30347 -1.65849 0
M  V30 5010 N 458.211 1.37122 0.776871 0
M  V30 5011 C 459.46 1.31373 1.53049 0
M  V30 5012 C 459.773 -0.101016 1.95339 0
M  V30 5013 O 460.979 -0.280953 2.70042 0
M  V30 5014 C 459.435 2.30567 2.76346 0
M  V30 5015 C 459.043 3.77543 2.41175 0
M  V30 5016 C 460.787 2.33818 3.54301 0
M  V30 5017 C 458.694 4.68481 3.60943 0
M  V30 5018 H 457.624 0.488234 0.574581 0
M  V30 5019 H 460.275 1.62554 0.851372 0
M  V30 5020 H 458.657 1.92396 3.46121 0
M  V30 5021 H 459.831 4.24521 1.79216 0
M  V30 5022 H 458.146 3.77187 1.76405 0
M  V30 5023 H 460.743 2.98965 4.4331 0
M  V30 5024 H 461.086 1.3503 3.93793 0
M  V30 5025 H 461.619 2.7067 2.91518 0
M  V30 5026 H 458.358 5.68378 3.26537 0
M  V30 5027 H 457.878 4.2621 4.22025 0
M  V30 5028 H 459.557 4.85366 4.27819 0
M  V30 5029 N 459.689 -1.00246 1.21608 0
M  V30 5030 C 461.105 -1.26435 0.973975 0
M  V30 5031 C 461.305 -1.98642 -0.338143 0
M  V30 5032 O 460.361 -2.29026 -1.06317 0
M  V30 5033 C 461.674 -2.08551 2.16626 0
M  V30 5034 C 463.222 -2.21769 2.20879 0
M  V30 5035 C 463.697 -3.07267 3.39633 0
M  V30 5036 N 465.188 -3.14855 3.39736 0
M  V30 5037 C 465.923 -3.81274 4.28273 0
M  V30 5038 N 465.419 -4.497 5.27012 0
M  V30 5039 N 467.212 -3.7794 4.16074 0
M  V30 5040 H 459.363 -0.518089 2.05984 0
M  V30 5041 H 461.626 -0.291368 0.902113 0
M  V30 5042 H 461.332 -1.62847 3.11727 0
M  V30 5043 H 461.206 -3.09303 2.15897 0
M  V30 5044 H 463.593 -2.66691 1.26332 0
M  V30 5045 H 463.674 -1.20478 2.25652 0
M  V30 5046 H 463.318 -2.63047 4.34475 0
M  V30 5047 H 463.248 -4.08678 3.321 0
M  V30 5048 H 465.739 -2.66147 2.6828 0
M  V30 5049 H 466.052 -4.98092 5.90867 0
M  V30 5050 H 464.397 -4.48479 5.30935 0
M  V30 5051 H 467.588 -3.23638 3.38195 0
M  V30 5052 H 467.761 -4.29424 4.85282 0
M  V30 5053 N 461.167 -1.02423 -1.1978 0
M  V30 5054 C 462.444 -0.632802 -1.85081 0
M  V30 5055 C 462.824 0.888745 -1.9148 0
M  V30 5056 O 462.172 1.78357 -1.42832 0
M  V30 5057 C 462.382 -1.28947 -3.24305 0
M  V30 5058 C 463.73 -1.40976 -4.00513 0
M  V30 5059 O 464.754 -1.24628 -3.33686 0
M  V30 5060 O 463.613 -1.67467 -5.20209 0
M  V30 5061 H 460.707 -0.219348 -0.79738 0
M  V30 5062 H 463.253 -1.12209 -1.27307 0
M  V30 5063 H 462.025 -2.3288 -3.14456 0
M  V30 5064 H 461.648 -0.787748 -3.89718 0
M  V30 5065 N 462.645 1.35699 -0.801477 0
M  V30 5066 C 463.922 1.9324 -0.302937 0
M  V30 5067 C 464.302 1.73209 1.20672 0
M  V30 5068 O 463.65 1.09809 2.00385 0
M  V30 5069 C 463.86 3.41728 -0.708747 0
M  V30 5070 C 465.208 4.18868 -0.695328 0
M  V30 5071 O 466.232 3.5022 -0.649971 0
M  V30 5072 O 465.091 5.41342 -0.749081 0
M  V30 5073 H 462.185 0.82331 -0.0780367 0
M  V30 5074 H 464.731 1.44806 -0.884832 0
M  V30 5075 H 463.503 3.50015 -1.74944 0
M  V30 5076 H 463.126 3.97471 -0.101384 0
M  V30 5077 N 464.123 0.554532 1.47522 0
M  V30 5078 C 465.539 0.214107 1.58157 0
M  V30 5079 C 465.739 -1.28331 1.55349 0
M  V30 5080 O 464.795 -2.06329 1.45549 0
M  V30 5081 C 466.108 0.838391 2.88776 0
M  V30 5082 C 467.656 0.809374 3.02354 0
M  V30 5083 C 468.131 1.41268 4.35669 0
M  V30 5084 N 469.622 1.37574 4.42298 0
M  V30 5085 C 470.357 1.8122 5.4401 0
M  V30 5086 N 469.853 2.3271 6.52547 0
M  V30 5087 N 471.646 1.72307 5.35039 0
M  V30 5088 H 463.797 1.52744 1.4759 0
M  V30 5089 H 466.06 0.636812 0.702264 0
M  V30 5090 H 465.766 1.89065 2.96559 0
M  V30 5091 H 465.64 0.329847 3.75755 0
M  V30 5092 H 468.027 -0.234187 2.94169 0
M  V30 5093 H 468.108 1.35565 2.16924 0
M  V30 5094 H 467.752 2.45529 4.4461 0
M  V30 5095 H 467.682 0.841871 5.19827 0
M  V30 5096 H 470.173 0.999081 3.64454 0
M  V30 5097 H 470.486 2.63944 7.26329 0
M  V30 5098 H 468.831 2.36719 6.53444 0
M  V30 5099 H 472.022 1.3186 4.49144 0
M  V30 5100 H 472.195 2.06641 6.14169 0
M  V30 5101 N 465.601 -1.54893 0.290851 0
M  V30 5102 C 466.831 -2.04047 -0.323818 0
M  V30 5103 C 467.239 -1.16809 -1.48837 0
M  V30 5104 O 466.582 -0.184145 -1.82775 0
M  V30 5105 C 466.644 -3.49248 -0.852395 0
M  V30 5106 C 466.308 -4.56623 0.185557 0
M  V30 5107 C 467.305 -5.09985 1.01053 0
M  V30 5108 C 464.99 -5.01252 0.324332 0
M  V30 5109 C 466.984 -6.06507 1.96031 0
M  V30 5110 C 464.671 -5.97596 1.27757 0
M  V30 5111 C 465.669 -6.50107 2.09405 0
M  V30 5112 O 465.357 -7.44565 3.03114 0
M  V30 5113 H 465.089 -0.671735 -0.0758129 0
M  V30 5114 H 467.643 -2.00947 0.425393 0
M  V30 5115 H 465.873 -3.49639 -1.65195 0
M  V30 5116 H 467.562 -3.81654 -1.38185 0
M  V30 5117 H 468.328 -4.76307 0.914129 0
M  V30 5118 H 464.207 -4.60015 -0.301213 0
M  V30 5119 H 467.751 -6.47418 2.598 0
M  V30 5120 H 463.648 -6.30691 1.37473 0
M  V30 5121 H 464.416 -7.62334 2.97976 0
M  V30 5122 N 467.08 -0.0183926 -1.57589 0
M  V30 5123 C 468.305 0.676634 -1.96052 0
M  V30 5124 C 468.73 1.6548 -0.894307 0
M  V30 5125 O 468.088 1.80712 0.145849 0
M  V30 5126 C 468.136 1.36872 -3.33614 0
M  V30 5127 O 467.24 2.48372 -3.29219 0
M  V30 5128 H 466.581 0.1786 -0.63953 0
M  V30 5129 H 469.111 -0.077056 -2.04455 0
M  V30 5130 H 469.121 1.72797 -3.69601 0
M  V30 5131 H 467.796 0.651636 -4.10763 0
M  V30 5132 H 466.373 2.14639 -3.04934 0
M  V30 5133 N 468.558 1.5553 0.254621 0
M  V30 5134 C 469.835 1.6774 1.00611 0
M  V30 5135 C 470.215 0.555993 2.03647 0
M  V30 5136 O 469.563 -0.441583 2.24193 0
M  V30 5137 C 469.773 3.07725 1.6464 0
M  V30 5138 C 471.121 3.66074 2.15116 0
M  V30 5139 O 472.145 3.10476 1.74595 0
M  V30 5140 O 471.004 4.63526 2.89493 0
M  V30 5141 H 468.098 0.681958 0.467828 0
M  V30 5142 H 470.644 1.67863 0.24902 0
M  V30 5143 H 469.416 3.80792 0.900734 0
M  V30 5144 H 469.039 3.1158 2.46989 0
M  V30 5145 N 470.036 -0.519951 1.48776 0
M  V30 5146 C 470.946 -1.65025 1.66745 0
M  V30 5147 C 471.962 -1.6508 0.549954 0
M  V30 5148 O 473.138 -1.83848 0.822295 0
M  V30 5149 C 470.203 -3.0146 1.71238 0
M  V30 5150 C 469.264 -3.12182 2.94688 0
M  V30 5151 C 468.497 -4.42109 2.98958 0
M  V30 5152 O 468.72 -5.29799 2.1135 0
M  V30 5153 O 467.654 -4.57406 3.91233 0
M  V30 5154 H 471.48 -1.52801 2.62461 0
M  V30 5155 H 469.065 -0.694157 1.32294 0
M  V30 5156 H 470.947 -3.82584 1.76657 0
M  V30 5157 H 469.622 -3.13988 0.786975 0
M  V30 5158 H 468.529 -2.30316 2.94797 0
M  V30 5159 H 469.862 -3.04574 3.86646 0
M  V30 5160 N 471.514 -1.37532 -0.769588 0
M  V30 5161 C 472.93 -1.18379 -1.07045 0
M  V30 5162 C 473.13 -0.0214312 -2.01489 0
M  V30 5163 O 472.186 0.637809 -2.44312 0
M  V30 5164 C 473.499 -2.50338 -1.66588 0
M  V30 5165 C 475.047 -2.56879 -1.78835 0
M  V30 5166 C 475.522 -3.88974 -2.41792 0
M  V30 5167 N 477.013 -3.90428 -2.4924 0
M  V30 5168 C 477.748 -4.89388 -2.98809 0
M  V30 5169 N 477.244 -5.98745 -3.48535 0
M  V30 5170 N 479.037 -4.76791 -2.97703 0
M  V30 5171 H 471.188 -2.11921 -0.142541 0
M  V30 5172 H 473.451 -0.939608 -0.125863 0
M  V30 5173 H 473.157 -3.35767 -1.0466 0
M  V30 5174 H 473.031 -2.67583 -2.65856 0
M  V30 5175 H 475.418 -1.71856 -2.39895 0
M  V30 5176 H 475.499 -2.43516 -0.783166 0
M  V30 5177 H 475.143 -4.74412 -1.81371 0
M  V30 5178 H 475.073 -3.99641 -3.4292 0
M  V30 5179 H 477.564 -3.11433 -2.14052 0
M  V30 5180 H 477.877 -6.70205 -3.84767 0
M  V30 5181 H 476.222 -6.02387 -3.46634 0
M  V30 5182 H 479.413 -3.90478 -2.58157 0
M  V30 5183 H 479.586 -5.54069 -3.36024 0
M  V30 5184 N 472.992 0.995999 -1.22138 0
M  V30 5185 C 474.22 1.77066 -1.07029 0
M  V30 5186 C 474.635 1.8495 0.379357 0
M  V30 5187 O 473.992 1.3174 1.26297 0
M  V30 5188 C 474.043 3.20533 -1.67155 0
M  V30 5189 O 473.764 3.13082 -3.06449 0
M  V30 5190 C 475.265 4.14461 -1.5728 0
M  V30 5191 H 472.485 0.556179 -0.375374 0
M  V30 5192 H 475.029 1.25238 -1.61666 0
M  V30 5193 H 473.184 3.6944 -1.16589 0
M  V30 5194 H 473.598 4.03283 -3.35355 0
M  V30 5195 H 475.072 5.1289 -2.04078 0
M  V30 5196 H 475.549 4.36005 -0.528795 0
M  V30 5197 H 476.155 3.71449 -2.07136 0
M  V30 5198 N 474.47 1.03057 1.19235 0
M  V30 5199 C 475.433 0.617418 2.20727 0
M  V30 5200 C 476.433 -0.319856 1.57587 0
M  V30 5201 O 477.623 -0.106633 1.73873 0
M  V30 5202 C 474.755 -0.096296 3.40764 0
M  V30 5203 H 475.948 1.51544 2.58794 0
M  V30 5204 H 473.501 0.821949 1.32942 0
M  V30 5205 H 474.236 -1.00859 3.08217 0
M  V30 5206 H 474.021 0.577217 3.87828 0
M  V30 5207 H 475.511 -0.372219 4.15938 0
M  V30 5208 N 475.948 -1.35272 0.808662 0
M  V30 5209 C 476.88 -2.28507 0.178149 0
M  V30 5210 C 477.893 -1.50377 -0.623754 0
M  V30 5211 O 479.082 -1.72583 -0.455774 0
M  V30 5212 C 476.182 -3.30038 -0.769959 0
M  V30 5213 C 475.355 -4.37398 -0.0139749 0
M  V30 5214 C 474.414 -5.18775 -0.880875 0
M  V30 5215 O 473.44 -5.68236 -0.331059 0
M  V30 5216 N 474.642 -5.37087 -2.20267 0
M  V30 5217 H 477.407 -2.83255 0.979106 0
M  V30 5218 H 474.968 -1.47643 0.664308 0
M  V30 5219 H 476.96 -3.81371 -1.35418 0
M  V30 5220 H 475.53 -2.75789 -1.47171 0
M  V30 5221 H 474.75 -3.86971 0.751468 0
M  V30 5222 H 476.038 -5.06268 0.506965 0
M  V30 5223 H 475.436 -4.9855 -2.67328 0
M  V30 5224 H 473.993 -5.91593 -2.73608 0
M  V30 5225 N 477.426 -0.562348 -1.47226 0
M  V30 5226 C 478.654 -0.0452275 -2.06851 0
M  V30 5227 C 479.069 1.25078 -1.41424 0
M  V30 5228 O 478.426 1.75156 -0.512513 0
M  V30 5229 C 478.477 0.148674 -3.61194 0
M  V30 5230 O 478.198 -1.09602 -4.24169 0
M  V30 5231 C 479.699 0.702488 -4.37699 0
M  V30 5232 H 476.919 -0.0481775 -0.669268 0
M  V30 5233 H 479.463 -0.777223 -1.89155 0
M  V30 5234 H 477.618 0.830817 -3.78386 0
M  V30 5235 H 478.032 -0.896982 -5.16773 0
M  V30 5236 H 479.506 0.78743 -5.46355 0
M  V30 5237 H 479.983 1.71493 -4.04335 0
M  V30 5238 H 480.589 0.0558772 -4.25263 0
M  V30 5239 N 478.904 1.54736 -0.299062 0
M  V30 5240 C 480.15 2.00397 0.311244 0
M  V30 5241 C 480.483 1.18716 1.53688 0
M  V30 5242 O 479.758 0.263154 1.92712 0
M  V30 5243 C 480.041 3.53817 0.669761 0
M  V30 5244 C 479.894 4.46239 -0.564882 0
M  V30 5245 C 481.213 4.13856 1.49702 0
M  V30 5246 H 478.332 0.728493 0.111653 0
M  V30 5247 H 480.974 1.85506 -0.410774 0
M  V30 5248 H 479.124 3.66637 1.28491 0
M  V30 5249 H 480.796 4.45328 -1.20337 0
M  V30 5250 H 479.039 4.16916 -1.19849 0
M  V30 5251 H 479.71 5.5134 -0.269918 0
M  V30 5252 H 482.186 4.04461 0.977284 0
M  V30 5253 H 481.062 5.21365 1.71666 0
M  V30 5254 H 481.323 3.65608 2.48563 0
M  V30 5255 N 480.382 0.0267497 1.57577 0
M  V30 5256 C 481.345 -0.940916 2.08996 0
M  V30 5257 C 482.345 -1.25561 1.00455 0
M  V30 5258 O 483.535 -1.19634 1.26623 0
M  V30 5259 C 480.667 -2.25814 2.55384 0
M  V30 5260 H 481.86 -0.495628 2.95776 0
M  V30 5261 H 479.413 -0.221241 1.54726 0
M  V30 5262 H 480.148 -2.74976 1.71926 0
M  V30 5263 H 479.933 -2.04285 3.34679 0
M  V30 5264 H 481.423 -2.95178 2.95398 0
M  V30 5265 N 481.861 -1.55662 -0.24637 0
M  V30 5266 C 482.809 -1.91186 -1.3248 0
M  V30 5267 C 483.803 -0.790996 -1.49799 0
M  V30 5268 O 485.009 -0.975617 -1.51267 0
M  V30 5269 H 481.384 -0.607207 -0.443626 0
M  V30 5270 H 483.355 -2.81221 -0.997853 0
M  V30 5271 C 482.104 -2.22349 -2.67313 0
M  V30 5272 H 481.427 -3.08097 -2.54786 0
M  V30 5273 H 482.867 -2.51107 -3.41645 0
M  V30 5274 C 481.326 -1.04001 -3.20446 0
M  V30 5275 O 481.856 -0.28828 -4.00664 0
M  V30 5276 N 480.062 -0.830494 -2.7848 0
M  V30 5277 H 479.609 -1.4435 -2.13356 0
M  V30 5278 H 479.567 -0.0403258 -3.14374 0
M  V30 5279 N 483.339 0.512053 -1.4905 0
M  V30 5280 C 484.755 0.84224 -1.35567 0
M  V30 5281 C 484.955 1.97878 -0.380319 0
M  V30 5282 O 484.011 2.51769 0.19201 0
M  V30 5283 C 485.324 1.19286 -2.76028 0
M  V30 5284 C 486.872 1.30171 -2.84648 0
M  V30 5285 C 487.347 1.68568 -4.25851 0
M  V30 5286 N 488.838 1.75638 -4.28609 0
M  V30 5287 C 489.573 2.06769 -5.34821 0
M  V30 5288 N 489.069 2.36201 -6.51292 0
M  V30 5289 N 490.862 2.07927 -5.22229 0
M  V30 5290 H 483.013 -0.237574 -2.11067 0
M  V30 5291 H 485.276 -0.0436747 -0.946993 0
M  V30 5292 H 484.982 0.431199 -3.49047 0
M  V30 5293 H 484.856 2.13889 -3.10695 0
M  V30 5294 H 487.243 2.05411 -2.11873 0
M  V30 5295 H 487.324 0.336457 -2.53578 0
M  V30 5296 H 486.968 0.938824 -4.99148 0
M  V30 5297 H 486.898 2.66174 -4.54377 0
M  V30 5298 H 489.389 1.55097 -3.44606 0
M  V30 5299 H 489.702 2.59112 -7.28066 0
M  V30 5300 H 488.047 2.33681 -6.54536 0
M  V30 5301 H 491.238 1.84403 -4.30248 0
M  V30 5302 H 491.411 2.31856 -6.05101 0
M  V30 5303 N 484.817 1.37938 0.762283 0
M  V30 5304 C 485.749 1.30349 1.88525 0
M  V30 5305 C 486.762 0.217402 1.61342 0
M  V30 5306 O 487.951 0.474291 1.72084 0
M  V30 5307 C 485.051 0.994844 3.23969 0
M  V30 5308 C 484.224 2.18829 3.78725 0
M  V30 5309 C 483.283 1.84844 4.92665 0
M  V30 5310 O 482.309 2.57244 5.07754 0
M  V30 5311 N 483.511 0.798201 5.74986 0
M  V30 5312 H 486.276 2.27114 1.95549 0
M  V30 5313 H 483.837 1.31686 0.941825 0
M  V30 5314 H 485.829 0.748168 3.97724 0
M  V30 5315 H 484.399 0.115446 3.12387 0
M  V30 5316 H 483.619 2.59615 2.96637 0
M  V30 5317 H 484.907 2.98497 4.1204 0
M  V30 5318 H 484.305 0.197611 5.65355 0
M  V30 5319 H 482.862 0.611396 6.48926 0
M  V30 5320 N 486.295 -0.989507 1.22664 0
M  V30 5321 C 487.711 -1.25395 0.987331 0
M  V30 5322 C 487.911 -1.9899 -0.317056 0
M  V30 5323 O 486.967 -2.30141 -1.03882 0
M  V30 5324 C 488.28 -2.06242 2.18826 0
M  V30 5325 C 489.828 -2.19413 2.23219 0
M  V30 5326 C 490.303 -3.03648 3.42873 0
M  V30 5327 N 491.794 -3.11234 3.43056 0
M  V30 5328 C 492.529 -3.7671 4.32293 0
M  V30 5329 N 492.025 -4.44085 5.31752 0
M  V30 5330 N 493.818 -3.73505 4.2006 0
M  V30 5331 H 485.969 -0.496212 2.06522 0
M  V30 5332 H 488.232 -0.281784 0.905153 0
M  V30 5333 H 487.938 -1.59531 3.13437 0
M  V30 5334 H 487.812 -3.06996 2.19165 0
M  V30 5335 H 490.199 -2.65336 1.29154 0
M  V30 5336 H 490.28 -1.18078 2.26917 0
M  V30 5337 H 489.924 -2.58424 4.37241 0
M  V30 5338 H 489.854 -4.05132 3.36416 0
M  V30 5339 H 492.345 -2.63287 2.71088 0
M  V30 5340 H 492.658 -4.91797 5.96117 0
M  V30 5341 H 491.003 -4.42822 5.35662 0
M  V30 5342 H 494.194 -3.20033 3.41609 0
M  V30 5343 H 494.367 -4.24253 4.8981 0
M  V30 5344 N 487.773 -1.03688 -1.18687 0
M  V30 5345 C 488.72 -0.624624 -2.22187 0
M  V30 5346 C 489.69 0.365636 -1.62026 0
M  V30 5347 O 490.875 0.260481 -1.89014 0
M  V30 5348 C 488.015 0.0101738 -3.45099 0
M  V30 5349 C 487.128 -1.02709 -4.19613 0
M  V30 5350 C 486.263 -0.361213 -5.2997 0
M  V30 5351 C 485.302 -1.38384 -5.96252 0
M  V30 5352 N 484.439 -0.743196 -6.98155 0
M  V30 5353 H 489.279 -1.51176 -2.56807 0
M  V30 5354 H 486.816 -0.75636 -1.26165 0
M  V30 5355 H 488.774 0.395528 -4.15321 0
M  V30 5356 H 487.404 0.860848 -3.1111 0
M  V30 5357 H 486.456 -1.53043 -3.48256 0
M  V30 5358 H 487.768 -1.80398 -4.65036 0
M  V30 5359 H 486.922 0.0785537 -6.06649 0
M  V30 5360 H 485.661 0.447799 -4.8564 0
M  V30 5361 H 484.666 -1.83378 -5.18317 0
M  V30 5362 H 485.891 -2.19448 -6.42666 0
M  V30 5363 H 483.837 0.0455789 -6.55984 0
M  V30 5364 H 483.754 -1.45784 -7.41811 0
M  V30 5365 H 485.022 -0.327698 -7.78811 0
M  V30 5366 N 489.251 1.34841 -0.815825 0
M  V30 5367 C 490.198 2.29644 -0.230664 0
M  V30 5368 C 491.168 1.53253 0.640533 0
M  V30 5369 O 492.353 1.81653 0.583672 0
M  V30 5370 C 489.493 3.39715 0.607275 0
M  V30 5371 C 488.606 4.31056 -0.28538 0
M  V30 5372 C 487.741 5.28225 0.561446 0
M  V30 5373 C 486.78 6.11204 -0.331035 0
M  V30 5374 N 485.917 7.00483 0.476302 0
M  V30 5375 H 490.757 2.79095 -1.0445 0
M  V30 5376 H 488.294 1.37351 -0.526595 0
M  V30 5377 H 490.252 4.02208 1.10835 0
M  V30 5378 H 488.882 2.91517 1.38629 0
M  V30 5379 H 487.934 3.69487 -0.904621 0
M  V30 5380 H 489.246 4.89239 -0.97193 0
M  V30 5381 H 488.4 5.96135 1.12728 0
M  V30 5382 H 487.139 4.70562 1.28153 0
M  V30 5383 H 486.144 5.42232 -0.909069 0
M  V30 5384 H 487.369 6.70947 -1.04912 0
M  V30 5385 H 485.315 6.45296 1.18019 0
M  V30 5386 H 485.232 7.55847 -0.152008 0
M  V30 5387 H 486.5 7.7273 1.02512 0
M  V30 5388 N 490.729 0.570148 1.46925 0
M  V30 5389 C 491.978 0.0487352 2.01641 0
M  V30 5390 C 492.291 -1.31433 1.44861 0
M  V30 5391 O 493.497 -1.92638 1.91318 0
M  V30 5392 C 491.953 0.0365817 3.59881 0
M  V30 5393 C 491.561 1.39719 4.25655 0
M  V30 5394 C 493.305 -0.431545 4.22301 0
M  V30 5395 C 491.212 1.34345 5.75939 0
M  V30 5396 H 490.142 0.0144492 0.753862 0
M  V30 5397 H 492.793 0.719928 1.68788 0
M  V30 5398 H 491.175 -0.700522 3.89755 0
M  V30 5399 H 492.349 2.15303 4.07408 0
M  V30 5400 H 490.664 1.80431 3.75278 0
M  V30 5401 H 493.261 -0.490354 5.32447 0
M  V30 5402 H 493.604 -1.44638 3.90366 0
M  V30 5403 H 494.137 0.251102 3.97007 0
M  V30 5404 H 490.876 2.33469 6.12513 0
M  V30 5405 H 490.396 0.629615 5.96486 0
M  V30 5406 H 492.075 1.051 6.38407 0
M  V30 5407 N 492.207 -1.54576 0.307264 0
M  V30 5408 C 493.155 -2.25208 -0.581723 0
M  V30 5409 C 494.149 -1.26031 -1.13192 0
M  V30 5410 O 495.355 -1.43862 -1.08184 0
M  V30 5411 H 491.73 -0.723173 -0.206214 0
M  V30 5412 H 493.701 -2.98378 0.0364663 0
M  V30 5413 C 492.45 -3.01086 -1.73904 0
M  V30 5414 H 491.773 -3.77208 -1.32491 0
M  V30 5415 H 493.213 -3.5378 -2.33701 0
M  V30 5416 C 491.672 -2.08422 -2.64692 0
M  V30 5417 O 492.202 -1.65636 -3.65961 0
M  V30 5418 N 490.408 -1.74247 -2.32564 0
M  V30 5419 H 489.955 -2.09238 -1.50257 0
M  V30 5420 H 489.913 -1.12524 -2.93574 0
M  V30 5421 N 493.685 -0.035106 -1.57561 0
M  V30 5422 C 494.618 0.979673 -2.06101 0
M  V30 5423 C 495.596 1.31378 -0.958046 0
M  V30 5424 O 496.78 1.42942 -1.22881 0
M  V30 5425 C 493.907 2.29809 -2.48808 0
M  V30 5426 C 492.953 2.11817 -3.70184 0
M  V30 5427 S 493.786 1.41143 -5.16565 0
M  V30 5428 C 494.942 2.74341 -5.62572 0
M  V30 5429 H 495.175 0.566506 -2.91853 0
M  V30 5430 H 492.708 0.176744 -1.53385 0
M  V30 5431 H 494.666 3.056 -2.74078 0
M  V30 5432 H 493.327 2.68257 -1.63392 0
M  V30 5433 H 492.52 3.09299 -3.97933 0
M  V30 5434 H 492.122 1.44168 -3.45097 0
M  V30 5435 H 494.414 3.70562 -5.67177 0
M  V30 5436 H 495.357 2.51249 -6.62027 0
M  V30 5437 H 495.765 2.79863 -4.90242 0
M  V30 5438 N 495.163 1.55791 0.238111 0
M  V30 5439 C 496.111 1.91885 1.31464 0
M  V30 5440 C 497.105 0.798929 1.49377 0
M  V30 5441 O 498.311 0.983626 1.50747 0
M  V30 5442 H 494.686 0.609551 0.440399 0
M  V30 5443 H 496.657 2.81747 0.982925 0
M  V30 5444 C 495.406 2.23763 2.6613 0
M  V30 5445 H 494.729 3.09444 2.53149 0
M  V30 5446 H 496.169 2.52915 3.40309 0
M  V30 5447 C 494.628 1.05699 3.1989 0
M  V30 5448 O 495.158 0.309524 4.00506 0
M  V30 5449 N 493.364 0.845251 2.78036 0
M  V30 5450 H 492.911 1.4548 2.12588 0
M  V30 5451 H 492.869 0.0569973 3.14348 0
M  V30 5452 N 496.642 -0.504142 1.49319 0
M  V30 5453 C 497.872 -1.28071 1.62116 0
M  V30 5454 C 498.28 -1.86955 0.290566 0
M  V30 5455 O 497.623 -1.68415 -0.733616 0
M  V30 5456 C 497.685 -2.4521 2.62893 0
M  V30 5457 C 497.349 -2.07218 4.0732 0
M  V30 5458 C 498.346 -1.61375 4.94221 0
M  V30 5459 C 496.031 -2.16949 4.53033 0
M  V30 5460 C 498.025 -1.25763 6.2487 0
M  V30 5461 C 495.712 -1.80949 5.83696 0
M  V30 5462 C 496.71 -1.3543 6.69438 0
M  V30 5463 O 496.398 -0.99915 7.97667 0
M  V30 5464 H 496.13 -0.394763 0.54876 0
M  V30 5465 H 498.684 -0.612118 1.96067 0
M  V30 5466 H 496.914 -3.15134 2.24115 0
M  V30 5467 H 498.603 -3.0724 2.65252 0
M  V30 5468 H 499.369 -1.53306 4.60133 0
M  V30 5469 H 495.248 -2.5133 3.86463 0
M  V30 5470 H 498.792 -0.901631 6.91749 0
M  V30 5471 H 494.689 -1.88667 6.17313 0
M  V30 5472 H 495.457 -1.13089 8.1065 0
M  V30 5473 N 498.12 -1.38341 -0.754957 0
M  V30 5474 C 499.369 -1.33791 -1.5094 0
M  V30 5475 C 499.682 0.0699267 -1.95475 0
M  V30 5476 O 500.888 0.237956 -2.70455 0
M  V30 5477 C 499.344 -2.34934 -2.72643 0
M  V30 5478 C 498.952 -3.81332 -2.35138 0
M  V30 5479 C 500.696 -2.39425 -3.50536 0
M  V30 5480 C 498.603 -4.74164 -3.53444 0
M  V30 5481 H 497.533 -0.497314 -0.566741 0
M  V30 5482 H 500.184 -1.63888 -0.825403 0
M  V30 5483 H 498.566 -1.97878 -3.43017 0
M  V30 5484 H 499.74 -4.27319 -1.7244 0
M  V30 5485 H 498.055 -3.79946 -1.70382 0
M  V30 5486 H 500.652 -3.0598 -4.38498 0
M  V30 5487 H 500.995 -1.41278 -3.91594 0
M  V30 5488 H 501.528 -2.75274 -2.87174 0
M  V30 5489 H 498.267 -5.73501 -3.17453 0
M  V30 5490 H 497.787 -4.3287 -4.15191 0
M  V30 5491 H 499.466 -4.92111 -4.20043 0
M  V30 5492 N 499.598 0.982988 -1.23187 0
M  V30 5493 C 500.846 1.72052 -1.06031 0
M  V30 5494 C 501.167 1.90769 0.404019 0
M  V30 5495 O 500.437 1.47446 1.28982 0
M  V30 5496 H 499.017 0.637499 -0.389363 0
M  V30 5497 H 501.679 1.18338 -1.54862 0
M  V30 5498 H 500.775 2.7111 -1.54615 0
M  V30 5499 N 501.076 1.04316 1.18135 0
M  V30 5500 C 502.324 0.746542 1.87806 0
M  V30 5501 C 502.645 -0.728082 1.80898 0
M  V30 5502 O 501.915 -1.52554 1.22899 0
M  V30 5503 H 500.495 0.273157 0.695265 0
M  V30 5504 H 503.157 1.32044 1.43354 0
M  V30 5505 H 502.253 1.05362 2.93778 0
M  V30 5506 O 502.593 -1.30005 0.958179 0
M  V30 5507 H 503.284 -1.84399 0.593022 0
M  V30 END ATOM
M  V30 BEGIN BOND
M  V30 END BOND
M  V30 END CTAB
M  END
$$$$
