drugbank_target|P17936 Insulin-like growth factor-binding protein 3 (DB00523; DB01277)
 OpenBabel12092119443D

  0  0  0     0  0            999 V3000
M  V30 BEGIN CTAB
M  V30 COUNTS 4419 4469 0 0 0
M  V30 BEGIN ATOM
M  V30 1 H -0.908 1.98254 -0.117106 0
M  V30 2 N 0 1.576 0 0
M  V30 3 C 0.933 2.03868 1.02534 0
M  V30 4 C 1.911 0.928543 1.3348 0
M  V30 5 O 3.095 1.19667 1.45644 0
M  V30 6 C 0.222 2.43627 2.35294 0
M  V30 7 C -0.732 3.65373 2.2001 0
M  V30 8 S 0.101 5.13292 1.52614 0
M  V30 9 C 1.257 5.56322 2.86805 0
M  V30 10 H 1.49 2.90518 0.631377 0
M  V30 11 H -0.977 1.52953 0.210867 0
M  V30 12 H 0.981 2.67203 3.11629 0
M  V30 13 H -0.358 1.57376 2.7183 0
M  V30 14 H -1.165 3.90944 3.18086 0
M  V30 15 H -1.563 3.418 1.51819 0
M  V30 16 H 0.729 5.58782 3.83104 0
M  V30 17 H 1.672 6.56266 2.65933 0
M  V30 18 H 2.08 4.83886 2.90714 0
M  V30 19 N 1.4781 -0.272755 1.55222 0
M  V30 20 C 2.4101 -1.35946 1.8453 0
M  V30 21 C 3.4231 -1.45525 0.729818 0
M  V30 22 O 4.6121 -1.47337 1.00767 0
M  V30 23 C 1.7121 -2.74069 1.99347 0
M  V30 24 C 0.8851 -2.87079 3.30007 0
M  V30 25 C -0.0559 -4.05879 3.34886 0
M  V30 26 O -1.0299 -3.96626 4.08261 0
M  V30 27 N 0.1721 -5.17857 2.62307 0
M  V30 28 H 2.9371 -1.11149 2.78327 0
M  V30 29 H 0.4981 -0.462869 1.55142 0
M  V30 30 H 2.4901 -3.51838 1.99981 0
M  V30 31 H 1.0601 -2.91688 1.12415 0
M  V30 32 H 0.2801 -1.96193 3.41909 0
M  V30 33 H 1.5681 -2.92701 4.16177 0
M  V30 34 H 0.9661 -5.28261 2.02377 0
M  V30 35 H -0.4769 -5.93855 2.68663 0
M  V30 36 N 2.9562 -1.48159 -0.537278 0
M  V30 37 C 4.3722 -1.34118 -0.865129 0
M  V30 38 C 4.5722 -0.346678 -1.98495 0
M  V30 39 O 3.6282 0.234715 -2.51407 0
M  V30 40 C 4.9412 -2.73963 -1.23954 0
M  V30 41 C 6.4892 -2.82397 -1.34984 0
M  V30 42 C 6.9642 -4.22928 -1.75772 0
M  V30 43 N 8.4552 -4.25566 -1.82887 0
M  V30 44 C 9.1902 -5.31235 -2.15817 0
M  V30 45 N 8.6862 -6.47189 -2.47222 0
M  V30 46 N 10.4792 -5.18624 -2.16761 0
M  V30 47 H 2.6302 -2.1144 0.201715 0
M  V30 48 H 4.8932 -0.947598 0.0275949 0
M  V30 49 H 4.5992 -3.48264 -0.490381 0
M  V30 50 H 4.4732 -3.0702 -2.19132 0
M  V30 51 H 6.8602 -2.08356 -2.08978 0
M  V30 52 H 6.9412 -2.5297 -0.379448 0
M  V30 53 H 6.5852 -4.97482 -1.02341 0
M  V30 54 H 6.5152 -4.49794 -2.73848 0
M  V30 55 H 9.0062 -3.41924 -1.60924 0
M  V30 56 H 9.3192 -7.23564 -2.71433 0
M  V30 57 H 7.6642 -6.50476 -2.44757 0
M  V30 58 H 10.8552 -4.27056 -1.91679 0
M  V30 59 H 11.0282 -6.01078 -2.42093 0
M  V30 60 N 4.4343 0.785586 -1.36625 0
M  V30 61 C 5.3973 1.87999 -1.31107 0
M  V30 62 C 6.3973 1.59316 -0.217959 0
M  V30 63 O 7.5873 1.67656 -0.472977 0
M  V30 64 C 4.7193 3.24861 -1.03334 0
M  V30 65 H 5.9123 1.94307 -2.2844 0
M  V30 66 H 3.4653 0.983813 -1.21453 0
M  V30 67 H 4.2003 3.24235 -0.0647432 0
M  V30 68 H 3.9853 3.4707 -1.82441 0
M  V30 69 H 5.4753 4.04929 -1.02088 0
M  V30 70 N 5.9124 1.20967 1.01018 0
M  V30 71 C 7.3284 0.965905 1.27053 0
M  V30 72 C 7.5284 -0.350785 1.98423 0
M  V30 73 O 6.5844 -1.07773 2.28344 0
M  V30 74 C 7.8974 2.15294 2.09926 0
M  V30 75 C 9.4454 2.19463 2.23171 0
M  V30 76 C 9.9204 3.3767 3.09424 0
M  V30 77 N 11.4114 3.37724 3.17012 0
M  V30 78 C 12.1464 4.25837 3.83993 0
M  V30 79 N 11.6424 5.24138 4.53047 0
M  V30 80 N 13.4354 4.1366 3.80581 0
M  V30 81 H 5.5864 2.0565 0.531194 0
M  V30 82 H 7.8494 0.90024 0.297106 0
M  V30 83 H 7.5554 3.10684 1.64828 0
M  V30 84 H 7.4294 2.13923 3.10672 0
M  V30 85 H 9.8164 1.24632 2.6749 0
M  V30 86 H 9.8974 2.2488 1.21912 0
M  V30 87 H 9.5414 4.32791 2.65808 0
M  V30 88 H 9.4714 3.29491 4.10784 0
M  V30 89 H 11.9624 2.6658 2.6785 0
M  V30 90 H 12.2754 5.87684 5.01844 0
M  V30 91 H 10.6204 5.28068 4.5185 0
M  V30 92 H 13.8114 3.36127 3.25785 0
M  V30 93 H 13.9844 4.82538 4.32505 0
M  V30 94 N 7.3905 -1.2043 1.01659 0
M  V30 95 C 8.8015 -1.71517 0.737482 0
M  V30 96 C 9.1525 -1.81547 -0.743973 0
M  V30 97 O 8.2775 -1.47803 -1.58061 0
M  V30 98 C 8.8725 -3.11515 1.33206 0
M  V30 99 C 7.4315 -3.59912 1.10183 0
M  V30 100 C 6.5785 -2.37116 1.43776 0
M  V30 101 H 9.5295 -1.05444 1.18606 0
M  V30 102 H 9.5505 -3.73575 0.722636 0
M  V30 103 H 9.0625 -3.04182 2.41028 0
M  V30 104 H 7.1635 -3.72577 0.0412756 0
M  V30 105 H 7.2765 -4.44731 1.78188 0
M  V30 106 H 5.6405 -2.39857 0.856778 0
M  V30 107 H 6.4235 -2.32424 2.52654 0
M  V30 108 N 8.8686 -0.792821 -1.36206 0
M  V30 109 C 10.0966 -0.378825 -2.03402 0
M  V30 110 C 10.5116 1.00586 -1.59774 0
M  V30 111 O 9.8686 1.64574 -0.788764 0
M  V30 112 C 9.9196 -0.43683 -3.58851 0
M  V30 113 O 9.6406 -1.76691 -4.00889 0
M  V30 114 C 11.1416 -0.0138943 -4.43298 0
M  V30 115 H 8.3616 -0.155673 -0.652692 0
M  V30 116 H 10.9056 -1.07261 -1.74113 0
M  V30 117 H 9.0606 0.208575 -3.86838 0
M  V30 118 H 9.4746 -1.72011 -4.95492 0
M  V30 119 H 10.9486 -0.105615 -5.51899 0
M  V30 120 H 11.4256 1.03915 -4.2673 0
M  V30 121 H 12.0316 -0.63192 -4.20579 0
M  V30 122 N 10.3467 1.47872 -0.545128 0
M  V30 123 C 11.2767 2.32661 0.197793 0
M  V30 124 C 12.2577 1.43041 0.920504 0
M  V30 125 O 13.4427 1.71912 0.90333 0
M  V30 126 C 10.5727 3.24569 1.23582 0
M  V30 127 C 9.5267 4.23333 0.630323 0
M  V30 128 C 8.8527 5.0448 1.77211 0
M  V30 129 C 10.1527 5.20704 -0.407974 0
M  V30 130 H 11.8467 2.95024 -0.510045 0
M  V30 131 H 9.3927 1.4187 -0.246731 0
M  V30 132 H 11.3457 3.8272 1.76362 0
M  V30 133 H 10.0697 2.60236 1.97344 0
M  V30 134 H 8.7287 3.6639 0.123922 0
M  V30 135 H 8.3767 4.36561 2.49847 0
M  V30 136 H 8.0767 5.71339 1.37281 0
M  V30 137 H 9.6007 5.65487 2.3034 0
M  V30 138 H 11.0147 5.7329 0.033305 0
M  V30 139 H 9.4117 5.95699 -0.725486 0
M  V30 140 H 10.4817 4.66917 -1.30828 0
M  V30 141 N 11.8248 0.280983 1.55075 0
M  V30 142 C 13.0708 -0.327573 2.00745 0
M  V30 143 C 13.4258 -1.53045 1.16598 0
M  V30 144 O 12.7188 -1.90221 0.229451 0
M  V30 145 C 12.9128 -0.754656 3.49342 0
M  V30 146 C 12.7418 0.40529 4.4787 0
M  V30 147 C 11.5118 0.890947 4.97383 0
M  V30 148 C 13.7098 1.24371 4.99035 0
M  V30 149 N 11.6918 2.01975 5.79724 0
M  V30 150 C 13.0628 2.22031 5.7888 0
M  V30 151 C 15.1178 1.27638 4.81262 0
M  V30 152 C 13.8208 3.22709 6.42846 0
M  V30 153 C 15.8468 2.27164 5.46031 0
M  V30 154 C 15.2088 3.23556 6.25692 0
M  V30 155 H 11.3078 -0.0848774 0.77738 0
M  V30 156 H 13.8918 0.406342 1.90413 0
M  V30 157 H 12.0628 -1.45778 3.60005 0
M  V30 158 H 13.7948 -1.34105 3.81835 0
M  V30 159 H 10.5498 0.469262 4.71269 0
M  V30 160 H 10.9738 2.58794 6.25584 0
M  V30 161 H 15.6158 0.544936 4.19274 0
M  V30 162 H 13.3338 3.96784 7.0398 0
M  V30 163 H 16.9198 2.30441 5.34217 0
M  V30 164 H 15.7998 3.99309 6.74924 0
M  V30 165 N 13.3029 -1.57598 0.00835791 0
M  V30 166 C 14.2659 -2.07884 -0.965242 0
M  V30 167 C 15.2659 -0.989825 -1.26725 0
M  V30 168 O 16.4559 -1.25218 -1.21104 0
M  V30 169 C 13.5879 -2.52731 -2.28779 0
M  V30 170 H 14.7809 -2.95178 -0.530112 0
M  V30 171 H 12.3339 -1.54458 -0.239283 0
M  V30 172 H 13.0689 -1.68705 -2.76964 0
M  V30 173 H 12.8539 -3.32272 -2.08177 0
M  V30 174 H 14.3439 -2.91933 -2.98605 0
M  V30 175 N 14.781 0.264519 -1.55364 0
M  V30 176 C 15.744 1.31046 -1.88042 0
M  V30 177 C 16.744 1.41943 -0.755569 0
M  V30 178 O 17.934 1.40947 -1.02369 0
M  V30 179 C 15.066 2.69067 -2.09323 0
M  V30 180 H 16.259 1.03297 -2.81549 0
M  V30 181 H 13.812 0.502989 -1.47986 0
M  V30 182 H 14.547 3.01982 -1.18226 0
M  V30 183 H 14.332 2.62542 -2.91229 0
M  V30 184 H 15.822 3.44623 -2.35848 0
M  V30 185 N 16.2591 1.48442 0.529413 0
M  V30 186 C 17.2221 1.62524 1.61612 0
M  V30 187 C 18.2221 0.498509 1.52877 0
M  V30 188 O 19.4121 0.76431 1.56537 0
M  V30 189 C 16.5441 1.59597 3.01233 0
M  V30 190 H 17.7371 2.59423 1.50465 0
M  V30 191 H 15.2901 1.37047 0.751514 0
M  V30 192 H 16.0251 0.641781 3.17886 0
M  V30 193 H 15.8101 2.41397 3.08982 0
M  V30 194 H 17.3001 1.72646 3.80241 0
M  V30 195 N 17.7372 -0.778329 1.37039 0
M  V30 196 C 18.6672 -1.90546 1.34962 0
M  V30 197 C 19.6482 -1.68681 0.219274 0
M  V30 198 O 20.8332 -1.89634 0.418624 0
M  V30 199 C 17.9632 -3.27734 1.14925 0
M  V30 200 C 16.9172 -3.64147 2.24902 0
M  V30 201 C 16.2432 -4.99806 1.89996 0
M  V30 202 C 17.5432 -3.71579 3.67051 0
M  V30 203 H 19.2372 -1.92541 2.29277 0
M  V30 204 H 16.7832 -0.924948 1.10366 0
M  V30 205 H 18.7362 -4.06215 1.12104 0
M  V30 206 H 17.4602 -3.26154 0.170631 0
M  V30 207 H 16.1192 -2.8797 2.26868 0
M  V30 208 H 15.7672 -4.94759 0.906796 0
M  V30 209 H 15.4672 -5.25139 2.63634 0
M  V30 210 H 16.9912 -5.80694 1.88749 0
M  V30 211 H 18.4052 -4.40227 3.67251 0
M  V30 212 H 16.8022 -4.08405 4.39688 0
M  V30 213 H 17.8722 -2.72404 4.01154 0
M  V30 214 N 19.2153 -1.21501 -1.00376 0
M  V30 215 C 20.4433 -1.059 -1.77744 0
M  V30 216 C 20.8583 0.391125 -1.84704 0
M  V30 217 O 20.2153 1.27133 -1.30933 0
M  V30 218 C 20.2663 -1.65111 -3.21591 0
M  V30 219 O 19.9873 -3.0445 -3.15027 0
M  V30 220 C 21.4883 -1.54637 -4.15454 0
M  V30 221 H 18.7083 -0.371825 -0.558558 0
M  V30 222 H 21.2523 -1.60865 -1.26264 0
M  V30 223 H 19.4073 -1.14235 -3.70175 0
M  V30 224 H 19.8213 -3.3278 -4.0541 0
M  V30 225 H 21.2953 -2.00808 -5.14179 0
M  V30 226 H 21.7723 -0.501022 -4.36333 0
M  V30 227 H 22.3783 -2.04767 -3.72761 0
M  V30 228 N 20.6934 1.19889 -1.02296 0
M  V30 229 C 21.6234 2.25141 -0.619174 0
M  V30 230 C 22.6044 1.66051 0.368915 0
M  V30 231 O 23.7894 1.92546 0.252941 0
M  V30 232 C 20.9194 3.4728 0.0368783 0
M  V30 233 C 19.8734 4.19005 -0.872865 0
M  V30 234 C 19.1994 5.34637 -0.0822402 0
M  V30 235 C 20.4994 4.74452 -2.18387 0
M  V30 236 H 22.1934 2.59171 -1.49903 0
M  V30 237 H 19.7394 1.24579 -0.722222 0
M  V30 238 H 21.6924 4.20098 0.330958 0
M  V30 239 H 20.4164 3.12433 0.95149 0
M  V30 240 H 19.0754 3.48061 -1.15105 0
M  V30 241 H 18.7234 4.96034 0.83422 0
M  V30 242 H 18.4234 5.83557 -0.688149 0
M  V30 243 H 19.9474 6.10255 0.205238 0
M  V30 244 H 21.3614 5.39055 -1.95172 0
M  V30 245 H 19.7584 5.33834 -2.74119 0
M  V30 246 H 20.8284 3.92844 -2.84257 0
M  V30 247 N 22.1715 0.800033 1.35784 0
M  V30 248 C 23.1015 0.220184 2.3246 0
M  V30 249 C 24.0825 -0.65073 1.57161 0
M  V30 250 O 25.2675 -0.582359 1.85263 0
M  V30 251 C 22.3975 -0.637353 3.41402 0
M  V30 252 C 21.3515 0.134531 4.27789 0
M  V30 253 C 20.6775 -0.844285 5.27992 0
M  V30 254 C 21.9775 1.32979 5.05088 0
M  V30 255 H 23.6715 1.02787 2.81203 0
M  V30 256 H 21.2175 0.495717 1.35199 0
M  V30 257 H 23.1705 -1.05302 4.08031 0
M  V30 258 H 21.8945 -1.47785 2.91251 0
M  V30 259 H 20.5535 0.531296 3.6273 0
M  V30 260 H 20.2015 -1.68011 4.74111 0
M  V30 261 H 19.9015 -0.332184 5.8666 0
M  V30 262 H 21.4255 -1.2583 5.97494 0
M  V30 263 H 22.8395 0.98934 5.64699 0
M  V30 264 H 21.2365 1.77593 5.7322 0
M  V30 265 H 22.3065 2.11978 4.36111 0
M  V30 266 N 23.6496 -1.47581 0.552962 0
M  V30 267 C 24.8956 -2.02782 0.0273648 0
M  V30 268 C 25.2286 -1.42687 -1.31734 0
M  V30 269 O 24.5036 -0.580897 -1.85623 0
M  V30 270 C 24.7866 -3.60031 -0.0702371 0
M  V30 271 C 24.6396 -4.30566 1.30126 0
M  V30 272 C 25.9586 -4.33028 -0.785771 0
M  V30 273 H 23.0776 -0.736912 0.0114185 0
M  V30 274 H 25.7196 -1.76056 0.714432 0
M  V30 275 H 23.8696 -3.82932 -0.655382 0
M  V30 276 H 25.5416 -4.19018 1.92929 0
M  V30 277 H 23.7846 -3.91086 1.87709 0
M  V30 278 H 24.4556 -5.39114 1.18573 0
M  V30 279 H 26.9316 -4.15095 -0.288982 0
M  V30 280 H 25.8076 -5.42695 -0.823013 0
M  V30 281 H 26.0686 -4.01945 -1.841 0
M  V30 282 N 25.1277 -0.289203 -1.54924 0
M  V30 283 C 26.0577 0.58549 -2.2604 0
M  V30 284 C 27.0387 1.14753 -1.25562 0
M  V30 285 O 28.2237 1.17906 -1.54311 0
M  V30 286 C 25.3537 1.76305 -2.99222 0
M  V30 287 C 24.3077 1.33191 -4.06748 0
M  V30 288 C 23.6337 2.5937 -4.6758 0
M  V30 289 C 24.9337 0.471775 -5.20165 0
M  V30 290 H 26.6277 -0.00763532 -2.99399 0
M  V30 291 H 24.1737 -0.00511229 -1.43999 0
M  V30 292 H 26.1267 2.38097 -3.47689 0
M  V30 293 H 24.8507 2.38223 -2.23422 0
M  V30 294 H 23.5097 0.737121 -3.59113 0
M  V30 295 H 23.1577 3.19576 -3.88433 0
M  V30 296 H 22.8577 2.31228 -5.40192 0
M  V30 297 H 24.3817 3.21985 -5.18804 0
M  V30 298 H 25.7957 0.995056 -5.64599 0
M  V30 299 H 24.1927 0.284639 -5.99425 0
M  V30 300 H 25.2627 -0.506041 -4.82252 0
M  V30 301 N 26.6058 1.57591 -0.0167156 0
M  V30 302 C 27.5358 2.12496 0.967858 0
M  V30 303 C 28.5168 1.03807 1.34752 0
M  V30 304 O 29.7018 1.31577 1.42833 0
M  V30 305 C 26.8318 2.64194 2.25431 0
M  V30 306 C 25.7858 3.77559 2.01576 0
M  V30 307 C 25.1118 4.15636 3.36379 0
M  V30 308 C 26.4118 5.04151 1.36489 0
M  V30 309 H 28.1058 2.95013 0.510643 0
M  V30 310 H 25.6518 1.41915 0.244181 0
M  V30 311 H 27.6048 3.01236 2.94678 0
M  V30 312 H 26.3288 1.78821 2.73296 0
M  V30 313 H 24.9878 3.40937 1.34751 0
M  V30 314 H 24.6358 3.27263 3.81979 0
M  V30 315 H 24.3358 4.92022 3.21229 0
M  V30 316 H 25.8598 4.5525 4.06915 0
M  V30 317 H 27.2738 5.38857 1.95718 0
M  V30 318 H 25.6708 5.85453 1.31776 0
M  V30 319 H 26.7408 4.83733 0.336219 0
M  V30 320 N 28.0839 -0.256276 1.55502 0
M  V30 321 C 29.4999 -0.604325 1.47716 0
M  V30 322 C 29.6999 -1.88763 0.705039 0
M  V30 323 O 28.7559 -2.51445 0.230613 0
M  V30 324 C 30.0689 -0.715756 2.92057 0
M  V30 325 C 31.6169 -0.808706 3.02372 0
M  V30 326 C 32.0919 -0.951777 4.48001 0
M  V30 327 N 33.5829 -1.01688 4.519 0
M  V30 328 C 34.3179 -1.14668 5.61817 0
M  V30 329 N 33.8139 -1.24261 6.81565 0
M  V30 330 N 35.6069 -1.1791 5.49594 0
M  V30 331 H 27.7579 0.586291 2.04148 0
M  V30 332 H 30.0209 0.201015 0.926443 0
M  V30 333 H 29.7269 0.157027 3.51349 0
M  V30 334 H 29.6009 -1.59071 3.42018 0
M  V30 335 H 31.9879 -1.67195 2.43166 0
M  V30 336 H 32.0689 0.0912063 2.55637 0
M  V30 337 H 31.7129 -0.0931291 5.07815 0
M  V30 338 H 31.6429 -1.86659 4.92408 0
M  V30 339 H 34.1339 -0.954468 3.65648 0
M  V30 340 H 34.4469 -1.34046 7.61086 0
M  V30 341 H 32.7919 -1.21236 6.84344 0
M  V30 342 H 35.9829 -1.10057 4.54978 0
M  V30 343 H 36.1559 -1.27681 6.35296 0
M  V30 344 N 29.562 -1.4872 -0.521534 0
M  V30 345 C 30.81 -1.56857 -1.27437 0
M  V30 346 C 31.131 -0.247982 -1.93417 0
M  V30 347 O 30.401 0.731151 -1.81744 0
M  V30 348 H 28.981 -0.577885 -0.473347 0
M  V30 349 H 31.643 -1.85233 -0.606205 0
M  V30 350 H 30.739 -2.35402 -2.0492 0
M  V30 351 N 31.0401 0.771051 -1.3745 0
M  V30 352 C 32.4511 1.34737 -1.29239 0
M  V30 353 C 32.8021 1.96109 0.0596908 0
M  V30 354 O 31.9271 1.93865 0.961534 0
M  V30 355 C 32.5221 2.44973 -2.34037 0
M  V30 356 C 31.0811 2.98372 -2.29458 0
M  V30 357 C 30.2281 1.71595 -2.17831 0
M  V30 358 H 33.1791 0.571256 -1.48062 0
M  V30 359 H 33.2001 3.24471 -1.98744 0
M  V30 360 H 32.7121 2.00276 -3.32432 0
M  V30 361 H 30.8131 3.47443 -1.34589 0
M  V30 362 H 30.9261 3.53939 -3.229 0
M  V30 363 H 29.2901 1.94547 -1.64388 0
M  V30 364 H 30.0731 1.29001 -3.18141 0
M  V30 365 N 32.5182 1.22032 0.997298 0
M  V30 366 C 33.9292 1.0397 1.55071 0
M  V30 367 C 34.2802 -0.398192 1.92117 0
M  V30 368 O 33.4052 -1.28254 1.74298 0
M  V30 369 C 34.0002 1.88109 2.81781 0
M  V30 370 C 32.5592 1.74357 3.33581 0
M  V30 371 C 31.7062 1.84846 2.06706 0
M  V30 372 H 34.6572 1.35941 0.818883 0
M  V30 373 H 34.6782 1.39589 3.53971 0
M  V30 374 H 34.1902 2.92754 2.54787 0
M  V30 375 H 32.2912 0.72427 3.65493 0
M  V30 376 H 32.4042 2.56772 4.04481 0
M  V30 377 H 30.7682 1.28238 2.20062 0
M  V30 378 H 31.5512 2.91014 1.82114 0
M  V30 379 N 33.9963 -1.19345 1.0293 0
M  V30 380 C 35.2423 -1.89318 0.727083 0
M  V30 381 C 35.5753 -1.79446 -0.742483 0
M  V30 382 O 34.8503 -1.1871 -1.54072 0
M  V30 383 C 35.1333 -3.40238 1.17942 0
M  V30 384 C 34.9863 -3.58979 2.71024 0
M  V30 385 C 36.3053 -4.33479 0.760548 0
M  V30 386 H 33.4243 -0.687475 0.265606 0
M  V30 387 H 36.0663 -1.40477 1.2793 0
M  V30 388 H 34.2163 -3.81964 0.709608 0
M  V30 389 H 35.8883 -3.26421 3.25955 0
M  V30 390 H 34.1313 -3.02018 3.11396 0
M  V30 391 H 34.8023 -4.64823 2.9773 0
M  V30 392 H 37.2783 -3.99469 1.16464 0
M  V30 393 H 36.1543 -5.37664 1.10493 0
M  V30 394 H 36.4153 -4.40813 -0.337063 0
M  V30 395 N 35.4744 -0.807222 -1.35358 0
M  V30 396 C 36.4374 -0.223665 -2.28106 0
M  V30 397 C 37.4374 0.589354 -1.4961 0
M  V30 398 O 38.6274 0.407745 -1.69361 0
M  V30 399 C 35.7594 0.688149 -3.33882 0
M  V30 400 H 36.9524 -1.04169 -2.81227 0
M  V30 401 H 34.5054 -0.577921 -1.45223 0
M  V30 402 H 35.2404 1.52984 -2.85948 0
M  V30 403 H 35.0254 0.10687 -3.91954 0
M  V30 404 H 36.5154 1.09075 -4.03104 0
M  V30 405 N 36.9525 1.47285 -0.560781 0
M  V30 406 C 38.3685 1.58065 -0.22081 0
M  V30 407 C 38.5685 1.55892 1.27671 0
M  V30 408 O 37.6245 1.46422 2.0571 0
M  V30 409 C 38.9375 2.88418 -0.850625 0
M  V30 410 C 40.4855 3.02009 -0.822184 0
M  V30 411 C 40.9605 4.35066 -1.43113 0
M  V30 412 N 42.4515 4.41711 -1.39448 0
M  V30 413 C 43.1865 5.43237 -1.83525 0
M  V30 414 N 42.6825 6.51555 -2.35474 0
M  V30 415 N 44.4755 5.34304 -1.74574 0
M  V30 416 H 36.6265 1.46941 -1.53369 0
M  V30 417 H 38.8895 0.699558 -0.639783 0
M  V30 418 H 38.5955 2.95755 -1.9032 0
M  V30 419 H 38.4695 3.75612 -0.345773 0
M  V30 420 H 40.8565 2.94266 0.221714 0
M  V30 421 H 40.9375 2.16347 -1.36483 0
M  V30 422 H 40.5815 4.43565 -2.47412 0
M  V30 423 H 40.5115 5.19465 -0.863899 0
M  V30 424 H 43.0025 3.64027 -1.01452 0
M  V30 425 H 43.3155 7.25203 -2.67021 0
M  V30 426 H 41.6605 6.52435 -2.39487 0
M  V30 427 H 44.8515 4.48581 -1.33763 0
M  V30 428 H 45.0245 6.13288 -2.09242 0
M  V30 429 N 38.4306 0.297415 1.54768 0
M  V30 430 C 39.3936 -0.567375 2.22066 0
M  V30 431 C 40.3936 -1.06409 1.20556 0
M  V30 432 O 41.5836 -0.960691 1.45315 0
M  V30 433 C 38.7156 -1.78517 2.90421 0
M  V30 434 H 39.9086 0.0205534 2.99893 0
M  V30 435 H 37.4616 0.0482163 1.56226 0
M  V30 436 H 38.1966 -2.41303 2.16664 0
M  V30 437 H 37.9816 -1.43669 3.64831 0
M  V30 438 H 39.4716 -2.39964 3.41771 0
M  V30 439 N 39.9087 -1.5758 0.0250728 0
M  V30 440 C 41.1567 -1.91255 -0.653151 0
M  V30 441 C 41.4777 -0.901691 -1.729 0
M  V30 442 O 40.7477 0.0573785 -1.95816 0
M  V30 443 H 39.3277 -0.705942 -0.244243 0
M  V30 444 H 41.9897 -1.94767 0.0719209 0
M  V30 445 H 41.0857 -2.91752 -1.10847 0
M  V30 446 N 41.3868 0.248026 -1.55636 0
M  V30 447 C 42.3498 1.29044 -1.89421 0
M  V30 448 C 43.3498 1.41134 -0.770581 0
M  V30 449 O 44.5398 1.39854 -1.03858 0
M  V30 450 C 41.6718 2.66831 -2.12165 0
M  V30 451 H 42.8648 1.00305 -2.82629 0
M  V30 452 H 40.4178 0.487265 -1.48511 0
M  V30 453 H 41.1528 3.00711 -1.21422 0
M  V30 454 H 40.9378 2.59438 -2.93997 0
M  V30 455 H 42.4278 3.42103 -2.3949 0
M  V30 456 N 42.8649 1.48995 0.513639 0
M  V30 457 C 44.0899 1.61792 1.29762 0
M  V30 458 C 44.5149 0.284475 1.85936 0
M  V30 459 O 43.8729 -0.746185 1.65232 0
M  V30 460 C 43.9209 2.67993 2.41272 0
M  V30 461 O 43.0249 2.26287 3.44772 0
M  V30 462 H 42.3659 0.541963 0.38363 0
M  V30 463 H 44.8959 1.95097 0.616307 0
M  V30 464 H 44.9059 2.89772 2.87221 0
M  V30 465 H 43.5809 3.64791 1.9975 0
M  V30 466 H 42.1579 2.14788 3.04829 0
M  V30 467 N 44.343 -0.763751 1.37857 0
M  V30 468 C 45.568 -1.55805 1.36893 0
M  V30 469 C 45.993 -1.88054 -0.0416135 0
M  V30 470 O 45.351 -1.49825 -1.02089 0
M  V30 471 C 45.399 -2.84012 2.22192 0
M  V30 472 O 44.503 -3.78732 1.63204 0
M  V30 473 H 43.844 -0.471638 0.46739 0
M  V30 474 H 46.374 -0.944657 1.81487 0
M  V30 475 H 46.384 -3.33037 2.35691 0
M  V30 476 H 45.059 -2.59869 3.24716 0
M  V30 477 H 43.636 -3.37402 1.58791 0
M  V30 478 N 45.8211 -1.22559 -0.990812 0
M  V30 479 C 46.7841 -0.998863 -2.0629 0
M  V30 480 C 47.7841 0.0354834 -1.60761 0
M  V30 481 O 48.9741 -0.203231 -1.7301 0
M  V30 482 C 46.1061 -0.509203 -3.37076 0
M  V30 483 H 47.2991 -1.95014 -2.27837 0
M  V30 484 H 44.8521 -1.04456 -1.16269 0
M  V30 485 H 45.5871 0.446335 -3.21214 0
M  V30 486 H 45.3721 -1.25547 -3.71457 0
M  V30 487 H 46.8621 -0.370888 -4.1595 0
M  V30 488 N 47.2992 1.18797 -1.03562 0
M  V30 489 C 48.5472 1.88278 -0.734569 0
M  V30 490 C 48.8682 1.8043 0.739586 0
M  V30 491 O 48.1382 1.21925 1.53333 0
M  V30 492 H 46.7182 0.696991 -0.268725 0
M  V30 493 H 49.3802 1.44192 -1.31129 0
M  V30 494 H 48.4762 2.94443 -1.03489 0
M  V30 495 N 48.7773 0.814389 1.34928 0
M  V30 496 C 49.7073 0.244827 2.32213 0
M  V30 497 C 50.6883 -0.634024 1.57842 0
M  V30 498 O 51.8733 -0.562676 1.8587 0
M  V30 499 C 49.0033 -0.601106 3.42058 0
M  V30 500 C 47.9573 0.179896 4.27622 0
M  V30 501 C 47.2833 -0.788237 5.28858 0
M  V30 502 C 48.5833 1.38329 5.03649 0
M  V30 503 H 50.2773 1.05763 2.80097 0
M  V30 504 H 47.8233 0.510029 1.34665 0
M  V30 505 H 49.7763 -1.00968 4.09125 0
M  V30 506 H 48.5003 -1.44688 2.92802 0
M  V30 507 H 47.1593 0.569739 3.62146 0
M  V30 508 H 46.8073 -1.62973 4.75866 0
M  V30 509 H 46.5073 -0.269942 5.8698 0
M  V30 510 H 48.0313 -1.19485 5.98795 0
M  V30 511 H 49.4453 1.04918 5.63618 0
M  V30 512 H 47.8423 1.83662 5.71304 0
M  V30 513 H 48.9123 2.16592 4.33839 0
M  V30 514 N 50.2554 -1.46986 0.568584 0
M  V30 515 C 51.5034 -2.02041 0.0487022 0
M  V30 516 C 51.8244 -1.44408 -1.31039 0
M  V30 517 O 51.0944 -0.623477 -1.85714 0
M  V30 518 H 49.6744 -0.746849 0.015014 0
M  V30 519 H 52.3364 -1.80257 0.741168 0
M  V30 520 H 51.4324 -3.12085 -0.0308961 0
M  V30 521 N 51.7335 -0.305618 -1.54608 0
M  V30 522 C 53.1445 0.186098 -1.8577 0
M  V30 523 C 53.4955 1.53058 -1.22751 0
M  V30 524 O 52.6205 2.09888 -0.526893 0
M  V30 525 C 53.2155 0.344449 -3.37044 0
M  V30 526 C 51.7745 0.780384 -3.68221 0
M  V30 527 C 50.9215 -0.108554 -2.77087 0
M  V30 528 H 53.8725 -0.526485 -1.49712 0
M  V30 529 H 53.8935 1.17828 -3.61796 0
M  V30 530 H 53.4055 -0.634235 -3.82883 0
M  V30 531 H 51.5065 1.76945 -3.27904 0
M  V30 532 H 51.6195 0.596572 -4.75371 0
M  V30 533 H 49.9835 0.412931 -2.5133 0
M  V30 534 H 50.7665 -1.08368 -3.25747 0
M  V30 535 N 53.2116 1.57565 -0.0334293 0
M  V30 536 C 54.4576 1.92262 0.645226 0
M  V30 537 C 54.7906 0.910543 1.71531 0
M  V30 538 O 54.0656 -0.066099 1.94388 0
M  V30 539 C 54.3486 3.37422 1.2577 0
M  V30 540 C 54.2016 4.49369 0.196891 0
M  V30 541 C 55.5206 3.82628 2.17449 0
M  V30 542 H 52.6396 0.699171 0.233085 0
M  V30 543 H 55.2816 1.89779 -0.0915694 0
M  V30 544 H 53.4316 3.39669 1.88566 0
M  V30 545 H 55.1036 4.59254 -0.433962 0
M  V30 546 H 53.3466 4.31168 -0.477137 0
M  V30 547 H 54.0176 5.47978 0.665124 0
M  V30 548 H 56.4936 3.82145 1.64634 0
M  V30 549 H 55.3696 4.84883 2.57254 0
M  V30 550 H 55.6306 3.18376 3.0674 0
M  V30 551 N 54.6897 -0.239769 1.55765 0
M  V30 552 C 55.9357 -0.968234 1.78194 0
M  V30 553 C 56.2687 -1.84701 0.599938 0
M  V30 554 O 55.5437 -1.9031 -0.401524 0
M  V30 555 C 55.8267 -1.8227 3.10564 0
M  V30 556 C 55.6797 -0.971633 4.3918 0
M  V30 557 C 56.9987 -2.80388 3.39221 0
M  V30 558 H 54.1177 -0.350572 0.648281 0
M  V30 559 H 56.7597 -0.238259 1.885 0
M  V30 560 H 54.9097 -2.44507 3.01908 0
M  V30 561 H 56.5817 -0.367408 4.59835 0
M  V30 562 H 54.8247 -0.276276 4.32919 0
M  V30 563 H 55.4957 -1.60346 5.28198 0
M  V30 564 H 57.9717 -2.28287 3.47885 0
M  V30 565 H 56.8477 -3.3729 4.33044 0
M  V30 566 H 57.1087 -3.57212 2.60484 0
M  V30 567 N 56.1678 -1.49265 -0.50573 0
M  V30 568 C 57.5838 -1.35923 -0.836486 0
M  V30 569 C 57.7838 -0.388704 -1.97715 0
M  V30 570 O 56.8398 0.181336 -2.51848 0
M  V30 571 C 58.1528 -2.76531 -1.18115 0
M  V30 572 C 59.7008 -2.85197 -1.28964 0
M  V30 573 C 60.1758 -4.26561 -1.66761 0
M  V30 574 N 61.6668 -4.2935 -1.73819 0
M  V30 575 C 62.4018 -5.35693 -2.045 0
M  V30 576 N 61.8978 -6.52287 -2.33438 0
M  V30 577 N 63.6908 -5.23105 -2.05711 0
M  V30 578 H 55.8418 -2.10965 0.246519 0
M  V30 579 H 58.1048 -0.9468 0.0476887 0
M  V30 580 H 57.8108 -3.49226 -0.416398 0
M  V30 581 H 57.6848 -3.11599 -2.1257 0
M  V30 582 H 60.0718 -2.12742 -2.04511 0
M  V30 583 H 60.1528 -2.53718 -0.325704 0
M  V30 584 H 59.7968 -4.99541 -0.917656 0
M  V30 585 H 59.7268 -4.55502 -2.64246 0
M  V30 586 H 62.2178 -3.4526 -1.53635 0
M  V30 587 H 62.5308 -7.29158 -2.56024 0
M  V30 588 H 60.8758 -6.55521 -2.30905 0
M  V30 589 H 64.0668 -4.31026 -1.82577 0
M  V30 590 H 64.2398 -6.06078 -2.29289 0
M  V30 591 N 57.6459 0.756429 -1.3826 0
M  V30 592 C 58.8859 1.52833 -1.35725 0
M  V30 593 C 59.2499 1.91926 0.0534106 0
M  V30 594 O 60.4509 2.68028 0.203613 0
M  V30 595 C 58.7219 2.74919 -2.28373 0
M  V30 596 S 60.2809 3.64817 -2.43832 0
M  V30 597 H 57.0989 0.523043 -0.481608 0
M  V30 598 H 59.7009 0.888212 -1.74158 0
M  V30 599 H 58.4049 2.44304 -3.29763 0
M  V30 600 H 57.9359 3.43878 -1.91079 0
M  V30 601 H 59.9509 4.676 -1.66027 0
M  V30 602 N 59.124 1.23083 0.984299 0
M  V30 603 C 60.034 1.02515 2.11016 0
M  V30 604 C 61.05 -0.0291702 1.73976 0
M  V30 605 O 62.226 0.165434 2.00719 0
M  V30 606 C 59.291 0.614673 3.41208 0
M  V30 607 C 58.352 1.74359 3.92297 0
M  V30 608 C 57.585 1.35261 5.16275 0
M  V30 609 O 57.808 0.235136 5.69915 0
M  V30 610 O 56.742 2.17227 5.61334 0
M  V30 611 H 60.568 1.96862 2.31255 0
M  V30 612 H 58.153 1.01753 1.09392 0
M  V30 613 H 60.035 0.396518 4.1953 0
M  V30 614 H 58.71 -0.299851 3.22308 0
M  V30 615 H 57.617 2.01635 3.1511 0
M  V30 616 H 58.95 2.63629 4.15645 0
M  V30 617 N 60.6021 -1.18246 1.0419 0
M  V30 618 C 62.0131 -1.69914 0.773698 0
M  V30 619 C 62.3641 -1.83085 -0.705297 0
M  V30 620 O 61.4891 -1.51123 -1.5489 0
M  V30 621 C 62.0841 -3.08619 1.39784 0
M  V30 622 C 60.6431 -3.57494 1.17792 0
M  V30 623 C 59.7901 -2.34013 1.48773 0
M  V30 624 H 62.7411 -1.02904 1.20816 0
M  V30 625 H 62.7621 -3.71958 0.801714 0
M  V30 626 H 62.2741 -2.99001 2.47426 0
M  V30 627 H 60.3751 -3.72406 0.120295 0
M  V30 628 H 60.4881 -4.40852 1.87581 0
M  V30 629 H 58.8521 -2.37986 0.907463 0
M  V30 630 H 59.6351 -2.27013 2.57527 0
M  V30 631 N 62.0802 -0.821533 -1.34494 0
M  V30 632 C 63.3202 -0.414785 -2.00147 0
M  V30 633 C 63.6842 1.00299 -1.6372 0
M  V30 634 O 64.8852 1.51255 -2.22206 0
M  V30 635 C 63.1562 -0.609403 -3.52166 0
M  V30 636 S 64.7152 -0.295297 -4.37805 0
M  V30 637 H 61.5332 -0.15679 -0.693497 0
M  V30 638 H 64.1352 -1.06705 -1.63812 0
M  V30 639 H 62.8392 -1.64096 -3.76166 0
M  V30 640 H 62.3702 0.0576414 -3.93358 0
M  V30 641 H 64.3852 0.891531 -4.88125 0
M  V30 642 N 63.5583 1.46682 -0.576371 0
M  V30 643 C 64.8353 1.95599 0.00703437 0
M  V30 644 C 65.2153 1.51904 1.46589 0
M  V30 645 O 64.5633 0.766755 2.15251 0
M  V30 646 C 64.7733 3.4864 -0.158404 0
M  V30 647 C 66.1213 4.24594 -0.0229439 0
M  V30 648 O 67.1453 3.56094 -0.0869173 0
M  V30 649 O 66.0043 5.46373 0.118015 0
M  V30 650 H 63.0983 0.825275 0.053384 0
M  V30 651 H 65.6443 1.56996 -0.644244 0
M  V30 652 H 64.4163 3.7331 -1.17282 0
M  V30 653 H 64.0393 3.94057 0.5296 0
M  V30 654 N 65.0364 0.313813 1.54444 0
M  V30 655 C 65.9994 -0.54379 2.22656 0
M  V30 656 C 66.9994 -1.05124 1.21678 0
M  V30 657 O 68.1894 -0.945225 1.46325 0
M  V30 658 C 65.3214 -1.75427 2.92298 0
M  V30 659 H 66.5144 0.0523599 2.99854 0
M  V30 660 H 64.0674 0.0647834 1.56166 0
M  V30 661 H 64.8024 -2.38991 2.19211 0
M  V30 662 H 64.5874 -1.39791 3.66334 0
M  V30 663 H 66.0774 -2.36325 3.44297 0
M  V30 664 N 66.5145 -1.57545 0.0417849 0
M  V30 665 C 67.9305 -1.56467 -0.314704 0
M  V30 666 C 68.1305 -1.04859 -1.72066 0
M  V30 667 O 67.1865 -0.700983 -2.42575 0
M  V30 668 C 68.4995 -3.00317 -0.15174 0
M  V30 669 C 70.0475 -3.12201 -0.223553 0
M  V30 670 C 70.5225 -4.57913 -0.0892295 0
M  V30 671 N 72.0135 -4.6297 -0.145808 0
M  V30 672 C 72.7485 -5.73362 -0.0658459 0
M  V30 673 N 72.2445 -6.92769 0.0659282 0
M  V30 674 N 74.0375 -5.6197 -0.12075 0
M  V30 675 H 66.1885 -1.89416 0.961014 0
M  V30 676 H 68.4515 -0.871862 0.372237 0
M  V30 677 H 68.1575 -3.42073 0.817254 0
M  V30 678 H 68.0315 -3.65892 -0.916692 0
M  V30 679 H 70.4185 -2.70349 -1.18301 0
M  V30 680 H 70.4995 -2.49323 0.571994 0
M  V30 681 H 70.1435 -5.00448 0.866867 0
M  V30 682 H 70.0735 -5.18786 -0.903802 0
M  V30 683 H 72.5645 -3.7709 -0.247286 0
M  V30 684 H 72.8775 -7.72707 0.119905 0
M  V30 685 H 71.2225 -6.94927 0.100885 0
M  V30 686 H 74.4135 -4.67572 -0.222187 0
M  V30 687 H 74.5865 -6.47977 -0.0549735 0
M  V30 688 N 67.9926 0.231505 -1.5589 0
M  V30 689 C 68.9556 1.27028 -1.90779 0
M  V30 690 C 69.9556 1.40308 -0.785507 0
M  V30 691 O 71.1456 1.38744 -1.05336 0
M  V30 692 C 68.2776 2.64566 -2.14983 0
M  V30 693 H 69.4706 0.973017 -2.83677 0
M  V30 694 H 67.0236 0.471486 -1.49019 0
M  V30 695 H 67.7586 2.99406 -1.24604 0
M  V30 696 H 67.5436 2.56305 -2.96732 0
M  V30 697 H 69.0336 3.39543 -2.43105 0
M  V30 698 N 69.4707 1.49531 0.497807 0
M  V30 699 C 70.4007 1.6935 1.60757 0
M  V30 700 C 71.3817 0.542218 1.61227 0
M  V30 701 O 72.5667 0.778417 1.77917 0
M  V30 702 C 69.6967 1.76298 2.99226 0
M  V30 703 C 68.6507 2.91248 3.13622 0
M  V30 704 C 67.9767 2.83312 4.53474 0
M  V30 705 C 69.2767 4.3214 2.93346 0
M  V30 706 H 70.9707 2.62263 1.44425 0
M  V30 707 H 68.5167 1.26208 0.693367 0
M  V30 708 H 70.4697 1.88749 3.76765 0
M  V30 709 H 69.1937 0.799871 3.16654 0
M  V30 710 H 67.8527 2.78404 2.38509 0
M  V30 711 H 67.5007 1.84902 4.67782 0
M  V30 712 H 67.2007 3.60465 4.64046 0
M  V30 713 H 68.7247 2.97775 5.33069 0
M  V30 714 H 70.1387 4.45649 3.60652 0
M  V30 715 H 68.5357 5.1054 3.15387 0
M  V30 716 H 69.6057 4.46363 1.89441 0
M  V30 717 N 70.9488 -0.749086 1.3866 0
M  V30 718 C 71.9118 -1.84457 1.36045 0
M  V30 719 C 72.9118 -1.58682 0.260122 0
M  V30 720 O 74.1018 -1.66343 0.517261 0
M  V30 721 C 71.2338 -3.22008 1.11911 0
M  V30 722 H 72.4268 -1.88182 2.33512 0
M  V30 723 H 69.9798 -0.951266 1.24019 0
M  V30 724 H 70.7148 -3.2395 0.150686 0
M  V30 725 H 70.4998 -3.42111 1.91579 0
M  V30 726 H 71.9898 -4.0208 1.12788 0
M  V30 727 N 72.4269 -1.23603 -0.977757 0
M  V30 728 C 73.3589 -0.977369 -2.07317 0
M  V30 729 C 74.3719 0.0495845 -1.62724 0
M  V30 730 O 75.5609 -0.186261 -1.77526 0
M  V30 731 C 72.6609 -0.451216 -3.35883 0
M  V30 732 C 71.8339 -1.53896 -4.09432 0
M  V30 733 C 70.8929 -1.01721 -5.16274 0
M  V30 734 O 69.9189 -1.70676 -5.43009 0
M  V30 735 N 71.1209 0.153594 -5.80297 0
M  V30 736 H 73.8859 -1.92047 -2.30082 0
M  V30 737 H 71.4469 -1.14497 -1.14465 0
M  V30 738 H 73.4389 -0.0871574 -4.04606 0
M  V30 739 H 72.0089 0.397368 -3.10064 0
M  V30 740 H 71.2289 -2.07566 -3.35127 0
M  V30 741 H 72.5169 -2.27037 -4.55337 0
M  V30 742 H 71.9149 0.730323 -5.60966 0
M  V30 743 H 70.4719 0.458892 -6.50183 0
M  V30 744 N 73.905 1.17692 -1.04816 0
M  V30 745 C 75.145 1.89545 -0.764979 0
M  V30 746 C 75.509 1.78979 0.695028 0
M  V30 747 O 76.71 2.45613 1.09215 0
M  V30 748 C 74.981 3.35659 -1.22751 0
M  V30 749 S 76.54 4.25526 -1.07112 0
M  V30 750 H 73.358 0.654432 -0.27792 0
M  V30 751 H 75.96 1.42163 -1.34201 0
M  V30 752 H 74.664 3.40882 -2.28533 0
M  V30 753 H 74.195 3.88083 -0.644594 0
M  V30 754 H 76.21 4.962 0.00697508 0
M  V30 755 N 75.3831 0.828654 1.34056 0
M  V30 756 C 76.3461 0.259927 2.27721 0
M  V30 757 C 77.3461 -0.565478 1.50529 0
M  V30 758 O 78.5361 -0.38075 1.69988 0
M  V30 759 C 75.6681 -0.634944 3.34935 0
M  V30 760 H 76.8611 1.0863 2.79534 0
M  V30 761 H 74.4141 0.600951 1.44285 0
M  V30 762 H 75.1491 -1.48416 2.88346 0
M  V30 763 H 74.9341 -0.0444999 3.92075 0
M  V30 764 H 76.4241 -1.02648 4.04788 0
M  V30 765 N 76.8612 -1.46375 0.584142 0
M  V30 766 C 78.2722 -1.86031 0.157959 0
M  V30 767 C 78.6232 -1.48753 -1.27933 0
M  V30 768 O 77.7482 -0.903098 -1.96655 0
M  V30 769 C 78.3432 -3.37642 0.279892 0
M  V30 770 C 76.9022 -3.76289 -0.09143 0
M  V30 771 C 76.0492 -2.7039 0.615178 0
M  V30 772 H 79.0002 -1.37509 0.792274 0
M  V30 773 H 79.0212 -3.77275 -0.494364 0
M  V30 774 H 78.5332 -3.64742 1.32607 0
M  V30 775 H 76.6342 -3.54806 -1.13769 0
M  V30 776 H 76.7472 -4.78246 0.285886 0
M  V30 777 H 75.1112 -2.5464 0.0552833 0
M  V30 778 H 75.8942 -3.0033 1.66303 0
M  V30 779 N 78.3393 -0.321999 -1.54275 0
M  V30 780 C 79.7503 0.166384 -1.85957 0
M  V30 781 C 80.1013 1.51747 -1.24367 0
M  V30 782 O 79.2263 2.09317 -0.549124 0
M  V30 783 C 79.8213 0.308681 -3.37391 0
M  V30 784 C 78.3803 0.741286 -3.69028 0
M  V30 785 C 77.5273 -0.137937 -2.76957 0
M  V30 786 H 80.4783 -0.542335 -1.49146 0
M  V30 787 H 80.4993 1.13984 -3.63026 0
M  V30 788 H 80.0113 -0.674809 -3.82188 0
M  V30 789 H 78.1123 1.73458 -3.29762 0
M  V30 790 H 78.2253 0.546118 -4.75977 0
M  V30 791 H 76.5893 0.386251 -2.51754 0
M  V30 792 H 77.3723 -1.11816 -3.2458 0
M  V30 793 N 79.8174 1.5752 -0.0501392 0
M  V30 794 C 81.2284 1.80271 0.485705 0
M  V30 795 C 81.5794 0.96228 1.70981 0
M  V30 796 O 80.7044 0.178578 2.15662 0
M  V30 797 C 81.2994 3.26957 0.887938 0
M  V30 798 C 79.8584 3.5063 1.36877 0
M  V30 799 C 79.0054 2.75165 0.343468 0
M  V30 800 H 81.9564 1.56281 -0.276028 0
M  V30 801 H 81.9774 3.37821 1.75093 0
M  V30 802 H 81.4894 3.881 -0.0031809 0
M  V30 803 H 79.5904 2.94766 2.27911 0
M  V30 804 H 79.7034 4.59343 1.36164 0
M  V30 805 H 78.0674 2.4127 0.816128 0
M  V30 806 H 78.8504 3.39034 -0.539548 0
M  V30 807 N 81.2955 -0.223234 1.56011 0
M  V30 808 C 82.2585 -1.26014 1.9145 0
M  V30 809 C 83.2585 -1.3989 0.792937 0
M  V30 810 O 84.4485 -1.38184 1.0607 0
M  V30 811 C 81.5805 -2.63422 2.16383 0
M  V30 812 H 82.7735 -0.95796 2.84189 0
M  V30 813 H 80.3265 -0.463576 1.49267 0
M  V30 814 H 81.0615 -2.98741 1.2619 0
M  V30 815 H 80.8465 -2.54728 2.98088 0
M  V30 816 H 82.3365 -3.38249 2.44903 0
M  V30 817 N 82.7736 -1.49793 -0.48987 0
M  V30 818 C 84.0196 -1.60078 -1.24511 0
M  V30 819 C 84.3526 -0.291608 -1.91998 0
M  V30 820 O 83.6276 0.705647 -1.81248 0
M  V30 821 C 83.9106 -2.76791 -2.30345 0
M  V30 822 C 83.7636 -4.17535 -1.67286 0
M  V30 823 C 85.0826 -2.89111 -3.31817 0
M  V30 824 H 82.2016 -0.582645 -0.451324 0
M  V30 825 H 84.8436 -1.82117 -0.541612 0
M  V30 826 H 82.9936 -2.5813 -2.90346 0
M  V30 827 H 84.6656 -4.4774 -1.11026 0
M  V30 828 H 82.9086 -4.22665 -0.976577 0
M  V30 829 H 83.5796 -4.95094 -2.44103 0
M  V30 830 H 86.0556 -3.06133 -2.81819 0
M  V30 831 H 84.9316 -3.72433 -4.03219 0
M  V30 832 H 85.1926 -1.9893 -3.94815 0
M  V30 833 N 84.2517 0.741722 -1.39055 0
M  V30 834 C 85.4917 1.51385 -1.37338 0
M  V30 835 C 85.8557 1.91972 0.0330513 0
M  V30 836 O 87.0567 2.68229 0.175174 0
M  V30 837 C 85.3277 2.72481 -2.31276 0
M  V30 838 S 86.8867 3.62211 -2.47687 0
M  V30 839 H 83.7047 0.517906 -0.487129 0
M  V30 840 H 86.3067 0.86969 -1.7509 0
M  V30 841 H 85.0107 2.40793 -3.32336 0
M  V30 842 H 84.5417 3.41832 -1.94716 0
M  V30 843 H 86.5567 4.65812 -1.70978 0
M  V30 844 N 85.7298 1.2412 0.971189 0
M  V30 845 C 86.6928 1.03156 2.04674 0
M  V30 846 C 87.6928 -0.00990322 1.60797 0
M  V30 847 O 88.8828 0.230729 1.72665 0
M  V30 848 C 86.0148 0.562765 3.36223 0
M  V30 849 H 87.2078 1.98614 2.24705 0
M  V30 850 H 84.7608 1.06293 1.14593 0
M  V30 851 H 85.4958 -0.395176 3.21883 0
M  V30 852 H 85.2808 1.31441 3.69413 0
M  V30 853 H 86.7708 0.437015 4.15307 0
M  V30 854 N 87.2079 -1.17134 1.05439 0
M  V30 855 C 88.1179 -2.24878 0.668365 0
M  V30 856 C 89.1339 -1.71186 -0.311687 0
M  V30 857 O 90.3099 -2.00738 -0.163161 0
M  V30 858 C 87.3749 -3.46662 0.051648 0
M  V30 859 C 86.4359 -4.15429 1.08246 0
M  V30 860 C 85.6689 -5.31399 0.495082 0
M  V30 861 O 85.8919 -5.66153 -0.694743 0
M  V30 862 O 84.8259 -5.89187 1.23056 0
M  V30 863 H 88.6519 -2.60189 1.56637 0
M  V30 864 H 86.2369 -1.24482 0.826104 0
M  V30 865 H 88.1189 -4.20394 -0.290966 0
M  V30 866 H 86.7939 -3.13142 -0.819971 0
M  V30 867 H 85.7009 -3.43704 1.47711 0
M  V30 868 H 87.0339 -4.52982 1.92532 0
M  V30 869 N 88.686 -0.835752 -1.33615 0
M  V30 870 C 89.616 -0.281739 -2.31794 0
M  V30 871 C 90.597 0.608833 -1.58831 0
M  V30 872 O 91.782 0.533035 -1.86741 0
M  V30 873 C 88.912 0.546612 -3.42971 0
M  V30 874 C 87.866 -0.247904 -4.27281 0
M  V30 875 C 87.192 0.704001 -5.30045 0
M  V30 876 C 88.492 -1.46324 -5.01385 0
M  V30 877 H 90.186 -1.10206 -2.78379 0
M  V30 878 H 87.732 -0.531388 -1.33837 0
M  V30 879 H 89.685 0.944467 -4.1068 0
M  V30 880 H 88.409 1.40011 -2.95067 0
M  V30 881 H 87.068 -0.627281 -3.61194 0
M  V30 882 H 86.716 1.55381 -4.78399 0
M  V30 883 H 86.416 0.176524 -5.87335 0
M  V30 884 H 87.94 1.09944 -6.0062 0
M  V30 885 H 89.354 -1.13871 -5.61877 0
M  V30 886 H 87.751 -1.92728 -5.6831 0
M  V30 887 H 88.821 -2.23467 -4.30338 0
M  V30 888 N 90.1641 1.46063 -0.591896 0
M  V30 889 C 91.4101 2.02638 -0.0811191 0
M  V30 890 C 91.7431 1.4613 1.27905 0
M  V30 891 O 91.0181 0.629908 1.84017 0
M  V30 892 C 91.3011 3.60091 -0.0252436 0
M  V30 893 C 91.1541 4.26965 -1.41496 0
M  V30 894 C 92.4731 4.3496 0.670685 0
M  V30 895 H 89.5921 0.73635 -0.0309524 0
M  V30 896 H 92.2341 1.741 -0.760859 0
M  V30 897 H 90.3841 3.84535 0.553624 0
M  V30 898 H 92.0561 4.13756 -2.0397 0
M  V30 899 H 90.2991 3.85971 -1.98011 0
M  V30 900 H 90.9701 5.35781 -1.32825 0
M  V30 901 H 93.4461 4.15716 0.178825 0
M  V30 902 H 92.3221 5.44686 0.678837 0
M  V30 903 H 92.5831 4.06685 1.73379 0
M  V30 904 N 91.6422 0.330177 1.54103 0
M  V30 905 C 93.0582 -0.0222371 1.59585 0
M  V30 906 C 93.2582 -1.49902 1.34654 0
M  V30 907 O 92.3142 -2.25592 1.13421 0
M  V30 908 C 93.6272 0.401932 2.98002 0
M  V30 909 C 95.1752 0.353145 3.11001 0
M  V30 910 C 95.6502 0.752576 4.51775 0
M  V30 911 N 97.1412 0.706239 4.57784 0
M  V30 912 C 97.8762 0.987417 5.64834 0
M  V30 913 N 97.3722 1.33607 6.79795 0
M  V30 914 N 99.1652 0.91254 5.54643 0
M  V30 915 H 91.3162 1.29228 1.68564 0
M  V30 916 H 93.5792 0.525906 0.78875 0
M  V30 917 H 93.2852 1.4311 3.21267 0
M  V30 918 H 93.1592 -0.229699 3.765 0
M  V30 919 H 95.5462 -0.666822 2.87467 0
M  V30 920 H 95.6272 1.0198 2.34593 0
M  V30 921 H 95.2712 1.77049 4.76042 0
M  V30 922 H 95.2012 0.0635409 5.26562 0
M  V30 923 H 97.6922 0.44889 3.75224 0
M  V30 924 H 98.0052 1.53582 7.57385 0
M  V30 925 H 96.3502 1.37439 6.81275 0
M  V30 926 H 99.5412 0.639601 4.6371 0
M  V30 927 H 99.7142 1.13503 6.37982 0
M  V30 928 N 93.1203 -1.57491 0.0584922 0
M  V30 929 C 94.0303 -2.15448 -0.928414 0
M  V30 930 C 95.0463 -1.11416 -1.3365 0
M  V30 931 O 96.2223 -1.4362 -1.41193 0
M  V30 932 C 93.2873 -2.69393 -2.18239 0
M  V30 933 C 92.3483 -3.88249 -1.83196 0
M  V30 934 C 91.5813 -4.39613 -3.02616 0
M  V30 935 O 91.8043 -3.90023 -4.16219 0
M  V30 936 O 90.7383 -5.31111 -2.83204 0
M  V30 937 H 94.5643 -3.00112 -0.465483 0
M  V30 938 H 92.1493 -1.48499 -0.163826 0
M  V30 939 H 94.0313 -3.04026 -2.91798 0
M  V30 940 H 92.7063 -1.87796 -2.63656 0
M  V30 941 H 91.6133 -3.58492 -1.06931 0
M  V30 942 H 92.9463 -4.71098 -1.42573 0
M  V30 943 N 94.5984 0.214957 -1.56127 0
M  V30 944 C 96.0094 0.781386 -1.69562 0
M  V30 945 C 96.3604 1.84707 -0.66165 0
M  V30 946 O 95.4854 2.156 0.185927 0
M  V30 947 C 96.0804 1.42411 -3.07416 0
M  V30 948 C 94.6394 1.93786 -3.22683 0
M  V30 949 C 93.7864 0.800438 -2.65496 0
M  V30 950 H 96.7374 -0.00980633 -1.58697 0
M  V30 951 H 96.7584 2.29309 -3.0364 0
M  V30 952 H 96.2704 0.64826 -3.82648 0
M  V30 953 H 94.3714 2.74152 -2.52332 0
M  V30 954 H 94.4844 2.1133 -4.29973 0
M  V30 955 H 92.8484 1.2095 -2.2415 0
M  V30 956 H 93.6314 0.0371471 -3.4328 0
M  V30 957 N 96.0765 1.50051 0.48192 0
M  V30 958 C 97.3245 1.60181 1.23234 0
M  V30 959 C 97.6455 0.299176 1.92691 0
M  V30 960 O 96.9155 -0.682708 1.83619 0
M  V30 961 H 95.4955 0.590232 0.457859 0
M  V30 962 H 98.1575 1.86775 0.556881 0
M  V30 963 H 97.2535 2.40753 1.98607 0
M  V30 964 N 97.5546 -0.734337 1.39446 0
M  V30 965 C 98.7946 -1.50655 1.38139 0
M  V30 966 C 99.1586 -1.91986 -0.0228701 0
M  V30 967 O 100.36 -2.68318 -0.160947 0
M  V30 968 C 98.6306 -2.71251 2.32718 0
M  V30 969 S 100.19 -3.60892 2.49605 0
M  V30 970 H 97.0076 -0.515315 0.489869 0
M  V30 971 H 99.6096 -0.860392 1.75549 0
M  V30 972 H 98.3136 -2.39027 3.33608 0
M  V30 973 H 97.8446 -3.40795 1.96526 0
M  V30 974 H 99.8596 -4.64899 1.73446 0
M  V30 975 N 99.0327 -1.24633 -0.964593 0
M  V30 976 C 100.281 -1.08573 -1.70459 0
M  V30 977 C 100.602 0.375655 -1.91347 0
M  V30 978 O 99.8717 1.26779 -1.49345 0
M  V30 979 H 98.4517 -0.398784 -0.631649 0
M  V30 980 H 101.114 -1.56601 -1.16026 0
M  V30 981 H 100.21 -1.58623 -2.68785 0
M  V30 982 N 100.511 1.16574 -1.06058 0
M  V30 983 C 101.751 1.88723 -0.78504 0
M  V30 984 C 102.115 1.79706 0.676006 0
M  V30 985 O 103.316 2.46757 1.06603 0
M  V30 986 C 101.587 3.34338 -1.26304 0
M  V30 987 S 103.146 4.24366 -1.1162 0
M  V30 988 H 99.9638 0.651448 -0.284846 0
M  V30 989 H 102.566 1.40732 -1.35701 0
M  V30 990 H 101.27 3.38439 -2.32136 0
M  V30 991 H 100.801 3.87378 -0.685719 0
M  V30 992 H 102.816 4.96179 -0.0456539 0
M  V30 993 N 101.989 0.842826 1.3317 0
M  V30 994 C 103.229 0.446574 1.99462 0
M  V30 995 C 103.593 -0.976818 1.65295 0
M  V30 996 O 104.794 -1.477 2.24584 0
M  V30 997 C 103.065 0.665353 3.51152 0
M  V30 998 S 104.624 0.364911 4.3728 0
M  V30 999 H 101.442 0.167803 0.690915 0
M  V30 1000 H 104.044 1.09297 1.62094 0
M  V30 1001 H 102.748 1.7006 3.73507 0
M  V30 1002 H 102.279 0.00494568 3.934 0
M  V30 1003 H 104.294 -0.813761 4.89482 0
M  V30 1004 N 103.467 -1.45747 0.599634 0
M  V30 1005 C 104.397 -2.33235 -0.111306 0
M  V30 1006 C 105.378 -1.46359 -0.866781 0
M  V30 1007 O 106.563 -1.75146 -0.838904 0
M  V30 1008 C 103.693 -3.28932 -1.11451 0
M  V30 1009 C 102.647 -4.25381 -0.472772 0
M  V30 1010 C 101.973 -5.1071 -1.58365 0
M  V30 1011 C 103.273 -5.18831 0.600948 0
M  V30 1012 H 104.967 -2.92927 0.61919 0
M  V30 1013 H 102.513 -1.40857 0.299215 0
M  V30 1014 H 104.466 -3.89002 -1.62036 0
M  V30 1015 H 103.19 -2.67381 -1.8755 0
M  V30 1016 H 101.849 -3.66598 0.0121472 0
M  V30 1017 H 101.497 -4.45533 -2.33473 0
M  V30 1018 H 101.197 -5.7604 -1.15982 0
M  V30 1019 H 102.721 -5.73647 -2.09194 0
M  V30 1020 H 104.135 -5.73019 0.179491 0
M  V30 1021 H 102.532 -5.92595 0.946076 0
M  V30 1022 H 103.602 -4.6174 1.48068 0
M  V30 1023 N 104.945 -0.338344 -1.53925 0
M  V30 1024 C 106.173 0.261298 -2.05243 0
M  V30 1025 C 106.588 1.44625 -1.21363 0
M  V30 1026 O 105.945 1.80811 -0.247736 0
M  V30 1027 C 105.996 0.681412 -3.5502 0
M  V30 1028 O 105.717 -0.456414 -4.35716 0
M  V30 1029 C 107.218 1.34232 -4.22489 0
M  V30 1030 H 104.438 0.0513685 -0.669031 0
M  V30 1031 H 106.982 -0.488822 -1.98572 0
M  V30 1032 H 105.137 1.38148 -3.61931 0
M  V30 1033 H 105.551 -0.122564 -5.24357 0
M  V30 1034 H 107.025 1.58708 -5.28693 0
M  V30 1035 H 107.502 2.29426 -3.74514 0
M  V30 1036 H 108.108 0.684424 -4.19757 0
M  V30 1037 N 106.423 1.57458 -0.0668435 0
M  V30 1038 C 107.663 1.95175 0.607116 0
M  V30 1039 C 108.027 0.946039 1.67075 0
M  V30 1040 O 109.228 1.2107 2.39991 0
M  V30 1041 C 107.499 3.37582 1.17358 0
M  V30 1042 S 109.058 3.97271 1.86336 0
M  V30 1043 H 105.876 0.682604 0.19893 0
M  V30 1044 H 108.478 1.95002 -0.139519 0
M  V30 1045 H 107.182 4.08566 0.387553 0
M  V30 1046 H 106.713 3.41288 1.95669 0
M  V30 1047 H 108.728 3.83772 3.14537 0
M  V30 1048 N 107.901 -0.206675 1.56239 0
M  V30 1049 C 108.864 -1.23976 1.92776 0
M  V30 1050 C 109.864 -1.39041 0.807729 0
M  V30 1051 O 111.054 -1.37051 1.0753 0
M  V30 1052 C 108.186 -2.61112 2.19165 0
M  V30 1053 H 109.379 -0.927764 2.85189 0
M  V30 1054 H 106.932 -0.447718 1.4975 0
M  V30 1055 H 107.667 -2.97386 1.29352 0
M  V30 1056 H 107.452 -2.51552 3.00772 0
M  V30 1057 H 108.942 -3.35633 2.48476 0
M  V30 1058 N 109.379 -1.50304 -0.473955 0
M  V30 1059 C 110.309 -1.71886 -1.58042 0
M  V30 1060 C 111.29 -0.567799 -1.60344 0
M  V30 1061 O 112.475 -0.806623 -1.76656 0
M  V30 1062 C 109.605 -1.81036 -2.96384 0
M  V30 1063 C 108.559 -2.962 -3.08949 0
M  V30 1064 C 107.885 -2.9049 -4.48909 0
M  V30 1065 C 109.185 -4.36752 -2.86434 0
M  V30 1066 H 110.879 -2.64527 -1.40234 0
M  V30 1067 H 108.425 -1.27295 -0.673201 0
M  V30 1068 H 110.378 -1.94719 -3.73714 0
M  V30 1069 H 109.102 -0.850147 -3.15341 0
M  V30 1070 H 107.761 -2.82164 -2.3405 0
M  V30 1071 H 107.409 -1.92321 -4.64781 0
M  V30 1072 H 107.109 -3.67802 -4.58253 0
M  V30 1073 H 108.633 -3.06218 -5.28264 0
M  V30 1074 H 110.047 -4.5133 -3.53517 0
M  V30 1075 H 108.444 -5.15493 -3.07225 0
M  V30 1076 H 109.514 -4.49321 -1.82316 0
M  V30 1077 N 110.857 0.726932 -1.39834 0
M  V30 1078 C 112.082 1.52121 -1.40976 0
M  V30 1079 C 112.507 1.88098 -0.00826029 0
M  V30 1080 O 111.865 1.52479 0.980807 0
M  V30 1081 C 111.913 2.78021 -2.29644 0
M  V30 1082 O 111.017 3.74272 -1.73188 0
M  V30 1083 H 110.358 0.45908 -0.479731 0
M  V30 1084 H 112.888 0.896207 -1.83927 0
M  V30 1085 H 112.898 3.26671 -2.44438 0
M  V30 1086 H 111.573 2.51169 -3.31492 0
M  V30 1087 H 110.15 3.33073 -1.6768 0
M  V30 1088 N 112.336 1.25143 0.95797 0
M  V30 1089 C 113.246 1.06968 2.08794 0
M  V30 1090 C 114.262 0.00773911 1.73998 0
M  V30 1091 O 115.438 0.207972 2.00323 0
M  V30 1092 C 112.503 0.68691 3.39827 0
M  V30 1093 C 111.564 1.82641 3.88511 0
M  V30 1094 C 110.797 1.46181 5.1329 0
M  V30 1095 O 111.02 0.355971 5.69288 0
M  V30 1096 O 109.954 2.29085 5.566 0
M  V30 1097 H 113.78 2.01723 2.27027 0
M  V30 1098 H 111.365 1.04051 1.07209 0
M  V30 1099 H 113.247 0.485417 4.18595 0
M  V30 1100 H 111.922 -0.231417 3.22872 0
M  V30 1101 H 110.829 2.08274 3.10762 0
M  V30 1102 H 112.162 2.72386 4.09959 0
M  V30 1103 N 113.814 -1.1601 1.06675 0
M  V30 1104 C 115.062 -1.86264 0.784229 0
M  V30 1105 C 115.383 -1.82328 -0.691488 0
M  V30 1106 O 114.653 -1.25947 -1.50047 0
M  V30 1107 H 113.233 -0.689621 0.28711 0
M  V30 1108 H 115.895 -1.40664 1.34906 0
M  V30 1109 H 114.991 -2.91595 1.11259 0
M  V30 1110 N 115.292 -0.849877 -1.32721 0
M  V30 1111 C 116.224 -0.248332 -2.27851 0
M  V30 1112 C 117.237 0.577218 -1.52224 0
M  V30 1113 O 118.426 0.402489 -1.73903 0
M  V30 1114 C 115.526 0.668107 -3.32249 0
M  V30 1115 C 114.699 -0.120534 -4.37234 0
M  V30 1116 C 113.758 0.720932 -5.21238 0
M  V30 1117 O 112.784 0.156166 -5.68986 0
M  V30 1118 N 113.986 2.03647 -5.43607 0
M  V30 1119 H 116.751 -1.06575 -2.80111 0
M  V30 1120 H 114.312 -0.709395 -1.45531 0
M  V30 1121 H 116.304 1.23627 -3.85355 0
M  V30 1122 H 114.874 1.38621 -2.80184 0
M  V30 1123 H 114.094 -0.870108 -3.84477 0
M  V30 1124 H 115.382 -0.662406 -5.0447 0
M  V30 1125 H 114.78 2.51871 -5.06535 0
M  V30 1126 H 113.337 2.55287 -5.99727 0
M  V30 1127 N 116.77 1.45427 -0.607355 0
M  V30 1128 C 118.181 1.85756 -0.187535 0
M  V30 1129 C 118.532 1.5077 1.25551 0
M  V30 1130 O 117.657 0.93427 1.95193 0
M  V30 1131 C 118.252 3.37154 -0.333572 0
M  V30 1132 C 116.811 3.76387 0.0315542 0
M  V30 1133 C 115.958 2.69377 -0.658117 0
M  V30 1134 H 118.909 1.36231 -0.81405 0
M  V30 1135 H 118.93 3.78014 0.43428 0
M  V30 1136 H 118.442 3.62586 -1.38393 0
M  V30 1137 H 116.543 3.56571 1.0811 0
M  V30 1138 H 116.656 4.77731 -0.361935 0
M  V30 1139 H 115.02 2.5452 -0.0957873 0
M  V30 1140 H 115.803 2.97646 -1.7106 0
M  V30 1141 N 118.248 0.346503 1.53744 0
M  V30 1142 C 119.488 -0.249413 2.02873 0
M  V30 1143 C 119.852 -1.47532 1.22876 0
M  V30 1144 O 121.053 -2.1456 1.61918 0
M  V30 1145 C 119.324 -0.552909 3.53097 0
M  V30 1146 S 120.883 -1.12521 4.24128 0
M  V30 1147 H 117.701 -0.074042 0.707134 0
M  V30 1148 H 120.303 0.48495 1.8939 0
M  V30 1149 H 119.007 0.347083 4.0893 0
M  V30 1150 H 118.538 -1.31686 3.70705 0
M  V30 1151 H 120.553 -2.41075 4.33702 0
M  V30 1152 N 119.726 -1.57421 0.075193 0
M  V30 1153 C 120.974 -1.93236 -0.591974 0
M  V30 1154 C 121.295 -0.956241 -1.69944 0
M  V30 1155 O 120.565 -0.00494792 -1.95899 0
M  V30 1156 H 119.145 -0.713355 -0.22166 0
M  V30 1157 H 121.807 -1.9444 0.133848 0
M  V30 1158 H 120.903 -2.95131 -1.01509 0
M  V30 1159 N 121.204 0.198386 -1.56346 0
M  V30 1160 C 122.453 0.917451 -1.79627 0
M  V30 1161 C 122.766 1.8456 -0.64784 0
M  V30 1162 O 123.972 2.60504 -0.764859 0
M  V30 1163 C 122.428 1.68175 -3.18191 0
M  V30 1164 C 122.036 0.798589 -4.40825 0
M  V30 1165 C 123.78 2.39065 -3.50782 0
M  V30 1166 C 121.687 1.56157 -5.70411 0
M  V30 1167 H 120.617 0.346317 -0.669762 0
M  V30 1168 H 123.268 0.170801 -1.82703 0
M  V30 1169 H 121.65 2.47216 -3.09354 0
M  V30 1170 H 122.824 0.0470665 -4.60776 0
M  V30 1171 H 121.139 0.200686 -4.15916 0
M  V30 1172 H 123.736 2.96692 -4.44835 0
M  V30 1173 H 124.079 3.13091 -2.74371 0
M  V30 1174 H 124.612 1.66993 -3.61052 0
M  V30 1175 H 121.351 0.864142 -6.49779 0
M  V30 1176 H 120.871 2.2871 -5.54483 0
M  V30 1177 H 122.55 2.11622 -6.11412 0
M  V30 1178 N 122.682 1.50554 0.465978 0
M  V30 1179 C 123.912 1.65323 1.23903 0
M  V30 1180 C 124.32 0.338051 1.86155 0
M  V30 1181 O 123.663 -0.690518 1.70228 0
M  V30 1182 C 123.725 2.69048 2.3844 0
M  V30 1183 C 123.389 4.12462 1.96784 0
M  V30 1184 C 124.386 4.98168 1.48745 0
M  V30 1185 C 122.071 4.58407 2.05349 0
M  V30 1186 C 124.065 6.27868 1.0982 0
M  V30 1187 C 121.752 5.88112 1.66035 0
M  V30 1188 C 122.75 6.72668 1.18349 0
M  V30 1189 O 122.438 7.99951 0.795825 0
M  V30 1190 H 122.17 0.558629 0.38067 0
M  V30 1191 H 124.724 1.97561 0.562022 0
M  V30 1192 H 122.954 2.32062 3.09328 0
M  V30 1193 H 124.643 2.72985 3.0039 0
M  V30 1194 H 125.409 4.63885 1.41546 0
M  V30 1195 H 121.288 3.92735 2.41414 0
M  V30 1196 H 124.832 6.93819 0.725293 0
M  V30 1197 H 120.729 6.21914 1.72895 0
M  V30 1198 H 121.497 8.13265 0.924222 0
M  V30 1199 N 124.16 -0.719506 1.40217 0
M  V30 1200 C 125.388 -1.50864 1.41589 0
M  V30 1201 C 125.803 -1.88794 0.0145275 0
M  V30 1202 O 125.16 -1.55174 -0.960594 0
M  V30 1203 C 125.211 -2.78646 2.30302 0
M  V30 1204 O 124.932 -2.42321 3.64983 0
M  V30 1205 C 126.433 -3.72569 2.40224 0
M  V30 1206 H 123.653 -0.465709 0.48307 0
M  V30 1207 H 126.197 -0.88785 1.84221 0
M  V30 1208 H 124.352 -3.37019 1.91042 0
M  V30 1209 H 124.766 -3.24514 4.12057 0
M  V30 1210 H 126.24 -4.5908 3.06512 0
M  V30 1211 H 126.717 -4.15403 1.42608 0
M  V30 1212 H 127.323 -3.20109 2.80019 0
M  V30 1213 N 125.638 -1.25649 -0.95132 0
M  V30 1214 C 126.548 -1.08073 -2.08224 0
M  V30 1215 C 127.564 -0.0169666 -1.73992 0
M  V30 1216 O 128.74 -0.218593 -2.0021 0
M  V30 1217 C 125.805 -0.704922 -3.39458 0
M  V30 1218 C 124.866 -1.84699 -3.87537 0
M  V30 1219 C 124.099 -1.48902 -5.12508 0
M  V30 1220 O 124.322 -0.386156 -5.69091 0
M  V30 1221 O 123.256 -2.32033 -5.55378 0
M  V30 1222 H 127.082 -2.02924 -2.25954 0
M  V30 1223 H 124.667 -1.04618 -1.06656 0
M  V30 1224 H 126.549 -0.507609 -4.18332 0
M  V30 1225 H 125.224 0.214291 -3.2299 0
M  V30 1226 H 124.131 -2.09919 -3.09653 0
M  V30 1227 H 125.464 -2.74557 -4.08509 0
M  V30 1228 N 127.117 1.15442 -1.07289 0
M  V30 1229 C 128.533 1.38201 -0.798288 0
M  V30 1230 C 128.733 1.92429 0.597769 0
M  V30 1231 O 127.789 2.12962 1.3566 0
M  V30 1232 C 129.102 2.35357 -1.87156 0
M  V30 1233 C 130.65 2.49021 -1.89624 0
M  V30 1234 C 131.125 3.49468 -2.96034 0
M  V30 1235 N 132.616 3.57003 -2.95132 0
M  V30 1236 C 133.351 4.34543 -3.74112 0
M  V30 1237 N 132.847 5.15421 -4.6294 0
M  V30 1238 N 134.64 4.29625 -3.62462 0
M  V30 1239 H 126.791 0.78584 -1.97328 0
M  V30 1240 H 129.054 0.408065 -0.855679 0
M  V30 1241 H 128.76 2.02626 -2.87464 0
M  V30 1242 H 128.634 3.35129 -1.73114 0
M  V30 1243 H 131.021 2.81051 -0.899687 0
M  V30 1244 H 131.102 1.4925 -2.07745 0
M  V30 1245 H 130.746 3.18173 -3.95889 0
M  V30 1246 H 130.676 4.48992 -2.75161 0
M  V30 1247 H 133.167 2.99276 -2.30743 0
M  V30 1248 H 133.48 5.7183 -5.19837 0
M  V30 1249 H 131.825 5.14729 -4.66989 0
M  V30 1250 H 135.016 3.65505 -2.92444 0
M  V30 1251 H 135.189 4.89807 -4.24256 0
M  V30 1252 N 128.595 0.856903 1.32268 0
M  V30 1253 C 129.835 0.467705 1.98977 0
M  V30 1254 C 130.199 -0.959231 1.66321 0
M  V30 1255 O 131.4 -1.4531 2.26138 0
M  V30 1256 C 129.671 0.70256 3.50427 0
M  V30 1257 S 131.23 0.411269 4.36868 0
M  V30 1258 H 128.048 0.175121 0.689096 0
M  V30 1259 H 130.65 1.1101 1.60925 0
M  V30 1260 H 129.354 1.74012 3.71683 0
M  V30 1261 H 128.885 0.0466707 3.93372 0
M  V30 1262 H 130.9 -0.761799 4.90317 0
M  V30 1263 N 130.073 -1.45103 0.615059 0
M  V30 1264 C 131.321 -2.01784 0.112955 0
M  V30 1265 C 131.642 -1.48504 -1.26378 0
M  V30 1266 O 130.912 -0.682245 -1.83636 0
M  V30 1267 H 129.492 -0.745993 0.0387668 0
M  V30 1268 H 132.154 -1.77808 0.798141 0
M  V30 1269 H 131.25 -3.12025 0.0684069 0
M  V30 1270 N 131.551 -0.354651 -1.53558 0
M  V30 1271 C 132.776 0.242153 -2.05981 0
M  V30 1272 C 133.201 1.42553 -1.2272 0
M  V30 1273 O 132.559 1.79656 -0.243604 0
M  V30 1274 C 132.607 0.624367 -3.55154 0
M  V30 1275 O 131.711 1.72301 -3.74681 0
M  V30 1276 H 131.052 0.0378432 -0.662921 0
M  V30 1277 H 133.582 -0.512087 -1.98088 0
M  V30 1278 H 133.592 0.898433 -3.97985 0
M  V30 1279 H 132.267 -0.240989 -4.15201 0
M  V30 1280 H 130.844 1.44535 -3.4375 0
M  V30 1281 N 133.029 1.57378 -0.0835403 0
M  V30 1282 C 134.277 1.93547 0.581718 0
M  V30 1283 C 134.598 0.96524 1.69435 0
M  V30 1284 O 133.868 0.0153369 1.95894 0
M  V30 1285 H 132.448 0.714521 0.217874 0
M  V30 1286 H 135.11 1.94366 -0.144158 0
M  V30 1287 H 134.206 2.95665 0.999423 0
M  V30 1288 N 134.507 -0.190092 1.56449 0
M  V30 1289 C 135.437 -1.23816 1.97969 0
M  V30 1290 C 136.418 -1.47201 0.852395 0
M  V30 1291 O 137.603 -1.58854 1.1171 0
M  V30 1292 C 134.733 -2.5813 2.3235 0
M  V30 1293 C 133.687 -2.49348 3.47864 0
M  V30 1294 C 133.013 -3.8798 3.67934 0
M  V30 1295 C 134.313 -2.01424 4.81898 0
M  V30 1296 H 136.007 -0.89311 2.85769 0
M  V30 1297 H 133.553 -0.428177 1.37487 0
M  V30 1298 H 135.506 -3.31637 2.59991 0
M  V30 1299 H 134.23 -2.94386 1.41438 0
M  V30 1300 H 132.889 -1.78297 3.20321 0
M  V30 1301 H 132.537 -4.21597 2.74344 0
M  V30 1302 H 132.237 -3.82978 4.45648 0
M  V30 1303 H 133.761 -4.63101 3.97957 0
M  V30 1304 H 135.175 -2.64693 5.08538 0
M  V30 1305 H 133.572 -2.07413 5.63116 0
M  V30 1306 H 134.642 -0.967677 4.75146 0
M  V30 1307 N 135.985 -1.50799 -0.457987 0
M  V30 1308 C 137.401 -1.38515 -0.792819 0
M  V30 1309 C 137.601 -0.451409 -1.96379 0
M  V30 1310 O 136.657 0.10112 -2.52297 0
M  V30 1311 C 137.97 -2.80149 -1.09258 0
M  V30 1312 C 139.518 -2.89156 -1.19825 0
M  V30 1313 C 139.993 -4.31651 -1.53106 0
M  V30 1314 N 141.484 -4.34662 -1.60072 0
M  V30 1315 C 142.219 -5.41928 -1.87354 0
M  V30 1316 N 141.715 -6.59384 -2.12568 0
M  V30 1317 N 143.508 -5.29385 -1.88965 0
M  V30 1318 H 135.659 -2.10073 0.313511 0
M  V30 1319 H 137.922 -0.944803 0.0777862 0
M  V30 1320 H 137.628 -3.50374 -0.305084 0
M  V30 1321 H 137.502 -3.18204 -2.02549 0
M  V30 1322 H 139.889 -2.19141 -1.97639 0
M  V30 1323 H 139.97 -2.54626 -0.244821 0
M  V30 1324 H 139.614 -5.02208 -0.758266 0
M  V30 1325 H 139.544 -4.63678 -2.49621 0
M  V30 1326 H 142.035 -3.49973 -1.42573 0
M  V30 1327 H 142.348 -7.36934 -2.32696 0
M  V30 1328 H 140.693 -6.62535 -2.09933 0
M  V30 1329 H 143.884 -4.36616 -1.68772 0
M  V30 1330 H 144.057 -6.13066 -2.09891 0
M  V30 1331 N 137.463 0.71206 -1.40597 0
M  V30 1332 C 138.703 1.48438 -1.40519 0
M  V30 1333 C 139.067 1.91998 -0.00767611 0
M  V30 1334 O 140.268 2.6854 0.118239 0
M  V30 1335 C 138.539 2.67514 -2.37004 0
M  V30 1336 S 140.098 3.56875 -2.55315 0
M  V30 1337 H 136.916 0.507457 -0.498005 0
M  V30 1338 H 139.518 0.832355 -1.76896 0
M  V30 1339 H 138.222 2.33689 -3.37368 0
M  V30 1340 H 137.753 3.37625 -2.01923 0
M  V30 1341 H 139.768 4.62081 -1.8082 0
M  V30 1342 N 138.941 1.26152 0.944643 0
M  V30 1343 C 139.873 1.03199 2.04652 0
M  V30 1344 C 140.886 -0.00642356 1.62799 0
M  V30 1345 O 142.075 0.233263 1.76969 0
M  V30 1346 C 139.175 0.540111 3.34568 0
M  V30 1347 C 138.348 1.64697 4.05208 0
M  V30 1348 C 137.407 1.15374 5.13396 0
M  V30 1349 O 136.433 1.85013 5.38293 0
M  V30 1350 N 137.635 0.00031529 5.805 0
M  V30 1351 H 140.4 1.9808 2.2491 0
M  V30 1352 H 137.961 1.17491 1.11389 0
M  V30 1353 H 139.953 0.194401 4.04233 0
M  V30 1354 H 138.523 -0.315021 3.11009 0
M  V30 1355 H 137.743 2.16379 3.29506 0
M  V30 1356 H 139.031 2.3903 4.49157 0
M  V30 1357 H 138.429 -0.581336 5.62705 0
M  V30 1358 H 136.986 -0.286346 6.51171 0
M  V30 1359 N 140.419 -1.14872 1.07899 0
M  V30 1360 C 141.83 -1.67367 0.827363 0
M  V30 1361 C 142.181 -1.85236 -0.646693 0
M  V30 1362 O 141.306 -1.55974 -1.50004 0
M  V30 1363 C 141.901 -3.04016 1.49532 0
M  V30 1364 C 140.46 -3.53566 1.29106 0
M  V30 1365 C 139.607 -2.29161 1.56143 0
M  V30 1366 H 142.558 -0.990083 1.24028 0
M  V30 1367 H 142.579 -3.69219 0.919643 0
M  V30 1368 H 142.091 -2.90978 2.56814 0
M  V30 1369 H 140.192 -3.71835 0.238713 0
M  V30 1370 H 140.305 -4.34661 2.01511 0
M  V30 1371 H 138.669 -2.34978 0.982717 0
M  V30 1372 H 139.452 -2.18705 2.64619 0
M  V30 1373 N 141.898 -0.863906 -1.31812 0
M  V30 1374 C 143.123 -0.48527 -2.01643 0
M  V30 1375 C 143.548 0.913058 -1.64453 0
M  V30 1376 O 142.906 1.6014 -0.849985 0
M  V30 1377 C 142.954 -0.642625 -3.54828 0
M  V30 1378 O 142.058 0.320659 -4.11151 0
M  V30 1379 H 141.399 -0.193793 -0.635091 0
M  V30 1380 H 143.929 -1.16565 -1.68148 0
M  V30 1381 H 143.939 -0.533628 -4.04495 0
M  V30 1382 H 142.614 -1.66227 -3.81237 0
M  V30 1383 H 141.191 0.167126 -3.72525 0
M  V30 1384 N 143.376 1.44774 -0.622745 0
M  V30 1385 C 144.787 1.85546 -0.207226 0
M  V30 1386 C 145.138 1.52093 1.23944 0
M  V30 1387 O 144.263 0.95492 1.94191 0
M  V30 1388 C 144.858 3.36781 -0.369313 0
M  V30 1389 C 143.417 3.76399 -0.00836847 0
M  V30 1390 C 142.564 2.68664 -0.686651 0
M  V30 1391 H 145.515 1.3536 -0.828454 0
M  V30 1392 H 145.536 3.78453 0.394162 0
M  V30 1393 H 145.048 3.61098 -1.42231 0
M  V30 1394 H 143.149 3.57698 1.04322 0
M  V30 1395 H 143.262 4.7732 -0.412584 0
M  V30 1396 H 141.626 2.54404 -0.122777 0
M  V30 1397 H 142.409 2.95815 -1.74208 0
M  V30 1398 N 144.854 0.36279 1.53368 0
M  V30 1399 C 146.131 -0.284021 1.93527 0
M  V30 1400 C 146.511 -1.66628 1.29608 0
M  V30 1401 O 145.859 -2.23942 0.45413 0
M  V30 1402 C 146.069 -0.337028 3.47369 0
M  V30 1403 C 147.417 -0.578708 4.20638 0
M  V30 1404 O 148.441 -0.418352 3.53735 0
M  V30 1405 O 147.3 -0.89074 5.39192 0
M  V30 1406 H 144.394 -0.169743 0.809393 0
M  V30 1407 H 146.94 0.41537 1.64538 0
M  V30 1408 H 145.712 0.632217 3.86159 0
M  V30 1409 H 145.335 -1.08243 3.82582 0
M  V30 1410 N 146.332 -1.57332 0.0918853 0
M  V30 1411 C 147.242 -2.17368 -0.882505 0
M  V30 1412 C 148.258 -1.14226 -1.31257 0
M  V30 1413 O 149.434 -1.46582 -1.38115 0
M  V30 1414 C 146.499 -2.73962 -2.12476 0
M  V30 1415 C 145.56 -3.92048 -1.7492 0
M  V30 1416 C 144.793 -4.45933 -2.93223 0
M  V30 1417 O 145.016 -3.98764 -4.07852 0
M  V30 1418 O 143.95 -5.36999 -2.71875 0
M  V30 1419 H 147.776 -3.01031 -0.40172 0
M  V30 1420 H 145.361 -1.48813 -0.132291 0
M  V30 1421 H 147.243 -3.10147 -2.85283 0
M  V30 1422 H 145.918 -1.93347 -2.59613 0
M  V30 1423 H 144.825 -3.6068 -0.993025 0
M  V30 1424 H 146.158 -4.74017 -1.32548 0
M  V30 1425 N 147.81 0.181792 -1.56548 0
M  V30 1426 C 148.773 1.20894 -1.94724 0
M  V30 1427 C 149.773 1.37738 -0.829747 0
M  V30 1428 O 150.963 1.35323 -1.09697 0
M  V30 1429 C 148.095 2.57593 -2.23291 0
M  V30 1430 H 149.288 0.882275 -2.86629 0
M  V30 1431 H 146.841 0.423838 -1.50444 0
M  V30 1432 H 147.576 2.95291 -1.34067 0
M  V30 1433 H 147.361 2.46735 -3.04736 0
M  V30 1434 H 148.851 3.31637 -2.53785 0
M  V30 1435 N 149.288 1.51039 0.449983 0
M  V30 1436 C 150.704 1.38934 0.785462 0
M  V30 1437 C 150.904 0.461817 1.96136 0
M  V30 1438 O 149.96 -0.0877389 2.52348 0
M  V30 1439 C 151.273 2.80724 1.0777 0
M  V30 1440 C 152.821 2.89787 1.1829 0
M  V30 1441 C 153.296 4.32457 1.50815 0
M  V30 1442 N 154.787 4.35505 1.57764 0
M  V30 1443 C 155.522 5.42914 1.84477 0
M  V30 1444 N 155.018 6.60502 2.09068 0
M  V30 1445 N 156.811 5.3038 1.86155 0
M  V30 1446 H 148.962 2.09904 -0.324647 0
M  V30 1447 H 151.225 0.944378 -0.0827957 0
M  V30 1448 H 150.931 3.50531 0.286498 0
M  V30 1449 H 150.805 3.19273 2.00859 0
M  V30 1450 H 153.192 2.20186 1.96474 0
M  V30 1451 H 153.273 2.54752 0.231314 0
M  V30 1452 H 152.917 5.02603 0.731622 0
M  V30 1453 H 152.847 4.64995 2.47158 0
M  V30 1454 H 155.338 3.50724 1.40715 0
M  V30 1455 H 155.651 7.38158 2.28785 0
M  V30 1456 H 153.996 6.63639 2.06416 0
M  V30 1457 H 157.187 4.37505 1.66454 0
M  V30 1458 H 157.36 6.1417 2.06637 0
M  V30 1459 N 150.766 -0.704594 1.40972 0
M  V30 1460 C 152.177 -1.28418 1.3552 0
M  V30 1461 C 152.528 -1.96171 0.0339434 0
M  V30 1462 O 151.653 -1.98231 -0.867944 0
M  V30 1463 C 152.248 -2.33528 2.45459 0
M  V30 1464 C 150.807 -2.87085 2.43433 0
M  V30 1465 C 149.954 -1.61007 2.2577 0
M  V30 1466 H 152.905 -0.499963 1.50619 0
M  V30 1467 H 152.926 -3.14619 2.13998 0
M  V30 1468 H 152.438 -1.84187 3.41609 0
M  V30 1469 H 150.539 -3.40626 1.51013 0
M  V30 1470 H 150.652 -3.3813 3.39419 0
M  V30 1471 H 149.016 -1.86482 1.73483 0
M  V30 1472 H 149.799 -1.13675 3.23933 0
M  V30 1473 N 152.244 -1.26651 -0.937939 0
M  V30 1474 C 153.174 -1.10993 -2.05433 0
M  V30 1475 C 154.155 -0.0142161 -1.70094 0
M  V30 1476 O 155.34 -0.186837 -1.93299 0
M  V30 1477 C 152.47 -0.745561 -3.39203 0
M  V30 1478 C 151.424 -1.79337 -3.88616 0
M  V30 1479 C 150.75 -1.28324 -5.19073 0
M  V30 1480 C 152.05 -3.19553 -4.13138 0
M  V30 1481 H 153.744 -2.0438 -2.1879 0
M  V30 1482 H 151.29 -0.984041 -1.05131 0
M  V30 1483 H 153.243 -0.622888 -4.16771 0
M  V30 1484 H 151.967 0.22401 -3.25831 0
M  V30 1485 H 150.626 -1.90477 -3.13231 0
M  V30 1486 H 150.274 -0.303414 -5.02084 0
M  V30 1487 H 149.974 -1.98369 -5.53103 0
M  V30 1488 H 151.498 -1.1733 -5.99221 0
M  V30 1489 H 152.912 -3.11471 -4.81309 0
M  V30 1490 H 151.309 -3.87218 -4.58457 0
M  V30 1491 H 152.379 -3.65368 -3.18801 0
M  V30 1492 N 153.722 1.14298 -1.08507 0
M  V30 1493 C 154.654 2.1907 -0.673859 0
M  V30 1494 C 155.667 1.60381 0.279577 0
M  V30 1495 O 156.856 1.78374 0.0670754 0
M  V30 1496 C 153.956 3.38888 0.0290979 0
M  V30 1497 C 153.129 4.27103 -0.943494 0
M  V30 1498 C 152.188 5.25477 -0.275676 0
M  V30 1499 O 151.214 5.61709 -0.920401 0
M  V30 1500 N 152.416 5.7227 0.974013 0
M  V30 1501 H 155.181 2.54965 -1.57521 0
M  V30 1502 H 152.742 1.29528 -0.971287 0
M  V30 1503 H 154.734 4.01761 0.48683 0
M  V30 1504 H 153.304 3.01309 0.832555 0
M  V30 1505 H 152.524 3.61149 -1.58004 0
M  V30 1506 H 153.812 4.82905 -1.60251 0
M  V30 1507 H 153.21 5.44965 1.51755 0
M  V30 1508 H 151.767 6.37127 1.37522 0
M  V30 1509 N 155.201 0.870884 1.31352 0
M  V30 1510 C 156.164 0.332243 2.26779 0
M  V30 1511 C 157.164 -0.517302 1.52252 0
M  V30 1512 O 158.354 -0.326477 1.71113 0
M  V30 1513 C 155.486 -0.528066 3.36785 0
M  V30 1514 H 156.679 1.17469 2.75937 0
M  V30 1515 H 154.232 0.64655 1.423 0
M  V30 1516 H 154.967 -1.39167 2.92922 0
M  V30 1517 H 154.752 0.0802582 3.92018 0
M  V30 1518 H 156.242 -0.897179 4.07849 0
M  V30 1519 N 156.679 -1.44442 0.630414 0
M  V30 1520 C 157.609 -2.33418 -0.0618083 0
M  V30 1521 C 158.59 -1.48165 -0.835541 0
M  V30 1522 O 159.775 -1.76886 -0.801564 0
M  V30 1523 C 156.905 -3.31222 -1.04449 0
M  V30 1524 C 155.859 -4.26288 -0.382436 0
M  V30 1525 C 155.185 -5.13954 -1.47497 0
M  V30 1526 C 156.485 -5.1744 0.710865 0
M  V30 1527 H 158.179 -2.91548 0.681184 0
M  V30 1528 H 155.725 -1.40191 0.329026 0
M  V30 1529 H 157.678 -3.92351 -1.53748 0
M  V30 1530 H 156.402 -2.71299 -1.81836 0
M  V30 1531 H 155.061 -3.6649 0.0899054 0
M  V30 1532 H 154.709 -4.50385 -2.2397 0
M  V30 1533 H 154.409 -5.7837 -1.03737 0
M  V30 1534 H 155.933 -5.77955 -1.96979 0
M  V30 1535 H 157.347 -5.72509 0.300996 0
M  V30 1536 H 155.744 -5.90455 1.07156 0
M  V30 1537 H 156.814 -4.58496 1.57829 0
M  V30 1538 N 158.157 -0.370918 -1.53173 0
M  V30 1539 C 159.087 0.464847 -2.28826 0
M  V30 1540 C 160.068 1.07936 -1.31468 0
M  V30 1541 O 161.253 1.0956 -1.60344 0
M  V30 1542 C 158.383 1.60196 -3.08147 0
M  V30 1543 C 157.337 1.11443 -4.13237 0
M  V30 1544 C 156.663 2.3422 -4.80672 0
M  V30 1545 C 157.963 0.195384 -5.21934 0
M  V30 1546 H 159.657 -0.166329 -2.98938 0
M  V30 1547 H 157.203 -0.0814359 -1.4377 0
M  V30 1548 H 159.156 2.19332 -3.59822 0
M  V30 1549 H 157.88 2.26045 -2.35735 0
M  V30 1550 H 156.539 0.545727 -3.62515 0
M  V30 1551 H 156.187 2.98537 -4.04827 0
M  V30 1552 H 155.887 2.02269 -5.51689 0
M  V30 1553 H 157.411 2.94032 -5.35143 0
M  V30 1554 H 158.825 0.694375 -5.69079 0
M  V30 1555 H 157.222 -0.0335027 -6.00091 0
M  V30 1556 H 158.292 -0.760961 -4.78892 0
M  V30 1557 N 159.635 1.57281 -0.100228 0
M  V30 1558 C 160.912 1.86014 0.604812 0
M  V30 1559 C 161.292 0.998025 1.86018 0
M  V30 1560 O 160.64 0.0718184 2.28387 0
M  V30 1561 C 160.85 3.36784 0.915278 0
M  V30 1562 C 162.198 4.04957 1.27651 0
M  V30 1563 O 163.222 3.41695 1.00613 0
M  V30 1564 O 162.081 5.16593 1.7831 0
M  V30 1565 H 159.175 0.76942 0.303185 0
M  V30 1566 H 161.721 1.69176 -0.133313 0
M  V30 1567 H 160.493 3.91292 0.0248896 0
M  V30 1568 H 160.116 3.58987 1.70921 0
M  V30 1569 N 161.113 -0.173488 1.56642 0
M  V30 1570 C 162.361 -0.888706 1.81512 0
M  V30 1571 C 162.682 -1.82875 0.676872 0
M  V30 1572 O 161.952 -1.93536 -0.303414 0
M  V30 1573 H 160.532 -0.331164 0.669582 0
M  V30 1574 H 163.194 -0.173823 1.94123 0
M  V30 1575 H 162.29 -1.46691 2.75478 0
M  V30 1576 N 162.591 -1.51276 -0.441967 0
M  V30 1577 C 164.007 -1.39349 -0.778083 0
M  V30 1578 C 164.207 -0.472212 -1.95889 0
M  V30 1579 O 163.263 0.0743551 -2.5239 0
M  V30 1580 C 164.576 -2.81292 -1.0628 0
M  V30 1581 C 166.124 -2.9041 -1.16751 0
M  V30 1582 C 166.599 -4.33251 -1.48519 0
M  V30 1583 N 168.09 -4.36336 -1.55453 0
M  V30 1584 C 168.825 -5.43885 -1.81596 0
M  V30 1585 N 168.321 -6.61601 -2.05562 0
M  V30 1586 N 170.114 -5.3136 -1.8334 0
M  V30 1587 H 162.265 -2.09729 0.335774 0
M  V30 1588 H 164.528 -0.943925 0.0878028 0
M  V30 1589 H 164.234 -3.50678 -0.267905 0
M  V30 1590 H 164.108 -3.20334 -1.99163 0
M  V30 1591 H 166.495 -2.21225 -1.95304 0
M  V30 1592 H 166.576 -2.54871 -0.217801 0
M  V30 1593 H 166.22 -5.02984 -0.704958 0
M  V30 1594 H 166.15 -4.66299 -2.44689 0
M  V30 1595 H 168.641 -3.51466 -1.38853 0
M  V30 1596 H 168.954 -7.39361 -2.24867 0
M  V30 1597 H 167.299 -6.64725 -2.02894 0
M  V30 1598 H 170.49 -4.38382 -1.64132 0
M  V30 1599 H 170.663 -6.15258 -2.03377 0
M  V30 1600 N 164.069 0.697108 -1.41344 0
M  V30 1601 C 165.317 1.45426 -1.40341 0
M  V30 1602 C 165.638 1.94996 -0.0128787 0
M  V30 1603 O 164.908 1.71599 0.945027 0
M  V30 1604 H 163.488 0.539594 -0.516573 0
M  V30 1605 H 166.15 0.825201 -1.76569 0
M  V30 1606 H 165.246 2.31817 -2.08967 0
M  V30 1607 N 165.547 1.27147 0.931209 0
M  V30 1608 C 166.477 1.12081 2.04842 0
M  V30 1609 C 167.458 0.0232364 1.70084 0
M  V30 1610 O 168.643 0.197085 1.93197 0
M  V30 1611 C 165.773 0.76354 3.38803 0
M  V30 1612 C 164.727 1.81396 3.87659 0
M  V30 1613 C 164.053 1.31075 5.18385 0
M  V30 1614 C 165.353 3.21739 4.11438 0
M  V30 1615 H 167.047 2.05537 2.17703 0
M  V30 1616 H 164.593 0.989603 1.04608 0
M  V30 1617 H 166.546 0.644982 4.16435 0
M  V30 1618 H 165.27 -0.206727 3.25945 0
M  V30 1619 H 163.929 1.92136 3.12217 0
M  V30 1620 H 163.577 0.330037 5.01916 0
M  V30 1621 H 163.277 2.013 5.52044 0
M  V30 1622 H 164.801 1.20506 5.98591 0
M  V30 1623 H 166.215 3.14019 4.79651 0
M  V30 1624 H 164.612 3.89644 4.56397 0
M  V30 1625 H 165.682 3.67054 3.16859 0
M  V30 1626 N 167.025 -1.13721 1.09112 0
M  V30 1627 C 168.265 -1.86576 0.834801 0
M  V30 1628 C 168.629 -1.81435 -0.628122 0
M  V30 1629 O 169.83 -2.49497 -1.00024 0
M  V30 1630 C 168.101 -3.30872 1.35124 0
M  V30 1631 S 169.66 -4.21257 1.22832 0
M  V30 1632 H 166.478 -0.643666 0.302017 0
M  V30 1633 H 169.08 -1.37085 1.39385 0
M  V30 1634 H 167.784 -3.32166 2.41027 0
M  V30 1635 H 167.315 -3.85423 0.788185 0
M  V30 1636 H 169.33 -4.95884 0.177191 0
M  V30 1637 N 168.503 -0.877838 -1.30888 0
M  V30 1638 C 169.749 -0.493426 -1.96706 0
M  V30 1639 C 170.082 0.953504 -1.6918 0
M  V30 1640 O 169.357 1.67266 -0.992594 0
M  V30 1641 C 169.64 -0.760429 -3.51979 0
M  V30 1642 C 169.493 -2.25747 -3.89048 0
M  V30 1643 C 170.812 -0.232148 -4.39487 0
M  V30 1644 H 167.931 -0.180746 -0.714493 0
M  V30 1645 H 170.573 -1.10052 -1.54882 0
M  V30 1646 H 168.723 -0.243715 -3.87735 0
M  V30 1647 H 170.395 -2.84204 -3.63354 0
M  V30 1648 H 168.638 -2.72694 -3.37373 0
M  V30 1649 H 169.309 -2.39491 -4.97341 0
M  V30 1650 H 171.785 -0.674314 -4.106 0
M  V30 1651 H 170.661 -0.448355 -5.47066 0
M  V30 1652 H 170.922 0.866297 -4.33529 0
M  V30 1653 N 169.982 1.44106 -0.638065 0
M  V30 1654 C 170.93 2.3248 0.0748149 0
M  V30 1655 C 171.924 1.47746 0.828702 0
M  V30 1656 O 173.13 1.64049 0.740816 0
M  V30 1657 H 169.505 0.750771 0.0429686 0
M  V30 1658 H 171.476 2.90348 -0.688504 0
M  V30 1659 C 170.225 3.31843 1.03805 0
M  V30 1660 H 169.548 3.97059 0.467375 0
M  V30 1661 H 170.988 3.96345 1.50622 0
M  V30 1662 C 169.447 2.61291 2.1267 0
M  V30 1663 O 169.977 2.41702 3.20847 0
M  V30 1664 N 168.183 2.20915 1.88798 0
M  V30 1665 H 167.73 2.37047 1.00829 0
M  V30 1666 H 167.688 1.74038 2.61836 0
M  V30 1667 N 171.46 0.379036 1.52974 0
M  V30 1668 C 172.423 -0.448865 2.24762 0
M  V30 1669 C 173.423 -0.998689 1.26027 0
M  V30 1670 O 174.613 -0.882313 1.50203 0
M  V30 1671 C 171.745 -1.62872 2.99476 0
M  V30 1672 H 172.938 0.179491 2.99362 0
M  V30 1673 H 170.491 0.13096 1.5575 0
M  V30 1674 H 171.226 -2.29479 2.29151 0
M  V30 1675 H 171.011 -1.24128 3.71934 0
M  V30 1676 H 172.501 -2.2151 3.5401 0
M  V30 1677 N 172.938 -1.57226 0.108567 0
M  V30 1678 C 174.163 -1.99604 -0.563303 0
M  V30 1679 C 174.588 -0.987563 -1.6009 0
M  V30 1680 O 173.946 0.0421687 -1.81251 0
M  V30 1681 C 173.994 -3.40902 -1.17552 0
M  V30 1682 O 173.098 -3.42896 -2.2912 0
M  V30 1683 H 172.439 -0.648704 -0.1417 0
M  V30 1684 H 174.969 -2.03679 0.193961 0
M  V30 1685 H 174.979 -3.78886 -1.51357 0
M  V30 1686 H 173.654 -4.1382 -0.415445 0
M  V30 1687 H 172.231 -3.1672 -1.96832 0
M  V30 1688 N 174.416 0.165178 -1.56732 0
M  V30 1689 C 175.379 1.18822 -1.95995 0
M  V30 1690 C 176.379 1.3685 -0.84431 0
M  V30 1691 O 177.569 1.34152 -1.11126 0
M  V30 1692 C 174.701 2.5521 -2.26011 0
M  V30 1693 H 175.894 0.851825 -2.87548 0
M  V30 1694 H 173.447 0.407857 -1.50885 0
M  V30 1695 H 174.182 2.93852 -1.37191 0
M  V30 1696 H 173.967 2.43489 -3.07336 0
M  V30 1697 H 175.457 3.28927 -2.57288 0
M  V30 1698 N 175.894 1.51508 0.433938 0
M  V30 1699 C 177.14 1.64588 1.18484 0
M  V30 1700 C 177.473 0.362666 1.90784 0
M  V30 1701 O 176.748 -0.637892 1.83742 0
M  V30 1702 C 177.031 2.85149 2.19913 0
M  V30 1703 C 176.884 4.23456 1.51674 0
M  V30 1704 C 178.203 3.01227 3.20858 0
M  V30 1705 H 175.322 0.598994 0.429389 0
M  V30 1706 H 177.964 1.84002 0.473647 0
M  V30 1707 H 176.114 2.68729 2.80566 0
M  V30 1708 H 177.786 4.51552 0.943322 0
M  V30 1709 H 176.029 4.25998 0.819035 0
M  V30 1710 H 176.7 5.03812 2.2556 0
M  V30 1711 H 179.176 3.16382 2.70263 0
M  V30 1712 H 178.052 3.87141 3.89118 0
M  V30 1713 H 178.313 2.13447 3.8716 0
M  V30 1714 N 177.372 -0.689602 1.41712 0
M  V30 1715 C 178.597 -1.48329 1.44959 0
M  V30 1716 C 179.022 -1.8801 0.0581283 0
M  V30 1717 O 178.38 -1.55026 -0.940035 0
M  V30 1718 C 178.428 -2.71835 2.36935 0
M  V30 1719 O 177.532 -3.69549 1.8305 0
M  V30 1720 H 176.873 -0.446199 0.491734 0
M  V30 1721 H 179.403 -0.847127 1.86239 0
M  V30 1722 H 179.413 -3.20076 2.53013 0
M  V30 1723 H 178.088 -2.42291 3.38035 0
M  V30 1724 H 176.665 -3.2851 1.76452 0
M  V30 1725 N 178.85 -1.27639 -0.924453 0
M  V30 1726 C 180.266 -1.05113 -1.20097 0
M  V30 1727 C 180.466 0.213262 -2.00368 0
M  V30 1728 O 179.522 0.91787 -2.35226 0
M  V30 1729 C 180.835 -2.29244 -1.94596 0
M  V30 1730 C 182.383 -2.34315 -2.07522 0
M  V30 1731 C 182.858 -3.58183 -2.85427 0
M  V30 1732 N 184.349 -3.5876 -2.92994 0
M  V30 1733 C 185.084 -4.51277 -3.53746 0
M  V30 1734 N 184.58 -5.54102 -4.15863 0
M  V30 1735 N 186.373 -4.38894 -3.51181 0
M  V30 1736 H 178.524 -2.08821 -0.388264 0
M  V30 1737 H 180.787 -0.918568 -0.234385 0
M  V30 1738 H 180.493 -3.21301 -1.43034 0
M  V30 1739 H 180.367 -2.34816 -2.95197 0
M  V30 1740 H 182.754 -1.42762 -2.58269 0
M  V30 1741 H 182.835 -2.32744 -1.06131 0
M  V30 1742 H 182.479 -4.50074 -2.35363 0
M  V30 1743 H 182.409 -3.57006 -3.8711 0
M  V30 1744 H 184.9 -2.84398 -2.4885 0
M  V30 1745 H 185.213 -6.20859 -4.60168 0
M  V30 1746 H 183.558 -5.57941 -4.144 0
M  V30 1747 H 186.749 -3.57772 -3.01856 0
M  V30 1748 H 186.922 -5.11186 -3.98237 0
M  V30 1749 N 180.328 1.1314 -1.09713 0
M  V30 1750 C 181.258 2.20748 -0.761102 0
M  V30 1751 C 182.239 1.68061 0.262566 0
M  V30 1752 O 183.424 1.93765 0.129977 0
M  V30 1753 C 180.554 3.46812 -0.184054 0
M  V30 1754 C 179.508 4.12606 -1.13757 0
M  V30 1755 C 178.834 5.33031 -0.422083 0
M  V30 1756 C 180.134 4.59603 -2.48118 0
M  V30 1757 H 181.828 2.49113 -1.66082 0
M  V30 1758 H 179.374 1.19734 -0.799987 0
M  V30 1759 H 181.327 4.21353 0.0631215 0
M  V30 1760 H 180.051 3.17851 0.750868 0
M  V30 1761 H 178.71 3.40036 -1.37007 0
M  V30 1762 H 178.358 5.00335 0.517072 0
M  V30 1763 H 178.058 5.77999 -1.05788 0
M  V30 1764 H 179.582 6.10325 -0.183277 0
M  V30 1765 H 180.996 5.25552 -2.29059 0
M  V30 1766 H 179.393 5.15321 -3.07514 0
M  V30 1767 H 180.463 3.73971 -3.08665 0
M  V30 1768 N 181.806 0.884767 1.30421 0
M  V30 1769 C 183.222 0.57874 1.48737 0
M  V30 1770 C 183.422 -0.883567 1.81095 0
M  V30 1771 O 182.478 -1.6648 1.89844 0
M  V30 1772 C 183.791 1.49171 2.61091 0
M  V30 1773 C 185.339 1.49532 2.74971 0
M  V30 1774 C 185.814 2.39421 3.90438 0
M  V30 1775 N 187.305 2.37383 3.97748 0
M  V30 1776 C 188.04 3.03647 4.86401 0
M  V30 1777 N 187.536 3.79136 5.79852 0
M  V30 1778 N 189.329 2.9288 4.79768 0
M  V30 1779 H 181.48 1.83075 1.0769 0
M  V30 1780 H 183.743 0.783637 0.533495 0
M  V30 1781 H 183.449 2.53291 2.44001 0
M  V30 1782 H 183.323 1.20113 3.57565 0
M  V30 1783 H 185.71 0.46163 2.91467 0
M  V30 1784 H 185.791 1.8262 1.79119 0
M  V30 1785 H 185.435 3.42874 3.74699 0
M  V30 1786 H 185.365 2.03649 4.85628 0
M  V30 1787 H 187.856 1.82525 3.30897 0
M  V30 1788 H 188.169 4.26789 6.4426 0
M  V30 1789 H 186.514 3.83243 5.79784 0
M  V30 1790 H 189.705 2.33433 4.05742 0
M  V30 1791 H 189.878 3.448 5.4865 0
M  V30 1792 N 183.284 -1.43765 0.645699 0
M  V30 1793 C 184.247 -2.29163 -0.0409488 0
M  V30 1794 C 185.247 -1.41813 -0.757996 0
M  V30 1795 O 186.437 -1.63527 -0.600382 0
M  V30 1796 C 183.569 -3.23716 -1.06869 0
M  V30 1797 H 184.762 -2.91366 0.710345 0
M  V30 1798 H 182.315 -1.5092 0.406547 0
M  V30 1799 H 183.05 -2.66393 -1.84947 0
M  V30 1800 H 182.835 -3.88105 -0.558277 0
M  V30 1801 H 184.325 -3.87831 -1.54845 0
M  V30 1802 N 184.763 -0.387143 -1.52771 0
M  V30 1803 C 185.993 0.195585 -2.05672 0
M  V30 1804 C 186.401 1.41241 -1.25887 0
M  V30 1805 O 185.744 1.81265 -0.298081 0
M  V30 1806 C 185.806 0.632327 -3.53895 0
M  V30 1807 C 185.47 -0.470739 -4.54569 0
M  V30 1808 C 186.467 -1.32746 -5.02667 0
M  V30 1809 C 184.152 -0.637151 -4.98243 0
M  V30 1810 C 186.146 -2.33574 -5.93061 0
M  V30 1811 C 183.833 -1.64877 -5.88438 0
M  V30 1812 C 184.831 -2.49649 -6.35739 0
M  V30 1813 O 184.519 -3.49082 -7.24153 0
M  V30 1814 H 184.251 0.033658 -0.675162 0
M  V30 1815 H 186.805 -0.550221 -1.97893 0
M  V30 1816 H 185.035 1.43008 -3.59285 0
M  V30 1817 H 186.724 1.14048 -3.89548 0
M  V30 1818 H 187.49 -1.21019 -4.69659 0
M  V30 1819 H 183.369 0.0129567 -4.60998 0
M  V30 1820 H 186.913 -2.99777 -6.29904 0
M  V30 1821 H 182.81 -1.76643 -6.2086 0
M  V30 1822 H 183.578 -3.45065 -7.42208 0
M  V30 1823 N 186.241 1.57166 -0.116904 0
M  V30 1824 C 187.171 2.18222 0.830759 0
M  V30 1825 C 188.152 1.12167 1.27877 0
M  V30 1826 O 189.337 1.40394 1.34176 0
M  V30 1827 C 186.467 2.77996 2.08172 0
M  V30 1828 C 185.421 3.89614 1.77157 0
M  V30 1829 C 184.747 4.36187 3.09265 0
M  V30 1830 C 186.047 5.1181 1.04151 0
M  V30 1831 H 187.741 2.97664 0.321992 0
M  V30 1832 H 185.287 1.4318 0.153434 0
M  V30 1833 H 187.24 3.19366 2.74924 0
M  V30 1834 H 185.964 1.9584 2.6137 0
M  V30 1835 H 184.623 3.48816 1.12796 0
M  V30 1836 H 184.271 3.50893 3.60393 0
M  V30 1837 H 183.971 5.11455 2.89288 0
M  V30 1838 H 185.495 4.80207 3.77139 0
M  V30 1839 H 186.909 5.50214 1.61052 0
M  V30 1840 H 185.306 5.92648 0.942762 0
M  V30 1841 H 186.376 4.84892 0.0279022 0
M  V30 1842 N 187.719 -0.156864 1.56817 0
M  V30 1843 C 188.649 -1.19589 2.00551 0
M  V30 1844 C 189.63 -1.4536 0.883426 0
M  V30 1845 O 190.815 -1.56449 1.15054 0
M  V30 1846 C 187.945 -2.53143 2.37773 0
M  V30 1847 C 186.899 -2.41913 3.53075 0
M  V30 1848 C 186.225 -3.80088 3.76081 0
M  V30 1849 C 187.525 -1.91157 4.86062 0
M  V30 1850 H 189.219 -0.832293 2.87599 0
M  V30 1851 H 186.765 -0.398918 1.38364 0
M  V30 1852 H 188.718 -3.26047 2.66967 0
M  V30 1853 H 187.442 -2.91319 1.4765 0
M  V30 1854 H 186.101 -1.71462 3.24031 0
M  V30 1855 H 185.749 -4.15683 2.83225 0
M  V30 1856 H 185.449 -3.73439 4.53671 0
M  V30 1857 H 186.973 -4.54556 4.0769 0
M  V30 1858 H 188.387 -2.53846 5.14038 0
M  V30 1859 H 186.784 -1.95422 5.67389 0
M  V30 1860 H 187.854 -0.866673 4.77092 0
M  V30 1861 N 189.197 -1.51736 -0.425897 0
M  V30 1862 C 190.608 -1.5732 -1.00536 0
M  V30 1863 C 190.959 -0.403537 -1.92005 0
M  V30 1864 O 190.084 0.478256 -2.11049 0
M  V30 1865 C 190.679 -2.85119 -1.8301 0
M  V30 1866 C 189.238 -2.93236 -2.35987 0
M  V30 1867 C 188.385 -2.52098 -1.15508 0
M  V30 1868 H 191.336 -1.57348 -0.206739 0
M  V30 1869 H 191.357 -2.69526 -2.68581 0
M  V30 1870 H 190.869 -3.7023 -1.16411 0
M  V30 1871 H 188.97 -2.12581 -3.06007 0
M  V30 1872 H 189.083 -3.9713 -2.68001 0
M  V30 1873 H 187.447 -2.05558 -1.50393 0
M  V30 1874 H 188.23 -3.39565 -0.505014 0
M  V30 1875 N 190.675 0.682077 -1.42076 0
M  V30 1876 C 191.638 1.77756 -1.44691 0
M  V30 1877 C 192.638 1.5726 -0.335535 0
M  V30 1878 O 193.828 1.63686 -0.596037 0
M  V30 1879 C 190.96 3.16301 -1.27146 0
M  V30 1880 H 192.153 1.76826 -2.42224 0
M  V30 1881 H 189.706 0.891012 -1.28416 0
M  V30 1882 H 190.441 3.22862 -0.305075 0
M  V30 1883 H 190.226 3.32581 -2.07683 0
M  V30 1884 H 191.716 3.96241 -1.31843 0
M  V30 1885 N 192.153 1.28127 0.917671 0
M  V30 1886 C 193.564 1.13622 1.48145 0
M  V30 1887 C 193.915 -0.275207 1.9426 0
M  V30 1888 O 193.04 -1.1691 1.82102 0
M  V30 1889 C 193.635 2.05648 2.69248 0
M  V30 1890 C 192.194 1.95219 3.21818 0
M  V30 1891 C 191.341 1.97618 1.94532 0
M  V30 1892 H 194.292 1.40874 0.730772 0
M  V30 1893 H 194.313 1.61818 3.44377 0
M  V30 1894 H 193.825 3.08365 2.35653 0
M  V30 1895 H 191.926 0.955244 3.60147 0
M  V30 1896 H 192.039 2.81976 3.87333 0
M  V30 1897 H 190.403 1.41973 2.11461 0
M  V30 1898 H 191.186 3.02007 1.63238 0
M  V30 1899 N 193.631 -1.12557 1.10312 0
M  V30 1900 C 195.042 -1.65574 0.862678 0
M  V30 1901 C 195.393 -1.86566 -0.607256 0
M  V30 1902 O 194.518 -1.59121 -1.46662 0
M  V30 1903 C 195.113 -3.00776 1.55947 0
M  V30 1904 C 193.672 -3.50748 1.36576 0
M  V30 1905 C 192.819 -2.25797 1.60968 0
M  V30 1906 H 195.77 -0.963552 1.26101 0
M  V30 1907 H 195.791 -3.67185 0.997753 0
M  V30 1908 H 195.303 -2.85465 2.62928 0
M  V30 1909 H 193.404 -3.71245 0.317531 0
M  V30 1910 H 193.517 -4.30289 2.10686 0
M  V30 1911 H 191.881 -2.32841 1.03234 0
M  V30 1912 H 192.664 -2.13043 2.69198 0
M  V30 1913 N 195.109 -0.891671 -1.2995 0
M  V30 1914 C 196.072 -0.36828 -2.26222 0
M  V30 1915 C 197.072 0.493014 -1.53056 0
M  V30 1916 O 198.262 0.299213 -1.71611 0
M  V30 1917 C 195.394 0.47442 -3.37583 0
M  V30 1918 H 196.587 -1.21844 -2.74033 0
M  V30 1919 H 194.14 -0.669107 -1.41254 0
M  V30 1920 H 194.875 1.34489 -2.95099 0
M  V30 1921 H 194.66 -0.142615 -3.91841 0
M  V30 1922 H 196.15 0.83218 -4.09224 0
M  V30 1923 N 196.587 1.43421 -0.653314 0
M  V30 1924 C 197.998 1.85065 -0.246537 0
M  V30 1925 C 198.349 1.54688 1.2069 0
M  V30 1926 O 197.474 0.995896 1.92122 0
M  V30 1927 C 198.069 3.35922 -0.440666 0
M  V30 1928 C 196.628 3.76297 -0.0882064 0
M  V30 1929 C 195.775 2.67147 -0.743484 0
M  V30 1930 H 198.726 1.33572 -0.856979 0
M  V30 1931 H 198.747 3.79204 0.313798 0
M  V30 1932 H 198.259 3.58 -1.49858 0
M  V30 1933 H 196.36 3.5983 0.96711 0
M  V30 1934 H 196.473 4.76338 -0.513738 0
M  V30 1935 H 194.837 2.54086 -0.176712 0
M  V30 1936 H 195.62 2.92053 -1.80443 0
M  V30 1937 N 198.065 0.39524 1.52563 0
M  V30 1938 C 199.313 -0.184678 2.01254 0
M  V30 1939 C 199.634 -1.46822 1.28329 0
M  V30 1940 O 198.904 -1.91666 0.405094 0
M  V30 1941 H 197.484 -0.0712355 0.743596 0
M  V30 1942 H 200.146 0.528293 1.87603 0
M  V30 1943 H 199.242 -0.390681 3.09645 0
M  V30 1944 N 199.544 -1.57102 0.125237 0
M  V30 1945 C 200.492 -2.16905 -0.839927 0
M  V30 1946 C 201.486 -1.11998 -1.27094 0
M  V30 1947 O 202.692 -1.3029 -1.24195 0
M  V30 1948 H 199.067 -0.694252 -0.288995 0
M  V30 1949 H 201.038 -2.96774 -0.311115 0
M  V30 1950 C 199.787 -2.78795 -2.07771 0
M  V30 1951 H 199.11 -3.59221 -1.755 0
M  V30 1952 H 200.55 -3.2417 -2.73295 0
M  V30 1953 C 199.009 -1.76193 -2.87155 0
M  V30 1954 O 199.539 -1.21909 -3.82755 0
M  V30 1955 N 197.745 -1.45991 -2.51267 0
M  V30 1956 H 197.292 -1.90325 -1.73592 0
M  V30 1957 H 197.25 -0.775844 -3.04677 0
M  V30 1958 N 201.022 0.148545 -1.56898 0
M  V30 1959 C 201.985 1.16736 -1.97244 0
M  V30 1960 C 202.985 1.35947 -0.858777 0
M  V30 1961 O 204.175 1.32966 -1.12542 0
M  V30 1962 C 201.307 2.52798 -2.28705 0
M  V30 1963 H 202.5 0.821279 -2.88435 0
M  V30 1964 H 200.053 0.391831 -1.51309 0
M  V30 1965 H 200.788 2.92381 -1.403 0
M  V30 1966 H 200.573 2.40216 -3.09901 0
M  V30 1967 H 202.063 3.26179 -2.60762 0
M  V30 1968 N 202.5 1.5196 0.417844 0
M  V30 1969 C 203.725 1.69717 1.1921 0
M  V30 1970 C 204.15 0.402148 1.83751 0
M  V30 1971 O 203.508 -0.639593 1.69643 0
M  V30 1972 C 203.556 2.82794 2.2374 0
M  V30 1973 O 202.66 2.47756 3.29683 0
M  V30 1974 H 202.001 0.565263 0.348387 0
M  V30 1975 H 204.531 1.98621 0.490985 0
M  V30 1976 H 204.541 3.07452 2.68212 0
M  V30 1977 H 203.216 3.76756 1.76146 0
M  V30 1978 H 201.793 2.33739 2.90552 0
M  V30 1979 N 203.978 -0.674533 1.42435 0
M  V30 1980 C 204.888 -1.81751 1.48337 0
M  V30 1981 C 205.904 -1.69975 0.372099 0
M  V30 1982 O 207.08 -1.91521 0.62304 0
M  V30 1983 C 204.145 -3.17895 1.38361 0
M  V30 1984 C 203.206 -3.41625 2.59982 0
M  V30 1985 C 202.439 -4.71274 2.50473 0
M  V30 1986 O 202.662 -5.49197 1.54075 0
M  V30 1987 O 201.596 -4.96254 3.4061 0
M  V30 1988 H 205.422 -1.79728 2.44809 0
M  V30 1989 H 203.007 -0.830312 1.24202 0
M  V30 1990 H 204.889 -3.99136 1.35161 0
M  V30 1991 H 203.564 -3.20555 0.450144 0
M  V30 1992 H 202.471 -2.60231 2.68757 0
M  V30 1993 H 203.804 -3.43796 3.52229 0
M  V30 1994 N 205.456 -1.28612 -0.910864 0
M  V30 1995 C 206.681 -1.1891 -1.69927 0
M  V30 1996 C 207.106 0.248372 -1.86453 0
M  V30 1997 O 206.464 1.17961 -1.37676 0
M  V30 1998 C 206.512 -1.89578 -3.06745 0
M  V30 1999 O 205.616 -1.20521 -3.94396 0
M  V30 2000 H 204.957 -0.412632 -0.520222 0
M  V30 2001 H 207.487 -1.69985 -1.1387 0
M  V30 2002 H 207.497 -1.97597 -3.56958 0
M  V30 2003 H 206.172 -2.94136 -2.94035 0
M  V30 2004 H 204.749 -1.20684 -3.52831 0
M  V30 2005 N 206.934 1.1197 -1.10907 0
M  V30 2006 C 207.844 2.21433 -0.774896 0
M  V30 2007 C 208.86 1.72478 0.229657 0
M  V30 2008 O 210.036 2.01288 0.0672008 0
M  V30 2009 C 207.101 3.4602 -0.216986 0
M  V30 2010 C 206.162 4.09791 -1.27944 0
M  V30 2011 C 205.395 5.28431 -0.748055 0
M  V30 2012 O 205.618 5.68823 0.423833 0
M  V30 2013 O 204.552 5.82644 -1.51027 0
M  V30 2014 H 208.378 2.5242 -1.68873 0
M  V30 2015 H 205.963 1.20399 -0.884555 0
M  V30 2016 H 207.845 4.21304 0.090059 0
M  V30 2017 H 206.52 3.16698 0.669633 0
M  V30 2018 H 205.427 3.36265 -1.63941 0
M  V30 2019 H 206.76 4.4328 -2.13925 0
M  V30 2020 N 208.412 0.89855 1.29475 0
M  V30 2021 C 209.322 0.379974 2.31502 0
M  V30 2022 C 210.338 -0.524695 1.659 0
M  V30 2023 O 211.514 -0.414551 1.97087 0
M  V30 2024 C 208.579 -0.385138 3.44554 0
M  V30 2025 C 207.64 0.550914 4.2575 0
M  V30 2026 C 206.873 -0.177778 5.33404 0
M  V30 2027 O 207.096 -1.40189 5.52904 0
M  V30 2028 O 206.03 0.479106 5.9999 0
M  V30 2029 H 209.856 1.22639 2.77837 0
M  V30 2030 H 207.441 0.662834 1.33891 0
M  V30 2031 H 209.323 -0.817841 4.13388 0
M  V30 2032 H 207.998 -1.20763 3.0033 0
M  V30 2033 H 206.905 1.03271 3.59564 0
M  V30 2034 H 208.238 1.33979 4.73614 0
M  V30 2035 N 209.89 -1.43072 0.660911 0
M  V30 2036 C 211.167 -1.95307 0.107017 0
M  V30 2037 C 211.547 -1.60192 -1.37484 0
M  V30 2038 O 210.895 -0.890949 -2.10415 0
M  V30 2039 C 211.105 -3.47124 0.361402 0
M  V30 2040 C 212.453 -4.23738 0.270455 0
M  V30 2041 O 213.477 -3.54981 0.294382 0
M  V30 2042 O 212.336 -5.46131 0.200737 0
M  V30 2043 H 209.43 -0.826984 -0.00517729 0
M  V30 2044 H 211.976 -1.52972 0.734681 0
M  V30 2045 H 210.748 -3.65837 1.38848 0
M  V30 2046 H 210.371 -3.96475 -0.298953 0
M  V30 2047 N 211.368 -0.403325 -1.52352 0
M  V30 2048 C 212.784 -0.0539281 -1.59509 0
M  V30 2049 C 212.984 1.43307 -1.41652 0
M  V30 2050 O 212.04 2.19924 -1.24056 0
M  V30 2051 C 213.353 -0.543654 -2.95745 0
M  V30 2052 C 214.901 -0.501125 -3.08962 0
M  V30 2053 C 215.376 -0.967267 -4.47669 0
M  V30 2054 N 216.867 -0.923849 -4.53893 0
M  V30 2055 C 217.602 -1.25578 -5.5948 0
M  V30 2056 N 217.098 -1.65889 -6.72646 0
M  V30 2057 N 218.891 -1.17613 -5.49658 0
M  V30 2058 H 211.042 -1.37123 -1.62206 0
M  V30 2059 H 213.305 -0.56294 -0.76276 0
M  V30 2060 H 213.011 -1.58275 -3.14073 0
M  V30 2061 H 212.885 0.0498042 -3.77167 0
M  V30 2062 H 215.272 0.528909 -2.90321 0
M  V30 2063 H 215.353 -1.13056 -2.2946 0
M  V30 2064 H 214.997 -1.9956 -4.67053 0
M  V30 2065 H 214.927 -0.314698 -5.25659 0
M  V30 2066 H 217.418 -0.627403 -3.72655 0
M  V30 2067 H 217.731 -1.89543 -7.49195 0
M  V30 2068 H 216.076 -1.69787 -6.73942 0
M  V30 2069 H 219.267 -0.860115 -4.6013 0
M  V30 2070 H 219.44 -1.43812 -6.3184 0
M  V30 2071 N 212.846 1.57033 -0.133567 0
M  V30 2072 C 214.071 2.00475 0.531477 0
M  V30 2073 C 214.496 1.01291 1.58499 0
M  V30 2074 O 213.854 -0.0133279 1.81295 0
M  V30 2075 C 213.902 3.42729 1.12113 0
M  V30 2076 O 213.006 3.46498 2.23636 0
M  V30 2077 H 212.347 0.650876 0.131362 0
M  V30 2078 H 214.877 2.03344 -0.22634 0
M  V30 2079 H 214.887 3.81246 1.4531 0
M  V30 2080 H 213.562 4.14428 0.349557 0
M  V30 2081 H 212.139 3.19811 1.91769 0
M  V30 2082 N 214.325 -0.140222 1.56975 0
M  V30 2083 C 215.288 -1.15689 1.97861 0
M  V30 2084 C 216.288 -1.3549 0.865974 0
M  V30 2085 O 217.478 -1.32367 1.13246 0
M  V30 2086 C 214.61 -2.51582 2.30042 0
M  V30 2087 H 215.803 -0.805971 2.88867 0
M  V30 2088 H 213.356 -0.383801 1.51515 0
M  V30 2089 H 214.091 -2.91632 1.41849 0
M  V30 2090 H 213.876 -2.38569 3.11171 0
M  V30 2091 H 215.366 -3.24792 2.62488 0
M  V30 2092 N 215.803 -1.52179 -0.40978 0
M  V30 2093 C 217.051 -1.65878 -1.15451 0
M  V30 2094 C 217.372 -0.390771 -1.91044 0
M  V30 2095 O 216.642 0.594323 -1.86667 0
M  V30 2096 H 215.222 -0.611405 -0.429177 0
M  V30 2097 H 217.884 -1.89219 -0.467134 0
M  V30 2098 H 216.98 -2.49954 -1.86894 0
M  V30 2099 N 217.281 0.66697 -1.42791 0
M  V30 2100 C 218.506 1.46004 -1.47301 0
M  V30 2101 C 218.931 1.87894 -0.0880317 0
M  V30 2102 O 218.289 1.56502 0.915253 0
M  V30 2103 C 218.337 2.68031 -2.41229 0
M  V30 2104 O 217.441 3.6659 -1.88906 0
M  V30 2105 H 216.782 0.43832 -0.49877 0
M  V30 2106 H 219.312 0.817391 -1.87563 0
M  V30 2107 H 219.322 3.1601 -2.58073 0
M  V30 2108 H 217.997 2.36883 -3.41847 0
M  V30 2109 H 216.574 3.25661 -1.81656 0
M  V30 2110 N 218.759 1.29093 0.90403 0
M  V30 2111 C 220.005 1.16986 1.65656 0
M  V30 2112 C 220.338 -0.278925 1.92186 0
M  V30 2113 O 219.613 -1.2019 1.5292 0
M  V30 2114 C 219.896 1.97908 3.0084 0
M  V30 2115 C 219.749 3.50903 2.81403 0
M  V30 2116 C 221.068 1.80208 4.01513 0
M  V30 2117 H 218.187 0.426346 0.601164 0
M  V30 2118 H 220.829 1.58518 1.04747 0
M  V30 2119 H 218.979 1.62616 3.52829 0
M  V30 2120 H 220.651 3.96153 2.36348 0
M  V30 2121 H 218.894 3.76045 2.1627 0
M  V30 2122 H 219.565 4.02791 3.77443 0
M  V30 2123 H 222.041 2.11025 3.58619 0
M  V30 2124 H 220.917 2.39184 4.94047 0
M  V30 2125 H 221.178 0.756119 4.35586 0
M  V30 2126 N 220.237 -1.11381 1.11499 0
M  V30 2127 C 221.147 -2.21019 0.786628 0
M  V30 2128 C 222.163 -1.72597 -0.220507 0
M  V30 2129 O 223.339 -2.01321 -0.0565251 0
M  V30 2130 C 220.404 -3.459 0.235333 0
M  V30 2131 C 219.465 -4.09107 1.30115 0
M  V30 2132 C 218.698 -5.28027 0.776068 0
M  V30 2133 O 218.921 -5.6904 -0.393661 0
M  V30 2134 O 217.855 -5.81835 1.54114 0
M  V30 2135 H 221.681 -2.51521 1.70209 0
M  V30 2136 H 219.266 -1.19928 0.890928 0
M  V30 2137 H 221.148 -4.21346 -0.067715 0
M  V30 2138 H 219.823 -3.17049 -0.652828 0
M  V30 2139 H 218.73 -3.35391 1.65722 0
M  V30 2140 H 220.063 -4.42139 2.16273 0
M  V30 2141 N 221.715 -0.905404 -1.28997 0
M  V30 2142 C 222.94 -0.549175 -1.99997 0
M  V30 2143 C 223.365 0.860276 -1.67275 0
M  V30 2144 O 222.723 1.57355 -0.900502 0
M  V30 2145 C 222.771 -0.755185 -3.52604 0
M  V30 2146 O 221.875 0.189692 -4.11964 0
M  V30 2147 H 221.216 -0.213899 -0.628604 0
M  V30 2148 H 223.746 -1.21856 -1.64354 0
M  V30 2149 H 223.756 -0.662045 -4.02593 0
M  V30 2150 H 222.431 -1.78271 -3.75755 0
M  V30 2151 H 221.008 0.0485257 -3.72868 0
M  V30 2152 N 223.193 1.4272 -0.668489 0
M  V30 2153 C 224.604 1.84793 -0.266151 0
M  V30 2154 C 224.955 1.55959 1.19043 0
M  V30 2155 O 224.08 1.01622 1.91055 0
M  V30 2156 C 224.675 3.35436 -0.476271 0
M  V30 2157 C 223.234 3.76182 -0.128113 0
M  V30 2158 C 222.381 2.66344 -0.771777 0
M  V30 2159 H 225.332 1.32656 -0.871098 0
M  V30 2160 H 225.353 3.79515 0.273561 0
M  V30 2161 H 224.865 3.5639 -1.53647 0
M  V30 2162 H 222.966 3.60836 0.928891 0
M  V30 2163 H 223.079 4.75766 -0.564231 0
M  V30 2164 H 221.443 2.53885 -0.203652 0
M  V30 2165 H 222.226 2.90123 -1.83531 0
M  V30 2166 N 224.671 0.411399 1.52136 0
M  V30 2167 C 225.896 -0.165538 2.06738 0
M  V30 2168 C 226.321 -1.379 1.27926 0
M  V30 2169 O 225.679 -1.78628 0.310114 0
M  V30 2170 C 225.727 -0.492124 3.57226 0
M  V30 2171 O 224.831 -1.58276 3.80818 0
M  V30 2172 H 224.172 -0.0132132 0.663869 0
M  V30 2173 H 226.702 0.585253 1.96051 0
M  V30 2174 H 226.712 -0.750104 4.01045 0
M  V30 2175 H 225.387 0.394922 4.14021 0
M  V30 2176 H 223.964 -1.31677 3.48877 0
M  V30 2177 N 226.149 -1.5696 0.141893 0
M  V30 2178 C 227.395 -1.9625 -0.511248 0
M  V30 2179 C 227.728 -1.02654 -1.64851 0
M  V30 2180 O 227.003 -0.0679676 -1.94381 0
M  V30 2181 C 227.286 -3.45285 -1.02227 0
M  V30 2182 C 227.139 -4.49658 0.113138 0
M  V30 2183 C 228.458 -3.96698 -1.90574 0
M  V30 2184 H 225.577 -0.713567 -0.184367 0
M  V30 2185 H 228.219 -1.88698 0.222087 0
M  V30 2186 H 226.369 -3.51852 -1.64719 0
M  V30 2187 H 228.041 -4.55174 0.749302 0
M  V30 2188 H 226.284 -4.26857 0.773026 0
M  V30 2189 H 226.955 -5.51258 -0.286053 0
M  V30 2190 H 229.431 -3.92578 -1.37918 0
M  V30 2191 H 228.307 -5.01453 -2.2324 0
M  V30 2192 H 228.568 -3.3875 -2.84079 0
M  V30 2193 N 227.627 0.131896 -1.57047 0
M  V30 2194 C 228.852 0.860418 -1.8871 0
M  V30 2195 C 229.277 1.73251 -0.73251 0
M  V30 2196 O 228.635 1.785 0.317429 0
M  V30 2197 C 228.683 1.68047 -3.19049 0
M  V30 2198 O 227.787 2.7862 -3.04047 0
M  V30 2199 H 227.128 0.238743 -0.619595 0
M  V30 2200 H 229.658 0.118169 -2.04258 0
M  V30 2201 H 229.668 2.07238 -3.51449 0
M  V30 2202 H 228.343 1.04018 -4.02682 0
M  V30 2203 H 226.92 2.42726 -2.83088 0
M  V30 2204 N 229.106 1.52395 0.401703 0
M  V30 2205 C 230.331 1.70972 1.17403 0
M  V30 2206 C 230.756 0.421615 1.83314 0
M  V30 2207 O 230.114 -0.621564 1.70312 0
M  V30 2208 C 230.162 2.85151 2.20728 0
M  V30 2209 O 229.266 2.51238 3.27037 0
M  V30 2210 H 228.607 0.568927 0.342372 0
M  V30 2211 H 231.137 1.99131 0.469891 0
M  V30 2212 H 231.147 3.10279 2.64936 0
M  V30 2213 H 229.822 3.78603 1.7214 0
M  V30 2214 H 228.399 2.36808 2.88057 0
M  V30 2215 N 230.584 -0.659388 1.43143 0
M  V30 2216 C 231.812 -1.44723 1.47861 0
M  V30 2217 C 232.227 -1.88563 0.0945886 0
M  V30 2218 O 231.584 -1.59108 -0.893915 0
M  V30 2219 C 231.635 -2.68627 2.41913 0
M  V30 2220 O 231.356 -2.26623 3.74932 0
M  V30 2221 C 232.857 -3.62045 2.55809 0
M  V30 2222 H 230.077 -0.444801 0.502387 0
M  V30 2223 H 232.621 -0.808916 1.87821 0
M  V30 2224 H 230.776 -3.28613 2.05164 0
M  V30 2225 H 231.19 -3.06745 4.2545 0
M  V30 2226 H 232.664 -4.45666 3.25708 0
M  V30 2227 H 233.141 -4.08981 1.60099 0
M  V30 2228 H 233.747 -3.07944 2.93344 0
M  V30 2229 N 232.062 -1.29571 -0.897171 0
M  V30 2230 C 233.012 -1.11539 -1.98855 0
M  V30 2231 C 233.996 -0.0340716 -1.60864 0
M  V30 2232 O 235.188 -0.256062 -1.75138 0
M  V30 2233 C 232.317 -0.796603 -3.3393 0
M  V30 2234 C 231.403 -1.91758 -3.78272 0
M  V30 2235 N 231.794 -3.16143 -3.94826 0
M  V30 2236 C 230.092 -1.81119 -4.07568 0
M  V30 2237 C 230.793 -3.89293 -4.32233 0
M  V30 2238 N 229.769 -3.17255 -4.41419 0
M  V30 2239 H 233.571 -2.05894 -2.09726 0
M  V30 2240 H 231.085 -1.20732 -1.08616 0
M  V30 2241 H 233.082 -0.648459 -4.11826 0
M  V30 2242 H 231.742 0.139003 -3.24402 0
M  V30 2243 H 232.753 -3.5157 -3.80288 0
M  V30 2244 H 229.43 -0.948461 -4.06584 0
M  V30 2245 H 230.82 -4.9635 -4.52865 0
M  V30 2246 N 233.54 1.10788 -1.12088 0
M  V30 2247 C 234.956 1.34691 -0.856186 0
M  V30 2248 C 235.156 1.94791 0.515615 0
M  V30 2249 O 234.212 2.18524 1.26505 0
M  V30 2250 C 235.525 2.27208 -1.9697 0
M  V30 2251 C 237.073 2.40755 -2.00016 0
M  V30 2252 C 237.548 3.36598 -3.1059 0
M  V30 2253 N 239.039 3.44164 -3.10008 0
M  V30 2254 C 239.774 4.18284 -3.92206 0
M  V30 2255 N 239.27 4.95322 -4.84384 0
M  V30 2256 N 241.063 4.13865 -3.80357 0
M  V30 2257 H 233.214 0.70144 -2.00483 0
M  V30 2258 H 235.477 0.371405 -0.872217 0
M  V30 2259 H 235.183 1.90251 -2.958 0
M  V30 2260 H 235.057 3.27485 -1.87172 0
M  V30 2261 H 237.444 2.76982 -1.01808 0
M  V30 2262 H 237.525 1.40305 -2.13888 0
M  V30 2263 H 237.169 3.01096 -4.09028 0
M  V30 2264 H 237.099 4.36918 -2.93956 0
M  V30 2265 H 239.59 2.8922 -2.43228 0
M  V30 2266 H 239.903 5.49267 -5.43623 0
M  V30 2267 H 238.248 4.94459 -4.884 0
M  V30 2268 H 241.439 3.52773 -3.07683 0
M  V30 2269 H 241.612 4.71372 -4.44649 0
M  V30 2270 N 235.018 0.912232 1.28515 0
M  V30 2271 C 236.264 0.545405 1.95328 0
M  V30 2272 C 236.597 -0.908313 1.71649 0
M  V30 2273 O 235.872 -1.64575 1.03659 0
M  V30 2274 C 236.155 0.853483 3.4984 0
M  V30 2275 C 236.008 2.35982 3.82926 0
M  V30 2276 C 237.327 0.348589 4.38717 0
M  V30 2277 H 234.446 0.199626 0.709449 0
M  V30 2278 H 237.088 1.1412 1.5191 0
M  V30 2279 H 235.238 0.34643 3.86952 0
M  V30 2280 H 236.91 2.93738 3.55691 0
M  V30 2281 H 235.153 2.81543 3.30024 0
M  V30 2282 H 235.824 2.52593 4.90816 0
M  V30 2283 H 238.3 0.78294 4.08668 0
M  V30 2284 H 237.176 0.593242 5.45685 0
M  V30 2285 H 237.437 -0.751049 4.35674 0
M  V30 2286 N 236.496 -1.42363 0.676048 0
M  V30 2287 C 237.721 -2.06377 0.205705 0
M  V30 2288 C 238.146 -1.50463 -1.12883 0
M  V30 2289 O 237.504 -0.623619 -1.70237 0
M  V30 2290 C 237.552 -3.60277 0.152655 0
M  V30 2291 O 236.656 -4.02935 -0.87845 0
M  V30 2292 H 235.997 -0.655588 0.105359 0
M  V30 2293 H 238.527 -1.82475 0.925412 0
M  V30 2294 H 238.537 -4.07993 -0.0230675 0
M  V30 2295 H 237.212 -4.00346 1.12675 0
M  V30 2296 H 235.789 -3.66764 -0.673668 0
M  V30 2297 N 237.974 -0.419461 -1.51915 0
M  V30 2298 C 239.251 0.211999 -1.94448 0
M  V30 2299 C 239.631 1.61703 -1.35703 0
M  V30 2300 O 238.979 2.22102 -0.536931 0
M  V30 2301 C 239.189 0.207872 -3.4838 0
M  V30 2302 C 240.537 0.422192 -4.22496 0
M  V30 2303 O 241.561 0.286778 -3.55044 0
M  V30 2304 O 240.42 0.690009 -5.42126 0
M  V30 2305 H 237.514 0.139586 -0.815135 0
M  V30 2306 H 240.06 -0.476151 -1.62883 0
M  V30 2307 H 238.832 -0.775102 -3.83546 0
M  V30 2308 H 238.455 0.939688 -3.86336 0
M  V30 2309 N 239.452 1.56882 -0.150215 0
M  V30 2310 C 240.863 1.82995 0.370076 0
M  V30 2311 C 241.214 1.06907 1.64515 0
M  V30 2312 O 240.339 0.315369 2.1409 0
M  V30 2313 C 240.934 3.31942 0.678208 0
M  V30 2314 C 239.493 3.58625 1.14301 0
M  V30 2315 C 238.64 2.76792 0.167778 0
M  V30 2316 H 241.591 1.54209 -0.374858 0
M  V30 2317 H 241.612 3.48272 1.53254 0
M  V30 2318 H 241.124 3.87294 -0.249991 0
M  V30 2319 H 239.225 3.08664 2.08704 0
M  V30 2320 H 239.338 4.67073 1.06676 0
M  V30 2321 H 237.702 2.45972 0.661037 0
M  V30 2322 H 238.485 3.34916 -0.754069 0
M  V30 2323 N 240.93 -0.123565 1.57115 0
M  V30 2324 C 241.877 -1.15177 2.00007 0
M  V30 2325 C 242.847 -1.41403 0.871454 0
M  V30 2326 O 244.032 -1.53346 1.13533 0
M  V30 2327 C 241.172 -2.47436 2.40561 0
M  V30 2328 C 240.285 -2.28184 3.66819 0
M  V30 2329 C 239.42 -3.53641 3.96373 0
M  V30 2330 C 238.459 -3.29528 5.15827 0
M  V30 2331 N 237.596 -4.47175 5.41275 0
M  V30 2332 H 242.436 -0.779008 2.87638 0
M  V30 2333 H 239.973 -0.373166 1.42288 0
M  V30 2334 H 241.931 -3.24584 2.62109 0
M  V30 2335 H 240.561 -2.82614 1.55978 0
M  V30 2336 H 239.613 -1.41976 3.52912 0
M  V30 2337 H 240.925 -2.0634 4.5412 0
M  V30 2338 H 240.079 -4.39209 4.18545 0
M  V30 2339 H 238.818 -3.78512 3.07538 0
M  V30 2340 H 237.823 -2.42349 4.93505 0
M  V30 2341 H 239.048 -3.06031 6.06236 0
M  V30 2342 H 236.994 -4.72175 4.55397 0
M  V30 2343 H 236.911 -4.28419 6.22891 0
M  V30 2344 H 238.179 -5.3389 5.67963 0
M  V30 2345 N 242.408 -1.52605 -0.393616 0
M  V30 2346 C 243.655 -1.67424 -1.1391 0
M  V30 2347 C 243.983 -0.411859 -1.90089 0
M  V30 2348 O 243.238 0.605626 -1.86093 0
M  V30 2349 C 243.537 -2.85721 -2.14705 0
M  V30 2350 C 243.203 -4.23342 -1.55218 0
M  V30 2351 C 241.865 -4.60771 -1.3872 0
M  V30 2352 C 244.217 -5.09041 -1.11924 0
M  V30 2353 C 241.545 -5.81563 -0.774689 0
M  V30 2354 C 243.897 -6.30452 -0.520853 0
M  V30 2355 C 242.561 -6.66617 -0.343134 0
M  V30 2356 H 241.831 -0.612648 -0.416826 0
M  V30 2357 H 244.478 -1.8674 -0.424315 0
M  V30 2358 H 242.783 -2.60803 -2.92385 0
M  V30 2359 H 244.48 -2.94382 -2.72288 0
M  V30 2360 H 241.07 -3.93855 -1.69045 0
M  V30 2361 H 245.254 -4.80695 -1.23473 0
M  V30 2362 H 240.51 -6.08196 -0.625154 0
M  V30 2363 H 244.684 -6.96175 -0.177065 0
M  V30 2364 H 242.311 -7.60083 0.133571 0
M  V30 2365 N 243.887 0.651787 -1.4349 0
M  V30 2366 C 244.837 1.75783 -1.45205 0
M  V30 2367 C 245.821 1.57679 -0.320328 0
M  V30 2368 O 247.013 1.67767 -0.564211 0
M  V30 2369 C 244.142 3.14377 -1.3792 0
M  V30 2370 C 243.228 3.38023 -2.56127 0
M  V30 2371 N 243.619 3.32135 -3.81471 0
M  V30 2372 C 241.917 3.68747 -2.50882 0
M  V30 2373 C 242.618 3.55902 -4.60118 0
M  V30 2374 N 241.594 3.77783 -3.90872 0
M  V30 2375 H 245.396 1.69657 -2.39987 0
M  V30 2376 H 242.91 0.853508 -1.38163 0
M  V30 2377 H 244.907 3.93666 -1.37231 0
M  V30 2378 H 243.567 3.21683 -0.441596 0
M  V30 2379 H 244.578 3.11515 -4.13738 0
M  V30 2380 H 241.255 3.8316 -1.65816 0
M  V30 2381 H 242.645 3.57116 -5.69138 0
M  V30 2382 N 245.365 1.30045 0.890287 0
M  V30 2383 C 246.776 1.16738 1.45702 0
M  V30 2384 C 247.127 -0.233939 1.948 0
M  V30 2385 O 246.252 -1.13021 1.84541 0
M  V30 2386 C 246.847 2.11313 2.64825 0
M  V30 2387 C 245.406 2.02001 3.17604 0
M  V30 2388 C 244.553 2.01699 1.90296 0
M  V30 2389 H 247.504 1.42392 0.700726 0
M  V30 2390 H 247.525 1.69086 3.40867 0
M  V30 2391 H 247.037 3.13294 2.2906 0
M  V30 2392 H 245.138 1.03142 3.5804 0
M  V30 2393 H 245.251 2.90128 3.81264 0
M  V30 2394 H 243.615 1.46427 2.08402 0
M  V30 2395 H 244.398 3.05402 1.56795 0
M  V30 2396 N 246.843 -1.10192 1.12674 0
M  V30 2397 C 247.773 -2.18652 0.819362 0
M  V30 2398 C 248.754 -1.68698 -0.217915 0
M  V30 2399 O 249.939 -1.94041 -0.0785581 0
M  V30 2400 C 247.069 -3.46202 0.27594 0
M  V30 2401 C 246.023 -4.09444 1.24656 0
M  V30 2402 C 245.349 -5.31725 0.563258 0
M  V30 2403 C 246.649 -4.52863 2.60217 0
M  V30 2404 H 248.343 -2.44622 1.72628 0
M  V30 2405 H 245.889 -1.17571 0.831451 0
M  V30 2406 H 247.842 -4.21372 0.0486149 0
M  V30 2407 H 246.566 -3.1973 -0.666331 0
M  V30 2408 H 245.225 -3.36284 1.45974 0
M  V30 2409 H 244.873 -5.0153 -0.384235 0
M  V30 2410 H 244.573 -5.74991 1.21075 0
M  V30 2411 H 246.097 -6.09624 0.34503 0
M  V30 2412 H 247.511 -5.19294 2.42913 0
M  V30 2413 H 245.908 -5.06986 3.21068 0
M  V30 2414 H 246.978 -3.65656 3.18471 0
M  V30 2415 N 248.321 -0.919034 -1.28029 0
M  V30 2416 C 249.271 -0.382574 -2.24767 0
M  V30 2417 C 250.255 0.508286 -1.52661 0
M  V30 2418 O 251.447 0.347145 -1.73562 0
M  V30 2419 C 248.576 0.371432 -3.41285 0
M  V30 2420 C 247.662 -0.535449 -4.20706 0
M  V30 2421 N 248.053 -1.65141 -4.78082 0
M  V30 2422 C 246.351 -0.336824 -4.44726 0
M  V30 2423 C 247.052 -2.21475 -5.37888 0
M  V30 2424 N 246.028 -1.50537 -5.22341 0
M  V30 2425 H 249.83 -1.23477 -2.66703 0
M  V30 2426 H 247.344 -0.772299 -1.42861 0
M  V30 2427 H 249.341 0.772638 -4.09678 0
M  V30 2428 H 248.001 1.22066 -3.00882 0
M  V30 2429 H 249.012 -2.03392 -4.7629 0
M  V30 2430 H 245.689 0.47246 -4.14818 0
M  V30 2431 H 247.079 -3.15379 -5.93284 0
M  V30 2432 N 249.799 1.42003 -0.683588 0
M  V30 2433 C 251.024 2.06265 -0.216647 0
M  V30 2434 C 251.449 1.51059 1.12083 0
M  V30 2435 O 250.807 0.632638 1.69904 0
M  V30 2436 C 250.855 3.60191 -0.171759 0
M  V30 2437 O 249.959 4.03396 0.857069 0
M  V30 2438 H 249.3 0.65502 -0.108834 0
M  V30 2439 H 251.83 1.81982 -0.935077 0
M  V30 2440 H 251.84 4.08 0.0014303 0
M  V30 2441 H 250.515 3.99743 -1.14796 0
M  V30 2442 H 249.092 3.67117 0.654208 0
M  V30 2443 N 251.277 0.427512 1.51691 0
M  V30 2444 C 252.224 -0.388867 2.275 0
M  V30 2445 C 253.194 -1.02532 1.30677 0
M  V30 2446 O 254.379 -1.0461 1.59566 0
M  V30 2447 C 251.519 -1.48954 3.11298 0
M  V30 2448 C 250.632 -0.872194 4.23104 0
M  V30 2449 C 249.767 -1.94709 4.94228 0
M  V30 2450 C 248.806 -1.30766 5.97969 0
M  V30 2451 N 247.943 -2.32349 6.62539 0
M  V30 2452 H 252.783 0.263997 2.96828 0
M  V30 2453 H 250.32 0.142033 1.46413 0
M  V30 2454 H 252.278 -2.13887 3.58201 0
M  V30 2455 H 250.908 -2.11217 2.44105 0
M  V30 2456 H 249.96 -0.111419 3.80237 0
M  V30 2457 H 251.272 -0.365264 4.97461 0
M  V30 2458 H 250.426 -2.67327 5.44629 0
M  V30 2459 H 249.165 -2.48773 4.1948 0
M  V30 2460 H 248.17 -0.566902 5.4687 0
M  V30 2461 H 249.395 -0.774483 6.74669 0
M  V30 2462 H 247.341 -2.85511 5.90609 0
M  V30 2463 H 247.258 -1.8652 7.3263 0
M  V30 2464 H 248.526 -3.04481 7.17574 0
M  V30 2465 N 252.755 -1.56801 0.158532 0
M  V30 2466 C 254.004 -1.95665 -0.489702 0
M  V30 2467 C 254.317 -1.04654 -1.65248 0
M  V30 2468 O 255.523 -1.33146 -2.3661 0
M  V30 2469 C 253.979 -3.47874 -0.922582 0
M  V30 2470 C 253.587 -4.47489 0.213893 0
M  V30 2471 C 255.331 -3.95583 -1.53996 0
M  V30 2472 C 253.238 -5.90921 -0.237903 0
M  V30 2473 H 252.168 -0.730516 -0.186716 0
M  V30 2474 H 254.819 -1.81861 0.244722 0
M  V30 2475 H 253.201 -3.57051 -1.71261 0
M  V30 2476 H 254.375 -4.50017 0.991036 0
M  V30 2477 H 252.69 -4.09764 0.740407 0
M  V30 2478 H 255.287 -5.0019 -1.8898 0
M  V30 2479 H 255.63 -3.37789 -2.43319 0
M  V30 2480 H 256.163 -3.8937 -0.814611 0
M  V30 2481 H 252.902 -6.52559 0.620236 0
M  V30 2482 H 252.422 -5.91729 -0.980676 0
M  V30 2483 H 254.101 -6.43352 -0.686067 0
M  V30 2484 N 254.233 0.115231 -1.57178 0
M  V30 2485 C 255.482 0.820945 -1.84237 0
M  V30 2486 C 255.795 1.80866 -0.744761 0
M  V30 2487 O 257.001 2.56083 -0.901871 0
M  V30 2488 C 255.457 1.51072 -3.26658 0
M  V30 2489 C 255.065 0.563795 -4.44438 0
M  V30 2490 C 256.809 2.20134 -3.62962 0
M  V30 2491 C 254.716 1.25701 -5.77887 0
M  V30 2492 H 253.646 0.310328 -0.687177 0
M  V30 2493 H 256.297 0.0737134 -1.83352 0
M  V30 2494 H 254.679 2.30471 -3.22024 0
M  V30 2495 H 255.853 -0.197247 -4.60378 0
M  V30 2496 H 254.168 -0.0200638 -4.16395 0
M  V30 2497 H 256.765 2.72696 -4.59936 0
M  V30 2498 H 257.108 2.98107 -2.90582 0
M  V30 2499 H 257.641 1.47619 -3.69396 0
M  V30 2500 H 254.38 0.518493 -6.53446 0
M  V30 2501 H 253.9 1.98997 -5.65827 0
M  V30 2502 H 255.579 1.78915 -6.2177 0
M  V30 2503 N 255.711 1.52812 0.385517 0
M  V30 2504 C 256.96 1.67249 1.12741 0
M  V30 2505 C 257.273 0.4205 1.91027 0
M  V30 2506 O 258.479 0.445064 2.67827 0
M  V30 2507 C 256.935 2.95583 2.05326 0
M  V30 2508 C 256.543 4.27974 1.32447 0
M  V30 2509 C 258.287 3.19386 2.7963 0
M  V30 2510 C 256.194 5.47412 2.23818 0
M  V30 2511 H 255.124 0.6231 0.424573 0
M  V30 2512 H 257.775 1.79309 0.389924 0
M  V30 2513 H 256.157 2.77277 2.82725 0
M  V30 2514 H 257.331 4.56844 0.602495 0
M  V30 2515 H 255.646 4.10459 0.700885 0
M  V30 2516 H 258.243 4.05801 3.48181 0
M  V30 2517 H 258.586 2.34604 3.43899 0
M  V30 2518 H 259.119 3.38274 2.09322 0
M  V30 2519 H 255.858 6.34612 1.64157 0
M  V30 2520 H 255.378 5.22849 2.93921 0
M  V30 2521 H 257.057 5.81423 2.83824 0
M  V30 2522 N 257.189 -0.644168 1.43834 0
M  V30 2523 C 258.438 -1.39985 1.45214 0
M  V30 2524 C 258.751 -1.95421 0.0835494 0
M  V30 2525 O 259.957 -2.71488 -0.0251748 0
M  V30 2526 C 258.413 -2.53384 2.55587 0
M  V30 2527 C 258.021 -2.04517 3.98594 0
M  V30 2528 C 259.765 -3.30685 2.66172 0
M  V30 2529 C 257.672 -3.1518 5.00416 0
M  V30 2530 H 256.602 -0.526005 0.540218 0
M  V30 2531 H 259.253 -0.694367 1.69855 0
M  V30 2532 H 257.635 -3.26446 2.24163 0
M  V30 2533 H 258.809 -1.38405 4.39523 0
M  V30 2534 H 257.124 -1.40068 3.92135 0
M  V30 2535 H 259.721 -4.13158 3.39418 0
M  V30 2536 H 260.064 -3.79312 1.71546 0
M  V30 2537 H 260.597 -2.64708 2.96942 0
M  V30 2538 H 257.336 -2.71511 5.96625 0
M  V30 2539 H 256.856 -3.79974 4.64091 0
M  V30 2540 H 258.535 -3.80166 5.23529 0
M  V30 2541 N 258.668 -1.30515 -0.883378 0
M  V30 2542 C 259.615 -1.17032 -1.98927 0
M  V30 2543 C 260.585 -0.0594241 -1.65994 0
M  V30 2544 O 261.77 -0.229895 -1.8941 0
M  V30 2545 C 258.91 -0.869777 -3.33959 0
M  V30 2546 C 258.023 -2.06271 -3.79574 0
M  V30 2547 C 257.158 -1.70011 -5.03259 0
M  V30 2548 C 256.197 -2.8579 -5.41286 0
M  V30 2549 N 255.334 -2.49816 -6.56153 0
M  V30 2550 H 260.174 -2.1164 -2.09792 0
M  V30 2551 H 257.711 -1.05296 -1.02719 0
M  V30 2552 H 259.669 -0.676138 -4.11685 0
M  V30 2553 H 258.299 0.0394332 -3.22776 0
M  V30 2554 H 257.351 -2.36755 -2.97744 0
M  V30 2555 H 258.663 -2.92971 -4.03694 0
M  V30 2556 H 257.817 -1.47032 -5.88614 0
M  V30 2557 H 256.556 -0.804829 -4.81013 0
M  V30 2558 H 255.561 -3.09434 -4.54456 0
M  V30 2559 H 256.786 -3.76008 -5.65504 0
M  V30 2560 H 254.732 -1.62795 -6.35479 0
M  V30 2561 H 254.649 -3.30048 -6.8015 0
M  V30 2562 H 255.917 -2.30197 -7.44735 0
M  V30 2563 N 260.146 1.09593 -1.13257 0
M  V30 2564 C 261.093 2.1618 -0.808381 0
M  V30 2565 C 262.063 1.64517 0.228754 0
M  V30 2566 O 263.248 1.9053 0.101381 0
M  V30 2567 C 260.388 3.43973 -0.278675 0
M  V30 2568 C 259.501 4.09545 -1.37466 0
M  V30 2569 C 258.636 5.25088 -0.803479 0
M  V30 2570 C 257.675 5.82579 -1.87799 0
M  V30 2571 N 256.812 6.89486 -1.32488 0
M  V30 2572 H 261.652 2.43254 -1.72138 0
M  V30 2573 H 259.189 1.19392 -0.859294 0
M  V30 2574 H 261.147 4.17174 0.0465583 0
M  V30 2575 H 259.777 3.17223 0.597459 0
M  V30 2576 H 258.829 3.34226 -1.81652 0
M  V30 2577 H 260.141 4.48307 -2.18684 0
M  V30 2578 H 259.295 6.05178 -0.429427 0
M  V30 2579 H 258.034 4.87684 0.0397956 0
M  V30 2580 H 257.039 5.01152 -2.26113 0
M  V30 2581 H 258.264 6.22045 -2.72463 0
M  V30 2582 H 256.21 6.54064 -0.503575 0
M  V30 2583 H 256.127 7.27007 -2.07355 0
M  V30 2584 H 257.395 7.73336 -0.978336 0
M  V30 2585 N 261.624 0.925811 1.2754 0
M  V30 2586 C 262.872 0.564138 1.94067 0
M  V30 2587 C 263.193 -0.897188 1.73134 0
M  V30 2588 O 262.463 -1.63573 1.07799 0
M  V30 2589 H 261.043 0.205645 0.718136 0
M  V30 2590 H 263.705 1.1778 1.55287 0
M  V30 2591 H 262.801 0.76881 3.02483 0
M  V30 2592 N 263.102 -1.41638 0.69111 0
M  V30 2593 C 264.052 -2.28 -0.000107832 0
M  V30 2594 C 265.036 -1.41964 -0.757304 0
M  V30 2595 O 266.228 -1.65274 -0.633532 0
M  V30 2596 C 263.357 -3.30209 -0.938983 0
M  V30 2597 C 262.443 -4.23725 -0.17827 0
M  V30 2598 N 262.834 -4.99017 0.825563 0
M  V30 2599 C 261.132 -4.44071 -0.414392 0
M  V30 2600 C 261.833 -5.67431 1.28052 0
M  V30 2601 N 260.809 -5.40197 0.607304 0
M  V30 2602 H 264.611 -2.83644 0.769617 0
M  V30 2603 H 262.125 -1.53797 0.521562 0
M  V30 2604 H 264.122 -3.90898 -1.44929 0
M  V30 2605 H 262.782 -2.76126 -1.70836 0
M  V30 2606 H 263.793 -5.03671 1.20566 0
M  V30 2607 H 260.47 -4.01004 -1.162 0
M  V30 2608 H 261.86 -6.37801 2.11327 0
M  V30 2609 N 264.58 -0.43555 -1.51462 0
M  V30 2610 C 265.543 0.365137 -2.26273 0
M  V30 2611 C 266.543 0.951227 -1.29647 0
M  V30 2612 O 267.733 0.825958 -1.53374 0
M  V30 2613 C 264.865 1.51645 -3.05314 0
M  V30 2614 H 266.058 -0.290474 -2.9849 0
M  V30 2615 H 263.611 -0.188676 -1.55157 0
M  V30 2616 H 264.346 2.20816 -2.3751 0
M  V30 2617 H 264.131 1.10238 -3.76284 0
M  V30 2618 H 265.621 2.08218 -3.61987 0
M  V30 2619 N 266.058 1.56714 -0.166846 0
M  V30 2620 C 267.005 2.17746 0.765193 0
M  V30 2621 C 267.975 1.11614 1.23011 0
M  V30 2622 O 269.16 1.39745 1.29908 0
M  V30 2623 C 266.3 2.81882 1.9909 0
M  V30 2624 C 265.413 4.02462 1.56997 0
M  V30 2625 C 264.548 4.54537 2.749 0
M  V30 2626 C 263.587 5.67538 2.29275 0
M  V30 2627 N 262.724 6.14142 3.40255 0
M  V30 2628 H 267.564 2.97048 0.237952 0
M  V30 2629 H 265.101 1.4672 0.105725 0
M  V30 2630 H 267.059 3.17221 2.70974 0
M  V30 2631 H 265.689 2.05191 2.49192 0
M  V30 2632 H 264.741 3.72973 0.748037 0
M  V30 2633 H 266.053 4.84273 1.19503 0
M  V30 2634 H 265.207 4.92035 3.54946 0
M  V30 2635 H 263.946 3.71774 3.1565 0
M  V30 2636 H 262.951 5.29597 1.47674 0
M  V30 2637 H 264.176 6.52099 1.89588 0
M  V30 2638 H 262.122 5.3431 3.8059 0
M  V30 2639 H 262.039 6.9093 3.06841 0
M  V30 2640 H 263.307 6.56289 4.206 0
M  V30 2641 N 267.536 -0.106894 1.57237 0
M  V30 2642 C 268.813 -0.843526 1.76477 0
M  V30 2643 C 269.193 -1.97499 0.745464 0
M  V30 2644 O 268.541 -2.27357 -0.228306 0
M  V30 2645 C 268.751 -1.34903 3.21873 0
M  V30 2646 C 270.099 -1.79654 3.8472 0
M  V30 2647 O 271.123 -1.44554 3.2555 0
M  V30 2648 O 269.982 -2.44515 4.88748 0
M  V30 2649 H 267.076 -0.401468 0.723016 0
M  V30 2650 H 269.622 -0.0896927 1.69463 0
M  V30 2651 H 268.394 -0.53781 3.87586 0
M  V30 2652 H 268.017 -2.16522 3.33473 0
M  V30 2653 N 269.014 -1.53014 -0.377408 0
M  V30 2654 C 270.239 -1.72818 -1.14668 0
M  V30 2655 C 270.664 -0.450725 -1.8262 0
M  V30 2656 O 270.022 0.59439 -1.7128 0
M  V30 2657 C 270.07 -2.88627 -2.16164 0
M  V30 2658 O 269.174 -2.56409 -3.22998 0
M  V30 2659 H 268.515 -0.574301 -0.333278 0
M  V30 2660 H 271.045 -1.99853 -0.438152 0
M  V30 2661 H 271.055 -3.14455 -2.59966 0
M  V30 2662 H 269.73 -3.81294 -1.66095 0
M  V30 2663 H 268.307 -2.4136 -2.84253 0
M  V30 2664 N 270.492 0.636531 -1.44174 0
M  V30 2665 C 271.424 1.7618 -1.46606 0
M  V30 2666 C 272.437 1.58768 -0.360091 0
M  V30 2667 O 273.626 1.67181 -0.625518 0
M  V30 2668 C 270.726 3.13833 -1.27915 0
M  V30 2669 C 269.899 3.57753 -2.51658 0
M  V30 2670 C 268.958 4.74265 -2.27945 0
M  V30 2671 O 267.984 4.82852 -3.01401 0
M  V30 2672 N 269.186 5.65604 -1.30662 0
M  V30 2673 H 271.951 1.74567 -2.43612 0
M  V30 2674 H 269.512 0.820924 -1.39544 0
M  V30 2675 H 271.504 3.8949 -1.09907 0
M  V30 2676 H 270.074 3.10121 -0.39293 0
M  V30 2677 H 269.294 2.72362 -2.84978 0
M  V30 2678 H 270.582 3.83847 -3.33974 0
M  V30 2679 H 269.98 5.61354 -0.699844 0
M  V30 2680 H 268.537 6.40913 -1.18634 0
M  V30 2681 N 271.97 1.30982 0.876444 0
M  V30 2682 C 273.386 1.09498 1.16113 0
M  V30 2683 C 273.586 -0.13875 2.01022 0
M  V30 2684 O 272.642 -0.829935 2.38471 0
M  V30 2685 C 273.955 2.36308 1.85954 0
M  V30 2686 C 275.503 2.41856 1.98683 0
M  V30 2687 C 275.978 3.6853 2.71937 0
M  V30 2688 N 277.469 3.69387 2.79477 0
M  V30 2689 C 278.204 4.64096 3.36753 0
M  V30 2690 N 277.7 5.69155 3.95012 0
M  V30 2691 N 279.493 4.51626 3.3465 0
M  V30 2692 H 271.644 2.10118 0.310494 0
M  V30 2693 H 273.907 0.926634 0.200131 0
M  V30 2694 H 273.613 3.26388 1.31011 0
M  V30 2695 H 273.487 2.4561 2.86278 0
M  V30 2696 H 275.874 1.52249 2.52793 0
M  V30 2697 H 275.955 2.36523 0.9742 0
M  V30 2698 H 275.599 4.58499 2.18496 0
M  V30 2699 H 275.529 3.71127 3.73593 0
M  V30 2700 H 278.02 2.93438 2.38123 0
M  V30 2701 H 278.333 6.3751 4.36808 0
M  V30 2702 H 276.678 5.72937 3.93406 0
M  V30 2703 H 279.869 3.68728 2.8837 0
M  V30 2704 H 280.042 5.25614 3.7899 0
M  V30 2705 N 273.449 -1.08991 1.13837 0
M  V30 2706 C 274.679 -1.84743 0.924859 0
M  V30 2707 C 275.087 -1.81629 -0.529874 0
M  V30 2708 O 274.43 -1.21397 -1.37872 0
M  V30 2709 C 274.492 -3.33568 1.34061 0
M  V30 2710 C 274.156 -3.60425 2.80968 0
M  V30 2711 C 275.153 -3.55771 3.79108 0
M  V30 2712 C 272.838 -3.88627 3.18236 0
M  V30 2713 C 274.832 -3.78939 5.12527 0
M  V30 2714 C 272.519 -4.11449 4.51833 0
M  V30 2715 C 273.517 -4.06598 5.48787 0
M  V30 2716 O 273.205 -4.28826 6.79973 0
M  V30 2717 H 272.937 -0.590258 0.329502 0
M  V30 2718 H 275.491 -1.38598 1.51591 0
M  V30 2719 H 273.721 -3.80442 0.692853 0
M  V30 2720 H 275.41 -3.90743 1.09886 0
M  V30 2721 H 276.176 -3.34005 3.51661 0
M  V30 2722 H 272.055 -3.91526 2.43369 0
M  V30 2723 H 275.599 -3.75068 5.88192 0
M  V30 2724 H 271.496 -4.32698 4.79002 0
M  V30 2725 H 272.264 -4.46264 6.86142 0
M  V30 2726 N 274.927 -0.932562 -1.27047 0
M  V30 2727 C 275.874 -0.434072 -2.26681 0
M  V30 2728 C 276.844 0.501639 -1.58344 0
M  V30 2729 O 278.029 0.419734 -1.86126 0
M  V30 2730 C 275.169 0.30261 -3.43771 0
M  V30 2731 C 274.282 -0.667774 -4.26808 0
M  V30 2732 C 273.417 0.0892393 -5.31125 0
M  V30 2733 C 272.456 -0.873532 -6.05835 0
M  V30 2734 N 271.593 -0.148832 -7.01942 0
M  V30 2735 H 276.433 -1.28868 -2.68695 0
M  V30 2736 H 273.97 -0.646713 -1.32121 0
M  V30 2737 H 275.928 0.746092 -4.10474 0
M  V30 2738 H 274.558 1.12142 -3.02695 0
M  V30 2739 H 273.61 -1.22978 -3.59973 0
M  V30 2740 H 274.922 -1.40337 -4.78651 0
M  V30 2741 H 274.076 0.592409 -6.03801 0
M  V30 2742 H 272.815 0.85777 -4.80097 0
M  V30 2743 H 271.82 -1.38791 -5.31994 0
M  V30 2744 H 273.045 -1.64193 -6.58952 0
M  V30 2745 H 270.991 0.601365 -6.53238 0
M  V30 2746 H 270.908 -0.82391 -7.51497 0
M  V30 2747 H 272.176 0.333527 -7.78786 0
M  V30 2748 N 276.405 1.4127 -0.698611 0
M  V30 2749 C 277.651 2.01478 -0.231207 0
M  V30 2750 C 277.984 1.55215 1.16713 0
M  V30 2751 O 277.259 0.764672 1.78838 0
M  V30 2752 C 277.542 3.58912 -0.292281 0
M  V30 2753 C 277.395 4.15293 -1.72778 0
M  V30 2754 C 278.714 4.38736 0.346194 0
M  V30 2755 H 275.833 0.732025 -0.0854878 0
M  V30 2756 H 278.475 1.67977 -0.887906 0
M  V30 2757 H 276.625 3.87582 0.26686 0
M  V30 2758 H 278.297 3.97486 -2.341 0
M  V30 2759 H 276.54 3.7022 -2.26096 0
M  V30 2760 H 277.211 5.24452 -1.72202 0
M  V30 2761 H 279.687 4.15897 -0.130035 0
M  V30 2762 H 278.563 5.48221 0.272932 0
M  V30 2763 H 278.824 4.18425 1.42734 0
M  V30 2764 N 277.883 0.443576 1.51229 0
M  V30 2765 C 279.16 -0.181038 1.9476 0
M  V30 2766 C 279.54 -1.59523 1.38259 0
M  V30 2767 O 278.888 -2.2122 0.572198 0
M  V30 2768 C 279.098 -0.152422 3.48667 0
M  V30 2769 C 280.446 -0.354923 4.23114 0
M  V30 2770 O 281.47 -0.230257 3.55455 0
M  V30 2771 O 280.329 -0.603674 5.43156 0
M  V30 2772 H 277.423 -0.1266 0.817252 0
M  V30 2773 H 279.969 0.502004 1.62105 0
M  V30 2774 H 278.741 0.836022 3.82265 0
M  V30 2775 H 278.364 -0.878107 3.87782 0
M  V30 2776 N 279.361 -1.56624 0.175154 0
M  V30 2777 C 280.591 -2.01082 -0.474283 0
M  V30 2778 C 280.999 -1.05447 -1.57091 0
M  V30 2779 O 280.342 -0.0480595 -1.83637 0
M  V30 2780 C 280.404 -3.41963 -1.10911 0
M  V30 2781 C 280.068 -4.56742 -0.153666 0
M  V30 2782 C 281.065 -5.16076 0.629448 0
M  V30 2783 C 278.75 -5.02277 -0.0483776 0
M  V30 2784 C 280.744 -6.19377 1.50501 0
M  V30 2785 C 278.431 -6.05427 0.830768 0
M  V30 2786 C 279.429 -6.63849 1.60605 0
M  V30 2787 O 279.117 -7.64998 2.47049 0
M  V30 2788 H 278.849 -0.664261 -0.125432 0
M  V30 2789 H 281.403 -2.03549 0.275163 0
M  V30 2790 H 279.633 -3.36422 -1.90676 0
M  V30 2791 H 281.322 -3.70352 -1.66114 0
M  V30 2792 H 282.088 -4.81776 0.558297 0
M  V30 2793 H 277.967 -4.56513 -0.641611 0
M  V30 2794 H 281.511 -6.64906 2.1106 0
M  V30 2795 H 277.408 -6.39151 0.903107 0
M  V30 2796 H 278.176 -7.82336 2.40607 0
M  V30 2797 N 280.839 0.0985539 -1.57292 0
M  V30 2798 C 281.749 1.13824 -2.05137 0
M  V30 2799 C 282.765 1.44076 -0.975604 0
M  V30 2800 O 283.941 1.54786 -1.28853 0
M  V30 2801 C 281.006 2.43969 -2.46333 0
M  V30 2802 C 280.067 2.2093 -3.68087 0
M  V30 2803 C 279.3 3.44869 -4.0731 0
M  V30 2804 O 279.523 4.52972 -3.46659 0
M  V30 2805 O 278.457 3.34661 -5.00285 0
M  V30 2806 H 282.283 0.761881 -2.93988 0
M  V30 2807 H 279.868 0.310818 -1.46131 0
M  V30 2808 H 281.75 3.20609 -2.73473 0
M  V30 2809 H 280.425 2.81038 -1.60621 0
M  V30 2810 H 279.332 1.42081 -3.46069 0
M  V30 2811 H 280.665 1.88755 -4.54568 0
M  V30 2812 N 282.317 1.53212 0.369288 0
M  V30 2813 C 283.542 1.73423 1.1375 0
M  V30 2814 C 283.967 0.460404 1.82378 0
M  V30 2815 O 283.325 -0.585298 1.71592 0
M  V30 2816 C 283.373 2.89769 2.1463 0
M  V30 2817 O 282.477 2.58119 3.21634 0
M  V30 2818 H 281.818 0.576061 0.330227 0
M  V30 2819 H 284.348 2.00083 0.427547 0
M  V30 2820 H 284.358 3.15829 2.58294 0
M  V30 2821 H 283.033 3.8217 1.64071 0
M  V30 2822 H 281.61 2.42864 2.82969 0
M  V30 2823 N 283.795 -0.628877 1.44509 0
M  V30 2824 C 284.727 -1.754 1.47538 0
M  V30 2825 C 285.74 -1.58575 0.368506 0
M  V30 2826 O 286.929 -1.66847 0.634376 0
M  V30 2827 C 284.029 -3.1315 1.29577 0
M  V30 2828 C 283.202 -3.56413 2.53551 0
M  V30 2829 C 282.261 -4.7305 2.30457 0
M  V30 2830 O 281.287 -4.81247 3.03957 0
M  V30 2831 N 282.489 -5.64903 1.3366 0
M  V30 2832 H 285.254 -1.73272 2.44534 0
M  V30 2833 H 282.815 -0.813512 1.39977 0
M  V30 2834 H 284.807 -3.88902 1.11971 0
M  V30 2835 H 283.377 -3.09908 0.409371 0
M  V30 2836 H 282.597 -2.70847 2.86419 0
M  V30 2837 H 283.885 -3.82071 3.36005 0
M  V30 2838 H 283.283 -5.60975 0.729604 0
M  V30 2839 H 281.84 -6.40275 1.22032 0
M  V30 2840 N 285.273 -1.31445 -0.869486 0
M  V30 2841 C 286.498 -1.24256 -1.66058 0
M  V30 2842 C 286.923 0.188928 -1.87149 0
M  V30 2843 O 286.281 1.13522 -1.4136 0
M  V30 2844 C 286.329 -1.9924 -3.00559 0
M  V30 2845 O 285.433 -1.33007 -3.90362 0
M  V30 2846 H 284.774 -0.428973 -0.506831 0
M  V30 2847 H 287.304 -1.73521 -1.08404 0
M  V30 2848 H 287.314 -2.08854 -3.50491 0
M  V30 2849 H 285.989 -3.03342 -2.84528 0
M  V30 2850 H 284.566 -1.31848 -3.48813 0
M  V30 2851 N 286.751 1.08385 -1.14413 0
M  V30 2852 C 287.979 1.84517 -0.936001 0
M  V30 2853 C 288.394 1.81626 0.515503 0
M  V30 2854 O 287.751 1.22008 1.35721 0
M  V30 2855 C 287.802 3.32049 -1.42918 0
M  V30 2856 O 287.523 3.34951 -2.82381 0
M  V30 2857 C 289.024 4.24986 -1.26103 0
M  V30 2858 H 286.244 0.582491 -0.333084 0
M  V30 2859 H 288.788 1.36885 -1.5193 0
M  V30 2860 H 286.943 3.7707 -0.888641 0
M  V30 2861 H 287.357 4.27048 -3.04517 0
M  V30 2862 H 288.831 5.26615 -1.6547 0
M  V30 2863 H 289.308 4.38726 -0.20392 0
M  V30 2864 H 289.914 3.85791 -1.79012 0
M  V30 2865 N 288.23 0.939286 1.26551 0
M  V30 2866 C 289.507 0.5038 1.89001 0
M  V30 2867 C 289.887 -1.01854 1.84903 0
M  V30 2868 O 289.235 -1.87773 1.30206 0
M  V30 2869 C 289.445 1.063 3.32417 0
M  V30 2870 C 290.793 1.13051 4.09273 0
M  V30 2871 O 291.817 1.01345 3.41479 0
M  V30 2872 O 290.676 1.31233 5.30509 0
M  V30 2873 H 287.77 0.163897 0.810597 0
M  V30 2874 H 290.316 1.03173 1.34735 0
M  V30 2875 H 289.088 2.10665 3.29752 0
M  V30 2876 H 288.711 0.517408 3.94219 0
M  V30 2877 N 289.708 -1.40897 0.706093 0
M  V30 2878 C 290.936 -2.05373 0.250887 0
M  V30 2879 C 291.351 -1.53172 -1.10381 0
M  V30 2880 O 290.708 -0.684305 -1.69185 0
M  V30 2881 C 290.759 -3.6088 0.211571 0
M  V30 2882 O 290.48 -4.11153 1.51276 0
M  V30 2883 C 291.981 -4.42517 -0.263346 0
M  V30 2884 H 289.201 -0.66115 0.114552 0
M  V30 2885 H 291.745 -1.80479 0.961635 0
M  V30 2886 H 289.9 -3.84777 -0.450073 0
M  V30 2887 H 290.314 -5.05279 1.40689 0
M  V30 2888 H 291.788 -5.51479 -0.239718 0
M  V30 2889 H 292.265 -4.19396 -1.30397 0
M  V30 2890 H 292.871 -4.23708 0.367677 0
M  V30 2891 N 291.186 -0.45159 -1.50991 0
M  V30 2892 C 292.118 0.388634 -2.25881 0
M  V30 2893 C 293.131 0.974041 -1.30446 0
M  V30 2894 O 294.32 0.865758 -1.56099 0
M  V30 2895 C 291.42 1.5571 -3.01011 0
M  V30 2896 C 290.593 1.08801 -4.23652 0
M  V30 2897 C 289.652 2.12825 -4.8124 0
M  V30 2898 O 288.678 1.71678 -5.42693 0
M  V30 2899 N 289.88 3.45453 -4.66522 0
M  V30 2900 H 292.645 -0.25329 -2.98628 0
M  V30 2901 H 290.206 -0.281268 -1.59438 0
M  V30 2902 H 292.198 2.24952 -3.3642 0
M  V30 2903 H 290.768 2.10409 -2.31186 0
M  V30 2904 H 289.988 0.22215 -3.93574 0
M  V30 2905 H 291.276 0.752213 -5.03209 0
M  V30 2906 H 290.674 3.81605 -4.17605 0
M  V30 2907 H 289.231 4.10549 -5.06254 0
M  V30 2908 N 292.664 1.56529 -0.183458 0
M  V30 2909 C 293.612 2.19873 0.758845 0
M  V30 2910 C 294.606 1.16638 1.22849 0
M  V30 2911 O 295.812 1.3481 1.19274 0
M  V30 2912 H 292.187 0.7045 0.263029 0
M  V30 2913 H 294.158 2.97724 0.200755 0
M  V30 2914 C 292.907 2.86314 1.9728 0
M  V30 2915 H 292.23 3.65487 1.62047 0
M  V30 2916 H 293.67 3.3409 2.61075 0
M  V30 2917 C 292.129 1.86729 2.80418 0
M  V30 2918 O 292.659 1.36031 3.77966 0
M  V30 2919 N 290.865 1.55216 2.45675 0
M  V30 2920 H 290.412 1.96636 1.66409 0
M  V30 2921 H 290.37 0.888388 3.01588 0
M  V30 2922 N 294.142 -0.090211 1.57342 0
M  V30 2923 C 295.389 -0.792807 1.86335 0
M  V30 2924 C 295.717 -1.78494 0.772662 0
M  V30 2925 O 294.972 -1.94305 -0.233258 0
M  V30 2926 C 295.271 -1.55222 3.21933 0
M  V30 2927 C 294.937 -0.701765 4.45406 0
M  V30 2928 C 293.599 -0.467334 4.78925 0
M  V30 2929 C 295.951 -0.11086 5.21082 0
M  V30 2930 C 293.279 0.367785 5.85546 0
M  V30 2931 C 295.631 0.711609 6.28585 0
M  V30 2932 C 294.295 0.956086 6.60617 0
M  V30 2933 H 293.565 -0.290109 0.681849 0
M  V30 2934 H 296.212 -0.0541332 1.91423 0
M  V30 2935 H 294.517 -2.3626 3.12551 0
M  V30 2936 H 296.214 -2.10032 3.41595 0
M  V30 2937 H 292.804 -0.894598 4.1916 0
M  V30 2938 H 296.988 -0.279129 4.95514 0
M  V30 2939 H 292.244 0.566128 6.08773 0
M  V30 2940 H 296.418 1.17632 6.86393 0
M  V30 2941 H 294.045 1.60499 7.43064 0
M  V30 2942 N 295.62 -1.53406 -0.361157 0
M  V30 2943 C 296.845 -1.74024 -1.12829 0
M  V30 2944 C 297.27 -0.470069 -1.82132 0
M  V30 2945 O 296.628 0.57619 -1.719 0
M  V30 2946 C 296.676 -2.90903 -2.13091 0
M  V30 2947 O 295.78 -2.59821 -3.20261 0
M  V30 2948 H 295.121 -0.577804 -0.327168 0
M  V30 2949 H 297.651 -2.00307 -0.41693 0
M  V30 2950 H 297.661 -3.17194 -2.56616 0
M  V30 2951 H 296.336 -3.83034 -1.62042 0
M  V30 2952 H 294.913 -2.44362 -2.81677 0
M  V30 2953 N 297.098 0.621204 -1.44841 0
M  V30 2954 C 298.323 1.41244 -1.51871 0
M  V30 2955 C 298.748 1.87519 -0.147764 0
M  V30 2956 O 298.106 1.59334 0.865 0
M  V30 2957 C 298.154 2.60221 -2.49634 0
M  V30 2958 O 297.258 3.60395 -2.00473 0
M  V30 2959 H 296.599 0.42223 -0.512463 0
M  V30 2960 H 299.129 0.757305 -1.90069 0
M  V30 2961 H 299.139 3.0764 -2.67996 0
M  V30 2962 H 297.814 2.25887 -3.4921 0
M  V30 2963 H 296.391 3.19717 -1.91925 0
M  V30 2964 N 298.576 1.31904 0.862503 0
M  V30 2965 C 299.486 1.22161 2.00285 0
M  V30 2966 C 300.502 0.136785 1.73462 0
M  V30 2967 O 301.678 0.355994 1.98229 0
M  V30 2968 C 298.743 0.937093 3.33796 0
M  V30 2969 C 297.804 2.10957 3.73893 0
M  V30 2970 C 297.037 1.83853 5.01033 0
M  V30 2971 O 297.26 0.777274 5.65079 0
M  V30 2972 O 296.194 2.69741 5.38074 0
M  V30 2973 H 300.02 2.18008 2.11439 0
M  V30 2974 H 297.605 1.11716 0.991957 0
M  V30 2975 H 299.487 0.794583 4.13841 0
M  V30 2976 H 298.162 0.00871894 3.23699 0
M  V30 2977 H 297.069 2.30752 2.94456 0
M  V30 2978 H 298.402 3.02046 3.88625 0
M  V30 2979 N 300.054 -1.07777 1.14986 0
M  V30 2980 C 301.279 -1.84558 0.946213 0
M  V30 2981 C 301.704 -1.81323 -0.500362 0
M  V30 2982 O 301.062 -1.20301 -1.35637 0
M  V30 2983 C 301.11 -3.29736 1.45968 0
M  V30 2984 O 300.214 -4.07149 0.65601 0
M  V30 2985 H 299.555 -0.571641 0.33782 0
M  V30 2986 H 302.085 -1.35991 1.52865 0
M  V30 2987 H 302.095 -3.80574 1.47063 0
M  V30 2988 H 300.77 -3.31406 2.51283 0
M  V30 2989 H 299.347 -3.65994 0.714322 0
M  V30 2990 N 301.532 -0.945985 -1.26051 0
M  V30 2991 C 302.479 -0.45809 -2.26208 0
M  V30 2992 C 303.449 0.484816 -1.58867 0
M  V30 2993 O 304.634 0.399969 -1.86561 0
M  V30 2994 C 301.774 0.266131 -3.44072 0
M  V30 2995 C 300.887 -0.713005 -4.26075 0
M  V30 2996 C 300.022 0.0329013 -5.3119 0
M  V30 2997 C 299.061 -0.93774 -6.04874 0
M  V30 2998 N 298.198 -0.223274 -7.01745 0
M  V30 2999 H 303.038 -1.3171 -2.67313 0
M  V30 3000 H 300.575 -0.66069 -1.31428 0
M  V30 3001 H 302.533 0.702514 -4.11243 0
M  V30 3002 H 301.163 1.08925 -3.03867 0
M  V30 3003 H 300.215 -1.26789 -3.58648 0
M  V30 3004 H 301.527 -1.45406 -4.77136 0
M  V30 3005 H 300.681 0.528335 -6.04395 0
M  V30 3006 H 299.42 0.806801 -4.8098 0
M  V30 3007 H 298.425 -1.44425 -5.30492 0
M  V30 3008 H 299.65 -1.71172 -6.57173 0
M  V30 3009 H 297.596 0.532046 -6.53839 0
M  V30 3010 H 297.513 -0.90357 -7.50581 0
M  V30 3011 H 298.781 0.250907 -7.79096 0
M  V30 3012 N 303.011 1.40521 -0.713556 0
M  V30 3013 C 304.427 1.54839 -0.386907 0
M  V30 3014 C 304.627 1.68532 1.1045 0
M  V30 3015 O 303.683 1.67377 1.89053 0
M  V30 3016 C 304.996 2.77792 -1.15118 0
M  V30 3017 C 306.544 2.91607 -1.13729 0
M  V30 3018 C 307.019 4.1747 -1.88368 0
M  V30 3019 N 308.51 4.24466 -1.85427 0
M  V30 3020 C 309.245 5.20755 -2.40004 0
M  V30 3021 N 308.741 6.22965 -3.03129 0
M  V30 3022 N 310.534 5.1282 -2.30158 0
M  V30 3023 H 302.685 1.29879 -1.68063 0
M  V30 3024 H 304.948 0.627896 -0.710247 0
M  V30 3025 H 304.654 2.73944 -2.20561 0
M  V30 3026 H 304.528 3.6984 -0.741477 0
M  V30 3027 H 306.915 2.94959 -0.0910608 0
M  V30 3028 H 306.996 2.00682 -1.5862 0
M  V30 3029 H 306.64 4.1488 -2.9298 0
M  V30 3030 H 306.57 5.074 -1.40898 0
M  V30 3031 H 309.061 3.51241 -1.3942 0
M  V30 3032 H 309.374 6.92859 -3.42295 0
M  V30 3033 H 307.719 6.23415 -3.07212 0
M  V30 3034 H 310.91 4.31899 -1.80501 0
M  V30 3035 H 311.083 5.87689 -2.72993 0
M  V30 3036 N 304.489 0.459591 1.5075 0
M  V30 3037 C 305.399 -0.34613 2.32033 0
M  V30 3038 C 306.415 -1.00686 1.41909 0
M  V30 3039 O 307.591 -0.997361 1.7497 0
M  V30 3040 C 304.656 -1.42029 3.16273 0
M  V30 3041 C 303.717 -0.777362 4.22203 0
M  V30 3042 C 302.95 -1.80034 5.02418 0
M  V30 3043 O 303.173 -3.02544 4.83553 0
M  V30 3044 O 302.107 -1.37853 5.85901 0
M  V30 3045 H 305.933 0.318054 3.0203 0
M  V30 3046 H 303.518 0.221663 1.47746 0
M  V30 3047 H 305.4 -2.04275 3.68578 0
M  V30 3048 H 304.075 -2.06815 2.49016 0
M  V30 3049 H 302.982 -0.116256 3.73919 0
M  V30 3050 H 304.315 -0.172634 4.91897 0
M  V30 3051 N 305.967 -1.56429 0.191757 0
M  V30 3052 C 307.195 -2.01867 -0.453586 0
M  V30 3053 C 307.61 -1.07191 -1.5542 0
M  V30 3054 O 306.967 -0.0762108 -1.82341 0
M  V30 3055 C 307.018 -3.47017 -1.013 0
M  V30 3056 O 306.739 -4.38078 0.0437005 0
M  V30 3057 C 308.24 -4.07956 -1.73456 0
M  V30 3058 H 305.46 -0.661211 -0.114199 0
M  V30 3059 H 308.004 -2.02295 0.299483 0
M  V30 3060 H 306.159 -3.47298 -1.71647 0
M  V30 3061 H 306.573 -5.23178 -0.372212 0
M  V30 3062 H 308.047 -5.1138 -2.07833 0
M  V30 3063 H 308.524 -3.51222 -2.63704 0
M  V30 3064 H 309.13 -4.11437 -1.07702 0
M  V30 3065 N 307.445 0.0818655 -1.57387 0
M  V30 3066 C 308.355 1.11642 -2.06333 0
M  V30 3067 C 309.371 1.43033 -0.99083 0
M  V30 3068 O 310.547 1.53411 -1.30488 0
M  V30 3069 C 307.612 2.41342 -2.48907 0
M  V30 3070 C 306.673 2.17014 -3.7041 0
M  V30 3071 C 305.906 3.4053 -4.10944 0
M  V30 3072 O 306.129 4.4927 -3.51444 0
M  V30 3073 O 305.063 3.29336 -5.03807 0
M  V30 3074 H 308.889 0.730657 -2.9478 0
M  V30 3075 H 306.474 0.295301 -1.46452 0
M  V30 3076 H 308.356 3.17691 -2.76858 0
M  V30 3077 H 307.031 2.79319 -1.63593 0
M  V30 3078 H 305.938 1.38403 -3.47556 0
M  V30 3079 H 307.271 1.83923 -4.56545 0
M  V30 3080 N 308.923 1.53595 0.353017 0
M  V30 3081 C 310.153 1.74058 1.11299 0
M  V30 3082 C 310.561 0.475205 1.83135 0
M  V30 3083 O 309.904 -0.562344 1.74881 0
M  V30 3084 C 309.966 2.85994 2.17825 0
M  V30 3085 C 309.63 4.25923 1.65647 0
M  V30 3086 C 310.627 5.07829 1.11383 0
M  V30 3087 C 308.312 4.72377 1.7078 0
M  V30 3088 C 310.306 6.34285 0.629439 0
M  V30 3089 C 307.993 5.98808 1.21953 0
M  V30 3090 C 308.991 6.79594 0.681265 0
M  V30 3091 O 308.679 8.03651 0.200248 0
M  V30 3092 H 308.411 0.585327 0.338183 0
M  V30 3093 H 310.965 2.01186 0.413927 0
M  V30 3094 H 309.195 2.54368 2.91262 0
M  V30 3095 H 310.884 2.94515 2.79313 0
M  V30 3096 H 311.65 4.73107 1.06746 0
M  V30 3097 H 307.529 4.0956 2.11617 0
M  V30 3098 H 311.073 6.97288 0.208636 0
M  V30 3099 H 306.97 6.33026 1.26287 0
M  V30 3100 H 307.738 8.1788 0.318416 0
M  V30 3101 N 310.401 -0.613514 1.45168 0
M  V30 3102 C 311.649 -1.36997 1.48581 0
M  V30 3103 C 311.97 -1.94589 0.126545 0
M  V30 3104 O 311.24 -1.76816 -0.843372 0
M  V30 3105 H 309.82 -0.508558 0.547154 0
M  V30 3106 H 312.482 -0.720853 1.81079 0
M  V30 3107 H 311.578 -2.1924 2.22127 0
M  V30 3108 N 311.879 -1.3236 -0.855495 0
M  V30 3109 C 313.29 -1.2056 -1.42556 0
M  V30 3110 C 313.641 0.182209 -1.95352 0
M  V30 3111 O 312.766 1.08088 -1.87472 0
M  V30 3112 C 313.361 -2.1826 -2.59129 0
M  V30 3113 C 311.92 -2.10351 -3.12137 0
M  V30 3114 C 311.067 -2.06674 -1.84882 0
M  V30 3115 H 314.018 -1.442 -0.662727 0
M  V30 3116 H 314.039 -1.78064 -3.36264 0
M  V30 3117 H 313.551 -3.19257 -2.20673 0
M  V30 3118 H 311.652 -1.12599 -3.55179 0
M  V30 3119 H 311.765 -3.00135 -3.73438 0
M  V30 3120 H 310.129 -1.51901 -2.04446 0
M  V30 3121 H 310.912 -3.09451 -1.48643 0
M  V30 3122 N 313.357 1.07166 -1.15556 0
M  V30 3123 C 314.597 1.81391 -0.94216 0
M  V30 3124 C 314.961 1.84788 0.521272 0
M  V30 3125 O 316.162 2.54904 0.85307 0
M  V30 3126 C 314.433 3.22431 -1.54185 0
M  V30 3127 S 315.992 4.13379 -1.47183 0
M  V30 3128 H 312.81 0.624963 -0.339031 0
M  V30 3129 H 315.412 1.28725 -1.4714 0
M  V30 3130 H 314.116 3.17548 -2.59984 0
M  V30 3131 H 313.647 3.80172 -1.01156 0
M  V30 3132 H 315.662 4.94007 -0.466004 0
M  V30 3133 N 314.835 0.952656 1.25548 0
M  V30 3134 C 316.251 0.656769 1.4546 0
M  V30 3135 C 316.451 -0.78633 1.85524 0
M  V30 3136 O 315.507 -1.56183 1.98402 0
M  V30 3137 C 316.82 1.62801 2.52817 0
M  V30 3138 C 318.368 1.63897 2.66659 0
M  V30 3139 C 318.843 2.5978 3.77198 0
M  V30 3140 N 320.334 2.58133 3.84606 0
M  V30 3141 C 321.069 3.29003 4.69621 0
M  V30 3142 N 320.565 4.09339 5.58939 0
M  V30 3143 N 322.358 3.179 4.63569 0
M  V30 3144 H 314.509 1.88526 0.978344 0
M  V30 3145 H 316.772 0.810815 0.491206 0
M  V30 3146 H 316.478 2.65869 2.30232 0
M  V30 3147 H 316.352 1.38898 3.50695 0
M  V30 3148 H 318.739 0.615481 2.8861 0
M  V30 3149 H 318.82 1.91858 1.69187 0
M  V30 3150 H 318.464 3.62254 3.55997 0
M  V30 3151 H 318.394 2.29105 4.7415 0
M  V30 3152 H 320.885 1.99809 3.20757 0
M  V30 3153 H 321.198 4.6034 6.20731 0
M  V30 3154 H 319.543 4.13438 5.58654 0
M  V30 3155 H 322.734 2.54612 3.92798 0
M  V30 3156 H 322.907 3.73398 5.29602 0
M  V30 3157 N 316.313 -1.40141 0.720998 0
M  V30 3158 C 317.729 -1.54632 0.395113 0
M  V30 3159 C 317.929 -1.69115 -1.09555 0
M  V30 3160 O 316.985 -1.68377 -1.88163 0
M  V30 3161 C 318.298 -2.77177 1.1659 0
M  V30 3162 C 319.846 -2.91 1.15274 0
M  V30 3163 C 320.321 -4.16465 1.90579 0
M  V30 3164 N 321.812 -4.23476 1.87675 0
M  V30 3165 C 322.547 -5.19475 2.42762 0
M  V30 3166 N 322.043 -6.21348 3.06428 0
M  V30 3167 N 323.836 -5.11592 2.32874 0
M  V30 3168 H 315.987 -1.28986 1.68749 0
M  V30 3169 H 318.25 -0.62412 0.713567 0
M  V30 3170 H 317.956 -2.72771 2.22011 0
M  V30 3171 H 317.83 -3.69442 0.76108 0
M  V30 3172 H 320.217 -2.94907 0.106702 0
M  V30 3173 H 320.298 -1.99838 1.59682 0
M  V30 3174 H 319.942 -4.1332 2.95176 0
M  V30 3175 H 319.872 -5.06646 1.43587 0
M  V30 3176 H 322.363 -3.50497 1.41281 0
M  V30 3177 H 322.676 -6.91034 3.45965 0
M  V30 3178 H 321.021 -6.21777 3.10514 0
M  V30 3179 H 324.212 -4.30936 1.82789 0
M  V30 3180 H 324.385 -5.86233 2.76106 0
M  V30 3181 N 317.792 -0.46758 -1.50504 0
M  V30 3182 C 318.702 0.33382 -2.32213 0
M  V30 3183 C 319.718 0.999323 -1.42441 0
M  V30 3184 O 320.894 0.988068 -1.75497 0
M  V30 3185 C 317.959 1.4035 -3.17022 0
M  V30 3186 C 317.02 0.754961 -4.2261 0
M  V30 3187 C 316.253 1.77367 -5.03365 0
M  V30 3188 O 316.476 2.99976 -4.8515 0
M  V30 3189 O 315.41 1.34744 -5.86624 0
M  V30 3190 H 319.236 -0.334067 -3.01857 0
M  V30 3191 H 316.821 -0.229496 -1.47627 0
M  V30 3192 H 318.703 2.02318 -3.69656 0
M  V30 3193 H 317.378 2.05492 -2.5011 0
M  V30 3194 H 316.285 0.0964244 -3.73976 0
M  V30 3195 H 317.618 0.146545 -4.91982 0
M  V30 3196 N 319.27 1.56325 -0.20005 0
M  V30 3197 C 320.203 2.15234 0.758267 0
M  V30 3198 C 321.181 1.09046 1.20614 0
M  V30 3199 O 322.365 1.37186 1.29276 0
M  V30 3200 C 319.492 2.71524 2.02466 0
M  V30 3201 C 318.538 3.90345 1.71852 0
M  V30 3202 S 319.371 5.28513 0.862249 0
M  V30 3203 C 320.527 5.88227 2.13868 0
M  V30 3204 H 320.76 2.96183 0.2575 0
M  V30 3205 H 318.293 1.54393 0.0150099 0
M  V30 3206 H 320.251 3.04598 2.75191 0
M  V30 3207 H 318.912 1.90607 2.49655 0
M  V30 3208 H 318.105 4.28158 2.65888 0
M  V30 3209 H 317.707 3.58306 1.07205 0
M  V30 3210 H 319.999 6.02891 3.09076 0
M  V30 3211 H 320.942 6.84714 1.80479 0
M  V30 3212 H 321.35 5.16874 2.2694 0
M  V30 3213 N 320.748 -0.0735177 1.57428 0
M  V30 3214 C 321.658 -1.10547 2.06922 0
M  V30 3215 C 322.674 -1.42506 0.998402 0
M  V30 3216 O 323.85 -1.52717 1.31299 0
M  V30 3217 C 320.915 -2.40019 2.50184 0
M  V30 3218 C 319.976 -2.15046 3.71556 0
M  V30 3219 C 319.209 -3.38345 4.12745 0
M  V30 3220 O 319.432 -4.47399 3.53822 0
M  V30 3221 O 318.366 -3.2666 5.05546 0
M  V30 3222 H 322.192 -0.715013 2.95163 0
M  V30 3223 H 319.777 -0.287531 1.46607 0
M  V30 3224 H 321.659 -3.16218 2.78539 0
M  V30 3225 H 320.334 -2.78447 1.65072 0
M  V30 3226 H 319.241 -1.36558 3.48285 0
M  V30 3227 H 320.574 -1.81499 4.57514 0
M  V30 3228 N 322.226 -1.5378 -0.344866 0
M  V30 3229 C 323.503 -1.61589 -1.10219 0
M  V30 3230 C 323.883 -0.436316 -2.06542 0
M  V30 3231 O 323.231 0.571543 -2.21237 0
M  V30 3232 C 323.441 -2.97602 -1.82301 0
M  V30 3233 C 324.789 -3.5291 -2.36093 0
M  V30 3234 O 325.813 -2.99768 -1.924 0
M  V30 3235 O 324.672 -4.45859 -3.16026 0
M  V30 3236 H 321.766 -0.653522 -0.506792 0
M  V30 3237 H 324.312 -1.66126 -0.346465 0
M  V30 3238 H 323.084 -3.74893 -1.12121 0
M  V30 3239 H 322.707 -2.9665 -2.64735 0
M  V30 3240 N 323.704 0.605807 -1.45491 0
M  V30 3241 C 324.932 1.39136 -1.5313 0
M  V30 3242 C 325.347 1.88082 -0.164507 0
M  V30 3243 O 324.704 1.62316 0.834247 0
M  V30 3244 C 324.755 2.59463 -2.51716 0
M  V30 3245 O 324.476 2.12551 -3.83084 0
M  V30 3246 C 325.977 3.52301 -2.6907 0
M  V30 3247 H 323.197 0.425849 -0.51855 0
M  V30 3248 H 325.741 0.73865 -1.90694 0
M  V30 3249 H 323.896 3.20772 -2.17219 0
M  V30 3250 H 324.31 2.90744 -4.36541 0
M  V30 3251 H 325.784 4.33271 -3.42024 0
M  V30 3252 H 326.261 4.02757 -1.75167 0
M  V30 3253 H 326.867 2.96845 -3.04571 0
M  V30 3254 N 325.182 1.32811 0.848464 0
M  V30 3255 C 326.112 1.24882 1.97299 0
M  V30 3256 C 327.093 0.131357 1.69592 0
M  V30 3257 O 328.278 0.319553 1.91553 0
M  V30 3258 C 325.408 0.97746 3.33261 0
M  V30 3259 C 324.362 2.05682 3.75338 0
M  V30 3260 C 323.688 1.63777 5.09 0
M  V30 3261 C 324.988 3.47254 3.90144 0
M  V30 3262 H 326.682 2.18966 2.04191 0
M  V30 3263 H 324.228 1.05413 0.981029 0
M  V30 3264 H 326.181 0.908513 4.1149 0
M  V30 3265 H 324.905 0.000980011 3.266 0
M  V30 3266 H 323.564 2.11603 2.99366 0
M  V30 3267 H 323.212 0.648569 4.98801 0
M  V30 3268 H 322.912 2.36 5.38124 0
M  V30 3269 H 324.436 1.5833 5.89715 0
M  V30 3270 H 325.85 3.43888 4.58709 0
M  V30 3271 H 324.247 4.1788 4.30693 0
M  V30 3272 H 325.317 3.86462 2.92874 0
M  V30 3273 N 326.66 -1.06551 1.16123 0
M  V30 3274 C 327.608 -2.16063 0.861371 0
M  V30 3275 C 328.602 -1.6856 -0.168517 0
M  V30 3276 O 329.808 -1.79986 -0.0227579 0
M  V30 3277 H 326.183 -0.705278 0.260934 0
M  V30 3278 H 328.154 -2.38567 1.79244 0
M  V30 3279 C 326.903 -3.45661 0.376018 0
M  V30 3280 H 326.226 -3.82604 1.15992 0
M  V30 3281 H 327.666 -4.23504 0.204951 0
M  V30 3282 C 326.125 -3.24546 -0.903954 0
M  V30 3283 O 326.655 -3.49865 -1.97377 0
M  V30 3284 N 324.861 -2.77992 -0.846679 0
M  V30 3285 H 324.408 -2.57589 0.0241017 0
M  V30 3286 H 324.366 -2.64244 -1.70359 0
M  V30 3287 N 328.138 -0.959301 -1.25041 0
M  V30 3288 C 329.088 -0.453888 -2.23436 0
M  V30 3289 C 330.072 0.459461 -1.542 0
M  V30 3290 O 331.264 0.291752 -1.74579 0
M  V30 3291 C 328.393 0.262667 -3.42294 0
M  V30 3292 C 327.479 -0.669022 -4.1879 0
M  V30 3293 N 327.87 -1.80267 -4.72586 0
M  V30 3294 C 326.168 -0.47814 -4.4343 0
M  V30 3295 C 326.869 -2.38475 -5.3057 0
M  V30 3296 N 325.845 -1.67078 -5.17287 0
M  V30 3297 H 329.647 -1.319 -2.6264 0
M  V30 3298 H 327.161 -0.817358 -1.40332 0
M  V30 3299 H 329.158 0.641911 -4.11929 0
M  V30 3300 H 327.818 1.12432 -3.04613 0
M  V30 3301 H 328.829 -2.18442 -4.69578 0
M  V30 3302 H 325.506 0.340249 -4.16111 0
M  V30 3303 H 326.896 -3.34094 -5.8295 0
M  V30 3304 N 329.616 1.39756 -0.72842 0
M  V30 3305 C 330.546 2.33289 -0.0991354 0
M  V30 3306 C 331.527 1.53568 0.731489 0
M  V30 3307 O 332.712 1.81987 0.677807 0
M  V30 3308 C 329.842 3.3763 0.813834 0
M  V30 3309 C 328.796 4.2791 0.0878663 0
M  V30 3310 C 328.122 5.22894 1.11741 0
M  V30 3311 C 329.422 5.11314 -1.06563 0
M  V30 3312 H 331.116 2.86163 -0.880408 0
M  V30 3313 H 328.662 1.37591 -0.424819 0
M  V30 3314 H 330.615 4.0201 1.26355 0
M  V30 3315 H 329.339 2.83181 1.62715 0
M  V30 3316 H 327.998 3.65 -0.342159 0
M  V30 3317 H 327.646 4.64744 1.92412 0
M  V30 3318 H 327.346 5.84143 0.636477 0
M  V30 3319 H 328.87 5.90151 1.56697 0
M  V30 3320 H 330.284 5.69076 -0.694671 0
M  V30 3321 H 328.681 5.81671 -1.47577 0
M  V30 3322 H 329.751 4.46534 -1.89038 0
M  V30 3323 N 331.094 0.475555 1.50254 0
M  V30 3324 C 332.041 -0.316293 2.28622 0
M  V30 3325 C 333.011 -0.983227 1.33873 0
M  V30 3326 O 334.196 -0.994805 1.62814 0
M  V30 3327 C 331.336 -1.38975 3.1588 0
M  V30 3328 C 330.449 -0.737146 4.25664 0
M  V30 3329 C 329.584 -1.78887 5.00173 0
M  V30 3330 C 328.623 -1.11676 6.01826 0
M  V30 3331 N 327.76 -2.11154 6.69596 0
M  V30 3332 H 332.6 0.358297 2.95838 0
M  V30 3333 H 330.137 0.188541 1.45887 0
M  V30 3334 H 332.095 -2.02383 3.64825 0
M  V30 3335 H 330.725 -2.03344 2.50701 0
M  V30 3336 H 329.777 0.0096065 3.80399 0
M  V30 3337 H 331.089 -0.206816 4.98371 0
M  V30 3338 H 330.243 -2.49865 5.52859 0
M  V30 3339 H 328.982 -2.35302 4.27182 0
M  V30 3340 H 327.987 -0.392633 5.48396 0
M  V30 3341 H 329.212 -0.55945 6.76792 0
M  V30 3342 H 327.158 -2.66577 5.99394 0
M  V30 3343 H 327.075 -1.63118 7.38193 0
M  V30 3344 H 328.343 -2.81497 7.26897 0
M  V30 3345 N 332.573 -1.56217 0.208337 0
M  V30 3346 C 333.82 -1.97949 -0.42692 0
M  V30 3347 C 334.148 -1.09562 -1.60706 0
M  V30 3348 O 333.403 -0.137616 -1.95216 0
M  V30 3349 C 333.702 -3.45441 -0.916797 0
M  V30 3350 C 333.368 -4.50646 0.151391 0
M  V30 3351 C 332.03 -4.79139 0.444867 0
M  V30 3352 C 334.382 -5.13811 0.874492 0
M  V30 3353 C 331.71 -5.68084 1.46619 0
M  V30 3354 C 334.062 -6.03861 1.88506 0
M  V30 3355 C 332.726 -6.30704 2.18559 0
M  V30 3356 H 331.996 -0.724345 -0.156221 0
M  V30 3357 H 334.643 -1.89006 0.308084 0
M  V30 3358 H 332.948 -3.51521 -1.73032 0
M  V30 3359 H 334.645 -3.75094 -1.41794 0
M  V30 3360 H 331.235 -4.28511 -0.0875068 0
M  V30 3361 H 335.419 -4.91879 0.660996 0
M  V30 3362 H 330.675 -5.87151 1.7048 0
M  V30 3363 H 334.849 -6.51861 2.45051 0
M  V30 3364 H 332.476 -6.99424 2.97843 0
M  V30 3365 N 334.051 0.0651679 -1.57465 0
M  V30 3366 C 334.981 1.07693 -2.07182 0
M  V30 3367 C 335.962 1.39962 -0.966673 0
M  V30 3368 O 337.147 1.49475 -1.2398 0
M  V30 3369 C 334.277 2.3885 -2.52127 0
M  V30 3370 C 333.231 2.20917 -3.66579 0
M  V30 3371 C 332.557 3.57515 -3.97601 0
M  V30 3372 C 333.857 1.62493 -4.9638 0
M  V30 3373 H 335.551 0.663199 -2.91962 0
M  V30 3374 H 333.097 0.317569 -1.40455 0
M  V30 3375 H 335.05 3.09928 -2.85522 0
M  V30 3376 H 333.774 2.82215 -1.64384 0
M  V30 3377 H 332.433 1.52279 -3.33477 0
M  V30 3378 H 332.081 3.98463 -3.06979 0
M  V30 3379 H 331.781 3.46353 -4.74672 0
M  V30 3380 H 333.305 4.30013 -4.33499 0
M  V30 3381 H 334.719 2.23445 -5.27963 0
M  V30 3382 H 333.116 1.62009 -5.77818 0
M  V30 3383 H 334.186 0.587041 -4.81333 0
M  V30 3384 N 335.529 1.53961 0.336706 0
M  V30 3385 C 336.477 1.83136 1.43401 0
M  V30 3386 C 337.471 0.702313 1.54156 0
M  V30 3387 O 338.677 0.885765 1.56698 0
M  V30 3388 H 335.052 0.580309 0.478273 0
M  V30 3389 H 337.023 2.74925 1.16012 0
M  V30 3390 C 335.772 2.06385 2.79822 0
M  V30 3391 H 335.095 2.92718 2.72316 0
M  V30 3392 H 336.535 2.30761 3.55704 0
M  V30 3393 C 334.994 0.851414 3.25964 0
M  V30 3394 O 335.524 0.0541904 4.01663 0
M  V30 3395 N 333.73 0.66672 2.82848 0
M  V30 3396 H 333.277 1.31665 2.21409 0
M  V30 3397 H 333.235 -0.143032 3.14074 0
M  V30 3398 N 337.007 -0.598083 1.45811 0
M  V30 3399 C 338.253 -1.35882 1.50545 0
M  V30 3400 C 338.586 -1.93616 0.150445 0
M  V30 3401 O 337.861 -1.75604 -0.83628 0
M  V30 3402 C 338.144 -2.49966 2.59208 0
M  V30 3403 C 337.997 -1.97367 4.04186 0
M  V30 3404 C 339.316 -3.52068 2.64076 0
M  V30 3405 H 336.435 -0.492717 0.548087 0
M  V30 3406 H 339.077 -0.673319 1.77669 0
M  V30 3407 H 337.227 -3.08443 2.3621 0
M  V30 3408 H 338.899 -1.43466 4.38423 0
M  V30 3409 H 337.142 -1.283 4.14393 0
M  V30 3410 H 337.813 -2.79649 4.75921 0
M  V30 3411 H 340.289 -3.03448 2.84708 0
M  V30 3412 H 339.165 -4.2937 3.41954 0
M  V30 3413 H 339.426 -4.08304 1.69531 0
M  V30 3414 N 338.485 -1.33259 -0.841409 0
M  V30 3415 C 339.415 -1.25926 -1.96634 0
M  V30 3416 C 340.396 -0.140349 -1.6952 0
M  V30 3417 O 341.581 -0.329707 -1.91381 0
M  V30 3418 C 338.711 -0.99512 -3.32738 0
M  V30 3419 C 337.665 -2.0767 -3.74242 0
M  V30 3420 C 336.991 -1.66474 -5.08125 0
M  V30 3421 C 338.291 -3.49318 -3.88297 0
M  V30 3422 H 339.985 -2.20046 -2.03027 0
M  V30 3423 H 337.531 -1.05931 -0.975425 0
M  V30 3424 H 339.484 -0.930323 -4.11002 0
M  V30 3425 H 338.208 -0.0183004 -3.26595 0
M  V30 3426 H 336.867 -2.13187 -2.98239 0
M  V30 3427 H 336.515 -0.675012 -4.9845 0
M  V30 3428 H 336.215 -2.3885 -5.36865 0
M  V30 3429 H 337.739 -1.61455 -5.88867 0
M  V30 3430 H 339.153 -3.46316 -4.56879 0
M  V30 3431 H 337.55 -4.20158 -4.28471 0
M  V30 3432 H 338.62 -3.8801 -2.9082 0
M  V30 3433 N 339.963 1.05934 -1.16686 0
M  V30 3434 C 341.188 1.83029 -0.975455 0
M  V30 3435 C 341.613 1.82096 0.471452 0
M  V30 3436 O 340.971 1.22443 1.33706 0
M  V30 3437 C 341.019 3.27372 -1.51195 0
M  V30 3438 O 340.123 4.06054 -0.720701 0
M  V30 3439 H 339.464 0.566194 -0.346872 0
M  V30 3440 H 341.994 1.33541 -1.55009 0
M  V30 3441 H 342.004 3.78186 -1.53099 0
M  V30 3442 H 340.679 3.27366 -2.56523 0
M  V30 3443 H 339.256 3.64812 -0.772458 0
M  V30 3444 N 341.441 0.965919 1.2453 0
M  V30 3445 C 342.852 0.665929 1.7442 0
M  V30 3446 C 343.203 -0.818407 1.78316 0
M  V30 3447 O 342.328 -1.64037 1.41141 0
M  V30 3448 C 342.923 1.20211 3.16757 0
M  V30 3449 C 341.482 0.952059 3.6416 0
M  V30 3450 C 340.629 1.33848 2.42858 0
M  V30 3451 H 343.58 1.14144 1.10258 0
M  V30 3452 H 343.601 0.567544 3.76244 0
M  V30 3453 H 343.113 2.28244 3.13889 0
M  V30 3454 H 341.214 -0.112821 3.72429 0
M  V30 3455 H 341.327 1.59645 4.51719 0
M  V30 3456 H 339.691 0.756864 2.43195 0
M  V30 3457 H 340.474 2.42827 2.42673 0
M  V30 3458 N 342.919 -1.39368 0.735821 0
M  V30 3459 C 344.335 -1.54204 0.411492 0
M  V30 3460 C 344.535 -1.70268 -1.07755 0
M  V30 3461 O 343.591 -1.70364 -1.86366 0
M  V30 3462 C 344.904 -2.75925 1.19523 0
M  V30 3463 C 346.452 -2.89761 1.18354 0
M  V30 3464 C 346.927 -4.14421 1.94986 0
M  V30 3465 N 348.418 -4.21462 1.92156 0
M  V30 3466 C 349.153 -5.16871 2.48258 0
M  V30 3467 N 348.649 -6.18063 3.13001 0
M  V30 3468 N 350.442 -5.09093 2.38287 0
M  V30 3469 H 342.593 -1.27189 1.70108 0
M  V30 3470 H 344.856 -0.616517 0.720147 0
M  V30 3471 H 344.562 -2.70401 2.24892 0
M  V30 3472 H 344.436 -3.68614 0.800222 0
M  V30 3473 H 346.823 -2.94777 0.137975 0
M  V30 3474 H 346.904 -1.98133 1.61793 0
M  V30 3475 H 346.548 -4.10166 2.99543 0
M  V30 3476 H 346.478 -5.05095 1.48953 0
M  V30 3477 H 348.969 -3.48979 1.44991 0
M  V30 3478 H 349.282 -6.87326 3.53275 0
M  V30 3479 H 347.627 -6.18448 3.17091 0
M  V30 3480 H 350.818 -4.28973 1.8735 0
M  V30 3481 H 350.991 -5.83272 2.82308 0
M  V30 3482 N 344.397 -0.483516 -1.5 0
M  V30 3483 C 345.645 0.067027 -2.01989 0
M  V30 3484 C 345.966 1.3909 -1.36671 0
M  V30 3485 O 345.236 1.88978 -0.516152 0
M  V30 3486 H 343.816 0.0277606 -0.746484 0
M  V30 3487 H 346.478 -0.636773 -1.84204 0
M  V30 3488 H 345.574 0.209484 -3.11396 0
M  V30 3489 N 345.875 1.56104 -0.216619 0
M  V30 3490 C 347.121 1.98466 0.417033 0
M  V30 3491 C 347.454 1.10403 1.59765 0
M  V30 3492 O 346.729 0.160632 1.93836 0
M  V30 3493 C 347.012 3.49769 0.85637 0
M  V30 3494 C 346.865 4.48606 -0.327546 0
M  V30 3495 C 348.184 4.05339 1.7143 0
M  V30 3496 H 345.303 0.721551 0.150112 0
M  V30 3497 H 347.945 1.87423 -0.311864 0
M  V30 3498 H 346.095 3.5931 1.47745 0
M  V30 3499 H 347.767 4.5108 -0.965618 0
M  V30 3500 H 346.01 4.22682 -0.975805 0
M  V30 3501 H 346.681 5.51995 0.0227149 0
M  V30 3502 H 349.157 3.98712 1.19031 0
M  V30 3503 H 348.033 5.11533 1.99061 0
M  V30 3504 H 348.294 3.51918 2.67593 0
M  V30 3505 N 347.353 -0.0568162 1.57498 0
M  V30 3506 C 348.303 -1.07315 2.01166 0
M  V30 3507 C 349.287 -1.33632 0.896171 0
M  V30 3508 O 350.479 -1.33682 1.16009 0
M  V30 3509 C 347.608 -2.38257 2.47161 0
M  V30 3510 C 346.694 -2.1515 3.65474 0
M  V30 3511 N 347.085 -1.62014 4.7915 0
M  V30 3512 C 345.383 -2.45559 3.72313 0
M  V30 3513 C 346.084 -1.54069 5.60926 0
M  V30 3514 N 345.06 -2.00652 5.05213 0
M  V30 3515 H 348.862 -0.655878 2.86488 0
M  V30 3516 H 346.376 -0.263635 1.60246 0
M  V30 3517 H 348.373 -3.11845 2.76691 0
M  V30 3518 H 347.033 -2.80687 1.63232 0
M  V30 3519 H 348.044 -1.30667 5.01145 0
M  V30 3520 H 344.721 -2.91253 2.99129 0
M  V30 3521 H 346.111 -1.13712 6.62208 0
M  V30 3522 N 348.832 -1.54138 -0.328536 0
M  V30 3523 C 350.081 -1.71318 -1.06456 0
M  V30 3524 C 350.394 -0.491109 -1.89334 0
M  V30 3525 O 351.6 -0.54416 -2.65991 0
M  V30 3526 C 350.056 -3.03 -1.94214 0
M  V30 3527 C 349.664 -4.32595 -1.16471 0
M  V30 3528 C 351.408 -3.29544 -2.67583 0
M  V30 3529 C 349.315 -5.55341 -2.03347 0
M  V30 3530 H 348.245 -0.638429 -0.401155 0
M  V30 3531 H 350.896 -1.80633 -0.323106 0
M  V30 3532 H 349.278 -2.87579 -2.72239 0
M  V30 3533 H 350.452 -4.58766 -0.432525 0
M  V30 3534 H 348.767 -4.12777 -0.548063 0
M  V30 3535 H 351.364 -4.18444 -3.3288 0
M  V30 3536 H 351.707 -2.47206 -3.34955 0
M  V30 3537 H 352.24 -3.45809 -1.96623 0
M  V30 3538 H 348.979 -6.40268 -1.40491 0
M  V30 3539 H 348.499 -5.33397 -2.74313 0
M  V30 3540 H 350.178 -5.91557 -2.62049 0
M  V30 3541 N 350.31 0.590341 -1.46126 0
M  V30 3542 C 351.721 1.17243 -1.45296 0
M  V30 3543 C 352.072 1.95281 -0.189723 0
M  V30 3544 O 351.197 2.04502 0.707674 0
M  V30 3545 C 351.792 2.13284 -2.6324 0
M  V30 3546 C 350.351 2.66832 -2.65476 0
M  V30 3547 C 349.498 1.42557 -2.3785 0
M  V30 3548 H 352.449 0.378692 -1.54116 0
M  V30 3549 H 352.47 2.96619 -2.38323 0
M  V30 3550 H 351.982 1.56459 -3.55165 0
M  V30 3551 H 350.083 3.27548 -1.77603 0
M  V30 3552 H 350.196 3.10088 -3.65215 0
M  V30 3553 H 348.56 1.72107 -1.87753 0
M  V30 3554 H 349.343 0.875741 -3.31942 0
M  V30 3555 N 351.788 1.33704 0.83433 0
M  V30 3556 C 352.736 1.24323 1.96587 0
M  V30 3557 C 353.73 0.143659 1.6879 0
M  V30 3558 O 354.936 0.30791 1.77347 0
M  V30 3559 H 351.311 0.385925 0.645419 0
M  V30 3560 H 353.282 2.19978 2.01624 0
M  V30 3561 C 352.031 1.00394 3.32891 0
M  V30 3562 H 351.354 1.84231 3.54822 0
M  V30 3563 H 352.794 0.97862 4.12552 0
M  V30 3564 C 351.253 -0.293047 3.35623 0
M  V30 3565 O 351.783 -1.29823 3.80143 0
M  V30 3566 N 349.989 -0.322174 2.88809 0
M  V30 3567 H 349.536 0.496379 2.52772 0
M  V30 3568 H 349.494 -1.18977 2.91019 0
M  V30 3569 N 353.266 -1.05314 1.17247 0
M  V30 3570 C 354.506 -1.79869 0.970898 0
M  V30 3571 C 354.87 -1.85594 -0.491808 0
M  V30 3572 O 356.071 -2.56229 -0.812409 0
M  V30 3573 C 354.342 -3.19937 1.59295 0
M  V30 3574 S 355.901 -4.10986 1.53741 0
M  V30 3575 H 352.719 -0.61949 0.348931 0
M  V30 3576 H 355.321 -1.26368 1.49169 0
M  V30 3577 H 354.025 -3.13372 2.65003 0
M  V30 3578 H 353.556 -3.78515 1.07191 0
M  V30 3579 H 355.571 -4.93203 0.544537 0
M  V30 3580 N 354.744 -0.972509 -1.24016 0
M  V30 3581 C 356.021 -0.553733 -1.87598 0
M  V30 3582 C 356.401 0.969158 -1.87538 0
M  V30 3583 O 355.749 1.84255 -1.35139 0
M  V30 3584 C 355.959 -1.15076 -3.29482 0
M  V30 3585 C 357.307 -1.23862 -4.06132 0
M  V30 3586 O 358.331 -1.10363 -3.38672 0
M  V30 3587 O 357.19 -1.45252 -5.26844 0
M  V30 3588 H 354.284 -0.185331 -0.805966 0
M  V30 3589 H 356.83 -1.06709 -1.31952 0
M  V30 3590 H 355.602 -2.19333 -3.2405 0
M  V30 3591 H 355.225 -0.621746 -3.92709 0
M  V30 3592 N 356.222 1.38976 -0.743202 0
M  V30 3593 C 357.169 2.30544 -0.10861 0
M  V30 3594 C 358.139 1.49642 0.720869 0
M  V30 3595 O 359.324 1.78304 0.679142 0
M  V30 3596 C 356.464 3.36018 0.786496 0
M  V30 3597 C 355.577 4.31963 -0.0564849 0
M  V30 3598 C 354.712 5.24506 0.840657 0
M  V30 3599 C 353.751 6.121 -0.00658363 0
M  V30 3600 N 352.888 6.96973 0.846943 0
M  V30 3601 H 357.728 2.8424 -0.895088 0
M  V30 3602 H 355.265 1.3995 -0.453048 0
M  V30 3603 H 357.223 3.95768 1.31999 0
M  V30 3604 H 355.853 2.83758 1.53887 0
M  V30 3605 H 354.905 3.73763 -0.707492 0
M  V30 3606 H 356.217 4.93703 -0.711229 0
M  V30 3607 H 355.371 5.89322 1.4417 0
M  V30 3608 H 354.11 4.63107 1.52916 0
M  V30 3609 H 353.115 5.46289 -0.620366 0
M  V30 3610 H 354.34 6.75565 -0.691992 0
M  V30 3611 H 352.286 6.38133 1.52059 0
M  V30 3612 H 352.203 7.5559 0.248864 0
M  V30 3613 H 353.471 7.6621 1.43328 0
M  V30 3614 N 357.7 0.491464 1.49741 0
M  V30 3615 C 358.647 -0.292027 2.28945 0
M  V30 3616 C 359.617 -0.968973 1.34908 0
M  V30 3617 O 360.802 -0.97748 1.6386 0
M  V30 3618 C 357.942 -1.35617 3.17336 0
M  V30 3619 C 357.055 -0.691957 4.26422 0
M  V30 3620 C 356.19 -1.73572 5.02042 0
M  V30 3621 C 355.229 -1.05286 6.02977 0
M  V30 3622 N 354.366 -2.0404 6.71798 0
M  V30 3623 H 359.206 0.389654 2.95442 0
M  V30 3624 H 356.743 0.204003 1.45679 0
M  V30 3625 H 358.701 -1.98502 3.66951 0
M  V30 3626 H 357.331 -2.00674 2.52844 0
M  V30 3627 H 356.383 0.0499523 3.80367 0
M  V30 3628 H 357.695 -0.153946 4.98562 0
M  V30 3629 H 356.849 -2.43987 5.55478 0
M  V30 3630 H 355.588 -2.30757 4.29654 0
M  V30 3631 H 354.593 -0.334446 5.48782 0
M  V30 3632 H 355.818 -0.487636 6.77347 0
M  V30 3633 H 353.764 -2.60205 6.02187 0
M  V30 3634 H 353.681 -1.55279 7.39881 0
M  V30 3635 H 354.949 -2.73772 7.29842 0
M  V30 3636 N 359.178 -1.55987 0.224894 0
M  V30 3637 C 360.426 -1.97998 -0.405099 0
M  V30 3638 C 360.747 -1.11387 -1.60056 0
M  V30 3639 O 360.017 -0.191645 -1.9496 0
M  V30 3640 H 358.597 -0.731235 -0.152658 0
M  V30 3641 H 361.259 -1.92279 0.318567 0
M  V30 3642 H 360.355 -3.03463 -0.729167 0
M  V30 3643 N 360.656 0.0484629 -1.57525 0
M  V30 3644 C 361.903 0.743125 -1.88372 0
M  V30 3645 C 362.231 1.76383 -0.819715 0
M  V30 3646 O 361.486 1.94855 0.181659 0
M  V30 3647 C 361.785 1.46632 -3.25935 0
M  V30 3648 C 361.451 0.583427 -4.4711 0
M  V30 3649 C 360.113 0.340191 -4.79996 0
M  V30 3650 C 362.465 -0.0273345 -5.21193 0
M  V30 3651 C 359.793 -0.522903 -5.84365 0
M  V30 3652 C 362.145 -0.878017 -6.26477 0
M  V30 3653 C 360.809 -1.1309 -6.5785 0
M  V30 3654 H 360.079 0.271929 -0.689301 0
M  V30 3655 H 362.726 0.00336166 -1.915 0
M  V30 3656 H 361.031 2.2789 -3.18706 0
M  V30 3657 H 362.728 2.00902 -3.47044 0
M  V30 3658 H 359.318 0.783151 -4.21384 0
M  V30 3659 H 363.502 0.147654 -4.9608 0
M  V30 3660 H 358.758 -0.727335 -6.07058 0
M  V30 3661 H 362.932 -1.35789 -6.83033 0
M  V30 3662 H 360.559 -1.80144 -7.38547 0
M  V30 3663 N 362.134 1.5431 0.320358 0
M  V30 3664 C 363.364 1.7638 1.07582 0
M  V30 3665 C 363.772 0.513944 1.82086 0
M  V30 3666 O 363.115 -0.525123 1.76035 0
M  V30 3667 C 363.177 2.9055 2.1171 0
M  V30 3668 C 362.841 4.2934 1.56575 0
M  V30 3669 C 363.838 5.10077 1.00586 0
M  V30 3670 C 361.523 4.75893 1.60722 0
M  V30 3671 C 363.517 6.35477 0.494756 0
M  V30 3672 C 361.204 6.0126 1.09224 0
M  V30 3673 C 362.202 6.80886 0.53696 0
M  V30 3674 O 361.89 8.03894 0.0297371 0
M  V30 3675 H 361.622 0.592369 0.325692 0
M  V30 3676 H 364.176 2.02019 0.37116 0
M  V30 3677 H 362.406 2.60489 2.85801 0
M  V30 3678 H 364.095 3.00373 2.73003 0
M  V30 3679 H 364.861 4.75265 0.966869 0
M  V30 3680 H 360.74 4.13957 2.02882 0
M  V30 3681 H 364.284 6.97574 0.0606842 0
M  V30 3682 H 360.181 6.35562 1.12831 0
M  V30 3683 H 360.949 8.18372 0.14486 0
M  V30 3684 N 363.613 -0.582584 1.46437 0
M  V30 3685 C 364.56 -1.69164 1.5701 0
M  V30 3686 C 365.53 -1.60847 0.414403 0
M  V30 3687 O 366.715 -1.80058 0.631171 0
M  V30 3688 C 363.855 -3.075 1.56646 0
M  V30 3689 C 362.968 -3.2644 2.82951 0
M  V30 3690 C 362.103 -4.55026 2.7409 0
M  V30 3691 C 361.142 -4.6731 3.95333 0
M  V30 3692 N 360.279 -5.87221 3.84858 0
M  V30 3693 H 365.119 -1.59464 2.51744 0
M  V30 3694 H 362.656 -0.777186 1.24893 0
M  V30 3695 H 364.614 -3.8757 1.5442 0
M  V30 3696 H 363.244 -3.16096 0.654439 0
M  V30 3697 H 362.296 -2.39974 2.95155 0
M  V30 3698 H 363.608 -3.31385 3.72808 0
M  V30 3699 H 362.762 -5.43324 2.6997 0
M  V30 3700 H 361.501 -4.52519 1.81873 0
M  V30 3701 H 360.506 -3.77429 3.99784 0
M  V30 3702 H 361.731 -4.71595 4.88646 0
M  V30 3703 H 359.677 -5.85712 2.95427 0
M  V30 3704 H 359.594 -5.93435 4.6837 0
M  V30 3705 H 360.862 -6.7795 3.84713 0
M  V30 3706 N 365.091 -1.34144 -0.827227 0
M  V30 3707 C 366.038 -1.25364 -1.93785 0
M  V30 3708 C 367.008 -0.129774 -1.65592 0
M  V30 3709 O 368.193 -0.310024 -1.88264 0
M  V30 3710 C 365.333 -1.01064 -3.2997 0
M  V30 3711 C 364.446 -2.22185 -3.70484 0
M  V30 3712 C 363.581 -1.91203 -4.95595 0
M  V30 3713 C 362.62 -3.08491 -5.28677 0
M  V30 3714 N 361.757 -2.77421 -6.44967 0
M  V30 3715 H 366.597 -2.20347 -2.00627 0
M  V30 3716 H 364.134 -1.09558 -0.981608 0
M  V30 3717 H 366.092 -0.850139 -4.08446 0
M  V30 3718 H 364.722 -0.0975026 -3.22653 0
M  V30 3719 H 363.774 -2.4917 -2.87434 0
M  V30 3720 H 365.086 -3.0983 -3.90905 0
M  V30 3721 H 364.24 -1.71864 -5.81848 0
M  V30 3722 H 362.979 -1.00812 -4.77167 0
M  V30 3723 H 361.984 -3.28431 -4.40923 0
M  V30 3724 H 363.209 -3.99655 -5.49047 0
M  V30 3725 H 361.155 -1.89601 -6.28003 0
M  V30 3726 H 361.072 -3.58598 -6.6554 0
M  V30 3727 H 362.34 -2.61577 -7.34301 0
M  V30 3728 N 366.569 1.04691 -1.17803 0
M  V30 3729 C 367.516 2.12557 -0.899343 0
M  V30 3730 C 368.486 1.65339 0.158771 0
M  V30 3731 O 369.671 1.90789 0.0204797 0
M  V30 3732 C 366.811 3.42481 -0.424315 0
M  V30 3733 C 365.924 4.03346 -1.54713 0
M  V30 3734 C 365.059 5.21208 -1.02546 0
M  V30 3735 C 364.098 5.74089 -2.12339 0
M  V30 3736 N 363.235 6.83247 -1.61612 0
M  V30 3737 H 368.075 2.35734 -1.823 0
M  V30 3738 H 365.612 1.1564 -0.909159 0
M  V30 3739 H 367.57 4.16996 -0.130421 0
M  V30 3740 H 366.2 3.19471 0.462377 0
M  V30 3741 H 365.252 3.2622 -1.95664 0
M  V30 3742 H 366.564 4.38628 -2.37501 0
M  V30 3743 H 365.718 6.02812 -0.685718 0
M  V30 3744 H 364.457 4.87414 -0.167084 0
M  V30 3745 H 363.462 4.91111 -2.47165 0
M  V30 3746 H 364.687 6.0993 -2.98601 0
M  V30 3747 H 362.633 6.5134 -0.780533 0
M  V30 3748 H 362.55 7.17559 -2.38003 0
M  V30 3749 H 363.818 7.68491 -1.30545 0
M  V30 3750 N 368.047 0.979072 1.23499 0
M  V30 3751 C 368.979 0.476271 2.24197 0
M  V30 3752 C 369.992 -0.421166 1.57258 0
M  V30 3753 O 371.181 -0.225515 1.7707 0
M  V30 3754 C 368.281 -0.330503 3.37285 0
M  V30 3755 C 367.454 0.559744 4.33804 0
M  V30 3756 C 366.513 -0.192954 5.25846 0
M  V30 3757 O 365.539 0.416978 5.67671 0
M  V30 3758 N 366.741 -1.47932 5.61334 0
M  V30 3759 H 369.506 1.34211 2.67969 0
M  V30 3760 H 367.067 0.852189 1.37657 0
M  V30 3761 H 369.059 -0.842361 3.95836 0
M  V30 3762 H 367.629 -1.09734 2.92707 0
M  V30 3763 H 366.849 1.25245 3.73775 0
M  V30 3764 H 368.137 1.1665 4.95248 0
M  V30 3765 H 367.535 -1.9964 5.29302 0
M  V30 3766 H 366.092 -1.93664 6.22364 0
M  V30 3767 N 369.525 -1.3858 0.750561 0
M  V30 3768 C 370.765 -2.02032 0.310258 0
M  V30 3769 C 371.129 -1.58288 -1.08668 0
M  V30 3770 O 372.33 -2.14049 -1.62593 0
M  V30 3771 C 370.601 -3.54856 0.425647 0
M  V30 3772 S 372.16 -4.38748 0.0674797 0
M  V30 3773 H 368.978 -0.700705 0.120554 0
M  V30 3774 H 371.58 -1.69134 0.980512 0
M  V30 3775 H 370.284 -3.84182 1.44335 0
M  V30 3776 H 369.815 -3.92527 -0.261894 0
M  V30 3777 H 371.83 -4.82835 -1.14388 0
M  V30 3778 N 371.003 -0.499398 -1.49478 0
M  V30 3779 C 372.419 -0.155261 -1.58843 0
M  V30 3780 C 372.619 1.34008 -1.50479 0
M  V30 3781 O 371.675 2.11589 -1.37791 0
M  V30 3782 C 372.988 -0.730636 -2.91689 0
M  V30 3783 C 374.536 -0.696599 -3.0515 0
M  V30 3784 C 375.011 -1.25001 -4.40612 0
M  V30 3785 N 376.502 -1.21064 -4.47099 0
M  V30 3786 C 377.237 -1.60905 -5.50361 0
M  V30 3787 N 376.733 -2.08331 -6.60735 0
M  V30 3788 N 378.526 -1.52331 -5.41065 0
M  V30 3789 H 370.677 -1.47162 -1.53158 0
M  V30 3790 H 372.94 -0.610309 -0.725415 0
M  V30 3791 H 372.646 -1.77928 -3.03372 0
M  V30 3792 H 372.52 -0.190161 -3.7672 0
M  V30 3793 H 374.907 0.343204 -2.93097 0
M  V30 3794 H 374.988 -1.2742 -2.21806 0
M  V30 3795 H 374.632 -2.28859 -4.53416 0
M  V30 3796 H 374.562 -0.64836 -5.22593 0
M  V30 3797 H 377.053 -0.863128 -3.67911 0
M  V30 3798 H 377.366 -2.36805 -7.35624 0
M  V30 3799 H 375.711 -2.12304 -6.6178 0
M  V30 3800 H 378.902 -1.151 -4.53729 0
M  V30 3801 H 379.075 -1.83704 -6.21415 0
M  V30 3802 N 372.481 1.55866 -0.233164 0
M  V30 3803 C 373.892 1.847 0.272554 0
M  V30 3804 C 374.243 1.15477 1.58617 0
M  V30 3805 O 373.368 0.42841 2.12117 0
M  V30 3806 C 373.963 3.35071 0.501299 0
M  V30 3807 C 372.522 3.6418 0.951304 0
M  V30 3808 C 371.669 2.77292 0.0208209 0
M  V30 3809 H 374.62 1.52005 -0.456074 0
M  V30 3810 H 374.641 3.55906 1.34577 0
M  V30 3811 H 374.153 3.85424 -0.454936 0
M  V30 3812 H 372.254 3.19293 1.92049 0
M  V30 3813 H 372.367 4.72071 0.817675 0
M  V30 3814 H 370.731 2.49131 0.529723 0
M  V30 3815 H 371.514 3.30448 -0.93054 0
M  V30 3816 N 373.959 -0.0401083 1.57549 0
M  V30 3817 C 375.184 -0.748931 1.93406 0
M  V30 3818 C 375.609 -1.68686 0.832274 0
M  V30 3819 O 374.967 -1.80047 -0.212818 0
M  V30 3820 C 375.015 -1.4916 3.28304 0
M  V30 3821 O 374.119 -2.6042 3.19774 0
M  V30 3822 H 373.46 -0.202212 0.63246 0
M  V30 3823 H 375.99 0.00112086 2.046 0
M  V30 3824 H 376 -1.86395 3.62934 0
M  V30 3825 H 374.675 -0.80364 4.08062 0
M  V30 3826 H 373.252 -2.25808 2.96758 0
M  V30 3827 N 375.437 -1.54477 -0.31217 0
M  V30 3828 C 376.384 -1.84655 -1.38461 0
M  V30 3829 C 377.354 -0.694536 -1.50882 0
M  V30 3830 O 378.539 -0.942081 -1.6592 0
M  V30 3831 C 375.679 -2.0896 -2.74645 0
M  V30 3832 C 374.792 -3.36618 -2.70763 0
M  V30 3833 C 373.927 -3.50824 -3.98868 0
M  V30 3834 C 372.966 -4.72315 -3.89339 0
M  V30 3835 N 372.103 -4.83387 -5.09197 0
M  V30 3836 H 376.943 -2.76142 -1.12026 0
M  V30 3837 H 374.48 -1.36748 -0.542065 0
M  V30 3838 H 376.438 -2.21045 -3.53829 0
M  V30 3839 H 375.068 -1.20752 -2.99364 0
M  V30 3840 H 374.12 -3.33211 -1.83506 0
M  V30 3841 H 375.432 -4.25917 -2.59608 0
M  V30 3842 H 374.586 -3.62513 -4.86486 0
M  V30 3843 H 373.325 -2.59638 -4.12843 0
M  V30 3844 H 372.33 -4.6067 -3.00105 0
M  V30 3845 H 373.555 -5.64897 -3.76919 0
M  V30 3846 H 371.501 -3.9512 -5.23657 0
M  V30 3847 H 371.418 -5.66669 -5.00422 0
M  V30 3848 H 372.686 -4.9942 -5.98498 0
M  V30 3849 N 376.915 0.57481 -1.46744 0
M  V30 3850 C 378.163 1.33009 -1.52161 0
M  V30 3851 C 378.484 1.94185 -0.178092 0
M  V30 3852 O 377.754 1.7899 0.796196 0
M  V30 3853 H 376.334 0.493873 -0.560445 0
M  V30 3854 H 378.996 0.672589 -1.82927 0
M  V30 3855 H 378.092 2.13273 -2.27862 0
M  V30 3856 N 378.394 1.34581 0.820102 0
M  V30 3857 C 379.81 1.14325 1.11364 0
M  V30 3858 C 380.01 -0.0533648 2.01429 0
M  V30 3859 O 379.066 -0.728044 2.41776 0
M  V30 3860 C 380.379 2.43983 1.75764 0
M  V30 3861 C 381.927 2.50065 1.88246 0
M  V30 3862 C 382.402 3.79732 2.56061 0
M  V30 3863 N 383.893 3.80908 2.63558 0
M  V30 3864 C 384.628 4.77961 3.16766 0
M  V30 3865 N 384.124 5.85397 3.70517 0
M  V30 3866 N 385.917 4.65413 3.15194 0
M  V30 3867 H 378.068 2.11246 0.221096 0
M  V30 3868 H 380.331 0.934289 0.160649 0
M  V30 3869 H 380.037 3.31651 1.1705 0
M  V30 3870 H 379.911 2.57531 2.75604 0
M  V30 3871 H 382.298 1.62834 2.46108 0
M  V30 3872 H 382.379 2.40442 0.873006 0
M  V30 3873 H 382.023 4.67354 1.98853 0
M  V30 3874 H 381.953 3.86639 3.57516 0
M  V30 3875 H 384.444 3.03274 2.25463 0
M  V30 3876 H 384.757 6.55463 4.09376 0
M  V30 3877 H 383.102 5.89107 3.68752 0
M  V30 3878 H 386.293 3.80627 2.72471 0
M  V30 3879 H 386.466 5.41216 3.56356 0
M  V30 3880 N 379.872 -1.04064 1.18357 0
M  V30 3881 C 380.819 -2.12077 0.910603 0
M  V30 3882 C 381.789 -1.65421 -0.15 0
M  V30 3883 O 382.974 -1.90797 -0.0103614 0
M  V30 3884 C 380.114 -3.42252 0.442472 0
M  V30 3885 C 379.227 -4.0252 1.5685 0
M  V30 3886 C 378.362 -5.20657 1.05309 0
M  V30 3887 C 377.401 -5.72955 2.1538 0
M  V30 3888 N 376.538 -6.8238 1.65233 0
M  V30 3889 H 381.378 -2.34764 1.83548 0
M  V30 3890 H 378.915 -1.15157 0.915279 0
M  V30 3891 H 380.873 -4.16921 0.152534 0
M  V30 3892 H 379.503 -3.19712 -0.445428 0
M  V30 3893 H 378.555 -3.25178 1.97391 0
M  V30 3894 H 379.867 -4.37362 2.39824 0
M  V30 3895 H 379.021 -6.0244 0.717677 0
M  V30 3896 H 377.76 -4.87318 0.19293 0
M  V30 3897 H 376.765 -4.89793 2.49766 0
M  V30 3898 H 377.99 -6.08337 3.01832 0
M  V30 3899 H 375.936 -6.50917 0.815064 0
M  V30 3900 H 375.853 -7.16286 2.41805 0
M  V30 3901 H 377.121 -7.67788 1.34619 0
M  V30 3902 N 381.35 -0.985608 -1.22978 0
M  V30 3903 C 382.766 -0.695104 -1.43668 0
M  V30 3904 C 382.966 0.736866 -1.87543 0
M  V30 3905 O 382.022 1.50868 -2.02473 0
M  V30 3906 C 383.335 -1.69447 -2.48412 0
M  V30 3907 C 384.883 -1.70909 -2.62219 0
M  V30 3908 C 385.358 -2.6969 -3.70178 0
M  V30 3909 N 386.849 -2.6824 -3.77626 0
M  V30 3910 C 387.584 -3.41339 -4.60733 0
M  V30 3911 N 387.08 -4.24015 -5.4789 0
M  V30 3912 N 388.873 -3.30079 -4.54977 0
M  V30 3913 H 381.024 -1.91054 -0.928016 0
M  V30 3914 H 383.287 -0.823553 -0.469536 0
M  V30 3915 H 382.993 -2.7188 -2.23102 0
M  V30 3916 H 382.867 -1.48147 -3.46889 0
M  V30 3917 H 385.254 -0.691785 -2.86877 0
M  V30 3918 H 385.335 -1.96276 -1.6404 0
M  V30 3919 H 384.979 -3.71566 -3.46268 0
M  V30 3920 H 384.909 -2.41595 -4.67909 0
M  V30 3921 H 387.4 -2.08243 -3.15346 0
M  V30 3922 H 387.713 -4.76636 -6.08308 0
M  V30 3923 H 386.058 -4.28104 -5.47496 0
M  V30 3924 H 389.249 -2.64937 -3.85909 0
M  V30 3925 H 389.422 -3.87308 -5.19516 0
M  V30 3926 N 382.828 1.3818 -0.7579 0
M  V30 3927 C 384.076 1.99624 -0.315361 0
M  V30 3928 C 384.397 1.60464 1.10799 0
M  V30 3929 O 383.667 0.863507 1.75842 0
M  V30 3930 H 382.247 0.73831 -0.113611 0
M  V30 3931 H 384.909 1.68878 -0.972952 0
M  V30 3932 H 384.005 3.09754 -0.381931 0
M  V30 3933 N 384.306 0.507319 1.49211 0
M  V30 3934 C 385.553 -0.0349529 2.0247 0
M  V30 3935 C 385.881 -1.36409 1.38647 0
M  V30 3936 O 385.136 -1.88841 0.513566 0
M  V30 3937 C 385.435 -0.229513 3.56662 0
M  V30 3938 C 385.101 1.02241 4.39156 0
M  V30 3939 C 383.763 1.36557 4.61417 0
M  V30 3940 C 386.115 1.85428 4.871 0
M  V30 3941 C 383.443 2.53999 5.28868 0
M  V30 3942 C 385.795 3.02028 5.55843 0
M  V30 3943 C 384.459 3.36717 5.76349 0
M  V30 3944 H 383.729 -0.0127902 0.74089 0
M  V30 3945 H 386.376 0.668756 1.79443 0
M  V30 3946 H 384.681 -1.0158 3.78403 0
M  V30 3947 H 386.378 -0.663641 3.9547 0
M  V30 3948 H 382.968 0.745124 4.22073 0
M  V30 3949 H 387.152 1.6023 4.69723 0
M  V30 3950 H 382.408 2.81105 5.42946 0
M  V30 3951 H 386.582 3.66808 5.91967 0
M  V30 3952 H 384.209 4.27821 6.28389 0
M  V30 3953 N 385.784 -1.5574 0.241426 0
M  V30 3954 C 387.024 -2.00714 -0.38644 0
M  V30 3955 C 387.388 -1.12586 -1.55526 0
M  V30 3956 O 388.589 -1.46992 -2.25048 0
M  V30 3957 C 386.86 -3.48534 -0.791128 0
M  V30 3958 S 388.419 -4.15519 -1.41029 0
M  V30 3959 H 385.237 -0.700484 -0.121834 0
M  V30 3960 H 387.839 -1.92243 0.355377 0
M  V30 3961 H 386.543 -4.10342 0.0689225 0
M  V30 3962 H 386.074 -3.6092 -1.56526 0
M  V30 3963 H 388.089 -4.16352 -2.69936 0
M  V30 3964 N 387.262 0.0317525 -1.57568 0
M  V30 3965 C 388.508 0.718712 -1.90279 0
M  V30 3966 C 388.863 1.73108 -0.839727 0
M  V30 3967 O 388.156 1.90997 0.15188 0
M  V30 3968 C 388.35 1.43167 -3.27472 0
M  V30 3969 C 388.179 0.489869 -4.47024 0
M  V30 3970 C 386.949 0.111909 -5.05176 0
M  V30 3971 C 389.147 -0.230592 -5.13783 0
M  V30 3972 N 387.129 -0.831427 -6.08244 0
M  V30 3973 C 388.5 -1.02968 -6.1139 0
M  V30 3974 C 390.555 -0.297821 -4.97008 0
M  V30 3975 C 389.258 -1.88982 -6.9403 0
M  V30 3976 C 391.284 -1.14507 -5.80209 0
M  V30 3977 C 390.646 -1.9321 -6.77384 0
M  V30 3978 H 386.745 0.237177 -0.745165 0
M  V30 3979 H 389.329 -0.0211267 -1.94689 0
M  V30 3980 H 387.5 2.14199 -3.23996 0
M  V30 3981 H 389.232 2.0708 -3.47707 0
M  V30 3982 H 385.987 0.473513 -4.71227 0
M  V30 3983 H 386.411 -1.29752 -6.6445 0
M  V30 3984 H 391.053 0.296346 -4.2176 0
M  V30 3985 H 388.771 -2.4948 -7.68626 0
M  V30 3986 H 392.357 -1.20059 -5.69278 0
M  V30 3987 H 391.237 -2.57711 -7.40645 0
M  V30 3988 N 388.74 1.54641 0.303973 0
M  V30 3989 C 389.98 1.75516 1.04755 0
M  V30 3990 C 390.344 0.528211 1.84591 0
M  V30 3991 O 391.545 0.614645 2.61678 0
M  V30 3992 C 389.816 3.00685 1.93193 0
M  V30 3993 S 391.375 3.42549 2.74237 0
M  V30 3994 H 388.193 0.616987 0.353339 0
M  V30 3995 H 390.795 1.92842 0.321292 0
M  V30 3996 H 389.499 3.8811 1.33411 0
M  V30 3997 H 389.03 2.85937 2.70191 0
M  V30 3998 H 391.045 2.99386 3.95705 0
M  V30 3999 N 390.218 -0.567019 1.47046 0
M  V30 4000 C 391.464 -1.32658 1.53394 0
M  V30 4001 C 391.797 -1.93254 0.19148 0
M  V30 4002 O 391.072 -1.77338 -0.798844 0
M  V30 4003 C 391.355 -2.44412 2.64452 0
M  V30 4004 C 391.208 -1.88749 4.08282 0
M  V30 4005 C 392.527 -3.46387 2.71485 0
M  V30 4006 H 389.646 -0.48098 0.558415 0
M  V30 4007 H 392.288 -0.635481 1.79058 0
M  V30 4008 H 390.438 -3.03363 2.427 0
M  V30 4009 H 392.11 -1.34134 4.41368 0
M  V30 4010 H 390.353 -1.19481 4.17021 0
M  V30 4011 H 391.024 -2.69491 4.81745 0
M  V30 4012 H 393.5 -2.9734 2.91081 0
M  V30 4013 H 392.376 -4.2202 3.50985 0
M  V30 4014 H 392.637 -4.04616 1.78153 0
M  V30 4015 N 391.696 -1.35014 -0.812953 0
M  V30 4016 C 392.973 -1.18502 -1.55617 0
M  V30 4017 C 393.353 0.238421 -2.09749 0
M  V30 4018 O 392.701 1.2411 -1.91857 0
M  V30 4019 C 392.911 -2.24783 -2.66971 0
M  V30 4020 C 394.259 -2.60268 -3.35478 0
M  V30 4021 O 395.283 -2.23648 -2.77236 0
M  V30 4022 O 394.142 -3.2321 -4.40678 0
M  V30 4023 H 391.236 -0.459984 -0.687272 0
M  V30 4024 H 393.782 -1.46677 -0.853464 0
M  V30 4025 H 392.554 -3.20284 -2.24798 0
M  V30 4026 H 392.177 -1.97841 -3.44884 0
M  V30 4027 N 393.175 1.03435 -1.18907 0
M  V30 4028 C 394.122 2.11591 -0.921837 0
M  V30 4029 C 395.092 1.65499 0.141226 0
M  V30 4030 O 396.277 1.908 0.000242829 0
M  V30 4031 C 393.417 3.42012 -0.460616 0
M  V30 4032 C 392.53 4.01682 -1.58982 0
M  V30 4033 C 391.665 5.20091 -1.08069 0
M  V30 4034 C 390.704 5.71805 -2.18416 0
M  V30 4035 N 389.841 6.81494 -1.68849 0
M  V30 4036 H 394.681 2.33787 -1.8479 0
M  V30 4037 H 392.218 1.1467 -0.921373 0
M  V30 4038 H 394.176 4.16834 -0.174642 0
M  V30 4039 H 392.806 3.19944 0.428467 0
M  V30 4040 H 391.858 3.24127 -1.99113 0
M  V30 4041 H 393.17 4.36084 -2.4214 0
M  V30 4042 H 392.324 6.02051 -0.749615 0
M  V30 4043 H 391.063 4.87209 -0.218771 0
M  V30 4044 H 390.068 4.88461 -2.5236 0
M  V30 4045 H 391.293 6.06728 -3.05054 0
M  V30 4046 H 389.239 6.50475 -0.849572 0
M  V30 4047 H 389.156 7.14994 -2.45601 0
M  V30 4048 H 390.424 7.67063 -1.38689 0
M  V30 4049 N 394.653 0.992116 1.22453 0
M  V30 4050 C 395.883 0.684949 1.94915 0
M  V30 4051 C 396.291 -0.754292 1.73514 0
M  V30 4052 O 395.634 -1.52056 1.03076 0
M  V30 4053 C 395.696 0.910054 3.47791 0
M  V30 4054 C 395.36 2.33363 3.92926 0
M  V30 4055 C 396.357 3.31308 4.00663 0
M  V30 4056 C 394.042 2.66785 4.25595 0
M  V30 4057 C 396.036 4.6075 4.40441 0
M  V30 4058 C 393.723 3.96446 4.65053 0
M  V30 4059 C 394.721 4.9324 4.72444 0
M  V30 4060 O 394.409 6.20584 5.1101 0
M  V30 4061 H 394.141 0.25258 0.62704 0
M  V30 4062 H 396.695 1.32939 1.56577 0
M  V30 4063 H 394.925 0.208443 3.86138 0
M  V30 4064 H 396.614 0.598257 4.01467 0
M  V30 4065 H 397.38 3.0682 3.75615 0
M  V30 4066 H 393.259 1.92148 4.19047 0
M  V30 4067 H 396.803 5.363 4.46126 0
M  V30 4068 H 392.7 4.20724 4.89552 0
M  V30 4069 H 393.468 6.24509 5.29085 0
M  V30 4070 N 396.131 -1.37776 0.765217 0
M  V30 4071 C 397.379 -1.99454 0.325943 0
M  V30 4072 C 397.7 -1.61049 -1.09947 0
M  V30 4073 O 396.97 -0.872821 -1.75381 0
M  V30 4074 H 395.55 -0.737697 0.117525 0
M  V30 4075 H 398.212 -1.68359 0.981895 0
M  V30 4076 H 397.308 -3.09547 0.398353 0
M  V30 4077 N 397.609 -0.515225 -1.4894 0
M  V30 4078 C 398.541 0.292481 -2.27326 0
M  V30 4079 C 399.554 0.917838 -1.3446 0
M  V30 4080 O 400.743 0.798772 -1.5963 0
M  V30 4081 C 397.843 1.42803 -3.07344 0
M  V30 4082 C 397.016 0.907347 -4.27885 0
M  V30 4083 C 396.075 1.92222 -4.89834 0
M  V30 4084 O 395.101 1.48506 -5.49486 0
M  V30 4085 N 396.303 3.25355 -4.80754 0
M  V30 4086 H 399.068 -0.379721 -2.97285 0
M  V30 4087 H 396.629 -0.348638 -1.58102 0
M  V30 4088 H 398.621 2.10481 -3.45658 0
M  V30 4089 H 397.191 2.00414 -2.39902 0
M  V30 4090 H 396.411 0.0550218 -3.94162 0
M  V30 4091 H 397.699 0.538108 -5.05946 0
M  V30 4092 H 397.097 3.6355 -4.33414 0
M  V30 4093 H 395.654 3.88707 -5.23211 0
M  V30 4094 N 399.087 1.5561 -0.249682 0
M  V30 4095 C 400.498 1.84979 0.252949 0
M  V30 4096 C 400.849 1.17153 1.57384 0
M  V30 4097 O 399.974 0.450884 2.11651 0
M  V30 4098 C 400.569 3.35584 0.465732 0
M  V30 4099 C 399.128 3.65169 0.912624 0
M  V30 4100 C 398.275 2.77299 -0.00859085 0
M  V30 4101 H 401.226 1.51513 -0.47217 0
M  V30 4102 H 401.247 3.57313 1.30795 0
M  V30 4103 H 400.759 3.8492 -0.49579 0
M  V30 4104 H 398.86 3.21312 1.88652 0
M  V30 4105 H 398.973 4.72912 0.767559 0
M  V30 4106 H 397.337 2.49678 0.50327 0
M  V30 4107 H 398.12 3.29442 -0.965537 0
M  V30 4108 N 400.565 -0.0233959 1.57583 0
M  V30 4109 C 401.495 -1.02162 2.09965 0
M  V30 4110 C 402.476 -1.3735 1.00344 0
M  V30 4111 O 403.661 -1.46135 1.27899 0
M  V30 4112 C 400.791 -2.32081 2.58371 0
M  V30 4113 C 399.745 -2.1112 3.72307 0
M  V30 4114 C 399.071 -3.46848 4.06941 0
M  V30 4115 C 400.371 -1.49276 5.00514 0
M  V30 4116 H 402.065 -0.585557 2.93618 0
M  V30 4117 H 399.611 -0.280218 1.41247 0
M  V30 4118 H 401.564 -3.02249 2.93639 0
M  V30 4119 H 400.288 -2.77758 1.71808 0
M  V30 4120 H 398.947 -1.43384 3.37397 0
M  V30 4121 H 398.595 -3.90184 3.17436 0
M  V30 4122 H 398.295 -3.33646 4.83688 0
M  V30 4123 H 399.819 -4.18369 4.44747 0
M  V30 4124 H 401.233 -2.09368 5.33702 0
M  V30 4125 H 399.63 -1.46632 5.8191 0
M  V30 4126 H 400.7 -0.459217 4.82721 0
M  V30 4127 N 402.043 -1.548 -0.295768 0
M  V30 4128 C 403.454 -1.65274 -0.868411 0
M  V30 4129 C 403.805 -0.56481 -1.87894 0
M  V30 4130 O 402.93 0.29767 -2.14343 0
M  V30 4131 C 403.525 -2.99603 -1.58188 0
M  V30 4132 C 402.084 -3.12181 -2.10286 0
M  V30 4133 C 401.231 -2.6098 -0.93727 0
M  V30 4134 H 404.182 -1.58534 -0.0726422 0
M  V30 4135 H 404.203 -2.91319 -2.44772 0
M  V30 4136 H 403.715 -3.78764 -0.846151 0
M  V30 4137 H 401.816 -2.3775 -2.8689 0
M  V30 4138 H 401.929 -4.18415 -2.33379 0
M  V30 4139 H 400.293 -2.17564 -1.32431 0
M  V30 4140 H 401.076 -3.42623 -0.215414 0
M  V30 4141 N 403.521 0.559213 -1.47345 0
M  V30 4142 C 404.769 1.31388 -1.53563 0
M  V30 4143 C 405.09 1.93985 -0.198678 0
M  V30 4144 O 404.36 1.79825 0.777167 0
M  V30 4145 H 402.94 0.487901 -0.565652 0
M  V30 4146 H 405.602 0.65315 -1.8363 0
M  V30 4147 H 404.698 2.10844 -2.30111 0
M  V30 4148 N 404.999 1.35443 0.805782 0
M  V30 4149 C 406.229 1.31687 1.59192 0
M  V30 4150 C 406.637 -0.10756 1.88894 0
M  V30 4151 O 405.98 -1.07017 1.49309 0
M  V30 4152 C 406.042 2.05686 2.94845 0
M  V30 4153 C 405.706 3.54868 2.87954 0
M  V30 4154 C 406.703 4.49444 2.61335 0
M  V30 4155 C 404.388 3.97528 3.07046 0
M  V30 4156 C 406.382 5.84655 2.53885 0
M  V30 4157 C 404.069 5.32833 2.99219 0
M  V30 4158 C 405.067 6.26209 2.72674 0
M  V30 4159 O 404.755 7.59032 2.64811 0
M  V30 4160 H 404.487 0.453878 0.50097 0
M  V30 4161 H 407.041 1.78892 1.0093 0
M  V30 4162 H 405.271 1.5312 3.55093 0
M  V30 4163 H 406.96 1.94998 3.55993 0
M  V30 4164 H 407.726 4.17804 2.46303 0
M  V30 4165 H 403.605 3.25233 3.26718 0
M  V30 4166 H 407.149 6.57508 2.33086 0
M  V30 4167 H 403.046 5.64087 3.13809 0
M  V30 4168 H 403.814 7.68967 2.80413 0
M  V30 4169 N 406.477 -1.02803 1.19454 0
M  V30 4170 C 407.705 -1.79841 1.02297 0
M  V30 4171 C 408.12 -1.83879 -0.428259 0
M  V30 4172 O 407.477 -1.28345 -1.29745 0
M  V30 4173 C 407.528 -3.24852 1.58598 0
M  V30 4174 O 407.249 -3.21097 2.98041 0
M  V30 4175 C 408.75 -4.18485 1.46236 0
M  V30 4176 H 405.97 -0.565936 0.360496 0
M  V30 4177 H 408.514 -1.2948 1.58288 0
M  V30 4178 H 406.669 -3.72401 1.06753 0
M  V30 4179 H 407.083 -4.12033 3.24545 0
M  V30 4180 H 408.557 -5.18121 1.90407 0
M  V30 4181 H 409.034 -4.37254 0.41301 0
M  V30 4182 H 409.64 -3.76811 1.97215 0
M  V30 4183 N 407.956 -0.998596 -1.21925 0
M  V30 4184 C 409.184 -0.696286 -1.94832 0
M  V30 4185 C 409.599 0.740032 -1.73692 0
M  V30 4186 O 408.956 1.5 -1.03953 0
M  V30 4187 C 409.007 -0.999833 -3.47398 0
M  V30 4188 O 408.728 -2.37972 -3.67833 0
M  V30 4189 C 410.229 -0.716025 -4.37479 0
M  V30 4190 H 407.449 -0.257111 -0.619786 0
M  V30 4191 H 409.993 -1.33491 -1.54921 0
M  V30 4192 H 408.148 -0.406918 -3.85257 0
M  V30 4193 H 408.562 -2.48338 -4.61983 0
M  V30 4194 H 410.036 -0.978642 -5.43256 0
M  V30 4195 H 410.513 0.349968 -4.37803 0
M  V30 4196 H 411.119 -1.29025 -4.05256 0
M  V30 4197 N 409.434 1.37368 -0.772513 0
M  V30 4198 C 410.381 2.30262 -0.157488 0
M  V30 4199 C 411.351 1.51137 0.688965 0
M  V30 4200 O 412.536 1.79704 0.641168 0
M  V30 4201 C 409.676 3.37611 0.715045 0
M  V30 4202 C 408.789 4.31746 -0.148098 0
M  V30 4203 C 407.924 5.26171 0.729213 0
M  V30 4204 C 406.963 6.11948 -0.136418 0
M  V30 4205 N 406.1 6.98613 0.698914 0
M  V30 4206 H 410.94 2.82277 -0.955179 0
M  V30 4207 H 408.477 1.38957 -0.482631 0
M  V30 4208 H 410.435 3.98479 1.23575 0
M  V30 4209 H 409.065 2.86959 1.47833 0
M  V30 4210 H 408.117 3.72178 -0.786613 0
M  V30 4211 H 409.429 4.92084 -0.81579 0
M  V30 4212 H 408.583 5.92247 1.31637 0
M  V30 4213 H 407.322 4.66246 1.43059 0
M  V30 4214 H 406.327 5.4485 -0.736102 0
M  V30 4215 H 407.552 6.73945 -0.835134 0
M  V30 4216 H 405.498 6.41215 1.38489 0
M  V30 4217 H 405.415 7.55948 0.0885358 0
M  V30 4218 H 406.683 7.69077 1.27044 0
M  V30 4219 N 410.912 0.523116 1.48665 0
M  V30 4220 C 412.16 -0.0134497 2.02096 0
M  V30 4221 C 412.481 -1.35418 1.40311 0
M  V30 4222 O 411.751 -1.87543 0.566074 0
M  V30 4223 H 410.331 -0.00795915 0.746958 0
M  V30 4224 H 412.993 0.685388 1.82451 0
M  V30 4225 H 412.089 -0.126849 3.11842 0
M  V30 4226 N 412.39 -1.55475 0.257931 0
M  V30 4227 C 413.337 -2.21837 -0.636939 0
M  V30 4228 C 414.307 -1.18596 -1.16294 0
M  V30 4229 O 415.492 -1.47081 -1.21539 0
M  V30 4230 C 412.632 -2.9301 -1.82317 0
M  V30 4231 C 411.745 -4.10931 -1.33265 0
M  V30 4232 C 410.88 -4.69791 -2.47931 0
M  V30 4233 C 409.919 -5.7994 -1.95796 0
M  V30 4234 N 409.056 -6.32935 -3.0387 0
M  V30 4235 H 413.896 -2.9793 -0.0643591 0
M  V30 4236 H 411.433 -1.47086 -0.0200031 0
M  V30 4237 H 413.391 -3.3248 -2.52018 0
M  V30 4238 H 412.021 -2.1937 -2.36805 0
M  V30 4239 H 411.073 -3.76699 -0.52931 0
M  V30 4240 H 412.385 -4.90417 -0.910654 0
M  V30 4241 H 411.539 -5.11892 -3.25656 0
M  V30 4242 H 410.278 -3.89545 -2.93438 0
M  V30 4243 H 409.283 -5.37305 -1.16546 0
M  V30 4244 H 410.508 -6.62043 -1.51246 0
M  V30 4245 H 408.454 -5.55591 -3.48791 0
M  V30 4246 H 408.371 -7.07645 -2.66035 0
M  V30 4247 H 409.639 -6.79695 -3.81621 0
M  V30 4248 N 413.868 0.0150385 -1.57593 0
M  V30 4249 C 414.778 1.02791 -2.10882 0
M  V30 4250 C 415.794 1.38702 -1.0506 0
M  V30 4251 O 416.97 1.47739 -1.36877 0
M  V30 4252 C 414.035 2.30568 -2.58919 0
M  V30 4253 C 413.096 2.01108 -3.79281 0
M  V30 4254 C 412.329 3.22794 -4.25018 0
M  V30 4255 O 412.552 4.33959 -3.70183 0
M  V30 4256 O 411.486 3.07672 -5.17322 0
M  V30 4257 H 415.312 0.604973 -2.97613 0
M  V30 4258 H 412.897 0.23292 -1.47573 0
M  V30 4259 H 414.779 3.05662 -2.90084 0
M  V30 4260 H 413.454 2.72129 -1.75293 0
M  V30 4261 H 412.361 1.23537 -3.53114 0
M  V30 4262 H 413.694 1.64394 -4.63935 0
M  V30 4263 N 415.346 1.54954 0.287554 0
M  V30 4264 C 416.623 1.65569 1.04146 0
M  V30 4265 C 417.003 0.512672 2.0478 0
M  V30 4266 O 416.351 -0.489038 2.23205 0
M  V30 4267 C 416.561 3.04163 1.71131 0
M  V30 4268 C 417.909 3.61429 2.22832 0
M  V30 4269 O 418.933 3.06702 1.81141 0
M  V30 4270 O 417.792 4.57281 2.9926 0
M  V30 4271 H 414.886 0.671881 0.482188 0
M  V30 4272 H 417.432 1.67297 0.28457 0
M  V30 4273 H 416.204 3.78796 0.981303 0
M  V30 4274 H 415.827 3.06271 2.53543 0
M  V30 4275 N 416.824 -0.551391 1.4764 0
M  V30 4276 C 418.07 -1.31024 1.54792 0
M  V30 4277 C 418.403 -1.9304 0.211967 0
M  V30 4278 O 417.678 -1.78175 -0.77999 0
M  V30 4279 C 417.961 -2.41593 2.67029 0
M  V30 4280 C 417.814 -1.84408 4.10261 0
M  V30 4281 C 419.133 -3.43488 2.75143 0
M  V30 4282 H 416.252 -0.475031 0.563485 0
M  V30 4283 H 418.894 -0.616454 1.79722 0
M  V30 4284 H 417.044 -3.00772 2.45904 0
M  V30 4285 H 418.716 -1.29445 4.42766 0
M  V30 4286 H 416.959 -1.15051 4.18265 0
M  V30 4287 H 417.63 -2.64367 4.84576 0
M  V30 4288 H 420.106 -2.94236 2.94218 0
M  V30 4289 H 418.982 -4.18274 3.55441 0
M  V30 4290 H 419.243 -4.02703 1.82435 0
M  V30 4291 N 418.302 -1.35869 -0.798587 0
M  V30 4292 C 419.252 -1.25982 -1.90033 0
M  V30 4293 C 420.236 -0.153303 -1.60168 0
M  V30 4294 O 421.428 -0.38527 -1.72756 0
M  V30 4295 C 418.557 -1.04211 -3.27101 0
M  V30 4296 C 417.643 -2.19289 -3.63006 0
M  V30 4297 N 418.034 -3.44559 -3.70287 0
M  V30 4298 C 416.332 -2.10852 -3.93011 0
M  V30 4299 C 417.033 -4.20283 -4.02166 0
M  V30 4300 N 416.009 -3.49124 -4.16669 0
M  V30 4301 H 419.811 -2.20883 -1.93876 0
M  V30 4302 H 417.325 -1.28457 -0.993614 0
M  V30 4303 H 419.322 -0.952155 -4.05881 0
M  V30 4304 H 417.982 -0.102013 -3.2454 0
M  V30 4305 H 418.993 -3.7881 -3.53162 0
M  V30 4306 H 415.67 -1.24744 -3.98428 0
M  V30 4307 H 417.06 -5.28575 -4.14799 0
M  V30 4308 N 419.78 1.02168 -1.19998 0
M  V30 4309 C 421.02 1.77232 -1.01825 0
M  V30 4310 C 421.384 1.86833 0.442428 0
M  V30 4311 O 422.585 2.58293 0.744189 0
M  V30 4312 C 420.856 3.15601 -1.67722 0
M  V30 4313 S 422.415 4.06765 -1.64584 0
M  V30 4314 H 419.233 0.610021 -0.365233 0
M  V30 4315 H 421.835 1.22368 -1.52467 0
M  V30 4316 H 420.539 3.06235 -2.73218 0
M  V30 4317 H 420.07 3.7554 -1.17189 0
M  V30 4318 H 422.085 4.91586 -0.67511 0
M  V30 4319 N 421.258 1.00505 1.21394 0
M  V30 4320 C 422.488 0.705584 1.94178 0
M  V30 4321 C 422.896 -0.735846 1.74304 0
M  V30 4322 O 422.239 -1.50954 1.04683 0
M  V30 4323 C 422.301 0.94689 3.46806 0
M  V30 4324 C 421.965 2.37517 3.90429 0
M  V30 4325 C 422.962 3.35539 3.97127 0
M  V30 4326 C 420.647 2.71284 4.22742 0
M  V30 4327 C 422.641 4.65395 4.3553 0
M  V30 4328 C 420.328 4.01356 4.60822 0
M  V30 4329 C 421.326 4.98223 4.67186 0
M  V30 4330 O 421.014 6.25969 5.04399 0
M  V30 4331 H 420.746 0.259216 0.624326 0
M  V30 4332 H 423.3 1.34592 1.55159 0
M  V30 4333 H 421.53 0.249386 3.85895 0
M  V30 4334 H 423.219 0.640804 4.0081 0
M  V30 4335 H 423.985 3.10786 3.7234 0
M  V30 4336 H 419.864 1.96581 4.16985 0
M  V30 4337 H 423.408 5.41002 4.40412 0
M  V30 4338 H 419.305 4.25893 4.85063 0
M  V30 4339 H 420.073 6.30085 5.22431 0
M  V30 4340 N 422.737 -1.36956 0.779787 0
M  V30 4341 C 423.962 -2.04283 0.358224 0
M  V30 4342 C 424.387 -1.58422 -1.01411 0
M  V30 4343 O 423.745 -0.748179 -1.65142 0
M  V30 4344 C 423.793 -3.58152 0.419479 0
M  V30 4345 O 422.897 -4.08342 -0.577142 0
M  V30 4346 H 422.238 -0.645967 0.153698 0
M  V30 4347 H 424.768 -1.75108 1.05822 0
M  V30 4348 H 424.778 -4.07041 0.279636 0
M  V30 4349 H 423.453 -3.90886 1.42061 0
M  V30 4350 H 422.03 -3.70751 -0.399755 0
M  V30 4351 N 424.215 -0.530993 -1.48385 0
M  V30 4352 C 425.148 0.278511 -2.26494 0
M  V30 4353 C 426.126 0.943905 -1.32398 0
M  V30 4354 O 427.31 0.968098 -1.61741 0
M  V30 4355 C 424.437 1.39453 -3.08659 0
M  V30 4356 C 423.483 0.840434 -4.18137 0
M  V30 4357 S 424.316 -0.292496 -5.34701 0
M  V30 4358 C 425.472 0.825973 -6.20426 0
M  V30 4359 H 425.705 -0.384365 -2.94805 0
M  V30 4360 H 423.238 -0.316799 -1.51115 0
M  V30 4361 H 425.196 2.03382 -3.56575 0
M  V30 4362 H 423.857 2.02913 -2.3976 0
M  V30 4363 H 423.05 1.67769 -4.75257 0
M  V30 4364 H 422.652 0.277819 -3.72967 0
M  V30 4365 H 424.944 1.72438 -6.55188 0
M  V30 4366 H 425.887 0.292728 -7.07495 0
M  V30 4367 H 426.295 1.10683 -5.53543 0
M  V30 4368 N 425.693 1.55336 -0.266172 0
M  V30 4369 C 426.625 2.19544 0.658247 0
M  V30 4370 C 427.638 1.17746 1.12427 0
M  V30 4371 O 428.827 1.44517 1.04772 0
M  V30 4372 C 425.927 2.80032 1.9088 0
M  V30 4373 C 425.1 4.07436 1.59106 0
M  V30 4374 C 424.159 4.52056 2.69317 0
M  V30 4375 O 423.185 5.18023 2.35883 0
M  V30 4376 N 424.387 4.21448 3.99201 0
M  V30 4377 H 427.152 2.99503 0.108754 0
M  V30 4378 H 424.713 1.61667 -0.0869059 0
M  V30 4379 H 426.705 3.06831 2.63888 0
M  V30 4380 H 425.275 2.04119 2.36758 0
M  V30 4381 H 424.495 3.88021 0.695243 0
M  V30 4382 H 425.783 4.90462 1.35367 0
M  V30 4383 H 425.181 3.68528 4.29189 0
M  V30 4384 H 423.738 4.53039 4.68614 0
M  V30 4385 N 427.171 -0.0066808 1.57599 0
M  V30 4386 C 428.396 -0.707738 1.94951 0
M  V30 4387 C 428.821 -1.66882 0.867868 0
M  V30 4388 O 428.179 -1.80457 -0.17458 0
M  V30 4389 C 428.227 -1.42162 3.31394 0
M  V30 4390 O 427.331 -2.53578 3.25226 0
M  V30 4391 H 426.672 -0.188752 0.636607 0
M  V30 4392 H 429.202 0.0445193 2.04552 0
M  V30 4393 H 429.212 -1.78655 3.66806 0
M  V30 4394 H 427.887 -0.716903 4.09675 0
M  V30 4395 H 426.464 -2.19463 3.01481 0
M  V30 4396 N 428.649 -1.55105 -0.279332 0
M  V30 4397 C 429.596 -1.8755 -1.34513 0
M  V30 4398 C 430.566 -0.726384 -1.49375 0
M  V30 4399 O 431.751 -0.977063 -1.63884 0
M  V30 4400 C 428.891 -2.14738 -2.70151 0
M  V30 4401 C 428.004 -3.42285 -2.63562 0
M  V30 4402 C 427.139 -3.59206 -3.91337 0
M  V30 4403 C 426.178 -4.80467 -3.79233 0
M  V30 4404 N 425.315 -4.94079 -4.98829 0
M  V30 4405 H 430.155 -2.78456 -1.06143 0
M  V30 4406 H 427.692 -1.37867 -0.512936 0
M  V30 4407 H 429.65 -2.28501 -3.49061 0
M  V30 4408 H 428.28 -1.27075 -2.96735 0
M  V30 4409 H 427.332 -3.37029 -1.76397 0
M  V30 4410 H 428.644 -4.31328 -2.50515 0
M  V30 4411 H 427.798 -3.72751 -4.78687 0
M  V30 4412 H 426.537 -2.68337 -4.07243 0
M  V30 4413 H 425.542 -4.66932 -2.90266 0
M  V30 4414 H 426.767 -5.72765 -3.64852 0
M  V30 4415 H 424.713 -4.06139 -5.15158 0
M  V30 4416 H 424.63 -5.77156 -4.8829 0
M  V30 4417 H 425.898 -5.12003 -5.8777 0
M  V30 4418 O 430.166 0.425144 -1.55804 0
M  V30 4419 H 430.857 1.07829 -1.60912 0
M  V30 END ATOM
M  V30 BEGIN BOND
M  V30 END BOND
M  V30 END CTAB
M  END
$$$$
