drugbank_target|P27915 Genome polyprotein (DB04473)
 OpenBabel12092120253D

  0  0  0     0  0            999 V3000
M  V30 BEGIN CTAB
M  V30 COUNTS 53341 53921 0 0 0
M  V30 BEGIN ATOM
M  V30 1 H -0.908 1.98254 -0.117106 0
M  V30 2 N 0 1.576 0 0
M  V30 3 C 0.933 2.03868 1.02534 0
M  V30 4 C 1.911 0.928543 1.3348 0
M  V30 5 O 3.095 1.19667 1.45644 0
M  V30 6 C 0.222 2.43627 2.35294 0
M  V30 7 C -0.732 3.65373 2.2001 0
M  V30 8 S 0.101 5.13292 1.52614 0
M  V30 9 C 1.257 5.56322 2.86805 0
M  V30 10 H 1.49 2.90518 0.631377 0
M  V30 11 H -0.977 1.52953 0.210867 0
M  V30 12 H 0.981 2.67203 3.11629 0
M  V30 13 H -0.358 1.57376 2.7183 0
M  V30 14 H -1.165 3.90944 3.18086 0
M  V30 15 H -1.563 3.418 1.51819 0
M  V30 16 H 0.729 5.58782 3.83104 0
M  V30 17 H 1.672 6.56266 2.65933 0
M  V30 18 H 2.08 4.83886 2.90714 0
M  V30 19 N 1.4781 -0.272755 1.55222 0
M  V30 20 C 2.4261 -1.35705 1.88909 0
M  V30 21 C 3.4201 -1.5112 0.765456 0
M  V30 22 O 4.6261 -1.52901 0.949802 0
M  V30 23 H 1.0011 -0.453868 0.59959 0
M  V30 24 H 2.9721 -1.04544 2.79487 0
M  V30 25 C 1.7211 -2.71049 2.17779 0
M  V30 26 H 1.0441 -2.59979 3.03728 0
M  V30 27 H 2.4841 -3.45858 2.45272 0
M  V30 28 C 0.9431 -3.22165 0.985473 0
M  V30 29 O 1.4731 -4.01096 0.220233 0
M  V30 30 N -0.3209 -2.7985 0.783108 0
M  V30 31 H -0.7739 -2.15775 1.40708 0
M  V30 32 H -0.8159 -3.14397 -0.0130392 0
M  V30 33 N 2.9562 -1.48159 -0.537278 0
M  V30 34 C 3.9042 -1.62573 -1.66352 0
M  V30 35 C 4.8982 -0.492366 -1.62087 0
M  V30 36 O 6.1042 -0.670847 -1.67032 0
M  V30 37 H 2.4792 -0.511992 -0.550789 0
M  V30 38 H 4.4502 -2.57176 -1.51337 0
M  V30 39 C 3.1992 -1.67583 -3.04649 0
M  V30 40 H 2.5222 -2.54151 -3.08622 0
M  V30 41 H 3.9622 -1.81713 -3.83088 0
M  V30 42 C 2.4212 -0.413039 -3.34358 0
M  V30 43 O 2.9512 0.477259 -3.98855 0
M  V30 44 N 1.1572 -0.286961 -2.8918 0
M  V30 45 H 0.7042 -1.01241 -2.36871 0
M  V30 46 H 0.6622 0.556963 -3.09427 0
M  V30 47 N 4.4343 0.785586 -1.36625 0
M  V30 48 C 5.3663 1.90711 -1.2713 0
M  V30 49 C 6.3793 1.61688 -0.189986 0
M  V30 50 O 7.5683 1.72864 -0.445014 0
M  V30 51 C 4.6683 3.25611 -0.939713 0
M  V30 52 C 3.8413 3.82385 -2.12369 0
M  V30 53 C 2.9003 4.95732 -1.76456 0
M  V30 54 O 1.9263 5.12047 -2.48589 0
M  V30 55 N 3.1283 5.76258 -0.700492 0
M  V30 56 H 5.8933 1.99376 -2.23762 0
M  V30 57 H 3.4543 0.964041 -1.30069 0
M  V30 58 H 5.4463 3.98937 -0.680554 0
M  V30 59 H 4.0163 3.12538 -0.0624074 0
M  V30 60 H 3.2363 3.01001 -2.54543 0
M  V30 61 H 4.5243 4.17047 -2.9146 0
M  V30 62 H 3.9223 5.65609 -0.101624 0
M  V30 63 H 2.4793 6.4987 -0.501165 0
M  V30 64 N 5.9124 1.20967 1.01018 0
M  V30 65 C 7.3284 0.965905 1.27053 0
M  V30 66 C 7.5284 -0.350785 1.98423 0
M  V30 67 O 6.5844 -1.07773 2.28344 0
M  V30 68 C 7.8974 2.15294 2.09926 0
M  V30 69 C 9.4454 2.19463 2.23171 0
M  V30 70 C 9.9204 3.3767 3.09424 0
M  V30 71 N 11.4114 3.37724 3.17012 0
M  V30 72 C 12.1464 4.25837 3.83993 0
M  V30 73 N 11.6424 5.24138 4.53047 0
M  V30 74 N 13.4354 4.1366 3.80581 0
M  V30 75 H 5.5864 2.0565 0.531194 0
M  V30 76 H 7.8494 0.90024 0.297106 0
M  V30 77 H 7.5554 3.10684 1.64828 0
M  V30 78 H 7.4294 2.13923 3.10672 0
M  V30 79 H 9.8164 1.24632 2.6749 0
M  V30 80 H 9.8974 2.2488 1.21912 0
M  V30 81 H 9.5414 4.32791 2.65808 0
M  V30 82 H 9.4714 3.29491 4.10784 0
M  V30 83 H 11.9624 2.6658 2.6785 0
M  V30 84 H 12.2754 5.87684 5.01844 0
M  V30 85 H 10.6204 5.28068 4.5185 0
M  V30 86 H 13.8114 3.36127 3.25785 0
M  V30 87 H 13.9844 4.82538 4.32505 0
M  V30 88 N 7.3905 -1.2043 1.01659 0
M  V30 89 C 8.3375 -2.23215 0.586822 0
M  V30 90 C 9.3075 -1.61382 -0.393085 0
M  V30 91 O 10.4925 -1.88544 -0.292525 0
M  V30 92 C 7.6325 -3.45032 -0.0687464 0
M  V30 93 C 6.7455 -4.21296 0.955724 0
M  V30 94 C 5.8805 -5.30507 0.271208 0
M  V30 95 C 4.9195 -5.98515 1.28244 0
M  V30 96 N 4.0565 -6.99316 0.62459 0
M  V30 97 H 8.8965 -2.59336 1.46796 0
M  V30 98 H 6.4335 -1.27431 0.734836 0
M  V30 99 H 8.3915 -4.1459 -0.465965 0
M  V30 100 H 7.0215 -3.09604 -0.913529 0
M  V30 101 H 6.0735 -3.50803 1.4711 0
M  V30 102 H 7.3855 -4.6803 1.72479 0
M  V30 103 H 6.5395 -6.06428 -0.18151 0
M  V30 104 H 5.2785 -4.8481 -0.530163 0
M  V30 105 H 4.2835 -5.21355 1.74554 0
M  V30 106 H 5.5085 -6.46298 2.08509 0
M  V30 107 H 3.4545 -6.55812 -0.156914 0
M  V30 108 H 3.3715 -7.44178 1.33172 0
M  V30 109 H 4.6395 -7.79255 0.195462 0
M  V30 110 N 8.8686 -0.792821 -1.36206 0
M  V30 111 C 9.8156 -0.191653 -2.30003 0
M  V30 112 C 10.7856 0.666453 -1.52143 0
M  V30 113 O 11.9706 0.61442 -1.80636 0
M  V30 114 C 9.1106 0.664848 -3.38635 0
M  V30 115 C 8.2236 -0.212175 -4.31479 0
M  V30 116 C 7.3586 0.651022 -5.27196 0
M  V30 117 C 6.3976 -0.227247 -6.11678 0
M  V30 118 N 5.5346 0.595127 -6.99573 0
M  V30 119 H 10.3746 -0.996978 -2.80828 0
M  V30 120 H 7.9116 -0.503206 -1.38225 0
M  V30 121 H 9.8696 1.17645 -4.00269 0
M  V30 122 H 8.4996 1.43557 -2.89122 0
M  V30 123 H 7.5516 -0.841777 -3.70969 0
M  V30 124 H 8.8636 -0.888751 -4.90818 0
M  V30 125 H 8.0176 1.2283 -5.94136 0
M  V30 126 H 6.7566 1.36121 -4.68319 0
M  V30 127 H 5.7616 -0.816904 -5.43697 0
M  V30 128 H 6.9866 -0.93509 -6.72631 0
M  V30 129 H 4.9326 1.28955 -6.432 0
M  V30 130 H 4.8496 -0.0236952 -7.55996 0
M  V30 131 H 6.1176 1.15613 -7.70879 0
M  V30 132 N 10.3467 1.47872 -0.545128 0
M  V30 133 C 11.5747 2.06889 -0.021084 0
M  V30 134 C 11.9897 1.39955 1.2672 0
M  V30 135 O 11.3467 0.492036 1.75742 0
M  V30 136 C 11.3977 3.60996 0.190817 0
M  V30 137 O 11.1187 4.25419 -1.04644 0
M  V30 138 C 12.6197 4.36849 0.753521 0
M  V30 139 H 9.8397 0.669785 -0.0403635 0
M  V30 140 H 12.3837 1.90049 -0.755095 0
M  V30 141 H 10.5387 3.77391 0.87492 0
M  V30 142 H 10.9527 5.17785 -0.836611 0
M  V30 143 H 12.4267 5.45399 0.851139 0
M  V30 144 H 12.9037 4.02306 1.762 0
M  V30 145 H 13.5097 4.25169 0.105503 0
M  V30 146 N 11.8248 0.280983 1.55075 0
M  V30 147 C 13.0728 -0.333455 1.9933 0
M  V30 148 C 13.3938 -1.55937 1.17085 0
M  V30 149 O 12.6638 -1.94143 0.261805 0
M  V30 150 H 11.2438 -0.126197 0.736263 0
M  V30 151 H 13.9058 0.387678 1.91005 0
M  V30 152 H 13.0018 -0.619292 3.05894 0
M  V30 153 N 13.3029 -1.57598 0.00835791 0
M  V30 154 C 14.2499 -2.08945 -0.980346 0
M  V30 155 C 15.2199 -0.986738 -1.33614 0
M  V30 156 O 16.4049 -1.25968 -1.43306 0
M  V30 157 C 13.5449 -2.60425 -2.26435 0
M  V30 158 C 12.6579 -3.84628 -1.96685 0
M  V30 159 C 11.7929 -4.24579 -3.19228 0
M  V30 160 C 10.8319 -5.41596 -2.85202 0
M  V30 161 N 9.9689 -5.768 -4.00307 0
M  V30 162 H 14.8089 -2.93148 -0.535551 0
M  V30 163 H 12.3459 -1.44912 -0.252776 0
M  V30 164 H 14.3039 -2.88354 -3.01509 0
M  V30 165 H 12.9339 -1.79083 -2.68568 0
M  V30 166 H 11.9859 -3.63556 -1.11942 0
M  V30 167 H 13.2979 -4.69796 -1.67611 0
M  V30 168 H 12.4519 -4.53834 -4.02641 0
M  V30 169 H 11.1909 -3.38137 -3.51447 0
M  V30 170 H 10.1959 -5.12056 -2.00198 0
M  V30 171 H 11.4209 -6.29721 -2.54222 0
M  V30 172 H 9.3669 -4.93316 -4.32407 0
M  V30 173 H 9.2839 -6.5656 -3.74786 0
M  V30 174 H 10.5519 -6.10652 -4.84484 0
M  V30 175 N 14.781 0.264519 -1.55364 0
M  V30 176 C 16.192 0.834936 -1.6699 0
M  V30 177 C 16.543 1.86718 -0.602552 0
M  V30 178 O 15.668 2.14899 0.254425 0
M  V30 179 C 16.263 1.5212 -3.02729 0
M  V30 180 C 14.822 2.03954 -3.16354 0
M  V30 181 C 13.969 0.884498 -2.62815 0
M  V30 182 H 16.92 0.0406869 -1.58648 0
M  V30 183 H 16.941 2.38853 -2.96191 0
M  V30 184 H 16.453 0.769668 -3.80392 0
M  V30 185 H 14.554 2.82041 -2.43482 0
M  V30 186 H 14.667 2.24902 -4.23032 0
M  V30 187 H 13.031 1.2802 -2.20188 0
M  V30 188 H 13.814 0.14634 -3.42988 0
M  V30 189 N 16.2591 1.48442 0.529413 0
M  V30 190 C 17.4841 1.60406 1.31471 0
M  V30 191 C 17.9091 0.264738 1.86228 0
M  V30 192 O 17.2671 -0.763668 1.64432 0
M  V30 193 C 17.3151 2.65419 2.44101 0
M  V30 194 O 16.4191 2.22618 3.47153 0
M  V30 195 H 15.7601 0.537863 0.389357 0
M  V30 196 H 18.2901 1.94432 0.636965 0
M  V30 197 H 18.3001 2.86709 2.90279 0
M  V30 198 H 16.9751 3.62652 2.03608 0
M  V30 199 H 15.5521 2.11543 3.0709 0
M  V30 200 N 17.7372 -0.778329 1.37039 0
M  V30 201 C 18.9862 -1.53189 1.3121 0
M  V30 202 C 19.2992 -1.95328 -0.103095 0
M  V30 203 O 20.5052 -2.70012 -0.283826 0
M  V30 204 C 18.9612 -2.76591 2.30272 0
M  V30 205 C 18.5692 -2.41577 3.77286 0
M  V30 206 C 20.3132 -3.5455 2.33441 0
M  V30 207 C 18.2202 -3.61441 4.68096 0
M  V30 208 H 17.1502 -0.5751 0.487622 0
M  V30 209 H 19.8012 -0.853101 1.62464 0
M  V30 210 H 18.1832 -3.46326 1.92027 0
M  V30 211 H 19.3572 -1.79668 4.2433 0
M  V30 212 H 17.6722 -1.76806 3.76999 0
M  V30 213 H 20.2692 -4.43628 2.98493 0
M  V30 214 H 20.6122 -3.93936 1.34611 0
M  V30 215 H 21.1452 -2.91805 2.7036 0
M  V30 216 H 17.8842 -3.27142 5.6803 0
M  V30 217 H 17.4042 -4.22478 4.25761 0
M  V30 218 H 19.0832 -4.28335 4.8491 0
M  V30 219 N 19.2153 -1.21501 -1.00376 0
M  V30 220 C 20.1633 -0.972442 -2.11297 0
M  V30 221 C 21.1573 0.080731 -1.69208 0
M  V30 222 O 22.3633 -0.0707666 -1.79861 0
M  V30 223 H 18.7383 -0.297218 -0.690772 0
M  V30 224 H 20.7093 -1.91394 -2.28934 0
M  V30 225 C 19.4583 -0.555065 -3.43241 0
M  V30 226 H 18.7813 -1.35709 -3.76062 0
M  V30 227 H 20.2213 -0.424664 -4.21868 0
M  V30 228 C 18.6803 0.734147 -3.28804 0
M  V30 229 O 19.2103 1.78937 -3.59645 0
M  V30 230 N 17.4163 0.701133 -2.82015 0
M  V30 231 H 16.9633 -0.157874 -2.57116 0
M  V30 232 H 16.9213 1.56403 -2.72737 0
M  V30 233 N 20.6934 1.19889 -1.02296 0
M  V30 234 C 21.6264 2.21639 -0.543282 0
M  V30 235 C 22.6044 1.57275 0.412698 0
M  V30 236 O 23.7884 1.85568 0.331198 0
M  V30 237 C 20.9154 3.38057 0.208571 0
M  V30 238 C 19.9614 4.20751 -0.697933 0
M  V30 239 S 20.7944 4.89529 -2.17075 0
M  V30 240 C 21.9504 6.09363 -1.42923 0
M  V30 241 H 22.1834 2.61984 -1.40541 0
M  V30 242 H 19.7164 1.30041 -0.832387 0
M  V30 243 H 21.6744 4.05539 0.63624 0
M  V30 244 H 20.3354 2.96159 1.04635 0
M  V30 245 H 19.5284 5.03862 -0.117831 0
M  V30 246 H 19.1304 3.58556 -1.06366 0
M  V30 247 H 21.4224 6.73742 -0.712637 0
M  V30 248 H 22.3654 6.71845 -2.23673 0
M  V30 249 H 22.7734 5.56798 -0.929327 0
M  V30 250 N 22.1715 0.800033 1.35784 0
M  V30 251 C 23.1015 0.220184 2.3246 0
M  V30 252 C 24.0825 -0.65073 1.57161 0
M  V30 253 O 25.2675 -0.582359 1.85263 0
M  V30 254 C 22.3975 -0.637353 3.41402 0
M  V30 255 C 21.3515 0.134531 4.27789 0
M  V30 256 C 20.6775 -0.844285 5.27992 0
M  V30 257 C 21.9775 1.32979 5.05088 0
M  V30 258 H 23.6715 1.02787 2.81203 0
M  V30 259 H 21.2175 0.495717 1.35199 0
M  V30 260 H 23.1705 -1.05302 4.08031 0
M  V30 261 H 21.8945 -1.47785 2.91251 0
M  V30 262 H 20.5535 0.531296 3.6273 0
M  V30 263 H 20.2015 -1.68011 4.74111 0
M  V30 264 H 19.9015 -0.332184 5.8666 0
M  V30 265 H 21.4255 -1.2583 5.97494 0
M  V30 266 H 22.8395 0.98934 5.64699 0
M  V30 267 H 21.2365 1.77593 5.7322 0
M  V30 268 H 22.3065 2.11978 4.36111 0
M  V30 269 N 23.6496 -1.47581 0.552962 0
M  V30 270 C 24.5966 -2.29957 -0.197108 0
M  V30 271 C 25.5666 -1.38799 -0.912359 0
M  V30 272 O 26.7516 -1.67761 -0.908888 0
M  V30 273 C 23.8916 -3.22672 -1.22379 0
M  V30 274 C 23.0046 -4.28919 -0.515038 0
M  V30 275 C 22.1396 -5.0879 -1.52664 0
M  V30 276 C 21.1786 -6.06815 -0.802631 0
M  V30 277 N 20.3156 -6.7966 -1.76086 0
M  V30 278 H 25.1556 -2.93578 0.511486 0
M  V30 279 H 22.6926 -1.4471 0.264067 0
M  V30 280 H 24.6506 -3.74845 -1.83159 0
M  V30 281 H 23.2806 -2.60925 -1.90047 0
M  V30 282 H 22.3326 -3.79835 0.207192 0
M  V30 283 H 23.6446 -4.98773 0.0523425 0
M  V30 284 H 22.7986 -5.65091 -2.20809 0
M  V30 285 H 21.5376 -4.38828 -2.12794 0
M  V30 286 H 20.5426 -5.49695 -0.107238 0
M  V30 287 H 21.7676 -6.78784 -0.207135 0
M  V30 288 H 19.7136 -6.12432 -2.35081 0
M  V30 289 H 19.6306 -7.45669 -1.24552 0
M  V30 290 H 20.8986 -7.40538 -2.43359 0
M  V30 291 N 25.1277 -0.289203 -1.54924 0
M  V30 292 C 26.5437 0.0645403 -1.59469 0
M  V30 293 C 26.7437 1.53419 -1.30632 0
M  V30 294 O 25.7997 2.2852 -1.074 0
M  V30 295 C 27.1127 -0.32278 -2.98963 0
M  V30 296 C 28.6607 -0.270564 -3.11828 0
M  V30 297 C 29.1357 -0.632532 -4.53611 0
M  V30 298 N 30.6267 -0.584617 -4.59496 0
M  V30 299 C 31.3617 -0.837314 -5.67254 0
M  V30 300 N 30.8577 -1.15536 -6.83098 0
M  V30 301 N 32.6507 -0.765166 -5.56868 0
M  V30 302 H 24.8017 -1.24714 -1.71931 0
M  V30 303 H 27.0647 -0.504809 -0.802416 0
M  V30 304 H 26.7707 -1.34541 -3.24948 0
M  V30 305 H 26.6447 0.32944 -3.75759 0
M  V30 306 H 29.0317 0.742805 -2.85598 0
M  V30 307 H 29.1127 -0.957242 -2.37214 0
M  V30 308 H 28.7567 -1.64365 -4.80569 0
M  V30 309 H 28.6867 0.07609 -5.26545 0
M  V30 310 H 31.1777 -0.349248 -3.76283 0
M  V30 311 H 31.4907 -1.33447 -7.61191 0
M  V30 312 H 29.8357 -1.19328 -6.84679 0
M  V30 313 H 33.0267 -0.516432 -4.65243 0
M  V30 314 H 33.1997 -0.965477 -6.40767 0
M  V30 315 N 26.6058 1.57591 -0.0167156 0
M  V30 316 C 27.8518 1.91567 0.665582 0
M  V30 317 C 28.1848 0.892298 1.72487 0
M  V30 318 O 27.4598 -0.0867127 1.94307 0
M  V30 319 C 27.7428 3.36069 1.29342 0
M  V30 320 C 27.5958 4.49135 0.244541 0
M  V30 321 C 28.9148 3.803 2.21495 0
M  V30 322 H 26.0338 0.69666 0.240488 0
M  V30 323 H 28.6758 1.89866 -0.0714356 0
M  V30 324 H 26.8258 3.3765 1.92158 0
M  V30 325 H 28.4978 4.59689 -0.385228 0
M  V30 326 H 26.7408 4.3165 -0.431379 0
M  V30 327 H 27.4118 5.47242 0.723207 0
M  V30 328 H 29.8878 3.80377 1.68678 0
M  V30 329 H 28.7638 4.82127 2.62382 0
M  V30 330 H 29.0248 3.15104 3.101 0
M  V30 331 N 28.0839 -0.256276 1.55502 0
M  V30 332 C 29.4999 -0.604325 1.47716 0
M  V30 333 C 29.6999 -1.88763 0.705039 0
M  V30 334 O 28.7559 -2.51445 0.230613 0
M  V30 335 C 30.0689 -0.715756 2.92057 0
M  V30 336 C 31.6169 -0.808706 3.02372 0
M  V30 337 C 32.0919 -0.951777 4.48001 0
M  V30 338 N 33.5829 -1.01688 4.519 0
M  V30 339 C 34.3179 -1.14668 5.61817 0
M  V30 340 N 33.8139 -1.24261 6.81565 0
M  V30 341 N 35.6069 -1.1791 5.49594 0
M  V30 342 H 27.7579 0.586291 2.04148 0
M  V30 343 H 30.0209 0.201015 0.926443 0
M  V30 344 H 29.7269 0.157027 3.51349 0
M  V30 345 H 29.6009 -1.59071 3.42018 0
M  V30 346 H 31.9879 -1.67195 2.43166 0
M  V30 347 H 32.0689 0.0912063 2.55637 0
M  V30 348 H 31.7129 -0.0931291 5.07815 0
M  V30 349 H 31.6429 -1.86659 4.92408 0
M  V30 350 H 34.1339 -0.954468 3.65648 0
M  V30 351 H 34.4469 -1.34046 7.61086 0
M  V30 352 H 32.7919 -1.21236 6.84344 0
M  V30 353 H 35.9829 -1.10057 4.54978 0
M  V30 354 H 36.1559 -1.27681 6.35296 0
M  V30 355 N 29.562 -1.4872 -0.521534 0
M  V30 356 C 30.51 -1.64328 -1.64618 0
M  V30 357 C 31.504 -0.50953 -1.61555 0
M  V30 358 O 32.71 -0.688525 -1.66311 0
M  V30 359 H 29.085 -0.517805 -0.545328 0
M  V30 360 H 31.056 -2.58767 -1.48601 0
M  V30 361 C 29.805 -1.70805 -3.02855 0
M  V30 362 H 29.128 -2.5741 -3.05909 0
M  V30 363 H 30.568 -1.85766 -3.81139 0
M  V30 364 C 29.027 -0.448479 -3.33902 0
M  V30 365 O 29.557 0.434928 -3.99339 0
M  V30 366 N 27.763 -0.317616 -2.88859 0
M  V30 367 H 27.31 -1.03748 -2.35784 0
M  V30 368 H 27.268 0.524113 -3.10001 0
M  V30 369 N 31.0401 0.771051 -1.3745 0
M  V30 370 C 32.4561 1.07171 -1.18265 0
M  V30 371 C 32.6561 2.01491 -0.019287 0
M  V30 372 O 31.7121 2.44244 0.640408 0
M  V30 373 C 33.0251 1.66854 -2.50161 0
M  V30 374 C 34.5731 1.79109 -2.56689 0
M  V30 375 C 35.0481 2.42205 -3.88717 0
M  V30 376 N 36.5391 2.49655 -3.90162 0
M  V30 377 C 37.2741 2.9933 -4.8907 0
M  V30 378 N 36.7701 3.49172 -5.98374 0
M  V30 379 N 38.5631 2.9821 -4.76474 0
M  V30 380 H 30.7141 0.144796 -2.11906 0
M  V30 381 H 32.9771 0.126863 -0.939473 0
M  V30 382 H 32.6831 1.05017 -3.35655 0
M  V30 383 H 32.5571 2.6614 -2.673 0
M  V30 384 H 34.9441 2.40077 -1.71601 0
M  V30 385 H 35.0251 0.785757 -2.43433 0
M  V30 386 H 34.6691 1.81875 -4.74219 0
M  V30 387 H 34.5991 3.43345 -3.99276 0
M  V30 388 H 37.0901 2.14383 -3.11205 0
M  V30 389 H 37.4031 3.8548 -6.69795 0
M  V30 390 H 35.7481 3.47275 -6.02018 0
M  V30 391 H 38.9391 2.58572 -3.90203 0
M  V30 392 H 39.1121 3.36613 -5.53711 0
M  V30 393 N 32.5182 1.22032 0.997298 0
M  V30 394 C 33.7642 1.04376 1.73878 0
M  V30 395 C 34.0972 -0.420716 1.89588 0
M  V30 396 O 33.3722 -1.31202 1.43583 0
M  V30 397 C 33.6552 1.75047 3.14691 0
M  V30 398 C 33.5082 3.29062 3.06656 0
M  V30 399 C 34.8272 1.49928 4.13775 0
M  V30 400 H 31.9462 0.380578 0.631133 0
M  V30 401 H 34.5882 1.50312 1.16217 0
M  V30 402 H 32.7382 1.35996 3.63919 0
M  V30 403 H 34.4102 3.7753 2.65083 0
M  V30 404 H 32.6532 3.58967 2.43568 0
M  V30 405 H 33.3242 3.73683 4.06282 0
M  V30 406 H 35.8002 1.83842 3.73285 0
M  V30 407 H 34.6762 2.01878 5.10428 0
M  V30 408 H 34.9372 0.430929 4.39995 0
M  V30 409 N 33.9963 -1.19345 1.0293 0
M  V30 410 C 35.2213 -1.93538 0.745511 0
M  V30 411 C 35.6463 -1.75007 -0.689511 0
M  V30 412 O 35.0043 -1.05265 -1.47611 0
M  V30 413 C 35.0523 -3.43336 1.10239 0
M  V30 414 O 34.1563 -4.11806 0.221289 0
M  V30 415 H 33.4973 -0.604193 0.275404 0
M  V30 416 H 36.0273 -1.5141 1.37609 0
M  V30 417 H 36.0373 -3.94004 1.05947 0
M  V30 418 H 34.7123 -3.56146 2.14786 0
M  V30 419 H 33.2893 -3.715 0.322842 0
M  V30 420 N 35.4744 -0.807222 -1.35358 0
M  V30 421 C 36.7024 -0.400377 -2.02989 0
M  V30 422 C 37.1174 0.988859 -1.60832 0
M  V30 423 O 36.4744 1.63729 -0.806175 0
M  V30 424 C 36.5254 -0.474867 -3.58368 0
M  V30 425 O 36.2464 -1.80933 -3.98992 0
M  V30 426 C 37.7474 -0.0609112 -4.43258 0
M  V30 427 H 34.9674 -0.162587 -0.651004 0
M  V30 428 H 37.5114 -1.09102 -1.72965 0
M  V30 429 H 35.6664 0.167534 -3.87038 0
M  V30 430 H 36.0804 -1.77256 -4.9364 0
M  V30 431 H 37.5544 -0.164145 -5.51756 0
M  V30 432 H 38.0314 0.993831 -4.27808 0
M  V30 433 H 38.6374 -0.676492 -4.19885 0
M  V30 434 N 36.9525 1.47285 -0.560781 0
M  V30 435 C 38.2005 2.02064 -0.0379868 0
M  V30 436 C 38.5215 1.43711 1.31803 0
M  V30 437 O 37.7915 0.61362 1.86042 0
M  V30 438 H 36.3715 0.746918 -0.0110531 0
M  V30 439 H 39.0335 1.80648 -0.731598 0
M  V30 440 H 38.1295 3.12064 0.0474463 0
M  V30 441 N 38.4306 0.297415 1.54768 0
M  V30 442 C 39.6556 -0.318435 2.04941 0
M  V30 443 C 40.0806 -1.4701 1.17345 0
M  V30 444 O 39.4386 -1.80436 0.176758 0
M  V30 445 C 39.4866 -0.755749 3.52592 0
M  V30 446 O 38.5906 -1.86088 3.68028 0
M  V30 447 H 37.9316 -0.062421 0.661059 0
M  V30 448 H 40.4616 0.438215 1.99852 0
M  V30 449 H 40.4716 -1.04552 3.94376 0
M  V30 450 H 39.1466 0.0867233 4.1581 0
M  V30 451 H 37.7236 -1.57193 3.38149 0
M  V30 452 N 39.9087 -1.5758 0.0250728 0
M  V30 453 C 40.8407 -2.06869 -0.986796 0
M  V30 454 C 41.8537 -0.991332 -1.29137 0
M  V30 455 O 43.0427 -1.26761 -1.25674 0
M  V30 456 C 40.1427 -2.47486 -2.31525 0
M  V30 457 C 39.3157 -3.78253 -2.19643 0
M  V30 458 C 38.3747 -4.05464 -3.35388 0
M  V30 459 O 37.4007 -4.75774 -3.12454 0
M  V30 460 N 38.6027 -3.55321 -4.59051 0
M  V30 461 H 41.3677 -2.94302 -0.566276 0
M  V30 462 H 38.9287 -1.6109 -0.161776 0
M  V30 463 H 40.9207 -2.62785 -3.07776 0
M  V30 464 H 39.4907 -1.65441 -2.65232 0
M  V30 465 H 38.7107 -3.7279 -1.28144 0
M  V30 466 H 39.9987 -4.63936 -2.08903 0
M  V30 467 H 39.3967 -2.98431 -4.80578 0
M  V30 468 H 37.9537 -3.75905 -5.32483 0
M  V30 469 N 41.3868 0.248026 -1.55636 0
M  V30 470 C 42.3168 1.31079 -1.93237 0
M  V30 471 C 43.2978 1.50264 -0.797174 0
M  V30 472 O 44.4828 1.62891 -1.05737 0
M  V30 473 C 41.6128 2.66575 -2.22609 0
M  V30 474 C 40.5668 2.62087 -3.3837 0
M  V30 475 C 39.8928 4.01369 -3.53281 0
M  V30 476 C 41.1928 2.19171 -4.7409 0
M  V30 477 H 42.8868 0.998556 -2.82257 0
M  V30 478 H 40.4328 0.47891 -1.35803 0
M  V30 479 H 42.3858 3.41057 -2.47503 0
M  V30 480 H 41.1098 2.99432 -1.30414 0
M  V30 481 H 39.7688 1.90063 -3.13483 0
M  V30 482 H 39.4168 4.31489 -2.58508 0
M  V30 483 H 39.1168 3.99254 -4.31127 0
M  V30 484 H 40.6408 4.77552 -3.80495 0
M  V30 485 H 42.0548 2.83384 -4.98363 0
M  V30 486 H 40.4518 2.2817 -5.5503 0
M  V30 487 H 41.5218 1.14336 -4.71227 0
M  V30 488 N 42.8649 1.48995 0.513639 0
M  V30 489 C 43.8279 1.64229 1.59879 0
M  V30 490 C 44.8279 0.514696 1.5234 0
M  V30 491 O 46.0179 0.78087 1.55718 0
M  V30 492 C 43.1499 1.62783 2.99524 0
M  V30 493 H 44.3429 2.61004 1.47705 0
M  V30 494 H 41.8959 1.37837 0.736936 0
M  V30 495 H 42.6309 0.675461 3.17188 0
M  V30 496 H 42.4159 2.4466 3.06404 0
M  V30 497 H 43.9059 1.76669 3.78388 0
M  V30 498 N 44.343 -0.763751 1.37857 0
M  V30 499 C 45.29 -1.87726 1.34267 0
M  V30 500 C 46.26 -1.64807 0.206879 0
M  V30 501 O 47.445 -1.86613 0.397508 0
M  V30 502 C 44.585 -3.24896 1.16346 0
M  V30 503 C 43.698 -3.59716 2.39225 0
M  V30 504 C 42.833 -4.86137 2.14114 0
M  V30 505 C 41.872 -5.13711 3.32817 0
M  V30 506 N 41.009 -6.31323 3.07206 0
M  V30 507 H 45.849 -1.90129 2.29466 0
M  V30 508 H 43.386 -0.929433 1.14017 0
M  V30 509 H 45.344 -4.04036 1.03975 0
M  V30 510 H 43.974 -3.21847 0.247909 0
M  V30 511 H 43.026 -2.75498 2.62307 0
M  V30 512 H 44.338 -3.76027 3.27728 0
M  V30 513 H 43.492 -5.73198 1.9882 0
M  V30 514 H 42.231 -4.71945 1.22961 0
M  V30 515 H 41.236 -4.25123 3.48641 0
M  V30 516 H 42.461 -5.29807 4.24832 0
M  V30 517 H 40.407 -6.18474 2.1869 0
M  V30 518 H 40.324 -6.48087 3.89254 0
M  V30 519 H 41.592 -7.213 2.95546 0
M  V30 520 N 45.8211 -1.22559 -0.990812 0
M  V30 521 C 47.2371 -0.985996 -1.255 0
M  V30 522 C 47.4371 0.319173 -1.98956 0
M  V30 523 O 46.4931 1.04127 -2.3003 0
M  V30 524 C 47.8061 -2.18607 -2.06474 0
M  V30 525 C 49.3541 -2.22985 -2.19651 0
M  V30 526 C 49.8291 -3.4255 -3.04012 0
M  V30 527 N 51.3201 -3.42725 -3.11599 0
M  V30 528 C 52.0551 -4.31892 -3.7717 0
M  V30 529 N 51.5511 -5.31279 -4.44651 0
M  V30 530 N 53.3441 -4.19662 -3.73952 0
M  V30 531 H 45.4951 -2.06469 -0.49841 0
M  V30 532 H 47.7581 -0.904853 -0.282747 0
M  V30 533 H 47.4641 -3.13267 -1.59865 0
M  V30 534 H 47.3381 -2.18838 -3.07229 0
M  V30 535 H 49.7251 -1.28871 -2.65474 0
M  V30 536 H 49.8061 -2.26791 -1.18319 0
M  V30 537 H 49.4501 -4.36965 -2.58889 0
M  V30 538 H 49.3801 -3.35984 -4.0549 0
M  V30 539 H 51.8711 -2.70807 -2.63575 0
M  V30 540 H 52.1841 -5.95593 -4.92431 0
M  V30 541 H 50.5291 -5.3519 -4.43392 0
M  V30 542 H 53.7201 -3.41268 -3.20396 0
M  V30 543 H 53.8931 -4.89358 -4.24774 0
M  V30 544 N 47.2992 1.18797 -1.03562 0
M  V30 545 C 48.5462 1.8865 -0.736023 0
M  V30 546 C 48.8742 1.80041 0.735889 0
M  V30 547 O 48.1292 1.19179 1.55225 0
M  V30 548 C 48.4282 3.38692 -1.14117 0
M  V30 549 C 48.0942 3.67504 -2.6125 0
M  V30 550 C 46.7562 3.75078 -3.01447 0
M  V30 551 C 49.1082 3.80293 -3.56408 0
M  V30 552 C 46.4362 3.92915 -4.35701 0
M  V30 553 C 48.7882 3.99645 -4.90374 0
M  V30 554 C 47.4522 4.05453 -5.30249 0
M  V30 555 H 46.7222 0.690321 -0.26933 0
M  V30 556 H 49.3692 1.40641 -1.29971 0
M  V30 557 H 47.6742 3.88645 -0.496202 0
M  V30 558 H 49.3712 3.91072 -0.886789 0
M  V30 559 H 45.9612 3.62223 -2.29113 0
M  V30 560 H 50.1452 3.73779 -3.26501 0
M  V30 561 H 45.4012 3.95653 -4.66121 0
M  V30 562 H 49.5752 4.08482 -5.64017 0
M  V30 563 H 47.2022 4.19027 -6.34288 0
M  V30 564 N 48.7773 0.814389 1.34928 0
M  V30 565 C 50.0023 0.410097 2.03305 0
M  V30 566 C 50.4273 -0.973464 1.60951 0
M  V30 567 O 49.7853 -1.63185 0.789964 0
M  V30 568 C 49.8333 0.51049 3.56968 0
M  V30 569 O 48.9373 -0.473035 4.09678 0
M  V30 570 H 48.2783 0.170088 0.641846 0
M  V30 571 H 50.8083 1.10244 1.72358 0
M  V30 572 H 50.8183 0.383135 4.06197 0
M  V30 573 H 49.4933 1.51963 3.87144 0
M  V30 574 H 48.0703 -0.305272 3.71648 0
M  V30 575 N 50.2554 -1.46986 0.568584 0
M  V30 576 C 51.6714 -1.57946 0.229189 0
M  V30 577 C 51.8714 -1.56567 -1.26843 0
M  V30 578 O 50.9274 -1.47511 -2.04931 0
M  V30 579 C 52.2404 -2.87963 0.865909 0
M  V30 580 C 53.7884 -3.01568 0.838188 0
M  V30 581 C 54.2634 -4.34301 1.45419 0
M  V30 582 N 55.7544 -4.40965 1.41788 0
M  V30 583 C 56.4894 -5.42256 1.86403 0
M  V30 584 N 55.9854 -6.50297 2.38926 0
M  V30 585 N 57.7784 -5.3337 1.77405 0
M  V30 586 H 49.9294 -1.46126 1.54146 0
M  V30 587 H 52.1924 -0.696156 0.643484 0
M  V30 588 H 51.8984 -2.94742 1.91886 0
M  V30 589 H 51.7724 -3.75423 0.365687 0
M  V30 590 H 54.1594 -2.94379 -0.206106 0
M  V30 591 H 54.2404 -2.1562 1.37629 0
M  V30 592 H 53.8844 -4.42247 2.49761 0
M  V30 593 H 53.8144 -5.19 0.891435 0
M  V30 594 H 56.3054 -3.63484 1.03381 0
M  V30 595 H 56.6184 -7.23777 2.70863 0
M  V30 596 H 54.9634 -6.51155 2.42944 0
M  V30 597 H 58.1544 -4.47865 1.3614 0
M  V30 598 H 58.3274 -6.12169 2.12492 0
M  V30 599 N 51.7335 -0.305618 -1.54608 0
M  V30 600 C 52.9815 0.301701 -1.99835 0
M  V30 601 C 53.3025 1.54054 -1.19551 0
M  V30 602 O 52.5725 1.93702 -0.292658 0
M  V30 603 H 51.1525 0.114468 -0.738178 0
M  V30 604 H 53.8145 -0.418016 -1.90364 0
M  V30 605 H 52.9105 0.570548 -3.06841 0
M  V30 606 N 53.2116 1.57565 -0.0334293 0
M  V30 607 C 54.1416 2.13511 0.945265 0
M  V30 608 C 55.1226 1.05231 1.33643 0
M  V30 609 O 56.3076 1.33084 1.41429 0
M  V30 610 C 53.4376 2.6657 2.22616 0
M  V30 611 C 52.3916 3.79676 1.97561 0
M  V30 612 C 51.7176 4.1918 3.31952 0
M  V30 613 C 53.0176 5.0557 1.31135 0
M  V30 614 H 54.7116 2.95538 0.479325 0
M  V30 615 H 52.2576 1.42166 0.229115 0
M  V30 616 H 54.2106 3.04344 2.91466 0
M  V30 617 H 52.9346 1.8171 2.71384 0
M  V30 618 H 51.5936 3.42347 1.31127 0
M  V30 619 H 51.2416 3.31296 3.78487 0
M  V30 620 H 50.9416 4.95402 3.15992 0
M  V30 621 H 52.4656 4.59541 4.02063 0
M  V30 622 H 53.8796 5.40903 1.89992 0
M  V30 623 H 52.2766 5.86818 1.25559 0
M  V30 624 H 53.3466 4.84062 0.284894 0
M  V30 625 N 54.6897 -0.239769 1.55765 0
M  V30 626 C 55.6197 -1.30052 1.9393 0
M  V30 627 C 56.6007 -1.49839 0.805132 0
M  V30 628 O 57.7857 -1.62328 1.06599 0
M  V30 629 C 54.9157 -2.65391 2.2402 0
M  V30 630 C 53.8697 -2.60289 3.39755 0
M  V30 631 C 53.1957 -3.99489 3.55405 0
M  V30 632 C 54.4957 -2.16654 4.75246 0
M  V30 633 H 56.1897 -0.983573 2.82783 0
M  V30 634 H 53.7357 -0.471701 1.36055 0
M  V30 635 H 55.6887 -3.3974 2.49308 0
M  V30 636 H 54.4127 -2.98736 1.32 0
M  V30 637 H 53.0717 -1.88398 3.14487 0
M  V30 638 H 52.7197 -4.30112 2.60793 0
M  V30 639 H 52.4197 -3.96962 4.33238 0
M  V30 640 H 53.9437 -4.75528 3.83022 0
M  V30 641 H 55.3577 -2.80737 4.99859 0
M  V30 642 H 53.7547 -2.25223 5.56232 0
M  V30 643 H 54.8247 -1.11835 4.71827 0
M  V30 644 N 56.1678 -1.49265 -0.50573 0
M  V30 645 C 57.1158 -1.66065 -1.62866 0
M  V30 646 C 58.1098 -0.526636 -1.61006 0
M  V30 647 O 59.3158 -0.706126 -1.65571 0
M  V30 648 H 55.6908 -0.52356 -0.539805 0
M  V30 649 H 57.6618 -2.60329 -1.45848 0
M  V30 650 C 56.4108 -1.74008 -3.01026 0
M  V30 651 H 55.7338 -2.6064 -3.03161 0
M  V30 652 H 57.1738 -1.89798 -3.79147 0
M  V30 653 C 55.6328 -0.483868 -3.33407 0
M  V30 654 O 56.1628 0.392548 -3.99777 0
M  V30 655 N 54.3688 -0.348236 -2.88506 0
M  V30 656 H 53.9158 -1.06242 -2.34671 0
M  V30 657 H 53.8738 0.491204 -3.10539 0
M  V30 658 N 57.6459 0.756429 -1.3826 0
M  V30 659 C 58.8939 1.51248 -1.34047 0
M  V30 660 C 59.2149 1.94875 0.0698372 0
M  V30 661 O 58.4849 1.67436 1.01696 0
M  V30 662 H 57.0649 0.561018 -0.493222 0
M  V30 663 H 59.7269 0.899347 -1.7291 0
M  V30 664 H 58.8229 2.40472 -1.98947 0
M  V30 665 N 59.124 1.23083 0.984299 0
M  V30 666 C 60.056 0.96636 2.07832 0
M  V30 667 C 61.069 -0.0582135 1.62696 0
M  V30 668 O 62.258 0.176843 1.77622 0
M  V30 669 C 59.358 0.433397 3.36117 0
M  V30 670 C 58.531 1.51722 4.10243 0
M  V30 671 C 57.59 0.989821 5.16807 0
M  V30 672 O 56.616 1.67794 5.43906 0
M  V30 673 N 57.818 -0.184367 5.80207 0
M  V30 674 H 60.583 1.90824 2.31098 0
M  V30 675 H 58.144 1.13888 1.1507 0
M  V30 676 H 60.136 0.065699 4.04647 0
M  V30 677 H 58.706 -0.413806 3.09849 0
M  V30 678 H 57.926 2.05786 3.36223 0
M  V30 679 H 59.214 2.24619 4.56534 0
M  V30 680 H 58.612 -0.760062 5.60571 0
M  V30 681 H 57.169 -0.493366 6.4993 0
M  V30 682 N 60.6021 -1.18246 1.0419 0
M  V30 683 C 61.8501 -1.87886 0.744543 0
M  V30 684 C 62.1711 -1.8082 -0.730006 0
M  V30 685 O 61.4411 -1.22736 -1.52685 0
M  V30 686 H 60.0211 -0.695556 0.272417 0
M  V30 687 H 62.6831 -1.43494 1.31892 0
M  V30 688 H 61.7791 -2.9389 1.05049 0
M  V30 689 N 62.0802 -0.821533 -1.34494 0
M  V30 690 C 63.4912 -0.467956 -1.8074 0
M  V30 691 C 63.8422 1.01151 -1.68116 0
M  V30 692 O 62.9672 1.78707 -1.22036 0
M  V30 693 C 63.5622 -0.842627 -3.28154 0
M  V30 694 C 62.1212 -0.541439 -3.72485 0
M  V30 695 C 61.2682 -1.06028 -2.56229 0
M  V30 696 H 64.2192 -1.01183 -1.22261 0
M  V30 697 H 64.2402 -0.145876 -3.8022 0
M  V30 698 H 63.7522 -1.91945 -3.37311 0
M  V30 699 H 61.8532 0.526034 -3.68868 0
M  V30 700 H 61.9662 -1.08453 -4.66663 0
M  V30 701 H 60.3302 -0.481892 -2.501 0
M  V30 702 H 61.1132 -2.14352 -2.68157 0
M  V30 703 N 63.5583 1.46682 -0.576371 0
M  V30 704 C 64.4913 2.27243 0.208731 0
M  V30 705 C 65.4693 1.35238 0.902746 0
M  V30 706 O 66.6533 1.64641 0.917904 0
M  V30 707 C 63.7803 3.12802 1.29896 0
M  V30 708 C 62.8263 4.20524 0.711457 0
M  V30 709 S 63.6593 5.33548 -0.456781 0
M  V30 710 C 64.8153 6.22673 0.634798 0
M  V30 711 H 65.0483 2.93484 -0.474838 0
M  V30 712 H 62.5813 1.50069 -0.363118 0
M  V30 713 H 64.5393 3.62661 1.92321 0
M  V30 714 H 63.2003 2.45887 1.95444 0
M  V30 715 H 62.3933 4.80191 1.53076 0
M  V30 716 H 61.9953 3.73645 0.162999 0
M  V30 717 H 64.2873 6.60181 1.52209 0
M  V30 718 H 65.2303 7.0806 0.0750311 0
M  V30 719 H 65.6383 5.56684 0.936092 0
M  V30 720 N 65.0364 0.313813 1.54444 0
M  V30 721 C 65.9834 -0.55655 2.23989 0
M  V30 722 C 66.9534 -1.11943 1.22711 0
M  V30 723 O 68.1384 -1.16158 1.51367 0
M  V30 724 C 65.2784 -1.71635 2.99392 0
M  V30 725 C 64.3914 -1.18364 4.15468 0
M  V30 726 C 63.5264 -2.30834 4.78424 0
M  V30 727 C 62.5654 -1.74762 5.86622 0
M  V30 728 N 61.7024 -2.80855 6.43479 0
M  V30 729 H 66.5424 0.0430893 2.97969 0
M  V30 730 H 64.0794 0.0330359 1.47063 0
M  V30 731 H 66.0374 -2.39868 3.41349 0
M  V30 732 H 64.6674 -2.28742 2.27765 0
M  V30 733 H 63.7194 -0.393163 3.78363 0
M  V30 734 H 65.0314 -0.733262 4.93381 0
M  V30 735 H 64.1854 -3.0699 5.23299 0
M  V30 736 H 62.9244 -2.79204 3.99871 0
M  V30 737 H 61.9294 -0.970995 5.41158 0
M  V30 738 H 63.1544 -1.2728 6.67066 0
M  V30 739 H 61.1004 -3.28535 5.67804 0
M  V30 740 H 61.0174 -2.40351 7.16776 0
M  V30 741 H 62.2854 -3.5687 6.93011 0
M  V30 742 N 66.5145 -1.57545 0.0417849 0
M  V30 743 C 67.4445 -2.14009 -0.933929 0
M  V30 744 C 68.4255 -1.05938 -1.33083 0
M  V30 745 O 69.6105 -1.33833 -1.40721 0
M  V30 746 C 66.7405 -2.67747 -2.21199 0
M  V30 747 C 65.6945 -3.80718 -1.95544 0
M  V30 748 C 65.0205 -4.20935 -3.29724 0
M  V30 749 C 66.3205 -5.06258 -1.28452 0
M  V30 750 H 68.0145 -2.95788 -0.463645 0
M  V30 751 H 65.5605 -1.42285 -0.221573 0
M  V30 752 H 67.5135 -3.05886 -2.89848 0
M  V30 753 H 66.2375 -1.83147 -2.70416 0
M  V30 754 H 64.8965 -3.43037 -1.2931 0
M  V30 755 H 64.5445 -3.33298 -3.76724 0
M  V30 756 H 64.2445 -4.9707 -3.13361 0
M  V30 757 H 65.7685 -4.61666 -3.9962 0
M  V30 758 H 67.1825 -5.41903 -1.8712 0
M  V30 759 H 65.5795 -5.87475 -1.22445 0
M  V30 760 H 66.6495 -4.84207 -0.259219 0
M  V30 761 N 67.9926 0.231505 -1.5589 0
M  V30 762 C 69.2386 0.95877 -1.78705 0
M  V30 763 C 69.5716 1.8438 -0.609725 0
M  V30 764 O 68.8466 1.90521 0.391426 0
M  V30 765 C 69.1296 1.8062 -3.11526 0
M  V30 766 C 68.9826 0.948328 -4.39689 0
M  V30 767 C 70.3016 2.78585 -3.40703 0
M  V30 768 H 67.4206 0.347129 -0.650131 0
M  V30 769 H 70.0626 0.228259 -1.88624 0
M  V30 770 H 68.2126 2.42902 -3.03201 0
M  V30 771 H 69.8846 0.343016 -4.60023 0
M  V30 772 H 68.1276 0.253314 -4.3306 0
M  V30 773 H 68.7986 1.57543 -5.29041 0
M  V30 774 H 71.2746 2.26439 -3.49091 0
M  V30 775 H 70.1506 3.34988 -4.34826 0
M  V30 776 H 70.4116 3.55825 -2.62375 0
M  V30 777 N 69.4707 1.49531 0.497807 0
M  V30 778 C 70.4037 1.61043 1.6168 0
M  V30 779 C 71.3817 0.459386 1.55976 0
M  V30 780 O 72.5657 0.675358 1.75986 0
M  V30 781 C 69.6927 1.56833 3.00202 0
M  V30 782 C 68.7387 2.77173 3.24156 0
M  V30 783 S 69.5717 4.38808 3.06933 0
M  V30 784 C 70.7277 4.37248 4.47845 0
M  V30 785 H 70.9607 2.55702 1.51671 0
M  V30 786 H 68.4937 1.38462 0.683201 0
M  V30 787 H 70.4517 1.55089 3.80076 0
M  V30 788 H 69.1127 0.634561 3.07623 0
M  V30 789 H 68.3057 2.70456 4.25288 0
M  V30 790 H 67.9077 2.76346 2.5201 0
M  V30 791 H 70.1997 4.09164 5.39992 0
M  V30 792 H 71.1427 5.38668 4.59612 0
M  V30 793 H 71.5507 3.67286 4.28674 0
M  V30 794 N 70.9488 -0.749086 1.3866 0
M  V30 795 C 71.9118 -1.84457 1.36045 0
M  V30 796 C 72.9118 -1.58682 0.260122 0
M  V30 797 O 74.1018 -1.66343 0.517261 0
M  V30 798 C 71.2338 -3.22008 1.11911 0
M  V30 799 H 72.4268 -1.88182 2.33512 0
M  V30 800 H 69.9798 -0.951266 1.24019 0
M  V30 801 H 70.7148 -3.2395 0.150686 0
M  V30 802 H 70.4998 -3.42111 1.91579 0
M  V30 803 H 71.9898 -4.0208 1.12788 0
M  V30 804 N 72.4269 -1.23603 -0.977757 0
M  V30 805 C 73.6739 -1.06971 -1.71941 0
M  V30 806 C 74.0019 0.393009 -1.90488 0
M  V30 807 O 73.2569 1.30719 -1.4564 0
M  V30 808 C 73.5559 -1.7433 -3.11999 0
M  V30 809 C 73.2219 -3.24252 -3.13323 0
M  V30 810 C 71.8839 -3.65156 -3.13392 0
M  V30 811 C 74.2359 -4.20141 -3.08433 0
M  V30 812 C 71.5639 -5.00403 -3.0629 0
M  V30 813 C 73.9159 -5.55384 -3.02873 0
M  V30 814 C 72.5799 -5.95647 -3.01265 0
M  V30 815 H 71.8499 -0.391433 -0.629175 0
M  V30 816 H 74.4969 -1.53572 -1.14403 0
M  V30 817 H 72.8019 -1.20096 -3.7294 0
M  V30 818 H 74.4989 -1.58936 -3.68158 0
M  V30 819 H 71.0889 -2.91692 -3.14029 0
M  V30 820 H 75.2729 -3.89547 -3.07517 0
M  V30 821 H 70.5289 -5.3081 -3.03399 0
M  V30 822 H 74.7029 -6.29398 -2.98046 0
M  V30 823 H 72.3299 -7.0041 -2.95516 0
M  V30 824 N 73.905 1.17692 -1.04816 0
M  V30 825 C 75.154 1.87192 -0.751132 0
M  V30 826 C 75.467 1.8169 0.724441 0
M  V30 827 O 76.673 2.46625 1.13527 0
M  V30 828 C 75.129 3.35857 -1.29338 0
M  V30 829 C 74.737 3.4987 -2.79812 0
M  V30 830 C 76.481 4.10709 -1.07322 0
M  V30 831 C 74.388 4.92536 -3.27356 0
M  V30 832 H 73.318 0.701162 -0.277288 0
M  V30 833 H 75.969 1.32932 -1.26496 0
M  V30 834 H 74.351 3.89631 -0.707376 0
M  V30 835 H 75.525 3.06332 -3.44235 0
M  V30 836 H 73.84 2.88433 -3.00325 0
M  V30 837 H 76.437 5.15952 -1.4035 0
M  V30 838 H 76.78 4.16299 -0.0108001 0
M  V30 839 H 77.313 3.6313 -1.62423 0
M  V30 840 H 74.052 4.92119 -4.33012 0
M  V30 841 H 73.572 5.3676 -2.67673 0
M  V30 842 H 75.251 5.61288 -3.21815 0
M  V30 843 N 75.3831 0.828654 1.34056 0
M  V30 844 C 76.3461 0.259927 2.27721 0
M  V30 845 C 77.3461 -0.565478 1.50529 0
M  V30 846 O 78.5361 -0.38075 1.69988 0
M  V30 847 C 75.6681 -0.634944 3.34935 0
M  V30 848 H 76.8611 1.0863 2.79534 0
M  V30 849 H 74.4141 0.600951 1.44285 0
M  V30 850 H 75.1491 -1.48416 2.88346 0
M  V30 851 H 74.9341 -0.0444999 3.92075 0
M  V30 852 H 76.4241 -1.02648 4.04788 0
M  V30 853 N 76.8612 -1.46375 0.584142 0
M  V30 854 C 78.1082 -2.02378 0.0702675 0
M  V30 855 C 78.4362 -1.45545 -1.29023 0
M  V30 856 O 77.6912 -0.610967 -1.85918 0
M  V30 857 C 77.9902 -3.57373 -0.0439342 0
M  V30 858 C 77.6562 -4.33252 1.24915 0
M  V30 859 C 76.3182 -4.53701 1.60341 0
M  V30 860 C 78.6702 -4.7681 2.1048 0
M  V30 861 C 75.9982 -5.1496 2.81128 0
M  V30 862 C 78.3502 -5.39404 3.30494 0
M  V30 863 C 77.0142 -5.5808 3.66201 0
M  V30 864 H 76.2842 -0.740554 0.0257127 0
M  V30 865 H 78.9312 -1.75727 0.761065 0
M  V30 866 H 77.2362 -3.83169 -0.817869 0
M  V30 867 H 78.9332 -3.98384 -0.457318 0
M  V30 868 H 75.5232 -4.17633 0.963364 0
M  V30 869 H 79.7072 -4.60766 1.84414 0
M  V30 870 H 74.9632 -5.27611 3.08928 0
M  V30 871 H 79.1372 -5.72114 3.97063 0
M  V30 872 H 76.7642 -6.05318 4.59885 0
M  V30 873 N 78.3393 -0.321999 -1.54275 0
M  V30 874 C 79.2693 0.537411 -2.27231 0
M  V30 875 C 80.2503 1.12064 -1.27968 0
M  V30 876 O 81.4353 1.14606 -1.56777 0
M  V30 877 C 78.5653 1.69919 -3.02894 0
M  V30 878 C 77.5193 1.24534 -4.09482 0
M  V30 879 C 76.8453 2.49394 -4.72977 0
M  V30 880 C 78.1453 0.361335 -5.21049 0
M  V30 881 H 79.8393 -0.0711406 -2.99315 0
M  V30 882 H 77.3853 -0.0356555 -1.43956 0
M  V30 883 H 79.3383 2.30668 -3.52662 0
M  V30 884 H 78.0623 2.33431 -2.28424 0
M  V30 885 H 76.7213 0.660782 -3.60596 0
M  V30 886 H 76.3693 3.11265 -3.95124 0
M  V30 887 H 76.0693 2.19718 -5.44975 0
M  V30 888 H 77.5933 3.10908 -5.25517 0
M  V30 889 H 79.0073 0.875072 -5.66582 0
M  V30 890 H 77.4043 0.157428 -5.99893 0
M  V30 891 H 78.4743 -0.60822 -4.8107 0
M  V30 892 N 79.8174 1.5752 -0.0501392 0
M  V30 893 C 81.2334 1.56631 0.306402 0
M  V30 894 C 81.4334 1.0577 1.71508 0
M  V30 895 O 80.4894 0.713837 2.422 0
M  V30 896 C 81.8024 3.00393 0.135811 0
M  V30 897 C 83.3504 3.12315 0.206993 0
M  V30 898 C 83.8254 4.57954 0.064944 0
M  V30 899 N 85.3164 4.63041 0.121254 0
M  V30 900 C 86.0514 5.73389 0.0354381 0
M  V30 901 N 85.5474 6.92724 -0.102666 0
M  V30 902 N 87.3404 5.62026 0.090946 0
M  V30 903 H 79.4914 1.88903 -0.971046 0
M  V30 904 H 81.7544 0.869876 -0.376855 0
M  V30 905 H 81.4604 3.41635 -0.835384 0
M  V30 906 H 81.3344 3.66373 0.897275 0
M  V30 907 H 83.7214 2.70973 1.16866 0
M  V30 908 H 83.8024 2.49016 -0.585208 0
M  V30 909 H 83.4464 4.99981 -0.893394 0
M  V30 910 H 83.3764 5.19258 0.876277 0
M  V30 911 H 85.8674 3.77216 0.227284 0
M  V30 912 H 86.1804 7.72633 -0.160882 0
M  V30 913 H 84.5254 6.94864 -0.137737 0
M  V30 914 H 87.7164 4.67684 0.197388 0
M  V30 915 H 87.8894 6.47997 0.0206089 0
M  V30 916 N 81.2955 -0.223234 1.56011 0
M  V30 917 C 82.5425 -0.947875 1.78946 0
M  V30 918 C 82.8705 -1.844 0.618608 0
M  V30 919 O 82.1255 -1.91629 -0.397093 0
M  V30 920 C 82.4245 -1.81948 3.0762 0
M  V30 921 C 82.0905 -1.07672 4.37856 0
M  V30 922 C 80.7525 -0.871544 4.73242 0
M  V30 923 C 83.1045 -0.552081 5.18268 0
M  V30 924 C 80.4325 -0.129791 5.86556 0
M  V30 925 C 82.7845 0.17632 6.32354 0
M  V30 926 C 81.4485 0.39277 6.66343 0
M  V30 927 H 80.7185 -0.346852 0.654809 0
M  V30 928 H 83.3655 -0.216171 1.90276 0
M  V30 929 H 81.6705 -2.61899 2.91404 0
M  V30 930 H 83.3675 -2.38227 3.22566 0
M  V30 931 H 79.9575 -1.24662 4.1007 0
M  V30 932 H 84.1415 -0.698076 4.91366 0
M  V30 933 H 79.3975 0.048153 6.11381 0
M  V30 934 H 83.5715 0.590367 6.93893 0
M  V30 935 H 81.1985 0.969466 7.53993 0
M  V30 936 N 82.7736 -1.49793 -0.48987 0
M  V30 937 C 83.7036 -1.70201 -1.59856 0
M  V30 938 C 84.6846 -0.55076 -1.60937 0
M  V30 939 O 85.8696 -0.787841 -1.77501 0
M  V30 940 C 82.9996 -1.77882 -2.98287 0
M  V30 941 C 81.9536 -2.92907 -3.12073 0
M  V30 942 C 81.2796 -2.85712 -4.51965 0
M  V30 943 C 82.5796 -4.3369 -2.91051 0
M  V30 944 H 84.2736 -2.63025 -1.43032 0
M  V30 945 H 81.8196 -1.26574 -0.686664 0
M  V30 946 H 83.7726 -1.90744 -3.75759 0
M  V30 947 H 82.4966 -0.816653 -3.16225 0
M  V30 948 H 81.1556 -2.79665 -2.37029 0
M  V30 949 H 80.8036 -1.8738 -4.66795 0
M  V30 950 H 80.5036 -3.62921 -4.62128 0
M  V30 951 H 82.0276 -3.00598 -5.31482 0
M  V30 952 H 83.4416 -4.47555 -3.58284 0
M  V30 953 H 81.8386 -5.12205 -3.12675 0
M  V30 954 H 82.9086 -4.47362 -1.87071 0
M  V30 955 N 84.2517 0.741722 -1.39055 0
M  V30 956 C 85.2147 1.83733 -1.37021 0
M  V30 957 C 86.2147 1.58542 -0.268534 0
M  V30 958 O 87.4047 1.66067 -0.526076 0
M  V30 959 C 84.5367 3.2141 -1.13617 0
M  V30 960 H 85.7297 1.86941 -2.34506 0
M  V30 961 H 83.2827 0.944676 -1.24521 0
M  V30 962 H 84.0177 3.23865 -0.167863 0
M  V30 963 H 83.8027 3.4109 -1.93391 0
M  V30 964 H 85.2927 4.01477 -1.14918 0
M  V30 965 N 85.7298 1.2412 0.971189 0
M  V30 966 C 86.9788 1.07284 1.70801 0
M  V30 967 C 87.2918 -0.388902 1.91695 0
M  V30 968 O 88.4978 -0.677379 2.62914 0
M  V30 969 C 86.9538 1.87145 3.07416 0
M  V30 970 C 86.5618 3.37707 2.94377 0
M  V30 971 C 88.3058 1.78828 3.84995 0
M  V30 972 C 86.2128 4.09925 4.26281 0
M  V30 973 H 85.1428 0.397854 0.64049 0
M  V30 974 H 87.7938 1.4817 1.0825 0
M  V30 975 H 86.1758 1.39071 3.70777 0
M  V30 976 H 87.3498 3.93335 2.4005 0
M  V30 977 H 85.6648 3.46938 2.30267 0
M  V30 978 H 88.2618 2.30089 4.82662 0
M  V30 979 H 88.6048 0.75284 4.09436 0
M  V30 980 H 89.1378 2.24563 3.28354 0
M  V30 981 H 85.8768 5.13813 4.07033 0
M  V30 982 H 85.3968 3.59083 4.80437 0
M  V30 983 H 87.0758 4.1673 4.94919 0
M  V30 984 N 87.2079 -1.17134 1.05439 0
M  V30 985 C 88.6189 -1.69084 0.791676 0
M  V30 986 C 88.9699 -1.83822 -0.685839 0
M  V30 987 O 88.0949 -1.52757 -1.53278 0
M  V30 988 C 88.6899 -3.07119 1.4305 0
M  V30 989 C 87.2489 -3.56225 1.21577 0
M  V30 990 C 86.3959 -2.32421 1.51247 0
M  V30 991 H 89.3469 -1.01617 1.219 0
M  V30 992 H 89.3679 -3.71087 0.84112 0
M  V30 993 H 88.8799 -2.9636 2.50584 0
M  V30 994 H 86.9809 -3.72257 0.159787 0
M  V30 995 H 87.0939 -4.38837 1.92246 0
M  V30 996 H 85.4579 -2.3701 0.932653 0
M  V30 997 H 86.2409 -2.24268 2.5992 0
M  V30 998 N 88.686 -0.835752 -1.33615 0
M  V30 999 C 90.097 -0.487099 -1.80234 0
M  V30 1000 C 90.448 0.993627 -1.69179 0
M  V30 1001 O 89.573 1.77403 -1.23924 0
M  V30 1002 C 90.168 -0.877385 -3.27242 0
M  V30 1003 C 88.727 -0.580915 -3.7189 0
M  V30 1004 C 87.874 -1.0874 -2.5509 0
M  V30 1005 H 90.825 -1.02474 -1.2118 0
M  V30 1006 H 90.846 -0.186195 -3.80044 0
M  V30 1007 H 90.358 -1.95512 -3.35256 0
M  V30 1008 H 88.459 0.486881 -3.69405 0
M  V30 1009 H 88.572 -1.13396 -4.65487 0
M  V30 1010 H 86.936 -0.508392 -2.49575 0
M  V30 1011 H 87.719 -2.17184 -2.65868 0
M  V30 1012 N 90.1641 1.46063 -0.591896 0
M  V30 1013 C 91.3921 2.06717 -0.0868936 0
M  V30 1014 C 91.8071 1.43916 1.22203 0
M  V30 1015 O 91.1641 0.547698 1.74088 0
M  V30 1016 C 91.2151 3.6142 0.0758725 0
M  V30 1017 O 90.9361 4.21874 -1.18126 0
M  V30 1018 C 92.4371 4.39025 0.61416 0
M  V30 1019 H 89.6571 0.668162 -0.0616518 0
M  V30 1020 H 92.2011 1.8755 -0.815175 0
M  V30 1021 H 90.3561 3.79983 0.754413 0
M  V30 1022 H 90.7701 5.14861 -1.00092 0
M  V30 1023 H 92.2441 5.4783 0.677193 0
M  V30 1024 H 92.7211 4.07708 1.63312 0
M  V30 1025 H 93.3271 4.2529 -0.0298142 0
M  V30 1026 N 91.6422 0.330177 1.54103 0
M  V30 1027 C 92.6052 -0.520144 2.2322 0
M  V30 1028 C 93.6052 -1.03828 1.22786 0
M  V30 1029 O 94.7952 -0.929652 1.4732 0
M  V30 1030 C 91.9272 -1.72317 2.94142 0
M  V30 1031 H 93.1202 0.0841605 2.99782 0
M  V30 1032 H 90.6732 0.0813433 1.56088 0
M  V30 1033 H 91.4082 -2.36653 2.21734 0
M  V30 1034 H 91.1932 -1.35898 3.67796 0
M  V30 1035 H 92.6832 -2.3266 3.46784 0
M  V30 1036 N 93.1203 -1.57491 0.0584922 0
M  V30 1037 C 94.3683 -1.92597 -0.612436 0
M  V30 1038 C 94.6893 -0.938162 -1.70949 0
M  V30 1039 O 93.9593 0.0158301 -1.95894 0
M  V30 1040 H 92.5393 -0.710964 -0.229214 0
M  V30 1041 H 95.2013 -1.94571 0.113218 0
M  V30 1042 H 94.2973 -2.94038 -1.04633 0
M  V30 1043 N 94.5984 0.214957 -1.56127 0
M  V30 1044 C 95.8444 0.939762 -1.79712 0
M  V30 1045 C 96.1774 1.83723 -0.629247 0
M  V30 1046 O 95.4524 1.90925 0.371197 0
M  V30 1047 C 95.7354 1.77306 -3.13424 0
M  V30 1048 C 95.5884 0.90164 -4.40671 0
M  V30 1049 C 96.9074 2.74956 -3.43638 0
M  V30 1050 H 94.0264 0.340214 -0.653776 0
M  V30 1051 H 96.6684 0.20824 -1.88855 0
M  V30 1052 H 94.8184 2.39673 -3.0576 0
M  V30 1053 H 96.4904 0.294206 -4.60361 0
M  V30 1054 H 94.7334 0.207368 -4.33304 0
M  V30 1055 H 95.4044 1.51923 -5.30682 0
M  V30 1056 H 97.8804 2.22724 -3.51473 0
M  V30 1057 H 96.7564 3.30358 -4.38355 0
M  V30 1058 H 97.0174 3.53023 -2.66134 0
M  V30 1059 N 96.0765 1.50051 0.48192 0
M  V30 1060 C 97.0065 1.71046 1.58951 0
M  V30 1061 C 97.9875 0.559288 1.60642 0
M  V30 1062 O 99.1725 0.797243 1.77081 0
M  V30 1063 C 96.3025 1.79462 2.97339 0
M  V30 1064 C 95.2565 2.94558 3.10515 0
M  V30 1065 C 94.5825 2.88105 4.50444 0
M  V30 1066 C 95.8825 4.35227 2.88747 0
M  V30 1067 H 97.5765 2.6378 1.41635 0
M  V30 1068 H 95.1225 1.26936 0.679942 0
M  V30 1069 H 97.0755 1.92734 3.74742 0
M  V30 1070 H 95.7995 0.833412 3.15788 0
M  V30 1071 H 94.4585 2.80918 2.35543 0
M  V30 1072 H 94.1065 1.89853 4.65795 0
M  V30 1073 H 93.8065 3.65366 4.60197 0
M  V30 1074 H 95.3305 3.03412 5.29881 0
M  V30 1075 H 96.7445 4.49449 3.55905 0
M  V30 1076 H 95.1415 5.13856 3.09955 0
M  V30 1077 H 96.2115 4.48347 1.84696 0
M  V30 1078 N 97.5546 -0.734337 1.39446 0
M  V30 1079 C 98.5176 -1.83004 1.37994 0
M  V30 1080 C 99.5176 -1.58397 0.276938 0
M  V30 1081 O 100.708 -1.65785 0.534875 0
M  V30 1082 C 97.8396 -3.20802 1.1532 0
M  V30 1083 H 99.0326 -1.85694 2.35494 0
M  V30 1084 H 96.5856 -0.938059 1.25021 0
M  V30 1085 H 97.3206 -3.23772 0.185036 0
M  V30 1086 H 97.1056 -3.4006 1.95197 0
M  V30 1087 H 98.5956 -4.00862 1.17046 0
M  V30 1088 N 99.0327 -1.24633 -0.964593 0
M  V30 1089 C 100.449 -1.01239 -1.2338 0
M  V30 1090 C 100.649 0.2769 -1.99588 0
M  V30 1091 O 99.7047 0.992241 -2.32187 0
M  V30 1092 C 101.018 -2.22937 -2.01791 0
M  V30 1093 C 102.566 -2.27594 -2.14872 0
M  V30 1094 C 103.041 -3.48921 -2.96678 0
M  V30 1095 N 104.532 -3.49257 -3.04259 0
M  V30 1096 C 105.267 -4.39795 -3.67924 0
M  V30 1097 N 104.763 -5.40591 -4.33281 0
M  V30 1098 N 106.556 -4.275 -3.64966 0
M  V30 1099 H 98.7067 -2.0748 -0.454502 0
M  V30 1100 H 100.97 -0.910647 -0.26349 0
M  V30 1101 H 100.676 -3.16587 -1.53184 0
M  V30 1102 H 100.55 -2.25306 -3.02518 0
M  V30 1103 H 102.937 -1.34473 -2.6268 0
M  V30 1104 H 103.018 -2.2925 -1.13482 0
M  V30 1105 H 102.662 -4.42359 -2.49562 0
M  V30 1106 H 102.592 -3.4451 -3.98272 0
M  V30 1107 H 105.083 -2.76337 -2.57771 0
M  V30 1108 H 105.396 -6.05904 -4.79687 0
M  V30 1109 H 103.741 -5.44475 -4.3194 0
M  V30 1110 H 106.932 -3.47987 -3.13086 0
M  V30 1111 H 107.105 -4.98258 -4.14298 0
M  V30 1112 N 100.511 1.16574 -1.06058 0
M  V30 1113 C 101.757 1.87565 -0.78683 0
M  V30 1114 C 102.112 1.80012 0.679214 0
M  V30 1115 O 101.405 1.20327 1.49104 0
M  V30 1116 C 101.599 3.36195 -1.21275 0
M  V30 1117 C 101.428 3.58216 -2.71866 0
M  V30 1118 C 100.198 3.7444 -3.39298 0
M  V30 1119 C 102.396 3.57134 -3.70081 0
M  V30 1120 N 100.378 3.84389 -4.78663 0
M  V30 1121 C 101.749 3.73038 -4.9522 0
M  V30 1122 C 103.804 3.40332 -3.63426 0
M  V30 1123 C 102.507 3.73879 -6.14497 0
M  V30 1124 C 104.533 3.42466 -4.82153 0
M  V30 1125 C 103.895 3.58887 -6.06118 0
M  V30 1126 H 99.9938 0.704081 -0.340284 0
M  V30 1127 H 102.578 1.39885 -1.35426 0
M  V30 1128 H 100.749 3.82522 -0.673179 0
M  V30 1129 H 102.481 3.94839 -0.887917 0
M  V30 1130 H 99.2358 3.74662 -2.89699 0
M  V30 1131 H 99.6598 3.93138 -5.51155 0
M  V30 1132 H 104.302 3.26566 -2.68541 0
M  V30 1133 H 102.02 3.86427 -7.09718 0
M  V30 1134 H 105.606 3.30712 -4.78666 0
M  V30 1135 H 104.486 3.60454 -6.9645 0
M  V30 1136 N 101.989 0.842826 1.3317 0
M  V30 1137 C 103.237 0.439577 1.97262 0
M  V30 1138 C 103.558 -1.00548 1.67078 0
M  V30 1139 O 102.828 -1.70098 0.971779 0
M  V30 1140 H 101.408 0.159558 0.72976 0
M  V30 1141 H 104.07 1.07665 1.62463 0
M  V30 1142 H 103.166 0.574886 3.0676 0
M  V30 1143 N 103.467 -1.45747 0.599634 0
M  V30 1144 C 104.695 -2.06668 0.0978551 0
M  V30 1145 C 105.11 -1.44562 -1.21439 0
M  V30 1146 O 104.467 -0.556923 -1.73795 0
M  V30 1147 C 104.518 -3.61456 -0.0567044 0
M  V30 1148 O 104.239 -4.21242 1.20361 0
M  V30 1149 C 105.74 -4.39345 -0.590869 0
M  V30 1150 H 102.96 -0.667825 0.0651943 0
M  V30 1151 H 105.504 -1.87115 0.82511 0
M  V30 1152 H 103.659 -3.80378 -0.734251 0
M  V30 1153 H 104.073 -5.14323 1.02821 0
M  V30 1154 H 105.547 -5.48182 -0.648131 0
M  V30 1155 H 106.024 -4.08568 -1.61147 0
M  V30 1156 H 106.63 -4.25268 0.0523679 0
M  V30 1157 N 104.945 -0.338344 -1.53925 0
M  V30 1158 C 106.192 0.259758 -2.00827 0
M  V30 1159 C 106.52 1.50973 -1.22628 0
M  V30 1160 O 105.775 1.93379 -0.300509 0
M  V30 1161 C 106.074 0.62448 -3.51902 0
M  V30 1162 C 105.74 -0.528006 -4.47798 0
M  V30 1163 C 104.402 -0.844298 -4.73735 0
M  V30 1164 C 106.754 -1.30143 -5.0469 0
M  V30 1165 C 104.082 -1.93648 -5.53821 0
M  V30 1166 C 106.434 -2.38382 -5.85967 0
M  V30 1167 C 105.098 -2.70576 -6.10201 0
M  V30 1168 H 104.368 0.0950523 -0.734878 0
M  V30 1169 H 107.015 -0.465182 -1.85764 0
M  V30 1170 H 105.32 1.43006 -3.64769 0
M  V30 1171 H 107.017 1.09905 -3.85645 0
M  V30 1172 H 103.607 -0.271421 -4.2774 0
M  V30 1173 H 107.791 -1.07033 -4.84621 0
M  V30 1174 H 103.047 -2.19021 -5.70824 0
M  V30 1175 H 107.221 -2.98746 -6.29066 0
M  V30 1176 H 104.848 -3.55333 -6.72044 0
M  V30 1177 N 106.423 1.57458 -0.0668435 0
M  V30 1178 C 107.37 2.12439 0.902122 0
M  V30 1179 C 108.34 1.03565 1.2986 0
M  V30 1180 O 109.525 1.312 1.38532 0
M  V30 1181 C 106.665 2.6865 2.16614 0
M  V30 1182 C 105.778 3.91663 1.82274 0
M  V30 1183 C 104.913 4.36134 3.0325 0
M  V30 1184 C 103.952 5.51808 2.64904 0
M  V30 1185 N 103.089 5.9126 3.78624 0
M  V30 1186 H 107.929 2.94934 0.426382 0
M  V30 1187 H 105.466 1.4575 0.198819 0
M  V30 1188 H 107.424 2.99346 2.90599 0
M  V30 1189 H 106.054 1.88928 2.61737 0
M  V30 1190 H 105.106 3.6746 0.983719 0
M  V30 1191 H 106.418 4.75693 1.50059 0
M  V30 1192 H 105.572 4.68465 3.85519 0
M  V30 1193 H 104.311 3.50948 3.38655 0
M  V30 1194 H 103.316 5.19133 1.81055 0
M  V30 1195 H 104.541 6.38722 2.30675 0
M  V30 1196 H 102.487 5.09024 4.138 0
M  V30 1197 H 102.404 6.70018 3.5016 0
M  V30 1198 H 103.672 6.28212 4.61486 0
M  V30 1199 N 107.901 -0.206675 1.56239 0
M  V30 1200 C 108.848 -1.25617 1.93621 0
M  V30 1201 C 109.818 -1.45824 0.795274 0
M  V30 1202 O 111.003 -1.59148 1.05245 0
M  V30 1203 C 108.143 -2.59839 2.27107 0
M  V30 1204 C 107.256 -2.47308 3.54207 0
M  V30 1205 C 106.391 -3.74155 3.7707 0
M  V30 1206 C 105.43 -3.56407 4.97635 0
M  V30 1207 N 104.567 -4.75238 5.1681 0
M  V30 1208 H 109.407 -0.930383 2.83104 0
M  V30 1209 H 106.944 -0.448065 1.4011 0
M  V30 1210 H 108.902 -3.38021 2.44535 0
M  V30 1211 H 107.532 -2.90485 1.40778 0
M  V30 1212 H 106.584 -1.60483 3.4489 0
M  V30 1213 H 107.896 -2.30122 4.42544 0
M  V30 1214 H 107.05 -4.60778 3.94675 0
M  V30 1215 H 105.789 -3.94282 2.87042 0
M  V30 1216 H 104.794 -2.68168 4.79964 0
M  V30 1217 H 106.019 -3.37736 5.89161 0
M  V30 1218 H 103.965 -4.95651 4.29728 0
M  V30 1219 H 103.882 -4.60835 5.99306 0
M  V30 1220 H 105.15 -5.63246 5.38864 0
M  V30 1221 N 109.379 -1.50304 -0.473955 0
M  V30 1222 C 110.604 -1.65175 -1.25427 0
M  V30 1223 C 111.029 -0.333673 -1.85117 0
M  V30 1224 O 110.387 0.702114 -1.67153 0
M  V30 1225 C 110.435 -2.74295 -2.34082 0
M  V30 1226 O 109.539 -2.35349 -3.38651 0
M  V30 1227 H 108.88 -0.551944 -0.369126 0
M  V30 1228 H 111.41 -1.96662 -0.564364 0
M  V30 1229 H 111.42 -2.97285 -2.79438 0
M  V30 1230 H 110.095 -3.69959 -1.90008 0
M  V30 1231 H 108.672 -2.22794 -2.99027 0
M  V30 1232 N 110.857 0.726932 -1.39834 0
M  V30 1233 C 112.105 1.4837 -1.37225 0
M  V30 1234 C 112.426 1.94979 0.0284857 0
M  V30 1235 O 111.696 1.69555 0.981213 0
M  V30 1236 H 110.276 0.55043 -0.505011 0
M  V30 1237 H 112.938 0.862468 -1.74778 0
M  V30 1238 H 112.034 2.36198 -2.04003 0
M  V30 1239 N 112.336 1.25143 0.95797 0
M  V30 1240 C 113.299 1.05321 2.03569 0
M  V30 1241 C 114.299 0.007152 1.60798 0
M  V30 1242 O 115.489 0.24903 1.72411 0
M  V30 1243 C 112.621 0.598394 3.35607 0
M  V30 1244 H 113.814 2.00986 2.22586 0
M  V30 1245 H 111.367 1.07502 1.13459 0
M  V30 1246 H 112.102 -0.361014 3.22284 0
M  V30 1247 H 111.887 1.35351 3.67998 0
M  V30 1248 H 113.377 0.48104 4.1482 0
M  V30 1249 N 113.814 -1.1601 1.06675 0
M  V30 1250 C 115.063 -1.85973 0.780818 0
M  V30 1251 C 115.376 -1.82819 -0.695444 0
M  V30 1252 O 116.582 -2.484 -1.09589 0
M  V30 1253 C 115.038 -3.33757 1.34665 0
M  V30 1254 C 114.646 -3.45374 2.85343 0
M  V30 1255 C 116.39 -4.0895 1.13843 0
M  V30 1256 C 114.297 -4.87266 3.35151 0
M  V30 1257 H 113.227 -0.696661 0.288407 0
M  V30 1258 H 115.878 -1.30903 1.28595 0
M  V30 1259 H 114.26 -3.88456 0.769274 0
M  V30 1260 H 115.434 -3.00816 3.49065 0
M  V30 1261 H 113.749 -2.83619 3.04876 0
M  V30 1262 H 116.346 -5.13654 1.4854 0
M  V30 1263 H 116.689 -4.16229 0.0770282 0
M  V30 1264 H 117.222 -3.605 1.68179 0
M  V30 1265 H 113.961 -4.85168 4.40786 0
M  V30 1266 H 113.481 -5.32433 2.76179 0
M  V30 1267 H 115.16 -5.56097 3.30704 0
M  V30 1268 N 115.292 -0.849877 -1.32721 0
M  V30 1269 C 116.239 -0.289033 -2.28983 0
M  V30 1270 C 117.209 0.601324 -1.54833 0
M  V30 1271 O 118.394 0.537253 -1.8308 0
M  V30 1272 C 115.534 0.520623 -3.4115 0
M  V30 1273 C 114.647 -0.394989 -4.3019 0
M  V30 1274 C 113.782 0.426834 -5.29482 0
M  V30 1275 C 112.821 -0.486476 -6.10164 0
M  V30 1276 N 111.958 0.297879 -7.01468 0
M  V30 1277 H 116.798 -1.11519 -2.76347 0
M  V30 1278 H 114.335 -0.56138 -1.35967 0
M  V30 1279 H 116.293 1.00563 -4.04899 0
M  V30 1280 H 114.923 1.31165 -2.9495 0
M  V30 1281 H 113.975 -0.99836 -3.67065 0
M  V30 1282 H 115.287 -1.09612 -4.86607 0
M  V30 1283 H 114.441 0.975205 -5.98811 0
M  V30 1284 H 113.18 1.16136 -4.73671 0
M  V30 1285 H 112.185 -1.04677 -5.39743 0
M  V30 1286 H 113.41 -1.21953 -6.6806 0
M  V30 1287 H 111.356 1.01558 -6.48091 0
M  V30 1288 H 111.273 -0.344318 -7.55216 0
M  V30 1289 H 112.541 0.828131 -7.75089 0
M  V30 1290 N 116.77 1.45427 -0.607355 0
M  V30 1291 C 118.016 2.0254 -0.102607 0
M  V30 1292 C 118.349 1.47478 1.26348 0
M  V30 1293 O 117.624 0.64939 1.83339 0
M  V30 1294 C 117.907 3.60044 -0.0634347 0
M  V30 1295 C 117.76 4.2544 -1.46017 0
M  V30 1296 C 119.079 4.35646 0.624514 0
M  V30 1297 H 116.198 0.73598 -0.0387607 0
M  V30 1298 H 118.84 1.73284 -0.779282 0
M  V30 1299 H 116.99 3.85101 0.512808 0
M  V30 1300 H 118.662 4.11569 -2.08347 0
M  V30 1301 H 116.905 3.83849 -2.02094 0
M  V30 1302 H 117.576 5.34342 -1.385 0
M  V30 1303 H 120.052 4.15882 0.134723 0
M  V30 1304 H 118.928 5.45376 0.621028 0
M  V30 1305 H 119.189 4.08501 1.69055 0
M  V30 1306 N 118.248 0.346503 1.53744 0
M  V30 1307 C 119.178 -0.501193 2.28058 0
M  V30 1308 C 120.159 -1.10014 1.29734 0
M  V30 1309 O 121.344 -1.12097 1.58581 0
M  V30 1310 C 118.474 -1.65078 3.05559 0
M  V30 1311 C 117.428 -1.18003 4.11411 0
M  V30 1312 C 116.754 -2.41837 4.76884 0
M  V30 1313 C 118.054 -0.278394 5.21558 0
M  V30 1314 H 119.748 0.11875 2.99164 0
M  V30 1315 H 117.294 0.0585531 1.43881 0
M  V30 1316 H 119.247 -2.25028 3.56287 0
M  V30 1317 H 117.971 -2.29767 2.32109 0
M  V30 1318 H 116.63 -0.603331 3.61601 0
M  V30 1319 H 116.278 -3.0494 4.00026 0
M  V30 1320 H 115.978 -2.1102 5.48402 0
M  V30 1321 H 117.502 -3.02508 5.30397 0
M  V30 1322 H 118.916 -0.784823 5.67903 0
M  V30 1323 H 117.313 -0.0619707 6.00068 0
M  V30 1324 H 118.383 0.684677 4.80042 0
M  V30 1325 N 119.726 -1.57421 0.075193 0
M  V30 1326 C 120.673 -2.12915 -0.890843 0
M  V30 1327 C 121.643 -1.04252 -1.29309 0
M  V30 1328 O 122.828 -1.31933 -1.37834 0
M  V30 1329 C 119.968 -2.69795 -2.15186 0
M  V30 1330 C 119.081 -3.92624 -1.80194 0
M  V30 1331 C 118.216 -4.37736 -3.00933 0
M  V30 1332 C 117.255 -5.53205 -2.61974 0
M  V30 1333 N 116.392 -5.9326 -3.75483 0
M  V30 1334 H 121.232 -2.95156 -0.410735 0
M  V30 1335 H 118.769 -1.45854 -0.191086 0
M  V30 1336 H 120.727 -3.00883 -2.89008 0
M  V30 1337 H 119.357 -1.90313 -2.60731 0
M  V30 1338 H 118.409 -3.67977 -0.964218 0
M  V30 1339 H 119.721 -4.76482 -1.47534 0
M  V30 1340 H 118.875 -4.70503 -3.8303 0
M  V30 1341 H 117.614 -3.52739 -3.36789 0
M  V30 1342 H 116.619 -5.20086 -1.783 0
M  V30 1343 H 117.844 -6.39936 -2.27284 0
M  V30 1344 H 115.79 -5.11212 -4.11094 0
M  V30 1345 H 115.707 -6.71865 -3.46602 0
M  V30 1346 H 116.975 -6.30651 -4.58148 0
M  V30 1347 N 121.204 0.198386 -1.56346 0
M  V30 1348 C 122.452 0.91747 -1.80075 0
M  V30 1349 C 122.773 1.83929 -0.647692 0
M  V30 1350 O 122.043 1.93029 0.334166 0
M  V30 1351 H 120.623 0.341774 -0.664228 0
M  V30 1352 H 123.285 0.204684 -1.93822 0
M  V30 1353 H 122.381 1.51055 -2.7311 0
M  V30 1354 N 122.682 1.50554 0.465978 0
M  V30 1355 C 123.929 1.61798 1.21768 0
M  V30 1356 C 124.257 0.320696 1.91838 0
M  V30 1357 O 123.512 -0.693724 1.82992 0
M  V30 1358 C 123.811 2.75152 2.28093 0
M  V30 1359 C 123.477 4.15454 1.75239 0
M  V30 1360 C 122.139 4.53628 1.60546 0
M  V30 1361 C 124.491 5.03121 1.36083 0
M  V30 1362 C 121.819 5.77204 1.05128 0
M  V30 1363 C 124.171 6.27249 0.821056 0
M  V30 1364 C 122.835 6.64221 0.660795 0
M  V30 1365 H 122.105 0.592063 0.445582 0
M  V30 1366 H 124.752 1.84503 0.512927 0
M  V30 1367 H 123.057 2.46556 3.04496 0
M  V30 1368 H 124.754 2.81055 2.86023 0
M  V30 1369 H 121.344 3.85341 1.87644 0
M  V30 1370 H 125.528 4.74257 1.46267 0
M  V30 1371 H 120.784 6.0452 0.91462 0
M  V30 1372 H 124.958 6.94537 0.509018 0
M  V30 1373 H 122.585 7.59854 0.229226 0
M  V30 1374 N 124.16 -0.719506 1.40217 0
M  V30 1375 C 125.107 -1.83359 1.40172 0
M  V30 1376 C 126.077 -1.64065 0.259206 0
M  V30 1377 O 127.262 -1.85254 0.456677 0
M  V30 1378 C 124.402 -3.2103 1.26624 0
M  V30 1379 C 123.515 -3.51923 2.50548 0
M  V30 1380 C 122.65 -4.79079 2.29471 0
M  V30 1381 C 121.689 -5.02863 3.48992 0
M  V30 1382 N 120.826 -6.2123 3.27135 0
M  V30 1383 H 125.666 -1.82733 2.35399 0
M  V30 1384 H 123.203 -0.892688 1.16917 0
M  V30 1385 H 125.161 -4.00524 1.16776 0
M  V30 1386 H 123.791 -3.20895 0.350176 0
M  V30 1387 H 122.843 -2.67014 2.70939 0
M  V30 1388 H 124.155 -3.6541 3.39525 0
M  V30 1389 H 123.309 -5.66582 2.16955 0
M  V30 1390 H 122.048 -4.67794 1.37913 0
M  V30 1391 H 121.053 -4.13816 3.6199 0
M  V30 1392 H 122.278 -5.16023 4.41472 0
M  V30 1393 H 120.224 -6.11204 2.38256 0
M  V30 1394 H 120.141 -6.35375 4.09675 0
M  V30 1395 H 121.409 -7.11532 3.18344 0
M  V30 1396 N 125.638 -1.25649 -0.95132 0
M  V30 1397 C 126.585 -1.06323 -2.04851 0
M  V30 1398 C 127.555 0.0286491 -1.66075 0
M  V30 1399 O 128.74 -0.12917 -1.90362 0
M  V30 1400 C 125.88 -0.691529 -3.381 0
M  V30 1401 C 124.993 -1.85861 -3.89974 0
M  V30 1402 C 124.128 -1.43096 -5.11563 0
M  V30 1403 C 123.167 -2.56696 -5.55674 0
M  V30 1404 N 122.304 -2.14684 -6.68472 0
M  V30 1405 H 127.144 -2.00222 -2.20715 0
M  V30 1406 H 124.681 -0.997027 -1.08156 0
M  V30 1407 H 126.639 -0.456963 -4.1469 0
M  V30 1408 H 125.269 0.210474 -3.22113 0
M  V30 1409 H 124.321 -2.20639 -3.09875 0
M  V30 1410 H 125.633 -2.71161 -4.18657 0
M  V30 1411 H 124.787 -1.15624 -5.9558 0
M  V30 1412 H 123.526 -0.548722 -4.84603 0
M  V30 1413 H 122.531 -2.84909 -4.7022 0
M  V30 1414 H 123.756 -3.45503 -5.8464 0
M  V30 1415 H 121.702 -1.28881 -6.43215 0
M  V30 1416 H 121.619 -2.9353 -6.96689 0
M  V30 1417 H 122.887 -1.90397 -7.5589 0
M  V30 1418 N 127.117 1.15442 -1.07289 0
M  V30 1419 C 128.027 2.23786 -0.704057 0
M  V30 1420 C 129.043 1.7166 0.284413 0
M  V30 1421 O 130.219 2.00972 0.131205 0
M  V30 1422 C 127.284 3.46535 -0.106792 0
M  V30 1423 C 126.345 4.13654 -1.14842 0
M  V30 1424 C 125.578 5.30544 -0.57956 0
M  V30 1425 O 125.801 5.67187 0.604585 0
M  V30 1426 O 124.735 5.87154 -1.32414 0
M  V30 1427 H 128.561 2.57664 -1.60757 0
M  V30 1428 H 126.146 1.23152 -0.845803 0
M  V30 1429 H 128.028 4.20804 0.224048 0
M  V30 1430 H 126.703 3.14407 0.770049 0
M  V30 1431 H 125.61 3.4131 -1.5316 0
M  V30 1432 H 126.943 4.49861 -1.99714 0
M  V30 1433 N 128.595 0.856903 1.32268 0
M  V30 1434 C 129.844 0.457599 1.96441 0
M  V30 1435 C 130.157 -0.992426 1.68553 0
M  V30 1436 O 131.363 -1.49727 2.26482 0
M  V30 1437 C 129.819 0.767358 3.51624 0
M  V30 1438 C 129.427 2.23326 3.88367 0
M  V30 1439 C 131.171 0.435887 4.22256 0
M  V30 1440 C 129.078 2.48613 5.36606 0
M  V30 1441 H 128.008 0.167387 0.735185 0
M  V30 1442 H 130.659 1.048 1.5063 0
M  V30 1443 H 129.041 0.106367 3.95857 0
M  V30 1444 H 130.215 2.93623 3.55137 0
M  V30 1445 H 128.53 2.52948 3.30766 0
M  V30 1446 H 131.127 0.602202 5.31298 0
M  V30 1447 H 131.47 -0.622672 4.11617 0
M  V30 1448 H 132.003 1.05286 3.83614 0
M  V30 1449 H 128.742 3.53101 5.52268 0
M  V30 1450 H 128.262 1.82896 5.71235 0
M  V30 1451 H 129.941 2.32676 6.03714 0
M  V30 1452 N 130.073 -1.45103 0.615059 0
M  V30 1453 C 131.298 -2.07064 0.117988 0
M  V30 1454 C 131.723 -1.4554 -1.19163 0
M  V30 1455 O 131.081 -0.550855 -1.72729 0
M  V30 1456 C 131.129 -3.606 -0.000288387 0
M  V30 1457 O 130.233 -3.98847 -1.04856 0
M  V30 1458 H 129.574 -0.659467 0.0774581 0
M  V30 1459 H 132.104 -1.86236 0.847186 0
M  V30 1460 H 132.114 -4.07529 -0.196091 0
M  V30 1461 H 130.789 -4.04765 0.955932 0
M  V30 1462 H 129.366 -3.63577 -0.828619 0
M  V30 1463 N 131.551 -0.354651 -1.53558 0
M  V30 1464 C 132.499 0.512195 -2.26891 0
M  V30 1465 C 133.493 1.09263 -1.29452 0
M  V30 1466 O 134.699 1.03709 -1.47121 0
M  V30 1467 H 131.074 0.183878 -0.729173 0
M  V30 1468 H 133.045 -0.128202 -2.98124 0
M  V30 1469 C 131.794 1.64563 -3.06291 0
M  V30 1470 H 131.117 1.20829 -3.81104 0
M  V30 1471 H 132.557 2.22711 -3.60799 0
M  V30 1472 C 131.016 2.58158 -2.16462 0
M  V30 1473 O 131.546 3.60695 -1.76811 0
M  V30 1474 N 129.752 2.27096 -1.81317 0
M  V30 1475 H 129.299 1.43751 -2.1376 0
M  V30 1476 H 129.257 2.89975 -1.21498 0
M  V30 1477 N 133.029 1.57378 -0.0835403 0
M  V30 1478 C 133.962 2.09016 0.915833 0
M  V30 1479 C 134.94 0.997993 1.2837 0
M  V30 1480 O 136.124 1.27219 1.39096 0
M  V30 1481 C 133.251 2.55757 2.22049 0
M  V30 1482 C 132.297 3.76522 2.00333 0
M  V30 1483 S 133.13 5.20661 1.25191 0
M  V30 1484 C 134.286 5.70743 2.56912 0
M  V30 1485 H 134.519 2.93457 0.476492 0
M  V30 1486 H 132.052 1.53856 0.129493 0
M  V30 1487 H 134.01 2.83346 2.97027 0
M  V30 1488 H 132.671 1.71564 2.63106 0
M  V30 1489 H 131.864 4.07256 2.96916 0
M  V30 1490 H 131.466 3.49367 1.33488 0
M  V30 1491 H 133.758 5.78304 3.52946 0
M  V30 1492 H 134.701 6.6944 2.30772 0
M  V30 1493 H 135.109 4.98616 2.64655 0
M  V30 1494 N 134.507 -0.190092 1.56449 0
M  V30 1495 C 135.437 -1.23816 1.97969 0
M  V30 1496 C 136.418 -1.47201 0.852395 0
M  V30 1497 O 137.603 -1.58854 1.1171 0
M  V30 1498 C 134.733 -2.5813 2.3235 0
M  V30 1499 C 133.687 -2.49348 3.47864 0
M  V30 1500 C 133.013 -3.8798 3.67934 0
M  V30 1501 C 134.313 -2.01424 4.81898 0
M  V30 1502 H 136.007 -0.89311 2.85769 0
M  V30 1503 H 133.553 -0.428177 1.37487 0
M  V30 1504 H 135.506 -3.31637 2.59991 0
M  V30 1505 H 134.23 -2.94386 1.41438 0
M  V30 1506 H 132.889 -1.78297 3.20321 0
M  V30 1507 H 132.537 -4.21597 2.74344 0
M  V30 1508 H 132.237 -3.82978 4.45648 0
M  V30 1509 H 133.761 -4.63101 3.97957 0
M  V30 1510 H 135.175 -2.64693 5.08538 0
M  V30 1511 H 133.572 -2.07413 5.63116 0
M  V30 1512 H 134.642 -0.967677 4.75146 0
M  V30 1513 N 135.985 -1.50799 -0.457987 0
M  V30 1514 C 137.21 -1.66496 -1.23668 0
M  V30 1515 C 137.635 -0.353288 -1.84752 0
M  V30 1516 O 136.993 0.684346 -1.67888 0
M  V30 1517 C 137.041 -2.76763 -2.3116 0
M  V30 1518 O 136.145 -2.38928 -3.36136 0
M  V30 1519 H 135.486 -0.555828 -0.363252 0
M  V30 1520 H 138.016 -1.9725 -0.543474 0
M  V30 1521 H 138.026 -3.00232 -2.76269 0
M  V30 1522 H 136.701 -3.71954 -1.86073 0
M  V30 1523 H 135.278 -2.25953 -2.96647 0
M  V30 1524 N 137.463 0.71206 -1.40597 0
M  V30 1525 C 138.712 1.46754 -1.38369 0
M  V30 1526 C 139.025 1.95598 0.0097839 0
M  V30 1527 O 140.231 2.71059 0.154677 0
M  V30 1528 C 138.687 2.65289 -2.43207 0
M  V30 1529 C 138.295 2.23301 -3.88382 0
M  V30 1530 C 140.039 3.43008 -2.50091 0
M  V30 1531 C 137.946 3.38696 -4.84808 0
M  V30 1532 H 136.876 0.55118 -0.514506 0
M  V30 1533 H 139.527 0.774616 -1.66349 0
M  V30 1534 H 137.909 3.36769 -2.08332 0
M  V30 1535 H 139.083 1.59218 -4.32419 0
M  V30 1536 H 137.398 1.58618 -3.85006 0
M  V30 1537 H 139.995 4.28881 -3.1932 0
M  V30 1538 H 140.338 3.87065 -1.53253 0
M  V30 1539 H 140.871 2.78574 -2.83974 0
M  V30 1540 H 137.61 2.99668 -5.82992 0
M  V30 1541 H 137.13 4.01683 -4.45433 0
M  V30 1542 H 138.809 4.04712 -5.04794 0
M  V30 1543 N 138.941 1.26152 0.944643 0
M  V30 1544 C 140.19 1.10883 1.68487 0
M  V30 1545 C 140.503 -0.348153 1.92477 0
M  V30 1546 O 141.709 -0.621459 2.64292 0
M  V30 1547 C 140.165 1.93624 3.03377 0
M  V30 1548 C 139.773 3.43875 2.87148 0
M  V30 1549 C 141.517 1.86954 3.81115 0
M  V30 1550 C 139.424 4.18875 4.1749 0
M  V30 1551 H 138.354 0.41135 0.631907 0
M  V30 1552 H 141.005 1.50433 1.05082 0
M  V30 1553 H 139.387 1.46904 3.67743 0
M  V30 1554 H 140.561 3.98338 2.31653 0
M  V30 1555 H 138.876 3.51744 2.22856 0
M  V30 1556 H 141.473 2.40275 4.77673 0
M  V30 1557 H 141.816 0.839518 4.07747 0
M  V30 1558 H 142.349 2.31477 3.23517 0
M  V30 1559 H 139.088 5.22332 3.96043 0
M  V30 1560 H 138.608 3.69193 4.72712 0
M  V30 1561 H 140.287 4.27134 4.85968 0
M  V30 1562 N 140.419 -1.14872 1.07899 0
M  V30 1563 C 141.367 -2.21857 0.698727 0
M  V30 1564 C 142.361 -1.66845 -0.293086 0
M  V30 1565 O 143.567 -1.79321 -0.156204 0
M  V30 1566 H 139.942 -0.722691 0.207899 0
M  V30 1567 H 141.913 -2.51205 1.61054 0
M  V30 1568 C 140.662 -3.47498 0.11858 0
M  V30 1569 H 139.985 -3.90154 0.872914 0
M  V30 1570 H 141.425 -4.23858 -0.109759 0
M  V30 1571 C 139.884 -3.16947 -1.1422 0
M  V30 1572 O 140.414 -3.3426 -2.22785 0
M  V30 1573 N 138.62 -2.70946 -1.05055 0
M  V30 1574 H 138.167 -2.57058 -0.167038 0
M  V30 1575 H 138.125 -2.50879 -1.89491 0
M  V30 1576 N 141.898 -0.863906 -1.31812 0
M  V30 1577 C 142.845 -0.313303 -2.28664 0
M  V30 1578 C 143.815 0.584868 -1.55462 0
M  V30 1579 O 145 0.517805 -1.83639 0
M  V30 1580 C 142.14 0.48441 -3.41683 0
M  V30 1581 C 141.253 -0.440594 -4.29747 0
M  V30 1582 C 140.388 0.370652 -5.29905 0
M  V30 1583 C 139.427 -0.551164 -6.09613 0
M  V30 1584 N 138.564 0.223462 -7.01744 0
M  V30 1585 H 143.404 -1.14444 -2.75148 0
M  V30 1586 H 140.941 -0.575769 -1.35364 0
M  V30 1587 H 142.899 0.962627 -4.05943 0
M  V30 1588 H 141.529 1.28029 -2.96325 0
M  V30 1589 H 140.581 -1.03724 -3.65986 0
M  V30 1590 H 141.893 -1.14767 -4.85417 0
M  V30 1591 H 141.047 0.911638 -5.99812 0
M  V30 1592 H 139.786 1.11105 -4.74876 0
M  V30 1593 H 138.791 -1.10396 -5.38603 0
M  V30 1594 H 140.016 -1.29032 -6.66729 0
M  V30 1595 H 137.962 0.946787 -6.49132 0
M  V30 1596 H 137.879 -0.424399 -7.54808 0
M  V30 1597 H 139.147 0.745876 -7.75923 0
M  V30 1598 N 143.376 1.44774 -0.622745 0
M  V30 1599 C 144.792 1.56986 -0.287652 0
M  V30 1600 C 144.992 1.61167 1.20944 0
M  V30 1601 O 144.048 1.55015 1.99315 0
M  V30 1602 C 145.361 2.84551 -0.972188 0
M  V30 1603 C 146.909 2.9825 -0.949536 0
M  V30 1604 C 147.384 4.28605 -1.61437 0
M  V30 1605 N 148.875 4.35399 -1.58057 0
M  V30 1606 C 149.61 5.34964 -2.064 0
M  V30 1607 N 149.106 6.40981 -2.62897 0
M  V30 1608 N 150.899 5.26419 -1.97078 0
M  V30 1609 H 143.05 1.40304 -1.59463 0
M  V30 1610 H 145.313 0.671794 -0.668878 0
M  V30 1611 H 145.019 2.87417 -2.02693 0
M  V30 1612 H 144.893 3.73807 -0.504771 0
M  V30 1613 H 147.28 2.94941 0.0967067 0
M  V30 1614 H 147.361 2.10364 -1.45536 0
M  V30 1615 H 147.005 4.32672 -2.66002 0
M  V30 1616 H 146.935 5.15334 -1.08344 0
M  V30 1617 H 149.426 3.59397 -1.16801 0
M  V30 1618 H 149.739 7.13225 -2.97539 0
M  V30 1619 H 148.084 6.4169 -2.66943 0
M  V30 1620 H 151.275 4.42504 -1.52669 0
M  V30 1621 H 151.448 6.03861 -2.35066 0
M  V30 1622 N 144.854 0.36279 1.53368 0
M  V30 1623 C 145.801 -0.485008 2.25646 0
M  V30 1624 C 146.771 -1.07982 1.2621 0
M  V30 1625 O 147.956 -1.11284 1.54986 0
M  V30 1626 C 145.096 -1.62023 3.04701 0
M  V30 1627 C 144.209 -1.05086 4.19024 0
M  V30 1628 C 143.344 -2.15496 4.85525 0
M  V30 1629 C 142.383 -1.5601 5.91884 0
M  V30 1630 N 141.52 -2.60241 6.52088 0
M  V30 1631 H 146.36 0.137864 2.97681 0
M  V30 1632 H 143.897 0.0798061 1.46883 0
M  V30 1633 H 145.855 -2.28887 3.48807 0
M  V30 1634 H 144.485 -2.2138 2.34927 0
M  V30 1635 H 143.537 -0.27259 3.79422 0
M  V30 1636 H 144.849 -0.575926 4.95464 0
M  V30 1637 H 144.003 -2.90186 5.32801 0
M  V30 1638 H 142.742 -2.66341 4.08551 0
M  V30 1639 H 141.747 -0.798338 5.43973 0
M  V30 1640 H 142.972 -1.05994 6.70777 0
M  V30 1641 H 140.918 -3.10304 5.77968 0
M  V30 1642 H 140.835 -2.17426 7.24059 0
M  V30 1643 H 142.103 -3.34641 7.04014 0
M  V30 1644 N 146.332 -1.57332 0.0918853 0
M  V30 1645 C 147.279 -2.13847 -0.868211 0
M  V30 1646 C 148.249 -1.05618 -1.28196 0
M  V30 1647 O 149.434 -1.33387 -1.36427 0
M  V30 1648 C 146.574 -2.72062 -2.12312 0
M  V30 1649 C 145.687 -3.94514 -1.7602 0
M  V30 1650 C 144.822 -4.40903 -2.96273 0
M  V30 1651 C 143.861 -5.55953 -2.56092 0
M  V30 1652 N 142.998 -5.97209 -3.69169 0
M  V30 1653 H 147.838 -2.95575 -0.379406 0
M  V30 1654 H 145.375 -1.46048 -0.175606 0
M  V30 1655 H 147.333 -3.03931 -2.858 0
M  V30 1656 H 145.963 -1.93068 -2.58698 0
M  V30 1657 H 145.015 -3.68979 -0.925135 0
M  V30 1658 H 146.327 -4.7802 -1.42472 0
M  V30 1659 H 145.481 -4.74539 -3.78018 0
M  V30 1660 H 144.22 -3.56291 -3.33029 0
M  V30 1661 H 143.225 -5.21948 -1.72773 0
M  V30 1662 H 144.45 -6.42311 -2.20484 0
M  V30 1663 H 142.396 -5.15543 -4.05649 0
M  V30 1664 H 142.313 -6.75504 -3.39456 0
M  V30 1665 H 143.581 -6.35475 -4.51434 0
M  V30 1666 N 147.81 0.181792 -1.56548 0
M  V30 1667 C 149.038 0.915947 -1.85521 0
M  V30 1668 C 149.453 1.76282 -0.676016 0
M  V30 1669 O 148.81 1.79012 0.355077 0
M  V30 1670 C 148.861 1.80126 -3.13427 0
M  V30 1671 O 148.582 0.988562 -4.26801 0
M  V30 1672 C 150.083 2.64597 -3.55673 0
M  V30 1673 H 147.303 0.26661 -0.61576 0
M  V30 1674 H 149.847 0.185039 -2.03661 0
M  V30 1675 H 148.002 2.48563 -2.97145 0
M  V30 1676 H 148.416 1.59308 -4.99721 0
M  V30 1677 H 149.89 3.2235 -4.48101 0
M  V30 1678 H 150.367 3.38958 -2.79292 0
M  V30 1679 H 150.973 2.0151 -3.74532 0
M  V30 1680 N 149.288 1.51039 0.449983 0
M  V30 1681 C 150.513 1.6715 1.22783 0
M  V30 1682 C 150.938 0.363081 1.84563 0
M  V30 1683 O 150.296 -0.675433 1.68249 0
M  V30 1684 C 150.344 2.77985 2.29689 0
M  V30 1685 O 149.448 2.40707 3.34864 0
M  V30 1686 H 148.789 0.557746 0.360299 0
M  V30 1687 H 151.319 1.97535 0.533005 0
M  V30 1688 H 151.329 3.01693 2.74673 0
M  V30 1689 H 150.004 3.72935 1.84098 0
M  V30 1690 H 148.581 2.27523 2.95445 0
M  V30 1691 N 150.766 -0.704594 1.40972 0
M  V30 1692 C 151.696 -1.83124 1.44872 0
M  V30 1693 C 152.677 -1.67281 0.30838 0
M  V30 1694 O 153.862 -1.87149 0.518556 0
M  V30 1695 C 150.992 -3.21181 1.32136 0
M  V30 1696 C 149.946 -3.51714 2.43888 0
M  V30 1697 C 149.272 -4.89032 2.16222 0
M  V30 1698 C 150.572 -3.516 3.86232 0
M  V30 1699 H 152.266 -1.80117 2.39161 0
M  V30 1700 H 149.812 -0.865145 1.15114 0
M  V30 1701 H 151.765 -3.99702 1.33479 0
M  V30 1702 H 150.489 -3.24791 0.343279 0
M  V30 1703 H 149.148 -2.75539 2.41813 0
M  V30 1704 H 148.796 -4.89256 1.16778 0
M  V30 1705 H 148.496 -5.10426 2.911 0
M  V30 1706 H 150.02 -5.69873 2.19265 0
M  V30 1707 H 151.434 -4.2014 3.9007 0
M  V30 1708 H 149.831 -3.84523 4.60719 0
M  V30 1709 H 150.901 -2.50757 4.15029 0
M  V30 1710 N 152.244 -1.26651 -0.937939 0
M  V30 1711 C 153.484 -1.13611 -1.69917 0
M  V30 1712 C 153.848 0.314687 -1.89404 0
M  V30 1713 O 155.049 0.567285 -2.62746 0
M  V30 1714 C 153.32 -1.88742 -3.03498 0
M  V30 1715 S 154.879 -1.91794 -3.94665 0
M  V30 1716 H 151.697 -0.405767 -0.583844 0
M  V30 1717 H 154.299 -1.60416 -1.11745 0
M  V30 1718 H 153.003 -2.9336 -2.86999 0
M  V30 1719 H 152.534 -1.42391 -3.66727 0
M  V30 1720 H 154.549 -1.00698 -4.85875 0
M  V30 1721 N 153.722 1.14298 -1.08507 0
M  V30 1722 C 154.652 2.21542 -0.737646 0
M  V30 1723 C 155.633 1.67773 0.280377 0
M  V30 1724 O 156.818 1.93616 0.150521 0
M  V30 1725 C 153.948 3.46988 -0.147259 0
M  V30 1726 C 152.902 4.13789 -1.09374 0
M  V30 1727 C 152.228 5.33449 -0.365524 0
M  V30 1728 C 153.528 4.62208 -2.4323 0
M  V30 1729 H 155.222 2.5086 -1.6343 0
M  V30 1730 H 152.768 1.20576 -0.787243 0
M  V30 1731 H 154.721 4.21262 0.107808 0
M  V30 1732 H 153.445 3.17037 0.784538 0
M  V30 1733 H 152.104 3.4147 -1.33393 0
M  V30 1734 H 151.752 4.99759 0.57011 0
M  V30 1735 H 151.452 5.79088 -0.996512 0
M  V30 1736 H 152.976 6.10485 -0.118534 0
M  V30 1737 H 154.39 5.27952 -2.23472 0
M  V30 1738 H 152.787 5.18553 -3.02031 0
M  V30 1739 H 153.857 3.77224 -3.04681 0
M  V30 1740 N 155.201 0.870884 1.31352 0
M  V30 1741 C 156.134 0.271983 2.26573 0
M  V30 1742 C 157.112 -0.599385 1.51149 0
M  V30 1743 O 158.296 -0.552605 1.80218 0
M  V30 1744 C 155.423 -0.614801 3.33073 0
M  V30 1745 C 154.469 0.185342 4.26097 0
M  V30 1746 S 155.302 1.56444 5.12138 0
M  V30 1747 C 156.458 0.683807 6.22153 0
M  V30 1748 H 156.691 1.07916 2.77023 0
M  V30 1749 H 154.224 0.669459 1.39132 0
M  V30 1750 H 156.182 -1.12074 3.94905 0
M  V30 1751 H 154.843 -1.39593 2.81376 0
M  V30 1752 H 154.036 -0.490771 5.01605 0
M  V30 1753 H 153.638 0.623415 3.68768 0
M  V30 1754 H 155.93 -0.10521 6.77418 0
M  V30 1755 H 156.873 1.41004 6.93919 0
M  V30 1756 H 157.281 0.250952 5.63942 0
M  V30 1757 N 156.679 -1.44442 0.630414 0
M  V30 1758 C 157.612 -2.27862 -0.124247 0
M  V30 1759 C 158.59 -1.38495 -0.851931 0
M  V30 1760 O 159.774 -1.67935 -0.856166 0
M  V30 1761 C 156.901 -3.17407 -1.18197 0
M  V30 1762 C 155.947 -4.22875 -0.554892 0
M  V30 1763 S 156.78 -5.31485 0.654489 0
M  V30 1764 C 157.936 -6.246 -0.40326 0
M  V30 1765 H 158.169 -2.91519 0.583435 0
M  V30 1766 H 155.702 -1.48618 0.418565 0
M  V30 1767 H 157.66 -3.69549 -1.78728 0
M  V30 1768 H 156.321 -2.52971 -1.86184 0
M  V30 1769 H 155.514 -4.85542 -1.35148 0
M  V30 1770 H 155.116 -3.73992 -0.0242105 0
M  V30 1771 H 157.408 -6.65375 -1.27602 0
M  V30 1772 H 158.351 -7.07851 0.187813 0
M  V30 1773 H 158.759 -5.59775 -0.728837 0
M  V30 1774 N 158.157 -0.370918 -1.53173 0
M  V30 1775 C 159.09 0.516727 -2.22273 0
M  V30 1776 C 160.068 1.07877 -1.21661 0
M  V30 1777 O 161.252 1.13389 -1.50583 0
M  V30 1778 C 158.379 1.71346 -2.92161 0
M  V30 1779 C 157.425 1.27838 -4.0689 0
M  V30 1780 S 158.258 0.275217 -5.34792 0
M  V30 1781 C 159.414 1.47816 -6.08195 0
M  V30 1782 H 159.647 -0.0701054 -2.97217 0
M  V30 1783 H 157.18 -0.155038 -1.5362 0
M  V30 1784 H 159.138 2.39988 -3.3304 0
M  V30 1785 H 157.799 2.27156 -2.16931 0
M  V30 1786 H 156.992 2.17141 -4.54825 0
M  V30 1787 H 156.594 0.671105 -3.6793 0
M  V30 1788 H 158.886 2.40831 -6.33251 0
M  V30 1789 H 159.829 1.04008 -7.0042 0
M  V30 1790 H 160.237 1.68663 -5.38714 0
M  V30 1791 N 159.635 1.57281 -0.100228 0
M  V30 1792 C 160.565 2.17328 0.853857 0
M  V30 1793 C 161.546 1.10804 1.2906 0
M  V30 1794 O 162.731 1.38963 1.35657 0
M  V30 1795 C 159.861 2.75772 2.11109 0
M  V30 1796 C 158.815 3.87713 1.81279 0
M  V30 1797 C 158.141 4.32882 3.13874 0
M  V30 1798 C 159.441 5.10677 1.09574 0
M  V30 1799 H 161.135 2.97305 0.353545 0
M  V30 1800 H 158.681 1.43009 0.168612 0
M  V30 1801 H 160.634 3.16433 2.78296 0
M  V30 1802 H 159.358 1.93057 2.63432 0
M  V30 1803 H 158.017 3.476 1.16489 0
M  V30 1804 H 157.665 3.47051 3.64095 0
M  V30 1805 H 157.365 5.08358 2.94696 0
M  V30 1806 H 158.889 4.7618 3.82211 0
M  V30 1807 H 160.303 5.48474 1.66879 0
M  V30 1808 H 158.7 5.91615 1.00557 0
M  V30 1809 H 159.77 4.84835 0.0793299 0
M  V30 1810 N 161.113 -0.173488 1.56642 0
M  V30 1811 C 162.524 -0.736155 1.71574 0
M  V30 1812 C 162.875 -1.82888 0.710389 0
M  V30 1813 O 162 -2.16017 -0.1287 0
M  V30 1814 C 162.595 -1.34211 3.11083 0
M  V30 1815 C 161.154 -1.85162 3.27707 0
M  V30 1816 C 160.301 -0.729765 2.67525 0
M  V30 1817 H 163.252 0.0518786 1.58615 0
M  V30 1818 H 163.273 -2.21178 3.09613 0
M  V30 1819 H 162.785 -0.546579 3.84232 0
M  V30 1820 H 160.886 -2.67366 2.59512 0
M  V30 1821 H 160.999 -1.99855 4.35425 0
M  V30 1822 H 159.363 -1.14965 2.27278 0
M  V30 1823 H 160.146 0.0538806 3.43258 0
M  V30 1824 N 162.591 -1.51276 -0.441967 0
M  V30 1825 C 163.554 -1.7167 -1.51862 0
M  V30 1826 C 164.554 -0.586793 -1.49711 0
M  V30 1827 O 165.744 -0.854276 -1.51815 0
M  V30 1828 C 162.876 -1.76889 -2.91416 0
M  V30 1829 H 164.069 -2.67754 -1.35084 0
M  V30 1830 H 161.622 -1.41196 -0.670333 0
M  V30 1831 H 162.357 -0.826026 -3.13604 0
M  V30 1832 H 162.142 -2.59001 -2.94382 0
M  V30 1833 H 163.632 -1.94522 -3.69528 0
M  V30 1834 N 164.069 0.697108 -1.41344 0
M  V30 1835 C 165.297 1.48593 -1.43972 0
M  V30 1836 C 165.712 1.88747 -0.0445612 0
M  V30 1837 O 165.069 1.56682 0.935785 0
M  V30 1838 C 165.12 2.74946 -2.34706 0
M  V30 1839 O 164.841 2.36484 -3.68791 0
M  V30 1840 C 166.342 3.687 -2.46121 0
M  V30 1841 H 163.562 0.457964 -0.490418 0
M  V30 1842 H 166.106 0.858429 -1.8561 0
M  V30 1843 H 164.261 3.33937 -1.9638 0
M  V30 1844 H 164.675 3.17918 -4.17167 0
M  V30 1845 H 166.149 4.54145 -3.13777 0
M  V30 1846 H 166.626 4.13081 -1.49199 0
M  V30 1847 H 167.232 3.15613 -2.85076 0
M  V30 1848 N 165.547 1.27147 0.931209 0
M  V30 1849 C 166.477 1.12081 2.04842 0
M  V30 1850 C 167.458 0.0232364 1.70084 0
M  V30 1851 O 168.643 0.197085 1.93197 0
M  V30 1852 C 165.773 0.76354 3.38803 0
M  V30 1853 C 164.727 1.81396 3.87659 0
M  V30 1854 C 164.053 1.31075 5.18385 0
M  V30 1855 C 165.353 3.21739 4.11438 0
M  V30 1856 H 167.047 2.05537 2.17703 0
M  V30 1857 H 164.593 0.989603 1.04608 0
M  V30 1858 H 166.546 0.644982 4.16435 0
M  V30 1859 H 165.27 -0.206727 3.25945 0
M  V30 1860 H 163.929 1.92136 3.12217 0
M  V30 1861 H 163.577 0.330037 5.01916 0
M  V30 1862 H 163.277 2.013 5.52044 0
M  V30 1863 H 164.801 1.20506 5.98591 0
M  V30 1864 H 166.215 3.14019 4.79651 0
M  V30 1865 H 164.612 3.89644 4.56397 0
M  V30 1866 H 165.682 3.67054 3.16859 0
M  V30 1867 N 167.025 -1.13721 1.09112 0
M  V30 1868 C 167.988 -2.17222 0.731241 0
M  V30 1869 C 168.988 -1.59035 -0.237566 0
M  V30 1870 O 170.178 -1.74192 -0.0161704 0
M  V30 1871 C 167.31 -3.40804 0.0808443 0
M  V30 1872 H 168.503 -2.50573 1.64783 0
M  V30 1873 H 166.056 -1.28493 0.889897 0
M  V30 1874 H 166.791 -3.1304 -0.847127 0
M  V30 1875 H 166.576 -3.84306 0.777896 0
M  V30 1876 H 168.066 -4.1731 -0.155657 0
M  V30 1877 N 168.503 -0.877838 -1.30888 0
M  V30 1878 C 169.75 -0.492696 -1.96415 0
M  V30 1879 C 170.078 0.956671 -1.69346 0
M  V30 1880 O 169.333 1.68993 -0.986913 0
M  V30 1881 C 169.632 -0.705748 -3.50363 0
M  V30 1882 C 169.298 -2.1291 -3.97467 0
M  V30 1883 C 167.96 -2.51834 -4.1004 0
M  V30 1884 C 170.312 -3.05702 -4.22132 0
M  V30 1885 C 167.64 -3.82775 -4.44635 0
M  V30 1886 C 169.992 -4.36166 -4.58194 0
M  V30 1887 C 168.656 -4.74993 -4.68975 0
M  V30 1888 H 167.926 -0.18029 -0.718733 0
M  V30 1889 H 170.573 -1.11233 -1.55883 0
M  V30 1890 H 168.878 -0.00303058 -3.918 0
M  V30 1891 H 170.575 -0.387456 -3.99124 0
M  V30 1892 H 167.165 -1.81694 -3.88182 0
M  V30 1893 H 171.349 -2.76853 -4.11906 0
M  V30 1894 H 166.605 -4.12609 -4.51181 0
M  V30 1895 H 170.779 -5.08111 -4.76231 0
M  V30 1896 H 168.406 -5.76495 -4.95537 0
M  V30 1897 N 169.982 1.44106 -0.638065 0
M  V30 1898 C 170.932 2.27843 0.0847285 0
M  V30 1899 C 171.916 1.39055 0.809471 0
M  V30 1900 O 173.108 1.62808 0.694435 0
M  V30 1901 C 170.237 3.26497 1.06089 0
M  V30 1902 C 169.323 4.22772 0.33541 0
M  V30 1903 N 169.714 5.01737 -0.639787 0
M  V30 1904 C 168.012 4.42227 0.578921 0
M  V30 1905 C 168.713 5.71792 -1.06904 0
M  V30 1906 N 167.689 5.42079 -0.406395 0
M  V30 1907 H 171.491 2.86305 -0.663814 0
M  V30 1908 H 169.005 1.55627 -0.464122 0
M  V30 1909 H 171.002 3.8525 1.59337 0
M  V30 1910 H 169.662 2.69595 1.80966 0
M  V30 1911 H 170.673 5.07799 -1.01789 0
M  V30 1912 H 167.35 3.96415 1.31003 0
M  V30 1913 H 168.74 6.45205 -1.8751 0
M  V30 1914 N 171.46 0.379036 1.52974 0
M  V30 1915 C 172.39 -0.452706 2.29069 0
M  V30 1916 C 173.371 -1.07237 1.32039 0
M  V30 1917 O 174.556 -1.08708 1.60923 0
M  V30 1918 C 171.686 -1.5856 3.08992 0
M  V30 1919 C 170.64 -1.0925 4.13822 0
M  V30 1920 C 169.966 -2.31668 4.81907 0
M  V30 1921 C 171.266 -0.167702 5.22031 0
M  V30 1922 H 172.96 0.182181 2.98845 0
M  V30 1923 H 170.506 0.0890592 1.43724 0
M  V30 1924 H 172.459 -2.1742 3.6098 0
M  V30 1925 H 171.183 -2.24792 2.36931 0
M  V30 1926 H 169.842 -0.526494 3.628 0
M  V30 1927 H 169.49 -2.96386 4.06404 0
M  V30 1928 H 169.19 -1.9934 5.52754 0
M  V30 1929 H 170.714 -2.91189 5.36695 0
M  V30 1930 H 172.128 -0.664186 5.6944 0
M  V30 1931 H 170.525 0.0653265 6.00064 0
M  V30 1932 H 171.595 0.786347 4.78482 0
M  V30 1933 N 172.938 -1.57226 0.108567 0
M  V30 1934 C 174.166 -1.99179 -0.559954 0
M  V30 1935 C 174.581 -0.988022 -1.60884 0
M  V30 1936 O 173.938 0.0205512 -1.82488 0
M  V30 1937 C 173.989 -3.41159 -1.19552 0
M  V30 1938 O 173.71 -4.37694 -0.188577 0
M  V30 1939 C 175.211 -3.98188 -1.94837 0
M  V30 1940 H 172.431 -0.654228 -0.149088 0
M  V30 1941 H 174.975 -2.03598 0.19183 0
M  V30 1942 H 173.13 -3.37711 -1.89815 0
M  V30 1943 H 173.544 -5.20469 -0.649014 0
M  V30 1944 H 175.018 -4.99644 -2.34648 0
M  V30 1945 H 175.495 -3.3675 -2.81951 0
M  V30 1946 H 176.101 -4.0515 -1.2936 0
M  V30 1947 N 174.416 0.165178 -1.56732 0
M  V30 1948 C 175.641 0.900253 -1.86843 0
M  V30 1949 C 176.066 1.74766 -0.695596 0
M  V30 1950 O 175.424 1.77786 0.35522 0
M  V30 1951 C 175.472 1.74777 -3.15413 0
M  V30 1952 O 174.576 2.85007 -2.98068 0
M  V30 1953 H 173.917 0.251832 -0.614391 0
M  V30 1954 H 176.447 0.161468 -2.03962 0
M  V30 1955 H 176.457 2.14646 -3.46974 0
M  V30 1956 H 175.132 1.12537 -4.00385 0
M  V30 1957 H 173.709 2.48676 -2.77875 0
M  V30 1958 N 175.894 1.51508 0.433938 0
M  V30 1959 C 177.31 1.39759 0.770682 0
M  V30 1960 C 177.51 0.482594 1.95636 0
M  V30 1961 O 176.566 -0.0609691 2.52426 0
M  V30 1962 C 177.879 2.81851 1.04787 0
M  V30 1963 C 179.427 2.91025 1.1521 0
M  V30 1964 C 179.902 4.34032 1.46219 0
M  V30 1965 N 181.393 4.37154 1.53136 0
M  V30 1966 C 182.128 5.4484 1.78709 0
M  V30 1967 N 181.624 6.62682 2.02051 0
M  V30 1968 N 183.417 5.32324 1.80519 0
M  V30 1969 H 175.568 2.09548 -0.346892 0
M  V30 1970 H 177.831 0.943446 -0.0928074 0
M  V30 1971 H 177.537 3.50815 0.249304 0
M  V30 1972 H 177.411 3.21386 1.97461 0
M  V30 1973 H 179.798 2.22257 1.94128 0
M  V30 1974 H 179.879 2.54983 0.204281 0
M  V30 1975 H 179.523 5.03351 0.678274 0
M  V30 1976 H 179.453 4.6759 2.42212 0
M  V30 1977 H 181.944 3.52197 1.36987 0
M  V30 1978 H 182.257 7.40543 2.20943 0
M  V30 1979 H 180.602 6.65791 1.99366 0
M  V30 1980 H 183.793 4.39246 1.61805 0
M  V30 1981 H 183.966 6.16328 2.00111 0
M  V30 1982 N 177.372 -0.689602 1.41712 0
M  V30 1983 C 178.649 -1.44457 1.31877 0
M  V30 1984 C 179.029 -2.11039 -0.0508537 0
M  V30 1985 O 178.377 -2.02138 -1.06547 0
M  V30 1986 C 178.587 -2.45913 2.47645 0
M  V30 1987 C 179.935 -3.10991 2.89084 0
M  V30 1988 O 180.959 -2.56238 2.47428 0
M  V30 1989 O 179.818 -4.10174 3.61137 0
M  V30 1990 H 176.912 -0.64362 0.519309 0
M  V30 1991 H 179.458 -0.719576 1.53689 0
M  V30 1992 H 178.23 -1.95409 3.39015 0
M  V30 1993 H 177.853 -3.25913 2.27742 0
M  V30 1994 N 178.85 -1.27639 -0.924453 0
M  V30 1995 C 180.098 -1.13941 -1.66918 0
M  V30 1996 C 180.419 0.314589 -1.92446 0
M  V30 1997 O 179.689 1.21964 -1.53303 0
M  V30 1998 H 178.269 -0.418678 -0.618642 0
M  V30 1999 H 180.931 -1.60213 -1.10985 0
M  V30 2000 H 180.027 -1.67094 -2.63602 0
M  V30 2001 N 180.328 1.1314 -1.09713 0
M  V30 2002 C 181.238 2.22242 -0.751367 0
M  V30 2003 C 182.254 1.72224 0.247938 0
M  V30 2004 O 183.43 2.01205 0.0885463 0
M  V30 2005 C 180.495 3.46231 -0.180274 0
M  V30 2006 C 179.556 4.11125 -1.2359 0
M  V30 2007 C 178.789 5.29195 -0.691966 0
M  V30 2008 O 179.012 5.68342 0.48414 0
M  V30 2009 O 177.946 5.84214 -1.44838 0
M  V30 2010 H 181.772 2.54197 -1.66186 0
M  V30 2011 H 179.357 1.21331 -0.871735 0
M  V30 2012 H 181.239 4.21185 0.134739 0
M  V30 2013 H 179.914 3.1597 0.703185 0
M  V30 2014 H 178.821 3.37985 -1.60366 0
M  V30 2015 H 180.154 4.45524 -2.09211 0
M  V30 2016 N 181.806 0.884767 1.30421 0
M  V30 2017 C 183.217 0.553656 1.78302 0
M  V30 2018 C 183.568 -0.930153 1.7275 0
M  V30 2019 O 182.693 -1.72681 1.30423 0
M  V30 2020 C 183.288 0.998234 3.2376 0
M  V30 2021 C 181.847 0.71854 3.69478 0
M  V30 2022 C 180.994 1.18132 2.50879 0
M  V30 2023 H 183.945 1.06901 1.17294 0
M  V30 2024 H 183.966 0.327118 3.79091 0
M  V30 2025 H 183.478 2.0782 3.27769 0
M  V30 2026 H 181.579 -0.349444 3.70958 0
M  V30 2027 H 181.692 1.30595 4.60958 0
M  V30 2028 H 180.056 0.600669 2.47516 0
M  V30 2029 H 180.839 2.26902 2.57624 0
M  V30 2030 N 183.284 -1.43765 0.645699 0
M  V30 2031 C 184.7 -1.56509 0.312591 0
M  V30 2032 C 184.9 -1.6307 -1.18365 0
M  V30 2033 O 183.956 -1.58167 -1.96824 0
M  V30 2034 C 185.269 -2.82968 1.01733 0
M  V30 2035 C 186.817 -2.96701 0.996865 0
M  V30 2036 C 187.292 -4.25982 1.68236 0
M  V30 2037 N 188.783 -4.32829 1.64964 0
M  V30 2038 C 189.518 -5.31613 2.14885 0
M  V30 2039 N 189.014 -6.36718 2.73061 0
M  V30 2040 N 190.807 -5.23217 2.05428 0
M  V30 2041 H 182.958 -1.3775 1.61675 0
M  V30 2042 H 185.221 -0.661067 0.679481 0
M  V30 2043 H 184.927 -2.84156 2.0724 0
M  V30 2044 H 184.801 -3.72957 0.564177 0
M  V30 2045 H 187.188 -2.95058 -0.0497719 0
M  V30 2046 H 187.269 -2.08022 1.48865 0
M  V30 2047 H 186.913 -4.28386 2.72852 0
M  V30 2048 H 186.843 -5.13545 1.16529 0
M  V30 2049 H 189.334 -3.57493 1.22503 0
M  V30 2050 H 189.647 -7.08401 3.08848 0
M  V30 2051 H 187.992 -6.37362 2.77118 0
M  V30 2052 H 191.183 -4.40019 1.59689 0
M  V30 2053 H 191.356 -6.00045 2.44643 0
M  V30 2054 N 184.763 -0.387143 -1.52771 0
M  V30 2055 C 185.696 0.493123 -2.22808 0
M  V30 2056 C 186.674 1.0658 -1.22798 0
M  V30 2057 O 187.858 1.11785 -1.51777 0
M  V30 2058 C 184.985 1.68238 -2.93962 0
M  V30 2059 C 184.031 1.23515 -4.08223 0
M  V30 2060 S 184.864 0.21848 -5.35054 0
M  V30 2061 C 186.02 1.41357 -6.09729 0
M  V30 2062 H 186.253 -0.101625 -2.97126 0
M  V30 2063 H 183.786 -0.171323 -1.53447 0
M  V30 2064 H 185.744 2.36443 -3.35567 0
M  V30 2065 H 184.405 2.24842 -2.19328 0
M  V30 2066 H 183.598 2.12304 -4.57103 0
M  V30 2067 H 183.2 0.632044 -3.68621 0
M  V30 2068 H 185.492 2.34101 -6.3577 0
M  V30 2069 H 186.435 0.965736 -7.01484 0
M  V30 2070 H 186.843 1.6294 -5.40473 0
M  V30 2071 N 186.241 1.57166 -0.116904 0
M  V30 2072 C 187.49 1.94298 0.541407 0
M  V30 2073 C 187.803 1.00236 1.67964 0
M  V30 2074 O 189.009 1.26826 2.40057 0
M  V30 2075 C 187.465 3.45306 1.01449 0
M  V30 2076 C 187.073 4.47899 -0.0951738 0
M  V30 2077 C 188.817 3.91361 1.6443 0
M  V30 2078 C 186.724 5.90083 0.394491 0
M  V30 2079 H 185.654 0.725308 0.206019 0
M  V30 2080 H 188.305 1.82446 -0.196419 0
M  V30 2081 H 186.687 3.52385 1.80667 0
M  V30 2082 H 187.861 4.52486 -0.871374 0
M  V30 2083 H 186.176 4.11583 -0.631505 0
M  V30 2084 H 188.773 4.95004 2.02176 0
M  V30 2085 H 189.116 3.3122 2.52189 0
M  V30 2086 H 189.649 3.87073 0.917559 0
M  V30 2087 H 186.388 6.53974 -0.447004 0
M  V30 2088 H 185.908 5.88921 1.13722 0
M  V30 2089 H 187.587 6.41307 0.856399 0
M  V30 2090 N 187.719 -0.156864 1.56817 0
M  V30 2091 C 188.965 -0.872416 1.83076 0
M  V30 2092 C 189.298 -1.81261 0.697001 0
M  V30 2093 O 188.573 -1.92171 -0.30008 0
M  V30 2094 C 188.856 -1.65551 3.19789 0
M  V30 2095 C 188.709 -0.737467 4.43713 0
M  V30 2096 C 190.028 -2.62012 3.53606 0
M  V30 2097 H 187.147 -0.315715 0.665953 0
M  V30 2098 H 189.789 -0.138004 1.89498 0
M  V30 2099 H 187.939 -2.28159 3.14445 0
M  V30 2100 H 189.611 -0.123143 4.61136 0
M  V30 2101 H 187.854 -0.0464067 4.33775 0
M  V30 2102 H 188.525 -1.32122 5.35955 0
M  V30 2103 H 191.001 -2.09525 3.59497 0
M  V30 2104 H 189.877 -3.13861 4.50314 0
M  V30 2105 H 190.138 -3.42902 2.79053 0
M  V30 2106 N 189.197 -1.51736 -0.425897 0
M  V30 2107 C 190.445 -1.64644 -1.17204 0
M  V30 2108 C 190.766 -0.370486 -1.91448 0
M  V30 2109 O 190.036 0.614088 -1.86026 0
M  V30 2110 H 188.616 -0.606819 -0.435638 0
M  V30 2111 H 191.278 -1.88713 -0.487177 0
M  V30 2112 H 190.374 -2.47958 -1.89534 0
M  V30 2113 N 190.675 0.682077 -1.42076 0
M  V30 2114 C 191.622 1.79578 -1.44984 0
M  V30 2115 C 192.592 1.6332 -0.302614 0
M  V30 2116 O 193.777 1.83978 -0.505633 0
M  V30 2117 C 190.917 3.1756 -1.35091 0
M  V30 2118 C 190.03 3.45156 -2.59791 0
M  V30 2119 C 189.165 4.72826 -2.42093 0
M  V30 2120 C 188.204 4.93433 -3.62202 0
M  V30 2121 N 187.341 6.12338 -3.43491 0
M  V30 2122 H 192.181 1.76427 -2.40161 0
M  V30 2123 H 189.718 0.861376 -1.19242 0
M  V30 2124 H 191.676 3.97287 -1.27354 0
M  V30 2125 H 190.306 3.19854 -0.435133 0
M  V30 2126 H 189.358 2.59736 -2.77923 0
M  V30 2127 H 190.67 3.5628 -3.49094 0
M  V30 2128 H 189.824 5.60631 -2.319 0
M  V30 2129 H 188.563 4.63973 -1.50268 0
M  V30 2130 H 187.568 4.04073 -3.72834 0
M  V30 2131 H 188.793 5.04136 -4.54998 0
M  V30 2132 H 186.739 6.04672 -2.54377 0
M  V30 2133 H 186.656 6.2429 -4.26377 0
M  V30 2134 H 187.924 7.02841 -3.37097 0
M  V30 2135 N 192.153 1.28127 0.917671 0
M  V30 2136 C 193.101 1.11569 2.04096 0
M  V30 2137 C 194.095 0.0360242 1.69362 0
M  V30 2138 O 195.301 0.194501 1.78946 0
M  V30 2139 H 191.676 0.344097 0.668656 0
M  V30 2140 H 193.647 2.06711 2.15205 0
M  V30 2141 C 192.396 0.790197 3.38602 0
M  V30 2142 H 191.719 1.61293 3.6582 0
M  V30 2143 H 193.159 0.714271 4.1794 0
M  V30 2144 C 191.618 -0.505897 3.3308 0
M  V30 2145 O 192.148 -1.53736 3.71117 0
M  V30 2146 N 190.354 -0.505193 2.86175 0
M  V30 2147 H 189.901 0.334621 2.55417 0
M  V30 2148 H 189.859 -1.37243 2.82863 0
M  V30 2149 N 193.631 -1.12557 1.10312 0
M  V30 2150 C 194.541 -2.21841 0.763142 0
M  V30 2151 C 195.557 -1.72354 -0.238801 0
M  V30 2152 O 196.733 -2.01249 -0.0778746 0
M  V30 2153 C 193.798 -3.46131 0.198632 0
M  V30 2154 C 192.859 -4.10464 1.25769 0
M  V30 2155 C 192.092 -5.28821 0.72002 0
M  V30 2156 O 192.315 -5.6859 -0.453993 0
M  V30 2157 O 191.249 -5.83437 1.47935 0
M  V30 2158 H 195.075 -2.53312 1.67532 0
M  V30 2159 H 192.66 -1.20867 0.878157 0
M  V30 2160 H 194.542 -4.2125 -0.112401 0
M  V30 2161 H 193.217 -3.16338 -0.686419 0
M  V30 2162 H 192.124 -3.3713 1.62156 0
M  V30 2163 H 193.457 -4.44408 2.11571 0
M  V30 2164 N 195.109 -0.891671 -1.2995 0
M  V30 2165 C 196.525 -0.58662 -1.48428 0
M  V30 2166 C 196.725 0.873951 -1.81561 0
M  V30 2167 O 195.781 1.65471 -1.90724 0
M  V30 2168 C 197.094 -1.50553 -2.60296 0
M  V30 2169 C 198.642 -1.50988 -2.74175 0
M  V30 2170 C 199.117 -2.41488 -3.89163 0
M  V30 2171 N 200.608 -2.39489 -3.96483 0
M  V30 2172 C 201.343 -3.06223 -4.84784 0
M  V30 2173 N 200.839 -3.82206 -5.77833 0
M  V30 2174 N 202.632 -2.95421 -4.78208 0
M  V30 2175 H 194.783 -1.83644 -1.06718 0
M  V30 2176 H 197.046 -0.786455 -0.529332 0
M  V30 2177 H 196.752 -2.54581 -2.42654 0
M  V30 2178 H 196.626 -1.22008 -3.56923 0
M  V30 2179 H 199.013 -0.47708 -2.91218 0
M  V30 2180 H 199.094 -1.83567 -1.78148 0
M  V30 2181 H 198.738 -3.44857 -3.72876 0
M  V30 2182 H 198.668 -2.06222 -4.84541 0
M  V30 2183 H 201.159 -1.84278 -3.29924 0
M  V30 2184 H 201.472 -4.302 -6.41988 0
M  V30 2185 H 199.817 -3.86313 -5.77743 0
M  V30 2186 H 203.008 -2.35581 -4.04499 0
M  V30 2187 H 203.181 -3.47704 -5.46814 0
M  V30 2188 N 196.587 1.43421 -0.653314 0
M  V30 2189 C 197.835 2.01414 -0.166415 0
M  V30 2190 C 198.156 1.51803 1.22397 0
M  V30 2191 O 197.426 0.730693 1.81763 0
M  V30 2192 H 196.006 0.744703 -0.0585319 0
M  V30 2193 H 198.668 1.75629 -0.845003 0
M  V30 2194 H 197.764 3.11734 -0.151111 0
M  V30 2195 N 198.065 0.39524 1.52563 0
M  V30 2196 C 199.012 -0.437036 2.26624 0
M  V30 2197 C 199.982 -1.05281 1.28472 0
M  V30 2198 O 201.167 -1.07971 1.57311 0
M  V30 2199 C 198.307 -1.55524 3.08069 0
M  V30 2200 C 197.42 -0.961745 4.21158 0
M  V30 2201 C 196.555 -2.05149 4.89987 0
M  V30 2202 C 195.594 -1.4342 5.95061 0
M  V30 2203 N 194.731 -2.46351 6.57462 0
M  V30 2204 H 199.571 0.200976 2.97322 0
M  V30 2205 H 197.108 0.110944 1.46681 0
M  V30 2206 H 199.066 -2.21437 3.53584 0
M  V30 2207 H 197.696 -2.16348 2.3957 0
M  V30 2208 H 196.748 -0.192048 3.79915 0
M  V30 2209 H 198.06 -0.470701 4.96574 0
M  V30 2210 H 197.214 -2.78819 5.38837 0
M  V30 2211 H 195.953 -2.57615 4.14109 0
M  V30 2212 H 194.958 -0.682774 5.45544 0
M  V30 2213 H 196.183 -0.917416 6.72875 0
M  V30 2214 H 194.129 -2.97975 5.8442 0
M  V30 2215 H 194.046 -2.02019 7.28508 0
M  V30 2216 H 195.314 -3.19633 7.10954 0
M  V30 2217 N 199.544 -1.57102 0.125237 0
M  V30 2218 C 200.769 -2.0019 -0.542101 0
M  V30 2219 C 201.194 -1.00449 -1.59034 0
M  V30 2220 O 200.552 0.0229423 -1.81285 0
M  V30 2221 C 200.6 -3.42129 -1.13929 0
M  V30 2222 O 199.704 -3.45307 -2.2547 0
M  V30 2223 H 199.045 -0.650171 -0.134812 0
M  V30 2224 H 201.575 -2.03461 0.215553 0
M  V30 2225 H 201.585 -3.80471 -1.4733 0
M  V30 2226 H 200.26 -4.14237 -0.371531 0
M  V30 2227 H 198.837 -3.1879 -1.93462 0
M  V30 2228 N 201.022 0.148545 -1.56898 0
M  V30 2229 C 201.952 1.18524 -2.01182 0
M  V30 2230 C 202.933 1.4489 -0.891123 0
M  V30 2231 O 204.118 1.55836 -1.15882 0
M  V30 2232 C 201.248 2.51879 -2.39112 0
M  V30 2233 C 200.202 2.40038 -3.54353 0
M  V30 2234 C 199.528 3.78089 -3.78091 0
M  V30 2235 C 200.828 1.88577 -4.87069 0
M  V30 2236 H 202.522 0.817029 -2.88036 0
M  V30 2237 H 200.068 0.391575 -1.38574 0
M  V30 2238 H 202.021 3.24627 -2.68692 0
M  V30 2239 H 200.745 2.90532 -1.49193 0
M  V30 2240 H 199.404 1.69742 -3.24936 0
M  V30 2241 H 199.052 4.14175 -2.85426 0
M  V30 2242 H 198.752 3.71028 -4.55645 0
M  V30 2243 H 200.276 4.52387 -4.10095 0
M  V30 2244 H 201.69 2.51117 -5.15377 0
M  V30 2245 H 200.087 1.9241 -5.68417 0
M  V30 2246 H 201.157 0.84136 -4.77545 0
M  V30 2247 N 202.5 1.5196 0.417844 0
M  V30 2248 C 203.43 1.77634 1.51554 0
M  V30 2249 C 204.411 0.626918 1.58126 0
M  V30 2250 O 205.596 0.871632 1.7354 0
M  V30 2251 C 202.726 1.91911 2.8946 0
M  V30 2252 C 201.68 3.07463 2.97743 0
M  V30 2253 C 201.006 3.06951 4.37819 0
M  V30 2254 C 202.306 4.47082 2.70027 0
M  V30 2255 H 204 2.6955 1.3032 0
M  V30 2256 H 201.546 1.29706 0.625492 0
M  V30 2257 H 203.499 2.08455 3.6623 0
M  V30 2258 H 202.223 0.966598 3.11969 0
M  V30 2259 H 200.882 2.90656 2.23416 0
M  V30 2260 H 200.53 2.09438 4.57323 0
M  V30 2261 H 200.23 3.84556 4.44286 0
M  V30 2262 H 201.754 3.25613 5.16535 0
M  V30 2263 H 203.168 4.6414 3.36522 0
M  V30 2264 H 201.565 5.2654 2.87881 0
M  V30 2265 H 202.635 4.55777 1.65514 0
M  V30 2266 N 203.978 -0.674533 1.42435 0
M  V30 2267 C 205.225 -1.43459 1.42919 0
M  V30 2268 C 205.553 -1.94446 0.0457312 0
M  V30 2269 O 204.808 -1.7132 -0.94593 0
M  V30 2270 C 205.107 -2.64767 2.40069 0
M  V30 2271 C 204.773 -2.3232 3.86443 0
M  V30 2272 C 203.435 -2.23182 4.26314 0
M  V30 2273 C 205.787 -2.05977 4.78773 0
M  V30 2274 C 203.115 -1.85827 5.56494 0
M  V30 2275 C 205.467 -1.70125 6.09295 0
M  V30 2276 C 204.131 -1.59498 6.48164 0
M  V30 2277 H 203.401 -0.524952 0.522978 0
M  V30 2278 H 206.048 -0.769097 1.75377 0
M  V30 2279 H 204.353 -3.36349 2.00939 0
M  V30 2280 H 206.05 -3.22949 2.37707 0
M  V30 2281 H 202.64 -2.40334 3.54877 0
M  V30 2282 H 206.824 -2.11969 4.48757 0
M  V30 2283 H 202.08 -1.76168 5.8547 0
M  V30 2284 H 206.254 -1.48767 6.80324 0
M  V30 2285 H 203.881 -1.30322 7.48946 0
M  V30 2286 N 205.456 -1.28612 -0.910864 0
M  V30 2287 C 206.403 -1.12786 -2.01365 0
M  V30 2288 C 207.373 -0.024201 -1.66082 0
M  V30 2289 O 208.558 -0.189667 -1.89855 0
M  V30 2290 C 205.698 -0.798743 -3.35729 0
M  V30 2291 C 204.811 -1.98173 -3.83864 0
M  V30 2292 C 203.946 -1.59298 -5.06752 0
M  V30 2293 C 202.985 -2.74245 -5.47226 0
M  V30 2294 N 202.122 -2.35842 -6.61304 0
M  V30 2295 H 206.962 -2.07142 -2.14234 0
M  V30 2296 H 204.499 -1.03093 -1.0493 0
M  V30 2297 H 206.457 -0.588662 -4.13026 0
M  V30 2298 H 205.087 0.10789 -3.2262 0
M  V30 2299 H 204.139 -2.30386 -3.02699 0
M  V30 2300 H 205.451 -2.84343 -4.09818 0
M  V30 2301 H 204.605 -1.34513 -5.916 0
M  V30 2302 H 203.344 -0.702618 -4.82612 0
M  V30 2303 H 202.349 -2.99725 -4.60918 0
M  V30 2304 H 203.574 -3.63928 -5.73353 0
M  V30 2305 H 201.52 -1.49279 -6.38789 0
M  V30 2306 H 201.437 -3.15546 -6.86998 0
M  V30 2307 H 202.705 -2.14348 -7.4945 0
M  V30 2308 N 206.934 1.1197 -1.10907 0
M  V30 2309 C 208.162 1.87402 -0.876824 0
M  V30 2310 C 208.577 1.79894 0.573025 0
M  V30 2311 O 207.934 1.17629 1.39534 0
M  V30 2312 C 207.985 3.36428 -1.32282 0
M  V30 2313 O 207.706 3.43765 -2.71582 0
M  V30 2314 C 209.207 4.28783 -1.12518 0
M  V30 2315 H 206.427 0.592793 -0.314384 0
M  V30 2316 H 208.971 1.41649 -1.47499 0
M  V30 2317 H 207.126 3.79706 -0.768229 0
M  V30 2318 H 207.54 4.3652 -2.90776 0
M  V30 2319 H 209.014 5.31613 -1.48633 0
M  V30 2320 H 209.491 4.39153 -0.0642394 0
M  V30 2321 H 210.097 3.91291 -1.66648 0
M  V30 2322 N 208.412 0.89855 1.29475 0
M  V30 2323 C 209.375 0.380272 2.26023 0
M  V30 2324 C 210.375 -0.484891 1.53315 0
M  V30 2325 O 211.565 -0.290108 1.71767 0
M  V30 2326 C 208.697 -0.45651 3.3783 0
M  V30 2327 H 209.89 1.23295 2.73383 0
M  V30 2328 H 207.443 0.676589 1.40897 0
M  V30 2329 H 208.178 -1.32922 2.95808 0
M  V30 2330 H 207.963 0.163393 3.91759 0
M  V30 2331 H 209.453 -0.810466 4.0966 0
M  V30 2332 N 209.89 -1.43072 0.660911 0
M  V30 2333 C 211.115 -2.06584 0.183805 0
M  V30 2334 C 211.54 -1.49257 -1.14472 0
M  V30 2335 O 210.898 -0.605528 -1.70889 0
M  V30 2336 C 210.946 -3.60418 0.114434 0
M  V30 2337 O 210.05 -4.01981 -0.921137 0
M  V30 2338 H 209.391 -0.656669 0.0983994 0
M  V30 2339 H 211.921 -1.83447 0.906006 0
M  V30 2340 H 211.931 -4.07946 -0.0663394 0
M  V30 2341 H 210.606 -4.01519 1.08422 0
M  V30 2342 H 209.183 -3.66029 -0.71253 0
M  V30 2343 N 211.368 -0.403325 -1.52352 0
M  V30 2344 C 212.616 0.174003 -2.0135 0
M  V30 2345 C 212.937 1.46139 -1.29106 0
M  V30 2346 O 212.207 1.91448 -0.415253 0
M  V30 2347 H 210.787 0.0672911 -0.743963 0
M  V30 2348 H 213.449 -0.538235 -1.87321 0
M  V30 2349 H 212.545 0.374254 -3.09848 0
M  V30 2350 N 212.846 1.57033 -0.133567 0
M  V30 2351 C 214.095 1.94861 0.520768 0
M  V30 2352 C 214.408 1.02012 1.66892 0
M  V30 2353 O 215.614 1.29365 2.38699 0
M  V30 2354 C 214.07 3.46362 0.977809 0
M  V30 2355 C 213.678 4.47773 -0.142674 0
M  V30 2356 C 215.422 3.93083 1.60269 0
M  V30 2357 C 213.329 5.90468 0.331883 0
M  V30 2358 H 212.259 0.727453 0.198315 0
M  V30 2359 H 214.91 1.82227 -0.215759 0
M  V30 2360 H 213.292 3.54282 1.7692 0
M  V30 2361 H 214.466 4.51536 -0.919317 0
M  V30 2362 H 212.781 4.10891 -0.675124 0
M  V30 2363 H 215.378 4.97121 1.96914 0
M  V30 2364 H 215.721 3.33876 2.48662 0
M  V30 2365 H 216.254 3.88025 0.876453 0
M  V30 2366 H 212.993 6.53463 -0.516341 0
M  V30 2367 H 212.513 5.90094 1.07469 0
M  V30 2368 H 214.192 6.42179 0.788332 0
M  V30 2369 N 214.325 -0.140222 1.56975 0
M  V30 2370 C 215.273 -1.19207 1.99731 0
M  V30 2371 C 216.267 -1.44089 0.890777 0
M  V30 2372 O 217.473 -1.44301 1.07597 0
M  V30 2373 H 213.848 -0.40142 0.635898 0
M  V30 2374 H 215.819 -0.804813 2.87342 0
M  V30 2375 C 214.568 -2.51617 2.39967 0
M  V30 2376 H 213.891 -2.33303 3.24669 0
M  V30 2377 H 215.331 -3.23827 2.73701 0
M  V30 2378 C 213.79 -3.12654 1.25496 0
M  V30 2379 O 214.32 -3.97786 0.559371 0
M  V30 2380 N 212.526 -2.72206 1.01746 0
M  V30 2381 H 212.073 -2.03074 1.58489 0
M  V30 2382 H 212.031 -3.13377 0.253461 0
M  V30 2383 N 215.803 -1.52179 -0.40978 0
M  V30 2384 C 216.736 -1.70196 -1.52015 0
M  V30 2385 C 217.714 -0.549542 -1.53032 0
M  V30 2386 O 218.898 -0.776815 -1.71749 0
M  V30 2387 C 216.025 -1.74069 -2.90547 0
M  V30 2388 C 215.071 -2.95601 -3.07445 0
M  V30 2389 S 215.904 -4.55956 -2.80827 0
M  V30 2390 C 217.06 -4.62614 -4.21591 0
M  V30 2391 H 217.293 -2.64109 -1.36504 0
M  V30 2392 H 214.826 -1.4221 -0.601312 0
M  V30 2393 H 216.784 -1.76985 -3.70387 0
M  V30 2394 H 215.445 -0.812835 -3.034 0
M  V30 2395 H 214.638 -2.94791 -4.08796 0
M  V30 2396 H 214.24 -2.90569 -2.35469 0
M  V30 2397 H 216.532 -4.39951 -5.15218 0
M  V30 2398 H 217.475 -5.64548 -4.27424 0
M  V30 2399 H 217.883 -3.91654 -4.06531 0
M  V30 2400 N 217.281 0.66697 -1.42791 0
M  V30 2401 C 218.521 1.43892 -1.4517 0
M  V30 2402 C 218.885 1.91877 -0.0687551 0
M  V30 2403 O 220.086 2.6878 0.0327455 0
M  V30 2404 C 218.357 2.59839 -2.45395 0
M  V30 2405 S 219.916 3.48572 -2.66539 0
M  V30 2406 H 216.734 0.491356 -0.513897 0
M  V30 2407 H 219.336 0.775656 -1.79454 0
M  V30 2408 H 218.04 2.22838 -3.44632 0
M  V30 2409 H 217.571 3.3103 -2.12562 0
M  V30 2410 H 219.586 4.56094 -1.95429 0
M  V30 2411 N 218.759 1.29093 0.90403 0
M  V30 2412 C 219.987 1.19689 1.68766 0
M  V30 2413 C 220.402 -0.243113 1.87228 0
M  V30 2414 O 219.759 -1.16326 1.40621 0
M  V30 2415 C 219.81 1.90144 3.07453 0
M  V30 2416 O 219.531 3.2852 2.89838 0
M  V30 2417 C 221.032 1.87162 4.01852 0
M  V30 2418 H 218.252 0.415035 0.527244 0
M  V30 2419 H 220.796 1.7039 1.13082 0
M  V30 2420 H 218.951 1.43289 3.59926 0
M  V30 2421 H 219.365 3.63944 3.77684 0
M  V30 2422 H 220.839 2.41032 4.96596 0
M  V30 2423 H 221.316 0.84617 4.30972 0
M  V30 2424 H 221.922 2.33741 3.5531 0
M  V30 2425 N 220.237 -1.11381 1.11499 0
M  V30 2426 C 221.167 -2.19509 0.796125 0
M  V30 2427 C 222.148 -1.68458 -0.235796 0
M  V30 2428 O 223.333 -1.93947 -0.0991344 0
M  V30 2429 C 220.463 -3.46475 0.239205 0
M  V30 2430 C 219.417 -4.10744 1.20307 0
M  V30 2431 C 218.743 -5.32293 0.50683 0
M  V30 2432 C 220.043 -4.55597 2.55399 0
M  V30 2433 H 221.737 -2.46439 1.70024 0
M  V30 2434 H 219.283 -1.18446 0.818935 0
M  V30 2435 H 221.236 -4.214 0.00392006 0
M  V30 2436 H 219.96 -3.19006 -0.700206 0
M  V30 2437 H 218.619 -3.37813 1.42399 0
M  V30 2438 H 218.267 -5.01095 -0.437408 0
M  V30 2439 H 217.967 -5.76243 1.1497 0
M  V30 2440 H 219.491 -6.09956 0.280351 0
M  V30 2441 H 220.905 -5.21841 2.37391 0
M  V30 2442 H 219.302 -5.10363 3.15673 0
M  V30 2443 H 220.372 -3.69013 3.14575 0
M  V30 2444 N 221.715 -0.905404 -1.28997 0
M  V30 2445 C 222.964 -0.530191 -1.94607 0
M  V30 2446 C 223.277 0.929185 -1.72121 0
M  V30 2447 O 224.483 1.41218 -2.31883 0
M  V30 2448 C 222.939 -0.897333 -3.48534 0
M  V30 2449 C 222.547 -2.37587 -3.79811 0
M  V30 2450 C 224.291 -0.592304 -4.20347 0
M  V30 2451 C 222.198 -2.68357 -5.27009 0
M  V30 2452 H 221.128 -0.194558 -0.728466 0
M  V30 2453 H 223.779 -1.10318 -1.46636 0
M  V30 2454 H 222.161 -0.253214 -3.9519 0
M  V30 2455 H 223.335 -3.06602 -3.43994 0
M  V30 2456 H 221.65 -2.6505 -3.2115 0
M  V30 2457 H 224.247 -0.798975 -5.28697 0
M  V30 2458 H 224.59 0.469474 -4.13644 0
M  V30 2459 H 225.123 -1.19452 -3.79442 0
M  V30 2460 H 221.862 -3.73355 -5.38782 0
M  V30 2461 H 221.382 -2.03971 -5.64053 0
M  V30 2462 H 223.061 -2.54922 -5.94663 0
M  V30 2463 N 223.193 1.4272 -0.668489 0
M  V30 2464 C 224.156 2.292 0.00448567 0
M  V30 2465 C 225.156 1.43001 0.735339 0
M  V30 2466 O 226.346 1.64461 0.57429 0
M  V30 2467 C 223.478 3.25375 1.01705 0
M  V30 2468 H 224.671 2.90199 -0.756608 0
M  V30 2469 H 222.224 1.50254 -0.430506 0
M  V30 2470 H 222.959 2.69301 1.80686 0
M  V30 2471 H 222.744 3.88944 0.496463 0
M  V30 2472 H 224.234 3.90245 1.48655 0
M  V30 2473 N 224.671 0.411399 1.52136 0
M  V30 2474 C 225.604 -0.457614 2.23565 0
M  V30 2475 C 226.582 -1.04613 1.24478 0
M  V30 2476 O 227.766 -1.09356 1.53536 0
M  V30 2477 C 224.893 -1.6354 2.96602 0
M  V30 2478 C 223.939 -1.17005 4.10137 0
M  V30 2479 S 224.772 -0.13333 5.35334 0
M  V30 2480 C 225.928 -1.31638 6.119 0
M  V30 2481 H 226.161 0.148883 2.96927 0
M  V30 2482 H 223.694 0.195713 1.53155 0
M  V30 2483 H 225.652 -2.31074 3.39286 0
M  V30 2484 H 224.313 -2.21324 2.22878 0
M  V30 2485 H 223.506 -2.05005 4.60422 0
M  V30 2486 H 223.108 -0.573319 3.6958 0
M  V30 2487 H 225.4 -2.23957 6.39413 0
M  V30 2488 H 226.343 -0.854014 7.02931 0
M  V30 2489 H 226.751 -1.54321 5.42997 0
M  V30 2490 N 226.149 -1.5696 0.141893 0
M  V30 2491 C 227.426 -1.87553 -0.555281 0
M  V30 2492 C 227.806 -1.04699 -1.83306 0
M  V30 2493 O 227.154 -0.132346 -2.28116 0
M  V30 2494 C 227.364 -3.39093 -0.825664 0
M  V30 2495 C 228.712 -4.08199 -1.16869 0
M  V30 2496 O 229.736 -3.44242 -0.915185 0
M  V30 2497 O 228.595 -5.21139 -1.6455 0
M  V30 2498 H 225.689 -0.777188 -0.282679 0
M  V30 2499 H 228.235 -1.68763 0.17812 0
M  V30 2500 H 227.007 -3.91221 0.0788633 0
M  V30 2501 H 226.63 -3.63393 -1.61343 0
M  V30 2502 N 227.627 0.131896 -1.57047 0
M  V30 2503 C 228.557 1.16384 -2.02428 0
M  V30 2504 C 229.538 1.43936 -0.90644 0
M  V30 2505 O 230.723 1.54599 -1.17528 0
M  V30 2506 C 227.853 2.49328 -2.4177 0
M  V30 2507 C 226.807 2.36266 -3.56879 0
M  V30 2508 C 226.133 3.74057 -3.8208 0
M  V30 2509 C 227.433 1.834 -4.89042 0
M  V30 2510 H 229.127 0.786433 -2.88887 0
M  V30 2511 H 226.673 0.376855 -1.38981 0
M  V30 2512 H 228.626 3.21759 -2.7212 0
M  V30 2513 H 227.35 2.88934 -1.52266 0
M  V30 2514 H 226.009 1.66286 -3.26718 0
M  V30 2515 H 225.657 4.11125 -2.89803 0
M  V30 2516 H 225.357 3.66174 -4.59554 0
M  V30 2517 H 226.881 4.48012 -4.1487 0
M  V30 2518 H 228.295 2.45636 -5.18011 0
M  V30 2519 H 226.692 1.8637 -5.70426 0
M  V30 2520 H 227.762 0.790662 -4.7841 0
M  V30 2521 N 229.106 1.52395 0.401703 0
M  V30 2522 C 230.354 1.66488 1.14569 0
M  V30 2523 C 230.675 0.400897 1.90835 0
M  V30 2524 O 229.945 -0.584415 1.8698 0
M  V30 2525 H 228.525 0.613672 0.425929 0
M  V30 2526 H 231.187 1.89464 0.457093 0
M  V30 2527 H 230.283 2.50942 1.85566 0
M  V30 2528 N 230.584 -0.659388 1.43143 0
M  V30 2529 C 231.494 -1.80167 1.50256 0
M  V30 2530 C 232.51 -1.69571 0.390106 0
M  V30 2531 O 233.686 -1.90849 0.643319 0
M  V30 2532 C 230.751 -3.16409 1.41725 0
M  V30 2533 C 229.812 -3.38848 2.63591 0
M  V30 2534 C 229.045 -4.68591 2.55458 0
M  V30 2535 O 229.268 -5.47532 1.59891 0
M  V30 2536 O 228.202 -4.92614 3.45854 0
M  V30 2537 H 232.028 -1.77121 2.46702 0
M  V30 2538 H 229.613 -0.817092 1.25076 0
M  V30 2539 H 231.495 -3.9768 1.39387 0
M  V30 2540 H 230.17 -3.20059 0.484118 0
M  V30 2541 H 229.077 -2.57366 2.71502 0
M  V30 2542 H 230.41 -3.4004 3.55856 0
M  V30 2543 N 232.062 -1.29571 -0.897171 0
M  V30 2544 C 232.995 -1.0924 -2.00354 0
M  V30 2545 C 233.973 -0.00354011 -1.626 0
M  V30 2546 O 235.157 -0.15473 -1.87864 0
M  V30 2547 C 232.284 -0.66352 -3.32137 0
M  V30 2548 C 231.33 -1.75146 -3.88878 0
M  V30 2549 S 232.163 -3.35124 -4.17674 0
M  V30 2550 C 233.319 -2.9411 -5.52494 0
M  V30 2551 H 233.552 -2.02907 -2.17292 0
M  V30 2552 H 231.085 -1.13746 -1.04408 0
M  V30 2553 H 233.043 -0.422791 -4.08317 0
M  V30 2554 H 231.704 0.253588 -3.13075 0
M  V30 2555 H 230.897 -1.40337 -4.84068 0
M  V30 2556 H 230.499 -1.94584 -3.19395 0
M  V30 2557 H 232.791 -2.41312 -6.33068 0
M  V30 2558 H 233.734 -3.88161 -5.9223 0
M  V30 2559 H 234.142 -2.32332 -5.14473 0
M  V30 2560 N 233.54 1.10788 -1.12088 0
M  V30 2561 C 234.78 1.84297 -0.883974 0
M  V30 2562 C 235.144 1.83036 0.579797 0
M  V30 2563 O 236.345 2.52061 0.933734 0
M  V30 2564 C 234.616 3.27173 -1.43849 0
M  V30 2565 S 236.175 4.17853 -1.33957 0
M  V30 2566 H 232.993 0.635433 -0.318977 0
M  V30 2567 H 235.595 1.33341 -1.4297 0
M  V30 2568 H 234.299 3.25658 -2.49749 0
M  V30 2569 H 233.83 3.83198 -0.890096 0
M  V30 2570 H 235.845 4.95239 -0.308603 0
M  V30 2571 N 235.018 0.912232 1.28515 0
M  V30 2572 C 236.295 0.463597 1.90027 0
M  V30 2573 C 236.675 -1.05753 1.82701 0
M  V30 2574 O 236.023 -1.90492 1.26194 0
M  V30 2575 C 236.233 0.992253 3.34597 0
M  V30 2576 C 237.581 1.04344 4.11579 0
M  V30 2577 O 238.605 0.94079 3.43551 0
M  V30 2578 O 237.464 1.1995 5.33174 0
M  V30 2579 H 234.558 0.146666 0.813891 0
M  V30 2580 H 237.104 1.00292 1.36893 0
M  V30 2581 H 235.876 2.03623 3.34146 0
M  V30 2582 H 235.499 0.433672 3.95228 0
M  V30 2583 N 236.496 -1.42363 0.676048 0
M  V30 2584 C 237.773 -1.95183 0.127726 0
M  V30 2585 C 238.153 -1.61641 -1.35777 0
M  V30 2586 O 237.501 -0.913216 -2.09458 0
M  V30 2587 C 237.711 -3.46721 0.398199 0
M  V30 2588 C 239.059 -4.23427 0.315383 0
M  V30 2589 O 240.083 -3.54649 0.332016 0
M  V30 2590 O 238.942 -5.45888 0.25865 0
M  V30 2591 H 236.036 -0.826992 0.00359427 0
M  V30 2592 H 238.582 -1.52184 0.750864 0
M  V30 2593 H 237.354 -3.64344 1.4272 0
M  V30 2594 H 236.977 -3.96769 -0.256885 0
M  V30 2595 N 237.974 -0.419461 -1.51915 0
M  V30 2596 C 239.202 0.152136 -2.0634 0
M  V30 2597 C 239.617 1.37988 -1.28859 0
M  V30 2598 O 238.974 1.79243 -0.343232 0
M  V30 2599 C 239.025 0.492266 -3.58133 0
M  V30 2600 O 238.746 -0.686736 -4.32684 0
M  V30 2601 C 240.247 1.11648 -4.2901 0
M  V30 2602 H 237.467 0.0158325 -0.670813 0
M  V30 2603 H 240.011 -0.593394 -1.95702 0
M  V30 2604 H 238.166 1.18769 -3.68745 0
M  V30 2605 H 238.58 -0.400341 -5.2297 0
M  V30 2606 H 240.054 1.3046 -5.36362 0
M  V30 2607 H 240.531 2.09251 -3.86148 0
M  V30 2608 H 241.137 0.460958 -4.22795 0
M  V30 2609 N 239.452 1.56882 -0.150215 0
M  V30 2610 C 240.698 1.96518 0.500834 0
M  V30 2611 C 241.031 1.03527 1.64304 0
M  V30 2612 O 240.306 0.0782751 1.94342 0
M  V30 2613 C 240.589 3.45822 1.00395 0
M  V30 2614 C 240.442 4.49591 -0.136983 0
M  V30 2615 C 241.761 3.97704 1.88467 0
M  V30 2616 H 238.88 0.714535 0.18058 0
M  V30 2617 H 241.522 1.88577 -0.232091 0
M  V30 2618 H 239.672 3.5272 1.62851 0
M  V30 2619 H 241.344 4.5477 -0.77343 0
M  V30 2620 H 239.587 4.26441 -0.795652 0
M  V30 2621 H 240.258 5.51402 0.256815 0
M  V30 2622 H 242.734 3.93304 1.35834 0
M  V30 2623 H 241.61 5.0263 2.20578 0
M  V30 2624 H 241.871 3.40252 2.82279 0
M  V30 2625 N 240.93 -0.123565 1.57115 0
M  V30 2626 C 242.158 -0.846461 1.88793 0
M  V30 2627 C 242.573 -1.73652 0.740976 0
M  V30 2628 O 241.93 -1.80207 -0.288393 0
M  V30 2629 C 241.981 -1.6837 3.19897 0
M  V30 2630 O 241.702 -0.829477 4.30176 0
M  V30 2631 C 243.203 -2.51214 3.65248 0
M  V30 2632 H 240.423 -0.243573 0.625231 0
M  V30 2633 H 242.967 -0.109324 2.04208 0
M  V30 2634 H 241.122 -2.37364 3.06165 0
M  V30 2635 H 241.536 -1.40651 5.0529 0
M  V30 2636 H 243.01 -3.05497 4.59756 0
M  V30 2637 H 243.487 -3.28359 2.9168 0
M  V30 2638 H 244.093 -1.8747 3.81752 0
M  V30 2639 N 242.408 -1.52605 -0.393616 0
M  V30 2640 C 243.638 -1.71046 -1.15874 0
M  V30 2641 C 244.046 -0.426483 -1.84331 0
M  V30 2642 O 243.389 0.608513 -1.73329 0
M  V30 2643 C 243.451 -2.80118 -2.25332 0
M  V30 2644 C 243.115 -4.21381 -1.76881 0
M  V30 2645 C 244.112 -5.04697 -1.24808 0
M  V30 2646 C 241.797 -4.67683 -1.83244 0
M  V30 2647 C 243.791 -6.32393 -0.797387 0
M  V30 2648 C 241.478 -5.95364 -1.37787 0
M  V30 2649 C 242.476 -6.77549 -0.861208 0
M  V30 2650 O 242.164 -8.02837 -0.413252 0
M  V30 2651 H 241.896 -0.576155 -0.353583 0
M  V30 2652 H 244.45 -2.00018 -0.467123 0
M  V30 2653 H 242.68 -2.46557 -2.97904 0
M  V30 2654 H 244.369 -2.87006 -2.87023 0
M  V30 2655 H 245.135 -4.70111 -1.19252 0
M  V30 2656 H 241.014 -4.03805 -2.22401 0
M  V30 2657 H 244.558 -6.9649 -0.393437 0
M  V30 2658 H 240.455 -6.29455 -1.43026 0
M  V30 2659 H 241.223 -8.16749 -0.53515 0
M  V30 2660 N 243.887 0.651787 -1.4349 0
M  V30 2661 C 244.834 1.76462 -1.4876 0
M  V30 2662 C 245.804 1.62641 -0.337189 0
M  V30 2663 O 246.989 1.82864 -0.544544 0
M  V30 2664 C 244.129 3.14623 -1.41796 0
M  V30 2665 C 243.242 3.39568 -2.67053 0
M  V30 2666 C 242.377 4.67585 -2.52068 0
M  V30 2667 C 241.416 4.85639 -3.72587 0
M  V30 2668 N 240.553 6.04915 -3.56402 0
M  V30 2669 H 245.393 1.71293 -2.43849 0
M  V30 2670 H 242.93 0.835889 -1.21043 0
M  V30 2671 H 244.888 3.94496 -1.35753 0
M  V30 2672 H 243.518 3.18859 -0.50288 0
M  V30 2673 H 242.57 2.53783 -2.8337 0
M  V30 2674 H 243.882 3.48795 -3.56572 0
M  V30 2675 H 243.036 5.55586 -2.4374 0
M  V30 2676 H 241.775 4.60681 -1.60075 0
M  V30 2677 H 240.78 3.96073 -3.81321 0
M  V30 2678 H 242.005 4.94372 -4.65589 0
M  V30 2679 H 239.951 5.9914 -2.67146 0
M  V30 2680 H 239.868 6.15106 -4.39524 0
M  V30 2681 H 241.136 6.95533 -3.51929 0
M  V30 2682 N 245.365 1.30045 0.890287 0
M  V30 2683 C 246.605 1.19839 1.65584 0
M  V30 2684 C 246.969 -0.244175 1.90441 0
M  V30 2685 O 248.17 -0.469378 2.6467 0
M  V30 2686 C 246.441 1.99876 2.96284 0
M  V30 2687 S 248 2.06309 3.87275 0
M  V30 2688 H 244.818 0.427157 0.568382 0
M  V30 2689 H 247.42 1.64453 1.05715 0
M  V30 2690 H 246.124 3.03809 2.75913 0
M  V30 2691 H 245.655 1.55903 3.61189 0
M  V30 2692 H 247.67 1.18661 4.81803 0
M  V30 2693 N 246.843 -1.10192 1.12674 0
M  V30 2694 C 248.254 -1.63707 0.897604 0
M  V30 2695 C 248.605 -1.87812 -0.567546 0
M  V30 2696 O 247.73 -1.62196 -1.43253 0
M  V30 2697 C 248.325 -2.974 1.62292 0
M  V30 2698 C 246.884 -3.47772 1.43986 0
M  V30 2699 C 246.031 -2.22332 1.65722 0
M  V30 2700 H 248.982 -0.936587 1.28116 0
M  V30 2701 H 249.003 -3.64986 1.07541 0
M  V30 2702 H 248.515 -2.79824 2.68924 0
M  V30 2703 H 246.616 -3.70487 0.396206 0
M  V30 2704 H 246.729 -4.25723 2.19765 0
M  V30 2705 H 245.093 -2.30599 1.08149 0
M  V30 2706 H 245.876 -2.07285 2.73657 0
M  V30 2707 N 248.321 -0.919034 -1.28029 0
M  V30 2708 C 249.271 -0.382574 -2.24767 0
M  V30 2709 C 250.255 0.508286 -1.52661 0
M  V30 2710 O 251.447 0.347145 -1.73562 0
M  V30 2711 C 248.576 0.371432 -3.41285 0
M  V30 2712 C 247.662 -0.535449 -4.20706 0
M  V30 2713 N 248.053 -1.65141 -4.78082 0
M  V30 2714 C 246.351 -0.336824 -4.44726 0
M  V30 2715 C 247.052 -2.21475 -5.37888 0
M  V30 2716 N 246.028 -1.50537 -5.22341 0
M  V30 2717 H 249.83 -1.23477 -2.66703 0
M  V30 2718 H 247.344 -0.772299 -1.42861 0
M  V30 2719 H 249.341 0.772638 -4.09678 0
M  V30 2720 H 248.001 1.22066 -3.00882 0
M  V30 2721 H 249.012 -2.03392 -4.7629 0
M  V30 2722 H 245.689 0.47246 -4.14818 0
M  V30 2723 H 247.079 -3.15379 -5.93284 0
M  V30 2724 N 249.799 1.42003 -0.683588 0
M  V30 2725 C 251.048 2.00638 -0.206681 0
M  V30 2726 C 251.361 1.5472 1.19671 0
M  V30 2727 O 252.567 2.05833 1.77045 0
M  V30 2728 C 251.023 3.58487 -0.318632 0
M  V30 2729 C 250.631 4.1339 -1.72663 0
M  V30 2730 C 252.375 4.24384 0.0991141 0
M  V30 2731 C 250.282 5.63633 -1.79087 0
M  V30 2732 H 249.212 0.750408 -0.0735107 0
M  V30 2733 H 251.863 1.62624 -0.850048 0
M  V30 2734 H 250.245 3.94047 0.392781 0
M  V30 2735 H 251.419 3.89273 -2.46583 0
M  V30 2736 H 249.734 3.59976 -2.09299 0
M  V30 2737 H 252.331 5.34652 0.0713833 0
M  V30 2738 H 252.674 4.00505 1.13586 0
M  V30 2739 H 253.207 3.93816 -0.561599 0
M  V30 2740 H 249.946 5.92323 -2.80774 0
M  V30 2741 H 249.466 5.89714 -1.09535 0
M  V30 2742 H 251.145 6.28201 -1.5483 0
M  V30 2743 N 251.277 0.427512 1.51691 0
M  V30 2744 C 252.505 -0.141191 2.06418 0
M  V30 2745 C 252.92 -1.37303 1.29589 0
M  V30 2746 O 252.277 -1.79059 0.352732 0
M  V30 2747 C 252.328 -0.473266 3.58389 0
M  V30 2748 O 252.049 0.709673 4.32314 0
M  V30 2749 C 253.55 -1.09371 4.29596 0
M  V30 2750 H 250.77 -0.0122747 0.670888 0
M  V30 2751 H 253.314 0.603764 1.95384 0
M  V30 2752 H 251.469 -1.16812 3.69369 0
M  V30 2753 H 251.883 0.42807 5.2275 0
M  V30 2754 H 253.357 -1.27613 5.37046 0
M  V30 2755 H 253.834 -2.072 3.87253 0
M  V30 2756 H 254.44 -0.43853 4.23033 0
M  V30 2757 N 252.755 -1.56801 0.158532 0
M  V30 2758 C 253.665 -2.20916 -0.789518 0
M  V30 2759 C 254.681 -1.1969 -1.26294 0
M  V30 2760 O 255.857 -1.52308 -1.31773 0
M  V30 2761 C 252.922 -2.82727 -2.00665 0
M  V30 2762 C 251.983 -3.99114 -1.58134 0
M  V30 2763 C 251.216 -4.57968 -2.74045 0
M  V30 2764 O 251.439 -4.15704 -3.90572 0
M  V30 2765 O 250.373 -5.48047 -2.48855 0
M  V30 2766 H 254.199 -3.02464 -0.273681 0
M  V30 2767 H 251.784 -1.4924 -0.0690548 0
M  V30 2768 H 253.666 -3.21968 -2.71872 0
M  V30 2769 H 252.341 -2.04184 -2.51179 0
M  V30 2770 H 251.248 -3.64567 -0.839155 0
M  V30 2771 H 252.581 -4.79212 -1.12325 0
M  V30 2772 N 254.233 0.115231 -1.57178 0
M  V30 2773 C 255.479 0.82357 -1.85325 0
M  V30 2774 C 255.812 1.79349 -0.744814 0
M  V30 2775 O 255.087 1.92899 0.249024 0
M  V30 2776 C 255.37 1.57014 -3.24066 0
M  V30 2777 C 255.223 0.619565 -4.45513 0
M  V30 2778 C 256.542 2.52545 -3.60429 0
M  V30 2779 H 253.661 0.297948 -0.674089 0
M  V30 2780 H 256.303 0.0877138 -1.89797 0
M  V30 2781 H 254.453 2.19742 -3.20383 0
M  V30 2782 H 256.125 0.000837639 -4.613 0
M  V30 2783 H 254.368 -0.0686174 -4.33746 0
M  V30 2784 H 255.039 1.17866 -5.3927 0
M  V30 2785 H 257.515 1.9992 -3.64926 0
M  V30 2786 H 256.391 3.01811 -4.58477 0
M  V30 2787 H 256.652 3.35383 -2.88047 0
M  V30 2788 N 255.711 1.52812 0.385517 0
M  V30 2789 C 256.621 1.80766 1.49535 0
M  V30 2790 C 257.637 0.694651 1.59532 0
M  V30 2791 O 258.813 0.982611 1.75803 0
M  V30 2792 C 255.878 1.97381 2.85029 0
M  V30 2793 C 254.939 3.21295 2.84724 0
M  V30 2794 C 254.172 3.37108 4.13756 0
M  V30 2795 O 254.395 2.5765 5.08893 0
M  V30 2796 O 253.329 4.30378 4.20783 0
M  V30 2797 H 257.155 2.75015 1.28842 0
M  V30 2798 H 254.74 1.37946 0.573697 0
M  V30 2799 H 256.622 2.09996 3.65349 0
M  V30 2800 H 255.297 1.06322 3.05741 0
M  V30 2801 H 254.204 3.1412 2.03174 0
M  V30 2802 H 255.537 4.12212 2.68965 0
M  V30 2803 N 257.189 -0.644168 1.43834 0
M  V30 2804 C 258.6 -1.22554 1.40845 0
M  V30 2805 C 258.951 -1.9585 0.117115 0
M  V30 2806 O 258.076 -2.01734 -0.783086 0
M  V30 2807 C 258.671 -2.22907 2.55143 0
M  V30 2808 C 257.23 -2.76501 2.5539 0
M  V30 2809 C 256.377 -1.51287 2.32396 0
M  V30 2810 H 259.328 -0.43563 1.52604 0
M  V30 2811 H 259.349 -3.05259 2.2715 0
M  V30 2812 H 258.861 -1.69533 3.49114 0
M  V30 2813 H 256.962 -3.33914 1.65324 0
M  V30 2814 H 257.075 -3.23429 3.53455 0
M  V30 2815 H 255.439 -1.78957 1.81236 0
M  V30 2816 H 256.222 -0.998336 3.28463 0
M  V30 2817 N 258.668 -1.30515 -0.883378 0
M  V30 2818 C 259.578 -1.18959 -2.02203 0
M  V30 2819 C 260.594 -0.109172 -1.73657 0
M  V30 2820 O 261.77 -0.324413 -1.9877 0
M  V30 2821 C 258.835 -0.883871 -3.35244 0
M  V30 2822 C 257.896 -2.04982 -3.77201 0
M  V30 2823 C 257.129 -1.75859 -5.03894 0
M  V30 2824 O 257.352 -0.687276 -5.66244 0
M  V30 2825 O 256.286 -2.61146 -5.42297 0
M  V30 2826 H 260.112 -2.14616 -2.1488 0
M  V30 2827 H 257.697 -1.10124 -1.0096 0
M  V30 2828 H 259.579 -0.728644 -4.15053 0
M  V30 2829 H 258.254 0.0427798 -3.23672 0
M  V30 2830 H 257.161 -2.26038 -2.9809 0
M  V30 2831 H 258.494 -2.95825 -3.93381 0
M  V30 2832 N 260.146 1.09593 -1.13257 0
M  V30 2833 C 261.423 1.78293 -0.804432 0
M  V30 2834 C 261.803 1.99004 0.70431 0
M  V30 2835 O 261.151 1.59007 1.641 0
M  V30 2836 C 261.361 3.10707 -1.5894 0
M  V30 2837 C 262.709 3.85443 -1.78099 0
M  V30 2838 O 263.733 3.20454 -1.55525 0
M  V30 2839 O 262.592 5.02108 -2.15753 0
M  V30 2840 H 259.686 0.773156 -0.293528 0
M  V30 2841 H 262.232 1.16164 -1.23709 0
M  V30 2842 H 261.004 2.91106 -2.61482 0
M  V30 2843 H 260.627 3.80558 -1.15157 0
M  V30 2844 N 261.624 0.925811 1.2754 0
M  V30 2845 C 262.873 0.561084 1.93739 0
M  V30 2846 C 263.186 -0.901685 1.73577 0
M  V30 2847 O 264.392 -1.37511 2.34101 0
M  V30 2848 C 262.848 0.952668 3.47062 0
M  V30 2849 C 262.456 2.43599 3.75983 0
M  V30 2850 C 264.2 0.659103 4.19352 0
M  V30 2851 C 262.107 2.76707 5.22673 0
M  V30 2852 H 261.037 0.206122 0.725279 0
M  V30 2853 H 263.688 1.12637 1.44863 0
M  V30 2854 H 262.07 0.316053 3.94737 0
M  V30 2855 H 263.244 3.12035 3.39073 0
M  V30 2856 H 261.559 2.70125 3.16893 0
M  V30 2857 H 264.156 0.882985 5.27359 0
M  V30 2858 H 264.499 -0.403607 4.14339 0
M  V30 2859 H 265.032 1.25473 3.77494 0
M  V30 2860 H 261.771 3.8188 5.32774 0
M  V30 2861 H 261.291 2.12919 5.60737 0
M  V30 2862 H 262.97 2.6435 5.90532 0
M  V30 2863 N 263.102 -1.41638 0.69111 0
M  V30 2864 C 264.379 -1.95036 0.148421 0
M  V30 2865 C 264.759 -1.63072 -1.34055 0
M  V30 2866 O 264.107 -0.93538 -2.08478 0
M  V30 2867 C 264.317 -3.46279 0.434951 0
M  V30 2868 C 265.665 -4.23069 0.360275 0
M  V30 2869 O 266.689 -3.54277 0.369613 0
M  V30 2870 O 265.548 -5.45583 0.316534 0
M  V30 2871 H 262.642 -0.826908 0.0123654 0
M  V30 2872 H 265.188 -1.5138 0.766963 0
M  V30 2873 H 263.96 -3.6281 1.46576 0
M  V30 2874 H 263.583 -3.97019 -0.214787 0
M  V30 2875 N 264.58 -0.43555 -1.51462 0
M  V30 2876 C 265.82 0.130708 -2.03982 0
M  V30 2877 C 266.184 1.40117 -1.31268 0
M  V30 2878 O 267.385 2.04755 -1.74152 0
M  V30 2879 C 265.656 0.346102 -3.5572 0
M  V30 2880 S 267.215 0.876022 -4.29967 0
M  V30 2881 H 264.033 0.0326881 -0.710248 0
M  V30 2882 H 266.635 -0.594544 -1.8624 0
M  V30 2883 H 265.339 -0.584911 -4.0621 0
M  V30 2884 H 264.87 1.09849 -3.77752 0
M  V30 2885 H 266.885 2.15379 -4.47019 0
M  V30 2886 N 266.058 1.56714 -0.166846 0
M  V30 2887 C 267.304 1.97813 0.473473 0
M  V30 2888 C 267.659 1.05095 1.61161 0
M  V30 2889 O 266.952 0.0897541 1.9139 0
M  V30 2890 C 267.146 3.42889 1.00806 0
M  V30 2891 C 266.975 4.49635 -0.0767392 0
M  V30 2892 C 265.745 5.02566 -0.524894 0
M  V30 2893 C 267.943 5.06793 -0.875504 0
M  V30 2894 N 265.925 5.9294 -1.59047 0
M  V30 2895 C 267.296 5.93565 -1.79111 0
M  V30 2896 C 269.351 4.89306 -0.921083 0
M  V30 2897 C 268.054 6.64721 -2.74843 0
M  V30 2898 C 270.08 5.61179 -1.86633 0
M  V30 2899 C 269.442 6.47675 -2.76942 0
M  V30 2900 H 265.541 0.769093 0.141489 0
M  V30 2901 H 268.125 1.92874 -0.266031 0
M  V30 2902 H 266.296 3.48382 1.7171 0
M  V30 2903 H 268.028 3.71008 1.61664 0
M  V30 2904 H 264.783 4.73439 -0.123432 0
M  V30 2905 H 265.207 6.42831 -2.12361 0
M  V30 2906 H 269.849 4.22136 -0.23692 0
M  V30 2907 H 267.567 7.31107 -3.44249 0
M  V30 2908 H 271.153 5.49636 -1.90764 0
M  V30 2909 H 270.033 7.02313 -3.48893 0
M  V30 2910 N 267.536 -0.106894 1.57237 0
M  V30 2911 C 268.776 -0.818277 1.87306 0
M  V30 2912 C 269.14 -1.76474 0.756371 0
M  V30 2913 O 270.341 -2.5186 0.939155 0
M  V30 2914 C 268.612 -1.53806 3.22612 0
M  V30 2915 S 270.171 -2.28935 3.74345 0
M  V30 2916 H 266.989 -0.272862 0.656557 0
M  V30 2917 H 269.591 -0.075988 1.95352 0
M  V30 2918 H 268.295 -0.834951 4.01817 0
M  V30 2919 H 267.826 -2.32049 3.17674 0
M  V30 2920 H 269.841 -3.54871 3.46815 0
M  V30 2921 N 269.014 -1.53014 -0.377408 0
M  V30 2922 C 269.962 -1.7927 -1.48206 0
M  V30 2923 C 270.956 -0.661195 -1.55963 0
M  V30 2924 O 272.162 -0.843908 -1.58991 0
M  V30 2925 H 268.537 -0.567425 -0.493491 0
M  V30 2926 H 270.508 -2.71753 -1.2326 0
M  V30 2927 C 269.257 -1.98894 -2.85196 0
M  V30 2928 H 268.58 -2.85395 -2.79981 0
M  V30 2929 H 270.02 -2.21249 -3.61698 0
M  V30 2930 C 268.479 -0.764691 -3.28107 0
M  V30 2931 O 269.009 0.0523226 -4.01666 0
M  V30 2932 N 267.215 -0.591493 -2.84517 0
M  V30 2933 H 266.762 -1.25749 -2.24822 0
M  V30 2934 H 266.72 0.226253 -3.13585 0
M  V30 2935 N 270.492 0.636531 -1.44174 0
M  V30 2936 C 271.422 1.76003 -1.53444 0
M  V30 2937 C 272.403 1.65619 -0.387841 0
M  V30 2938 O 273.588 1.84461 -0.607257 0
M  V30 2939 C 270.718 3.14511 -1.4731 0
M  V30 2940 C 269.672 3.39677 -2.60391 0
M  V30 2941 C 268.998 4.78159 -2.39308 0
M  V30 2942 C 270.298 3.32772 -4.02567 0
M  V30 2943 H 271.992 1.68501 -2.47483 0
M  V30 2944 H 269.538 0.809237 -1.19111 0
M  V30 2945 H 271.491 3.92878 -1.52397 0
M  V30 2946 H 270.215 3.22783 -0.49785 0
M  V30 2947 H 268.874 2.63688 -2.54684 0
M  V30 2948 H 268.522 4.83128 -1.39988 0
M  V30 2949 H 268.222 4.95956 -3.15122 0
M  V30 2950 H 269.746 5.58762 -2.46205 0
M  V30 2951 H 271.16 4.01051 -4.09672 0
M  V30 2952 H 269.557 3.62104 -4.7854 0
M  V30 2953 H 270.627 2.30669 -4.2652 0
M  V30 2954 N 271.97 1.30982 0.876444 0
M  V30 2955 C 273.198 1.23242 1.6619 0
M  V30 2956 C 273.613 -0.203345 1.87702 0
M  V30 2957 O 272.97 -1.13317 1.43057 0
M  V30 2958 C 273.021 1.96623 3.03351 0
M  V30 2959 O 272.742 3.34594 2.82804 0
M  V30 2960 C 274.243 1.95644 3.97792 0
M  V30 2961 H 271.463 0.426126 0.518322 0
M  V30 2962 H 274.007 1.7275 1.09442 0
M  V30 2963 H 272.162 1.50892 3.56806 0
M  V30 2964 H 272.576 3.71873 3.69879 0
M  V30 2965 H 274.05 2.51511 4.91372 0
M  V30 2966 H 274.527 0.937395 4.2908 0
M  V30 2967 H 275.133 2.41225 3.50272 0
M  V30 2968 N 273.449 -1.08991 1.13837 0
M  V30 2969 C 274.674 -1.85551 0.926585 0
M  V30 2970 C 275.099 -1.80782 -0.519566 0
M  V30 2971 O 274.457 -1.18855 -1.36906 0
M  V30 2972 C 274.505 -3.31266 1.42462 0
M  V30 2973 O 273.609 -4.07822 0.612789 0
M  V30 2974 H 272.95 -0.575192 0.331738 0
M  V30 2975 H 275.48 -1.37604 1.51414 0
M  V30 2976 H 275.49 -3.82112 1.43019 0
M  V30 2977 H 274.165 -3.34052 2.47754 0
M  V30 2978 H 272.742 -3.66731 0.675463 0
M  V30 2979 N 274.927 -0.932562 -1.27047 0
M  V30 2980 C 276.155 -0.592031 -1.98249 0
M  V30 2981 C 276.57 0.831062 -1.69525 0
M  V30 2982 O 275.927 1.55299 -0.958561 0
M  V30 2983 C 275.978 -0.814279 -3.5221 0
M  V30 2984 O 275.699 -2.18139 -3.7993 0
M  V30 2985 C 277.2 -0.483121 -4.4066 0
M  V30 2986 H 274.42 -0.223896 -0.632544 0
M  V30 2987 H 276.964 -1.25091 -1.61779 0
M  V30 2988 H 275.119 -0.20213 -3.86872 0
M  V30 2989 H 275.533 -2.235 -4.74498 0
M  V30 2990 H 277.007 -0.689298 -5.47679 0
M  V30 2991 H 277.484 0.581546 -4.35333 0
M  V30 2992 H 278.09 -1.07362 -4.11526 0
M  V30 2993 N 276.405 1.4127 -0.698611 0
M  V30 2994 C 277.651 2.01979 -0.239972 0
M  V30 2995 C 278.006 1.54353 1.14861 0
M  V30 2996 O 277.299 0.746218 1.76471 0
M  V30 2997 C 277.493 3.56592 -0.240192 0
M  V30 2998 C 277.322 4.19226 -1.62726 0
M  V30 2999 C 276.092 4.53389 -2.23084 0
M  V30 3000 C 278.29 4.45228 -2.57443 0
M  V30 3001 N 276.272 5.01327 -3.54323 0
M  V30 3002 C 277.643 4.94973 -3.73365 0
M  V30 3003 C 279.698 4.27243 -2.55671 0
M  V30 3004 C 278.401 5.28624 -4.878 0
M  V30 3005 C 280.427 4.61985 -3.69221 0
M  V30 3006 C 279.789 5.11904 -4.83873 0
M  V30 3007 H 275.888 0.770561 -0.133269 0
M  V30 3008 H 278.472 1.71767 -0.916748 0
M  V30 3009 H 276.643 3.86271 0.406082 0
M  V30 3010 H 278.375 4.04025 0.23356 0
M  V30 3011 H 275.13 4.39946 -1.75341 0
M  V30 3012 H 275.554 5.29697 -4.21604 0
M  V30 3013 H 280.196 3.87884 -1.68243 0
M  V30 3014 H 277.914 5.66905 -5.75885 0
M  V30 3015 H 281.5 4.49725 -3.69105 0
M  V30 3016 H 280.38 5.38282 -5.70282 0
M  V30 3017 N 277.883 0.443576 1.51229 0
M  V30 3018 C 279.129 -0.120975 2.02439 0
M  V30 3019 C 279.462 -1.41815 1.32674 0
M  V30 3020 O 278.737 -1.89373 0.443622 0
M  V30 3021 C 279.02 -0.333291 3.58554 0
M  V30 3022 C 278.873 0.982968 4.38928 0
M  V30 3023 C 280.192 -1.10028 4.26124 0
M  V30 3024 H 277.311 -0.0424923 0.735774 0
M  V30 3025 H 279.953 0.583794 1.80809 0
M  V30 3026 H 278.103 -0.933614 3.77115 0
M  V30 3027 H 279.775 1.61775 4.32003 0
M  V30 3028 H 278.018 1.58611 4.03763 0
M  V30 3029 H 278.689 0.788379 5.46341 0
M  V30 3030 H 281.165 -0.591711 4.11871 0
M  V30 3031 H 280.041 -1.21761 5.35225 0
M  V30 3032 H 280.302 -2.12996 3.87408 0
M  V30 3033 N 279.361 -1.56624 0.175154 0
M  V30 3034 C 280.589 -2.01374 -0.474971 0
M  V30 3035 C 281.004 -1.05537 -1.56548 0
M  V30 3036 O 280.361 -0.0568668 -1.82411 0
M  V30 3037 C 280.412 -3.45923 -1.04975 0
M  V30 3038 O 280.133 -4.381 -0.00276605 0
M  V30 3039 C 281.634 -4.06093 -1.77773 0
M  V30 3040 H 278.854 -0.659962 -0.121206 0
M  V30 3041 H 281.398 -2.02601 0.27801 0
M  V30 3042 H 279.553 -3.45458 -1.75321 0
M  V30 3043 H 279.967 -5.22753 -0.427681 0
M  V30 3044 H 281.441 -5.09147 -2.13245 0
M  V30 3045 H 281.918 -3.48405 -2.67414 0
M  V30 3046 H 282.524 -4.10272 -1.12059 0
M  V30 3047 N 280.839 0.0985539 -1.57292 0
M  V30 3048 C 282.069 0.815135 -1.8984 0
M  V30 3049 C 282.477 1.7297 -0.766679 0
M  V30 3050 O 281.82 1.81698 0.270483 0
M  V30 3051 C 281.882 1.6842 -3.17608 0
M  V30 3052 C 281.546 0.94182 -4.4719 0
M  V30 3053 C 282.543 0.273212 -5.19182 0
M  V30 3054 C 280.228 0.916927 -4.9386 0
M  V30 3055 C 282.222 -0.410361 -6.36078 0
M  V30 3056 C 279.909 0.229567 -6.10669 0
M  V30 3057 C 280.907 -0.432902 -6.81627 0
M  V30 3058 O 280.595 -1.10925 -7.9621 0
M  V30 3059 H 280.327 0.238501 -0.632529 0
M  V30 3060 H 282.881 0.0812659 -2.05239 0
M  V30 3061 H 281.111 2.46022 -2.98345 0
M  V30 3062 H 282.8 2.27704 -3.36015 0
M  V30 3063 H 283.566 0.283927 -4.84168 0
M  V30 3064 H 279.445 1.42201 -4.3852 0
M  V30 3065 H 282.989 -0.928013 -6.914 0
M  V30 3066 H 278.886 0.216686 -6.45136 0
M  V30 3067 H 279.654 -1.01579 -8.12172 0
M  V30 3068 N 282.317 1.53212 0.369288 0
M  V30 3069 C 283.565 1.68881 1.11012 0
M  V30 3070 C 283.886 0.441285 1.89941 0
M  V30 3071 O 283.156 -0.544623 1.88177 0
M  V30 3072 H 281.736 0.622569 0.412816 0
M  V30 3073 H 284.398 1.90391 0.416802 0
M  V30 3074 H 283.494 2.54822 1.80201 0
M  V30 3075 N 283.795 -0.628877 1.44509 0
M  V30 3076 C 285.023 -1.41554 1.50897 0
M  V30 3077 C 285.438 -1.8832 0.134564 0
M  V30 3078 O 284.795 -1.60969 -0.859965 0
M  V30 3079 C 284.846 -2.63435 2.47556 0
M  V30 3080 O 284.567 -2.18619 3.79654 0
M  V30 3081 C 286.068 -3.56537 2.63431 0
M  V30 3082 H 283.288 -0.434044 0.511709 0
M  V30 3083 H 285.832 -0.768895 1.89495 0
M  V30 3084 H 283.987 -3.24187 2.12089 0
M  V30 3085 H 284.401 -2.97652 4.31861 0
M  V30 3086 H 285.875 -4.38657 3.35088 0
M  V30 3087 H 286.352 -4.05493 1.68738 0
M  V30 3088 H 286.958 -3.01653 2.9981 0
M  V30 3089 N 285.273 -1.31445 -0.869486 0
M  V30 3090 C 286.513 -1.22458 -1.63656 0
M  V30 3091 C 286.877 0.213846 -1.90805 0
M  V30 3092 O 288.078 0.427212 -2.65383 0
M  V30 3093 C 286.349 -2.04564 -2.93067 0
M  V30 3094 S 287.908 -2.12445 -3.83944 0
M  V30 3095 H 284.726 -0.436145 -0.561514 0
M  V30 3096 H 287.328 -1.66114 -1.03085 0
M  V30 3097 H 286.032 -3.0816 -2.71045 0
M  V30 3098 H 285.563 -1.6163 -3.58663 0
M  V30 3099 H 287.578 -1.26312 -4.79854 0
M  V30 3100 N 286.751 1.08385 -1.14413 0
M  V30 3101 C 287.699 2.17406 -0.826888 0
M  V30 3102 C 288.693 1.6827 0.195312 0
M  V30 3103 O 289.899 1.79927 0.0513892 0
M  V30 3104 H 286.274 0.70934 -0.249681 0
M  V30 3105 H 288.245 2.41388 -1.75426 0
M  V30 3106 C 286.994 3.46215 -0.320979 0
M  V30 3107 H 286.317 3.84401 -1.0989 0
M  V30 3108 H 287.757 4.23777 -0.137549 0
M  V30 3109 C 286.216 3.23067 0.955472 0
M  V30 3110 O 286.746 3.4668 2.02918 0
M  V30 3111 N 284.952 2.7661 0.890798 0
M  V30 3112 H 284.499 2.57594 0.0168815 0
M  V30 3113 H 284.457 2.61501 1.74542 0
M  V30 3114 N 288.23 0.939286 1.26551 0
M  V30 3115 C 289.162 0.404704 2.25599 0
M  V30 3116 C 290.175 -0.470983 1.55838 0
M  V30 3117 O 291.364 -0.281734 1.76263 0
M  V30 3118 C 288.464 -0.43764 3.36062 0
M  V30 3119 C 287.637 0.421449 4.35365 0
M  V30 3120 C 286.696 -0.36015 5.24966 0
M  V30 3121 O 285.722 0.236167 5.6871 0
M  V30 3122 N 286.924 -1.65715 5.56344 0
M  V30 3123 H 289.689 1.25618 2.72103 0
M  V30 3124 H 287.25 0.807963 1.40298 0
M  V30 3125 H 289.242 -0.967866 3.92956 0
M  V30 3126 H 287.812 -1.18991 2.89067 0
M  V30 3127 H 287.032 1.1329 3.7757 0
M  V30 3128 H 288.32 1.00835 4.98708 0
M  V30 3129 H 287.718 -2.16378 5.22682 0
M  V30 3130 H 286.275 -2.13366 6.15888 0
M  V30 3131 N 289.708 -1.40897 0.706093 0
M  V30 3132 C 290.671 -2.29131 0.0562841 0
M  V30 3133 C 291.671 -1.44901 -0.697166 0
M  V30 3134 O 292.861 -1.65926 -0.530484 0
M  V30 3135 C 289.993 -3.27957 -0.93043 0
M  V30 3136 H 291.186 -2.88091 0.833284 0
M  V30 3137 H 288.739 -1.4906 0.470192 0
M  V30 3138 H 289.474 -2.73997 -1.73482 0
M  V30 3139 H 289.259 -3.90124 -0.393166 0
M  V30 3140 H 290.749 -3.94049 -1.38256 0
M  V30 3141 N 291.186 -0.45159 -1.50991 0
M  V30 3142 C 292.434 0.109857 -2.01801 0
M  V30 3143 C 292.755 1.41958 -1.3369 0
M  V30 3144 O 292.025 1.9003 -0.475951 0
M  V30 3145 H 290.605 0.0435884 -0.745727 0
M  V30 3146 H 293.267 -0.597557 -1.85514 0
M  V30 3147 H 292.363 0.275489 -3.10882 0
M  V30 3148 N 292.664 1.56529 -0.183458 0
M  V30 3149 C 293.574 2.22144 0.754272 0
M  V30 3150 C 294.59 1.21684 1.24374 0
M  V30 3151 O 295.766 1.54385 1.29333 0
M  V30 3152 C 292.831 2.85884 1.96141 0
M  V30 3153 C 291.892 4.01579 1.51765 0
M  V30 3154 C 291.125 4.6227 2.66725 0
M  V30 3155 O 291.348 4.21865 3.83909 0
M  V30 3156 O 290.282 5.51936 2.40104 0
M  V30 3157 H 294.108 3.02861 0.225527 0
M  V30 3158 H 291.693 1.49331 0.0453032 0
M  V30 3159 H 293.575 3.26253 2.66715 0
M  V30 3160 H 292.25 2.08154 2.47899 0
M  V30 3161 H 291.157 3.65856 0.781049 0
M  V30 3162 H 292.49 4.80938 1.04686 0
M  V30 3163 N 294.142 -0.090211 1.57342 0
M  V30 3164 C 295.092 -1.11557 1.98844 0
M  V30 3165 C 296.076 -1.35503 0.867624 0
M  V30 3166 O 297.268 -1.36113 1.13148 0
M  V30 3167 C 294.397 -2.43446 2.42051 0
M  V30 3168 C 293.483 -2.22853 3.60828 0
M  V30 3169 N 293.874 -1.72141 4.75606 0
M  V30 3170 C 292.172 -2.53401 3.67021 0
M  V30 3171 C 292.873 -1.65932 5.57531 0
M  V30 3172 N 291.849 -2.11323 5.00843 0
M  V30 3173 H 295.651 -0.716499 2.85032 0
M  V30 3174 H 293.165 -0.297567 1.59651 0
M  V30 3175 H 295.162 -3.17644 2.70014 0
M  V30 3176 H 293.822 -2.84087 1.57241 0
M  V30 3177 H 294.833 -1.41268 4.98261 0
M  V30 3178 H 291.51 -2.97532 2.92884 0
M  V30 3179 H 292.9 -1.27733 6.59647 0
M  V30 3180 N 295.62 -1.53406 -0.361157 0
M  V30 3181 C 297.036 -1.43277 -0.703124 0
M  V30 3182 C 297.236 -0.575384 -1.9311 0
M  V30 3183 O 296.292 -0.0595362 -2.5243 0
M  V30 3184 C 297.605 -2.8653 -0.9122 0
M  V30 3185 C 299.153 -2.96191 -1.01193 0
M  V30 3186 C 299.628 -4.40514 -1.25345 0
M  V30 3187 N 301.119 -4.43962 -1.32105 0
M  V30 3188 C 301.854 -5.52746 -1.5251 0
M  V30 3189 N 301.35 -6.71567 -1.70203 0
M  V30 3190 N 303.143 -5.40331 -1.54916 0
M  V30 3191 H 295.294 -2.07654 0.446475 0
M  V30 3192 H 297.557 -0.937944 0.137715 0
M  V30 3193 H 297.263 -3.51605 -0.0816414 0
M  V30 3194 H 297.137 -3.30441 -1.81903 0
M  V30 3195 H 299.524 -2.31266 -1.83303 0
M  V30 3196 H 299.605 -2.55667 -0.0823929 0
M  V30 3197 H 299.249 -5.06014 -0.437346 0
M  V30 3198 H 299.179 -4.78614 -2.19627 0
M  V30 3199 H 301.67 -3.58332 -1.20028 0
M  V30 3200 H 301.983 -7.50241 -1.85359 0
M  V30 3201 H 300.328 -6.74545 -1.67373 0
M  V30 3202 H 303.519 -4.46465 -1.40663 0
M  V30 3203 H 303.692 -6.25173 -1.70477 0
M  V30 3204 N 297.098 0.621204 -1.44841 0
M  V30 3205 C 298.514 0.94048 -1.28946 0
M  V30 3206 C 298.714 2.00154 -0.23249 0
M  V30 3207 O 297.77 2.49651 0.378237 0
M  V30 3208 C 299.083 1.39433 -2.66419 0
M  V30 3209 C 300.631 1.50927 -2.74208 0
M  V30 3210 C 301.106 1.99692 -4.12174 0
M  V30 3211 N 302.597 2.06947 -4.144 0
M  V30 3212 C 303.332 2.45871 -5.1801 0
M  V30 3213 N 302.828 2.83862 -6.31977 0
M  V30 3214 N 304.621 2.46092 -5.05366 0
M  V30 3215 H 296.772 -0.0803548 -2.12248 0
M  V30 3216 H 299.035 0.0266913 -0.947624 0
M  V30 3217 H 298.741 0.688925 -3.44887 0
M  V30 3218 H 298.615 2.36347 -2.93973 0
M  V30 3219 H 301.002 2.20561 -1.96053 0
M  V30 3220 H 301.083 0.523627 -2.50383 0
M  V30 3221 H 300.727 1.30649 -4.90809 0
M  V30 3222 H 300.657 2.99146 -4.33381 0
M  V30 3223 H 303.148 1.80232 -3.32152 0
M  V30 3224 H 303.461 3.12405 -7.0684 0
M  V30 3225 H 301.806 2.8159 -6.35399 0
M  V30 3226 H 304.997 2.1581 -4.15384 0
M  V30 3227 H 305.17 2.76102 -5.86235 0
M  V30 3228 N 298.576 1.31904 0.862503 0
M  V30 3229 C 299.853 1.12644 1.59908 0
M  V30 3230 C 300.233 -0.316104 2.0872 0
M  V30 3231 O 299.581 -1.31145 1.87118 0
M  V30 3232 C 299.791 2.1472 2.7513 0
M  V30 3233 C 301.139 2.47637 3.44907 0
M  V30 3234 O 302.163 2.13205 2.85346 0
M  V30 3235 O 301.022 3.06632 4.52371 0
M  V30 3236 H 298.116 0.43416 0.703871 0
M  V30 3237 H 300.662 1.43408 0.907314 0
M  V30 3238 H 299.434 3.1172 2.3653 0
M  V30 3239 H 299.057 1.84905 3.51989 0
M  V30 3240 N 300.054 -1.07777 1.14986 0
M  V30 3241 C 301.001 -2.14867 0.842672 0
M  V30 3242 C 301.971 -1.6486 -0.202552 0
M  V30 3243 O 303.156 -1.90668 -0.0710568 0
M  V30 3244 C 300.296 -3.43486 0.333363 0
M  V30 3245 C 299.409 -4.07306 1.43965 0
M  V30 3246 C 298.544 -5.23744 0.886914 0
M  V30 3247 C 297.583 -5.79517 1.97043 0
M  V30 3248 N 296.72 -6.87291 1.4344 0
M  V30 3249 H 301.56 -2.40485 1.75986 0
M  V30 3250 H 299.097 -1.1801 0.878179 0
M  V30 3251 H 301.055 -4.17195 0.0198163 0
M  V30 3252 H 299.685 -3.18133 -0.546916 0
M  V30 3253 H 298.737 -3.31293 1.86946 0
M  V30 3254 H 300.049 -4.44771 2.25788 0
M  V30 3255 H 299.203 -6.04419 0.525651 0
M  V30 3256 H 297.942 -4.87685 0.0377957 0
M  V30 3257 H 296.947 -4.97491 2.34057 0
M  V30 3258 H 298.172 -6.17632 2.82325 0
M  V30 3259 H 296.118 -6.5318 0.607567 0
M  V30 3260 H 296.035 -7.23617 2.18895 0
M  V30 3261 H 297.303 -7.71682 1.10124 0
M  V30 3262 N 301.532 -0.945985 -1.26051 0
M  V30 3263 C 302.948 -0.649045 -1.45807 0
M  V30 3264 C 303.148 0.796158 -1.85104 0
M  V30 3265 O 302.204 1.57233 -1.97571 0
M  V30 3266 C 303.517 -1.61458 -2.53677 0
M  V30 3267 C 305.065 -1.62481 -2.67524 0
M  V30 3268 C 305.54 -2.57776 -3.7857 0
M  V30 3269 N 307.031 -2.5609 -3.85969 0
M  V30 3270 C 307.766 -3.26508 -4.7136 0
M  V30 3271 N 307.262 -4.0637 -5.61102 0
M  V30 3272 N 309.055 -3.15437 -4.65248 0
M  V30 3273 H 301.206 -1.88005 -0.988328 0
M  V30 3274 H 303.469 -0.808198 -0.4955 0
M  V30 3275 H 303.175 -2.64644 -2.31638 0
M  V30 3276 H 303.049 -1.37036 -3.51427 0
M  V30 3277 H 305.436 -0.600167 -2.88933 0
M  V30 3278 H 305.517 -1.90958 -1.70202 0
M  V30 3279 H 305.161 -3.60361 -3.57913 0
M  V30 3280 H 305.091 -2.26587 -4.75359 0
M  V30 3281 H 307.582 -1.98105 -3.21812 0
M  V30 3282 H 307.895 -4.57042 -6.23164 0
M  V30 3283 H 306.24 -4.10469 -5.60839 0
M  V30 3284 H 309.431 -2.52525 -3.94143 0
M  V30 3285 H 309.604 -3.70584 -5.31575 0
M  V30 3286 N 303.011 1.40521 -0.713556 0
M  V30 3287 C 304.236 2.05759 -0.26035 0
M  V30 3288 C 304.661 1.53403 1.08854 0
M  V30 3289 O 304.019 0.668535 1.68524 0
M  V30 3290 C 304.067 3.59745 -0.248122 0
M  V30 3291 O 303.171 4.05123 0.77131 0
M  V30 3292 H 302.512 0.652564 -0.122703 0
M  V30 3293 H 305.042 1.79958 -0.973467 0
M  V30 3294 H 305.052 4.07911 -0.0851129 0
M  V30 3295 H 303.727 3.97218 -1.2325 0
M  V30 3296 H 302.304 3.68422 0.57619 0
M  V30 3297 N 304.489 0.459591 1.5075 0
M  V30 3298 C 305.735 -0.0994966 2.02556 0
M  V30 3299 C 306.068 -1.40399 1.3417 0
M  V30 3300 O 305.343 -1.88892 0.463683 0
M  V30 3301 C 305.626 -0.295242 3.58888 0
M  V30 3302 C 305.479 1.02947 4.37861 0
M  V30 3303 C 306.798 -1.05502 4.27267 0
M  V30 3304 H 303.917 -0.034686 0.736183 0
M  V30 3305 H 306.559 0.602938 1.8018 0
M  V30 3306 H 304.709 -0.893563 3.78084 0
M  V30 3307 H 306.381 1.66348 4.30263 0
M  V30 3308 H 304.624 1.62885 4.02058 0
M  V30 3309 H 305.295 0.846281 5.45474 0
M  V30 3310 H 307.771 -0.547993 4.12476 0
M  V30 3311 H 306.647 -1.16077 5.36486 0
M  V30 3312 H 306.908 -2.08875 3.89645 0
M  V30 3313 N 305.967 -1.56429 0.191757 0
M  V30 3314 C 306.93 -2.17707 -0.716688 0
M  V30 3315 C 307.93 -1.13061 -1.14341 0
M  V30 3316 O 309.12 -1.38464 -1.05704 0
M  V30 3317 C 306.252 -2.77644 -1.97804 0
M  V30 3318 H 307.445 -2.99342 -0.1829 0
M  V30 3319 H 304.998 -1.56193 -0.0578566 0
M  V30 3320 H 305.733 -1.99799 -2.55443 0
M  V30 3321 H 305.518 -3.54246 -1.68083 0
M  V30 3322 H 307.008 -3.24708 -2.62592 0
M  V30 3323 N 307.445 0.0818655 -1.57387 0
M  V30 3324 C 308.375 1.09885 -2.06028 0
M  V30 3325 C 309.356 1.4098 -0.951774 0
M  V30 3326 O 310.541 1.50781 -1.22387 0
M  V30 3327 C 307.671 2.4151 -2.4958 0
M  V30 3328 C 306.625 2.24792 -3.64215 0
M  V30 3329 C 305.951 3.61712 -3.93787 0
M  V30 3330 C 307.251 1.67749 -4.94629 0
M  V30 3331 H 308.945 0.694128 -2.91243 0
M  V30 3332 H 306.491 0.332448 -1.4011 0
M  V30 3333 H 308.444 3.12939 -2.82219 0
M  V30 3334 H 307.168 2.83943 -1.61381 0
M  V30 3335 H 305.827 1.55807 -3.31843 0
M  V30 3336 H 305.475 4.01697 -3.02735 0
M  V30 3337 H 305.175 3.51368 -4.70971 0
M  V30 3338 H 306.699 4.34587 -4.28913 0
M  V30 3339 H 308.113 2.29032 -5.25564 0
M  V30 3340 H 306.51 1.68128 -5.76067 0
M  V30 3341 H 307.58 0.638059 -4.80684 0
M  V30 3342 N 308.923 1.53595 0.353017 0
M  V30 3343 C 309.886 1.80232 1.41594 0
M  V30 3344 C 310.886 0.673081 1.46035 0
M  V30 3345 O 312.076 0.941335 1.46576 0
M  V30 3346 C 309.208 1.93578 2.80607 0
M  V30 3347 H 310.401 2.75174 1.19244 0
M  V30 3348 H 307.954 1.44864 0.586872 0
M  V30 3349 H 308.689 1.00746 3.08254 0
M  V30 3350 H 308.474 2.75724 2.78781 0
M  V30 3351 H 309.964 2.15735 3.57558 0
M  V30 3352 N 310.401 -0.613514 1.45168 0
M  V30 3353 C 311.812 -1.19539 1.43413 0
M  V30 3354 C 312.163 -1.95558 0.158632 0
M  V30 3355 O 311.288 -2.0335 -0.740119 0
M  V30 3356 C 311.883 -2.17445 2.59813 0
M  V30 3357 C 310.442 -2.71022 2.61197 0
M  V30 3358 C 309.589 -1.46323 2.35552 0
M  V30 3359 H 312.54 -0.403163 1.53494 0
M  V30 3360 H 312.561 -3.00373 2.33574 0
M  V30 3361 H 312.073 -1.62089 3.52631 0
M  V30 3362 H 310.174 -3.30332 1.7237 0
M  V30 3363 H 310.287 -3.15859 3.60236 0
M  V30 3364 H 308.651 -1.75072 1.84992 0
M  V30 3365 H 309.434 -0.92844 3.30507 0
M  V30 3366 N 311.879 -1.3236 -0.855495 0
M  V30 3367 C 312.829 -1.17809 -1.95205 0
M  V30 3368 C 313.813 -0.0852319 -1.60674 0
M  V30 3369 O 315.005 -0.311651 -1.74235 0
M  V30 3370 C 312.134 -0.902437 -3.31226 0
M  V30 3371 C 311.22 -2.03695 -3.7198 0
M  V30 3372 N 311.611 -3.28544 -3.84568 0
M  V30 3373 C 309.909 -1.93993 -4.016 0
M  V30 3374 C 310.61 -4.02847 -4.19629 0
M  V30 3375 N 309.586 -3.31138 -4.31102 0
M  V30 3376 H 313.388 -2.12462 -2.0307 0
M  V30 3377 H 310.902 -1.24127 -1.0472 0
M  V30 3378 H 312.899 -0.77915 -4.09554 0
M  V30 3379 H 311.559 0.0357267 -3.2468 0
M  V30 3380 H 312.57 -3.6349 -3.68911 0
M  V30 3381 H 309.247 -1.07733 -4.03361 0
M  V30 3382 H 310.637 -5.10506 -4.36845 0
M  V30 3383 N 313.357 1.07166 -1.15556 0
M  V30 3384 C 314.603 1.80065 -0.932984 0
M  V30 3385 C 314.936 1.86586 0.53845 0
M  V30 3386 O 314.211 1.35098 1.39924 0
M  V30 3387 C 314.494 3.25022 -1.55025 0
M  V30 3388 C 314.347 3.26634 -3.09242 0
M  V30 3389 C 315.666 4.22341 -1.2376 0
M  V30 3390 H 312.785 0.653697 -0.340366 0
M  V30 3391 H 315.427 1.25389 -1.4275 0
M  V30 3392 H 313.577 3.71712 -1.12972 0
M  V30 3393 H 315.249 2.88173 -3.60214 0
M  V30 3394 H 313.492 2.65539 -3.43033 0
M  V30 3395 H 314.163 4.28854 -3.47546 0
M  V30 3396 H 316.639 3.8405 -1.60139 0
M  V30 3397 H 315.515 5.22053 -1.69564 0
M  V30 3398 H 315.776 4.41828 -0.154938 0
M  V30 3399 N 314.835 0.952656 1.25548 0
M  V30 3400 C 316.083 0.605176 1.92826 0
M  V30 3401 C 316.404 -0.860261 1.74999 0
M  V30 3402 O 315.674 -1.6125 1.11244 0
M  V30 3403 H 314.254 0.220832 0.713612 0
M  V30 3404 H 316.916 1.21047 1.52754 0
M  V30 3405 H 316.012 0.832798 3.00784 0
M  V30 3406 N 316.313 -1.40141 0.720998 0
M  V30 3407 C 317.246 -2.2819 0.020916 0
M  V30 3408 C 318.224 -1.43633 -0.762129 0
M  V30 3409 O 319.408 -1.7304 -0.747633 0
M  V30 3410 C 316.535 -3.24281 -0.977715 0
M  V30 3411 C 315.581 -4.25548 -0.284836 0
M  V30 3412 S 316.414 -5.26247 0.991169 0
M  V30 3413 C 317.57 -6.259 -0.0052214 0
M  V30 3414 H 317.803 -2.87218 0.767649 0
M  V30 3415 H 315.336 -1.45656 0.512233 0
M  V30 3416 H 317.294 -3.80167 -1.54865 0
M  V30 3417 H 315.955 -2.643 -1.69719 0
M  V30 3418 H 315.148 -4.93154 -1.03996 0
M  V30 3419 H 314.75 -3.73389 0.213684 0
M  V30 3420 H 317.042 -6.72143 -0.850279 0
M  V30 3421 H 317.985 -7.05224 0.637599 0
M  V30 3422 H 318.393 -5.63277 -0.371366 0
M  V30 3423 N 317.792 -0.46758 -1.50504 0
M  V30 3424 C 319.04 0.0884469 -2.01906 0
M  V30 3425 C 319.361 1.40532 -1.35188 0
M  V30 3426 O 318.631 1.89515 -0.496079 0
M  V30 3427 H 317.211 0.0356765 -0.746148 0
M  V30 3428 H 319.873 -0.6172 -1.84869 0
M  V30 3429 H 318.969 0.2425 -3.11156 0
M  V30 3430 N 319.27 1.56325 -0.20005 0
M  V30 3431 C 320.2 2.22318 0.713916 0
M  V30 3432 C 321.181 1.18788 1.21752 0
M  V30 3433 O 322.366 1.47309 1.26545 0
M  V30 3434 C 319.496 2.88639 1.93144 0
M  V30 3435 C 318.45 3.98457 1.56255 0
M  V30 3436 C 317.776 4.51967 2.85709 0
M  V30 3437 C 319.076 5.16612 0.768747 0
M  V30 3438 H 320.77 2.98952 0.163755 0
M  V30 3439 H 318.316 1.43792 0.0773219 0
M  V30 3440 H 320.269 3.33491 2.57608 0
M  V30 3441 H 318.993 2.09419 2.50621 0
M  V30 3442 H 317.652 3.54305 0.941471 0
M  V30 3443 H 317.3 3.69503 3.41287 0
M  V30 3444 H 317 5.26071 2.6177 0
M  V30 3445 H 318.524 4.99523 3.51154 0
M  V30 3446 H 319.938 5.57977 1.3166 0
M  V30 3447 H 318.335 5.96812 0.627286 0
M  V30 3448 H 319.405 4.84358 -0.229168 0
M  V30 3449 N 320.748 -0.0735177 1.57428 0
M  V30 3450 C 322.025 -0.805903 1.78226 0
M  V30 3451 C 322.405 -1.95874 0.787189 0
M  V30 3452 O 321.753 -2.2779 -0.180029 0
M  V30 3453 C 321.963 -1.28045 3.24662 0
M  V30 3454 C 323.311 -1.71453 3.88444 0
M  V30 3455 O 324.335 -1.37616 3.28543 0
M  V30 3456 O 323.194 -2.34093 4.93825 0
M  V30 3457 H 320.288 -0.386041 0.73137 0
M  V30 3458 H 322.834 -0.0537269 1.69615 0
M  V30 3459 H 321.606 -0.455476 3.8864 0
M  V30 3460 H 321.229 -2.094 3.37991 0
M  V30 3461 N 322.226 -1.5378 -0.344866 0
M  V30 3462 C 323.454 -1.74899 -1.10534 0
M  V30 3463 C 323.869 -0.487534 -1.82397 0
M  V30 3464 O 323.226 0.540741 -1.74305 0
M  V30 3465 C 323.277 -2.92822 -2.11984 0
M  V30 3466 O 322.998 -4.14089 -1.43044 0
M  V30 3467 C 324.499 -3.25982 -3.00417 0
M  V30 3468 H 321.719 -0.584426 -0.329678 0
M  V30 3469 H 324.263 -2.006 -0.397474 0
M  V30 3470 H 322.418 -2.69457 -2.78338 0
M  V30 3471 H 322.832 -4.80272 -2.10805 0
M  V30 3472 H 324.306 -4.11848 -3.67539 0
M  V30 3473 H 324.783 -2.42228 -3.66363 0
M  V30 3474 H 325.389 -3.51349 -2.39654 0
M  V30 3475 N 323.704 0.605807 -1.45491 0
M  V30 3476 C 325.12 0.926751 -1.29936 0
M  V30 3477 C 325.32 1.99896 -0.253706 0
M  V30 3478 O 324.376 2.50038 0.351737 0
M  V30 3479 C 325.689 1.36599 -2.67883 0
M  V30 3480 C 327.237 1.4801 -2.75793 0
M  V30 3481 C 327.712 1.95309 -4.14268 0
M  V30 3482 N 329.203 2.0254 -4.16571 0
M  V30 3483 C 329.938 2.40363 -5.20589 0
M  V30 3484 N 329.434 2.77143 -6.34952 0
M  V30 3485 N 331.227 2.40718 -5.07948 0
M  V30 3486 H 323.378 -0.102862 -2.12151 0
M  V30 3487 H 325.641 0.016639 -0.947854 0
M  V30 3488 H 325.347 0.652306 -3.45598 0
M  V30 3489 H 325.221 2.33215 -2.96463 0
M  V30 3490 H 327.608 2.1847 -1.98381 0
M  V30 3491 H 327.689 0.497041 -2.50925 0
M  V30 3492 H 327.333 1.25436 -4.92167 0
M  V30 3493 H 327.263 2.94532 -4.3653 0
M  V30 3494 H 329.754 1.76699 -3.34045 0
M  V30 3495 H 330.067 3.0489 -7.10114 0
M  V30 3496 H 328.412 2.74834 -6.3835 0
M  V30 3497 H 331.603 2.11392 -4.1765 0
M  V30 3498 H 331.776 2.69869 -5.89131 0
M  V30 3499 N 325.182 1.32811 0.848464 0
M  V30 3500 C 326.41 1.26739 1.63538 0
M  V30 3501 C 326.825 -0.163484 1.88091 0
M  V30 3502 O 326.182 -1.10258 1.45429 0
M  V30 3503 C 326.233 2.03013 2.99112 0
M  V30 3504 O 325.954 3.40518 2.75643 0
M  V30 3505 C 327.455 2.04038 3.93552 0
M  V30 3506 H 324.675 0.437024 0.509167 0
M  V30 3507 H 327.219 1.75033 1.05753 0
M  V30 3508 H 325.374 1.58426 3.53525 0
M  V30 3509 H 325.788 3.79635 3.61908 0
M  V30 3510 H 327.262 2.61877 4.85926 0
M  V30 3511 H 327.739 1.0282 4.26995 0
M  V30 3512 H 328.345 2.486 3.45077 0
M  V30 3513 N 326.66 -1.06551 1.16123 0
M  V30 3514 C 327.592 -2.13908 0.823171 0
M  V30 3515 C 328.605 -1.61926 -0.16843 0
M  V30 3516 O 329.794 -1.78412 0.055962 0
M  V30 3517 C 326.894 -3.38283 0.204424 0
M  V30 3518 C 326.067 -4.19589 1.23548 0
M  V30 3519 C 325.126 -5.2233 0.637011 0
M  V30 3520 O 324.152 -5.54034 1.30516 0
M  V30 3521 N 325.354 -5.77621 -0.577474 0
M  V30 3522 H 328.119 -2.43508 1.74711 0
M  V30 3523 H 325.68 -1.2253 1.05821 0
M  V30 3524 H 327.672 -4.0416 -0.208909 0
M  V30 3525 H 326.242 -3.06329 -0.623012 0
M  V30 3526 H 325.462 -3.49406 1.82507 0
M  V30 3527 H 326.75 -4.70718 1.93137 0
M  V30 3528 H 326.148 -5.54125 -1.13853 0
M  V30 3529 H 324.705 -6.45087 -0.933053 0
M  V30 3530 N 328.138 -0.959301 -1.25041 0
M  V30 3531 C 329.366 -0.633949 -1.96948 0
M  V30 3532 C 329.781 0.794916 -1.7125 0
M  V30 3533 O 329.138 1.53231 -0.991287 0
M  V30 3534 C 329.189 -0.888805 -3.50403 0
M  V30 3535 O 328.91 -2.26149 -3.75218 0
M  V30 3536 C 330.411 -0.576482 -4.39536 0
M  V30 3537 H 327.631 -0.237263 -0.627652 0
M  V30 3538 H 330.175 -1.28495 -1.59089 0
M  V30 3539 H 328.33 -0.284145 -3.86357 0
M  V30 3540 H 328.744 -2.33514 -4.6965 0
M  V30 3541 H 330.218 -0.805314 -5.46094 0
M  V30 3542 H 330.695 0.489075 -4.36468 0
M  V30 3543 H 331.301 -1.16067 -4.09156 0
M  V30 3544 N 329.616 1.39756 -0.72842 0
M  V30 3545 C 330.862 2.01425 -0.282761 0
M  V30 3546 C 331.217 1.56754 1.11561 0
M  V30 3547 O 330.51 0.783482 1.74849 0
M  V30 3548 C 330.704 3.56002 -0.315776 0
M  V30 3549 C 330.533 4.1568 -1.71582 0
M  V30 3550 C 329.303 4.48555 -2.32651 0
M  V30 3551 C 331.501 4.39667 -2.66829 0
M  V30 3552 N 329.483 4.93698 -3.64877 0
M  V30 3553 C 330.854 4.86942 -3.8378 0
M  V30 3554 C 332.909 4.21724 -2.64675 0
M  V30 3555 C 331.612 5.18158 -4.98904 0
M  V30 3556 C 333.638 4.54049 -3.78937 0
M  V30 3557 C 333 5.01525 -4.94623 0
M  V30 3558 H 329.099 0.76756 -0.149583 0
M  V30 3559 H 331.683 1.69784 -0.952976 0
M  V30 3560 H 329.854 3.87046 0.324057 0
M  V30 3561 H 331.586 4.0443 0.147808 0
M  V30 3562 H 328.341 4.36128 -1.84633 0
M  V30 3563 H 328.765 5.20635 -4.32744 0
M  V30 3564 H 333.407 3.84228 -1.76433 0
M  V30 3565 H 331.125 5.54562 -5.87781 0
M  V30 3566 H 334.711 4.41795 -3.78561 0
M  V30 3567 H 333.591 5.26065 -5.81572 0
M  V30 3568 N 331.094 0.475555 1.50254 0
M  V30 3569 C 332.027 -0.362381 2.25304 0
M  V30 3570 C 333.005 -0.992393 1.28803 0
M  V30 3571 O 334.189 -1.02746 1.58036 0
M  V30 3572 C 331.316 -1.50813 3.03271 0
M  V30 3573 C 330.362 -0.995044 4.1473 0
M  V30 3574 S 331.195 0.0938436 5.35418 0
M  V30 3575 C 332.351 -1.05567 6.16933 0
M  V30 3576 H 332.584 0.274686 2.96028 0
M  V30 3577 H 330.117 0.260495 1.52187 0
M  V30 3578 H 332.075 -2.16476 3.48781 0
M  V30 3579 H 330.736 -2.11672 2.32064 0
M  V30 3580 H 329.929 -1.85293 4.68703 0
M  V30 3581 H 329.531 -0.416052 3.71679 0
M  V30 3582 H 331.823 -1.96636 6.48337 0
M  V30 3583 H 332.766 -0.555109 7.05921 0
M  V30 3584 H 333.174 -1.31151 5.49053 0
M  V30 3585 N 332.573 -1.56217 0.208337 0
M  V30 3586 C 333.798 -2.02782 -0.435222 0
M  V30 3587 C 334.223 -1.08738 -1.53485 0
M  V30 3588 O 333.581 -0.0731855 -1.81152 0
M  V30 3589 C 333.629 -3.47687 -0.956335 0
M  V30 3590 O 332.733 -3.56773 -2.06849 0
M  V30 3591 H 332.074 -0.656403 -0.100158 0
M  V30 3592 H 334.604 -2.02033 0.3231 0
M  V30 3593 H 334.614 -3.87745 -1.26955 0
M  V30 3594 H 333.289 -4.15624 -0.15143 0
M  V30 3595 H 331.866 -3.28597 -1.76292 0
M  V30 3596 N 334.051 0.0651679 -1.57465 0
M  V30 3597 C 335.014 1.06117 -2.03155 0
M  V30 3598 C 336.014 1.31204 -0.929632 0
M  V30 3599 O 337.204 1.26813 -1.19432 0
M  V30 3600 C 334.336 2.4032 -2.41783 0
M  V30 3601 H 335.529 0.667231 -2.92383 0
M  V30 3602 H 333.082 0.311075 -1.53173 0
M  V30 3603 H 333.817 2.84532 -1.55601 0
M  V30 3604 H 333.602 2.23451 -3.22199 0
M  V30 3605 H 335.092 3.11898 -2.77685 0
M  V30 3606 N 335.529 1.53961 0.336706 0
M  V30 3607 C 336.439 1.85432 1.43708 0
M  V30 3608 C 337.455 0.745053 1.57242 0
M  V30 3609 O 338.631 1.03804 1.72588 0
M  V30 3610 C 335.696 2.06349 2.78605 0
M  V30 3611 C 334.757 3.30191 2.74358 0
M  V30 3612 C 333.99 3.50101 4.02822 0
M  V30 3613 O 334.213 2.7371 5.00439 0
M  V30 3614 O 333.147 4.43547 4.06878 0
M  V30 3615 H 336.973 2.78975 1.20028 0
M  V30 3616 H 334.558 1.39701 0.52952 0
M  V30 3617 H 336.44 2.21513 3.58483 0
M  V30 3618 H 335.115 1.15995 3.02203 0
M  V30 3619 H 334.022 3.20425 1.93078 0
M  V30 3620 H 335.355 4.2056 2.55715 0
M  V30 3621 N 337.007 -0.598083 1.45811 0
M  V30 3622 C 338.255 -1.35413 1.50026 0
M  V30 3623 C 338.576 -1.94444 0.147177 0
M  V30 3624 O 337.846 -1.77701 -0.824571 0
M  V30 3625 H 336.426 -0.502727 0.552517 0
M  V30 3626 H 339.088 -0.701606 1.81834 0
M  V30 3627 H 338.184 -2.16871 2.2444 0
M  V30 3628 N 338.485 -1.33259 -0.841409 0
M  V30 3629 C 339.448 -1.23221 -1.9326 0
M  V30 3630 C 340.448 -0.151895 -1.60081 0
M  V30 3631 O 341.638 -0.403246 -1.69468 0
M  V30 3632 C 338.77 -0.898123 -3.28856 0
M  V30 3633 H 339.963 -2.2021 -2.03587 0
M  V30 3634 H 337.516 -1.17281 -1.03319 0
M  V30 3635 H 338.251 0.0693841 -3.24226 0
M  V30 3636 H 338.036 -1.67934 -3.54317 0
M  V30 3637 H 339.526 -0.852563 -4.08805 0
M  V30 3638 N 339.963 1.05934 -1.16686 0
M  V30 3639 C 341.209 1.79211 -0.962023 0
M  V30 3640 C 341.564 1.85667 0.504545 0
M  V30 3641 O 340.857 1.33991 1.36956 0
M  V30 3642 C 341.051 3.23105 -1.52767 0
M  V30 3643 C 340.88 3.30673 -3.04771 0
M  V30 3644 C 339.65 3.40395 -3.73442 0
M  V30 3645 C 341.848 3.20234 -4.02436 0
M  V30 3646 N 339.83 3.37015 -5.13122 0
M  V30 3647 C 341.201 3.24138 -5.28521 0
M  V30 3648 C 343.256 3.04143 -3.9421 0
M  V30 3649 C 341.959 3.13607 -6.47336 0
M  V30 3650 C 343.985 2.94951 -5.12599 0
M  V30 3651 C 343.347 2.99481 -6.37566 0
M  V30 3652 H 339.446 0.668442 -0.405844 0
M  V30 3653 H 342.03 1.26341 -1.48142 0
M  V30 3654 H 340.201 3.74364 -1.03471 0
M  V30 3655 H 341.933 3.84579 -1.26021 0
M  V30 3656 H 338.688 3.45344 -3.2409 0
M  V30 3657 H 339.112 3.38815 -5.86117 0
M  V30 3658 H 343.754 2.99484 -2.98445 0
M  V30 3659 H 341.472 3.17022 -7.43319 0
M  V30 3660 H 345.058 2.83583 -5.08008 0
M  V30 3661 H 343.938 2.92431 -7.27636 0
M  V30 3662 N 341.441 0.965919 1.2453 0
M  V30 3663 C 342.857 0.67216 1.44756 0
M  V30 3664 C 343.057 -0.766609 1.86347 0
M  V30 3665 O 342.113 -1.5407 2.00047 0
M  V30 3666 C 343.426 1.65473 2.51076 0
M  V30 3667 C 344.974 1.66716 2.64905 0
M  V30 3668 C 345.449 2.63766 3.74421 0
M  V30 3669 N 346.94 2.62198 3.81846 0
M  V30 3670 C 347.675 3.33966 4.66106 0
M  V30 3671 N 347.171 4.15245 5.54566 0
M  V30 3672 N 348.964 3.22799 4.60171 0
M  V30 3673 H 341.115 1.89553 0.958293 0
M  V30 3674 H 343.378 0.815979 0.482579 0
M  V30 3675 H 343.084 2.68296 2.27399 0
M  V30 3676 H 342.958 1.4261 3.49202 0
M  V30 3677 H 345.345 0.646057 2.87941 0
M  V30 3678 H 345.426 1.93642 1.67142 0
M  V30 3679 H 345.07 3.6601 3.52135 0
M  V30 3680 H 345 2.34121 4.71694 0
M  V30 3681 H 347.491 2.032 3.18619 0
M  V30 3682 H 347.804 4.66898 6.15814 0
M  V30 3683 H 346.149 4.1934 5.54237 0
M  V30 3684 H 349.34 2.58764 3.90075 0
M  V30 3685 H 349.513 3.78994 5.25612 0
M  V30 3686 N 342.919 -1.39368 0.735821 0
M  V30 3687 C 343.851 -2.2913 0.0567723 0
M  V30 3688 C 344.864 -1.46859 -0.702589 0
M  V30 3689 O 346.053 -1.69925 -0.546616 0
M  V30 3690 C 343.153 -3.25492 -0.943823 0
M  V30 3691 C 342.326 -4.36709 -0.24581 0
M  V30 3692 C 341.385 -5.13376 -1.15463 0
M  V30 3693 O 340.411 -5.65683 -0.631803 0
M  V30 3694 N 341.613 -5.24656 -2.48427 0
M  V30 3695 H 344.378 -2.88047 0.827582 0
M  V30 3696 H 341.939 -1.50957 0.585112 0
M  V30 3697 H 343.931 -3.73657 -1.55443 0
M  V30 3698 H 342.501 -2.676 -1.61583 0
M  V30 3699 H 341.721 -3.9041 0.545286 0
M  V30 3700 H 343.009 -5.08244 0.237891 0
M  V30 3701 H 342.407 -4.83679 -2.93379 0
M  V30 3702 H 340.964 -5.76258 -3.04582 0
M  V30 3703 N 344.397 -0.483516 -1.5 0
M  V30 3704 C 345.643 0.0672592 -2.02688 0
M  V30 3705 C 345.976 1.38247 -1.36387 0
M  V30 3706 O 345.251 1.88131 -0.493675 0
M  V30 3707 C 345.534 0.238109 -3.59312 0
M  V30 3708 C 345.387 -1.099 -4.36168 0
M  V30 3709 C 346.706 0.986916 -4.28892 0
M  V30 3710 H 343.825 0.0229696 -0.736642 0
M  V30 3711 H 346.467 -0.631527 -1.79197 0
M  V30 3712 H 344.617 0.8333 -3.79458 0
M  V30 3713 H 346.289 -1.73172 -4.27562 0
M  V30 3714 H 344.532 -1.69261 -3.99416 0
M  V30 3715 H 345.203 -0.932954 -5.44059 0
M  V30 3716 H 347.679 0.482302 -4.13295 0
M  V30 3717 H 346.555 1.07527 -5.38265 0
M  V30 3718 H 346.816 2.0265 -3.92919 0
M  V30 3719 N 345.875 1.56104 -0.216619 0
M  V30 3720 C 346.785 2.23694 0.706982 0
M  V30 3721 C 347.801 1.24295 1.21765 0
M  V30 3722 O 348.977 1.57094 1.2603 0
M  V30 3723 C 346.042 2.8998 1.90033 0
M  V30 3724 C 345.103 4.04708 1.43213 0
M  V30 3725 C 344.336 4.67824 2.56859 0
M  V30 3726 O 344.559 4.29913 3.74874 0
M  V30 3727 O 343.493 5.56905 2.28343 0
M  V30 3728 H 347.319 3.03272 0.161235 0
M  V30 3729 H 344.904 1.49394 0.0136177 0
M  V30 3730 H 346.786 3.31837 2.59735 0
M  V30 3731 H 345.461 2.13365 2.43428 0
M  V30 3732 H 344.368 3.6743 0.70327 0
M  V30 3733 H 345.701 4.83051 0.944615 0
M  V30 3734 N 347.353 -0.0568162 1.57498 0
M  V30 3735 C 348.3 -1.06591 2.04712 0
M  V30 3736 C 349.27 -1.3758 0.930644 0
M  V30 3737 O 350.455 -1.48392 1.19935 0
M  V30 3738 C 347.595 -2.3701 2.50839 0
M  V30 3739 C 346.708 -2.12421 3.76167 0
M  V30 3740 C 345.843 -3.36511 4.11015 0
M  V30 3741 C 344.882 -3.07353 5.2934 0
M  V30 3742 N 344.019 -4.23816 5.59754 0
M  V30 3743 H 348.859 -0.65631 2.90683 0
M  V30 3744 H 346.396 -0.312481 1.43743 0
M  V30 3745 H 348.354 -3.13175 2.7564 0
M  V30 3746 H 346.984 -2.75744 1.67825 0
M  V30 3747 H 346.036 -1.2688 3.58616 0
M  V30 3748 H 347.348 -1.86894 4.62463 0
M  V30 3749 H 346.502 -4.21062 4.36797 0
M  V30 3750 H 345.241 -3.65128 3.23315 0
M  V30 3751 H 344.246 -2.212 5.03339 0
M  V30 3752 H 345.471 -2.80043 6.1867 0
M  V30 3753 H 343.417 -4.52436 4.75014 0
M  V30 3754 H 343.334 -4.01614 6.40501 0
M  V30 3755 H 344.602 -5.0932 5.90096 0
M  V30 3756 N 348.832 -1.54138 -0.328536 0
M  V30 3757 C 350.078 -1.7236 -1.06865 0
M  V30 3758 C 350.411 -0.493231 -1.87832 0
M  V30 3759 O 349.686 0.5098 -1.877 0
M  V30 3760 C 349.969 -2.99621 -1.99747 0
M  V30 3761 C 349.822 -4.32899 -1.22143 0
M  V30 3762 C 351.141 -3.22615 -2.99345 0
M  V30 3763 H 348.26 -0.627151 -0.387105 0
M  V30 3764 H 350.902 -1.86827 -0.345767 0
M  V30 3765 H 349.052 -2.87418 -2.61387 0
M  V30 3766 H 350.724 -4.56978 -0.630017 0
M  V30 3767 H 348.967 -4.30628 -0.523628 0
M  V30 3768 H 349.638 -5.18154 -1.90318 0
M  V30 3769 H 352.114 -3.34248 -2.47826 0
M  V30 3770 H 350.99 -4.13027 -3.61524 0
M  V30 3771 H 351.251 -2.3961 -3.71536 0
M  V30 3772 N 350.31 0.590341 -1.46126 0
M  V30 3773 C 351.22 1.72793 -1.58681 0
M  V30 3774 C 352.236 1.67516 -0.470566 0
M  V30 3775 O 353.412 1.87562 -0.733642 0
M  V30 3776 C 350.477 3.09287 -1.5666 0
M  V30 3777 C 349.538 3.25886 -2.79458 0
M  V30 3778 C 348.771 4.55869 -2.77524 0
M  V30 3779 O 348.994 5.3928 -1.85832 0
M  V30 3780 O 347.928 4.75552 -3.68964 0
M  V30 3781 H 351.754 1.65149 -2.54872 0
M  V30 3782 H 349.339 0.756486 -1.28832 0
M  V30 3783 H 351.221 3.90577 -1.58202 0
M  V30 3784 H 349.896 3.17385 -0.636271 0
M  V30 3785 H 348.803 2.44119 -2.83472 0
M  V30 3786 H 350.136 3.22675 -3.71674 0
M  V30 3787 N 351.788 1.33704 0.83433 0
M  V30 3788 C 353.016 1.28467 1.62185 0
M  V30 3789 C 353.431 -0.143526 1.88254 0
M  V30 3790 O 352.788 -1.08709 1.4659 0
M  V30 3791 C 352.839 2.06174 2.96942 0
M  V30 3792 O 352.56 3.43422 2.72016 0
M  V30 3793 C 354.061 2.08201 3.91366 0
M  V30 3794 H 351.281 0.4424 0.504503 0
M  V30 3795 H 353.825 1.76145 1.03891 0
M  V30 3796 H 351.98 1.62167 3.51825 0
M  V30 3797 H 352.394 3.83453 3.57861 0
M  V30 3798 H 353.868 2.67017 4.83121 0
M  V30 3799 H 354.345 1.07343 4.2588 0
M  V30 3800 H 354.951 2.52246 3.42421 0
M  V30 3801 N 353.266 -1.05314 1.17247 0
M  V30 3802 C 354.512 -1.78699 0.971513 0
M  V30 3803 C 354.867 -1.85932 -0.494692 0
M  V30 3804 O 354.16 -1.34716 -1.36243 0
M  V30 3805 C 354.354 -3.2229 1.54479 0
M  V30 3806 C 354.183 -3.29052 3.06521 0
M  V30 3807 C 352.953 -3.3841 3.75242 0
M  V30 3808 C 355.151 -3.18095 4.04129 0
M  V30 3809 N 353.133 -3.34289 5.14902 0
M  V30 3810 C 354.504 -3.21331 5.30232 0
M  V30 3811 C 356.559 -3.02049 3.95817 0
M  V30 3812 C 355.262 -3.10169 6.4899 0
M  V30 3813 C 357.288 -2.92228 5.14156 0
M  V30 3814 C 356.65 -2.96096 6.39145 0
M  V30 3815 H 352.749 -0.66628 0.409383 0
M  V30 3816 H 355.333 -1.25553 1.4881 0
M  V30 3817 H 353.504 -3.7381 1.05455 0
M  V30 3818 H 355.236 -3.83905 1.28059 0
M  V30 3819 H 351.991 -3.43621 3.25917 0
M  V30 3820 H 352.415 -3.35702 5.87906 0
M  V30 3821 H 357.057 -2.97897 3.00029 0
M  V30 3822 H 354.775 -3.13076 7.44989 0
M  V30 3823 H 358.361 -2.80885 5.09505 0
M  V30 3824 H 357.241 -2.88568 7.29176 0
M  V30 3825 N 354.744 -0.972509 -1.24016 0
M  V30 3826 C 355.707 -0.511403 -2.23422 0
M  V30 3827 C 356.707 0.394679 -1.55881 0
M  V30 3828 O 357.897 0.189469 -1.73167 0
M  V30 3829 C 355.029 0.258769 -3.39916 0
M  V30 3830 H 356.222 -1.39024 -2.6573 0
M  V30 3831 H 353.775 -0.757585 -1.36713 0
M  V30 3832 H 354.51 1.1545 -3.03054 0
M  V30 3833 H 354.295 -0.391522 -3.9014 0
M  V30 3834 H 355.785 0.570244 -4.13688 0
M  V30 3835 N 356.222 1.38976 -0.743202 0
M  V30 3836 C 357.152 2.33171 -0.123873 0
M  V30 3837 C 358.133 1.54336 0.71516 0
M  V30 3838 O 359.318 1.82696 0.658467 0
M  V30 3839 C 356.448 3.38474 0.777978 0
M  V30 3840 C 355.402 4.27979 0.0424758 0
M  V30 3841 C 354.728 5.2405 1.06189 0
M  V30 3842 C 356.028 5.10155 -1.1198 0
M  V30 3843 H 357.722 2.85213 -0.910709 0
M  V30 3844 H 355.268 1.37133 -0.439388 0
M  V30 3845 H 357.221 4.03328 1.22084 0
M  V30 3846 H 355.945 2.84891 1.59702 0
M  V30 3847 H 354.604 3.64616 -0.380853 0
M  V30 3848 H 354.252 4.66758 1.87472 0
M  V30 3849 H 353.952 5.84785 0.574485 0
M  V30 3850 H 355.476 5.9178 1.50428 0
M  V30 3851 H 356.89 5.68307 -0.75499 0
M  V30 3852 H 355.287 5.80073 -1.53738 0
M  V30 3853 H 356.357 4.44504 -1.93764 0
M  V30 3854 N 357.7 0.491464 1.49741 0
M  V30 3855 C 359.116 0.146835 1.58923 0
M  V30 3856 C 359.316 -1.34804 1.49767 0
M  V30 3857 O 358.372 -2.12317 1.36667 0
M  V30 3858 C 359.685 0.715157 2.92072 0
M  V30 3859 C 361.233 0.680407 3.05515 0
M  V30 3860 C 361.708 1.22663 4.41269 0
M  V30 3861 N 363.199 1.18691 4.47735 0
M  V30 3862 C 363.934 1.57984 5.51207 0
M  V30 3863 N 363.43 2.04824 6.6183 0
M  V30 3864 N 365.223 1.49459 5.41866 0
M  V30 3865 H 357.374 1.46347 1.53936 0
M  V30 3866 H 359.637 0.606453 0.728642 0
M  V30 3867 H 359.343 1.76317 3.04311 0
M  V30 3868 H 359.217 0.17018 3.76816 0
M  V30 3869 H 361.604 -0.358743 2.92911 0
M  V30 3870 H 361.685 1.26242 2.22478 0
M  V30 3871 H 361.329 2.26451 4.54623 0
M  V30 3872 H 361.259 0.620637 5.2293 0
M  V30 3873 H 363.75 0.843605 3.68364 0
M  V30 3874 H 364.063 2.32901 7.3687 0
M  V30 3875 H 362.408 2.08791 6.62896 0
M  V30 3876 H 365.599 1.12692 4.54333 0
M  V30 3877 H 365.772 1.80406 6.22381 0
M  V30 3878 N 359.178 -1.55987 0.224894 0
M  V30 3879 C 360.128 -2.17076 -0.697296 0
M  V30 3880 C 361.112 -1.12006 -1.15514 0
M  V30 3881 O 362.304 -1.37985 -1.10857 0
M  V30 3882 C 359.433 -2.85679 -1.90374 0
M  V30 3883 C 358.519 -3.97977 -1.46543 0
M  V30 3884 N 358.91 -5.00359 -0.739909 0
M  V30 3885 C 357.208 -4.10128 -1.75245 0
M  V30 3886 C 357.909 -5.79407 -0.515939 0
M  V30 3887 N 356.885 -5.32892 -1.07364 0
M  V30 3888 H 360.687 -2.93592 -0.134594 0
M  V30 3889 H 358.201 -1.62379 0.0262885 0
M  V30 3890 H 360.198 -3.27857 -2.57518 0
M  V30 3891 H 358.858 -2.1066 -2.47088 0
M  V30 3892 H 359.869 -5.16412 -0.392253 0
M  V30 3893 H 356.546 -3.46263 -2.33255 0
M  V30 3894 H 357.936 -6.71872 0.0617349 0
M  V30 3895 N 360.656 0.0484629 -1.57525 0
M  V30 3896 C 362.067 0.597486 -1.76881 0
M  V30 3897 C 362.418 1.76664 -0.853475 0
M  V30 3898 O 361.543 2.16357 -0.0433656 0
M  V30 3899 C 362.138 1.09066 -3.20765 0
M  V30 3900 C 360.697 1.58535 -3.41385 0
M  V30 3901 C 359.844 0.514868 -2.72478 0
M  V30 3902 H 362.795 -0.177758 -1.57701 0
M  V30 3903 H 362.816 1.95875 -3.2621 0
M  V30 3904 H 362.328 0.239521 -3.8736 0
M  V30 3905 H 360.429 2.45898 -2.79937 0
M  V30 3906 H 360.542 1.64622 -4.49929 0
M  V30 3907 H 358.906 0.965407 -2.35695 0
M  V30 3908 H 359.689 -0.32648 -3.41744 0
M  V30 3909 N 362.134 1.5431 0.320358 0
M  V30 3910 C 363.382 1.72327 1.05583 0
M  V30 3911 C 363.703 0.50149 1.88441 0
M  V30 3912 O 362.973 -0.48448 1.89815 0
M  V30 3913 H 361.553 0.635387 0.3928 0
M  V30 3914 H 364.215 1.91621 0.356019 0
M  V30 3915 H 363.311 2.60426 1.72003 0
M  V30 3916 N 363.613 -0.582584 1.46437 0
M  V30 3917 C 364.86 -1.34079 1.51753 0
M  V30 3918 C 365.188 -1.93762 0.169299 0
M  V30 3919 O 364.443 -1.76989 -0.835062 0
M  V30 3920 C 364.742 -2.48964 2.56421 0
M  V30 3921 C 364.408 -2.07273 4.00436 0
M  V30 3922 C 363.07 -1.95618 4.39644 0
M  V30 3923 C 365.422 -1.75111 4.90903 0
M  V30 3924 C 362.75 -1.5006 5.67185 0
M  V30 3925 C 365.102 -1.31032 6.18881 0
M  V30 3926 C 363.766 -1.17954 6.56996 0
M  V30 3927 H 363.036 -0.49063 0.555304 0
M  V30 3928 H 365.683 -0.656007 1.79913 0
M  V30 3929 H 363.988 -3.22889 2.21923 0
M  V30 3930 H 365.685 -3.07178 2.57765 0
M  V30 3931 H 362.275 -2.17279 3.69443 0
M  V30 3932 H 366.459 -1.83001 4.61329 0
M  V30 3933 H 361.715 -1.38577 5.95488 0
M  V30 3934 H 365.889 -1.052 6.88408 0
M  V30 3935 H 363.516 -0.824279 7.55718 0
M  V30 3936 N 365.091 -1.34144 -0.827227 0
M  V30 3937 C 366.319 -1.29325 -1.61501 0
M  V30 3938 C 366.734 0.13354 -1.88327 0
M  V30 3939 O 366.091 1.0793 -1.47164 0
M  V30 3940 C 366.142 -2.07746 -2.95844 0
M  V30 3941 O 365.863 -3.4486 -2.70191 0
M  V30 3942 C 367.364 -2.10273 -3.90256 0
M  V30 3943 H 364.584 -0.445069 -0.50215 0
M  V30 3944 H 367.128 -1.76693 -1.02955 0
M  V30 3945 H 365.283 -1.6403 -3.5096 0
M  V30 3946 H 365.697 -3.85345 -3.55822 0
M  V30 3947 H 367.171 -2.69575 -4.81698 0
M  V30 3948 H 367.648 -1.096 -4.25305 0
M  V30 3949 H 368.254 -2.54059 -3.41078 0
M  V30 3950 N 366.569 1.04691 -1.17803 0
M  V30 3951 C 367.818 1.77176 -0.963931 0
M  V30 3952 C 368.131 1.88888 0.508015 0
M  V30 3953 O 369.337 2.58164 0.840465 0
M  V30 3954 C 367.793 3.18518 -1.67555 0
M  V30 3955 C 367.401 3.14919 -3.18637 0
M  V30 3956 C 369.145 3.95424 -1.54402 0
M  V30 3957 C 367.052 4.51081 -3.82466 0
M  V30 3958 H 365.982 0.664116 -0.357023 0
M  V30 3959 H 368.633 1.17303 -1.4111 0
M  V30 3960 H 367.015 3.78748 -1.15613 0
M  V30 3961 H 368.189 2.64178 -3.77554 0
M  V30 3962 H 366.504 2.51512 -3.31859 0
M  V30 3963 H 369.101 4.96106 -1.99456 0
M  V30 3964 H 369.444 4.13343 -0.495329 0
M  V30 3965 H 369.977 3.41754 -2.0359 0
M  V30 3966 H 366.716 4.38368 -4.87354 0
M  V30 3967 H 366.236 5.01951 -3.28337 0
M  V30 3968 H 367.915 5.2001 -3.84965 0
M  V30 3969 N 368.047 0.979072 1.23499 0
M  V30 3970 C 368.977 0.537606 2.27227 0
M  V30 3971 C 369.958 -0.428539 1.64613 0
M  V30 3972 O 371.143 -0.322191 1.91509 0
M  V30 3973 C 368.273 -0.162052 3.46922 0
M  V30 3974 C 367.227 0.721242 4.21879 0
M  V30 3975 C 366.553 -0.110555 5.34586 0
M  V30 3976 C 367.853 2.01141 4.82016 0
M  V30 3977 H 369.547 1.40462 2.64406 0
M  V30 3978 H 367.093 0.67684 1.27102 0
M  V30 3979 H 369.046 -0.482192 4.18632 0
M  V30 3980 H 367.77 -1.06351 3.08799 0
M  V30 3981 H 366.429 1.02482 3.51984 0
M  V30 3982 H 366.077 -1.0125 4.92704 0
M  V30 3983 H 365.777 0.477325 5.85658 0
M  V30 3984 H 367.301 -0.425107 6.09118 0
M  V30 3985 H 368.715 1.75612 5.45741 0
M  V30 3986 H 367.112 2.54695 5.43369 0
M  V30 3987 H 368.182 2.69909 4.02836 0
M  V30 3988 N 369.525 -1.3858 0.750561 0
M  V30 3989 C 370.488 -2.28836 0.129152 0
M  V30 3990 C 371.488 -1.47045 -0.650714 0
M  V30 3991 O 372.678 -1.6753 -0.477428 0
M  V30 3992 C 369.81 -3.30751 -0.825622 0
M  V30 3993 H 371.003 -2.85294 0.924516 0
M  V30 3994 H 368.556 -1.47489 0.517376 0
M  V30 3995 H 369.291 -2.79378 -1.64677 0
M  V30 3996 H 369.076 -3.91177 -0.268852 0
M  V30 3997 H 370.566 -3.98249 -1.2565 0
M  V30 3998 N 371.003 -0.499398 -1.49478 0
M  V30 3999 C 371.933 0.269244 -2.31943 0
M  V30 4000 C 372.914 0.964054 -1.40143 0
M  V30 4001 O 374.099 0.955767 -1.69052 0
M  V30 4002 C 371.229 1.33504 -3.20615 0
M  V30 4003 C 370.183 0.760202 -4.21195 0
M  V30 4004 C 369.509 1.9264 -4.98792 0
M  V30 4005 C 370.809 -0.247661 -5.21712 0
M  V30 4006 H 372.503 -0.419082 -2.96452 0
M  V30 4007 H 370.049 -0.202988 -1.42562 0
M  V30 4008 H 372.002 1.88048 -3.77115 0
M  V30 4009 H 370.726 2.05253 -2.54045 0
M  V30 4010 H 369.385 0.23653 -3.65836 0
M  V30 4011 H 369.033 2.63154 -4.28671 0
M  V30 4012 H 368.733 1.54785 -5.66847 0
M  V30 4013 H 370.257 2.4762 -5.58137 0
M  V30 4014 H 371.671 0.209579 -5.72917 0
M  V30 4015 H 370.068 -0.541962 -5.97648 0
M  V30 4016 H 371.138 -1.16409 -4.7072 0
M  V30 4017 N 372.481 1.55866 -0.233164 0
M  V30 4018 C 373.728 1.98603 0.395374 0
M  V30 4019 C 374.056 1.12105 1.58942 0
M  V30 4020 O 373.311 0.168656 1.94972 0
M  V30 4021 C 373.61 3.46856 0.861724 0
M  V30 4022 C 373.276 4.50348 -0.223066 0
M  V30 4023 C 371.938 4.78371 -0.521038 0
M  V30 4024 C 374.29 5.12355 -0.956124 0
M  V30 4025 C 371.618 5.6568 -1.55638 0
M  V30 4026 C 373.97 6.00786 -1.98089 0
M  V30 4027 C 372.634 6.27148 -2.28565 0
M  V30 4028 H 371.904 0.726739 0.144677 0
M  V30 4029 H 374.551 1.88491 -0.338114 0
M  V30 4030 H 372.856 3.5423 1.67418 0
M  V30 4031 H 374.553 3.77302 1.35809 0
M  V30 4032 H 371.143 4.28596 0.0193234 0
M  V30 4033 H 375.327 4.90765 -0.739166 0
M  V30 4034 H 370.583 5.84365 -1.798 0
M  V30 4035 H 374.757 6.4788 -2.55391 0
M  V30 4036 H 372.384 6.94597 -3.08932 0
M  V30 4037 N 373.959 -0.0401083 1.57549 0
M  V30 4038 C 374.889 -1.04384 2.08869 0
M  V30 4039 C 375.87 -1.38407 0.988817 0
M  V30 4040 O 377.055 -1.47483 1.26342 0
M  V30 4041 C 374.185 -2.34808 2.55895 0
M  V30 4042 C 373.139 -2.15057 3.70047 0
M  V30 4043 C 372.465 -3.51145 4.03239 0
M  V30 4044 C 373.765 -1.54576 4.98902 0
M  V30 4045 H 375.459 -0.616666 2.92981 0
M  V30 4046 H 373.005 -0.295184 1.40942 0
M  V30 4047 H 374.958 -3.05346 2.90417 0
M  V30 4048 H 373.682 -2.79565 1.68853 0
M  V30 4049 H 372.341 -1.46954 3.35857 0
M  V30 4050 H 371.989 -3.93529 3.13279 0
M  V30 4051 H 371.689 -3.38758 4.80122 0
M  V30 4052 H 373.213 -4.23062 4.40285 0
M  V30 4053 H 374.627 -2.15017 5.31451 0
M  V30 4054 H 373.024 -1.52796 5.80322 0
M  V30 4055 H 374.094 -0.51039 4.82206 0
M  V30 4056 N 375.437 -1.54477 -0.31217 0
M  V30 4057 C 376.4 -1.83923 -1.36766 0
M  V30 4058 C 377.4 -0.711563 -1.44199 0
M  V30 4059 O 378.59 -0.979866 -1.44029 0
M  V30 4060 C 375.722 -2.0095 -2.75376 0
M  V30 4061 H 376.915 -2.78239 -1.11906 0
M  V30 4062 H 374.468 -1.46369 -0.548257 0
M  V30 4063 H 375.203 -1.08883 -3.05475 0
M  V30 4064 H 374.988 -2.83018 -2.71373 0
M  V30 4065 H 376.478 -2.2514 -3.51713 0
M  V30 4066 N 376.915 0.57481 -1.46744 0
M  V30 4067 C 377.865 1.67838 -1.54319 0
M  V30 4068 C 378.849 1.55759 -0.40346 0
M  V30 4069 O 380.041 1.6454 -0.652347 0
M  V30 4070 C 377.17 3.06624 -1.5439 0
M  V30 4071 C 376.256 3.23971 -2.73685 0
M  V30 4072 N 376.647 3.11447 -3.9854 0
M  V30 4073 C 374.945 3.5493 -2.70075 0
M  V30 4074 C 375.646 3.31011 -4.78337 0
M  V30 4075 N 374.622 3.56533 -4.10348 0
M  V30 4076 H 378.424 1.56698 -2.48642 0
M  V30 4077 H 375.938 0.779071 -1.42493 0
M  V30 4078 H 377.935 3.85839 -1.57905 0
M  V30 4079 H 376.595 3.1889 -0.611493 0
M  V30 4080 H 377.606 2.89145 -4.29669 0
M  V30 4081 H 374.283 3.73832 -1.85893 0
M  V30 4082 H 375.673 3.26445 -5.87268 0
M  V30 4083 N 378.394 1.34581 0.820102 0
M  V30 4084 C 379.624 1.29991 1.6058 0
M  V30 4085 C 380.032 -0.127588 1.88769 0
M  V30 4086 O 379.375 -1.08595 1.48165 0
M  V30 4087 C 379.437 2.02548 2.9701 0
M  V30 4088 C 379.101 3.51794 2.91701 0
M  V30 4089 C 380.098 4.46647 2.66087 0
M  V30 4090 C 377.783 3.94249 3.11245 0
M  V30 4091 C 379.777 5.81929 2.60071 0
M  V30 4092 C 377.464 5.2963 3.04853 0
M  V30 4093 C 378.462 6.23282 2.793 0
M  V30 4094 O 378.15 7.56181 2.72847 0
M  V30 4095 H 377.882 0.448539 0.505756 0
M  V30 4096 H 380.436 1.77811 1.02822 0
M  V30 4097 H 378.666 1.49345 3.56697 0
M  V30 4098 H 380.355 1.91211 3.58041 0
M  V30 4099 H 381.121 4.15168 2.5072 0
M  V30 4100 H 377 3.21749 3.30149 0
M  V30 4101 H 380.544 6.54999 2.40046 0
M  V30 4102 H 376.441 5.60727 3.19774 0
M  V30 4103 H 377.209 7.6595 2.88553 0
M  V30 4104 N 379.872 -1.04064 1.18357 0
M  V30 4105 C 381.121 -1.76662 0.973313 0
M  V30 4106 C 381.434 -1.89154 -0.497991 0
M  V30 4107 O 382.64 -2.58606 -0.826762 0
M  V30 4108 C 381.096 -3.17624 1.69242 0
M  V30 4109 C 380.704 -3.13225 3.20303 0
M  V30 4110 C 382.448 -3.946 1.56497 0
M  V30 4111 C 380.355 -4.49046 3.84853 0
M  V30 4112 H 379.285 -0.662214 0.36054 0
M  V30 4113 H 381.936 -1.16553 1.41731 0
M  V30 4114 H 380.318 -3.78129 1.1762 0
M  V30 4115 H 381.492 -2.62172 3.78949 0
M  V30 4116 H 379.807 -2.49749 3.33189 0
M  V30 4117 H 382.404 -4.95042 2.02084 0
M  V30 4118 H 382.747 -4.13074 0.517243 0
M  V30 4119 H 383.28 -3.4067 2.05399 0
M  V30 4120 H 380.019 -4.35777 4.89672 0
M  V30 4121 H 379.539 -5.00203 3.30994 0
M  V30 4122 H 381.218 -5.17961 3.87718 0
M  V30 4123 N 381.35 -0.985608 -1.22978 0
M  V30 4124 C 382.598 -0.656087 -1.91154 0
M  V30 4125 C 382.919 0.813561 -1.77218 0
M  V30 4126 O 382.189 1.58244 -1.1548 0
M  V30 4127 H 380.769 -0.239674 -0.707506 0
M  V30 4128 H 383.431 -1.25054 -1.49491 0
M  V30 4129 H 382.527 -0.912253 -2.9847 0
M  V30 4130 N 382.828 1.3818 -0.7579 0
M  V30 4131 C 384.056 2.04301 -0.326937 0
M  V30 4132 C 384.471 1.57163 1.0462 0
M  V30 4133 O 383.828 0.746626 1.66529 0
M  V30 4134 C 383.879 3.59846 -0.345363 0
M  V30 4135 O 383.6 4.05256 -1.66432 0
M  V30 4136 C 385.101 4.4319 0.098927 0
M  V30 4137 H 382.321 0.656443 -0.139012 0
M  V30 4138 H 384.865 1.76786 -1.02796 0
M  V30 4139 H 383.02 3.86182 0.306955 0
M  V30 4140 H 383.434 4.99709 -1.59345 0
M  V30 4141 H 384.908 5.51989 0.0348745 0
M  V30 4142 H 385.385 4.23947 1.14741 0
M  V30 4143 H 385.991 4.22051 -0.52468 0
M  V30 4144 N 384.306 0.507319 1.49211 0
M  V30 4145 C 385.531 -0.033725 2.07373 0
M  V30 4146 C 385.956 -1.29485 1.36437 0
M  V30 4147 O 385.314 -1.76294 0.423087 0
M  V30 4148 C 385.362 -0.263945 3.59633 0
M  V30 4149 O 384.466 -1.33737 3.90113 0
M  V30 4150 H 383.807 0.0290331 0.663365 0
M  V30 4151 H 386.337 0.708749 1.91932 0
M  V30 4152 H 386.347 -0.493536 4.05004 0
M  V30 4153 H 385.022 0.657424 4.10671 0
M  V30 4154 H 383.599 -1.09224 3.56545 0
M  V30 4155 N 385.784 -1.5574 0.241426 0
M  V30 4156 C 386.714 -2.24133 -0.654722 0
M  V30 4157 C 387.695 -1.21974 -1.1856 0
M  V30 4158 O 388.88 -1.50612 -1.22595 0
M  V30 4159 C 386.01 -2.93659 -1.85423 0
M  V30 4160 C 384.964 -4.0246 -1.45636 0
M  V30 4161 C 384.29 -4.59383 -2.73626 0
M  V30 4162 C 385.59 -5.18468 -0.631506 0
M  V30 4163 H 387.284 -2.99281 -0.0844353 0
M  V30 4164 H 384.83 -1.43947 -0.0391707 0
M  V30 4165 H 386.783 -3.40203 -2.48676 0
M  V30 4166 H 385.507 -2.15991 -2.44981 0
M  V30 4167 H 384.166 -3.56676 -0.847202 0
M  V30 4168 H 383.814 -3.78422 -3.3137 0
M  V30 4169 H 383.514 -5.32826 -2.4773 0
M  V30 4170 H 385.038 -5.08658 -3.37786 0
M  V30 4171 H 386.452 -5.61272 -1.1682 0
M  V30 4172 H 384.849 -5.98266 -0.468831 0
M  V30 4173 H 385.919 -4.8358 0.357506 0
M  V30 4174 N 387.262 0.0317525 -1.57568 0
M  V30 4175 C 388.49 0.734949 -1.93407 0
M  V30 4176 C 388.905 1.69036 -0.84096 0
M  V30 4177 O 388.262 1.81582 0.182836 0
M  V30 4178 C 388.313 1.49432 -3.29169 0
M  V30 4179 O 388.034 0.577261 -4.3428 0
M  V30 4180 C 389.535 2.29492 -3.79273 0
M  V30 4181 H 386.755 0.206706 -0.638368 0
M  V30 4182 H 389.299 -0.00992046 -2.04498 0
M  V30 4183 H 387.454 2.1911 -3.19483 0
M  V30 4184 H 387.868 1.10952 -5.1263 0
M  V30 4185 H 389.342 2.78172 -4.76785 0
M  V30 4186 H 389.819 3.10794 -3.10328 0
M  V30 4187 H 390.425 1.64894 -3.92033 0
M  V30 4188 N 388.74 1.54641 0.303973 0
M  V30 4189 C 389.672 1.81754 1.39636 0
M  V30 4190 C 390.685 0.70035 1.46966 0
M  V30 4191 O 391.874 0.97778 1.49338 0
M  V30 4192 C 388.974 1.93785 2.7803 0
M  V30 4193 C 388.147 3.24156 2.93669 0
M  V30 4194 C 387.206 3.26641 4.12544 0
M  V30 4195 O 386.232 4.00187 4.04771 0
M  V30 4196 N 387.434 2.5182 5.23036 0
M  V30 4197 H 390.199 2.76031 1.16734 0
M  V30 4198 H 387.76 1.54178 0.494033 0
M  V30 4199 H 389.752 1.92852 3.55795 0
M  V30 4200 H 388.322 1.06515 2.93893 0
M  V30 4201 H 387.542 3.37887 2.03042 0
M  V30 4202 H 388.83 4.10195 3.01027 0
M  V30 4203 H 388.228 1.91692 5.32232 0
M  V30 4204 H 386.785 2.56644 5.99147 0
M  V30 4205 N 390.218 -0.567019 1.47046 0
M  V30 4206 C 391.165 -1.67489 1.58796 0
M  V30 4207 C 392.135 -1.60399 0.43144 0
M  V30 4208 O 393.32 -1.79378 0.650233 0
M  V30 4209 C 390.46 -3.05821 1.59899 0
M  V30 4210 C 389.573 -3.2342 2.86397 0
M  V30 4211 C 388.708 -4.52093 2.789 0
M  V30 4212 C 387.747 -4.6309 4.00267 0
M  V30 4213 N 386.884 -5.83106 3.91064 0
M  V30 4214 H 391.724 -1.56785 2.53422 0
M  V30 4215 H 389.261 -0.763896 1.2571 0
M  V30 4216 H 391.219 -3.8591 1.58522 0
M  V30 4217 H 389.849 -3.15384 0.687929 0
M  V30 4218 H 388.901 -2.3683 2.97684 0
M  V30 4219 H 390.213 -3.27412 3.76301 0
M  V30 4220 H 389.367 -5.4043 2.75718 0
M  V30 4221 H 388.106 -4.50565 1.86662 0
M  V30 4222 H 387.111 -3.73168 4.03765 0
M  V30 4223 H 388.336 -4.66386 4.93621 0
M  V30 4224 H 386.282 -5.82546 3.01623 0
M  V30 4225 H 386.199 -5.88434 4.74638 0
M  V30 4226 H 387.467 -6.73831 3.91882 0
M  V30 4227 N 391.696 -1.35014 -0.812953 0
M  V30 4228 C 392.942 -1.2812 -1.57204 0
M  V30 4229 C 393.275 0.145869 -1.93651 0
M  V30 4230 O 392.55 1.0937 -1.60836 0
M  V30 4231 C 392.833 -2.18162 -2.86492 0
M  V30 4232 C 392.686 -3.69454 -2.56561 0
M  V30 4233 C 394.005 -2.07439 -3.88145 0
M  V30 4234 H 391.124 -0.466746 -0.570366 0
M  V30 4235 H 393.766 -1.65357 -0.935783 0
M  V30 4236 H 391.916 -1.86535 -3.40789 0
M  V30 4237 H 393.588 -4.11493 -2.08497 0
M  V30 4238 H 391.831 -3.9005 -1.89851 0
M  V30 4239 H 392.502 -4.27835 -3.48799 0
M  V30 4240 H 394.978 -2.35228 -3.4323 0
M  V30 4241 H 393.854 -2.7265 -4.76396 0
M  V30 4242 H 394.115 -1.05439 -4.29343 0
M  V30 4243 N 393.175 1.03435 -1.18907 0
M  V30 4244 C 394.421 1.77005 -0.989798 0
M  V30 4245 C 394.754 1.88205 0.478816 0
M  V30 4246 O 394.029 1.39481 1.35556 0
M  V30 4247 C 394.312 3.19925 -1.65287 0
M  V30 4248 C 394.165 3.1663 -3.19477 0
M  V30 4249 C 395.484 4.18189 -1.37134 0
M  V30 4250 H 392.603 0.642538 -0.360991 0
M  V30 4251 H 395.245 1.20784 -1.46667 0
M  V30 4252 H 393.395 3.67929 -1.24741 0
M  V30 4253 H 395.067 2.76567 -3.692 0
M  V30 4254 H 393.31 2.54491 -3.51307 0
M  V30 4255 H 393.981 4.1758 -3.61013 0
M  V30 4256 H 396.457 3.78761 -1.72276 0
M  V30 4257 H 395.333 5.16394 -1.86087 0
M  V30 4258 H 395.594 4.41112 -0.295424 0
M  V30 4259 N 394.653 0.992116 1.22453 0
M  V30 4260 C 395.902 0.662992 1.90492 0
M  V30 4261 C 396.215 -0.808407 1.78113 0
M  V30 4262 O 397.421 -1.24908 2.41061 0
M  V30 4263 C 395.877 1.1353 3.41524 0
M  V30 4264 C 395.485 2.63187 3.62542 0
M  V30 4265 C 397.229 0.880465 4.15269 0
M  V30 4266 C 395.136 3.04024 5.0727 0
M  V30 4267 H 394.066 0.244278 0.713333 0
M  V30 4268 H 396.717 1.20157 1.38688 0
M  V30 4269 H 395.099 0.52485 3.92506 0
M  V30 4270 H 396.273 3.2957 3.22056 0
M  V30 4271 H 394.588 2.86543 3.02129 0
M  V30 4272 H 397.185 1.16128 5.21937 0
M  V30 4273 H 397.528 -0.183408 4.15896 0
M  V30 4274 H 398.061 1.45307 3.70312 0
M  V30 4275 H 394.8 4.09584 5.11782 0
M  V30 4276 H 394.32 2.42343 5.48662 0
M  V30 4277 H 395.999 2.95282 5.75689 0
M  V30 4278 N 396.131 -1.37776 0.765217 0
M  V30 4279 C 397.378 -1.99849 0.326588 0
M  V30 4280 C 397.706 -1.60746 -1.09504 0
M  V30 4281 O 396.961 -0.84202 -1.76659 0
M  V30 4282 C 397.26 -3.5504 0.410053 0
M  V30 4283 C 396.926 -4.13891 1.78899 0
M  V30 4284 C 395.588 -4.29678 2.16635 0
M  V30 4285 C 397.94 -4.46236 2.69301 0
M  V30 4286 C 395.268 -4.7511 3.44221 0
M  V30 4287 C 397.62 -4.93089 3.9629 0
M  V30 4288 C 396.284 -5.07082 4.34078 0
M  V30 4289 H 395.554 -0.7313 0.119507 0
M  V30 4290 H 398.201 -1.64645 0.977968 0
M  V30 4291 H 396.506 -3.90451 -0.324878 0
M  V30 4292 H 398.203 -4.00966 0.0520699 0
M  V30 4293 H 394.793 -4.02026 1.48569 0
M  V30 4294 H 398.977 -4.3363 2.41409 0
M  V30 4295 H 394.233 -4.84129 3.73402 0
M  V30 4296 H 398.407 -5.17084 4.66472 0
M  V30 4297 H 396.034 -5.42046 5.33001 0
M  V30 4298 N 397.609 -0.515225 -1.4894 0
M  V30 4299 C 398.858 0.0261361 -2.01683 0
M  V30 4300 C 399.171 1.36719 -1.39883 0
M  V30 4301 O 400.377 1.99606 -1.84037 0
M  V30 4302 C 398.833 0.0970111 -3.59769 0
M  V30 4303 C 398.441 -1.23825 -4.30548 0
M  V30 4304 C 400.185 0.587981 -4.20408 0
M  V30 4305 C 398.092 -1.12877 -5.80528 0
M  V30 4306 H 397.022 0.0135398 -0.753878 0
M  V30 4307 H 399.673 -0.656787 -1.71343 0
M  V30 4308 H 398.055 0.844694 -3.86886 0
M  V30 4309 H 399.229 -2.00034 -4.15118 0
M  V30 4310 H 397.544 -1.66379 -3.81716 0
M  V30 4311 H 400.141 0.68763 -5.3026 0
M  V30 4312 H 400.484 1.59026 -3.84729 0
M  V30 4313 H 401.017 -0.103582 -3.97665 0
M  V30 4314 H 397.756 -2.10575 -6.20756 0
M  V30 4315 H 397.276 -0.407799 -5.98412 0
M  V30 4316 H 398.955 -0.813332 -6.41868 0
M  V30 4317 N 399.087 1.5561 -0.249682 0
M  V30 4318 C 400.017 2.24477 0.642826 0
M  V30 4319 C 400.998 1.22601 1.17911 0
M  V30 4320 O 402.183 1.5126 1.21795 0
M  V30 4321 C 399.313 2.94638 1.83863 0
M  V30 4322 C 398.267 4.03227 1.435 0
M  V30 4323 C 397.593 4.60828 2.71186 0
M  V30 4324 C 398.893 5.18796 0.604002 0
M  V30 4325 H 400.587 2.99321 0.0685625 0
M  V30 4326 H 398.133 1.43965 0.0315363 0
M  V30 4327 H 400.086 3.41517 2.46868 0
M  V30 4328 H 398.81 2.17287 2.43832 0
M  V30 4329 H 397.469 3.57121 0.828275 0
M  V30 4330 H 397.117 3.80174 3.29358 0
M  V30 4331 H 396.817 5.34132 2.44901 0
M  V30 4332 H 398.341 5.10442 3.35084 0
M  V30 4333 H 399.755 5.61883 1.13842 0
M  V30 4334 H 398.152 5.98506 0.437097 0
M  V30 4335 H 399.222 4.83384 -0.383147 0
M  V30 4336 N 400.565 -0.0233959 1.57583 0
M  V30 4337 C 401.495 -1.02162 2.09965 0
M  V30 4338 C 402.476 -1.3735 1.00344 0
M  V30 4339 O 403.661 -1.46135 1.27899 0
M  V30 4340 C 400.791 -2.32081 2.58371 0
M  V30 4341 C 399.745 -2.1112 3.72307 0
M  V30 4342 C 399.071 -3.46848 4.06941 0
M  V30 4343 C 400.371 -1.49276 5.00514 0
M  V30 4344 H 402.065 -0.585557 2.93618 0
M  V30 4345 H 399.611 -0.280218 1.41247 0
M  V30 4346 H 401.564 -3.02249 2.93639 0
M  V30 4347 H 400.288 -2.77758 1.71808 0
M  V30 4348 H 398.947 -1.43384 3.37397 0
M  V30 4349 H 398.595 -3.90184 3.17436 0
M  V30 4350 H 398.295 -3.33646 4.83688 0
M  V30 4351 H 399.819 -4.18369 4.44747 0
M  V30 4352 H 401.233 -2.09368 5.33702 0
M  V30 4353 H 399.63 -1.46632 5.8191 0
M  V30 4354 H 400.7 -0.459217 4.82721 0
M  V30 4355 N 402.043 -1.548 -0.295768 0
M  V30 4356 C 402.976 -1.81003 -1.38972 0
M  V30 4357 C 403.954 -0.661544 -1.48534 0
M  V30 4358 O 405.138 -0.902074 -1.65514 0
M  V30 4359 C 402.265 -1.95141 -2.76835 0
M  V30 4360 C 401.311 -3.17592 -2.84671 0
M  V30 4361 S 402.144 -4.75531 -2.46232 0
M  V30 4362 C 403.3 -4.92613 -3.86114 0
M  V30 4363 H 403.533 -2.73507 -1.16537 0
M  V30 4364 H 401.066 -1.46278 -0.494168 0
M  V30 4365 H 403.024 -2.03972 -3.56238 0
M  V30 4366 H 401.685 -1.03565 -2.96535 0
M  V30 4367 H 400.878 -3.24303 -3.85803 0
M  V30 4368 H 400.48 -3.07235 -2.13267 0
M  V30 4369 H 402.772 -4.76957 -4.81164 0
M  V30 4370 H 403.715 -5.94698 -3.8437 0
M  V30 4371 H 404.123 -4.2073 -3.76359 0
M  V30 4372 N 403.521 0.559213 -1.47345 0
M  V30 4373 C 404.451 1.67622 -1.62558 0
M  V30 4374 C 405.432 1.63331 -0.475087 0
M  V30 4375 O 406.617 1.80983 -0.704182 0
M  V30 4376 C 403.747 3.0626 -1.63774 0
M  V30 4377 C 402.701 3.25397 -2.7803 0
M  V30 4378 C 402.027 4.64801 -2.64318 0
M  V30 4379 C 403.327 3.10965 -4.19641 0
M  V30 4380 H 405.021 1.55146 -2.56067 0
M  V30 4381 H 402.567 0.744961 -1.23233 0
M  V30 4382 H 404.52 3.84247 -1.73008 0
M  V30 4383 H 403.244 3.1969 -0.66825 0
M  V30 4384 H 401.903 2.49817 -2.68304 0
M  V30 4385 H 401.551 4.75028 -1.65401 0
M  V30 4386 H 401.251 4.78555 -3.40968 0
M  V30 4387 H 402.775 5.44926 -2.75478 0
M  V30 4388 H 404.189 3.78772 -4.30354 0
M  V30 4389 H 402.586 3.36229 -4.97062 0
M  V30 4390 H 403.656 2.07736 -4.38148 0
M  V30 4391 N 404.999 1.35443 0.805782 0
M  V30 4392 C 406.245 1.28952 1.56522 0
M  V30 4393 C 406.578 -0.135597 1.93726 0
M  V30 4394 O 405.853 -1.08516 1.61414 0
M  V30 4395 C 406.136 2.19678 2.85331 0
M  V30 4396 C 405.989 3.7081 2.54598 0
M  V30 4397 C 407.308 2.09495 3.8704 0
M  V30 4398 H 404.427 0.469764 0.567883 0
M  V30 4399 H 407.069 1.65851 0.927001 0
M  V30 4400 H 405.219 1.8834 3.39795 0
M  V30 4401 H 406.891 4.12593 2.06312 0
M  V30 4402 H 405.134 3.91051 1.8778 0
M  V30 4403 H 405.805 4.29679 3.46525 0
M  V30 4404 H 408.281 2.37045 3.41978 0
M  V30 4405 H 407.157 2.75173 4.74943 0
M  V30 4406 H 407.418 1.07714 4.28777 0
M  V30 4407 N 406.477 -1.02803 1.19454 0
M  V30 4408 C 407.705 -1.79841 1.02297 0
M  V30 4409 C 408.12 -1.83879 -0.428259 0
M  V30 4410 O 407.477 -1.28345 -1.29745 0
M  V30 4411 C 407.528 -3.24852 1.58598 0
M  V30 4412 O 407.249 -3.21097 2.98041 0
M  V30 4413 C 408.75 -4.18485 1.46236 0
M  V30 4414 H 405.97 -0.565936 0.360496 0
M  V30 4415 H 408.514 -1.2948 1.58288 0
M  V30 4416 H 406.669 -3.72401 1.06753 0
M  V30 4417 H 407.083 -4.12033 3.24545 0
M  V30 4418 H 408.557 -5.18121 1.90407 0
M  V30 4419 H 409.034 -4.37254 0.41301 0
M  V30 4420 H 409.64 -3.76811 1.97215 0
M  V30 4421 N 407.956 -0.998596 -1.21925 0
M  V30 4422 C 409.367 -0.711939 -1.72593 0
M  V30 4423 C 409.718 0.770842 -1.80423 0
M  V30 4424 O 408.843 1.60237 -1.4544 0
M  V30 4425 C 409.438 -1.28567 -3.13458 0
M  V30 4426 C 407.997 -1.04828 -3.61508 0
M  V30 4427 C 407.144 -1.4024 -2.39224 0
M  V30 4428 H 410.095 -1.17027 -1.07193 0
M  V30 4429 H 410.116 -0.667098 -3.74607 0
M  V30 4430 H 409.628 -2.36486 -3.07727 0
M  V30 4431 H 407.729 0.0140383 -3.72597 0
M  V30 4432 H 407.842 -1.71566 -4.47328 0
M  V30 4433 H 406.206 -0.821077 -2.41103 0
M  V30 4434 H 406.989 -2.49176 -2.36149 0
M  V30 4435 N 409.434 1.37368 -0.772513 0
M  V30 4436 C 410.659 2.0447 -0.347386 0
M  V30 4437 C 411.084 1.57882 1.0225 0
M  V30 4438 O 410.442 0.73941 1.65537 0
M  V30 4439 C 410.49 3.58369 -0.400479 0
M  V30 4440 O 409.594 4.0803 0.598789 0
M  V30 4441 H 408.935 0.646773 -0.15027 0
M  V30 4442 H 411.465 1.75667 -1.04892 0
M  V30 4443 H 411.475 4.07183 -0.258045 0
M  V30 4444 H 410.15 3.91633 -1.39986 0
M  V30 4445 H 408.727 3.70534 0.419411 0
M  V30 4446 N 410.912 0.523116 1.48665 0
M  V30 4447 C 411.845 -0.290518 2.26343 0
M  V30 4448 C 412.823 -0.950913 1.31895 0
M  V30 4449 O 414.007 -0.976662 1.61225 0
M  V30 4450 C 411.134 -1.41088 3.07915 0
M  V30 4451 C 410.18 -0.862597 4.17686 0
M  V30 4452 S 411.013 0.264135 5.34848 0
M  V30 4453 C 412.169 -0.858864 6.19979 0
M  V30 4454 H 412.402 0.368726 2.95005 0
M  V30 4455 H 409.935 0.30878 1.51281 0
M  V30 4456 H 411.893 -2.0527 3.55492 0
M  V30 4457 H 410.554 -2.04182 2.38681 0
M  V30 4458 H 409.747 -1.70287 4.74361 0
M  V30 4459 H 409.349 -0.297595 3.72814 0
M  V30 4460 H 411.641 -1.7591 6.54264 0
M  V30 4461 H 412.584 -0.330244 7.07329 0
M  V30 4462 H 412.992 -1.13617 5.52948 0
M  V30 4463 N 412.39 -1.55475 0.257931 0
M  V30 4464 C 413.618 -2.03609 -0.367559 0
M  V30 4465 C 414.033 -1.13687 -1.50734 0
M  V30 4466 O 413.39 -0.153479 -1.81853 0
M  V30 4467 C 413.441 -3.51001 -0.864908 0
M  V30 4468 O 413.162 -4.37499 0.229465 0
M  V30 4469 C 414.663 -4.14946 -1.55997 0
M  V30 4470 H 411.883 -0.665459 -0.0860521 0
M  V30 4471 H 414.427 -2.00843 0.385014 0
M  V30 4472 H 412.582 -3.54266 -1.56762 0
M  V30 4473 H 412.996 -5.24286 -0.14998 0
M  V30 4474 H 414.47 -5.19735 -1.85956 0
M  V30 4475 H 414.947 -3.6209 -2.4857 0
M  V30 4476 H 415.553 -4.15635 -0.901543 0
M  V30 4477 N 413.868 0.0150385 -1.57593 0
M  V30 4478 C 414.801 1.04475 -2.0288 0
M  V30 4479 C 415.779 1.3436 -0.915764 0
M  V30 4480 O 416.963 1.46779 -1.18271 0
M  V30 4481 C 414.09 2.37608 -2.41371 0
M  V30 4482 C 413.136 2.23487 -3.63257 0
M  V30 4483 S 413.969 1.57505 -5.11813 0
M  V30 4484 C 415.125 2.921 -5.5356 0
M  V30 4485 H 415.358 0.65907 -2.89903 0
M  V30 4486 H 412.891 0.225452 -1.52745 0
M  V30 4487 H 414.849 3.14165 -2.64217 0
M  V30 4488 H 413.51 2.7332 -1.54775 0
M  V30 4489 H 412.703 3.21802 -3.87891 0
M  V30 4490 H 412.305 1.55074 -3.40335 0
M  V30 4491 H 414.597 3.88419 -5.55101 0
M  V30 4492 H 415.54 2.72184 -6.53698 0
M  V30 4493 H 415.948 2.95318 -4.8109 0
M  V30 4494 N 415.346 1.54954 0.287554 0
M  V30 4495 C 416.762 1.46469 0.633964 0
M  V30 4496 C 416.962 0.666865 1.90145 0
M  V30 4497 O 416.018 0.179906 2.51858 0
M  V30 4498 C 417.331 2.90556 0.774454 0
M  V30 4499 C 418.879 3.00681 0.869462 0
M  V30 4500 C 419.354 4.45993 1.04184 0
M  V30 4501 N 420.845 4.4976 1.10772 0
M  V30 4502 C 421.58 5.59393 1.25964 0
M  V30 4503 N 421.076 6.78923 1.37968 0
M  V30 4504 N 422.869 5.47107 1.28959 0
M  V30 4505 H 415.02 2.05288 -0.545041 0
M  V30 4506 H 417.283 0.930305 -0.182308 0
M  V30 4507 H 416.989 3.51594 -0.086207 0
M  V30 4508 H 416.863 3.38743 1.6593 0
M  V30 4509 H 419.25 2.39749 1.7206 0
M  V30 4510 H 419.331 2.55769 -0.0396831 0
M  V30 4511 H 418.975 5.07524 0.195422 0
M  V30 4512 H 418.905 4.88548 1.96542 0
M  V30 4513 H 421.396 3.63651 1.02794 0
M  V30 4514 H 421.709 7.58231 1.49353 0
M  V30 4515 H 420.054 6.81763 1.34999 0
M  V30 4516 H 423.245 4.52668 1.19202 0
M  V30 4517 H 423.418 6.32595 1.40455 0
M  V30 4518 N 416.824 -0.551391 1.4764 0
M  V30 4519 C 418.064 -1.31901 1.56145 0
M  V30 4520 C 418.428 -1.90724 0.221013 0
M  V30 4521 O 419.629 -2.6819 0.180945 0
M  V30 4522 C 417.9 -2.39517 2.65267 0
M  V30 4523 S 419.459 -3.26289 2.93395 0
M  V30 4524 H 416.277 -0.448965 0.551318 0
M  V30 4525 H 418.879 -0.630599 1.85051 0
M  V30 4526 H 417.583 -1.94747 3.6125 0
M  V30 4527 H 417.114 -3.13092 2.38195 0
M  V30 4528 H 419.129 -4.39122 2.31055 0
M  V30 4529 N 418.302 -1.35869 -0.798587 0
M  V30 4530 C 419.548 -1.2978 -1.55836 0
M  V30 4531 C 419.881 0.125322 -1.93795 0
M  V30 4532 O 419.156 1.07658 -1.61987 0
M  V30 4533 C 419.439 -2.21188 -2.84162 0
M  V30 4534 C 419.292 -3.72155 -2.52628 0
M  V30 4535 C 420.611 -2.11545 -3.85923 0
M  V30 4536 H 417.73 -0.472769 -0.565383 0
M  V30 4537 H 420.372 -1.66341 -0.918192 0
M  V30 4538 H 418.522 -1.90139 -3.38791 0
M  V30 4539 H 420.194 -4.13682 -2.04121 0
M  V30 4540 H 418.437 -3.92042 -1.85704 0
M  V30 4541 H 419.108 -4.31511 -3.44242 0
M  V30 4542 H 421.584 -2.38855 -3.40716 0
M  V30 4543 H 420.46 -2.77688 -4.73477 0
M  V30 4544 H 420.721 -1.09987 -4.282 0
M  V30 4545 N 419.78 1.02168 -1.19998 0
M  V30 4546 C 421.028 1.75338 -1.00504 0
M  V30 4547 C 421.349 1.89387 0.464506 0
M  V30 4548 O 420.619 1.43268 1.33608 0
M  V30 4549 H 419.199 0.649564 -0.368885 0
M  V30 4550 H 421.861 1.23205 -1.51018 0
M  V30 4551 H 420.957 2.75892 -1.45912 0
M  V30 4552 N 421.258 1.00505 1.21394 0
M  V30 4553 C 422.504 0.688793 1.90745 0
M  V30 4554 C 422.837 -0.778486 1.77914 0
M  V30 4555 O 422.112 -1.56433 1.15581 0
M  V30 4556 C 422.395 1.11063 3.42545 0
M  V30 4557 C 422.248 2.63737 3.64367 0
M  V30 4558 C 423.567 0.673059 4.34923 0
M  V30 4559 H 420.686 0.251702 0.692687 0
M  V30 4560 H 423.328 1.25074 1.43026 0
M  V30 4561 H 421.478 0.632508 3.83317 0
M  V30 4562 H 423.15 3.19313 3.32922 0
M  V30 4563 H 421.393 3.05248 3.08231 0
M  V30 4564 H 422.064 2.88305 4.70727 0
M  V30 4565 H 424.54 1.08392 4.01734 0
M  V30 4566 H 423.416 0.996383 5.39781 0
M  V30 4567 H 423.677 -0.425808 4.40045 0
M  V30 4568 N 422.737 -1.36956 0.779787 0
M  V30 4569 C 423.985 -1.99097 0.347079 0
M  V30 4570 C 424.306 -1.62206 -1.08232 0
M  V30 4571 O 423.576 -0.891373 -1.74446 0
M  V30 4572 H 422.156 -0.736409 0.125342 0
M  V30 4573 H 424.818 -1.67308 0.999696 0
M  V30 4574 H 423.914 -3.09107 0.431162 0
M  V30 4575 N 424.215 -0.530993 -1.48385 0
M  V30 4576 C 425.163 0.244595 -2.3131 0
M  V30 4577 C 426.157 0.93451 -1.41291 0
M  V30 4578 O 427.363 0.85878 -1.58193 0
M  V30 4579 H 423.738 0.0977472 -0.74562 0
M  V30 4580 H 425.709 -0.474369 -2.94605 0
M  V30 4581 C 424.458 1.2779 -3.23365 0
M  V30 4582 H 423.781 0.756439 -3.92579 0
M  V30 4583 H 425.221 1.79198 -3.84271 0
M  V30 4584 C 423.68 2.31205 -2.45042 0
M  V30 4585 O 424.21 3.37661 -2.17596 0
M  V30 4586 N 422.416 2.04446 -2.0652 0
M  V30 4587 H 421.963 1.17891 -2.2904 0
M  V30 4588 H 421.921 2.73861 -1.54427 0
M  V30 4589 N 425.693 1.55336 -0.266172 0
M  V30 4590 C 427.109 1.59356 0.0882065 0
M  V30 4591 C 427.309 1.2834 1.55342 0
M  V30 4592 O 426.365 1.03996 2.30089 0
M  V30 4593 C 427.678 2.99409 -0.278364 0
M  V30 4594 C 429.226 3.12196 -0.224243 0
M  V30 4595 C 429.701 4.545 -0.565123 0
M  V30 4596 N 431.192 4.60313 -0.51634 0
M  V30 4597 C 431.927 5.68434 -0.753013 0
M  V30 4598 N 431.423 6.84738 -1.05383 0
M  V30 4599 N 433.216 5.57942 -0.682414 0
M  V30 4600 H 425.367 1.73764 -1.22147 0
M  V30 4601 H 427.63 0.809822 -0.492841 0
M  V30 4602 H 427.336 3.2691 -1.29703 0
M  V30 4603 H 427.21 3.75228 0.385186 0
M  V30 4604 H 429.597 2.84464 0.78512 0
M  V30 4605 H 429.678 2.38609 -0.921922 0
M  V30 4606 H 429.322 4.82956 -1.57213 0
M  V30 4607 H 429.252 5.26374 0.154248 0
M  V30 4608 H 431.743 3.7676 -0.29335 0
M  V30 4609 H 432.056 7.63088 -1.22133 0
M  V30 4610 H 430.401 6.86375 -1.09151 0
M  V30 4611 H 433.592 4.65958 -0.44731 0
M  V30 4612 H 433.765 6.4213 -0.870248 0
M  V30 4613 N 427.171 -0.0066808 1.57599 0
M  V30 4614 C 428.448 -0.729586 1.81484 0
M  V30 4615 C 428.828 -1.92359 0.869558 0
M  V30 4616 O 428.176 -2.28348 -0.0832533 0
M  V30 4617 C 428.386 -1.1416 3.29801 0
M  V30 4618 C 429.734 -1.54823 3.95367 0
M  V30 4619 O 430.758 -1.23558 3.34084 0
M  V30 4620 O 429.617 -2.12937 5.03309 0
M  V30 4621 H 426.711 -0.354674 0.747085 0
M  V30 4622 H 429.257 0.0182609 1.6969 0
M  V30 4623 H 428.029 -0.290231 3.90222 0
M  V30 4624 H 427.652 -1.94876 3.46568 0
M  V30 4625 N 428.649 -1.55105 -0.279332 0
M  V30 4626 C 429.896 -1.75412 -1.01177 0
M  V30 4627 C 430.224 -0.551728 -1.86511 0
M  V30 4628 O 429.479 0.465919 -1.90073 0
M  V30 4629 C 429.778 -3.0086 -1.92919 0
M  V30 4630 C 429.444 -4.33689 -1.23387 0
M  V30 4631 C 428.106 -4.69792 -1.04159 0
M  V30 4632 C 430.458 -5.15941 -0.738562 0
M  V30 4633 C 427.786 -5.85707 -0.341166 0
M  V30 4634 C 430.138 -6.32579 -0.0517636 0
M  V30 4635 C 428.802 -6.67326 0.152292 0
M  V30 4636 H 428.072 -0.641879 -0.370233 0
M  V30 4637 H 430.719 -1.89373 -0.284627 0
M  V30 4638 H 429.024 -2.81773 -2.72234 0
M  V30 4639 H 430.721 -3.13768 -2.49701 0
M  V30 4640 H 427.311 -4.05309 -1.39364 0
M  V30 4641 H 431.495 -4.8853 -0.874764 0
M  V30 4642 H 426.751 -6.11157 -0.172287 0
M  V30 4643 H 430.925 -6.9557 0.339828 0
M  V30 4644 H 428.552 -7.56998 0.697014 0
M  V30 4645 N 430.127 0.543554 -1.4793 0
M  V30 4646 C 431.373 1.30201 -1.55485 0
M  V30 4647 C 431.706 1.92925 -0.222201 0
M  V30 4648 O 430.981 1.78586 0.77053 0
M  V30 4649 C 431.264 2.40174 -2.68307 0
M  V30 4650 C 431.117 1.8223 -4.11233 0
M  V30 4651 C 432.436 3.42024 -2.76961 0
M  V30 4652 H 429.555 0.472036 -0.565996 0
M  V30 4653 H 432.197 0.606914 -1.80046 0
M  V30 4654 H 430.347 2.99463 -2.47495 0
M  V30 4655 H 432.019 1.27096 -4.43446 0
M  V30 4656 H 430.262 1.12832 -4.18869 0
M  V30 4657 H 430.933 2.61793 -4.85972 0
M  V30 4658 H 433.409 2.92672 -2.95774 0
M  V30 4659 H 432.285 4.16383 -3.57654 0
M  V30 4660 H 432.546 4.0173 -1.84568 0
M  V30 4661 N 431.605 1.3629 0.791371 0
M  V30 4662 C 432.515 1.32606 1.93527 0
M  V30 4663 C 433.531 0.228541 1.72493 0
M  V30 4664 O 434.707 0.460571 1.96063 0
M  V30 4665 C 431.772 1.11271 3.28359 0
M  V30 4666 C 430.833 2.3048 3.62185 0
M  V30 4667 C 430.066 2.10154 4.90583 0
M  V30 4668 O 430.289 1.07572 5.60165 0
M  V30 4669 O 429.223 2.97884 5.23019 0
M  V30 4670 H 433.049 2.28909 1.99585 0
M  V30 4671 H 430.634 1.16818 0.931344 0
M  V30 4672 H 432.516 1.01283 4.09047 0
M  V30 4673 H 431.191 0.180292 3.23198 0
M  V30 4674 H 430.098 2.46036 2.81811 0
M  V30 4675 H 431.431 3.22221 3.72068 0
M  V30 4676 N 433.083 -1.0153 1.20538 0
M  V30 4677 C 434.331 -1.74803 1.01432 0
M  V30 4678 C 434.652 -1.8963 -0.454456 0
M  V30 4679 O 433.922 -1.43975 -1.32846 0
M  V30 4680 H 432.502 -0.647598 0.372324 0
M  V30 4681 H 435.164 -1.22402 1.5167 0
M  V30 4682 H 434.26 -2.75114 1.47373 0
M  V30 4683 N 434.561 -1.01147 -1.20859 0
M  V30 4684 C 435.491 -0.597663 -2.25722 0
M  V30 4685 C 436.472 0.384744 -1.65692 0
M  V30 4686 O 437.657 0.271303 -1.92296 0
M  V30 4687 C 434.787 0.0700149 -3.47229 0
M  V30 4688 C 433.741 -0.832843 -4.19819 0
M  V30 4689 C 433.067 -0.0312202 -5.34691 0
M  V30 4690 C 434.367 -2.1385 -4.76514 0
M  V30 4691 H 436.061 -1.47423 -2.60589 0
M  V30 4692 H 433.607 -0.710301 -1.25263 0
M  V30 4693 H 435.56 0.37103 -4.19763 0
M  V30 4694 H 434.284 0.981259 -3.11511 0
M  V30 4695 H 432.943 -1.11778 -3.49144 0
M  V30 4696 H 432.591 0.881515 -4.95215 0
M  V30 4697 H 432.291 -0.632434 -5.84187 0
M  V30 4698 H 433.815 0.26346 -6.10031 0
M  V30 4699 H 435.229 -1.9002 -5.40893 0
M  V30 4700 H 433.626 -2.69012 -5.36426 0
M  V30 4701 H 434.696 -2.80495 -3.95538 0
M  V30 4702 N 436.039 1.36541 -0.78704 0
M  V30 4703 C 437.264 2.0409 -0.369053 0
M  V30 4704 C 437.689 1.58957 1.00569 0
M  V30 4705 O 437.047 0.756926 1.64743 0
M  V30 4706 C 437.095 3.57924 -0.438466 0
M  V30 4707 O 436.199 4.08642 0.555479 0
M  V30 4708 H 435.54 0.645142 -0.157122 0
M  V30 4709 H 438.07 1.74545 -1.06749 0
M  V30 4710 H 438.08 4.06887 -0.301218 0
M  V30 4711 H 436.755 3.90127 -1.44132 0
M  V30 4712 H 435.332 3.70958 0.380088 0
M  V30 4713 N 437.518 0.538854 1.48102 0
M  V30 4714 C 438.766 0.00798599 2.02098 0
M  V30 4715 C 439.087 -1.33922 1.41739 0
M  V30 4716 O 438.357 -1.86932 0.585934 0
M  V30 4717 H 436.937 -3.62179e-05 0.747 0
M  V30 4718 H 439.599 0.7047 1.81714 0
M  V30 4719 H 438.695 -0.0937672 3.11959 0
M  V30 4720 N 438.996 -1.55193 0.274407 0
M  V30 4721 C 439.959 -2.212 -0.600279 0
M  V30 4722 C 440.959 -1.18963 -1.08187 0
M  V30 4723 O 442.149 -1.43873 -0.982158 0
M  V30 4724 C 439.281 -2.87739 -1.82809 0
M  V30 4725 H 440.474 -2.9989 -0.0239682 0
M  V30 4726 H 438.027 -1.5628 0.0250192 0
M  V30 4727 H 438.762 -2.13058 -2.44493 0
M  V30 4728 H 438.547 -3.62658 -1.49069 0
M  V30 4729 H 440.037 -3.38171 -2.45011 0
M  V30 4730 N 440.474 -0.00167713 -1.576 0
M  V30 4731 C 441.702 0.693759 -1.94922 0
M  V30 4732 C 442.117 1.67215 -0.876626 0
M  V30 4733 O 441.474 1.81929 0.144279 0
M  V30 4734 C 441.525 1.42416 -3.32265 0
M  V30 4735 O 441.246 0.485014 -4.35407 0
M  V30 4736 C 442.747 2.21395 -3.84056 0
M  V30 4737 H 439.967 0.193118 -0.642609 0
M  V30 4738 H 442.511 -0.0532952 -2.04431 0
M  V30 4739 H 440.666 2.12284 -3.24059 0
M  V30 4740 H 441.08 1.00053 -5.14868 0
M  V30 4741 H 442.554 2.67996 -4.82578 0
M  V30 4742 H 443.031 3.04142 -3.16851 0
M  V30 4743 H 443.637 1.56542 -3.95443 0
M  V30 4744 N 441.952 1.55251 0.271103 0
M  V30 4745 C 443.198 1.7713 0.999832 0
M  V30 4746 C 443.553 0.56659 1.83868 0
M  V30 4747 O 442.846 -0.44069 1.86463 0
M  V30 4748 C 443.04 3.01879 1.91321 0
M  V30 4749 C 442.869 4.34368 1.16426 0
M  V30 4750 C 441.639 4.97593 0.879169 0
M  V30 4751 C 443.837 5.1131 0.553749 0
M  V30 4752 N 441.819 6.13813 0.103618 0
M  V30 4753 C 443.19 6.19938 -0.0875442 0
M  V30 4754 C 445.245 4.95754 0.461782 0
M  V30 4755 C 443.948 7.14703 -0.811942 0
M  V30 4756 C 445.974 5.90875 -0.249027 0
M  V30 4757 C 445.336 6.98893 -0.879051 0
M  V30 4758 H 441.435 0.700407 0.347784 0
M  V30 4759 H 444.019 1.92744 0.275314 0
M  V30 4760 H 442.19 2.87637 2.60997 0
M  V30 4761 H 443.922 3.12154 2.57569 0
M  V30 4762 H 440.677 4.58538 1.18491 0
M  V30 4763 H 441.101 6.76455 -0.271543 0
M  V30 4764 H 445.743 4.12342 0.934552 0
M  V30 4765 H 443.461 7.97634 -1.29639 0
M  V30 4766 H 447.047 5.80916 -0.320529 0
M  V30 4767 H 445.927 7.71231 -1.42031 0
M  V30 4768 N 443.43 -0.535701 1.48216 0
M  V30 4769 C 444.676 -1.29375 1.56173 0
M  V30 4770 C 445.009 -1.92804 0.232429 0
M  V30 4771 O 444.284 -1.78992 -0.761048 0
M  V30 4772 C 444.567 -2.38747 2.69577 0
M  V30 4773 C 444.42 -1.80046 4.12193 0
M  V30 4774 C 445.739 -3.40551 2.78771 0
M  V30 4775 H 442.858 -0.469027 0.568491 0
M  V30 4776 H 445.5 -0.597358 1.80365 0
M  V30 4777 H 443.65 -2.98147 2.4908 0
M  V30 4778 H 445.322 -1.24742 4.44114 0
M  V30 4779 H 443.565 -1.10609 4.19462 0
M  V30 4780 H 444.236 -2.59212 4.87353 0
M  V30 4781 H 446.712 -2.91099 2.97322 0
M  V30 4782 H 445.588 -4.1448 3.59857 0
M  V30 4783 H 445.849 -4.00746 1.86696 0
M  V30 4784 N 444.908 -1.36708 -0.784132 0
M  V30 4785 C 446.185 -1.21776 -1.53069 0
M  V30 4786 C 446.565 0.193876 -2.10208 0
M  V30 4787 O 445.913 1.20012 -1.94446 0
M  V30 4788 C 446.123 -2.30395 -2.62143 0
M  V30 4789 C 447.471 -2.67325 -3.29882 0
M  V30 4790 O 448.495 -2.29478 -2.7243 0
M  V30 4791 O 447.354 -3.32485 -4.33724 0
M  V30 4792 H 444.448 -0.474459 -0.677361 0
M  V30 4793 H 446.994 -1.48454 -0.82216 0
M  V30 4794 H 445.766 -3.2498 -2.17953 0
M  V30 4795 H 445.389 -2.05112 -3.40609 0
M  V30 4796 N 446.386 1.0089 -1.21074 0
M  V30 4797 C 447.632 1.74866 -1.02712 0
M  V30 4798 C 447.965 1.89178 0.438787 0
M  V30 4799 O 447.24 1.42325 1.32567 0
M  V30 4800 C 447.523 3.16347 -1.72036 0
M  V30 4801 C 447.376 3.09782 -3.26121 0
M  V30 4802 C 448.695 4.15187 -1.45973 0
M  V30 4803 H 445.814 0.634736 -0.374539 0
M  V30 4804 H 448.456 1.17646 -1.49196 0
M  V30 4805 H 446.606 3.65201 -1.32517 0
M  V30 4806 H 448.278 2.68673 -3.74983 0
M  V30 4807 H 446.521 2.46982 -3.56626 0
M  V30 4808 H 447.192 4.09829 -3.6979 0
M  V30 4809 H 449.668 3.75022 -1.80272 0
M  V30 4810 H 448.544 5.12331 -1.96999 0
M  V30 4811 H 448.805 4.40386 -0.388924 0
M  V30 4812 N 447.864 1.01787 1.20321 0
M  V30 4813 C 449.11 0.708985 1.90003 0
M  V30 4814 C 449.443 -0.759572 1.78729 0
M  V30 4815 O 448.718 -1.55198 1.17234 0
M  V30 4816 C 449.001 1.1469 3.41348 0
M  V30 4817 C 448.854 2.67586 3.61549 0
M  V30 4818 C 450.173 0.71915 4.34185 0
M  V30 4819 H 447.292 0.259034 0.689978 0
M  V30 4820 H 449.934 1.26584 1.41692 0
M  V30 4821 H 448.084 0.673128 3.82624 0
M  V30 4822 H 449.756 3.22826 3.29517 0
M  V30 4823 H 447.999 3.085 3.04976 0
M  V30 4824 H 448.67 2.93281 4.67643 0
M  V30 4825 H 451.146 1.12647 4.00562 0
M  V30 4826 H 450.022 1.05358 5.38694 0
M  V30 4827 H 450.283 -0.379111 4.40472 0
M  V30 4828 N 449.342 -1.36122 0.79427 0
M  V30 4829 C 450.272 -2.32551 0.210328 0
M  V30 4830 C 451.253 -1.56884 -0.657386 0
M  V30 4831 O 452.438 -1.85014 -0.590207 0
M  V30 4832 C 449.568 -3.41128 -0.651819 0
M  V30 4833 C 448.522 -4.27842 0.116395 0
M  V30 4834 C 447.848 -5.2763 -0.86666 0
M  V30 4835 C 449.148 -5.05647 1.30837 0
M  V30 4836 H 450.842 -2.81636 1.01594 0
M  V30 4837 H 448.388 -1.35407 0.489981 0
M  V30 4838 H 450.341 -4.07581 -1.07031 0
M  V30 4839 H 449.065 -2.90622 -1.49019 0
M  V30 4840 H 447.724 -3.62952 0.515915 0
M  V30 4841 H 447.372 -4.73395 -1.70019 0
M  V30 4842 H 447.072 -5.86514 -0.35705 0
M  V30 4843 H 448.596 -5.96955 -1.28361 0
M  V30 4844 H 450.01 -5.65113 0.965393 0
M  V30 4845 H 448.407 -5.73967 1.75161 0
M  V30 4846 H 449.477 -4.37006 2.10128 0
M  V30 4847 N 450.82 -0.546701 -1.47814 0
M  V30 4848 C 451.73 0.21026 -2.33656 0
M  V30 4849 C 452.746 0.922413 -1.47538 0
M  V30 4850 O 453.922 0.893652 -1.80488 0
M  V30 4851 C 450.987 1.23348 -3.24016 0
M  V30 4852 C 450.048 0.529883 -4.26017 0
M  V30 4853 C 449.281 1.50435 -5.12059 0
M  V30 4854 O 449.504 2.73837 -5.00369 0
M  V30 4855 O 448.438 1.03459 -5.92942 0
M  V30 4856 H 452.264 -0.493605 -2.99662 0
M  V30 4857 H 449.849 -0.307427 -1.46203 0
M  V30 4858 H 451.731 1.82438 -3.79861 0
M  V30 4859 H 450.406 1.91945 -2.60651 0
M  V30 4860 H 449.313 -0.101948 -3.73961 0
M  V30 4861 H 450.646 -0.11445 -4.92067 0
M  V30 4862 N 452.299 1.55045 -0.282633 0
M  V30 4863 C 453.249 2.19514 0.616249 0
M  V30 4864 C 454.233 1.16216 1.11277 0
M  V30 4865 O 455.425 1.42004 1.05659 0
M  V30 4866 C 452.554 2.92548 1.7964 0
M  V30 4867 C 451.64 4.03142 1.31671 0
M  V30 4868 N 452.031 5.0276 0.553695 0
M  V30 4869 C 450.329 4.1635 1.59903 0
M  V30 4870 C 451.03 5.80923 0.30054 0
M  V30 4871 N 450.006 5.3651 0.875116 0
M  V30 4872 H 453.808 2.93889 0.0255363 0
M  V30 4873 H 451.322 1.62169 -0.0865362 0
M  V30 4874 H 453.319 3.37188 2.45173 0
M  V30 4875 H 451.979 2.19685 2.39099 0
M  V30 4876 H 452.99 5.17512 0.20032 0
M  V30 4877 H 449.667 3.54682 2.20243 0
M  V30 4878 H 451.057 6.7118 -0.311053 0
M  V30 4879 N 453.777 0.010035 1.57597 0
M  V30 4880 C 455.025 -0.671371 1.90623 0
M  V30 4881 C 455.346 -1.73753 0.885151 0
M  V30 4882 O 454.616 -1.95752 -0.0760611 0
M  V30 4883 H 453.196 -0.250968 0.703579 0
M  V30 4884 H 455.858 0.0533325 1.94827 0
M  V30 4885 H 454.954 -1.13626 2.90681 0
M  V30 4886 N 455.255 -1.55392 -0.262866 0
M  V30 4887 C 456.503 -1.76127 -0.991147 0
M  V30 4888 C 456.824 -0.571083 -1.8645 0
M  V30 4889 O 456.094 0.413698 -1.91482 0
M  V30 4890 H 454.674 -0.649528 -0.368948 0
M  V30 4891 H 457.336 -1.9281 -0.284655 0
M  V30 4892 H 456.432 -2.6663 -1.62219 0
M  V30 4893 N 456.733 0.527833 -1.48498 0
M  V30 4894 C 457.973 1.29401 -1.58224 0
M  V30 4895 C 458.337 1.90348 -0.251327 0
M  V30 4896 O 459.538 2.67868 -0.223588 0
M  V30 4897 C 457.809 2.35266 -2.69044 0
M  V30 4898 S 459.368 3.2158 -2.98549 0
M  V30 4899 H 456.186 0.440138 -0.558391 0
M  V30 4900 H 458.788 0.601079 -1.8603 0
M  V30 4901 H 457.492 1.88975 -3.64303 0
M  V30 4902 H 457.023 3.09263 -2.43146 0
M  V30 4903 H 459.038 4.35391 -2.38011 0
M  V30 4904 N 458.211 1.37122 0.776871 0
M  V30 4905 C 459.457 1.32243 1.53752 0
M  V30 4906 C 459.79 -0.0944745 1.9397 0
M  V30 4907 O 459.065 -1.05068 1.6368 0
M  V30 4908 C 459.348 2.25681 2.80607 0
M  V30 4909 C 459.201 3.76127 2.46676 0
M  V30 4910 C 460.52 2.17657 3.82509 0
M  V30 4911 H 457.639 0.481704 0.557791 0
M  V30 4912 H 460.281 1.6778 0.891612 0
M  V30 4913 H 458.431 1.95505 3.35723 0
M  V30 4914 H 460.103 4.16877 1.97513 0
M  V30 4915 H 458.346 3.94946 1.79443 0
M  V30 4916 H 459.017 4.36933 3.37333 0
M  V30 4917 H 461.493 2.44245 3.36873 0
M  V30 4918 H 460.369 2.85185 4.69 0
M  V30 4919 H 460.63 1.16785 4.26396 0
M  V30 4920 N 459.689 -1.00246 1.21608 0
M  V30 4921 C 460.917 -1.77631 1.06089 0
M  V30 4922 C 461.332 -1.84746 -0.38916 0
M  V30 4923 O 460.689 -1.31068 -1.26994 0
M  V30 4924 C 460.74 -3.21415 1.65453 0
M  V30 4925 O 460.461 -3.14703 3.04785 0
M  V30 4926 C 461.962 -4.15289 1.55079 0
M  V30 4927 H 459.182 -0.558162 0.37242 0
M  V30 4928 H 461.726 -1.26093 1.60999 0
M  V30 4929 H 459.881 -3.70053 1.14629 0
M  V30 4930 H 460.295 -4.05056 3.33212 0
M  V30 4931 H 461.769 -5.13965 2.01355 0
M  V30 4932 H 462.246 -4.36279 0.505665 0
M  V30 4933 H 462.852 -3.72543 2.05163 0
M  V30 4934 N 461.167 -1.02423 -1.1978 0
M  V30 4935 C 462.395 -0.737456 -1.93311 0
M  V30 4936 C 462.81 0.703023 -1.75223 0
M  V30 4937 O 462.167 1.47761 -1.07112 0
M  V30 4938 C 462.218 -1.0733 -3.45199 0
M  V30 4939 O 461.939 -2.4572 -3.62702 0
M  V30 4940 C 463.44 -0.80866 -4.35862 0
M  V30 4941 H 460.66 -0.2702 -0.614193 0
M  V30 4942 H 463.204 -1.36747 -1.52054 0
M  V30 4943 H 461.359 -0.488545 -3.84307 0
M  V30 4944 H 461.773 -2.58081 -4.56612 0
M  V30 4945 H 463.247 -1.09365 -5.41057 0
M  V30 4946 H 463.724 0.257025 -4.38447 0
M  V30 4947 H 464.33 -1.37592 -4.02428 0
M  V30 4948 N 462.645 1.35699 -0.801477 0
M  V30 4949 C 463.578 2.2768 -0.153922 0
M  V30 4950 C 464.556 1.47832 0.67709 0
M  V30 4951 O 465.74 1.77104 0.645474 0
M  V30 4952 C 462.867 3.2943 0.786986 0
M  V30 4953 C 461.913 4.26485 0.0362447 0
M  V30 4954 S 462.746 5.19573 -1.2963 0
M  V30 4955 C 463.902 6.24866 -0.359705 0
M  V30 4956 H 464.135 2.82254 -0.9338 0
M  V30 4957 H 461.668 1.42421 -0.596283 0
M  V30 4958 H 463.626 3.8855 1.32436 0
M  V30 4959 H 462.287 2.73745 1.54021 0
M  V30 4960 H 461.48 4.98378 0.750668 0
M  V30 4961 H 461.082 3.71508 -0.431017 0
M  V30 4962 H 463.374 6.75957 0.456954 0
M  V30 4963 H 464.317 7.00307 -1.04768 0
M  V30 4964 H 464.725 5.64484 0.0423274 0
M  V30 4965 N 464.123 0.554532 1.47522 0
M  V30 4966 C 465.086 -0.184174 2.28459 0
M  V30 4967 C 466.086 -0.845195 1.36796 0
M  V30 4968 O 467.276 -0.701467 1.59452 0
M  V30 4969 C 464.408 -1.26903 3.16399 0
M  V30 4970 H 465.601 0.526751 2.95238 0
M  V30 4971 H 463.154 0.311375 1.53167 0
M  V30 4972 H 463.889 -2.01244 2.54306 0
M  V30 4973 H 463.674 -0.799883 3.83854 0
M  V30 4974 H 465.164 -1.78794 3.77389 0
M  V30 4975 N 465.601 -1.54893 0.290851 0
M  V30 4976 C 466.548 -2.23138 -0.58974 0
M  V30 4977 C 467.518 -1.21036 -1.13752 0
M  V30 4978 O 468.703 -1.49626 -1.18392 0
M  V30 4979 C 465.843 -2.96811 -1.76061 0
M  V30 4980 C 464.956 -4.13665 -1.24519 0
M  V30 4981 C 464.091 -4.74944 -2.3791 0
M  V30 4982 C 463.13 -5.83963 -1.83451 0
M  V30 4983 N 462.267 -6.39239 -2.90376 0
M  V30 4984 H 467.107 -2.98 -0.00114915 0
M  V30 4985 H 464.644 -1.47096 0.0112006 0
M  V30 4986 H 466.602 -3.37751 -2.44909 0
M  V30 4987 H 465.232 -2.24344 -2.32098 0
M  V30 4988 H 464.284 -3.77737 -0.449288 0
M  V30 4989 H 465.596 -4.92238 -0.806424 0
M  V30 4990 H 464.75 -5.18684 -3.14724 0
M  V30 4991 H 463.489 -3.95682 -2.85109 0
M  V30 4992 H 462.494 -5.39657 -1.05122 0
M  V30 4993 H 463.719 -6.65103 -1.37169 0
M  V30 4994 H 461.665 -5.62864 -3.36927 0
M  V30 4995 H 461.582 -7.13129 -2.50965 0
M  V30 4996 H 462.85 -6.87637 -3.67118 0
M  V30 4997 N 467.08 -0.0183926 -1.57589 0
M  V30 4998 C 468.028 0.985111 -2.10709 0
M  V30 4999 C 469.022 1.34397 -1.0312 0
M  V30 5000 O 470.228 1.32746 -1.21567 0
M  V30 5001 H 466.603 0.335418 -0.673052 0
M  V30 5002 H 468.574 0.511689 -2.9398 0
M  V30 5003 C 467.323 2.26202 -2.64061 0
M  V30 5004 H 466.646 1.9946 -3.4649 0
M  V30 5005 H 468.086 2.94652 -3.04887 0
M  V30 5006 C 466.545 2.98444 -1.5631 0
M  V30 5007 O 467.075 3.90142 -0.956674 0
M  V30 5008 N 465.281 2.6059 -1.28612 0
M  V30 5009 H 464.828 1.86101 -1.78112 0
M  V30 5010 H 464.786 3.09238 -0.567406 0
M  V30 5011 N 468.558 1.5553 0.254621 0
M  V30 5012 C 469.505 1.89666 1.31512 0
M  V30 5013 C 470.475 0.750057 1.482 0
M  V30 5014 O 471.66 1.00301 1.62309 0
M  V30 5015 C 468.8 2.19009 2.667 0
M  V30 5016 C 467.913 3.46435 2.58083 0
M  V30 5017 C 467.048 3.65386 3.85573 0
M  V30 5018 C 466.087 4.8644 3.71541 0
M  V30 5019 N 465.224 5.01952 4.90906 0
M  V30 5020 H 470.064 2.80109 1.017 0
M  V30 5021 H 467.601 1.38666 0.490938 0
M  V30 5022 H 469.559 2.34025 3.45381 0
M  V30 5023 H 468.189 1.31779 2.94676 0
M  V30 5024 H 467.241 3.39792 1.71013 0
M  V30 5025 H 468.553 4.35258 2.43622 0
M  V30 5026 H 467.707 3.80319 4.72697 0
M  V30 5027 H 466.446 2.74781 4.02922 0
M  V30 5028 H 465.451 4.71491 2.82801 0
M  V30 5029 H 466.676 5.78497 3.55694 0
M  V30 5030 H 464.622 4.14283 5.08631 0
M  V30 5031 H 464.539 5.84851 4.79046 0
M  V30 5032 H 465.807 5.21289 5.7955 0
M  V30 5033 N 470.036 -0.519951 1.48776 0
M  V30 5034 C 471.447 -1.10177 1.50725 0
M  V30 5035 C 471.798 -1.94153 0.282678 0
M  V30 5036 O 470.923 -2.07645 -0.609298 0
M  V30 5037 C 471.518 -2.00482 2.73116 0
M  V30 5038 C 470.077 -2.53862 2.77905 0
M  V30 5039 C 469.224 -1.31047 2.44381 0
M  V30 5040 H 472.175 -0.30473 1.55747 0
M  V30 5041 H 472.196 -2.8491 2.52203 0
M  V30 5042 H 471.708 -1.39335 3.62225 0
M  V30 5043 H 469.809 -3.18702 1.93029 0
M  V30 5044 H 469.922 -2.9231 3.79594 0
M  V30 5045 H 468.286 -1.62953 1.95751 0
M  V30 5046 H 469.069 -0.71637 3.35743 0
M  V30 5047 N 471.514 -1.37532 -0.769588 0
M  V30 5048 C 472.742 -1.36059 -1.55871 0
M  V30 5049 C 473.157 0.053544 -1.88724 0
M  V30 5050 O 472.514 1.01591 -1.5161 0
M  V30 5051 C 472.565 -2.20107 -2.86767 0
M  V30 5052 O 472.286 -3.56009 -2.55321 0
M  V30 5053 C 473.787 -2.26636 -3.80987 0
M  V30 5054 H 471.007 -0.465967 -0.482821 0
M  V30 5055 H 473.551 -1.80901 -0.953686 0
M  V30 5056 H 471.706 -1.78768 -3.43687 0
M  V30 5057 H 472.12 -4.0009 -3.39158 0
M  V30 5058 H 473.594 -2.89763 -4.69831 0
M  V30 5059 H 474.071 -1.2754 -4.20274 0
M  V30 5060 H 474.677 -2.68296 -3.29996 0
M  V30 5061 N 472.992 0.995999 -1.22138 0
M  V30 5062 C 473.922 2.10387 -1.01289 0
M  V30 5063 C 474.903 1.69975 0.0651454 0
M  V30 5064 O 476.088 1.9396 -0.0964628 0
M  V30 5065 C 473.218 3.42312 -0.586517 0
M  V30 5066 C 472.172 3.96558 -1.61014 0
M  V30 5067 C 471.498 5.24494 -1.0397 0
M  V30 5068 C 472.798 4.27595 -2.99933 0
M  V30 5069 H 474.492 2.28086 -1.93951 0
M  V30 5070 H 472.038 1.09607 -0.933928 0
M  V30 5071 H 473.991 4.19223 -0.427793 0
M  V30 5072 H 472.715 3.24431 0.375761 0
M  V30 5073 H 471.374 3.21776 -1.75658 0
M  V30 5074 H 471.022 5.02953 -0.0688703 0
M  V30 5075 H 470.722 5.61755 -1.72352 0
M  V30 5076 H 472.246 6.04042 -0.892494 0
M  V30 5077 H 473.66 4.95315 -2.8868 0
M  V30 5078 H 472.057 4.76021 -3.6541 0
M  V30 5079 H 473.127 3.35498 -3.50099 0
M  V30 5080 N 474.47 1.03057 1.19235 0
M  V30 5081 C 475.747 0.642608 1.84743 0
M  V30 5082 C 476.127 -0.878577 1.91948 0
M  V30 5083 O 475.475 -1.77597 1.43776 0
M  V30 5084 C 475.685 1.30665 3.23616 0
M  V30 5085 C 477.033 1.43098 3.9976 0
M  V30 5086 O 478.057 1.26396 3.3302 0
M  V30 5087 O 476.916 1.70223 5.19313 0
M  V30 5088 H 474.01 0.223573 0.796206 0
M  V30 5089 H 476.556 1.12883 1.26711 0
M  V30 5090 H 475.328 2.34544 3.13217 0
M  V30 5091 H 474.951 0.808405 3.89295 0
M  V30 5092 N 475.948 -1.35272 0.808662 0
M  V30 5093 C 477.197 -1.97963 0.386483 0
M  V30 5094 C 477.51 -1.64866 -1.05255 0
M  V30 5095 O 478.716 -2.20937 -1.57794 0
M  V30 5096 C 477.172 -3.54162 0.640096 0
M  V30 5097 C 476.78 -3.96166 2.0918 0
M  V30 5098 C 478.524 -4.23553 0.283376 0
M  V30 5099 C 476.431 -5.4522 2.29106 0
M  V30 5100 H 475.361 -0.740742 0.140774 0
M  V30 5101 H 478.012 -1.5431 0.993012 0
M  V30 5102 H 476.394 -3.95983 -0.0364117 0
M  V30 5103 H 477.568 -3.65491 2.80629 0
M  V30 5104 H 475.883 -3.3967 2.40859 0
M  V30 5105 H 478.48 -5.33124 0.410273 0
M  V30 5106 H 478.823 -4.09105 -0.770659 0
M  V30 5107 H 479.356 -3.8716 0.913884 0
M  V30 5108 H 476.095 -5.64638 3.32962 0
M  V30 5109 H 475.615 -5.77457 1.62184 0
M  V30 5110 H 477.294 -6.1171 2.1076 0
M  V30 5111 N 477.426 -0.562348 -1.47226 0
M  V30 5112 C 478.336 0.185466 -2.33866 0
M  V30 5113 C 479.352 0.906713 -1.48508 0
M  V30 5114 O 480.528 0.874458 -1.81425 0
M  V30 5115 C 477.593 1.19904 -3.25306 0
M  V30 5116 C 476.654 0.484669 -4.26555 0
M  V30 5117 C 475.887 1.44996 -5.13626 0
M  V30 5118 O 476.11 2.68515 -5.03245 0
M  V30 5119 O 475.044 0.971642 -5.94006 0
M  V30 5120 H 478.87 -0.525361 -2.99121 0
M  V30 5121 H 476.455 -0.322916 -1.45868 0
M  V30 5122 H 478.337 1.78399 -3.81774 0
M  V30 5123 H 477.012 1.8917 -2.62672 0
M  V30 5124 H 475.919 -0.141605 -3.73832 0
M  V30 5125 H 477.252 -0.166634 -4.91918 0
M  V30 5126 N 478.904 1.54736 -0.299062 0
M  V30 5127 C 479.834 2.26409 0.571085 0
M  V30 5128 C 480.815 1.2629 1.13951 0
M  V30 5129 O 482 1.55059 1.16921 0
M  V30 5130 C 479.13 3.00338 1.74396 0
M  V30 5131 C 478.084 4.07588 1.30599 0
M  V30 5132 C 477.41 4.69222 2.56387 0
M  V30 5133 C 478.71 5.20455 0.438645 0
M  V30 5134 H 480.404 2.99388 -0.0266991 0
M  V30 5135 H 477.95 1.43993 -0.0142812 0
M  V30 5136 H 479.903 3.49198 2.35878 0
M  V30 5137 H 478.627 2.24934 2.36796 0
M  V30 5138 H 477.286 3.59575 0.71424 0
M  V30 5139 H 476.934 3.9046 3.17097 0
M  V30 5140 H 476.634 5.41653 2.27784 0
M  V30 5141 H 478.158 5.20844 3.18675 0
M  V30 5142 H 479.572 5.65221 0.959085 0
M  V30 5143 H 477.969 5.99594 0.246466 0
M  V30 5144 H 479.039 4.8192 -0.536738 0
M  V30 5145 N 480.382 0.0267497 1.57577 0
M  V30 5146 C 481.314 -0.984594 2.06974 0
M  V30 5147 C 482.327 -1.29032 0.992705 0
M  V30 5148 O 483.516 -1.25539 1.26895 0
M  V30 5149 C 480.616 -2.31262 2.47732 0
M  V30 5150 C 479.789 -2.1924 3.78487 0
M  V30 5151 C 478.848 -3.34956 4.05821 0
M  V30 5152 O 477.874 -3.11948 4.76106 0
M  V30 5153 N 479.076 -4.58672 3.55809 0
M  V30 5154 H 481.841 -0.563143 2.94362 0
M  V30 5155 H 479.402 -0.160061 1.61107 0
M  V30 5156 H 481.394 -3.07496 2.63112 0
M  V30 5157 H 479.964 -2.65056 1.65723 0
M  V30 5158 H 479.184 -1.27747 3.72927 0
M  V30 5159 H 480.472 -2.08409 4.64158 0
M  V30 5160 H 479.87 -4.8026 2.98942 0
M  V30 5161 H 478.427 -5.32083 3.76472 0
M  V30 5162 N 481.861 -1.55662 -0.24637 0
M  V30 5163 C 482.808 -1.90361 -1.30504 0
M  V30 5164 C 483.778 -0.757905 -1.47801 0
M  V30 5165 O 484.963 -1.01161 -1.61775 0
M  V30 5166 C 482.103 -2.2042 -2.65535 0
M  V30 5167 C 481.216 -3.47799 -2.56242 0
M  V30 5168 C 480.351 -3.67426 -3.8363 0
M  V30 5169 C 479.39 -4.88403 -3.68956 0
M  V30 5170 N 478.527 -5.04548 -4.88237 0
M  V30 5171 H 483.367 -2.80645 -1.00213 0
M  V30 5172 H 480.904 -1.38924 -0.483577 0
M  V30 5173 H 482.862 -2.35853 -3.44135 0
M  V30 5174 H 481.492 -1.3334 -2.93973 0
M  V30 5175 H 480.544 -3.40694 -1.69208 0
M  V30 5176 H 481.856 -4.36544 -2.4131 0
M  V30 5177 H 481.01 -3.82821 -4.70673 0
M  V30 5178 H 479.749 -2.76914 -4.01459 0
M  V30 5179 H 478.754 -4.72984 -2.80296 0
M  V30 5180 H 479.979 -5.80375 -3.52621 0
M  V30 5181 H 477.925 -4.16974 -5.06427 0
M  V30 5182 H 477.842 -5.87384 -4.75937 0
M  V30 5183 H 479.11 -5.24355 -5.76777 0
M  V30 5184 N 483.339 0.512053 -1.4905 0
M  V30 5185 C 484.567 1.29116 -1.61669 0
M  V30 5186 C 484.982 1.86655 -0.283787 0
M  V30 5187 O 484.339 1.67293 0.729331 0
M  V30 5188 C 484.39 2.4293 -2.67707 0
M  V30 5189 O 484.111 1.87758 -3.95826 0
M  V30 5190 C 485.612 3.34476 -2.90931 0
M  V30 5191 H 482.832 0.392009 -0.544583 0
M  V30 5192 H 485.376 0.615881 -1.95006 0
M  V30 5193 H 483.531 3.06308 -2.37179 0
M  V30 5194 H 483.945 2.62393 -4.54148 0
M  V30 5195 H 485.419 4.10642 -3.68886 0
M  V30 5196 H 485.896 3.90801 -2.00427 0
M  V30 5197 H 486.502 2.76874 -3.22832 0
M  V30 5198 N 484.817 1.37938 0.762283 0
M  V30 5199 C 485.727 1.36681 1.90671 0
M  V30 5200 C 486.743 0.265078 1.71969 0
M  V30 5201 O 487.919 0.502055 1.95042 0
M  V30 5202 C 484.984 1.18211 3.25925 0
M  V30 5203 C 484.045 2.3811 3.57214 0
M  V30 5204 C 483.278 2.20512 4.86014 0
M  V30 5205 O 483.501 1.19429 5.57757 0
M  V30 5206 O 482.435 3.08911 5.16583 0
M  V30 5207 H 486.261 2.33091 1.94685 0
M  V30 5208 H 483.846 1.18767 0.906356 0
M  V30 5209 H 485.728 1.09937 4.06807 0
M  V30 5210 H 484.403 0.248807 3.22742 0
M  V30 5211 H 483.31 2.51958 2.76529 0
M  V30 5212 H 484.643 3.30041 3.65149 0
M  V30 5213 N 486.295 -0.989507 1.22664 0
M  V30 5214 C 487.258 -2.06183 1.00106 0
M  V30 5215 C 488.258 -1.60765 -0.0337726 0
M  V30 5216 O 489.448 -1.72989 0.205072 0
M  V30 5217 C 486.58 -3.37021 0.51279 0
M  V30 5218 H 487.773 -2.27629 1.95256 0
M  V30 5219 H 485.326 -1.16158 1.0458 0
M  V30 5220 H 486.061 -3.21261 -0.442917 0
M  V30 5221 H 485.846 -3.71323 1.25942 0
M  V30 5222 H 487.336 -4.1591 0.375315 0
M  V30 5223 N 487.773 -1.03688 -1.18687 0
M  V30 5224 C 489.001 -0.757918 -1.92518 0
M  V30 5225 C 489.416 0.684398 -1.75959 0
M  V30 5226 O 488.773 1.46617 -1.08673 0
M  V30 5227 C 488.824 -1.10985 -3.44042 0
M  V30 5228 O 488.545 -2.49554 -3.60076 0
M  V30 5229 C 490.046 -0.854844 -4.3498 0
M  V30 5230 H 487.266 -0.276699 -0.611293 0
M  V30 5231 H 489.81 -1.38352 -1.50595 0
M  V30 5232 H 487.965 -0.529279 -3.83767 0
M  V30 5233 H 488.379 -2.6291 -4.53849 0
M  V30 5234 H 489.853 -1.15098 -5.39867 0
M  V30 5235 H 490.33 0.210507 -4.38695 0
M  V30 5236 H 490.936 -1.41853 -4.00946 0
M  V30 5237 N 489.251 1.34841 -0.815825 0
M  V30 5238 C 490.183 2.28409 -0.190265 0
M  V30 5239 C 491.196 1.50705 0.615771 0
M  V30 5240 O 492.385 1.72822 0.446616 0
M  V30 5241 C 489.485 3.30441 0.752446 0
M  V30 5242 C 488.658 4.37399 -0.00922152 0
M  V30 5243 C 487.717 5.19234 0.853351 0
M  V30 5244 O 486.743 5.68404 0.300919 0
M  V30 5245 N 487.945 5.38248 2.17416 0
M  V30 5246 H 490.71 2.82732 -0.994114 0
M  V30 5247 H 488.271 1.47289 -0.672129 0
M  V30 5248 H 490.263 3.82084 1.33394 0
M  V30 5249 H 488.833 2.76565 1.45707 0
M  V30 5250 H 488.053 3.86567 -0.771979 0
M  V30 5251 H 489.341 5.05992 -0.533807 0
M  V30 5252 H 488.739 4.99961 2.6468 0
M  V30 5253 H 487.296 5.93035 2.70467 0
M  V30 5254 N 490.729 0.570148 1.46925 0
M  V30 5255 C 491.659 -0.158274 2.32963 0
M  V30 5256 C 492.64 -0.896093 1.44583 0
M  V30 5257 O 493.825 -0.874022 1.7342 0
M  V30 5258 C 490.955 -1.18055 3.26619 0
M  V30 5259 C 489.909 -0.558379 4.24342 0
M  V30 5260 C 489.235 -1.68623 5.07415 0
M  V30 5261 C 490.535 0.496295 5.19937 0
M  V30 5262 H 492.229 0.560046 2.94115 0
M  V30 5263 H 489.775 0.270775 1.41431 0
M  V30 5264 H 491.728 -1.69841 3.85658 0
M  V30 5265 H 490.452 -1.92899 2.63548 0
M  V30 5266 H 489.111 -0.0617157 3.66548 0
M  V30 5267 H 488.759 -2.42402 4.40738 0
M  V30 5268 H 488.459 -1.27564 5.73586 0
M  V30 5269 H 489.983 -2.20709 5.69315 0
M  V30 5270 H 491.397 0.0640052 5.73264 0
M  V30 5271 H 489.794 0.82649 5.94381 0
M  V30 5272 H 490.864 1.38735 4.6463 0
M  V30 5273 N 492.207 -1.54576 0.307264 0
M  V30 5274 C 493.17 -2.22423 -0.553224 0
M  V30 5275 C 494.17 -1.21231 -1.05639 0
M  V30 5276 O 495.36 -1.45923 -0.951419 0
M  V30 5277 C 492.492 -2.91552 -1.76664 0
M  V30 5278 H 493.685 -2.99874 0.0396484 0
M  V30 5279 H 491.238 -1.56192 0.0581629 0
M  V30 5280 H 491.973 -2.18196 -2.39918 0
M  V30 5281 H 491.758 -3.65738 -1.41343 0
M  V30 5282 H 493.248 -3.43292 -2.37783 0
M  V30 5283 N 493.685 -0.035106 -1.57561 0
M  V30 5284 C 494.913 0.652258 -1.9635 0
M  V30 5285 C 495.328 1.65317 -0.911897 0
M  V30 5286 O 494.685 1.82194 0.105657 0
M  V30 5287 C 494.736 1.35337 -3.35211 0
M  V30 5288 O 494.457 0.392548 -4.36338 0
M  V30 5289 C 495.958 2.13199 -3.88666 0
M  V30 5290 H 493.178 0.179444 -0.646561 0
M  V30 5291 H 495.722 -0.0966459 -2.04271 0
M  V30 5292 H 493.877 2.05362 -3.28489 0
M  V30 5293 H 494.291 0.891097 -5.16875 0
M  V30 5294 H 495.765 2.577 -4.88154 0
M  V30 5295 H 496.242 2.97353 -3.23231 0
M  V30 5296 H 496.848 1.48118 -3.98674 0
M  V30 5297 N 495.163 1.55791 0.238111 0
M  V30 5298 C 496.093 1.94068 1.29846 0
M  V30 5299 C 497.074 0.806726 1.49753 0
M  V30 5300 O 498.259 1.06772 1.62214 0
M  V30 5301 C 495.389 2.24302 2.65153 0
M  V30 5302 C 494.343 3.40032 2.59927 0
M  V30 5303 C 493.669 3.55829 3.99111 0
M  V30 5304 C 494.969 4.75476 2.16148 0
M  V30 5305 H 496.663 2.82887 0.980563 0
M  V30 5306 H 494.209 1.36105 0.470253 0
M  V30 5307 H 496.162 2.4967 3.39475 0
M  V30 5308 H 494.886 1.32318 2.98596 0
M  V30 5309 H 493.545 3.14687 1.88063 0
M  V30 5310 H 493.193 2.6125 4.29834 0
M  V30 5311 H 492.893 4.3366 3.96501 0
M  V30 5312 H 494.417 3.83528 4.7512 0
M  V30 5313 H 495.831 5.00158 2.80205 0
M  V30 5314 H 494.228 5.56472 2.24631 0
M  V30 5315 H 495.298 4.71946 1.11333 0
M  V30 5316 N 496.642 -0.504142 1.49319 0
M  V30 5317 C 498.058 -0.835039 1.36012 0
M  V30 5318 C 498.258 -1.97674 0.390808 0
M  V30 5319 O 497.314 -2.51867 -0.178655 0
M  V30 5320 C 498.627 -1.17821 2.76656 0
M  V30 5321 C 500.175 -1.2866 2.85334 0
M  V30 5322 C 500.65 -1.66307 4.26739 0
M  V30 5323 N 502.141 -1.73362 4.29534 0
M  V30 5324 C 502.876 -2.0393 5.35911 0
M  V30 5325 N 502.372 -2.32744 6.52535 0
M  V30 5326 N 504.165 -2.05155 5.23324 0
M  V30 5327 H 496.316 0.248764 2.10938 0
M  V30 5328 H 498.579 0.0486962 0.946748 0
M  V30 5329 H 498.285 -0.412682 3.4927 0
M  V30 5330 H 498.159 -2.12239 3.11825 0
M  V30 5331 H 500.546 -2.04285 2.1296 0
M  V30 5332 H 500.627 -0.323004 2.53752 0
M  V30 5333 H 500.271 -0.91234 4.99639 0
M  V30 5334 H 500.201 -2.63761 4.55782 0
M  V30 5335 H 502.692 -1.53268 3.45424 0
M  V30 5336 H 503.005 -2.55248 7.2943 0
M  V30 5337 H 501.35 -2.30207 6.55767 0
M  V30 5338 H 504.541 -1.82119 4.3122 0
M  V30 5339 H 504.714 -2.28644 6.06322 0
M  V30 5340 N 498.12 -1.38341 -0.754957 0
M  V30 5341 C 499.067 -1.3546 -1.86867 0
M  V30 5342 C 500.037 -0.217369 -1.64672 0
M  V30 5343 O 501.222 -0.409383 -1.86356 0
M  V30 5344 C 498.362 -1.18413 -3.24149 0
M  V30 5345 C 497.475 -2.41511 -3.58185 0
M  V30 5346 C 496.61 -2.17205 -4.84763 0
M  V30 5347 C 495.649 -3.36081 -5.11582 0
M  V30 5348 N 494.786 -3.11219 -6.29354 0
M  V30 5349 H 499.626 -2.30672 -1.88664 0
M  V30 5350 H 497.163 -1.14607 -0.922154 0
M  V30 5351 H 499.121 -1.06545 -4.03366 0
M  V30 5352 H 497.751 -0.268397 -3.21682 0
M  V30 5353 H 496.803 -2.64056 -2.73822 0
M  V30 5354 H 498.115 -3.30115 -3.73932 0
M  V30 5355 H 497.269 -2.02465 -5.7192 0
M  V30 5356 H 496.008 -1.25964 -4.71152 0
M  V30 5357 H 495.013 -3.51341 -4.22894 0
M  V30 5358 H 496.238 -4.28196 -5.27091 0
M  V30 5359 H 494.184 -2.22624 -6.17069 0
M  V30 5360 H 494.101 -3.93373 -6.45596 0
M  V30 5361 H 495.369 -3.00132 -7.19403 0
M  V30 5362 N 499.598 0.982988 -1.23187 0
M  V30 5363 C 500.528 2.09301 -1.03515 0
M  V30 5364 C 501.509 1.70035 0.0471136 0
M  V30 5365 O 502.694 1.93847 -0.117029 0
M  V30 5366 C 499.824 3.4167 -0.622791 0
M  V30 5367 C 498.778 3.94828 -1.65211 0
M  V30 5368 C 498.104 5.23362 -1.09527 0
M  V30 5369 C 499.404 4.2439 -3.04451 0
M  V30 5370 H 501.098 2.26016 -1.96359 0
M  V30 5371 H 498.644 1.08611 -0.945501 0
M  V30 5372 H 500.597 4.18746 -0.472233 0
M  V30 5373 H 499.321 3.24811 0.341329 0
M  V30 5374 H 497.98 3.19895 -1.79061 0
M  V30 5375 H 497.628 5.02852 -0.122211 0
M  V30 5376 H 497.328 5.59895 -1.783 0
M  V30 5377 H 498.852 6.03062 -0.956511 0
M  V30 5378 H 500.266 4.92225 -2.93917 0
M  V30 5379 H 498.663 4.72118 -3.70438 0
M  V30 5380 H 499.733 3.31765 -3.53638 0
M  V30 5381 N 501.076 1.04316 1.18135 0
M  V30 5382 C 502.316 0.756937 1.89868 0
M  V30 5383 C 502.68 -0.702609 1.78682 0
M  V30 5384 O 503.881 -1.10255 2.45148 0
M  V30 5385 C 502.152 1.21327 3.36176 0
M  V30 5386 S 503.711 1.05307 4.25976 0
M  V30 5387 H 500.529 0.275143 0.655604 0
M  V30 5388 H 503.131 1.33597 1.42731 0
M  V30 5389 H 501.835 2.27086 3.41848 0
M  V30 5390 H 501.366 0.628137 3.88353 0
M  V30 5391 H 503.381 -0.0280093 4.96192 0
M  V30 5392 N 502.554 -1.34406 0.822964 0
M  V30 5393 C 503.803 -1.97542 0.407458 0
M  V30 5394 C 504.116 -1.65973 -1.035 0
M  V30 5395 O 505.322 -2.22598 -1.55442 0
M  V30 5396 C 503.778 -3.53463 0.677623 0
M  V30 5397 C 503.386 -3.93925 2.1337 0
M  V30 5398 C 505.13 -4.23229 0.328284 0
M  V30 5399 C 503.037 -5.42759 2.34876 0
M  V30 5400 H 501.967 -0.739207 0.148623 0
M  V30 5401 H 504.618 -1.53248 1.00932 0
M  V30 5402 H 503 -3.96 0.00558965 0
M  V30 5403 H 504.174 -3.62494 2.8449 0
M  V30 5404 H 502.489 -3.37097 2.44448 0
M  V30 5405 H 505.086 -5.32659 0.466794 0
M  V30 5406 H 505.429 -4.09899 -0.727224 0
M  V30 5407 H 505.962 -3.86169 0.954896 0
M  V30 5408 H 502.701 -5.61075 3.38932 0
M  V30 5409 H 502.221 -5.75704 1.68299 0
M  V30 5410 H 503.9 -6.0944 2.17236 0
M  V30 5411 N 504.032 -0.577932 -1.46621 0
M  V30 5412 C 504.942 0.160651 -2.34049 0
M  V30 5413 C 505.958 0.890911 -1.49462 0
M  V30 5414 O 507.134 0.855166 -1.82343 0
M  V30 5415 C 504.199 1.16447 -3.26559 0
M  V30 5416 C 503.26 0.4394 -4.27045 0
M  V30 5417 C 502.493 1.3954 -5.15135 0
M  V30 5418 O 502.716 2.63162 -5.06065 0
M  V30 5419 O 501.65 0.908585 -5.95003 0
M  V30 5420 H 505.476 -0.557057 -2.98547 0
M  V30 5421 H 503.061 -0.338369 -1.45518 0
M  V30 5422 H 504.943 1.7434 -3.83645 0
M  V30 5423 H 503.618 1.86373 -2.64663 0
M  V30 5424 H 502.525 -0.181247 -3.73661 0
M  V30 5425 H 503.858 -0.218799 -4.91713 0
M  V30 5426 N 505.51 1.54411 -0.315457 0
M  V30 5427 C 506.758 2.00023 0.288971 0
M  V30 5428 C 507.079 1.20529 1.5329 0
M  V30 5429 O 506.349 0.304986 1.93511 0
M  V30 5430 H 504.929 0.738891 0.109766 0
M  V30 5431 H 507.591 1.90094 -0.430129 0
M  V30 5432 H 506.687 3.07198 0.550999 0
M  V30 5433 N 506.988 0.0434614 1.5754 0
M  V30 5434 C 507.935 -0.93356 2.11077 0
M  V30 5435 C 508.905 -1.31383 1.01626 0
M  V30 5436 O 510.09 -1.40465 1.29129 0
M  V30 5437 C 507.23 -2.20578 2.65404 0
M  V30 5438 C 506.343 -1.88068 3.88914 0
M  V30 5439 C 505.478 -3.09691 4.31584 0
M  V30 5440 C 504.517 -2.73067 5.47815 0
M  V30 5441 N 503.654 -3.87359 5.85574 0
M  V30 5442 H 508.494 -0.470118 2.94268 0
M  V30 5443 H 506.031 -0.220434 1.45439 0
M  V30 5444 H 507.989 -2.95011 2.94999 0
M  V30 5445 H 506.619 -2.64513 1.85021 0
M  V30 5446 H 505.671 -1.03816 3.6596 0
M  V30 5447 H 506.983 -1.57104 4.73413 0
M  V30 5448 H 506.137 -3.92431 4.62691 0
M  V30 5449 H 504.876 -3.43827 3.45882 0
M  V30 5450 H 503.881 -1.88742 5.16388 0
M  V30 5451 H 505.106 -2.40131 6.35227 0
M  V30 5452 H 503.052 -4.21311 5.02825 0
M  V30 5453 H 502.969 -3.60068 6.64746 0
M  V30 5454 H 504.237 -4.70761 6.21292 0
M  V30 5455 N 508.466 -1.55915 -0.229846 0
M  V30 5456 C 509.715 -1.77742 -0.953455 0
M  V30 5457 C 510.028 -0.610524 -1.85828 0
M  V30 5458 O 511.234 -0.712219 -2.61992 0
M  V30 5459 C 509.69 -3.14738 -1.74551 0
M  V30 5460 C 509.298 -4.39126 -0.887242 0
M  V30 5461 C 511.042 -3.45895 -2.46084 0
M  V30 5462 C 508.949 -5.67149 -1.67617 0
M  V30 5463 H 507.879 -0.662648 -0.359741 0
M  V30 5464 H 510.53 -1.82322 -0.207576 0
M  V30 5465 H 508.912 -3.04311 -2.53399 0
M  V30 5466 H 510.086 -4.60588 -0.139892 0
M  V30 5467 H 508.401 -4.15427 -0.284443 0
M  V30 5468 H 510.998 -4.38767 -3.05594 0
M  V30 5469 H 511.341 -2.68007 -3.18556 0
M  V30 5470 H 511.874 -3.57614 -1.74233 0
M  V30 5471 H 508.613 -6.47906 -0.994881 0
M  V30 5472 H 508.133 -5.49763 -2.39836 0
M  V30 5473 H 509.812 -6.07025 -2.23898 0
M  V30 5474 N 509.944 0.496216 -1.49584 0
M  V30 5475 C 511.172 1.27394 -1.63029 0
M  V30 5476 C 511.587 1.86344 -0.303569 0
M  V30 5477 O 510.944 1.68057 0.711547 0
M  V30 5478 C 510.995 2.40077 -2.70269 0
M  V30 5479 O 510.716 1.83549 -3.97796 0
M  V30 5480 C 512.217 3.31372 -2.94462 0
M  V30 5481 H 509.437 0.386211 -0.54871 0
M  V30 5482 H 511.981 0.595163 -1.95648 0
M  V30 5483 H 510.136 3.03775 -2.40415 0
M  V30 5484 H 510.55 2.57561 -4.56905 0
M  V30 5485 H 512.024 4.06707 -3.73221 0
M  V30 5486 H 512.501 3.88654 -2.0456 0
M  V30 5487 H 513.107 2.73435 -3.25751 0
M  V30 5488 N 511.423 1.38739 0.74761 0
M  V30 5489 C 512.371 1.36573 1.88283 0
M  V30 5490 C 513.365 0.250712 1.67534 0
M  V30 5491 O 514.571 0.420073 1.7503 0
M  V30 5492 H 510.946 0.42619 0.619569 0
M  V30 5493 H 512.917 2.32356 1.87226 0
M  V30 5494 C 511.666 1.21361 3.25832 0
M  V30 5495 H 510.989 2.06424 3.42388 0
M  V30 5496 H 512.429 1.23901 4.05493 0
M  V30 5497 C 510.888 -0.0790099 3.36807 0
M  V30 5498 O 511.418 -1.05385 3.8763 0
M  V30 5499 N 509.624 -0.13785 2.90273 0
M  V30 5500 H 509.171 0.656128 2.49104 0
M  V30 5501 H 509.129 -1.00228 2.97996 0
M  V30 5502 N 512.901 -0.976442 1.23707 0
M  V30 5503 C 514.15 -1.71254 1.06559 0
M  V30 5504 C 514.463 -1.91528 -0.397024 0
M  V30 5505 O 515.669 -2.62625 -0.688518 0
M  V30 5506 C 514.125 -3.08207 1.8584 0
M  V30 5507 C 513.733 -2.95806 3.36456 0
M  V30 5508 C 515.477 -3.85749 1.77194 0
M  V30 5509 C 513.384 -4.28015 4.08114 0
M  V30 5510 H 512.314 -0.642171 0.395136 0
M  V30 5511 H 514.965 -1.08877 1.4771 0
M  V30 5512 H 513.347 -3.71363 1.37498 0
M  V30 5513 H 514.521 -2.41716 3.92314 0
M  V30 5514 H 512.836 -2.31736 3.45959 0
M  V30 5515 H 515.433 -4.83633 2.28041 0
M  V30 5516 H 515.776 -4.09752 0.735477 0
M  V30 5517 H 516.309 -3.29303 2.23169 0
M  V30 5518 H 513.048 -4.09208 5.12083 0
M  V30 5519 H 512.568 -4.81955 3.57043 0
M  V30 5520 H 514.247 -4.96681 4.14629 0
M  V30 5521 N 514.379 -1.04941 -1.1758 0
M  V30 5522 C 515.607 -0.778294 -1.91703 0
M  V30 5523 C 516.022 0.665697 -1.76675 0
M  V30 5524 O 515.379 1.45456 -1.10222 0
M  V30 5525 C 515.43 -1.14628 -3.42845 0
M  V30 5526 O 515.151 -2.53359 -3.57409 0
M  V30 5527 C 516.652 -0.900931 -4.34049 0
M  V30 5528 H 513.872 -0.283167 -0.608323 0
M  V30 5529 H 516.416 -1.39942 -1.49119 0
M  V30 5530 H 514.571 -0.569953 -3.83184 0
M  V30 5531 H 514.985 -2.67709 -4.51035 0
M  V30 5532 H 516.459 -1.20817 -5.38616 0
M  V30 5533 H 516.936 0.163966 -4.38894 0
M  V30 5534 H 517.542 -1.46097 -3.99419 0
M  V30 5535 N 515.857 1.33968 -0.830081 0
M  V30 5536 C 517.085 2.0228 -0.434773 0
M  V30 5537 C 517.5 1.62487 0.961419 0
M  V30 5538 O 516.857 0.833849 1.62337 0
M  V30 5539 C 516.908 3.5751 -0.535625 0
M  V30 5540 O 516.629 3.95864 -1.87679 0
M  V30 5541 C 518.13 4.43091 -0.136137 0
M  V30 5542 H 515.35 0.648151 -0.173613 0
M  V30 5543 H 517.894 1.71089 -1.12022 0
M  V30 5544 H 516.049 3.87266 0.101817 0
M  V30 5545 H 516.463 4.9056 -1.85609 0
M  V30 5546 H 517.937 5.51398 -0.257772 0
M  V30 5547 H 518.414 4.29433 0.921076 0
M  V30 5548 H 519.02 4.18677 -0.747662 0
M  V30 5549 N 517.335 0.585699 1.46312 0
M  V30 5550 C 518.612 0.00542031 1.95599 0
M  V30 5551 C 518.992 -1.45619 1.52834 0
M  V30 5552 O 518.34 -2.14759 0.780446 0
M  V30 5553 C 518.55 0.180601 3.48532 0
M  V30 5554 C 519.898 0.049979 4.24571 0
M  V30 5555 O 520.922 0.109589 3.56031 0
M  V30 5556 O 519.781 -0.0832226 5.46437 0
M  V30 5557 H 516.875 -0.0481281 0.825598 0
M  V30 5558 H 519.421 0.654227 1.56582 0
M  V30 5559 H 518.193 1.19657 3.72556 0
M  V30 5560 H 517.816 -0.504498 3.94386 0
M  V30 5561 N 518.813 -1.54241 0.323641 0
M  V30 5562 C 520.038 -2.05452 -0.283605 0
M  V30 5563 C 520.463 -1.19823 -1.44997 0
M  V30 5564 O 519.821 -0.207358 -1.8011 0
M  V30 5565 C 519.869 -3.53823 -0.695795 0
M  V30 5566 O 518.973 -3.71134 -1.79815 0
M  V30 5567 H 518.314 -0.662024 -0.0511917 0
M  V30 5568 H 520.844 -1.99079 0.472073 0
M  V30 5569 H 520.854 -3.96094 -0.978434 0
M  V30 5570 H 519.529 -4.15602 0.157287 0
M  V30 5571 H 518.106 -3.40768 -1.51431 0
M  V30 5572 N 520.291 -0.0518155 -1.57515 0
M  V30 5573 C 521.707 0.304735 -1.56664 0
M  V30 5574 C 521.907 1.71395 -1.05953 0
M  V30 5575 O 520.963 2.42123 -0.716414 0
M  V30 5576 C 522.276 0.132614 -3.00407 0
M  V30 5577 C 523.824 0.20367 -3.12337 0
M  V30 5578 C 524.299 0.0600706 -4.57961 0
M  V30 5579 N 525.79 0.116326 -4.63054 0
M  V30 5580 C 526.525 0.0293363 -5.73392 0
M  V30 5581 N 526.021 -0.110038 -6.92713 0
M  V30 5582 N 527.814 0.0849651 -5.62036 0
M  V30 5583 H 519.965 -0.973056 -1.888 0
M  V30 5584 H 522.228 -0.377781 -0.869474 0
M  V30 5585 H 521.934 -0.839019 -3.41546 0
M  V30 5586 H 521.808 0.893376 -3.66468 0
M  V30 5587 H 524.195 1.16578 -2.71097 0
M  V30 5588 H 524.276 -0.587857 -2.48954 0
M  V30 5589 H 523.92 -0.898715 -4.99886 0
M  V30 5590 H 523.85 0.87075 -5.19351 0
M  V30 5591 H 526.341 0.22327 -3.7724 0
M  V30 5592 H 526.654 -0.169104 -7.72615 0
M  V30 5593 H 524.999 -0.145132 -6.94848 0
M  V30 5594 H 528.19 0.192411 -4.67704 0
M  V30 5595 H 528.363 0.0137131 -6.47999 0
M  V30 5596 N 521.769 1.56035 0.221574 0
M  V30 5597 C 523.009 1.80822 0.953038 0
M  V30 5598 C 523.373 0.625316 1.81532 0
M  V30 5599 O 524.574 0.752491 2.58052 0
M  V30 5600 C 522.845 3.10503 1.76983 0
M  V30 5601 S 524.404 3.56604 2.55693 0
M  V30 5602 H 521.222 0.634849 0.320137 0
M  V30 5603 H 523.824 1.94274 0.218619 0
M  V30 5604 H 522.528 3.94636 1.12651 0
M  V30 5605 H 522.059 2.99858 2.54655 0
M  V30 5606 H 524.074 3.1994 3.79279 0
M  V30 5607 N 523.247 -0.488276 1.49845 0
M  V30 5608 C 524.658 -1.06955 1.53028 0
M  V30 5609 C 525.009 -1.9351 0.323797 0
M  V30 5610 O 524.134 -2.08891 -0.565116 0
M  V30 5611 C 524.729 -1.94643 2.77307 0
M  V30 5612 C 523.288 -2.4791 2.83227 0
M  V30 5613 C 522.435 -1.25833 2.47106 0
M  V30 5614 H 525.386 -0.271626 1.56358 0
M  V30 5615 H 525.407 -2.79496 2.5819 0
M  V30 5616 H 524.919 -1.31621 3.65099 0
M  V30 5617 H 523.02 -3.14535 1.99745 0
M  V30 5618 H 523.133 -2.84193 3.85709 0
M  V30 5619 H 521.497 -1.58764 1.99163 0
M  V30 5620 H 522.28 -0.644993 3.37186 0
M  V30 5621 N 524.725 -1.39134 -0.740242 0
M  V30 5622 C 525.953 -1.39334 -1.5295 0
M  V30 5623 C 526.368 0.0135008 -1.88795 0
M  V30 5624 O 525.725 0.983524 -1.5373 0
M  V30 5625 C 525.776 -2.2614 -2.82034 0
M  V30 5626 O 525.497 -3.61345 -2.47712 0
M  V30 5627 C 526.998 -2.34666 -3.76094 0
M  V30 5628 H 524.218 -0.476103 -0.472828 0
M  V30 5629 H 526.762 -1.82883 -0.9151 0
M  V30 5630 H 524.917 -1.86018 -3.39818 0
M  V30 5631 H 525.331 -4.07194 -3.30595 0
M  V30 5632 H 526.805 -2.99663 -4.63579 0
M  V30 5633 H 527.282 -1.36426 -4.17474 0
M  V30 5634 H 527.888 -2.75236 -3.2423 0
M  V30 5635 N 526.204 0.969867 -1.24223 0
M  V30 5636 C 527.136 2.0669 -0.99055 0
M  V30 5637 C 528.149 1.62753 0.0392222 0
M  V30 5638 O 529.338 1.77403 -0.197561 0
M  V30 5639 C 526.438 3.35589 -0.472594 0
M  V30 5640 C 525.611 4.08444 -1.56499 0
M  V30 5641 C 524.67 5.15616 -1.05007 0
M  V30 5642 O 523.696 5.41911 -1.7413 0
M  V30 5643 N 524.898 5.80383 0.116641 0
M  V30 5644 H 527.663 2.28855 -1.93508 0
M  V30 5645 H 525.224 1.13733 -1.15223 0
M  V30 5646 H 527.216 4.04542 -0.112919 0
M  V30 5647 H 525.786 3.10311 0.377617 0
M  V30 5648 H 525.006 3.33798 -2.09696 0
M  V30 5649 H 526.294 4.53882 -2.29932 0
M  V30 5650 H 525.692 5.6142 0.694589 0
M  V30 5651 H 524.249 6.50462 0.417483 0
M  V30 5652 N 527.682 1.05563 1.17022 0
M  V30 5653 C 528.93 0.76642 1.87004 0
M  V30 5654 C 529.251 -0.708854 1.8166 0
M  V30 5655 O 528.521 -1.51242 1.2451 0
M  V30 5656 H 527.101 0.280516 0.692329 0
M  V30 5657 H 529.763 1.33557 1.41945 0
M  V30 5658 H 528.859 1.08472 2.92644 0
M  V30 5659 N 529.16 -1.33526 0.837174 0
M  V30 5660 C 530.07 -2.33023 0.271568 0
M  V30 5661 C 531.086 -1.63272 -0.601514 0
M  V30 5662 O 532.262 -1.94939 -0.506038 0
M  V30 5663 C 529.327 -3.42382 -0.545448 0
M  V30 5664 C 528.388 -4.27857 0.351709 0
M  V30 5665 C 527.621 -5.31994 -0.426409 0
M  V30 5666 O 527.844 -5.45763 -1.65828 0
M  V30 5667 O 526.778 -6.01572 0.1987 0
M  V30 5668 H 530.604 -2.83256 1.09545 0
M  V30 5669 H 528.189 -1.36837 0.599655 0
M  V30 5670 H 530.071 -4.09122 -1.00979 0
M  V30 5671 H 528.746 -2.94369 -1.34641 0
M  V30 5672 H 527.653 -3.6399 0.863853 0
M  V30 5673 H 528.986 -4.79349 1.1174 0
M  V30 5674 N 530.638 -0.59345 -1.46 0
M  V30 5675 C 531.601 0.123538 -2.28867 0
M  V30 5676 C 532.601 0.808628 -1.38989 0
M  V30 5677 O 533.791 0.658945 -1.61256 0
M  V30 5678 C 530.923 1.1847 -3.19653 0
M  V30 5679 H 532.116 -0.604843 -2.93737 0
M  V30 5680 H 529.669 -0.351875 -1.52288 0
M  V30 5681 H 530.404 1.94431 -2.59552 0
M  V30 5682 H 530.189 0.69783 -3.8584 0
M  V30 5683 H 531.679 1.68726 -3.81997 0
M  V30 5684 N 532.116 1.54067 -0.331816 0
M  V30 5685 C 533.365 1.99895 0.269209 0
M  V30 5686 C 533.678 1.22371 1.52593 0
M  V30 5687 O 534.884 1.58618 2.20347 0
M  V30 5688 C 533.34 3.55972 0.530244 0
M  V30 5689 C 532.948 4.4234 -0.709901 0
M  V30 5690 C 534.692 4.10247 1.09077 0
M  V30 5691 C 532.599 5.89905 -0.420312 0
M  V30 5692 H 531.529 0.746741 0.104371 0
M  V30 5693 H 534.18 1.78014 -0.445324 0
M  V30 5694 H 532.562 3.73873 1.30518 0
M  V30 5695 H 533.736 4.36215 -1.48504 0
M  V30 5696 H 532.051 3.98997 -1.19123 0
M  V30 5697 H 534.648 5.18095 1.32219 0
M  V30 5698 H 534.991 3.62739 2.0427 0
M  V30 5699 H 535.524 3.96011 0.376824 0
M  V30 5700 H 532.263 6.41623 -1.34164 0
M  V30 5701 H 531.783 5.98962 0.316962 0
M  V30 5702 H 533.462 6.46991 -0.0331956 0
M  V30 5703 N 533.594 0.0601682 1.57485 0
M  V30 5704 C 534.524 -0.90889 2.15085 0
M  V30 5705 C 535.505 -1.31838 1.07484 0
M  V30 5706 O 536.69 -1.3915 1.35466 0
M  V30 5707 C 533.82 -2.18059 2.7031 0
M  V30 5708 C 532.774 -1.91088 3.82974 0
M  V30 5709 C 532.1 -3.24789 4.24754 0
M  V30 5710 C 533.4 -1.22535 5.07723 0
M  V30 5711 H 535.094 -0.429093 2.96309 0
M  V30 5712 H 532.64 -0.204952 1.42534 0
M  V30 5713 H 534.593 -2.86258 3.09248 0
M  V30 5714 H 533.317 -2.6826 1.8629 0
M  V30 5715 H 531.976 -1.25297 3.44523 0
M  V30 5716 H 531.624 -3.72809 3.37672 0
M  V30 5717 H 531.324 -3.07538 5.00694 0
M  V30 5718 H 532.848 -3.94205 4.66299 0
M  V30 5719 H 534.262 -1.80783 5.4405 0
M  V30 5720 H 532.659 -1.1558 5.88864 0
M  V30 5721 H 533.729 -0.202692 4.84476 0
M  V30 5722 N 535.072 -1.5615 -0.213296 0
M  V30 5723 C 536.483 -1.69645 -0.779582 0
M  V30 5724 C 536.834 -0.663615 -1.84636 0
M  V30 5725 O 535.959 0.183633 -2.15619 0
M  V30 5726 C 536.554 -3.07567 -1.42084 0
M  V30 5727 C 535.113 -3.22889 -1.93442 0
M  V30 5728 C 534.26 -2.65581 -0.797612 0
M  V30 5729 H 537.211 -1.58696 0.0114951 0
M  V30 5730 H 537.232 -3.03884 -2.28986 0
M  V30 5731 H 536.744 -3.82716 -0.644187 0
M  V30 5732 H 534.845 -2.52623 -2.73884 0
M  V30 5733 H 534.958 -4.30197 -2.10872 0
M  V30 5734 H 533.322 -2.24278 -1.20712 0
M  V30 5735 H 534.105 -3.43284 -0.033494 0
M  V30 5736 N 536.55 0.480323 -1.50102 0
M  V30 5737 C 537.46 1.60547 -1.71061 0
M  V30 5738 C 538.476 1.63564 -0.593529 0
M  V30 5739 O 539.652 1.81604 -0.870751 0
M  V30 5740 C 536.717 2.96814 -1.79171 0
M  V30 5741 C 535.778 3.04259 -3.02861 0
M  V30 5742 C 535.011 4.34027 -3.10574 0
M  V30 5743 O 535.234 5.24009 -2.25323 0
M  V30 5744 O 534.168 4.46873 -4.03223 0
M  V30 5745 H 537.994 1.45788 -2.6642 0
M  V30 5746 H 535.579 0.658838 -1.34088 0
M  V30 5747 H 537.461 3.77765 -1.86738 0
M  V30 5748 H 536.136 3.11791 -0.869947 0
M  V30 5749 H 535.043 2.22419 -3.008 0
M  V30 5750 H 536.376 2.94216 -3.94586 0
M  V30 5751 N 538.028 1.39524 0.732853 0
M  V30 5752 C 538.938 1.40695 1.87729 0
M  V30 5753 C 539.954 0.301496 1.71368 0
M  V30 5754 O 541.13 0.543313 1.93933 0
M  V30 5755 C 538.195 1.25098 3.23344 0
M  V30 5756 C 537.256 2.45634 3.52083 0
M  V30 5757 C 536.489 2.30772 4.81228 0
M  V30 5758 O 536.712 1.31233 5.55098 0
M  V30 5759 O 535.646 3.19799 5.09914 0
M  V30 5760 H 539.472 2.37168 1.89697 0
M  V30 5761 H 537.057 1.20663 0.880959 0
M  V30 5762 H 538.939 1.18541 4.04383 0
M  V30 5763 H 537.614 0.317209 3.22142 0
M  V30 5764 H 536.521 2.57767 2.71122 0
M  V30 5765 H 537.854 3.37712 3.58066 0
M  V30 5766 N 539.506 -0.963266 1.24736 0
M  V30 5767 C 540.438 -2.06162 1.0015 0
M  V30 5768 C 541.451 -1.62771 -0.0305905 0
M  V30 5769 O 542.64 -1.77296 0.206966 0
M  V30 5770 C 539.74 -3.35333 0.490385 0
M  V30 5771 C 538.913 -4.07609 1.58663 0
M  V30 5772 C 537.972 -5.15052 1.0774 0
M  V30 5773 O 536.998 -5.4098 1.77002 0
M  V30 5774 N 538.2 -5.80436 -0.0858605 0
M  V30 5775 H 540.965 -2.27825 1.94719 0
M  V30 5776 H 538.526 -1.13121 1.15825 0
M  V30 5777 H 540.518 -4.04477 0.134371 0
M  V30 5778 H 539.088 -3.10507 -0.361155 0
M  V30 5779 H 538.308 -3.32681 2.11463 0
M  V30 5780 H 539.596 -4.52656 2.32336 0
M  V30 5781 H 538.994 -5.6178 -0.664806 0
M  V30 5782 H 537.551 -6.50674 -0.382981 0
M  V30 5783 N 540.985 -1.06182 -1.16461 0
M  V30 5784 C 542.262 -0.691364 -1.82974 0
M  V30 5785 C 542.642 0.827377 -1.9421 0
M  V30 5786 O 541.99 1.73723 -1.48434 0
M  V30 5787 C 542.2 -1.39199 -3.20038 0
M  V30 5788 C 543.548 -1.53647 -3.95825 0
M  V30 5789 O 544.572 -1.35181 -3.29552 0
M  V30 5790 O 543.431 -1.83932 -5.14618 0
M  V30 5791 H 540.525 -0.244605 -0.789998 0
M  V30 5792 H 543.071 -1.16203 -1.23673 0
M  V30 5793 H 541.843 -2.42766 -3.06888 0
M  V30 5794 H 541.466 -0.911335 -3.87015 0
M  V30 5795 N 542.463 1.3308 -0.844243 0
M  V30 5796 C 543.395 2.27954 -0.238671 0
M  V30 5797 C 544.408 1.51978 0.583665 0
M  V30 5798 O 545.597 1.73731 0.409857 0
M  V30 5799 C 542.697 3.31963 0.682185 0
M  V30 5800 C 541.87 4.37281 -0.101998 0
M  V30 5801 C 540.929 5.20928 0.743022 0
M  V30 5802 O 539.955 5.68914 0.180285 0
M  V30 5803 N 541.157 5.42738 2.0595 0
M  V30 5804 H 543.922 2.8056 -1.05386 0
M  V30 5805 H 541.483 1.4583 -0.70322 0
M  V30 5806 H 543.475 3.84828 1.25259 0
M  V30 5807 H 542.045 2.79594 1.39808 0
M  V30 5808 H 541.265 3.84843 -0.853802 0
M  V30 5809 H 542.553 5.04746 -0.641015 0
M  V30 5810 H 541.951 5.05463 2.54016 0
M  V30 5811 H 540.508 5.98639 2.57827 0
M  V30 5812 N 543.941 0.601185 1.45683 0
M  V30 5813 C 544.889 -0.133955 2.32214 0
M  V30 5814 C 545.883 -0.866034 1.45589 0
M  V30 5815 O 547.089 -0.782326 1.6211 0
M  V30 5816 H 543.464 -0.0620613 0.749435 0
M  V30 5817 H 545.435 0.614389 2.92007 0
M  V30 5818 C 544.184 -1.12216 3.29094 0
M  V30 5819 H 543.507 -0.568273 3.95741 0
M  V30 5820 H 544.947 -1.60659 3.92383 0
M  V30 5821 C 543.406 -2.19251 2.55794 0
M  V30 5822 O 543.936 -3.26894 2.33459 0
M  V30 5823 N 542.142 -1.9436 2.16039 0
M  V30 5824 H 541.689 -1.06829 2.34404 0
M  V30 5825 H 541.647 -2.66181 1.67318 0
M  V30 5826 N 545.419 -1.53889 0.339982 0
M  V30 5827 C 546.649 -2.04973 -0.258738 0
M  V30 5828 C 547.057 -1.21485 -1.45045 0
M  V30 5829 O 546.4 -0.2422 -1.82096 0
M  V30 5830 C 546.462 -3.51783 -0.740853 0
M  V30 5831 C 546.126 -4.55802 0.330734 0
M  V30 5832 C 547.123 -5.06512 1.17226 0
M  V30 5833 C 544.808 -4.99966 0.483637 0
M  V30 5834 C 546.802 -5.99963 2.15227 0
M  V30 5835 C 544.489 -5.93229 1.46704 0
M  V30 5836 C 545.487 -6.43115 2.29981 0
M  V30 5837 O 545.175 -7.34545 3.26649 0
M  V30 5838 H 544.907 -0.673807 -0.0544037 0
M  V30 5839 H 547.461 -1.99492 0.489107 0
M  V30 5840 H 545.691 -3.54717 -1.53988 0
M  V30 5841 H 547.38 -3.85857 -1.25973 0
M  V30 5842 H 548.146 -4.73158 1.0652 0
M  V30 5843 H 544.025 -4.6074 -0.15471 0
M  V30 5844 H 547.569 -6.38825 2.80265 0
M  V30 5845 H 543.466 -6.25998 1.57468 0
M  V30 5846 H 544.234 -7.52468 3.22078 0
M  V30 5847 N 546.897 -0.0685191 -1.57451 0
M  V30 5848 C 548.143 0.602239 -1.93652 0
M  V30 5849 C 548.476 1.6946 -0.948526 0
M  V30 5850 O 547.751 1.94487 0.022782 0
M  V30 5851 C 548.034 1.18223 -3.4014 0
M  V30 5852 C 547.887 0.0967431 -4.49696 0
M  V30 5853 C 549.206 2.08872 -3.87377 0
M  V30 5854 H 546.325 0.217453 -0.70419 0
M  V30 5855 H 548.967 -0.133821 -1.89528 0
M  V30 5856 H 547.117 1.80953 -3.43785 0
M  V30 5857 H 548.789 -0.536155 -4.58174 0
M  V30 5858 H 547.032 -0.573063 -4.29998 0
M  V30 5859 H 547.703 0.542894 -5.49324 0
M  V30 5860 H 550.179 1.56081 -3.85717 0
M  V30 5861 H 549.055 2.46389 -4.90493 0
M  V30 5862 H 549.316 2.99572 -3.25129 0
M  V30 5863 N 548.375 1.56261 0.205012 0
M  V30 5864 C 549.615 1.81823 0.933806 0
M  V30 5865 C 549.979 0.644534 1.80858 0
M  V30 5866 O 551.18 0.779819 2.5724 0
M  V30 5867 C 549.451 3.12362 1.7368 0
M  V30 5868 S 551.01 3.59296 2.51897 0
M  V30 5869 H 547.828 0.638209 0.313386 0
M  V30 5870 H 550.43 1.94495 0.198001 0
M  V30 5871 H 549.134 3.95809 1.08459 0
M  V30 5872 H 548.665 3.02542 2.5146 0
M  V30 5873 H 550.68 3.23945 3.75864 0
M  V30 5874 N 549.853 -0.472356 1.50355 0
M  V30 5875 C 550.8 -1.57051 1.69126 0
M  V30 5876 C 551.77 -1.5733 0.532574 0
M  V30 5877 O 552.955 -1.7488 0.762994 0
M  V30 5878 C 550.095 -2.95033 1.79024 0
M  V30 5879 C 549.208 -3.04552 3.06386 0
M  V30 5880 C 548.343 -4.33441 3.07087 0
M  V30 5881 C 547.382 -4.36697 4.28908 0
M  V30 5882 N 546.519 -5.57056 4.27356 0
M  V30 5883 H 551.359 -1.40351 2.62879 0
M  V30 5884 H 548.896 -0.682403 1.30314 0
M  V30 5885 H 550.854 -3.75048 1.82744 0
M  V30 5886 H 549.484 -3.10371 0.887109 0
M  V30 5887 H 548.536 -2.17419 3.12143 0
M  V30 5888 H 549.848 -3.02818 3.96362 0
M  V30 5889 H 549.002 -5.21801 3.09529 0
M  V30 5890 H 547.741 -4.37782 2.14939 0
M  V30 5891 H 546.746 -3.46734 4.2668 0
M  V30 5892 H 547.971 -4.34049 5.22282 0
M  V30 5893 H 545.917 -5.62184 3.3806 0
M  V30 5894 H 545.834 -5.57058 5.111 0
M  V30 5895 H 547.102 -6.47545 4.33942 0
M  V30 5896 N 551.331 -1.39911 -0.725443 0
M  V30 5897 C 552.281 -1.35878 -1.83088 0
M  V30 5898 C 553.265 -0.237989 -1.5913 0
M  V30 5899 O 554.457 -0.476302 -1.70471 0
M  V30 5900 C 551.586 -1.21403 -3.21117 0
M  V30 5901 C 550.672 -2.38223 -3.50871 0
M  V30 5902 N 551.063 -3.63703 -3.51502 0
M  V30 5903 C 549.361 -2.31388 -3.81281 0
M  V30 5904 C 550.062 -4.4101 -3.79322 0
M  V30 5905 N 549.038 -3.7072 -3.97577 0
M  V30 5906 H 552.84 -2.3085 -1.81895 0
M  V30 5907 H 550.354 -1.33543 -0.924125 0
M  V30 5908 H 552.351 -1.16597 -4.00263 0
M  V30 5909 H 551.011 -0.273902 -3.23543 0
M  V30 5910 H 552.022 -3.96998 -3.32586 0
M  V30 5911 H 548.699 -1.45689 -3.91256 0
M  V30 5912 H 550.089 -5.49819 -3.86198 0
M  V30 5913 N 552.809 0.956637 -1.25245 0
M  V30 5914 C 554.037 1.73571 -1.12608 0
M  V30 5915 C 554.452 1.86063 0.320324 0
M  V30 5916 O 553.809 1.35691 1.22042 0
M  V30 5917 C 553.86 3.15053 -1.77268 0
M  V30 5918 O 553.581 3.03174 -3.16255 0
M  V30 5919 C 555.082 4.09248 -1.70386 0
M  V30 5920 H 552.302 0.543955 -0.392879 0
M  V30 5921 H 554.846 1.20031 -1.65568 0
M  V30 5922 H 553.001 3.65543 -1.28284 0
M  V30 5923 H 553.415 3.9241 -3.48015 0
M  V30 5924 H 554.889 5.06138 -2.20291 0
M  V30 5925 H 555.366 4.34102 -0.667239 0
M  V30 5926 H 555.972 3.64672 -2.18849 0
M  V30 5927 N 554.287 1.06798 1.15896 0
M  V30 5928 C 555.517 0.807522 1.90165 0
M  V30 5929 C 555.925 -0.642417 1.7796 0
M  V30 5930 O 555.268 -1.45193 1.12537 0
M  V30 5931 C 555.33 1.12939 3.41299 0
M  V30 5932 C 554.994 2.57879 3.7729 0
M  V30 5933 C 555.991 3.56118 3.78782 0
M  V30 5934 C 553.676 2.93311 4.07767 0
M  V30 5935 C 555.67 4.87827 4.10248 0
M  V30 5936 C 553.357 4.25219 4.38899 0
M  V30 5937 C 554.355 5.22287 4.4012 0
M  V30 5938 O 554.043 6.51826 4.70508 0
M  V30 5939 H 553.775 0.291946 0.609708 0
M  V30 5940 H 556.329 1.42627 1.47806 0
M  V30 5941 H 554.559 0.45359 3.84031 0
M  V30 5942 H 556.248 0.852363 3.9685 0
M  V30 5943 H 557.014 3.30086 3.55342 0
M  V30 5944 H 552.893 2.18409 4.05979 0
M  V30 5945 H 556.437 5.63586 4.11116 0
M  V30 5946 H 552.334 4.51006 4.61805 0
M  V30 5947 H 553.102 6.56893 4.88298 0
M  V30 5948 N 555.766 -1.3263 0.851289 0
M  V30 5949 C 557.012 -1.9766 0.453694 0
M  V30 5950 C 557.345 -1.67225 -0.987396 0
M  V30 5951 O 556.62 -0.958693 -1.69232 0
M  V30 5952 C 556.903 -3.5344 0.68936 0
M  V30 5953 C 556.756 -3.93517 2.17862 0
M  V30 5954 C 558.075 -4.39866 0.143555 0
M  V30 5955 H 555.194 -0.717989 0.166314 0
M  V30 5956 H 557.836 -1.57068 1.06909 0
M  V30 5957 H 555.986 -3.88147 0.165546 0
M  V30 5958 H 557.658 -3.69006 2.76826 0
M  V30 5959 H 555.901 -3.42798 2.65841 0
M  V30 5960 H 556.572 -5.02065 2.29422 0
M  V30 5961 H 559.048 -4.11875 0.591451 0
M  V30 5962 H 557.924 -5.47858 0.338043 0
M  V30 5963 H 558.185 -4.31696 -0.953466 0
M  V30 5964 N 557.244 -0.608902 -1.45362 0
M  V30 5965 C 558.521 -0.0365378 -1.95566 0
M  V30 5966 C 558.901 1.43169 -1.55131 0
M  V30 5967 O 558.249 2.1349 -0.814513 0
M  V30 5968 C 558.459 -0.236026 -3.48201 0
M  V30 5969 C 559.807 -0.117518 -4.24437 0
M  V30 5970 O 560.831 -0.166217 -3.55812 0
M  V30 5971 O 559.69 -0.00372127 -5.465 0
M  V30 5972 H 556.784 0.0349874 -0.82626 0
M  V30 5973 H 559.33 -0.679055 -1.55521 0
M  V30 5974 H 558.102 -1.25569 -3.70605 0
M  V30 5975 H 557.725 0.441691 -3.95139 0
M  V30 5976 N 558.722 1.53707 -0.348139 0
M  V30 5977 C 560.138 1.596 0.00361134 0
M  V30 5978 C 560.338 1.36394 1.4832 0
M  V30 5979 O 559.394 1.16046 2.24253 0
M  V30 5980 C 560.707 2.97512 -0.436682 0
M  V30 5981 C 562.255 3.10568 -0.389416 0
M  V30 5982 C 562.73 4.50866 -0.805249 0
M  V30 5983 N 564.221 4.56929 -0.759616 0
M  V30 5984 C 564.956 5.63643 -1.05327 0
M  V30 5985 N 564.452 6.78189 -1.41531 0
M  V30 5986 N 566.245 5.5354 -0.977207 0
M  V30 5987 H 558.396 1.67044 -1.31187 0
M  V30 5988 H 560.659 0.782559 -0.535075 0
M  V30 5989 H 560.365 3.19575 -1.46849 0
M  V30 5990 H 560.239 3.76742 0.185744 0
M  V30 5991 H 562.626 2.88226 0.633228 0
M  V30 5992 H 562.707 2.33387 -1.04711 0
M  V30 5993 H 562.351 4.73943 -1.82593 0
M  V30 5994 H 562.281 5.26452 -0.124989 0
M  V30 5995 H 564.772 3.74675 -0.49265 0
M  V30 5996 H 565.085 7.55541 -1.62411 0
M  V30 5997 H 563.43 6.79624 -1.45381 0
M  V30 5998 H 566.621 4.62932 -0.693675 0
M  V30 5999 H 566.794 6.36614 -1.2094 0
M  V30 6000 N 560.2 0.0768682 1.57412 0
M  V30 6001 C 561.448 -0.589918 1.93299 0
M  V30 6002 C 561.769 -1.69842 0.958049 0
M  V30 6003 O 561.039 -1.95899 0.00703261 0
M  V30 6004 H 559.619 -0.220901 0.713591 0
M  V30 6005 H 562.281 0.135917 1.94425 0
M  V30 6006 H 561.377 -1.01195 2.95239 0
M  V30 6007 N 561.678 -1.56367 -0.196722 0
M  V30 6008 C 562.924 -1.81698 -0.914182 0
M  V30 6009 C 563.279 -0.65367 -1.80956 0
M  V30 6010 O 562.572 0.351224 -1.88353 0
M  V30 6011 C 562.766 -3.10663 -1.767 0
M  V30 6012 C 562.595 -4.39428 -0.955689 0
M  V30 6013 C 561.365 -5.01221 -0.64076 0
M  V30 6014 C 563.563 -5.1337 -0.309165 0
M  V30 6015 N 561.545 -6.13608 0.189358 0
M  V30 6016 C 562.916 -6.18815 0.383225 0
M  V30 6017 C 564.971 -4.97393 -0.224726 0
M  V30 6018 C 563.674 -7.10015 1.15201 0
M  V30 6019 C 565.7 -5.89014 0.530658 0
M  V30 6020 C 565.062 -6.93903 1.2115 0
M  V30 6021 H 561.161 -0.716203 -0.31397 0
M  V30 6022 H 563.745 -1.93838 -0.18304 0
M  V30 6023 H 561.916 -2.99762 -2.46976 0
M  V30 6024 H 563.648 -3.24088 -2.42382 0
M  V30 6025 H 560.403 -4.63669 -0.96479 0
M  V30 6026 H 560.827 -6.74389 0.593979 0
M  V30 6027 H 565.469 -4.16331 -0.736754 0
M  V30 6028 H 563.187 -7.9054 1.67547 0
M  V30 6029 H 566.773 -5.78726 0.597326 0
M  V30 6030 H 565.653 -7.63576 1.78665 0
M  V30 6031 N 563.156 0.464375 -1.50603 0
M  V30 6032 C 564.404 1.21356 -1.61608 0
M  V30 6033 C 564.725 1.92329 -0.321643 0
M  V30 6034 O 563.995 1.84403 0.661232 0
M  V30 6035 H 562.575 0.45094 -0.595535 0
M  V30 6036 H 565.237 0.535046 -1.87412 0
M  V30 6037 H 564.333 1.95783 -2.43054 0
M  V30 6038 N 564.634 1.40294 0.718013 0
M  V30 6039 C 565.582 1.40536 1.85344 0
M  V30 6040 C 566.576 0.286192 1.66965 0
M  V30 6041 O 567.782 0.457105 1.74099 0
M  V30 6042 H 564.157 0.439236 0.61039 0
M  V30 6043 H 566.128 2.36275 1.82255 0
M  V30 6044 C 564.877 1.28245 3.23185 0
M  V30 6045 H 564.2 2.1364 3.37932 0
M  V30 6046 H 565.64 1.32474 4.02774 0
M  V30 6047 C 564.099 -0.0075503 3.36899 0
M  V30 6048 O 564.629 -0.971391 3.89778 0
M  V30 6049 N 562.835 -0.0762479 2.905 0
M  V30 6050 H 562.382 0.708819 2.47656 0
M  V30 6051 H 562.34 -0.938846 3.00055 0
M  V30 6052 N 566.112 -0.949982 1.2575 0
M  V30 6053 C 567.36 -1.6918 1.10555 0
M  V30 6054 C 567.681 -1.91773 -0.353298 0
M  V30 6055 O 566.951 -1.50814 -1.25027 0
M  V30 6056 H 565.531 -0.626952 0.406129 0
M  V30 6057 H 568.193 -1.1419 1.57945 0
M  V30 6058 H 567.289 -2.66915 1.61749 0
M  V30 6059 N 567.59 -1.07411 -1.15328 0
M  V30 6060 C 568.83 -0.807011 -1.87794 0
M  V30 6061 C 569.194 0.654987 -1.80482 0
M  V30 6062 O 570.395 1.03716 -2.47985 0
M  V30 6063 C 568.666 -1.30198 -3.32841 0
M  V30 6064 S 570.225 -1.16564 -4.23034 0
M  V30 6065 H 567.043 -0.292429 -0.648079 0
M  V30 6066 H 569.645 -1.37334 -1.39139 0
M  V30 6067 H 568.349 -2.3607 -3.35707 0
M  V30 6068 H 567.88 -0.730881 -3.86551 0
M  V30 6069 H 569.895 -0.103557 -4.96092 0
M  V30 6070 N 569.068 1.32177 -0.85831 0
M  V30 6071 C 570.316 1.96735 -0.462568 0
M  V30 6072 C 570.637 1.6824 0.985911 0
M  V30 6073 O 569.907 0.991564 1.68952 0
M  V30 6074 H 568.487 0.727849 -0.168064 0
M  V30 6075 H 571.149 1.61195 -1.09554 0
M  V30 6076 H 570.245 3.06068 -0.610647 0
M  V30 6077 N 570.547 0.616602 1.45037 0
M  V30 6078 C 571.477 -0.0840787 2.33349 0
M  V30 6079 C 572.458 -0.849641 1.4736 0
M  V30 6080 O 573.643 -0.818407 1.76113 0
M  V30 6081 C 570.773 -1.07604 3.3021 0
M  V30 6082 C 569.727 -0.423096 4.25904 0
M  V30 6083 C 569.053 -1.52394 5.12523 0
M  V30 6084 C 570.353 0.661457 5.18095 0
M  V30 6085 H 572.047 0.653333 2.92185 0
M  V30 6086 H 569.593 0.315634 1.40498 0
M  V30 6087 H 571.546 -1.57485 3.90866 0
M  V30 6088 H 570.27 -1.84416 2.69552 0
M  V30 6089 H 568.929 0.05493 3.66559 0
M  V30 6090 H 568.577 -2.28257 4.48227 0
M  V30 6091 H 568.277 -1.09251 5.77354 0
M  V30 6092 H 569.801 -2.02485 5.76049 0
M  V30 6093 H 571.215 0.246353 5.7277 0
M  V30 6094 H 569.612 1.01517 5.91451 0
M  V30 6095 H 570.682 1.53446 4.59981 0
M  V30 6096 N 572.025 -1.5352 0.356285 0
M  V30 6097 C 573.272 -2.01117 -0.236303 0
M  V30 6098 C 573.6 -1.24381 -1.49531 0
M  V30 6099 O 572.855 -0.323057 -1.93015 0
M  V30 6100 C 573.154 -3.52607 -0.583369 0
M  V30 6101 C 572.82 -4.47151 0.58023 0
M  V30 6102 C 571.482 -4.72718 0.899528 0
M  V30 6103 C 573.834 -5.03137 1.36024 0
M  V30 6104 C 571.162 -5.51523 2.00098 0
M  V30 6105 C 573.514 -5.83145 2.45204 0
M  V30 6106 C 572.178 -6.07001 2.77679 0
M  V30 6107 H 571.448 -0.735938 -0.0864695 0
M  V30 6108 H 574.095 -1.85209 0.48683 0
M  V30 6109 H 572.4 -3.66413 -1.38739 0
M  V30 6110 H 574.097 -3.86901 -1.05397 0
M  V30 6111 H 570.687 -4.27394 0.321322 0
M  V30 6112 H 574.871 -4.83339 1.12682 0
M  V30 6113 H 570.127 -5.68229 2.25668 0
M  V30 6114 H 574.301 -6.25537 3.06067 0
M  V30 6115 H 571.928 -6.67851 3.63151 0
M  V30 6116 N 573.503 -0.0852151 -1.57369 0
M  V30 6117 C 574.751 0.579658 -1.93609 0
M  V30 6118 C 575.072 1.69332 -0.967043 0
M  V30 6119 O 574.342 1.95892 -0.0174215 0
M  V30 6120 H 572.922 0.217113 -0.714752 0
M  V30 6121 H 575.584 -0.146226 -1.94351 0
M  V30 6122 H 574.68 0.996276 -2.95771 0
M  V30 6123 N 574.981 1.5647 0.188427 0
M  V30 6124 C 575.928 1.95073 1.23349 0
M  V30 6125 C 576.898 0.812238 1.44886 0
M  V30 6126 O 578.083 1.07095 1.57909 0
M  V30 6127 C 575.223 2.30124 2.57171 0
M  V30 6128 C 574.336 3.57069 2.43157 0
M  V30 6129 C 573.471 3.81411 3.69729 0
M  V30 6130 C 572.51 5.0176 3.50575 0
M  V30 6131 N 571.647 5.22321 4.69175 0
M  V30 6132 H 576.487 2.84171 0.89728 0
M  V30 6133 H 574.024 1.40623 0.431683 0
M  V30 6134 H 575.982 2.48463 3.35145 0
M  V30 6135 H 574.612 1.44159 2.88822 0
M  V30 6136 H 573.664 3.4674 1.56447 0
M  V30 6137 H 574.976 4.452 2.24942 0
M  V30 6138 H 574.13 4.00026 4.56141 0
M  V30 6139 H 572.869 2.91624 3.90905 0
M  V30 6140 H 571.874 4.83061 2.62549 0
M  V30 6141 H 573.099 5.93063 3.30837 0
M  V30 6142 H 571.045 4.35483 4.90602 0
M  V30 6143 H 570.962 6.04643 4.53809 0
M  V30 6144 H 572.23 5.45401 5.56919 0
M  V30 6145 N 576.459 -0.456382 1.50847 0
M  V30 6146 C 577.707 -1.20497 1.62249 0
M  V30 6147 C 578.028 -1.92156 0.331839 0
M  V30 6148 O 577.298 -1.84751 -0.651443 0
M  V30 6149 H 575.878 -0.447775 0.597918 0
M  V30 6150 H 578.54 -0.525099 1.87693 0
M  V30 6151 H 577.636 -1.94492 2.44089 0
M  V30 6152 N 577.937 -1.40673 -0.710563 0
M  V30 6153 C 579.162 -1.42741 -1.50465 0
M  V30 6154 C 579.587 -0.0302116 -1.88076 0
M  V30 6155 O 578.945 0.962945 -1.53613 0
M  V30 6156 C 578.993 -2.32873 -2.75322 0
M  V30 6157 O 578.097 -1.77544 -3.72226 0
M  V30 6158 H 577.438 -0.485056 -0.45345 0
M  V30 6159 H 579.968 -1.84961 -0.874681 0
M  V30 6160 H 579.978 -2.48233 -3.23797 0
M  V30 6161 H 578.653 -3.34401 -2.47283 0
M  V30 6162 H 577.23 -1.71556 -3.31093 0
M  V30 6163 N 579.415 0.9433 -1.26252 0
M  V30 6164 C 580.345 2.05902 -1.10122 0
M  V30 6165 C 581.326 1.70099 -0.00700552 0
M  V30 6166 O 582.511 1.93377 -0.178641 0
M  V30 6167 C 579.641 3.39516 -0.731175 0
M  V30 6168 C 578.595 3.89372 -1.77688 0
M  V30 6169 C 577.921 5.19613 -1.26122 0
M  V30 6170 C 579.221 4.14489 -3.17799 0
M  V30 6171 H 580.915 2.19655 -2.03451 0
M  V30 6172 H 578.461 1.05548 -0.979576 0
M  V30 6173 H 580.414 4.17031 -0.605215 0
M  V30 6174 H 579.138 3.25733 0.23782 0
M  V30 6175 H 577.797 3.14036 -1.89148 0
M  V30 6176 H 577.445 5.02208 -0.282128 0
M  V30 6177 H 577.145 5.53939 -1.96023 0
M  V30 6178 H 578.669 5.99713 -1.14789 0
M  V30 6179 H 580.083 4.82625 -3.09428 0
M  V30 6180 H 578.48 4.60094 -3.85271 0
M  V30 6181 H 579.55 3.20347 -3.64014 0
M  V30 6182 N 580.893 1.08022 1.14757 0
M  V30 6183 C 582.139 0.808705 1.85978 0
M  V30 6184 C 582.472 -0.663764 1.82504 0
M  V30 6185 O 581.747 -1.48765 1.25296 0
M  V30 6186 C 582.03 1.32623 3.34788 0
M  V30 6187 C 581.883 2.86375 3.46856 0
M  V30 6188 C 583.202 0.948291 4.29762 0
M  V30 6189 H 580.321 0.295244 0.675278 0
M  V30 6190 H 582.963 1.33917 1.34783 0
M  V30 6191 H 581.113 0.875002 3.78518 0
M  V30 6192 H 582.785 3.39839 3.11941 0
M  V30 6193 H 581.028 3.24232 2.88194 0
M  V30 6194 H 581.699 3.17658 4.51439 0
M  V30 6195 H 584.175 1.33722 3.94028 0
M  V30 6196 H 583.051 1.33765 5.32352 0
M  V30 6197 H 583.312 -0.145094 4.41862 0
M  V30 6198 N 582.371 -1.3172 0.865308 0
M  V30 6199 C 583.599 -2.01057 0.488251 0
M  V30 6200 C 584.014 -1.64979 -0.918 0
M  V30 6201 O 583.371 -0.876597 -1.60069 0
M  V30 6202 C 583.422 -3.55964 0.630224 0
M  V30 6203 O 583.143 -3.90749 1.98109 0
M  V30 6204 C 584.644 -4.42574 0.253567 0
M  V30 6205 H 581.864 -0.64332 0.190736 0
M  V30 6206 H 584.408 -1.68058 1.16519 0
M  V30 6207 H 582.563 -3.874 0.000895422 0
M  V30 6208 H 582.977 -4.85467 1.9855 0
M  V30 6209 H 584.451 -5.50521 0.403875 0
M  V30 6210 H 584.928 -4.31724 -0.806895 0
M  V30 6211 H 585.534 -4.16547 0.858404 0
M  V30 6212 N 583.85 -0.624285 -1.44708 0
M  V30 6213 C 585.09 -0.129273 -2.03991 0
M  V30 6214 C 585.454 1.22321 -1.47992 0
M  V30 6215 O 586.654 1.80993 -1.98734 0
M  V30 6216 C 584.926 -0.108231 -3.57236 0
M  V30 6217 S 586.485 0.323158 -4.37608 0
M  V30 6218 H 583.303 -0.0577318 -0.708652 0
M  V30 6219 H 585.904 -0.826139 -1.77187 0
M  V30 6220 H 584.609 -1.0958 -3.955 0
M  V30 6221 H 584.139 0.610101 -3.8864 0
M  V30 6222 H 586.154 1.56894 -4.70743 0
M  V30 6223 N 585.328 1.53329 -0.364422 0
M  V30 6224 C 586.291 2.24323 0.470292 0
M  V30 6225 C 587.291 1.25068 1.01067 0
M  V30 6226 O 588.481 1.49354 0.896605 0
M  V30 6227 C 585.613 2.97908 1.65722 0
M  V30 6228 H 586.806 2.9952 -0.150917 0
M  V30 6229 H 584.359 1.55868 -0.116092 0
M  V30 6230 H 585.094 2.2695 2.31655 0
M  V30 6231 H 584.879 3.70732 1.27671 0
M  V30 6232 H 586.369 3.5188 2.24878 0
M  V30 6233 N 586.806 0.0935595 1.57322 0
M  V30 6234 C 587.753 -0.865935 2.1394 0
M  V30 6235 C 588.723 -1.28083 1.05754 0
M  V30 6236 O 589.908 -1.36285 1.33533 0
M  V30 6237 C 587.048 -2.12023 2.72287 0
M  V30 6238 C 586.161 -1.756 3.94701 0
M  V30 6239 C 585.296 -2.95804 4.41218 0
M  V30 6240 C 584.335 -2.555 5.56225 0
M  V30 6241 N 583.472 -3.68534 5.97601 0
M  V30 6242 H 588.312 -0.376261 2.95615 0
M  V30 6243 H 585.849 -0.174052 1.46067 0
M  V30 6244 H 587.807 -2.85477 3.04235 0
M  V30 6245 H 586.437 -2.58492 1.93343 0
M  V30 6246 H 585.489 -0.921208 3.69077 0
M  V30 6247 H 586.801 -1.41964 4.78171 0
M  V30 6248 H 585.955 -3.77513 4.74941 0
M  V30 6249 H 584.694 -3.32649 3.56645 0
M  V30 6250 H 583.699 -1.72218 5.22131 0
M  V30 6251 H 584.924 -2.19801 6.42545 0
M  V30 6252 H 582.87 -4.051 5.15974 0
M  V30 6253 H 582.787 -3.38737 6.75865 0
M  V30 6254 H 584.055 -4.50757 6.35955 0
M  V30 6255 N 588.284 -1.56567 -0.180126 0
M  V30 6256 C 589.531 -1.81492 -0.898167 0
M  V30 6257 C 589.859 -0.669225 -1.82624 0
M  V30 6258 O 589.114 0.344096 -1.92651 0
M  V30 6259 C 589.413 -3.1252 -1.73395 0
M  V30 6260 C 589.079 -4.40658 -0.955567 0
M  V30 6261 C 587.741 -4.75465 -0.740707 0
M  V30 6262 C 590.093 -5.19593 -0.408948 0
M  V30 6263 C 587.421 -5.86691 0.0320128 0
M  V30 6264 C 589.773 -6.31627 0.350638 0
M  V30 6265 C 588.437 -6.65007 0.576378 0
M  V30 6266 H 587.707 -0.664125 -0.328662 0
M  V30 6267 H 590.354 -1.908 -0.163616 0
M  V30 6268 H 588.659 -2.98515 -2.53763 0
M  V30 6269 H 590.356 -3.29013 -2.29241 0
M  V30 6270 H 586.946 -4.13352 -1.13306 0
M  V30 6271 H 591.13 -4.93104 -0.562307 0
M  V30 6272 H 586.386 -6.11016 0.216735 0
M  V30 6273 H 590.56 -6.92001 0.781497 0
M  V30 6274 H 588.187 -7.51033 1.17703 0
M  V30 6275 N 589.762 0.448376 -1.51087 0
M  V30 6276 C 590.694 1.56146 -1.67783 0
M  V30 6277 C 591.707 1.52913 -0.55871 0
M  V30 6278 O 592.896 1.57889 -0.83267 0
M  V30 6279 C 589.996 2.95057 -1.66716 0
M  V30 6280 C 589.169 3.22915 -2.95033 0
M  V30 6281 C 588.228 4.41495 -2.86302 0
M  V30 6282 O 587.254 4.40688 -3.60254 0
M  V30 6283 N 588.456 5.44443 -2.014 0
M  V30 6284 H 591.221 1.42232 -2.638 0
M  V30 6285 H 588.782 0.637153 -1.48835 0
M  V30 6286 H 590.774 3.72388 -1.58458 0
M  V30 6287 H 589.344 3.02624 -0.783403 0
M  V30 6288 H 588.564 2.33985 -3.17245 0
M  V30 6289 H 589.852 3.38349 -3.79996 0
M  V30 6290 H 589.25 5.4793 -1.40674 0
M  V30 6291 H 587.807 6.2067 -1.99029 0
M  V30 6292 N 591.24 1.41047 0.703093 0
M  V30 6293 C 592.48 1.41461 1.4754 0
M  V30 6294 C 592.844 0.0199013 1.9199 0
M  V30 6295 O 594.045 -0.101138 2.6861 0
M  V30 6296 C 592.316 2.38703 2.66 0
M  V30 6297 S 593.875 2.57582 3.55242 0
M  V30 6298 H 590.693 0.501226 0.504275 0
M  V30 6299 H 593.295 1.77422 0.821074 0
M  V30 6300 H 591.999 3.3885 2.31536 0
M  V30 6301 H 591.53 2.04069 3.36333 0
M  V30 6302 H 593.545 1.83758 4.6092 0
M  V30 6303 N 592.718 -0.936591 1.26751 0
M  V30 6304 C 593.648 -2.05315 1.11212 0
M  V30 6305 C 594.629 -1.70092 0.0160262 0
M  V30 6306 O 595.814 -1.93279 0.188894 0
M  V30 6307 C 592.944 -3.39123 0.749171 0
M  V30 6308 C 591.898 -3.88425 1.79751 0
M  V30 6309 C 591.224 -5.18936 1.28876 0
M  V30 6310 C 592.524 -4.12798 3.19992 0
M  V30 6311 H 594.218 -2.18573 2.04613 0
M  V30 6312 H 591.764 -1.05027 0.985159 0
M  V30 6313 H 593.717 -4.16704 0.627323 0
M  V30 6314 H 592.441 -3.25855 -0.220543 0
M  V30 6315 H 591.1 -3.13028 1.90811 0
M  V30 6316 H 590.748 -5.02051 0.308757 0
M  V30 6317 H 590.448 -5.52892 1.98958 0
M  V30 6318 H 591.972 -5.99096 1.17967 0
M  V30 6319 H 593.386 -4.80977 3.11983 0
M  V30 6320 H 591.783 -4.58044 3.87705 0
M  V30 6321 H 592.853 -3.18412 3.65707 0
M  V30 6322 N 594.196 -1.08629 -1.14182 0
M  V30 6323 C 595.106 -0.730126 -2.22949 0
M  V30 6324 C 596.122 0.26436 -1.7198 0
M  V30 6325 O 597.298 0.107742 -2.01112 0
M  V30 6326 C 594.363 -0.147227 -3.46387 0
M  V30 6327 C 593.424 -1.19662 -4.12286 0
M  V30 6328 C 592.657 -0.641437 -5.29831 0
M  V30 6329 O 592.88 0.538351 -5.67854 0
M  V30 6330 O 591.814 -1.39257 -5.85569 0
M  V30 6331 H 595.64 -1.63753 -2.55771 0
M  V30 6332 H 593.225 -0.860118 -1.22157 0
M  V30 6333 H 595.107 0.174923 -4.21037 0
M  V30 6334 H 593.782 0.733304 -3.15285 0
M  V30 6335 H 592.689 -1.57133 -3.395 0
M  V30 6336 H 594.022 -2.0495 -4.475 0
M  V30 6337 N 595.674 1.31259 -0.872281 0
M  V30 6338 C 596.899 2.0133 -0.498099 0
M  V30 6339 C 597.324 1.65031 0.902568 0
M  V30 6340 O 596.682 0.860164 1.59596 0
M  V30 6341 C 596.73 3.54411 -0.665205 0
M  V30 6342 O 595.834 4.11347 0.294473 0
M  V30 6343 H 595.175 0.633844 -0.197832 0
M  V30 6344 H 597.705 1.67402 -1.17633 0
M  V30 6345 H 597.715 4.04147 -0.559373 0
M  V30 6346 H 596.39 3.80171 -1.68651 0
M  V30 6347 H 594.967 3.72624 0.143403 0
M  V30 6348 N 597.152 0.631951 1.44375 0
M  V30 6349 C 598.401 0.134214 2.01253 0
M  V30 6350 C 598.714 -1.25171 1.50305 0
M  V30 6351 O 599.92 -1.8435 1.99317 0
M  V30 6352 C 598.376 0.189187 3.59402 0
M  V30 6353 C 597.984 1.57647 4.19346 0
M  V30 6354 C 599.728 -0.252044 4.23751 0
M  V30 6355 C 597.635 1.58651 5.69722 0
M  V30 6356 H 596.565 0.0464101 0.75257 0
M  V30 6357 H 599.216 0.790868 1.65582 0
M  V30 6358 H 597.598 -0.534584 3.92375 0
M  V30 6359 H 598.772 2.32389 3.97909 0
M  V30 6360 H 597.087 1.96186 3.67288 0
M  V30 6361 H 599.684 -0.264084 5.34047 0
M  V30 6362 H 600.027 -1.27951 3.96149 0
M  V30 6363 H 600.56 0.41926 3.95584 0
M  V30 6364 H 597.299 2.59237 6.0206 0
M  V30 6365 H 596.819 0.882039 5.93279 0
M  V30 6366 H 598.498 1.32082 6.33375 0
M  V30 6367 N 598.631 -1.53133 0.372548 0
M  V30 6368 C 599.541 -2.29671 -0.478379 0
M  V30 6369 C 600.557 -1.35913 -1.08644 0
M  V30 6370 O 601.733 -1.68975 -1.09588 0
M  V30 6371 C 598.798 -3.07625 -1.599 0
M  V30 6372 C 597.859 -4.17061 -1.01776 0
M  V30 6373 C 597.092 -4.91289 -2.08497 0
M  V30 6374 O 597.315 -4.65442 -3.29727 0
M  V30 6375 O 596.249 -5.7705 -1.71164 0
M  V30 6376 H 600.075 -3.03355 0.144649 0
M  V30 6377 H 597.66 -1.48773 0.136729 0
M  V30 6378 H 599.542 -3.56281 -2.25038 0
M  V30 6379 H 598.217 -2.3677 -2.2073 0
M  V30 6380 H 597.124 -3.72641 -0.330098 0
M  V30 6381 H 598.457 -4.90102 -0.453915 0
M  V30 6382 N 600.109 -0.101901 -1.5727 0
M  V30 6383 C 601.357 0.559091 -1.94213 0
M  V30 6384 C 601.678 1.68297 -0.984948 0
M  V30 6385 O 600.948 1.95863 -0.0381975 0
M  V30 6386 H 599.528 0.20952 -0.717015 0
M  V30 6387 H 602.19 -0.166831 -1.94185 0
M  V30 6388 H 601.286 0.96485 -2.96811 0
M  V30 6389 N 601.587 1.56661 0.17182 0
M  V30 6390 C 602.534 1.96371 1.21273 0
M  V30 6391 C 603.504 0.82756 1.44016 0
M  V30 6392 O 604.689 1.08764 1.56764 0
M  V30 6393 C 601.829 2.32838 2.54716 0
M  V30 6394 C 600.942 3.59628 2.39356 0
M  V30 6395 C 600.077 3.85311 3.65662 0
M  V30 6396 C 599.116 5.0545 3.45234 0
M  V30 6397 N 598.253 5.27268 4.63608 0
M  V30 6398 H 603.093 2.85106 0.86709 0
M  V30 6399 H 600.63 1.41073 0.416744 0
M  V30 6400 H 602.588 2.52004 3.3249 0
M  V30 6401 H 601.218 1.47214 2.87277 0
M  V30 6402 H 600.27 3.4838 1.52761 0
M  V30 6403 H 601.582 4.4756 2.20207 0
M  V30 6404 H 600.736 4.04841 4.51872 0
M  V30 6405 H 599.475 2.95753 3.8779 0
M  V30 6406 H 598.48 4.85819 2.5741 0
M  V30 6407 H 599.705 5.96538 3.24529 0
M  V30 6408 H 597.651 4.40662 4.85956 0
M  V30 6409 H 597.568 6.09422 4.4737 0
M  V30 6410 H 598.836 5.51277 5.51103 0
M  V30 6411 N 603.065 -0.440357 1.51323 0
M  V30 6412 C 604.311 -1.19181 1.64085 0
M  V30 6413 C 604.644 -1.90936 0.354575 0
M  V30 6414 O 603.919 -1.8347 -0.645675 0
M  V30 6415 C 604.202 -2.2112 2.84215 0
M  V30 6416 C 604.055 -1.53468 4.22809 0
M  V30 6417 C 605.374 -3.22133 2.99864 0
M  V30 6418 H 602.493 -0.431924 0.597169 0
M  V30 6419 H 605.135 -0.481443 1.83799 0
M  V30 6420 H 603.285 -2.81703 2.67537 0
M  V30 6421 H 604.957 -0.962455 4.51148 0
M  V30 6422 H 603.2 -0.837086 4.25647 0
M  V30 6423 H 603.871 -2.27694 5.02852 0
M  V30 6424 H 606.347 -2.71601 3.15233 0
M  V30 6425 H 605.223 -3.90756 3.85488 0
M  V30 6426 H 605.484 -3.88061 2.11804 0
M  V30 6427 N 604.543 -1.41418 -0.695603 0
M  V30 6428 C 605.789 -1.40982 -1.4578 0
M  V30 6429 C 606.122 -0.0187763 -1.94191 0
M  V30 6430 O 605.397 0.95346 -1.69527 0
M  V30 6431 C 605.68 -2.41657 -2.66972 0
M  V30 6432 C 605.533 -3.89869 -2.24327 0
M  V30 6433 C 606.852 -2.39589 -3.69168 0
M  V30 6434 H 603.971 -0.513405 -0.528757 0
M  V30 6435 H 606.613 -1.72693 -0.792275 0
M  V30 6436 H 604.763 -2.14746 -3.23754 0
M  V30 6437 H 606.435 -4.27683 -1.72872 0
M  V30 6438 H 604.678 -4.04737 -1.56111 0
M  V30 6439 H 605.349 -4.55857 -3.11285 0
M  V30 6440 H 607.825 -2.63471 -3.2206 0
M  V30 6441 H 606.701 -3.12044 -4.51575 0
M  V30 6442 H 606.962 -1.41447 -4.18862 0
M  V30 6443 N 606.021 0.929856 -1.27246 0
M  V30 6444 C 606.953 2.03434 -1.0558 0
M  V30 6445 C 607.966 1.62795 -0.0125762 0
M  V30 6446 O 609.155 1.76685 -0.2539 0
M  V30 6447 C 606.255 3.33915 -0.57912 0
M  V30 6448 C 605.428 4.03259 -1.69415 0
M  V30 6449 C 604.487 5.12014 -1.21357 0
M  V30 6450 O 603.513 5.36097 -1.91282 0
M  V30 6451 N 604.715 5.8046 -0.0680622 0
M  V30 6452 H 607.48 2.22583 -2.00691 0
M  V30 6453 H 605.041 1.1001 -1.18783 0
M  V30 6454 H 607.033 4.03978 -0.241563 0
M  V30 6455 H 605.603 3.11355 0.278703 0
M  V30 6456 H 604.823 3.26958 -2.20209 0
M  V30 6457 H 606.111 4.46337 -2.44255 0
M  V30 6458 H 605.509 5.63345 0.515626 0
M  V30 6459 H 604.066 6.51461 0.210332 0
M  V30 6460 N 607.499 1.09233 1.13605 0
M  V30 6461 C 608.449 0.6994 2.17008 0
M  V30 6462 C 609.433 -0.285238 1.58352 0
M  V30 6463 O 610.625 -0.09592 1.7674 0
M  V30 6464 C 607.754 0.11938 3.43092 0
M  V30 6465 C 606.84 1.13031 4.0876 0
M  V30 6466 N 607.231 2.31673 4.49623 0
M  V30 6467 C 605.529 0.967999 4.35369 0
M  V30 6468 C 606.23 2.95964 5.00779 0
M  V30 6469 N 605.206 2.23534 4.95513 0
M  V30 6470 H 609.008 1.60272 2.46354 0
M  V30 6471 H 606.522 0.968257 1.30378 0
M  V30 6472 H 608.519 -0.180122 4.16511 0
M  V30 6473 H 607.179 -0.778816 3.15221 0
M  V30 6474 H 608.19 2.69277 4.42391 0
M  V30 6475 H 604.867 0.124319 4.17315 0
M  V30 6476 H 606.257 3.96813 5.42208 0
M  V30 6477 N 608.977 -1.30795 0.87923 0
M  V30 6478 C 609.887 -2.32041 0.345565 0
M  V30 6479 C 610.903 -1.65103 -0.549265 0
M  V30 6480 O 612.079 -1.9645 -0.443763 0
M  V30 6481 C 609.144 -3.43944 -0.436245 0
M  V30 6482 C 608.205 -4.26521 0.48765 0
M  V30 6483 C 607.438 -5.33081 -0.256943 0
M  V30 6484 O 607.661 -5.50762 -1.48381 0
M  V30 6485 O 606.595 -6.00635 0.389985 0
M  V30 6486 H 610.421 -2.79627 1.18501 0
M  V30 6487 H 608.006 -1.3486 0.642885 0
M  V30 6488 H 609.888 -4.12128 -0.879119 0
M  V30 6489 H 608.563 -2.98504 -1.25208 0
M  V30 6490 H 607.47 -3.61057 0.979216 0
M  V30 6491 H 608.803 -4.75551 1.26933 0
M  V30 6492 N 610.455 -0.639598 -1.44038 0
M  V30 6493 C 611.403 0.0723409 -2.32487 0
M  V30 6494 C 612.397 0.827129 -1.47834 0
M  V30 6495 O 613.603 0.73907 -1.64127 0
M  V30 6496 H 609.978 0.0421696 -0.750817 0
M  V30 6497 H 611.949 -0.691593 -2.90275 0
M  V30 6498 C 610.698 1.03452 -3.31953 0
M  V30 6499 H 610.021 0.46315 -3.97108 0
M  V30 6500 H 611.461 1.502 -3.96505 0
M  V30 6501 C 609.92 2.12392 -2.61518 0
M  V30 6502 O 610.45 3.2059 -2.42044 0
M  V30 6503 N 608.656 1.88563 -2.21116 0
M  V30 6504 H 608.203 1.00577 -2.37154 0
M  V30 6505 H 608.161 2.61651 -1.74316 0
M  V30 6506 N 611.933 1.52934 -0.380664 0
M  V30 6507 C 612.863 2.29118 0.450268 0
M  V30 6508 C 613.844 1.32153 1.07096 0
M  V30 6509 O 615.029 1.61038 1.08537 0
M  V30 6510 C 612.159 3.09161 1.58231 0
M  V30 6511 C 611.113 4.13938 1.0881 0
M  V30 6512 C 610.439 4.82153 2.31155 0
M  V30 6513 C 611.739 5.22048 0.162146 0
M  V30 6514 H 613.433 2.98826 -0.185361 0
M  V30 6515 H 610.979 1.43715 -0.0905886 0
M  V30 6516 H 612.932 3.61211 2.17036 0
M  V30 6517 H 611.656 2.3717 2.2454 0
M  V30 6518 H 610.315 3.62855 0.522633 0
M  V30 6519 H 609.963 4.06719 2.95953 0
M  V30 6520 H 609.663 5.52966 1.98752 0
M  V30 6521 H 611.187 5.37004 2.90618 0
M  V30 6522 H 612.601 5.6951 0.658126 0
M  V30 6523 H 610.998 6.00057 -0.0717122 0
M  V30 6524 H 612.068 4.78398 -0.791438 0
M  V30 6525 N 613.412 0.11024 1.57214 0
M  V30 6526 C 614.359 -0.843195 2.14846 0
M  V30 6527 C 615.329 -1.26954 1.07107 0
M  V30 6528 O 616.514 -1.34861 1.34971 0
M  V30 6529 C 613.654 -2.09123 2.74521 0
M  V30 6530 C 612.767 -1.71404 3.96541 0
M  V30 6531 C 611.902 -2.91107 4.44331 0
M  V30 6532 C 610.941 -2.49586 5.58903 0
M  V30 6533 N 610.078 -3.62175 6.01477 0
M  V30 6534 H 614.918 -0.344886 2.95998 0
M  V30 6535 H 612.455 -0.15855 1.46243 0
M  V30 6536 H 614.413 -2.82234 3.07246 0
M  V30 6537 H 613.043 -2.56427 1.96074 0
M  V30 6538 H 612.095 -0.88201 3.70033 0
M  V30 6539 H 613.407 -1.36884 4.7965 0
M  V30 6540 H 612.561 -3.72454 4.78919 0
M  V30 6541 H 611.3 -3.28848 3.60153 0
M  V30 6542 H 610.305 -1.6667 5.23929 0
M  V30 6543 H 611.53 -2.12973 6.4484 0
M  V30 6544 H 609.476 -3.99605 5.20242 0
M  V30 6545 H 609.393 -3.3155 6.79419 0
M  V30 6546 H 610.661 -4.43987 6.407 0
M  V30 6547 N 614.89 -1.56749 -0.16351 0
M  V30 6548 C 616.12 -1.86307 -0.892936 0
M  V30 6549 C 616.528 -0.6945 -1.75992 0
M  V30 6550 O 615.871 0.345384 -1.80424 0
M  V30 6551 C 615.933 -3.10372 -1.81409 0
M  V30 6552 C 615.597 -4.42913 -1.12593 0
M  V30 6553 C 616.594 -5.17608 -0.487661 0
M  V30 6554 C 614.279 -4.89646 -1.12035 0
M  V30 6555 C 616.273 -6.3723 0.14699 0
M  V30 6556 C 613.96 -6.09197 -0.481883 0
M  V30 6557 C 614.958 -6.82834 0.150678 0
M  V30 6558 O 614.646 -8.00116 0.779065 0
M  V30 6559 H 614.378 -0.622126 -0.264452 0
M  V30 6560 H 616.932 -2.04728 -0.166063 0
M  V30 6561 H 615.162 -2.87917 -2.58148 0
M  V30 6562 H 616.851 -3.26312 -2.41403 0
M  V30 6563 H 617.617 -4.8258 -0.483888 0
M  V30 6564 H 613.496 -4.32265 -1.60212 0
M  V30 6565 H 617.04 -6.94646 0.641325 0
M  V30 6566 H 612.937 -6.43688 -0.483266 0
M  V30 6567 H 613.705 -8.15678 0.679089 0
M  V30 6568 N 616.368 0.432326 -1.51554 0
M  V30 6569 C 617.596 1.20364 -1.68286 0
M  V30 6570 C 618.011 1.84888 -0.38233 0
M  V30 6571 O 617.368 1.70924 0.639627 0
M  V30 6572 C 617.419 2.28398 -2.80208 0
M  V30 6573 O 617.14 1.66512 -4.05223 0
M  V30 6574 C 618.641 3.18584 -3.08251 0
M  V30 6575 H 615.861 0.36259 -0.564596 0
M  V30 6576 H 618.405 0.511647 -1.97996 0
M  V30 6577 H 616.56 2.93305 -2.53083 0
M  V30 6578 H 616.974 2.37951 -4.67418 0
M  V30 6579 H 618.448 3.90511 -3.90135 0
M  V30 6580 H 618.925 3.79628 -2.2086 0
M  V30 6581 H 619.531 2.59372 -3.37055 0
M  V30 6582 N 617.846 1.41785 0.688094 0
M  V30 6583 C 619.092 1.41753 1.4503 0
M  V30 6584 C 619.425 0.0290745 1.94178 0
M  V30 6585 O 618.7 -0.944456 1.7003 0
M  V30 6586 C 618.983 2.43069 2.65686 0
M  V30 6587 C 618.836 3.91053 2.22256 0
M  V30 6588 C 620.155 2.41543 3.67893 0
M  V30 6589 H 617.274 0.516202 0.526027 0
M  V30 6590 H 619.916 1.73111 0.783105 0
M  V30 6591 H 618.066 2.1646 3.2261 0
M  V30 6592 H 619.738 4.28594 1.70602 0
M  V30 6593 H 617.981 4.05559 1.53963 0
M  V30 6594 H 618.652 4.57501 3.08863 0
M  V30 6595 H 621.128 2.65175 3.20658 0
M  V30 6596 H 620.004 3.14434 4.49914 0
M  V30 6597 H 620.265 1.43666 4.18106 0
M  V30 6598 N 619.324 -0.923095 1.27737 0
M  V30 6599 C 620.573 -1.66581 1.13727 0
M  V30 6600 C 620.886 -1.9304 -0.315433 0
M  V30 6601 O 622.092 -2.65309 -0.57651 0
M  V30 6602 C 620.548 -3.00047 1.98745 0
M  V30 6603 C 620.156 -2.8127 3.48699 0
M  V30 6604 C 621.9 -3.77887 1.93395 0
M  V30 6605 C 619.807 -4.1032 4.25901 0
M  V30 6606 H 618.737 -0.624834 0.422017 0
M  V30 6607 H 621.388 -1.02514 1.52194 0
M  V30 6608 H 619.77 -3.65197 1.53125 0
M  V30 6609 H 620.944 -2.24859 4.02213 0
M  V30 6610 H 619.259 -2.16854 3.55476 0
M  V30 6611 H 621.856 -4.73526 2.48348 0
M  V30 6612 H 622.199 -4.06264 0.908605 0
M  V30 6613 H 622.732 -3.19541 2.36935 0
M  V30 6614 H 619.471 -3.8712 5.28978 0
M  V30 6615 H 618.991 -4.66377 3.77163 0
M  V30 6616 H 620.67 -4.78648 4.35321 0
M  V30 6617 N 620.802 -1.09834 -1.13024 0
M  V30 6618 C 622.051 -0.831806 -1.83749 0
M  V30 6619 C 622.364 0.644763 -1.84668 0
M  V30 6620 O 623.57 1.02697 -2.51327 0
M  V30 6621 C 622.026 -1.43817 -3.29916 0
M  V30 6622 C 621.634 -2.94759 -3.37374 0
M  V30 6623 C 623.378 -1.25077 -4.05655 0
M  V30 6624 C 621.285 -3.48461 -4.77838 0
M  V30 6625 H 620.215 -0.30751 -0.688443 0
M  V30 6626 H 622.866 -1.32156 -1.27307 0
M  V30 6627 H 621.248 -0.876106 -3.86187 0
M  V30 6628 H 622.422 -3.57228 -2.91076 0
M  V30 6629 H 620.737 -3.12581 -2.75103 0
M  V30 6630 H 623.334 -1.62649 -5.09362 0
M  V30 6631 H 623.677 -0.191782 -4.15858 0
M  V30 6632 H 624.21 -1.78057 -3.55725 0
M  V30 6633 H 620.949 -4.53998 -4.72828 0
M  V30 6634 H 620.469 -2.90757 -5.24615 0
M  V30 6635 H 622.148 -3.45914 -5.46766 0
M  V30 6636 N 622.28 1.30327 -0.886154 0
M  V30 6637 C 623.508 2.00254 -0.520176 0
M  V30 6638 C 623.923 1.66419 0.891637 0
M  V30 6639 O 623.28 0.901951 1.58654 0
M  V30 6640 C 623.331 3.54916 -0.686775 0
M  V30 6641 O 623.052 3.87547 -2.04301 0
M  V30 6642 C 624.553 4.42115 -0.323945 0
M  V30 6643 H 621.773 0.640204 -0.200947 0
M  V30 6644 H 624.317 1.66183 -1.19178 0
M  V30 6645 H 622.472 3.8735 -0.0625273 0
M  V30 6646 H 622.886 4.82247 -2.06249 0
M  V30 6647 H 624.36 5.49808 -0.491407 0
M  V30 6648 H 624.837 4.32953 0.73811 0
M  V30 6649 H 625.443 4.15129 -0.924565 0
M  V30 6650 N 623.758 0.647228 1.43697 0
M  V30 6651 C 625.004 0.158422 2.0218 0
M  V30 6652 C 625.337 -1.22233 1.50907 0
M  V30 6653 O 624.612 -1.81478 0.699702 0
M  V30 6654 C 624.895 0.1627 3.59732 0
M  V30 6655 C 624.748 1.57694 4.21251 0
M  V30 6656 C 626.067 -0.504138 4.37203 0
M  V30 6657 H 623.186 0.059042 0.734631 0
M  V30 6658 H 625.828 0.826772 1.71069 0
M  V30 6659 H 623.978 -0.406414 3.86368 0
M  V30 6660 H 625.65 2.19618 4.05667 0
M  V30 6661 H 623.893 2.12603 3.7813 0
M  V30 6662 H 624.564 1.53183 5.3032 0
M  V30 6663 H 627.04 -0.0199841 4.16095 0
M  V30 6664 H 625.916 -0.470394 5.46881 0
M  V30 6665 H 626.177 -1.57726 4.13007 0
M  V30 6666 N 625.236 -1.5273 0.388769 0
M  V30 6667 C 626.186 -2.23238 -0.463567 0
M  V30 6668 C 627.17 -1.23606 -1.03007 0
M  V30 6669 O 628.362 -1.48945 -0.956261 0
M  V30 6670 C 625.491 -3.04228 -1.5906 0
M  V30 6671 C 624.577 -4.11255 -1.03587 0
M  V30 6672 N 624.968 -5.0538 -0.206038 0
M  V30 6673 C 623.266 -4.26376 -1.30841 0
M  V30 6674 C 623.967 -5.81613 0.100359 0
M  V30 6675 N 622.943 -5.41264 -0.503447 0
M  V30 6676 H 626.745 -2.93367 0.176978 0
M  V30 6677 H 624.259 -1.61188 0.198046 0
M  V30 6678 H 626.256 -3.53277 -2.21362 0
M  V30 6679 H 624.916 -2.35634 -2.23398 0
M  V30 6680 H 625.927 -5.17663 0.156659 0
M  V30 6681 H 622.604 -3.69011 -1.95287 0
M  V30 6682 H 623.994 -6.67442 0.772676 0
M  V30 6683 N 626.714 -0.118576 -1.57153 0
M  V30 6684 C 627.942 0.54726 -1.99531 0
M  V30 6685 C 628.357 1.60251 -0.998246 0
M  V30 6686 O 627.714 1.82498 0.00893106 0
M  V30 6687 C 627.765 1.17378 -3.41913 0
M  V30 6688 O 627.486 0.160703 -4.37805 0
M  V30 6689 C 628.987 1.92297 -3.9942 0
M  V30 6690 H 626.207 0.144919 -0.655164 0
M  V30 6691 H 628.751 -0.20479 -2.03472 0
M  V30 6692 H 626.906 1.87661 -3.38913 0
M  V30 6693 H 627.32 0.61586 -5.20872 0
M  V30 6694 H 628.794 2.31462 -5.01128 0
M  V30 6695 H 629.271 2.79801 -3.38538 0
M  V30 6696 H 629.877 1.26777 -4.05965 0
M  V30 6697 N 628.193 1.56834 0.155195 0
M  V30 6698 C 629.441 1.82536 0.867462 0
M  V30 6699 C 629.762 0.698168 1.82073 0
M  V30 6700 O 629.032 -0.280807 1.93877 0
M  V30 6701 H 627.612 0.673401 0.323327 0
M  V30 6702 H 630.274 1.94313 0.151156 0
M  V30 6703 H 629.37 2.77171 1.43466 0
M  V30 6704 N 629.671 -0.424282 1.51781 0
M  V30 6705 C 630.948 -1.18464 1.55646 0
M  V30 6706 C 631.328 -2.08529 0.328438 0
M  V30 6707 O 630.676 -2.17969 -0.685693 0
M  V30 6708 C 630.886 -1.97514 2.87731 0
M  V30 6709 C 632.234 -2.54106 3.40169 0
M  V30 6710 O 633.258 -2.07711 2.89369 0
M  V30 6711 O 632.117 -3.38759 4.28841 0
M  V30 6712 H 629.211 -0.540055 0.626314 0
M  V30 6713 H 631.757 -0.432291 1.64102 0
M  V30 6714 H 630.529 -1.31444 3.68562 0
M  V30 6715 H 630.152 -2.79787 2.82498 0
M  V30 6716 N 631.149 -1.42148 -0.680565 0
M  V30 6717 C 632.081 -1.41119 -1.80605 0
M  V30 6718 C 633.094 -0.311099 -1.598 0
M  V30 6719 O 634.283 -0.573813 -1.69026 0
M  V30 6720 C 631.383 -1.18204 -3.17618 0
M  V30 6721 C 630.556 -2.40537 -3.65322 0
M  V30 6722 C 629.615 -2.13254 -4.8105 0
M  V30 6723 O 628.641 -2.8641 -4.91892 0
M  V30 6724 N 629.843 -1.13208 -5.69354 0
M  V30 6725 H 632.608 -2.38128 -1.81975 0
M  V30 6726 H 630.169 -1.36953 -0.863446 0
M  V30 6727 H 632.161 -0.97878 -3.92686 0
M  V30 6728 H 630.731 -0.29738 -3.11182 0
M  V30 6729 H 629.951 -2.76468 -2.80996 0
M  V30 6730 H 631.239 -3.22012 -3.93936 0
M  V30 6731 H 630.637 -0.526893 -5.63241 0
M  V30 6732 H 629.194 -0.988699 -6.44258 0
M  V30 6733 N 632.627 0.916307 -1.28225 0
M  V30 6734 C 633.577 2.00488 -1.08574 0
M  V30 6735 C 634.561 1.60897 -0.0101874 0
M  V30 6736 O 635.753 1.75499 -0.230034 0
M  V30 6737 C 632.882 3.35076 -0.746943 0
M  V30 6738 C 631.968 3.81077 -1.86121 0
M  V30 6739 N 632.359 3.99475 -3.10247 0
M  V30 6740 C 630.657 4.10212 -1.75048 0
M  V30 6741 C 631.358 4.37965 -3.82834 0
M  V30 6742 N 630.334 4.4608 -3.10667 0
M  V30 6743 H 634.136 2.1276 -2.02757 0
M  V30 6744 H 631.65 1.10397 -1.19107 0
M  V30 6745 H 633.647 4.12743 -0.587252 0
M  V30 6746 H 632.307 3.2416 0.187146 0
M  V30 6747 H 633.318 3.85466 -3.45885 0
M  V30 6748 H 629.995 4.07947 -0.887999 0
M  V30 6749 H 631.385 4.60183 -4.89572 0
M  V30 6750 N 634.105 1.10431 1.1244 0
M  V30 6751 C 635.037 0.710945 2.17895 0
M  V30 6752 C 636.05 -0.252315 1.60833 0
M  V30 6753 O 637.239 -0.03679 1.78462 0
M  V30 6754 C 634.339 0.0284262 3.38888 0
M  V30 6755 C 633.512 1.01585 4.2544 0
M  V30 6756 C 632.571 0.364826 5.24934 0
M  V30 6757 O 631.597 1.01561 5.60066 0
M  V30 6758 N 632.799 -0.87674 5.73841 0
M  V30 6759 H 635.564 1.61826 2.52255 0
M  V30 6760 H 633.125 0.993132 1.27861 0
M  V30 6761 H 635.117 -0.418568 4.0253 0
M  V30 6762 H 633.687 -0.781294 3.02679 0
M  V30 6763 H 632.907 1.64111 3.58415 0
M  V30 6764 H 634.195 1.68425 4.80115 0
M  V30 6765 H 633.593 -1.42483 5.47462 0
M  V30 6766 H 632.15 -1.26688 6.39369 0
M  V30 6767 N 635.583 -1.29855 0.893053 0
M  V30 6768 C 636.829 -1.96116 0.516349 0
M  V30 6769 C 637.162 -1.70281 -0.933695 0
M  V30 6770 O 636.437 -1.01205 -1.66096 0
M  V30 6771 C 636.72 -3.51068 0.801455 0
M  V30 6772 C 636.573 -3.86387 2.30272 0
M  V30 6773 C 637.892 -4.39186 0.283423 0
M  V30 6774 H 635.011 -0.712335 0.189072 0
M  V30 6775 H 637.653 -1.53587 1.11852 0
M  V30 6776 H 635.803 -3.87424 0.288949 0
M  V30 6777 H 637.475 -3.60012 2.88425 0
M  V30 6778 H 635.718 -3.34167 2.76613 0
M  V30 6779 H 636.389 -4.94512 2.45279 0
M  V30 6780 H 638.865 -4.09785 0.722187 0
M  V30 6781 H 637.741 -5.46505 0.512169 0
M  V30 6782 H 638.002 -4.34511 -0.815643 0
M  V30 6783 N 637.061 -0.65484 -1.43351 0
M  V30 6784 C 638.309 -0.168559 -2.01396 0
M  V30 6785 C 638.63 1.22235 -1.51933 0
M  V30 6786 O 637.9 1.81685 -0.732627 0
M  V30 6787 H 636.48 -0.0593244 -0.744641 0
M  V30 6788 H 639.142 -0.846871 -1.75539 0
M  V30 6789 H 638.238 -0.154428 -3.11718 0
M  V30 6790 N 638.539 1.52521 -0.396863 0
M  V30 6791 C 639.487 2.28217 0.44943 0
M  V30 6792 C 640.481 1.32416 1.05652 0
M  V30 6793 O 641.687 1.49925 0.996124 0
M  V30 6794 H 638.062 0.733966 0.1637 0
M  V30 6795 H 640.033 2.97658 -0.210367 0
M  V30 6796 C 638.782 3.10713 1.56054 0
M  V30 6797 H 638.105 3.84291 1.10273 0
M  V30 6798 H 639.545 3.66803 2.12677 0
M  V30 6799 C 638.004 2.23499 2.52091 0
M  V30 6800 O 638.534 1.8669 3.55682 0
M  V30 6801 N 636.74 1.8751 2.2201 0
M  V30 6802 H 636.287 2.17643 1.37802 0
M  V30 6803 H 636.245 1.29448 2.86514 0
M  V30 6804 N 640.017 0.126909 1.57088 0
M  V30 6805 C 640.927 -0.833867 2.1928 0
M  V30 6806 C 641.943 -1.2868 1.17122 0
M  V30 6807 O 643.119 -1.34815 1.49622 0
M  V30 6808 C 640.184 -2.0632 2.78627 0
M  V30 6809 C 639.245 -1.66143 3.95847 0
M  V30 6810 C 638.478 -2.83217 4.52354 0
M  V30 6811 O 638.701 -3.98868 4.0775 0
M  V30 6812 O 637.635 -2.59846 5.42922 0
M  V30 6813 H 641.461 -0.334564 3.01852 0
M  V30 6814 H 639.046 -0.0991091 1.49071 0
M  V30 6815 H 640.928 -2.78304 3.16425 0
M  V30 6816 H 639.603 -2.55242 1.99082 0
M  V30 6817 H 638.51 -0.912435 3.62802 0
M  V30 6818 H 639.843 -1.21957 4.76852 0
M  V30 6819 N 641.495 -1.56914 -0.146875 0
M  V30 6820 C 642.723 -1.87515 -0.874394 0
M  V30 6821 C 643.138 -0.715116 -1.74733 0
M  V30 6822 O 642.495 0.315113 -1.79759 0
M  V30 6823 C 642.546 -3.17362 -1.731 0
M  V30 6824 O 642.267 -4.28897 -0.893245 0
M  V30 6825 C 643.768 -3.61479 -2.56609 0
M  V30 6826 H 640.988 -0.621546 -0.252827 0
M  V30 6827 H 643.532 -2.04023 -0.139627 0
M  V30 6828 H 641.687 -3.02608 -2.41883 0
M  V30 6829 H 642.101 -5.03146 -1.48137 0
M  V30 6830 H 643.575 -4.5517 -3.12289 0
M  V30 6831 H 644.052 -2.86773 -3.32653 0
M  V30 6832 H 644.658 -3.78927 -1.93117 0
M  V30 6833 N 642.974 0.416227 -1.52004 0
M  V30 6834 C 643.906 1.52552 -1.71058 0
M  V30 6835 C 644.919 1.51693 -0.59102 0
M  V30 6836 O 646.108 1.56087 -0.865973 0
M  V30 6837 C 643.208 2.91455 -1.72937 0
M  V30 6838 C 642.381 3.16584 -3.01816 0
M  V30 6839 C 641.44 4.35322 -2.95603 0
M  V30 6840 O 640.466 4.32947 -3.6952 0
M  V30 6841 N 641.668 5.40049 -2.12903 0
M  V30 6842 H 644.433 1.36604 -2.66757 0
M  V30 6843 H 641.994 0.60544 -1.50153 0
M  V30 6844 H 643.986 3.68944 -1.66321 0
M  V30 6845 H 642.556 3.00895 -0.847418 0
M  V30 6846 H 641.776 2.27203 -3.22137 0
M  V30 6847 H 643.064 3.30213 -3.87088 0
M  V30 6848 H 642.462 5.44823 -1.52265 0
M  V30 6849 H 641.019 6.16308 -2.1215 0
M  V30 6850 N 644.452 1.42507 0.673017 0
M  V30 6851 C 645.7 1.42789 1.43023 0
M  V30 6852 C 646.021 0.0459738 1.94946 0
M  V30 6853 O 645.291 -0.915765 1.73178 0
M  V30 6854 H 643.871 0.525657 0.530748 0
M  V30 6855 H 646.533 1.77944 0.795113 0
M  V30 6856 H 645.629 2.12872 2.28237 0
M  V30 6857 N 645.93 -0.909495 1.28709 0
M  V30 6858 C 647.176 -1.66151 1.16283 0
M  V30 6859 C 647.509 -1.92067 -0.287069 0
M  V30 6860 O 646.784 -1.52409 -1.20837 0
M  V30 6861 C 647.067 -3.01676 1.9663 0
M  V30 6862 C 646.92 -2.82888 3.49707 0
M  V30 6863 C 648.239 -4.02274 1.78504 0
M  V30 6864 H 645.358 -0.602966 0.423793 0
M  V30 6865 H 648 -1.05418 1.58073 0
M  V30 6866 H 646.15 -3.53515 1.61119 0
M  V30 6867 H 647.822 -2.38026 3.95147 0
M  V30 6868 H 646.065 -2.17862 3.75125 0
M  V30 6869 H 646.736 -3.79147 4.01187 0
M  V30 6870 H 649.212 -3.59511 2.09503 0
M  V30 6871 H 648.088 -4.95056 2.37088 0
M  V30 6872 H 648.349 -4.35903 0.737647 0
M  V30 6873 N 647.408 -1.11026 -1.11852 0
M  V30 6874 C 648.636 -0.878818 -1.87308 0
M  V30 6875 C 649.051 0.57111 -1.79955 0
M  V30 6876 O 648.408 1.39409 -1.17777 0
M  V30 6877 C 648.459 -1.3264 -3.36287 0
M  V30 6878 O 648.18 -2.71948 -3.43476 0
M  V30 6879 C 649.681 -1.12974 -4.28663 0
M  V30 6880 H 646.901 -0.315015 -0.592458 0
M  V30 6881 H 649.445 -1.47649 -1.41492 0
M  V30 6882 H 647.6 -0.772269 -3.79625 0
M  V30 6883 H 648.014 -2.91241 -4.3621 0
M  V30 6884 H 649.488 -1.49198 -5.31454 0
M  V30 6885 H 649.965 -0.0689127 -4.39146 0
M  V30 6886 H 650.571 -1.67064 -3.91113 0
M  V30 6887 N 648.886 1.2938 -0.899927 0
M  V30 6888 C 649.849 2.25983 -0.382677 0
M  V30 6889 C 650.849 1.53366 0.483259 0
M  V30 6890 O 652.039 1.71798 0.28828 0
M  V30 6891 C 649.171 3.37878 0.452915 0
M  V30 6892 H 650.364 2.73252 -1.23586 0
M  V30 6893 H 647.917 1.40825 -0.678088 0
M  V30 6894 H 648.652 2.95949 1.32608 0
M  V30 6895 H 648.437 3.91742 -0.167562 0
M  V30 6896 H 649.927 4.09746 0.806107 0
M  V30 6897 N 650.364 0.662433 1.43002 0
M  V30 6898 C 651.274 -0.0239199 2.34588 0
M  V30 6899 C 652.29 -0.802255 1.54402 0
M  V30 6900 O 653.466 -0.747401 1.87018 0
M  V30 6901 C 650.531 -0.972098 3.32793 0
M  V30 6902 C 649.592 -0.189673 4.28881 0
M  V30 6903 C 648.825 -1.09269 5.22395 0
M  V30 6904 O 649.048 -2.33209 5.20547 0
M  V30 6905 O 647.982 -0.560136 5.99288 0
M  V30 6906 H 651.808 0.730171 2.94792 0
M  V30 6907 H 649.393 0.422635 1.43297 0
M  V30 6908 H 651.275 -1.51676 3.93157 0
M  V30 6909 H 649.95 -1.70626 2.75079 0
M  V30 6910 H 648.857 0.398794 3.71968 0
M  V30 6911 H 650.19 0.50511 4.89601 0
M  V30 6912 N 651.842 -1.52309 0.404946 0
M  V30 6913 C 653.091 -2.00952 -0.173529 0
M  V30 6914 C 653.404 -1.29512 -1.46581 0
M  V30 6915 O 654.61 -1.6895 -2.12528 0
M  V30 6916 C 653.066 -3.58097 -0.359801 0
M  V30 6917 C 652.674 -4.38449 0.920138 0
M  V30 6918 C 654.418 -4.14984 -0.893794 0
M  V30 6919 C 652.325 -5.87227 0.701285 0
M  V30 6920 H 651.255 -0.750871 -0.0686244 0
M  V30 6921 H 653.906 -1.75687 0.529749 0
M  V30 6922 H 652.288 -3.79675 -1.12531 0
M  V30 6923 H 653.462 -4.28633 1.69147 0
M  V30 6924 H 651.777 -3.92859 1.38024 0
M  V30 6925 H 654.374 -5.23813 -1.0735 0
M  V30 6926 H 654.717 -3.72072 -1.8673 0
M  V30 6927 H 655.25 -3.97358 -0.187453 0
M  V30 6928 H 651.989 -6.34491 1.64624 0
M  V30 6929 H 651.509 -5.99792 -0.0308288 0
M  V30 6930 H 653.188 -6.46096 0.341846 0
M  V30 6931 N 653.32 -0.135238 -1.57019 0
M  V30 6932 C 654.548 0.526066 -2.001 0
M  V30 6933 C 654.963 1.59184 -1.01519 0
M  V30 6934 O 654.32 1.82497 -0.0104258 0
M  V30 6935 C 654.371 1.13744 -3.43139 0
M  V30 6936 O 654.092 0.114259 -4.37951 0
M  V30 6937 C 655.593 1.8805 -4.01438 0
M  V30 6938 H 652.813 0.137962 -0.656664 0
M  V30 6939 H 655.357 -0.226359 -2.03243 0
M  V30 6940 H 653.512 1.84056 -3.40885 0
M  V30 6941 H 653.926 0.56058 -5.21496 0
M  V30 6942 H 655.4 2.26133 -5.03555 0
M  V30 6943 H 655.877 2.76194 -3.41487 0
M  V30 6944 H 656.483 1.22464 -4.07287 0
M  V30 6945 N 654.798 1.5699 0.138552 0
M  V30 6946 C 656.023 1.88344 0.86841 0
M  V30 6947 C 656.448 0.725159 1.7356 0
M  V30 6948 O 655.806 -0.324992 1.78363 0
M  V30 6949 C 655.854 3.18334 1.69398 0
M  V30 6950 O 654.958 3.02863 2.79907 0
M  V30 6951 H 654.299 0.618577 0.241367 0
M  V30 6952 H 656.829 2.04207 0.126826 0
M  V30 6953 H 656.839 3.50567 2.08726 0
M  V30 6954 H 655.514 4.02238 1.05725 0
M  V30 6955 H 654.091 2.82056 2.43924 0
M  V30 6956 N 656.276 -0.40816 1.52223 0
M  V30 6957 C 657.208 -1.51642 1.71864 0
M  V30 6958 C 658.221 -1.51378 0.599056 0
M  V30 6959 O 659.41 -1.55626 0.874239 0
M  V30 6960 C 656.51 -2.90534 1.74481 0
M  V30 6961 C 655.683 -3.14979 3.03491 0
M  V30 6962 C 654.742 -4.33749 2.97907 0
M  V30 6963 O 653.768 -4.30982 3.71811 0
M  V30 6964 N 654.97 -5.38912 2.15764 0
M  V30 6965 H 657.735 -1.35188 2.67478 0
M  V30 6966 H 655.296 -0.597468 1.50472 0
M  V30 6967 H 657.288 -3.68056 1.68275 0
M  V30 6968 H 655.858 -3.00441 0.863363 0
M  V30 6969 H 655.078 -2.25492 3.23337 0
M  V30 6970 H 656.366 -3.28156 3.88833 0
M  V30 6971 H 655.764 -5.44008 1.55152 0
M  V30 6972 H 654.321 -6.15174 2.15415 0
M  V30 6973 N 657.755 -1.42862 -0.66545 0
M  V30 6974 C 658.718 -1.46756 -1.76055 0
M  V30 6975 C 659.718 -0.353866 -1.56858 0
M  V30 6976 O 660.908 -0.615099 -1.62979 0
M  V30 6977 C 658.04 -1.30829 -3.14796 0
M  V30 6978 H 659.233 -2.44271 -1.73987 0
M  V30 6979 H 656.786 -1.29447 -0.875965 0
M  V30 6980 H 657.521 -0.342733 -3.22484 0
M  V30 6981 H 657.306 -2.11551 -3.30134 0
M  V30 6982 H 658.796 -1.36458 -3.94676 0
M  V30 6983 N 659.233 0.902656 -1.29189 0
M  V30 6984 C 660.458 1.69167 -1.19989 0
M  V30 6985 C 660.883 1.86607 0.236495 0
M  V30 6986 O 660.241 1.38425 1.17082 0
M  V30 6987 C 660.289 3.05532 -1.91527 0
M  V30 6988 O 659.393 3.93621 -1.2303 0
M  V30 6989 H 658.734 0.517584 -0.415936 0
M  V30 6990 H 661.264 1.12785 -1.70706 0
M  V30 6991 H 661.274 3.55693 -1.99866 0
M  V30 6992 H 659.949 2.92156 -2.96003 0
M  V30 6993 H 658.526 3.52055 -1.22928 0
M  V30 6994 N 660.711 1.11618 1.11262 0
M  V30 6995 C 661.939 0.888739 1.8684 0
M  V30 6996 C 662.354 -0.561558 1.80255 0
M  V30 6997 O 661.711 -1.38782 1.18515 0
M  V30 6998 C 661.762 1.34422 3.35579 0
M  V30 6999 O 661.483 2.73766 3.42029 0
M  V30 7000 C 662.984 1.15246 4.28058 0
M  V30 7001 H 660.204 0.318152 0.590779 0
M  V30 7002 H 662.748 1.48398 1.40707 0
M  V30 7003 H 660.903 0.79239 3.7921 0
M  V30 7004 H 661.317 2.9355 4.34659 0
M  V30 7005 H 662.791 1.52015 5.30656 0
M  V30 7006 H 663.268 0.0922007 4.39103 0
M  V30 7007 H 663.874 1.69136 3.90222 0
M  V30 7008 N 662.189 -1.289 0.906776 0
M  V30 7009 C 663.152 -2.25777 0.394656 0
M  V30 7010 C 664.152 -1.53621 -0.475119 0
M  V30 7011 O 665.342 -1.71949 -0.279165 0
M  V30 7012 C 662.474 -3.38113 -0.43499 0
M  V30 7013 H 663.667 -2.72592 1.25033 0
M  V30 7014 H 661.22 -1.40463 0.685547 0
M  V30 7015 H 661.955 -2.96648 -1.31036 0
M  V30 7016 H 661.74 -3.91647 0.188334 0
M  V30 7017 H 663.23 -4.10168 -0.784365 0
M  V30 7018 N 663.667 -0.670007 -1.42649 0
M  V30 7019 C 664.577 0.0114788 -2.34597 0
M  V30 7020 C 665.593 0.794055 -1.54825 0
M  V30 7021 O 666.769 0.737472 -1.87412 0
M  V30 7022 C 663.834 0.954436 -3.33304 0
M  V30 7023 C 662.895 0.166925 -4.28975 0
M  V30 7024 C 662.128 1.06497 -5.22967 0
M  V30 7025 O 662.351 2.30446 -5.21777 0
M  V30 7026 O 661.285 0.528347 -5.99577 0
M  V30 7027 H 665.111 -0.745794 -2.944 0
M  V30 7028 H 662.696 -0.430228 -1.43071 0
M  V30 7029 H 664.578 1.49589 -3.93956 0
M  V30 7030 H 663.253 1.69164 -2.7598 0
M  V30 7031 H 662.16 -0.418515 -3.71752 0
M  V30 7032 H 663.493 -0.531067 -4.89327 0
M  V30 7033 N 665.145 1.52092 -0.413018 0
M  V30 7034 C 666.108 2.25706 0.398687 0
M  V30 7035 C 667.108 1.28221 0.970368 0
M  V30 7036 O 668.298 1.52131 0.848635 0
M  V30 7037 C 665.43 3.03029 1.5616 0
M  V30 7038 H 666.623 2.98888 -0.246131 0
M  V30 7039 H 664.176 1.5542 -0.165622 0
M  V30 7040 H 664.911 2.34205 2.24317 0
M  V30 7041 H 664.696 3.74606 1.15812 0
M  V30 7042 H 666.186 3.58857 2.13569 0
M  V30 7043 N 666.623 0.143563 1.56945 0
M  V30 7044 C 667.872 -0.50835 1.95189 0
M  V30 7045 C 668.185 -1.66239 1.03073 0
M  V30 7046 O 669.391 -2.3787 1.30882 0
M  V30 7047 C 667.847 -0.955735 3.46978 0
M  V30 7048 C 667.455 0.171183 4.47673 0
M  V30 7049 C 669.199 -1.57763 3.94095 0
M  V30 7050 C 667.106 -0.294279 5.90667 0
M  V30 7051 H 666.036 -0.193679 0.728701 0
M  V30 7052 H 668.687 0.227357 1.82086 0
M  V30 7053 H 667.069 -1.7466 3.55401 0
M  V30 7054 H 668.243 0.948049 4.50942 0
M  V30 7055 H 666.558 0.701273 4.10452 0
M  V30 7056 H 669.155 -1.93745 4.98364 0
M  V30 7057 H 669.498 -2.46531 3.35452 0
M  V30 7058 H 670.031 -0.851728 3.88575 0
M  V30 7059 H 666.77 0.557939 6.53121 0
M  V30 7060 H 666.29 -1.0371 5.90766 0
M  V30 7061 H 667.969 -0.747426 6.42668 0
M  V30 7062 N 668.101 -1.57061 -0.130224 0
M  V30 7063 C 669.031 -2.02552 -1.16168 0
M  V30 7064 C 670.012 -0.907971 -1.4384 0
M  V30 7065 O 671.197 -1.17693 -1.54473 0
M  V30 7066 C 668.327 -2.42035 -2.49071 0
M  V30 7067 C 667.281 -3.5713 -2.35886 0
M  V30 7068 C 666.607 -3.82478 -3.7365 0
M  V30 7069 C 667.907 -4.89236 -1.8288 0
M  V30 7070 H 669.601 -2.8897 -0.783359 0
M  V30 7071 H 667.147 -1.39021 -0.375376 0
M  V30 7072 H 669.1 -2.72462 -3.21469 0
M  V30 7073 H 667.824 -1.52573 -2.88771 0
M  V30 7074 H 666.483 -3.26895 -1.65938 0
M  V30 7075 H 666.131 -2.9024 -4.10816 0
M  V30 7076 H 665.831 -4.59944 -3.65685 0
M  V30 7077 H 667.355 -4.15347 -4.47571 0
M  V30 7078 H 668.769 -5.18272 -2.45085 0
M  V30 7079 H 667.166 -5.70624 -1.85763 0
M  V30 7080 H 668.236 -4.78494 -0.785571 0
M  V30 7081 N 669.579 0.400081 -1.52437 0
M  V30 7082 C 670.99 0.97851 -1.59003 0
M  V30 7083 C 671.341 1.91293 -0.436068 0
M  V30 7084 O 670.466 2.1183 0.442365 0
M  V30 7085 C 671.061 1.78145 -2.88184 0
M  V30 7086 C 669.62 2.30976 -2.97199 0
M  V30 7087 C 668.767 1.11212 -2.54022 0
M  V30 7088 H 671.718 0.180002 -1.57676 0
M  V30 7089 H 671.739 2.63968 -2.74046 0
M  V30 7090 H 671.251 1.1011 -3.72152 0
M  V30 7091 H 669.352 3.02355 -2.17744 0
M  V30 7092 H 669.465 2.61221 -4.01622 0
M  V30 7093 H 667.829 1.46882 -2.08081 0
M  V30 7094 H 668.612 0.447307 -3.40373 0
M  V30 7095 N 671.057 1.43213 0.657864 0
M  V30 7096 C 671.967 1.50448 1.80007 0
M  V30 7097 C 672.983 0.39191 1.69529 0
M  V30 7098 O 674.159 0.645349 1.90781 0
M  V30 7099 C 671.224 1.42062 3.16258 0
M  V30 7100 C 670.285 2.63951 3.38568 0
M  V30 7101 C 669.518 2.55956 4.68318 0
M  V30 7102 O 669.741 1.60473 5.47361 0
M  V30 7103 O 668.675 3.46378 4.92245 0
M  V30 7104 H 672.501 2.4689 1.76858 0
M  V30 7105 H 670.086 1.25163 0.81576 0
M  V30 7106 H 671.968 1.3981 3.97531 0
M  V30 7107 H 670.643 0.487524 3.20008 0
M  V30 7108 H 669.55 2.71776 2.57077 0
M  V30 7109 H 670.883 3.56217 3.39662 0
M  V30 7110 N 672.536 -0.895792 1.29666 0
M  V30 7111 C 673.766 -1.67757 1.20586 0
M  V30 7112 C 674.174 -1.87729 -0.235432 0
M  V30 7113 O 673.517 -1.41706 -1.16898 0
M  V30 7114 C 673.579 -3.08117 1.85215 0
M  V30 7115 C 673.243 -3.1136 3.3452 0
M  V30 7116 C 674.24 -2.91217 4.30684 0
M  V30 7117 C 671.925 -3.33302 3.75786 0
M  V30 7118 C 673.919 -2.92955 5.66089 0
M  V30 7119 C 671.606 -3.3467 5.11311 0
M  V30 7120 C 672.604 -3.14519 6.06273 0
M  V30 7121 O 672.292 -3.15684 7.39323 0
M  V30 7122 H 672.024 -0.530601 0.418854 0
M  V30 7123 H 674.578 -1.12831 1.71634 0
M  V30 7124 H 672.808 -3.64661 1.28683 0
M  V30 7125 H 674.497 -3.68399 1.70403 0
M  V30 7126 H 675.263 -2.74074 4.00136 0
M  V30 7127 H 671.142 -3.48025 3.02324 0
M  V30 7128 H 674.686 -2.77145 6.40185 0
M  V30 7129 H 670.583 -3.51346 5.41504 0
M  V30 7130 H 671.351 -3.31924 7.48177 0
M  V30 7131 N 674.014 -1.12206 -1.10668 0
M  V30 7132 C 675.262 -0.874144 -1.82217 0
M  V30 7133 C 675.583 0.601736 -1.85484 0
M  V30 7134 O 674.853 1.43725 -1.33116 0
M  V30 7135 H 673.433 -0.320404 -0.674797 0
M  V30 7136 H 676.095 -1.41606 -1.33917 0
M  V30 7137 H 675.191 -1.25349 -2.85822 0
M  V30 7138 N 675.492 1.28418 -0.913599 0
M  V30 7139 C 676.72 1.99106 -0.562536 0
M  V30 7140 C 677.135 1.68273 0.856137 0
M  V30 7141 O 676.492 0.935401 1.56705 0
M  V30 7142 C 676.543 3.5338 -0.761903 0
M  V30 7143 O 676.264 3.83127 -2.12475 0
M  V30 7144 C 677.765 4.41328 -0.417651 0
M  V30 7145 H 674.985 0.635798 -0.214481 0
M  V30 7146 H 677.529 1.63618 -1.22676 0
M  V30 7147 H 675.684 3.8713 -0.144676 0
M  V30 7148 H 676.098 4.77763 -2.16431 0
M  V30 7149 H 677.572 5.48642 -0.607919 0
M  V30 7150 H 678.049 4.34422 0.646108 0
M  V30 7151 H 678.655 4.13074 -1.01241 0
M  V30 7152 N 676.97 0.677563 1.42291 0
M  V30 7153 C 677.9 0.014968 2.33495 0
M  V30 7154 C 678.881 -0.786376 1.50831 0
M  V30 7155 O 680.066 -0.742975 1.79426 0
M  V30 7156 C 677.196 -0.935023 3.34477 0
M  V30 7157 C 676.15 -0.242074 4.27315 0
M  V30 7158 C 675.476 -1.30519 5.18526 0
M  V30 7159 C 676.776 0.880604 5.14823 0
M  V30 7160 H 678.47 0.776671 2.89151 0
M  V30 7161 H 676.016 0.37494 1.39033 0
M  V30 7162 H 677.969 -1.40766 3.97194 0
M  V30 7163 H 676.693 -1.72818 2.77131 0
M  V30 7164 H 675.352 0.210351 3.65996 0
M  V30 7165 H 675 -2.09041 4.57505 0
M  V30 7166 H 674.7 -0.846652 5.81468 0
M  V30 7167 H 676.224 -1.7787 5.84119 0
M  V30 7168 H 677.638 0.489062 5.7121 0
M  V30 7169 H 676.035 1.26511 5.86613 0
M  V30 7170 H 677.105 1.72818 4.53059 0
M  V30 7171 N 678.448 -1.51871 0.421078 0
M  V30 7172 C 679.696 -2.01539 -0.150492 0
M  V30 7173 C 680.017 -1.30803 -1.44623 0
M  V30 7174 O 679.287 -0.437568 -1.90951 0
M  V30 7175 H 677.867 -0.744698 -0.0586041 0
M  V30 7176 H 680.529 -1.8668 0.560059 0
M  V30 7177 H 679.625 -3.10264 -0.338068 0
M  V30 7178 N 679.926 -0.151884 -1.56866 0
M  V30 7179 C 680.856 0.781943 -2.20018 0
M  V30 7180 C 681.837 1.25347 -1.14987 0
M  V30 7181 O 683.022 1.31015 -1.43348 0
M  V30 7182 C 680.152 2.01928 -2.82564 0
M  V30 7183 C 679.106 1.68434 -3.93464 0
M  V30 7184 C 678.432 2.99472 -4.42968 0
M  V30 7185 C 679.732 0.927244 -5.14003 0
M  V30 7186 H 681.426 0.255607 -2.98307 0
M  V30 7187 H 678.972 0.121502 -1.43486 0
M  V30 7188 H 680.925 2.67741 -3.25411 0
M  V30 7189 H 679.649 2.56943 -2.01614 0
M  V30 7190 H 678.308 1.04998 -3.51242 0
M  V30 7191 H 677.956 3.52488 -3.58834 0
M  V30 7192 H 677.656 2.77823 -5.17772 0
M  V30 7193 H 679.18 3.66348 -4.88489 0
M  V30 7194 H 680.594 1.48756 -5.53665 0
M  V30 7195 H 678.991 0.810513 -5.94601 0
M  V30 7196 H 680.061 -0.0801163 -4.84834 0
M  V30 7197 N 681.404 1.57128 0.121893 0
M  V30 7198 C 682.314 2.03425 1.16857 0
M  V30 7199 C 683.33 0.954108 1.45509 0
M  V30 7200 O 684.506 1.26541 1.56682 0
M  V30 7201 C 681.571 2.42685 2.47599 0
M  V30 7202 C 680.632 3.64767 2.2637 0
M  V30 7203 C 679.865 4.02145 3.50878 0
M  V30 7204 O 680.088 3.39897 4.58068 0
M  V30 7205 O 679.022 4.95262 3.42051 0
M  V30 7206 H 682.848 2.92825 0.80544 0
M  V30 7207 H 680.433 1.45654 0.332477 0
M  V30 7208 H 682.315 2.68684 3.24634 0
M  V30 7209 H 680.99 1.56432 2.83392 0
M  V30 7210 H 679.897 3.43922 1.47203 0
M  V30 7211 H 681.23 4.51716 1.95482 0
M  V30 7212 N 682.882 -0.391992 1.52647 0
M  V30 7213 C 684.122 -1.1463 1.69232 0
M  V30 7214 C 684.486 -1.87312 0.421684 0
M  V30 7215 O 685.687 -2.64768 0.463852 0
M  V30 7216 C 683.958 -2.10088 2.89133 0
M  V30 7217 S 685.517 -2.93395 3.2629 0
M  V30 7218 H 682.335 -0.388076 0.59575 0
M  V30 7219 H 684.937 -0.431149 1.90687 0
M  V30 7220 H 683.641 -1.55408 3.79837 0
M  V30 7221 H 683.172 -2.86116 2.70003 0
M  V30 7222 H 685.187 -4.12193 2.76244 0
M  V30 7223 N 684.36 -1.4356 -0.65026 0
M  V30 7224 C 685.585 -1.48995 -1.44275 0
M  V30 7225 C 686.01 -0.109954 -1.87778 0
M  V30 7226 O 685.368 0.896926 -1.57559 0
M  V30 7227 C 685.416 -2.44341 -2.65198 0
M  V30 7228 O 684.52 -1.93172 -3.6436 0
M  V30 7229 H 683.861 -0.503852 -0.432469 0
M  V30 7230 H 686.391 -1.88504 -0.795446 0
M  V30 7231 H 686.401 -2.61743 -3.12977 0
M  V30 7232 H 685.076 -3.44588 -2.32877 0
M  V30 7233 H 683.653 -1.85445 -3.23519 0
M  V30 7234 N 685.838 0.888903 -1.30139 0
M  V30 7235 C 687.249 1.45578 -1.16893 0
M  V30 7236 C 687.6 1.94825 0.231866 0
M  V30 7237 O 686.725 1.84661 1.12824 0
M  V30 7238 C 687.32 2.646 -2.11595 0
M  V30 7239 C 685.879 3.17389 -2.02339 0
M  V30 7240 C 685.026 1.90081 -2.01902 0
M  V30 7241 H 687.977 0.69921 -1.42467 0
M  V30 7242 H 687.998 3.40687 -1.69449 0
M  V30 7243 H 687.51 2.28726 -3.13538 0
M  V30 7244 H 685.611 3.5793 -1.03523 0
M  V30 7245 H 685.724 3.80955 -2.90534 0
M  V30 7246 H 684.088 2.08246 -1.46648 0
M  V30 7247 H 684.871 1.5647 -3.05568 0
M  V30 7248 N 687.317 1.12792 1.10072 0
M  V30 7249 C 688.733 0.864745 1.34143 0
M  V30 7250 C 688.933 -0.503201 1.95116 0
M  V30 7251 O 687.989 -1.25111 2.19325 0
M  V30 7252 C 689.302 1.98413 2.25949 0
M  V30 7253 C 690.85 2.01545 2.39476 0
M  V30 7254 C 691.325 3.12727 3.34613 0
M  V30 7255 N 692.816 3.12194 3.42183 0
M  V30 7256 C 693.551 3.94862 4.15779 0
M  V30 7257 N 693.047 4.87528 4.92228 0
M  V30 7258 N 694.84 3.82985 4.11435 0
M  V30 7259 H 686.991 2.00926 0.68866 0
M  V30 7260 H 689.254 0.874564 0.365844 0
M  V30 7261 H 688.96 2.97005 1.88364 0
M  V30 7262 H 688.834 1.89254 3.26287 0
M  V30 7263 H 691.221 1.0357 2.76328 0
M  V30 7264 H 691.302 2.14777 1.3894 0
M  V30 7265 H 690.946 4.10936 2.98486 0
M  V30 7266 H 690.876 2.96732 4.35037 0
M  V30 7267 H 693.367 2.45065 2.87666 0
M  V30 7268 H 693.68 5.47109 5.45794 0
M  V30 7269 H 692.025 4.91539 4.9134 0
M  V30 7270 H 695.216 3.09923 3.50807 0
M  V30 7271 H 695.389 4.47641 4.68531 0
M  V30 7272 N 688.795 -1.27931 0.920396 0
M  V30 7273 C 690.023 -1.98805 0.573087 0
M  V30 7274 C 690.438 -1.68724 -0.847201 0
M  V30 7275 O 689.795 -0.943699 -1.56207 0
M  V30 7276 C 689.846 -3.52971 0.780633 0
M  V30 7277 O 689.567 -3.81994 2.14504 0
M  V30 7278 C 691.068 -4.411 0.44105 0
M  V30 7279 H 688.288 -0.634651 0.21785 0
M  V30 7280 H 690.832 -1.62965 1.23542 0
M  V30 7281 H 688.987 -3.87048 0.165204 0
M  V30 7282 H 689.401 -4.76609 2.18962 0
M  V30 7283 H 690.875 -5.48312 0.637006 0
M  V30 7284 H 691.352 -4.34758 -0.62306 0
M  V30 7285 H 691.958 -4.12532 1.0343 0
M  V30 7286 N 690.273 -0.685099 -1.4193 0
M  V30 7287 C 691.521 -0.21124 -2.00993 0
M  V30 7288 C 691.842 1.18985 -1.54491 0
M  V30 7289 O 691.112 1.8009 -0.771 0
M  V30 7290 H 689.692 -0.0751059 -0.743215 0
M  V30 7291 H 692.354 -0.883915 -1.73704 0
M  V30 7292 H 691.45 -0.220513 -3.1132 0
M  V30 7293 N 691.751 1.51645 -0.429126 0
M  V30 7294 C 692.681 2.30434 0.377148 0
M  V30 7295 C 693.662 1.35493 1.02838 0
M  V30 7296 O 694.847 1.6441 1.03359 0
M  V30 7297 C 691.977 3.14038 1.48315 0
M  V30 7298 C 690.931 4.1719 0.955855 0
M  V30 7299 C 690.257 4.89263 2.15698 0
M  V30 7300 C 691.557 5.223 -0.00402136 0
M  V30 7301 H 693.251 2.98085 -0.280336 0
M  V30 7302 H 690.797 1.43354 -0.136265 0
M  V30 7303 H 692.75 3.67933 2.05435 0
M  V30 7304 H 691.474 2.44193 2.16881 0
M  V30 7305 H 690.133 3.64335 0.406929 0
M  V30 7306 H 689.781 4.15929 2.82864 0
M  V30 7307 H 689.481 5.59009 1.81059 0
M  V30 7308 H 691.005 5.45978 2.73387 0
M  V30 7309 H 692.419 5.71315 0.476607 0
M  V30 7310 H 690.816 5.99525 -0.26258 0
M  V30 7311 H 691.886 4.75638 -0.943236 0
M  V30 7312 N 693.229 0.160201 1.56784 0
M  V30 7313 C 694.506 -0.533355 1.88188 0
M  V30 7314 C 694.886 -1.82072 1.06831 0
M  V30 7315 O 694.234 -2.27946 0.158959 0
M  V30 7316 C 694.444 -0.786034 3.40033 0
M  V30 7317 C 695.792 -1.12097 4.09536 0
M  V30 7318 O 696.816 -0.874949 3.45287 0
M  V30 7319 O 695.675 -1.58457 5.23023 0
M  V30 7320 H 692.769 -0.273589 0.780434 0
M  V30 7321 H 695.315 0.197803 1.68543 0
M  V30 7322 H 694.087 0.124515 3.91102 0
M  V30 7323 H 693.71 -1.57091 3.65251 0
M  V30 7324 N 694.707 -1.5719 -0.113559 0
M  V30 7325 C 695.954 -1.85138 -0.820382 0
M  V30 7326 C 696.282 -0.74608 -1.79622 0
M  V30 7327 O 695.537 0.262077 -1.93937 0
M  V30 7328 C 695.836 -3.19593 -1.59984 0
M  V30 7329 C 695.502 -4.44315 -0.767809 0
M  V30 7330 C 694.164 -4.78179 -0.538379 0
M  V30 7331 C 696.516 -5.2086 -0.188203 0
M  V30 7332 C 693.844 -5.86028 0.28082 0
M  V30 7333 C 696.196 -6.29572 0.618217 0
M  V30 7334 C 694.86 -6.61964 0.857912 0
M  V30 7335 H 694.13 -0.677467 -0.300199 0
M  V30 7336 H 696.777 -1.91322 -0.0825443 0
M  V30 7337 H 695.082 -3.0901 -2.40874 0
M  V30 7338 H 696.779 -3.3844 -2.1508 0
M  V30 7339 H 693.369 -4.17786 -0.956724 0
M  V30 7340 H 697.553 -4.95045 -0.352658 0
M  V30 7341 H 692.809 -6.09547 0.475693 0
M  V30 7342 H 696.983 -6.88064 1.0743 0
M  V30 7343 H 694.61 -7.45365 1.49451 0
M  V30 7344 N 696.185 0.383891 -1.52853 0
M  V30 7345 C 697.133 1.48965 -1.7864 0
M  V30 7346 C 698.127 1.56242 -0.654577 0
M  V30 7347 O 699.333 1.59347 -0.83716 0
M  V30 7348 H 695.708 0.495892 -0.565328 0
M  V30 7349 H 697.679 1.24411 -2.71228 0
M  V30 7350 C 696.428 2.86036 -1.97683 0
M  V30 7351 H 695.751 2.81188 -2.84206 0
M  V30 7352 H 697.191 3.62632 -2.19713 0
M  V30 7353 C 695.65 3.28428 -0.750776 0
M  V30 7354 O 696.18 4.0164 0.0693491 0
M  V30 7355 N 694.386 2.84765 -0.579427 0
M  V30 7356 H 693.933 2.25353 -1.24795 0
M  V30 7357 H 693.891 3.13486 0.239544 0
M  V30 7358 N 697.663 1.43903 0.642637 0
M  V30 7359 C 698.573 1.52349 1.78401 0
M  V30 7360 C 699.589 0.409869 1.69104 0
M  V30 7361 O 700.765 0.665548 1.90085 0
M  V30 7362 C 697.83 1.45408 3.14734 0
M  V30 7363 C 696.891 2.67528 3.35749 0
M  V30 7364 C 696.124 2.60909 4.65577 0
M  V30 7365 O 696.347 1.6627 5.45628 0
M  V30 7366 O 695.281 3.5158 4.88544 0
M  V30 7367 H 699.107 2.48752 1.7423 0
M  V30 7368 H 696.692 1.26021 0.802439 0
M  V30 7369 H 698.574 1.44019 3.96026 0
M  V30 7370 H 697.249 0.521437 3.19473 0
M  V30 7371 H 696.156 2.74487 2.5418 0
M  V30 7372 H 697.489 3.598 3.35864 0
M  V30 7373 N 699.141 -0.881989 1.30609 0
M  V30 7374 C 700.074 -1.99066 1.11571 0
M  V30 7375 C 701.052 -1.62584 0.022516 0
M  V30 7376 O 702.236 -1.87671 0.176644 0
M  V30 7377 C 699.363 -3.3134 0.702237 0
M  V30 7378 C 698.409 -3.86807 1.79673 0
M  V30 7379 S 699.242 -4.13735 3.39976 0
M  V30 7380 C 700.398 -5.49024 3.00538 0
M  V30 7381 H 700.631 -2.1491 2.05429 0
M  V30 7382 H 698.164 -1.03074 1.14957 0
M  V30 7383 H 700.122 -4.07796 0.470415 0
M  V30 7384 H 698.783 -3.13349 -0.217034 0
M  V30 7385 H 697.976 -4.82397 1.45977 0
M  V30 7386 H 697.578 -3.17102 1.98298 0
M  V30 7387 H 699.87 -6.30208 2.48684 0
M  V30 7388 H 700.813 -5.8766 3.95046 0
M  V30 7389 H 701.221 -5.11726 2.3832 0
M  V30 7390 N 700.619 -1.13374 -1.09472 0
M  V30 7391 C 701.868 -0.889844 -1.8101 0
M  V30 7392 C 702.181 0.585686 -1.86625 0
M  V30 7393 O 703.387 0.946497 -2.54467 0
M  V30 7394 C 701.843 -1.54241 -3.25174 0
M  V30 7395 C 701.451 -3.05343 -3.27826 0
M  V30 7396 C 703.195 -1.37919 -4.0147 0
M  V30 7397 C 701.102 -3.63486 -4.6651 0
M  V30 7398 H 700.032 -0.329256 -0.678311 0
M  V30 7399 H 702.683 -1.36139 -1.23038 0
M  V30 7400 H 701.065 -0.998525 -3.83204 0
M  V30 7401 H 702.239 -3.66307 -2.79563 0
M  V30 7402 H 700.554 -3.21175 -2.65019 0
M  V30 7403 H 703.151 -1.78771 -5.03929 0
M  V30 7404 H 703.494 -0.323987 -4.15037 0
M  V30 7405 H 704.027 -1.89284 -3.49881 0
M  V30 7406 H 700.766 -4.68811 -4.58145 0
M  V30 7407 H 700.286 -3.073 -5.15099 0
M  V30 7408 H 701.965 -3.63134 -5.35484 0
M  V30 7409 N 702.098 1.27442 -0.927168 0
M  V30 7410 C 703.028 2.29256 -0.443188 0
M  V30 7411 C 704.009 1.62701 0.49624 0
M  V30 7412 O 705.194 1.90013 0.401105 0
M  V30 7413 C 702.324 3.45955 0.305366 0
M  V30 7414 C 701.278 4.24501 -0.546178 0
M  V30 7415 C 700.604 5.33671 0.331512 0
M  V30 7416 C 701.904 4.89921 -1.81037 0
M  V30 7417 H 703.598 2.69988 -1.29409 0
M  V30 7418 H 701.144 1.29792 -0.623705 0
M  V30 7419 H 703.097 4.1628 0.654885 0
M  V30 7420 H 701.821 3.04138 1.19029 0
M  V30 7421 H 700.48 3.55921 -0.878398 0
M  V30 7422 H 700.128 4.88096 1.21537 0
M  V30 7423 H 699.828 5.87131 -0.234746 0
M  V30 7424 H 701.352 6.0684 0.676614 0
M  V30 7425 H 702.766 5.52536 -1.52895 0
M  V30 7426 H 701.163 5.53436 -2.32009 0
M  V30 7427 H 702.233 4.13652 -2.53021 0
M  V30 7428 N 703.576 0.692616 1.41565 0
M  V30 7429 C 704.506 0.0397325 2.33466 0
M  V30 7430 C 705.487 -0.770334 1.51657 0
M  V30 7431 O 706.672 -0.723903 1.80203 0
M  V30 7432 C 703.802 -0.899495 3.3545 0
M  V30 7433 C 702.756 -0.196738 4.27548 0
M  V30 7434 C 702.082 -1.25012 5.19881 0
M  V30 7435 C 703.382 0.935158 5.1386 0
M  V30 7436 H 705.076 0.807296 2.88311 0
M  V30 7437 H 702.622 0.389665 1.38628 0
M  V30 7438 H 704.575 -1.36545 3.98665 0
M  V30 7439 H 703.299 -1.69869 2.78948 0
M  V30 7440 H 701.958 0.249158 3.65752 0
M  V30 7441 H 701.606 -2.04177 4.59696 0
M  V30 7442 H 701.306 -0.784931 5.82334 0
M  V30 7443 H 702.83 -1.71665 5.85972 0
M  V30 7444 H 704.244 0.549619 5.70659 0
M  V30 7445 H 702.641 1.32726 5.85238 0
M  V30 7446 H 703.711 1.77613 4.512 0
M  V30 7447 N 705.054 -1.51416 0.437162 0
M  V30 7448 C 706.282 -2.06503 -0.128045 0
M  V30 7449 C 706.697 -1.30461 -1.36475 0
M  V30 7450 O 706.054 -0.364127 -1.78831 0
M  V30 7451 C 706.105 -3.58683 -0.450437 0
M  V30 7452 O 705.826 -4.31853 0.737186 0
M  V30 7453 C 707.327 -4.30284 -1.06633 0
M  V30 7454 H 704.547 -0.670952 -0.00800269 0
M  V30 7455 H 707.091 -1.94996 0.616193 0
M  V30 7456 H 705.246 -3.70106 -1.14457 0
M  V30 7457 H 705.66 -5.22467 0.461347 0
M  V30 7458 H 707.134 -5.37848 -1.24191 0
M  V30 7459 H 707.611 -3.88564 -2.0473 0
M  V30 7460 H 708.217 -4.23304 -0.411585 0
M  V30 7461 N 706.532 -0.168513 -1.56696 0
M  V30 7462 C 707.465 0.801477 -2.13662 0
M  V30 7463 C 708.443 1.22786 -1.06594 0
M  V30 7464 O 709.627 1.32014 -1.34554 0
M  V30 7465 C 706.754 2.07896 -2.6739 0
M  V30 7466 C 705.8 1.79681 -3.86803 0
M  V30 7467 S 706.633 0.968556 -5.26668 0
M  V30 7468 C 707.789 2.25676 -5.83799 0
M  V30 7469 H 708.022 0.317121 -2.95604 0
M  V30 7470 H 705.555 0.0461132 -1.54331 0
M  V30 7471 H 707.513 2.81272 -2.98992 0
M  V30 7472 H 706.174 2.53445 -1.85539 0
M  V30 7473 H 705.367 2.74461 -4.22714 0
M  V30 7474 H 704.969 1.14402 -3.56073 0
M  V30 7475 H 707.261 3.2116 -5.96542 0
M  V30 7476 H 708.204 1.94238 -6.80939 0
M  V30 7477 H 708.612 2.37308 -5.12197 0
M  V30 7478 N 708.01 1.57248 0.105221 0
M  V30 7479 C 708.957 2.01338 1.12835 0
M  V30 7480 C 709.927 0.887897 1.40377 0
M  V30 7481 O 711.112 1.15315 1.5201 0
M  V30 7482 C 708.252 2.43432 2.44611 0
M  V30 7483 C 707.365 3.69457 2.23888 0
M  V30 7484 C 706.5 4.00473 3.48991 0
M  V30 7485 C 705.539 5.19638 3.23485 0
M  V30 7486 N 704.676 5.46457 4.40828 0
M  V30 7487 H 709.516 2.88527 0.745386 0
M  V30 7488 H 707.053 1.42714 0.356535 0
M  V30 7489 H 709.011 2.65879 3.21503 0
M  V30 7490 H 707.641 1.59266 2.80774 0
M  V30 7491 H 706.693 3.54545 1.37847 0
M  V30 7492 H 708.005 4.56497 2.01026 0
M  V30 7493 H 707.159 4.23642 4.34295 0
M  V30 7494 H 705.898 3.11935 3.74897 0
M  V30 7495 H 704.903 4.96299 2.36574 0
M  V30 7496 H 706.128 6.09766 2.98935 0
M  V30 7497 H 704.074 4.60876 4.66829 0
M  V30 7498 H 703.991 6.27849 4.2112 0
M  V30 7499 H 705.259 5.74155 5.27225 0
M  V30 7500 N 709.488 -0.375779 1.53054 0
M  V30 7501 C 710.436 -1.48015 1.79428 0
M  V30 7502 C 711.43 -1.55893 0.662854 0
M  V30 7503 O 712.636 -1.58901 0.845599 0
M  V30 7504 H 709.011 -0.492887 0.56795 0
M  V30 7505 H 710.982 -1.22971 2.71884 0
M  V30 7506 C 709.731 -2.84984 1.99197 0
M  V30 7507 H 709.054 -2.79677 2.85693 0
M  V30 7508 H 710.494 -3.61462 2.21633 0
M  V30 7509 C 708.953 -3.28025 0.768183 0
M  V30 7510 O 709.483 -4.01671 -0.0480482 0
M  V30 7511 N 707.689 -2.84454 0.594521 0
M  V30 7512 H 707.236 -2.24688 1.25988 0
M  V30 7513 H 707.194 -3.13609 -0.222916 0
M  V30 7514 N 710.966 -1.44241 -0.634997 0
M  V30 7515 C 711.913 -1.5081 -1.74714 0
M  V30 7516 C 712.883 -0.356147 -1.62237 0
M  V30 7517 O 714.068 -0.565848 -1.82216 0
M  V30 7518 C 711.208 -1.45458 -3.12947 0
M  V30 7519 C 710.321 -2.70998 -3.36428 0
M  V30 7520 C 709.456 -2.57507 -4.64611 0
M  V30 7521 C 708.495 -3.78229 -4.81258 0
M  V30 7522 N 707.632 -3.63438 -6.00714 0
M  V30 7523 H 712.472 -2.45832 -1.68436 0
M  V30 7524 H 710.009 -1.2201 -0.821706 0
M  V30 7525 H 711.967 -1.40347 -3.92885 0
M  V30 7526 H 710.597 -0.540058 -3.1825 0
M  V30 7527 H 709.649 -2.86312 -2.50458 0
M  V30 7528 H 710.961 -3.60619 -3.44609 0
M  V30 7529 H 710.115 -2.50207 -5.52703 0
M  V30 7530 H 708.854 -1.65441 -4.58782 0
M  V30 7531 H 707.859 -3.85918 -3.91596 0
M  V30 7532 H 709.084 -4.71327 -4.88904 0
M  V30 7533 H 707.03 -2.7412 -5.95982 0
M  V30 7534 H 706.947 -4.46672 -6.09934 0
M  V30 7535 H 708.215 -3.60022 -6.91378 0
M  V30 7536 N 712.444 0.87505 -1.31075 0
M  V30 7537 C 713.407 1.96333 -1.18263 0
M  V30 7538 C 714.407 1.60416 -0.111106 0
M  V30 7539 O 715.597 1.7044 -0.359987 0
M  V30 7540 C 712.729 3.31036 -0.81414 0
M  V30 7541 H 713.922 2.09125 -2.14958 0
M  V30 7542 H 711.475 1.06271 -1.14614 0
M  V30 7543 H 712.21 3.23944 0.151875 0
M  V30 7544 H 711.995 3.58476 -1.58862 0
M  V30 7545 H 713.485 4.10842 -0.748249 0
M  V30 7546 N 713.922 1.13953 1.08869 0
M  V30 7547 C 715.168 0.916103 1.81602 0
M  V30 7548 C 715.523 -0.551633 1.84322 0
M  V30 7549 O 714.816 -1.40322 1.30462 0
M  V30 7550 C 715.01 1.44495 3.26888 0
M  V30 7551 C 714.839 2.96257 3.38322 0
M  V30 7552 C 713.609 3.64658 3.49789 0
M  V30 7553 C 715.807 3.94156 3.30372 0
M  V30 7554 N 713.789 5.04379 3.49965 0
M  V30 7555 C 715.16 5.20101 3.37484 0
M  V30 7556 C 717.215 3.86342 3.14077 0
M  V30 7557 C 715.918 6.39145 3.29979 0
M  V30 7558 C 717.944 5.04927 3.07901 0
M  V30 7559 C 717.306 6.29738 3.1561 0
M  V30 7560 H 713.405 0.388701 0.678554 0
M  V30 7561 H 715.989 1.44879 1.3007 0
M  V30 7562 H 714.16 0.939102 3.76876 0
M  V30 7563 H 715.892 1.16193 3.87661 0
M  V30 7564 H 712.647 3.15196 3.5348 0
M  V30 7565 H 713.071 5.77305 3.53622 0
M  V30 7566 H 717.713 2.90726 3.06982 0
M  V30 7567 H 715.431 7.3501 3.35836 0
M  V30 7568 H 719.017 5.00626 2.9642 0
M  V30 7569 H 717.897 7.19958 3.10854 0
M  V30 7570 N 715.4 -1.26948 0.933913 0
M  V30 7571 C 716.333 -2.24977 0.382169 0
M  V30 7572 C 717.311 -1.53893 -0.524949 0
M  V30 7573 O 718.495 -1.82699 -0.464048 0
M  V30 7574 C 715.622 -3.35676 -0.451615 0
M  V30 7575 C 714.668 -4.24686 0.392947 0
M  V30 7576 S 715.501 -5.03898 1.81237 0
M  V30 7577 C 716.657 -6.18078 0.986443 0
M  V30 7578 H 716.89 -2.71429 1.21299 0
M  V30 7579 H 714.423 -1.35701 0.736523 0
M  V30 7580 H 716.381 -3.99901 -0.926797 0
M  V30 7581 H 715.042 -2.8785 -1.25703 0
M  V30 7582 H 714.235 -5.03402 -0.245533 0
M  V30 7583 H 713.837 -3.65288 0.802537 0
M  V30 7584 H 716.129 -6.77125 0.225321 0
M  V30 7585 H 717.072 -6.86216 1.74682 0
M  V30 7586 H 717.48 -5.62047 0.525711 0
M  V30 7587 N 716.879 -0.700114 -1.41195 0
M  V30 7588 C 718.125 -0.233351 -2.01453 0
M  V30 7589 C 718.458 1.16548 -1.55339 0
M  V30 7590 O 717.733 1.78756 -0.766575 0
M  V30 7591 C 718.016 -0.2961 -3.58881 0
M  V30 7592 C 717.869 -1.7322 -4.15108 0
M  V30 7593 C 719.188 0.341525 -4.38773 0
M  V30 7594 H 716.307 -0.0862667 -0.731934 0
M  V30 7595 H 718.949 -0.889693 -1.67882 0
M  V30 7596 H 717.099 0.262736 -3.87611 0
M  V30 7597 H 718.771 -2.34523 -3.97236 0
M  V30 7598 H 717.014 -2.2649 -3.69979 0
M  V30 7599 H 717.685 -1.7276 -5.24269 0
M  V30 7600 H 720.161 -0.134461 -4.15883 0
M  V30 7601 H 719.037 0.267098 -5.4825 0
M  V30 7602 H 719.298 1.42289 -4.18577 0
M  V30 7603 N 718.357 1.51182 -0.445186 0
M  V30 7604 C 719.307 2.24804 0.380394 0
M  V30 7605 C 720.291 1.27344 0.983482 0
M  V30 7606 O 721.483 1.52392 0.900322 0
M  V30 7607 C 718.612 3.09922 1.4766 0
M  V30 7608 C 717.698 4.14816 0.882517 0
M  V30 7609 N 718.089 5.05797 0.0183278 0
M  V30 7610 C 716.387 4.30938 1.14927 0
M  V30 7611 C 717.088 5.8084 -0.316152 0
M  V30 7612 N 716.064 5.42759 0.302214 0
M  V30 7613 H 719.866 2.92508 -0.285737 0
M  V30 7614 H 717.38 1.60342 -0.257733 0
M  V30 7615 H 719.377 3.61249 2.08098 0
M  V30 7616 H 718.037 2.43763 2.14498 0
M  V30 7617 H 719.048 5.16725 -0.348679 0
M  V30 7618 H 715.725 3.76005 1.81457 0
M  V30 7619 H 717.115 6.64115 -1.01986 0
M  V30 7620 N 719.835 0.176821 1.56605 0
M  V30 7621 C 721.251 -0.179278 1.5859 0
M  V30 7622 C 721.451 -1.62433 1.19238 0
M  V30 7623 O 720.507 -2.35665 0.906552 0
M  V30 7624 C 721.82 0.106524 3.00511 0
M  V30 7625 C 723.368 0.0451731 3.12967 0
M  V30 7626 C 723.843 0.304038 4.5699 0
M  V30 7627 N 725.334 0.252008 4.62514 0
M  V30 7628 C 726.069 0.426404 5.71812 0
M  V30 7629 N 725.565 0.660155 6.89648 0
M  V30 7630 N 727.358 0.361926 5.60934 0
M  V30 7631 H 719.509 1.12001 1.8047 0
M  V30 7632 H 721.772 0.445679 0.836704 0
M  V30 7633 H 721.478 1.10778 3.33798 0
M  V30 7634 H 721.352 -0.599337 3.72408 0
M  V30 7635 H 723.739 -0.946662 2.79504 0
M  V30 7636 H 723.82 0.78383 2.43495 0
M  V30 7637 H 723.464 1.29311 4.91163 0
M  V30 7638 H 723.394 -0.455294 5.24628 0
M  V30 7639 H 725.885 0.0772102 3.77821 0
M  V30 7640 H 726.198 0.782529 7.68828 0
M  V30 7641 H 724.543 0.696835 6.91498 0
M  V30 7642 H 727.734 0.17986 4.67754 0
M  V30 7643 H 727.907 0.501263 6.46058 0
M  V30 7644 N 721.313 -1.57302 -0.09688 0
M  V30 7645 C 722.245 -1.98618 -1.14384 0
M  V30 7646 C 723.258 -0.888483 -1.36418 0
M  V30 7647 O 724.447 -1.16661 -1.35101 0
M  V30 7648 C 721.547 -2.28838 -2.49973 0
M  V30 7649 C 720.72 -3.60132 -2.48241 0
M  V30 7650 C 719.779 -3.7831 -3.65743 0
M  V30 7651 O 718.805 -4.50183 -3.48316 0
M  V30 7652 N 720.007 -3.18752 -4.85157 0
M  V30 7653 H 722.772 -2.8904 -0.792202 0
M  V30 7654 H 720.333 -1.59356 -0.285883 0
M  V30 7655 H 722.325 -2.38193 -3.27179 0
M  V30 7656 H 720.895 -1.44431 -2.77233 0
M  V30 7657 H 720.115 -3.61763 -1.56593 0
M  V30 7658 H 721.403 -4.46389 -2.4416 0
M  V30 7659 H 720.801 -2.60368 -5.0222 0
M  V30 7660 H 719.358 -3.33595 -5.59962 0
M  V30 7661 N 722.791 0.367657 -1.53252 0
M  V30 7662 C 724.037 1.10864 -1.70531 0
M  V30 7663 C 724.392 1.87051 -0.4505 0
M  V30 7664 O 723.685 1.83342 0.556431 0
M  V30 7665 C 723.879 2.09825 -2.89324 0
M  V30 7666 C 723.708 1.43361 -4.26237 0
M  V30 7667 C 722.478 1.18861 -4.91121 0
M  V30 7668 C 724.676 0.872409 -5.06847 0
M  V30 7669 N 722.658 0.487258 -6.11963 0
M  V30 7670 C 724.029 0.300301 -6.19272 0
M  V30 7671 C 726.084 0.770895 -4.91896 0
M  V30 7672 C 724.787 -0.363419 -7.18381 0
M  V30 7673 C 726.813 0.12096 -5.91276 0
M  V30 7674 C 726.175 -0.440283 -7.03023 0
M  V30 7675 H 722.274 0.390902 -0.677288 0
M  V30 7676 H 724.858 0.395305 -1.90645 0
M  V30 7677 H 723.029 2.78473 -2.70753 0
M  V30 7678 H 724.761 2.76585 -2.95436 0
M  V30 7679 H 721.516 1.46934 -4.5023 0
M  V30 7680 H 721.94 0.152005 -6.76829 0
M  V30 7681 H 726.582 1.19058 -4.05691 0
M  V30 7682 H 724.3 -0.795057 -8.04179 0
M  V30 7683 H 727.886 0.0433702 -5.81784 0
M  V30 7684 H 726.766 -0.935244 -7.78603 0
M  V30 7685 N 724.269 1.44576 0.627338 0
M  V30 7686 C 725.516 1.47558 1.38682 0
M  V30 7687 C 725.844 0.109636 1.94191 0
M  V30 7688 O 725.099 -0.889092 1.74338 0
M  V30 7689 C 725.398 2.48644 2.56731 0
M  V30 7690 C 725.064 3.93873 2.19489 0
M  V30 7691 C 723.726 4.33421 2.09045 0
M  V30 7692 C 726.078 4.85286 1.90124 0
M  V30 7693 C 723.406 5.62303 1.6743 0
M  V30 7694 C 725.758 6.14559 1.50001 0
M  V30 7695 C 724.422 6.53058 1.38101 0
M  V30 7696 H 723.692 0.539955 0.507474 0
M  V30 7697 H 726.339 1.77811 0.711021 0
M  V30 7698 H 724.644 2.11889 3.29561 0
M  V30 7699 H 726.341 2.48197 3.14959 0
M  V30 7700 H 722.931 3.62587 2.28537 0
M  V30 7701 H 727.115 4.55483 1.971 0
M  V30 7702 H 722.371 5.90945 1.56823 0
M  V30 7703 H 726.545 6.84848 1.26319 0
M  V30 7704 H 724.172 7.52826 1.05628 0
M  V30 7705 N 725.747 -0.868086 1.31537 0
M  V30 7706 C 726.994 -1.62127 1.2133 0
M  V30 7707 C 727.322 -1.93158 -0.2281 0
M  V30 7708 O 726.577 -1.5632 -1.1774 0
M  V30 7709 C 726.876 -2.95889 2.0046 0
M  V30 7710 C 726.542 -2.84343 3.49943 0
M  V30 7711 C 725.204 -2.80901 3.90702 0
M  V30 7712 C 727.556 -2.71243 4.45058 0
M  V30 7713 C 724.884 -2.6222 5.24841 0
M  V30 7714 C 727.236 -2.54098 5.79325 0
M  V30 7715 C 725.9 -2.4904 6.19302 0
M  V30 7716 H 725.17 -0.593265 0.443979 0
M  V30 7717 H 727.817 -1.00803 1.62822 0
M  V30 7718 H 726.122 -3.61259 1.51655 0
M  V30 7719 H 727.819 -3.53161 1.89942 0
M  V30 7720 H 724.409 -2.8784 3.17563 0
M  V30 7721 H 728.593 -2.72956 4.14498 0
M  V30 7722 H 723.849 -2.56731 5.54887 0
M  V30 7723 H 728.023 -2.42938 6.52652 0
M  V30 7724 H 725.65 -2.34324 7.23185 0
M  V30 7725 N 727.225 -1.14528 -1.08264 0
M  V30 7726 C 728.502 -0.825185 -1.77342 0
M  V30 7727 C 728.882 0.681037 -1.99813 0
M  V30 7728 O 728.23 1.62234 -1.60912 0
M  V30 7729 C 728.44 -1.62556 -3.08831 0
M  V30 7730 C 729.788 -1.82585 -3.83338 0
M  V30 7731 O 730.812 -1.59254 -3.18617 0
M  V30 7732 O 729.671 -2.21598 -4.99556 0
M  V30 7733 H 726.765 -0.302531 -0.769678 0
M  V30 7734 H 729.311 -1.25056 -1.14713 0
M  V30 7735 H 728.083 -2.64862 -2.88035 0
M  V30 7736 H 727.706 -1.1959 -3.79189 0
M  V30 7737 N 728.703 1.26451 -0.940633 0
M  V30 7738 C 729.633 2.28773 -0.467479 0
M  V30 7739 C 730.614 1.63218 0.478955 0
M  V30 7740 O 731.799 1.90427 0.380929 0
M  V30 7741 C 728.929 3.46259 0.268656 0
M  V30 7742 C 727.883 4.23898 -0.591171 0
M  V30 7743 C 727.209 5.33993 0.274891 0
M  V30 7744 C 728.509 4.87974 -1.86223 0
M  V30 7745 H 730.203 2.68601 -1.32265 0
M  V30 7746 H 727.749 1.29123 -0.637436 0
M  V30 7747 H 729.702 4.16951 0.610696 0
M  V30 7748 H 728.426 3.05383 1.15796 0
M  V30 7749 H 727.085 3.54969 -0.916098 0
M  V30 7750 H 726.733 4.89358 1.16353 0
M  V30 7751 H 726.433 5.86849 -0.297006 0
M  V30 7752 H 727.957 6.07523 0.612213 0
M  V30 7753 H 729.371 5.50883 -1.58747 0
M  V30 7754 H 727.768 5.50945 -2.37866 0
M  V30 7755 H 728.838 4.10945 -2.57394 0
M  V30 7756 N 730.181 0.707592 1.40822 0
M  V30 7757 C 731.592 0.317011 1.83989 0
M  V30 7758 C 731.943 -1.14697 1.59182 0
M  V30 7759 O 731.068 -1.8818 1.06852 0
M  V30 7760 C 731.663 0.568593 3.33995 0
M  V30 7761 C 730.222 0.231804 3.75686 0
M  V30 7762 C 729.369 0.844933 2.64114 0
M  V30 7763 H 732.32 0.907349 1.30203 0
M  V30 7764 H 732.341 -0.168798 3.80125 0
M  V30 7765 H 731.853 1.63417 3.52018 0
M  V30 7766 H 729.954 -0.82903 3.6326 0
M  V30 7767 H 730.067 0.695219 4.74029 0
M  V30 7768 H 728.431 0.273588 2.53226 0
M  V30 7769 H 729.214 1.91462 2.84951 0
M  V30 7770 N 731.66 -1.50943 0.453197 0
M  V30 7771 C 732.59 -2.31005 -0.34044 0
M  V30 7772 C 733.571 -1.37112 -1.00669 0
M  V30 7773 O 734.756 -1.66033 -1.0073 0
M  V30 7774 C 731.886 -3.16358 -1.433 0
M  V30 7775 C 730.84 -4.18658 -0.889363 0
M  V30 7776 C 730.166 -4.92633 -2.07887 0
M  V30 7777 C 731.466 -5.22227 0.0871142 0
M  V30 7778 H 733.16 -2.97601 0.327723 0
M  V30 7779 H 730.706 -1.43119 0.159054 0
M  V30 7780 H 732.659 -3.71155 -1.99555 0
M  V30 7781 H 731.383 -2.47613 -2.12968 0
M  V30 7782 H 730.042 -3.64936 -0.348915 0
M  V30 7783 H 729.69 -4.20376 -2.76211 0
M  V30 7784 H 729.39 -5.61819 -1.72143 0
M  V30 7785 H 730.914 -5.50258 -2.64666 0
M  V30 7786 H 732.328 -5.72001 -0.385656 0
M  V30 7787 H 730.725 -5.99032 0.357926 0
M  V30 7788 H 731.795 -4.74077 1.01879 0
M  V30 7789 N 733.138 -0.185124 -1.56509 0
M  V30 7790 C 734.549 0.329221 -1.83774 0
M  V30 7791 C 734.9 1.62093 -1.10545 0
M  V30 7792 O 734.025 2.13334 -0.36298 0
M  V30 7793 C 734.62 0.604099 -3.33371 0
M  V30 7794 C 733.179 1.06284 -3.61083 0
M  V30 7795 C 732.326 0.10608 -2.77097 0
M  V30 7796 H 735.277 -0.409116 -1.53336 0
M  V30 7797 H 735.298 1.45458 -3.51599 0
M  V30 7798 H 734.81 -0.336201 -3.86641 0
M  V30 7799 H 732.911 2.01777 -3.13236 0
M  V30 7800 H 733.024 0.962453 -4.69333 0
M  V30 7801 H 731.388 0.606082 -2.47384 0
M  V30 7802 H 732.171 -0.828486 -3.33153 0
M  V30 7803 N 734.616 1.57351 0.0885366 0
M  V30 7804 C 735.862 1.87564 0.786842 0
M  V30 7805 C 736.217 0.776774 1.76023 0
M  V30 7806 O 735.51 -0.220637 1.90325 0
M  V30 7807 C 735.704 3.22098 1.5488 0
M  V30 7808 C 735.533 4.44967 0.650706 0
M  V30 7809 C 734.303 5.04444 0.293957 0
M  V30 7810 C 736.501 5.1428 -0.0452187 0
M  V30 7811 N 734.483 6.10846 -0.611609 0
M  V30 7812 C 735.854 6.14704 -0.808603 0
M  V30 7813 C 737.909 4.97759 -0.118451 0
M  V30 7814 C 736.612 7.00392 -1.63839 0
M  V30 7815 C 738.638 5.8396 -0.935157 0
M  V30 7816 C 738 6.83909 -1.68664 0
M  V30 7817 H 734.099 0.73613 0.263887 0
M  V30 7818 H 736.683 1.94638 0.049074 0
M  V30 7819 H 734.854 3.16064 2.2574 0
M  V30 7820 H 736.586 3.40015 2.19481 0
M  V30 7821 H 733.341 4.69214 0.643086 0
M  V30 7822 H 733.765 6.68695 -1.05714 0
M  V30 7823 H 738.407 4.20418 0.448202 0
M  V30 7824 H 736.125 7.7712 -2.21608 0
M  V30 7825 H 739.711 5.73236 -0.994579 0
M  V30 7826 H 738.591 7.49454 -2.30842 0
M  V30 7827 N 736.094 -0.359525 1.53444 0
M  V30 7828 C 737.322 -1.12198 1.73837 0
M  V30 7829 C 737.737 -1.82854 0.470107 0
M  V30 7830 O 737.094 -1.73781 -0.557349 0
M  V30 7831 C 737.145 -2.14769 2.90786 0
M  V30 7832 O 736.866 -1.46989 4.12706 0
M  V30 7833 C 738.367 -3.03514 3.231 0
M  V30 7834 H 735.587 -0.33524 0.581253 0
M  V30 7835 H 738.131 -0.416598 2.00212 0
M  V30 7836 H 736.286 -2.80896 2.66788 0
M  V30 7837 H 736.7 -2.15378 4.78239 0
M  V30 7838 H 738.174 -3.71453 4.08322 0
M  V30 7839 H 738.651 -3.68658 2.38721 0
M  V30 7840 H 739.257 -2.42996 3.49046 0
M  V30 7841 N 737.572 -1.44907 -0.619662 0
M  V30 7842 C 738.797 -1.52021 -1.41083 0
M  V30 7843 C 739.222 -0.14976 -1.87503 0
M  V30 7844 O 738.58 0.863303 -1.59426 0
M  V30 7845 C 738.628 -2.49911 -2.59955 0
M  V30 7846 O 737.732 -2.00857 -3.60181 0
M  V30 7847 H 737.073 -0.512912 -0.421684 0
M  V30 7848 H 739.603 -1.90149 -0.755282 0
M  V30 7849 H 739.613 -2.68323 -3.07354 0
M  V30 7850 H 738.288 -3.4945 -2.25516 0
M  V30 7851 H 736.865 -1.92265 -3.19513 0
M  V30 7852 N 739.05 0.861098 -1.31996 0
M  V30 7853 C 740.298 1.61162 -1.21947 0
M  V30 7854 C 740.619 1.93751 0.220351 0
M  V30 7855 O 739.889 1.59069 1.14341 0
M  V30 7856 H 738.469 0.597485 -0.448353 0
M  V30 7857 H 741.131 1.03039 -1.65436 0
M  V30 7858 H 740.227 2.55138 -1.79752 0
M  V30 7859 N 740.528 1.15101 1.07655 0
M  V30 7860 C 741.491 0.847625 2.12951 0
M  V30 7861 C 742.491 -0.151227 1.60087 0
M  V30 7862 O 743.681 0.0780399 1.74025 0
M  V30 7863 C 740.813 0.265 3.39868 0
M  V30 7864 H 742.006 1.7809 2.41296 0
M  V30 7865 H 739.559 0.958072 1.23494 0
M  V30 7866 H 740.294 -0.676625 3.17163 0
M  V30 7867 H 740.079 0.984554 3.79538 0
M  V30 7868 H 741.569 0.0702121 4.17541 0
M  V30 7869 N 742.006 -1.2595 0.947325 0
M  V30 7870 C 743.234 -1.97544 0.615127 0
M  V30 7871 C 743.649 -1.70484 -0.811221 0
M  V30 7872 O 743.006 -0.97662 -1.5417 0
M  V30 7873 C 743.057 -3.51236 0.855328 0
M  V30 7874 O 742.778 -3.77359 2.22558 0
M  V30 7875 C 744.279 -4.40066 0.534515 0
M  V30 7876 H 741.499 -0.629888 0.231263 0
M  V30 7877 H 744.043 -1.60308 1.26971 0
M  V30 7878 H 742.198 -3.8661 0.247266 0
M  V30 7879 H 742.612 -4.71857 2.29022 0
M  V30 7880 H 744.086 -5.46838 0.753168 0
M  V30 7881 H 744.563 -4.35982 -0.530701 0
M  V30 7882 H 745.169 -4.10245 1.12158 0
M  V30 7883 N 743.484 -0.715051 -1.40445 0
M  V30 7884 C 744.712 -0.263959 -2.05209 0
M  V30 7885 C 745.127 1.09403 -1.53871 0
M  V30 7886 O 744.484 1.68746 -0.695064 0
M  V30 7887 C 744.535 -0.234545 -3.60738 0
M  V30 7888 O 744.256 -1.53891 -4.10182 0
M  V30 7889 C 745.757 0.235164 -4.42676 0
M  V30 7890 H 742.977 -0.11876 -0.660407 0
M  V30 7891 H 745.521 -0.973107 -1.79864 0
M  V30 7892 H 743.676 0.425563 -3.85055 0
M  V30 7893 H 744.09 -1.43903 -5.04373 0
M  V30 7894 H 745.564 0.204598 -5.51621 0
M  V30 7895 H 746.041 1.27724 -4.20218 0
M  V30 7896 H 746.647 -0.394649 -4.23465 0
M  V30 7897 N 744.962 1.50701 -0.461195 0
M  V30 7898 C 745.909 2.2831 0.338094 0
M  V30 7899 C 746.879 1.32928 0.995957 0
M  V30 7900 O 748.064 1.61857 1.0103 0
M  V30 7901 C 745.204 3.14539 1.41983 0
M  V30 7902 C 744.317 4.24942 0.77773 0
M  V30 7903 C 743.452 4.98443 1.83652 0
M  V30 7904 C 742.491 6.00733 1.17413 0
M  V30 7905 N 741.628 6.6755 2.17533 0
M  V30 7906 H 746.468 2.96167 -0.330051 0
M  V30 7907 H 744.005 1.4606 -0.174611 0
M  V30 7908 H 745.963 3.62877 2.05855 0
M  V30 7909 H 744.593 2.48749 2.05727 0
M  V30 7910 H 743.645 3.80391 0.0266924 0
M  V30 7911 H 744.957 4.98151 0.254362 0
M  V30 7912 H 744.111 5.50449 2.55129 0
M  V30 7913 H 742.85 4.24917 2.39367 0
M  V30 7914 H 741.855 5.47997 0.444944 0
M  V30 7915 H 743.08 6.76227 0.624006 0
M  V30 7916 H 741.026 5.96823 2.72284 0
M  V30 7917 H 740.943 7.36603 1.70154 0
M  V30 7918 H 742.211 7.24178 2.88421 0
M  V30 7919 N 746.441 0.193421 1.56409 0
M  V30 7920 C 747.669 -0.451438 2.01915 0
M  V30 7921 C 748.084 -1.55306 1.07357 0
M  V30 7922 O 747.441 -1.82333 0.0781512 0
M  V30 7923 C 747.492 -1.00931 3.47124 0
M  V30 7924 O 747.213 0.0483623 4.38073 0
M  V30 7925 C 748.714 -1.73021 4.0814 0
M  V30 7926 H 745.934 -0.113495 0.661332 0
M  V30 7927 H 748.478 0.301636 2.02263 0
M  V30 7928 H 746.633 -1.71277 3.47481 0
M  V30 7929 H 747.047 -0.366644 5.23217 0
M  V30 7930 H 748.521 -2.07289 5.11601 0
M  V30 7931 H 748.998 -2.6333 3.51502 0
M  V30 7932 H 749.604 -1.07264 4.11551 0
M  V30 7933 N 747.919 -1.57396 -0.0801906 0
M  V30 7934 C 749.33 -1.75642 -0.633002 0
M  V30 7935 C 749.681 -0.817708 -1.78348 0
M  V30 7936 O 748.806 0.000233743 -2.164 0
M  V30 7937 C 749.401 -3.18502 -1.15507 0
M  V30 7938 C 747.96 -3.38121 -1.65381 0
M  V30 7939 C 747.107 -2.71386 -0.569661 0
M  V30 7940 H 750.058 -1.58027 0.145949 0
M  V30 7941 H 750.079 -3.22198 -2.02408 0
M  V30 7942 H 749.591 -3.86799 -0.317515 0
M  V30 7943 H 747.692 -2.74926 -2.51488 0
M  V30 7944 H 747.805 -4.46521 -1.73654 0
M  V30 7945 H 746.169 -2.33702 -1.0127 0
M  V30 7946 H 746.952 -3.42332 0.257561 0
M  V30 7947 N 749.397 0.351382 -1.53633 0
M  V30 7948 C 750.625 1.11275 -1.74429 0
M  V30 7949 C 751.04 1.82602 -0.479798 0
M  V30 7950 O 750.397 1.74074 0.548125 0
M  V30 7951 C 750.448 2.13223 -2.91921 0
M  V30 7952 O 750.169 1.44798 -4.13479 0
M  V30 7953 C 751.67 3.01797 -3.24706 0
M  V30 7954 H 748.89 0.332153 -0.583023 0
M  V30 7955 H 751.434 0.405974 -2.0043 0
M  V30 7956 H 749.589 2.79477 -2.68274 0
M  V30 7957 H 750.003 2.12839 -4.79374 0
M  V30 7958 H 751.477 3.69282 -4.10286 0
M  V30 7959 H 751.954 3.67387 -2.40673 0
M  V30 7960 H 752.56 2.41141 -3.5033 0
M  V30 7961 N 750.875 1.45233 0.611969 0
M  V30 7962 C 752.121 1.50233 1.37119 0
M  V30 7963 C 752.476 0.140336 1.91888 0
M  V30 7964 O 751.769 -0.847161 1.71854 0
M  V30 7965 C 751.963 2.51353 2.54079 0
M  V30 7966 C 751.792 3.97251 2.10764 0
M  V30 7967 C 750.562 4.65256 1.97141 0
M  V30 7968 C 752.76 4.85914 1.68499 0
M  V30 7969 N 750.742 5.95895 1.4759 0
M  V30 7970 C 752.113 6.06147 1.30331 0
M  V30 7971 C 754.168 4.72813 1.56051 0
M  V30 7972 C 752.871 7.14729 0.809591 0
M  V30 7973 C 754.897 5.8144 1.08083 0
M  V30 7974 C 754.259 7.00825 0.708775 0
M  V30 7975 H 750.358 0.604708 0.495835 0
M  V30 7976 H 752.942 1.81679 0.700055 0
M  V30 7977 H 751.113 2.21866 3.18795 0
M  V30 7978 H 752.845 2.46528 3.20945 0
M  V30 7979 H 749.6 4.20345 2.18191 0
M  V30 7980 H 750.024 6.65349 1.25059 0
M  V30 7981 H 754.666 3.80931 1.83443 0
M  V30 7982 H 752.384 8.06404 0.523215 0
M  V30 7983 H 755.97 5.73335 0.988842 0
M  V30 7984 H 754.85 7.83448 0.343305 0
M  V30 7985 N 752.353 -0.854086 1.3245 0
M  V30 7986 C 753.301 -1.98411 1.21391 0
M  V30 7987 C 754.295 -1.68984 0.118586 0
M  V30 7988 O 755.501 -1.77784 0.281549 0
M  V30 7989 H 751.876 -0.651077 0.376301 0
M  V30 7990 H 753.847 -2.04867 2.16961 0
M  V30 7991 C 752.596 -3.34345 0.954407 0
M  V30 7992 H 751.919 -3.57518 1.78944 0
M  V30 7993 H 753.359 -4.13959 0.917269 0
M  V30 7994 C 751.818 -3.35151 -0.342838 0
M  V30 7995 O 752.348 -3.78174 -1.35452 0
M  V30 7996 N 750.554 -2.88298 -0.365012 0
M  V30 7997 H 750.101 -2.53481 0.4588 0
M  V30 7998 H 750.059 -2.8922 -1.23284 0
M  V30 7999 N 753.831 -1.1567 -1.07043 0
M  V30 8000 C 755.247 -0.900006 -1.31803 0
M  V30 8001 C 755.447 0.451293 -1.96381 0
M  V30 8002 O 754.503 1.19252 -2.22565 0
M  V30 8003 C 755.816 -2.04334 -2.20609 0
M  V30 8004 C 757.364 -2.07823 -2.34048 0
M  V30 8005 C 757.839 -3.21488 -3.26204 0
M  V30 8006 N 759.33 -3.21156 -3.33786 0
M  V30 8007 C 760.065 -4.05746 -4.05163 0
M  V30 8008 N 759.561 -5.00407 -4.79129 0
M  V30 8009 N 761.354 -3.93759 -4.01136 0
M  V30 8010 H 753.505 -2.02681 -0.635146 0
M  V30 8011 H 755.768 -0.883956 -0.342528 0
M  V30 8012 H 755.474 -3.01895 -1.80423 0
M  V30 8013 H 755.348 -1.97838 -3.21154 0
M  V30 8014 H 757.735 -1.1086 -2.73485 0
M  V30 8015 H 757.816 -2.18386 -1.33197 0
M  V30 8016 H 757.46 -4.18706 -2.87485 0
M  V30 8017 H 757.39 -3.08162 -4.27017 0
M  V30 8018 H 759.881 -2.52606 -2.81067 0
M  V30 8019 H 760.194 -5.61387 -5.31097 0
M  V30 8020 H 758.539 -5.04393 -4.78135 0
M  V30 8021 H 761.73 -3.19115 -3.42466 0
M  V30 8022 H 761.903 -4.59906 -4.56498 0
M  V30 8023 N 755.309 1.25446 -0.953992 0
M  V30 8024 C 756.256 2.25912 -0.472485 0
M  V30 8025 C 757.226 1.59173 0.47469 0
M  V30 8026 O 758.411 1.86812 0.388082 0
M  V30 8027 C 755.551 3.44235 0.244218 0
M  V30 8028 C 754.664 4.25613 -0.740121 0
M  V30 8029 C 753.799 5.312 -0.000922267 0
M  V30 8030 C 752.838 6.04265 -0.976236 0
M  V30 8031 N 751.975 7.01589 -0.267952 0
M  V30 8032 H 756.815 2.66469 -1.3341 0
M  V30 8033 H 754.352 1.31005 -0.669045 0
M  V30 8034 H 756.31 4.11682 0.676314 0
M  V30 8035 H 754.94 3.04554 1.06988 0
M  V30 8036 H 753.992 3.57834 -1.2907 0
M  V30 8037 H 755.304 4.762 -1.48441 0
M  V30 8038 H 754.458 6.04719 0.48984 0
M  V30 8039 H 753.197 4.81484 0.776159 0
M  V30 8040 H 752.202 5.29561 -1.478 0
M  V30 8041 H 753.427 6.5607 -1.75354 0
M  V30 8042 H 751.373 6.54164 0.490403 0
M  V30 8043 H 751.29 7.4999 -0.951344 0
M  V30 8044 H 752.558 7.7924 0.201294 0
M  V30 8045 N 756.787 0.722489 1.40064 0
M  V30 8046 C 757.697 0.0755984 2.34478 0
M  V30 8047 C 758.713 -0.736046 1.57665 0
M  V30 8048 O 759.889 -0.667407 1.9002 0
M  V30 8049 C 756.954 -0.830075 3.36616 0
M  V30 8050 C 756.015 -0.00759884 4.29299 0
M  V30 8051 C 755.248 -0.870139 5.26559 0
M  V30 8052 O 755.471 -2.10921 5.2997 0
M  V30 8053 O 754.405 -0.305454 6.01124 0
M  V30 8054 H 758.231 0.854545 2.9143 0
M  V30 8055 H 755.816 0.483032 1.41376 0
M  V30 8056 H 757.698 -1.34864 3.99236 0
M  V30 8057 H 756.373 -1.58805 2.82069 0
M  V30 8058 H 755.28 0.556199 3.69942 0
M  V30 8059 H 756.613 0.712312 4.87018 0
M  V30 8060 N 758.265 -1.50454 0.469181 0
M  V30 8061 C 759.195 -2.31353 -0.31592 0
M  V30 8062 C 760.176 -1.38172 -0.992094 0
M  V30 8063 O 761.361 -1.67093 -0.989633 0
M  V30 8064 C 758.491 -3.1786 -1.39937 0
M  V30 8065 C 757.445 -4.19578 -0.844909 0
M  V30 8066 C 756.771 -4.9481 -2.0265 0
M  V30 8067 C 758.071 -5.22106 0.142499 0
M  V30 8068 H 759.765 -2.97237 0.359269 0
M  V30 8069 H 757.311 -1.42942 0.174224 0
M  V30 8070 H 759.264 -3.7325 -1.95607 0
M  V30 8071 H 757.988 -2.49858 -2.1033 0
M  V30 8072 H 756.647 -3.65285 -0.310189 0
M  V30 8073 H 756.295 -4.23282 -2.71737 0
M  V30 8074 H 755.995 -5.63613 -1.66174 0
M  V30 8075 H 757.519 -5.53035 -2.58815 0
M  V30 8076 H 758.933 -5.72378 -0.324966 0
M  V30 8077 H 757.33 -5.98618 0.421441 0
M  V30 8078 H 758.4 -4.7297 1.06901 0
M  V30 8079 N 759.743 -0.201713 -1.56304 0
M  V30 8080 C 760.673 0.71155 -2.22394 0
M  V30 8081 C 761.654 1.21625 -1.18917 0
M  V30 8082 O 762.839 1.26388 -1.47444 0
M  V30 8083 C 759.969 1.92837 -2.88845 0
M  V30 8084 C 758.923 1.55831 -3.98623 0
M  V30 8085 C 758.249 2.85228 -4.52271 0
M  V30 8086 C 759.549 0.763249 -5.16693 0
M  V30 8087 H 761.243 0.160573 -2.98969 0
M  V30 8088 H 758.789 0.0757916 -1.438 0
M  V30 8089 H 760.742 2.57253 -3.33764 0
M  V30 8090 H 759.466 2.50398 -2.09686 0
M  V30 8091 H 758.125 0.9377 -3.54405 0
M  V30 8092 H 757.773 3.40893 -3.69866 0
M  V30 8093 H 757.473 2.6121 -5.26349 0
M  V30 8094 H 758.997 3.50622 -4.99897 0
M  V30 8095 H 760.411 1.31066 -5.58117 0
M  V30 8096 H 758.808 0.620935 -5.96879 0
M  V30 8097 H 759.878 -0.234322 -4.84334 0
M  V30 8098 N 761.222 1.57436 0.0718424 0
M  V30 8099 C 762.468 1.87525 0.772149 0
M  V30 8100 C 762.801 0.79399 1.77227 0
M  V30 8101 O 762.076 -0.195733 1.93513 0
M  V30 8102 C 762.359 3.28272 1.48018 0
M  V30 8103 C 762.212 4.47052 0.49647 0
M  V30 8104 C 763.531 3.67256 2.42509 0
M  V30 8105 H 760.65 0.682049 0.279245 0
M  V30 8106 H 763.292 1.89967 0.03534 0
M  V30 8107 H 761.442 3.26321 2.10824 0
M  V30 8108 H 763.114 4.61127 -0.126375 0
M  V30 8109 H 761.357 4.33392 -0.188205 0
M  V30 8110 H 762.028 5.42315 1.02949 0
M  V30 8111 H 764.504 3.70301 1.89781 0
M  V30 8112 H 763.38 4.66626 2.89053 0
M  V30 8113 H 763.641 2.97186 3.27312 0
M  V30 8114 N 762.7 -0.34323 1.53817 0
M  V30 8115 C 763.928 -1.10348 1.75017 0
M  V30 8116 C 764.343 -1.82345 0.489475 0
M  V30 8117 O 763.7 -1.74362 -0.538886 0
M  V30 8118 C 763.751 -2.11672 2.93048 0
M  V30 8119 O 763.472 -1.42603 4.14241 0
M  V30 8120 C 764.973 -3.0007 3.26301 0
M  V30 8121 H 762.193 -0.329056 0.584776 0
M  V30 8122 H 764.737 -0.395339 2.00642 0
M  V30 8123 H 762.892 -2.78051 2.69753 0
M  V30 8124 H 763.306 -2.10294 4.80496 0
M  V30 8125 H 764.78 -3.67101 4.12239 0
M  V30 8126 H 765.257 -3.66105 2.42618 0
M  V30 8127 H 765.863 -2.3928 3.51604 0
M  V30 8128 N 764.178 -1.45556 -0.604258 0
M  V30 8129 C 765.425 -1.49746 -1.36317 0
M  V30 8130 C 765.753 -0.140516 -1.93992 0
M  V30 8131 O 765.008 0.861244 -1.7573 0
M  V30 8132 C 765.307 -2.52697 -2.52743 0
M  V30 8133 C 764.973 -3.97315 -2.13195 0
M  V30 8134 C 763.635 -4.36692 -2.02123 0
M  V30 8135 C 765.987 -4.88249 -1.8238 0
M  V30 8136 C 763.315 -5.64895 -1.58463 0
M  V30 8137 C 765.667 -6.16867 -1.40205 0
M  V30 8138 C 764.331 -6.55172 -1.27694 0
M  V30 8139 H 763.601 -0.54796 -0.49882 0
M  V30 8140 H 766.248 -1.7892 -0.682643 0
M  V30 8141 H 764.553 -2.17105 -3.26148 0
M  V30 8142 H 766.25 -2.53176 -3.10971 0
M  V30 8143 H 762.84 -3.66176 -2.22739 0
M  V30 8144 H 767.024 -4.58561 -1.89829 0
M  V30 8145 H 762.28 -5.93365 -1.47402 0
M  V30 8146 H 766.454 -6.86771 -1.15408 0
M  V30 8147 H 764.081 -7.54411 -0.936375 0
M  V30 8148 N 765.656 0.84705 -1.32902 0
M  V30 8149 C 766.603 1.95624 -1.22473 0
M  V30 8150 C 767.573 1.65767 -0.105178 0
M  V30 8151 O 768.758 1.88704 -0.282042 0
M  V30 8152 C 765.898 3.31434 -0.961542 0
M  V30 8153 C 765.011 3.73741 -2.1666 0
M  V30 8154 C 764.146 4.98379 -1.83825 0
M  V30 8155 C 763.185 5.33199 -3.00609 0
M  V30 8156 N 762.322 6.49014 -2.67816 0
M  V30 8157 H 767.162 2.03875 -2.17345 0
M  V30 8158 H 764.699 0.997764 -1.08088 0
M  V30 8159 H 766.657 4.09663 -0.789411 0
M  V30 8160 H 765.287 3.22762 -0.0495938 0
M  V30 8161 H 764.339 2.91102 -2.44875 0
M  V30 8162 H 765.651 3.95462 -3.03993 0
M  V30 8163 H 764.805 5.84336 -1.63208 0
M  V30 8164 H 763.544 4.78611 -0.937172 0
M  V30 8165 H 762.549 4.4575 -3.21849 0
M  V30 8166 H 763.774 5.5492 -3.9146 0
M  V30 8167 H 761.72 6.30748 -1.80258 0
M  V30 8168 H 761.637 6.7079 -3.48679 0
M  V30 8169 H 762.905 7.38103 -2.50647 0
M  V30 8170 N 767.134 1.16236 1.06428 0
M  V30 8171 C 768.082 0.863669 2.15971 0
M  V30 8172 C 769.076 -0.166723 1.68578 0
M  V30 8173 O 770.282 -0.0208425 1.79988 0
M  V30 8174 H 766.657 0.261684 0.705 0
M  V30 8175 H 768.628 1.79498 2.38376 0
M  V30 8176 C 767.377 0.379697 3.45621 0
M  V30 8177 H 766.7 1.16399 3.82481 0
M  V30 8178 H 768.14 0.209458 4.23482 0
M  V30 8179 C 766.599 -0.900499 3.24642 0
M  V30 8180 O 767.129 -1.97004 3.50074 0
M  V30 8181 N 765.335 -0.843721 2.78082 0
M  V30 8182 H 764.882 0.0268429 2.57586 0
M  V30 8183 H 764.84 -1.70078 2.64425 0
M  V30 8184 N 768.612 -1.24939 0.960631 0
M  V30 8185 C 769.575 -2.239 0.49006 0
M  V30 8186 C 770.575 -1.55497 -0.409535 0
M  V30 8187 O 771.765 -1.72978 -0.205984 0
M  V30 8188 C 768.897 -3.39654 -0.291193 0
M  V30 8189 H 770.09 -2.67044 1.36482 0
M  V30 8190 H 767.643 -1.37429 0.744505 0
M  V30 8191 H 768.378 -3.01939 -1.18336 0
M  V30 8192 H 768.163 -3.90496 0.354276 0
M  V30 8193 H 769.653 -4.13125 -0.609693 0
M  V30 8194 N 770.09 -0.729906 -1.39679 0
M  V30 8195 C 771.04 -0.0627678 -2.27914 0
M  V30 8196 C 772.024 0.717867 -1.43998 0
M  V30 8197 O 773.216 0.587713 -1.66958 0
M  V30 8198 C 770.345 0.847564 -3.32673 0
M  V30 8199 C 769.431 0.0613515 -4.24056 0
M  V30 8200 N 769.822 -0.962863 -4.96551 0
M  V30 8201 C 768.12 0.291773 -4.45045 0
M  V30 8202 C 768.821 -1.43652 -5.63683 0
M  V30 8203 N 767.797 -0.756044 -5.38317 0
M  V30 8204 H 771.599 -0.847545 -2.81414 0
M  V30 8205 H 769.113 -0.563776 -1.523 0
M  V30 8206 H 771.11 1.34094 -3.94746 0
M  V30 8207 H 769.77 1.63156 -2.80732 0
M  V30 8208 H 770.781 -1.34409 -5.00154 0
M  V30 8209 H 767.458 1.05097 -4.04056 0
M  V30 8210 H 768.848 -2.28835 -6.31731 0
M  V30 8211 N 771.568 1.50203 -0.477153 0
M  V30 8212 C 772.531 2.27194 0.302599 0
M  V30 8213 C 773.531 1.32221 0.915112 0
M  V30 8214 O 774.721 1.55593 0.783348 0
M  V30 8215 C 771.853 3.0938 1.43167 0
M  V30 8216 H 773.046 2.97575 -0.372678 0
M  V30 8217 H 770.599 1.54578 -0.231392 0
M  V30 8218 H 771.334 2.43509 2.14182 0
M  V30 8219 H 771.119 3.79181 0.998197 0
M  V30 8220 H 772.609 3.67592 1.98157 0
M  V30 8221 N 773.046 0.209999 1.56195 0
M  V30 8222 C 773.993 -0.704854 2.19774 0
M  V30 8223 C 774.963 -1.19886 1.14964 0
M  V30 8224 O 776.148 -1.26005 1.43274 0
M  V30 8225 C 773.288 -1.91241 2.87265 0
M  V30 8226 C 772.401 -1.45838 4.06639 0
M  V30 8227 C 771.536 -2.6226 4.61945 0
M  V30 8228 C 770.575 -2.13537 5.73645 0
M  V30 8229 N 769.712 -3.2319 6.23292 0
M  V30 8230 H 774.552 -0.155944 2.97592 0
M  V30 8231 H 772.089 -0.0652235 1.46955 0
M  V30 8232 H 774.047 -2.62123 3.24573 0
M  V30 8233 H 772.677 -2.43439 2.11985 0
M  V30 8234 H 771.729 -0.644897 3.74894 0
M  V30 8235 H 773.041 -1.06103 4.87384 0
M  V30 8236 H 772.195 -3.41243 5.01636 0
M  V30 8237 H 770.934 -3.05278 3.80338 0
M  V30 8238 H 769.939 -1.33013 5.33468 0
M  V30 8239 H 771.164 -1.71533 6.57079 0
M  V30 8240 H 769.11 -3.65711 5.44602 0
M  V30 8241 H 769.027 -2.8767 6.99129 0
M  V30 8242 H 770.295 -4.02342 6.67639 0
M  V30 8243 N 774.524 -1.57472 -0.0634922 0
M  V30 8244 C 775.471 -2.04258 -1.07457 0
M  V30 8245 C 776.441 -0.924804 -1.37973 0
M  V30 8246 O 777.626 -1.19305 -1.48899 0
M  V30 8247 C 774.766 -2.49832 -2.38071 0
M  V30 8248 C 773.879 -3.75263 -2.14014 0
M  V30 8249 C 773.014 -4.09585 -3.38251 0
M  V30 8250 C 772.053 -5.28032 -3.09594 0
M  V30 8251 N 771.19 -5.57953 -4.26185 0
M  V30 8252 H 776.03 -2.90402 -0.668626 0
M  V30 8253 H 773.567 -1.43609 -0.318572 0
M  V30 8254 H 775.525 -2.7431 -3.14341 0
M  V30 8255 H 774.155 -1.66654 -2.76453 0
M  V30 8256 H 773.207 -3.58075 -1.28399 0
M  V30 8257 H 774.519 -4.61667 -1.88852 0
M  V30 8258 H 773.673 -4.35008 -4.2291 0
M  V30 8259 H 772.412 -3.21765 -3.66495 0
M  V30 8260 H 771.417 -5.02397 -2.23332 0
M  V30 8261 H 772.642 -6.17477 -2.82663 0
M  V30 8262 H 770.588 -4.73092 -4.54445 0
M  V30 8263 H 770.505 -6.38793 -4.04326 0
M  V30 8264 H 771.773 -5.87931 -5.11817 0
M  V30 8265 N 776.003 0.335068 -1.53997 0
M  V30 8266 C 776.935 1.4327 -1.78903 0
M  V30 8267 C 777.948 1.48347 -0.670598 0
M  V30 8268 O 779.137 1.51277 -0.947494 0
M  V30 8269 C 776.237 2.81878 -1.88144 0
M  V30 8270 C 775.41 3.00141 -3.18174 0
M  V30 8271 C 774.469 4.19041 -3.18263 0
M  V30 8272 O 773.495 4.12751 -3.9195 0
M  V30 8273 N 774.697 5.28004 -2.41231 0
M  V30 8274 H 777.462 1.22272 -2.73623 0
M  V30 8275 H 775.023 0.524996 -1.53152 0
M  V30 8276 H 777.015 3.59609 -1.85644 0
M  V30 8277 H 775.585 2.9598 -1.00572 0
M  V30 8278 H 774.805 2.09808 -3.33728 0
M  V30 8279 H 776.093 3.0923 -4.04047 0
M  V30 8280 H 775.491 5.35986 -1.8093 0
M  V30 8281 H 774.048 6.04196 -2.44521 0
M  V30 8282 N 777.481 1.45874 0.596531 0
M  V30 8283 C 778.391 1.57947 1.73464 0
M  V30 8284 C 779.407 0.463461 1.67714 0
M  V30 8285 O 780.583 0.725685 1.87872 0
M  V30 8286 C 777.648 1.55348 3.09948 0
M  V30 8287 C 776.709 2.78074 3.27068 0
M  V30 8288 C 775.942 2.75589 4.57041 0
M  V30 8289 O 776.165 1.83545 5.40063 0
M  V30 8290 O 775.099 3.66945 4.77111 0
M  V30 8291 H 778.925 2.54169 1.66228 0
M  V30 8292 H 776.51 1.2851 0.76194 0
M  V30 8293 H 778.392 1.56545 3.91244 0
M  V30 8294 H 777.067 0.622811 3.17652 0
M  V30 8295 H 775.974 2.82435 2.45319 0
M  V30 8296 H 777.307 3.70303 3.24248 0
M  V30 8297 N 778.959 -0.83999 1.33349 0
M  V30 8298 C 780.205 -1.59753 1.24927 0
M  V30 8299 C 780.538 -1.93318 -0.184855 0
M  V30 8300 O 779.813 -1.586 -1.12589 0
M  V30 8301 C 780.096 -2.90829 2.12345 0
M  V30 8302 C 779.949 -2.63953 3.6421 0
M  V30 8303 C 781.268 -3.92246 1.99577 0
M  V30 8304 H 778.387 -0.579654 0.45516 0
M  V30 8305 H 781.029 -0.968909 1.63439 0
M  V30 8306 H 779.179 -3.44478 1.79631 0
M  V30 8307 H 780.851 -2.16745 4.07209 0
M  V30 8308 H 779.094 -1.97671 3.86146 0
M  V30 8309 H 779.765 -3.57348 4.20721 0
M  V30 8310 H 782.241 -3.479 2.28265 0
M  V30 8311 H 781.117 -4.81793 2.62996 0
M  V30 8312 H 781.378 -4.3138 0.967673 0
M  V30 8313 N 780.437 -1.16799 -1.0581 0
M  V30 8314 C 781.683 -0.953935 -1.78963 0
M  V30 8315 C 782.016 0.516638 -1.87202 0
M  V30 8316 O 781.291 1.38338 -1.36721 0
M  V30 8317 C 781.574 -1.58808 -3.23191 0
M  V30 8318 C 781.427 -3.13032 -3.23003 0
M  V30 8319 C 782.746 -1.2868 -4.20867 0
M  V30 8320 H 779.865 -0.347972 -0.64968 0
M  V30 8321 H 782.507 -1.44204 -1.23715 0
M  V30 8322 H 780.657 -1.17303 -3.70368 0
M  V30 8323 H 782.329 -3.63553 -2.83949 0
M  V30 8324 H 780.572 -3.46108 -2.61518 0
M  V30 8325 H 781.243 -3.52527 -4.24769 0
M  V30 8326 H 783.719 -1.6461 -3.82155 0
M  V30 8327 H 782.595 -1.75645 -5.20038 0
M  V30 8328 H 782.856 -0.206491 -4.41618 0
M  V30 8329 N 781.915 1.24427 -0.967243 0
M  V30 8330 C 783.161 1.92772 -0.629812 0
M  V30 8331 C 783.494 1.75436 0.832827 0
M  V30 8332 O 782.769 1.10716 1.59913 0
M  V30 8333 C 783.052 3.45798 -1.00477 0
M  V30 8334 C 782.905 3.72304 -2.52407 0
M  V30 8335 C 784.224 4.36787 -0.538999 0
M  V30 8336 H 781.343 0.700099 -0.230282 0
M  V30 8337 H 783.985 1.46805 -1.20616 0
M  V30 8338 H 782.135 3.8508 -0.514336 0
M  V30 8339 H 783.807 3.42584 -3.08924 0
M  V30 8340 H 782.05 3.17472 -2.95625 0
M  V30 8341 H 782.721 4.7937 -2.73693 0
M  V30 8342 H 785.197 4.04877 -0.959874 0
M  V30 8343 H 784.073 5.4259 -0.829926 0
M  V30 8344 H 784.334 4.38527 0.560923 0
M  V30 8345 N 783.393 0.737304 1.3929 0
M  V30 8346 C 784.323 0.113988 2.33222 0
M  V30 8347 C 785.304 -0.721695 1.54031 0
M  V30 8348 O 786.489 -0.666206 1.82415 0
M  V30 8349 C 783.619 -0.792319 3.38141 0
M  V30 8350 C 782.573 -0.0606178 4.27957 0
M  V30 8351 C 781.899 -1.08409 5.23595 0
M  V30 8352 C 783.199 1.09817 5.10625 0
M  V30 8353 H 784.893 0.898611 2.85596 0
M  V30 8354 H 782.439 0.433571 1.37318 0
M  V30 8355 H 784.392 -1.23793 4.02807 0
M  V30 8356 H 783.116 -1.60908 2.84211 0
M  V30 8357 H 781.775 0.365393 3.64775 0
M  V30 8358 H 781.423 -1.89449 4.6596 0
M  V30 8359 H 781.123 -0.599269 5.84536 0
M  V30 8360 H 782.647 -1.52936 5.91137 0
M  V30 8361 H 784.061 0.730892 5.68622 0
M  V30 8362 H 782.458 1.51278 5.80719 0
M  V30 8363 H 783.528 1.91878 4.45321 0
M  V30 8364 N 784.871 -1.49948 0.485112 0
M  V30 8365 C 786.119 -2.01996 -0.0648775 0
M  V30 8366 C 786.44 -1.36819 -1.38945 0
M  V30 8367 O 785.71 -0.518163 -1.88923 0
M  V30 8368 H 784.29 -0.746513 -0.0269662 0
M  V30 8369 H 786.952 -1.84136 0.638733 0
M  V30 8370 H 786.048 -3.11418 -0.20617 0
M  V30 8371 N 786.349 -0.21828 -1.56081 0
M  V30 8372 C 787.574 0.422302 -2.03055 0
M  V30 8373 C 787.999 1.5279 -1.09713 0
M  V30 8374 O 787.357 1.81102 -0.0847187 0
M  V30 8375 C 787.405 0.934177 -3.48289 0
M  V30 8376 O 786.509 2.04574 -3.58083 0
M  V30 8377 H 785.85 0.0959764 -0.657027 0
M  V30 8378 H 788.38 -0.335958 -2.01823 0
M  V30 8379 H 788.39 1.24484 -3.88546 0
M  V30 8380 H 787.065 0.124963 -4.15712 0
M  V30 8381 H 785.642 1.74196 -3.29712 0
M  V30 8382 N 787.827 1.57504 0.0551401 0
M  V30 8383 C 788.759 2.0158 1.09078 0
M  V30 8384 C 789.772 0.92434 1.34014 0
M  V30 8385 O 790.961 1.20202 1.31961 0
M  V30 8386 C 788.061 2.35385 2.43818 0
M  V30 8387 C 787.234 3.66588 2.38605 0
M  V30 8388 C 786.293 3.87874 3.55585 0
M  V30 8389 O 785.319 4.59259 3.36258 0
M  V30 8390 N 786.521 3.31503 4.76536 0
M  V30 8391 H 789.286 2.91039 0.71529 0
M  V30 8392 H 786.847 1.60058 0.243532 0
M  V30 8393 H 788.839 2.46784 3.20749 0
M  V30 8394 H 787.409 1.51731 2.73307 0
M  V30 8395 H 786.629 3.65787 1.46947 0
M  V30 8396 H 787.917 4.52706 2.32239 0
M  V30 8397 H 787.315 2.73592 4.9514 0
M  V30 8398 H 785.872 3.48324 5.50921 0
M  V30 8399 N 789.305 -0.326896 1.54172 0
M  V30 8400 C 790.215 -1.42525 1.86343 0
M  V30 8401 C 791.231 -1.56764 0.75505 0
M  V30 8402 O 792.407 -1.71924 1.04901 0
M  V30 8403 C 789.472 -2.77286 2.08119 0
M  V30 8404 C 788.533 -2.7225 3.31931 0
M  V30 8405 C 787.766 -4.00584 3.52659 0
M  V30 8406 O 787.989 -4.98686 2.76891 0
M  V30 8407 O 786.923 -4.04045 4.46129 0
M  V30 8408 H 790.749 -1.18249 2.79734 0
M  V30 8409 H 788.334 -0.520614 1.40036 0
M  V30 8410 H 790.216 -3.57065 2.23791 0
M  V30 8411 H 788.891 -3.01459 1.17917 0
M  V30 8412 H 787.798 -1.91033 3.21647 0
M  V30 8413 H 789.131 -2.53032 4.2218 0
M  V30 8414 N 790.784 -1.46188 -0.588786 0
M  V30 8415 C 792.032 -1.50885 -1.34455 0
M  V30 8416 C 792.353 -0.159555 -1.94346 0
M  V30 8417 O 791.623 0.813239 -1.78222 0
M  V30 8418 H 790.203 -0.555707 -0.499198 0
M  V30 8419 H 792.865 -1.82277 -0.690014 0
M  V30 8420 H 791.961 -2.25816 -2.15438 0
M  V30 8421 N 792.262 0.832906 -1.33792 0
M  V30 8422 C 793.225 1.92471 -1.24449 0
M  V30 8423 C 794.225 1.59981 -0.162085 0
M  V30 8424 O 795.415 1.69208 -0.414029 0
M  V30 8425 C 792.547 3.28278 -0.919044 0
M  V30 8426 H 793.74 2.0218 -2.21502 0
M  V30 8427 H 791.293 1.0257 -1.17936 0
M  V30 8428 H 792.028 3.24263 0.048738 0
M  V30 8429 H 791.813 3.53241 -1.70187 0
M  V30 8430 H 793.303 4.08253 -0.878576 0
M  V30 8431 N 793.74 1.17359 1.05189 0
M  V30 8432 C 794.673 0.833768 2.12423 0
M  V30 8433 C 795.651 -0.19945 1.61372 0
M  V30 8434 O 796.835 -0.080979 1.88326 0
M  V30 8435 C 793.962 0.243745 3.37822 0
M  V30 8436 C 793.008 1.25235 4.07699 0
M  V30 8437 S 793.841 2.80368 4.56239 0
M  V30 8438 C 794.997 2.22846 5.84885 0
M  V30 8439 H 795.23 1.74197 2.40921 0
M  V30 8440 H 792.763 0.998242 1.1779 0
M  V30 8441 H 794.721 -0.0901915 4.10401 0
M  V30 8442 H 793.382 -0.642396 3.07461 0
M  V30 8443 H 792.575 0.788168 4.97799 0
M  V30 8444 H 792.177 1.53194 3.41185 0
M  V30 8445 H 794.469 1.60403 6.58238 0
M  V30 8446 H 795.412 3.112 6.3605 0
M  V30 8447 H 795.82 1.66296 5.39449 0
M  V30 8448 N 795.218 -1.23913 0.973828 0
M  V30 8449 C 796.168 -2.22892 0.479933 0
M  V30 8450 C 797.152 -1.54726 -0.441434 0
M  V30 8451 O 798.344 -1.74908 -0.271358 0
M  V30 8452 C 795.473 -3.42577 -0.222702 0
M  V30 8453 C 794.559 -4.17981 0.717851 0
M  V30 8454 N 794.95 -4.7045 1.8577 0
M  V30 8455 C 793.248 -4.42841 0.529858 0
M  V30 8456 C 793.949 -5.27751 2.44651 0
M  V30 8457 N 792.925 -5.15302 1.73104 0
M  V30 8458 H 796.727 -2.61083 1.34956 0
M  V30 8459 H 794.241 -1.39368 0.83368 0
M  V30 8460 H 796.238 -4.1265 -0.593793 0
M  V30 8461 H 794.898 -3.05904 -1.0887 0
M  V30 8462 H 795.909 -4.66997 2.23908 0
M  V30 8463 H 792.586 -4.1648 -0.291664 0
M  V30 8464 H 793.976 -5.79011 3.40875 0
M  V30 8465 N 796.696 -0.74468 -1.38897 0
M  V30 8466 C 797.924 -0.307428 -2.04603 0
M  V30 8467 C 798.339 1.06115 -1.56157 0
M  V30 8468 O 797.696 1.67233 -0.730701 0
M  V30 8469 C 797.747 -0.31101 -3.6016 0
M  V30 8470 O 797.468 -1.62557 -4.06825 0
M  V30 8471 C 798.969 0.141213 -4.43075 0
M  V30 8472 H 796.189 -0.132741 -0.657739 0
M  V30 8473 H 798.733 -1.01104 -1.77759 0
M  V30 8474 H 796.888 0.343792 -3.85872 0
M  V30 8475 H 797.302 -1.54569 -5.01207 0
M  V30 8476 H 798.776 0.0875449 -5.51931 0
M  V30 8477 H 799.253 1.18782 -4.22833 0
M  V30 8478 H 799.859 -0.484383 -4.22533 0
M  V30 8479 N 798.174 1.49689 -0.493057 0
M  V30 8480 C 799.137 2.27502 0.278485 0
M  V30 8481 C 800.137 1.33184 0.901037 0
M  V30 8482 O 801.327 1.56415 0.766801 0
M  V30 8483 C 798.459 3.10881 1.39878 0
M  V30 8484 H 799.652 2.97163 -0.404219 0
M  V30 8485 H 797.205 1.54324 -0.247774 0
M  V30 8486 H 797.94 2.45767 2.11587 0
M  V30 8487 H 797.725 3.80219 0.957924 0
M  V30 8488 H 799.215 3.69673 1.94247 0
M  V30 8489 N 799.652 0.226554 1.55963 0
M  V30 8490 C 800.582 -0.676079 2.23498 0
M  V30 8491 C 801.563 -1.19718 1.20837 0
M  V30 8492 O 802.748 -1.24027 1.49436 0
M  V30 8493 C 799.878 -1.88217 2.91876 0
M  V30 8494 C 798.832 -1.4947 4.01052 0
M  V30 8495 C 798.158 -2.77997 4.56751 0
M  V30 8496 C 799.458 -0.680951 5.17842 0
M  V30 8497 H 801.152 -0.112989 2.99187 0
M  V30 8498 H 798.698 -0.0529046 1.43903 0
M  V30 8499 H 800.651 -2.51911 3.37815 0
M  V30 8500 H 799.375 -2.47031 2.13643 0
M  V30 8501 H 798.034 -0.881199 3.55852 0
M  V30 8502 H 797.682 -3.34966 3.75243 0
M  V30 8503 H 797.382 -2.52803 5.30438 0
M  V30 8504 H 798.906 -3.42625 5.05411 0
M  V30 8505 H 800.32 -1.22171 5.60131 0
M  V30 8506 H 798.717 -0.525898 5.97791 0
M  V30 8507 H 799.787 0.311346 4.83899 0
M  V30 8508 N 801.13 -1.57531 -0.0467866 0
M  V30 8509 C 802.358 -1.92696 -0.753371 0
M  V30 8510 C 802.773 -0.824792 -1.69831 0
M  V30 8511 O 802.13 0.200155 -1.81399 0
M  V30 8512 C 802.181 -3.27728 -1.52566 0
M  V30 8513 O 801.902 -4.3371 -0.618674 0
M  V30 8514 C 803.403 -3.77066 -2.33101 0
M  V30 8515 H 800.623 -0.636367 -0.212788 0
M  V30 8516 H 803.167 -2.04498 -0.00959361 0
M  V30 8517 H 801.322 -3.17378 -2.22148 0
M  V30 8518 H 801.736 -5.11548 -1.15839 0
M  V30 8519 H 803.21 -4.74109 -2.82709 0
M  V30 8520 H 803.687 -3.07348 -3.13741 0
M  V30 8521 H 804.293 -3.90442 -1.68628 0
M  V30 8522 N 802.608 0.318715 -1.54344 0
M  V30 8523 C 803.856 1.054 -1.72439 0
M  V30 8524 C 804.177 1.88388 -0.503495 0
M  V30 8525 O 803.447 1.89866 0.48246 0
M  V30 8526 H 802.027 0.392124 -0.635805 0
M  V30 8527 H 804.689 0.35398 -1.91659 0
M  V30 8528 H 803.785 1.71726 -2.60608 0
M  V30 8529 N 804.086 1.46499 0.581025 0
M  V30 8530 C 805.049 1.5677 1.672 0
M  V30 8531 C 806.049 0.444716 1.54528 0
M  V30 8532 O 807.239 0.709074 1.59116 0
M  V30 8533 C 804.371 1.4896 3.06633 0
M  V30 8534 H 805.564 2.54 1.5945 0
M  V30 8535 H 803.117 1.34334 0.799003 0
M  V30 8536 H 803.852 0.530168 3.19937 0
M  V30 8537 H 803.637 2.30439 3.17239 0
M  V30 8538 H 805.127 1.59237 3.86048 0
M  V30 8539 N 805.565 -0.825799 1.34232 0
M  V30 8540 C 806.793 -1.61363 1.29497 0
M  V30 8541 C 807.208 -1.88341 -0.131536 0
M  V30 8542 O 806.565 -1.47279 -1.07773 0
M  V30 8543 C 806.616 -2.95623 2.08061 0
M  V30 8544 O 806.337 -2.69824 3.45147 0
M  V30 8545 C 807.838 -3.90032 2.10688 0
M  V30 8546 H 805.058 -0.501676 0.445603 0
M  V30 8547 H 807.602 -1.02767 1.76803 0
M  V30 8548 H 805.757 -3.50785 1.64404 0
M  V30 8549 H 806.171 -3.55412 3.85723 0
M  V30 8550 H 807.645 -4.81411 2.70087 0
M  V30 8551 H 808.122 -4.25188 1.10052 0
M  V30 8552 H 808.728 -3.40807 2.54422 0
M  V30 8553 N 807.043 -1.17915 -1.04565 0
M  V30 8554 C 807.953 -0.916449 -2.15959 0
M  V30 8555 C 808.969 0.117655 -1.73602 0
M  V30 8556 O 810.145 -0.063089 -2.01301 0
M  V30 8557 C 807.21 -0.440262 -3.43893 0
M  V30 8558 C 806.271 -1.54172 -4.00661 0
M  V30 8559 C 805.504 -1.08816 -5.22489 0
M  V30 8560 O 805.727 0.0551547 -5.70373 0
M  V30 8561 O 804.661 -1.88383 -5.7166 0
M  V30 8562 H 808.487 -1.8484 -2.40972 0
M  V30 8563 H 806.072 -0.960552 -1.14428 0
M  V30 8564 H 807.954 -0.182537 -4.21004 0
M  V30 8565 H 806.629 0.46346 -3.20365 0
M  V30 8566 H 805.536 -1.85341 -3.24961 0
M  V30 8567 H 806.869 -2.42139 -4.2852 0
M  V30 8568 N 808.521 1.23394 -0.980386 0
M  V30 8569 C 809.77 1.91116 -0.644785 0
M  V30 8570 C 810.083 1.77333 0.825367 0
M  V30 8571 O 811.289 2.39858 1.27203 0
M  V30 8572 C 809.745 3.42592 -1.10266 0
M  V30 8573 C 809.353 3.65037 -2.59715 0
M  V30 8574 C 811.097 4.1609 -0.8408 0
M  V30 8575 C 809.004 5.10148 -2.9917 0
M  V30 8576 H 807.934 0.715632 -0.23746 0
M  V30 8577 H 810.585 1.39829 -1.18828 0
M  V30 8578 H 808.967 3.92989 -0.487372 0
M  V30 8579 H 810.141 3.25186 -3.26482 0
M  V30 8580 H 808.456 3.04849 -2.83647 0
M  V30 8581 H 811.053 5.23021 -1.11143 0
M  V30 8582 H 811.396 4.15702 0.223085 0
M  V30 8583 H 811.929 3.71681 -1.41767 0
M  V30 8584 H 808.668 5.15668 -4.04682 0
M  V30 8585 H 808.188 5.50949 -2.37097 0
M  V30 8586 H 809.867 5.7848 -2.89775 0
M  V30 8587 N 809.999 0.752036 1.385 0
M  V30 8588 C 810.931 0.0835089 2.29048 0
M  V30 8589 C 811.944 -0.685402 1.47669 0
M  V30 8590 O 813.133 -0.526748 1.70551 0
M  V30 8591 C 810.233 -0.905772 3.26572 0
M  V30 8592 C 809.406 -0.194828 4.36966 0
M  V30 8593 C 808.465 -1.09464 5.14688 0
M  V30 8594 O 807.491 -0.565743 5.66381 0
M  V30 8595 N 808.693 -2.42287 5.2752 0
M  V30 8596 H 811.458 0.861142 2.87062 0
M  V30 8597 H 809.019 0.602689 1.50264 0
M  V30 8598 H 811.011 -1.51072 3.75446 0
M  V30 8599 H 809.581 -1.58449 2.69467 0
M  V30 8600 H 808.801 0.590812 3.89747 0
M  V30 8601 H 810.089 0.297189 5.07931 0
M  V30 8602 H 809.487 -2.87715 4.8707 0
M  V30 8603 H 808.044 -2.97836 5.79773 0
M  V30 8604 N 811.477 -1.49425 0.500989 0
M  V30 8605 C 812.705 -2.06861 -0.0403443 0
M  V30 8606 C 813.12 -1.36132 -1.30819 0
M  V30 8607 O 812.477 -0.439647 -1.77125 0
M  V30 8608 C 812.528 -3.6027 -0.297902 0
M  V30 8609 O 812.249 -4.28338 0.919686 0
M  V30 8610 C 813.75 -4.34419 -0.882876 0
M  V30 8611 H 810.97 -0.670688 0.0204619 0
M  V30 8612 H 813.514 -1.92207 0.698342 0
M  V30 8613 H 811.669 -3.74627 -0.98657 0
M  V30 8614 H 812.083 -5.2004 0.682528 0
M  V30 8615 H 813.557 -5.42631 -1.01268 0
M  V30 8616 H 814.034 -3.96898 -1.88066 0
M  V30 8617 H 814.64 -4.24669 -0.231677 0
M  V30 8618 N 812.955 -0.234822 -1.55841 0
M  V30 8619 C 814.18 0.400741 -2.03492 0
M  V30 8620 C 814.605 1.51618 -1.11327 0
M  V30 8621 O 813.963 1.81002 -0.103922 0
M  V30 8622 C 814.011 0.897184 -3.49261 0
M  V30 8623 O 813.115 2.00764 -3.60233 0
M  V30 8624 H 812.456 0.0890023 -0.658008 0
M  V30 8625 H 814.986 -0.357345 -2.01455 0
M  V30 8626 H 814.996 1.20356 -3.89844 0
M  V30 8627 H 813.671 0.0808639 -4.15821 0
M  V30 8628 H 812.248 1.70689 -3.31541 0
M  V30 8629 N 814.433 1.57553 0.0384317 0
M  V30 8630 C 815.681 1.88468 0.729672 0
M  V30 8631 C 816.002 0.831302 1.76393 0
M  V30 8632 O 815.272 -0.13622 1.95426 0
M  V30 8633 H 813.852 0.695529 0.272485 0
M  V30 8634 H 816.514 1.94899 0.0066032 0
M  V30 8635 H 815.61 2.8705 1.22511 0
M  V30 8636 N 815.911 -0.310526 1.54511 0
M  V30 8637 C 817.159 -1.04484 1.72996 0
M  V30 8638 C 817.48 -1.88118 0.513479 0
M  V30 8639 O 816.75 -1.90119 -0.472384 0
M  V30 8640 H 815.33 -0.388747 0.637875 0
M  V30 8641 H 817.992 -0.343811 1.91844 0
M  V30 8642 H 817.088 -1.70341 2.61515 0
M  V30 8643 N 817.389 -1.46805 -0.573248 0
M  V30 8644 C 818.617 -1.56191 -1.3569 0
M  V30 8645 C 819.032 -0.206362 -1.87669 0
M  V30 8646 O 818.389 0.797883 -1.64134 0
M  V30 8647 C 818.44 -2.57433 -2.53792 0
M  V30 8648 O 818.161 -3.87724 -2.03965 0
M  V30 8649 C 819.662 -2.76851 -3.4622 0
M  V30 8650 H 816.882 -0.527907 -0.414192 0
M  V30 8651 H 819.426 -1.92292 -0.695989 0
M  V30 8652 H 817.581 -2.24311 -3.15854 0
M  V30 8653 H 817.995 -4.42909 -2.80948 0
M  V30 8654 H 819.469 -3.5159 -4.25545 0
M  V30 8655 H 819.946 -1.84095 -3.98755 0
M  V30 8656 H 820.552 -3.11107 -2.89987 0
M  V30 8657 N 818.867 0.818669 -1.34668 0
M  V30 8658 C 820.092 1.61193 -1.30505 0
M  V30 8659 C 820.517 1.87734 0.117341 0
M  V30 8660 O 819.875 1.45591 1.08042 0
M  V30 8661 C 819.923 2.92733 -2.1057 0
M  V30 8662 O 819.027 3.85 -1.47813 0
M  V30 8663 H 818.368 0.490085 -0.44801 0
M  V30 8664 H 820.898 1.01701 -1.77534 0
M  V30 8665 H 820.908 3.42262 -2.22082 0
M  V30 8666 H 819.583 2.7274 -3.13984 0
M  V30 8667 H 818.16 3.43525 -1.45069 0
M  V30 8668 N 820.346 1.18468 1.03938 0
M  V30 8669 C 821.595 0.975193 1.76558 0
M  V30 8670 C 821.908 -0.495978 1.89207 0
M  V30 8671 O 823.114 -0.824009 2.58694 0
M  V30 8672 C 821.57 1.69579 3.17444 0
M  V30 8673 C 821.178 3.20636 3.12884 0
M  V30 8674 C 822.922 1.56917 3.94433 0
M  V30 8675 C 820.829 3.8533 4.48636 0
M  V30 8676 H 819.759 0.361244 0.66183 0
M  V30 8677 H 822.41 1.41854 1.16403 0
M  V30 8678 H 820.792 1.18022 3.78004 0
M  V30 8679 H 821.966 3.79228 2.61768 0
M  V30 8680 H 820.281 3.33454 2.49394 0
M  V30 8681 H 822.878 2.02611 4.94826 0
M  V30 8682 H 823.221 0.521638 4.13019 0
M  V30 8683 H 823.754 2.05762 3.40451 0
M  V30 8684 H 820.493 4.90136 4.35255 0
M  V30 8685 H 820.013 3.31526 4.99851 0
M  V30 8686 H 821.692 3.88269 5.17549 0
M  V30 8687 N 821.824 -1.22873 0.986916 0
M  V30 8688 C 823.071 -1.91462 0.659424 0
M  V30 8689 C 823.399 -1.76931 -0.807825 0
M  V30 8690 O 822.654 -1.12829 -1.59901 0
M  V30 8691 C 822.953 -3.43014 1.00379 0
M  V30 8692 C 822.619 -3.77731 2.46232 0
M  V30 8693 C 821.281 -3.86918 2.86091 0
M  V30 8694 C 823.633 -3.94343 3.40798 0
M  V30 8695 C 820.961 -4.10149 4.19518 0
M  V30 8696 C 823.313 -4.19076 4.73875 0
M  V30 8697 C 821.977 -4.26486 5.13484 0
M  V30 8698 H 821.247 -0.700611 0.2413 0
M  V30 8699 H 823.894 -1.45763 1.24199 0
M  V30 8700 H 822.199 -3.90329 0.339226 0
M  V30 8701 H 823.896 -3.94327 0.728518 0
M  V30 8702 H 820.486 -3.71159 2.14334 0
M  V30 8703 H 824.67 -3.86629 3.11178 0
M  V30 8704 H 819.926 -4.1411 4.49803 0
M  V30 8705 H 824.1 -4.30873 5.47102 0
M  V30 8706 H 821.727 -4.4424 6.16891 0
M  V30 8707 N 823.302 -0.75937 -1.38099 0
M  V30 8708 C 824.265 -0.14372 -2.28749 0
M  V30 8709 C 825.265 0.641338 -1.47457 0
M  V30 8710 O 826.455 0.466751 -1.67831 0
M  V30 8711 C 823.587 0.804545 -3.3127 0
M  V30 8712 H 824.78 -0.942663 -2.847 0
M  V30 8713 H 822.333 -0.526757 -1.47156 0
M  V30 8714 H 823.068 1.62895 -2.80421 0
M  V30 8715 H 822.853 0.243939 -3.9134 0
M  V30 8716 H 824.343 1.23111 -3.99041 0
M  V30 8717 N 824.78 1.49157 -0.508906 0
M  V30 8718 C 826.028 2.02073 0.0327335 0
M  V30 8719 C 826.349 1.39012 1.3675 0
M  V30 8720 O 825.619 0.548153 1.88075 0
M  V30 8721 H 824.199 0.746848 0.0150864 0
M  V30 8722 H 826.861 1.83097 -0.667946 0
M  V30 8723 H 825.957 3.11707 0.1566 0
M  V30 8724 N 826.258 0.243083 1.55714 0
M  V30 8725 C 827.208 -0.671915 2.17875 0
M  V30 8726 C 828.192 -1.14199 1.13347 0
M  V30 8727 O 829.384 -1.09239 1.39269 0
M  V30 8728 C 826.513 -1.87027 2.87881 0
M  V30 8729 C 825.599 -1.41888 3.99661 0
M  V30 8730 N 825.99 -0.681465 5.01188 0
M  V30 8731 C 824.288 -1.70447 4.12145 0
M  V30 8732 C 824.989 -0.448285 5.7997 0
M  V30 8733 N 823.965 -1.01137 5.34109 0
M  V30 8734 H 827.767 -0.100321 2.93729 0
M  V30 8735 H 825.281 0.0452371 1.62337 0
M  V30 8736 H 827.278 -2.53674 3.3084 0
M  V30 8737 H 825.938 -2.44613 2.13529 0
M  V30 8738 H 826.949 -0.331959 5.16835 0
M  V30 8739 H 823.626 -2.29198 3.48962 0
M  V30 8740 H 825.016 0.140141 6.71754 0
M  V30 8741 N 827.736 -1.57571 -0.0300757 0
M  V30 8742 C 828.666 -2.0953 -1.03051 0
M  V30 8743 C 829.647 -0.99761 -1.37774 0
M  V30 8744 O 830.832 -1.27279 -1.46676 0
M  V30 8745 C 827.962 -2.57385 -2.33174 0
M  V30 8746 C 826.916 -3.71409 -2.12696 0
M  V30 8747 C 826.242 -4.05467 -3.4857 0
M  V30 8748 C 827.542 -4.99877 -1.51396 0
M  V30 8749 H 829.236 -2.93367 -0.597999 0
M  V30 8750 H 826.782 -1.41127 -0.286203 0
M  V30 8751 H 828.735 -2.92355 -3.03491 0
M  V30 8752 H 827.459 -1.70629 -2.78484 0
M  V30 8753 H 826.118 -3.36786 -1.44813 0
M  V30 8754 H 825.766 -3.15779 -3.91526 0
M  V30 8755 H 825.466 -4.82269 -3.35694 0
M  V30 8756 H 826.99 -4.4297 -4.2025 0
M  V30 8757 H 828.404 -5.3281 -2.11629 0
M  V30 8758 H 826.801 -5.81283 -1.49098 0
M  V30 8759 H 827.871 -4.82522 -0.479676 0
M  V30 8760 N 829.214 0.302327 -1.54673 0
M  V30 8761 C 830.161 1.37282 -1.85532 0
M  V30 8762 C 831.131 1.50437 -0.704129 0
M  V30 8763 O 832.316 1.65317 -0.952627 0
M  V30 8764 C 829.456 2.73309 -2.10704 0
M  V30 8765 C 828.569 2.68614 -3.38335 0
M  V30 8766 C 827.704 3.96626 -3.53357 0
M  V30 8767 C 826.743 3.86324 -4.74784 0
M  V30 8768 N 825.88 5.06109 -4.86619 0
M  V30 8769 H 830.72 1.10265 -2.76849 0
M  V30 8770 H 828.257 0.533346 -1.37091 0
M  V30 8771 H 830.215 3.52414 -2.23294 0
M  V30 8772 H 828.845 2.98589 -1.22656 0
M  V30 8773 H 827.897 1.81381 -3.34373 0
M  V30 8774 H 829.209 2.56891 -4.27561 0
M  V30 8775 H 828.363 4.84168 -3.65604 0
M  V30 8776 H 827.102 4.11182 -2.62261 0
M  V30 8777 H 826.107 2.97166 -4.62572 0
M  V30 8778 H 827.332 3.73315 -5.67286 0
M  V30 8779 H 825.278 5.2113 -3.98446 0
M  V30 8780 H 825.195 4.96804 -5.69844 0
M  V30 8781 H 826.463 5.95306 -5.03221 0
M  V30 8782 N 830.692 1.47107 0.565454 0
M  V30 8783 C 831.932 1.5488 1.33385 0
M  V30 8784 C 832.296 0.202804 1.90926 0
M  V30 8785 O 833.497 0.155345 2.68351 0
M  V30 8786 C 831.768 2.62969 2.42037 0
M  V30 8787 S 833.327 2.90269 3.29074 0
M  V30 8788 H 830.145 0.547008 0.454206 0
M  V30 8789 H 832.747 1.8444 0.648228 0
M  V30 8790 H 831.451 3.59376 1.98185 0
M  V30 8791 H 830.982 2.35197 3.15351 0
M  V30 8792 H 832.997 2.26854 4.41307 0
M  V30 8793 N 832.17 -0.811516 1.35101 0
M  V30 8794 C 833.586 -1.10634 1.15031 0
M  V30 8795 C 833.786 -2.01459 -0.0405379 0
M  V30 8796 O 832.842 -2.42235 -0.712635 0
M  V30 8797 C 834.155 -1.74207 2.45097 0
M  V30 8798 C 835.703 -1.8665 2.51258 0
M  V30 8799 C 836.178 -2.53638 3.81355 0
M  V30 8800 N 837.669 -2.61128 3.82579 0
M  V30 8801 C 838.404 -3.13717 4.79968 0
M  V30 8802 N 837.9 -3.66782 5.87744 0
M  V30 8803 N 839.693 -3.12224 4.67411 0
M  V30 8804 H 831.844 -0.207641 2.11383 0
M  V30 8805 H 834.107 -0.154697 0.935293 0
M  V30 8806 H 833.813 -1.14936 3.32389 0
M  V30 8807 H 833.687 -2.73958 2.59281 0
M  V30 8808 H 836.074 -2.45066 1.64398 0
M  V30 8809 H 836.155 -0.857678 2.40993 0
M  V30 8810 H 835.799 -1.95873 4.68611 0
M  V30 8811 H 835.729 -3.55047 3.88907 0
M  V30 8812 H 838.22 -2.23527 3.04703 0
M  V30 8813 H 838.533 -4.05194 6.58056 0
M  V30 8814 H 836.878 -3.64994 5.91443 0
M  V30 8815 H 840.069 -2.70042 3.82354 0
M  V30 8816 H 840.242 -3.52903 5.43474 0
M  V30 8817 N 833.648 -1.19017 -1.03309 0
M  V30 8818 C 834.578 -0.94772 -2.13402 0
M  V30 8819 C 835.559 0.117383 -1.69694 0
M  V30 8820 O 836.744 -0.0367733 -1.94165 0
M  V30 8821 C 833.874 -0.480977 -3.43953 0
M  V30 8822 C 832.828 -1.48743 -4.01322 0
M  V30 8823 C 832.154 -0.877924 -5.27443 0
M  V30 8824 C 833.454 -2.86642 -4.36616 0
M  V30 8825 H 835.148 -1.86846 -2.33942 0
M  V30 8826 H 832.694 -0.899781 -1.12427 0
M  V30 8827 H 834.647 -0.298677 -4.2034 0
M  V30 8828 H 833.371 0.475348 -3.23122 0
M  V30 8829 H 832.03 -1.65681 -3.27025 0
M  V30 8830 H 831.678 0.0858232 -5.02927 0
M  V30 8831 H 831.378 -1.54996 -5.66789 0
M  V30 8832 H 832.902 -0.706326 -6.06501 0
M  V30 8833 H 834.316 -2.73312 -5.03958 0
M  V30 8834 H 832.713 -3.50599 -4.87032 0
M  V30 8835 H 833.783 -3.39617 -3.46105 0
M  V30 8836 N 835.127 1.22348 -0.993418 0
M  V30 8837 C 836.074 2.24294 -0.544118 0
M  V30 8838 C 837.044 1.60602 0.42381 0
M  V30 8839 O 838.229 1.87952 0.328453 0
M  V30 8840 C 835.369 3.44837 0.134578 0
M  V30 8841 C 834.482 4.23043 -0.875151 0
M  V30 8842 C 833.617 5.30928 -0.169919 0
M  V30 8843 C 832.656 6.00853 -1.16798 0
M  V30 8844 N 831.793 7.00381 -0.491021 0
M  V30 8845 H 836.633 2.6209 -1.4182 0
M  V30 8846 H 834.17 1.2881 -0.710384 0
M  V30 8847 H 836.128 4.13625 0.544998 0
M  V30 8848 H 834.758 3.07804 0.972446 0
M  V30 8849 H 833.81 3.53546 -1.40389 0
M  V30 8850 H 835.122 4.71237 -1.63516 0
M  V30 8851 H 834.276 6.05972 0.297205 0
M  V30 8852 H 833.015 4.8371 0.622586 0
M  V30 8853 H 832.02 5.24591 -1.64573 0
M  V30 8854 H 833.245 6.50159 -1.96137 0
M  V30 8855 H 831.191 6.55393 0.282037 0
M  V30 8856 H 831.108 7.46584 -1.18947 0
M  V30 8857 H 832.376 7.79486 -0.0467169 0
M  V30 8858 N 836.605 0.766683 1.37694 0
M  V30 8859 C 837.538 0.0959288 2.27998 0
M  V30 8860 C 838.516 -0.714493 1.46061 0
M  V30 8861 O 839.7 -0.690337 1.75404 0
M  V30 8862 C 836.827 -0.87057 3.27321 0
M  V30 8863 C 835.873 -0.144771 4.26254 0
M  V30 8864 S 836.706 1.16365 5.22704 0
M  V30 8865 C 837.862 0.200564 6.25579 0
M  V30 8866 H 838.095 0.861666 2.84539 0
M  V30 8867 H 835.628 0.559845 1.43893 0
M  V30 8868 H 837.586 -1.42282 3.85053 0
M  V30 8869 H 836.247 -1.60938 2.69737 0
M  V30 8870 H 835.44 -0.877259 4.96307 0
M  V30 8871 H 835.042 0.33633 3.72485 0
M  V30 8872 H 837.334 -0.628833 6.74575 0
M  V30 8873 H 838.277 0.869117 7.02746 0
M  V30 8874 H 838.685 -0.185972 5.64194 0
M  V30 8875 N 838.083 -1.48885 0.516809 0
M  V30 8876 C 839.36 -1.95412 -0.0858293 0
M  V30 8877 C 839.74 -1.45875 -1.5259 0
M  V30 8878 O 839.088 -0.679415 -2.18166 0
M  V30 8879 C 839.298 -3.48995 0.0178194 0
M  V30 8880 C 840.646 -4.24342 -0.14813 0
M  V30 8881 O 841.67 -3.56155 -0.0566125 0
M  V30 8882 O 840.529 -5.45454 -0.338035 0
M  V30 8883 H 837.623 -0.822455 -0.0865884 0
M  V30 8884 H 840.169 -1.59464 0.580472 0
M  V30 8885 H 838.941 -3.77732 1.02147 0
M  V30 8886 H 838.564 -3.91604 -0.687924 0
M  V30 8887 N 839.561 -0.251338 -1.55583 0
M  V30 8888 C 840.508 0.646337 -2.21565 0
M  V30 8889 C 841.478 1.16796 -1.18102 0
M  V30 8890 O 842.663 1.22162 -1.46564 0
M  V30 8891 C 839.803 1.83557 -2.92234 0
M  V30 8892 C 838.916 1.35006 -4.10363 0
M  V30 8893 C 838.051 2.4992 -4.68736 0
M  V30 8894 C 837.09 1.98253 -5.79105 0
M  V30 8895 N 836.227 3.06551 -6.31642 0
M  V30 8896 H 841.067 0.0769881 -2.97901 0
M  V30 8897 H 838.604 0.026238 -1.47077 0
M  V30 8898 H 840.562 2.53425 -3.31408 0
M  V30 8899 H 839.192 2.37733 -2.18364 0
M  V30 8900 H 838.244 0.545274 -3.76472 0
M  V30 8901 H 839.556 0.931435 -4.90026 0
M  V30 8902 H 838.71 3.27823 -5.10507 0
M  V30 8903 H 837.449 2.95086 -3.88298 0
M  V30 8904 H 836.454 1.18822 -5.36807 0
M  V30 8905 H 837.679 1.54051 -6.61396 0
M  V30 8906 H 835.625 3.51143 -5.54107 0
M  V30 8907 H 835.542 2.69033 -7.06511 0
M  V30 8908 H 836.81 3.84499 -6.78071 0
M  V30 8909 N 841.039 1.57585 0.0217189 0
M  V30 8910 C 841.969 2.10073 1.01939 0
M  V30 8911 C 842.95 1.0049 1.37243 0
M  V30 8912 O 844.135 1.28055 1.45999 0
M  V30 8913 C 841.265 2.58618 2.31806 0
M  V30 8914 C 840.219 3.72531 2.10724 0
M  V30 8915 C 839.545 4.07309 3.46415 0
M  V30 8916 C 840.845 5.00672 1.48743 0
M  V30 8917 H 842.539 2.9368 0.582432 0
M  V30 8918 H 840.085 1.41277 0.278715 0
M  V30 8919 H 842.038 2.9396 3.01936 0
M  V30 8920 H 840.762 1.72104 2.77575 0
M  V30 8921 H 839.421 3.37549 1.43025 0
M  V30 8922 H 839.069 3.17851 3.89846 0
M  V30 8923 H 838.769 4.84042 3.33132 0
M  V30 8924 H 840.293 4.45192 4.17895 0
M  V30 8925 H 841.707 5.33925 2.088 0
M  V30 8926 H 840.104 5.82065 1.46013 0
M  V30 8927 H 841.174 4.82769 0.45408 0
M  V30 8928 N 842.517 -0.29412 1.54831 0
M  V30 8929 C 843.464 -1.36296 1.86258 0
M  V30 8930 C 844.434 -1.50061 0.712097 0
M  V30 8931 O 845.619 -1.64809 0.961381 0
M  V30 8932 C 842.759 -2.72187 2.12151 0
M  V30 8933 C 841.872 -2.66816 3.39755 0
M  V30 8934 C 841.007 -3.94747 3.55455 0
M  V30 8935 C 840.046 -3.838 4.76827 0
M  V30 8936 N 839.183 -5.03521 4.89296 0
M  V30 8937 H 844.023 -1.08796 2.7743 0
M  V30 8938 H 841.56 -0.526069 1.37371 0
M  V30 8939 H 843.518 -3.51225 2.25159 0
M  V30 8940 H 842.148 -2.97934 1.24237 0
M  V30 8941 H 841.2 -1.79605 3.3533 0
M  V30 8942 H 842.512 -2.5462 4.28917 0
M  V30 8943 H 841.666 -4.82223 3.68166 0
M  V30 8944 H 840.405 -4.09785 2.64438 0
M  V30 8945 H 839.41 -2.94708 4.64141 0
M  V30 8946 H 840.635 -3.70301 5.69258 0
M  V30 8947 H 838.581 -5.1901 4.01204 0
M  V30 8948 H 838.498 -4.93775 5.72471 0
M  V30 8949 H 839.766 -5.92629 5.06371 0
M  V30 8950 N 843.995 -1.47404 -0.557645 0
M  V30 8951 C 844.925 -1.62736 -1.67449 0
M  V30 8952 C 845.906 -0.476824 -1.6328 0
M  V30 8953 O 847.091 -0.706108 -1.80908 0
M  V30 8954 C 844.221 -1.641 -3.06086 0
M  V30 8955 C 843.175 -2.78377 -3.25101 0
M  V30 8956 C 842.501 -2.64812 -4.6452 0
M  V30 8957 C 843.801 -4.19971 -3.10518 0
M  V30 8958 H 845.495 -2.56232 -1.54873 0
M  V30 8959 H 843.041 -1.23312 -0.743649 0
M  V30 8960 H 844.994 -1.73417 -3.84063 0
M  V30 8961 H 843.718 -0.671652 -3.19619 0
M  V30 8962 H 842.377 -2.6857 -2.49531 0
M  V30 8963 H 842.025 -1.65906 -4.74852 0
M  V30 8964 H 841.725 -3.41477 -4.78191 0
M  V30 8965 H 843.249 -2.76057 -5.44633 0
M  V30 8966 H 844.663 -4.30757 -3.78313 0
M  V30 8967 H 843.06 -4.97419 -3.35699 0
M  V30 8968 H 844.13 -4.38369 -2.0727 0
M  V30 8969 N 845.473 0.80434 -1.35529 0
M  V30 8970 C 846.42 1.91629 -1.28635 0
M  V30 8971 C 847.39 1.65348 -0.157862 0
M  V30 8972 O 848.575 1.87711 -0.341934 0
M  V30 8973 C 845.715 3.28207 -1.0665 0
M  V30 8974 C 844.828 3.66659 -2.28441 0
M  V30 8975 C 843.963 4.92279 -1.99588 0
M  V30 8976 C 843.002 5.23365 -3.1742 0
M  V30 8977 N 842.139 6.40165 -2.88328 0
M  V30 8978 H 846.979 1.96858 -2.23721 0
M  V30 8979 H 844.516 0.962871 -1.11208 0
M  V30 8980 H 846.474 4.06945 -0.919343 0
M  V30 8981 H 845.104 3.22441 -0.152253 0
M  V30 8982 H 844.156 2.83164 -2.54013 0
M  V30 8983 H 845.468 3.8559 -3.1642 0
M  V30 8984 H 844.622 5.78847 -1.81715 0
M  V30 8985 H 843.361 4.75387 -1.08896 0
M  V30 8986 H 842.366 4.35285 -3.35867 0
M  V30 8987 H 843.591 5.42185 -4.08916 0
M  V30 8988 H 841.537 6.24694 -2.00233 0
M  V30 8989 H 841.454 6.59357 -3.69843 0
M  V30 8990 H 842.722 7.29755 -2.74002 0
M  V30 8991 N 846.951 1.19563 1.02676 0
M  V30 8992 C 848.199 0.997593 1.75763 0
M  V30 8993 C 848.52 -0.47253 1.89188 0
M  V30 8994 O 847.79 -1.34214 1.42701 0
M  V30 8995 H 846.37 0.366128 0.651122 0
M  V30 8996 H 849.032 1.50495 1.23844 0
M  V30 8997 H 848.128 1.44741 2.76508 0
M  V30 8998 N 848.429 -1.21819 0.999893 0
M  V30 8999 C 849.362 -2.22635 0.500887 0
M  V30 9000 C 850.34 -1.56459 -0.442636 0
M  V30 9001 O 851.524 -1.84902 -0.366551 0
M  V30 9002 C 848.651 -3.37598 -0.273046 0
M  V30 9003 C 847.697 -4.22006 0.617511 0
M  V30 9004 S 848.53 -4.93583 2.07693 0
M  V30 9005 C 849.686 -6.1198 1.31269 0
M  V30 9006 H 849.919 -2.64618 1.35516 0
M  V30 9007 H 847.452 -1.31606 0.807419 0
M  V30 9008 H 849.41 -4.04251 -0.713515 0
M  V30 9009 H 848.071 -2.94108 -1.10268 0
M  V30 9010 H 847.264 -5.03995 0.0216543 0
M  V30 9011 H 846.866 -3.6052 0.99504 0
M  V30 9012 H 849.158 -6.74979 0.583933 0
M  V30 9013 H 850.101 -6.75991 2.10811 0
M  V30 9014 H 850.509 -5.5847 0.822901 0
M  V30 9015 N 849.908 -0.773975 -1.37286 0
M  V30 9016 C 851.133 -0.349561 -2.04433 0
M  V30 9017 C 851.558 1.02082 -1.5799 0
M  V30 9018 O 850.916 1.65458 -0.741172 0
M  V30 9019 C 850.964 -0.404292 -3.58326 0
M  V30 9020 O 850.068 0.594447 -4.08093 0
M  V30 9021 H 849.409 -0.150959 -0.646612 0
M  V30 9022 H 851.939 -1.05079 -1.75555 0
M  V30 9023 H 851.949 -0.262378 -4.07155 0
M  V30 9024 H 850.624 -1.40403 -3.91484 0
M  V30 9025 H 849.201 0.415468 -3.70578 0
M  V30 9026 N 851.386 1.48609 -0.524698 0
M  V30 9027 C 852.616 2.06599 0.00741868 0
M  V30 9028 C 853.024 1.3823 1.29186 0
M  V30 9029 O 852.367 0.461962 1.77797 0
M  V30 9030 C 852.429 3.58184 0.307324 0
M  V30 9031 C 852.093 4.48391 -0.882864 0
M  V30 9032 C 853.09 4.88485 -1.77984 0
M  V30 9033 C 850.775 4.90367 -1.08837 0
M  V30 9034 C 852.769 5.69319 -2.86627 0
M  V30 9035 C 850.456 5.70972 -2.17794 0
M  V30 9036 C 851.454 6.10355 -3.06523 0
M  V30 9037 O 851.142 6.89343 -4.13596 0
M  V30 9038 H 850.874 0.675421 -0.0279846 0
M  V30 9039 H 853.428 1.92058 -0.7282 0
M  V30 9040 H 851.658 3.70818 1.09685 0
M  V30 9041 H 853.347 3.98318 0.780886 0
M  V30 9042 H 854.113 4.56682 -1.63299 0
M  V30 9043 H 849.992 4.592 -0.407035 0
M  V30 9044 H 853.536 5.99978 -3.55911 0
M  V30 9045 H 849.433 6.02188 -2.32465 0
M  V30 9046 H 850.201 7.07689 -4.1124 0
M  V30 9047 N 852.864 0.259585 1.55447 0
M  V30 9048 C 853.827 -0.621359 2.20617 0
M  V30 9049 C 854.827 -1.09317 1.17925 0
M  V30 9050 O 856.017 -0.995842 1.42929 0
M  V30 9051 C 853.149 -1.85546 2.85982 0
M  V30 9052 H 854.342 -0.0525833 2.99854 0
M  V30 9053 H 851.895 0.0101055 1.56297 0
M  V30 9054 H 852.63 -2.46515 2.10715 0
M  V30 9055 H 852.415 -1.52523 3.61219 0
M  V30 9056 H 853.905 -2.48227 3.35817 0
M  V30 9057 N 854.342 -1.57594 -0.0133615 0
M  V30 9058 C 855.275 -2.02991 -1.04259 0
M  V30 9059 C 856.253 -0.917193 -1.34262 0
M  V30 9060 O 857.437 -1.18428 -1.46653 0
M  V30 9061 C 854.564 -2.41624 -2.37351 0
M  V30 9062 C 853.61 -3.63495 -2.231 0
M  V30 9063 S 854.443 -5.1198 -1.5696 0
M  V30 9064 C 855.599 -5.5387 -2.91511 0
M  V30 9065 H 855.832 -2.89973 -0.655985 0
M  V30 9066 H 853.365 -1.52769 -0.223827 0
M  V30 9067 H 855.323 -2.64551 -3.13884 0
M  V30 9068 H 853.984 -1.55065 -2.73155 0
M  V30 9069 H 853.177 -3.88233 -3.21389 0
M  V30 9070 H 852.779 -3.405 -1.54711 0
M  V30 9071 H 855.071 -5.55514 -3.87828 0
M  V30 9072 H 856.014 -6.53988 -2.71488 0
M  V30 9073 H 856.422 -4.81404 -2.94806 0
M  V30 9074 N 855.82 0.285905 -1.54985 0
M  V30 9075 C 857.06 1.02699 -1.76726 0
M  V30 9076 C 857.424 1.83962 -0.549717 0
M  V30 9077 O 858.625 2.60943 -0.645142 0
M  V30 9078 C 856.896 1.89671 -3.02919 0
M  V30 9079 S 858.455 2.7022 -3.45726 0
M  V30 9080 H 855.273 0.346114 -0.621068 0
M  V30 9081 H 857.875 0.298764 -1.93204 0
M  V30 9082 H 856.579 1.28873 -3.89641 0
M  V30 9083 H 856.11 2.66836 -2.89071 0
M  V30 9084 H 858.125 3.92184 -3.03983 0
M  V30 9085 N 857.298 1.47698 0.54982 0
M  V30 9086 C 858.228 1.63622 1.66583 0
M  V30 9087 C 859.209 0.485477 1.63025 0
M  V30 9088 O 860.394 0.715692 1.80531 0
M  V30 9089 C 857.524 1.65721 3.05211 0
M  V30 9090 C 856.478 2.80097 3.2362 0
M  V30 9091 C 855.804 2.67272 4.63109 0
M  V30 9092 C 857.104 4.21612 3.08286 0
M  V30 9093 H 858.798 2.57049 1.53512 0
M  V30 9094 H 856.344 1.23705 0.737099 0
M  V30 9095 H 858.297 1.75451 3.83138 0
M  V30 9096 H 857.021 0.688593 3.19258 0
M  V30 9097 H 855.68 2.69889 2.48104 0
M  V30 9098 H 855.328 1.68422 4.73965 0
M  V30 9099 H 855.028 3.44008 4.76374 0
M  V30 9100 H 856.552 2.78942 5.43161 0
M  V30 9101 H 857.966 4.32758 3.76024 0
M  V30 9102 H 856.363 4.99193 3.33057 0
M  V30 9103 H 857.433 4.39462 2.04942 0
M  V30 9104 N 858.776 -0.797141 1.35954 0
M  V30 9105 C 859.724 -1.93084 1.29697 0
M  V30 9106 C 860.718 -1.68329 0.190152 0
M  V30 9107 O 861.924 -1.7643 0.3567 0
M  V30 9108 H 858.299 -0.634531 0.403577 0
M  V30 9109 H 860.27 -1.95481 2.25455 0
M  V30 9110 C 859.019 -3.29996 1.09536 0
M  V30 9111 H 858.342 -3.49607 1.93946 0
M  V30 9112 H 859.782 -4.09696 1.09202 0
M  V30 9113 C 858.241 -3.36304 -0.200381 0
M  V30 9114 O 858.771 -3.83579 -1.19291 0
M  V30 9115 N 856.977 -2.89587 -0.242406 0
M  V30 9116 H 856.524 -2.51307 0.565897 0
M  V30 9117 H 856.482 -2.94189 -1.10906 0
M  V30 9118 N 860.254 -1.20106 -1.0204 0
M  V30 9119 C 861.482 -1.0344 -1.79186 0
M  V30 9120 C 861.897 0.416542 -1.84148 0
M  V30 9121 O 861.254 1.28925 -1.29168 0
M  V30 9122 C 861.305 -1.60663 -3.23836 0
M  V30 9123 O 861.026 -3.00079 -3.19193 0
M  V30 9124 C 862.527 -1.48897 -4.17546 0
M  V30 9125 H 859.747 -0.364093 -0.563629 0
M  V30 9126 H 862.291 -1.5911 -1.28469 0
M  V30 9127 H 860.446 -1.09122 -3.71714 0
M  V30 9128 H 860.86 -3.27162 -4.09958 0
M  V30 9129 H 862.334 -1.93703 -5.16898 0
M  V30 9130 H 862.811 -0.440843 -4.36982 0
M  V30 9131 H 863.417 -1.9961 -3.75547 0
M  V30 9132 N 861.732 1.21287 -1.00634 0
M  V30 9133 C 862.979 1.90389 -0.6898 0
M  V30 9134 C 863.307 1.78193 0.779574 0
M  V30 9135 O 862.562 1.15358 1.58085 0
M  V30 9136 C 862.861 3.41374 -1.05824 0
M  V30 9137 C 862.527 3.73766 -2.5221 0
M  V30 9138 C 861.189 3.82317 -2.92211 0
M  V30 9139 C 863.541 3.88871 -3.47028 0
M  V30 9140 C 860.869 4.03423 -4.2599 0
M  V30 9141 C 863.221 4.11484 -4.80483 0
M  V30 9142 C 861.885 4.18263 -5.20204 0
M  V30 9143 H 861.155 0.696683 -0.252416 0
M  V30 9144 H 863.802 1.43769 -1.26502 0
M  V30 9145 H 862.107 3.8974 -0.401281 0
M  V30 9146 H 863.804 3.93118 -0.79116 0
M  V30 9147 H 860.394 3.67702 -2.20212 0
M  V30 9148 H 864.578 3.8163 -3.17289 0
M  V30 9149 H 859.834 4.06902 -4.56334 0
M  V30 9150 H 864.008 4.22115 -5.53888 0
M  V30 9151 H 861.635 4.34369 -6.23881 0
M  V30 9152 N 863.21 0.781244 1.36873 0
M  V30 9153 C 864.456 0.350407 1.9975 0
M  V30 9154 C 864.789 -1.07293 1.6187 0
M  V30 9155 O 864.064 -1.73983 0.869491 0
M  V30 9156 C 864.347 0.504834 3.56544 0
M  V30 9157 C 864.2 1.97127 4.04303 0
M  V30 9158 C 865.519 -0.0851272 4.40018 0
M  V30 9159 H 862.638 0.128794 0.725659 0
M  V30 9160 H 865.28 0.98606 1.6241 0
M  V30 9161 H 863.43 -0.0363006 3.88483 0
M  V30 9162 H 865.102 2.57284 3.82887 0
M  V30 9163 H 863.345 2.47676 3.56145 0
M  V30 9164 H 864.016 2.03033 5.13305 0
M  V30 9165 H 866.492 0.376704 4.14391 0
M  V30 9166 H 865.368 0.0530015 5.48874 0
M  V30 9167 H 865.629 -1.17642 4.2616 0
M  V30 9168 N 864.689 -1.48329 0.532571 0
M  V30 9169 C 865.619 -2.32485 -0.217511 0
M  V30 9170 C 866.6 -1.42255 -0.932598 0
M  V30 9171 O 867.785 -1.7114 -0.917873 0
M  V30 9172 C 864.915 -3.23509 -1.26329 0
M  V30 9173 C 863.869 -4.22784 -0.666191 0
M  V30 9174 C 863.195 -5.0296 -1.81482 0
M  V30 9175 C 864.495 -5.21031 0.363813 0
M  V30 9176 H 866.189 -2.95445 0.485014 0
M  V30 9177 H 863.735 -1.42075 0.234694 0
M  V30 9178 H 865.688 -3.81211 -1.79601 0
M  V30 9179 H 864.412 -2.58554 -1.99543 0
M  V30 9180 H 863.071 -3.66272 -0.15498 0
M  V30 9181 H 862.719 -4.34427 -2.5354 0
M  V30 9182 H 862.419 -5.70154 -1.4212 0
M  V30 9183 H 863.943 -5.63514 -2.35126 0
M  V30 9184 H 865.357 -5.73241 -0.0819079 0
M  V30 9185 H 863.754 -5.96292 0.674956 0
M  V30 9186 H 864.824 -4.6801 1.26865 0
M  V30 9187 N 866.167 -0.267825 -1.55308 0
M  V30 9188 C 867.114 0.6228 -2.22238 0
M  V30 9189 C 868.084 1.15536 -1.19334 0
M  V30 9190 O 869.269 1.206 -1.47852 0
M  V30 9191 C 866.409 1.80447 -2.94164 0
M  V30 9192 C 865.522 1.30646 -4.11771 0
M  V30 9193 C 864.657 2.44935 -4.7136 0
M  V30 9194 C 863.696 1.92099 -5.81175 0
M  V30 9195 N 862.833 2.99834 -6.34857 0
M  V30 9196 H 867.673 0.0453874 -2.97965 0
M  V30 9197 H 865.21 0.0106371 -1.47096 0
M  V30 9198 H 867.168 2.49896 -3.34078 0
M  V30 9199 H 865.798 2.35403 -2.20874 0
M  V30 9200 H 864.85 0.505314 -3.77029 0
M  V30 9201 H 866.162 0.879409 -4.90987 0
M  V30 9202 H 865.316 3.2239 -5.13955 0
M  V30 9203 H 864.055 2.90951 -3.91406 0
M  V30 9204 H 863.06 1.13122 -5.38037 0
M  V30 9205 H 864.285 1.47027 -6.62993 0
M  V30 9206 H 862.231 3.45246 -5.578 0
M  V30 9207 H 862.148 2.61524 -7.09324 0
M  V30 9208 H 863.416 3.77286 -6.82111 0
M  V30 9209 N 867.645 1.57599 0.00500368 0
M  V30 9210 C 868.592 2.08106 0.998025 0
M  V30 9211 C 869.562 0.975374 1.34446 0
M  V30 9212 O 870.747 1.24749 1.44369 0
M  V30 9213 C 867.887 2.58496 2.28635 0
M  V30 9214 C 867 3.82947 1.99939 0
M  V30 9215 C 866.135 4.21857 3.22816 0
M  V30 9216 C 865.174 5.39159 2.89783 0
M  V30 9217 N 864.311 5.73386 4.05183 0
M  V30 9218 H 869.151 2.92684 0.560385 0
M  V30 9219 H 866.688 1.44692 0.265053 0
M  V30 9220 H 868.646 2.85787 3.03943 0
M  V30 9221 H 867.276 1.768 2.70077 0
M  V30 9222 H 866.328 3.62594 1.1502 0
M  V30 9223 H 867.64 4.68358 1.71588 0
M  V30 9224 H 866.794 4.50404 4.06474 0
M  V30 9225 H 865.533 3.35145 3.54301 0
M  V30 9226 H 864.538 5.1034 2.04532 0
M  V30 9227 H 865.763 6.27543 2.59551 0
M  V30 9228 H 863.709 4.89632 4.36574 0
M  V30 9229 H 863.626 6.53359 3.80339 0
M  V30 9230 H 864.894 6.06522 4.89644 0
M  V30 9231 N 869.123 -0.277682 1.55134 0
M  V30 9232 C 870.033 -1.36524 1.90783 0
M  V30 9233 C 871.049 -1.54283 0.804542 0
M  V30 9234 O 872.225 -1.68499 1.10318 0
M  V30 9235 C 869.29 -2.70524 2.16835 0
M  V30 9236 C 868.351 -2.61552 3.40424 0
M  V30 9237 C 867.584 -3.89162 3.65224 0
M  V30 9238 O 867.807 -4.89624 2.92616 0
M  V30 9239 O 866.741 -3.89647 4.58758 0
M  V30 9240 H 870.567 -1.0929 2.83354 0
M  V30 9241 H 868.152 -0.475799 1.41621 0
M  V30 9242 H 870.034 -3.49765 2.35038 0
M  V30 9243 H 868.709 -2.97555 1.27448 0
M  V30 9244 H 867.616 -1.80704 3.27562 0
M  V30 9245 H 868.949 -2.39472 4.30016 0
M  V30 9246 N 870.601 -1.47988 -0.541979 0
M  V30 9247 C 871.847 -1.55623 -1.30036 0
M  V30 9248 C 872.18 -0.224254 -1.92901 0
M  V30 9249 O 871.455 0.768629 -1.78668 0
M  V30 9250 C 871.738 -2.68562 -2.39888 0
M  V30 9251 C 871.591 -4.11426 -1.81792 0
M  V30 9252 C 872.91 -2.77325 -3.41729 0
M  V30 9253 H 870.029 -0.566498 -0.471433 0
M  V30 9254 H 872.671 -1.8011 -0.604998 0
M  V30 9255 H 870.821 -2.47814 -2.992 0
M  V30 9256 H 872.493 -4.43581 -1.26624 0
M  V30 9257 H 870.736 -4.18989 -1.12386 0
M  V30 9258 H 871.407 -4.8625 -2.61276 0
M  V30 9259 H 873.883 -2.96085 -2.92357 0
M  V30 9260 H 872.759 -3.58097 -4.16002 0
M  V30 9261 H 873.02 -1.84995 -4.01534 0
M  V30 9262 N 872.079 0.78992 -1.36375 0
M  V30 9263 C 873.304 1.58389 -1.33895 0
M  V30 9264 C 873.729 1.8794 0.0774934 0
M  V30 9265 O 873.087 1.4785 1.0493 0
M  V30 9266 C 873.135 2.88201 -2.16732 0
M  V30 9267 O 872.239 3.81778 -1.55946 0
M  V30 9268 H 871.58 0.480471 -0.458305 0
M  V30 9269 H 874.11 0.979119 -1.79651 0
M  V30 9270 H 874.12 3.37475 -2.29292 0
M  V30 9271 H 872.795 2.66019 -3.19698 0
M  V30 9272 H 871.372 3.40371 -1.52323 0
M  V30 9273 N 873.557 1.20646 1.01402 0
M  V30 9274 C 874.467 0.973385 2.13453 0
M  V30 9275 C 875.483 -0.0715865 1.73853 0
M  V30 9276 O 876.659 0.116438 2.01063 0
M  V30 9277 C 873.724 0.531285 3.42605 0
M  V30 9278 C 872.785 1.64741 3.96433 0
M  V30 9279 C 872.018 1.22631 5.1942 0
M  V30 9280 O 872.241 0.0960891 5.70319 0
M  V30 9281 O 871.175 2.03474 5.66465 0
M  V30 9282 H 875.001 1.91164 2.35987 0
M  V30 9283 H 872.586 0.990553 1.11841 0
M  V30 9284 H 874.468 0.294095 4.20373 0
M  V30 9285 H 873.143 -0.378358 3.21481 0
M  V30 9286 H 872.05 1.93891 3.19933 0
M  V30 9287 H 873.383 2.53415 4.2195 0
M  V30 9288 N 875.035 -1.20752 1.01276 0
M  V30 9289 C 876.263 -1.94006 0.718976 0
M  V30 9290 C 876.678 -1.74544 -0.719711 0
M  V30 9291 O 876.035 -1.05697 -1.48776 0
M  V30 9292 C 876.086 -3.46208 1.04031 0
M  V30 9293 O 875.807 -3.65031 2.42248 0
M  V30 9294 C 877.308 -4.36614 0.767032 0
M  V30 9295 H 874.528 -0.616743 0.264327 0
M  V30 9296 H 877.072 -1.53352 1.3529 0
M  V30 9297 H 875.227 -3.84756 0.451852 0
M  V30 9298 H 875.641 -4.59054 2.53712 0
M  V30 9299 H 877.115 -5.42076 1.04198 0
M  V30 9300 H 877.592 -4.38182 -0.298851 0
M  V30 9301 H 878.198 -4.03723 1.33746 0
M  V30 9302 N 876.513 -0.788492 -1.36457 0
M  V30 9303 C 877.445 -0.144208 -2.28746 0
M  V30 9304 C 878.458 0.646009 -1.49434 0
M  V30 9305 O 879.647 0.481344 -1.71888 0
M  V30 9306 C 876.747 0.818869 -3.28858 0
M  V30 9307 C 875.92 0.0789055 -4.37329 0
M  V30 9308 C 874.979 0.957791 -5.1741 0
M  V30 9309 O 874.005 0.415378 -5.67682 0
M  V30 9310 N 875.207 2.28216 -5.33758 0
M  V30 9311 H 877.972 -0.936949 -2.84678 0
M  V30 9312 H 875.533 -0.642317 -1.48613 0
M  V30 9313 H 877.525 1.41065 -3.79319 0
M  V30 9314 H 876.095 1.51249 -2.73573 0
M  V30 9315 H 875.315 -0.693939 -3.88044 0
M  V30 9316 H 876.603 -0.431753 -5.06965 0
M  V30 9317 H 876.001 2.747 -4.94527 0
M  V30 9318 H 874.558 2.8236 -5.87466 0
M  V30 9319 N 877.991 1.48044 -0.54043 0
M  V30 9320 C 878.941 2.26768 0.236657 0
M  V30 9321 C 879.925 1.33341 0.900505 0
M  V30 9322 O 881.117 1.57809 0.801584 0
M  V30 9323 C 878.246 3.18685 1.27651 0
M  V30 9324 C 877.332 4.19589 0.616923 0
M  V30 9325 N 877.723 5.04889 -0.303377 0
M  V30 9326 C 876.021 4.37375 0.872879 0
M  V30 9327 C 876.722 5.77654 -0.684905 0
M  V30 9328 N 875.698 5.43583 -0.0435728 0
M  V30 9329 H 879.5 2.90098 -0.471183 0
M  V30 9330 H 877.014 1.58378 -0.359183 0
M  V30 9331 H 879.011 3.73752 1.84702 0
M  V30 9332 H 877.671 2.56911 1.98562 0
M  V30 9333 H 878.682 5.13461 -0.676591 0
M  V30 9334 H 875.359 3.86784 1.57177 0
M  V30 9335 H 876.749 6.56285 -1.44015 0
M  V30 9336 N 879.47 0.276058 1.55163 0
M  V30 9337 C 880.718 -0.339782 1.99223 0
M  V30 9338 C 881.039 -1.56307 1.16589 0
M  V30 9339 O 880.309 -1.94225 0.25564 0
M  V30 9340 H 878.889 -0.128534 0.735859 0
M  V30 9341 H 881.551 0.381612 1.91128 0
M  V30 9342 H 880.647 -0.629 3.05696 0
M  V30 9343 N 880.948 -1.576 0.00335426 0
M  V30 9344 C 882.176 -1.94996 -0.691685 0
M  V30 9345 C 882.591 -0.878405 -1.67121 0
M  V30 9346 O 881.948 0.142343 -1.81944 0
M  V30 9347 C 881.999 -3.32416 -1.42063 0
M  V30 9348 O 881.72 -4.35458 -0.48038 0
M  V30 9349 C 883.221 -3.84291 -2.20987 0
M  V30 9350 H 880.441 -0.642814 -0.192434 0
M  V30 9351 H 882.985 -2.04425 0.0554706 0
M  V30 9352 H 881.14 -3.24285 -2.11939 0
M  V30 9353 H 881.554 -5.14975 -0.995054 0
M  V30 9354 H 883.028 -4.82863 -2.67483 0
M  V30 9355 H 883.505 -3.17174 -3.03805 0
M  V30 9356 H 884.111 -3.95609 -1.56121 0
M  V30 9357 N 882.426 0.269451 -1.5528 0
M  V30 9358 C 883.675 0.998381 -1.75258 0
M  V30 9359 C 883.988 1.87321 -0.563034 0
M  V30 9360 O 885.194 2.63719 -0.645313 0
M  V30 9361 C 883.65 1.82505 -3.10193 0
M  V30 9362 C 883.258 0.99871 -4.36726 0
M  V30 9363 C 885.002 2.54807 -3.3952 0
M  V30 9364 C 882.909 1.81997 -5.627 0
M  V30 9365 H 881.839 0.376488 -0.653278 0
M  V30 9366 H 884.49 0.253909 -1.81735 0
M  V30 9367 H 882.872 2.61061 -2.97763 0
M  V30 9368 H 884.046 0.257064 -4.60082 0
M  V30 9369 H 882.361 0.390074 -4.14569 0
M  V30 9370 H 884.958 3.16662 -4.30847 0
M  V30 9371 H 885.301 3.25273 -2.59813 0
M  V30 9372 H 885.834 1.83278 -3.53064 0
M  V30 9373 H 882.573 1.15945 -6.45164 0
M  V30 9374 H 882.093 2.53749 -5.43481 0
M  V30 9375 H 883.772 2.39274 -6.0113 0
M  V30 9376 N 883.904 1.48273 0.534124 0
M  V30 9377 C 884.834 1.6538 1.64839 0
M  V30 9378 C 885.815 0.502741 1.62501 0
M  V30 9379 O 887 0.734799 1.79762 0
M  V30 9380 C 884.13 1.68949 3.03436 0
M  V30 9381 C 883.084 2.83513 3.20631 0
M  V30 9382 C 882.41 2.72169 4.60248 0
M  V30 9383 C 883.71 4.24858 3.03797 0
M  V30 9384 H 885.404 2.58663 1.50777 0
M  V30 9385 H 882.95 1.24479 0.723937 0
M  V30 9386 H 884.903 1.79505 3.81256 0
M  V30 9387 H 883.627 0.722415 3.1851 0
M  V30 9388 H 882.286 2.72505 2.45227 0
M  V30 9389 H 881.934 1.7344 4.72152 0
M  V30 9390 H 881.634 3.49042 4.72698 0
M  V30 9391 H 883.158 2.84687 5.40172 0
M  V30 9392 H 884.572 4.36721 3.71413 0
M  V30 9393 H 882.969 5.02697 3.27743 0
M  V30 9394 H 884.039 4.41611 2.0027 0
M  V30 9395 N 885.382 -0.782676 1.36792 0
M  V30 9396 C 886.631 -1.53605 1.30723 0
M  V30 9397 C 886.944 -1.95294 -0.109296 0
M  V30 9398 O 888.15 -2.69921 -0.292398 0
M  V30 9399 C 886.606 -2.77321 2.29393 0
M  V30 9400 C 886.214 -2.42774 3.76517 0
M  V30 9401 C 887.958 -3.55289 2.32314 0
M  V30 9402 C 885.865 -3.62926 4.66947 0
M  V30 9403 H 884.795 -0.576646 0.485794 0
M  V30 9404 H 887.446 -0.858255 1.62192 0
M  V30 9405 H 885.828 -3.46934 1.90927 0
M  V30 9406 H 887.002 -1.81014 4.23758 0
M  V30 9407 H 885.317 -1.78002 3.76436 0
M  V30 9408 H 887.914 -4.44573 2.97083 0
M  V30 9409 H 888.257 -3.94361 1.3336 0
M  V30 9410 H 888.79 -2.92662 2.69432 0
M  V30 9411 H 885.529 -3.28944 5.66989 0
M  V30 9412 H 885.049 -4.23828 4.24418 0
M  V30 9413 H 886.728 -4.29873 4.83548 0
M  V30 9414 N 886.86 -1.21182 -1.00761 0
M  V30 9415 C 887.807 -0.968741 -2.09485 0
M  V30 9416 C 888.777 0.104325 -1.65772 0
M  V30 9417 O 889.962 -0.0422587 -1.90753 0
M  V30 9418 C 887.102 -0.536686 -3.40901 0
M  V30 9419 C 886.215 -1.6789 -3.98041 0
M  V30 9420 C 885.35 -1.19627 -5.17555 0
M  V30 9421 C 884.389 -2.31099 -5.66798 0
M  V30 9422 N 883.526 -1.83988 -6.77564 0
M  V30 9423 H 888.366 -1.89952 -2.29613 0
M  V30 9424 H 885.903 -0.946688 -1.12589 0
M  V30 9425 H 887.861 -0.26745 -4.16342 0
M  V30 9426 H 886.491 0.357092 -3.20819 0
M  V30 9427 H 885.543 -2.06284 -3.19611 0
M  V30 9428 H 886.855 -2.51794 -4.30582 0
M  V30 9429 H 886.009 -0.883539 -6.00232 0
M  V30 9430 H 884.748 -0.327244 -4.86601 0
M  V30 9431 H 883.753 -2.63178 -4.82719 0
M  V30 9432 H 884.978 -3.18493 -5.99782 0
M  V30 9433 H 882.924 -0.994257 -6.48422 0
M  V30 9434 H 882.841 -2.61466 -7.09346 0
M  V30 9435 H 884.109 -1.55741 -7.63783 0
M  V30 9436 N 888.338 1.20213 -1.01915 0
M  V30 9437 C 889.584 1.89928 -0.711007 0
M  V30 9438 C 889.917 1.7881 0.75767 0
M  V30 9439 O 889.192 1.17399 1.55073 0
M  V30 9440 C 889.475 3.41225 -1.15053 0
M  V30 9441 C 889.328 3.61264 -2.67971 0
M  V30 9442 C 890.647 4.34108 -0.72377 0
M  V30 9443 H 887.766 0.689702 -0.259768 0
M  V30 9444 H 890.408 1.41557 -1.26734 0
M  V30 9445 H 888.558 3.82552 -0.677199 0
M  V30 9446 H 890.23 3.29173 -3.23176 0
M  V30 9447 H 888.473 3.04647 -3.08824 0
M  V30 9448 H 889.144 4.67331 -2.93779 0
M  V30 9449 H 891.62 4.00442 -1.13073 0
M  V30 9450 H 890.496 5.38581 -1.05931 0
M  V30 9451 H 890.757 4.40512 0.374424 0
M  V30 9452 N 889.816 0.795718 1.36037 0
M  V30 9453 C 890.726 0.199784 2.33748 0
M  V30 9454 C 891.742 -0.651436 1.61345 0
M  V30 9455 O 892.918 -0.565743 1.93291 0
M  V30 9456 C 889.983 -0.650475 3.40543 0
M  V30 9457 C 889.044 0.219974 4.28736 0
M  V30 9458 C 888.277 -0.589798 5.30431 0
M  V30 9459 O 888.5 -1.82532 5.40406 0
M  V30 9460 O 887.434 0.0136187 6.01898 0
M  V30 9461 H 891.26 1.00782 2.8649 0
M  V30 9462 H 888.845 0.557293 1.38617 0
M  V30 9463 H 890.727 -1.13512 4.05824 0
M  V30 9464 H 889.402 -1.4363 2.9009 0
M  V30 9465 H 888.309 0.751516 3.66474 0
M  V30 9466 H 889.642 0.969468 4.82558 0
M  V30 9467 N 891.294 -1.47756 0.548274 0
M  V30 9468 C 892.524 -2.06584 0.0254503 0
M  V30 9469 C 892.932 -1.40268 -1.26971 0
M  V30 9470 O 892.275 -0.49019 -1.77039 0
M  V30 9471 C 892.337 -3.58628 -0.250301 0
M  V30 9472 C 892.001 -4.4693 0.954087 0
M  V30 9473 C 892.998 -4.85592 1.85733 0
M  V30 9474 C 890.683 -4.88573 1.16624 0
M  V30 9475 C 892.677 -5.64686 2.95648 0
M  V30 9476 C 890.364 -5.67435 2.2685 0
M  V30 9477 C 891.362 -6.05401 3.16194 0
M  V30 9478 O 891.05 -6.82676 4.24511 0
M  V30 9479 H 890.782 -0.67489 0.0387264 0
M  V30 9480 H 893.336 -1.90876 0.758663 0
M  V30 9481 H 891.566 -3.72516 -1.03771 0
M  V30 9482 H 893.255 -3.9951 -0.717419 0
M  V30 9483 H 894.021 -4.54026 1.70544 0
M  V30 9484 H 889.9 -4.58494 0.480039 0
M  V30 9485 H 893.444 -5.9424 3.65411 0
M  V30 9486 H 889.341 -5.98413 2.42016 0
M  V30 9487 H 890.109 -7.01057 4.22447 0
M  V30 9488 N 892.772 -0.284283 -1.55015 0
M  V30 9489 C 893.719 0.599194 -2.22886 0
M  V30 9490 C 894.689 1.14264 -1.20553 0
M  V30 9491 O 895.874 1.19025 -1.49123 0
M  V30 9492 C 893.014 1.77317 -2.96062 0
M  V30 9493 C 892.127 1.26271 -4.13134 0
M  V30 9494 C 891.262 2.39922 -4.73931 0
M  V30 9495 C 890.301 1.85925 -5.8318 0
M  V30 9496 N 889.438 2.93084 -6.38002 0
M  V30 9497 H 894.278 0.0137816 -2.97997 0
M  V30 9498 H 891.815 -0.00496503 -1.47099 0
M  V30 9499 H 893.773 2.46339 -3.36709 0
M  V30 9500 H 892.403 2.33047 -2.23358 0
M  V30 9501 H 891.455 0.465296 -3.77544 0
M  V30 9502 H 892.767 0.827284 -4.91892 0
M  V30 9503 H 891.921 3.1692 -5.17346 0
M  V30 9504 H 890.66 2.86784 -3.9447 0
M  V30 9505 H 889.665 1.07409 -5.39206 0
M  V30 9506 H 890.89 1.39987 -6.64515 0
M  V30 9507 H 888.836 3.3931 -5.61431 0
M  V30 9508 H 888.753 2.53986 -7.12058 0
M  V30 9509 H 890.021 3.7003 -6.86075 0
M  V30 9510 N 894.251 1.57596 -0.0117121 0
M  V30 9511 C 895.499 1.90694 0.669342 0
M  V30 9512 C 895.82 0.886999 1.73659 0
M  V30 9513 O 895.09 -0.0739779 1.9576 0
M  V30 9514 H 893.67 0.703846 0.250219 0
M  V30 9515 H 896.332 1.94821 -0.0554057 0
M  V30 9516 H 895.428 2.90802 1.13316 0
M  V30 9517 N 895.729 -0.261212 1.5542 0
M  V30 9518 C 896.639 -1.34493 1.92221 0
M  V30 9519 C 897.655 -1.53421 0.82086 0
M  V30 9520 O 898.831 -1.6732 1.12099 0
M  V30 9521 C 895.896 -2.68209 2.19692 0
M  V30 9522 C 894.957 -2.57927 3.43179 0
M  V30 9523 C 894.19 -3.85266 3.69331 0
M  V30 9524 O 894.413 -4.86493 2.97793 0
M  V30 9525 O 893.347 -3.8476 4.62865 0
M  V30 9526 H 897.173 -1.06278 2.84497 0
M  V30 9527 H 894.758 -0.460752 1.42118 0
M  V30 9528 H 896.64 -3.47252 2.38734 0
M  V30 9529 H 895.315 -2.96186 1.30597 0
M  V30 9530 H 894.222 -1.77219 3.2946 0
M  V30 9531 H 895.555 -2.34898 4.32532 0
M  V30 9532 N 897.207 -1.48554 -0.526253 0
M  V30 9533 C 898.484 -1.47252 -1.28748 0
M  V30 9534 C 898.864 -0.186245 -2.10277 0
M  V30 9535 O 898.212 0.831954 -2.12816 0
M  V30 9536 C 898.422 -2.73672 -2.16575 0
M  V30 9537 C 899.77 -3.22151 -2.76593 0
M  V30 9538 O 900.794 -2.74614 -2.2686 0
M  V30 9539 O 899.653 -4.04877 -3.67066 0
M  V30 9540 H 896.747 -0.588242 -0.581292 0
M  V30 9541 H 899.293 -1.60792 -0.5426 0
M  V30 9542 H 898.065 -3.58798 -1.56139 0
M  V30 9543 H 897.688 -2.6287 -2.98304 0
M  V30 9544 N 898.685 0.775411 -1.37205 0
M  V30 9545 C 899.648 1.8702 -1.325 0
M  V30 9546 C 900.648 1.5915 -0.229793 0
M  V30 9547 O 901.838 1.673 -0.485423 0
M  V30 9548 C 898.97 3.24085 -1.05745 0
M  V30 9549 H 900.163 1.92604 -2.29878 0
M  V30 9550 H 897.716 0.97476 -1.22181 0
M  V30 9551 H 898.451 3.24178 -0.0888371 0
M  V30 9552 H 898.236 3.45705 -1.85016 0
M  V30 9553 H 899.726 4.0416 -1.05094 0
M  V30 9554 N 900.163 1.21714 1.00117 0
M  V30 9555 C 901.574 1.03477 1.55401 0
M  V30 9556 C 901.925 -0.40429 1.91989 0
M  V30 9557 O 901.05 -1.28807 1.7389 0
M  V30 9558 C 901.645 1.87213 2.82377 0
M  V30 9559 C 900.204 1.73297 3.34133 0
M  V30 9560 C 899.351 1.84189 2.07291 0
M  V30 9561 H 902.302 1.3568 0.823195 0
M  V30 9562 H 902.323 1.38465 3.54412 0
M  V30 9563 H 901.835 2.91944 2.55715 0
M  V30 9564 H 899.936 0.712662 3.65721 0
M  V30 9565 H 900.049 2.55486 4.05294 0
M  V30 9566 H 898.413 1.27538 2.20468 0
M  V30 9567 H 899.196 2.90435 1.83037 0
M  V30 9568 N 901.641 -1.19671 1.02551 0
M  V30 9569 C 902.881 -1.90971 0.728668 0
M  V30 9570 C 903.245 -1.7762 -0.729057 0
M  V30 9571 O 904.446 -2.43484 -1.13882 0
M  V30 9572 C 902.717 -3.3794 1.16323 0
M  V30 9573 S 904.276 -4.27493 0.989722 0
M  V30 9574 H 901.094 -0.659617 0.265381 0
M  V30 9575 H 903.696 -1.44698 1.31463 0
M  V30 9576 H 902.4 -3.45181 2.21986 0
M  V30 9577 H 901.931 -3.89243 0.570417 0
M  V30 9578 H 903.946 -4.96096 -0.101666 0
M  V30 9579 N 903.119 -0.802921 -1.35613 0
M  V30 9580 C 904.066 -0.20874 -2.29854 0
M  V30 9581 C 905.036 0.655128 -1.52634 0
M  V30 9582 O 906.221 0.600979 -1.81088 0
M  V30 9583 C 903.361 0.639663 -3.3912 0
M  V30 9584 C 902.474 -0.244234 -4.31309 0
M  V30 9585 C 901.609 0.611825 -5.27665 0
M  V30 9586 C 900.648 -0.272698 -6.11492 0
M  V30 9587 N 899.785 0.543122 -6.99996 0
M  V30 9588 H 904.625 -1.01782 -2.80079 0
M  V30 9589 H 902.162 -0.513465 -1.37848 0
M  V30 9590 H 904.12 1.14668 -4.01132 0
M  V30 9591 H 902.75 1.41404 -2.9018 0
M  V30 9592 H 901.802 -0.869322 -3.70334 0
M  V30 9593 H 903.114 -0.925202 -4.90144 0
M  V30 9594 H 902.268 1.18412 -5.95032 0
M  V30 9595 H 901.007 1.32637 -4.69317 0
M  V30 9596 H 900.012 -0.857287 -5.43075 0
M  V30 9597 H 901.237 -0.985051 -6.71918 0
M  V30 9598 H 899.183 1.24171 -6.44141 0
M  V30 9599 H 899.1 -0.0798767 -7.55958 0
M  V30 9600 H 900.368 1.09881 -7.71717 0
M  V30 9601 N 904.597 1.47463 -0.556102 0
M  V30 9602 C 905.846 2.01678 -0.029492 0
M  V30 9603 C 906.159 1.436 1.32809 0
M  V30 9604 O 907.365 1.89472 1.94455 0
M  V30 9605 C 905.821 3.599 -0.00223937 0
M  V30 9606 C 905.429 4.26969 -1.35651 0
M  V30 9607 C 907.173 4.2187 0.471822 0
M  V30 9608 C 905.08 5.77194 -1.28843 0
M  V30 9609 H 904.01 0.753965 -0.00725504 0
M  V30 9610 H 906.661 1.69467 -0.703789 0
M  V30 9611 H 905.043 3.89068 0.737682 0
M  V30 9612 H 906.217 4.09444 -2.11406 0
M  V30 9613 H 904.532 3.76983 -1.76842 0
M  V30 9614 H 907.129 5.31955 0.541139 0
M  V30 9615 H 907.472 3.88968 1.48356 0
M  V30 9616 H 908.005 3.97228 -0.213207 0
M  V30 9617 H 904.744 6.14713 -2.27613 0
M  V30 9618 H 904.264 5.9706 -0.572668 0
M  V30 9619 H 905.943 6.3938 -0.990031 0
M  V30 9620 N 906.075 0.2925 1.54862 0
M  V30 9621 C 907.486 -0.201841 1.85606 0
M  V30 9622 C 907.837 -1.54093 1.21449 0
M  V30 9623 O 906.962 -2.10327 0.509079 0
M  V30 9624 C 907.557 -0.373011 3.3674 0
M  V30 9625 C 906.116 -0.811574 3.67547 0
M  V30 9626 C 905.263 0.0850583 2.7717 0
M  V30 9627 H 908.214 0.513774 1.50153 0
M  V30 9628 H 908.235 -1.20892 3.60785 0
M  V30 9629 H 907.747 0.601751 3.83407 0
M  V30 9630 H 905.848 -1.79719 3.26392 0
M  V30 9631 H 905.961 -0.636853 4.74848 0
M  V30 9632 H 904.325 -0.434224 2.50971 0
M  V30 9633 H 905.108 1.05602 3.26654 0
M  V30 9634 N 907.553 -1.57587 0.0200696 0
M  V30 9635 C 908.8 -1.91424 -0.660525 0
M  V30 9636 C 909.128 -0.895626 -1.72652 0
M  V30 9637 O 908.383 0.096771 -1.95461 0
M  V30 9638 C 908.682 -3.32002 -1.32323 0
M  V30 9639 C 908.348 -4.49223 -0.388487 0
M  V30 9640 C 907.01 -4.81021 -0.131184 0
M  V30 9641 C 909.362 -5.20581 0.253906 0
M  V30 9642 C 906.69 -5.81539 0.776471 0
M  V30 9643 C 909.042 -6.22067 1.14956 0
M  V30 9644 C 907.706 -6.52311 1.41584 0
M  V30 9645 H 906.976 -0.700472 -0.241703 0
M  V30 9646 H 909.623 -1.91333 0.0798991 0
M  V30 9647 H 907.928 -3.28312 -2.13819 0
M  V30 9648 H 909.625 -3.5545 -1.85623 0
M  V30 9649 H 906.215 -4.24391 -0.599207 0
M  V30 9650 H 910.399 -4.96253 0.068164 0
M  V30 9651 H 905.655 -6.03322 0.990575 0
M  V30 9652 H 909.829 -6.76484 1.65357 0
M  V30 9653 H 907.456 -7.30017 2.12083 0
M  V30 9654 N 909.032 0.252966 -1.55557 0
M  V30 9655 C 910.257 1.0038 -1.8149 0
M  V30 9656 C 910.682 1.78397 -0.596318 0
M  V30 9657 O 910.04 1.7551 0.454535 0
M  V30 9658 C 910.088 1.9222 -3.05096 0
M  V30 9659 O 909.192 3.01302 -2.81587 0
M  V30 9660 H 908.533 0.285949 -0.599274 0
M  V30 9661 H 911.063 0.275795 -2.02733 0
M  V30 9662 H 911.073 2.338 -3.34368 0
M  V30 9663 H 909.748 1.34852 -3.93431 0
M  V30 9664 H 908.325 2.63894 -2.63466 0
M  V30 9665 N 910.51 1.48831 0.518367 0
M  V30 9666 C 911.738 1.6112 1.298 0
M  V30 9667 C 912.153 0.275872 1.86774 0
M  V30 9668 O 911.51 -0.736416 1.66983 0
M  V30 9669 C 911.561 2.66675 2.44063 0
M  V30 9670 O 911.282 3.95027 1.89434 0
M  V30 9671 C 912.783 2.8951 3.35706 0
M  V30 9672 H 910.003 0.542916 0.394314 0
M  V30 9673 H 912.547 1.94743 0.624142 0
M  V30 9674 H 910.702 2.35879 3.07311 0
M  V30 9675 H 911.116 4.53031 2.64316 0
M  V30 9676 H 912.59 3.67142 4.12202 0
M  V30 9677 H 913.067 1.98768 3.91648 0
M  V30 9678 H 913.673 3.21656 2.7824 0
M  V30 9679 N 911.988 -0.768124 1.37614 0
M  V30 9680 C 912.898 -1.91249 1.35871 0
M  V30 9681 C 913.914 -1.7208 0.257786 0
M  V30 9682 O 915.09 -1.95253 0.493782 0
M  V30 9683 C 912.155 -3.26423 1.16829 0
M  V30 9684 C 911.216 -3.5822 2.36594 0
M  V30 9685 C 910.449 -4.86945 2.1845 0
M  V30 9686 O 910.672 -5.58258 1.17064 0
M  V30 9687 O 909.606 -5.17888 3.06718 0
M  V30 9688 H 913.432 -1.95671 2.32264 0
M  V30 9689 H 911.017 -0.911382 1.18382 0
M  V30 9690 H 912.899 -4.07269 1.08212 0
M  V30 9691 H 911.574 -3.22845 0.235123 0
M  V30 9692 H 910.481 -2.77594 2.50783 0
M  V30 9693 H 911.814 -3.66545 3.2849 0
M  V30 9694 N 913.466 -1.22244 -0.994698 0
M  V30 9695 C 914.743 -0.954459 -1.70732 0
M  V30 9696 C 915.123 0.530945 -2.04314 0
M  V30 9697 O 914.471 1.49851 -1.72502 0
M  V30 9698 C 914.681 -1.85016 -2.95922 0
M  V30 9699 C 916.029 -2.10517 -3.68738 0
M  V30 9700 O 917.053 -1.82449 -3.05926 0
M  V30 9701 O 915.912 -2.58044 -4.81742 0
M  V30 9702 H 913.006 -0.35879 -0.745116 0
M  V30 9703 H 915.552 -1.33221 -1.0512 0
M  V30 9704 H 914.324 -2.85498 -2.67594 0
M  V30 9705 H 913.947 -1.47388 -3.69273 0
M  V30 9706 N 914.944 1.19125 -1.03184 0
M  V30 9707 C 916.192 1.8851 -0.728587 0
M  V30 9708 C 916.513 1.80195 0.74531 0
M  V30 9709 O 915.783 1.21437 1.5372 0
M  V30 9710 H 914.363 0.69784 -0.266511 0
M  V30 9711 H 917.025 1.44607 -1.3067 0
M  V30 9712 H 916.121 2.9477 -1.02554 0
M  V30 9713 N 916.422 0.810101 1.35185 0
M  V30 9714 C 917.354 0.180581 2.28488 0
M  V30 9715 C 918.367 -0.622154 1.50443 0
M  V30 9716 O 919.556 -0.453938 1.72632 0
M  V30 9717 C 916.656 -0.766447 3.30119 0
M  V30 9718 C 915.829 -0.00932028 4.37399 0
M  V30 9719 C 914.888 -0.875354 5.18868 0
M  V30 9720 O 913.914 -0.325012 5.68271 0
M  V30 9721 N 915.116 -2.19695 5.37321 0
M  V30 9722 H 917.881 0.98212 2.83151 0
M  V30 9723 H 915.442 0.665879 1.47573 0
M  V30 9724 H 917.434 -1.35012 3.81515 0
M  V30 9725 H 916.004 -1.46878 2.75945 0
M  V30 9726 H 915.224 0.755585 3.86891 0
M  V30 9727 H 916.512 0.512352 5.06214 0
M  V30 9728 H 915.91 -2.66797 4.98834 0
M  V30 9729 H 914.467 -2.72978 5.91884 0
M  V30 9730 N 917.9 -1.47166 0.563914 0
M  V30 9731 C 919.148 -2.02056 0.0422873 0
M  V30 9732 C 919.469 -1.43992 -1.31497 0
M  V30 9733 O 918.739 -0.617578 -1.85911 0
M  V30 9734 H 917.319 -0.746893 0.0126427 0
M  V30 9735 H 919.981 -1.80492 0.735441 0
M  V30 9736 H 919.077 -3.12073 -0.0408044 0
M  V30 9737 N 919.378 -0.300708 -1.54705 0
M  V30 9738 C 920.325 0.57552 -2.23509 0
M  V30 9739 C 921.295 1.12979 -1.21758 0
M  V30 9740 O 922.48 1.17437 -1.50377 0
M  V30 9741 C 919.62 1.74167 -2.97926 0
M  V30 9742 C 918.733 1.21882 -4.1445 0
M  V30 9743 C 917.868 2.34881 -4.7645 0
M  V30 9744 C 916.907 1.79729 -5.85119 0
M  V30 9745 N 916.044 2.863 -6.41075 0
M  V30 9746 H 920.884 -0.0178257 -2.97995 0
M  V30 9747 H 918.421 -0.0205666 -1.47086 0
M  V30 9748 H 920.379 2.42753 -3.39303 0
M  V30 9749 H 919.009 2.30665 -2.25817 0
M  V30 9750 H 918.061 0.425227 -3.78016 0
M  V30 9751 H 919.373 0.775065 -4.92741 0
M  V30 9752 H 918.527 3.11415 -5.20678 0
M  V30 9753 H 917.266 2.82584 -3.97489 0
M  V30 9754 H 916.271 1.01684 -5.40315 0
M  V30 9755 H 917.496 1.32931 -6.65963 0
M  V30 9756 H 915.442 3.33337 -5.64998 0
M  V30 9757 H 915.359 2.46419 -7.14712 0
M  V30 9758 H 916.627 3.62732 -6.89961 0
M  V30 9759 N 920.856 1.57574 -0.0284266 0
M  V30 9760 C 921.819 2.09096 0.938691 0
M  V30 9761 C 922.819 1.00588 1.25454 0
M  V30 9762 O 924.009 1.2675 1.19499 0
M  V30 9763 C 921.141 2.55624 2.25542 0
M  V30 9764 H 922.334 2.95829 0.49248 0
M  V30 9765 H 919.887 1.5475 0.219594 0
M  V30 9766 H 920.622 1.72218 2.74793 0
M  V30 9767 H 920.407 3.34896 2.03929 0
M  V30 9768 H 921.897 2.95712 2.94863 0
M  V30 9769 N 922.334 -0.244713 1.55689 0
M  V30 9770 C 923.284 -1.30596 1.86892 0
M  V30 9771 C 924.268 -1.43388 0.729972 0
M  V30 9772 O 925.46 -1.46593 0.99194 0
M  V30 9773 C 922.589 -2.66099 2.16902 0
M  V30 9774 C 921.675 -2.57302 3.37129 0
M  V30 9775 N 922.066 -2.18139 4.56343 0
M  V30 9776 C 920.364 -2.88311 3.40283 0
M  V30 9777 C 921.065 -2.20028 5.38482 0
M  V30 9778 N 920.041 -2.59616 4.77599 0
M  V30 9779 H 923.843 -0.993699 2.76591 0
M  V30 9780 H 921.357 -0.453334 1.55944 0
M  V30 9781 H 923.354 -3.4269 2.37422 0
M  V30 9782 H 922.014 -2.9819 1.28502 0
M  V30 9783 H 923.025 -1.89647 4.81928 0
M  V30 9784 H 919.702 -3.24928 2.62161 0
M  V30 9785 H 921.092 -1.9207 6.43862 0
M  V30 9786 N 923.813 -1.49104 -0.510467 0
M  V30 9787 C 924.761 -1.65547 -1.63392 0
M  V30 9788 C 925.755 -0.521522 -1.61172 0
M  V30 9789 O 926.961 -0.700865 -1.65795 0
M  V30 9790 H 923.336 -0.521843 -0.541464 0
M  V30 9791 H 925.307 -2.59864 -1.46673 0
M  V30 9792 C 924.056 -1.73051 -3.01577 0
M  V30 9793 H 923.379 -2.59676 -3.03987 0
M  V30 9794 H 924.819 -1.88594 -3.79748 0
M  V30 9795 C 923.278 -0.47328 -3.33559 0
M  V30 9796 O 923.808 0.405239 -3.99651 0
M  V30 9797 N 922.014 -0.339074 -2.88615 0
M  V30 9798 H 921.561 -1.05497 -2.35007 0
M  V30 9799 H 921.519 0.501061 -3.10382 0
M  V30 9800 N 925.291 0.760815 -1.38019 0
M  V30 9801 C 926.539 1.51673 -1.33566 0
M  V30 9802 C 926.86 1.94852 0.076024 0
M  V30 9803 O 926.13 1.67112 1.02227 0
M  V30 9804 H 924.71 0.562581 -0.491438 0
M  V30 9805 H 927.372 0.904832 -1.72623 0
M  V30 9806 H 926.468 2.41102 -1.98182 0
M  V30 9807 N 926.769 1.22769 0.988202 0
M  V30 9808 C 928.185 0.988665 1.2529 0
M  V30 9809 C 928.385 -0.314938 1.99024 0
M  V30 9810 O 927.441 -1.03637 2.30251 0
M  V30 9811 C 928.754 2.19046 2.06009 0
M  V30 9812 C 930.302 2.23452 2.19176 0
M  V30 9813 C 930.777 3.43196 3.03283 0
M  V30 9814 N 932.268 3.43387 3.10869 0
M  V30 9815 C 933.003 4.32693 3.7625 0
M  V30 9816 N 932.499 5.32224 4.43519 0
M  V30 9817 N 934.292 4.20457 3.73058 0
M  V30 9818 H 926.443 2.06575 0.494014 0
M  V30 9819 H 928.706 0.905452 0.28082 0
M  V30 9820 H 928.412 3.13607 1.59197 0
M  V30 9821 H 928.286 2.19492 3.06763 0
M  V30 9822 H 930.673 1.29436 2.65199 0
M  V30 9823 H 930.754 2.27042 1.17836 0
M  V30 9824 H 930.398 4.37515 2.57959 0
M  V30 9825 H 930.328 3.36847 4.04774 0
M  V30 9826 H 932.819 2.71368 2.62998 0
M  V30 9827 H 933.132 5.9664 4.91163 0
M  V30 9828 H 931.477 5.36133 4.42252 0
M  V30 9829 H 934.668 3.41949 3.19669 0
M  V30 9830 H 934.841 4.90261 4.23731 0
M  V30 9831 N 928.247 -1.18576 1.03814 0
M  V30 9832 C 929.177 -2.24334 0.647795 0
M  V30 9833 C 930.158 -1.66508 -0.34774 0
M  V30 9834 O 931.343 -1.92852 -0.228401 0
M  V30 9835 C 928.473 -3.47299 0.00734922 0
M  V30 9836 C 927.427 -4.17859 0.926152 0
M  V30 9837 C 926.753 -5.34489 0.150317 0
M  V30 9838 C 928.053 -4.71632 2.24411 0
M  V30 9839 H 929.747 -2.57241 1.53191 0
M  V30 9840 H 927.293 -1.23649 0.738028 0
M  V30 9841 H 929.246 -4.20486 -0.277434 0
M  V30 9842 H 927.97 -3.13619 -0.911626 0
M  V30 9843 H 926.629 -3.46567 1.19528 0
M  V30 9844 H 926.277 -4.97056 -0.770985 0
M  V30 9845 H 925.977 -5.82633 0.762407 0
M  V30 9846 H 927.501 -6.10467 -0.127508 0
M  V30 9847 H 928.915 -5.36526 2.02021 0
M  V30 9848 H 927.312 -5.303 2.80894 0
M  V30 9849 H 928.382 -3.89192 2.89236 0
M  V30 9850 N 929.725 -0.817259 -1.34754 0
M  V30 9851 C 930.974 -0.39908 -1.97713 0
M  V30 9852 C 931.287 1.04203 -1.65533 0
M  V30 9853 O 932.493 1.56384 -2.21937 0
M  V30 9854 C 930.949 -0.662634 -3.53747 0
M  V30 9855 C 930.557 -2.11699 -3.94826 0
M  V30 9856 C 932.301 -0.31034 -4.23364 0
M  V30 9857 C 930.208 -2.32573 -5.4375 0
M  V30 9858 H 929.138 -0.145488 -0.739831 0
M  V30 9859 H 931.789 -1.00282 -1.53674 0
M  V30 9860 H 930.171 0.0111972 -3.95998 0
M  V30 9861 H 931.345 -2.82951 -3.63697 0
M  V30 9862 H 929.66 -2.43017 -3.3813 0
M  V30 9863 H 932.257 -0.44421 -5.32852 0
M  V30 9864 H 932.6 0.744594 -4.09587 0
M  V30 9865 H 933.133 -0.938518 -3.8657 0
M  V30 9866 H 929.872 -3.36551 -5.62507 0
M  V30 9867 H 929.392 -1.65858 -5.76412 0
M  V30 9868 H 931.071 -2.14651 -6.10356 0
M  V30 9869 N 931.203 1.46865 -0.571711 0
M  V30 9870 C 932.431 2.06818 -0.0583975 0
M  V30 9871 C 932.846 1.42218 1.24175 0
M  V30 9872 O 932.203 0.523655 1.74826 0
M  V30 9873 C 932.254 3.61281 0.125673 0
M  V30 9874 O 931.975 4.23462 -1.123 0
M  V30 9875 C 933.476 4.38137 0.674604 0
M  V30 9876 H 930.696 0.668948 -0.052438 0
M  V30 9877 H 933.24 1.88656 -0.789251 0
M  V30 9878 H 931.395 3.78908 0.806707 0
M  V30 9879 H 931.809 5.16192 -0.929869 0
M  V30 9880 H 933.283 5.46845 0.752626 0
M  V30 9881 H 933.76 4.05419 1.68915 0
M  V30 9882 H 934.366 4.2529 0.0287979 0
M  V30 9883 N 932.681 0.308908 1.54543 0
M  V30 9884 C 933.644 -0.550857 2.22482 0
M  V30 9885 C 934.644 -1.0551 1.21344 0
M  V30 9886 O 935.834 -0.949866 1.46025 0
M  V30 9887 C 932.966 -1.76354 2.9174 0
M  V30 9888 H 934.159 0.0428395 2.99869 0
M  V30 9889 H 931.712 0.059825 1.56185 0
M  V30 9890 H 932.447 -2.39686 2.18451 0
M  V30 9891 H 932.232 -1.40954 3.65889 0
M  V30 9892 H 933.722 -2.37417 3.43545 0
M  V30 9893 N 934.159 -1.57557 0.0367827 0
M  V30 9894 C 935.107 -2.11844 -0.960454 0
M  V30 9895 C 936.101 -1.04681 -1.33185 0
M  V30 9896 O 937.307 -1.23108 -1.31318 0
M  V30 9897 H 933.682 -0.676921 -0.32754 0
M  V30 9898 H 935.653 -2.94557 -0.477346 0
M  V30 9899 C 934.402 -2.66683 -2.23105 0
M  V30 9900 H 933.725 -3.48795 -1.95403 0
M  V30 9901 H 935.165 -3.08305 -2.91074 0
M  V30 9902 C 933.624 -1.59782 -2.96599 0
M  V30 9903 O 934.154 -1.00214 -3.88999 0
M  V30 9904 N 932.36 -1.31644 -2.59072 0
M  V30 9905 H 931.907 -1.80272 -1.8401 0
M  V30 9906 H 931.865 -0.603457 -3.08554 0
M  V30 9907 N 935.637 0.236453 -1.55816 0
M  V30 9908 C 937.048 0.80468 -1.68469 0
M  V30 9909 C 937.399 1.85601 -0.636133 0
M  V30 9910 O 936.524 2.15323 0.215622 0
M  V30 9911 C 937.119 1.46634 -3.05424 0
M  V30 9912 C 935.678 1.98214 -3.19981 0
M  V30 9913 C 934.825 0.83695 -2.64368 0
M  V30 9914 H 937.776 0.0120647 -1.58695 0
M  V30 9915 H 937.797 2.33472 -3.00451 0
M  V30 9916 H 937.309 0.700931 -3.81718 0
M  V30 9917 H 935.41 2.77604 -2.4853 0
M  V30 9918 H 935.523 2.17235 -4.2702 0
M  V30 9919 H 933.887 1.24028 -2.22462 0
M  V30 9920 H 934.67 0.084451 -3.43196 0
M  V30 9921 N 937.115 1.49373 0.502552 0
M  V30 9922 C 938.361 1.59016 1.25864 0
M  V30 9923 C 938.694 0.27532 1.92238 0
M  V30 9924 O 937.969 -0.720988 1.80643 0
M  V30 9925 C 938.252 2.74828 2.32683 0
M  V30 9926 C 938.105 4.16102 1.7082 0
M  V30 9927 C 939.424 2.86288 3.34256 0
M  V30 9928 H 936.543 0.578798 0.456248 0
M  V30 9929 H 939.185 1.81651 0.557032 0
M  V30 9930 H 937.335 2.5566 2.92524 0
M  V30 9931 H 939.007 4.46782 1.14818 0
M  V30 9932 H 937.25 4.21822 1.01238 0
M  V30 9933 H 937.921 4.93006 2.48292 0
M  V30 9934 H 940.397 3.03733 2.84404 0
M  V30 9935 H 939.273 3.69001 4.06362 0
M  V30 9936 H 939.534 1.95576 3.96488 0
M  V30 9937 N 938.594 -0.753485 1.38421 0
M  V30 9938 C 939.84 -1.51485 1.34834 0
M  V30 9939 C 940.173 -1.94102 -0.0615381 0
M  V30 9940 O 939.448 -1.65439 -1.02274 0
M  V30 9941 C 939.731 -2.76736 2.30411 0
M  V30 9942 C 939.584 -2.40256 3.80259 0
M  V30 9943 C 940.903 -3.7876 2.24119 0
M  V30 9944 H 938.022 -0.549534 0.491102 0
M  V30 9945 H 940.664 -0.863006 1.6927 0
M  V30 9946 H 938.814 -3.32357 2.01175 0
M  V30 9947 H 940.486 -1.90409 4.20169 0
M  V30 9948 H 938.729 -1.72714 3.97935 0
M  V30 9949 H 939.4 -3.29869 4.42595 0
M  V30 9950 H 941.876 -3.32679 2.49928 0
M  V30 9951 H 940.752 -4.64092 2.93104 0
M  V30 9952 H 941.013 -4.24352 1.24006 0
M  V30 9953 N 940.072 -1.23292 -0.981677 0
M  V30 9954 C 941.3 -1.09088 -1.75805 0
M  V30 9955 C 941.715 0.357746 -1.8538 0
M  V30 9956 O 941.072 1.24751 -1.33205 0
M  V30 9957 C 941.123 -1.70885 -3.1856 0
M  V30 9958 O 940.844 -3.10082 -3.09484 0
M  V30 9959 C 942.345 -1.62106 -4.12597 0
M  V30 9960 H 939.565 -0.38184 -0.55176 0
M  V30 9961 H 942.109 -1.63116 -1.23342 0
M  V30 9962 H 940.264 -1.20893 -3.68054 0
M  V30 9963 H 940.678 -3.40039 -3.99342 0
M  V30 9964 H 942.152 -2.10049 -5.10474 0
M  V30 9965 H 942.629 -0.579642 -4.35358 0
M  V30 9966 H 943.235 -2.11457 -3.69007 0
M  V30 9967 N 941.55 1.18024 -1.04442 0
M  V30 9968 C 942.497 2.21785 -0.638759 0
M  V30 9969 C 943.467 1.62255 0.355312 0
M  V30 9970 O 944.652 1.89176 0.24844 0
M  V30 9971 C 941.792 3.45098 -0.0118002 0
M  V30 9972 C 940.905 4.1895 -1.05379 0
M  V30 9973 C 940.04 5.2973 -0.394951 0
M  V30 9974 C 939.079 5.95359 -1.42178 0
M  V30 9975 N 938.216 6.97668 -0.787635 0
M  V30 9976 H 943.056 2.55839 -1.52808 0
M  V30 9977 H 940.593 1.25681 -0.764378 0
M  V30 9978 H 942.551 4.15564 0.369075 0
M  V30 9979 H 941.181 3.11652 0.84102 0
M  V30 9980 H 940.233 3.47274 -1.55258 0
M  V30 9981 H 941.545 4.63877 -1.83355 0
M  V30 9982 H 940.699 6.06687 0.0399244 0
M  V30 9983 H 939.438 4.85915 0.416867 0
M  V30 9984 H 938.443 5.17139 -1.86675 0
M  V30 9985 H 939.668 6.41255 -2.23536 0
M  V30 9986 H 937.614 6.56 0.00380893 0
M  V30 9987 H 937.531 7.40867 -1.50505 0
M  V30 9988 H 938.799 7.78586 -0.377282 0
M  V30 9989 N 943.028 0.824394 1.34319 0
M  V30 9990 C 943.975 0.245282 2.29493 0
M  V30 9991 C 944.945 -0.630762 1.53657 0
M  V30 9992 O 946.13 -0.572094 1.82021 0
M  V30 9993 C 943.27 -0.585631 3.40095 0
M  V30 9994 C 942.383 0.312821 4.30866 0
M  V30 9995 C 941.518 -0.527801 5.28571 0
M  V30 9996 C 940.557 0.369946 6.10981 0
M  V30 9997 N 939.694 -0.43169 7.00772 0
M  V30 9998 H 944.534 1.06225 2.78425 0
M  V30 9999 H 942.071 0.53533 1.37013 0
M  V30 10000 H 944.029 -1.08271 4.02906 0
M  V30 10001 H 942.659 -1.3677 2.92393 0
M  V30 10002 H 941.711 0.928129 3.68904 0
M  V30 10003 H 943.023 1.00306 4.8861 0
M  V30 10004 H 942.177 -1.0893 5.96841 0
M  V30 10005 H 940.916 -1.25154 4.71368 0
M  V30 10006 H 939.921 0.943577 5.41643 0
M  V30 10007 H 941.146 1.09182 6.70266 0
M  V30 10008 H 939.092 -1.13908 6.46035 0
M  V30 10009 H 939.009 0.200133 7.55735 0
M  V30 10010 H 940.277 -0.975894 7.73367 0
M  V30 10011 N 944.506 -1.46559 0.579492 0
M  V30 10012 C 945.416 -2.34066 -0.15816 0
M  V30 10013 C 946.432 -1.49556 -0.88932 0
M  V30 10014 O 947.608 -1.82434 -0.853226 0
M  V30 10015 C 944.673 -3.26683 -1.161 0
M  V30 10016 C 943.734 -4.27092 -0.434855 0
M  V30 10017 C 942.967 -5.15283 -1.38992 0
M  V30 10018 O 943.19 -5.06345 -2.62623 0
M  V30 10019 O 942.124 -5.95099 -0.902253 0
M  V30 10020 H 945.95 -2.98488 0.560234 0
M  V30 10021 H 943.535 -1.45482 0.339918 0
M  V30 10022 H 945.417 -3.8383 -1.73932 0
M  V30 10023 H 944.092 -2.64862 -1.86091 0
M  V30 10024 H 942.999 -3.73641 0.185224 0
M  V30 10025 H 944.332 -4.9169 0.224031 0
M  V30 10026 N 945.984 -0.3171 -1.54377 0
M  V30 10027 C 946.894 0.560867 -2.27797 0
M  V30 10028 C 947.91 1.13473 -1.31908 0
M  V30 10029 O 949.086 1.15608 -1.64914 0
M  V30 10030 C 946.151 1.70886 -3.0166 0
M  V30 10031 C 945.212 1.16745 -4.13121 0
M  V30 10032 C 944.445 2.26073 -4.83453 0
M  V30 10033 O 944.668 3.46292 -4.53252 0
M  V30 10034 O 943.602 1.91856 -5.70504 0
M  V30 10035 H 947.428 -0.035193 -3.0368 0
M  V30 10036 H 945.013 -0.0830062 -1.49169 0
M  V30 10037 H 946.895 2.37736 -3.47936 0
M  V30 10038 H 945.57 2.29122 -2.28658 0
M  V30 10039 H 944.477 0.464224 -3.71209 0
M  V30 10040 H 945.81 0.630307 -4.88147 0
M  V30 10041 N 947.462 1.57535 -0.0451378 0
M  V30 10042 C 948.873 1.80116 0.491426 0
M  V30 10043 C 949.224 0.956846 1.71286 0
M  V30 10044 O 948.349 0.17173 2.15718 0
M  V30 10045 C 948.944 3.26674 0.898315 0
M  V30 10046 C 947.503 3.50194 1.37989 0
M  V30 10047 C 946.65 2.75054 0.352202 0
M  V30 10048 H 949.601 1.56368 -0.271065 0
M  V30 10049 H 949.622 3.37263 1.76164 0
M  V30 10050 H 949.134 3.88099 0.009141 0
M  V30 10051 H 947.235 2.94041 2.28846 0
M  V30 10052 H 947.348 4.58909 1.37622 0
M  V30 10053 H 945.712 2.4101 0.823784 0
M  V30 10054 H 946.495 3.39203 -0.528782 0
M  V30 10055 N 948.94 -0.228186 1.55939 0
M  V30 10056 C 950.186 -0.954964 1.78909 0
M  V30 10057 C 950.519 -1.8425 0.613648 0
M  V30 10058 O 949.794 -1.90604 -0.38737 0
M  V30 10059 C 950.077 -1.79957 3.1191 0
M  V30 10060 C 949.93 -0.938968 4.3989 0
M  V30 10061 C 951.249 -2.77859 3.41295 0
M  V30 10062 H 948.368 -0.345745 0.650868 0
M  V30 10063 H 951.01 -0.224244 1.88672 0
M  V30 10064 H 949.16 -2.42256 3.03717 0
M  V30 10065 H 950.832 -0.333225 4.60095 0
M  V30 10066 H 949.075 -0.244096 4.33113 0
M  V30 10067 H 949.746 -1.56416 5.29375 0
M  V30 10068 H 952.222 -2.25695 3.49572 0
M  V30 10069 H 951.098 -3.34062 4.35538 0
M  V30 10070 H 951.359 -3.55266 2.63132 0
M  V30 10071 N 950.418 -1.49637 -0.494624 0
M  V30 10072 C 951.366 -1.6727 -1.61627 0
M  V30 10073 C 952.36 -0.538587 -1.6061 0
M  V30 10074 O 953.566 -0.718411 -1.65042 0
M  V30 10075 H 949.941 -0.527557 -0.535899 0
M  V30 10076 H 951.912 -2.61405 -1.43909 0
M  V30 10077 C 950.661 -1.7624 -2.99725 0
M  V30 10078 H 949.984 -2.62886 -3.01216 0
M  V30 10079 H 951.424 -1.92611 -3.77726 0
M  V30 10080 C 949.883 -0.508632 -3.33038 0
M  V30 10081 O 950.413 0.362828 -4.00058 0
M  V30 10082 N 948.619 -0.369667 -2.88239 0
M  V30 10083 H 948.166 -1.07984 -2.33875 0
M  V30 10084 H 948.124 0.468112 -3.10896 0
M  V30 10085 N 951.896 0.746133 -1.38819 0
M  V30 10086 C 953.145 1.50085 -1.34749 0
M  V30 10087 C 953.458 1.95516 0.0574786 0
M  V30 10088 O 954.664 2.70601 0.22073 0
M  V30 10089 C 953.12 2.71141 -2.36665 0
M  V30 10090 C 952.728 2.32706 -3.82821 0
M  V30 10091 C 954.472 3.49005 -2.41652 0
M  V30 10092 C 952.379 3.50418 -4.76405 0
M  V30 10093 H 951.309 0.563563 -0.500912 0
M  V30 10094 H 953.96 0.814951 -1.6441 0
M  V30 10095 H 952.342 3.4175 -2.00058 0
M  V30 10096 H 953.516 1.69715 -4.28408 0
M  V30 10097 H 951.831 1.67959 -3.81023 0
M  V30 10098 H 954.428 4.36541 -3.08766 0
M  V30 10099 H 954.771 3.90687 -1.43769 0
M  V30 10100 H 955.304 2.85416 -2.77097 0
M  V30 10101 H 952.043 3.13795 -5.75511 0
M  V30 10102 H 951.563 4.12426 -4.35505 0
M  V30 10103 H 953.242 4.16901 -4.94775 0
M  V30 10104 N 953.375 1.23811 0.975125 0
M  V30 10105 C 954.285 1.0408 2.10249 0
M  V30 10106 C 955.301 -0.0162404 1.73992 0
M  V30 10107 O 956.477 0.180346 2.00591 0
M  V30 10108 C 953.542 0.640013 3.40741 0
M  V30 10109 C 952.603 1.7727 3.90991 0
M  V30 10110 C 951.836 1.39094 5.15256 0
M  V30 10111 O 952.059 0.277483 5.69725 0
M  V30 10112 O 950.993 2.21392 5.59704 0
M  V30 10113 H 954.819 1.98575 2.29786 0
M  V30 10114 H 952.404 1.02563 1.08633 0
M  V30 10115 H 954.286 0.427684 4.19224 0
M  V30 10116 H 952.961 -0.27589 3.22522 0
M  V30 10117 H 951.868 2.03971 3.13602 0
M  V30 10118 H 953.201 2.66711 4.13674 0
M  V30 10119 N 954.853 -1.17469 1.05066 0
M  V30 10120 C 955.816 -2.19648 0.654793 0
M  V30 10121 C 956.816 -1.58107 -0.293063 0
M  V30 10122 O 958.006 -1.74029 -0.077106 0
M  V30 10123 C 955.138 -3.40878 -0.0384437 0
M  V30 10124 H 956.331 -2.56184 1.55915 0
M  V30 10125 H 953.884 -1.31528 0.844396 0
M  V30 10126 H 954.619 -3.09885 -0.956133 0
M  V30 10127 H 954.404 -3.86792 0.642961 0
M  V30 10128 H 955.894 -4.1651 -0.301568 0
M  V30 10129 N 956.331 -0.831506 -1.3388 0
M  V30 10130 C 957.241 -0.261688 -2.33136 0
M  V30 10131 C 958.257 0.608429 -1.63016 0
M  V30 10132 O 959.433 0.514297 -1.94723 0
M  V30 10133 C 956.498 0.559957 -3.42148 0
M  V30 10134 C 955.559 -0.333569 -4.28002 0
M  V30 10135 C 954.792 0.448956 -5.31808 0
M  V30 10136 O 955.015 1.6814 -5.45055 0
M  V30 10137 O 953.949 -0.173197 -6.01651 0
M  V30 10138 H 957.775 -1.08343 -2.83717 0
M  V30 10139 H 955.36 -0.593849 -1.3709 0
M  V30 10140 H 957.242 1.02712 -4.08691 0
M  V30 10141 H 955.917 1.35888 -2.93796 0
M  V30 10142 H 954.824 -0.848416 -3.64352 0
M  V30 10143 H 956.157 -1.09707 -4.79818 0
M  V30 10144 N 957.809 1.4625 -0.587256 0
M  V30 10145 C 959.22 1.85997 -0.161918 0
M  V30 10146 C 959.571 1.49025 1.27616 0
M  V30 10147 O 958.696 0.907282 1.96462 0
M  V30 10148 C 959.291 3.37582 -0.287077 0
M  V30 10149 C 957.85 3.76308 0.0834211 0
M  V30 10150 C 956.997 2.70259 -0.620932 0
M  V30 10151 H 959.948 1.3734 -0.795199 0
M  V30 10152 H 959.969 3.77379 0.486333 0
M  V30 10153 H 959.481 3.64459 -1.33383 0
M  V30 10154 H 957.582 3.55047 1.13013 0
M  V30 10155 H 957.695 4.78184 -0.296064 0
M  V30 10156 H 956.059 2.54628 -0.0607027 0
M  V30 10157 H 956.842 2.99975 -1.66942 0
M  V30 10158 N 959.287 0.325282 1.54207 0
M  V30 10159 C 960.698 -0.162426 1.85992 0
M  V30 10160 C 961.049 -1.51482 1.2469 0
M  V30 10161 O 960.174 -2.092 0.553578 0
M  V30 10162 C 960.769 -0.3015 3.37456 0
M  V30 10163 C 959.328 -0.73343 3.69185 0
M  V30 10164 C 958.475 0.143831 2.76927 0
M  V30 10165 H 961.426 0.545508 1.4903 0
M  V30 10166 H 961.447 -1.13212 3.63268 0
M  V30 10167 H 960.959 0.682942 3.82044 0
M  V30 10168 H 959.06 -1.72755 3.30131 0
M  V30 10169 H 959.173 -0.535987 4.76092 0
M  V30 10170 H 957.537 -0.380892 2.51836 0
M  V30 10171 H 958.32 1.12507 3.24341 0
M  V30 10172 N 960.765 -1.57509 0.0534917 0
M  V30 10173 C 962.012 -1.92782 -0.619772 0
M  V30 10174 C 962.34 -0.932046 -1.70714 0
M  V30 10175 O 961.595 0.0552891 -1.95622 0
M  V30 10176 C 961.894 -3.34734 -1.25251 0
M  V30 10177 C 961.56 -4.49946 -0.293113 0
M  V30 10178 C 960.222 -4.81191 -0.0291223 0
M  V30 10179 C 962.574 -5.19925 0.364271 0
M  V30 10180 C 959.902 -5.79761 0.899649 0
M  V30 10181 C 962.254 -6.19489 1.28125 0
M  V30 10182 C 960.918 -6.49161 1.55389 0
M  V30 10183 H 960.188 -0.705441 -0.226791 0
M  V30 10184 H 962.835 -1.91121 0.120466 0
M  V30 10185 H 961.14 -3.32774 -2.06807 0
M  V30 10186 H 962.837 -3.59308 -1.78042 0
M  V30 10187 H 959.427 -4.25566 -0.509053 0
M  V30 10188 H 963.611 -4.95997 0.173411 0
M  V30 10189 H 958.867 -6.01085 1.11833 0
M  V30 10190 H 963.041 -6.72824 1.79669 0
M  V30 10191 H 960.668 -7.25354 2.2752 0
M  V30 10192 N 962.243 0.219913 -1.56058 0
M  V30 10193 C 963.491 0.942199 -1.78793 0
M  V30 10194 C 963.812 1.84804 -0.622284 0
M  V30 10195 O 963.082 1.9255 0.360735 0
M  V30 10196 H 961.662 0.350895 -0.659455 0
M  V30 10197 H 964.324 0.231376 -1.93522 0
M  V30 10198 H 963.42 1.54804 -2.71002 0
M  V30 10199 N 963.721 1.49897 0.486681 0
M  V30 10200 C 964.631 1.70379 1.6127 0
M  V30 10201 C 965.647 0.58659 1.63814 0
M  V30 10202 O 966.823 0.863044 1.81971 0
M  V30 10203 C 963.888 1.77911 2.97571 0
M  V30 10204 C 962.949 3.01569 3.0554 0
M  V30 10205 C 962.182 3.08732 4.35339 0
M  V30 10206 O 962.405 2.23099 5.2496 0
M  V30 10207 O 961.339 4.01325 4.48578 0
M  V30 10208 H 965.165 2.65799 1.46916 0
M  V30 10209 H 962.75 1.33808 0.664516 0
M  V30 10210 H 964.632 1.85135 3.78554 0
M  V30 10211 H 963.307 0.856722 3.12157 0
M  V30 10212 H 962.214 2.99854 2.23693 0
M  V30 10213 H 963.547 3.93335 2.95886 0
M  V30 10214 N 965.199 -0.738761 1.39212 0
M  V30 10215 C 966.424 -1.5331 1.39681 0
M  V30 10216 C 966.849 -1.88098 -0.00768715 0
M  V30 10217 O 966.207 -1.51642 -0.993699 0
M  V30 10218 C 966.255 -2.79958 2.27279 0
M  V30 10219 O 965.359 -3.75727 1.70008 0
M  V30 10220 H 964.7 -0.463131 0.475821 0
M  V30 10221 H 967.23 -0.911768 1.83161 0
M  V30 10222 H 967.24 -3.28732 2.41659 0
M  V30 10223 H 965.915 -2.5397 3.29351 0
M  V30 10224 H 964.492 -3.34483 1.64851 0
M  V30 10225 N 966.677 -1.24326 -0.968545 0
M  V30 10226 C 967.625 -1.03256 -2.08425 0
M  V30 10227 C 968.619 0.0322356 -1.69369 0
M  V30 10228 O 969.825 -0.122251 -1.79584 0
M  V30 10229 H 966.2 -0.31688 -0.681976 0
M  V30 10230 H 968.171 -1.97873 -2.23358 0
M  V30 10231 C 966.92 -0.653144 -3.4151 0
M  V30 10232 H 966.243 -1.46424 -3.72021 0
M  V30 10233 H 967.683 -0.545316 -4.20479 0
M  V30 10234 C 966.142 0.639674 -3.30771 0
M  V30 10235 O 966.672 1.68563 -3.64622 0
M  V30 10236 N 964.878 0.620074 -2.83907 0
M  V30 10237 H 964.425 -0.231449 -2.56558 0
M  V30 10238 H 964.383 1.48528 -2.77104 0
M  V30 10239 N 968.156 1.1691 -1.05688 0
M  V30 10240 C 969.405 1.86629 -0.765022 0
M  V30 10241 C 969.718 1.82223 0.710918 0
M  V30 10242 O 970.924 2.47462 1.11691 0
M  V30 10243 C 969.38 3.34886 -1.3183 0
M  V30 10244 C 968.988 3.47781 -2.82404 0
M  V30 10245 C 970.732 4.099 -1.10372 0
M  V30 10246 C 968.639 4.9009 -3.31008 0
M  V30 10247 H 967.569 0.699082 -0.282491 0
M  V30 10248 H 970.22 1.31989 -1.27481 0
M  V30 10249 H 968.602 3.89094 -0.736312 0
M  V30 10250 H 969.776 3.03765 -3.46502 0
M  V30 10251 H 968.091 2.86193 -3.02461 0
M  V30 10252 H 970.688 5.14894 -1.4418 0
M  V30 10253 H 971.031 4.16279 -0.0417372 0
M  V30 10254 H 971.564 3.61913 -1.65117 0
M  V30 10255 H 968.303 4.88887 -4.36657 0
M  V30 10256 H 967.823 5.34756 -2.71655 0
M  V30 10257 H 969.502 5.58881 -3.25977 0
M  V30 10258 N 969.634 0.838594 1.33437 0
M  V30 10259 C 970.88 0.434813 1.98084 0
M  V30 10260 C 971.213 -1.00331 1.66275 0
M  V30 10261 O 970.488 -1.70139 0.942501 0
M  V30 10262 C 970.771 0.655602 3.54082 0
M  V30 10263 C 970.624 2.14097 3.95578 0
M  V30 10264 C 971.943 0.101576 4.39983 0
M  V30 10265 H 969.062 0.159456 0.719544 0
M  V30 10266 H 971.704 1.05406 1.58081 0
M  V30 10267 H 969.854 0.128501 3.88287 0
M  V30 10268 H 971.526 2.73292 3.71631 0
M  V30 10269 H 969.769 2.62558 3.4532 0
M  V30 10270 H 970.44 2.24621 5.04231 0
M  V30 10271 H 972.916 0.552122 4.12421 0
M  V30 10272 H 971.792 0.28575 5.48156 0
M  V30 10273 H 972.053 -0.994616 4.30767 0
M  V30 10274 N 971.112 -1.45937 0.595003 0
M  V30 10275 C 972.361 -2.01529 0.0829531 0
M  V30 10276 C 972.674 -1.47071 -1.28955 0
M  V30 10277 O 973.88 -1.94561 -1.89363 0
M  V30 10278 C 972.336 -3.59767 0.0976597 0
M  V30 10279 C 971.944 -4.23223 1.46924 0
M  V30 10280 C 973.688 -4.22972 -0.359805 0
M  V30 10281 C 971.595 -5.73576 1.44101 0
M  V30 10282 H 970.525 -0.753508 0.0272425 0
M  V30 10283 H 973.176 -1.67541 0.748473 0
M  V30 10284 H 971.558 -3.90888 -0.634268 0
M  V30 10285 H 972.732 -4.03695 2.22187 0
M  V30 10286 H 971.047 -3.72161 1.86775 0
M  V30 10287 H 973.644 -5.33202 -0.39991 0
M  V30 10288 H 973.987 -3.92765 -1.37991 0
M  V30 10289 H 974.52 -3.96523 0.31845 0
M  V30 10290 H 971.259 -6.08462 2.43831 0
M  V30 10291 H 970.779 -5.95332 0.730767 0
M  V30 10292 H 972.458 -6.36531 1.1592 0
M  V30 10293 N 972.59 -0.333456 -1.54032 0
M  V30 10294 C 973.838 0.265608 -2.00347 0
M  V30 10295 C 974.159 1.51873 -1.2231 0
M  V30 10296 O 973.429 1.93142 -0.327549 0
M  V30 10297 H 972.009 0.101135 -0.740122 0
M  V30 10298 H 974.671 -0.452285 -1.8958 0
M  V30 10299 H 973.767 0.51511 -3.0782 0
M  V30 10300 N 974.068 1.57479 -0.061844 0
M  V30 10301 C 975.317 1.92285 0.609055 0
M  V30 10302 C 975.63 0.942983 1.71369 0
M  V30 10303 O 976.836 1.18349 2.44348 0
M  V30 10304 C 975.292 3.41545 1.13468 0
M  V30 10305 C 974.9 4.47958 0.0615926 0
M  V30 10306 C 976.644 3.85368 1.78022 0
M  V30 10307 C 974.551 5.88341 0.600705 0
M  V30 10308 H 973.481 0.717656 0.23127 0
M  V30 10309 H 976.132 1.83021 -0.132466 0
M  V30 10310 H 974.514 3.45848 1.92886 0
M  V30 10311 H 975.688 4.55258 -0.712527 0
M  V30 10312 H 974.003 4.13541 -0.487116 0
M  V30 10313 H 976.6 4.87627 2.19371 0
M  V30 10314 H 976.943 3.22193 2.63623 0
M  V30 10315 H 977.476 3.83626 1.05242 0
M  V30 10316 H 974.215 6.55138 -0.217922 0
M  V30 10317 H 973.735 5.84581 1.34257 0
M  V30 10318 H 975.414 6.37918 1.08025 0
M  V30 10319 N 975.546 -0.211634 1.56173 0
M  V30 10320 C 976.794 -0.932704 1.7929 0
M  V30 10321 C 977.115 -1.84472 0.632076 0
M  V30 10322 O 976.385 -1.92739 -0.350519 0
M  V30 10323 H 974.965 -0.347393 0.661307 0
M  V30 10324 H 977.627 -0.22111 1.93642 0
M  V30 10325 H 976.723 -1.53365 2.71819 0
M  V30 10326 N 977.024 -1.50153 -0.478725 0
M  V30 10327 C 978.301 -1.51274 -1.23999 0
M  V30 10328 C 978.681 -0.253048 -2.09578 0
M  V30 10329 O 978.029 0.763827 -2.15355 0
M  V30 10330 C 978.239 -2.80423 -2.07759 0
M  V30 10331 C 979.587 -3.30788 -2.66204 0
M  V30 10332 O 980.611 -2.81693 -2.18008 0
M  V30 10333 O 979.47 -4.1635 -3.53999 0
M  V30 10334 H 976.564 -0.606438 -0.562283 0
M  V30 10335 H 979.11 -1.62436 -0.491171 0
M  V30 10336 H 977.882 -3.63584 -1.44645 0
M  V30 10337 H 977.505 -2.72228 -2.89789 0
M  V30 10338 N 978.502 0.731368 -1.39602 0
M  V30 10339 C 979.449 1.84541 -1.38612 0
M  V30 10340 C 980.419 1.64279 -0.245287 0
M  V30 10341 O 981.604 1.85635 -0.440954 0
M  V30 10342 C 978.744 3.22092 -1.23897 0
M  V30 10343 C 977.857 3.54034 -2.47555 0
M  V30 10344 C 976.992 4.81007 -2.25402 0
M  V30 10345 C 976.031 5.05804 -3.44716 0
M  V30 10346 N 975.168 6.23981 -3.21857 0
M  V30 10347 H 980.008 1.84722 -2.33841 0
M  V30 10348 H 977.545 0.902569 -1.16156 0
M  V30 10349 H 979.503 4.01499 -1.13376 0
M  V30 10350 H 978.133 3.2118 -0.322958 0
M  V30 10351 H 977.185 2.69301 -2.68665 0
M  V30 10352 H 978.497 3.68275 -3.36415 0
M  V30 10353 H 977.651 5.68401 -2.12143 0
M  V30 10354 H 976.39 4.68946 -1.33943 0
M  V30 10355 H 975.395 4.1687 -3.58468 0
M  V30 10356 H 976.62 5.19747 -4.37081 0
M  V30 10357 H 974.566 6.13202 -2.33065 0
M  V30 10358 H 974.483 6.38826 -4.04274 0
M  V30 10359 H 975.751 7.14205 -3.123 0
M  V30 10360 N 979.98 1.24838 0.961938 0
M  V30 10361 C 980.943 1.04674 2.03902 0
M  V30 10362 C 981.943 0.00204674 1.608 0
M  V30 10363 O 983.133 0.243555 1.72489 0
M  V30 10364 C 980.265 0.587736 3.35795 0
M  V30 10365 H 981.458 2.00278 2.23223 0
M  V30 10366 H 979.011 1.07142 1.138 0
M  V30 10367 H 979.746 -0.371244 3.22168 0
M  V30 10368 H 979.531 1.34182 3.68426 0
M  V30 10369 H 981.021 0.467867 4.14971 0
M  V30 10370 N 981.458 -1.16348 1.06306 0
M  V30 10371 C 982.388 -2.2291 0.695234 0
M  V30 10372 C 983.369 -1.67208 -0.312343 0
M  V30 10373 O 984.554 -1.93293 -0.187442 0
M  V30 10374 C 981.684 -3.47205 0.0810149 0
M  V30 10375 C 980.638 -4.15801 1.01458 0
M  V30 10376 C 979.964 -5.3405 0.263656 0
M  V30 10377 C 981.264 -4.66766 2.34365 0
M  V30 10378 H 982.958 -2.53934 1.58613 0
M  V30 10379 H 980.504 -1.22056 0.76409 0
M  V30 10380 H 982.457 -4.2098 -0.18818 0
M  V30 10381 H 981.181 -3.15482 -0.844897 0
M  V30 10382 H 979.84 -3.43954 1.26852 0
M  V30 10383 H 979.488 -4.9858 -0.665378 0
M  V30 10384 H 979.188 -5.80885 0.88582 0
M  V30 10385 H 980.712 -6.106 0.00200994 0
M  V30 10386 H 982.126 -5.3212 2.13356 0
M  V30 10387 H 980.523 -5.24223 2.9208 0
M  V30 10388 H 981.593 -3.82969 2.97426 0
M  V30 10389 N 982.937 -0.845659 -1.3299 0
M  V30 10390 C 983.884 -0.281761 -2.29074 0
M  V30 10391 C 984.854 0.606237 -1.54641 0
M  V30 10392 O 986.039 0.543063 -1.82908 0
M  V30 10393 C 983.179 0.531451 -3.40983 0
M  V30 10394 C 982.292 -0.381328 -4.30314 0
M  V30 10395 C 981.427 0.443643 -5.29344 0
M  V30 10396 C 980.466 -0.467101 -6.10315 0
M  V30 10397 N 979.603 0.320148 -7.0137 0
M  V30 10398 H 984.443 -1.10641 -2.76699 0
M  V30 10399 H 981.98 -0.55706 -1.36144 0
M  V30 10400 H 983.938 1.01848 -4.04577 0
M  V30 10401 H 982.568 1.32101 -2.94532 0
M  V30 10402 H 981.62 -0.986701 -3.6738 0
M  V30 10403 H 982.932 -1.08067 -4.86953 0
M  V30 10404 H 982.086 0.994212 -5.98498 0
M  V30 10405 H 980.825 1.17639 -4.73299 0
M  V30 10406 H 979.83 -1.02963 -5.40073 0
M  V30 10407 H 981.055 -1.19832 -6.68444 0
M  V30 10408 H 979.001 1.03615 -6.47765 0
M  V30 10409 H 978.918 -0.320338 -7.55321 0
M  V30 10410 H 980.186 0.852735 -7.74822 0
M  V30 10411 N 984.415 1.45619 -0.602734 0
M  V30 10412 C 985.664 2.01483 -0.0936395 0
M  V30 10413 C 985.977 1.47753 1.28173 0
M  V30 10414 O 987.183 1.95562 1.88329 0
M  V30 10415 C 985.639 3.59711 -0.116738 0
M  V30 10416 C 985.247 4.22437 -1.49166 0
M  V30 10417 C 986.991 4.23157 0.337368 0
M  V30 10418 C 984.898 5.72803 -1.47141 0
M  V30 10419 H 983.828 0.753353 -0.0312382 0
M  V30 10420 H 986.479 1.67142 -0.757347 0
M  V30 10421 H 984.861 3.91218 0.613529 0
M  V30 10422 H 986.035 4.02511 -2.24325 0
M  V30 10423 H 984.35 3.71166 -1.88746 0
M  V30 10424 H 986.947 5.33407 0.371628 0
M  V30 10425 H 987.29 3.93491 1.35906 0
M  V30 10426 H 987.823 3.96349 -0.339474 0
M  V30 10427 H 984.562 6.07161 -2.47055 0
M  V30 10428 H 984.082 5.94936 -0.762329 0
M  V30 10429 H 985.761 6.35907 -1.19294 0
M  V30 10430 N 985.893 0.34162 1.53853 0
M  V30 10431 C 986.841 -0.531412 2.26448 0
M  V30 10432 C 987.835 -1.10357 1.28521 0
M  V30 10433 O 989.041 -1.04953 1.46236 0
M  V30 10434 H 985.416 -0.190054 0.727588 0
M  V30 10435 H 987.387 0.102922 2.98222 0
M  V30 10436 C 986.136 -1.67154 3.04885 0
M  V30 10437 H 985.459 -1.24055 3.80066 0
M  V30 10438 H 986.899 -2.25762 3.58898 0
M  V30 10439 C 985.358 -2.59984 2.14266 0
M  V30 10440 O 985.888 -3.62181 1.73746 0
M  V30 10441 N 984.094 -2.28625 1.79385 0
M  V30 10442 H 983.641 -1.45559 2.12533 0
M  V30 10443 H 983.599 -2.90995 1.19035 0
M  V30 10444 N 987.371 -1.57444 0.0701946 0
M  V30 10445 C 988.617 -1.94528 -0.594177 0
M  V30 10446 C 988.972 -0.949898 -1.67316 0
M  V30 10447 O 988.265 0.0280668 -1.91579 0
M  V30 10448 C 988.459 -3.36044 -1.21694 0
M  V30 10449 C 988.288 -4.49256 -0.199806 0
M  V30 10450 C 987.058 -5.04843 0.214963 0
M  V30 10451 C 989.256 -5.11217 0.562312 0
M  V30 10452 N 987.238 -6.01595 1.22297 0
M  V30 10453 C 988.609 -6.03453 1.42284 0
M  V30 10454 C 990.664 -4.94043 0.618555 0
M  V30 10455 C 989.367 -6.80359 2.33461 0
M  V30 10456 C 991.393 -5.71591 1.51783 0
M  V30 10457 C 990.755 -6.63474 2.36604 0
M  V30 10458 H 986.854 -0.758941 -0.1885 0
M  V30 10459 H 989.438 -1.94145 0.146965 0
M  V30 10460 H 987.609 -3.37168 -1.92801 0
M  V30 10461 H 989.341 -3.60368 -1.84165 0
M  V30 10462 H 986.096 -4.73303 -0.167835 0
M  V30 10463 H 986.52 -6.5467 1.72443 0
M  V30 10464 H 991.162 -4.22794 -0.0230235 0
M  V30 10465 H 988.88 -7.50886 2.98656 0
M  V30 10466 H 992.466 -5.60324 1.56616 0
M  V30 10467 H 991.346 -7.22432 3.0506 0
M  V30 10468 N 988.849 0.203349 -1.56283 0
M  V30 10469 C 990.079 0.940061 -1.83974 0
M  V30 10470 C 990.487 1.77703 -0.649486 0
M  V30 10471 O 989.83 1.79487 0.391189 0
M  V30 10472 C 989.892 1.89249 -3.05655 0
M  V30 10473 C 989.556 1.23828 -4.39904 0
M  V30 10474 C 990.553 0.619231 -5.16199 0
M  V30 10475 C 988.238 1.2446 -4.86636 0
M  V30 10476 C 990.232 0.0152287 -6.37398 0
M  V30 10477 C 987.919 0.636764 -6.07773 0
M  V30 10478 C 988.917 0.0231481 -6.82996 0
M  V30 10479 O 988.605 -0.575187 -8.0184 0
M  V30 10480 H 988.337 0.280199 -0.615194 0
M  V30 10481 H 990.891 0.218111 -2.04239 0
M  V30 10482 H 989.121 2.65392 -2.81254 0
M  V30 10483 H 990.81 2.4963 -3.20062 0
M  V30 10484 H 991.576 0.606545 -4.81192 0
M  V30 10485 H 987.455 1.71161 -4.28048 0
M  V30 10486 H 990.999 -0.464333 -6.96053 0
M  V30 10487 H 986.896 0.646924 -6.4225 0
M  V30 10488 H 987.664 -0.471284 -8.17142 0
M  V30 10489 N 990.327 1.50405 0.470755 0
M  V30 10490 C 991.743 1.37838 0.804534 0
M  V30 10491 C 991.943 0.434743 1.96754 0
M  V30 10492 O 990.999 -0.122507 2.52203 0
M  V30 10493 C 992.312 2.79212 1.11629 0
M  V30 10494 C 993.86 2.88129 1.22272 0
M  V30 10495 C 994.335 4.30337 1.5676 0
M  V30 10496 N 995.826 4.3329 1.63751 0
M  V30 10497 C 996.561 5.4032 1.91942 0
M  V30 10498 N 996.057 6.57558 2.18151 0
M  V30 10499 N 997.85 5.27764 1.93446 0
M  V30 10500 H 990.001 2.10332 -0.295689 0
M  V30 10501 H 992.264 0.945429 -0.0697733 0
M  V30 10502 H 991.97 3.50103 0.334778 0
M  V30 10503 H 991.844 3.16475 2.0524 0
M  V30 10504 H 994.231 2.17457 1.9949 0
M  V30 10505 H 994.312 2.54409 0.2664 0
M  V30 10506 H 993.956 5.01547 0.800817 0
M  V30 10507 H 993.886 4.61545 2.53543 0
M  V30 10508 H 996.377 3.48752 1.45535 0
M  V30 10509 H 996.69 7.34935 2.38936 0
M  V30 10510 H 995.035 6.60732 2.15542 0
M  V30 10511 H 998.226 4.35169 1.72468 0
M  V30 10512 H 998.399 6.11264 2.15081 0
M  V30 10513 N 991.805 -0.723954 1.39988 0
M  V30 10514 C 992.752 -1.83803 1.39589 0
M  V30 10515 C 993.722 -1.64146 0.253996 0
M  V30 10516 O 994.907 -1.85398 0.450793 0
M  V30 10517 C 992.047 -3.21431 1.25604 0
M  V30 10518 C 991.16 -3.52717 2.49429 0
M  V30 10519 C 990.295 -4.79805 2.27949 0
M  V30 10520 C 989.334 -5.03968 3.47394 0
M  V30 10521 N 988.471 -6.22266 3.25161 0
M  V30 10522 H 993.311 -1.83479 2.34818 0
M  V30 10523 H 990.848 -0.896396 1.16633 0
M  V30 10524 H 992.806 -4.00892 1.15504 0
M  V30 10525 H 991.436 -3.21005 0.339986 0
M  V30 10526 H 990.488 -2.67872 2.7009 0
M  V30 10527 H 991.8 -3.66486 3.38363 0
M  V30 10528 H 990.954 -5.67268 2.15155 0
M  V30 10529 H 989.693 -4.68229 1.36428 0
M  V30 10530 H 988.698 -4.14963 3.60674 0
M  V30 10531 H 989.923 -5.17422 4.39831 0
M  V30 10532 H 987.869 -6.11957 2.36314 0
M  V30 10533 H 987.786 -6.36673 4.07656 0
M  V30 10534 H 989.054 -7.12539 3.16083 0
M  V30 10535 N 993.283 -1.25346 -0.955304 0
M  V30 10536 C 994.531 -1.09837 -1.69647 0
M  V30 10537 C 994.852 0.361425 -1.91621 0
M  V30 10538 O 994.122 1.25666 -1.50283 0
M  V30 10539 H 992.702 -0.403467 -0.628668 0
M  V30 10540 H 995.364 -1.57459 -1.14859 0
M  V30 10541 H 994.46 -1.60616 -2.67598 0
M  V30 10542 N 994.761 1.15782 -1.06922 0
M  V30 10543 C 995.986 1.90896 -0.810771 0
M  V30 10544 C 996.411 1.77246 0.629714 0
M  V30 10545 O 995.769 1.10215 1.43953 0
M  V30 10546 C 995.817 3.39397 -1.21829 0
M  V30 10547 O 994.921 4.10818 -0.360934 0
M  V30 10548 H 994.262 0.594497 -0.295752 0
M  V30 10549 H 996.792 1.46652 -1.42669 0
M  V30 10550 H 996.802 3.90181 -1.19259 0
M  V30 10551 H 995.477 3.4865 -2.2675 0
M  V30 10552 H 994.054 3.7019 -0.448748 0
M  V30 10553 N 996.239 0.8527 1.3254 0
M  V30 10554 C 997.464 0.468157 2.02047 0
M  V30 10555 C 997.889 -0.926967 1.63673 0
M  V30 10556 O 997.247 -1.60855 0.836378 0
M  V30 10557 C 997.295 0.612519 3.5536 0
M  V30 10558 O 996.399 -0.355506 4.10865 0
M  V30 10559 H 995.74 0.188401 0.636711 0
M  V30 10560 H 998.27 1.15135 1.6913 0
M  V30 10561 H 998.28 0.499315 4.04933 0
M  V30 10562 H 996.955 1.62988 3.82632 0
M  V30 10563 H 995.532 -0.198703 3.7237 0
M  V30 10564 N 997.718 -1.45297 0.610449 0
M  V30 10565 C 998.967 -2.0143 0.104323 0
M  V30 10566 C 999.28 -1.48431 -1.27388 0
M  V30 10567 O 1000.49 -1.96558 -1.87289 0
M  V30 10568 C 998.942 -3.59644 0.135812 0
M  V30 10569 C 998.55 -4.2164 1.51405 0
M  V30 10570 C 1000.29 -4.2333 -0.314922 0
M  V30 10571 C 998.201 -5.72015 1.50176 0
M  V30 10572 H 997.131 -0.753176 0.035233 0
M  V30 10573 H 999.782 -1.66738 0.7662 0
M  V30 10574 H 998.164 -3.91538 -0.592773 0
M  V30 10575 H 999.338 -4.01315 2.26457 0
M  V30 10576 H 997.653 -3.70159 1.90712 0
M  V30 10577 H 1000.25 -5.33597 -0.343335 0
M  V30 10578 H 1000.59 -3.94206 -1.33817 0
M  V30 10579 H 1001.13 -3.96163 0.360489 0
M  V30 10580 H 997.865 -6.05842 2.50271 0
M  V30 10581 H 997.385 -5.94523 0.793869 0
M  V30 10582 H 999.064 -6.35266 1.22665 0
M  V30 10583 N 999.196 -0.349774 -1.5367 0
M  V30 10584 C 1000.44 0.244343 -2.00617 0
M  V30 10585 C 1000.76 1.50567 -1.23914 0
M  V30 10586 O 1000.03 1.92784 -0.348016 0
M  V30 10587 H 998.615 0.0932792 -0.741153 0
M  V30 10588 H 1001.28 -0.472367 -1.89089 0
M  V30 10589 H 1000.37 0.482433 -3.08349 0
M  V30 10590 N 1000.67 1.57404 -0.0785433 0
M  V30 10591 C 1001.62 2.13104 0.88631 0
M  V30 10592 C 1002.59 1.04527 1.29086 0
M  V30 10593 O 1003.78 1.32226 1.37553 0
M  V30 10594 C 1000.92 2.70252 2.14611 0
M  V30 10595 C 1000.03 3.93007 1.79358 0
M  V30 10596 C 999.164 4.38376 3 0
M  V30 10597 C 998.203 5.53761 2.60796 0
M  V30 10598 N 997.34 5.94058 3.74219 0
M  V30 10599 H 1002.18 2.95243 0.404452 0
M  V30 10600 H 999.717 1.45894 0.187982 0
M  V30 10601 H 1001.67 3.01497 2.88367 0
M  V30 10602 H 1000.3 1.90868 2.60326 0
M  V30 10603 H 999.357 3.68181 0.956384 0
M  V30 10604 H 1000.67 4.76795 1.4652 0
M  V30 10605 H 999.823 4.71317 3.82027 0
M  V30 10606 H 998.562 3.53455 3.36037 0
M  V30 10607 H 997.567 5.20464 1.77192 0
M  V30 10608 H 998.792 6.40419 2.25922 0
M  V30 10609 H 996.738 5.12085 4.10005 0
M  V30 10610 H 996.655 6.72602 3.45171 0
M  V30 10611 H 997.923 6.31624 4.56805 0
M  V30 10612 N 1002.15 -0.195058 1.56388 0
M  V30 10613 C 1003.08 -1.26978 1.8961 0
M  V30 10614 C 1004.06 -1.43946 0.756199 0
M  V30 10615 O 1005.25 -1.59335 1.0072 0
M  V30 10616 C 1002.37 -2.63638 2.12632 0
M  V30 10617 C 1001.42 -2.6354 3.35334 0
M  V30 10618 S 1002.25 -2.1497 4.90457 0
M  V30 10619 C 1003.41 -3.53454 5.16547 0
M  V30 10620 H 1003.64 -0.986091 2.8047 0
M  V30 10621 H 1001.17 -0.398552 1.49167 0
M  V30 10622 H 1003.13 -3.42304 2.26579 0
M  V30 10623 H 1001.79 -2.89218 1.22522 0
M  V30 10624 H 1000.99 -3.64027 3.48569 0
M  V30 10625 H 1000.59 -1.92956 3.20381 0
M  V30 10626 H 1002.88 -4.49318 5.0707 0
M  V30 10627 H 1003.82 -3.45113 6.18306 0
M  V30 10628 H 1004.23 -3.48368 4.44185 0
M  V30 10629 N 1003.63 -1.50653 -0.462772 0
M  V30 10630 C 1004.88 -1.62057 -1.21424 0
M  V30 10631 C 1005.2 -0.324778 -1.91769 0
M  V30 10632 O 1004.46 0.689828 -1.83139 0
M  V30 10633 C 1004.76 -2.75637 -2.27507 0
M  V30 10634 C 1004.42 -4.15826 -1.74354 0
M  V30 10635 C 1003.09 -4.53969 -1.5958 0
M  V30 10636 C 1005.44 -5.03409 -1.35012 0
M  V30 10637 C 1002.77 -5.77427 -1.03899 0
M  V30 10638 C 1005.12 -6.27422 -0.807704 0
M  V30 10639 C 1003.78 -6.6436 -0.646657 0
M  V30 10640 H 1003.05 -0.59301 -0.44432 0
M  V30 10641 H 1005.7 -1.84612 -0.508999 0
M  V30 10642 H 1004 -2.47203 -3.0397 0
M  V30 10643 H 1005.7 -2.81663 -2.85424 0
M  V30 10644 H 1002.29 -3.85739 -1.86823 0
M  V30 10645 H 1006.48 -4.74567 -1.45258 0
M  V30 10646 H 1001.73 -6.04713 -0.901751 0
M  V30 10647 H 1005.91 -6.94644 -0.494234 0
M  V30 10648 H 1003.53 -7.59901 -0.213053 0
M  V30 10649 N 1005.11 0.71652 -1.4037 0
M  V30 10650 C 1006.02 1.86074 -1.42876 0
M  V30 10651 C 1007.03 1.71005 -0.321475 0
M  V30 10652 O 1008.21 1.93286 -0.565909 0
M  V30 10653 C 1005.28 3.21862 -1.28863 0
M  V30 10654 C 1004.34 3.49193 -2.49726 0
M  V30 10655 C 1003.57 4.78502 -2.36372 0
M  V30 10656 O 1003.79 5.53529 -1.37703 0
M  V30 10657 O 1002.73 5.06147 -3.25728 0
M  V30 10658 H 1006.55 1.86916 -2.39366 0
M  V30 10659 H 1004.14 0.866818 -1.21683 0
M  V30 10660 H 1006.02 4.02972 -1.23253 0
M  V30 10661 H 1004.69 3.2175 -0.354783 0
M  V30 10662 H 1003.6 2.68095 -2.60913 0
M  V30 10663 H 1004.93 3.54101 -3.41868 0
M  V30 10664 N 1006.59 1.25851 0.948643 0
M  V30 10665 C 1007.55 1.0683 2.0278 0
M  V30 10666 C 1008.55 0.0191016 1.60789 0
M  V30 10667 O 1009.74 0.261836 1.72221 0
M  V30 10668 C 1006.87 0.623318 3.35153 0
M  V30 10669 H 1008.06 2.02635 2.21086 0
M  V30 10670 H 1005.62 1.08343 1.12657 0
M  V30 10671 H 1006.35 -0.337053 3.22544 0
M  V30 10672 H 1006.14 1.38082 3.66982 0
M  V30 10673 H 1007.63 0.511854 4.14451 0
M  V30 10674 N 1008.06 -1.15214 1.07534 0
M  V30 10675 C 1009.29 -1.89922 0.820804 0
M  V30 10676 C 1009.71 -1.78114 -0.626177 0
M  V30 10677 O 1009.06 -1.13435 -1.42964 0
M  V30 10678 C 1009.12 -3.40207 1.22236 0
M  V30 10679 O 1008.84 -3.51676 2.61257 0
M  V30 10680 C 1010.34 -4.31934 0.997393 0
M  V30 10681 H 1007.56 -0.601865 0.296647 0
M  V30 10682 H 1010.1 -1.45965 1.43229 0
M  V30 10683 H 1008.26 -3.8182 0.655167 0
M  V30 10684 H 1008.67 -4.44959 2.77689 0
M  V30 10685 H 1010.14 -5.35791 1.32785 0
M  V30 10686 H 1010.62 -4.3915 -0.0661599 0
M  V30 10687 H 1011.23 -3.96066 1.54958 0
M  V30 10688 N 1009.54 -0.859717 -1.32086 0
M  V30 10689 C 1010.51 -0.313005 -2.27053 0
M  V30 10690 C 1011.51 0.530191 -1.51808 0
M  V30 10691 O 1012.7 0.340972 -1.7083 0
M  V30 10692 C 1009.83 0.5566 -3.36325 0
M  V30 10693 H 1011.02 -1.15125 -2.76923 0
M  V30 10694 H 1008.57 -0.634463 -1.42843 0
M  V30 10695 H 1009.31 1.41645 -2.91731 0
M  V30 10696 H 1009.09 -0.0470197 -3.92072 0
M  V30 10697 H 1010.58 0.931725 -4.07073 0
M  V30 10698 N 1011.02 1.44971 -0.618145 0
M  V30 10699 C 1012.44 1.57077 -0.282666 0
M  V30 10700 C 1012.64 1.60782 1.21456 0
M  V30 10701 O 1011.69 1.54382 1.99806 0
M  V30 10702 C 1013.01 2.84858 -0.963148 0
M  V30 10703 C 1014.55 2.9855 -0.940062 0
M  V30 10704 C 1015.03 4.29115 -1.60076 0
M  V30 10705 N 1016.52 4.35899 -1.56674 0
M  V30 10706 C 1017.25 5.35617 -2.04701 0
M  V30 10707 N 1016.75 6.41813 -2.6086 0
M  V30 10708 N 1018.54 5.27042 -1.95406 0
M  V30 10709 H 1010.69 1.4081 -1.59017 0
M  V30 10710 H 1012.96 0.673914 -0.666741 0
M  V30 10711 H 1012.66 2.88059 -2.0178 0
M  V30 10712 H 1012.54 3.73966 -0.492901 0
M  V30 10713 H 1014.92 2.94909 0.10607 0
M  V30 10714 H 1015.01 2.10825 -1.44868 0
M  V30 10715 H 1014.65 4.33514 -2.64627 0
M  V30 10716 H 1014.58 5.15675 -1.06708 0
M  V30 10717 H 1017.07 3.59766 -1.15659 0
M  V30 10718 H 1017.38 7.14166 -2.95273 0
M  V30 10719 H 1015.73 6.42534 -2.64905 0
M  V30 10720 H 1018.92 4.42987 -1.51263 0
M  V30 10721 H 1019.09 6.04604 -2.33147 0
M  V30 10722 N 1012.5 0.357919 1.53482 0
M  V30 10723 C 1013.75 -0.2337 2.00744 0
M  V30 10724 C 1014.07 -1.49908 1.2471 0
M  V30 10725 O 1013.34 -1.92597 0.358235 0
M  V30 10726 H 1011.92 -0.0893474 0.741637 0
M  V30 10727 H 1014.58 0.482388 1.88836 0
M  V30 10728 H 1013.68 -0.466073 3.086 0
M  V30 10729 N 1013.98 -1.5736 0.0868897 0
M  V30 10730 C 1014.94 -2.12436 -0.860439 0
M  V30 10731 C 1015.94 -1.05175 -1.21634 0
M  V30 10732 O 1017.13 -1.31098 -1.14713 0
M  V30 10733 C 1014.26 -2.63818 -2.159 0
M  V30 10734 H 1015.45 -2.97453 -0.382346 0
M  V30 10735 H 1013.01 -1.55458 -0.162009 0
M  V30 10736 H 1013.74 -1.82298 -2.68212 0
M  V30 10737 H 1013.53 -3.42234 -1.91359 0
M  V30 10738 H 1015.02 -3.06452 -2.83685 0
M  V30 10739 N 1015.45 0.186762 -1.56489 0
M  V30 10740 C 1016.87 0.537933 -1.50261 0
M  V30 10741 C 1017.07 1.85435 -0.788414 0
M  V30 10742 O 1016.13 2.50168 -0.342377 0
M  V30 10743 C 1017.44 0.584965 -2.94955 0
M  V30 10744 C 1018.99 0.673228 -3.05674 0
M  V30 10745 C 1019.46 0.751294 -4.51796 0
M  V30 10746 N 1020.95 0.814599 -4.55981 0
M  V30 10747 C 1021.69 0.895313 -5.66367 0
M  V30 10748 N 1021.18 0.937814 -6.86423 0
M  V30 10749 N 1022.98 0.933145 -5.543 0
M  V30 10750 H 1015.13 -0.676636 -2.01334 0
M  V30 10751 H 1017.39 -0.242079 -0.916571 0
M  V30 10752 H 1017.1 -0.313361 -3.50301 0
M  V30 10753 H 1016.97 1.4368 -3.48763 0
M  V30 10754 H 1019.36 1.56198 -2.50372 0
M  V30 10755 H 1019.44 -0.204976 -2.54977 0
M  V30 10756 H 1019.08 -0.133143 -5.07725 0
M  V30 10757 H 1019.01 1.64542 -5.00233 0
M  V30 10758 H 1021.5 0.790662 -3.69536 0
M  V30 10759 H 1021.82 1.00015 -7.66301 0
M  V30 10760 H 1020.16 0.906351 -6.89065 0
M  V30 10761 H 1023.35 0.896836 -4.59428 0
M  V30 10762 H 1023.53 0.992588 -6.40353 0
M  V30 10763 N 1016.93 1.50896 0.454776 0
M  V30 10764 C 1018.35 1.38684 0.78987 0
M  V30 10765 C 1018.55 0.455587 1.96282 0
M  V30 10766 O 1017.6 -0.0957503 2.52318 0
M  V30 10767 C 1018.92 2.80381 1.08661 0
M  V30 10768 C 1020.47 2.8941 1.19209 0
M  V30 10769 C 1020.94 4.31976 1.52187 0
M  V30 10770 N 1022.43 4.35002 1.59146 0
M  V30 10771 C 1023.17 5.42326 1.862 0
M  V30 10772 N 1022.66 6.59835 2.11164 0
M  V30 10773 N 1024.46 5.29786 1.87838 0
M  V30 10774 H 1016.61 2.10006 -0.317981 0
M  V30 10775 H 1018.87 0.944636 -0.0797969 0
M  V30 10776 H 1018.58 3.50438 0.297626 0
M  V30 10777 H 1018.45 3.18634 2.01872 0
M  V30 10778 H 1020.84 2.19561 1.97173 0
M  V30 10779 H 1020.92 2.54677 0.239401 0
M  V30 10780 H 1020.56 5.02368 0.747576 0
M  V30 10781 H 1020.49 4.64208 2.48633 0
M  V30 10782 H 1022.98 3.50276 1.41828 0
M  V30 10783 H 1023.3 7.37428 2.31128 0
M  V30 10784 H 1021.64 6.62981 2.08522 0
M  V30 10785 H 1024.83 4.36974 1.67843 0
M  V30 10786 H 1025 6.13511 2.08585 0
M  V30 10787 N 1018.41 -0.709066 1.40748 0
M  V30 10788 C 1019.34 -1.83293 1.35937 0
M  V30 10789 C 1020.32 -1.60983 0.22871 0
M  V30 10790 O 1021.51 -1.8391 0.413435 0
M  V30 10791 C 1018.63 -3.19746 1.11714 0
M  V30 10792 C 1017.68 -3.60872 2.27319 0
M  V30 10793 S 1018.51 -3.67233 3.89743 0
M  V30 10794 C 1019.67 -5.06434 3.67797 0
M  V30 10795 H 1019.9 -1.87095 2.31047 0
M  V30 10796 H 1017.43 -0.876479 1.27111 0
M  V30 10797 H 1019.39 -3.98526 0.984245 0
M  V30 10798 H 1018.05 -3.1357 0.182472 0
M  V30 10799 H 1017.25 -4.59965 2.06029 0
M  V30 10800 H 1016.85 -2.89366 2.36946 0
M  V30 10801 H 1019.14 -5.93544 3.26668 0
M  V30 10802 H 1020.08 -5.32761 4.66445 0
M  V30 10803 H 1020.49 -4.77336 3.01348 0
M  V30 10804 N 1019.89 -1.26353 -0.941956 0
M  V30 10805 C 1020.85 -1.07904 -2.02211 0
M  V30 10806 C 1021.85 -0.0276283 -1.60776 0
M  V30 10807 O 1023.04 -0.270965 -1.7208 0
M  V30 10808 C 1020.17 -0.641084 -3.34818 0
M  V30 10809 H 1021.37 -2.03804 -2.20009 0
M  V30 10810 H 1018.92 -1.08939 -1.12081 0
M  V30 10811 H 1019.66 0.319943 -3.22718 0
M  V30 10812 H 1019.44 -1.40027 -3.66244 0
M  V30 10813 H 1020.93 -0.533826 -4.14174 0
M  V30 10814 N 1021.37 1.14642 -1.08144 0
M  V30 10815 C 1022.62 1.84964 -0.804437 0
M  V30 10816 C 1022.93 1.8369 0.672106 0
M  V30 10817 O 1024.14 2.49775 1.06417 0
M  V30 10818 C 1022.59 3.32015 -1.38904 0
M  V30 10819 C 1022.2 3.41713 -2.89718 0
M  V30 10820 C 1023.94 4.07467 -1.19041 0
M  V30 10821 C 1021.85 4.82958 -3.41329 0
M  V30 10822 H 1020.78 0.692932 -0.297256 0
M  V30 10823 H 1023.43 1.29255 -1.30251 0
M  V30 10824 H 1021.81 3.87445 -0.818679 0
M  V30 10825 H 1022.99 2.96347 -3.52867 0
M  V30 10826 H 1021.3 2.79713 -3.08463 0
M  V30 10827 H 1023.9 5.1172 -1.55069 0
M  V30 10828 H 1024.24 4.16097 -0.130027 0
M  V30 10829 H 1024.78 3.58329 -1.72757 0
M  V30 10830 H 1021.51 4.79515 -4.46929 0
M  V30 10831 H 1021.03 5.28873 -2.82937 0
M  V30 10832 H 1022.71 5.51841 -3.37759 0
M  V30 10833 N 1022.85 0.866709 1.31628 0
M  V30 10834 C 1023.78 0.335762 2.31073 0
M  V30 10835 C 1024.76 -0.571597 1.60209 0
M  V30 10836 O 1025.94 -0.489306 1.87935 0
M  V30 10837 C 1023.07 -0.466416 3.44154 0
M  V30 10838 C 1022.03 0.347561 4.26586 0
M  V30 10839 C 1021.35 -0.5801 5.31544 0
M  V30 10840 C 1022.65 1.57986 4.97833 0
M  V30 10841 H 1024.35 1.16673 2.75731 0
M  V30 10842 H 1021.89 0.56248 1.3256 0
M  V30 10843 H 1023.84 -0.84836 4.12772 0
M  V30 10844 H 1022.57 -1.33086 2.98254 0
M  V30 10845 H 1021.23 0.71141 3.59631 0
M  V30 10846 H 1020.88 -1.44174 4.81895 0
M  V30 10847 H 1020.58 -0.0393965 5.87587 0
M  V30 10848 H 1022.1 -0.958958 6.03023 0
M  V30 10849 H 1023.51 1.26954 5.59067 0
M  V30 10850 H 1021.91 2.05939 5.63657 0
M  V30 10851 H 1022.98 2.3345 4.25005 0
M  V30 10852 N 1024.32 -1.44642 0.625825 0
M  V30 10853 C 1025.57 -2.01695 0.127948 0
M  V30 10854 C 1025.89 -1.49439 -1.25271 0
M  V30 10855 O 1025.16 -0.695873 -1.83124 0
M  V30 10856 H 1023.74 -0.745685 0.0443096 0
M  V30 10857 H 1026.4 -1.7721 0.811332 0
M  V30 10858 H 1025.5 -3.11966 0.0915933 0
M  V30 10859 N 1025.8 -0.366053 -1.5329 0
M  V30 10860 C 1027.08 0.279902 -1.93587 0
M  V30 10861 C 1027.46 1.66352 -1.29963 0
M  V30 10862 O 1026.81 2.23845 -0.458895 0
M  V30 10863 C 1027.02 0.329634 -3.4744 0
M  V30 10864 C 1028.36 0.569754 -4.2076 0
M  V30 10865 O 1029.39 0.410823 -3.53823 0
M  V30 10866 O 1028.25 0.879262 -5.3938 0
M  V30 10867 H 1025.34 0.16802 -0.809752 0
M  V30 10868 H 1027.89 -0.418871 -1.64449 0
M  V30 10869 H 1026.66 -0.640434 -3.86023 0
M  V30 10870 H 1026.28 1.07428 -3.82812 0
M  V30 10871 N 1027.28 1.57312 -0.0952337 0
M  V30 10872 C 1028.51 1.98697 0.57682 0
M  V30 10873 C 1028.92 0.974347 1.61716 0
M  V30 10874 O 1028.28 -0.036022 1.82464 0
M  V30 10875 C 1028.33 3.40133 1.2244 0
M  V30 10876 O 1028.05 4.37518 0.225678 0
M  V30 10877 C 1029.55 3.96522 1.98205 0
M  V30 10878 H 1026.77 0.65294 0.154629 0
M  V30 10879 H 1029.32 2.03754 -0.174562 0
M  V30 10880 H 1027.47 3.3609 1.92671 0
M  V30 10881 H 1027.89 5.199 0.693116 0
M  V30 10882 H 1029.36 4.97637 2.38875 0
M  V30 10883 H 1029.84 3.34347 2.84796 0
M  V30 10884 H 1030.44 4.04038 1.3279 0
M  V30 10885 N 1028.76 -0.17846 1.56586 0
M  V30 10886 C 1029.72 -1.20479 1.94981 0
M  V30 10887 C 1030.72 -1.37561 0.832677 0
M  V30 10888 O 1031.91 -1.35089 1.09984 0
M  V30 10889 C 1029.04 -2.57117 2.23839 0
M  V30 10890 H 1030.24 -0.876173 2.86816 0
M  V30 10891 H 1027.79 -0.420635 1.50534 0
M  V30 10892 H 1028.52 -2.95005 1.34695 0
M  V30 10893 H 1028.31 -2.46086 3.05261 0
M  V30 10894 H 1029.8 -3.31096 2.5449 0
M  V30 10895 N 1030.24 -1.51135 -0.446768 0
M  V30 10896 C 1031.48 -1.64542 -1.19573 0
M  V30 10897 C 1031.84 -0.352728 -1.89139 0
M  V30 10898 O 1031.13 0.650917 -1.80204 0
M  V30 10899 C 1031.32 -2.78034 -2.2457 0
M  V30 10900 C 1031.15 -4.18214 -1.65308 0
M  V30 10901 C 1029.92 -4.84284 -1.44212 0
M  V30 10902 C 1032.12 -5.01631 -1.13451 0
M  V30 10903 N 1030.1 -6.08606 -0.804486 0
M  V30 10904 C 1031.47 -6.16876 -0.621577 0
M  V30 10905 C 1033.53 -4.87227 -1.02537 0
M  V30 10906 C 1032.23 -7.19299 -0.0102361 0
M  V30 10907 C 1034.26 -5.8985 -0.427936 0
M  V30 10908 C 1033.62 -7.04361 0.0745026 0
M  V30 10909 H 1029.72 -0.656068 -0.425556 0
M  V30 10910 H 1032.3 -1.88334 -0.493802 0
M  V30 10911 H 1030.47 -2.55922 -2.92162 0
M  V30 10912 H 1032.21 -2.8067 -2.91558 0
M  V30 10913 H 1028.96 -4.4199 -1.70123 0
M  V30 10914 H 1029.38 -6.75126 -0.503379 0
M  V30 10915 H 1034.03 -3.98959 -1.39971 0
M  V30 10916 H 1031.74 -8.07224 0.376252 0
M  V30 10917 H 1035.33 -5.80773 -0.34552 0
M  V30 10918 H 1034.21 -7.8241 0.529535 0
M  V30 10919 N 1031.71 0.701592 -1.41122 0
M  V30 10920 C 1032.99 1.45569 -1.30648 0
M  V30 10921 C 1033.37 2.10988 0.068744 0
M  V30 10922 O 1032.72 2.01228 1.08257 0
M  V30 10923 C 1032.93 2.48003 -2.45551 0
M  V30 10924 C 1034.28 3.13431 -2.86437 0
M  V30 10925 O 1035.3 2.58327 -2.45247 0
M  V30 10926 O 1034.16 4.13221 -3.57646 0
M  V30 10927 H 1031.25 0.648 -0.513834 0
M  V30 10928 H 1033.8 0.73258 -1.53073 0
M  V30 10929 H 1032.57 1.98276 -3.37346 0
M  V30 10930 H 1032.19 3.27832 -2.24971 0
M  V30 10931 N 1033.19 1.2685 0.935242 0
M  V30 10932 C 1034.44 1.12745 1.68211 0
M  V30 10933 C 1034.77 -0.328128 1.91712 0
M  V30 10934 O 1034.02 -1.25701 1.49993 0
M  V30 10935 C 1034.32 1.8482 3.05903 0
M  V30 10936 C 1033.99 3.347 3.02137 0
M  V30 10937 C 1032.65 3.75583 3.00817 0
M  V30 10938 C 1035 4.30368 2.93995 0
M  V30 10939 C 1032.33 5.10511 2.89129 0
M  V30 10940 C 1034.68 5.65343 2.83848 0
M  V30 10941 C 1033.34 6.0553 2.80874 0
M  V30 10942 H 1032.61 0.412563 0.615527 0
M  V30 10943 H 1035.26 1.57366 1.09124 0
M  V30 10944 H 1033.57 1.32685 3.68649 0
M  V30 10945 H 1035.26 1.71341 3.62551 0
M  V30 10946 H 1031.85 3.02182 3.03947 0
M  V30 10947 H 1036.04 3.9976 2.94118 0
M  V30 10948 H 1031.29 5.40802 2.85208 0
M  V30 10949 H 1035.47 6.39151 2.76512 0
M  V30 10950 H 1033.09 7.10037 2.71573 0
M  V30 10951 N 1034.67 -1.14067 1.0875 0
M  V30 10952 C 1035.92 -1.84819 0.817698 0
M  V30 10953 C 1036.24 -1.83545 -0.658488 0
M  V30 10954 O 1035.51 -1.28633 -1.47751 0
M  V30 10955 H 1034.09 -0.68433 0.299502 0
M  V30 10956 H 1036.75 -1.38208 1.37421 0
M  V30 10957 H 1035.85 -2.89541 1.16501 0
M  V30 10958 N 1036.15 -0.873678 -1.31166 0
M  V30 10959 C 1037.37 -0.500242 -2.01277 0
M  V30 10960 C 1037.8 0.900811 -1.65127 0
M  V30 10961 O 1037.16 1.59504 -0.861862 0
M  V30 10962 C 1037.2 -0.668976 -3.5434 0
M  V30 10963 O 1036.31 0.290096 -4.11378 0
M  V30 10964 H 1035.65 -0.198507 -0.633633 0
M  V30 10965 H 1038.18 -1.17811 -1.67277 0
M  V30 10966 H 1038.19 -0.563673 -4.04088 0
M  V30 10967 H 1036.86 -1.69055 -3.79991 0
M  V30 10968 H 1035.44 0.139437 -3.72639 0
M  V30 10969 N 1037.63 1.44308 -0.633487 0
M  V30 10970 C 1038.87 2.02322 -0.139123 0
M  V30 10971 C 1039.21 1.49733 1.23667 0
M  V30 10972 O 1038.48 0.682353 1.82138 0
M  V30 10973 C 1038.76 3.59871 -0.128366 0
M  V30 10974 C 1038.62 4.22737 -1.53667 0
M  V30 10975 C 1039.94 4.36702 0.545834 0
M  V30 10976 H 1037.05 0.735161 -0.0520293 0
M  V30 10977 H 1039.7 1.7185 -0.810411 0
M  V30 10978 H 1037.85 3.85963 0.443263 0
M  V30 10979 H 1039.52 4.07744 -2.15737 0
M  V30 10980 H 1037.76 3.80142 -2.08985 0
M  V30 10981 H 1038.43 5.31757 -1.48116 0
M  V30 10982 H 1040.91 4.16057 0.0596879 0
M  V30 10983 H 1039.78 5.46407 0.522557 0
M  V30 10984 H 1040.05 4.11483 1.6166 0
M  V30 10985 N 1039.1 0.374177 1.53094 0
M  V30 10986 C 1040.35 -0.212396 2.00981 0
M  V30 10987 C 1040.67 -1.48576 1.26293 0
M  V30 10988 O 1039.94 -1.92206 0.378642 0
M  V30 10989 H 1038.52 -0.0814763 0.742543 0
M  V30 10990 H 1041.19 0.502389 1.88314 0
M  V30 10991 H 1040.28 -0.433316 3.09077 0
M  V30 10992 N 1040.58 -1.57259 0.103575 0
M  V30 10993 C 1041.83 -1.94272 -0.557024 0
M  V30 10994 C 1042.15 -0.986739 -1.68192 0
M  V30 10995 O 1041.42 -0.0402818 -1.95859 0
M  V30 10996 H 1040 -0.717237 -0.208757 0
M  V30 10997 H 1042.66 -1.94167 0.168898 0
M  V30 10998 H 1041.76 -2.96914 -0.961691 0
M  V30 10999 N 1042.06 0.170153 -1.56679 0
M  V30 11000 C 1043.31 0.887906 -1.8233 0
M  V30 11001 C 1043.64 1.81845 -0.681608 0
M  V30 11002 O 1042.91 1.9191 0.316362 0
M  V30 11003 C 1043.2 1.68256 -3.18374 0
M  V30 11004 C 1043.05 0.775059 -4.43072 0
M  V30 11005 C 1044.37 2.65001 -3.51372 0
M  V30 11006 H 1041.49 0.32135 -0.663252 0
M  V30 11007 H 1044.13 0.154065 -1.89374 0
M  V30 11008 H 1042.28 2.30817 -3.12499 0
M  V30 11009 H 1043.95 0.162234 -4.61015 0
M  V30 11010 H 1042.2 0.0831809 -4.3372 0
M  V30 11011 H 1042.87 1.36661 -5.34816 0
M  V30 11012 H 1045.34 2.12566 -3.57708 0
M  V30 11013 H 1044.22 3.17667 -4.47637 0
M  V30 11014 H 1044.48 3.45255 -2.76136 0
M  V30 11015 N 1043.54 1.5137 0.438746 0
M  V30 11016 C 1044.47 1.75528 1.53987 0
M  V30 11017 C 1045.45 0.605067 1.58975 0
M  V30 11018 O 1046.63 0.847634 1.74725 0
M  V30 11019 C 1043.76 1.87904 2.92078 0
M  V30 11020 C 1042.72 3.0333 3.01951 0
M  V30 11021 C 1042.04 3.00888 4.42007 0
M  V30 11022 C 1043.34 4.43319 2.76163 0
M  V30 11023 H 1045.04 2.67728 1.34022 0
M  V30 11024 H 1042.58 1.28831 0.643308 0
M  V30 11025 H 1044.54 2.03388 3.69068 0
M  V30 11026 H 1043.26 0.923514 3.13271 0
M  V30 11027 H 1041.92 2.87549 2.274 0
M  V30 11028 H 1041.57 2.03116 4.60166 0
M  V30 11029 H 1041.27 3.78397 4.49544 0
M  V30 11030 H 1042.79 3.18464 5.20973 0
M  V30 11031 H 1044.21 4.59458 3.42887 0
M  V30 11032 H 1042.6 5.22523 2.9511 0
M  V30 11033 H 1043.67 4.53453 1.71779 0
M  V30 11034 N 1045.02 -0.694098 1.41492 0
M  V30 11035 C 1045.96 -1.82932 1.43662 0
M  V30 11036 C 1046.96 -1.66455 0.31449 0
M  V30 11037 O 1048.16 -1.73298 0.486589 0
M  V30 11038 H 1044.54 -0.602847 0.449533 0
M  V30 11039 H 1046.51 -1.78218 2.39334 0
M  V30 11040 C 1045.26 -3.20962 1.33712 0
M  V30 11041 H 1044.58 -3.34257 2.19345 0
M  V30 11042 H 1046.02 -4.00467 1.39291 0
M  V30 11043 C 1044.48 -3.36863 0.0496332 0
M  V30 11044 O 1045.01 -3.91371 -0.905093 0
M  V30 11045 N 1043.22 -2.90588 -0.0269299 0
M  V30 11046 H 1042.76 -2.46417 0.750752 0
M  V30 11047 H 1042.72 -3.01605 -0.887781 0
M  V30 11048 N 1046.49 -1.27344 -0.928501 0
M  V30 11049 C 1047.72 -1.16557 -1.7155 0
M  V30 11050 C 1048.14 0.274044 -1.86093 0
M  V30 11051 O 1047.5 1.19847 -1.36038 0
M  V30 11052 C 1047.55 -1.85332 -3.09329 0
M  V30 11053 O 1046.65 -1.15074 -3.9602 0
M  V30 11054 H 1046 -0.405423 -0.525859 0
M  V30 11055 H 1048.53 -1.68399 -1.16202 0
M  V30 11056 H 1048.54 -1.92659 -3.59648 0
M  V30 11057 H 1047.21 -2.90056 -2.98061 0
M  V30 11058 H 1045.79 -1.1581 -3.54461 0
M  V30 11059 N 1047.97 1.13488 -1.09353 0
M  V30 11060 C 1048.9 2.20988 -0.75409 0
M  V30 11061 C 1049.88 1.67977 0.267901 0
M  V30 11062 O 1051.07 1.93722 0.136128 0
M  V30 11063 C 1048.2 3.46869 -0.173042 0
M  V30 11064 C 1047.15 4.12965 -1.12446 0
M  V30 11065 C 1046.48 5.33163 -0.405157 0
M  V30 11066 C 1047.78 4.60388 -2.46658 0
M  V30 11067 H 1049.47 2.49639 -1.6529 0
M  V30 11068 H 1047.02 1.19987 -0.796182 0
M  V30 11069 H 1048.97 4.21331 0.0764988 0
M  V30 11070 H 1047.7 3.17611 0.760956 0
M  V30 11071 H 1046.35 3.40469 -1.35927 0
M  V30 11072 H 1046 5.00169 0.532955 0
M  V30 11073 H 1045.7 5.78332 -1.03952 0
M  V30 11074 H 1047.23 6.1038 -0.163899 0
M  V30 11075 H 1048.64 5.26276 -2.27389 0
M  V30 11076 H 1047.04 5.16294 -3.05876 0
M  V30 11077 H 1048.11 3.74949 -3.07476 0
M  V30 11078 N 1049.45 0.880621 1.30701 0
M  V30 11079 C 1050.7 0.495894 1.95922 0
M  V30 11080 C 1051.02 -0.957214 1.69889 0
M  V30 11081 O 1050.29 -1.67245 1.0201 0
M  V30 11082 H 1048.87 0.180394 0.724891 0
M  V30 11083 H 1051.53 1.12274 1.59313 0
M  V30 11084 H 1050.63 0.662508 3.04987 0
M  V30 11085 N 1050.93 -1.4397 0.641131 0
M  V30 11086 C 1051.88 -2.30728 -0.0577905 0
M  V30 11087 C 1052.85 -1.44059 -0.826819 0
M  V30 11088 O 1054.03 -1.72947 -0.805853 0
M  V30 11089 C 1051.17 -3.29478 -1.02657 0
M  V30 11090 C 1050.28 -4.31247 -0.254913 0
M  V30 11091 C 1049.42 -5.17085 -1.2164 0
M  V30 11092 C 1048.46 -6.10556 -0.434481 0
M  V30 11093 N 1047.6 -6.89059 -1.34694 0
M  V30 11094 H 1052.44 -2.8995 0.687953 0
M  V30 11095 H 1049.97 -1.4285 0.351029 0
M  V30 11096 H 1051.93 -3.85228 -1.60173 0
M  V30 11097 H 1050.56 -2.71932 -1.73933 0
M  V30 11098 H 1049.61 -3.77889 0.436338 0
M  V30 11099 H 1050.92 -4.97545 0.353642 0
M  V30 11100 H 1050.08 -5.77402 -1.86258 0
M  V30 11101 H 1048.82 -4.50885 -1.85888 0
M  V30 11102 H 1047.82 -5.49339 0.225125 0
M  V30 11103 H 1049.05 -6.78795 0.203415 0
M  V30 11104 H 1046.99 -6.25518 -1.97644 0
M  V30 11105 H 1046.91 -7.51833 -0.792657 0
M  V30 11106 H 1048.18 -7.5389 -1.98165 0
M  V30 11107 N 1052.41 -0.382291 -1.52893 0
M  V30 11108 C 1053.34 0.500194 -2.22651 0
M  V30 11109 C 1054.32 1.06969 -1.22459 0
M  V30 11110 O 1055.5 1.12267 -1.51422 0
M  V30 11111 C 1052.63 1.6917 -2.93427 0
M  V30 11112 C 1051.68 1.24811 -4.07829 0
M  V30 11113 S 1052.51 0.235466 -5.34982 0
M  V30 11114 C 1053.66 1.43292 -6.09277 0
M  V30 11115 H 1053.9 -0.0921913 -2.97157 0
M  V30 11116 H 1051.43 -0.16645 -1.535 0
M  V30 11117 H 1053.39 2.37507 -3.34815 0
M  V30 11118 H 1052.05 2.25537 -2.18613 0
M  V30 11119 H 1051.24 2.13754 -4.56426 0
M  V30 11120 H 1050.84 0.643744 -3.68418 0
M  V30 11121 H 1053.14 2.36118 -6.35023 0
M  V30 11122 H 1054.08 0.988003 -7.01173 0
M  V30 11123 H 1054.49 1.64655 -5.39953 0
M  V30 11124 N 1053.89 1.57202 -0.111913 0
M  V30 11125 C 1055.13 1.95239 0.548607 0
M  V30 11126 C 1055.46 0.994897 1.6678 0
M  V30 11127 O 1054.74 0.0308603 1.94476 0
M  V30 11128 C 1055.02 3.43271 1.08798 0
M  V30 11129 C 1054.88 4.49792 -0.0273064 0
M  V30 11130 C 1056.19 3.92989 1.98109 0
M  V30 11131 H 1053.31 0.709919 0.197951 0
M  V30 11132 H 1055.96 1.89087 -0.186036 0
M  V30 11133 H 1054.11 3.48644 1.71404 0
M  V30 11134 H 1055.78 4.56521 -0.662302 0
M  V30 11135 H 1054.02 4.28254 -0.691426 0
M  V30 11136 H 1054.69 5.50612 0.391201 0
M  V30 11137 H 1057.17 3.89875 1.45385 0
M  V30 11138 H 1056.04 4.97101 2.32769 0
M  V30 11139 H 1056.3 3.33267 2.90492 0
M  V30 11140 N 1055.36 -0.161842 1.56767 0
M  V30 11141 C 1056.31 -1.20506 1.93552 0
M  V30 11142 C 1057.3 -1.39317 0.804952 0
M  V30 11143 O 1058.49 -1.41129 1.06825 0
M  V30 11144 C 1055.62 -2.54227 2.30702 0
M  V30 11145 C 1054.7 -2.3907 3.50295 0
M  V30 11146 N 1055.1 -1.93642 4.67265 0
M  V30 11147 C 1053.39 -2.69868 3.55088 0
M  V30 11148 C 1054.09 -1.91175 5.49388 0
M  V30 11149 N 1053.07 -2.33935 4.90689 0
M  V30 11150 H 1056.87 -0.845687 2.8147 0
M  V30 11151 H 1054.39 -0.370034 1.58128 0
M  V30 11152 H 1056.38 -3.29623 2.55254 0
M  V30 11153 H 1055.04 -2.90959 1.44128 0
M  V30 11154 H 1056.05 -1.63834 4.91303 0
M  V30 11155 H 1052.73 -3.10574 2.79016 0
M  V30 11156 H 1054.12 -1.57671 6.53138 0
M  V30 11157 N 1056.84 -1.516 -0.430713 0
M  V30 11158 C 1057.77 -1.69594 -1.54177 0
M  V30 11159 C 1058.79 -0.576518 -1.5225 0
M  V30 11160 O 1059.98 -0.85104 -1.56906 0
M  V30 11161 C 1057.08 -1.70148 -2.93092 0
M  V30 11162 C 1056.25 -2.98782 -3.1945 0
M  V30 11163 C 1055.31 -2.91435 -4.38123 0
M  V30 11164 O 1054.33 -3.65372 -4.36454 0
M  V30 11165 N 1055.54 -2.0774 -5.42056 0
M  V30 11166 H 1058.3 -2.65442 -1.39143 0
M  V30 11167 H 1055.86 -1.49569 -0.61974 0
M  V30 11168 H 1057.85 -1.62793 -3.70514 0
M  V30 11169 H 1056.42 -0.818667 -3.0169 0
M  V30 11170 H 1055.64 -3.19954 -2.30267 0
M  V30 11171 H 1056.93 -3.83919 -3.33892 0
M  V30 11172 H 1056.33 -1.47059 -5.46251 0
M  V30 11173 H 1054.89 -2.06259 -6.18305 0
M  V30 11174 N 1058.32 0.686584 -1.41858 0
M  V30 11175 C 1059.57 1.44235 -1.40994 0
M  V30 11176 C 1059.88 1.95583 -0.0254979 0
M  V30 11177 O 1061.09 2.71294 0.10576 0
M  V30 11178 C 1059.54 2.6086 -2.47952 0
M  V30 11179 C 1059.15 2.16259 -3.92347 0
M  V30 11180 C 1060.9 3.38441 -2.56237 0
M  V30 11181 C 1058.8 3.29896 -4.90838 0
M  V30 11182 H 1057.73 0.54181 -0.524364 0
M  V30 11183 H 1060.38 0.744486 -1.67719 0
M  V30 11184 H 1058.77 3.32957 -2.14373 0
M  V30 11185 H 1059.94 1.51392 -4.35221 0
M  V30 11186 H 1058.25 1.51648 -3.87804 0
M  V30 11187 H 1060.85 4.23052 -3.27003 0
M  V30 11188 H 1061.19 3.84238 -1.6021 0
M  V30 11189 H 1061.73 2.73406 -2.88953 0
M  V30 11190 H 1058.47 2.89104 -5.88302 0
M  V30 11191 H 1057.99 3.93584 -4.52606 0
M  V30 11192 H 1059.67 3.95541 -5.12012 0
M  V30 11193 N 1059.8 1.27835 0.921735 0
M  V30 11194 C 1061.04 1.14523 1.67005 0
M  V30 11195 C 1061.37 -0.307776 1.92049 0
M  V30 11196 O 1060.63 -1.24103 1.51317 0
M  V30 11197 C 1060.93 1.88054 3.03925 0
M  V30 11198 C 1060.59 3.37886 2.9857 0
M  V30 11199 C 1059.25 3.78752 2.96817 0
M  V30 11200 C 1061.61 4.33462 2.89414 0
M  V30 11201 C 1058.93 5.13549 2.83698 0
M  V30 11202 C 1061.29 5.68322 2.77836 0
M  V30 11203 C 1059.95 6.08475 2.74436 0
M  V30 11204 H 1059.22 0.419068 0.611116 0
M  V30 11205 H 1061.87 1.58515 1.07449 0
M  V30 11206 H 1060.17 1.36587 3.67221 0
M  V30 11207 H 1061.87 1.75176 3.60714 0
M  V30 11208 H 1058.46 3.05389 3.00725 0
M  V30 11209 H 1062.64 4.02857 2.89862 0
M  V30 11210 H 1057.9 5.43796 2.79456 0
M  V30 11211 H 1062.07 6.42048 2.69717 0
M  V30 11212 H 1059.7 7.12877 2.64027 0
M  V30 11213 N 1061.28 -1.12907 1.09954 0
M  V30 11214 C 1062.52 -1.83941 0.837255 0
M  V30 11215 C 1062.84 -1.84234 -0.638984 0
M  V30 11216 O 1062.11 -1.30193 -1.46378 0
M  V30 11217 H 1060.69 -0.681115 0.306743 0
M  V30 11218 H 1063.36 -1.36743 1.38879 0
M  V30 11219 H 1062.45 -2.88289 1.19565 0
M  V30 11220 N 1062.75 -0.88754 -1.30232 0
M  V30 11221 C 1063.98 -0.521562 -2.00735 0
M  V30 11222 C 1064.4 0.883247 -1.66073 0
M  V30 11223 O 1063.76 1.58581 -0.878731 0
M  V30 11224 C 1063.81 -0.706521 -3.53611 0
M  V30 11225 O 1062.91 0.246447 -4.11663 0
M  V30 11226 H 1062.25 -0.205216 -0.631492 0
M  V30 11227 H 1064.78 -1.19579 -1.66018 0
M  V30 11228 H 1064.79 -0.606501 -4.03467 0
M  V30 11229 H 1063.47 -1.73076 -3.78177 0
M  V30 11230 H 1062.05 0.0999062 -3.72766 0
M  V30 11231 N 1064.23 1.43628 -0.648757 0
M  V30 11232 C 1065.2 2.29172 0.0360713 0
M  V30 11233 C 1066.2 1.41974 0.754976 0
M  V30 11234 O 1067.39 1.63654 0.5969 0
M  V30 11235 C 1064.52 3.23942 1.0618 0
M  V30 11236 H 1065.71 2.91214 -0.716544 0
M  V30 11237 H 1063.26 1.50833 -0.409759 0
M  V30 11238 H 1064 2.66786 1.8438 0
M  V30 11239 H 1063.78 3.88223 0.550016 0
M  V30 11240 H 1065.27 3.8816 1.54019 0
M  V30 11241 N 1065.71 0.390394 1.52688 0
M  V30 11242 C 1066.94 -0.191207 2.05713 0
M  V30 11243 C 1067.35 -1.40973 1.26188 0
M  V30 11244 O 1066.69 -1.81202 0.301938 0
M  V30 11245 C 1066.75 -0.624794 3.54029 0
M  V30 11246 C 1066.42 0.480413 4.54468 0
M  V30 11247 C 1067.41 1.33816 5.02384 0
M  V30 11248 C 1065.1 0.647754 4.98106 0
M  V30 11249 C 1067.09 2.34836 5.92563 0
M  V30 11250 C 1064.78 1.66129 5.88085 0
M  V30 11251 C 1065.78 2.51001 6.35206 0
M  V30 11252 O 1065.47 3.50622 7.23408 0
M  V30 11253 H 1065.2 -0.032221 0.675232 0
M  V30 11254 H 1067.75 0.554431 1.97776 0
M  V30 11255 H 1065.98 -1.42243 3.59589 0
M  V30 11256 H 1067.67 -1.13219 3.8979 0
M  V30 11257 H 1068.44 1.22019 4.694 0
M  V30 11258 H 1064.32 -0.00314511 4.61 0
M  V30 11259 H 1067.86 3.01117 6.29265 0
M  V30 11260 H 1063.76 1.77964 6.20483 0
M  V30 11261 H 1064.53 3.46644 7.41472 0
M  V30 11262 N 1067.19 -1.57141 0.120249 0
M  V30 11263 C 1068.42 -1.99589 -0.545136 0
M  V30 11264 C 1068.83 -0.999951 -1.60145 0
M  V30 11265 O 1068.19 0.00698897 -1.82499 0
M  V30 11266 C 1068.24 -3.42038 -1.17014 0
M  V30 11267 O 1067.96 -4.37822 -0.156044 0
M  V30 11268 C 1069.46 -3.99625 -1.91872 0
M  V30 11269 H 1066.68 -0.655318 -0.144222 0
M  V30 11270 H 1069.23 -2.0345 0.206955 0
M  V30 11271 H 1067.38 -3.39113 -1.873 0
M  V30 11272 H 1067.79 -5.20937 -0.610317 0
M  V30 11273 H 1069.27 -5.01374 -2.30928 0
M  V30 11274 H 1069.75 -3.38836 -2.7944 0
M  V30 11275 H 1070.35 -4.061 -1.26345 0
M  V30 11276 N 1068.67 0.153526 -1.5685 0
M  V30 11277 C 1069.63 1.17362 -1.96873 0
M  V30 11278 C 1070.63 1.36219 -0.854456 0
M  V30 11279 O 1071.82 1.33322 -1.1212 0
M  V30 11280 C 1068.95 2.53523 -2.27901 0
M  V30 11281 H 1070.14 0.830432 -2.88173 0
M  V30 11282 H 1067.7 0.396633 -1.51184 0
M  V30 11283 H 1068.43 2.92824 -1.39371 0
M  V30 11284 H 1068.22 2.41198 -3.09137 0
M  V30 11285 H 1069.71 3.27006 -2.59725 0
M  V30 11286 N 1070.14 1.51827 0.422667 0
M  V30 11287 C 1071.07 1.77152 1.52117 0
M  V30 11288 C 1072.06 0.621895 1.58324 0
M  V30 11289 O 1073.24 0.866118 1.73816 0
M  V30 11290 C 1070.37 1.90991 2.90068 0
M  V30 11291 C 1069.32 3.06516 2.98717 0
M  V30 11292 C 1068.65 3.05559 4.38791 0
M  V30 11293 C 1069.95 4.46223 2.71445 0
M  V30 11294 H 1071.64 2.69135 1.31175 0
M  V30 11295 H 1069.19 1.29507 0.629607 0
M  V30 11296 H 1071.14 2.07291 3.6689 0
M  V30 11297 H 1069.87 0.956688 3.12274 0
M  V30 11298 H 1068.53 2.89945 2.24338 0
M  V30 11299 H 1068.17 2.07985 4.57986 0
M  V30 11300 H 1067.87 3.83144 4.45505 0
M  V30 11301 H 1069.4 3.23971 5.17566 0
M  V30 11302 H 1070.81 4.63069 3.37994 0
M  V30 11303 H 1069.21 5.25623 2.89552 0
M  V30 11304 H 1070.28 4.5525 1.6696 0
M  V30 11305 N 1071.62 -0.679052 1.4222 0
M  V30 11306 C 1072.87 -1.43912 1.42463 0
M  V30 11307 C 1073.2 -1.9446 0.0395574 0
M  V30 11308 O 1072.45 -1.71019 -0.951365 0
M  V30 11309 C 1072.75 -2.65528 2.39227 0
M  V30 11310 C 1072.42 -2.33545 3.85704 0
M  V30 11311 C 1071.08 -2.24534 4.25603 0
M  V30 11312 C 1073.43 -2.07496 4.78116 0
M  V30 11313 C 1070.76 -1.87592 5.55901 0
M  V30 11314 C 1073.11 -1.72059 6.08752 0
M  V30 11315 C 1071.78 -1.61555 6.47654 0
M  V30 11316 H 1071.05 -0.52661 0.521309 0
M  V30 11317 H 1073.69 -0.774661 1.75132 0
M  V30 11318 H 1072 -3.36985 1.9987 0
M  V30 11319 H 1073.69 -3.23702 2.36681 0
M  V30 11320 H 1070.28 -2.4146 3.54112 0
M  V30 11321 H 1074.47 -2.13393 4.48082 0
M  V30 11322 H 1069.72 -1.78026 5.84908 0
M  V30 11323 H 1073.9 -1.50926 6.79849 0
M  V30 11324 H 1071.53 -1.32699 7.48529 0
M  V30 11325 N 1073.1 -1.28322 -0.914942 0
M  V30 11326 C 1074.33 -1.1837 -1.70304 0
M  V30 11327 C 1074.75 0.254291 -1.86373 0
M  V30 11328 O 1074.11 1.18398 -1.37301 0
M  V30 11329 C 1074.16 -1.88603 -3.07346 0
M  V30 11330 O 1073.26 -1.19268 -3.94777 0
M  V30 11331 H 1072.6 -0.410978 -0.52153 0
M  V30 11332 H 1075.13 -1.69622 -1.14409 0
M  V30 11333 H 1075.14 -1.96463 -3.57584 0
M  V30 11334 H 1073.82 -2.93201 -2.94967 0
M  V30 11335 H 1072.39 -1.19563 -3.53212 0
M  V30 11336 N 1074.58 1.12322 -1.10551 0
M  V30 11337 C 1075.83 1.83495 -0.846998 0
M  V30 11338 C 1076.15 1.8457 0.629205 0
M  V30 11339 O 1075.42 1.30968 1.45686 0
M  V30 11340 H 1074 0.679479 -0.310351 0
M  V30 11341 H 1076.66 1.36004 -1.39602 0
M  V30 11342 H 1075.76 2.87651 -1.21092 0
M  V30 11343 N 1076.06 0.894434 1.2976 0
M  V30 11344 C 1077.3 0.518435 1.96061 0
M  V30 11345 C 1077.64 -0.931882 1.70381 0
M  V30 11346 O 1076.91 -1.65988 1.01381 0
M  V30 11347 C 1077.19 0.80519 3.50982 0
M  V30 11348 C 1077.05 2.30683 3.86142 0
M  V30 11349 C 1078.37 0.288096 4.39156 0
M  V30 11350 H 1075.48 0.18983 0.712133 0
M  V30 11351 H 1078.13 1.12016 1.53468 0
M  V30 11352 H 1076.28 0.293071 3.87393 0
M  V30 11353 H 1077.95 2.88808 3.59705 0
M  V30 11354 H 1076.19 2.76968 3.33873 0
M  V30 11355 H 1076.86 2.45805 4.94251 0
M  V30 11356 H 1079.34 0.726547 4.09708 0
M  V30 11357 H 1078.21 0.517985 5.4645 0
M  V30 11358 H 1078.48 -0.811018 4.34597 0
M  V30 11359 N 1077.53 -1.43282 0.656365 0
M  V30 11360 C 1078.76 -2.06641 0.177245 0
M  V30 11361 C 1079.18 -1.48893 -1.14946 0
M  V30 11362 O 1078.54 -0.600099 -1.7108 0
M  V30 11363 C 1078.59 -3.60453 0.10299 0
M  V30 11364 O 1077.69 -4.01687 -0.933895 0
M  V30 11365 H 1077.04 -0.656978 0.096314 0
M  V30 11366 H 1079.57 -1.83733 0.900178 0
M  V30 11367 H 1079.58 -4.07923 -0.079291 0
M  V30 11368 H 1078.25 -4.01861 1.07147 0
M  V30 11369 H 1076.83 -3.65801 -0.724148 0
M  V30 11370 N 1079.01 -0.398486 -1.52479 0
M  V30 11371 C 1080.26 0.17345 -2.02659 0
M  V30 11372 C 1080.61 1.43702 -1.27935 0
M  V30 11373 O 1079.91 1.87916 -0.37392 0
M  V30 11374 C 1080.1 0.485909 -3.54081 0
M  V30 11375 C 1079.93 -0.745833 -4.43472 0
M  V30 11376 C 1078.7 -1.26785 -4.89136 0
M  V30 11377 C 1080.9 -1.62085 -4.88091 0
M  V30 11378 N 1078.88 -2.45619 -5.62623 0
M  V30 11379 C 1080.25 -2.65552 -5.60252 0
M  V30 11380 C 1082.31 -1.63986 -4.7012 0
M  V30 11381 C 1081.01 -3.70818 -6.1635 0
M  V30 11382 C 1083.04 -2.68164 -5.27107 0
M  V30 11383 C 1082.4 -3.70353 -5.99181 0
M  V30 11384 H 1078.5 0.0253159 -0.78159 0
M  V30 11385 H 1081.08 -0.550442 -1.86757 0
M  V30 11386 H 1079.25 1.17885 -3.70078 0
M  V30 11387 H 1080.98 1.0458 -3.90954 0
M  V30 11388 H 1077.74 -0.827472 -4.66315 0
M  V30 11389 H 1078.16 -3.05771 -6.04014 0
M  V30 11390 H 1082.8 -0.863253 -4.13893 0
M  V30 11391 H 1080.52 -4.49341 -6.71653 0
M  V30 11392 H 1084.11 -2.7053 -5.15077 0
M  V30 11393 H 1082.99 -4.49642 -6.42489 0
M  V30 11394 N 1080.49 1.57075 -0.12858 0
M  V30 11395 C 1081.74 1.94695 0.526952 0
M  V30 11396 C 1082.05 1.01482 1.67215 0
M  V30 11397 O 1083.26 1.28606 2.39108 0
M  V30 11398 C 1081.72 3.4605 0.988801 0
M  V30 11399 C 1081.32 4.47816 -0.128457 0
M  V30 11400 C 1083.07 3.92572 1.61517 0
M  V30 11401 C 1080.97 5.9036 0.350628 0
M  V30 11402 H 1079.9 0.726819 0.200623 0
M  V30 11403 H 1082.56 1.82295 -0.209972 0
M  V30 11404 H 1080.94 3.53718 1.78043 0
M  V30 11405 H 1082.11 4.51826 -0.904976 0
M  V30 11406 H 1080.43 4.11103 -0.662075 0
M  V30 11407 H 1083.02 4.96493 1.98491 0
M  V30 11408 H 1083.37 3.33085 2.49721 0
M  V30 11409 H 1083.9 3.87744 0.888768 0
M  V30 11410 H 1080.64 6.53624 -0.495592 0
M  V30 11411 H 1080.16 5.89749 1.09342 0
M  V30 11412 H 1081.84 6.41926 0.808717 0
M  V30 11413 N 1081.97 -0.145205 1.5693 0
M  V30 11414 C 1082.9 -1.20881 1.93553 0
M  V30 11415 C 1083.88 -1.41467 0.801612 0
M  V30 11416 O 1085.06 -1.5605 1.05739 0
M  V30 11417 C 1082.19 -2.5674 2.20912 0
M  V30 11418 C 1081.24 -2.52738 3.43549 0
M  V30 11419 S 1082.07 -1.99257 4.97048 0
M  V30 11420 C 1083.23 -3.36842 5.27531 0
M  V30 11421 H 1083.46 -0.896362 2.83465 0
M  V30 11422 H 1080.99 -0.350894 1.5036 0
M  V30 11423 H 1082.95 -3.34923 2.37354 0
M  V30 11424 H 1081.61 -2.85174 1.31661 0
M  V30 11425 H 1080.8 -3.52753 3.59974 0
M  V30 11426 H 1080.41 -1.82665 3.26358 0
M  V30 11427 H 1082.7 -4.32958 5.21108 0
M  V30 11428 H 1083.64 -3.25268 6.28973 0
M  V30 11429 H 1084.05 -3.3406 4.55043 0
M  V30 11430 N 1083.45 -1.52049 -0.414609 0
M  V30 11431 C 1084.39 -1.74998 -1.5048 0
M  V30 11432 C 1085.36 -0.592251 -1.55182 0
M  V30 11433 O 1086.55 -0.829203 -1.7184 0
M  V30 11434 C 1083.69 -1.90157 -2.87983 0
M  V30 11435 C 1082.8 -3.17789 -2.92633 0
M  V30 11436 C 1081.94 -3.23411 -4.21401 0
M  V30 11437 C 1080.98 -4.45267 -4.20004 0
M  V30 11438 N 1080.11 -4.48312 -5.40334 0
M  V30 11439 H 1084.95 -2.68046 -1.30212 0
M  V30 11440 H 1082.49 -1.32824 -0.632154 0
M  V30 11441 H 1084.45 -1.96929 -3.67797 0
M  V30 11442 H 1083.08 -1.00496 -3.06758 0
M  V30 11443 H 1082.13 -3.20216 -2.05343 0
M  V30 11444 H 1083.44 -4.07634 -2.87465 0
M  V30 11445 H 1082.6 -3.29224 -5.09604 0
M  V30 11446 H 1081.34 -2.31495 -4.29257 0
M  V30 11447 H 1080.34 -4.39606 -3.30192 0
M  V30 11448 H 1081.57 -5.38472 -4.13793 0
M  V30 11449 H 1079.51 -3.59277 -5.48868 0
M  V30 11450 H 1079.43 -5.31994 -5.37139 0
M  V30 11451 H 1080.7 -4.58347 -6.30506 0
M  V30 11452 N 1084.93 0.6715 -1.42579 0
M  V30 11453 C 1086.17 1.42731 -1.42516 0
M  V30 11454 C 1086.49 1.95545 -0.0462407 0
M  V30 11455 O 1087.69 2.71391 0.0769798 0
M  V30 11456 C 1086.15 2.58215 -2.50705 0
M  V30 11457 C 1085.76 2.12086 -3.94618 0
M  V30 11458 C 1087.5 3.35705 -2.59813 0
M  V30 11459 C 1085.41 3.24672 -4.9431 0
M  V30 11460 H 1084.34 0.536218 -0.530081 0
M  V30 11461 H 1086.99 0.726655 -1.68499 0
M  V30 11462 H 1085.37 3.30665 -2.17892 0
M  V30 11463 H 1086.55 1.46768 -4.36802 0
M  V30 11464 H 1084.86 1.47526 -3.89391 0
M  V30 11465 H 1087.46 4.1956 -3.31472 0
M  V30 11466 H 1087.8 3.82517 -1.64276 0
M  V30 11467 H 1088.33 2.70326 -2.91836 0
M  V30 11468 H 1085.07 2.82848 -5.91335 0
M  V30 11469 H 1084.59 3.88761 -4.56755 0
M  V30 11470 H 1086.27 3.90088 -5.16179 0
M  V30 11471 N 1086.4 1.28806 0.908124 0
M  V30 11472 C 1087.65 1.16058 1.65454 0
M  V30 11473 C 1087.97 -0.290057 1.92831 0
M  V30 11474 O 1087.24 -1.20001 1.54843 0
M  V30 11475 H 1085.82 0.426522 0.61326 0
M  V30 11476 H 1088.48 1.61614 1.08936 0
M  V30 11477 H 1087.58 1.70437 2.61453 0
M  V30 11478 N 1087.88 -1.11734 1.11145 0
M  V30 11479 C 1089.13 -1.82766 0.853194 0
M  V30 11480 C 1089.44 -1.85408 -0.623168 0
M  V30 11481 O 1090.65 -2.52509 -0.997574 0
M  V30 11482 C 1089.11 -3.28215 1.47658 0
M  V30 11483 C 1088.71 -3.33911 2.98676 0
M  V30 11484 C 1090.46 -4.04168 1.29803 0
M  V30 11485 C 1088.36 -4.73739 3.54013 0
M  V30 11486 H 1087.29 -0.684807 0.315523 0
M  V30 11487 H 1089.95 -1.25756 1.33633 0
M  V30 11488 H 1088.33 -3.85138 0.921116 0
M  V30 11489 H 1089.5 -2.86887 3.606 0
M  V30 11490 H 1087.82 -2.71437 3.15771 0
M  V30 11491 H 1090.41 -5.07429 1.68582 0
M  V30 11492 H 1090.76 -4.15606 0.240302 0
M  V30 11493 H 1091.29 -3.53623 1.82196 0
M  V30 11494 H 1088.03 -4.67497 4.59485 0
M  V30 11495 H 1087.55 -5.21186 2.9686 0
M  V30 11496 H 1089.23 -5.42691 3.52271 0
M  V30 11497 N 1089.36 -0.901303 -1.29284 0
M  V30 11498 C 1090.61 -0.527 -1.95108 0
M  V30 11499 C 1090.93 0.930065 -1.71391 0
M  V30 11500 O 1090.2 1.65601 -1.04658 0
M  V30 11501 H 1088.78 -0.191903 -0.721929 0
M  V30 11502 H 1091.44 -1.14795 -1.57506 0
M  V30 11503 H 1090.54 -0.710945 -3.03895 0
M  V30 11504 N 1090.84 1.42931 -0.663954 0
M  V30 11505 C 1092.08 2.01982 -0.182007 0
M  V30 11506 C 1092.42 1.52323 1.20463 0
M  V30 11507 O 1091.69 0.720834 1.80649 0
M  V30 11508 C 1091.97 3.59518 -0.204671 0
M  V30 11509 C 1091.83 4.19382 -1.62599 0
M  V30 11510 C 1093.15 4.37762 0.45308 0
M  V30 11511 H 1090.27 0.733892 -0.0676115 0
M  V30 11512 H 1092.91 1.70092 -0.84668 0
M  V30 11513 H 1091.06 3.86816 0.361295 0
M  V30 11514 H 1092.73 4.03076 -2.24337 0
M  V30 11515 H 1090.97 3.75623 -2.17001 0
M  V30 11516 H 1091.64 5.28496 -1.59362 0
M  V30 11517 H 1094.12 4.1609 -0.0285774 0
M  V30 11518 H 1093 5.47392 0.406538 0
M  V30 11519 H 1093.26 4.1482 1.52895 0
M  V30 11520 N 1092.32 0.406567 1.52266 0
M  V30 11521 C 1093.25 -0.411314 2.29849 0
M  V30 11522 C 1094.23 -1.04838 1.33952 0
M  V30 11523 O 1095.41 -1.05788 1.62857 0
M  V30 11524 C 1092.54 -1.52961 3.11802 0
M  V30 11525 C 1091.5 -1.01768 4.15725 0
M  V30 11526 C 1090.82 -2.22938 4.86007 0
M  V30 11527 C 1092.12 -0.073515 5.22248 0
M  V30 11528 H 1093.82 0.236054 2.98468 0
M  V30 11529 H 1091.36 0.114968 1.4354 0
M  V30 11530 H 1093.31 -2.10874 3.64843 0
M  V30 11531 H 1092.04 -2.20482 2.40947 0
M  V30 11532 H 1090.7 -0.46097 3.6369 0
M  V30 11533 H 1090.35 -2.89007 4.11684 0
M  V30 11534 H 1090.05 -1.89338 5.5626 0
M  V30 11535 H 1091.57 -2.81462 5.41859 0
M  V30 11536 H 1092.98 -0.561367 5.70545 0
M  V30 11537 H 1091.38 0.173551 5.99849 0
M  V30 11538 H 1092.45 0.872524 4.76985 0
M  V30 11539 N 1093.79 -1.57004 0.136909 0
M  V30 11540 C 1094.72 -2.19262 -0.802902 0
M  V30 11541 C 1095.71 -1.13786 -1.26439 0
M  V30 11542 O 1096.89 -1.42091 -1.32377 0
M  V30 11543 C 1094.02 -2.80624 -2.04615 0
M  V30 11544 C 1092.97 -3.91839 -1.72181 0
M  V30 11545 C 1092.3 -4.4009 -3.03686 0
M  V30 11546 C 1093.6 -5.13095 -0.976249 0
M  V30 11547 H 1095.29 -2.98049 -0.28406 0
M  V30 11548 H 1092.84 -1.43364 -0.135189 0
M  V30 11549 H 1094.79 -3.22842 -2.70834 0
M  V30 11550 H 1093.52 -1.99153 -2.58855 0
M  V30 11551 H 1092.18 -3.50224 -1.08344 0
M  V30 11552 H 1091.82 -3.55454 -3.55896 0
M  V30 11553 H 1091.52 -5.15098 -2.82751 0
M  V30 11554 H 1093.05 -4.84971 -3.70993 0
M  V30 11555 H 1094.46 -5.5222 -1.54033 0
M  V30 11556 H 1092.86 -5.93801 -0.867214 0
M  V30 11557 H 1093.93 -4.84888 0.0338488 0
M  V30 11558 N 1095.27 0.136881 -1.57004 0
M  V30 11559 C 1096.5 0.862436 -1.88068 0
M  V30 11560 C 1096.92 1.74274 -0.726227 0
M  V30 11561 O 1096.27 1.79956 0.30366 0
M  V30 11562 C 1096.32 1.71076 -3.18458 0
M  V30 11563 O 1096.04 0.865918 -4.29457 0
M  V30 11564 C 1097.55 2.54302 -3.63105 0
M  V30 11565 H 1094.77 0.248865 -0.623143 0
M  V30 11566 H 1097.31 0.126633 -2.04108 0
M  V30 11567 H 1095.46 2.39951 -3.04142 0
M  V30 11568 H 1095.88 1.4493 -5.04079 0
M  V30 11569 H 1097.35 3.09384 -4.57149 0
M  V30 11570 H 1097.83 3.3082 -2.88886 0
M  V30 11571 H 1098.44 1.907 -3.80149 0
M  V30 11572 N 1096.75 1.52266 0.40654 0
M  V30 11573 C 1098 1.67654 1.15168 0
M  V30 11574 C 1098.35 0.402751 1.88137 0
M  V30 11575 O 1097.64 -0.60291 1.81867 0
M  V30 11576 C 1097.84 2.8389 2.1712 0
M  V30 11577 C 1097.67 4.2245 1.54162 0
M  V30 11578 C 1096.44 4.87937 1.31322 0
M  V30 11579 C 1098.64 5.04462 1.00112 0
M  V30 11580 N 1096.62 6.10525 0.642842 0
M  V30 11581 C 1097.99 6.18307 0.457805 0
M  V30 11582 C 1100.04 4.89775 0.89583 0
M  V30 11583 C 1098.75 7.19074 -0.180477 0
M  V30 11584 C 1100.77 5.90777 0.271397 0
M  V30 11585 C 1100.13 7.03915 -0.261225 0
M  V30 11586 H 1096.23 0.667121 0.408012 0
M  V30 11587 H 1098.82 1.89577 0.443695 0
M  V30 11588 H 1096.99 2.63578 2.85274 0
M  V30 11589 H 1098.72 2.88302 2.84014 0
M  V30 11590 H 1095.48 4.46345 1.58344 0
M  V30 11591 H 1095.9 6.76223 0.324204 0
M  V30 11592 H 1100.54 4.0253 1.29344 0
M  V30 11593 H 1098.26 8.05942 -0.590141 0
M  V30 11594 H 1101.85 5.81485 0.191417 0
M  V30 11595 H 1100.73 7.80731 -0.736791 0
M  V30 11596 N 1098.23 -0.663929 1.42933 0
M  V30 11597 C 1099.48 -1.41973 1.43271 0
M  V30 11598 C 1099.79 -1.95518 0.0566103 0
M  V30 11599 O 1101 -2.71428 -0.0625862 0
M  V30 11600 C 1099.45 -2.56882 2.52071 0
M  V30 11601 C 1099.06 -2.0999 3.95737 0
M  V30 11602 C 1100.8 -3.34322 2.61589 0
M  V30 11603 C 1098.71 -3.22046 4.96025 0
M  V30 11604 H 1097.64 -0.5334 0.532917 0
M  V30 11605 H 1100.29 -0.717709 1.68882 0
M  V30 11606 H 1098.67 -3.29504 2.19643 0
M  V30 11607 H 1099.85 -1.44449 4.37574 0
M  V30 11608 H 1098.16 -1.45459 3.90168 0
M  V30 11609 H 1100.76 -4.17796 3.33692 0
M  V30 11610 H 1101.1 -3.8164 1.66302 0
M  V30 11611 H 1101.64 -2.68775 2.93266 0
M  V30 11612 H 1098.38 -2.79708 5.92827 0
M  V30 11613 H 1097.9 -3.86333 4.5881 0
M  V30 11614 H 1099.57 -3.87345 5.1824 0
M  V30 11615 N 1099.71 -1.29285 -0.901281 0
M  V30 11616 C 1100.95 -1.16934 -1.64836 0
M  V30 11617 C 1101.28 0.279826 -1.92982 0
M  V30 11618 O 1100.55 1.19179 -1.55478 0
M  V30 11619 H 1099.13 -0.429768 -0.61099 0
M  V30 11620 H 1101.79 -1.62189 -1.08077 0
M  V30 11621 H 1100.88 -1.71821 -2.60545 0
M  V30 11622 N 1101.18 1.11143 -1.11736 0
M  V30 11623 C 1102.11 2.19339 -0.800795 0
M  V30 11624 C 1103.1 1.68508 0.23221 0
M  V30 11625 O 1104.28 1.93967 0.0950063 0
M  V30 11626 C 1101.41 3.46424 -0.246579 0
M  V30 11627 C 1100.36 4.10487 -1.21181 0
M  V30 11628 C 1099.69 5.32183 -0.518158 0
M  V30 11629 C 1100.99 4.55052 -2.56368 0
M  V30 11630 H 1102.68 2.46077 -1.70548 0
M  V30 11631 H 1100.23 1.18271 -0.821454 0
M  V30 11632 H 1102.18 4.21398 -0.0128889 0
M  V30 11633 H 1100.91 3.19154 0.693415 0
M  V30 11634 H 1099.57 3.3751 -1.43118 0
M  V30 11635 H 1099.21 5.01187 0.426742 0
M  V30 11636 H 1098.91 5.75997 -1.16196 0
M  V30 11637 H 1100.44 6.09895 -0.293333 0
M  V30 11638 H 1101.85 5.21335 -2.38501 0
M  V30 11639 H 1100.25 5.0969 -3.16758 0
M  V30 11640 H 1101.32 3.68343 -3.1536 0
M  V30 11641 N 1102.66 0.908147 1.28804 0
M  V30 11642 C 1103.61 0.382315 2.29437 0
M  V30 11643 C 1104.6 -0.523033 1.61123 0
M  V30 11644 O 1105.81 -0.404898 1.75387 0
M  V30 11645 H 1102.19 0.105022 0.74463 0
M  V30 11646 H 1104.16 1.24425 2.71221 0
M  V30 11647 C 1102.91 -0.367475 3.45753 0
M  V30 11648 H 1102.23 0.319957 3.98518 0
M  V30 11649 H 1103.67 -0.700131 4.1818 0
M  V30 11650 C 1102.13 -1.57329 2.97908 0
M  V30 11651 O 1102.66 -2.67248 2.99902 0
M  V30 11652 N 1100.86 -1.41835 2.53636 0
M  V30 11653 H 1100.41 -0.524099 2.52212 0
M  V30 11654 H 1100.37 -2.22645 2.21984 0
M  V30 11655 N 1104.14 -1.42577 0.671525 0
M  V30 11656 C 1105.37 -2.06442 0.199152 0
M  V30 11657 C 1105.79 -1.50104 -1.1336 0
M  V30 11658 O 1105.15 -0.618211 -1.70434 0
M  V30 11659 C 1105.2 -3.60323 0.141215 0
M  V30 11660 O 1104.3 -4.02655 -0.891238 0
M  V30 11661 H 1103.64 -0.655919 0.103277 0
M  V30 11662 H 1106.17 -1.82768 0.919614 0
M  V30 11663 H 1106.18 -4.07984 -0.0360209 0
M  V30 11664 H 1104.86 -4.00702 1.11403 0
M  V30 11665 H 1103.43 -3.66549 -0.685309 0
M  V30 11666 N 1105.62 -0.414636 -1.52048 0
M  V30 11667 C 1106.57 0.408141 -2.27163 0
M  V30 11668 C 1107.54 1.03636 -1.29803 0
M  V30 11669 O 1108.72 1.05959 -1.58674 0
M  V30 11670 C 1105.86 1.51588 -3.10024 0
M  V30 11671 C 1104.97 0.908034 -4.22349 0
M  V30 11672 C 1104.11 1.98893 -4.9256 0
M  V30 11673 C 1103.15 1.35831 -5.96839 0
M  V30 11674 N 1102.28 2.37958 -6.60545 0
M  V30 11675 H 1107.12 -0.238822 -2.97041 0
M  V30 11676 H 1104.66 -0.129614 -1.46528 0
M  V30 11677 H 1106.62 2.16916 -3.56375 0
M  V30 11678 H 1105.25 2.13279 -2.42305 0
M  V30 11679 H 1104.3 0.143652 -3.80129 0
M  V30 11680 H 1105.61 0.407426 -4.97133 0
M  V30 11681 H 1104.77 2.71935 -5.42343 0
M  V30 11682 H 1103.51 2.5232 -4.17356 0
M  V30 11683 H 1102.51 0.613246 -5.46369 0
M  V30 11684 H 1103.74 0.831655 -6.73988 0
M  V30 11685 H 1101.68 2.90508 -5.88167 0
M  V30 11686 H 1101.6 1.92725 -7.31022 0
M  V30 11687 H 1102.87 3.10553 -7.14966 0
M  V30 11688 N 1107.1 1.56929 -0.145233 0
M  V30 11689 C 1108.04 2.17958 0.812237 0
M  V30 11690 C 1109.04 1.13608 1.25657 0
M  V30 11691 O 1110.24 1.31861 1.22526 0
M  V30 11692 H 1106.62 0.697876 0.28013 0
M  V30 11693 H 1108.59 2.97146 0.273297 0
M  V30 11694 C 1107.34 2.81418 2.04203 0
M  V30 11695 H 1106.66 3.61427 1.70911 0
M  V30 11696 H 1108.1 3.27624 2.69144 0
M  V30 11697 C 1106.56 1.79835 2.84888 0
M  V30 11698 O 1107.09 1.26773 3.81171 0
M  V30 11699 N 1105.3 1.49179 2.49387 0
M  V30 11700 H 1104.84 1.9252 1.71154 0
M  V30 11701 H 1104.8 0.81458 3.03664 0
M  V30 11702 N 1108.58 -0.128553 1.57075 0
M  V30 11703 C 1109.8 -0.85245 1.88523 0
M  V30 11704 C 1110.22 -1.73886 0.735459 0
M  V30 11705 O 1109.58 -1.80114 -0.294113 0
M  V30 11706 C 1109.63 -1.69384 3.19361 0
M  V30 11707 O 1109.35 -0.84313 4.2991 0
M  V30 11708 C 1110.85 -2.52373 3.64449 0
M  V30 11709 H 1108.07 -0.245556 0.624454 0
M  V30 11710 H 1110.61 -0.115807 2.04172 0
M  V30 11711 H 1108.77 -2.38335 3.0541 0
M  V30 11712 H 1109.18 -1.42255 5.0484 0
M  V30 11713 H 1110.66 -3.06955 4.58784 0
M  V30 11714 H 1111.13 -3.29283 2.90636 0
M  V30 11715 H 1111.74 -1.88681 3.81155 0
M  V30 11716 N 1110.05 -1.5248 -0.398459 0
M  V30 11717 C 1111.28 -1.71221 -1.17039 0
M  V30 11718 C 1111.7 -0.425515 -1.83224 0
M  V30 11719 O 1111.06 0.617938 -1.70444 0
M  V30 11720 C 1111.11 -2.8562 -2.20121 0
M  V30 11721 O 1110.21 -2.51934 -3.26501 0
M  V30 11722 H 1109.55 -0.569654 -0.34116 0
M  V30 11723 H 1112.08 -1.99231 -0.465652 0
M  V30 11724 H 1112.09 -3.10842 -2.64275 0
M  V30 11725 H 1110.77 -3.78969 -1.71334 0
M  V30 11726 H 1109.35 -2.3742 -2.87552 0
M  V30 11727 N 1111.53 0.65634 -1.43283 0
M  V30 11728 C 1112.46 1.78122 -1.42646 0
M  V30 11729 C 1113.44 1.60024 -0.288301 0
M  V30 11730 O 1114.63 1.82249 -0.481407 0
M  V30 11731 C 1111.75 3.1538 -1.23505 0
M  V30 11732 C 1110.8 3.52186 -2.40556 0
M  V30 11733 S 1111.63 3.52515 -4.03105 0
M  V30 11734 C 1112.79 4.92435 -3.8634 0
M  V30 11735 H 1113.02 1.78391 -2.37832 0
M  V30 11736 H 1110.55 0.828699 -1.30276 0
M  V30 11737 H 1112.51 3.94598 -1.13148 0
M  V30 11738 H 1111.17 3.12676 -0.298726 0
M  V30 11739 H 1110.37 4.52002 -2.22959 0
M  V30 11740 H 1109.97 2.80373 -2.47522 0
M  V30 11741 H 1112.26 5.81011 -3.48472 0
M  V30 11742 H 1113.2 5.15082 -4.85897 0
M  V30 11743 H 1113.61 4.65823 -3.18857 0
M  V30 11744 N 1113.01 1.29761 0.894412 0
M  V30 11745 C 1114.23 1.21064 1.68399 0
M  V30 11746 C 1114.66 -0.224608 1.86754 0
M  V30 11747 O 1114.02 -1.16199 1.39167 0
M  V30 11748 C 1114.07 1.93468 3.04306 0
M  V30 11749 O 1113.17 1.25533 3.9283 0
M  V30 11750 H 1112.51 0.419223 0.514925 0
M  V30 11751 H 1115.04 1.71421 1.11696 0
M  V30 11752 H 1115.05 2.02127 3.54413 0
M  V30 11753 H 1113.73 2.97857 2.90265 0
M  V30 11754 H 1112.3 1.25168 3.51266 0
M  V30 11755 N 1114.49 -1.10549 1.12324 0
M  V30 11756 C 1115.73 -1.82485 0.877817 0
M  V30 11757 C 1116.06 -1.85131 -0.596373 0
M  V30 11758 O 1115.32 -1.30675 -1.45679 0
M  V30 11759 C 1115.62 -3.28997 1.39626 0
M  V30 11760 C 1115.28 -3.465 2.88529 0
M  V30 11761 C 1113.94 -3.50984 3.29186 0
M  V30 11762 C 1116.3 -3.51991 3.84385 0
M  V30 11763 C 1113.62 -3.58525 4.6441 0
M  V30 11764 C 1115.98 -3.61065 5.19437 0
M  V30 11765 C 1114.64 -3.63813 5.5964 0
M  V30 11766 H 1113.91 -0.667758 0.321216 0
M  V30 11767 H 1116.56 -1.30314 1.40323 0
M  V30 11768 H 1114.86 -3.83726 0.791291 0
M  V30 11769 H 1116.56 -3.83165 1.18259 0
M  V30 11770 H 1113.15 -3.43686 2.56082 0
M  V30 11771 H 1117.33 -3.47777 3.54069 0
M  V30 11772 H 1112.59 -3.58934 4.94951 0
M  V30 11773 H 1116.76 -3.64257 5.9354 0
M  V30 11774 H 1114.39 -3.69409 6.6441 0
M  V30 11775 N 1115.97 -0.914965 -1.28321 0
M  V30 11776 C 1117.19 -0.564023 -1.99583 0
M  V30 11777 C 1117.62 0.847821 -1.6791 0
M  V30 11778 O 1116.97 1.56682 -0.912171 0
M  V30 11779 C 1117.02 -0.781368 -3.52033 0
M  V30 11780 O 1116.13 0.159072 -4.12093 0
M  V30 11781 H 1115.47 -0.218565 -0.626997 0
M  V30 11782 H 1118 -1.23074 -1.63444 0
M  V30 11783 H 1118.01 -0.691946 -4.0209 0
M  V30 11784 H 1116.68 -1.81059 -3.7442 0
M  V30 11785 H 1115.26 0.0208145 -3.72894 0
M  V30 11786 N 1117.44 1.42219 -0.679077 0
M  V30 11787 C 1118.68 2.03349 -0.207058 0
M  V30 11788 C 1119.05 1.52554 1.16581 0
M  V30 11789 O 1120.25 2.05499 1.73274 0
M  V30 11790 C 1118.52 3.56562 -0.244537 0
M  V30 11791 S 1120.08 4.38523 0.155853 0
M  V30 11792 H 1116.9 0.705932 -0.0847444 0
M  V30 11793 H 1119.5 1.73904 -0.893183 0
M  V30 11794 H 1118.2 3.91028 -1.246 0
M  V30 11795 H 1117.73 3.90686 0.461282 0
M  V30 11796 H 1119.75 4.76389 1.38808 0
M  V30 11797 N 1118.92 0.422693 1.51826 0
M  V30 11798 C 1120.17 -0.150066 2.01141 0
M  V30 11799 C 1120.48 -1.45059 1.31214 0
M  V30 11800 O 1121.69 -2.10542 1.71419 0
M  V30 11801 C 1120.15 -0.317985 3.58492 0
M  V30 11802 C 1119.75 0.971244 4.37345 0
M  V30 11803 C 1121.5 -0.845303 4.15999 0
M  V30 11804 C 1119.4 0.769769 5.86369 0
M  V30 11805 H 1118.33 -0.0598567 0.75162 0
M  V30 11806 H 1120.99 0.550217 1.75057 0
M  V30 11807 H 1119.37 -1.08092 3.80962 0
M  V30 11808 H 1120.54 1.74138 4.26629 0
M  V30 11809 H 1118.86 1.42599 3.91222 0
M  V30 11810 H 1121.45 -1.01229 5.2503 0
M  V30 11811 H 1121.8 -1.82375 3.74226 0
M  V30 11812 H 1122.33 -0.141067 3.9755 0
M  V30 11813 H 1119.07 1.72017 6.32527 0
M  V30 11814 H 1118.59 0.0391717 5.99787 0
M  V30 11815 H 1120.27 0.417225 6.45653 0
M  V30 11816 N 1120.4 -1.5685 0.153553 0
M  V30 11817 C 1121.36 -2.15894 -0.769564 0
M  V30 11818 C 1122.36 -1.10239 -1.17064 0
M  V30 11819 O 1123.55 -1.35845 -1.09049 0
M  V30 11820 C 1120.68 -2.72738 -2.04516 0
M  V30 11821 H 1121.88 -2.98807 -0.255842 0
M  V30 11822 H 1119.43 -1.56005 -0.0959279 0
M  V30 11823 H 1120.17 -1.9351 -2.60239 0
M  V30 11824 H 1119.95 -3.50042 -1.76672 0
M  V30 11825 H 1121.44 -3.18208 -2.70432 0
M  V30 11826 N 1121.88 0.120221 -1.57141 0
M  V30 11827 C 1123.13 0.826791 -1.83976 0
M  V30 11828 C 1123.44 1.81102 -0.739014 0
M  V30 11829 O 1124.65 2.56368 -0.893736 0
M  V30 11830 C 1123.1 1.52108 -3.26176 0
M  V30 11831 C 1122.71 0.577902 -4.44257 0
M  V30 11832 C 1124.45 2.21286 -3.62261 0
M  V30 11833 C 1122.36 1.27535 -5.77485 0
M  V30 11834 H 1121.29 0.312508 -0.686189 0
M  V30 11835 H 1123.94 0.0795343 -1.83328 0
M  V30 11836 H 1122.32 2.31492 -3.2129 0
M  V30 11837 H 1123.5 -0.182629 -4.60438 0
M  V30 11838 H 1121.81 -0.00684348 -4.16399 0
M  V30 11839 H 1124.41 2.74154 -4.59068 0
M  V30 11840 H 1124.75 2.99029 -2.89634 0
M  V30 11841 H 1125.29 1.48791 -3.68925 0
M  V30 11842 H 1122.02 0.539237 -6.53278 0
M  V30 11843 H 1121.54 2.00792 -5.65192 0
M  V30 11844 H 1123.22 1.80888 -6.21199 0
M  V30 11845 N 1123.36 1.52689 0.390367 0
M  V30 11846 C 1124.6 1.67335 1.13329 0
M  V30 11847 C 1124.93 0.415068 1.90531 0
M  V30 11848 O 1124.2 -0.570504 1.87409 0
M  V30 11849 H 1122.78 0.616821 0.421356 0
M  V30 11850 H 1125.44 1.89799 0.443 0
M  V30 11851 H 1124.53 2.52314 1.83696 0
M  V30 11852 N 1124.83 -0.648732 1.43629 0
M  V30 11853 C 1126.08 -1.40446 1.44768 0
M  V30 11854 C 1126.4 -1.95447 0.0773445 0
M  V30 11855 O 1127.6 -2.71479 -0.0337942 0
M  V30 11856 C 1126.06 -2.54194 2.54781 0
M  V30 11857 C 1125.67 -2.05781 3.97942 0
M  V30 11858 C 1127.41 -3.31529 2.65121 0
M  V30 11859 C 1125.32 -3.16767 4.99412 0
M  V30 11860 H 1124.25 -0.527717 0.538545 0
M  V30 11861 H 1126.9 -0.699756 1.69634 0
M  V30 11862 H 1125.28 -3.27156 2.23125 0
M  V30 11863 H 1126.45 -1.398 4.39081 0
M  V30 11864 H 1124.77 -1.41312 3.91688 0
M  V30 11865 H 1127.37 -4.14233 3.38105 0
M  V30 11866 H 1127.71 -3.79855 1.70341 0
M  V30 11867 H 1128.24 -2.65649 2.961 0
M  V30 11868 H 1124.98 -2.73404 5.9576 0
M  V30 11869 H 1124.5 -3.81445 4.62882 0
M  V30 11870 H 1126.18 -3.81827 5.22319 0
M  V30 11871 N 1126.31 -1.30234 -0.887518 0
M  V30 11872 C 1127.56 -1.18277 -1.63381 0
M  V30 11873 C 1127.87 0.262079 -1.93836 0
M  V30 11874 O 1129.08 0.503127 -2.66797 0
M  V30 11875 C 1127.54 -2.06944 -2.94452 0
M  V30 11876 C 1127.14 -3.56323 -2.71547 0
M  V30 11877 C 1128.89 -2.03743 -3.7241 0
M  V30 11878 C 1126.8 -4.37054 -3.98419 0
M  V30 11879 H 1125.73 -0.439087 -0.612959 0
M  V30 11880 H 1128.38 -1.54964 -0.982779 0
M  V30 11881 H 1126.76 -1.63138 -3.60835 0
M  V30 11882 H 1127.93 -4.08261 -2.13681 0
M  V30 11883 H 1126.25 -3.61321 -2.06969 0
M  V30 11884 H 1128.84 -2.61312 -4.66497 0
M  V30 11885 H 1129.19 -1.02029 -4.03603 0
M  V30 11886 H 1129.72 -2.45657 -3.12886 0
M  V30 11887 H 1126.46 -5.39453 -3.72385 0
M  V30 11888 H 1125.98 -3.89881 -4.55799 0
M  V30 11889 H 1127.66 -4.48356 -4.66462 0
M  V30 11890 N 1127.79 1.09952 -1.12909 0
M  V30 11891 C 1129.02 1.8579 -0.910483 0
M  V30 11892 C 1129.43 1.80898 0.540484 0
M  V30 11893 O 1128.79 1.20126 1.3739 0
M  V30 11894 C 1128.84 3.33987 -1.38329 0
M  V30 11895 O 1128.56 3.38811 -2.77739 0
M  V30 11896 C 1130.06 4.26683 -1.20234 0
M  V30 11897 H 1127.28 0.587026 -0.325025 0
M  V30 11898 H 1129.83 1.38965 -1.5003 0
M  V30 11899 H 1127.98 3.78259 -0.836592 0
M  V30 11900 H 1128.4 4.31204 -2.98603 0
M  V30 11901 H 1129.87 5.28846 -1.58197 0
M  V30 11902 H 1130.35 4.38966 -0.14344 0
M  V30 11903 H 1130.95 3.88221 -1.73679 0
M  V30 11904 N 1129.27 0.921757 1.27833 0
M  V30 11905 C 1130.2 0.433466 2.29441 0
M  V30 11906 C 1131.18 -0.503133 1.62489 0
M  V30 11907 O 1132.36 -0.409156 1.89841 0
M  V30 11908 C 1129.49 -0.320029 3.45822 0
M  V30 11909 C 1128.45 0.528178 4.24728 0
M  V30 11910 C 1127.77 -0.354132 5.33526 0
M  V30 11911 C 1129.07 1.78959 4.90684 0
M  V30 11912 H 1130.77 1.28263 2.70535 0
M  V30 11913 H 1128.31 0.618197 1.30055 0
M  V30 11914 H 1130.27 -0.672526 4.15999 0
M  V30 11915 H 1128.99 -1.20317 3.0363 0
M  V30 11916 H 1127.65 0.863302 3.5629 0
M  V30 11917 H 1127.3 -1.23605 4.87576 0
M  V30 11918 H 1127 0.209855 5.87225 0
M  V30 11919 H 1128.52 -0.702333 6.06547 0
M  V30 11920 H 1129.94 1.50552 5.53179 0
M  V30 11921 H 1128.33 2.29661 5.54415 0
M  V30 11922 H 1129.4 2.51265 4.14721 0
M  V30 11923 N 1130.75 -1.41857 0.686609 0
M  V30 11924 C 1131.98 -2.05401 0.222238 0
M  V30 11925 C 1132.38 -1.51731 -1.13023 0
M  V30 11926 O 1131.73 -0.656701 -1.71561 0
M  V30 11927 C 1131.79 -3.59381 0.0926608 0
M  V30 11928 C 1131.45 -4.35801 1.37573 0
M  V30 11929 C 1132.45 -4.65678 2.31171 0
M  V30 11930 C 1130.14 -4.75233 1.62661 0
M  V30 11931 C 1132.13 -5.33936 3.48125 0
M  V30 11932 C 1129.82 -5.43229 2.79902 0
M  V30 11933 C 1130.81 -5.72507 3.72458 0
M  V30 11934 O 1130.5 -6.39106 4.87646 0
M  V30 11935 H 1130.23 -0.668126 0.102876 0
M  V30 11936 H 1132.79 -1.82775 0.93714 0
M  V30 11937 H 1131.02 -3.80711 -0.67793 0
M  V30 11938 H 1132.71 -4.04529 -0.333364 0
M  V30 11939 H 1133.47 -4.35704 2.13042 0
M  V30 11940 H 1129.35 -4.51831 0.914862 0
M  V30 11941 H 1132.9 -5.56706 4.20386 0
M  V30 11942 H 1128.79 -5.72621 2.97951 0
M  V30 11943 H 1129.56 -6.576 4.87344 0
M  V30 11944 N 1132.22 -0.430739 -1.51599 0
M  V30 11945 C 1133.15 0.374695 -2.30474 0
M  V30 11946 C 1134.14 1.02694 -1.35602 0
M  V30 11947 O 1135.32 1.03184 -1.6452 0
M  V30 11948 C 1132.45 1.47981 -3.14196 0
M  V30 11949 C 1131.4 0.951415 -4.17291 0
M  V30 11950 C 1130.73 2.15177 -4.89492 0
M  V30 11951 C 1132.03 -0.00957951 -5.22299 0
M  V30 11952 H 1133.72 -0.283508 -2.98055 0
M  V30 11953 H 1131.27 -0.13779 -1.43339 0
M  V30 11954 H 1133.22 2.05043 -3.68151 0
M  V30 11955 H 1131.95 2.16621 -2.44424 0
M  V30 11956 H 1130.61 0.403052 -3.64378 0
M  V30 11957 H 1130.25 2.82421 -4.1623 0
M  V30 11958 H 1129.95 1.80464 -5.59202 0
M  V30 11959 H 1131.48 2.72806 -5.46269 0
M  V30 11960 H 1132.89 0.470527 -5.71366 0
M  V30 11961 H 1131.29 -0.268959 -5.99497 0
M  V30 11962 H 1132.36 -0.948297 -4.75537 0
M  V30 11963 N 1133.7 1.56767 -0.161869 0
M  V30 11964 C 1134.95 1.96206 0.484537 0
M  V30 11965 C 1135.27 1.04848 1.64414 0
M  V30 11966 O 1134.54 0.112946 1.95574 0
M  V30 11967 H 1133.12 0.724491 0.181994 0
M  V30 11968 H 1135.78 1.93406 -0.240845 0
M  V30 11969 H 1134.88 3.00279 0.85083 0
M  V30 11970 N 1135.18 -0.111886 1.57202 0
M  V30 11971 C 1136.43 -0.819623 1.85499 0
M  V30 11972 C 1136.76 -1.7919 0.748629 0
M  V30 11973 O 1136.03 -1.92952 -0.244918 0
M  V30 11974 C 1136.32 -1.56324 3.24399 0
M  V30 11975 C 1136.17 -0.610081 4.45643 0
M  V30 11976 C 1137.49 -2.51777 3.60966 0
M  V30 11977 H 1134.61 -0.296512 0.674722 0
M  V30 11978 H 1137.25 -0.0836741 1.89816 0
M  V30 11979 H 1135.4 -2.1906 3.2085 0
M  V30 11980 H 1137.07 0.00898038 4.61299 0
M  V30 11981 H 1135.32 0.0778488 4.3373 0
M  V30 11982 H 1135.99 -1.16718 5.39519 0
M  V30 11983 H 1138.46 -1.99143 3.65351 0
M  V30 11984 H 1137.34 -3.00835 4.59118 0
M  V30 11985 H 1137.6 -3.34769 2.8876 0
M  V30 11986 N 1136.66 -1.52894 -0.382264 0
M  V30 11987 C 1137.9 -1.68515 -1.12829 0
M  V30 11988 C 1138.24 -0.427211 -1.89443 0
M  V30 11989 O 1137.51 0.57516 -1.85801 0
M  V30 11990 C 1137.8 -2.92449 -2.10108 0
M  V30 11991 C 1137.65 -4.2836 -1.37214 0
M  V30 11992 C 1138.97 -3.11944 -3.1045 0
M  V30 11993 H 1136.09 -0.613223 -0.408811 0
M  V30 11994 H 1138.73 -1.85503 -0.410921 0
M  V30 11995 H 1136.88 -2.78097 -2.71283 0
M  V30 11996 H 1138.55 -4.54493 -0.789516 0
M  V30 11997 H 1136.79 -4.28532 -0.673973 0
M  V30 11998 H 1137.46 -5.11178 -2.0833 0
M  V30 11999 H 1139.94 -3.25372 -2.59369 0
M  V30 12000 H 1138.82 -4.00125 -3.75754 0
M  V30 12001 H 1139.08 -2.26465 -3.79692 0
M  V30 12002 N 1138.14 0.641106 -1.43971 0
M  V30 12003 C 1139.38 1.40291 -1.46445 0
M  V30 12004 C 1139.72 1.93978 -0.0929004 0
M  V30 12005 O 1138.99 1.73043 0.888043 0
M  V30 12006 C 1139.27 2.57551 -2.51673 0
M  V30 12007 C 1139.13 2.09279 -3.98149 0
M  V30 12008 C 1140.45 3.59752 -2.53508 0
M  V30 12009 H 1137.57 0.508771 -0.533218 0
M  V30 12010 H 1140.21 0.725767 -1.75592 0
M  V30 12011 H 1138.36 3.15319 -2.2695 0
M  V30 12012 H 1140.03 1.56418 -4.33971 0
M  V30 12013 H 1138.27 1.40545 -4.10402 0
M  V30 12014 H 1138.94 2.93655 -4.67409 0
M  V30 12015 H 1141.42 3.11766 -2.75574 0
M  V30 12016 H 1140.3 4.39332 -3.29057 0
M  V30 12017 H 1140.56 4.13156 -1.57335 0
M  V30 12018 N 1139.62 1.30703 0.880598 0
M  V30 12019 C 1140.55 1.1327 1.99255 0
M  V30 12020 C 1141.56 0.0747186 1.62628 0
M  V30 12021 O 1142.75 0.321169 1.75587 0
M  V30 12022 C 1139.85 0.706179 3.31461 0
M  V30 12023 C 1139.02 1.84687 3.96497 0
M  V30 12024 C 1138.08 1.40817 5.07008 0
M  V30 12025 O 1137.11 2.1161 5.28403 0
M  V30 12026 N 1138.31 0.289619 5.79777 0
M  V30 12027 H 1141.07 2.09043 2.14759 0
M  V30 12028 H 1138.64 1.22896 1.05395 0
M  V30 12029 H 1140.63 0.395617 4.02762 0
M  V30 12030 H 1139.2 -0.159631 3.12192 0
M  V30 12031 H 1138.42 2.32531 3.18312 0
M  V30 12032 H 1139.71 2.61117 4.36687 0
M  V30 12033 H 1139.1 -0.300177 5.64903 0
M  V30 12034 H 1137.66 0.0385346 6.51789 0
M  V30 12035 N 1141.09 -1.09351 1.1349 0
M  V30 12036 C 1142.06 -2.14185 0.815919 0
M  V30 12037 C 1143.06 -1.59845 -0.174976 0
M  V30 12038 O 1144.25 -1.74122 0.0521971 0
M  V30 12039 C 1141.38 -3.40224 0.214517 0
M  V30 12040 H 1142.57 -2.43913 1.74489 0
M  V30 12041 H 1140.12 -1.24902 0.939634 0
M  V30 12042 H 1140.86 -3.16123 -0.723634 0
M  V30 12043 H 1140.64 -3.80958 0.928102 0
M  V30 12044 H 1142.13 -4.17599 0.00821999 0
M  V30 12045 N 1142.57 -0.928524 -1.27343 0
M  V30 12046 C 1143.85 -0.487758 -1.89421 0
M  V30 12047 C 1144.23 1.03418 -1.84032 0
M  V30 12048 O 1143.58 1.8887 -1.2861 0
M  V30 12049 C 1143.79 -1.03478 -3.33307 0
M  V30 12050 C 1145.13 -1.09577 -4.10217 0
M  V30 12051 O 1146.16 -0.984463 -3.42326 0
M  V30 12052 O 1145.02 -1.2673 -5.31603 0
M  V30 12053 H 1142.11 -0.157018 -0.811957 0
M  V30 12054 H 1144.66 -1.02027 -1.35605 0
M  V30 12055 H 1143.43 -2.07861 -3.31526 0
M  V30 12056 H 1143.05 -0.483967 -3.94644 0
M  V30 12057 N 1144.05 1.41491 -0.694123 0
M  V30 12058 C 1144.98 2.28189 0.0226347 0
M  V30 12059 C 1145.96 1.42152 0.7894 0
M  V30 12060 O 1147.14 1.71581 0.780519 0
M  V30 12061 C 1144.27 3.22357 1.03942 0
M  V30 12062 C 1143.32 4.24927 0.365994 0
M  V30 12063 S 1144.15 5.28043 -0.890562 0
M  V30 12064 C 1145.31 6.25776 0.124665 0
M  V30 12065 H 1145.54 2.88631 -0.712698 0
M  V30 12066 H 1143.07 1.46607 -0.484344 0
M  V30 12067 H 1145.03 3.77143 1.62091 0
M  V30 12068 H 1143.69 2.61013 1.74732 0
M  V30 12069 H 1142.88 4.9108 1.13388 0
M  V30 12070 H 1142.49 3.73729 -0.142389 0
M  V30 12071 H 1144.78 6.70398 0.978393 0
M  V30 12072 H 1145.72 7.06312 -0.502901 0
M  V30 12073 H 1146.13 5.62466 0.478792 0
M  V30 12074 N 1145.53 0.438773 1.51369 0
M  V30 12075 C 1146.78 -0.126962 2.01701 0
M  V30 12076 C 1147.1 -1.43086 1.32481 0
M  V30 12077 O 1146.37 -1.90427 0.459823 0
M  V30 12078 H 1144.95 -0.0499092 0.745331 0
M  V30 12079 H 1147.61 0.581808 1.86013 0
M  V30 12080 H 1146.7 -0.301836 3.10637 0
M  V30 12081 N 1147.01 -1.56678 0.170181 0
M  V30 12082 C 1148.25 -1.98743 -0.477534 0
M  V30 12083 C 1148.61 -1.0538 -1.60497 0
M  V30 12084 O 1149.81 -1.3658 -2.31515 0
M  V30 12085 C 1148.08 -3.44565 -0.949186 0
M  V30 12086 S 1149.64 -4.08658 -1.59824 0
M  V30 12087 H 1146.46 -0.694202 -0.153639 0
M  V30 12088 H 1149.06 -1.93663 0.267373 0
M  V30 12089 H 1147.76 -4.1023 -0.118205 0
M  V30 12090 H 1147.3 -3.53409 -1.72816 0
M  V30 12091 H 1149.31 -4.03614 -2.88635 0
M  V30 12092 N 1148.48 0.103547 -1.57259 0
M  V30 12093 C 1149.73 0.809774 -1.85931 0
M  V30 12094 C 1150.06 1.78791 -0.758122 0
M  V30 12095 O 1149.34 1.93079 0.234682 0
M  V30 12096 C 1149.62 1.54601 -3.25224 0
M  V30 12097 C 1149.47 0.586439 -4.45961 0
M  V30 12098 C 1150.79 2.4986 -3.62296 0
M  V30 12099 H 1147.91 0.29293 -0.676285 0
M  V30 12100 H 1150.55 0.0736065 -1.89857 0
M  V30 12101 H 1148.7 2.17355 -3.22008 0
M  V30 12102 H 1150.38 -0.0334441 -4.61288 0
M  V30 12103 H 1148.62 -0.10085 -4.33683 0
M  V30 12104 H 1149.29 1.13855 -5.40131 0
M  V30 12105 H 1151.77 1.97203 -3.66402 0
M  V30 12106 H 1150.64 2.98396 -4.60707 0
M  V30 12107 H 1150.9 3.33233 -2.90531 0
M  V30 12108 N 1149.96 1.53094 0.37415 0
M  V30 12109 C 1151.21 1.68082 1.11495 0
M  V30 12110 C 1151.52 0.434685 1.90709 0
M  V30 12111 O 1152.73 0.464956 2.67489 0
M  V30 12112 C 1151.19 2.97101 2.03124 0
M  V30 12113 C 1150.79 4.28947 1.29262 0
M  V30 12114 C 1152.54 3.21456 2.77248 0
M  V30 12115 C 1150.44 5.4906 2.19743 0
M  V30 12116 H 1149.37 0.626238 0.419931 0
M  V30 12117 H 1152.03 1.79594 0.376588 0
M  V30 12118 H 1150.41 2.79371 2.80656 0
M  V30 12119 H 1151.58 4.57279 0.568528 0
M  V30 12120 H 1149.9 4.10968 0.670362 0
M  V30 12121 H 1152.49 4.08377 3.45155 0
M  V30 12122 H 1152.84 2.37153 3.42146 0
M  V30 12123 H 1153.37 3.3982 2.06803 0
M  V30 12124 H 1150.11 6.35815 1.59437 0
M  V30 12125 H 1149.63 5.25019 2.90027 0
M  V30 12126 H 1151.31 5.83517 2.79495 0
M  V30 12127 N 1151.44 -0.633461 1.44309 0
M  V30 12128 C 1152.39 -1.76674 1.51292 0
M  V30 12129 C 1153.38 -1.64972 0.384807 0
M  V30 12130 O 1154.59 -1.71079 0.559653 0
M  V30 12131 H 1150.96 -0.583238 0.474697 0
M  V30 12132 H 1152.93 -1.67907 2.46678 0
M  V30 12133 C 1151.68 -3.15002 1.47205 0
M  V30 12134 H 1151.01 -3.24653 2.33325 0
M  V30 12135 H 1152.45 -3.94199 1.56151 0
M  V30 12136 C 1150.9 -3.3635 0.192464 0
M  V30 12137 O 1151.43 -3.94857 -0.738285 0
M  V30 12138 N 1149.64 -2.9044 0.0963424 0
M  V30 12139 H 1149.19 -2.43011 0.85459 0
M  V30 12140 H 1149.15 -3.05099 -0.759061 0
M  V30 12141 N 1152.92 -1.31168 -0.873655 0
M  V30 12142 C 1154.16 -1.21831 -1.62877 0
M  V30 12143 C 1154.52 0.222272 -1.91112 0
M  V30 12144 O 1153.81 1.15463 -1.52902 0
M  V30 12145 C 1154.01 -1.99204 -2.96736 0
M  V30 12146 C 1153.84 -3.50639 -2.81571 0
M  V30 12147 C 1152.61 -4.19992 -2.80953 0
M  V30 12148 C 1154.8 -4.45658 -2.56697 0
M  V30 12149 N 1152.79 -5.57609 -2.56799 0
M  V30 12150 C 1154.16 -5.70917 -2.41771 0
M  V30 12151 C 1156.21 -4.35126 -2.42012 0
M  V30 12152 C 1154.91 -6.86837 -2.13654 0
M  V30 12153 C 1156.94 -5.50825 -2.15282 0
M  V30 12154 C 1156.3 -6.75071 -2.01142 0
M  V30 12155 H 1152.4 -0.500911 -0.60051 0
M  V30 12156 H 1154.99 -1.65313 -1.02857 0
M  V30 12157 H 1153.16 -1.58096 -3.54768 0
M  V30 12158 H 1154.89 -1.81916 -3.61509 0
M  V30 12159 H 1151.64 -3.71928 -2.932 0
M  V30 12160 H 1152.07 -6.30058 -2.47703 0
M  V30 12161 H 1156.71 -3.39736 -2.51673 0
M  V30 12162 H 1154.43 -7.82257 -2.0273 0
M  V30 12163 H 1158.01 -5.44591 -2.04725 0
M  V30 12164 H 1156.89 -7.63085 -1.8075 0
M  V30 12165 N 1154.4 1.08748 -1.14068 0
M  V30 12166 C 1155.34 2.15573 -0.824425 0
M  V30 12167 C 1156.31 1.64683 0.216522 0
M  V30 12168 O 1157.5 1.90601 0.0872193 0
M  V30 12169 C 1154.64 3.43756 -0.30423 0
M  V30 12170 C 1153.75 4.08512 -1.40506 0
M  V30 12171 C 1152.89 5.24477 -0.842479 0
M  V30 12172 C 1151.93 5.81167 -1.92123 0
M  V30 12173 N 1151.06 6.88483 -1.37608 0
M  V30 12174 H 1155.9 2.41968 -1.73941 0
M  V30 12175 H 1153.44 1.18751 -0.868143 0
M  V30 12176 H 1155.4 4.17197 0.0155546 0
M  V30 12177 H 1154.03 3.17658 0.573868 0
M  V30 12178 H 1153.08 3.32866 -1.84131 0
M  V30 12179 H 1154.39 4.46669 -2.2201 0
M  V30 12180 H 1153.55 6.04842 -0.474389 0
M  V30 12181 H 1152.28 4.877 0.00355212 0
M  V30 12182 H 1151.29 4.99458 -2.29831 0
M  V30 12183 H 1152.51 6.20003 -2.77079 0
M  V30 12184 H 1150.46 6.53672 -0.552168 0
M  V30 12185 H 1150.38 7.25446 -2.12752 0
M  V30 12186 H 1151.65 7.72588 -1.03578 0
M  V30 12187 N 1155.87 0.935264 1.26849 0
M  V30 12188 C 1157.12 0.578545 1.93642 0
M  V30 12189 C 1157.44 -0.884296 1.73796 0
M  V30 12190 O 1156.71 -1.62768 1.09011 0
M  V30 12191 H 1155.29 0.210976 0.716588 0
M  V30 12192 H 1157.96 1.1893 1.54407 0
M  V30 12193 H 1157.05 0.791268 3.01903 0
M  V30 12194 N 1157.35 -1.41121 0.701616 0
M  V30 12195 C 1158.3 -2.30765 0.040121 0
M  V30 12196 C 1159.27 -1.47436 -0.764975 0
M  V30 12197 O 1160.45 -1.76209 -0.731775 0
M  V30 12198 C 1157.59 -3.33535 -0.885903 0
M  V30 12199 C 1156.71 -4.3194 -0.0717765 0
M  V30 12200 C 1155.84 -5.21779 -0.995996 0
M  V30 12201 C 1154.88 -6.11849 -0.175133 0
M  V30 12202 N 1154.02 -6.94151 -1.05348 0
M  V30 12203 H 1158.86 -2.86772 0.810312 0
M  V30 12204 H 1156.4 -1.41233 0.411301 0
M  V30 12205 H 1158.35 -3.91675 -1.4369 0
M  V30 12206 H 1156.98 -2.79065 -1.62243 0
M  V30 12207 H 1156.04 -3.75698 0.596221 0
M  V30 12208 H 1157.35 -4.95597 0.56435 0
M  V30 12209 H 1156.5 -5.84782 -1.61601 0
M  V30 12210 H 1155.24 -4.58363 -1.66597 0
M  V30 12211 H 1154.25 -5.4789 0.457916 0
M  V30 12212 H 1155.47 -6.77322 0.491133 0
M  V30 12213 H 1153.42 -6.33338 -1.70936 0
M  V30 12214 H 1153.33 -7.54518 -0.473065 0
M  V30 12215 H 1154.6 -7.61617 -1.66012 0
M  V30 12216 N 1158.83 -0.446794 -1.51134 0
M  V30 12217 C 1159.74 0.36579 -2.31731 0
M  V30 12218 C 1160.76 1.01886 -1.41051 0
M  V30 12219 O 1161.93 1.01216 -1.74119 0
M  V30 12220 C 1159 1.44705 -3.15058 0
M  V30 12221 C 1158.06 0.813129 -4.21529 0
M  V30 12222 C 1157.29 1.84287 -5.00873 0
M  V30 12223 O 1157.51 3.06633 -4.8097 0
M  V30 12224 O 1156.45 1.42816 -5.84711 0
M  V30 12225 H 1160.27 -0.292436 -3.02289 0
M  V30 12226 H 1157.86 -0.209129 -1.47929 0
M  V30 12227 H 1159.74 2.07393 -3.66833 0
M  V30 12228 H 1158.42 2.08919 -2.47254 0
M  V30 12229 H 1157.32 0.147953 -3.73807 0
M  V30 12230 H 1158.66 0.214331 -4.91733 0
M  V30 12231 N 1160.31 1.56586 -0.178487 0
M  V30 12232 C 1161.24 2.21313 0.744486 0
M  V30 12233 C 1162.22 1.17098 1.23377 0
M  V30 12234 O 1163.4 1.45551 1.28563 0
M  V30 12235 C 1160.53 2.8595 1.97103 0
M  V30 12236 C 1159.49 3.96266 1.61732 0
M  V30 12237 C 1158.81 4.47987 2.91911 0
M  V30 12238 C 1160.11 5.15503 0.839868 0
M  V30 12239 H 1161.81 2.98698 0.204938 0
M  V30 12240 H 1159.35 1.43672 0.0971306 0
M  V30 12241 H 1161.31 3.29909 2.6218 0
M  V30 12242 H 1160.03 2.05946 2.53484 0
M  V30 12243 H 1158.69 3.52974 0.990208 0
M  V30 12244 H 1158.34 3.64765 3.46346 0
M  V30 12245 H 1158.04 5.22413 2.68995 0
M  V30 12246 H 1159.56 4.94637 3.58004 0
M  V30 12247 H 1160.98 5.5611 1.39337 0
M  V30 12248 H 1159.37 5.95891 0.709473 0
M  V30 12249 H 1160.44 4.84628 -0.162396 0
M  V30 12250 N 1161.79 -0.095206 1.57312 0
M  V30 12251 C 1162.73 -1.11551 2.02052 0
M  V30 12252 C 1163.7 -1.39808 0.896818 0
M  V30 12253 O 1164.89 -1.51273 1.1628 0
M  V30 12254 C 1162.03 -2.43056 2.44985 0
M  V30 12255 C 1161.14 -2.21531 3.70875 0
M  V30 12256 C 1160.28 -3.46434 4.02687 0
M  V30 12257 C 1159.32 -3.2017 5.21687 0
M  V30 12258 N 1158.45 -4.37339 5.49253 0
M  V30 12259 H 1163.29 -0.727 2.88996 0
M  V30 12260 H 1160.83 -0.347441 1.42938 0
M  V30 12261 H 1162.79 -3.19803 2.67921 0
M  V30 12262 H 1161.42 -2.79754 1.61051 0
M  V30 12263 H 1160.47 -1.35587 3.55416 0
M  V30 12264 H 1161.78 -1.98116 4.57768 0
M  V30 12265 H 1160.94 -4.31589 4.26399 0
M  V30 12266 H 1159.67 -3.72904 3.14315 0
M  V30 12267 H 1158.68 -2.33409 4.97796 0
M  V30 12268 H 1159.9 -2.95047 6.11657 0
M  V30 12269 H 1157.85 -4.63885 4.6384 0
M  V30 12270 H 1157.77 -4.17114 6.30517 0
M  V30 12271 H 1159.04 -5.23559 5.775 0
M  V30 12272 N 1163.26 -1.53291 -0.366026 0
M  V30 12273 C 1164.5 -1.71153 -1.11741 0
M  V30 12274 C 1164.87 -0.453416 -1.86569 0
M  V30 12275 O 1166.07 -0.508724 -2.63942 0
M  V30 12276 C 1164.34 -2.92657 -2.0515 0
M  V30 12277 S 1165.9 -3.31223 -2.87814 0
M  V30 12278 H 1162.72 -0.602251 -0.377909 0
M  V30 12279 H 1165.32 -1.91391 -0.398721 0
M  V30 12280 H 1164.02 -3.8242 -1.48939 0
M  V30 12281 H 1163.55 -2.7482 -2.81492 0
M  V30 12282 H 1165.57 -2.83201 -4.07445 0
M  V30 12283 N 1164.74 0.6258 -1.44643 0
M  V30 12284 C 1165.99 1.38251 -1.47414 0
M  V30 12285 C 1166.31 1.94689 -0.110043 0
M  V30 12286 O 1165.58 1.76095 0.858333 0
M  V30 12287 H 1164.16 0.513179 -0.542823 0
M  V30 12288 H 1166.82 0.736179 -1.80462 0
M  V30 12289 H 1165.92 2.21115 -2.2026 0
M  V30 12290 N 1166.22 1.31629 0.866686 0
M  V30 12291 C 1167.45 1.24609 1.65793 0
M  V30 12292 C 1167.87 -0.184944 1.87189 0
M  V30 12293 O 1167.23 -1.1322 1.41601 0
M  V30 12294 C 1167.28 1.9988 3.00134 0
M  V30 12295 O 1166.38 1.33838 3.90079 0
M  V30 12296 H 1165.72 0.430051 0.505917 0
M  V30 12297 H 1168.25 1.73752 1.08035 0
M  V30 12298 H 1168.26 2.09599 3.50046 0
M  V30 12299 H 1166.94 3.03947 2.83882 0
M  V30 12300 H 1165.51 1.3259 3.48532 0
M  V30 12301 N 1167.7 -1.08142 1.14644 0
M  V30 12302 C 1168.95 -1.80225 0.914517 0
M  V30 12303 C 1169.27 -1.86778 -0.560269 0
M  V30 12304 O 1168.54 -1.36284 -1.40724 0
M  V30 12305 H 1167.12 -0.667492 0.335356 0
M  V30 12306 H 1169.78 -1.30729 1.44554 0
M  V30 12307 H 1168.88 -2.82958 1.31685 0
M  V30 12308 N 1169.18 -0.941978 -1.26351 0
M  V30 12309 C 1170.43 -0.585711 -1.93009 0
M  V30 12310 C 1170.74 0.879507 -1.74711 0
M  V30 12311 O 1171.95 1.34518 -2.35833 0
M  V30 12312 C 1170.4 -0.996787 -3.45821 0
M  V30 12313 C 1170.01 -2.48367 -3.72851 0
M  V30 12314 C 1171.75 -0.712452 -4.18479 0
M  V30 12315 C 1169.66 -2.83341 -5.19107 0
M  V30 12316 H 1168.59 -0.215342 -0.722595 0
M  V30 12317 H 1171.24 -1.14472 -1.43417 0
M  V30 12318 H 1169.62 -0.366295 -3.94302 0
M  V30 12319 H 1170.8 -3.16328 -3.35072 0
M  V30 12320 H 1169.11 -2.74139 -3.13427 0
M  V30 12321 H 1171.71 -0.95007 -5.26192 0
M  V30 12322 H 1172.05 0.350811 -4.14819 0
M  V30 12323 H 1172.59 -1.3027 -3.75865 0
M  V30 12324 H 1169.32 -3.88633 -5.27868 0
M  V30 12325 H 1168.84 -2.20043 -5.5798 0
M  V30 12326 H 1170.52 -2.71849 -5.87118 0
M  V30 12327 N 1170.66 1.40747 -0.709091 0
M  V30 12328 C 1171.9 2.01003 -0.24581 0
M  V30 12329 C 1172.23 1.56203 1.15891 0
M  V30 12330 O 1171.49 0.770166 1.79908 0
M  V30 12331 C 1171.78 3.56404 -0.266685 0
M  V30 12332 C 1171.45 4.20762 -1.6208 0
M  V30 12333 C 1170.11 4.38056 -1.99148 0
M  V30 12334 C 1172.46 4.56723 -2.51105 0
M  V30 12335 C 1169.79 4.88591 -3.248 0
M  V30 12336 C 1172.14 5.08654 -3.76103 0
M  V30 12337 C 1170.81 5.24158 -4.13297 0
M  V30 12338 H 1170.08 0.73552 -0.0899481 0
M  V30 12339 H 1172.73 1.68451 -0.910844 0
M  V30 12340 H 1171.03 3.88825 0.481915 0
M  V30 12341 H 1172.73 4.0085 0.109509 0
M  V30 12342 H 1169.32 4.07685 -1.32252 0
M  V30 12343 H 1173.5 4.43004 -2.23744 0
M  V30 12344 H 1168.76 4.98779 -3.53595 0
M  V30 12345 H 1172.93 5.35457 -4.45262 0
M  V30 12346 H 1170.56 5.63079 -5.10731 0
M  V30 12347 N 1172.13 0.454803 1.50895 0
M  V30 12348 C 1173.38 -0.105927 2.02523 0
M  V30 12349 C 1173.71 -1.40825 1.33724 0
M  V30 12350 O 1172.99 -1.89038 0.457683 0
M  V30 12351 C 1173.27 -0.306635 3.58792 0
M  V30 12352 C 1173.12 1.01556 4.38185 0
M  V30 12353 C 1174.44 -1.06858 4.2693 0
M  V30 12354 H 1171.56 -0.0370232 0.736069 0
M  V30 12355 H 1174.2 0.597215 1.8037 0
M  V30 12356 H 1172.35 -0.905563 3.77799 0
M  V30 12357 H 1174.03 1.64981 4.30789 0
M  V30 12358 H 1172.27 1.61608 4.02574 0
M  V30 12359 H 1172.94 0.828959 5.4574 0
M  V30 12360 H 1175.42 -0.561086 4.123 0
M  V30 12361 H 1174.29 -1.1778 5.36115 0
M  V30 12362 H 1174.55 -2.10111 3.8898 0
M  V30 12363 N 1173.61 -1.56489 0.186789 0
M  V30 12364 C 1174.84 -2.01722 -0.459993 0
M  V30 12365 C 1175.25 -1.06697 -1.5576 0
M  V30 12366 O 1174.61 -0.0704212 -1.82364 0
M  V30 12367 C 1174.66 -3.46693 -1.02401 0
M  V30 12368 O 1174.38 -4.3809 0.0297916 0
M  V30 12369 C 1175.88 -4.07403 -1.7475 0
M  V30 12370 H 1173.1 -0.660845 -0.116298 0
M  V30 12371 H 1175.65 -2.02389 0.293059 0
M  V30 12372 H 1173.8 -3.46752 -1.72749 0
M  V30 12373 H 1174.22 -5.23057 -0.388821 0
M  V30 12374 H 1175.69 -5.10718 -2.09455 0
M  V30 12375 H 1176.17 -3.50383 -2.64818 0
M  V30 12376 H 1176.77 -4.11093 -1.09007 0
M  V30 12377 N 1175.09 0.086862 -1.5736 0
M  V30 12378 C 1176.04 1.12359 -2.03662 0
M  V30 12379 C 1177.03 1.40982 -0.939169 0
M  V30 12380 O 1178.24 1.40566 -1.12433 0
M  V30 12381 H 1174.61 0.379605 -0.649156 0
M  V30 12382 H 1176.58 0.706822 -2.89908 0
M  V30 12383 C 1175.33 2.43327 -2.48369 0
M  V30 12384 H 1174.66 2.22148 -3.324 0
M  V30 12385 H 1176.1 3.14351 -2.84534 0
M  V30 12386 C 1174.55 3.08214 -1.36036 0
M  V30 12387 O 1175.08 3.95659 -0.694063 0
M  V30 12388 N 1173.29 2.68596 -1.10927 0
M  V30 12389 H 1172.84 1.97578 -1.6529 0
M  V30 12390 H 1172.8 3.12336 -0.359679 0
M  V30 12391 N 1176.57 1.53483 0.357892 0
M  V30 12392 C 1177.48 1.83434 1.4625 0
M  V30 12393 C 1178.49 0.723313 1.58254 0
M  V30 12394 O 1179.67 1.01416 1.74002 0
M  V30 12395 C 1176.73 2.0249 2.81423 0
M  V30 12396 C 1175.8 3.26378 2.78883 0
M  V30 12397 C 1175.03 3.44516 4.07608 0
M  V30 12398 O 1175.25 2.66787 5.04163 0
M  V30 12399 O 1174.19 4.37898 4.12952 0
M  V30 12400 H 1178.01 2.77294 1.23861 0
M  V30 12401 H 1175.6 1.38958 0.548722 0
M  V30 12402 H 1177.48 2.16552 3.61501 0
M  V30 12403 H 1176.15 1.11819 3.03773 0
M  V30 12404 H 1175.06 3.17733 1.97475 0
M  V30 12405 H 1176.39 4.16996 2.61486 0
M  V30 12406 N 1178.05 -0.61812 1.44973 0
M  V30 12407 C 1179.29 -1.37944 1.48658 0
M  V30 12408 C 1179.62 -1.93805 0.123749 0
M  V30 12409 O 1178.9 -1.74434 -0.860401 0
M  V30 12410 C 1179.18 -2.53515 2.55739 0
M  V30 12411 C 1179.04 -2.02918 4.01428 0
M  V30 12412 C 1180.35 -3.55674 2.59199 0
M  V30 12413 H 1177.47 -0.500223 0.541244 0
M  V30 12414 H 1180.12 -0.69774 1.76725 0
M  V30 12415 H 1178.27 -3.11669 2.31937 0
M  V30 12416 H 1179.94 -1.49494 4.36405 0
M  V30 12417 H 1178.18 -1.33999 4.12586 0
M  V30 12418 H 1178.85 -2.86181 4.72021 0
M  V30 12419 H 1181.33 -3.07343 2.80499 0
M  V30 12420 H 1180.2 -4.34042 3.36004 0
M  V30 12421 H 1180.46 -4.10601 1.63888 0
M  V30 12422 N 1179.52 -1.32087 -0.859693 0
M  V30 12423 C 1180.47 -1.17188 -1.95578 0
M  V30 12424 C 1181.46 -0.0801302 -1.607 0
M  V30 12425 O 1182.65 -0.306118 -1.74333 0
M  V30 12426 C 1179.78 -0.891916 -3.31511 0
M  V30 12427 C 1178.86 -2.02513 -3.72625 0
M  V30 12428 N 1179.26 -3.27321 -3.85609 0
M  V30 12429 C 1177.55 -1.92717 -4.02214 0
M  V30 12430 C 1178.25 -4.01513 -4.20906 0
M  V30 12431 N 1177.23 -3.29767 -4.32151 0
M  V30 12432 H 1181.03 -2.11816 -2.03743 0
M  V30 12433 H 1178.55 -1.23794 -1.05114 0
M  V30 12434 H 1180.54 -0.766143 -4.098 0
M  V30 12435 H 1179.2 0.0460349 -3.24667 0
M  V30 12436 H 1180.21 -3.62317 -3.70063 0
M  V30 12437 H 1176.89 -1.06452 -4.03701 0
M  V30 12438 H 1178.28 -5.09116 -4.38463 0
M  V30 12439 N 1181 1.07532 -1.15215 0
M  V30 12440 C 1182.23 1.83817 -0.949687 0
M  V30 12441 C 1182.64 1.82004 0.501991 0
M  V30 12442 O 1182 1.23014 1.34811 0
M  V30 12443 C 1182.05 3.30978 -1.45382 0
M  V30 12444 O 1181.77 3.32844 -2.84863 0
M  V30 12445 C 1183.27 4.24037 -1.29257 0
M  V30 12446 H 1180.49 0.58 -0.337404 0
M  V30 12447 H 1183.04 1.35752 -1.52944 0
M  V30 12448 H 1181.19 3.76399 -0.916638 0
M  V30 12449 H 1181.61 4.24773 -3.07682 0
M  V30 12450 H 1183.08 5.25371 -1.69379 0
M  V30 12451 H 1183.56 4.38563 -0.236519 0
M  V30 12452 H 1184.16 3.8445 -1.81874 0
M  V30 12453 N 1182.48 0.948665 1.2585 0
M  V30 12454 C 1183.73 0.610669 1.94016 0
M  V30 12455 C 1184.08 -0.842181 1.72989 0
M  V30 12456 O 1183.37 -1.59556 1.06078 0
M  V30 12457 C 1183.57 0.89784 3.45939 0
M  V30 12458 C 1183.4 2.37705 3.81741 0
M  V30 12459 C 1182.17 3.03355 4.04109 0
M  V30 12460 C 1184.37 3.35602 3.89712 0
M  V30 12461 N 1182.35 4.41211 4.26856 0
M  V30 12462 C 1183.72 4.58743 4.17079 0
M  V30 12463 C 1185.77 3.30523 3.72369 0
M  V30 12464 C 1184.48 5.77436 4.28906 0
M  V30 12465 C 1186.5 4.48548 3.85433 0
M  V30 12466 C 1185.86 5.70474 4.13205 0
M  V30 12467 H 1181.96 0.273966 0.732439 0
M  V30 12468 H 1184.55 1.21961 1.51768 0
M  V30 12469 H 1182.72 0.317878 3.87097 0
M  V30 12470 H 1184.45 0.520353 4.01341 0
M  V30 12471 H 1181.21 2.53947 3.9976 0
M  V30 12472 H 1181.63 5.12589 4.42247 0
M  V30 12473 H 1186.27 2.3731 3.4992 0
M  V30 12474 H 1183.99 6.71095 4.50174 0
M  V30 12475 H 1187.58 4.46159 3.73408 0
M  V30 12476 H 1186.46 6.60277 4.23088 0
M  V30 12477 N 1183.96 -1.40369 0.716545 0
M  V30 12478 C 1185.19 -2.05181 0.266143 0
M  V30 12479 C 1185.6 -1.53988 -1.09239 0
M  V30 12480 O 1184.96 -0.696859 -1.68672 0
M  V30 12481 C 1185.01 -3.60713 0.238384 0
M  V30 12482 O 1184.73 -4.10018 1.54328 0
M  V30 12483 C 1186.23 -4.42701 -0.230453 0
M  V30 12484 H 1183.45 -0.66028 0.119463 0
M  V30 12485 H 1186 -1.7976 0.97502 0
M  V30 12486 H 1184.15 -3.85101 -0.421466 0
M  V30 12487 H 1184.56 -5.0422 1.4444 0
M  V30 12488 H 1186.04 -5.51642 -0.198728 0
M  V30 12489 H 1186.52 -4.20354 -1.27276 0
M  V30 12490 H 1187.12 -4.23423 0.399155 0
M  V30 12491 N 1185.44 -0.462799 -1.50652 0
M  V30 12492 C 1186.35 0.341191 -2.32106 0
M  V30 12493 C 1187.36 1.00384 -1.42123 0
M  V30 12494 O 1188.54 0.993635 -1.75182 0
M  V30 12495 C 1185.6 1.41356 -3.16575 0
M  V30 12496 C 1184.66 0.768375 -4.22368 0
M  V30 12497 C 1183.9 1.78964 -5.028 0
M  V30 12498 O 1184.12 3.01515 -4.84195 0
M  V30 12499 O 1183.05 1.36606 -5.86193 0
M  V30 12500 H 1186.88 -0.324482 -3.01962 0
M  V30 12501 H 1184.47 -0.224807 -1.47699 0
M  V30 12502 H 1186.35 2.0349 -3.69012 0
M  V30 12503 H 1185.02 2.06285 -2.49456 0
M  V30 12504 H 1183.93 0.108297 -3.73943 0
M  V30 12505 H 1185.26 0.162164 -4.91933 0
M  V30 12506 N 1186.91 1.56388 -0.195085 0
M  V30 12507 C 1187.85 2.16316 0.757643 0
M  V30 12508 C 1188.86 1.12498 1.17678 0
M  V30 12509 O 1190.05 1.39591 1.11251 0
M  V30 12510 C 1187.15 2.7104 2.03447 0
M  V30 12511 C 1186.32 3.99759 1.77514 0
M  V30 12512 C 1185.38 4.3931 2.89644 0
M  V30 12513 O 1184.41 5.06732 2.59252 0
M  V30 12514 N 1185.61 4.02813 4.17998 0
M  V30 12515 H 1188.37 2.98696 0.24517 0
M  V30 12516 H 1185.93 1.61895 -0.0131194 0
M  V30 12517 H 1187.93 2.94483 2.776 0
M  V30 12518 H 1186.5 1.93114 2.45817 0
M  V30 12519 H 1185.72 3.84448 0.8714 0
M  V30 12520 H 1187 4.83782 1.57585 0
M  V30 12521 H 1186.4 3.4858 4.45543 0
M  V30 12522 H 1184.96 4.31206 4.88779 0
M  V30 12523 N 1188.39 -0.0785156 1.57404 0
M  V30 12524 C 1189.62 -0.790893 1.90862 0
M  V30 12525 C 1190.03 -1.7198 0.788644 0
M  V30 12526 O 1189.37 -1.82027 -0.247322 0
M  V30 12527 C 1189.44 -1.64362 3.19727 0
M  V30 12528 C 1189.1 -0.884796 4.48353 0
M  V30 12529 C 1190.1 -0.207074 5.19487 0
M  V30 12530 C 1187.78 -0.853962 4.94988 0
M  V30 12531 C 1189.78 0.491329 6.35504 0
M  V30 12532 C 1187.46 -0.151783 6.10911 0
M  V30 12533 C 1188.46 0.519669 6.8102 0
M  V30 12534 O 1188.15 1.21055 7.94733 0
M  V30 12535 H 1187.88 -0.230427 0.635515 0
M  V30 12536 H 1190.43 -0.0551231 2.05326 0
M  V30 12537 H 1188.66 -2.42203 3.01454 0
M  V30 12538 H 1190.35 -2.23406 3.38887 0
M  V30 12539 H 1191.12 -0.222247 4.84491 0
M  V30 12540 H 1187 -1.36605 4.40296 0
M  V30 12541 H 1190.54 1.01598 6.90162 0
M  V30 12542 H 1186.44 -0.134514 6.4536 0
M  V30 12543 H 1187.21 1.11914 8.10813 0
M  V30 12544 N 1189.87 -1.5367 -0.349747 0
M  V30 12545 C 1190.82 -1.81223 -1.42922 0
M  V30 12546 C 1191.79 -0.657536 -1.52531 0
M  V30 12547 O 1192.97 -0.90134 -1.68168 0
M  V30 12548 C 1190.11 -2.022 -2.79659 0
M  V30 12549 C 1189.23 -3.29915 -2.78891 0
M  V30 12550 C 1188.36 -3.40993 -4.07305 0
M  V30 12551 C 1187.4 -4.6268 -4.00741 0
M  V30 12552 N 1186.54 -4.70826 -5.20833 0
M  V30 12553 H 1191.38 -2.73328 -1.18727 0
M  V30 12554 H 1188.91 -1.35386 -0.57525 0
M  V30 12555 H 1190.87 -2.12351 -3.59114 0
M  V30 12556 H 1189.5 -1.13416 -3.0222 0
M  V30 12557 H 1188.55 -3.28637 -1.91577 0
M  V30 12558 H 1189.87 -4.19459 -2.69917 0
M  V30 12559 H 1189.02 -3.50542 -4.95182 0
M  V30 12560 H 1187.76 -2.49493 -4.19052 0
M  V30 12561 H 1186.76 -4.53215 -3.11249 0
M  V30 12562 H 1187.99 -5.55538 -3.90582 0
M  V30 12563 H 1185.93 -3.82233 -5.33136 0
M  V30 12564 H 1185.85 -5.54297 -5.14092 0
M  V30 12565 H 1187.12 -4.84677 -6.10499 0
M  V30 12566 N 1191.35 0.610423 -1.45298 0
M  V30 12567 C 1192.6 1.36951 -1.49167 0
M  V30 12568 C 1192.92 1.9405 -0.132292 0
M  V30 12569 O 1192.18 1.75363 0.868686 0
M  V30 12570 C 1192.48 2.53812 -2.51623 0
M  V30 12571 C 1192.14 2.14877 -3.96407 0
M  V30 12572 C 1190.81 2.03972 -4.35831 0
M  V30 12573 C 1193.16 1.84448 -4.87472 0
M  V30 12574 C 1190.49 1.60856 -5.64218 0
M  V30 12575 C 1192.84 1.42818 -6.16268 0
M  V30 12576 C 1191.5 1.3047 -6.54625 0
M  V30 12577 H 1190.77 0.501138 -0.54584 0
M  V30 12578 H 1193.42 0.690221 -1.78629 0
M  V30 12579 H 1191.72 3.27066 -2.1572 0
M  V30 12580 H 1193.42 3.12041 -2.51856 0
M  V30 12581 H 1190.01 2.2429 -3.65229 0
M  V30 12582 H 1194.19 1.91771 -4.57753 0
M  V30 12583 H 1189.45 1.49916 -5.92735 0
M  V30 12584 H 1193.62 1.18318 -6.86275 0
M  V30 12585 H 1191.25 0.968347 -7.54007 0
M  V30 12586 N 1192.83 1.32541 0.852676 0
M  V30 12587 C 1193.76 1.17471 1.96807 0
M  V30 12588 C 1194.77 0.109198 1.62433 0
M  V30 12589 O 1195.96 0.358342 1.74866 0
M  V30 12590 C 1193.06 0.776328 3.29888 0
M  V30 12591 C 1192.23 1.93055 3.9249 0
M  V30 12592 C 1191.29 1.51539 5.03907 0
M  V30 12593 O 1190.32 2.22771 5.23796 0
M  V30 12594 N 1191.52 0.412533 5.79032 0
M  V30 12595 H 1194.29 2.13551 2.10276 0
M  V30 12596 H 1191.85 1.25104 1.02764 0
M  V30 12597 H 1193.84 0.48096 4.01832 0
M  V30 12598 H 1192.41 -0.0933749 3.12461 0
M  V30 12599 H 1191.63 2.39231 3.13309 0
M  V30 12600 H 1192.92 2.70321 4.3105 0
M  V30 12601 H 1192.31 -0.180286 5.65413 0
M  V30 12602 H 1190.87 0.17678 6.5156 0
M  V30 12603 N 1194.3 -1.0692 1.15784 0
M  V30 12604 C 1195.27 -2.12407 0.861167 0
M  V30 12605 C 1196.27 -1.6018 -0.141031 0
M  V30 12606 O 1197.46 -1.73972 0.0891192 0
M  V30 12607 C 1194.59 -3.39693 0.286636 0
M  V30 12608 H 1195.78 -2.40157 1.79623 0
M  V30 12609 H 1193.34 -1.22881 0.965916 0
M  V30 12610 H 1194.07 -3.17587 -0.656417 0
M  V30 12611 H 1193.86 -3.78903 1.0087 0
M  V30 12612 H 1195.35 -4.17488 0.0967971 0
M  V30 12613 N 1195.78 -0.955326 -1.25345 0
M  V30 12614 C 1197.06 -0.527828 -1.88344 0
M  V30 12615 C 1197.44 0.994911 -1.86185 0
M  V30 12616 O 1196.79 1.86099 -1.32587 0
M  V30 12617 C 1197 -1.10525 -3.31037 0
M  V30 12618 C 1198.35 -1.18253 -4.07801 0
M  V30 12619 O 1199.37 -1.05685 -3.4016 0
M  V30 12620 O 1198.23 -1.37978 -5.28795 0
M  V30 12621 H 1195.32 -0.174206 -0.808444 0
M  V30 12622 H 1197.87 -1.0488 -1.3341 0
M  V30 12623 H 1196.64 -2.14847 -3.27042 0
M  V30 12624 H 1196.26 -0.567568 -3.93528 0
M  V30 12625 N 1197.26 1.39987 -0.723979 0
M  V30 12626 C 1198.49 2.0556 -0.275634 0
M  V30 12627 C 1198.91 1.54207 1.07711 0
M  V30 12628 O 1198.27 0.681041 1.68022 0
M  V30 12629 C 1198.32 3.59551 -0.27485 0
M  V30 12630 O 1197.42 4.05685 0.741182 0
M  V30 12631 H 1196.76 0.651634 -0.12755 0
M  V30 12632 H 1199.29 1.79229 -0.986814 0
M  V30 12633 H 1199.3 4.07837 -0.115425 0
M  V30 12634 H 1197.98 3.96291 -1.26198 0
M  V30 12635 H 1196.55 3.6884 0.548795 0
M  V30 12636 N 1198.74 0.470782 1.50404 0
M  V30 12637 C 1200.15 0.0155901 1.86693 0
M  V30 12638 C 1200.5 -1.38908 1.38561 0
M  V30 12639 O 1199.63 -2.02971 0.750454 0
M  V30 12640 C 1200.22 0.0215152 3.38793 0
M  V30 12641 C 1198.78 -0.378206 3.74495 0
M  V30 12642 C 1197.93 0.407126 2.74295 0
M  V30 12643 H 1200.88 0.68507 1.43152 0
M  V30 12644 H 1200.9 -0.780717 3.72404 0
M  V30 12645 H 1200.41 1.04397 3.73795 0
M  V30 12646 H 1198.51 -1.40503 3.45094 0
M  V30 12647 H 1198.63 -0.0797643 4.79034 0
M  V30 12648 H 1196.99 -0.139123 2.5432 0
M  V30 12649 H 1197.77 1.42909 3.12141 0
M  V30 12650 N 1200.22 -1.56282 0.203376 0
M  V30 12651 C 1201.16 -2.19473 -0.714164 0
M  V30 12652 C 1202.13 -1.14454 -1.20372 0
M  V30 12653 O 1203.32 -1.42739 -1.26611 0
M  V30 12654 C 1200.46 -2.86451 -1.92457 0
M  V30 12655 C 1199.57 -4.06017 -1.47561 0
M  V30 12656 C 1198.71 -4.60829 -2.64216 0
M  V30 12657 C 1197.75 -5.72734 -2.15967 0
M  V30 12658 N 1196.88 -6.21916 -3.25829 0
M  V30 12659 H 1201.72 -2.97523 -0.168558 0
M  V30 12660 H 1199.26 -1.46926 -0.0714525 0
M  V30 12661 H 1201.22 -3.23459 -2.63496 0
M  V30 12662 H 1199.85 -2.10951 -2.44335 0
M  V30 12663 H 1198.9 -3.74617 -0.660784 0
M  V30 12664 H 1200.21 -4.8693 -1.08168 0
M  V30 12665 H 1199.37 -5.00185 -3.43366 0
M  V30 12666 H 1198.11 -3.7904 -3.06887 0
M  V30 12667 H 1197.11 -5.32899 -1.35273 0
M  V30 12668 H 1198.34 -6.56346 -1.74316 0
M  V30 12669 H 1196.28 -5.43047 -3.68016 0
M  V30 12670 H 1196.2 -6.97904 -2.90631 0
M  V30 12671 H 1197.47 -6.65927 -4.05168 0
M  V30 12672 N 1201.7 0.070167 -1.57444 0
M  V30 12673 C 1203.11 0.424991 -1.53838 0
M  V30 12674 C 1203.31 1.79076 -0.923793 0
M  V30 12675 O 1202.37 2.46939 -0.527002 0
M  V30 12676 C 1203.68 0.364562 -2.98482 0
M  V30 12677 C 1205.23 0.444631 -3.09826 0
M  V30 12678 C 1205.7 0.414093 -4.56124 0
M  V30 12679 N 1207.19 0.474119 -4.60767 0
M  V30 12680 C 1207.93 0.472729 -5.71448 0
M  V30 12681 N 1207.43 0.426059 -6.91489 0
M  V30 12682 N 1209.22 0.519408 -5.59695 0
M  V30 12683 H 1201.37 -0.824117 -1.9576 0
M  V30 12684 H 1203.63 -0.309401 -0.896089 0
M  V30 12685 H 1203.34 -0.572343 -3.47012 0
M  V30 12686 H 1203.21 1.17414 -3.5846 0
M  V30 12687 H 1205.6 1.37196 -2.61269 0
M  V30 12688 H 1205.68 -0.393547 -2.52755 0
M  V30 12689 H 1205.32 -0.509394 -5.05339 0
M  V30 12690 H 1205.25 1.26983 -5.11061 0
M  V30 12691 H 1207.75 0.514371 -3.74383 0
M  V30 12692 H 1208.06 0.428969 -7.71609 0
M  V30 12693 H 1206.4 0.392722 -6.9389 0
M  V30 12694 H 1209.59 0.553573 -4.64815 0
M  V30 12695 H 1209.77 0.514856 -6.45951 0
M  V30 12696 N 1203.17 1.53854 0.341593 0
M  V30 12697 C 1204.42 1.71447 1.08322 0
M  V30 12698 C 1204.75 0.477289 1.88243 0
M  V30 12699 O 1204.03 -0.525695 1.87261 0
M  V30 12700 C 1204.31 2.97917 2.02281 0
M  V30 12701 C 1204.16 4.31847 1.25809 0
M  V30 12702 C 1205.48 3.20065 3.0207 0
M  V30 12703 H 1202.6 0.623847 0.392408 0
M  V30 12704 H 1205.24 1.86527 0.361594 0
M  V30 12705 H 1203.39 2.85191 2.63815 0
M  V30 12706 H 1205.07 4.56427 0.668737 0
M  V30 12707 H 1203.31 4.30169 0.560119 0
M  V30 12708 H 1203.98 5.16522 1.94704 0
M  V30 12709 H 1206.46 3.32135 2.50651 0
M  V30 12710 H 1205.33 4.09947 3.65013 0
M  V30 12711 H 1205.59 2.36452 3.73554 0
M  V30 12712 N 1204.65 -0.602709 1.4562 0
M  V30 12713 C 1205.61 -1.69508 1.54271 0
M  V30 12714 C 1206.61 -1.55171 0.421727 0
M  V30 12715 O 1207.8 -1.60151 0.685375 0
M  V30 12716 C 1204.94 -3.0881 1.44392 0
M  V30 12717 H 1206.13 -1.63203 2.51605 0
M  V30 12718 H 1203.68 -0.818857 1.33133 0
M  V30 12719 H 1204.42 -3.20689 0.482614 0
M  V30 12720 H 1204.2 -3.20625 2.25704 0
M  V30 12721 H 1205.69 -3.8837 1.53488 0
M  V30 12722 N 1206.13 -1.32992 -0.845635 0
M  V30 12723 C 1207.36 -1.27087 -1.63268 0
M  V30 12724 C 1207.77 0.159481 -1.88125 0
M  V30 12725 O 1207.13 1.09948 -1.45663 0
M  V30 12726 C 1207.18 -2.03649 -2.98679 0
M  V30 12727 O 1206.9 -3.41104 -2.74918 0
M  V30 12728 C 1208.4 -2.04875 -3.93117 0
M  V30 12729 H 1205.62 -0.438107 -0.508236 0
M  V30 12730 H 1208.17 -1.75257 -1.05381 0
M  V30 12731 H 1206.32 -1.59178 -3.53187 0
M  V30 12732 H 1206.74 -3.80405 -3.61099 0
M  V30 12733 H 1208.21 -2.62911 -4.85368 0
M  V30 12734 H 1208.69 -1.03728 -4.26775 0
M  V30 12735 H 1209.29 -2.49334 -3.44547 0
M  V30 12736 N 1207.61 1.06304 -1.1635 0
M  V30 12737 C 1208.57 2.11947 -0.872419 0
M  V30 12738 C 1209.57 1.60253 0.132534 0
M  V30 12739 O 1210.76 1.73922 -0.0983441 0
M  V30 12740 C 1207.89 3.39536 -0.304646 0
M  V30 12741 H 1209.09 2.39201 -1.80894 0
M  V30 12742 H 1206.64 1.22367 -0.972419 0
M  V30 12743 H 1207.37 3.17931 0.639565 0
M  V30 12744 H 1207.16 3.78363 -1.02878 0
M  V30 12745 H 1208.65 4.17431 -0.118936 0
M  V30 12746 N 1209.09 0.96196 1.24836 0
M  V30 12747 C 1210.33 0.616342 1.92052 0
M  V30 12748 C 1210.65 -0.851601 1.76088 0
M  V30 12749 O 1211.85 -1.3075 2.37943 0
M  V30 12750 C 1210.31 1.05168 3.44191 0
M  V30 12751 C 1209.92 2.54268 3.68852 0
M  V30 12752 C 1211.66 0.778938 4.17292 0
M  V30 12753 C 1209.57 2.91564 5.14533 0
M  V30 12754 H 1208.5 0.22681 0.719078 0
M  V30 12755 H 1211.15 1.1674 1.41577 0
M  V30 12756 H 1209.53 0.428979 3.9367 0
M  V30 12757 H 1210.71 3.21619 3.29997 0
M  V30 12758 H 1209.02 2.79091 3.09026 0
M  V30 12759 H 1211.62 1.03366 5.24614 0
M  V30 12760 H 1211.96 -0.284772 4.15325 0
M  V30 12761 H 1212.49 1.36233 3.73745 0
M  V30 12762 H 1209.23 3.96982 5.21618 0
M  V30 12763 H 1208.75 2.28892 5.54408 0
M  V30 12764 H 1210.43 2.81155 5.82718 0
M  V30 12765 N 1210.56 -1.39601 0.731392 0
M  V30 12766 C 1211.53 -2.28992 0.0976037 0
M  V30 12767 C 1212.53 -1.46135 -0.670917 0
M  V30 12768 O 1213.72 -1.66856 -0.50047 0
M  V30 12769 C 1210.85 -3.29582 -0.871124 0
M  V30 12770 H 1212.04 -2.86541 0.885112 0
M  V30 12771 H 1209.59 -1.48188 0.497002 0
M  V30 12772 H 1210.33 -2.77082 -1.68512 0
M  V30 12773 H 1210.11 -3.9077 -0.322735 0
M  V30 12774 H 1211.6 -3.96479 -1.31126 0
M  V30 12775 N 1212.04 -0.478751 -1.50152 0
M  V30 12776 C 1213.29 0.0734397 -2.01967 0
M  V30 12777 C 1213.61 1.39523 -1.36229 0
M  V30 12778 O 1212.88 1.89141 -0.510149 0
M  V30 12779 H 1211.46 0.0301305 -0.746392 0
M  V30 12780 H 1214.12 -0.630921 -1.84406 0
M  V30 12781 H 1213.22 0.21937 -3.11328 0
M  V30 12782 N 1213.52 1.56172 -0.211661 0
M  V30 12783 C 1214.48 2.18602 0.688906 0
M  V30 12784 C 1215.48 1.14508 1.12892 0
M  V30 12785 O 1216.67 1.39799 1.03932 0
M  V30 12786 C 1213.81 2.80141 1.94253 0
M  V30 12787 H 1215 2.9955 0.144765 0
M  V30 12788 H 1212.55 1.56254 0.0379615 0
M  V30 12789 H 1213.29 2.03035 2.52878 0
M  V30 12790 H 1213.07 3.56358 1.63558 0
M  V30 12791 H 1214.56 3.28026 2.58436 0
M  V30 12792 N 1215 -0.0618163 1.57479 0
M  V30 12793 C 1216.24 -0.754894 1.88873 0
M  V30 12794 C 1216.6 -1.74679 0.806539 0
M  V30 12795 O 1215.89 -1.90672 -0.188301 0
M  V30 12796 C 1216.09 -1.4939 3.2468 0
M  V30 12797 C 1215.92 -0.575088 4.46008 0
M  V30 12798 C 1214.69 -0.208295 5.04871 0
M  V30 12799 C 1216.88 0.132502 5.14129 0
M  V30 12800 N 1214.87 0.715201 6.0972 0
M  V30 12801 C 1216.24 0.912821 6.13243 0
M  V30 12802 C 1218.29 0.20292 4.97486 0
M  V30 12803 C 1216.99 1.75703 6.97511 0
M  V30 12804 C 1219.02 1.03414 5.82288 0
M  V30 12805 C 1218.38 1.80248 6.80948 0
M  V30 12806 H 1214.48 -0.251354 0.740503 0
M  V30 12807 H 1217.07 -0.0160307 1.94693 0
M  V30 12808 H 1215.24 -2.20343 3.1985 0
M  V30 12809 H 1216.97 -2.13678 3.43691 0
M  V30 12810 H 1213.72 -0.563353 4.70237 0
M  V30 12811 H 1214.15 1.17049 6.66805 0
M  V30 12812 H 1218.79 -0.376779 4.21118 0
M  V30 12813 H 1216.51 2.34766 7.73247 0
M  V30 12814 H 1220.09 1.09173 5.71465 0
M  V30 12815 H 1218.97 2.43529 7.45428 0
M  V30 12816 N 1216.48 -1.54033 -0.333429 0
M  V30 12817 C 1217.39 -1.85737 -1.43314 0
M  V30 12818 C 1218.4 -0.748398 -1.57083 0
M  V30 12819 O 1219.58 -1.04171 -1.72367 0
M  V30 12820 C 1216.64 -2.06942 -2.78165 0
M  V30 12821 C 1215.7 -3.30774 -2.73655 0
M  V30 12822 C 1214.94 -3.50957 -4.02075 0
M  V30 12823 O 1215.16 -2.74774 -4.99855 0
M  V30 12824 O 1214.09 -4.44412 -4.05933 0
M  V30 12825 H 1217.92 -2.7923 -1.19434 0
M  V30 12826 H 1215.51 -1.39814 -0.526546 0
M  V30 12827 H 1217.39 -2.22276 -3.58011 0
M  V30 12828 H 1216.06 -1.16638 -3.01956 0
M  V30 12829 H 1214.97 -3.20835 -1.92395 0
M  V30 12830 H 1216.3 -4.21103 -2.54819 0
M  V30 12831 N 1217.95 0.594978 -1.45938 0
M  V30 12832 C 1218.9 1.726 -1.55923 0
M  V30 12833 C 1219.9 1.63893 -0.428411 0
M  V30 12834 O 1221.1 1.69535 -0.604815 0
M  V30 12835 H 1217.48 0.570447 -0.489994 0
M  V30 12836 H 1219.45 1.61308 -2.51043 0
M  V30 12837 C 1218.2 3.10988 -1.55505 0
M  V30 12838 H 1217.52 3.18353 -2.4185 0
M  V30 12839 H 1218.96 3.8992 -1.66548 0
M  V30 12840 C 1217.42 3.35721 -0.281573 0
M  V30 12841 O 1217.95 3.96676 0.633336 0
M  V30 12842 N 1216.16 2.90083 -0.173314 0
M  V30 12843 H 1215.7 2.4066 -0.91872 0
M  V30 12844 H 1215.66 3.07005 0.677903 0
M  V30 12845 N 1219.43 1.33438 0.838571 0
M  V30 12846 C 1220.68 1.24665 1.59069 0
M  V30 12847 C 1221 -0.187433 1.94097 0
M  V30 12848 O 1220.27 -1.11625 1.60987 0
M  V30 12849 H 1218.85 0.45843 0.589789 0
M  V30 12850 H 1221.51 1.67161 1.00216 0
M  V30 12851 H 1220.61 1.84057 2.52051 0
M  V30 12852 N 1220.91 -1.05686 1.16912 0
M  V30 12853 C 1222.16 -1.78862 0.955839 0
M  V30 12854 C 1222.49 -1.87257 -0.514645 0
M  V30 12855 O 1221.76 -1.36869 -1.38193 0
M  V30 12856 C 1222.05 -3.23021 1.59152 0
M  V30 12857 C 1221.9 -3.22669 3.13376 0
M  V30 12858 C 1223.22 -4.2073 1.29128 0
M  V30 12859 H 1220.34 -0.64931 0.348663 0
M  V30 12860 H 1222.98 -1.23561 1.44335 0
M  V30 12861 H 1221.13 -3.70243 1.17697 0
M  V30 12862 H 1222.8 -2.83562 3.63855 0
M  V30 12863 H 1221.05 -2.61149 3.46386 0
M  V30 12864 H 1221.72 -4.24394 3.52979 0
M  V30 12865 H 1224.19 -3.8198 1.65017 0
M  V30 12866 H 1223.07 -5.19851 1.76198 0
M  V30 12867 H 1223.33 -4.41595 0.21119 0
M  V30 12868 N 1222.39 -0.968567 -1.24324 0
M  V30 12869 C 1223.63 -0.63879 -1.94162 0
M  V30 12870 C 1223.99 0.81112 -1.74025 0
M  V30 12871 O 1225.19 1.25116 -2.37906 0
M  V30 12872 C 1223.46 -1.00432 -3.42999 0
M  V30 12873 S 1225.02 -0.789227 -4.31644 0
M  V30 12874 H 1221.84 -0.234322 -0.671278 0
M  V30 12875 H 1224.44 -1.2457 -1.50673 0
M  V30 12876 H 1223.15 -2.05643 -3.55161 0
M  V30 12877 H 1222.68 -0.388221 -3.9148 0
M  V30 12878 H 1224.69 0.332976 -4.95082 0
M  V30 12879 N 1223.87 1.39211 -0.738786 0
M  V30 12880 C 1225.11 2.0004 -0.28782 0
M  V30 12881 C 1225.44 1.58921 1.13 0
M  V30 12882 O 1224.71 0.839193 1.77015 0
M  V30 12883 H 1223.29 0.739805 -0.103425 0
M  V30 12884 H 1225.95 1.70202 -0.949587 0
M  V30 12885 H 1225.04 3.10251 -0.339208 0
M  V30 12886 N 1225.34 0.486708 1.49896 0
M  V30 12887 C 1226.59 -0.0646197 2.01596 0
M  V30 12888 C 1226.91 -1.39363 1.37249 0
M  V30 12889 O 1228.11 -2.03082 1.80194 0
M  V30 12890 C 1226.57 -0.16565 3.59519 0
M  V30 12891 C 1226.18 1.15586 4.32832 0
M  V30 12892 C 1227.92 -0.668103 4.1921 0
M  V30 12893 C 1225.83 1.01778 5.82576 0
M  V30 12894 H 1224.76 -0.0279241 0.753483 0
M  V30 12895 H 1227.41 0.623969 1.72566 0
M  V30 12896 H 1225.79 -0.918372 3.85204 0
M  V30 12897 H 1226.96 1.92076 4.1886 0
M  V30 12898 H 1225.28 1.59064 3.84822 0
M  V30 12899 H 1227.88 -0.788698 5.28851 0
M  V30 12900 H 1228.22 -1.66339 3.81624 0
M  V30 12901 H 1228.75 0.0276746 3.9779 0
M  V30 12902 H 1225.49 1.9869 6.24662 0
M  V30 12903 H 1225.01 0.293527 5.99081 0
M  V30 12904 H 1226.69 0.690693 6.43303 0
M  V30 12905 N 1226.82 -1.56058 0.219941 0
M  V30 12906 C 1228.24 -1.59024 -0.135476 0
M  V30 12907 C 1228.44 -1.23672 -1.59083 0
M  V30 12908 O 1227.5 -0.971197 -2.33075 0
M  V30 12909 C 1228.81 -3.00103 0.189356 0
M  V30 12910 C 1230.36 -3.12724 0.131463 0
M  V30 12911 C 1230.83 -4.55977 0.429947 0
M  V30 12912 N 1232.32 -4.61643 0.37946 0
M  V30 12913 C 1233.06 -5.70419 0.58393 0
M  V30 12914 N 1232.55 -6.87565 0.850088 0
M  V30 12915 N 1234.35 -5.59722 0.516477 0
M  V30 12916 H 1226.5 -1.77313 1.16935 0
M  V30 12917 H 1228.76 -0.824096 0.468583 0
M  V30 12918 H 1228.47 -3.30616 1.19941 0
M  V30 12919 H 1228.34 -3.73919 -0.49641 0
M  V30 12920 H 1230.73 -2.82008 -0.869223 0
M  V30 12921 H 1230.81 -2.41241 0.85068 0
M  V30 12922 H 1230.45 -4.8741 1.42806 0
M  V30 12923 H 1230.38 -5.25684 -0.310444 0
M  V30 12924 H 1232.87 -3.77465 0.181373 0
M  V30 12925 H 1233.19 -7.66378 0.994251 0
M  V30 12926 H 1231.53 -6.89313 0.887265 0
M  V30 12927 H 1234.72 -4.6708 0.308784 0
M  V30 12928 H 1234.9 -6.4443 0.679236 0
M  V30 12929 N 1228.3 0.053464 -1.57509 0
M  V30 12930 C 1229.53 0.765301 -1.92764 0
M  V30 12931 C 1229.95 1.69385 -0.817943 0
M  V30 12932 O 1229.31 1.7986 0.228075 0
M  V30 12933 C 1229.36 1.51938 -3.27028 0
M  V30 12934 O 1228.46 2.63121 -3.17555 0
M  V30 12935 H 1227.8 0.207567 -0.630723 0
M  V30 12936 H 1230.33 0.0162254 -2.04594 0
M  V30 12937 H 1230.34 1.89466 -3.6134 0
M  V30 12938 H 1229.02 0.838207 -4.07366 0
M  V30 12939 H 1227.59 2.28316 -2.94832 0
M  V30 12940 N 1229.78 1.54207 0.325255 0
M  V30 12941 C 1231.01 1.76293 1.08298 0
M  V30 12942 C 1231.42 0.510722 1.81761 0
M  V30 12943 O 1230.78 -0.5185 1.7498 0
M  V30 12944 C 1230.83 2.95498 2.08238 0
M  V30 12945 O 1230.55 4.15877 1.37759 0
M  V30 12946 C 1232.05 3.29781 2.96242 0
M  V30 12947 H 1229.27 0.588576 0.322209 0
M  V30 12948 H 1231.82 2.0109 0.371896 0
M  V30 12949 H 1229.97 2.72979 2.74884 0
M  V30 12950 H 1230.39 4.82918 2.04672 0
M  V30 12951 H 1231.86 4.16495 3.62265 0
M  V30 12952 H 1232.34 2.46874 3.63249 0
M  V30 12953 H 1232.94 3.54372 2.3516 0
M  V30 12954 N 1231.26 -0.58723 1.46251 0
M  V30 12955 C 1232.49 -1.37174 1.5489 0
M  V30 12956 C 1232.9 -1.87857 0.188445 0
M  V30 12957 O 1232.26 -1.63365 -0.813509 0
M  V30 12958 C 1232.31 -2.56237 2.55 0
M  V30 12959 O 1232.03 -2.07655 3.8576 0
M  V30 12960 C 1233.53 -3.48846 2.73535 0
M  V30 12961 H 1230.75 -0.419211 0.523931 0
M  V30 12962 H 1233.29 -0.714307 1.91619 0
M  V30 12963 H 1231.45 -3.1798 2.21287 0
M  V30 12964 H 1231.86 -2.85161 4.40208 0
M  V30 12965 H 1233.34 -4.2888 3.47514 0
M  V30 12966 H 1233.81 -4.00493 1.80282 0
M  V30 12967 H 1234.42 -2.92942 3.08326 0
M  V30 12968 N 1232.74 -1.33881 -0.831482 0
M  V30 12969 C 1234.15 -1.13376 -1.1233 0
M  V30 12970 C 1234.35 0.0704402 -2.01377 0
M  V30 12971 O 1233.41 0.748516 -2.4115 0
M  V30 12972 C 1234.72 -2.42484 -1.77826 0
M  V30 12973 C 1236.27 -2.4846 -1.90359 0
M  V30 12974 C 1236.74 -3.77548 -2.59272 0
M  V30 12975 N 1238.23 -3.7866 -2.66778 0
M  V30 12976 C 1238.97 -4.75258 -3.20807 0
M  V30 12977 N 1238.47 -5.82234 -3.75466 0
M  V30 12978 N 1240.26 -4.62724 -3.19128 0
M  V30 12979 H 1232.41 -2.11051 -0.238998 0
M  V30 12980 H 1234.67 -0.932893 -0.168565 0
M  V30 12981 H 1234.38 -3.30647 -1.19857 0
M  V30 12982 H 1234.25 -2.55186 -2.77777 0
M  V30 12983 H 1236.64 -1.60742 -2.47479 0
M  V30 12984 H 1236.72 -2.39693 -0.893359 0
M  V30 12985 H 1236.36 -4.65651 -2.02808 0
M  V30 12986 H 1236.29 -3.83594 -3.60781 0
M  V30 12987 H 1238.79 -3.01351 -2.28026 0
M  V30 12988 H 1239.1 -6.51968 -4.14918 0
M  V30 12989 H 1237.44 -5.85959 -3.73733 0
M  V30 12990 H 1240.63 -3.78303 -2.75688 0
M  V30 12991 H 1240.81 -5.38175 -3.60932 0
M  V30 12992 N 1234.21 1.05064 -1.1747 0
M  V30 12993 C 1235.15 2.12334 -0.836028 0
M  V30 12994 C 1236.12 1.61393 0.197733 0
M  V30 12995 O 1237.31 1.88334 0.0789748 0
M  V30 12996 C 1234.44 3.37796 -0.24734 0
M  V30 12997 C 1233.48 4.07565 -1.25669 0
M  V30 12998 S 1234.31 4.55941 -2.80853 0
M  V30 12999 C 1235.47 5.84648 -2.23468 0
M  V30 13000 H 1235.7 2.40735 -1.74453 0
M  V30 13001 H 1233.24 1.17684 -0.999495 0
M  V30 13002 H 1235.19 4.1041 0.0858241 0
M  V30 13003 H 1233.86 3.07529 0.639124 0
M  V30 13004 H 1233.05 4.97715 -0.793465 0
M  V30 13005 H 1232.65 3.41022 -1.53557 0
M  V30 13006 H 1234.94 6.58067 -1.61104 0
M  V30 13007 H 1235.89 6.35719 -3.11877 0
M  V30 13008 H 1236.29 5.39272 -1.6687 0
M  V30 13009 N 1235.69 0.975146 1.23809 0
M  V30 13010 C 1236.6 0.51917 2.28783 0
M  V30 13011 C 1237.62 -0.423487 1.68768 0
M  V30 13012 O 1238.79 -0.294699 1.99232 0
M  V30 13013 C 1235.86 -0.176229 3.46252 0
M  V30 13014 C 1234.92 0.807177 4.21643 0
M  V30 13015 C 1234.15 0.144869 5.33503 0
M  V30 13016 O 1234.38 -1.06522 5.60365 0
M  V30 13017 O 1233.31 0.84079 5.95999 0
M  V30 13018 H 1237.14 1.39204 2.69919 0
M  V30 13019 H 1234.72 0.74253 1.29641 0
M  V30 13020 H 1236.6 -0.566547 4.17574 0
M  V30 13021 H 1235.28 -1.02394 3.07078 0
M  V30 13022 H 1234.18 1.2481 3.52666 0
M  V30 13023 H 1235.52 1.62354 4.64653 0
M  V30 13024 N 1237.17 -1.38817 0.746158 0
M  V30 13025 C 1238.12 -2.32373 0.102785 0
M  V30 13026 C 1239.11 -1.53638 -0.713556 0
M  V30 13027 O 1240.32 -1.69223 -0.613488 0
M  V30 13028 H 1236.69 -0.751861 0.0144405 0
M  V30 13029 H 1238.66 -2.84249 0.908032 0
M  V30 13030 C 1237.41 -3.38796 -0.781827 0
M  V30 13031 H 1236.74 -3.99467 -0.163057 0
M  V30 13032 H 1238.18 -4.06682 -1.19941 0
M  V30 13033 C 1236.63 -2.76756 -1.92113 0
M  V30 13034 O 1237.16 -2.65478 -3.0147 0
M  V30 13035 N 1235.37 -2.34676 -1.71392 0
M  V30 13036 H 1234.92 -2.44049 -0.824483 0
M  V30 13037 H 1234.88 -1.93508 -2.47794 0
M  V30 13038 N 1238.65 -0.49465 -1.49636 0
M  V30 13039 C 1239.58 0.276606 -2.31856 0
M  V30 13040 C 1240.56 0.968499 -1.39836 0
M  V30 13041 O 1241.74 0.96113 -1.68748 0
M  V30 13042 C 1238.87 1.34522 -3.20189 0
M  V30 13043 C 1237.83 0.773571 -4.20951 0
M  V30 13044 C 1237.15 1.94223 -4.98178 0
M  V30 13045 C 1238.45 -0.231096 -5.21788 0
M  V30 13046 H 1240.15 -0.409668 -2.96584 0
M  V30 13047 H 1237.69 -0.198461 -1.42626 0
M  V30 13048 H 1239.65 1.89244 -3.76517 0
M  V30 13049 H 1238.37 2.06059 -2.53392 0
M  V30 13050 H 1237.03 0.248144 -3.65759 0
M  V30 13051 H 1236.68 2.64514 -4.27834 0
M  V30 13052 H 1236.38 1.56584 -5.66353 0
M  V30 13053 H 1237.9 2.49391 -5.57348 0
M  V30 13054 H 1239.32 0.227768 -5.72847 0
M  V30 13055 H 1237.71 -0.522984 -5.97817 0
M  V30 13056 H 1238.78 -1.14914 -4.71087 0
M  V30 13057 N 1240.13 1.55939 -0.228214 0
M  V30 13058 C 1241.06 2.2357 0.6737 0
M  V30 13059 C 1242.04 1.20964 1.1959 0
M  V30 13060 O 1243.22 1.49568 1.23867 0
M  V30 13061 C 1240.35 2.92076 1.87906 0
M  V30 13062 C 1239.31 4.01211 1.49043 0
M  V30 13063 C 1238.63 4.57047 2.77511 0
M  V30 13064 C 1239.93 5.17914 0.67544 0
M  V30 13065 H 1241.63 2.99199 0.109806 0
M  V30 13066 H 1239.17 1.43908 0.0513732 0
M  V30 13067 H 1241.12 3.38083 2.51551 0
M  V30 13068 H 1239.85 2.13906 2.46803 0
M  V30 13069 H 1238.51 3.55945 0.877411 0
M  V30 13070 H 1238.16 3.75599 3.34566 0
M  V30 13071 H 1237.86 5.30707 2.52239 0
M  V30 13072 H 1239.38 5.05776 3.42087 0
M  V30 13073 H 1240.79 5.60261 1.21575 0
M  V30 13074 H 1239.19 5.97847 0.519536 0
M  V30 13075 H 1240.26 4.83866 -0.316495 0
M  V30 13076 N 1241.6 -0.0451101 1.57535 0
M  V30 13077 C 1242.85 -0.734819 1.89663 0
M  V30 13078 C 1243.21 -1.73814 0.82502 0
M  V30 13079 O 1242.5 -1.90861 -0.168067 0
M  V30 13080 C 1242.69 -1.45938 3.26247 0
M  V30 13081 C 1242.52 -0.52775 4.46593 0
M  V30 13082 C 1241.29 -0.154735 5.05063 0
M  V30 13083 C 1243.49 0.187025 5.1396 0
M  V30 13084 N 1241.47 0.77983 6.08927 0
M  V30 13085 C 1242.84 0.977812 6.12241 0
M  V30 13086 C 1244.9 0.255673 4.97243 0
M  V30 13087 C 1243.6 1.83091 6.95608 0
M  V30 13088 C 1245.63 1.09584 5.81159 0
M  V30 13089 C 1244.99 1.8746 6.78998 0
M  V30 13090 H 1241.09 -0.243486 0.743128 0
M  V30 13091 H 1243.67 0.00462003 1.94699 0
M  V30 13092 H 1241.84 -2.16938 3.22169 0
M  V30 13093 H 1243.57 -2.10021 3.45938 0
M  V30 13094 H 1240.33 -0.513447 4.70809 0
M  V30 13095 H 1240.75 1.24114 6.65526 0
M  V30 13096 H 1245.4 -0.332093 4.21494 0
M  V30 13097 H 1243.11 2.42954 7.70713 0
M  V30 13098 H 1246.7 1.15228 5.70275 0
M  V30 13099 H 1245.58 2.51422 7.42803 0
M  V30 13100 N 1243.08 -1.54377 -0.317073 0
M  V30 13101 C 1244.03 -1.84214 -1.39046 0
M  V30 13102 C 1245 -0.689742 -1.51102 0
M  V30 13103 O 1246.18 -0.936809 -1.66218 0
M  V30 13104 C 1243.32 -2.08087 -2.75307 0
M  V30 13105 C 1242.44 -3.35756 -2.7183 0
M  V30 13106 C 1241.57 -3.49556 -3.9998 0
M  V30 13107 C 1240.61 -4.71076 -3.90837 0
M  V30 13108 N 1239.75 -4.81767 -5.10729 0
M  V30 13109 H 1244.59 -2.75785 -1.12902 0
M  V30 13110 H 1242.13 -1.36575 -0.546404 0
M  V30 13111 H 1244.08 -2.19921 -3.54529 0
M  V30 13112 H 1242.71 -1.19801 -2.99746 0
M  V30 13113 H 1241.77 -3.32627 -1.84563 0
M  V30 13114 H 1243.08 -4.2509 -2.60959 0
M  V30 13115 H 1242.23 -3.60967 -4.87635 0
M  V30 13116 H 1240.97 -2.58326 -4.13665 0
M  V30 13117 H 1239.98 -4.59715 -3.01566 0
M  V30 13118 H 1241.2 -5.63698 -3.78711 0
M  V30 13119 H 1239.15 -3.93455 -5.24908 0
M  V30 13120 H 1239.06 -5.65077 -5.02219 0
M  V30 13121 H 1240.33 -4.97517 -6.00081 0
M  V30 13122 N 1244.56 0.579466 -1.4656 0
M  V30 13123 C 1245.49 1.70291 -1.53406 0
M  V30 13124 C 1246.51 1.57232 -0.422116 0
M  V30 13125 O 1247.69 1.64598 -0.69064 0
M  V30 13126 C 1244.79 3.08572 -1.40131 0
M  V30 13127 C 1243.97 3.47602 -2.65502 0
M  V30 13128 C 1243.03 4.64955 -2.4638 0
M  V30 13129 O 1242.05 4.70653 -3.20116 0
M  V30 13130 N 1243.25 5.60041 -1.52756 0
M  V30 13131 H 1246.02 1.64873 -2.50274 0
M  V30 13132 H 1243.58 0.765533 -1.42658 0
M  V30 13133 H 1245.57 3.84877 -1.25106 0
M  V30 13134 H 1244.14 3.0834 -0.514322 0
M  V30 13135 H 1243.36 2.60969 -2.95446 0
M  V30 13136 H 1244.65 3.70446 -3.48779 0
M  V30 13137 H 1244.05 5.58176 -0.919587 0
M  V30 13138 H 1242.61 6.35764 -1.43693 0
M  V30 13139 N 1246.04 1.3432 0.824371 0
M  V30 13140 C 1247.29 1.25938 1.57552 0
M  V30 13141 C 1247.6 -0.169298 1.94866 0
M  V30 13142 O 1248.81 -0.375262 2.68894 0
M  V30 13143 C 1247.26 2.20757 2.84244 0
M  V30 13144 C 1246.87 3.68873 2.54237 0
M  V30 13145 C 1248.61 2.21279 3.62265 0
M  V30 13146 C 1246.52 4.55566 3.77113 0
M  V30 13147 H 1245.45 0.467832 0.591311 0
M  V30 13148 H 1248.1 1.59476 0.907724 0
M  V30 13149 H 1246.48 1.80168 3.52641 0
M  V30 13150 H 1247.66 4.17991 1.93959 0
M  V30 13151 H 1245.97 3.70784 1.89494 0
M  V30 13152 H 1248.57 2.83272 4.53499 0
M  V30 13153 H 1248.91 1.2117 3.98276 0
M  V30 13154 H 1249.45 2.60305 3.00809 0
M  V30 13155 H 1246.19 5.56605 3.46223 0
M  V30 13156 H 1245.71 4.11184 4.36678 0
M  V30 13157 H 1247.38 4.701 4.44539 0
M  V30 13158 N 1247.52 -1.0444 1.18026 0
M  V30 13159 C 1248.48 -2.10532 0.906028 0
M  V30 13160 C 1249.48 -1.60443 -0.107022 0
M  V30 13161 O 1250.67 -1.73744 0.126001 0
M  V30 13162 C 1247.8 -3.39008 0.358625 0
M  V30 13163 H 1248.99 -2.36293 1.84677 0
M  V30 13164 H 1246.55 -1.20805 0.991763 0
M  V30 13165 H 1247.28 -3.18908 -0.588904 0
M  V30 13166 H 1247.07 -3.76678 1.08884 0
M  V30 13167 H 1248.56 -4.17189 0.185331 0
M  V30 13168 N 1248.99 -0.981699 -1.2329 0
M  V30 13169 C 1249.94 -0.515432 -2.26817 0
M  V30 13170 C 1250.94 0.428204 -1.63899 0
M  V30 13171 O 1252.14 0.301954 -1.77449 0
M  V30 13172 H 1248.52 -0.148257 -0.737241 0
M  V30 13173 H 1250.49 -1.40027 -2.63505 0
M  V30 13174 C 1249.24 0.165266 -3.47307 0
M  V30 13175 H 1248.56 -0.55176 -3.95974 0
M  V30 13176 H 1250 0.45513 -4.2155 0
M  V30 13177 C 1248.46 1.39693 -3.06574 0
M  V30 13178 O 1248.99 2.49308 -3.14974 0
M  V30 13179 N 1247.2 1.26806 -2.61474 0
M  V30 13180 H 1246.74 0.376161 -2.54839 0
M  V30 13181 H 1246.7 2.09324 -2.34587 0
M  V30 13182 N 1250.47 1.3842 -0.753509 0
M  V30 13183 C 1251.38 2.34252 -0.127811 0
M  V30 13184 C 1252.4 1.59266 0.700743 0
M  V30 13185 O 1253.57 1.9146 0.624914 0
M  V30 13186 C 1250.64 3.38382 0.754886 0
M  V30 13187 C 1249.7 4.2921 -0.0880312 0
M  V30 13188 C 1248.93 5.28367 0.75263 0
M  V30 13189 O 1249.16 5.34537 1.99064 0
M  V30 13190 O 1248.09 6.01656 0.171475 0
M  V30 13191 H 1251.92 2.89454 -0.91925 0
M  V30 13192 H 1249.5 1.40265 -0.514404 0
M  V30 13193 H 1251.38 4.02141 1.25938 0
M  V30 13194 H 1250.06 2.85536 1.52482 0
M  V30 13195 H 1248.97 3.68611 -0.638468 0
M  V30 13196 H 1250.3 4.85311 -0.82062 0
M  V30 13197 N 1251.95 0.502579 1.49372 0
M  V30 13198 C 1252.88 -0.264307 2.31999 0
M  V30 13199 C 1253.86 -0.96107 1.40348 0
M  V30 13200 O 1255.05 -0.952167 1.69255 0
M  V30 13201 C 1252.18 -1.32822 3.20898 0
M  V30 13202 C 1251.13 -0.751236 4.21355 0
M  V30 13203 C 1250.46 -1.91578 4.99201 0
M  V30 13204 C 1251.76 0.258764 5.21659 0
M  V30 13205 H 1253.45 0.425391 2.96363 0
M  V30 13206 H 1251 0.206022 1.42519 0
M  V30 13207 H 1252.95 -1.87245 3.77515 0
M  V30 13208 H 1251.67 -2.04712 2.54481 0
M  V30 13209 H 1250.33 -0.228743 3.65886 0
M  V30 13210 H 1249.98 -2.62241 4.2923 0
M  V30 13211 H 1249.68 -1.53578 5.67175 0
M  V30 13212 H 1251.2 -2.46432 5.58663 0
M  V30 13213 H 1252.62 -0.197385 5.7296 0
M  V30 13214 H 1251.02 0.554681 5.97531 0
M  V30 13215 H 1252.09 1.1741 4.70471 0
M  V30 13216 N 1253.43 -1.55816 0.23648 0
M  V30 13217 C 1254.38 -2.22322 -0.68378 0
M  V30 13218 C 1255.37 -1.2074 -1.1882 0
M  V30 13219 O 1256.58 -1.38781 -1.14629 0
M  V30 13220 H 1252.95 -0.713021 -0.238966 0
M  V30 13221 H 1254.92 -2.98234 -0.0995879 0
M  V30 13222 C 1253.67 -2.92845 -1.87449 0
M  V30 13223 H 1252.99 -3.70777 -1.49548 0
M  V30 13224 H 1254.43 -3.42758 -2.49585 0
M  V30 13225 C 1252.89 -1.96139 -2.73918 0
M  V30 13226 O 1253.42 -1.48781 -3.73132 0
M  V30 13227 N 1251.63 -1.63465 -2.40266 0
M  V30 13228 H 1251.18 -2.02171 -1.59639 0
M  V30 13229 H 1251.13 -0.990239 -2.98398 0
M  V30 13230 N 1254.91 0.036755 -1.57557 0
M  V30 13231 C 1256.14 0.740011 -1.92892 0
M  V30 13232 C 1256.54 1.69828 -0.833964 0
M  V30 13233 O 1255.89 1.82619 0.198974 0
M  V30 13234 C 1255.95 1.55827 -3.23972 0
M  V30 13235 C 1255.61 0.765613 -4.50541 0
M  V30 13236 C 1256.61 0.0692686 -5.19854 0
M  V30 13237 C 1254.3 0.722425 -4.97078 0
M  V30 13238 C 1256.29 -0.659649 -6.33977 0
M  V30 13239 C 1253.98 -0.0102431 -6.11099 0
M  V30 13240 C 1254.97 -0.700047 -6.79403 0
M  V30 13241 O 1254.66 -1.42084 -7.91244 0
M  V30 13242 H 1254.39 0.213496 -0.641401 0
M  V30 13243 H 1256.95 0.000665152 -2.054 0
M  V30 13244 H 1255.18 2.34125 -3.0777 0
M  V30 13245 H 1256.87 2.14343 -3.44691 0
M  V30 13246 H 1257.63 0.0937148 -4.84909 0
M  V30 13247 H 1253.51 1.24883 -4.43763 0
M  V30 13248 H 1257.06 -1.19861 -6.87226 0
M  V30 13249 H 1252.95 -0.0366395 -6.4549 0
M  V30 13250 H 1253.72 -1.33372 -8.07561 0
M  V30 13251 N 1256.39 1.54543 0.308881 0
M  V30 13252 C 1257.63 1.7266 1.04266 0
M  V30 13253 C 1257.95 0.51518 1.88694 0
M  V30 13254 O 1259.15 0.577988 2.65276 0
M  V30 13255 C 1257.61 3.05448 1.9034 0
M  V30 13256 C 1257.22 4.34043 1.10953 0
M  V30 13257 C 1258.96 3.32925 2.63365 0
M  V30 13258 C 1256.87 5.57886 1.96258 0
M  V30 13259 H 1255.8 0.643485 0.392992 0
M  V30 13260 H 1258.45 1.8103 0.300077 0
M  V30 13261 H 1256.83 2.91023 2.68555 0
M  V30 13262 H 1258.01 4.59279 0.374069 0
M  V30 13263 H 1256.32 4.13442 0.495453 0
M  V30 13264 H 1258.92 4.22649 3.27524 0
M  V30 13265 H 1259.26 2.51451 3.3178 0
M  V30 13266 H 1259.79 3.48285 1.92204 0
M  V30 13267 H 1256.53 6.42005 1.32326 0
M  V30 13268 H 1256.05 5.36847 2.67498 0
M  V30 13269 H 1257.73 5.94846 2.54494 0
M  V30 13270 N 1257.86 -0.571685 1.46866 0
M  V30 13271 C 1258.79 -1.68994 1.61131 0
M  V30 13272 C 1259.77 -1.63728 0.461222 0
M  V30 13273 O 1260.96 -1.81574 0.688813 0
M  V30 13274 C 1258.09 -3.07638 1.61172 0
M  V30 13275 C 1257.04 -3.27742 2.75262 0
M  V30 13276 C 1256.37 -4.67025 2.60368 0
M  V30 13277 C 1257.67 -3.14511 4.16989 0
M  V30 13278 H 1259.36 -1.57311 2.54742 0
M  V30 13279 H 1256.91 -0.755382 1.22597 0
M  V30 13280 H 1258.86 -3.857 1.69744 0
M  V30 13281 H 1257.59 -3.20245 0.641122 0
M  V30 13282 H 1256.25 -2.52083 2.66176 0
M  V30 13283 H 1255.89 -4.76413 1.61368 0
M  V30 13284 H 1255.59 -4.81428 3.36899 0
M  V30 13285 H 1257.12 -5.47242 2.70848 0
M  V30 13286 H 1258.53 -3.82407 4.27128 0
M  V30 13287 H 1256.93 -3.40431 4.94193 0
M  V30 13288 H 1258 -2.11443 4.36371 0
M  V30 13289 N 1259.34 -1.34755 -0.817236 0
M  V30 13290 C 1260.59 -1.28629 -1.57563 0
M  V30 13291 C 1260.94 0.141015 -1.91883 0
M  V30 13292 O 1260.24 1.08874 -1.57661 0
M  V30 13293 C 1260.43 -2.11611 -2.8802 0
M  V30 13294 C 1260.26 -3.62266 -2.66446 0
M  V30 13295 C 1259.03 -4.3153 -2.62887 0
M  V30 13296 C 1261.23 -4.56145 -2.37564 0
M  V30 13297 N 1259.21 -5.67999 -2.32918 0
M  V30 13298 C 1260.58 -5.80658 -2.17339 0
M  V30 13299 C 1262.63 -4.44999 -2.23339 0
M  V30 13300 C 1261.34 -6.9528 -1.8433 0
M  V30 13301 C 1263.36 -5.5946 -1.91726 0
M  V30 13302 C 1262.73 -6.82995 -1.72329 0
M  V30 13303 H 1258.82 -0.52593 -0.578724 0
M  V30 13304 H 1261.41 -1.69527 -0.957533 0
M  V30 13305 H 1259.58 -1.73 -3.47743 0
M  V30 13306 H 1261.31 -1.97085 -3.53468 0
M  V30 13307 H 1258.07 -3.84029 -2.77162 0
M  V30 13308 H 1258.49 -6.39996 -2.20757 0
M  V30 13309 H 1263.13 -3.50104 -2.37037 0
M  V30 13310 H 1260.85 -7.90152 -1.69369 0
M  V30 13311 H 1264.44 -5.52784 -1.81443 0
M  V30 13312 H 1263.32 -7.70065 -1.48222 0
M  V30 13313 N 1260.82 1.03812 -1.18578 0
M  V30 13314 C 1261.73 2.15371 -0.930182 0
M  V30 13315 C 1262.75 1.73673 0.106599 0
M  V30 13316 O 1263.92 2.01257 -0.0759054 0
M  V30 13317 C 1260.99 3.43606 -0.462151 0
M  V30 13318 C 1260.05 3.99671 -1.5672 0
M  V30 13319 C 1259.28 5.21785 -1.12141 0
M  V30 13320 O 1259.5 5.70397 0.0188357 0
M  V30 13321 O 1258.44 5.70449 -1.9202 0
M  V30 13322 H 1262.26 2.39791 -1.86371 0
M  V30 13323 H 1259.85 1.13814 -0.967819 0
M  V30 13324 H 1261.73 4.2088 -0.20934 0
M  V30 13325 H 1260.41 3.20654 0.443052 0
M  V30 13326 H 1259.31 3.23774 -1.87406 0
M  V30 13327 H 1260.65 4.2697 -2.44862 0
M  V30 13328 N 1262.3 0.988223 1.22768 0
M  V30 13329 C 1263.25 0.527454 2.26541 0
M  V30 13330 C 1264.24 -0.419506 1.64123 0
M  V30 13331 O 1265.45 -0.292539 1.77607 0
M  V30 13332 H 1261.82 0.152165 0.736444 0
M  V30 13333 H 1263.79 1.41422 2.62759 0
M  V30 13334 C 1262.54 -0.146845 3.4739 0
M  V30 13335 H 1261.86 0.572752 3.95676 0
M  V30 13336 H 1263.3 -0.432768 4.21786 0
M  V30 13337 C 1261.76 -1.38065 3.0731 0
M  V30 13338 O 1262.29 -2.47634 3.16291 0
M  V30 13339 N 1260.5 -1.25418 2.62143 0
M  V30 13340 H 1260.05 -0.362641 2.55035 0
M  V30 13341 H 1260 -2.08077 2.35694 0
M  V30 13342 N 1263.78 -1.38018 0.760839 0
M  V30 13343 C 1265.05 -1.94054 0.245437 0
M  V30 13344 C 1265.43 -1.6955 -1.25761 0
M  V30 13345 O 1264.78 -1.03812 -2.03557 0
M  V30 13346 C 1264.99 -3.43681 0.606986 0
M  V30 13347 C 1266.34 -4.20748 0.570673 0
M  V30 13348 O 1267.36 -3.51995 0.545715 0
M  V30 13349 O 1266.22 -5.43327 0.588043 0
M  V30 13350 H 1263.32 -0.825264 0.0535607 0
M  V30 13351 H 1265.86 -1.47369 0.841453 0
M  V30 13352 H 1264.63 -3.55054 1.64476 0
M  V30 13353 H 1264.26 -3.97597 -0.0166576 0
M  V30 13354 N 1265.25 -0.510493 -1.49103 0
M  V30 13355 C 1266.5 0.0325393 -2.01674 0
M  V30 13356 C 1266.82 1.37162 -1.39448 0
M  V30 13357 O 1268.02 2.00189 -1.83402 0
M  V30 13358 C 1266.48 0.108433 -3.59737 0
M  V30 13359 C 1266.09 -1.22458 -4.30939 0
M  V30 13360 C 1267.83 0.601326 -4.20219 0
M  V30 13361 C 1265.74 -1.11033 -5.80884 0
M  V30 13362 H 1264.67 0.0159333 -0.753832 0
M  V30 13363 H 1267.32 -0.651344 -1.71551 0
M  V30 13364 H 1265.7 0.856974 -3.86616 0
M  V30 13365 H 1266.87 -1.98715 -4.15751 0
M  V30 13366 H 1265.19 -1.65166 -3.82242 0
M  V30 13367 H 1267.79 0.704462 -5.30039 0
M  V30 13368 H 1268.13 1.60247 -3.84222 0
M  V30 13369 H 1268.66 -0.0909561 -3.97696 0
M  V30 13370 H 1265.4 -2.08603 -6.21422 0
M  V30 13371 H 1264.92 -0.388798 -5.98539 0
M  V30 13372 H 1266.6 -0.792949 -6.42123 0
M  V30 13373 N 1266.73 1.55688 -0.24474 0
M  V30 13374 C 1267.68 2.21289 0.655723 0
M  V30 13375 C 1268.65 1.17606 1.17295 0
M  V30 13376 O 1269.83 1.46045 1.22782 0
M  V30 13377 C 1266.97 2.91453 1.84794 0
M  V30 13378 C 1266.09 4.09787 1.36744 0
M  V30 13379 C 1265.22 4.67672 2.51905 0
M  V30 13380 C 1264.26 5.78259 2.00706 0
M  V30 13381 N 1263.4 6.30336 3.09225 0
M  V30 13382 H 1268.24 2.97865 0.0896156 0
M  V30 13383 H 1265.77 1.47064 0.0324725 0
M  V30 13384 H 1267.73 3.30331 2.54828 0
M  V30 13385 H 1266.36 2.17355 2.38656 0
M  V30 13386 H 1265.41 3.76237 0.561228 0
M  V30 13387 H 1266.73 4.89627 0.952199 0
M  V30 13388 H 1265.88 5.09113 3.29984 0
M  V30 13389 H 1264.62 3.87044 2.9673 0
M  V30 13390 H 1263.62 5.36298 1.21097 0
M  V30 13391 H 1264.85 6.60737 1.56853 0
M  V30 13392 H 1262.8 5.52614 3.53489 0
M  V30 13393 H 1262.71 7.05364 2.72025 0
M  V30 13394 H 1263.98 6.76435 3.8737 0
M  V30 13395 N 1268.21 -0.0283989 1.57574 0
M  V30 13396 C 1269.14 -1.02828 2.09639 0
M  V30 13397 C 1270.12 -1.37668 0.999076 0
M  V30 13398 O 1271.31 -1.4654 1.27435 0
M  V30 13399 C 1268.44 -2.329 2.57633 0
M  V30 13400 C 1267.39 -2.12301 3.71635 0
M  V30 13401 C 1266.72 -3.48138 4.05837 0
M  V30 13402 C 1268.02 -1.50864 5.00037 0
M  V30 13403 H 1269.71 -0.594876 2.93431 0
M  V30 13404 H 1267.26 -0.284701 1.41158 0
M  V30 13405 H 1269.21 -3.03179 2.92678 0
M  V30 13406 H 1267.93 -2.78302 1.70926 0
M  V30 13407 H 1266.59 -1.44454 3.3694 0
M  V30 13408 H 1266.24 -3.9119 3.16195 0
M  V30 13409 H 1265.94 -3.3518 4.82626 0
M  V30 13410 H 1267.46 -4.19779 4.43417 0
M  V30 13411 H 1268.88 -2.11062 5.33035 0
M  V30 13412 H 1267.27 -1.48479 5.81441 0
M  V30 13413 H 1268.34 -0.474541 4.82572 0
M  V30 13414 N 1269.69 -1.54705 -0.300681 0
M  V30 13415 C 1270.92 -1.77993 -1.0548 0
M  V30 13416 C 1271.33 -0.539574 -1.80926 0
M  V30 13417 O 1270.69 0.490597 -1.75782 0
M  V30 13418 C 1270.74 -2.98774 -2.0351 0
M  V30 13419 O 1270.46 -4.18016 -1.31126 0
M  V30 13420 C 1271.96 -3.34452 -2.90958 0
M  V30 13421 H 1269.18 -0.593628 -0.312805 0
M  V30 13422 H 1271.72 -2.01656 -0.339858 0
M  V30 13423 H 1269.88 -2.77318 -2.70506 0
M  V30 13424 H 1270.29 -4.86113 -1.96963 0
M  V30 13425 H 1271.77 -4.22206 -3.55593 0
M  V30 13426 H 1272.24 -2.52622 -3.59275 0
M  V30 13427 H 1272.85 -3.58069 -2.29493 0
M  V30 13428 N 1271.17 0.563888 -1.47167 0
M  V30 13429 C 1272.41 1.32331 -1.53676 0
M  V30 13430 C 1272.75 1.93213 -0.195593 0
M  V30 13431 O 1272.02 1.77508 0.795068 0
M  V30 13432 C 1272.3 2.43848 -2.64972 0
M  V30 13433 C 1272.16 1.8788 -4.08682 0
M  V30 13434 C 1273.48 3.45809 -2.72221 0
M  V30 13435 H 1270.59 0.479791 -0.559437 0
M  V30 13436 H 1273.24 0.631669 -1.79192 0
M  V30 13437 H 1271.39 3.02846 -2.43345 0
M  V30 13438 H 1273.06 1.33195 -4.41652 0
M  V30 13439 H 1271.3 1.18593 -4.17275 0
M  V30 13440 H 1271.97 2.68465 -4.82318 0
M  V30 13441 H 1274.45 2.9672 -2.91713 0
M  V30 13442 H 1273.32 4.21272 -3.51882 0
M  V30 13443 H 1273.59 4.04236 -1.79014 0
M  V30 13444 N 1272.64 1.35187 0.810078 0
M  V30 13445 C 1273.89 1.28454 1.56931 0
M  V30 13446 C 1274.22 -0.141747 1.93682 0
M  V30 13447 O 1273.5 -1.09028 1.61069 0
M  V30 13448 C 1273.78 2.18771 2.86027 0
M  V30 13449 C 1273.63 3.69999 2.55774 0
M  V30 13450 C 1274.95 2.08265 3.87703 0
M  V30 13451 H 1272.07 0.467959 0.569371 0
M  V30 13452 H 1274.71 1.65556 0.932262 0
M  V30 13453 H 1272.86 1.8726 3.40391 0
M  V30 13454 H 1274.54 4.11936 2.07621 0
M  V30 13455 H 1272.78 3.90453 1.89021 0
M  V30 13456 H 1273.45 4.28577 3.47888 0
M  V30 13457 H 1275.93 2.35958 3.42729 0
M  V30 13458 H 1274.8 2.73663 4.75815 0
M  V30 13459 H 1275.06 1.06352 4.29117 0
M  V30 13460 N 1274.12 -1.03182 1.19127 0
M  V30 13461 C 1275.37 -1.76794 0.993563 0
M  V30 13462 C 1275.7 -1.88306 -0.474809 0
M  V30 13463 O 1274.98 -1.39769 -1.35258 0
M  V30 13464 C 1275.26 -3.19573 1.65968 0
M  V30 13465 C 1275.11 -3.1595 3.2015 0
M  V30 13466 C 1276.43 -4.17897 1.38023 0
M  V30 13467 H 1273.55 -0.641768 0.362357 0
M  V30 13468 H 1276.19 -1.20472 1.46924 0
M  V30 13469 H 1274.34 -3.67663 1.25524 0
M  V30 13470 H 1276.01 -2.7578 3.69788 0
M  V30 13471 H 1274.26 -2.53743 3.51848 0
M  V30 13472 H 1274.93 -4.16811 3.61901 0
M  V30 13473 H 1277.4 -3.78394 1.73082 0
M  V30 13474 H 1276.28 -5.15997 1.87186 0
M  V30 13475 H 1276.54 -4.41048 0.304812 0
M  V30 13476 N 1275.6 -0.99472 -1.22242 0
M  V30 13477 C 1276.85 -0.670275 -1.90661 0
M  V30 13478 C 1277.17 0.800369 -1.77818 0
M  V30 13479 O 1276.44 1.57381 -1.16653 0
M  V30 13480 H 1275.02 -0.244925 -0.705706 0
M  V30 13481 H 1277.68 -1.26162 -1.48557 0
M  V30 13482 H 1276.78 -0.934408 -2.97784 0
M  V30 13483 N 1277.08 1.37613 -0.768148 0
M  V30 13484 C 1278.36 1.93921 -0.255724 0
M  V30 13485 C 1278.74 1.70215 1.2486 0
M  V30 13486 O 1278.08 1.0489 2.03003 0
M  V30 13487 C 1278.29 3.43354 -0.625204 0
M  V30 13488 C 1279.64 4.20439 -0.592978 0
M  V30 13489 O 1280.67 3.51701 -0.564375 0
M  V30 13490 O 1279.52 5.43008 -0.616849 0
M  V30 13491 H 1276.62 0.824968 -0.0579366 0
M  V30 13492 H 1279.16 1.46921 -0.849257 0
M  V30 13493 H 1277.94 3.54177 -1.66356 0
M  V30 13494 H 1277.56 3.976 -0.00442816 0
M  V30 13495 N 1278.56 0.518393 1.4883 0
M  V30 13496 C 1279.81 -0.0218436 2.01688 0
M  V30 13497 C 1280.12 -1.36421 1.40174 0
M  V30 13498 O 1281.32 -1.99214 1.84461 0
M  V30 13499 C 1279.78 -0.0893538 3.59789 0
M  V30 13500 C 1279.39 1.24741 4.30283 0
M  V30 13501 C 1281.13 -0.579032 4.20532 0
M  V30 13502 C 1279.04 1.14112 5.80286 0
M  V30 13503 H 1277.97 -0.0119353 0.753906 0
M  V30 13504 H 1280.62 0.660432 1.71203 0
M  V30 13505 H 1279 -0.836458 3.87065 0
M  V30 13506 H 1280.18 2.00917 4.14691 0
M  V30 13507 H 1278.49 1.67191 3.81361 0
M  V30 13508 H 1281.09 -0.676343 5.30405 0
M  V30 13509 H 1281.43 -1.58207 3.85067 0
M  V30 13510 H 1281.96 0.112046 3.97642 0
M  V30 13511 H 1278.7 2.11895 6.20307 0
M  V30 13512 H 1278.22 0.420535 5.98324 0
M  V30 13513 H 1279.9 0.826992 6.41693 0
M  V30 13514 N 1280.03 -1.55556 0.252993 0
M  V30 13515 C 1281.26 -2.03491 -0.374022 0
M  V30 13516 C 1281.68 -1.13208 -1.51094 0
M  V30 13517 O 1281.03 -0.147705 -1.81901 0
M  V30 13518 C 1281.09 -3.50724 -0.876047 0
M  V30 13519 O 1280.81 -4.37569 0.215574 0
M  V30 13520 C 1282.31 -4.14448 -1.57313 0
M  V30 13521 H 1279.53 -0.665183 -0.0881644 0
M  V30 13522 H 1282.07 -2.00964 0.378636 0
M  V30 13523 H 1280.23 -3.53766 -1.57886 0
M  V30 13524 H 1280.64 -5.24235 -0.166625 0
M  V30 13525 H 1282.11 -5.19142 -1.87606 0
M  V30 13526 H 1282.59 -3.61299 -2.49719 0
M  V30 13527 H 1283.2 -4.15346 -0.914735 0
M  V30 13528 N 1281.51 0.0200419 -1.57587 0
M  V30 13529 C 1282.76 0.707627 -1.89307 0
M  V30 13530 C 1283.08 1.7541 -0.851831 0
M  V30 13531 O 1282.35 1.95571 0.113404 0
M  V30 13532 H 1280.93 0.264349 -0.698662 0
M  V30 13533 H 1283.59 -0.0161428 -1.94893 0
M  V30 13534 H 1282.69 1.19152 -2.8846 0
M  V30 13535 N 1282.99 1.54862 0.292472 0
M  V30 13536 C 1284.24 1.74807 1.02813 0
M  V30 13537 C 1284.57 0.536935 1.8663 0
M  V30 13538 O 1283.84 -0.465854 1.88839 0
M  V30 13539 C 1284.13 3.04202 1.927 0
M  V30 13540 C 1283.98 4.35631 1.12006 0
M  V30 13541 C 1285.3 3.29514 2.91734 0
M  V30 13542 H 1282.42 0.636015 0.372362 0
M  V30 13543 H 1285.06 1.87583 0.302069 0
M  V30 13544 H 1283.21 2.9344 2.54608 0
M  V30 13545 H 1284.88 4.58323 0.52319 0
M  V30 13546 H 1283.13 4.31733 0.42298 0
M  V30 13547 H 1283.8 5.22454 1.78172 0
M  V30 13548 H 1286.27 3.39941 2.39957 0
M  V30 13549 H 1285.15 4.21352 3.51786 0
M  V30 13550 H 1285.41 2.48216 3.65843 0
M  V30 13551 N 1284.47 -0.556076 1.47464 0
M  V30 13552 C 1285.4 -1.67275 1.62915 0
M  V30 13553 C 1286.38 -1.63229 0.478562 0
M  V30 13554 O 1287.56 -1.80833 0.708032 0
M  V30 13555 C 1284.69 -3.05911 1.64426 0
M  V30 13556 C 1283.65 -3.24804 2.78722 0
M  V30 13557 C 1282.97 -4.64238 2.65307 0
M  V30 13558 C 1284.27 -3.10071 4.20302 0
M  V30 13559 H 1285.97 -1.54601 2.56396 0
M  V30 13560 H 1283.51 -0.742337 1.23391 0
M  V30 13561 H 1285.47 -3.83878 1.73826 0
M  V30 13562 H 1284.19 -3.19547 0.675053 0
M  V30 13563 H 1282.85 -2.49246 2.68835 0
M  V30 13564 H 1282.5 -4.74675 1.66412 0
M  V30 13565 H 1282.2 -4.77828 3.41986 0
M  V30 13566 H 1283.72 -5.44339 2.76637 0
M  V30 13567 H 1285.14 -3.77855 4.3116 0
M  V30 13568 H 1283.53 -3.3517 4.97776 0
M  V30 13569 H 1284.6 -2.06803 4.38589 0
M  V30 13570 N 1285.95 -1.35615 -0.802897 0
M  V30 13571 C 1286.86 -1.3096 -1.94645 0
M  V30 13572 C 1287.87 -0.213909 -1.7268 0
M  V30 13573 O 1289.05 -0.443932 -1.96446 0
M  V30 13574 C 1286.11 -1.08483 -3.2929 0
M  V30 13575 C 1285.18 -2.27401 -3.64126 0
M  V30 13576 C 1284.41 -2.05987 -4.92347 0
M  V30 13577 O 1284.63 -1.02819 -5.61057 0
M  V30 13578 O 1283.57 -2.93439 -5.25526 0
M  V30 13579 H 1287.39 -2.27209 -2.01519 0
M  V30 13580 H 1284.98 -1.16024 -0.941214 0
M  V30 13581 H 1286.86 -0.978118 -4.09891 0
M  V30 13582 H 1285.53 -0.152885 -3.23339 0
M  V30 13583 H 1284.44 -2.43638 -2.83886 0
M  V30 13584 H 1285.77 -3.19055 -3.74786 0
M  V30 13585 N 1287.43 1.02549 -1.19673 0
M  V30 13586 C 1288.36 2.10991 -0.8953 0
M  V30 13587 C 1289.37 1.62405 0.113373 0
M  V30 13588 O 1290.56 1.7812 -0.116485 0
M  V30 13589 C 1287.66 3.37394 -0.319124 0
M  V30 13590 C 1286.83 4.15154 -1.37718 0
M  V30 13591 C 1285.89 5.19867 -0.81393 0
M  V30 13592 O 1284.92 5.49285 -1.49246 0
M  V30 13593 N 1286.12 5.79248 0.381089 0
M  V30 13594 H 1288.88 2.37438 -1.82875 0
M  V30 13595 H 1286.45 1.18867 -1.09919 0
M  V30 13596 H 1288.44 4.04637 0.0716106 0
M  V30 13597 H 1287.01 3.08267 0.518681 0
M  V30 13598 H 1286.23 3.4301 -1.94262 0
M  V30 13599 H 1287.52 4.63892 -2.09003 0
M  V30 13600 H 1286.91 5.5767 0.949791 0
M  V30 13601 H 1285.47 6.47882 0.713563 0
M  V30 13602 N 1288.9 1.00119 1.21713 0
M  V30 13603 C 1290.15 0.680377 1.90303 0
M  V30 13604 C 1290.47 -0.790927 1.7824 0
M  V30 13605 O 1289.74 -1.5676 1.17486 0
M  V30 13606 H 1288.32 0.248665 0.704397 0
M  V30 13607 H 1290.98 1.26948 1.47886 0
M  V30 13608 H 1290.08 0.950188 2.97284 0
M  V30 13609 N 1290.38 -1.37203 0.775435 0
M  V30 13610 C 1291.33 -2.30228 0.162388 0
M  V30 13611 C 1292.3 -1.51284 -0.685747 0
M  V30 13612 O 1293.48 -1.7984 -0.637342 0
M  V30 13613 C 1290.62 -3.37762 -0.707858 0
M  V30 13614 C 1289.74 -4.31714 0.157287 0
M  V30 13615 C 1288.87 -5.26325 -0.718012 0
M  V30 13616 C 1287.91 -6.11918 0.149442 0
M  V30 13617 N 1287.05 -6.9876 -0.684043 0
M  V30 13618 H 1291.89 -2.82073 0.961184 0
M  V30 13619 H 1289.42 -1.38854 0.485587 0
M  V30 13620 H 1291.38 -3.98741 -1.22726 0
M  V30 13621 H 1290.01 -2.87273 -1.47222 0
M  V30 13622 H 1289.06 -3.7201 0.794533 0
M  V30 13623 H 1290.38 -4.91909 0.826262 0
M  V30 13624 H 1289.53 -5.92526 -1.30376 0
M  V30 13625 H 1288.27 -4.6655 -1.42066 0
M  V30 13626 H 1287.27 -5.44692 0.747697 0
M  V30 13627 H 1288.5 -6.73766 0.849476 0
M  V30 13628 H 1286.45 -6.41508 -1.37124 0
M  V30 13629 H 1286.36 -7.55965 -0.0724464 0
M  V30 13630 H 1287.63 -7.69346 -1.25407 0
M  V30 13631 N 1291.86 -0.526279 -1.48553 0
M  V30 13632 C 1293.28 -0.183886 -1.58537 0
M  V30 13633 C 1293.48 1.31272 -1.52872 0
M  V30 13634 O 1292.53 2.09069 -1.41585 0
M  V30 13635 C 1293.84 -0.78313 -2.90323 0
M  V30 13636 C 1295.39 -0.751527 -3.03844 0
M  V30 13637 C 1295.87 -1.32928 -4.38285 0
M  V30 13638 N 1297.36 -1.29109 -4.44843 0
M  V30 13639 C 1298.09 -1.70806 -5.47369 0
M  V30 13640 N 1297.59 -2.20215 -6.56869 0
M  V30 13641 N 1299.38 -1.62065 -5.3823 0
M  V30 13642 H 1291.53 -1.499 -1.50478 0
M  V30 13643 H 1293.8 -0.623294 -0.714289 0
M  V30 13644 H 1293.5 -1.83371 -3.00113 0
M  V30 13645 H 1293.38 -0.25808 -3.76316 0
M  V30 13646 H 1295.76 0.290282 -2.93669 0
M  V30 13647 H 1295.84 -1.314 -2.19471 0
M  V30 13648 H 1295.49 -2.37 -4.49214 0
M  V30 13649 H 1295.42 -0.742516 -5.21339 0
M  V30 13650 H 1297.91 -0.929348 -3.66294 0
M  V30 13651 H 1298.22 -2.50035 -7.31233 0
M  V30 13652 H 1296.57 -2.24206 -6.57842 0
M  V30 13653 H 1299.76 -1.23265 -4.51579 0
M  V30 13654 H 1299.93 -1.94883 -6.18001 0
M  V30 13655 N 1293.34 1.5542 -0.261239 0
M  V30 13656 C 1294.57 2.03687 0.363225 0
M  V30 13657 C 1294.98 1.14007 1.50492 0
M  V30 13658 O 1294.34 0.157349 1.8182 0
M  V30 13659 C 1294.39 3.51184 0.857435 0
M  V30 13660 O 1294.11 4.37449 -0.238776 0
M  V30 13661 C 1295.61 4.15277 1.55113 0
M  V30 13662 H 1292.83 0.665641 0.0846356 0
M  V30 13663 H 1295.37 2.00761 -0.389288 0
M  V30 13664 H 1293.53 3.54599 1.56008 0
M  V30 13665 H 1293.94 5.24316 0.138821 0
M  V30 13666 H 1295.42 5.20129 1.8485 0
M  V30 13667 H 1295.89 3.62619 2.47799 0
M  V30 13668 H 1296.5 4.15826 0.892695 0
M  V30 13669 N 1294.82 -0.0116844 1.57596 0
M  V30 13670 C 1295.75 -1.00599 2.10718 0
M  V30 13671 C 1296.73 -1.36601 1.01362 0
M  V30 13672 O 1297.91 -1.4518 1.28982 0
M  V30 13673 C 1295.04 -2.30155 2.60089 0
M  V30 13674 C 1294 -2.08347 3.73866 0
M  V30 13675 C 1293.32 -3.43814 4.09507 0
M  V30 13676 C 1294.62 -1.45552 5.01609 0
M  V30 13677 H 1296.32 -0.563721 2.94045 0
M  V30 13678 H 1293.86 -0.269714 1.41452 0
M  V30 13679 H 1295.81 -3.00058 2.95877 0
M  V30 13680 H 1294.54 -2.76473 1.73868 0
M  V30 13681 H 1293.2 -1.40872 3.38453 0
M  V30 13682 H 1292.85 -3.87814 3.20326 0
M  V30 13683 H 1292.55 -3.30043 4.86154 0
M  V30 13684 H 1294.07 -4.15052 4.47844 0
M  V30 13685 H 1295.48 -2.05396 5.35243 0
M  V30 13686 H 1293.88 -1.42304 5.82983 0
M  V30 13687 H 1294.95 -0.423331 4.83049 0
M  V30 13688 N 1296.29 -1.55015 -0.284256 0
M  V30 13689 C 1297.52 -1.79102 -1.03586 0
M  V30 13690 C 1297.94 -0.558733 -1.80343 0
M  V30 13691 O 1297.29 0.471925 -1.76293 0
M  V30 13692 C 1297.34 -3.00915 -2.0033 0
M  V30 13693 O 1297.07 -4.19384 -1.26685 0
M  V30 13694 C 1298.57 -3.3752 -2.87394 0
M  V30 13695 H 1295.79 -0.596912 -0.306491 0
M  V30 13696 H 1298.33 -2.02005 -0.31845 0
M  V30 13697 H 1296.49 -2.80171 -2.67549 0
M  V30 13698 H 1296.9 -4.88175 -1.91796 0
M  V30 13699 H 1298.37 -4.25953 -3.51095 0
M  V30 13700 H 1298.85 -2.56418 -3.56576 0
M  V30 13701 H 1299.46 -3.60483 -2.25682 0
M  V30 13702 N 1297.77 0.548248 -1.47757 0
M  V30 13703 C 1299.18 1.13033 -1.48595 0
M  V30 13704 C 1299.53 1.94657 -0.245575 0
M  V30 13705 O 1298.66 2.06445 0.648813 0
M  V30 13706 C 1299.25 2.05657 -2.69241 0
M  V30 13707 C 1297.81 2.59119 -2.73009 0
M  V30 13708 C 1296.96 1.35686 -2.41836 0
M  V30 13709 H 1299.91 0.334397 -1.55137 0
M  V30 13710 H 1299.93 2.89671 -2.4672 0
M  V30 13711 H 1299.44 1.46222 -3.595 0
M  V30 13712 H 1297.54 3.22327 -1.86912 0
M  V30 13713 H 1297.66 2.99501 -3.73946 0
M  V30 13714 H 1296.02 1.66659 -1.92606 0
M  V30 13715 H 1296.8 0.780311 -3.34314 0
M  V30 13716 N 1299.25 1.36039 0.795694 0
M  V30 13717 C 1300.18 1.25713 1.91648 0
M  V30 13718 C 1301.19 0.177993 1.61824 0
M  V30 13719 O 1302.38 0.432186 1.73189 0
M  V30 13720 C 1299.48 0.915546 3.26299 0
M  V30 13721 C 1298.66 2.09528 3.83949 0
M  V30 13722 C 1297.72 1.72775 4.97026 0
M  V30 13723 O 1296.74 2.44786 5.13876 0
M  V30 13724 N 1297.94 0.65775 5.76762 0
M  V30 13725 H 1300.71 2.22277 2.01029 0
M  V30 13726 H 1298.27 1.2935 0.973657 0
M  V30 13727 H 1300.26 0.650958 3.9943 0
M  V30 13728 H 1298.83 0.0392343 3.12575 0
M  V30 13729 H 1298.05 2.52304 3.0288 0
M  V30 13730 H 1299.34 2.88361 4.19196 0
M  V30 13731 H 1298.74 0.0596875 5.65669 0
M  V30 13732 H 1297.29 0.45297 6.50224 0
M  V30 13733 N 1300.73 -1.01913 1.20215 0
M  V30 13734 C 1302.14 -1.5692 1.01159 0
M  V30 13735 C 1302.49 -1.91368 -0.432746 0
M  V30 13736 O 1301.62 -1.71959 -1.31374 0
M  V30 13737 C 1302.21 -2.85125 1.83001 0
M  V30 13738 C 1300.77 -3.36669 1.68318 0
M  V30 13739 C 1299.92 -2.10003 1.81091 0
M  V30 13740 H 1302.87 -0.843246 1.34443 0
M  V30 13741 H 1302.89 -3.56428 1.33188 0
M  V30 13742 H 1302.4 -2.60021 2.88116 0
M  V30 13743 H 1300.5 -3.66739 0.658292 0
M  V30 13744 H 1300.61 -4.09042 2.49442 0
M  V30 13745 H 1298.98 -2.22337 1.24252 0
M  V30 13746 H 1299.76 -1.87329 2.87685 0
M  V30 13747 N 1302.21 -1.00763 -1.2118 0
M  V30 13748 C 1303.14 -0.515053 -2.22312 0
M  V30 13749 C 1304.12 0.432665 -1.56738 0
M  V30 13750 O 1305.3 0.35477 -1.85131 0
M  V30 13751 C 1302.43 0.251544 -3.37765 0
M  V30 13752 C 1301.47 -0.64437 -4.21604 0
M  V30 13753 S 1302.31 -2.10832 -4.9225 0
M  V30 13754 C 1303.46 -1.35163 -6.11132 0
M  V30 13755 H 1303.7 -1.37198 -2.6375 0
M  V30 13756 H 1301.23 -0.815783 -1.31089 0
M  V30 13757 H 1303.19 0.687761 -4.04698 0
M  V30 13758 H 1301.85 1.08393 -2.94805 0
M  V30 13759 H 1301.04 -0.0537452 -5.03971 0
M  V30 13760 H 1300.64 -1.01798 -3.5988 0
M  V30 13761 H 1302.94 -0.6269 -6.74593 0
M  V30 13762 H 1303.88 -2.15111 -6.74635 0
M  V30 13763 H 1304.29 -0.858444 -5.57935 0
M  V30 13764 N 1303.68 1.3679 -0.7827 0
M  V30 13765 C 1304.59 2.33928 -0.17747 0
M  V30 13766 C 1305.61 1.60716 0.666802 0
M  V30 13767 O 1306.79 1.92742 0.584162 0
M  V30 13768 C 1303.85 3.39907 0.68294 0
M  V30 13769 C 1302.91 4.28926 -0.179053 0
M  V30 13770 C 1302.15 5.29844 0.640386 0
M  V30 13771 O 1302.37 5.38639 1.87681 0
M  V30 13772 O 1301.3 6.01884 0.0438164 0
M  V30 13773 H 1305.13 2.87439 -0.980441 0
M  V30 13774 H 1302.71 1.39142 -0.54404 0
M  V30 13775 H 1304.6 4.04722 1.17379 0
M  V30 13776 H 1303.27 2.88706 1.46391 0
M  V30 13777 H 1302.18 3.67174 -0.716512 0
M  V30 13778 H 1303.51 4.83461 -0.923377 0
M  V30 13779 N 1305.16 0.53415 1.48272 0
M  V30 13780 C 1306.09 -0.215037 2.32508 0
M  V30 13781 C 1307.07 -0.931083 1.42355 0
M  V30 13782 O 1308.26 -0.916051 1.71237 0
M  V30 13783 C 1305.39 -1.25985 3.23643 0
M  V30 13784 C 1304.34 -0.661692 4.22854 0
M  V30 13785 C 1303.67 -1.80946 5.03153 0
M  V30 13786 C 1304.97 0.369358 5.20992 0
M  V30 13787 H 1306.66 0.488158 2.95394 0
M  V30 13788 H 1304.21 0.236206 1.4205 0
M  V30 13789 H 1306.16 -1.79195 3.81402 0
M  V30 13790 H 1304.89 -1.99268 2.58766 0
M  V30 13791 H 1303.54 -0.151082 3.66289 0
M  V30 13792 H 1303.19 -2.53077 4.34696 0
M  V30 13793 H 1302.89 -1.41513 5.70305 0
M  V30 13794 H 1304.42 -2.34526 5.63764 0
M  V30 13795 H 1305.83 -0.0758076 5.7325 0
M  V30 13796 H 1304.23 0.681301 5.9622 0
M  V30 13797 H 1305.3 1.27363 4.67875 0
M  V30 13798 N 1306.64 -1.55279 0.269478 0
M  V30 13799 C 1307.59 -2.22304 -0.620435 0
M  V30 13800 C 1308.56 -1.19457 -1.15409 0
M  V30 13801 O 1309.74 -1.4798 -1.20443 0
M  V30 13802 C 1306.88 -2.94356 -1.80134 0
M  V30 13803 C 1306 -4.1191 -1.30207 0
M  V30 13804 C 1305.13 -4.71621 -2.44433 0
M  V30 13805 C 1304.17 -5.81379 -1.91481 0
M  V30 13806 N 1303.31 -6.35176 -2.99158 0
M  V30 13807 H 1308.15 -2.9797 -0.0422165 0
M  V30 13808 H 1305.68 -1.47097 -0.00907173 0
M  V30 13809 H 1307.64 -3.34343 -2.4954 0
M  V30 13810 H 1306.27 -2.21124 -2.35168 0
M  V30 13811 H 1305.32 -3.77082 -0.501301 0
M  V30 13812 H 1306.64 -4.9108 -0.874183 0
M  V30 13813 H 1305.79 -5.14298 -3.21842 0
M  V30 13814 H 1304.53 -3.91715 -2.90535 0
M  V30 13815 H 1303.53 -5.38157 -1.12549 0
M  V30 13816 H 1304.76 -6.63149 -1.46322 0
M  V30 13817 H 1302.7 -5.58167 -3.44652 0
M  V30 13818 H 1302.62 -7.09602 -2.60769 0
M  V30 13819 H 1303.89 -6.82512 -3.7656 0
M  V30 13820 N 1308.12 0.00332656 -1.576 0
M  V30 13821 C 1309.35 0.69893 -1.94418 0
M  V30 13822 C 1309.76 1.68021 -0.8698 0
M  V30 13823 O 1309.1 1.83 0.160193 0
M  V30 13824 C 1309.16 1.4892 -3.27205 0
M  V30 13825 C 1308.83 0.669874 -4.52064 0
M  V30 13826 C 1309.82 -0.0410157 -5.19884 0
M  V30 13827 C 1307.51 0.616824 -4.98498 0
M  V30 13828 C 1309.5 -0.793976 -6.32436 0
M  V30 13829 C 1307.19 -0.139864 -6.1094 0
M  V30 13830 C 1308.19 -0.844001 -6.77765 0
M  V30 13831 O 1307.87 -1.58835 -7.88052 0
M  V30 13832 H 1307.61 0.199843 -0.645785 0
M  V30 13833 H 1310.16 -0.0429034 -2.05355 0
M  V30 13834 H 1308.39 2.27544 -3.12667 0
M  V30 13835 H 1310.08 2.06983 -3.4916 0
M  V30 13836 H 1310.85 -0.00916281 -4.84999 0
M  V30 13837 H 1306.72 1.15442 -4.46312 0
M  V30 13838 H 1310.27 -1.34411 -6.84529 0
M  V30 13839 H 1306.17 -0.173549 -6.45267 0
M  V30 13840 H 1306.93 -1.50471 -8.0455 0
M  V30 13841 N 1309.6 1.55164 0.276031 0
M  V30 13842 C 1310.82 1.7998 1.03063 0
M  V30 13843 C 1311.25 0.569769 1.79263 0
M  V30 13844 O 1310.6 -0.48054 1.74816 0
M  V30 13845 C 1310.65 3.02209 1.96728 0
M  V30 13846 O 1309.76 2.77083 3.05449 0
M  V30 13847 H 1309.1 0.594963 0.294814 0
M  V30 13848 H 1311.63 2.02301 0.305861 0
M  V30 13849 H 1311.64 3.3086 2.38738 0
M  V30 13850 H 1310.31 3.91386 1.40677 0
M  V30 13851 H 1308.89 2.5952 2.67776 0
M  V30 13852 N 1311.07 -0.540404 1.48045 0
M  V30 13853 C 1312.32 -1.29628 1.56742 0
M  V30 13854 C 1312.68 -1.90975 0.233761 0
M  V30 13855 O 1311.97 -1.75781 -0.762333 0
M  V30 13856 C 1312.16 -2.41517 2.63447 0
M  V30 13857 C 1311.99 -1.91137 4.07059 0
M  V30 13858 C 1310.76 -1.74214 4.74318 0
M  V30 13859 C 1312.96 -1.44598 4.93554 0
M  V30 13860 N 1310.94 -1.1835 6.02384 0
M  V30 13861 C 1312.31 -1.00612 6.11782 0
M  V30 13862 C 1314.37 -1.32805 4.79862 0
M  V30 13863 C 1313.07 -0.460024 7.17827 0
M  V30 13864 C 1315.1 -0.795956 5.86019 0
M  V30 13865 C 1314.46 -0.36611 7.03448 0
M  V30 13866 H 1310.56 -0.46575 0.628173 0
M  V30 13867 H 1313.14 -0.610609 1.84877 0
M  V30 13868 H 1311.31 -3.07594 2.37151 0
M  V30 13869 H 1313.04 -3.08539 2.61889 0
M  V30 13870 H 1309.8 -1.97429 4.30487 0
M  V30 13871 H 1310.22 -0.924579 6.70657 0
M  V30 13872 H 1314.87 -1.64645 3.89425 0
M  V30 13873 H 1312.58 -0.129275 8.07997 0
M  V30 13874 H 1316.17 -0.708026 5.77476 0
M  V30 13875 H 1315.05 0.0392247 7.8419 0
M  V30 13876 N 1312.55 -1.36459 -0.788468 0
M  V30 13877 C 1313.5 -1.30863 -1.90115 0
M  V30 13878 C 1314.47 -0.177148 -1.65153 0
M  V30 13879 O 1315.65 -0.363817 -1.87299 0
M  V30 13880 C 1312.79 -1.10473 -3.2694 0
M  V30 13881 C 1311.91 -2.32704 -3.63968 0
M  V30 13882 C 1311.04 -2.05319 -4.89916 0
M  V30 13883 C 1310.08 -3.23506 -5.19625 0
M  V30 13884 N 1309.22 -2.9578 -6.36756 0
M  V30 13885 H 1314.06 -2.26003 -1.94233 0
M  V30 13886 H 1311.6 -1.12324 -0.949827 0
M  V30 13887 H 1313.55 -0.966773 -4.05844 0
M  V30 13888 H 1312.18 -0.189873 -3.22241 0
M  V30 13889 H 1311.24 -2.573 -2.8018 0
M  V30 13890 H 1312.55 -3.20899 -3.81871 0
M  V30 13891 H 1311.7 -1.88459 -5.76687 0
M  V30 13892 H 1310.44 -1.14437 -4.74084 0
M  V30 13893 H 1309.45 -3.40924 -4.31336 0
M  V30 13894 H 1310.67 -4.15216 -5.37376 0
M  V30 13895 H 1308.62 -2.0751 -6.22315 0
M  V30 13896 H 1308.53 -3.77513 -6.54996 0
M  V30 13897 H 1309.8 -2.825 -7.26508 0
M  V30 13898 N 1314.03 1.01274 -1.20754 0
M  V30 13899 C 1315.26 1.78524 -1.04579 0
M  V30 13900 C 1315.67 1.84409 0.404809 0
M  V30 13901 O 1315.03 1.29987 1.281 0
M  V30 13902 C 1315.08 3.22806 -1.62722 0
M  V30 13903 O 1314.8 3.17276 -3.02106 0
M  V30 13904 C 1316.3 4.16589 -1.51553 0
M  V30 13905 H 1313.52 0.561299 -0.367674 0
M  V30 13906 H 1316.07 1.27454 -1.59924 0
M  V30 13907 H 1314.22 3.71011 -1.11487 0
M  V30 13908 H 1314.64 4.07866 -3.29766 0
M  V30 13909 H 1316.11 5.15654 -1.9699 0
M  V30 13910 H 1316.59 4.36692 -0.468659 0
M  V30 13911 H 1317.19 3.74269 -2.01998 0
M  V30 13912 N 1315.51 1.01404 1.20644 0
M  V30 13913 C 1316.76 0.712655 1.90507 0
M  V30 13914 C 1317.11 -0.749299 1.7721 0
M  V30 13915 O 1316.4 -1.53709 1.14386 0
M  V30 13916 C 1316.6 1.07995 3.40693 0
M  V30 13917 C 1316.43 2.57606 3.68604 0
M  V30 13918 C 1315.2 3.2435 3.8746 0
M  V30 13919 C 1317.39 3.55788 3.71375 0
M  V30 13920 N 1315.38 4.63218 4.02868 0
M  V30 13921 C 1316.75 4.80207 3.92175 0
M  V30 13922 C 1318.8 3.49797 3.54325 0
M  V30 13923 C 1317.51 5.9936 3.97694 0
M  V30 13924 C 1319.53 4.68349 3.61114 0
M  V30 13925 C 1318.89 5.91575 3.82385 0
M  V30 13926 H 1314.99 0.312406 0.716887 0
M  V30 13927 H 1317.58 1.29835 1.4509 0
M  V30 13928 H 1315.75 0.522623 3.84868 0
M  V30 13929 H 1317.48 0.732364 3.98018 0
M  V30 13930 H 1314.23 2.7478 3.85737 0
M  V30 13931 H 1314.66 5.3531 4.14454 0
M  V30 13932 H 1319.3 2.55525 3.36848 0
M  V30 13933 H 1317.02 6.94015 4.13968 0
M  V30 13934 H 1320.6 4.65325 3.49233 0
M  V30 13935 H 1319.48 6.81776 3.87494 0
M  V30 13936 N 1316.99 -1.36373 0.789944 0
M  V30 13937 C 1318.24 -1.98834 0.361866 0
M  V30 13938 C 1318.56 -1.63006 -1.07024 0
M  V30 13939 O 1317.83 -0.904312 -1.73779 0
M  V30 13940 H 1316.41 -0.735457 0.130812 0
M  V30 13941 H 1319.07 -1.66561 1.0121 0
M  V30 13942 H 1318.16 -3.08778 0.454122 0
M  V30 13943 N 1318.47 -0.542005 -1.47987 0
M  V30 13944 C 1319.4 0.202703 -2.32618 0
M  V30 13945 C 1320.38 0.923521 -1.42846 0
M  V30 13946 O 1321.56 0.906957 -1.7172 0
M  V30 13947 C 1318.69 1.24267 -3.24307 0
M  V30 13948 C 1317.65 0.639257 -4.23199 0
M  V30 13949 C 1316.97 1.78275 -5.04105 0
M  V30 13950 C 1318.27 -0.396982 -5.20789 0
M  V30 13951 H 1319.97 -0.503817 -2.95131 0
M  V30 13952 H 1317.51 -0.243736 -1.41922 0
M  V30 13953 H 1319.46 1.7717 -3.82347 0
M  V30 13954 H 1318.19 1.97893 -2.59819 0
M  V30 13955 H 1316.85 0.131655 -3.66364 0
M  V30 13956 H 1316.5 2.50768 -4.36032 0
M  V30 13957 H 1316.2 1.38487 -5.71047 0
M  V30 13958 H 1317.72 2.31533 -5.65 0
M  V30 13959 H 1319.13 0.0454057 -5.73282 0
M  V30 13960 H 1317.53 -0.712911 -5.9585 0
M  V30 13961 H 1318.6 -1.29843 -4.67193 0
M  V30 13962 N 1319.94 1.55134 -0.277709 0
M  V30 13963 C 1320.91 2.21327 0.595569 0
M  V30 13964 C 1321.91 1.19193 1.07933 0
M  V30 13965 O 1323.1 1.44081 0.979093 0
M  V30 13966 C 1320.23 2.88127 1.82196 0
M  V30 13967 H 1321.42 2.99895 0.0175855 0
M  V30 13968 H 1318.97 1.56274 -0.0283453 0
M  V30 13969 H 1319.71 2.13578 2.44039 0
M  V30 13970 H 1319.49 3.62974 1.48297 0
M  V30 13971 H 1320.98 3.38691 2.44291 0
M  V30 13972 N 1321.42 0.00503138 1.57599 0
M  V30 13973 C 1322.37 -0.984754 2.08737 0
M  V30 13974 C 1323.34 -1.33822 0.983915 0
M  V30 13975 O 1324.52 -1.43572 1.25665 0
M  V30 13976 C 1321.66 -2.26984 2.59946 0
M  V30 13977 C 1320.78 -1.97496 3.84212 0
M  V30 13978 C 1319.91 -3.20123 4.23904 0
M  V30 13979 C 1318.95 -2.86344 5.40993 0
M  V30 13980 N 1318.09 -4.01524 5.75954 0
M  V30 13981 H 1322.93 -0.541737 2.93034 0
M  V30 13982 H 1320.46 -0.255834 1.44858 0
M  V30 13983 H 1322.42 -3.02117 2.87717 0
M  V30 13984 H 1321.05 -2.68946 1.78516 0
M  V30 13985 H 1320.1 -1.12709 3.63319 0
M  V30 13986 H 1321.42 -1.68602 4.69441 0
M  V30 13987 H 1320.57 -4.03598 4.52983 0
M  V30 13988 H 1319.31 -3.5216 3.37394 0
M  V30 13989 H 1318.31 -2.01278 5.11632 0
M  V30 13990 H 1319.54 -2.5555 6.29183 0
M  V30 13991 H 1317.49 -4.33447 4.92402 0
M  V30 13992 H 1317.4 -3.76171 6.55768 0
M  V30 13993 H 1318.67 -4.85772 6.09628 0
M  V30 13994 N 1322.9 -1.55308 -0.267798 0
M  V30 13995 C 1324.15 -1.75364 -0.996515 0
M  V30 13996 C 1324.46 -0.565028 -1.87261 0
M  V30 13997 O 1325.67 -0.648119 -2.63651 0
M  V30 13998 C 1324.12 -3.10388 -1.82175 0
M  V30 13999 C 1323.73 -4.36832 -0.994062 0
M  V30 14000 C 1325.48 -3.39791 -2.54445 0
M  V30 14001 C 1323.38 -5.62893 -1.81398 0
M  V30 14002 H 1322.31 -0.653679 -0.375793 0
M  V30 14003 H 1324.96 -1.81762 -0.251975 0
M  V30 14004 H 1323.35 -2.98041 -2.60744 0
M  V30 14005 H 1324.52 -4.6011 -0.252167 0
M  V30 14006 H 1322.83 -4.1461 -0.385662 0
M  V30 14007 H 1325.43 -4.31184 -3.16203 0
M  V30 14008 H 1325.77 -2.60159 -3.24997 0
M  V30 14009 H 1326.31 -3.53259 -1.82902 0
M  V30 14010 H 1323.05 -6.45287 -1.15258 0
M  V30 14011 H 1322.57 -5.43751 -2.5317 0
M  V30 14012 H 1324.25 -6.01384 -2.38634 0
M  V30 14013 N 1324.38 0.532545 -1.4833 0
M  V30 14014 C 1325.62 1.29042 -1.56448 0
M  V30 14015 C 1325.96 1.92754 -0.236532 0
M  V30 14016 O 1325.23 1.79154 0.757237 0
M  V30 14017 C 1325.51 2.38173 -2.70084 0
M  V30 14018 C 1325.37 1.79169 -4.12576 0
M  V30 14019 C 1326.69 3.39957 -2.79495 0
M  V30 14020 H 1323.81 0.467816 -0.569488 0
M  V30 14021 H 1326.45 0.593517 -1.80492 0
M  V30 14022 H 1324.6 2.97616 -2.49714 0
M  V30 14023 H 1326.27 1.23797 -4.44378 0
M  V30 14024 H 1324.51 1.09716 -4.19696 0
M  V30 14025 H 1325.18 2.58174 -4.87904 0
M  V30 14026 H 1327.66 2.90466 -2.97941 0
M  V30 14027 H 1326.54 4.13714 -3.60739 0
M  V30 14028 H 1326.8 4.00347 -1.87548 0
M  V30 14029 N 1325.86 1.36875 0.78122 0
M  V30 14030 C 1327.08 1.34732 1.57019 0
M  V30 14031 C 1327.5 -0.0695423 1.88672 0
M  V30 14032 O 1326.86 -1.02873 1.50743 0
M  V30 14033 C 1326.91 2.17668 2.88623 0
M  V30 14034 O 1326.63 3.53832 2.5833 0
M  V30 14035 C 1328.13 2.23398 3.82895 0
M  V30 14036 H 1325.35 0.461857 0.486754 0
M  V30 14037 H 1327.89 1.80086 0.968989 0
M  V30 14038 H 1326.05 1.75848 3.4519 0
M  V30 14039 H 1326.46 3.972 3.42538 0
M  V30 14040 H 1327.94 2.85769 4.72271 0
M  V30 14041 H 1328.41 1.23972 4.2134 0
M  V30 14042 H 1329.02 2.65489 3.32258 0
M  V30 14043 N 1327.33 -1.00632 1.21289 0
M  V30 14044 C 1328.3 -2.07543 0.972548 0
M  V30 14045 C 1329.3 -1.60703 -0.0559244 0
M  V30 14046 O 1330.49 -1.73255 0.181213 0
M  V30 14047 C 1327.62 -3.37696 0.466297 0
M  V30 14048 H 1328.81 -2.30298 1.92101 0
M  V30 14049 H 1326.36 -1.17588 1.02969 0
M  V30 14050 H 1327.1 -3.2062 -0.487148 0
M  V30 14051 H 1326.88 -3.73024 1.20813 0
M  V30 14052 H 1328.37 -4.16388 0.317962 0
M  V30 14053 N 1328.81 -1.02043 -1.20104 0
M  V30 14054 C 1329.72 -0.603724 -2.26699 0
M  V30 14055 C 1330.74 0.360558 -1.70223 0
M  V30 14056 O 1331.91 0.220552 -2.00189 0
M  V30 14057 C 1328.98 0.0475988 -3.46667 0
M  V30 14058 C 1328.04 -0.963111 -4.18357 0
M  V30 14059 C 1327.27 -0.342775 -5.32598 0
M  V30 14060 O 1327.5 0.856509 -5.63933 0
M  V30 14061 O 1326.43 -1.06141 -5.92467 0
M  V30 14062 H 1330.26 -1.49125 -2.64566 0
M  V30 14063 H 1327.84 -0.790134 -1.26796 0
M  V30 14064 H 1329.72 0.411177 -4.19389 0
M  V30 14065 H 1328.4 0.909266 -3.10667 0
M  V30 14066 H 1327.3 -1.37813 -3.47791 0
M  V30 14067 H 1328.64 -1.79487 -4.58307 0
M  V30 14068 N 1330.29 1.35952 -0.797165 0
M  V30 14069 C 1331.52 2.0328 -0.385316 0
M  V30 14070 C 1331.93 1.60095 1.00076 0
M  V30 14071 O 1331.29 0.794014 1.64322 0
M  V30 14072 C 1331.34 3.5871 -0.448284 0
M  V30 14073 O 1331.06 4.00323 -1.7797 0
M  V30 14074 C 1332.56 4.43291 -0.0280465 0
M  V30 14075 H 1329.78 0.652192 -0.157756 0
M  V30 14076 H 1332.33 1.73769 -1.07817 0
M  V30 14077 H 1330.48 3.86903 0.196224 0
M  V30 14078 H 1330.9 4.94941 -1.73592 0
M  V30 14079 H 1332.37 5.51862 -0.123234 0
M  V30 14080 H 1332.85 4.27059 1.02552 0
M  V30 14081 H 1333.45 4.20375 -0.645343 0
M  V30 14082 N 1331.77 0.549846 1.47697 0
M  V30 14083 C 1332.7 -0.239345 2.27947 0
M  V30 14084 C 1333.71 -0.886206 1.36566 0
M  V30 14085 O 1334.9 -0.761298 1.61451 0
M  V30 14086 C 1332 -1.35591 3.10593 0
M  V30 14087 C 1331.18 -0.807234 4.29887 0
M  V30 14088 C 1330.23 -1.80738 4.94187 0
M  V30 14089 O 1329.26 -1.35641 5.52802 0
M  V30 14090 N 1330.46 -3.14046 4.88216 0
M  V30 14091 H 1333.23 0.449001 2.96318 0
M  V30 14092 H 1330.79 0.385443 1.57245 0
M  V30 14093 H 1332.78 -2.02356 3.50477 0
M  V30 14094 H 1331.35 -1.94761 2.44514 0
M  V30 14095 H 1330.57 0.0369877 3.94183 0
M  V30 14096 H 1331.86 -0.419877 5.07065 0
M  V30 14097 H 1331.26 -3.53335 4.41781 0
M  V30 14098 H 1329.81 -3.7639 5.32141 0
M  V30 14099 N 1333.25 -1.54984 0.285932 0
M  V30 14100 C 1334.19 -2.24385 -0.612703 0
M  V30 14101 C 1335.19 -1.24459 -1.14918 0
M  V30 14102 O 1336.39 -1.42357 -1.10156 0
M  V30 14103 H 1332.77 -0.720263 -0.21616 0
M  V30 14104 H 1334.74 -2.984 -0.00465668 0
M  V30 14105 C 1333.49 -2.98661 -1.78037 0
M  V30 14106 H 1332.81 -3.75347 -1.37676 0
M  V30 14107 H 1334.25 -3.50525 -2.38554 0
M  V30 14108 C 1332.71 -2.04754 -2.67539 0
M  V30 14109 O 1333.24 -1.60577 -3.68209 0
M  V30 14110 N 1331.45 -1.71026 -2.34944 0
M  V30 14111 H 1330.99 -2.07148 -1.53126 0
M  V30 14112 H 1330.95 -1.08467 -2.95097 0
M  V30 14113 N 1334.72 -0.0133892 -1.57594 0
M  V30 14114 C 1335.95 0.682855 -1.95836 0
M  V30 14115 C 1336.37 1.65763 -0.889049 0
M  V30 14116 O 1335.73 1.80665 0.151585 0
M  V30 14117 C 1335.78 1.37931 -3.33178 0
M  V30 14118 O 1334.88 2.49416 -3.28429 0
M  V30 14119 H 1334.23 0.180629 -0.638959 0
M  V30 14120 H 1336.76 -0.0705644 -2.04478 0
M  V30 14121 H 1336.77 1.73969 -3.69051 0
M  V30 14122 H 1335.44 0.664675 -4.10554 0
M  V30 14123 H 1334.02 2.15606 -3.04251 0
M  V30 14124 N 1336.2 1.55448 0.259558 0
M  V30 14125 C 1337.43 1.81063 1.01148 0
M  V30 14126 C 1337.85 0.58875 1.78649 0
M  V30 14127 O 1337.21 -0.461971 1.75315 0
M  V30 14128 C 1337.26 3.04279 1.93512 0
M  V30 14129 O 1336.36 2.80307 3.02493 0
M  V30 14130 H 1335.7 0.598056 0.288487 0
M  V30 14131 H 1338.23 2.02614 0.284387 0
M  V30 14132 H 1338.24 3.33373 2.35215 0
M  V30 14133 H 1336.92 3.92856 1.36518 0
M  V30 14134 H 1335.5 2.62345 2.65008 0
M  V30 14135 N 1337.68 -0.524672 1.4861 0
M  V30 14136 C 1338.93 -1.28021 1.56898 0
M  V30 14137 C 1339.26 -1.92948 0.245203 0
M  V30 14138 O 1338.51 -1.8013 -0.764966 0
M  V30 14139 C 1338.81 -2.3871 2.65993 0
M  V30 14140 C 1338.48 -1.914 4.08261 0
M  V30 14141 C 1337.14 -1.78215 4.46982 0
M  V30 14142 C 1339.49 -1.55713 4.97396 0
M  V30 14143 C 1336.82 -1.27687 5.72637 0
M  V30 14144 C 1339.17 -1.06645 6.23546 0
M  V30 14145 C 1337.83 -0.920818 6.61118 0
M  V30 14146 H 1337.1 -0.468461 0.57413 0
M  V30 14147 H 1339.75 -0.584901 1.82349 0
M  V30 14148 H 1338.06 -3.13932 2.34422 0
M  V30 14149 H 1339.75 -2.96827 2.6962 0
M  V30 14150 H 1336.34 -2.02614 3.77684 0
M  V30 14151 H 1340.53 -1.64757 4.68155 0
M  V30 14152 H 1335.78 -1.15103 6.00468 0
M  V30 14153 H 1339.96 -0.781048 6.92006 0
M  V30 14154 H 1337.58 -0.527091 7.5837 0
M  V30 14155 N 1339.16 -1.37287 -0.77395 0
M  V30 14156 C 1340.41 -1.31698 -1.52769 0
M  V30 14157 C 1340.72 0.0968585 -1.9536 0
M  V30 14158 O 1341.93 0.275205 -2.70102 0
M  V30 14159 C 1340.38 -2.31154 -2.75854 0
M  V30 14160 C 1339.99 -3.78055 -2.40371 0
M  V30 14161 C 1341.73 -2.34572 -3.53803 0
M  V30 14162 C 1339.64 -4.69248 -3.59945 0
M  V30 14163 H 1338.57 -0.489456 -0.573541 0
M  V30 14164 H 1341.22 -1.62735 -0.84791 0
M  V30 14165 H 1339.6 -1.93132 -3.45711 0
M  V30 14166 H 1340.78 -4.24902 -1.78312 0
M  V30 14167 H 1339.09 -3.77562 -1.75602 0
M  V30 14168 H 1341.69 -2.99908 -4.42673 0
M  V30 14169 H 1342.03 -1.35868 -3.93504 0
M  V30 14170 H 1342.57 -2.7129 -2.90941 0
M  V30 14171 H 1339.31 -5.69072 -3.25327 0
M  V30 14172 H 1338.83 -4.27108 -4.21117 0
M  V30 14173 H 1340.5 -4.86275 -4.26785 0
M  V30 14174 N 1340.64 0.999871 -1.21821 0
M  V30 14175 C 1341.89 1.73257 -1.03271 0
M  V30 14176 C 1342.2 1.90736 0.433502 0
M  V30 14177 O 1343.4 2.61263 0.738511 0
M  V30 14178 C 1341.86 3.11697 -1.79925 0
M  V30 14179 C 1341.47 3.02173 -3.3075 0
M  V30 14180 C 1343.21 3.89061 -1.698 0
M  V30 14181 C 1341.12 4.35725 -3.99872 0
M  V30 14182 H 1340.05 0.649595 -0.382809 0
M  V30 14183 H 1342.7 1.11676 -1.45605 0
M  V30 14184 H 1341.08 3.73919 -1.30386 0
M  V30 14185 H 1342.26 2.49158 -3.8763 0
M  V30 14186 H 1340.57 2.38296 -3.41473 0
M  V30 14187 H 1343.17 4.87897 -2.1877 0
M  V30 14188 H 1343.51 4.11081 -0.657148 0
M  V30 14189 H 1344.04 3.33502 -2.16844 0
M  V30 14190 H 1340.78 4.18906 -5.04181 0
M  V30 14191 H 1340.3 4.8868 -3.47781 0
M  V30 14192 H 1341.98 5.04503 -4.05075 0
M  V30 14193 N 1342.11 1.02678 1.19562 0
M  V30 14194 C 1343.39 0.63674 1.84946 0
M  V30 14195 C 1343.77 -0.884667 1.91669 0
M  V30 14196 O 1343.12 -1.78053 1.43211 0
M  V30 14197 C 1343.33 1.29637 3.2403 0
M  V30 14198 C 1344.68 1.41828 4.00212 0
M  V30 14199 O 1345.7 1.25338 3.3342 0
M  V30 14200 O 1344.56 1.68573 5.19851 0
M  V30 14201 H 1341.65 0.221044 0.796912 0
M  V30 14202 H 1344.2 1.1248 1.27068 0
M  V30 14203 H 1342.97 2.33549 3.1396 0
M  V30 14204 H 1342.6 0.796041 3.8955 0
M  V30 14205 N 1343.59 -1.35528 0.804364 0
M  V30 14206 C 1344.84 -1.98439 0.382934 0
M  V30 14207 C 1345.16 -1.64132 -1.05289 0
M  V30 14208 O 1344.43 -0.922693 -1.7281 0
M  V30 14209 H 1343.01 -0.734028 0.138605 0
M  V30 14210 H 1345.67 -1.65478 1.02971 0
M  V30 14211 H 1344.77 -3.08279 0.486846 0
M  V30 14212 N 1345.07 -0.557671 -1.47404 0
M  V30 14213 C 1346.48 -0.124411 -1.86285 0
M  V30 14214 C 1346.83 1.30593 -1.46424 0
M  V30 14215 O 1345.96 1.9825 -0.867515 0
M  V30 14216 C 1346.55 -0.219005 -3.38091 0
M  V30 14217 C 1345.11 0.159221 -3.76063 0
M  V30 14218 C 1344.26 -0.566355 -2.71455 0
M  V30 14219 H 1347.21 -0.767367 -1.38914 0
M  V30 14220 H 1347.23 0.562267 -3.76323 0
M  V30 14221 H 1346.74 -1.26013 -3.67073 0
M  V30 14222 H 1344.84 1.20144 -3.52698 0
M  V30 14223 H 1344.96 -0.199662 -4.78684 0
M  V30 14224 H 1343.32 -0.00938921 -2.54698 0
M  V30 14225 H 1344.1 -1.60865 -3.03278 0
M  V30 14226 N 1346.55 1.54831 -0.294147 0
M  V30 14227 C 1347.77 2.04873 0.32276 0
M  V30 14228 C 1348.2 1.17034 1.47257 0
M  V30 14229 O 1347.56 0.172949 1.80473 0
M  V30 14230 C 1347.61 3.52431 0.76319 0
M  V30 14231 O 1346.71 3.67635 1.86865 0
M  V30 14232 H 1346.05 0.660926 0.0638162 0
M  V30 14233 H 1348.58 1.99944 -0.433995 0
M  V30 14234 H 1348.59 3.94155 1.05385 0
M  V30 14235 H 1347.27 4.15827 -0.0779464 0
M  V30 14236 H 1345.84 3.37816 1.57907 0
M  V30 14237 N 1348.03 0.0217466 1.57585 0
M  V30 14238 C 1349.26 -0.668881 1.9579 0
M  V30 14239 C 1349.67 -1.66085 0.897849 0
M  V30 14240 O 1349.03 -1.82098 -0.121099 0
M  V30 14241 C 1349.08 -1.38174 3.34051 0
M  V30 14242 O 1348.8 -0.429527 4.35989 0
M  V30 14243 C 1350.3 -2.16487 3.86844 0
M  V30 14244 H 1347.52 -0.184919 0.645016 0
M  V30 14245 H 1350.06 0.0793241 2.04346 0
M  V30 14246 H 1348.22 -2.0814 3.26736 0
M  V30 14247 H 1348.63 -0.934887 5.16101 0
M  V30 14248 H 1350.11 -2.61829 4.85952 0
M  V30 14249 H 1350.58 -3.00082 3.20698 0
M  V30 14250 H 1351.19 -1.51493 3.97404 0
M  V30 14251 N 1349.51 -1.55583 -0.251311 0
M  V30 14252 C 1350.92 -1.67693 -0.820719 0
M  V30 14253 C 1351.27 -0.618393 -1.862 0
M  V30 14254 O 1350.39 0.236158 -2.15108 0
M  V30 14255 C 1350.99 -3.04011 -1.49542 0
M  V30 14256 C 1349.55 -3.18075 -2.01259 0
M  V30 14257 C 1348.69 -2.63557 -0.862138 0
M  V30 14258 H 1351.64 -1.58677 -0.0272072 0
M  V30 14259 H 1351.67 -2.9821 -2.36328 0
M  V30 14260 H 1351.18 -3.81032 -0.737323 0
M  V30 14261 H 1349.28 -2.45869 -2.79963 0
M  V30 14262 H 1349.39 -4.24927 -2.213 0
M  V30 14263 H 1347.76 -2.21268 -1.26145 0
M  V30 14264 H 1348.54 -3.431 -0.117196 0
M  V30 14265 N 1350.98 0.516783 -1.48886 0
M  V30 14266 C 1351.89 1.6467 -1.67095 0
M  V30 14267 C 1352.91 1.64963 -0.553466 0
M  V30 14268 O 1354.09 1.83673 -0.826206 0
M  V30 14269 C 1351.15 3.01095 -1.71879 0
M  V30 14270 C 1350.21 3.11554 -2.95352 0
M  V30 14271 C 1349.44 4.41471 -2.99898 0
M  V30 14272 O 1349.67 5.29348 -2.12477 0
M  V30 14273 O 1348.6 4.56573 -3.92205 0
M  V30 14274 H 1352.43 1.52242 -2.62785 0
M  V30 14275 H 1350.01 0.69134 -1.32442 0
M  V30 14276 H 1351.89 3.82207 -1.77471 0
M  V30 14277 H 1350.57 3.1382 -0.793656 0
M  V30 14278 H 1349.48 2.29689 -2.95286 0
M  V30 14279 H 1350.81 3.03751 -3.87294 0
M  V30 14280 N 1352.46 1.37696 0.766659 0
M  V30 14281 C 1353.7 1.34588 1.53836 0
M  V30 14282 C 1354.07 -0.0676384 1.91881 0
M  V30 14283 O 1355.27 -0.223479 2.67869 0
M  V30 14284 C 1353.54 2.26329 2.76604 0
M  V30 14285 S 1355.1 2.4112 3.66615 0
M  V30 14286 H 1351.91 0.477717 0.5266 0
M  V30 14287 H 1354.52 1.73495 0.901099 0
M  V30 14288 H 1353.22 3.27943 2.46742 0
M  V30 14289 H 1352.75 1.88525 3.45285 0
M  V30 14290 H 1354.77 1.62556 4.68818 0
M  V30 14291 N 1353.94 -0.993397 1.22349 0
M  V30 14292 C 1355.35 -1.54739 1.04465 0
M  V30 14293 C 1355.7 -1.92243 -0.392057 0
M  V30 14294 O 1354.83 -1.74707 -1.27697 0
M  V30 14295 C 1355.42 -2.81179 1.89007 0
M  V30 14296 C 1353.98 -3.33023 1.75421 0
M  V30 14297 C 1353.13 -2.06114 1.85505 0
M  V30 14298 H 1356.08 -0.814539 1.36202 0
M  V30 14299 H 1356.1 -3.53523 1.40718 0
M  V30 14300 H 1355.61 -2.53851 2.93566 0
M  V30 14301 H 1353.71 -3.6526 0.735935 0
M  V30 14302 H 1353.83 -4.03659 2.58062 0
M  V30 14303 H 1352.19 -2.19651 1.2894 0
M  V30 14304 H 1352.97 -1.81184 2.91594 0
M  V30 14305 N 1355.42 -1.03311 -1.19015 0
M  V30 14306 C 1356.64 -0.751686 -1.93299 0
M  V30 14307 C 1357.07 0.68392 -1.75226 0
M  V30 14308 O 1356.43 1.47274 -1.05736 0
M  V30 14309 C 1356.47 -1.11335 -3.42982 0
M  V30 14310 O 1355.58 -0.234434 -4.11733 0
M  V30 14311 H 1354.92 -0.277331 -0.60331 0
M  V30 14312 H 1357.45 -1.38092 -1.5097 0
M  V30 14313 H 1357.46 -1.07204 -3.93664 0
M  V30 14314 H 1356.13 -2.15922 -3.55458 0
M  V30 14315 H 1354.71 -0.3347 -3.71395 0
M  V30 14316 N 1356.9 1.35099 -0.81154 0
M  V30 14317 C 1357.86 2.28033 -0.230947 0
M  V30 14318 C 1358.86 1.49798 0.584575 0
M  V30 14319 O 1360.05 1.6949 0.402336 0
M  V30 14320 C 1357.18 3.341 0.677486 0
M  V30 14321 H 1358.37 2.80893 -1.05067 0
M  V30 14322 H 1355.93 1.45038 -0.582554 0
M  V30 14323 H 1356.66 2.86435 1.5207 0
M  V30 14324 H 1356.45 3.91986 0.0943563 0
M  V30 14325 H 1357.94 4.0345 1.07787 0
M  V30 14326 N 1358.37 0.56548 1.47106 0
M  V30 14327 C 1359.6 0.0476763 2.07345 0
M  V30 14328 C 1360.02 -1.24032 1.41413 0
M  V30 14329 O 1359.38 -1.74498 0.491941 0
M  V30 14330 C 1359.43 -0.122618 3.60391 0
M  V30 14331 O 1358.53 -1.18326 3.9506 0
M  V30 14332 H 1357.87 0.0550419 0.661715 0
M  V30 14333 H 1360.4 0.78352 1.89003 0
M  V30 14334 H 1360.41 -0.334227 4.06629 0
M  V30 14335 H 1359.09 0.81807 4.07775 0
M  V30 14336 H 1357.67 -0.951481 3.60557 0
M  V30 14337 N 1359.85 -1.54672 0.302354 0
M  V30 14338 C 1361.27 -1.59519 -0.0509899 0
M  V30 14339 C 1361.47 -1.31931 -1.52304 0
M  V30 14340 O 1360.52 -1.09338 -2.27599 0
M  V30 14341 C 1361.84 -2.98678 0.348168 0
M  V30 14342 C 1363.39 -3.11587 0.297046 0
M  V30 14343 C 1363.86 -4.53057 0.671046 0
M  V30 14344 N 1365.35 -4.58983 0.623633 0
M  V30 14345 C 1366.09 -5.66522 0.885476 0
M  V30 14346 N 1365.58 -6.82092 1.21336 0
M  V30 14347 N 1367.38 -5.56198 0.812448 0
M  V30 14348 H 1359.53 -1.70865 1.2617 0
M  V30 14349 H 1361.79 -0.798099 0.511608 0
M  V30 14350 H 1361.5 -3.23794 1.37297 0
M  V30 14351 H 1361.37 -3.76025 -0.297505 0
M  V30 14352 H 1363.76 -2.86219 -0.718515 0
M  V30 14353 H 1363.84 -2.36392 0.977361 0
M  V30 14354 H 1363.48 -4.79155 1.68442 0
M  V30 14355 H 1363.41 -5.26591 -0.0313537 0
M  V30 14356 H 1365.9 -3.75972 0.381203 0
M  V30 14357 H 1366.22 -7.6003 1.39909 0
M  V30 14358 H 1364.56 -6.83641 1.25141 0
M  V30 14359 H 1367.75 -4.64787 0.555939 0
M  V30 14360 H 1367.92 -6.39924 1.01988 0
M  V30 14361 N 1361.33 -0.0301034 -1.57571 0
M  V30 14362 C 1362.29 0.936465 -2.09196 0
M  V30 14363 C 1363.29 1.25347 -1.00722 0
M  V30 14364 O 1364.48 1.19364 -1.26877 0
M  V30 14365 C 1361.62 2.2527 -2.55864 0
M  V30 14366 H 1362.81 0.489332 -2.95881 0
M  V30 14367 H 1360.36 0.217948 -1.54773 0
M  V30 14368 H 1361.1 2.7461 -1.72511 0
M  V30 14369 H 1360.88 2.03573 -3.35113 0
M  V30 14370 H 1362.37 2.94549 -2.96025 0
M  V30 14371 N 1362.81 1.55714 0.243056 0
M  V30 14372 C 1364.05 1.78904 0.96772 0
M  V30 14373 C 1364.41 0.599662 1.82816 0
M  V30 14374 O 1363.7 -0.406986 1.87228 0
M  V30 14375 C 1363.9 3.05281 1.85845 0
M  V30 14376 C 1363.73 4.36397 1.08572 0
M  V30 14377 C 1362.5 4.99098 0.789274 0
M  V30 14378 C 1364.69 5.12226 0.461433 0
M  V30 14379 N 1362.68 6.139 -0.00711288 0
M  V30 14380 C 1364.05 6.19679 -0.199349 0
M  V30 14381 C 1366.1 4.96506 0.372287 0
M  V30 14382 C 1364.8 7.13122 -0.940722 0
M  V30 14383 C 1366.83 5.9033 -0.355564 0
M  V30 14384 C 1366.19 6.97194 -1.00497 0
M  V30 14385 H 1362.29 0.706567 0.335094 0
M  V30 14386 H 1364.88 1.93209 0.240503 0
M  V30 14387 H 1363.05 2.92298 2.55767 0
M  V30 14388 H 1364.78 3.16749 2.51897 0
M  V30 14389 H 1361.53 4.606 1.10201 0
M  V30 14390 H 1361.96 6.75855 -0.393512 0
M  V30 14391 H 1366.6 4.13961 0.860025 0
M  V30 14392 H 1364.32 7.95166 -1.44005 0
M  V30 14393 H 1367.9 5.80244 -0.425257 0
M  V30 14394 H 1366.78 7.68543 -1.55918 0
M  V30 14395 N 1364.29 -0.50888 1.49158 0
M  V30 14396 C 1365.23 -1.63216 1.6572 0
M  V30 14397 C 1366.23 -1.61117 0.523236 0
M  V30 14398 O 1367.43 -1.6572 0.702629 0
M  V30 14399 H 1363.81 -0.540909 0.522419 0
M  V30 14400 H 1365.78 -1.46397 2.6002 0
M  V30 14401 C 1364.53 -3.01393 1.73372 0
M  V30 14402 H 1363.85 -3.03711 2.6 0
M  V30 14403 H 1365.29 -3.79547 1.88998 0
M  V30 14404 C 1363.75 -3.33509 0.47683 0
M  V30 14405 O 1364.28 -3.99694 -0.400986 0
M  V30 14406 N 1362.49 -2.88579 0.342145 0
M  V30 14407 H 1362.03 -2.34894 1.05747 0
M  V30 14408 H 1361.99 -3.10435 -0.497757 0
M  V30 14409 N 1365.76 -1.381 -0.759346 0
M  V30 14410 C 1367.01 -1.3419 -1.52055 0
M  V30 14411 C 1367.34 0.0697657 -1.94075 0
M  V30 14412 O 1366.62 1.02975 -1.65004 0
M  V30 14413 C 1366.9 -2.29236 -2.7771 0
M  V30 14414 C 1366.75 -3.79237 -2.41866 0
M  V30 14415 C 1368.07 -2.22511 -3.79706 0
M  V30 14416 H 1365.19 -0.488768 -0.551611 0
M  V30 14417 H 1367.83 -1.68902 -0.870174 0
M  V30 14418 H 1365.98 -1.99764 -3.33206 0
M  V30 14419 H 1367.66 -4.19358 -1.92189 0
M  V30 14420 H 1365.9 -3.97199 -1.74399 0
M  V30 14421 H 1366.57 -4.41193 -3.31742 0
M  V30 14422 H 1369.05 -2.48516 -3.33735 0
M  V30 14423 H 1367.92 -2.91134 -4.6533 0
M  V30 14424 H 1368.18 -1.22206 -4.24874 0
M  V30 14425 N 1367.24 0.986894 -1.22875 0
M  V30 14426 C 1368.49 1.73071 -1.06856 0
M  V30 14427 C 1368.84 1.88376 0.39143 0
M  V30 14428 O 1368.14 1.42022 1.28609 0
M  V30 14429 C 1368.33 3.13283 -1.72012 0
M  V30 14430 C 1368.16 3.11652 -3.24196 0
M  V30 14431 C 1366.93 3.17207 -3.93329 0
M  V30 14432 C 1369.13 2.9533 -4.21052 0
M  V30 14433 N 1367.11 3.05393 -5.32549 0
M  V30 14434 C 1368.48 2.91609 -5.47142 0
M  V30 14435 C 1370.54 2.79766 -4.11868 0
M  V30 14436 C 1369.24 2.73917 -6.65103 0
M  V30 14437 C 1371.26 2.63437 -5.29486 0
M  V30 14438 C 1370.63 2.60408 -6.54498 0
M  V30 14439 H 1366.73 0.642696 -0.445495 0
M  V30 14440 H 1369.31 1.17158 -1.55506 0
M  V30 14441 H 1367.48 3.67427 -1.25904 0
M  V30 14442 H 1369.21 3.76261 -1.4903 0
M  V30 14443 H 1365.97 3.25129 -3.44366 0
M  V30 14444 H 1366.39 3.02779 -6.0552 0
M  V30 14445 H 1371.03 2.80903 -3.15996 0
M  V30 14446 H 1368.75 2.71526 -7.61117 0
M  V30 14447 H 1372.34 2.52367 -5.24216 0
M  V30 14448 H 1371.22 2.47928 -7.43977 0
M  V30 14449 N 1368.72 1.0394 1.18466 0
M  V30 14450 C 1369.63 0.639714 2.2571 0
M  V30 14451 C 1370.65 -0.333431 1.70775 0
M  V30 14452 O 1371.82 -0.188676 2.00514 0
M  V30 14453 C 1368.89 0.007559 3.46699 0
M  V30 14454 C 1367.95 1.02955 4.16772 0
M  V30 14455 C 1367.18 0.427464 5.31985 0
M  V30 14456 O 1367.4 -0.766684 5.65224 0
M  V30 14457 O 1366.34 1.15553 5.90704 0
M  V30 14458 H 1370.16 1.53316 2.6216 0
M  V30 14459 H 1367.75 0.810206 1.25523 0
M  V30 14460 H 1369.63 -0.344404 4.1999 0
M  V30 14461 H 1368.31 -0.859727 3.12074 0
M  V30 14462 H 1367.21 1.43328 3.45554 0
M  V30 14463 H 1368.55 1.86756 4.55393 0
M  V30 14464 N 1370.2 -1.34667 0.818693 0
M  V30 14465 C 1371.44 -1.98708 0.405359 0
M  V30 14466 C 1371.78 -1.64767 -1.02788 0
M  V30 14467 O 1371.05 -0.91714 -1.71519 0
M  V30 14468 C 1371.34 -3.55016 0.602966 0
M  V30 14469 C 1371.19 -3.98713 2.08201 0
M  V30 14470 C 1372.51 -4.40085 0.0362489 0
M  V30 14471 H 1369.63 -0.721831 0.148756 0
M  V30 14472 H 1372.27 -1.59628 1.03047 0
M  V30 14473 H 1370.42 -3.88435 0.0708453 0
M  V30 14474 H 1372.09 -3.75647 2.67745 0
M  V30 14475 H 1370.33 -3.49179 2.57403 0
M  V30 14476 H 1371 -5.0751 2.17111 0
M  V30 14477 H 1373.48 -4.13195 0.490837 0
M  V30 14478 H 1372.36 -5.4852 0.204344 0
M  V30 14479 H 1372.62 -4.29243 -1.05845 0
M  V30 14480 N 1371.68 -0.573274 -1.46804 0
M  V30 14481 C 1372.59 0.168081 -2.33997 0
M  V30 14482 C 1373.6 0.895652 -1.49178 0
M  V30 14483 O 1374.78 0.860951 -1.8207 0
M  V30 14484 C 1371.84 1.17483 -3.26188 0
M  V30 14485 C 1370.9 0.452956 -4.26904 0
M  V30 14486 C 1370.14 1.41175 -5.1469 0
M  V30 14487 O 1370.36 2.64767 -5.05227 0
M  V30 14488 O 1369.29 0.927472 -5.94711 0
M  V30 14489 H 1373.12 -0.547576 -2.98723 0
M  V30 14490 H 1370.71 -0.333747 -1.45624 0
M  V30 14491 H 1372.59 1.75557 -3.8309 0
M  V30 14492 H 1371.26 1.87213 -2.6407 0
M  V30 14493 H 1370.17 -0.169383 -3.73716 0
M  V30 14494 H 1371.5 -0.203186 -4.9178 0
M  V30 14495 N 1373.15 1.5451 -0.310553 0
M  V30 14496 C 1374.43 1.92452 0.34951 0
M  V30 14497 C 1374.81 1.23881 1.70929 0
M  V30 14498 O 1374.16 0.377898 2.25353 0
M  V30 14499 C 1374.37 3.46026 0.454675 0
M  V30 14500 C 1375.72 4.18432 0.721071 0
M  V30 14501 O 1376.74 3.52112 0.538112 0
M  V30 14502 O 1375.6 5.3586 1.07314 0
M  V30 14503 H 1372.69 0.803168 0.197103 0
M  V30 14504 H 1375.24 1.65852 -0.359313 0
M  V30 14505 H 1374.01 3.88081 -0.500853 0
M  V30 14506 H 1373.64 3.7869 1.21159 0
M  V30 14507 N 1374.63 0.0384594 1.57553 0
M  V30 14508 C 1375.86 -0.647137 1.96203 0
M  V30 14509 C 1376.27 -1.65656 0.914042 0
M  V30 14510 O 1375.61 -1.83361 -0.111617 0
M  V30 14511 C 1375.68 -1.40193 3.31038 0
M  V30 14512 C 1375.34 -0.549782 4.53681 0
M  V30 14513 C 1376.34 0.178839 5.19592 0
M  V30 14514 C 1374.02 -0.48444 4.99958 0
M  V30 14515 C 1376.02 0.961376 6.30108 0
M  V30 14516 C 1373.7 0.301795 6.10354 0
M  V30 14517 C 1374.7 1.0234 6.75289 0
M  V30 14518 O 1374.39 1.79673 7.83564 0
M  V30 14519 H 1374.12 -0.182651 0.650857 0
M  V30 14520 H 1376.68 0.0973346 2.05169 0
M  V30 14521 H 1374.91 -2.19175 3.1859 0
M  V30 14522 H 1376.59 -1.97653 3.54525 0
M  V30 14523 H 1377.36 0.137749 4.84804 0
M  V30 14524 H 1373.24 -1.03568 4.49216 0
M  V30 14525 H 1376.78 1.52513 6.80724 0
M  V30 14526 H 1372.68 0.344569 6.4458 0
M  V30 14527 H 1373.45 1.71749 8.00278 0
M  V30 14528 N 1376.11 -1.55841 -0.234795 0
M  V30 14529 C 1377.36 -1.77886 -0.959217 0
M  V30 14530 C 1377.68 -0.604621 -1.8539 0
M  V30 14531 O 1376.95 0.379092 -1.92197 0
M  V30 14532 H 1375.53 -0.656077 -0.357172 0
M  V30 14533 H 1378.19 -1.93292 -0.249831 0
M  V30 14534 H 1377.29 -2.69512 -1.57383 0
M  V30 14535 N 1377.59 0.500963 -1.49426 0
M  V30 14536 C 1378.84 1.25509 -1.58915 0
M  V30 14537 C 1379.16 1.92534 -0.275868 0
M  V30 14538 O 1378.42 1.81324 0.736212 0
M  V30 14539 C 1378.72 2.34448 -2.69757 0
M  V30 14540 C 1378.38 1.8488 -4.11254 0
M  V30 14541 C 1377.05 1.71081 -4.49761 0
M  V30 14542 C 1379.4 1.4778 -4.9981 0
M  V30 14543 C 1376.73 1.18561 -5.74596 0
M  V30 14544 C 1379.08 0.967118 -6.25164 0
M  V30 14545 C 1377.74 0.815523 -6.62499 0
M  V30 14546 H 1377.01 0.459268 -0.58151 0
M  V30 14547 H 1379.66 0.555817 -1.83256 0
M  V30 14548 H 1377.96 3.10163 -2.39387 0
M  V30 14549 H 1379.66 2.925 -2.74308 0
M  V30 14550 H 1376.25 1.9658 -3.8086 0
M  V30 14551 H 1380.44 1.57288 -4.70717 0
M  V30 14552 H 1375.69 1.05536 -6.02223 0
M  V30 14553 H 1379.87 0.670857 -6.93161 0
M  V30 14554 H 1377.49 0.406375 -7.59113 0
M  V30 14555 N 1379.07 1.38501 0.752011 0
M  V30 14556 C 1380.32 1.34529 1.50819 0
M  V30 14557 C 1380.64 -0.0636155 1.94896 0
M  V30 14558 O 1379.91 -1.01161 1.6776 0
M  V30 14559 H 1378.49 0.49501 0.559441 0
M  V30 14560 H 1381.15 1.73196 0.893822 0
M  V30 14561 H 1380.24 1.99713 2.39835 0
M  V30 14562 N 1380.55 -0.980364 1.23396 0
M  V30 14563 C 1381.79 -1.72421 1.06765 0
M  V30 14564 C 1382.12 -1.90151 -0.394515 0
M  V30 14565 O 1381.4 -1.4538 -1.29209 0
M  V30 14566 C 1381.68 -3.12246 1.79372 0
M  V30 14567 C 1381.54 -3.02087 3.33262 0
M  V30 14568 C 1382.85 -4.11667 1.55624 0
M  V30 14569 H 1379.97 -0.625822 0.389251 0
M  V30 14570 H 1382.62 -1.14132 1.51901 0
M  V30 14571 H 1380.77 -3.62008 1.41004 0
M  V30 14572 H 1382.44 -2.59848 3.81152 0
M  V30 14573 H 1380.68 -2.38592 3.62293 0
M  V30 14574 H 1381.35 -4.01087 3.79254 0
M  V30 14575 H 1383.83 -3.70712 1.88975 0
M  V30 14576 H 1382.7 -5.07593 2.08902 0
M  V30 14577 H 1382.96 -4.39358 0.491601 0
M  V30 14578 N 1382.02 -1.04567 -1.17913 0
M  V30 14579 C 1383.27 -0.752023 -1.88018 0
M  V30 14580 C 1383.6 0.720567 -1.8066 0
M  V30 14581 O 1382.85 1.54207 -1.20493 0
M  V30 14582 C 1383.15 -1.1699 -3.3771 0
M  V30 14583 C 1382.82 -2.64363 -3.65271 0
M  V30 14584 C 1381.48 -3.04622 -3.72503 0
M  V30 14585 C 1383.83 -3.59626 -3.77251 0
M  V30 14586 C 1381.16 -4.39023 -3.89199 0
M  V30 14587 C 1383.51 -4.93752 -3.95465 0
M  V30 14588 C 1382.18 -5.33675 -4.00933 0
M  V30 14589 H 1381.45 -0.275185 -0.688008 0
M  V30 14590 H 1384.09 -1.31161 -1.39532 0
M  V30 14591 H 1382.4 -0.529202 -3.8821 0
M  V30 14592 H 1384.1 -0.919981 -3.90304 0
M  V30 14593 H 1380.69 -2.32182 -3.60263 0
M  V30 14594 H 1384.87 -3.29665 -3.70992 0
M  V30 14595 H 1380.13 -4.69466 -3.91679 0
M  V30 14596 H 1384.3 -5.67467 -4.03676 0
M  V30 14597 H 1381.93 -6.37825 -4.13623 0
M  V30 14598 N 1383.5 1.34231 -0.825823 0
M  V30 14599 C 1384.73 2.02417 -0.428348 0
M  V30 14600 C 1385.14 1.62181 0.966573 0
M  V30 14601 O 1384.5 0.828691 1.62601 0
M  V30 14602 C 1384.55 3.57678 -0.524271 0
M  V30 14603 O 1384.27 3.96458 -1.86422 0
M  V30 14604 C 1385.77 4.43132 -0.122069 0
M  V30 14605 H 1382.99 0.648699 -0.171554 0
M  V30 14606 H 1385.54 1.71443 -1.11478 0
M  V30 14607 H 1383.69 3.87232 0.114112 0
M  V30 14608 H 1384.11 4.91147 -1.84051 0
M  V30 14609 H 1385.58 5.51477 -0.240264 0
M  V30 14610 H 1386.06 4.29139 0.934705 0
M  V30 14611 H 1386.66 4.18912 -0.734366 0
M  V30 14612 N 1384.98 0.581051 1.46498 0
M  V30 14613 C 1386.21 0.0715652 2.06776 0
M  V30 14614 C 1386.62 -1.23267 1.43006 0
M  V30 14615 O 1385.98 -1.74489 0.534776 0
M  V30 14616 C 1386.03 -0.102666 3.61354 0
M  V30 14617 O 1385.75 1.14995 4.22739 0
M  V30 14618 C 1387.25 -0.646692 4.38558 0
M  V30 14619 H 1384.47 0.0566964 0.6686 0
M  V30 14620 H 1387.02 0.801248 1.8815 0
M  V30 14621 H 1385.17 -0.782564 3.79414 0
M  V30 14622 H 1385.59 0.962718 5.15589 0
M  V30 14623 H 1387.06 -0.717791 5.47313 0
M  V30 14624 H 1387.54 -1.6633 4.06486 0
M  V30 14625 H 1388.14 -0.00171739 4.253 0
M  V30 14626 N 1386.46 -1.54343 0.318742 0
M  V30 14627 C 1387.41 -2.25634 -0.56497 0
M  V30 14628 C 1388.4 -1.26869 -1.12252 0
M  V30 14629 O 1389.61 -1.44662 -1.07112 0
M  V30 14630 H 1385.98 -0.724686 -0.200834 0
M  V30 14631 H 1387.95 -2.98342 0.0586393 0
M  V30 14632 C 1386.7 -3.0237 -1.71662 0
M  V30 14633 H 1386.02 -3.78183 -1.29684 0
M  V30 14634 H 1387.46 -3.55507 -2.31065 0
M  V30 14635 C 1385.92 -2.10383 -2.63136 0
M  V30 14636 O 1386.45 -1.68351 -3.6472 0
M  V30 14637 N 1384.66 -1.75971 -2.31263 0
M  V30 14638 H 1384.21 -2.10349 -1.48698 0
M  V30 14639 H 1384.16 -1.14702 -2.9273 0
M  V30 14640 N 1387.94 -0.0468143 -1.5753 0
M  V30 14641 C 1389.18 0.627375 -1.91695 0
M  V30 14642 C 1389.5 1.72261 -0.926588 0
M  V30 14643 O 1390.7 2.45466 -1.16012 0
M  V30 14644 C 1389.16 1.16722 -3.40447 0
M  V30 14645 C 1388.77 0.104335 -4.47878 0
M  V30 14646 C 1390.51 1.81691 -3.83652 0
M  V30 14647 C 1388.42 0.656818 -5.87741 0
M  V30 14648 H 1387.35 0.238107 -0.715417 0
M  V30 14649 H 1390 -0.114995 -1.83139 0
M  V30 14650 H 1388.38 1.96177 -3.43992 0
M  V30 14651 H 1389.56 -0.669053 -4.55917 0
M  V30 14652 H 1387.87 -0.447633 -4.13987 0
M  V30 14653 H 1390.47 2.24014 -4.85512 0
M  V30 14654 H 1390.81 2.66686 -3.19663 0
M  V30 14655 H 1391.34 1.08898 -3.82604 0
M  V30 14656 H 1388.08 -0.155397 -6.55316 0
M  V30 14657 H 1387.6 1.39829 -5.83273 0
M  V30 14658 H 1389.28 1.14107 -6.36858 0
M  V30 14659 N 1389.41 1.55964 0.226527 0
M  V30 14660 C 1390.66 1.79921 0.94869 0
M  V30 14661 C 1391.02 0.619018 1.8217 0
M  V30 14662 O 1390.31 -0.387105 1.87649 0
M  V30 14663 C 1390.5 3.07235 1.82597 0
M  V30 14664 C 1390.33 4.37524 1.03937 0
M  V30 14665 C 1389.1 4.99907 0.736294 0
M  V30 14666 C 1391.3 5.12686 0.407078 0
M  V30 14667 N 1389.28 6.13858 -0.0722247 0
M  V30 14668 C 1390.65 6.19433 -0.265063 0
M  V30 14669 C 1392.71 4.96873 0.319605 0
M  V30 14670 C 1391.41 7.12084 -1.0163 0
M  V30 14671 C 1393.44 5.8992 -0.418156 0
M  V30 14672 C 1392.8 6.96089 -1.07886 0
M  V30 14673 H 1388.9 0.710081 0.327581 0
M  V30 14674 H 1391.48 1.93453 0.219997 0
M  V30 14675 H 1389.65 2.94994 2.52652 0
M  V30 14676 H 1391.38 3.19403 2.48523 0
M  V30 14677 H 1388.14 4.61743 1.0531 0
M  V30 14678 H 1388.56 6.754 -0.465173 0
M  V30 14679 H 1393.21 4.1485 0.816071 0
M  V30 14680 H 1390.92 7.93593 -1.52431 0
M  V30 14681 H 1394.51 5.7976 -0.486776 0
M  V30 14682 H 1393.39 7.66847 -1.64061 0
M  V30 14683 N 1390.89 -0.493031 1.4969 0
M  V30 14684 C 1391.82 -1.60215 1.69863 0
M  V30 14685 C 1392.8 -1.61053 0.547362 0
M  V30 14686 O 1393.99 -1.77667 0.784093 0
M  V30 14687 C 1391.12 -2.98662 1.77252 0
M  V30 14688 C 1390.07 -3.1269 2.92248 0
M  V30 14689 C 1389.4 -4.52567 2.84758 0
M  V30 14690 C 1390.7 -2.91965 4.33074 0
M  V30 14691 H 1392.39 -1.43587 2.62723 0
M  V30 14692 H 1389.94 -0.689334 1.26429 0
M  V30 14693 H 1391.89 -3.7616 1.89951 0
M  V30 14694 H 1390.62 -3.16397 0.809976 0
M  V30 14695 H 1389.27 -2.37619 2.79164 0
M  V30 14696 H 1388.92 -4.6719 1.86394 0
M  V30 14697 H 1388.62 -4.62893 3.61944 0
M  V30 14698 H 1390.15 -5.32116 2.99475 0
M  V30 14699 H 1391.56 -3.59228 4.46798 0
M  V30 14700 H 1389.96 -3.13756 5.11544 0
M  V30 14701 H 1391.03 -1.88015 4.46966 0
M  V30 14702 N 1392.37 -1.38898 -0.744656 0
M  V30 14703 C 1393.32 -1.36845 -1.85855 0
M  V30 14704 C 1394.29 -0.2296 -1.64505 0
M  V30 14705 O 1395.47 -0.423221 -1.86047 0
M  V30 14706 C 1392.61 -1.20818 -3.2326 0
M  V30 14707 C 1391.73 -2.44166 -3.5638 0
M  V30 14708 C 1390.86 -2.20801 -4.83136 0
M  V30 14709 C 1389.9 -3.39874 -5.0907 0
M  V30 14710 N 1389.04 -3.15888 -6.27024 0
M  V30 14711 H 1393.88 -2.32068 -1.86945 0
M  V30 14712 H 1391.41 -1.15289 -0.913611 0
M  V30 14713 H 1393.37 -1.0954 -4.02563 0
M  V30 14714 H 1392 -0.292295 -3.21474 0
M  V30 14715 H 1391.05 -2.66083 -2.71852 0
M  V30 14716 H 1392.37 -3.32885 -3.71469 0
M  V30 14717 H 1391.52 -2.0671 -5.704 0
M  V30 14718 H 1390.26 -1.29462 -4.70203 0
M  V30 14719 H 1389.26 -3.54474 -4.20271 0
M  V30 14720 H 1390.49 -4.32102 -5.23894 0
M  V30 14721 H 1388.43 -2.27204 -6.15398 0
M  V30 14722 H 1388.35 -3.9816 -6.42655 0
M  V30 14723 H 1389.62 -3.0547 -7.17153 0
M  V30 14724 N 1393.85 0.973806 -1.23914 0
M  V30 14725 C 1394.78 2.08526 -1.05068 0
M  V30 14726 C 1395.76 1.70065 0.0344761 0
M  V30 14727 O 1396.94 1.93755 -0.131432 0
M  V30 14728 C 1394.07 3.41198 -0.648165 0
M  V30 14729 C 1393.03 3.9359 -1.6814 0
M  V30 14730 C 1392.35 5.22534 -1.13414 0
M  V30 14731 C 1393.65 4.22116 -3.07597 0
M  V30 14732 H 1395.35 2.24551 -1.98034 0
M  V30 14733 H 1392.89 1.07905 -0.953546 0
M  V30 14734 H 1394.85 4.18383 -0.50334 0
M  V30 14735 H 1393.57 3.25056 0.317182 0
M  V30 14736 H 1392.23 3.18555 -1.81434 0
M  V30 14737 H 1391.88 5.02747 -0.159578 0
M  V30 14738 H 1391.58 5.58555 -1.82456 0
M  V30 14739 H 1393.1 6.02334 -1.0013 0
M  V30 14740 H 1394.52 4.90027 -2.97567 0
M  V30 14741 H 1392.91 4.69352 -3.73937 0
M  V30 14742 H 1393.98 3.29128 -3.56094 0
M  V30 14743 N 1395.33 1.05191 1.17357 0
M  V30 14744 C 1396.74 0.773255 1.39617 0
M  V30 14745 C 1396.94 -0.632346 1.91321 0
M  V30 14746 O 1396 -1.39475 2.10483 0
M  V30 14747 C 1397.31 1.82885 2.38692 0
M  V30 14748 C 1398.86 1.85106 2.52398 0
M  V30 14749 C 1399.33 2.89689 3.54746 0
M  V30 14750 N 1400.83 2.88651 3.62263 0
M  V30 14751 C 1401.56 3.66221 4.41214 0
M  V30 14752 N 1401.06 4.53577 5.23679 0
M  V30 14753 N 1402.85 3.54661 4.36087 0
M  V30 14754 H 1395 1.9588 0.82127 0
M  V30 14755 H 1397.26 0.848187 0.423417 0
M  V30 14756 H 1396.97 2.83766 2.07773 0
M  V30 14757 H 1396.84 1.67047 3.38194 0
M  V30 14758 H 1399.23 0.848896 2.82627 0
M  V30 14759 H 1399.31 2.05022 1.5297 0
M  V30 14760 H 1398.96 3.90091 3.25255 0
M  V30 14761 H 1398.89 2.67025 4.53878 0
M  V30 14762 H 1401.38 2.25312 3.03386 0
M  V30 14763 H 1401.69 5.09449 5.81104 0
M  V30 14764 H 1400.03 4.57638 5.23061 0
M  V30 14765 H 1403.23 2.8581 3.70716 0
M  V30 14766 H 1403.4 4.15361 4.97372 0
M  V30 14767 N 1396.8 -1.33791 0.83293 0
M  V30 14768 C 1397.71 -2.33108 0.264169 0
M  V30 14769 C 1398.73 -1.6308 -0.606694 0
M  V30 14770 O 1399.91 -1.94777 -0.512225 0
M  V30 14771 C 1396.97 -3.42208 -0.556315 0
M  V30 14772 C 1396.03 -4.27966 0.338123 0
M  V30 14773 C 1395.27 -5.31856 -0.443297 0
M  V30 14774 O 1395.49 -5.45234 -1.6756 0
M  V30 14775 O 1394.42 -6.01632 0.179599 0
M  V30 14776 H 1398.25 -2.83602 1.08645 0
M  V30 14777 H 1395.83 -1.37027 0.595307 0
M  V30 14778 H 1397.72 -4.088 -1.02277 0
M  V30 14779 H 1396.39 -2.9394 -1.35575 0
M  V30 14780 H 1395.3 -3.64262 0.852293 0
M  V30 14781 H 1396.63 -4.79701 1.10217 0
M  V30 14782 N 1398.28 -0.588812 -1.46187 0
M  V30 14783 C 1399.53 -0.0768417 -2.02654 0
M  V30 14784 C 1399.86 1.28213 -1.4586 0
M  V30 14785 O 1399.14 1.8415 -0.626022 0
M  V30 14786 C 1399.42 -0.0176429 -3.60096 0
M  V30 14787 C 1399.27 -1.40595 -4.27262 0
M  V30 14788 C 1400.59 0.679864 -4.34817 0
M  V30 14789 H 1397.71 -0.0293981 -0.736413 0
M  V30 14790 H 1400.35 -0.757183 -1.74261 0
M  V30 14791 H 1398.5 0.56174 -3.84417 0
M  V30 14792 H 1400.17 -2.03097 -4.14185 0
M  V30 14793 H 1398.42 -1.97196 -3.86388 0
M  V30 14794 H 1399.09 -1.31694 -5.3606 0
M  V30 14795 H 1401.56 0.1876 -4.15677 0
M  V30 14796 H 1400.44 0.690333 -5.44542 0
M  V30 14797 H 1400.7 1.74237 -4.06318 0
M  V30 14798 N 1399.76 1.54172 -0.326923 0
M  V30 14799 C 1400.99 2.04747 0.276107 0
M  V30 14800 C 1401.4 1.20251 1.4607 0
M  V30 14801 O 1400.74 0.226753 1.82295 0
M  V30 14802 C 1400.8 3.51143 0.770651 0
M  V30 14803 C 1400.47 4.56066 -0.292079 0
M  V30 14804 C 1401.46 5.07487 -1.12928 0
M  V30 14805 C 1399.15 5.00358 -0.441232 0
M  V30 14806 C 1401.14 6.01767 -2.10133 0
M  V30 14807 C 1398.83 5.94452 -1.4167 0
M  V30 14808 C 1399.83 6.45042 -2.24521 0
M  V30 14809 O 1399.52 7.37288 -3.20409 0
M  V30 14810 H 1399.25 0.673322 0.0601144 0
M  V30 14811 H 1401.8 1.99899 -0.472176 0
M  V30 14812 H 1400.03 3.53399 1.5699 0
M  V30 14813 H 1401.72 3.84775 1.2924 0
M  V30 14814 H 1402.49 4.74044 -1.02505 0
M  V30 14815 H 1398.37 4.60593 0.193767 0
M  V30 14816 H 1401.91 6.41178 -2.74839 0
M  V30 14817 H 1397.81 6.27311 -1.52155 0
M  V30 14818 H 1398.58 7.55171 -3.15687 0
M  V30 14819 N 1401.24 0.0551678 1.57503 0
M  V30 14820 C 1402.47 -0.6272 1.97164 0
M  V30 14821 C 1402.88 -1.64143 0.932876 0
M  V30 14822 O 1402.24 -1.82314 -0.0824465 0
M  V30 14823 C 1402.29 -1.31057 3.36907 0
M  V30 14824 O 1402.01 -0.336951 4.36802 0
M  V30 14825 C 1403.51 -2.08232 3.91349 0
M  V30 14826 H 1400.73 -0.171196 0.648793 0
M  V30 14827 H 1403.28 0.122651 2.04132 0
M  V30 14828 H 1401.43 -2.01162 3.31078 0
M  V30 14829 H 1401.84 -0.825204 5.17968 0
M  V30 14830 H 1403.32 -2.51463 4.91397 0
M  V30 14831 H 1403.8 -2.93212 3.26991 0
M  V30 14832 H 1404.4 -1.43029 4.00528 0
M  V30 14833 N 1402.72 -1.56081 -0.218252 0
M  V30 14834 C 1403.65 -1.89176 -1.29403 0
M  V30 14835 C 1404.66 -0.780312 -1.42881 0
M  V30 14836 O 1405.85 -1.05863 -1.4372 0
M  V30 14837 C 1402.95 -2.08818 -2.66923 0
M  V30 14838 C 1402.12 -3.39854 -2.75351 0
M  V30 14839 C 1401.18 -3.48889 -3.93908 0
M  V30 14840 O 1400.21 -4.21894 -3.82091 0
M  V30 14841 N 1401.41 -2.80273 -5.08357 0
M  V30 14842 H 1404.18 -2.82047 -1.01338 0
M  V30 14843 H 1401.74 -1.56667 -0.408278 0
M  V30 14844 H 1403.73 -2.12175 -3.44622 0
M  V30 14845 H 1402.3 -1.22557 -2.87574 0
M  V30 14846 H 1401.52 -3.48568 -1.84104 0
M  V30 14847 H 1402.81 -4.26168 -2.77954 0
M  V30 14848 H 1402.2 -2.20744 -5.20854 0
M  V30 14849 H 1400.76 -2.89286 -5.84086 0
M  V30 14850 N 1404.2 0.485086 -1.49949 0
M  V30 14851 C 1405.13 1.59312 -1.7071 0
M  V30 14852 C 1406.11 1.6076 -0.555896 0
M  V30 14853 O 1407.29 1.77249 -0.793504 0
M  V30 14854 C 1404.42 2.97718 -1.78834 0
M  V30 14855 C 1403.38 3.11136 -2.93902 0
M  V30 14856 C 1402.7 4.51051 -2.87154 0
M  V30 14857 C 1404 2.89665 -4.34617 0
M  V30 14858 H 1405.7 1.42192 -2.6348 0
M  V30 14859 H 1403.24 0.68262 -1.26792 0
M  V30 14860 H 1405.19 3.75148 -1.91943 0
M  V30 14861 H 1403.92 3.15963 -0.826744 0
M  V30 14862 H 1402.58 2.36135 -2.80421 0
M  V30 14863 H 1402.23 4.66195 -1.88869 0
M  V30 14864 H 1401.93 4.60967 -3.64394 0
M  V30 14865 H 1403.45 5.3052 -3.02293 0
M  V30 14866 H 1404.86 3.56853 -4.48697 0
M  V30 14867 H 1403.26 3.11039 -5.13201 0
M  V30 14868 H 1404.33 1.85642 -4.47956 0
M  V30 14869 N 1405.67 1.39291 0.737279 0
M  V30 14870 C 1406.91 1.37821 1.50946 0
M  V30 14871 C 1407.28 -0.0269225 1.91981 0
M  V30 14872 O 1408.48 -0.16661 2.68283 0
M  V30 14873 C 1406.75 2.32145 2.71741 0
M  V30 14874 S 1408.31 2.48842 3.61418 0
M  V30 14875 H 1405.13 0.48878 0.516348 0
M  V30 14876 H 1407.73 1.75367 0.864096 0
M  V30 14877 H 1406.43 3.33103 2.39731 0
M  V30 14878 H 1405.96 1.95806 3.41209 0
M  V30 14879 H 1407.98 1.72464 4.65264 0
M  V30 14880 N 1407.15 -0.967221 1.24429 0
M  V30 14881 C 1408.43 -1.68564 0.992253 0
M  V30 14882 C 1408.81 -2.05446 -0.485301 0
M  V30 14883 O 1408.16 -1.75798 -1.45971 0
M  V30 14884 C 1408.37 -2.91728 1.91562 0
M  V30 14885 C 1409.71 -3.63957 2.18678 0
M  V30 14886 O 1410.74 -3.01786 1.89219 0
M  V30 14887 O 1409.6 -4.75875 2.68711 0
M  V30 14888 H 1406.69 -0.736939 0.375299 0
M  V30 14889 H 1409.24 -1.02127 1.35529 0
M  V30 14890 H 1408.01 -2.61168 2.91388 0
M  V30 14891 H 1407.63 -3.65898 1.55577 0
M  V30 14892 N 1408.63 -1.05812 -1.16797 0
M  V30 14893 C 1409.58 -0.634669 -2.18988 0
M  V30 14894 C 1410.56 0.332122 -1.57435 0
M  V30 14895 O 1411.76 0.148346 -1.76377 0
M  V30 14896 C 1408.88 -0.0174742 -3.43296 0
M  V30 14897 C 1407.97 -1.00847 -4.11935 0
M  V30 14898 N 1408.36 -2.18223 -4.56303 0
M  V30 14899 C 1406.66 -0.838325 -4.3805 0
M  V30 14900 C 1407.36 -2.80967 -5.09345 0
M  V30 14901 N 1406.34 -2.08725 -5.01931 0
M  V30 14902 H 1410.14 -1.52888 -2.51003 0
M  V30 14903 H 1407.65 -0.929125 -1.33195 0
M  V30 14904 H 1409.65 0.303692 -4.15792 0
M  V30 14905 H 1408.31 0.872052 -3.1277 0
M  V30 14906 H 1409.32 -2.56025 -4.5019 0
M  V30 14907 H 1406 -0.000376066 -4.175 0
M  V30 14908 H 1407.39 -3.80541 -5.53749 0
M  V30 14909 N 1410.11 1.33347 -0.840014 0
M  V30 14910 C 1411.52 1.50615 -0.52795 0
M  V30 14911 C 1411.72 1.77993 0.944493 0
M  V30 14912 O 1410.78 1.84087 1.72824 0
M  V30 14913 C 1412.09 2.66001 -1.40228 0
M  V30 14914 C 1413.64 2.79886 -1.40117 0
M  V30 14915 C 1414.12 3.98335 -2.26038 0
M  V30 14916 N 1415.61 4.05572 -2.23753 0
M  V30 14917 C 1416.34 4.96422 -2.86972 0
M  V30 14918 N 1415.84 5.9238 -3.59247 0
M  V30 14919 N 1417.63 4.89428 -2.76436 0
M  V30 14920 H 1409.78 1.13839 -1.79317 0
M  V30 14921 H 1412.04 0.559772 -0.765088 0
M  V30 14922 H 1411.75 2.52453 -2.44868 0
M  V30 14923 H 1411.62 3.61434 -1.07914 0
M  V30 14924 H 1414.01 2.92865 -0.362487 0
M  V30 14925 H 1414.09 1.85211 -1.76439 0
M  V30 14926 H 1413.74 3.86115 -3.29966 0
M  V30 14927 H 1413.67 4.92257 -1.87057 0
M  V30 14928 H 1416.16 3.36899 -1.71195 0
M  V30 14929 H 1416.47 6.58367 -4.04688 0
M  V30 14930 H 1414.82 5.92451 -3.63354 0
M  V30 14931 H 1418.01 4.13428 -2.19534 0
M  V30 14932 H 1418.18 5.60032 -3.25989 0
M  V30 14933 N 1411.59 0.596556 1.45873 0
M  V30 14934 C 1412.52 -0.116229 2.33211 0
M  V30 14935 C 1413.5 -0.869868 1.46176 0
M  V30 14936 O 1414.68 -0.842599 1.74968 0
M  V30 14937 C 1411.81 -1.12145 3.28696 0
M  V30 14938 C 1410.77 -0.481749 4.2528 0
M  V30 14939 C 1410.09 -1.59443 5.10374 0
M  V30 14940 C 1411.39 0.589996 5.18957 0
M  V30 14941 H 1413.09 0.613005 2.93057 0
M  V30 14942 H 1410.63 0.296242 1.4092 0
M  V30 14943 H 1412.58 -1.62857 3.88659 0
M  V30 14944 H 1411.31 -1.88114 2.66985 0
M  V30 14945 H 1409.97 0.0044092 3.666 0
M  V30 14946 H 1409.62 -2.34413 4.45039 0
M  V30 14947 H 1409.32 -1.17197 5.75794 0
M  V30 14948 H 1410.84 -2.10404 5.73204 0
M  V30 14949 H 1412.25 0.167395 5.73056 0
M  V30 14950 H 1410.65 0.933565 5.92794 0
M  V30 14951 H 1411.72 1.47093 4.62052 0
M  V30 14952 N 1413.06 -1.53996 0.335095 0
M  V30 14953 C 1414 -2.21007 -0.568424 0
M  V30 14954 C 1414.97 -1.19112 -1.10685 0
M  V30 14955 O 1416.16 -1.47898 -1.1687 0
M  V30 14956 C 1413.29 -2.88086 -1.78113 0
M  V30 14957 C 1412.33 -4.03798 -1.37292 0
M  V30 14958 S 1413.16 -5.34005 -0.399865 0
M  V30 14959 C 1414.32 -6.04582 -1.6196 0
M  V30 14960 H 1414.55 -2.973 0.000770174 0
M  V30 14961 H 1412.09 -1.53939 0.119169 0
M  V30 14962 H 1414.04 -3.27353 -2.4769 0
M  V30 14963 H 1412.71 -2.11575 -2.32153 0
M  V30 14964 H 1411.9 -4.49637 -2.27689 0
M  V30 14965 H 1411.5 -3.66264 -0.75673 0
M  V30 14966 H 1413.79 -6.27462 -2.55534 0
M  V30 14967 H 1414.74 -6.97804 -1.20315 0
M  V30 14968 H 1415.14 -5.34634 -1.81181 0
M  V30 14969 N 1414.54 -0.0635198 -1.57472 0
M  V30 14970 C 1415.77 0.620205 -1.9791 0
M  V30 14971 C 1416.19 1.62851 -0.941335 0
M  V30 14972 O 1415.55 1.81056 0.0940313 0
M  V30 14973 C 1415.6 1.27261 -3.37397 0
M  V30 14974 O 1414.7 2.38841 -3.36197 0
M  V30 14975 H 1414.04 0.16021 -0.644382 0
M  V30 14976 H 1416.57 -0.135582 -2.0415 0
M  V30 14977 H 1416.58 1.6214 -3.74399 0
M  V30 14978 H 1415.26 0.533723 -4.12461 0
M  V30 14979 H 1413.83 2.05817 -3.10956 0
M  V30 14980 N 1416.02 1.56195 0.209972 0
M  V30 14981 C 1416.98 1.92514 1.24383 0
M  V30 14982 C 1417.98 0.804793 1.39211 0
M  V30 14983 O 1419.17 1.0724 1.37278 0
M  V30 14984 C 1416.3 2.18613 2.61574 0
M  V30 14985 H 1417.5 2.84992 0.933781 0
M  V30 14986 H 1415.05 1.49656 0.450878 0
M  V30 14987 H 1415.79 1.28724 2.97659 0
M  V30 14988 H 1415.57 3.00241 2.52186 0
M  V30 14989 H 1417.06 2.47767 3.36156 0
M  V30 14990 N 1417.5 -0.477127 1.50204 0
M  V30 14991 C 1418.46 -1.55824 1.68082 0
M  V30 14992 C 1419.46 -1.51039 0.551719 0
M  V30 14993 O 1420.65 -1.53766 0.818638 0
M  V30 14994 C 1417.78 -2.95462 1.70044 0
M  V30 14995 H 1418.98 -1.41292 2.64531 0
M  V30 14996 H 1416.53 -0.70308 1.39594 0
M  V30 14997 H 1417.26 -3.15445 0.752663 0
M  V30 14998 H 1417.05 -3.00343 2.52065 0
M  V30 14999 H 1418.54 -3.73964 1.85851 0
M  V30 15000 N 1418.98 -1.3968 -0.729882 0
M  V30 15001 C 1420.22 -1.37385 -1.49175 0
M  V30 15002 C 1420.56 0.0285839 -1.94179 0
M  V30 15003 O 1419.83 0.994516 -1.67152 0
M  V30 15004 C 1420.11 -2.35075 -2.72785 0
M  V30 15005 C 1419.97 -3.84282 -2.33767 0
M  V30 15006 C 1421.29 -2.30515 -3.74901 0
M  V30 15007 H 1418.4 -0.500359 -0.541119 0
M  V30 15008 H 1421.05 -1.7071 -0.834152 0
M  V30 15009 H 1419.2 -2.06787 -3.28894 0
M  V30 15010 H 1420.87 -4.2334 -1.8325 0
M  V30 15011 H 1419.11 -4.00809 -1.65935 0
M  V30 15012 H 1419.78 -4.48131 -3.22309 0
M  V30 15013 H 1422.26 -2.55539 -3.28389 0
M  V30 15014 H 1421.13 -3.00939 -4.5905 0
M  V30 15015 H 1421.4 -1.3119 -4.22187 0
M  V30 15016 N 1420.45 0.960609 -1.2494 0
M  V30 15017 C 1421.4 2.05634 -1.04801 0
M  V30 15018 C 1422.37 1.66049 0.0409611 0
M  V30 15019 O 1423.56 1.90453 -0.115053 0
M  V30 15020 C 1420.7 3.38604 -0.666444 0
M  V30 15021 C 1419.81 3.91341 -1.82964 0
M  V30 15022 C 1418.94 5.1261 -1.39299 0
M  V30 15023 C 1417.98 5.57562 -2.52569 0
M  V30 15024 N 1417.12 6.70046 -2.09722 0
M  V30 15025 H 1421.96 2.22194 -1.9858 0
M  V30 15026 H 1419.5 1.08892 -0.988981 0
M  V30 15027 H 1421.46 4.15017 -0.426205 0
M  V30 15028 H 1420.09 3.21948 0.23435 0
M  V30 15029 H 1419.14 3.11502 -2.18335 0
M  V30 15030 H 1420.45 4.20656 -2.68049 0
M  V30 15031 H 1419.6 5.96421 -1.11205 0
M  V30 15032 H 1418.34 4.84997 -0.512779 0
M  V30 15033 H 1417.35 4.72319 -2.81415 0
M  V30 15034 H 1418.57 5.87186 -3.41159 0
M  V30 15035 H 1416.52 6.44153 -1.24109 0
M  V30 15036 H 1416.44 6.98846 -2.88357 0
M  V30 15037 H 1417.7 7.57281 -1.84787 0
M  V30 15038 N 1421.93 1.0643 1.16234 0
M  V30 15039 C 1423.21 0.695256 1.82827 0
M  V30 15040 C 1423.59 -0.823242 1.94386 0
M  V30 15041 O 1422.94 -1.73406 1.48804 0
M  V30 15042 C 1423.15 1.3988 3.19741 0
M  V30 15043 C 1424.5 1.54489 3.95498 0
M  V30 15044 O 1425.52 1.35882 3.29264 0
M  V30 15045 O 1424.38 1.85027 5.14225 0
M  V30 15046 H 1421.47 0.246285 0.789476 0
M  V30 15047 H 1424.02 1.16466 1.23426 0
M  V30 15048 H 1422.79 2.43419 3.06371 0
M  V30 15049 H 1422.41 0.91957 3.8682 0
M  V30 15050 N 1423.41 -1.329 0.847073 0
M  V30 15051 C 1424.32 -2.32815 0.288878 0
M  V30 15052 C 1425.34 -1.63715 -0.589363 0
M  V30 15053 O 1426.51 -1.9531 -0.491537 0
M  V30 15054 C 1423.58 -3.42778 -0.519988 0
M  V30 15055 C 1422.64 -4.27584 0.383496 0
M  V30 15056 C 1421.87 -5.32296 -0.386862 0
M  V30 15057 O 1422.09 -5.4698 -1.61768 0
M  V30 15058 O 1421.03 -6.01408 0.2434 0
M  V30 15059 H 1424.85 -2.82434 1.11647 0
M  V30 15060 H 1422.44 -1.36388 0.609807 0
M  V30 15061 H 1424.32 -4.09862 -0.979357 0
M  V30 15062 H 1423 -2.95362 -1.3245 0
M  V30 15063 H 1421.9 -3.63338 0.890879 0
M  V30 15064 H 1423.24 -4.78505 1.15299 0
M  V30 15065 N 1424.89 -0.604284 -1.45555 0
M  V30 15066 C 1426.3 -0.267665 -1.57339 0
M  V30 15067 C 1426.5 1.22984 -1.59616 0
M  V30 15068 O 1425.56 2.0127 -1.52468 0
M  V30 15069 C 1426.87 -0.935923 -2.85764 0
M  V30 15070 C 1428.42 -0.911531 -2.99433 0
M  V30 15071 C 1428.9 -1.55974 -4.30623 0
M  V30 15072 N 1430.39 -1.52507 -4.37374 0
M  V30 15073 C 1431.12 -1.9958 -5.37546 0
M  V30 15074 N 1430.62 -2.54724 -6.44273 0
M  V30 15075 N 1432.41 -1.90368 -5.28882 0
M  V30 15076 H 1424.56 -1.57666 -1.42321 0
M  V30 15077 H 1426.83 -0.66028 -0.680245 0
M  V30 15078 H 1426.53 -1.99022 -2.89971 0
M  V30 15079 H 1426.41 -0.457194 -3.74419 0
M  V30 15080 H 1428.79 0.134206 -2.94795 0
M  V30 15081 H 1428.87 -1.42849 -2.12197 0
M  V30 15082 H 1428.52 -2.60479 -4.3602 0
M  V30 15083 H 1428.45 -1.01782 -5.1667 0
M  V30 15084 H 1430.94 -1.12221 -3.60853 0
M  V30 15085 H 1431.25 -2.88445 -7.16951 0
M  V30 15086 H 1429.6 -2.58761 -6.45033 0
M  V30 15087 H 1432.79 -1.47029 -4.4441 0
M  V30 15088 H 1432.96 -2.27367 -6.06802 0
M  V30 15089 N 1426.37 1.53816 -0.343257 0
M  V30 15090 C 1427.33 2.23654 0.501161 0
M  V30 15091 C 1428.33 1.23664 1.02781 0
M  V30 15092 O 1429.52 1.48104 0.917103 0
M  V30 15093 C 1426.65 2.95596 1.69812 0
M  V30 15094 H 1427.84 2.997 -0.109626 0
M  V30 15095 H 1425.4 1.56013 -0.0946011 0
M  V30 15096 H 1426.13 2.23736 2.34761 0
M  V30 15097 H 1425.92 3.68938 1.32768 0
M  V30 15098 H 1427.41 3.48748 2.29706 0
M  V30 15099 N 1427.84 0.0718701 1.57436 0
M  V30 15100 C 1429.09 -0.598116 1.93779 0
M  V30 15101 C 1429.42 -1.69258 0.952131 0
M  V30 15102 O 1428.7 -1.94491 -0.0186426 0
M  V30 15103 C 1428.98 -1.17499 3.40391 0
M  V30 15104 C 1428.83 -0.0871719 4.49716 0
M  V30 15105 C 1430.15 -2.08047 3.8782 0
M  V30 15106 H 1427.27 -0.215954 0.704651 0
M  V30 15107 H 1429.91 0.137854 1.89499 0
M  V30 15108 H 1428.06 -1.80221 3.44169 0
M  V30 15109 H 1429.74 0.545906 4.58058 0
M  V30 15110 H 1427.98 0.582213 4.29875 0
M  V30 15111 H 1428.65 -0.531202 5.49438 0
M  V30 15112 H 1431.13 -1.5526 3.86049 0
M  V30 15113 H 1430 -2.45345 4.91016 0
M  V30 15114 H 1430.26 -2.98879 3.25766 0
M  V30 15115 N 1429.32 -1.56304 -0.201686 0
M  V30 15116 C 1430.27 -1.90422 -1.25393 0
M  V30 15117 C 1431.26 -0.769236 -1.41321 0
M  V30 15118 O 1432.45 -1.03199 -1.43802 0
M  V30 15119 C 1429.58 -2.24157 -2.60016 0
M  V30 15120 C 1428.66 -3.44097 -2.47908 0
M  V30 15121 N 1429.05 -4.62185 -2.05471 0
M  V30 15122 C 1427.35 -3.48105 -2.78817 0
M  V30 15123 C 1428.05 -5.44345 -2.05095 0
M  V30 15124 N 1427.03 -4.84576 -2.46346 0
M  V30 15125 H 1430.83 -2.79227 -0.917045 0
M  V30 15126 H 1428.35 -1.57135 -0.410157 0
M  V30 15127 H 1430.34 -2.46782 -3.36012 0
M  V30 15128 H 1429 -1.36676 -2.94533 0
M  V30 15129 H 1430.01 -4.86974 -1.76285 0
M  V30 15130 H 1426.69 -2.71022 -3.17574 0
M  V30 15131 H 1428.08 -6.48914 -1.74242 0
M  V30 15132 N 1430.8 0.469154 -1.50455 0
M  V30 15133 C 1431.76 1.5493 -1.68906 0
M  V30 15134 C 1432.76 1.50744 -0.559721 0
M  V30 15135 O 1433.95 1.5333 -0.826781 0
M  V30 15136 C 1431.09 2.94556 -1.71609 0
M  V30 15137 H 1432.28 1.39887 -2.65276 0
M  V30 15138 H 1429.83 0.695667 -1.39965 0
M  V30 15139 H 1430.57 3.15041 -0.769382 0
M  V30 15140 H 1430.35 2.99002 -2.53654 0
M  V30 15141 H 1431.84 3.72973 -1.87831 0
M  V30 15142 N 1432.28 1.40065 0.722464 0
M  V30 15143 C 1433.56 1.28473 1.47493 0
M  V30 15144 C 1433.94 -0.100058 2.10863 0
M  V30 15145 O 1433.28 -1.11232 1.99599 0
M  V30 15146 C 1433.49 2.41842 2.51621 0
M  V30 15147 C 1434.84 2.81753 3.17648 0
M  V30 15148 O 1435.87 2.41385 2.61939 0
M  V30 15149 O 1434.72 3.51473 4.18484 0
M  V30 15150 H 1431.82 0.504158 0.655556 0
M  V30 15151 H 1434.36 1.51969 0.755223 0
M  V30 15152 H 1433.14 3.34365 2.03263 0
M  V30 15153 H 1432.76 2.20079 3.31136 0
M  V30 15154 N 1433.76 -0.95397 1.25448 0
M  V30 15155 C 1434.69 -2.05019 1.00212 0
M  V30 15156 C 1435.67 -1.62454 -0.0688563 0
M  V30 15157 O 1436.85 -1.88366 0.0709352 0
M  V30 15158 C 1433.98 -3.34762 0.514987 0
M  V30 15159 C 1433.03 -3.9629 1.57659 0
M  V30 15160 S 1433.86 -4.32181 3.16196 0
M  V30 15161 C 1435.01 -5.65041 2.6922 0
M  V30 15162 H 1435.25 -2.26111 1.93032 0
M  V30 15163 H 1432.78 -1.09369 1.08985 0
M  V30 15164 H 1434.74 -4.09794 0.24058 0
M  V30 15165 H 1433.4 -3.11635 -0.392724 0
M  V30 15166 H 1432.59 -4.89836 1.18647 0
M  V30 15167 H 1432.19 -3.27741 1.80171 0
M  V30 15168 H 1434.49 -6.43184 2.12887 0
M  V30 15169 H 1435.43 -6.08925 3.61408 0
M  V30 15170 H 1435.84 -5.24306 2.09196 0
M  V30 15171 N 1435.24 -1.07045 -1.15668 0
M  V30 15172 C 1436.48 -0.790172 -1.86013 0
M  V30 15173 C 1436.8 0.685663 -1.82548 0
M  V30 15174 O 1436.07 1.49644 -1.26426 0
M  V30 15175 H 1434.65 -0.28931 -0.688701 0
M  V30 15176 H 1437.32 -1.35354 -1.40233 0
M  V30 15177 H 1436.41 -1.1219 -2.91239 0
M  V30 15178 N 1436.71 1.32449 -0.85411 0
M  V30 15179 C 1437.94 2.01171 -0.470505 0
M  V30 15180 C 1438.35 1.64356 0.937218 0
M  V30 15181 O 1437.69 0.860565 1.62296 0
M  V30 15182 C 1437.76 3.55583 -0.529241 0
M  V30 15183 C 1437.42 4.15824 -1.89576 0
M  V30 15184 C 1438.42 4.34091 -2.86114 0
M  V30 15185 C 1436.1 4.51911 -2.19276 0
M  V30 15186 C 1438.1 4.87612 -4.10504 0
M  V30 15187 C 1435.78 5.05137 -3.43919 0
M  V30 15188 C 1436.78 5.22936 -4.39349 0
M  V30 15189 O 1436.47 5.75024 -5.61785 0
M  V30 15190 H 1436.2 0.650645 -0.183405 0
M  V30 15191 H 1438.76 1.70015 -1.15257 0
M  V30 15192 H 1436.99 3.86131 0.209671 0
M  V30 15193 H 1438.67 4.05579 -0.161315 0
M  V30 15194 H 1439.44 4.06545 -2.64473 0
M  V30 15195 H 1435.32 4.37343 -1.45782 0
M  V30 15196 H 1438.86 5.0142 -4.84999 0
M  V30 15197 H 1434.76 5.32114 -3.6541 0
M  V30 15198 H 1435.53 5.93418 -5.63736 0
M  V30 15199 N 1438.19 0.611994 1.45232 0
M  V30 15200 C 1439.44 0.117519 2.0306 0
M  V30 15201 C 1439.79 -1.23976 1.47132 0
M  V30 15202 O 1439.09 -1.80657 0.638249 0
M  V30 15203 C 1439.28 0.0243361 3.57392 0
M  V30 15204 C 1439.11 1.37103 4.28291 0
M  V30 15205 C 1437.88 1.95287 4.66038 0
M  V30 15206 C 1440.08 2.30076 4.59967 0
M  V30 15207 N 1438.06 3.23391 5.21816 0
M  V30 15208 C 1439.43 3.42782 5.16624 0
M  V30 15209 C 1441.48 2.29394 4.41908 0
M  V30 15210 C 1440.19 4.54975 5.57126 0
M  V30 15211 C 1442.21 3.40638 4.83446 0
M  V30 15212 C 1441.58 4.52066 5.402 0
M  V30 15213 H 1437.67 0.0864756 0.777204 0
M  V30 15214 H 1440.26 0.81131 1.76991 0
M  V30 15215 H 1438.43 -0.638687 3.83113 0
M  V30 15216 H 1440.16 -0.477205 4.01877 0
M  V30 15217 H 1436.92 1.48443 4.49735 0
M  V30 15218 H 1437.34 3.88835 5.54199 0
M  V30 15219 H 1441.98 1.44504 3.97339 0
M  V30 15220 H 1439.7 5.40587 6.00659 0
M  V30 15221 H 1443.29 3.41263 4.71202 0
M  V30 15222 H 1442.17 5.36723 5.7175 0
M  V30 15223 N 1439.67 -1.53632 0.351409 0
M  V30 15224 C 1440.92 -2.00222 -0.243731 0
M  V30 15225 C 1441.23 -1.24305 -1.51022 0
M  V30 15226 O 1442.44 -1.61411 -2.18309 0
M  V30 15227 C 1440.89 -3.56619 -0.48487 0
M  V30 15228 C 1440.5 -4.414 0.766173 0
M  V30 15229 C 1442.25 -4.11603 -1.03844 0
M  V30 15230 C 1440.15 -5.89321 0.4954 0
M  V30 15231 H 1439.08 -0.74801 -0.0948534 0
M  V30 15232 H 1441.73 -1.77433 0.467957 0
M  V30 15233 H 1440.12 -3.75505 -1.25746 0
M  V30 15234 H 1441.29 -4.34288 1.54047 0
M  V30 15235 H 1439.6 -3.97448 1.24194 0
M  V30 15236 H 1442.2 -5.19736 -1.25611 0
M  V30 15237 H 1442.54 -3.65311 -1.99634 0
M  V30 15238 H 1443.08 -3.96459 -0.326363 0
M  V30 15239 H 1439.82 -6.39863 1.42324 0
M  V30 15240 H 1439.34 -5.99317 -0.240662 0
M  V30 15241 H 1441.02 -6.46897 0.115584 0
M  V30 15242 N 1441.15 -0.0802183 -1.57396 0
M  V30 15243 C 1442.06 0.898597 -2.16708 0
M  V30 15244 C 1443.07 1.321 -1.1325 0
M  V30 15245 O 1444.25 1.39197 -1.45554 0
M  V30 15246 C 1441.31 2.14501 -2.72379 0
M  V30 15247 C 1440.38 1.77822 -3.9074 0
M  V30 15248 C 1439.61 2.96521 -4.43747 0
M  V30 15249 O 1439.83 4.10797 -3.9573 0
M  V30 15250 O 1438.77 2.75849 -5.34968 0
M  V30 15251 H 1442.59 0.424027 -3.00725 0
M  V30 15252 H 1440.18 0.14332 -1.48711 0
M  V30 15253 H 1442.06 2.87575 -3.08024 0
M  V30 15254 H 1440.73 2.61039 -1.91416 0
M  V30 15255 H 1439.64 1.01974 -3.59934 0
M  V30 15256 H 1440.97 1.36059 -4.73021 0
M  V30 15257 N 1442.63 1.56409 0.193394 0
M  V30 15258 C 1443.85 1.8519 0.933775 0
M  V30 15259 C 1444.28 0.663991 1.75991 0
M  V30 15260 O 1443.63 -0.387198 1.77117 0
M  V30 15261 C 1443.68 3.12212 1.80432 0
M  V30 15262 O 1442.79 2.92884 2.90332 0
M  V30 15263 H 1442.13 0.609754 0.262862 0
M  V30 15264 H 1444.66 2.03638 0.198195 0
M  V30 15265 H 1444.67 3.4305 2.20864 0
M  V30 15266 H 1443.34 3.98292 1.19733 0
M  V30 15267 H 1441.92 2.73349 2.53643 0
M  V30 15268 N 1444.1 -0.461169 1.50702 0
M  V30 15269 C 1445.04 -1.57562 1.66453 0
M  V30 15270 C 1446.05 -1.53381 0.545726 0
M  V30 15271 O 1447.24 -1.58589 0.819254 0
M  V30 15272 C 1444.34 -2.9646 1.64209 0
M  V30 15273 C 1443.51 -3.25405 2.92285 0
M  V30 15274 C 1442.57 -4.43906 2.82549 0
M  V30 15275 O 1441.6 -4.43726 3.56505 0
M  V30 15276 N 1442.8 -5.46131 1.96777 0
M  V30 15277 H 1445.56 -1.44463 2.62584 0
M  V30 15278 H 1443.12 -0.649749 1.4829 0
M  V30 15279 H 1445.12 -3.73719 1.55295 0
M  V30 15280 H 1443.69 -3.03278 0.757718 0
M  V30 15281 H 1442.91 -2.36666 3.1525 0
M  V30 15282 H 1444.19 -3.41559 3.77114 0
M  V30 15283 H 1443.59 -5.49103 1.36023 0
M  V30 15284 H 1442.15 -6.22335 1.9376 0
M  V30 15285 N 1445.58 -1.40446 -0.715026 0
M  V30 15286 C 1446.53 -1.40756 -1.82911 0
M  V30 15287 C 1447.5 -0.264443 -1.63981 0
M  V30 15288 O 1448.68 -0.462589 -1.85107 0
M  V30 15289 C 1445.82 -1.27648 -3.20624 0
M  V30 15290 C 1444.94 -2.5167 -3.51121 0
M  V30 15291 C 1444.07 -2.31 -4.78344 0
M  V30 15292 C 1443.11 -3.50596 -5.01746 0
M  V30 15293 N 1442.25 -3.29117 -6.20183 0
M  V30 15294 H 1447.09 -2.35981 -1.8198 0
M  V30 15295 H 1444.62 -1.17201 -0.888951 0
M  V30 15296 H 1446.58 -1.18054 -4.00149 0
M  V30 15297 H 1445.21 -0.360419 -3.20782 0
M  V30 15298 H 1444.26 -2.7179 -2.66147 0
M  V30 15299 H 1445.58 -3.4069 -3.64324 0
M  V30 15300 H 1444.73 -2.18763 -5.65887 0
M  V30 15301 H 1443.47 -1.39406 -4.67351 0
M  V30 15302 H 1442.47 -3.63309 -4.12658 0
M  V30 15303 H 1443.7 -4.43117 -5.14611 0
M  V30 15304 H 1441.65 -2.40206 -6.1044 0
M  V30 15305 H 1441.56 -4.11702 -6.34064 0
M  V30 15306 H 1442.83 -3.20614 -7.10512 0
M  V30 15307 N 1447.06 0.947303 -1.25952 0
M  V30 15308 C 1448.01 2.06642 -1.06779 0
M  V30 15309 C 1449 1.694 0.00348362 0
M  V30 15310 O 1450.21 1.79351 -0.152715 0
M  V30 15311 H 1446.58 0.676499 -0.32841 0
M  V30 15312 H 1448.55 2.19968 -2.01635 0
M  V30 15313 C 1447.3 3.40353 -0.711015 0
M  V30 15314 H 1446.63 3.69483 -1.52718 0
M  V30 15315 H 1448.07 4.19493 -0.616606 0
M  V30 15316 C 1446.52 3.3181 0.58344 0
M  V30 15317 O 1447.05 3.67431 1.6235 0
M  V30 15318 N 1445.26 2.84919 0.571797 0
M  V30 15319 H 1444.81 2.56128 -0.274962 0
M  V30 15320 H 1444.77 2.79586 1.43803 0
M  V30 15321 N 1448.54 1.07657 1.15099 0
M  V30 15322 C 1449.79 0.800025 1.85591 0
M  V30 15323 C 1450.11 -0.675973 1.82909 0
M  V30 15324 O 1449.38 -1.48971 1.27218 0
M  V30 15325 H 1447.96 0.292958 0.687157 0
M  V30 15326 H 1450.62 1.36096 1.39513 0
M  V30 15327 H 1449.72 1.13733 2.90639 0
M  V30 15328 N 1450.02 -1.31994 0.861122 0
M  V30 15329 C 1451.24 -2.01745 0.481013 0
M  V30 15330 C 1451.67 -1.6426 -0.916527 0
M  V30 15331 O 1451.02 -0.846603 -1.60319 0
M  V30 15332 C 1451.07 -3.54963 0.635134 0
M  V30 15333 O 1450.18 -4.11083 -0.329337 0
M  V30 15334 H 1449.52 -0.635499 0.192452 0
M  V30 15335 H 1452.05 -1.68394 1.1621 0
M  V30 15336 H 1452.06 -4.04607 0.525089 0
M  V30 15337 H 1450.73 -3.81587 1.65422 0
M  V30 15338 H 1449.31 -3.72489 -0.174989 0
M  V30 15339 N 1451.49 -0.619688 -1.44906 0
M  V30 15340 C 1452.74 -0.128286 -2.02995 0
M  V30 15341 C 1453.1 1.23194 -1.47787 0
M  V30 15342 O 1452.39 1.80316 -0.64782 0
M  V30 15343 C 1452.58 -0.0432891 -3.57374 0
M  V30 15344 C 1452.41 -1.39373 -4.27557 0
M  V30 15345 C 1451.18 -1.97756 -4.64995 0
M  V30 15346 C 1453.38 -2.32512 -4.5874 0
M  V30 15347 N 1451.36 -3.26154 -5.20093 0
M  V30 15348 C 1452.73 -3.45517 -5.14799 0
M  V30 15349 C 1454.79 -2.31734 -4.40685 0
M  V30 15350 C 1453.49 -4.57924 -5.54706 0
M  V30 15351 C 1455.52 -3.43197 -4.81632 0
M  V30 15352 C 1454.88 -4.54924 -5.37795 0
M  V30 15353 H 1450.98 -0.0905961 -0.776734 0
M  V30 15354 H 1453.56 -0.820685 -1.76558 0
M  V30 15355 H 1451.73 0.61836 -3.83446 0
M  V30 15356 H 1453.46 0.455886 -4.02124 0
M  V30 15357 H 1450.22 -1.50826 -4.48941 0
M  V30 15358 H 1450.64 -3.91768 -5.52129 0
M  V30 15359 H 1455.29 -1.46609 -3.96567 0
M  V30 15360 H 1453 -5.43765 -5.97784 0
M  V30 15361 H 1456.59 -3.43757 -4.69385 0
M  V30 15362 H 1455.47 -5.39748 -5.68896 0
M  V30 15363 N 1452.97 1.53444 -0.359552 0
M  V30 15364 C 1453.92 2.25544 0.48977 0
M  V30 15365 C 1454.89 1.25982 1.08248 0
M  V30 15366 O 1456.07 1.54751 1.1161 0
M  V30 15367 C 1453.21 3.04358 1.62666 0
M  V30 15368 C 1452.33 4.18801 1.0597 0
M  V30 15369 C 1451.46 4.85069 2.1652 0
M  V30 15370 C 1450.5 5.91554 1.57259 0
M  V30 15371 N 1449.64 6.51537 2.61617 0
M  V30 15372 H 1454.48 2.97709 -0.13158 0
M  V30 15373 H 1452.02 1.469 -0.0767056 0
M  V30 15374 H 1453.97 3.48324 2.29623 0
M  V30 15375 H 1452.6 2.34459 2.21876 0
M  V30 15376 H 1451.66 3.79364 0.280599 0
M  V30 15377 H 1452.97 4.95341 0.586383 0
M  V30 15378 H 1452.12 5.32187 2.9131 0
M  V30 15379 H 1450.86 4.07988 2.67202 0
M  V30 15380 H 1449.87 5.43803 0.809818 0
M  V30 15381 H 1451.09 6.70552 1.07409 0
M  V30 15382 H 1449.04 5.77312 3.11523 0
M  V30 15383 H 1448.95 7.23599 2.18954 0
M  V30 15384 H 1450.22 7.03306 3.36127 0
M  V30 15385 N 1454.45 0.0885642 1.57351 0
M  V30 15386 C 1455.38 -0.869946 2.16689 0
M  V30 15387 C 1456.36 -1.29878 1.09844 0
M  V30 15388 O 1457.55 -1.36684 1.37954 0
M  V30 15389 C 1454.68 -2.13148 2.74199 0
M  V30 15390 C 1453.63 -1.84149 3.86359 0
M  V30 15391 C 1452.96 -3.17075 4.30543 0
M  V30 15392 C 1454.26 -1.13357 5.09851 0
M  V30 15393 H 1455.95 -0.375578 2.97035 0
M  V30 15394 H 1453.5 -0.17921 1.42881 0
M  V30 15395 H 1455.45 -2.80634 3.14361 0
M  V30 15396 H 1454.17 -2.64856 1.91098 0
M  V30 15397 H 1452.83 -1.19063 3.46727 0
M  V30 15398 H 1452.48 -3.66658 3.44342 0
M  V30 15399 H 1452.18 -2.98457 5.06159 0
M  V30 15400 H 1453.7 -3.85731 4.73333 0
M  V30 15401 H 1455.12 -1.70941 5.47222 0
M  V30 15402 H 1453.52 -1.0494 5.90853 0
M  V30 15403 H 1454.59 -0.115273 4.84763 0
M  V30 15404 N 1455.93 -1.56509 -0.185096 0
M  V30 15405 C 1456.84 -1.98552 -1.24958 0
M  V30 15406 C 1457.85 -0.894713 -1.49234 0
M  V30 15407 O 1459.03 -1.20126 -1.61653 0
M  V30 15408 C 1456.1 -2.32513 -2.57175 0
M  V30 15409 C 1455.16 -3.55351 -2.40882 0
M  V30 15410 C 1454.39 -3.87683 -3.66794 0
M  V30 15411 O 1454.61 -3.21167 -4.7139 0
M  V30 15412 O 1453.55 -4.8108 -3.61726 0
M  V30 15413 H 1457.37 -2.89342 -0.922756 0
M  V30 15414 H 1454.96 -1.44196 -0.390887 0
M  V30 15415 H 1456.84 -2.55387 -3.35195 0
M  V30 15416 H 1455.51 -1.44888 -2.89464 0
M  V30 15417 H 1454.42 -3.37712 -1.60939 0
M  V30 15418 H 1455.75 -4.43474 -2.13522 0
M  V30 15419 N 1457.41 0.45317 -1.50944 0
M  V30 15420 C 1458.35 1.54885 -1.71112 0
M  V30 15421 C 1459.32 1.56639 -0.552566 0
M  V30 15422 O 1460.51 1.73894 -0.785203 0
M  V30 15423 C 1457.65 2.92729 -1.82766 0
M  V30 15424 C 1456.76 3.00626 -3.10239 0
M  V30 15425 C 1455.9 4.29495 -3.12582 0
M  V30 15426 C 1454.94 4.312 -4.34434 0
M  V30 15427 N 1454.07 5.51568 -4.34415 0
M  V30 15428 H 1458.91 1.36992 -2.64645 0
M  V30 15429 H 1456.45 0.665753 -1.31172 0
M  V30 15430 H 1458.41 3.7269 -1.87505 0
M  V30 15431 H 1457.04 3.09216 -0.926561 0
M  V30 15432 H 1456.09 2.13426 -3.14886 0
M  V30 15433 H 1457.4 2.97746 -4.00186 0
M  V30 15434 H 1456.56 5.17817 -3.16149 0
M  V30 15435 H 1455.29 4.35009 -2.20496 0
M  V30 15436 H 1454.3 3.41272 -4.3106 0
M  V30 15437 H 1455.52 4.27363 -5.27767 0
M  V30 15438 H 1453.47 5.57834 -3.45192 0
M  V30 15439 H 1453.39 5.50504 -5.18152 0
M  V30 15440 H 1454.66 6.41966 -4.42153 0
M  V30 15441 N 1458.88 1.40823 0.707568 0
M  V30 15442 C 1459.85 1.41464 1.80334 0
M  V30 15443 C 1460.85 0.307143 1.57839 0
M  V30 15444 O 1462.04 0.566444 1.64733 0
M  V30 15445 C 1459.17 1.21426 3.18541 0
M  V30 15446 H 1460.36 2.38998 1.81162 0
M  V30 15447 H 1457.92 1.2679 0.914007 0
M  V30 15448 H 1458.65 0.246847 3.23359 0
M  V30 15449 H 1458.44 2.01657 3.36269 0
M  V30 15450 H 1459.93 1.24681 3.98553 0
M  V30 15451 N 1460.36 -0.94061 1.26453 0
M  V30 15452 C 1461.59 -1.72654 1.14914 0
M  V30 15453 C 1462.01 -1.85823 -0.291789 0
M  V30 15454 O 1461.37 -1.34888 -1.2114 0
M  V30 15455 C 1461.42 -3.11083 1.82372 0
M  V30 15456 O 1460.52 -3.971 1.1129 0
M  V30 15457 H 1459.86 -0.529704 0.400387 0
M  V30 15458 H 1462.39 -1.17803 1.67283 0
M  V30 15459 H 1462.4 -3.6147 1.89219 0
M  V30 15460 H 1461.08 -3.00815 2.87199 0
M  V30 15461 H 1459.66 -3.5555 1.12423 0
M  V30 15462 N 1461.84 -1.08266 -1.14527 0
M  V30 15463 C 1462.77 -0.732968 -2.21698 0
M  V30 15464 C 1463.75 0.283917 -1.67714 0
M  V30 15465 O 1464.94 0.154607 -1.93584 0
M  V30 15466 C 1462.07 -0.139935 -3.47018 0
M  V30 15467 C 1461.02 -1.08501 -4.14019 0
M  V30 15468 C 1460.35 -0.354263 -5.33525 0
M  V30 15469 C 1461.65 -2.42254 -4.62721 0
M  V30 15470 H 1463.34 -1.629 -2.51205 0
M  V30 15471 H 1460.89 -0.784696 -1.20742 0
M  V30 15472 H 1462.84 0.1167 -4.21238 0
M  V30 15473 H 1461.56 0.791228 -3.16871 0
M  V30 15474 H 1460.22 -1.32672 -3.41751 0
M  V30 15475 H 1459.87 0.580658 -4.99637 0
M  V30 15476 H 1459.57 -0.984287 -5.79297 0
M  V30 15477 H 1461.09 -0.105648 -6.10509 0
M  V30 15478 H 1462.51 -2.22357 -5.28422 0
M  V30 15479 H 1460.91 -3.00935 -5.1919 0
M  V30 15480 H 1461.98 -3.03884 -3.77866 0
M  V30 15481 N 1463.32 1.31536 -0.86811 0
M  V30 15482 C 1464.57 1.96045 -0.474271 0
M  V30 15483 C 1464.88 1.6939 0.978071 0
M  V30 15484 O 1466.09 2.27746 1.47797 0
M  V30 15485 C 1464.54 3.5096 -0.797203 0
M  V30 15486 C 1464.15 3.86456 -2.26618 0
M  V30 15487 C 1465.9 4.21871 -0.471745 0
M  V30 15488 C 1463.8 5.34474 -2.53162 0
M  V30 15489 H 1462.73 0.733737 -0.173627 0
M  V30 15490 H 1465.38 1.49734 -1.06076 0
M  V30 15491 H 1463.77 3.95752 -0.139994 0
M  V30 15492 H 1464.94 3.52629 -2.9663 0
M  V30 15493 H 1463.25 3.28605 -2.55749 0
M  V30 15494 H 1465.85 5.30767 -0.647317 0
M  V30 15495 H 1466.19 4.12131 0.58768 0
M  V30 15496 H 1466.73 3.82706 -1.08542 0
M  V30 15497 H 1463.47 5.49248 -3.57781 0
M  V30 15498 H 1462.99 5.6966 -1.87743 0
M  V30 15499 H 1464.67 6.01716 -2.37797 0
M  V30 15500 N 1464.8 0.627364 1.44575 0
M  V30 15501 C 1465.71 -0.0811184 2.3446 0
M  V30 15502 C 1466.72 -0.839668 1.52399 0
M  V30 15503 O 1467.9 -0.792784 1.8514 0
M  V30 15504 C 1464.96 -1.05296 3.30323 0
M  V30 15505 C 1464.03 -0.294201 4.28291 0
M  V30 15506 C 1463.26 -1.21975 5.19575 0
M  V30 15507 O 1463.48 -2.45834 5.14706 0
M  V30 15508 O 1462.42 -0.70611 5.97744 0
M  V30 15509 H 1466.24 0.658067 2.96485 0
M  V30 15510 H 1463.83 0.387565 1.44285 0
M  V30 15511 H 1465.71 -1.61218 3.89341 0
M  V30 15512 H 1464.38 -1.77283 2.70837 0
M  V30 15513 H 1463.29 0.307969 3.7283 0
M  V30 15514 H 1464.62 0.385567 4.90687 0
M  V30 15515 N 1466.28 -1.53251 0.367684 0
M  V30 15516 C 1467.52 -2.01585 -0.221679 0
M  V30 15517 C 1467.85 -1.25444 -1.48248 0
M  V30 15518 O 1467.13 -0.348726 -1.91348 0
M  V30 15519 C 1467.41 -3.56449 -0.511507 0
M  V30 15520 C 1467.27 -4.4328 0.763075 0
M  V30 15521 C 1468.58 -4.20113 -1.31121 0
M  V30 15522 H 1465.7 -0.732743 -0.0790954 0
M  V30 15523 H 1468.35 -1.83493 0.492991 0
M  V30 15524 H 1466.5 -3.71996 -1.12033 0
M  V30 15525 H 1468.17 -4.39526 1.40052 0
M  V30 15526 H 1466.41 -4.11164 1.38299 0
M  V30 15527 H 1467.08 -5.4959 0.515215 0
M  V30 15528 H 1469.56 -4.08412 -0.796169 0
M  V30 15529 H 1468.43 -5.28494 -1.48274 0
M  V30 15530 H 1468.69 -3.76316 -2.32032 0
M  V30 15531 N 1467.75 -0.0969077 -1.57302 0
M  V30 15532 C 1468.7 0.861379 -2.14124 0
M  V30 15533 C 1469.67 1.27858 -1.06026 0
M  V30 15534 O 1470.86 1.36001 -1.33822 0
M  V30 15535 C 1468 2.11443 -2.72738 0
M  V30 15536 C 1467.11 1.7476 -3.95074 0
M  V30 15537 C 1466.24 2.94864 -4.41847 0
M  V30 15538 C 1465.28 2.54316 -5.56767 0
M  V30 15539 N 1464.42 3.67261 -5.98384 0
M  V30 15540 H 1469.26 0.369968 -2.95694 0
M  V30 15541 H 1466.8 0.170943 -1.46103 0
M  V30 15542 H 1468.75 2.84829 -3.04842 0
M  V30 15543 H 1467.38 2.5808 -1.93893 0
M  V30 15544 H 1466.44 0.91335 -3.69272 0
M  V30 15545 H 1467.75 1.40946 -4.78472 0
M  V30 15546 H 1466.9 3.76501 -4.75744 0
M  V30 15547 H 1465.64 3.31889 -3.57352 0
M  V30 15548 H 1464.65 1.71106 -5.22497 0
M  V30 15549 H 1465.87 2.18432 -6.43012 0
M  V30 15550 H 1463.82 4.04001 -5.16836 0
M  V30 15551 H 1463.73 3.37298 -6.76584 0
M  V30 15552 H 1465 4.49403 -6.36912 0
M  V30 15553 N 1469.23 1.56605 0.176793 0
M  V30 15554 C 1470.46 1.85812 0.910019 0
M  V30 15555 C 1470.87 0.68164 1.76066 0
M  V30 15556 O 1470.23 -0.34936 1.79125 0
M  V30 15557 C 1470.28 3.14001 1.79125 0
M  V30 15558 O 1470 4.27114 0.974931 0
M  V30 15559 C 1471.5 3.56516 2.6346 0
M  V30 15560 H 1468.72 0.616608 0.264643 0
M  V30 15561 H 1471.27 2.03719 0.178537 0
M  V30 15562 H 1469.42 2.97937 2.47613 0
M  V30 15563 H 1469.84 5.00227 1.57711 0
M  V30 15564 H 1471.31 4.49128 3.20918 0
M  V30 15565 H 1471.79 2.80373 3.38065 0
M  V30 15566 H 1472.39 3.75173 2.00313 0
M  V30 15567 N 1470.71 -0.445159 1.51182 0
M  V30 15568 C 1471.95 -1.2048 1.65118 0
M  V30 15569 C 1472.31 -1.88673 0.35589 0
M  V30 15570 O 1473.51 -2.66228 0.370932 0
M  V30 15571 C 1471.79 -2.20075 2.81606 0
M  V30 15572 S 1473.34 -3.04631 3.15825 0
M  V30 15573 H 1470.16 -0.408682 0.581807 0
M  V30 15574 H 1472.76 -0.497601 1.89061 0
M  V30 15575 H 1471.47 -1.68603 3.74167 0
M  V30 15576 H 1471 -2.95387 2.59827 0
M  V30 15577 H 1473.01 -4.21606 2.61654 0
M  V30 15578 N 1472.19 -1.41197 -0.700089 0
M  V30 15579 C 1473.42 -1.43658 -1.48896 0
M  V30 15580 C 1473.83 -0.0405771 -1.88756 0
M  V30 15581 O 1473.19 0.93909 -1.56484 0
M  V30 15582 C 1473.24 -2.34125 -2.75441 0
M  V30 15583 O 1472.96 -3.68291 -2.37261 0
M  V30 15584 C 1474.46 -2.45342 -3.69218 0
M  V30 15585 H 1471.68 -0.48945 -0.458999 0
M  V30 15586 H 1474.22 -1.85429 -0.862345 0
M  V30 15587 H 1472.38 -1.95674 -3.34351 0
M  V30 15588 H 1472.79 -4.16495 -3.18798 0
M  V30 15589 H 1474.27 -3.12818 -4.54807 0
M  V30 15590 H 1474.74 -1.48327 -4.13395 0
M  V30 15591 H 1475.35 -2.84409 -3.16214 0
M  V30 15592 N 1473.67 0.933891 -1.2695 0
M  V30 15593 C 1474.91 1.68383 -1.141 0
M  V30 15594 C 1475.27 1.89867 0.311181 0
M  V30 15595 O 1474.56 1.47349 1.2247 0
M  V30 15596 C 1474.75 3.05706 -1.85145 0
M  V30 15597 C 1474.58 2.97621 -3.37123 0
M  V30 15598 C 1473.35 3.00239 -4.06429 0
M  V30 15599 C 1475.55 2.77206 -4.33199 0
M  V30 15600 N 1473.53 2.82531 -5.45023 0
M  V30 15601 C 1474.9 2.6814 -5.59018 0
M  V30 15602 C 1476.96 2.62046 -4.23363 0
M  V30 15603 C 1475.66 2.45461 -6.76122 0
M  V30 15604 C 1477.69 2.40742 -5.40182 0
M  V30 15605 C 1477.05 2.32414 -6.64953 0
M  V30 15606 H 1473.15 0.623223 -0.472353 0
M  V30 15607 H 1475.73 1.10457 -1.60335 0
M  V30 15608 H 1473.9 3.61757 -1.41374 0
M  V30 15609 H 1475.64 3.69601 -1.64854 0
M  V30 15610 H 1472.39 3.10231 -3.57846 0
M  V30 15611 H 1472.81 2.76824 -6.17817 0
M  V30 15612 H 1477.46 2.67247 -3.27626 0
M  V30 15613 H 1475.17 2.39 -7.71949 0
M  V30 15614 H 1478.76 2.29906 -5.34448 0
M  V30 15615 H 1477.64 2.1615 -7.53823 0
M  V30 15616 N 1475.14 1.08871 1.13951 0
M  V30 15617 C 1476.55 0.841552 1.66658 0
M  V30 15618 C 1476.91 -0.630932 1.85779 0
M  V30 15619 O 1476.03 -1.48673 1.57243 0
M  V30 15620 C 1476.63 1.52109 3.02735 0
M  V30 15621 C 1475.18 1.32105 3.52456 0
M  V30 15622 C 1474.33 1.58084 2.27826 0
M  V30 15623 H 1477.28 1.24865 0.97951 0
M  V30 15624 H 1477.3 0.950978 3.68425 0
M  V30 15625 H 1476.82 2.59276 2.88786 0
M  V30 15626 H 1474.92 0.270294 3.71618 0
M  V30 15627 H 1475.03 2.05197 4.32933 0
M  V30 15628 H 1473.39 1.00264 2.34135 0
M  V30 15629 H 1474.18 2.66467 2.16449 0
M  V30 15630 N 1476.62 -1.31073 0.875073 0
M  V30 15631 C 1477.57 -2.28389 0.332718 0
M  V30 15632 C 1478.54 -1.55954 -0.571639 0
M  V30 15633 O 1479.72 -1.84073 -0.502185 0
M  V30 15634 C 1476.86 -3.42083 -0.455364 0
M  V30 15635 C 1475.98 -4.29358 0.477088 0
M  V30 15636 C 1475.11 -5.30201 -0.325619 0
M  V30 15637 C 1474.15 -6.09123 0.602935 0
M  V30 15638 N 1473.29 -7.01909 -0.163836 0
M  V30 15639 H 1478.13 -2.74166 1.16777 0
M  V30 15640 H 1475.66 -1.3487 0.587248 0
M  V30 15641 H 1477.62 -4.06746 -0.928104 0
M  V30 15642 H 1476.25 -2.97402 -1.25507 0
M  V30 15643 H 1475.3 -3.65091 1.06829 0
M  V30 15644 H 1476.62 -4.84425 1.18887 0
M  V30 15645 H 1475.77 -6.00565 -0.860647 0
M  V30 15646 H 1474.51 -4.75802 -1.07067 0
M  V30 15647 H 1473.51 -5.37645 1.14968 0
M  V30 15648 H 1474.74 -6.65609 1.34692 0
M  V30 15649 H 1472.69 -6.49913 -0.891604 0
M  V30 15650 H 1472.6 -7.5442 0.48851 0
M  V30 15651 H 1473.87 -7.76529 -0.679929 0
M  V30 15652 N 1478.1 -0.635022 -1.4424 0
M  V30 15653 C 1479.33 -0.146549 -2.06882 0
M  V30 15654 C 1479.75 1.17143 -1.4717 0
M  V30 15655 O 1479.11 1.71952 -0.574636 0
M  V30 15656 C 1479.16 -0.0494694 -3.60566 0
M  V30 15657 O 1478.26 0.993423 -4.00256 0
M  V30 15658 H 1477.6 -0.0865505 -0.658335 0
M  V30 15659 H 1480.13 -0.872803 -1.85049 0
M  V30 15660 H 1480.14 0.139839 -4.0776 0
M  V30 15661 H 1478.82 -1.01169 -4.03407 0
M  V30 15662 H 1477.39 0.778372 -3.64686 0
M  V30 15663 N 1479.58 1.53054 -0.375806 0
M  V30 15664 C 1480.53 2.22837 0.482477 0
M  V30 15665 C 1481.51 1.22728 1.04051 0
M  V30 15666 O 1482.7 1.48129 0.968854 0
M  V30 15667 C 1479.83 3.02869 1.61634 0
M  V30 15668 C 1478.92 4.10362 1.07069 0
M  V30 15669 N 1479.31 5.05187 0.248878 0
M  V30 15670 C 1477.61 4.25251 1.34452 0
M  V30 15671 C 1478.31 5.81678 -0.0510458 0
M  V30 15672 N 1477.29 5.40817 0.549318 0
M  V30 15673 H 1481.09 2.93506 -0.1521 0
M  V30 15674 H 1478.6 1.6135 -0.184373 0
M  V30 15675 H 1480.6 3.51387 2.24349 0
M  V30 15676 H 1479.26 2.33732 2.25387 0
M  V30 15677 H 1480.27 5.17777 -0.112766 0
M  V30 15678 H 1476.95 3.67342 1.98408 0
M  V30 15679 H 1478.34 6.68073 -0.716061 0
M  V30 15680 N 1481.06 0.105248 1.57248 0
M  V30 15681 C 1482.28 -0.564157 1.9906 0
M  V30 15682 C 1482.7 -1.61092 0.984624 0
M  V30 15683 O 1482.06 -1.82484 -0.0244031 0
M  V30 15684 C 1482.11 -1.20272 3.40906 0
M  V30 15685 O 1481.83 -0.197815 4.37653 0
M  V30 15686 C 1483.33 -1.95677 3.97776 0
M  V30 15687 H 1480.55 -0.150468 0.653912 0
M  V30 15688 H 1483.09 0.187532 2.03638 0
M  V30 15689 H 1481.25 -1.90528 3.3731 0
M  V30 15690 H 1481.66 -0.659998 5.20331 0
M  V30 15691 H 1483.14 -2.35702 4.99148 0
M  V30 15692 H 1483.61 -2.82661 3.36154 0
M  V30 15693 H 1484.22 -1.30215 4.04876 0
M  V30 15694 N 1482.53 -1.56697 -0.168486 0
M  V30 15695 C 1483.46 -1.99659 -1.21073 0
M  V30 15696 C 1484.45 -0.872625 -1.46011 0
M  V30 15697 O 1485.63 -1.13891 -1.57297 0
M  V30 15698 C 1482.76 -2.35889 -2.54899 0
M  V30 15699 C 1481.71 -3.51272 -2.44524 0
M  V30 15700 C 1481.04 -3.73253 -3.82866 0
M  V30 15701 C 1482.34 -4.84631 -1.94756 0
M  V30 15702 H 1484.03 -2.86974 -0.853593 0
M  V30 15703 H 1481.58 -1.38065 -0.409165 0
M  V30 15704 H 1483.53 -2.64542 -3.28017 0
M  V30 15705 H 1482.26 -1.45486 -2.92406 0
M  V30 15706 H 1480.92 -3.22751 -1.7386 0
M  V30 15707 H 1480.56 -2.80136 -4.17772 0
M  V30 15708 H 1480.26 -4.5089 -3.76792 0
M  V30 15709 H 1481.79 -4.04309 -4.57566 0
M  V30 15710 H 1483.2 -5.12142 -2.5765 0
M  V30 15711 H 1481.6 -5.65925 -1.99623 0
M  V30 15712 H 1482.67 -4.76436 -0.902021 0
M  V30 15713 N 1484.01 0.437135 -1.51416 0
M  V30 15714 C 1485.26 1.18523 -1.653 0
M  V30 15715 C 1485.61 1.88911 -0.364764 0
M  V30 15716 O 1484.91 1.80615 0.63943 0
M  V30 15717 C 1485.1 2.22795 -2.79458 0
M  V30 15718 C 1484.93 1.62642 -4.19259 0
M  V30 15719 C 1483.7 1.41126 -4.85192 0
M  V30 15720 C 1485.9 1.10255 -5.02343 0
M  V30 15721 N 1483.88 0.765717 -6.09106 0
M  V30 15722 C 1485.25 0.582285 -6.1726 0
M  V30 15723 C 1487.31 0.994325 -4.8787 0
M  V30 15724 C 1486.01 -0.0355648 -7.19291 0
M  V30 15725 C 1488.03 0.390369 -5.9011 0
M  V30 15726 C 1487.4 -0.11935 -7.04299 0
M  V30 15727 H 1483.5 0.42137 -0.658765 0
M  V30 15728 H 1486.08 0.4818 -1.88645 0
M  V30 15729 H 1484.25 2.90526 -2.57777 0
M  V30 15730 H 1485.98 2.89765 -2.82521 0
M  V30 15731 H 1482.74 1.67305 -4.43064 0
M  V30 15732 H 1483.16 0.460381 -6.75433 0
M  V30 15733 H 1487.8 1.37428 -3.99842 0
M  V30 15734 H 1485.52 -0.427644 -8.06968 0
M  V30 15735 H 1489.11 0.308533 -5.80981 0
M  V30 15736 H 1487.99 -0.579344 -7.82057 0
M  V30 15737 N 1485.49 1.41566 0.692592 0
M  V30 15738 C 1486.72 1.44646 1.48635 0
M  V30 15739 C 1487.14 0.0541597 1.88022 0
M  V30 15740 O 1486.5 -0.943305 1.54827 0
M  V30 15741 C 1486.55 2.3636 2.72335 0
M  V30 15742 O 1485.65 1.8227 3.69934 0
M  V30 15743 H 1484.99 0.490791 0.447236 0
M  V30 15744 H 1487.52 1.8606 0.851056 0
M  V30 15745 H 1487.53 2.52337 3.20609 0
M  V30 15746 H 1486.21 3.37523 2.43004 0
M  V30 15747 H 1484.78 1.75759 3.28882 0
M  V30 15748 N 1486.97 -0.927146 1.27443 0
M  V30 15749 C 1487.92 -2.04917 1.10053 0
M  V30 15750 C 1488.91 -1.69384 0.0234668 0
M  V30 15751 O 1490.12 -1.79085 0.181228 0
M  V30 15752 H 1486.49 -0.671189 0.33913 0
M  V30 15753 H 1488.46 -2.16732 2.05109 0
M  V30 15754 C 1487.21 -3.39178 0.765072 0
M  V30 15755 H 1486.53 -3.67006 1.58577 0
M  V30 15756 H 1487.97 -4.18458 0.683266 0
M  V30 15757 C 1486.43 -3.32696 -0.530578 0
M  V30 15758 O 1486.96 -3.69967 -1.56484 0
M  V30 15759 N 1485.17 -2.85793 -0.526396 0
M  V30 15760 H 1484.72 -2.55658 0.315675 0
M  V30 15761 H 1484.67 -2.81838 -1.39337 0
M  V30 15762 N 1488.45 -1.09474 -1.13372 0
M  V30 15763 C 1489.69 -0.82945 -1.84295 0
M  V30 15764 C 1490.02 0.646788 -1.83961 0
M  V30 15765 O 1489.29 1.46929 -1.29572 0
M  V30 15766 H 1487.87 -0.303853 -0.682409 0
M  V30 15767 H 1490.53 -1.38298 -1.3733 0
M  V30 15768 H 1489.62 -1.18342 -2.88793 0
M  V30 15769 N 1489.92 1.30607 -0.882012 0
M  V30 15770 C 1491.17 1.96547 -0.499703 0
M  V30 15771 C 1491.5 1.69484 0.948098 0
M  V30 15772 O 1490.78 0.997929 1.66948 0
M  V30 15773 C 1491.06 3.51735 -0.771662 0
M  V30 15774 C 1490.91 3.88326 -2.26987 0
M  V30 15775 C 1492.23 4.39411 -0.246178 0
M  V30 15776 H 1489.35 0.713912 -0.183026 0
M  V30 15777 H 1491.99 1.5453 -1.10546 0
M  V30 15778 H 1490.14 3.87655 -0.256092 0
M  V30 15779 H 1491.82 3.62444 -2.85362 0
M  V30 15780 H 1490.06 3.36501 -2.7377 0
M  V30 15781 H 1490.73 4.96574 -2.41078 0
M  V30 15782 H 1493.21 4.10382 -0.687419 0
M  V30 15783 H 1492.08 5.4692 -0.465817 0
M  V30 15784 H 1492.34 4.33804 0.852452 0
M  V30 15785 N 1491.4 0.642663 1.43901 0
M  V30 15786 C 1492.33 -0.0419756 2.33462 0
M  V30 15787 C 1493.31 -0.822923 1.48869 0
M  V30 15788 O 1494.5 -0.786508 1.7756 0
M  V30 15789 C 1491.63 -1.01631 3.32097 0
M  V30 15790 C 1490.58 -0.346206 4.26597 0
M  V30 15791 C 1489.91 -1.43125 5.15189 0
M  V30 15792 C 1491.21 0.754799 5.16817 0
M  V30 15793 H 1492.9 0.705929 2.90959 0
M  V30 15794 H 1490.45 0.340924 1.39906 0
M  V30 15795 H 1492.4 -1.5041 3.93643 0
M  V30 15796 H 1491.13 -1.79525 2.72834 0
M  V30 15797 H 1489.78 0.121038 3.664 0
M  V30 15798 H 1489.43 -2.20135 4.52271 0
M  V30 15799 H 1489.13 -0.988194 5.79231 0
M  V30 15800 H 1490.66 -1.92061 5.79607 0
M  V30 15801 H 1492.07 0.349624 5.72233 0
M  V30 15802 H 1490.47 1.12169 5.89524 0
M  V30 15803 H 1491.54 1.61718 4.57138 0
M  V30 15804 N 1492.88 -1.52852 0.383918 0
M  V30 15805 C 1493.79 -2.3002 -0.461298 0
M  V30 15806 C 1494.81 -1.36717 -1.07631 0
M  V30 15807 O 1495.98 -1.69784 -1.08329 0
M  V30 15808 C 1493.05 -3.08804 -1.57609 0
M  V30 15809 C 1492.11 -4.17806 -0.986737 0
M  V30 15810 C 1491.34 -4.92825 -2.04841 0
M  V30 15811 O 1491.57 -4.67879 -3.26259 0
M  V30 15812 O 1490.5 -5.78306 -1.66871 0
M  V30 15813 H 1494.33 -3.03239 0.167189 0
M  V30 15814 H 1491.91 -1.48667 0.147781 0
M  V30 15815 H 1493.79 -3.57943 -2.22384 0
M  V30 15816 H 1492.47 -2.38404 -2.18964 0
M  V30 15817 H 1491.37 -3.72876 -0.302396 0
M  V30 15818 H 1492.71 -4.90426 -0.417481 0
M  V30 15819 N 1494.36 -0.113586 -1.5719 0
M  V30 15820 C 1495.58 0.556928 -1.99783 0
M  V30 15821 C 1496.01 1.59774 -0.992669 0
M  V30 15822 O 1495.37 1.81263 0.0363821 0
M  V30 15823 C 1495.42 1.16463 -3.41275 0
M  V30 15824 O 1494.52 2.28024 -3.43626 0
M  V30 15825 H 1493.86 0.139628 -0.649153 0
M  V30 15826 H 1496.39 -0.200462 -2.03616 0
M  V30 15827 H 1496.4 1.50147 -3.79368 0
M  V30 15828 H 1495.08 0.402232 -4.1395 0
M  V30 15829 H 1493.65 1.9582 -3.17347 0
M  V30 15830 N 1495.84 1.56784 0.160173 0
M  V30 15831 C 1497.11 1.73513 0.902908 0
M  V30 15832 C 1497.49 0.678036 1.99915 0
M  V30 15833 O 1496.84 -0.305302 2.26451 0
M  V30 15834 C 1497.05 3.17111 1.45744 0
M  V30 15835 C 1498.4 3.78404 1.92602 0
M  V30 15836 O 1499.42 3.20459 1.55515 0
M  V30 15837 O 1498.28 4.80172 2.60954 0
M  V30 15838 H 1495.38 0.708981 0.425764 0
M  V30 15839 H 1497.92 1.69061 0.147129 0
M  V30 15840 H 1496.7 3.85539 0.668985 0
M  V30 15841 H 1496.32 3.25936 2.2771 0
M  V30 15842 N 1497.32 -0.429099 1.51646 0
M  V30 15843 C 1498.25 -1.54168 1.68249 0
M  V30 15844 C 1499.23 -1.53718 0.530037 0
M  V30 15845 O 1500.41 -1.72723 0.754911 0
M  V30 15846 C 1497.54 -2.92738 1.7036 0
M  V30 15847 C 1496.58 -3.11179 2.91668 0
M  V30 15848 S 1497.42 -2.86603 4.52348 0
M  V30 15849 C 1498.57 -4.2744 4.57216 0
M  V30 15850 H 1498.81 -1.39852 2.62352 0
M  V30 15851 H 1496.34 -0.619348 1.41434 0
M  V30 15852 H 1498.3 -3.72608 1.7226 0
M  V30 15853 H 1496.96 -3.0441 0.774186 0
M  V30 15854 H 1496.15 -4.12512 2.89569 0
M  V30 15855 H 1495.75 -2.39146 2.87551 0
M  V30 15856 H 1498.04 -5.20771 4.33363 0
M  V30 15857 H 1498.99 -4.34569 5.59067 0
M  V30 15858 H 1499.4 -4.11479 3.86452 0
M  V30 15859 N 1498.79 -1.41931 -0.685074 0
M  V30 15860 C 1500.04 -1.41147 -1.44085 0
M  V30 15861 C 1500.36 -0.0275793 -1.95581 0
M  V30 15862 O 1501.56 0.102873 -2.71305 0
M  V30 15863 C 1500.02 -2.4823 -2.60596 0
M  V30 15864 C 1499.63 -3.92576 -2.15842 0
M  V30 15865 C 1501.37 -2.56597 -3.38169 0
M  V30 15866 C 1499.28 -4.91189 -3.29374 0
M  V30 15867 H 1498.21 -0.52494 -0.541252 0
M  V30 15868 H 1500.86 -1.67798 -0.7427 0
M  V30 15869 H 1499.24 -2.14727 -3.32729 0
M  V30 15870 H 1500.41 -4.35381 -1.50929 0
M  V30 15871 H 1498.73 -3.87965 -1.51235 0
M  V30 15872 H 1501.33 -3.27453 -4.22704 0
M  V30 15873 H 1501.67 -1.60618 -3.84067 0
M  V30 15874 H 1502.2 -2.89244 -2.73099 0
M  V30 15875 H 1498.94 -5.88609 -2.88477 0
M  V30 15876 H 1498.46 -4.53024 -3.93102 0
M  V30 15877 H 1500.14 -5.12433 -3.94996 0
M  V30 15878 N 1500.27 0.920374 -1.27933 0
M  V30 15879 C 1501.52 1.66338 -1.14081 0
M  V30 15880 C 1501.83 1.93107 0.311324 0
M  V30 15881 O 1503.04 2.65431 0.570862 0
M  V30 15882 C 1501.5 2.99624 -1.99383 0
M  V30 15883 C 1501.1 2.80527 -3.49297 0
M  V30 15884 C 1502.85 3.77474 -1.94199 0
M  V30 15885 C 1500.75 4.09413 -4.26773 0
M  V30 15886 H 1499.68 0.623935 -0.423346 0
M  V30 15887 H 1502.34 1.0219 -1.52412 0
M  V30 15888 H 1500.72 3.6487 -1.53902 0
M  V30 15889 H 1501.89 2.24002 -4.02691 0
M  V30 15890 H 1500.21 2.16097 -3.55937 0
M  V30 15891 H 1502.8 4.72997 -2.49356 0
M  V30 15892 H 1503.15 4.06069 -0.917249 0
M  V30 15893 H 1503.68 3.19036 -2.37614 0
M  V30 15894 H 1500.42 3.85994 -5.29801 0
M  V30 15895 H 1499.94 4.65574 -3.78155 0
M  V30 15896 H 1501.62 4.77721 -4.36339 0
M  V30 15897 N 1501.75 1.10074 1.1279 0
M  V30 15898 C 1503.16 0.859181 1.65756 0
M  V30 15899 C 1503.51 -0.611193 1.86437 0
M  V30 15900 O 1502.64 -1.46997 1.58811 0
M  V30 15901 C 1503.23 1.55312 3.01104 0
M  V30 15902 C 1501.79 1.35836 3.51035 0
M  V30 15903 C 1500.94 1.60491 2.26137 0
M  V30 15904 H 1503.89 1.25897 0.966211 0
M  V30 15905 H 1503.91 0.990001 3.67395 0
M  V30 15906 H 1503.42 2.62325 2.8602 0
M  V30 15907 H 1501.52 0.309694 3.71311 0
M  V30 15908 H 1501.64 2.09777 4.30732 0
M  V30 15909 H 1500 1.02742 2.33058 0
M  V30 15910 H 1500.78 2.68748 2.1361 0
M  V30 15911 N 1503.23 -1.30138 0.888926 0
M  V30 15912 C 1504.17 -2.28023 0.356923 0
M  V30 15913 C 1505.14 -1.56551 -0.555066 0
M  V30 15914 O 1506.33 -1.84595 -0.482633 0
M  V30 15915 C 1503.47 -3.42546 -0.419056 0
M  V30 15916 C 1502.58 -4.28827 0.5226 0
M  V30 15917 C 1501.72 -5.30517 -0.269366 0
M  V30 15918 C 1500.76 -6.08449 0.667507 0
M  V30 15919 N 1499.89 -7.02043 -0.08938 0
M  V30 15920 H 1504.73 -2.72912 1.19678 0
M  V30 15921 H 1502.27 -1.34239 0.60152 0
M  V30 15922 H 1504.23 -4.07707 -0.884911 0
M  V30 15923 H 1502.86 -2.98716 -1.22346 0
M  V30 15924 H 1501.91 -3.63938 1.10695 0
M  V30 15925 H 1503.22 -4.83136 1.24018 0
M  V30 15926 H 1502.38 -6.01444 -0.796901 0
M  V30 15927 H 1501.12 -4.76911 -1.02014 0
M  V30 15928 H 1500.12 -5.36396 1.20664 0
M  V30 15929 H 1501.35 -6.64143 1.41744 0
M  V30 15930 H 1499.29 -6.50822 -0.822622 0
M  V30 15931 H 1499.21 -7.53859 0.568499 0
M  V30 15932 H 1500.48 -7.77206 -0.597529 0
M  V30 15933 N 1504.71 -0.650285 -1.43559 0
M  V30 15934 C 1505.93 -0.168483 -2.06715 0
M  V30 15935 C 1506.36 1.15576 -1.48404 0
M  V30 15936 O 1505.71 1.71333 -0.592842 0
M  V30 15937 C 1505.76 -0.0877095 -3.60493 0
M  V30 15938 O 1504.87 0.950915 -4.01287 0
M  V30 15939 H 1504.21 -0.0935281 -0.65738 0
M  V30 15940 H 1506.74 -0.892381 -1.84113 0
M  V30 15941 H 1506.75 0.0965825 -4.07886 0
M  V30 15942 H 1505.42 -1.05442 -4.02312 0
M  V30 15943 H 1504 0.739648 -3.65491 0
M  V30 15944 N 1506.18 1.52647 -0.392018 0
M  V30 15945 C 1507.11 2.29446 0.433228 0
M  V30 15946 C 1508.09 1.32945 1.06111 0
M  V30 15947 O 1509.28 1.61841 1.07337 0
M  V30 15948 C 1506.41 3.10328 1.55929 0
M  V30 15949 C 1505.36 4.14735 1.05731 0
M  V30 15950 C 1504.69 4.83858 2.27565 0
M  V30 15951 C 1505.99 5.22154 0.123346 0
M  V30 15952 H 1507.68 2.9868 -0.207563 0
M  V30 15953 H 1505.23 1.43643 -0.101266 0
M  V30 15954 H 1507.18 3.62814 2.14346 0
M  V30 15955 H 1505.91 2.38832 2.22771 0
M  V30 15956 H 1504.57 3.63234 0.495653 0
M  V30 15957 H 1504.21 4.08907 2.92923 0
M  V30 15958 H 1503.91 5.54428 1.94637 0
M  V30 15959 H 1505.44 5.39149 2.86619 0
M  V30 15960 H 1506.85 5.69983 0.615784 0
M  V30 15961 H 1505.25 5.99987 -0.116304 0
M  V30 15962 H 1506.32 4.77796 -0.826969 0
M  V30 15963 N 1507.66 0.121921 1.57128 0
M  V30 15964 C 1508.63 -0.812905 2.143 0
M  V30 15965 C 1509.63 -1.19261 1.07858 0
M  V30 15966 O 1510.82 -1.11764 1.33621 0
M  V30 15967 C 1507.95 -2.09969 2.68562 0
M  V30 15968 H 1509.14 -0.315992 2.98231 0
M  V30 15969 H 1506.69 -0.12734 1.5578 0
M  V30 15970 H 1507.43 -2.64085 1.88228 0
M  V30 15971 H 1507.21 -1.83688 3.46412 0
M  V30 15972 H 1508.7 -2.76788 3.12695 0
M  V30 15973 N 1509.14 -1.56867 -0.151857 0
M  V30 15974 C 1510.39 -1.82721 -0.863575 0
M  V30 15975 C 1510.71 -0.702042 -1.81924 0
M  V30 15976 O 1509.98 0.27668 -1.93936 0
M  V30 15977 H 1508.56 -0.674088 -0.321893 0
M  V30 15978 H 1511.22 -1.94345 -0.14702 0
M  V30 15979 H 1510.32 -2.77476 -1.42876 0
M  V30 15980 N 1510.62 0.421051 -1.51871 0
M  V30 15981 C 1512.03 1.00033 -1.5764 0
M  V30 15982 C 1512.38 1.91875 -0.409665 0
M  V30 15983 O 1511.51 2.11201 0.471516 0
M  V30 15984 C 1512.1 1.82099 -2.85701 0
M  V30 15985 C 1510.66 2.35049 -2.93988 0
M  V30 15986 C 1509.81 1.14703 -2.52465 0
M  V30 15987 H 1512.76 0.201715 -1.57413 0
M  V30 15988 H 1512.78 2.67719 -2.70382 0
M  V30 15989 H 1512.29 1.15229 -3.706 0
M  V30 15990 H 1510.39 3.05327 -2.13556 0
M  V30 15991 H 1510.5 2.66731 -3.97984 0
M  V30 15992 H 1508.87 1.49736 -2.06037 0
M  V30 15993 H 1509.65 0.494171 -3.39725 0
M  V30 15994 N 1512.1 1.42293 0.677538 0
M  V30 15995 C 1513.35 1.41909 1.43334 0
M  V30 15996 C 1513.66 0.037951 1.95563 0
M  V30 15997 O 1514.86 -0.0884836 2.71356 0
M  V30 15998 C 1513.32 2.49608 2.59275 0
M  V30 15999 C 1512.93 3.93716 2.13757 0
M  V30 16000 C 1514.67 2.58387 3.36803 0
M  V30 16001 C 1512.58 4.92929 3.26764 0
M  V30 16002 H 1511.51 0.527803 0.538461 0
M  V30 16003 H 1514.16 1.6819 0.733791 0
M  V30 16004 H 1512.54 2.16488 3.31585 0
M  V30 16005 H 1513.72 4.36176 1.48618 0
M  V30 16006 H 1512.03 3.88762 1.49175 0
M  V30 16007 H 1514.63 3.29691 4.20961 0
M  V30 16008 H 1514.97 1.62653 3.8321 0
M  V30 16009 H 1515.5 2.90688 2.71561 0
M  V30 16010 H 1512.24 5.90131 2.85352 0
M  V30 16011 H 1511.76 4.55103 3.90694 0
M  V30 16012 H 1513.44 5.1452 3.92273 0
M  V30 16013 N 1513.57 -0.913576 1.28419 0
M  V30 16014 C 1514.8 -1.70178 1.18551 0
M  V30 16015 C 1515.22 -1.864 -0.252307 0
M  V30 16016 O 1514.58 -1.37427 -1.18252 0
M  V30 16017 C 1514.63 -3.07145 1.8893 0
M  V30 16018 O 1513.73 -3.9465 1.19688 0
M  V30 16019 H 1513.08 -0.521092 0.411533 0
M  V30 16020 H 1515.61 -1.14228 1.69744 0
M  V30 16021 H 1515.62 -3.57375 1.96843 0
M  V30 16022 H 1514.29 -2.94655 2.93515 0
M  V30 16023 H 1512.87 -3.53085 1.19939 0
M  V30 16024 N 1515.05 -1.1067 -1.12204 0
M  V30 16025 C 1515.98 -0.715581 -2.17743 0
M  V30 16026 C 1517 0.248892 -1.60886 0
M  V30 16027 O 1518.19 0.0329917 -1.7847 0
M  V30 16028 C 1515.29 -0.0356388 -3.38881 0
M  V30 16029 C 1514.46 -1.0249 -4.25223 0
M  V30 16030 C 1513.52 -0.375998 -5.24855 0
M  V30 16031 O 1512.54 -1.02753 -5.59849 0
M  V30 16032 N 1513.75 0.864525 -5.74026 0
M  V30 16033 H 1516.51 -1.62362 -2.5191 0
M  V30 16034 H 1514.07 -0.995851 -1.2765 0
M  V30 16035 H 1516.06 0.41 -4.02618 0
M  V30 16036 H 1514.63 0.77485 -3.02845 0
M  V30 16037 H 1513.85 -1.64874 -3.58065 0
M  V30 16038 H 1515.14 -1.69446 -4.79756 0
M  V30 16039 H 1514.54 1.41317 -5.47764 0
M  V30 16040 H 1513.1 1.25327 -6.39638 0
M  V30 16041 N 1516.53 1.29665 -0.895815 0
M  V30 16042 C 1517.48 2.2542 -0.34201 0
M  V30 16043 C 1518.46 1.5172 0.535712 0
M  V30 16044 O 1519.66 1.72909 0.378364 0
M  V30 16045 C 1516.79 3.4056 0.43287 0
M  V30 16046 C 1515.87 4.21603 -0.459552 0
M  V30 16047 N 1516.26 4.8098 -1.565 0
M  V30 16048 C 1514.56 4.45261 -0.256632 0
M  V30 16049 C 1515.26 5.41792 -2.11746 0
M  V30 16050 N 1514.24 5.24968 -1.411 0
M  V30 16051 H 1518.04 2.68885 -1.18651 0
M  V30 16052 H 1515.55 1.4423 -0.74643 0
M  V30 16053 H 1517.55 4.08219 0.846334 0
M  V30 16054 H 1516.21 2.98633 1.27468 0
M  V30 16055 H 1517.22 4.79877 -1.94777 0
M  V30 16056 H 1513.9 4.13899 0.547131 0
M  V30 16057 H 1515.29 5.9887 -3.04637 0
M  V30 16058 N 1518.01 0.657889 1.43212 0
M  V30 16059 C 1518.96 -0.0427288 2.32561 0
M  V30 16060 C 1519.95 -0.808236 1.48875 0
M  V30 16061 O 1521.16 -0.718109 1.65055 0
M  V30 16062 H 1517.53 -0.0326049 0.751293 0
M  V30 16063 H 1519.5 0.728503 2.89371 0
M  V30 16064 C 1518.25 -0.99216 3.33244 0
M  V30 16065 H 1517.57 -0.412542 3.97666 0
M  V30 16066 H 1519.01 -1.45138 3.98385 0
M  V30 16067 C 1517.47 -2.09044 2.64201 0
M  V30 16068 O 1518 -3.17481 2.46107 0
M  V30 16069 N 1516.21 -1.85732 2.23499 0
M  V30 16070 H 1515.76 -0.975483 2.38416 0
M  V30 16071 H 1515.71 -2.5941 1.77634 0
M  V30 16072 N 1519.49 -1.52437 0.400108 0
M  V30 16073 C 1520.44 -2.23576 -0.446964 0
M  V30 16074 C 1521.42 -1.24368 -1.02085 0
M  V30 16075 O 1522.61 -1.49652 -0.945165 0
M  V30 16076 C 1519.74 -3.05402 -1.56795 0
M  V30 16077 C 1518.83 -4.12013 -1.00527 0
M  V30 16078 N 1519.22 -5.05519 -0.168475 0
M  V30 16079 C 1517.52 -4.27337 -1.27669 0
M  V30 16080 C 1518.22 -5.81523 0.143579 0
M  V30 16081 N 1517.19 -5.41623 -0.463209 0
M  V30 16082 H 1521 -2.93227 0.198775 0
M  V30 16083 H 1518.51 -1.61036 0.210019 0
M  V30 16084 H 1520.51 -3.54912 -2.1873 0
M  V30 16085 H 1519.17 -2.37288 -2.2164 0
M  V30 16086 H 1520.18 -5.17532 0.195125 0
M  V30 16087 H 1516.85 -3.70452 -1.92539 0
M  V30 16088 H 1518.24 -6.6685 0.822256 0
M  V30 16089 N 1520.96 -0.130252 -1.57061 0
M  V30 16090 C 1522.38 0.226279 -1.57988 0
M  V30 16091 C 1522.58 1.65902 -1.14363 0
M  V30 16092 O 1521.64 2.38252 -0.836191 0
M  V30 16093 C 1522.95 -0.0172647 -3.00695 0
M  V30 16094 C 1524.5 0.0477572 -3.12964 0
M  V30 16095 C 1524.97 -0.168238 -4.57691 0
M  V30 16096 N 1526.46 -0.114591 -4.63058 0
M  V30 16097 C 1527.2 -0.256462 -5.72826 0
M  V30 16098 N 1526.69 -0.455129 -6.91303 0
M  V30 16099 N 1528.49 -0.195243 -5.61761 0
M  V30 16100 H 1520.64 -1.06594 -1.83716 0
M  V30 16101 H 1522.9 -0.420643 -0.849567 0
M  V30 16102 H 1522.61 -1.00819 -3.3694 0
M  V30 16103 H 1522.48 0.709629 -3.70465 0
M  V30 16104 H 1524.87 1.02922 -2.7657 0
M  V30 16105 H 1524.95 -0.711198 -2.45714 0
M  V30 16106 H 1524.59 -1.14673 -4.94785 0
M  V30 16107 H 1524.52 0.610839 -5.23045 0
M  V30 16108 H 1527.01 0.0349873 -3.77884 0
M  V30 16109 H 1527.33 -0.553943 -7.70812 0
M  V30 16110 H 1525.67 -0.491244 -6.93262 0
M  V30 16111 H 1528.86 -0.0409186 -4.68082 0
M  V30 16112 H 1529.04 -0.309248 -6.47262 0
M  V30 16113 N 1522.44 1.56945 0.143535 0
M  V30 16114 C 1523.85 1.72949 0.703249 0
M  V30 16115 C 1524.21 0.745193 1.81497 0
M  V30 16116 O 1523.33 -0.0874144 2.16223 0
M  V30 16117 C 1523.93 3.1359 1.28244 0
M  V30 16118 C 1522.48 3.31184 1.78869 0
M  V30 16119 C 1521.63 2.6887 0.678531 0
M  V30 16120 H 1524.58 1.58487 -0.0821664 0
M  V30 16121 H 1524.6 3.13782 2.15224 0
M  V30 16122 H 1524.12 3.85206 0.473087 0
M  V30 16123 H 1522.22 2.64571 2.6236 0
M  V30 16124 H 1522.33 4.39163 1.91502 0
M  V30 16125 H 1520.69 2.29432 1.10603 0
M  V30 16126 H 1521.48 3.43092 -0.119437 0
M  V30 16127 N 1523.92 -0.412991 1.52093 0
M  V30 16128 C 1525.17 -1.15801 1.65634 0
M  V30 16129 C 1525.49 -1.91127 0.386737 0
M  V30 16130 O 1524.76 -1.86541 -0.598262 0
M  V30 16131 H 1523.34 -0.430467 0.610498 0
M  V30 16132 H 1526 -0.471127 1.8912 0
M  V30 16133 H 1525.1 -1.87421 2.49559 0
M  V30 16134 N 1525.4 -1.4265 -0.669982 0
M  V30 16135 C 1526.63 -1.46571 -1.45604 0
M  V30 16136 C 1527.04 -0.0769961 -1.89043 0
M  V30 16137 O 1526.38 0.919604 -1.59025 0
M  V30 16138 C 1526.44 -2.33435 -2.73401 0
M  V30 16139 C 1526.11 -3.81236 -2.52008 0
M  V30 16140 C 1527.1 -4.72768 -2.16301 0
M  V30 16141 C 1524.79 -4.25552 -2.66853 0
M  V30 16142 C 1526.78 -6.0661 -1.95712 0
M  V30 16143 C 1524.47 -5.59452 -2.4588 0
M  V30 16144 C 1525.47 -6.49797 -2.10364 0
M  V30 16145 O 1525.16 -7.81222 -1.89597 0
M  V30 16146 H 1524.89 -0.500529 -0.454364 0
M  V30 16147 H 1527.44 -1.87875 -0.830199 0
M  V30 16148 H 1525.67 -1.86989 -3.38485 0
M  V30 16149 H 1527.36 -2.28755 -3.353 0
M  V30 16150 H 1528.13 -4.39814 -2.04423 0
M  V30 16151 H 1524.01 -3.55518 -2.93475 0
M  V30 16152 H 1527.55 -6.7709 -1.67914 0
M  V30 16153 H 1523.45 -5.91978 -2.57355 0
M  V30 16154 H 1524.21 -7.9263 -2.04157 0
M  V30 16155 N 1526.88 0.906753 -1.28902 0
M  V30 16156 C 1527.83 1.99676 -1.10061 0
M  V30 16157 C 1528.81 1.60885 -0.0221442 0
M  V30 16158 O 1530 1.75323 -0.24307 0
M  V30 16159 C 1527.13 3.34511 -0.771823 0
M  V30 16160 C 1526.22 3.79683 -1.88948 0
M  V30 16161 N 1526.61 3.97159 -3.13207 0
M  V30 16162 C 1524.91 4.089 -1.78092 0
M  V30 16163 C 1525.61 4.35108 -3.86078 0
M  V30 16164 N 1524.58 4.43759 -3.13973 0
M  V30 16165 H 1528.39 2.11247 -2.04333 0
M  V30 16166 H 1525.9 1.09508 -1.19924 0
M  V30 16167 H 1527.9 4.12295 -0.617909 0
M  V30 16168 H 1526.56 3.2429 0.16305 0
M  V30 16169 H 1527.57 3.82884 -3.4874 0
M  V30 16170 H 1524.25 4.07276 -0.918291 0
M  V30 16171 H 1525.64 4.56533 -4.92978 0
M  V30 16172 N 1528.36 1.11264 1.11616 0
M  V30 16173 C 1529.58 0.882802 1.87121 0
M  V30 16174 C 1530 -0.567279 1.80076 0
M  V30 16175 O 1529.36 -1.39158 1.18074 0
M  V30 16176 C 1529.41 1.33355 3.36004 0
M  V30 16177 O 1529.13 2.72678 3.42897 0
M  V30 16178 C 1530.63 1.13886 4.28421 0
M  V30 16179 H 1527.85 0.316275 0.591786 0
M  V30 16180 H 1530.39 1.4795 1.41177 0
M  V30 16181 H 1528.55 0.780347 3.79459 0
M  V30 16182 H 1528.96 2.92168 4.35589 0
M  V30 16183 H 1530.44 1.50329 5.31136 0
M  V30 16184 H 1530.91 0.078259 4.3913 0
M  V30 16185 H 1531.52 1.67896 3.90757 0
M  V30 16186 N 1529.83 -1.29188 0.902679 0
M  V30 16187 C 1530.77 -2.26665 0.339964 0
M  V30 16188 C 1531.78 -1.54426 -0.515396 0
M  V30 16189 O 1532.97 -1.75384 -0.332071 0
M  V30 16190 C 1530.07 -3.34672 -0.533653 0
M  V30 16191 C 1529.24 -4.36393 0.296661 0
M  V30 16192 C 1528.3 -5.2372 -0.510264 0
M  V30 16193 O 1527.33 -5.69153 0.0732871 0
M  V30 16194 N 1528.53 -5.51373 -1.81572 0
M  V30 16195 H 1531.29 -2.75588 1.17778 0
M  V30 16196 H 1528.85 -1.42553 0.767474 0
M  V30 16197 H 1530.85 -3.90025 -1.07995 0
M  V30 16198 H 1529.42 -2.85543 -1.27216 0
M  V30 16199 H 1528.64 -3.80658 1.02436 0
M  V30 16200 H 1529.92 -5.0139 0.865191 0
M  V30 16201 H 1529.32 -5.16275 -2.31251 0
M  V30 16202 H 1527.88 -6.09528 -2.30908 0
M  V30 16203 N 1531.31 -0.665475 -1.42861 0
M  V30 16204 C 1532.54 -0.192 -2.06007 0
M  V30 16205 C 1532.95 1.1472 -1.49949 0
M  V30 16206 O 1532.31 1.71074 -0.635599 0
M  V30 16207 C 1532.36 -0.108189 -3.61338 0
M  V30 16208 O 1532.08 -1.39446 -4.15315 0
M  V30 16209 C 1533.58 0.3899 -4.41582 0
M  V30 16210 H 1530.8 -0.0955812 -0.664158 0
M  V30 16211 H 1533.35 -0.909582 -1.83158 0
M  V30 16212 H 1531.5 0.560024 -3.83331 0
M  V30 16213 H 1531.92 -1.26168 -5.09099 0
M  V30 16214 H 1533.39 0.39747 -5.50567 0
M  V30 16215 H 1533.87 1.42348 -4.15492 0
M  V30 16216 H 1534.47 -0.246248 -4.24587 0
M  V30 16217 N 1532.79 1.52222 -0.408187 0
M  V30 16218 C 1533.75 2.25578 0.405851 0
M  V30 16219 C 1534.75 1.27912 0.974434 0
M  V30 16220 O 1535.94 1.51861 0.853461 0
M  V30 16221 C 1533.07 3.02532 1.57122 0
M  V30 16222 H 1534.27 2.98965 -0.23664 0
M  V30 16223 H 1531.82 1.55472 -0.160687 0
M  V30 16224 H 1532.56 2.33492 2.2506 0
M  V30 16225 H 1532.34 3.74237 1.17001 0
M  V30 16226 H 1533.83 3.58177 2.14707 0
M  V30 16227 N 1534.27 0.138579 1.5699 0
M  V30 16228 C 1535.52 -0.513611 1.95465 0
M  V30 16229 C 1535.84 -1.65952 1.02396 0
M  V30 16230 O 1535.11 -1.9572 0.0839001 0
M  V30 16231 H 1533.69 -0.192729 0.72171 0
M  V30 16232 H 1536.35 0.212107 1.93742 0
M  V30 16233 H 1535.44 -0.895313 2.98983 0
M  V30 16234 N 1535.75 -1.57019 -0.13521 0
M  V30 16235 C 1537.16 -1.73319 -0.694067 0
M  V30 16236 C 1537.51 -0.754808 -1.811 0
M  V30 16237 O 1536.63 0.0759463 -2.16267 0
M  V30 16238 C 1537.23 -3.14266 -1.26579 0
M  V30 16239 C 1535.79 -3.32128 -1.7711 0
M  V30 16240 C 1534.93 -2.69226 -0.664263 0
M  V30 16241 H 1537.88 -1.58441 0.0905702 0
M  V30 16242 H 1537.91 -3.14919 -2.13557 0
M  V30 16243 H 1537.42 -3.85451 -0.452652 0
M  V30 16244 H 1535.52 -2.65959 -2.60953 0
M  V30 16245 H 1535.63 -4.40172 -1.8917 0
M  V30 16246 H 1534 -2.30016 -1.09384 0
M  V30 16247 H 1534.78 -3.43024 0.13763 0
M  V30 16248 N 1537.22 0.404919 -1.52309 0
M  V30 16249 C 1538.47 1.1499 -1.67776 0
M  V30 16250 C 1538.83 1.88094 -0.404753 0
M  V30 16251 O 1538.12 1.81931 0.600975 0
M  V30 16252 C 1538.31 2.16817 -2.84121 0
M  V30 16253 C 1538.14 1.53712 -4.22614 0
M  V30 16254 C 1536.91 1.30802 -4.88077 0
M  V30 16255 C 1539.11 0.995747 -5.04569 0
M  V30 16256 N 1537.09 0.636344 -6.10593 0
M  V30 16257 C 1538.46 0.451225 -6.18356 0
M  V30 16258 C 1540.52 0.890617 -4.8987 0
M  V30 16259 C 1539.22 -0.188129 -7.19054 0
M  V30 16260 C 1541.25 0.26511 -5.90805 0
M  V30 16261 C 1540.61 -0.268716 -7.03887 0
M  V30 16262 H 1536.71 0.407302 -0.667554 0
M  V30 16263 H 1539.29 0.441678 -1.89624 0
M  V30 16264 H 1537.46 2.84993 -2.63882 0
M  V30 16265 H 1539.19 2.83707 -2.88604 0
M  V30 16266 H 1535.95 1.57869 -4.46513 0
M  V30 16267 H 1536.37 0.317008 -6.76257 0
M  V30 16268 H 1541.02 1.28915 -4.02667 0
M  V30 16269 H 1538.73 -0.598717 -8.05879 0
M  V30 16270 H 1542.32 0.185229 -5.81505 0
M  V30 16271 H 1541.2 -0.745099 -7.80652 0
M  V30 16272 N 1538.7 1.43003 0.662408 0
M  V30 16273 C 1539.65 1.43898 1.76854 0
M  V30 16274 C 1540.64 0.308629 1.57912 0
M  V30 16275 O 1541.83 0.551757 1.6818 0
M  V30 16276 C 1538.96 1.35585 3.15391 0
M  V30 16277 C 1538.04 2.53614 3.39913 0
M  V30 16278 N 1538.43 3.78998 3.34954 0
M  V30 16279 C 1536.73 2.48141 3.70597 0
M  V30 16280 C 1537.43 4.57467 3.59303 0
M  V30 16281 N 1536.41 3.8806 3.80671 0
M  V30 16282 H 1540.21 2.38722 1.71432 0
M  V30 16283 H 1537.73 1.37526 0.863728 0
M  V30 16284 H 1539.72 1.34308 3.94673 0
M  V30 16285 H 1538.38 0.417735 3.22002 0
M  V30 16286 H 1539.39 4.11417 3.14574 0
M  V30 16287 H 1536.07 1.62971 3.84379 0
M  V30 16288 H 1537.46 5.66475 3.61326 0
M  V30 16289 N 1540.18 -0.899904 1.29381 0
M  V30 16290 C 1541.11 -2.02045 1.17047 0
M  V30 16291 C 1542.09 -1.69977 0.0647354 0
M  V30 16292 O 1543.28 -1.92659 0.244173 0
M  V30 16293 C 1540.41 -3.36839 0.845991 0
M  V30 16294 C 1539.36 -3.83117 1.90802 0
M  V30 16295 C 1538.69 -5.15032 1.43686 0
M  V30 16296 C 1539.99 -4.03464 3.31684 0
M  V30 16297 H 1541.68 -2.12623 2.10789 0
M  V30 16298 H 1539.23 -1.02162 1.01484 0
M  V30 16299 H 1541.18 -4.14737 0.746413 0
M  V30 16300 H 1539.9 -3.26352 -0.127125 0
M  V30 16301 H 1538.56 -3.07435 1.99698 0
M  V30 16302 H 1538.21 -5.00961 0.452422 0
M  V30 16303 H 1537.91 -5.46967 2.14711 0
M  V30 16304 H 1539.43 -5.95472 1.35078 0
M  V30 16305 H 1540.85 -4.71845 3.25631 0
M  V30 16306 H 1539.25 -4.46752 4.00665 0
M  V30 16307 H 1540.32 -3.07807 3.74677 0
M  V30 16308 N 1541.66 -1.11854 -1.11024 0
M  V30 16309 C 1542.91 -0.868355 -1.82494 0
M  V30 16310 C 1543.23 0.607622 -1.85292 0
M  V30 16311 O 1542.5 1.44147 -1.32659 0
M  V30 16312 H 1541.08 -0.31826 -0.67581 0
M  V30 16313 H 1543.74 -1.4118 -1.34366 0
M  V30 16314 H 1542.84 -1.24441 -2.86218 0
M  V30 16315 N 1543.14 1.28707 -0.909517 0
M  V30 16316 C 1544.08 2.27427 -0.393155 0
M  V30 16317 C 1545.05 1.57414 0.53009 0
M  V30 16318 O 1546.24 1.85339 0.453205 0
M  V30 16319 C 1543.38 3.4317 0.364507 0
M  V30 16320 C 1542.49 4.27942 -0.590757 0
M  V30 16321 C 1541.63 5.30878 0.184931 0
M  V30 16322 C 1540.67 6.07311 -0.764222 0
M  V30 16323 N 1539.8 7.02096 -0.0223203 0
M  V30 16324 H 1544.64 2.70974 -1.24005 0
M  V30 16325 H 1542.18 1.33265 -0.6228 0
M  V30 16326 H 1544.14 4.09063 0.819937 0
M  V30 16327 H 1542.77 3.00625 1.17578 0
M  V30 16328 H 1541.82 3.62131 -1.16471 0
M  V30 16329 H 1543.13 4.81102 -1.31689 0
M  V30 16330 H 1542.29 6.02635 0.701116 0
M  V30 16331 H 1541.02 4.78474 0.944143 0
M  V30 16332 H 1540.03 5.34408 -1.29182 0
M  V30 16333 H 1541.25 6.61804 -1.52292 0
M  V30 16334 H 1539.2 6.52048 0.718978 0
M  V30 16335 H 1539.12 7.5286 -0.688359 0
M  V30 16336 H 1540.39 7.78059 0.473807 0
M  V30 16337 N 1544.61 0.673042 1.42506 0
M  V30 16338 C 1545.54 0.00755467 2.33499 0
M  V30 16339 C 1546.53 -0.791161 1.50581 0
M  V30 16340 O 1547.71 -0.748668 1.79189 0
M  V30 16341 C 1544.84 -0.945638 3.34178 0
M  V30 16342 C 1543.79 -0.25564 4.27236 0
M  V30 16343 C 1543.12 -1.32165 5.18109 0
M  V30 16344 C 1544.42 0.864254 5.151 0
M  V30 16345 H 1546.11 0.767487 2.89396 0
M  V30 16346 H 1543.66 0.370524 1.39151 0
M  V30 16347 H 1545.61 -1.42026 3.96745 0
M  V30 16348 H 1544.34 -1.73697 2.76581 0
M  V30 16349 H 1543 0.19873 3.66061 0
M  V30 16350 H 1542.64 -2.10492 4.56839 0
M  V30 16351 H 1542.34 -0.865109 5.81197 0
M  V30 16352 H 1543.87 -1.79724 5.83551 0
M  V30 16353 H 1545.28 0.470924 5.71363 0
M  V30 16354 H 1543.68 1.24648 5.87012 0
M  V30 16355 H 1544.75 1.71378 4.53605 0
M  V30 16356 N 1546.09 -1.52004 0.416254 0
M  V30 16357 C 1547 -2.30947 -0.412403 0
M  V30 16358 C 1548.02 -1.38969 -1.04707 0
M  V30 16359 O 1549.19 -1.72044 -1.04703 0
M  V30 16360 C 1546.26 -3.12078 -1.51024 0
M  V30 16361 C 1545.32 -4.19805 -0.897892 0
M  V30 16362 C 1544.55 -4.97059 -1.94341 0
M  V30 16363 O 1544.78 -4.74695 -3.16261 0
M  V30 16364 O 1543.71 -5.81715 -1.54567 0
M  V30 16365 H 1547.54 -3.02817 0.231473 0
M  V30 16366 H 1545.12 -1.4832 0.179283 0
M  V30 16367 H 1547 -3.6258 -2.14741 0
M  V30 16368 H 1545.68 -2.42995 -2.13858 0
M  V30 16369 H 1544.59 -3.73433 -0.223236 0
M  V30 16370 H 1545.92 -4.91201 -0.31336 0
M  V30 16371 N 1547.57 -0.146903 -1.56914 0
M  V30 16372 C 1548.5 0.788924 -2.19769 0
M  V30 16373 C 1549.48 1.25712 -1.14589 0
M  V30 16374 O 1550.67 1.3147 -1.42931 0
M  V30 16375 C 1547.8 2.02824 -2.81921 0
M  V30 16376 C 1546.75 1.69683 -3.92927 0
M  V30 16377 C 1546.08 3.00877 -4.42015 0
M  V30 16378 C 1547.38 0.943559 -5.13706 0
M  V30 16379 H 1549.07 0.265076 -2.98224 0
M  V30 16380 H 1546.62 0.126057 -1.43447 0
M  V30 16381 H 1548.57 2.68773 -3.2456 0
M  V30 16382 H 1547.29 2.57581 -2.00797 0
M  V30 16383 H 1545.95 1.06112 -3.50907 0
M  V30 16384 H 1545.6 3.53625 -3.57713 0
M  V30 16385 H 1545.3 2.79466 -5.16888 0
M  V30 16386 H 1546.82 3.67897 -4.87323 0
M  V30 16387 H 1548.24 1.50513 -5.5319 0
M  V30 16388 H 1546.64 0.829387 -5.94341 0
M  V30 16389 H 1547.71 -0.0647228 -4.84857 0
M  V30 16390 N 1549.05 1.57088 0.126881 0
M  V30 16391 C 1550.33 1.7539 0.8659 0
M  V30 16392 C 1550.71 0.720288 1.98432 0
M  V30 16393 O 1550.05 -0.2572 2.27048 0
M  V30 16394 C 1550.26 3.20131 1.38985 0
M  V30 16395 C 1551.61 3.82404 1.84532 0
M  V30 16396 O 1552.64 3.23685 1.48682 0
M  V30 16397 O 1551.49 4.85599 2.50711 0
M  V30 16398 H 1548.59 0.717853 0.41063 0
M  V30 16399 H 1551.13 1.69335 0.111236 0
M  V30 16400 H 1549.91 3.86871 0.587056 0
M  V30 16401 H 1549.53 3.30692 2.20745 0
M  V30 16402 N 1550.53 -0.396836 1.52522 0
M  V30 16403 C 1551.77 -1.14263 1.67183 0
M  V30 16404 C 1552.1 -1.90176 0.407845 0
M  V30 16405 O 1551.36 -1.85965 -0.609553 0
M  V30 16406 C 1551.66 -2.15308 2.85267 0
M  V30 16407 C 1551.32 -1.56111 4.23013 0
M  V30 16408 C 1549.98 -1.39692 4.60478 0
M  V30 16409 C 1552.34 -1.12998 5.08803 0
M  V30 16410 C 1549.66 -0.786963 5.81398 0
M  V30 16411 C 1552.02 -0.534159 6.30341 0
M  V30 16412 C 1550.68 -0.357204 6.66544 0
M  V30 16413 H 1549.95 -0.418118 0.611766 0
M  V30 16414 H 1552.6 -0.428255 1.8665 0
M  V30 16415 H 1550.9 -2.92935 2.60185 0
M  V30 16416 H 1552.6 -2.72908 2.93806 0
M  V30 16417 H 1549.19 -1.69876 3.93497 0
M  V30 16418 H 1553.37 -1.24488 4.80434 0
M  V30 16419 H 1548.63 -0.63799 6.08062 0
M  V30 16420 H 1552.8 -0.191759 6.96136 0
M  V30 16421 H 1550.43 0.117528 7.60109 0
M  V30 16422 N 1552.01 -1.43353 -0.654814 0
M  V30 16423 C 1552.95 -1.48652 -1.789 0
M  V30 16424 C 1553.95 -0.360274 -1.65525 0
M  V30 16425 O 1555.15 -0.534194 -1.71891 0
M  V30 16426 H 1551.53 -0.465987 -0.590221 0
M  V30 16427 H 1553.5 -2.44158 -1.7155 0
M  V30 16428 C 1552.25 -1.42512 -3.17152 0
M  V30 16429 H 1551.57 -2.28479 -3.28081 0
M  V30 16430 H 1553.01 -1.50282 -3.96474 0
M  V30 16431 C 1551.47 -0.142511 -3.36598 0
M  V30 16432 O 1552 0.796821 -3.93718 0
M  V30 16433 N 1550.21 -0.0532157 -2.90551 0
M  V30 16434 H 1549.75 -0.818421 -2.44253 0
M  V30 16435 H 1549.71 0.80427 -3.03939 0
M  V30 16436 N 1553.48 0.89303 -1.29857 0
M  V30 16437 C 1554.71 1.675 -1.20943 0
M  V30 16438 C 1555.12 1.87779 0.231435 0
M  V30 16439 O 1554.46 1.41955 1.16596 0
M  V30 16440 C 1554.53 3.07722 -1.8587 0
M  V30 16441 C 1554.19 3.10647 -3.35182 0
M  V30 16442 C 1555.19 2.903 -4.31303 0
M  V30 16443 C 1552.87 3.32501 -3.76495 0
M  V30 16444 C 1554.87 2.91749 -5.66711 0
M  V30 16445 C 1552.55 3.33581 -5.12022 0
M  V30 16446 C 1553.55 3.13228 -6.06941 0
M  V30 16447 O 1553.24 3.14109 -7.39994 0
M  V30 16448 H 1552.97 0.529708 -0.419982 0
M  V30 16449 H 1555.53 1.12466 -1.71874 0
M  V30 16450 H 1553.76 3.64386 -1.29459 0
M  V30 16451 H 1555.44 3.68035 -1.71187 0
M  V30 16452 H 1556.21 2.73221 -4.00718 0
M  V30 16453 H 1552.09 3.47381 -3.03064 0
M  V30 16454 H 1555.63 2.75782 -6.40773 0
M  V30 16455 H 1551.53 3.50193 -5.4225 0
M  V30 16456 H 1552.3 3.3033 -7.48882 0
M  V30 16457 N 1554.96 1.12442 1.10429 0
M  V30 16458 C 1556.2 0.889854 1.84013 0
M  V30 16459 C 1556.57 -0.573951 1.83221 0
M  V30 16460 O 1557.77 -0.925683 2.52358 0
M  V30 16461 C 1556.04 1.44893 3.26712 0
M  V30 16462 S 1557.6 1.35291 4.17423 0
M  V30 16463 H 1554.41 0.321004 0.634411 0
M  V30 16464 H 1557.02 1.43395 1.32884 0
M  V30 16465 H 1555.72 2.50788 3.24859 0
M  V30 16466 H 1555.25 0.902325 3.82912 0
M  V30 16467 H 1557.27 0.324412 4.95138 0
M  V30 16468 N 1556.44 -1.28223 0.91633 0
M  V30 16469 C 1557.35 -2.30956 0.411882 0
M  V30 16470 C 1558.37 -1.66609 -0.501753 0
M  V30 16471 O 1559.54 -1.97641 -0.387317 0
M  V30 16472 C 1556.61 -3.45053 -0.337558 0
M  V30 16473 C 1555.67 -4.2495 0.609609 0
M  V30 16474 C 1554.9 -5.33598 -0.104159 0
M  V30 16475 O 1555.12 -5.54786 -1.32546 0
M  V30 16476 O 1554.06 -5.99272 0.561851 0
M  V30 16477 H 1557.88 -2.76118 1.26461 0
M  V30 16478 H 1555.47 -1.32964 0.681246 0
M  V30 16479 H 1557.35 -4.14477 -0.760722 0
M  V30 16480 H 1556.03 -3.01968 -1.16607 0
M  V30 16481 H 1554.93 -3.58104 1.08222 0
M  V30 16482 H 1556.27 -4.7172 1.40502 0
M  V30 16483 N 1557.92 -0.68059 -1.42147 0
M  V30 16484 C 1559.17 -0.204857 -2.01059 0
M  V30 16485 C 1559.49 1.19475 -1.54113 0
M  V30 16486 O 1558.76 1.80334 -0.765279 0
M  V30 16487 H 1557.34 -0.0727459 -0.743449 0
M  V30 16488 H 1560 -0.878396 -1.73983 0
M  V30 16489 H 1559.09 -0.210628 -3.11388 0
M  V30 16490 N 1559.4 1.51781 -0.424309 0
M  V30 16491 C 1560.62 2.06387 0.145548 0
M  V30 16492 C 1561.04 1.29299 1.37576 0
M  V30 16493 O 1560.4 0.348952 1.79133 0
M  V30 16494 C 1560.45 3.58288 0.48083 0
M  V30 16495 O 1560.17 4.32463 -0.700546 0
M  V30 16496 C 1561.67 4.29364 1.10278 0
M  V30 16497 H 1558.89 0.67086 0.0136908 0
M  V30 16498 H 1561.43 1.95511 -0.599639 0
M  V30 16499 H 1559.59 3.69122 1.17591 0
M  V30 16500 H 1560 5.22839 -0.417035 0
M  V30 16501 H 1561.48 5.36776 1.28747 0
M  V30 16502 H 1561.95 3.86815 2.08017 0
M  V30 16503 H 1562.56 4.2294 0.447458 0
M  V30 16504 N 1560.87 0.155222 1.56834 0
M  V30 16505 C 1562.1 -0.500542 2.00754 0
M  V30 16506 C 1562.52 -1.57878 1.03538 0
M  V30 16507 O 1561.87 -1.82469 0.0336651 0
M  V30 16508 C 1561.92 -1.09366 3.4456 0
M  V30 16509 O 1561.65 -0.0584788 4.38061 0
M  V30 16510 C 1563.15 -1.82923 4.038 0
M  V30 16511 H 1560.37 -0.129589 0.658368 0
M  V30 16512 H 1562.91 0.252223 2.02939 0
M  V30 16513 H 1561.07 -1.797 3.43201 0
M  V30 16514 H 1561.48 -0.494125 5.22167 0
M  V30 16515 H 1562.95 -2.19703 5.06394 0
M  V30 16516 H 1563.43 -2.71823 3.44976 0
M  V30 16517 H 1564.04 -1.17268 4.08813 0
M  V30 16518 N 1562.35 -1.57153 -0.118549 0
M  V30 16519 C 1563.6 -1.8515 -0.82748 0
M  V30 16520 C 1563.93 -0.741026 -1.79506 0
M  V30 16521 O 1563.21 0.253095 -1.92846 0
M  V30 16522 C 1563.49 -3.23734 -1.57698 0
M  V30 16523 C 1563.34 -4.45381 -0.628967 0
M  V30 16524 C 1564.66 -3.59895 -2.53305 0
M  V30 16525 H 1561.78 -0.673459 -0.29937 0
M  V30 16526 H 1564.42 -1.89778 -0.0917198 0
M  V30 16527 H 1562.57 -3.19919 -2.20418 0
M  V30 16528 H 1564.24 -4.61299 -0.0105746 0
M  V30 16529 H 1562.49 -4.33759 0.059462 0
M  V30 16530 H 1563.16 -5.3902 -1.19004 0
M  V30 16531 H 1565.63 -3.64503 -2.0069 0
M  V30 16532 H 1564.51 -4.57839 -3.02778 0
M  V30 16533 H 1564.77 -2.87338 -3.3599 0
M  V30 16534 N 1563.83 0.388742 -1.5273 0
M  V30 16535 C 1565.08 1.13543 -1.68035 0
M  V30 16536 C 1565.41 1.89622 -0.419177 0
M  V30 16537 O 1564.68 1.85556 0.583031 0
M  V30 16538 C 1564.97 2.11346 -2.91556 0
M  V30 16539 C 1564.82 1.39029 -4.27775 0
M  V30 16540 C 1566.14 3.11769 -3.10625 0
M  V30 16541 H 1563.26 0.411406 -0.611485 0
M  V30 16542 H 1565.9 0.418781 -1.85327 0
M  V30 16543 H 1564.05 2.7246 -2.76944 0
M  V30 16544 H 1565.72 0.808775 -4.54155 0
M  V30 16545 H 1563.96 0.692133 -4.28243 0
M  V30 16546 H 1564.64 2.10495 -5.1029 0
M  V30 16547 H 1567.11 2.60745 -3.2427 0
M  V30 16548 H 1565.99 3.77447 -3.98529 0
M  V30 16549 H 1566.25 3.80649 -2.24853 0
M  V30 16550 N 1565.31 1.43698 0.647203 0
M  V30 16551 C 1566.56 1.44918 1.40292 0
M  V30 16552 C 1566.87 0.0794243 1.95439 0
M  V30 16553 O 1568.08 -0.0309052 2.71482 0
M  V30 16554 C 1566.53 2.55052 2.53923 0
M  V30 16555 C 1566.14 3.98161 2.05357 0
M  V30 16556 C 1567.88 2.65473 3.31246 0
M  V30 16557 C 1565.79 4.99749 3.16235 0
M  V30 16558 H 1564.72 0.539106 0.527144 0
M  V30 16559 H 1567.37 1.69708 0.697951 0
M  V30 16560 H 1565.75 2.23473 3.26919 0
M  V30 16561 H 1566.93 4.3923 1.39333 0
M  V30 16562 H 1565.24 3.91839 1.40896 0
M  V30 16563 H 1567.84 3.38546 4.13873 0
M  V30 16564 H 1568.18 1.70745 3.79673 0
M  V30 16565 H 1568.72 2.96383 2.65334 0
M  V30 16566 H 1565.45 5.96051 2.7277 0
M  V30 16567 H 1564.97 4.63288 3.80952 0
M  V30 16568 H 1566.65 5.22725 3.81271 0
M  V30 16569 N 1566.79 -0.886131 1.30328 0
M  V30 16570 C 1568.01 -1.67625 1.22134 0
M  V30 16571 C 1568.44 -1.86893 -0.212712 0
M  V30 16572 O 1567.79 -1.39905 -1.1531 0
M  V30 16573 C 1567.84 -3.03068 1.95402 0
M  V30 16574 O 1566.95 -3.92022 1.28032 0
M  V30 16575 H 1566.29 -0.512246 0.422493 0
M  V30 16576 H 1568.82 -1.10602 1.72129 0
M  V30 16577 H 1568.83 -3.53119 2.04379 0
M  V30 16578 H 1567.5 -2.88363 2.99699 0
M  V30 16579 H 1566.08 -3.50461 1.27402 0
M  V30 16580 N 1568.26 -1.13026 -1.09832 0
M  V30 16581 C 1569.17 -0.817051 -2.19912 0
M  V30 16582 C 1570.19 0.19667 -1.72885 0
M  V30 16583 O 1571.37 0.0287402 -2.01379 0
M  V30 16584 C 1568.43 -0.28304 -3.45543 0
M  V30 16585 C 1567.49 -1.35748 -4.07273 0
M  V30 16586 C 1566.73 -0.848855 -5.26906 0
M  V30 16587 O 1566.95 0.315104 -5.69529 0
M  V30 16588 O 1565.88 -1.62128 -5.79653 0
M  V30 16589 H 1569.71 -1.73663 -2.49148 0
M  V30 16590 H 1567.29 -0.907391 -1.18688 0
M  V30 16591 H 1569.18 0.00956876 -4.21399 0
M  V30 16592 H 1567.85 0.609018 -3.17919 0
M  V30 16593 H 1566.76 -1.70334 -3.33072 0
M  V30 16594 H 1568.09 -2.22353 -4.39113 0
M  V30 16595 N 1569.74 1.27735 -0.923117 0
M  V30 16596 C 1570.69 2.28975 -0.409065 0
M  V30 16597 C 1571.68 1.61723 0.504194 0
M  V30 16598 O 1572.89 1.75848 0.384402 0
M  V30 16599 H 1569.27 0.743354 -0.113705 0
M  V30 16600 H 1571.24 2.69751 -1.27582 0
M  V30 16601 C 1569.99 3.46158 0.327099 0
M  V30 16602 H 1569.31 3.98117 -0.366444 0
M  V30 16603 H 1570.75 4.18968 0.65128 0
M  V30 16604 C 1569.21 2.99724 1.53842 0
M  V30 16605 O 1569.74 3.03001 2.6373 0
M  V30 16606 N 1567.94 2.55274 1.38865 0
M  V30 16607 H 1567.49 2.52807 0.494629 0
M  V30 16608 H 1567.45 2.24567 2.20039 0
M  V30 16609 N 1571.22 0.688118 1.41784 0
M  V30 16610 C 1572.46 0.220002 2.03213 0
M  V30 16611 C 1572.82 -1.15608 1.53293 0
M  V30 16612 O 1574.03 -1.71962 2.06598 0
M  V30 16613 C 1572.3 0.267235 3.564 0
M  V30 16614 S 1573.86 -0.127927 4.38613 0
M  V30 16615 H 1570.67 0.0892377 0.705378 0
M  V30 16616 H 1573.28 0.904238 1.73331 0
M  V30 16617 H 1571.98 1.27087 3.90227 0
M  V30 16618 H 1571.51 -0.436396 3.90972 0
M  V30 16619 H 1573.53 -1.35772 4.77263 0
M  V30 16620 N 1572.7 -1.51554 0.432352 0
M  V30 16621 C 1573.95 -2.01645 -0.135511 0
M  V30 16622 C 1574.27 -1.31874 -1.43647 0
M  V30 16623 O 1573.54 -0.451746 -1.9062 0
M  V30 16624 H 1572.12 -0.745113 -0.0530683 0
M  V30 16625 H 1574.78 -1.86258 0.573917 0
M  V30 16626 H 1573.88 -3.10506 -0.315001 0
M  V30 16627 N 1574.18 -0.163538 -1.56749 0
M  V30 16628 C 1575.4 0.489888 -2.01017 0
M  V30 16629 C 1575.82 1.57327 -1.04373 0
M  V30 16630 O 1575.18 1.82449 -0.0433414 0
M  V30 16631 C 1575.23 1.07537 -3.45135 0
M  V30 16632 O 1574.95 0.0352465 -4.38086 0
M  V30 16633 C 1576.45 1.80779 -4.04764 0
M  V30 16634 H 1573.67 0.126095 -0.659046 0
M  V30 16635 H 1576.21 -0.262982 -2.02802 0
M  V30 16636 H 1574.37 1.77877 -3.44149 0
M  V30 16637 H 1574.78 0.466426 -5.22422 0
M  V30 16638 H 1576.26 2.17014 -5.07552 0
M  V30 16639 H 1576.73 2.6999 -3.46413 0
M  V30 16640 H 1577.34 1.15098 -4.09429 0
M  V30 16641 N 1575.65 1.57214 0.110213 0
M  V30 16642 C 1577.07 1.52706 0.464004 0
M  V30 16643 C 1577.27 0.87792 1.81369 0
M  V30 16644 O 1576.33 0.463987 2.482 0
M  V30 16645 C 1577.64 2.97457 0.440406 0
M  V30 16646 C 1579.19 3.08594 0.523336 0
M  V30 16647 C 1579.66 4.54923 0.53004 0
M  V30 16648 N 1581.15 4.59411 0.591228 0
M  V30 16649 C 1581.89 5.7006 0.618007 0
M  V30 16650 N 1581.38 6.9018 0.601901 0
M  V30 16651 N 1583.18 5.58192 0.661679 0
M  V30 16652 H 1575.33 1.97794 -0.77403 0
M  V30 16653 H 1577.59 0.903673 -0.286496 0
M  V30 16654 H 1577.3 3.48356 -0.483845 0
M  V30 16655 H 1577.17 3.55356 1.26498 0
M  V30 16656 H 1579.56 2.57692 1.43801 0
M  V30 16657 H 1579.64 2.53674 -0.329095 0
M  V30 16658 H 1579.28 5.06472 -0.380623 0
M  V30 16659 H 1579.21 5.07663 1.39948 0
M  V30 16660 H 1581.7 3.72953 0.609483 0
M  V30 16661 H 1582.02 7.70267 0.6252 0
M  V30 16662 H 1580.36 6.92665 0.569186 0
M  V30 16663 H 1583.55 4.63256 0.671686 0
M  V30 16664 H 1583.73 6.44432 0.67908 0
M  V30 16665 N 1577.13 -0.380637 1.52934 0
M  V30 16666 C 1578.38 -1.12261 1.68053 0
M  V30 16667 C 1578.7 -1.90263 0.427191 0
M  V30 16668 O 1577.97 -1.87768 -0.558559 0
M  V30 16669 H 1576.55 -0.41742 0.619491 0
M  V30 16670 H 1579.21 -0.430906 1.90077 0
M  V30 16671 H 1578.31 -1.82085 2.53479 0
M  V30 16672 N 1578.61 -1.44039 -0.639573 0
M  V30 16673 C 1580.02 -1.41236 -1.22104 0
M  V30 16674 C 1580.37 -0.123367 -1.95812 0
M  V30 16675 O 1579.5 0.776641 -2.01983 0
M  V30 16676 C 1580.09 -2.55853 -2.22092 0
M  V30 16677 C 1578.65 -2.56271 -2.75685 0
M  V30 16678 C 1577.8 -2.32877 -1.50544 0
M  V30 16679 H 1580.75 -1.52742 -0.430756 0
M  V30 16680 H 1580.77 -2.28123 -3.04533 0
M  V30 16681 H 1580.28 -3.49653 -1.68417 0
M  V30 16682 H 1578.38 -1.66389 -3.33385 0
M  V30 16683 H 1578.5 -3.54486 -3.22299 0
M  V30 16684 H 1576.86 -1.81807 -1.78377 0
M  V30 16685 H 1577.64 -3.2878 -0.987845 0
M  V30 16686 N 1580.09 0.879207 -1.30796 0
M  V30 16687 C 1581.31 1.66975 -1.23021 0
M  V30 16688 C 1581.74 1.87004 0.202798 0
M  V30 16689 O 1581.1 1.40514 1.14566 0
M  V30 16690 C 1581.14 3.02028 -1.97007 0
M  V30 16691 O 1580.25 3.91338 -1.30109 0
M  V30 16692 H 1579.59 0.509998 -0.425204 0
M  V30 16693 H 1582.12 1.09688 -1.72713 0
M  V30 16694 H 1582.13 3.5203 -2.06249 0
M  V30 16695 H 1580.8 2.8677 -3.01224 0
M  V30 16696 H 1579.38 3.49781 -1.29258 0
M  V30 16697 N 1581.57 1.13606 1.09231 0
M  V30 16698 C 1582.5 0.837908 2.17948 0
M  V30 16699 C 1583.48 -0.203575 1.68877 0
M  V30 16700 O 1584.66 -0.0620702 1.94101 0
M  V30 16701 C 1581.79 0.305342 3.45955 0
M  V30 16702 C 1580.75 1.2813 4.08371 0
M  V30 16703 C 1580.07 0.608412 5.31227 0
M  V30 16704 C 1581.37 2.64055 4.50636 0
M  V30 16705 H 1583.07 1.747 2.43147 0
M  V30 16706 H 1580.61 0.84141 1.1686 0
M  V30 16707 H 1582.57 0.0844116 4.21315 0
M  V30 16708 H 1581.29 -0.639144 3.20285 0
M  V30 16709 H 1579.95 1.48826 3.35032 0
M  V30 16710 H 1579.6 -0.341613 5.01839 0
M  V30 16711 H 1579.3 1.25956 5.73942 0
M  V30 16712 H 1580.82 0.396809 6.09309 0
M  V30 16713 H 1582.24 2.47316 5.17212 0
M  V30 16714 H 1580.63 3.25364 5.0424 0
M  V30 16715 H 1581.7 3.21566 3.62937 0
M  V30 16716 N 1583.05 -1.27244 0.929878 0
M  V30 16717 C 1584.46 -1.4662 0.630451 0
M  V30 16718 C 1584.66 -1.84077 -0.819633 0
M  V30 16719 O 1583.72 -1.95555 -1.59733 0
M  V30 16720 C 1585.03 -2.55709 1.58219 0
M  V30 16721 C 1586.58 -2.69569 1.59065 0
M  V30 16722 C 1587.05 -3.81818 2.52941 0
M  V30 16723 N 1588.54 -3.89195 2.51161 0
M  V30 16724 C 1589.28 -4.75474 3.20488 0
M  V30 16725 N 1588.78 -5.66225 3.99201 0
M  V30 16726 N 1590.57 -4.69222 3.09495 0
M  V30 16727 H 1582.72 -1.01216 1.86733 0
M  V30 16728 H 1584.98 -0.505737 0.801832 0
M  V30 16729 H 1584.69 -2.34985 2.61677 0
M  V30 16730 H 1584.56 -3.53141 1.32556 0
M  V30 16731 H 1586.95 -2.89672 0.563375 0
M  V30 16732 H 1587.03 -1.72616 1.88778 0
M  V30 16733 H 1586.67 -3.62467 3.55781 0
M  V30 16734 H 1586.6 -4.78202 2.20524 0
M  V30 16735 H 1589.1 -3.24305 1.93997 0
M  V30 16736 H 1589.41 -6.28925 4.4908 0
M  V30 16737 H 1587.75 -5.66013 4.03304 0
M  V30 16738 H 1590.94 -3.97322 2.47493 0
M  V30 16739 H 1591.12 -5.36244 3.63794 0
M  V30 16740 N 1584.52 -0.695628 -1.41417 0
M  V30 16741 C 1585.75 -0.235654 -2.05554 0
M  V30 16742 C 1586.17 1.11513 -1.52349 0
M  V30 16743 O 1585.52 1.69688 -0.671743 0
M  V30 16744 C 1585.57 -0.184809 -3.61027 0
M  V30 16745 O 1585.3 -1.48224 -4.12264 0
M  V30 16746 C 1586.8 0.296147 -4.4231 0
M  V30 16747 H 1584.02 -0.109648 -0.661981 0
M  V30 16748 H 1586.56 -0.948227 -1.81187 0
M  V30 16749 H 1584.72 0.478588 -3.84432 0
M  V30 16750 H 1585.13 -1.36939 -5.06308 0
M  V30 16751 H 1586.6 0.280597 -5.51286 0
M  V30 16752 H 1587.08 1.33503 -4.18418 0
M  V30 16753 H 1587.69 -0.336253 -4.23969 0
M  V30 16754 N 1586 1.51322 -0.440383 0
M  V30 16755 C 1587.23 2.0653 0.123649 0
M  V30 16756 C 1587.64 1.30751 1.36197 0
M  V30 16757 O 1587 0.367932 1.78753 0
M  V30 16758 C 1587.05 3.58778 0.442802 0
M  V30 16759 O 1586.77 4.31695 -0.746375 0
M  V30 16760 C 1588.27 4.3051 1.05717 0
M  V30 16761 H 1585.49 0.670968 0.00657466 0
M  V30 16762 H 1588.04 1.94864 -0.620341 0
M  V30 16763 H 1586.19 3.70349 1.13669 0
M  V30 16764 H 1586.61 5.22368 -0.472466 0
M  V30 16765 H 1588.08 5.38111 1.23046 0
M  V30 16766 H 1588.56 3.88999 2.03903 0
M  V30 16767 H 1589.16 4.2339 0.402574 0
M  V30 16768 N 1587.48 0.171848 1.5666 0
M  V30 16769 C 1588.71 -0.479221 2.01274 0
M  V30 16770 C 1589.12 -1.56771 1.05206 0
M  V30 16771 O 1588.48 -1.82423 0.0530164 0
M  V30 16772 C 1588.53 -1.05705 3.457 0
M  V30 16773 O 1588.25 -0.0120133 4.38098 0
M  V30 16774 C 1589.75 -1.78629 4.05717 0
M  V30 16775 H 1586.97 -0.122598 0.659705 0
M  V30 16776 H 1589.52 0.273733 2.0266 0
M  V30 16777 H 1587.67 -1.7605 3.45087 0
M  V30 16778 H 1588.09 -0.438714 5.22662 0
M  V30 16779 H 1589.56 -2.14319 5.08696 0
M  V30 16780 H 1590.04 -2.68149 3.4784 0
M  V30 16781 H 1590.64 -1.12925 4.10034 0
M  V30 16782 N 1588.96 -1.5727 -0.101874 0
M  V30 16783 C 1590.2 -1.86017 -0.807795 0
M  V30 16784 C 1590.54 -0.760024 -1.7871 0
M  V30 16785 O 1589.81 0.232627 -1.93104 0
M  V30 16786 C 1590.09 -3.25388 -1.54255 0
M  V30 16787 C 1589.95 -4.46023 -0.581693 0
M  V30 16788 C 1591.27 -3.62561 -2.49474 0
M  V30 16789 H 1588.39 -0.676596 -0.29221 0
M  V30 16790 H 1591.03 -1.89865 -0.0715861 0
M  V30 16791 H 1589.18 -3.22239 -2.17013 0
M  V30 16792 H 1590.85 -4.61284 0.0383529 0
M  V30 16793 H 1589.09 -4.33672 0.105465 0
M  V30 16794 H 1589.76 -5.40251 -1.1328 0
M  V30 16795 H 1592.24 -3.66611 -1.96813 0
M  V30 16796 H 1591.12 -4.61025 -2.97905 0
M  V30 16797 H 1591.38 -2.90885 -3.32924 0
M  V30 16798 N 1590.44 0.372521 -1.53134 0
M  V30 16799 C 1591.66 1.14116 -1.73183 0
M  V30 16800 C 1592.09 1.82475 -0.456553 0
M  V30 16801 O 1591.44 1.71468 0.588919 0
M  V30 16802 C 1591.49 2.15241 -2.89316 0
M  V30 16803 O 1590.6 3.22178 -2.57439 0
M  V30 16804 H 1589.94 0.331442 -0.575362 0
M  V30 16805 H 1592.47 0.431769 -1.99992 0
M  V30 16806 H 1592.48 2.58961 -3.15283 0
M  V30 16807 H 1591.15 1.64877 -3.81822 0
M  V30 16808 H 1589.73 2.83481 -2.42267 0
M  V30 16809 N 1591.91 1.44376 0.631925 0
M  V30 16810 C 1593.16 1.46827 1.38875 0
M  V30 16811 C 1593.48 0.101789 1.94734 0
M  V30 16812 O 1592.75 -0.86579 1.7573 0
M  V30 16813 H 1591.33 0.540642 0.515475 0
M  V30 16814 H 1593.99 1.80148 0.743822 0
M  V30 16815 H 1593.09 2.19321 2.22047 0
M  V30 16816 N 1593.39 -0.872258 1.31261 0
M  V30 16817 C 1594.34 -1.97926 1.18718 0
M  V30 16818 C 1595.31 -1.65937 0.0735242 0
M  V30 16819 O 1596.49 -1.89208 0.245979 0
M  V30 16820 C 1593.63 -3.33208 0.898117 0
M  V30 16821 C 1592.75 -3.77808 2.09488 0
M  V30 16822 C 1591.88 -5.01796 1.74281 0
M  V30 16823 C 1590.92 -5.38838 2.90379 0
M  V30 16824 N 1590.06 -6.54007 2.55382 0
M  V30 16825 H 1594.9 -2.07986 2.13415 0
M  V30 16826 H 1592.43 -1.01821 1.06165 0
M  V30 16827 H 1594.39 -4.11095 0.711089 0
M  V30 16828 H 1593.02 -3.22798 -0.0120097 0
M  V30 16829 H 1592.07 -2.95722 2.39276 0
M  V30 16830 H 1593.39 -4.01191 2.96391 0
M  V30 16831 H 1592.54 -5.87344 1.52027 0
M  V30 16832 H 1591.28 -4.80312 0.845665 0
M  V30 16833 H 1590.28 -4.51811 3.13284 0
M  V30 16834 H 1591.51 -5.62289 3.80799 0
M  V30 16835 H 1589.46 -6.34073 1.68188 0
M  V30 16836 H 1589.37 -6.77322 3.35814 0
M  V30 16837 H 1590.64 -7.42752 2.36516 0
M  V30 16838 N 1594.87 -1.14184 -1.08627 0
M  V30 16839 C 1595.8 -0.849455 -2.17501 0
M  V30 16840 C 1596.78 0.194617 -1.68983 0
M  V30 16841 O 1597.97 0.0517757 -1.94131 0
M  V30 16842 C 1595.1 -0.323685 -3.45788 0
M  V30 16843 C 1594.05 -1.30294 -4.07685 0
M  V30 16844 C 1593.38 -0.636575 -5.30897 0
M  V30 16845 C 1594.68 -2.66441 -4.49229 0
M  V30 16846 H 1596.37 -1.75987 -2.42217 0
M  V30 16847 H 1593.92 -0.847595 -1.16412 0
M  V30 16848 H 1595.87 -0.106754 -4.21265 0
M  V30 16849 H 1594.59 0.62215 -3.20619 0
M  V30 16850 H 1593.25 -1.50601 -3.34238 0
M  V30 16851 H 1592.9 0.314995 -5.02013 0
M  V30 16852 H 1592.6 -1.28998 -5.73266 0
M  V30 16853 H 1594.12 -0.429117 -6.0909 0
M  V30 16854 H 1595.54 -2.50055 -5.15893 0
M  V30 16855 H 1593.93 -3.28033 -5.02508 0
M  V30 16856 H 1595 -3.23486 -3.61226 0
M  V30 16857 N 1596.35 1.26749 -0.936613 0
M  V30 16858 C 1597.6 1.93255 -0.577524 0
M  V30 16859 C 1597.91 1.74337 0.886905 0
M  V30 16860 O 1599.12 2.3526 1.35517 0
M  V30 16861 C 1597.57 3.4624 -0.982119 0
M  V30 16862 C 1597.18 3.739 -2.46784 0
M  V30 16863 C 1598.92 4.18777 -0.694706 0
M  V30 16864 C 1596.83 5.20303 -2.81138 0
M  V30 16865 H 1595.76 0.723502 -0.212276 0
M  V30 16866 H 1598.41 1.43901 -1.13863 0
M  V30 16867 H 1596.79 3.94454 -0.349577 0
M  V30 16868 H 1597.97 3.3641 -3.14905 0
M  V30 16869 H 1596.28 3.14587 -2.72808 0
M  V30 16870 H 1598.88 5.2659 -0.927756 0
M  V30 16871 H 1599.22 4.14667 0.368392 0
M  V30 16872 H 1599.76 3.76414 -1.28676 0
M  V30 16873 H 1596.5 5.29511 -3.86392 0
M  V30 16874 H 1596.02 5.58907 -2.17675 0
M  V30 16875 H 1597.69 5.88265 -2.69358 0
M  V30 16876 N 1597.83 0.703118 1.41046 0
M  V30 16877 C 1598.78 0.0192623 2.27992 0
M  V30 16878 C 1599.76 -0.745216 1.42602 0
M  V30 16879 O 1600.95 -0.619468 1.65806 0
M  V30 16880 C 1598.08 -0.910896 3.30995 0
M  V30 16881 C 1597.17 -0.142265 4.23861 0
M  V30 16882 N 1597.56 0.867928 4.98298 0
M  V30 16883 C 1595.86 -0.376651 4.44407 0
M  V30 16884 C 1596.56 1.32869 5.66322 0
M  V30 16885 N 1595.53 0.653176 5.39662 0
M  V30 16886 H 1599.34 0.793687 2.8298 0
M  V30 16887 H 1596.85 0.534609 1.53348 0
M  V30 16888 H 1598.85 -1.41603 3.92115 0
M  V30 16889 H 1597.51 -1.68483 2.77567 0
M  V30 16890 H 1598.52 1.2484 5.02628 0
M  V30 16891 H 1595.19 -1.12789 4.01976 0
M  V30 16892 H 1596.58 2.16738 6.35983 0
M  V30 16893 N 1599.3 -1.51086 0.448402 0
M  V30 16894 C 1600.21 -2.3177 -0.363323 0
M  V30 16895 C 1601.23 -1.41159 -1.01736 0
M  V30 16896 O 1602.41 -1.74226 -1.01031 0
M  V30 16897 C 1599.47 -3.15211 -1.4437 0
M  V30 16898 C 1598.53 -4.21615 -0.808643 0
M  V30 16899 C 1597.77 -5.01069 -1.83754 0
M  V30 16900 O 1597.99 -4.81296 -3.06121 0
M  V30 16901 O 1596.92 -5.84863 -1.42193 0
M  V30 16902 H 1600.75 -3.02257 0.295653 0
M  V30 16903 H 1598.33 -1.47907 0.210703 0
M  V30 16904 H 1600.22 -3.67053 -2.07002 0
M  V30 16905 H 1598.89 -2.47476 -2.08656 0
M  V30 16906 H 1597.8 -3.73823 -0.143975 0
M  V30 16907 H 1599.13 -4.91756 -0.209098 0
M  V30 16908 N 1600.78 -0.180154 -1.56567 0
M  V30 16909 C 1602.03 0.456651 -1.98208 0
M  V30 16910 C 1602.38 1.60262 -1.06461 0
M  V30 16911 O 1601.68 1.91307 -0.106011 0
M  V30 16912 C 1601.87 0.978895 -3.43733 0
M  V30 16913 C 1601.7 -0.114936 -4.49553 0
M  V30 16914 C 1600.47 -0.567571 -5.02102 0
M  V30 16915 C 1602.67 -0.918528 -5.06031 0
M  V30 16916 N 1600.65 -1.64078 -5.91567 0
M  V30 16917 C 1602.02 -1.84147 -5.92022 0
M  V30 16918 C 1604.08 -0.96262 -4.88506 0
M  V30 16919 C 1602.78 -2.8048 -6.62362 0
M  V30 16920 C 1604.8 -1.91393 -5.59573 0
M  V30 16921 C 1604.17 -2.82434 -6.45299 0
M  V30 16922 H 1600.27 0.13495 -0.770268 0
M  V30 16923 H 1602.85 -0.282408 -1.92641 0
M  V30 16924 H 1601.02 1.68744 -3.49828 0
M  V30 16925 H 1602.75 1.58506 -3.72368 0
M  V30 16926 H 1599.51 -0.163649 -4.73317 0
M  V30 16927 H 1599.93 -2.17814 -6.41004 0
M  V30 16928 H 1604.57 -0.272775 -4.21919 0
M  V30 16929 H 1602.29 -3.50448 -7.28156 0
M  V30 16930 H 1605.88 -1.95427 -5.47996 0
M  V30 16931 H 1604.76 -3.54847 -6.99324 0
M  V30 16932 N 1602.26 1.57322 0.0935319 0
M  V30 16933 C 1603.5 1.87995 0.802335 0
M  V30 16934 C 1603.86 0.771337 1.75825 0
M  V30 16935 O 1605.07 0.960519 2.51053 0
M  V30 16936 C 1603.34 3.23907 1.5106 0
M  V30 16937 S 1604.9 3.76276 2.25747 0
M  V30 16938 H 1601.71 0.658851 0.267275 0
M  V30 16939 H 1604.32 1.9541 0.0593887 0
M  V30 16940 H 1603.02 4.02512 0.800784 0
M  V30 16941 H 1602.55 3.19634 2.29341 0
M  V30 16942 H 1604.57 3.49818 3.51912 0
M  V30 16943 N 1603.74 -0.364395 1.53329 0
M  V30 16944 C 1604.98 -1.11559 1.71272 0
M  V30 16945 C 1605.34 -1.86521 0.455401 0
M  V30 16946 O 1606.54 -2.63888 0.511533 0
M  V30 16947 C 1604.81 -2.04838 2.92875 0
M  V30 16948 S 1606.37 -2.87462 3.31529 0
M  V30 16949 H 1603.19 -0.377267 0.602653 0
M  V30 16950 H 1605.79 -0.396684 1.91433 0
M  V30 16951 H 1604.5 -1.48532 3.82579 0
M  V30 16952 H 1604.03 -2.81199 2.75119 0
M  V30 16953 H 1606.04 -4.07144 2.83634 0
M  V30 16954 N 1605.22 -1.44709 -0.62426 0
M  V30 16955 C 1606.63 -1.28747 -0.9432 0
M  V30 16956 C 1606.83 -0.228265 -2.00203 0
M  V30 16957 O 1605.89 0.383506 -2.49571 0
M  V30 16958 C 1607.2 -2.66124 -1.39995 0
M  V30 16959 C 1608.75 -2.73889 -1.51506 0
M  V30 16960 C 1609.22 -4.11751 -2.00562 0
M  V30 16961 N 1610.72 -4.13962 -2.07821 0
M  V30 16962 C 1611.45 -5.1749 -2.46964 0
M  V30 16963 N 1610.95 -6.31376 -2.85195 0
M  V30 16964 N 1612.74 -5.04846 -2.47158 0
M  V30 16965 H 1604.89 -2.12264 0.0758746 0
M  V30 16966 H 1607.15 -0.947566 -0.0286915 0
M  V30 16967 H 1606.86 -3.4474 -0.696203 0
M  V30 16968 H 1606.73 -2.93474 -2.36967 0
M  V30 16969 H 1609.12 -1.95587 -2.20975 0
M  V30 16970 H 1609.2 -2.50272 -0.528911 0
M  V30 16971 H 1608.85 -4.90532 -1.31685 0
M  V30 16972 H 1608.78 -4.32749 -3.0006 0
M  V30 16973 H 1611.27 -3.31771 -1.80933 0
M  V30 16974 H 1611.58 -7.06179 -3.13896 0
M  V30 16975 H 1609.92 -6.34804 -2.8293 0
M  V30 16976 H 1613.12 -4.14927 -2.16686 0
M  V30 16977 H 1613.29 -5.85651 -2.77339 0
M  V30 16978 N 1606.69 0.865285 -1.31722 0
M  V30 16979 C 1607.92 1.65661 -1.24785 0
M  V30 16980 C 1608.34 1.87208 0.182952 0
M  V30 16981 O 1607.7 1.41721 1.1307 0
M  V30 16982 C 1607.75 2.99921 -2.00199 0
M  V30 16983 O 1606.85 3.89936 -1.34253 0
M  V30 16984 H 1606.2 0.505459 -0.430589 0
M  V30 16985 H 1608.73 1.0785 -1.73867 0
M  V30 16986 H 1608.74 3.49823 -2.09971 0
M  V30 16987 H 1607.41 2.83559 -3.04249 0
M  V30 16988 H 1605.99 3.4839 -1.32961 0
M  V30 16989 N 1608.17 1.14759 1.0802 0
M  V30 16990 C 1609.41 0.928685 1.82085 0
M  V30 16991 C 1609.78 -0.534958 1.84397 0
M  V30 16992 O 1610.98 -0.871945 2.54265 0
M  V30 16993 C 1609.25 1.51791 3.23565 0
M  V30 16994 S 1610.81 1.44114 4.14459 0
M  V30 16995 H 1607.63 0.334389 0.627459 0
M  V30 16996 H 1610.23 1.46182 1.29812 0
M  V30 16997 H 1608.93 2.57622 3.19467 0
M  V30 16998 H 1608.46 0.983343 3.80912 0
M  V30 16999 H 1610.48 0.429366 4.94339 0
M  V30 17000 N 1609.65 -1.26251 0.943322 0
M  V30 17001 C 1610.88 -1.97739 0.608852 0
M  V30 17002 C 1611.29 -1.70225 -0.81663 0
M  V30 17003 O 1610.65 -0.97172 -1.54479 0
M  V30 17004 C 1610.7 -3.51505 0.844172 0
M  V30 17005 O 1610.42 -3.78063 2.21359 0
M  V30 17006 C 1611.92 -4.40233 0.52054 0
M  V30 17007 H 1609.14 -0.630619 0.229262 0
M  V30 17008 H 1611.69 -1.6071 1.26461 0
M  V30 17009 H 1609.84 -3.86687 0.23499 0
M  V30 17010 H 1610.26 -4.72582 2.27523 0
M  V30 17011 H 1611.73 -5.47074 0.735802 0
M  V30 17012 H 1612.21 -4.35811 -0.544541 0
M  V30 17013 H 1612.81 -4.10599 1.10854 0
M  V30 17014 N 1611.13 -0.710588 -1.40671 0
M  V30 17015 C 1612.06 -0.0694601 -2.33397 0
M  V30 17016 C 1613.04 0.750959 -1.52626 0
M  V30 17017 O 1614.23 0.700896 -1.81111 0
M  V30 17018 C 1611.36 0.856704 -3.36568 0
M  V30 17019 C 1610.31 0.142276 -4.27763 0
M  V30 17020 C 1609.64 1.18382 -5.21431 0
M  V30 17021 C 1610.94 -1.00052 -5.12627 0
M  V30 17022 H 1612.63 -0.843945 -2.87259 0
M  V30 17023 H 1610.18 -0.407287 -1.3812 0
M  V30 17024 H 1612.13 1.31457 -4.00371 0
M  V30 17025 H 1610.85 1.66303 -2.81089 0
M  V30 17026 H 1609.51 -0.295714 -3.65405 0
M  V30 17027 H 1609.16 1.98306 -4.62259 0
M  V30 17028 H 1608.86 0.71071 -5.83286 0
M  V30 17029 H 1610.38 1.64189 -5.88111 0
M  V30 17030 H 1611.8 -0.622246 -5.69913 0
M  V30 17031 H 1610.19 -1.40168 -5.83501 0
M  V30 17032 H 1611.26 -1.83345 -4.48902 0
M  V30 17033 N 1612.61 1.50847 -0.456408 0
M  V30 17034 C 1614.02 1.867 0.00222532 0
M  V30 17035 C 1614.37 1.37229 1.40224 0
M  V30 17036 O 1613.49 0.731052 2.03678 0
M  V30 17037 C 1614.09 3.38798 0.0108142 0
M  V30 17038 C 1612.65 3.74117 0.413924 0
M  V30 17039 C 1611.8 2.74671 -0.380933 0
M  V30 17040 H 1614.75 1.43799 -0.671379 0
M  V30 17041 H 1614.77 3.71642 0.816217 0
M  V30 17042 H 1614.28 3.74774 -1.00826 0
M  V30 17043 H 1612.38 3.43737 1.43789 0
M  V30 17044 H 1612.49 4.78936 0.125471 0
M  V30 17045 H 1610.86 2.54175 0.163385 0
M  V30 17046 H 1611.64 3.1349 -1.39924 0
M  V30 17047 N 1614.09 0.188454 1.56469 0
M  V30 17048 C 1615.5 -0.325309 1.83844 0
M  V30 17049 C 1615.85 -1.61858 1.1089 0
M  V30 17050 O 1614.97 -2.13256 0.36752 0
M  V30 17051 C 1615.57 -0.597002 3.33499 0
M  V30 17052 C 1614.13 -1.05515 3.61308 0
M  V30 17053 C 1613.27 -0.100182 2.77119 0
M  V30 17054 H 1616.22 0.412378 1.53249 0
M  V30 17055 H 1616.25 -1.44709 3.51908 0
M  V30 17056 H 1615.76 0.344429 3.86569 0
M  V30 17057 H 1613.86 -2.01109 3.13665 0
M  V30 17058 H 1613.97 -0.952461 4.69537 0
M  V30 17059 H 1612.34 -0.600815 2.47512 0
M  V30 17060 H 1613.12 0.835574 3.32976 0
M  V30 17061 N 1615.56 -1.5737 -0.0851874 0
M  V30 17062 C 1616.49 -2.05796 -1.10319 0
M  V30 17063 C 1617.47 -0.948796 -1.4118 0
M  V30 17064 O 1618.66 -1.22069 -1.51039 0
M  V30 17065 C 1615.79 -2.49069 -2.42037 0
M  V30 17066 C 1614.74 -3.6374 -2.25561 0
M  V30 17067 C 1614.07 -3.93023 -3.62543 0
M  V30 17068 C 1615.37 -4.94274 -1.68793 0
M  V30 17069 H 1617.06 -2.91095 -0.700274 0
M  V30 17070 H 1614.61 -1.40039 -0.335405 0
M  V30 17071 H 1616.56 -2.81558 -3.13534 0
M  V30 17072 H 1615.29 -1.60781 -2.84283 0
M  V30 17073 H 1613.95 -3.31513 -1.56507 0
M  V30 17074 H 1613.59 -3.01887 -4.02335 0
M  V30 17075 H 1613.29 -4.70229 -3.52362 0
M  V30 17076 H 1614.82 -4.27995 -4.35491 0
M  V30 17077 H 1616.23 -5.25079 -2.30141 0
M  V30 17078 H 1614.63 -5.75711 -1.69344 0
M  V30 17079 H 1615.7 -4.80548 -0.648204 0
M  V30 17080 N 1617.04 0.356258 -1.53521 0
M  V30 17081 C 1618.46 0.698546 -1.43501 0
M  V30 17082 C 1618.66 1.92926 -0.581547 0
M  V30 17083 O 1617.71 2.5241 -0.0675947 0
M  V30 17084 C 1619.03 0.903047 -2.8682 0
M  V30 17085 C 1620.57 1.00247 -2.96512 0
M  V30 17086 C 1621.05 1.23938 -4.40912 0
M  V30 17087 N 1622.54 1.30687 -4.44382 0
M  V30 17088 C 1623.28 1.50745 -5.5323 0
M  V30 17089 N 1622.77 1.68058 -6.72107 0
M  V30 17090 N 1624.56 1.5319 -5.40823 0
M  V30 17091 H 1616.72 -0.453102 -2.07511 0
M  V30 17092 H 1618.98 -0.140708 -0.937499 0
M  V30 17093 H 1618.68 0.070416 -3.5163 0
M  V30 17094 H 1618.56 1.80847 -3.3102 0
M  V30 17095 H 1620.95 1.82564 -2.3185 0
M  V30 17096 H 1621.03 0.0742303 -2.55692 0
M  V30 17097 H 1620.67 0.421189 -5.06151 0
M  V30 17098 H 1620.6 2.18098 -4.79313 0
M  V30 17099 H 1623.09 1.18883 -3.58713 0
M  V30 17100 H 1623.4 1.82963 -7.50829 0
M  V30 17101 H 1621.75 1.65219 -6.75076 0
M  V30 17102 H 1624.94 1.39237 -4.46912 0
M  V30 17103 H 1625.11 1.6848 -6.25714 0
M  V30 17104 N 1618.52 1.45038 0.616577 0
M  V30 17105 C 1619.75 1.51874 1.40064 0
M  V30 17106 C 1620.16 0.147105 1.88627 0
M  V30 17107 O 1619.5 -0.85995 1.62329 0
M  V30 17108 C 1619.56 2.43421 2.64549 0
M  V30 17109 C 1619.23 3.90326 2.37685 0
M  V30 17110 C 1620.22 4.80471 1.98605 0
M  V30 17111 C 1617.91 4.35163 2.50875 0
M  V30 17112 C 1619.9 6.13456 1.73064 0
M  V30 17113 C 1617.59 5.68192 2.24947 0
M  V30 17114 C 1618.59 6.57157 1.86102 0
M  V30 17115 O 1618.28 7.87721 1.60472 0
M  V30 17116 H 1618.01 0.517048 0.435474 0
M  V30 17117 H 1620.56 1.90826 0.759899 0
M  V30 17118 H 1618.79 1.99423 3.31312 0
M  V30 17119 H 1620.48 2.41042 3.26579 0
M  V30 17120 H 1621.25 4.47098 1.87959 0
M  V30 17121 H 1617.13 3.66165 2.80078 0
M  V30 17122 H 1620.67 6.82855 1.42669 0
M  V30 17123 H 1616.57 6.01122 2.35207 0
M  V30 17124 H 1617.33 7.99661 1.74598 0
M  V30 17125 N 1620 -0.858287 1.32179 0
M  V30 17126 C 1620.93 -1.97021 1.15143 0
M  V30 17127 C 1621.91 -1.62517 0.0518379 0
M  V30 17128 O 1623.09 -1.87321 0.210465 0
M  V30 17129 C 1620.22 -3.3002 0.761887 0
M  V30 17130 C 1619.27 -3.83504 1.8662 0
M  V30 17131 S 1620.1 -4.07535 3.47383 0
M  V30 17132 C 1621.25 -5.43514 3.10392 0
M  V30 17133 H 1621.49 -2.11169 2.09272 0
M  V30 17134 H 1619.02 -1.00983 1.16798 0
M  V30 17135 H 1620.98 -4.06881 0.543893 0
M  V30 17136 H 1619.64 -3.1369 -0.160479 0
M  V30 17137 H 1618.83 -4.79685 1.54655 0
M  V30 17138 H 1618.43 -3.13474 2.03986 0
M  V30 17139 H 1620.73 -6.2562 2.60011 0
M  V30 17140 H 1621.67 -5.80439 4.05581 0
M  V30 17141 H 1622.08 -5.07344 2.47511 0
M  V30 17142 N 1621.48 -1.1533 -1.07409 0
M  V30 17143 C 1622.72 -0.925974 -1.79639 0
M  V30 17144 C 1623.04 0.548365 -1.87131 0
M  V30 17145 O 1622.31 1.39854 -1.37178 0
M  V30 17146 H 1620.89 -0.339599 -0.665343 0
M  V30 17147 H 1623.56 -1.45383 -1.29806 0
M  V30 17148 H 1622.65 -1.33484 -2.82114 0
M  V30 17149 N 1622.95 1.25748 -0.950004 0
M  V30 17150 C 1623.86 2.29783 -0.472971 0
M  V30 17151 C 1624.88 1.6788 0.457403 0
M  V30 17152 O 1626.06 1.98598 0.334779 0
M  V30 17153 C 1623.12 3.45826 0.245955 0
M  V30 17154 C 1622.18 4.23184 -0.722063 0
M  V30 17155 C 1621.41 5.33687 -0.0373517 0
M  V30 17156 O 1621.64 5.58105 1.1779 0
M  V30 17157 O 1620.57 5.97572 -0.72054 0
M  V30 17158 H 1624.4 2.72668 -1.33737 0
M  V30 17159 H 1621.98 1.31111 -0.71626 0
M  V30 17160 H 1623.86 4.16348 0.650563 0
M  V30 17161 H 1622.54 3.04953 1.0856 0
M  V30 17162 H 1621.45 3.55109 -1.17679 0
M  V30 17163 H 1622.78 4.67829 -1.52959 0
M  V30 17164 N 1624.43 0.718038 1.40292 0
M  V30 17165 C 1625.71 0.185648 1.94717 0
M  V30 17166 C 1626.09 -1.30916 1.65603 0
M  V30 17167 O 1625.44 -2.06653 0.975031 0
M  V30 17168 C 1625.65 0.501015 3.45385 0
M  V30 17169 C 1626.99 0.441021 4.22303 0
M  V30 17170 O 1628.02 0.437217 3.53507 0
M  V30 17171 O 1626.88 0.420689 5.44878 0
M  V30 17172 H 1623.97 0.0281581 0.82652 0
M  V30 17173 H 1626.52 0.795738 1.49887 0
M  V30 17174 H 1625.29 1.5348 3.59944 0
M  V30 17175 H 1624.91 -0.138913 3.97357 0
M  V30 17176 N 1625.91 -1.50602 0.464402 0
M  V30 17177 C 1627.16 -2.01887 -0.0927084 0
M  V30 17178 C 1627.48 -1.34891 -1.40817 0
M  V30 17179 O 1626.75 -0.492078 -1.89619 0
M  V30 17180 H 1625.33 -0.746071 -0.0372514 0
M  V30 17181 H 1627.99 -1.84999 0.613296 0
M  V30 17182 H 1627.09 -3.11105 -0.249067 0
M  V30 17183 N 1627.39 -0.19675 -1.56367 0
M  V30 17184 C 1628.63 0.443732 -1.99525 0
M  V30 17185 C 1628.99 1.58685 -1.08088 0
M  V30 17186 O 1630.19 2.29164 -1.4049 0
M  V30 17187 C 1628.46 0.890565 -3.46127 0
M  V30 17188 S 1630.02 1.52865 -4.11312 0
M  V30 17189 H 1626.84 0.141834 -0.69671 0
M  V30 17190 H 1629.44 -0.300205 -1.93181 0
M  V30 17191 H 1628.15 0.0485587 -4.10371 0
M  V30 17192 H 1627.68 1.66793 -3.56292 0
M  V30 17193 H 1629.69 2.81743 -4.08455 0
M  V30 17194 N 1628.87 1.57413 0.0768405 0
M  V30 17195 C 1630.11 1.88144 0.772882 0
M  V30 17196 C 1630.47 0.789834 1.75441 0
M  V30 17197 O 1629.76 -0.206487 1.90484 0
M  V30 17198 C 1629.95 3.2324 1.52482 0
M  V30 17199 C 1629.78 4.45439 0.61762 0
M  V30 17200 C 1628.55 5.04649 0.256461 0
M  V30 17201 C 1630.75 5.14232 -0.0834364 0
M  V30 17202 N 1628.73 6.10374 -0.656988 0
M  V30 17203 C 1630.1 6.14087 -0.854262 0
M  V30 17204 C 1632.16 4.97657 -0.155439 0
M  V30 17205 C 1630.86 6.99155 -1.69039 0
M  V30 17206 C 1632.89 5.83248 -0.978528 0
M  V30 17207 C 1632.25 6.82637 -1.73742 0
M  V30 17208 H 1628.35 0.738071 0.258409 0
M  V30 17209 H 1630.93 1.94669 0.0346081 0
M  V30 17210 H 1629.1 3.17732 2.23385 0
M  V30 17211 H 1630.84 3.41637 2.16948 0
M  V30 17212 H 1627.59 4.69679 0.608199 0
M  V30 17213 H 1628.02 6.67891 -1.10681 0
M  V30 17214 H 1632.66 4.20739 0.416946 0
M  V30 17215 H 1630.38 7.75452 -2.27377 0
M  V30 17216 H 1633.96 5.72481 -1.03715 0
M  V30 17217 H 1632.84 7.47718 -2.36405 0
M  V30 17218 N 1630.34 -0.348112 1.53707 0
M  V30 17219 C 1631.57 -1.10742 1.74412 0
M  V30 17220 C 1631.98 -1.82982 0.481049 0
M  V30 17221 O 1631.33 -1.7506 -0.556759 0
M  V30 17222 C 1631.39 -2.16911 2.86687 0
M  V30 17223 C 1631.05 -1.64286 4.26449 0
M  V30 17224 C 1632.05 -1.09761 5.08182 0
M  V30 17225 C 1629.73 -1.69271 4.72919 0
M  V30 17226 C 1631.73 -0.609186 6.34482 0
M  V30 17227 C 1629.41 -1.20041 5.99194 0
M  V30 17228 C 1630.41 -0.659566 6.79808 0
M  V30 17229 O 1630.1 -0.174591 8.0371 0
M  V30 17230 H 1629.83 -0.336313 0.586404 0
M  V30 17231 H 1632.39 -0.407502 2.01317 0
M  V30 17232 H 1630.62 -2.90449 2.55297 0
M  V30 17233 H 1632.31 -2.78371 2.95405 0
M  V30 17234 H 1633.07 -1.05235 4.73445 0
M  V30 17235 H 1628.95 -2.10308 4.10234 0
M  V30 17236 H 1632.49 -0.186374 6.97351 0
M  V30 17237 H 1628.39 -1.24265 6.33426 0
M  V30 17238 H 1629.16 -0.292303 8.17978 0
M  V30 17239 N 1631.82 -1.45363 -0.608876 0
M  V30 17240 C 1633.07 -1.49018 -1.36522 0
M  V30 17241 C 1633.39 -0.132757 -1.94548 0
M  V30 17242 O 1632.66 0.837723 -1.77085 0
M  V30 17243 H 1631.24 -0.548775 -0.506809 0
M  V30 17244 H 1633.9 -1.81309 -0.715068 0
M  V30 17245 H 1633 -2.22826 -2.18529 0
M  V30 17246 N 1633.3 0.851265 -1.32632 0
M  V30 17247 C 1634.23 1.96408 -1.16187 0
M  V30 17248 C 1635.21 1.62488 -0.0604559 0
M  V30 17249 O 1636.4 1.87207 -0.220397 0
M  V30 17250 C 1633.52 3.29611 -0.779378 0
M  V30 17251 C 1632.57 3.82509 -1.88652 0
M  V30 17252 S 1633.4 4.05687 -3.4954 0
M  V30 17253 C 1634.56 5.4186 -3.1327 0
M  V30 17254 H 1634.79 2.10056 -2.10389 0
M  V30 17255 H 1632.32 1.00363 -1.17332 0
M  V30 17256 H 1634.28 4.06587 -0.565463 0
M  V30 17257 H 1632.94 3.1377 0.143841 0
M  V30 17258 H 1632.14 4.78858 -1.57196 0
M  V30 17259 H 1631.74 3.12388 -2.05645 0
M  V30 17260 H 1634.03 6.24233 -2.63325 0
M  V30 17261 H 1634.97 5.7828 -4.08654 0
M  V30 17262 H 1635.38 5.06025 -2.50199 0
M  V30 17263 N 1634.78 1.15898 1.06796 0
M  V30 17264 C 1635.69 0.87507 2.17669 0
M  V30 17265 C 1636.7 -0.150763 1.73346 0
M  V30 17266 O 1637.88 0.0246621 2.01385 0
M  V30 17267 C 1634.95 0.374555 3.44671 0
M  V30 17268 C 1634.01 1.46498 4.0353 0
M  V30 17269 C 1633.24 0.988256 5.2447 0
M  V30 17270 O 1633.46 -0.163992 5.70164 0
M  V30 17271 O 1632.4 1.7744 5.75151 0
M  V30 17272 H 1636.22 1.80208 2.44456 0
M  V30 17273 H 1633.81 0.93854 1.1624 0
M  V30 17274 H 1635.69 0.102161 4.21276 0
M  V30 17275 H 1634.36 -0.524513 3.19422 0
M  V30 17276 H 1633.27 1.79105 3.28439 0
M  V30 17277 H 1634.6 2.33917 4.33063 0
M  V30 17278 N 1636.26 -1.25243 0.956659 0
M  V30 17279 C 1637.51 -1.92312 0.608196 0
M  V30 17280 C 1637.82 -1.75726 -0.859058 0
M  V30 17281 O 1639.02 -2.37386 -1.31757 0
M  V30 17282 C 1637.48 -3.44634 1.03708 0
M  V30 17283 C 1637.09 -3.69927 2.52702 0
M  V30 17284 C 1638.83 -4.17619 0.761242 0
M  V30 17285 C 1636.74 -5.15765 2.8938 0
M  V30 17286 H 1635.67 -0.720033 0.22376 0
M  V30 17287 H 1638.32 -1.42071 1.16138 0
M  V30 17288 H 1636.7 -3.93848 0.412287 0
M  V30 17289 H 1637.88 -3.31357 3.20217 0
M  V30 17290 H 1636.19 -3.10207 2.77778 0
M  V30 17291 H 1638.79 -5.25047 1.01141 0
M  V30 17292 H 1639.13 -4.152 -0.302375 0
M  V30 17293 H 1639.66 -3.74319 1.34648 0
M  V30 17294 H 1636.4 -5.23296 3.94767 0
M  V30 17295 H 1635.92 -5.55374 2.26539 0
M  V30 17296 H 1637.6 -5.83905 2.78683 0
M  V30 17297 N 1637.73 -0.725468 -1.3991 0
M  V30 17298 C 1639.15 -0.400048 -1.54505 0
M  V30 17299 C 1639.35 1.09014 -1.69464 0
M  V30 17300 O 1638.41 1.87624 -1.68977 0
M  V30 17301 C 1639.72 -1.17474 -2.76804 0
M  V30 17302 C 1641.27 -1.16202 -2.9063 0
M  V30 17303 C 1641.74 -1.91908 -4.15855 0
M  V30 17304 N 1643.23 -1.89026 -4.22875 0
M  V30 17305 C 1643.97 -2.4442 -5.18697 0
M  V30 17306 N 1643.46 -3.0841 -6.20367 0
M  V30 17307 N 1645.26 -2.34506 -5.10846 0
M  V30 17308 H 1637.41 -1.6916 -1.28447 0
M  V30 17309 H 1639.67 -0.715556 -0.621839 0
M  V30 17310 H 1639.38 -2.22881 -2.72061 0
M  V30 17311 H 1639.25 -0.772871 -3.69197 0
M  V30 17312 H 1641.64 -0.116116 -2.94871 0
M  V30 17313 H 1641.72 -1.60319 -1.99327 0
M  V30 17314 H 1641.36 -2.96494 -4.12375 0
M  V30 17315 H 1641.29 -1.45204 -5.06185 0
M  V30 17316 H 1643.78 -1.42399 -3.50044 0
M  V30 17317 H 1644.1 -3.48169 -6.89926 0
M  V30 17318 H 1642.44 -3.12497 -6.20782 0
M  V30 17319 H 1645.63 -1.84164 -4.3035 0
M  V30 17320 H 1645.81 -2.77976 -5.85349 0
M  V30 17321 N 1639.21 1.50354 -0.472382 0
M  V30 17322 C 1640.62 1.86692 -0.0175768 0
M  V30 17323 C 1640.97 1.38708 1.3876 0
M  V30 17324 O 1640.1 0.752614 2.02891 0
M  V30 17325 C 1640.69 3.38791 -0.0251205 0
M  V30 17326 C 1639.25 3.74535 0.37422 0
M  V30 17327 C 1638.4 2.74252 -0.410045 0
M  V30 17328 H 1641.35 1.43079 -0.686593 0
M  V30 17329 H 1641.37 3.72487 0.776754 0
M  V30 17330 H 1640.88 3.73684 -1.04795 0
M  V30 17331 H 1638.99 3.45243 1.40135 0
M  V30 17332 H 1639.1 4.79042 0.0746666 0
M  V30 17333 H 1637.46 2.54334 0.136417 0
M  V30 17334 H 1638.25 3.11989 -1.43241 0
M  V30 17335 N 1640.69 0.205039 1.56261 0
M  V30 17336 C 1641.94 -0.431364 1.97033 0
M  V30 17337 C 1642.25 -1.62066 1.09517 0
M  V30 17338 O 1643.46 -2.32551 1.40116 0
M  V30 17339 C 1641.92 -0.818841 3.50461 0
M  V30 17340 C 1641.52 0.346723 4.46656 0
M  V30 17341 C 1643.27 -1.42177 3.99982 0
M  V30 17342 C 1641.17 -0.0622677 5.91367 0
M  V30 17343 H 1640.1 -0.164934 0.73574 0
M  V30 17344 H 1642.76 0.298635 1.81054 0
M  V30 17345 H 1641.14 -1.60579 3.61981 0
M  V30 17346 H 1642.31 1.12427 4.46874 0
M  V30 17347 H 1640.63 0.861799 4.07384 0
M  V30 17348 H 1643.22 -1.74039 5.05583 0
M  V30 17349 H 1643.57 -2.33177 3.44868 0
M  V30 17350 H 1644.1 -0.698591 3.91618 0
M  V30 17351 H 1640.84 0.813802 6.50429 0
M  V30 17352 H 1640.36 -0.804474 5.94381 0
M  V30 17353 H 1642.04 -0.49466 6.45106 0
M  V30 17354 N 1642.17 -1.57451 -0.0684915 0
M  V30 17355 C 1643.12 -2.04959 -1.09975 0
M  V30 17356 C 1644.11 -0.955558 -1.39877 0
M  V30 17357 O 1645.32 -1.14066 -1.39245 0
M  V30 17358 H 1641.69 -0.653542 -0.372003 0
M  V30 17359 H 1643.66 -2.90713 -0.67294 0
M  V30 17360 C 1642.41 -2.51192 -2.40412 0
M  V30 17361 H 1641.74 -3.3497 -2.18254 0
M  V30 17362 H 1643.18 -2.88183 -3.11008 0
M  V30 17363 C 1641.63 -1.39624 -3.06605 0
M  V30 17364 O 1642.16 -0.740191 -3.94822 0
M  V30 17365 N 1640.37 -1.14054 -2.67283 0
M  V30 17366 H 1639.92 -1.67585 -1.95635 0
M  V30 17367 H 1639.88 -0.396106 -3.11895 0
M  V30 17368 N 1643.65 0.339955 -1.5389 0
M  V30 17369 C 1644.56 1.441 -1.85128 0
M  V30 17370 C 1645.57 1.57399 -0.741733 0
M  V30 17371 O 1646.75 1.72807 -1.0344 0
M  V30 17372 C 1643.81 2.7904 -2.05761 0
M  V30 17373 C 1642.88 2.75055 -3.29611 0
M  V30 17374 C 1642.11 4.0356 -3.4925 0
M  V30 17375 O 1642.33 5.01015 -2.72653 0
M  V30 17376 O 1641.27 4.07813 -4.42687 0
M  V30 17377 H 1645.09 1.20616 -2.78721 0
M  V30 17378 H 1642.68 0.532468 -1.39589 0
M  V30 17379 H 1644.56 3.5895 -2.20756 0
M  V30 17380 H 1643.23 3.02447 -1.15357 0
M  V30 17381 H 1642.14 1.93753 -3.20016 0
M  V30 17382 H 1643.47 2.56602 -4.20019 0
M  V30 17383 N 1645.13 1.45684 0.601159 0
M  V30 17384 C 1646.07 1.54846 1.71147 0
M  V30 17385 C 1647.04 0.393914 1.61361 0
M  V30 17386 O 1648.23 0.608222 1.80846 0
M  V30 17387 C 1645.37 1.52723 3.09467 0
M  V30 17388 C 1644.48 2.78776 3.30012 0
M  V30 17389 C 1643.62 2.68281 4.58474 0
M  V30 17390 C 1642.65 3.89358 4.72299 0
M  V30 17391 N 1641.79 3.77359 5.92068 0
M  V30 17392 H 1646.63 2.49696 1.62653 0
M  V30 17393 H 1644.17 1.23894 0.793006 0
M  V30 17394 H 1646.13 1.49479 3.89502 0
M  V30 17395 H 1644.76 0.614189 3.16903 0
M  V30 17396 H 1643.81 2.9208 2.43708 0
M  V30 17397 H 1645.12 3.68563 3.36099 0
M  V30 17398 H 1644.27 2.63039 5.46713 0
M  V30 17399 H 1643.01 1.76103 4.54795 0
M  V30 17400 H 1642.02 3.94952 3.82482 0
M  V30 17401 H 1643.24 4.82609 4.77771 0
M  V30 17402 H 1641.19 2.87955 5.89422 0
M  V30 17403 H 1641.11 4.60786 5.99343 0
M  V30 17404 H 1642.37 3.76061 6.82787 0
M  V30 17405 N 1646.6 -0.84422 1.33082 0
M  V30 17406 C 1647.51 -1.9858 1.24913 0
M  V30 17407 C 1648.53 -1.73256 0.160708 0
M  V30 17408 O 1649.71 -1.97719 0.383313 0
M  V30 17409 C 1646.77 -3.32471 0.983063 0
M  V30 17410 C 1645.83 -3.70946 2.16096 0
M  V30 17411 C 1645.06 -4.98448 1.90749 0
M  V30 17412 O 1645.29 -5.63953 0.855173 0
M  V30 17413 O 1644.22 -5.34301 2.7714 0
M  V30 17414 H 1648.05 -2.0841 2.20905 0
M  V30 17415 H 1645.63 -0.976447 1.13075 0
M  V30 17416 H 1647.51 -4.12705 0.851612 0
M  V30 17417 H 1646.19 -3.23656 0.053384 0
M  V30 17418 H 1645.1 -2.91244 2.34793 0
M  V30 17419 H 1646.43 -3.8442 3.07379 0
M  V30 17420 N 1648.08 -1.16463 -1.0618 0
M  V30 17421 C 1648.99 -0.886601 -2.17202 0
M  V30 17422 C 1650.01 0.141568 -1.73423 0
M  V30 17423 O 1651.18 -0.0353417 -2.01369 0
M  V30 17424 C 1648.25 -0.392829 -3.44467 0
M  V30 17425 C 1647.31 -1.48636 -4.02748 0
M  V30 17426 C 1646.54 -1.01606 -5.23939 0
M  V30 17427 O 1646.77 0.133753 -5.70243 0
M  V30 17428 O 1645.7 -1.80487 -5.74202 0
M  V30 17429 H 1649.53 -1.81502 -2.43497 0
M  V30 17430 H 1647.11 -0.944691 -1.15741 0
M  V30 17431 H 1648.99 -0.124501 -4.21216 0
M  V30 17432 H 1647.67 0.507566 -3.19696 0
M  V30 17433 H 1646.57 -1.80845 -3.27484 0
M  V30 17434 H 1647.91 -2.3621 -4.31817 0
M  V30 17435 N 1649.56 1.24734 -0.963288 0
M  V30 17436 C 1650.51 2.27557 -0.481704 0
M  V30 17437 C 1651.5 1.63245 0.452488 0
M  V30 17438 O 1652.71 1.76981 0.328263 0
M  V30 17439 H 1649.08 0.73936 -0.137297 0
M  V30 17440 H 1651.05 2.65555 -1.361 0
M  V30 17441 C 1649.8 3.47023 0.216806 0
M  V30 17442 H 1649.13 3.9675 -0.492916 0
M  V30 17443 H 1650.57 4.20828 0.517659 0
M  V30 17444 C 1649.02 3.04466 1.44229 0
M  V30 17445 O 1649.55 3.11238 2.53956 0
M  V30 17446 N 1647.76 2.59563 1.30674 0
M  V30 17447 H 1647.31 2.54252 0.41395 0
M  V30 17448 H 1647.27 2.31453 2.12783 0
M  V30 17449 N 1651.04 0.732878 1.39523 0
M  V30 17450 C 1651.97 0.0403016 2.28164 0
M  V30 17451 C 1652.95 -0.749899 1.44275 0
M  V30 17452 O 1654.13 -0.732905 1.73669 0
M  V30 17453 C 1651.26 -0.95013 3.251 0
M  V30 17454 C 1650.31 -0.248672 4.25774 0
M  V30 17455 S 1651.14 1.03584 5.25386 0
M  V30 17456 C 1652.29 0.0479532 6.25882 0
M  V30 17457 H 1652.53 0.792023 2.86556 0
M  V30 17458 H 1650.06 0.524589 1.45215 0
M  V30 17459 H 1652.02 -1.51629 3.81469 0
M  V30 17460 H 1650.68 -1.67467 2.65732 0
M  V30 17461 H 1649.87 -0.998025 4.9402 0
M  V30 17462 H 1649.47 0.245398 3.73194 0
M  V30 17463 H 1651.77 -0.793145 6.72841 0
M  V30 17464 H 1652.71 0.69749 7.04656 0
M  V30 17465 H 1653.12 -0.323498 5.63572 0
M  V30 17466 N 1652.52 -1.50101 0.480349 0
M  V30 17467 C 1653.76 -2.02674 -0.0715373 0
M  V30 17468 C 1654.09 -1.36095 -1.38535 0
M  V30 17469 O 1653.37 -0.489703 -1.88234 0
M  V30 17470 C 1653.65 -3.59261 -0.245693 0
M  V30 17471 C 1653.51 -4.36399 1.08979 0
M  V30 17472 C 1654.82 -4.28682 -0.995966 0
M  V30 17473 H 1651.94 -0.736592 -0.0245244 0
M  V30 17474 H 1654.59 -1.7933 0.627743 0
M  V30 17475 H 1652.74 -3.79281 -0.841308 0
M  V30 17476 H 1654.41 -4.27926 1.72269 0
M  V30 17477 H 1652.65 -3.99773 1.68417 0
M  V30 17478 H 1653.32 -5.44254 0.921468 0
M  V30 17479 H 1655.8 -4.13193 -0.491025 0
M  V30 17480 H 1654.67 -5.38037 -1.08663 0
M  V30 17481 H 1654.93 -3.92491 -2.03479 0
M  V30 17482 N 1653.99 -0.213323 -1.5615 0
M  V30 17483 C 1654.94 0.700175 -2.19923 0
M  V30 17484 C 1655.91 1.19641 -1.15218 0
M  V30 17485 O 1657.1 1.257 -1.43542 0
M  V30 17486 C 1654.24 1.90629 -2.87671 0
M  V30 17487 C 1653.35 1.44973 -4.06948 0
M  V30 17488 C 1652.48 2.61277 -4.62502 0
M  V30 17489 C 1651.52 2.12316 -5.74098 0
M  V30 17490 N 1650.66 3.21862 -6.23978 0
M  V30 17491 H 1655.5 0.14961 -2.97624 0
M  V30 17492 H 1653.04 0.0620957 -1.46969 0
M  V30 17493 H 1654.99 2.61431 -3.2513 0
M  V30 17494 H 1653.62 2.42987 -2.12502 0
M  V30 17495 H 1652.68 0.636917 -3.7503 0
M  V30 17496 H 1653.99 1.05065 -4.87609 0
M  V30 17497 H 1653.14 3.40174 -5.02361 0
M  V30 17498 H 1651.88 3.04468 -3.80987 0
M  V30 17499 H 1650.89 1.31877 -5.33749 0
M  V30 17500 H 1652.11 1.70134 -6.57443 0
M  V30 17501 H 1650.06 3.64551 -5.45379 0
M  V30 17502 H 1649.97 2.86181 -6.9974 0
M  V30 17503 H 1651.24 4.0092 -6.68493 0
M  V30 17504 N 1655.47 1.57485 0.0601405 0
M  V30 17505 C 1656.7 1.92438 0.773466 0
M  V30 17506 C 1657.12 0.810755 1.6973 0
M  V30 17507 O 1656.48 -0.235697 1.79761 0
M  V30 17508 C 1656.53 3.26381 1.53323 0
M  V30 17509 O 1655.63 3.16436 2.64465 0
M  V30 17510 H 1654.97 0.629838 0.210239 0
M  V30 17511 H 1657.5 2.04585 0.0248981 0
M  V30 17512 H 1657.51 3.60534 1.90996 0
M  V30 17513 H 1656.19 4.07007 0.855468 0
M  V30 17514 H 1654.77 2.93862 2.29564 0
M  V30 17515 N 1656.95 -0.331789 1.54068 0
M  V30 17516 C 1657.88 -1.41332 1.8587 0
M  V30 17517 C 1658.86 -1.54353 0.714787 0
M  V30 17518 O 1660.05 -1.68368 0.967777 0
M  V30 17519 C 1657.18 -2.78218 2.07875 0
M  V30 17520 C 1656.13 -2.79994 3.23709 0
M  V30 17521 C 1655.46 -4.19878 3.31069 0
M  V30 17522 C 1656.76 -2.44476 4.6155 0
M  V30 17523 H 1658.45 -1.14966 2.76447 0
M  V30 17524 H 1656 -0.551615 1.33016 0
M  V30 17525 H 1657.95 -3.53937 2.28706 0
M  V30 17526 H 1656.67 -3.06044 1.14038 0
M  V30 17527 H 1655.33 -2.0673 3.02751 0
M  V30 17528 H 1654.98 -4.44831 2.34807 0
M  V30 17529 H 1654.68 -4.21974 4.08915 0
M  V30 17530 H 1656.2 -4.97421 3.54125 0
M  V30 17531 H 1657.62 -3.09908 4.82317 0
M  V30 17532 H 1656.02 -2.57837 5.41886 0
M  V30 17533 H 1657.09 -1.3964 4.64358 0
M  V30 17534 N 1658.43 -1.46001 -0.593424 0
M  V30 17535 C 1659.39 -1.55347 -1.68523 0
M  V30 17536 C 1660.39 -0.431599 -1.549 0
M  V30 17537 O 1661.58 -0.695559 -1.59711 0
M  V30 17538 C 1658.71 -1.46355 -3.07885 0
M  V30 17539 H 1659.91 -2.52639 -1.61597 0
M  V30 17540 H 1657.46 -1.33652 -0.810363 0
M  V30 17541 H 1658.19 -0.503024 -3.20375 0
M  V30 17542 H 1657.98 -2.27741 -3.19181 0
M  V30 17543 H 1659.47 -1.55958 -3.87385 0
M  V30 17544 N 1659.91 0.83715 -1.33527 0
M  V30 17545 C 1661.13 1.62976 -1.28271 0
M  V30 17546 C 1661.56 1.87554 0.143201 0
M  V30 17547 O 1660.91 1.44088 1.10038 0
M  V30 17548 C 1660.96 2.95607 -2.06516 0
M  V30 17549 O 1660.07 3.87 -1.42494 0
M  V30 17550 H 1659.41 0.496212 -0.441214 0
M  V30 17551 H 1661.94 1.04137 -1.76115 0
M  V30 17552 H 1661.95 3.4529 -2.17344 0
M  V30 17553 H 1660.62 2.77041 -3.10195 0
M  V30 17554 H 1659.2 3.45492 -1.40321 0
M  V30 17555 N 1661.38 1.17024 1.05561 0
M  V30 17556 C 1662.35 0.885897 2.11387 0
M  V30 17557 C 1663.35 -0.122327 1.60334 0
M  V30 17558 O 1664.54 0.109416 1.73856 0
M  V30 17559 C 1661.67 0.32626 3.39335 0
M  V30 17560 H 1662.86 1.82414 2.38045 0
M  V30 17561 H 1660.42 0.980191 1.21745 0
M  V30 17562 H 1661.15 -0.619308 3.18332 0
M  V30 17563 H 1660.94 1.05285 3.777 0
M  V30 17564 H 1662.43 0.145513 4.17346 0
M  V30 17565 N 1662.86 -1.24221 0.969889 0
M  V30 17566 C 1664.11 -1.91973 0.631725 0
M  V30 17567 C 1664.43 -1.76169 -0.836032 0
M  V30 17568 O 1663.7 -1.13459 -1.597 0
M  V30 17569 H 1662.28 -0.710497 0.230658 0
M  V30 17570 H 1664.94 -1.51069 1.23143 0
M  V30 17571 H 1664.04 -2.99606 0.874223 0
M  V30 17572 N 1664.34 -0.740267 -1.39132 0
M  V30 17573 C 1665.57 -0.299605 -2.05225 0
M  V30 17574 C 1665.99 1.05904 -1.55454 0
M  V30 17575 O 1665.35 1.67216 -0.700603 0
M  V30 17576 C 1665.4 -0.316792 -3.59206 0
M  V30 17577 O 1664.5 0.693786 -4.06522 0
M  V30 17578 H 1663.84 -0.135146 -0.650101 0
M  V30 17579 H 1666.37 -1.00766 -1.78065 0
M  V30 17580 H 1666.38 -0.163013 -4.07674 0
M  V30 17581 H 1665.06 -1.30814 -3.94792 0
M  V30 17582 H 1663.63 0.505712 -3.69455 0
M  V30 17583 N 1665.82 1.49844 -0.488302 0
M  V30 17584 C 1667.07 2.02009 0.0605782 0
M  V30 17585 C 1667.39 1.37114 1.38653 0
M  V30 17586 O 1666.66 0.522182 1.88812 0
M  V30 17587 H 1665.24 0.746569 0.0253773 0
M  V30 17588 H 1667.9 1.84 -0.64265 0
M  V30 17589 H 1667 3.11461 0.199542 0
M  V30 17590 N 1667.3 0.221601 1.56034 0
M  V30 17591 C 1668.24 -0.688502 2.20291 0
M  V30 17592 C 1669.21 -1.19028 1.15851 0
M  V30 17593 O 1670.4 -1.24936 1.44206 0
M  V30 17594 C 1667.54 -1.89101 2.88678 0
M  V30 17595 C 1666.65 -1.42812 4.07711 0
M  V30 17596 C 1665.79 -2.5882 4.63881 0
M  V30 17597 C 1664.83 -2.09268 5.75216 0
M  V30 17598 N 1663.96 -3.18549 6.25676 0
M  V30 17599 H 1668.8 -0.133824 2.97699 0
M  V30 17600 H 1666.34 -0.0543007 1.47 0
M  V30 17601 H 1668.3 -2.59704 3.26512 0
M  V30 17602 H 1666.93 -2.41857 2.13788 0
M  V30 17603 H 1665.98 -0.617019 3.75363 0
M  V30 17604 H 1667.29 -1.02478 4.8816 0
M  V30 17605 H 1666.45 -3.37505 5.04158 0
M  V30 17606 H 1665.18 -3.02443 3.82596 0
M  V30 17607 H 1664.19 -1.29045 5.34441 0
M  V30 17608 H 1665.41 -1.66645 6.58336 0
M  V30 17609 H 1663.36 -3.61653 5.47305 0
M  V30 17610 H 1663.28 -2.82466 7.01248 0
M  V30 17611 H 1664.55 -3.97369 6.7061 0
M  V30 17612 N 1668.77 -1.57515 -0.0517878 0
M  V30 17613 C 1670.02 -1.88493 -0.748206 0
M  V30 17614 C 1670.35 -0.816494 -1.76202 0
M  V30 17615 O 1669.63 0.171075 -1.93746 0
M  V30 17616 C 1669.91 -3.30131 -1.43825 0
M  V30 17617 C 1669.76 -4.47648 -0.4395 0
M  V30 17618 C 1671.08 -3.70315 -2.37813 0
M  V30 17619 H 1668.2 -0.68555 -0.270537 0
M  V30 17620 H 1670.84 -1.89997 -0.0111457 0
M  V30 17621 H 1668.99 -3.2898 -2.06651 0
M  V30 17622 H 1670.67 -4.60929 0.185088 0
M  V30 17623 H 1668.91 -4.33117 0.243381 0
M  V30 17624 H 1669.58 -5.43582 -0.96035 0
M  V30 17625 H 1672.06 -3.72687 -1.8505 0
M  V30 17626 H 1670.93 -4.70269 -2.83087 0
M  V30 17627 H 1671.19 -3.0133 -3.23501 0
M  V30 17628 N 1670.25 0.323614 -1.54242 0
M  V30 17629 C 1671.53 1.07979 -1.63095 0
M  V30 17630 C 1671.91 2.0592 -0.464774 0
M  V30 17631 O 1671.26 2.22004 0.540961 0
M  V30 17632 C 1671.47 1.78178 -3.0009 0
M  V30 17633 C 1672.82 2.31201 -3.56134 0
M  V30 17634 O 1673.84 1.88245 -3.02394 0
M  V30 17635 O 1672.7 3.09843 -4.50177 0
M  V30 17636 H 1669.79 0.497726 -0.660453 0
M  V30 17637 H 1672.34 0.323509 -1.66588 0
M  V30 17638 H 1671.11 1.06938 -3.76404 0
M  V30 17639 H 1670.73 2.60616 -3.00275 0
M  V30 17640 N 1671.73 1.46313 0.585673 0
M  V30 17641 C 1672.68 1.57018 1.71604 0
M  V30 17642 C 1673.67 0.438838 1.63617 0
M  V30 17643 O 1674.88 0.615597 1.69146 0
M  V30 17644 H 1671.25 0.493616 0.567316 0
M  V30 17645 H 1673.23 2.52065 1.59706 0
M  V30 17646 C 1671.97 1.57482 3.09992 0
M  V30 17647 H 1671.3 2.43872 3.16806 0
M  V30 17648 H 1672.74 1.69027 3.88852 0
M  V30 17649 C 1671.2 0.302944 3.35535 0
M  V30 17650 O 1671.73 -0.608066 3.97071 0
M  V30 17651 N 1669.93 0.191781 2.89966 0
M  V30 17652 H 1669.48 0.934025 2.4007 0
M  V30 17653 H 1669.44 -0.658341 3.0743 0
M  V30 17654 N 1673.21 -0.830057 1.33969 0
M  V30 17655 C 1674.46 -1.58586 1.25924 0
M  V30 17656 C 1674.78 -1.93732 -0.172685 0
M  V30 17657 O 1674.04 -1.59628 -1.13214 0
M  V30 17658 C 1674.34 -2.90026 2.08853 0
M  V30 17659 C 1674 -2.74204 3.57943 0
M  V30 17660 C 1672.67 -2.69596 3.98587 0
M  V30 17661 C 1675.02 -2.58384 4.52644 0
M  V30 17662 C 1672.35 -2.4708 5.32135 0
M  V30 17663 C 1674.7 -2.37401 5.86365 0
M  V30 17664 C 1673.36 -2.31201 6.26181 0
M  V30 17665 H 1672.63 -0.580306 0.460789 0
M  V30 17666 H 1675.28 -0.960978 1.65643 0
M  V30 17667 H 1673.58 -3.56767 1.6194 0
M  V30 17668 H 1675.28 -3.47576 1.99979 0
M  V30 17669 H 1671.87 -2.78627 3.25676 0
M  V30 17670 H 1676.06 -2.60972 4.22146 0
M  V30 17671 H 1671.31 -2.40733 5.62012 0
M  V30 17672 H 1675.49 -2.24146 6.59342 0
M  V30 17673 H 1673.11 -2.13515 7.29599 0
M  V30 17674 N 1674.69 -1.17582 -1.04939 0
M  V30 17675 C 1675.92 -0.990398 -1.81656 0
M  V30 17676 C 1676.33 0.461324 -1.83077 0
M  V30 17677 O 1675.69 1.32037 -1.25986 0
M  V30 17678 C 1675.74 -1.52719 -3.27657 0
M  V30 17679 O 1675.46 -2.92206 -3.26415 0
M  V30 17680 C 1676.96 -1.38671 -4.21053 0
M  V30 17681 H 1674.18 -0.35024 -0.57234 0
M  V30 17682 H 1676.72 -1.5593 -1.32311 0
M  V30 17683 H 1674.88 -1.00026 -3.74264 0
M  V30 17684 H 1675.29 -3.17068 -4.17814 0
M  V30 17685 H 1676.77 -1.8104 -5.21468 0
M  V30 17686 H 1677.24 -0.334151 -4.37927 0
M  V30 17687 H 1677.85 -1.90393 -3.80303 0
M  V30 17688 N 1676.17 1.23705 -0.976463 0
M  V30 17689 C 1677.1 2.2355 -0.458309 0
M  V30 17690 C 1678.08 1.55586 0.472414 0
M  V30 17691 O 1679.26 1.84169 0.40177 0
M  V30 17692 C 1676.39 3.37015 0.337422 0
M  V30 17693 C 1675.43 4.23108 -0.536865 0
M  V30 17694 S 1676.27 4.97456 -1.98236 0
M  V30 17695 C 1677.42 6.14374 -1.19566 0
M  V30 17696 H 1677.66 2.67156 -1.30442 0
M  V30 17697 H 1675.19 1.33123 -0.782157 0
M  V30 17698 H 1677.15 4.02816 0.790531 0
M  V30 17699 H 1675.81 2.91951 1.15861 0
M  V30 17700 H 1675 5.03945 0.07453 0
M  V30 17701 H 1674.6 3.62354 -0.926058 0
M  V30 17702 H 1676.89 6.7597 -0.455017 0
M  V30 17703 H 1677.84 6.79891 -1.97872 0
M  V30 17704 H 1678.25 5.59939 -0.716175 0
M  V30 17705 N 1677.64 0.747635 1.38738 0
M  V30 17706 C 1678.89 0.300552 1.99853 0
M  V30 17707 C 1679.21 -1.11986 1.59638 0
M  V30 17708 O 1678.48 -1.76477 0.850447 0
M  V30 17709 H 1677.06 0.108134 0.739132 0
M  V30 17710 H 1679.72 0.960405 1.69594 0
M  V30 17711 H 1678.82 0.358956 3.10029 0
M  V30 17712 N 1679.12 -1.49583 0.496242 0
M  V30 17713 C 1680.37 -2.02738 -0.050037 0
M  V30 17714 C 1680.7 -1.37556 -1.37083 0
M  V30 17715 O 1679.98 -0.50964 -1.87704 0
M  V30 17716 C 1680.26 -3.59501 -0.207575 0
M  V30 17717 C 1680.11 -4.35218 1.13601 0
M  V30 17718 C 1681.43 -4.29715 -0.950443 0
M  V30 17719 H 1678.55 -0.736811 -0.0167105 0
M  V30 17720 H 1681.19 -1.78654 0.646728 0
M  V30 17721 H 1679.34 -3.80152 -0.801033 0
M  V30 17722 H 1681.01 -4.26075 1.76798 0
M  V30 17723 H 1679.26 -3.97964 1.72648 0
M  V30 17724 H 1679.93 -5.43247 0.979142 0
M  V30 17725 H 1682.4 -4.1369 -0.447173 0
M  V30 17726 H 1681.28 -5.39159 -1.02951 0
M  V30 17727 H 1681.54 -3.94627 -1.99304 0
M  V30 17728 N 1680.6 -0.229873 -1.55915 0
M  V30 17729 C 1681.53 0.671321 -2.23642 0
M  V30 17730 C 1682.51 1.19461 -1.21091 0
M  V30 17731 O 1683.7 1.23708 -1.49699 0
M  V30 17732 C 1680.83 1.87595 -2.92276 0
M  V30 17733 C 1679.78 1.48616 -4.01369 0
M  V30 17734 C 1679.11 2.77024 -4.57342 0
M  V30 17735 C 1680.41 0.669928 -5.17986 0
M  V30 17736 H 1682.1 0.106622 -2.9921 0
M  V30 17737 H 1679.65 0.0498418 -1.43914 0
M  V30 17738 H 1681.6 2.51191 -3.3835 0
M  V30 17739 H 1680.32 2.46576 -2.14168 0
M  V30 17740 H 1678.98 0.873623 -3.56038 0
M  V30 17741 H 1678.63 3.34166 -3.75955 0
M  V30 17742 H 1678.33 2.51674 -5.30975 0
M  V30 17743 H 1679.85 3.41548 -5.0614 0
M  V30 17744 H 1681.27 1.20978 -5.6039 0
M  V30 17745 H 1679.66 0.513174 -5.97902 0
M  V30 17746 H 1680.73 -0.321644 -4.83832 0
M  V30 17747 N 1682.08 1.5754 0.0434337 0
M  V30 17748 C 1683.32 1.90452 0.742119 0
M  V30 17749 C 1683.68 0.826884 1.73282 0
M  V30 17750 O 1684.88 1.0399 2.4787 0
M  V30 17751 C 1683.15 3.28549 1.40679 0
M  V30 17752 S 1684.71 3.83268 2.13662 0
M  V30 17753 H 1681.53 0.667021 0.246178 0
M  V30 17754 H 1684.13 1.955 -0.00280947 0
M  V30 17755 H 1682.84 4.04856 0.672322 0
M  V30 17756 H 1682.37 3.26769 2.19056 0
M  V30 17757 H 1684.38 3.60836 3.40605 0
M  V30 17758 N 1683.56 -0.31543 1.54411 0
M  V30 17759 C 1684.49 -1.39353 1.87358 0
M  V30 17760 C 1685.47 -1.53586 0.731118 0
M  V30 17761 O 1686.65 -1.67332 0.98558 0
M  V30 17762 C 1683.78 -2.75998 2.10814 0
M  V30 17763 C 1682.74 -2.76545 3.2666 0
M  V30 17764 C 1682.06 -4.16343 3.35504 0
M  V30 17765 C 1683.36 -2.39567 4.64117 0
M  V30 17766 H 1685.06 -1.12028 2.77651 0
M  V30 17767 H 1682.6 -0.537476 1.33593 0
M  V30 17768 H 1684.55 -3.51491 2.32447 0
M  V30 17769 H 1683.28 -3.04817 1.17278 0
M  V30 17770 H 1681.94 -2.03507 3.04927 0
M  V30 17771 H 1681.59 -4.42316 2.39512 0
M  V30 17772 H 1681.29 -4.17613 4.13368 0
M  V30 17773 H 1682.81 -4.93637 3.59381 0
M  V30 17774 H 1684.22 -3.04775 4.85577 0
M  V30 17775 H 1682.62 -2.52075 5.4459 0
M  V30 17776 H 1683.69 -1.34707 4.65813 0
M  V30 17777 N 1685.03 -1.46622 -0.577906 0
M  V30 17778 C 1686 -1.57126 -1.66865 0
M  V30 17779 C 1687 -0.448004 -1.54433 0
M  V30 17780 O 1688.19 -0.712459 -1.58964 0
M  V30 17781 C 1685.32 -1.49612 -3.06315 0
M  V30 17782 H 1686.51 -2.54338 -1.58909 0
M  V30 17783 H 1684.07 -1.34504 -0.796142 0
M  V30 17784 H 1684.8 -0.536976 -3.19823 0
M  V30 17785 H 1684.59 -2.31113 -3.16748 0
M  V30 17786 H 1686.08 -1.60058 -3.85709 0
M  V30 17787 N 1686.51 0.822941 -1.34408 0
M  V30 17788 C 1687.76 1.57418 -1.26105 0
M  V30 17789 C 1688.07 1.94884 0.167225 0
M  V30 17790 O 1689.28 2.68934 0.3724 0
M  V30 17791 C 1687.74 2.84008 -2.21059 0
M  V30 17792 C 1687.34 2.53844 -3.69144 0
M  V30 17793 C 1689.09 3.62029 -2.21664 0
M  V30 17794 C 1687 3.76628 -4.55967 0
M  V30 17795 H 1685.93 0.590813 -0.468461 0
M  V30 17796 H 1688.58 0.906027 -1.59573 0
M  V30 17797 H 1686.96 3.52449 -1.80543 0
M  V30 17798 H 1688.13 1.93515 -4.18197 0
M  V30 17799 H 1686.45 1.89099 -3.70986 0
M  V30 17800 H 1689.04 4.53197 -2.83754 0
M  V30 17801 H 1689.39 3.98147 -1.21593 0
M  V30 17802 H 1689.92 3.00532 -2.60625 0
M  V30 17803 H 1686.66 3.45631 -5.56974 0
M  V30 17804 H 1686.18 4.3624 -4.11648 0
M  V30 17805 H 1687.86 4.44038 -4.70573 0
M  V30 17806 N 1687.99 1.18137 1.04314 0
M  V30 17807 C 1688.92 0.929593 2.14198 0
M  V30 17808 C 1689.9 -0.131766 1.69589 0
M  V30 17809 O 1691.09 0.0203104 1.94189 0
M  V30 17810 C 1688.22 0.451799 3.44349 0
M  V30 17811 C 1687.17 1.45336 4.02569 0
M  V30 17812 C 1686.5 0.833176 5.28169 0
M  V30 17813 C 1687.8 2.8293 4.39031 0
M  V30 17814 H 1689.49 1.84856 2.35518 0
M  V30 17815 H 1687.04 0.890217 1.13186 0
M  V30 17816 H 1688.99 0.26303 4.20578 0
M  V30 17817 H 1687.71 -0.502725 3.22708 0
M  V30 17818 H 1686.37 1.62902 3.28418 0
M  V30 17819 H 1686.02 -0.128459 5.02836 0
M  V30 17820 H 1685.72 1.50185 5.68083 0
M  V30 17821 H 1687.24 0.654881 6.07078 0
M  V30 17822 H 1688.66 2.6903 5.06257 0
M  V30 17823 H 1687.06 3.46458 4.89987 0
M  V30 17824 H 1688.13 3.3667 3.48972 0
M  V30 17825 N 1689.47 -1.23186 0.98301 0
M  V30 17826 C 1690.72 -1.91671 0.653342 0
M  V30 17827 C 1691.04 -1.76673 -0.813438 0
M  V30 17828 O 1690.3 -1.1232 -1.60258 0
M  V30 17829 C 1690.6 -3.43331 0.992898 0
M  V30 17830 C 1690.26 -3.78511 2.45032 0
M  V30 17831 C 1688.93 -3.87824 2.84861 0
M  V30 17832 C 1691.28 -3.95423 3.39544 0
M  V30 17833 C 1688.61 -4.11479 4.18213 0
M  V30 17834 C 1690.96 -4.20579 4.72543 0
M  V30 17835 C 1689.62 -4.28114 5.12128 0
M  V30 17836 H 1688.89 -0.701373 0.239075 0
M  V30 17837 H 1691.54 -1.46157 1.23736 0
M  V30 17838 H 1689.84 -3.90434 0.326832 0
M  V30 17839 H 1691.54 -3.94556 0.715995 0
M  V30 17840 H 1688.13 -3.71838 2.13154 0
M  V30 17841 H 1692.31 -3.87615 3.09949 0
M  V30 17842 H 1687.57 -4.15536 4.48486 0
M  V30 17843 H 1691.74 -4.32608 5.45732 0
M  V30 17844 H 1689.37 -4.46196 6.15478 0
M  V30 17845 N 1690.95 -0.754982 -1.38339 0
M  V30 17846 C 1691.86 -0.130303 -2.34238 0
M  V30 17847 C 1692.87 0.699048 -1.5934 0
M  V30 17848 O 1694.05 0.622876 -1.91526 0
M  V30 17849 C 1691.11 0.751285 -3.38462 0
M  V30 17850 C 1690.17 -0.0925987 -4.292 0
M  V30 17851 C 1689.41 0.747007 -5.28446 0
M  V30 17852 O 1689.63 1.98495 -5.34749 0
M  V30 17853 O 1688.56 0.165072 -6.01674 0
M  V30 17854 H 1692.39 -0.92233 -2.89356 0
M  V30 17855 H 1689.98 -0.515896 -1.4021 0
M  V30 17856 H 1691.86 1.2551 -4.02275 0
M  V30 17857 H 1690.53 1.52178 -2.85698 0
M  V30 17858 H 1689.44 -0.64239 -3.68543 0
M  V30 17859 H 1690.77 -0.825784 -4.85223 0
M  V30 17860 N 1692.42 1.49318 -0.504168 0
M  V30 17861 C 1693.33 2.32958 0.277053 0
M  V30 17862 C 1694.35 1.44838 0.964266 0
M  V30 17863 O 1695.53 1.77856 0.944947 0
M  V30 17864 C 1692.59 3.20352 1.32572 0
M  V30 17865 C 1691.65 4.24326 0.651606 0
M  V30 17866 C 1690.89 5.07544 1.65031 0
M  V30 17867 O 1691.11 4.92326 2.88047 0
M  V30 17868 O 1690.04 5.89737 1.20388 0
M  V30 17869 H 1693.87 3.00952 -0.40763 0
M  V30 17870 H 1691.45 1.47023 -0.265453 0
M  V30 17871 H 1693.34 3.74483 1.93237 0
M  V30 17872 H 1692.01 2.5505 1.99327 0
M  V30 17873 H 1690.92 3.741 0.00513384 0
M  V30 17874 H 1692.25 4.92193 0.0264424 0
M  V30 17875 N 1693.9 0.238138 1.5579 0
M  V30 17876 C 1695.15 -0.389608 1.99022 0
M  V30 17877 C 1695.48 -1.58226 1.12597 0
M  V30 17878 O 1694.76 -1.93595 0.187363 0
M  V30 17879 C 1695.04 -0.808025 3.50917 0
M  V30 17880 C 1694.89 0.389417 4.48111 0
M  V30 17881 C 1696.21 -1.6582 4.07666 0
M  V30 17882 H 1693.33 -0.140141 0.723553 0
M  V30 17883 H 1695.97 0.337696 1.86975 0
M  V30 17884 H 1694.12 -1.42772 3.61315 0
M  V30 17885 H 1695.79 1.02777 4.49705 0
M  V30 17886 H 1694.04 1.03404 4.21296 0
M  V30 17887 H 1694.71 0.0534549 5.51974 0
M  V30 17888 H 1697.18 -1.13518 4.00316 0
M  V30 17889 H 1696.06 -1.91984 5.14231 0
M  V30 17890 H 1696.32 -2.62712 3.55577 0
M  V30 17891 N 1695.38 -1.57561 -0.0350783 0
M  V30 17892 C 1696.31 -2.01535 -1.07046 0
M  V30 17893 C 1697.29 -0.898604 -1.35513 0
M  V30 17894 O 1698.48 -1.16395 -1.48271 0
M  V30 17895 C 1695.6 -2.3833 -2.40659 0
M  V30 17896 C 1694.65 -3.60386 -2.28088 0
M  V30 17897 S 1695.48 -5.09768 -1.64001 0
M  V30 17898 C 1696.64 -5.498 -2.99116 0
M  V30 17899 H 1696.87 -2.89041 -0.695884 0
M  V30 17900 H 1694.4 -1.52446 -0.244859 0
M  V30 17901 H 1696.36 -2.602 -3.175 0
M  V30 17902 H 1695.02 -1.51286 -2.75266 0
M  V30 17903 H 1694.22 -3.83767 -3.26709 0
M  V30 17904 H 1693.82 -3.38336 -1.59389 0
M  V30 17905 H 1696.11 -5.50117 -3.95447 0
M  V30 17906 H 1697.05 -6.50184 -2.80475 0
M  V30 17907 H 1697.46 -4.77296 -3.01412 0
M  V30 17908 N 1696.86 0.307236 -1.54576 0
M  V30 17909 C 1698.27 0.652539 -1.45651 0
M  V30 17910 C 1698.47 1.90978 -0.64263 0
M  V30 17911 O 1697.53 2.52067 -0.147863 0
M  V30 17912 C 1698.84 0.811341 -2.89547 0
M  V30 17913 C 1700.39 0.90763 -2.99551 0
M  V30 17914 C 1700.87 1.09848 -4.44632 0
M  V30 17915 N 1702.36 1.16483 -4.48315 0
M  V30 17916 C 1703.09 1.33068 -5.57746 0
M  V30 17917 N 1702.59 1.46591 -6.77114 0
M  V30 17918 N 1704.38 1.35906 -5.45423 0
M  V30 17919 H 1696.53 -0.518891 -2.05964 0
M  V30 17920 H 1698.8 -0.170463 -0.932548 0
M  V30 17921 H 1698.5 -0.0414879 -3.51676 0
M  V30 17922 H 1698.38 1.70224 -3.36606 0
M  V30 17923 H 1700.76 1.75095 -2.37541 0
M  V30 17924 H 1700.84 -0.00715386 -2.55799 0
M  V30 17925 H 1700.49 0.259948 -5.07234 0
M  V30 17926 H 1700.42 2.02739 -4.86009 0
M  V30 17927 H 1702.91 1.07411 -3.62314 0
M  V30 17928 H 1703.22 1.58983 -7.5627 0
M  V30 17929 H 1701.57 1.43658 -6.79991 0
M  V30 17930 H 1704.76 1.24949 -4.51116 0
M  V30 17931 H 1704.93 1.48489 -6.30758 0
M  V30 17932 N 1698.34 1.46926 0.570122 0
M  V30 17933 C 1699.58 1.52585 1.32523 0
M  V30 17934 C 1699.91 0.184291 1.94127 0
M  V30 17935 O 1699.18 -0.790478 1.79244 0
M  V30 17936 H 1697.76 0.562019 0.492081 0
M  V30 17937 H 1700.42 1.83141 0.666746 0
M  V30 17938 H 1699.51 2.28541 2.12545 0
M  V30 17939 N 1699.82 -0.815801 1.34842 0
M  V30 17940 C 1700.76 -1.92713 1.27006 0
M  V30 17941 C 1701.73 -1.65476 0.143838 0
M  V30 17942 O 1702.92 -1.87994 0.326007 0
M  V30 17943 C 1700.06 -3.29099 1.03863 0
M  V30 17944 C 1699.17 -3.68583 2.25324 0
M  V30 17945 C 1698.31 -4.93953 1.95407 0
M  V30 17946 C 1697.34 -5.26037 3.12971 0
M  V30 17947 N 1696.48 -6.42586 2.82891 0
M  V30 17948 H 1701.32 -1.98747 2.22044 0
M  V30 17949 H 1698.86 -0.972265 1.10388 0
M  V30 17950 H 1700.82 -4.07709 0.884809 0
M  V30 17951 H 1699.45 -3.22558 0.124911 0
M  V30 17952 H 1698.5 -2.85307 2.51603 0
M  V30 17953 H 1699.81 -3.88259 3.1314 0
M  V30 17954 H 1698.96 -5.80367 1.76801 0
M  V30 17955 H 1697.7 -4.76293 1.04862 0
M  V30 17956 H 1696.71 -4.38117 3.32165 0
M  V30 17957 H 1697.93 -5.45632 4.04305 0
M  V30 17958 H 1695.88 -6.26369 1.9493 0
M  V30 17959 H 1695.8 -6.62469 3.64239 0
M  V30 17960 H 1697.06 -7.32052 2.67805 0
M  V30 17961 N 1701.29 -1.18689 -1.03686 0
M  V30 17962 C 1702.54 -0.984601 -1.76952 0
M  V30 17963 C 1702.87 0.485417 -1.88345 0
M  V30 17964 O 1702.12 1.37665 -1.39093 0
M  V30 17965 C 1702.42 -1.58911 -3.20128 0
M  V30 17966 C 1702.09 -3.0859 -3.2876 0
M  V30 17967 C 1700.75 -3.49442 -3.30823 0
M  V30 17968 C 1703.1 -4.04603 -3.28551 0
M  V30 17969 C 1700.43 -4.84875 -3.30323 0
M  V30 17970 C 1702.78 -5.39956 -3.29591 0
M  V30 17971 C 1701.45 -5.8025 -3.29948 0
M  V30 17972 H 1700.72 -0.360291 -0.647512 0
M  V30 17973 H 1703.36 -1.47811 -1.21754 0
M  V30 17974 H 1701.67 -1.0177 -3.78352 0
M  V30 17975 H 1703.37 -1.40797 -3.75469 0
M  V30 17976 H 1699.96 -2.76034 -3.27877 0
M  V30 17977 H 1704.14 -3.7409 -3.26145 0
M  V30 17978 H 1699.4 -5.15386 -3.28919 0
M  V30 17979 H 1703.57 -6.14117 -3.28379 0
M  V30 17980 H 1701.2 -6.85169 -3.29315 0
M  V30 17981 N 1702.77 1.22662 -0.989529 0
M  V30 17982 C 1704.02 1.90944 -0.662187 0
M  V30 17983 C 1704.34 1.77477 0.807899 0
M  V30 17984 O 1703.61 1.15985 1.57874 0
M  V30 17985 H 1702.19 0.706738 -0.241932 0
M  V30 17986 H 1704.85 1.49091 -1.25531 0
M  V30 17987 H 1703.95 2.98177 -0.921777 0
M  V30 17988 N 1704.25 0.762308 1.37937 0
M  V30 17989 C 1705.2 0.140412 2.30372 0
M  V30 17990 C 1706.17 -0.700152 1.50622 0
M  V30 17991 O 1707.35 -0.654474 1.79224 0
M  V30 17992 C 1704.49 -0.740056 3.37071 0
M  V30 17993 C 1703.6 0.116084 4.31844 0
M  V30 17994 C 1702.74 -0.768203 5.25616 0
M  V30 17995 C 1701.78 0.0910442 6.12032 0
M  V30 17996 N 1700.92 -0.75069 6.98075 0
M  V30 17997 H 1705.76 0.934224 2.82977 0
M  V30 17998 H 1703.29 0.472316 1.39311 0
M  V30 17999 H 1705.25 -1.26525 3.97551 0
M  V30 18000 H 1703.88 -1.49956 2.85855 0
M  V30 18001 H 1702.93 0.758999 3.72751 0
M  V30 18002 H 1704.24 0.779285 4.92675 0
M  V30 18003 H 1703.4 -1.36024 5.91255 0
M  V30 18004 H 1702.14 -1.46511 4.65173 0
M  V30 18005 H 1701.14 0.695687 5.45381 0
M  V30 18006 H 1702.37 0.785145 6.74546 0
M  V30 18007 H 1700.31 -1.43239 6.40171 0
M  V30 18008 H 1700.23 -0.144579 7.55862 0
M  V30 18009 H 1701.5 -1.32742 7.68114 0
M  V30 18010 N 1705.73 -1.49049 0.51208 0
M  V30 18011 C 1706.67 -2.29326 -0.260408 0
M  V30 18012 C 1707.64 -1.36232 -0.950265 0
M  V30 18013 O 1708.83 -1.65193 -0.954777 0
M  V30 18014 C 1705.97 -3.19177 -1.31225 0
M  V30 18015 C 1705.08 -4.27336 -0.63305 0
M  V30 18016 C 1704.22 -5.04389 -1.66628 0
M  V30 18017 C 1703.26 -6.04372 -0.969561 0
M  V30 18018 N 1702.39 -6.74549 -1.94751 0
M  V30 18019 H 1707.23 -2.94876 0.430384 0
M  V30 18020 H 1704.77 -1.45383 0.224086 0
M  V30 18021 H 1706.73 -3.69655 -1.9342 0
M  V30 18022 H 1705.36 -2.55588 -1.97166 0
M  V30 18023 H 1704.41 -3.80262 0.102433 0
M  V30 18024 H 1705.72 -4.98727 -0.0851363 0
M  V30 18025 H 1704.88 -5.58791 -2.36299 0
M  V30 18026 H 1703.62 -4.32797 -2.24807 0
M  V30 18027 H 1702.62 -5.49191 -0.25869 0
M  V30 18028 H 1703.85 -6.77955 -0.394125 0
M  V30 18029 H 1701.79 -6.0572 -2.5187 0
M  V30 18030 H 1701.71 -7.41954 -1.45055 0
M  V30 18031 H 1702.98 -7.3355 -2.63675 0
M  V30 18032 N 1707.21 -0.246397 -1.55662 0
M  V30 18033 C 1708.16 0.667276 -2.18017 0
M  V30 18034 C 1709.14 1.13957 -1.1359 0
M  V30 18035 O 1710.33 1.08942 -1.39501 0
M  V30 18036 C 1707.46 1.86414 -2.88279 0
M  V30 18037 C 1706.55 1.41037 -3.99962 0
M  V30 18038 N 1706.94 0.670796 -5.01332 0
M  V30 18039 C 1705.24 1.69569 -4.12507 0
M  V30 18040 C 1705.94 0.43594 -5.80064 0
M  V30 18041 N 1704.91 1 -5.34323 0
M  V30 18042 H 1708.71 0.0940693 -2.93749 0
M  V30 18043 H 1706.23 -0.048692 -1.62327 0
M  V30 18044 H 1708.23 2.5297 -3.31379 0
M  V30 18045 H 1706.89 2.44158 -2.14049 0
M  V30 18046 H 1707.9 0.320958 -5.16905 0
M  V30 18047 H 1704.57 2.28455 -3.49449 0
M  V30 18048 H 1705.96 -0.154438 -6.71722 0
M  V30 18049 N 1708.68 1.57577 0.026722 0
M  V30 18050 C 1709.62 2.021 1.05976 0
M  V30 18051 C 1710.59 0.905778 1.35035 0
M  V30 18052 O 1711.78 1.1718 1.47652 0
M  V30 18053 C 1708.91 2.39603 2.39391 0
M  V30 18054 C 1707.95 3.61591 2.26174 0
M  V30 18055 S 1708.78 5.10631 1.61295 0
M  V30 18056 C 1709.94 5.51379 2.96196 0
M  V30 18057 H 1710.17 2.89406 0.680545 0
M  V30 18058 H 1707.71 1.52574 0.236771 0
M  V30 18059 H 1709.66 2.61881 3.16115 0
M  V30 18060 H 1708.33 1.52744 2.7446 0
M  V30 18061 H 1707.52 3.85495 3.24669 0
M  V30 18062 H 1707.12 3.39176 1.57593 0
M  V30 18063 H 1709.41 5.52206 3.92524 0
M  V30 18064 H 1710.36 6.51663 2.77023 0
M  V30 18065 H 1710.76 4.78887 2.98877 0
M  V30 18066 N 1710.16 -0.299034 1.54737 0
M  V30 18067 C 1711.41 -1.03164 1.7332 0
M  V30 18068 C 1711.72 -1.88362 0.527184 0
M  V30 18069 O 1712.93 -2.64903 0.594868 0
M  V30 18070 C 1711.39 -1.88391 3.06654 0
M  V30 18071 C 1710.99 -1.08187 4.34741 0
M  V30 18072 C 1712.74 -2.6124 3.34595 0
M  V30 18073 C 1710.64 -1.92702 5.59124 0
M  V30 18074 H 1709.57 -0.388887 0.645975 0
M  V30 18075 H 1712.23 -0.288544 1.81217 0
M  V30 18076 H 1710.61 -2.66696 2.92727 0
M  V30 18077 H 1711.78 -0.344817 4.59508 0
M  V30 18078 H 1710.1 -0.469118 4.13749 0
M  V30 18079 H 1712.69 -3.24826 4.24726 0
M  V30 18080 H 1713.04 -3.30172 2.53559 0
M  V30 18081 H 1713.57 -1.89982 3.49502 0
M  V30 18082 H 1710.31 -1.28236 6.42834 0
M  V30 18083 H 1709.83 -2.64074 5.38539 0
M  V30 18084 H 1711.51 -2.50702 5.96454 0
M  V30 18085 N 1711.64 -1.47227 -0.562322 0
M  V30 18086 C 1712.6 -1.58887 -1.6519 0
M  V30 18087 C 1713.6 -0.464359 -1.53949 0
M  V30 18088 O 1714.79 -0.729279 -1.582 0
M  V30 18089 C 1711.92 -1.52853 -3.04711 0
M  V30 18090 H 1713.12 -2.5601 -1.56202 0
M  V30 18091 H 1710.67 -1.35341 -0.781832 0
M  V30 18092 H 1711.41 -0.570867 -3.19236 0
M  V30 18093 H 1711.19 -2.3446 -3.14279 0
M  V30 18094 H 1712.68 -1.6414 -3.83989 0
M  V30 18095 N 1713.12 0.808639 -1.35273 0
M  V30 18096 C 1714.37 1.56253 -1.28177 0
M  V30 18097 C 1714.69 1.94466 0.144151 0
M  V30 18098 O 1713.96 1.63433 1.08011 0
M  V30 18099 H 1712.54 0.579431 -0.471454 0
M  V30 18100 H 1715.2 0.964675 -1.69352 0
M  V30 18101 H 1714.29 2.47888 -1.89625 0
M  V30 18102 N 1714.6 1.19237 1.03055 0
M  V30 18103 C 1715.84 0.995444 1.76688 0
M  V30 18104 C 1716.18 -0.472805 1.88357 0
M  V30 18105 O 1715.45 -1.3511 1.39913 0
M  V30 18106 C 1715.73 1.66308 3.19396 0
M  V30 18107 C 1715.59 3.20486 3.15609 0
M  V30 18108 C 1716.91 1.38468 4.17749 0
M  V30 18109 H 1714.02 0.36304 0.641382 0
M  V30 18110 H 1716.67 1.47052 1.20315 0
M  V30 18111 H 1714.82 1.25915 3.67529 0
M  V30 18112 H 1716.49 3.70081 2.75387 0
M  V30 18113 H 1714.73 3.52118 2.53369 0
M  V30 18114 H 1715.4 3.62345 4.16426 0
M  V30 18115 H 1717.88 1.73485 3.78209 0
M  V30 18116 H 1716.75 1.87735 5.15797 0
M  V30 18117 H 1717.02 0.309505 4.41015 0
M  V30 18118 N 1716.07 -1.22136 0.99602 0
M  V30 18119 C 1717 -2.26463 0.568909 0
M  V30 18120 C 1717.99 -1.65189 -0.405783 0
M  V30 18121 O 1719.17 -1.91935 -0.295735 0
M  V30 18122 C 1716.3 -3.47112 -0.114166 0
M  V30 18123 C 1715.25 -4.20844 0.779387 0
M  V30 18124 C 1714.58 -5.34687 -0.0367787 0
M  V30 18125 C 1715.88 -4.79195 2.07773 0
M  V30 18126 H 1717.57 -2.62443 1.44097 0
M  V30 18127 H 1715.12 -1.26156 0.694314 0
M  V30 18128 H 1717.07 -4.19258 -0.424381 0
M  V30 18129 H 1715.8 -3.10238 -1.02079 0
M  V30 18130 H 1714.46 -3.50537 1.07329 0
M  V30 18131 H 1714.1 -4.94054 -0.94442 0
M  V30 18132 H 1713.8 -5.84944 0.558092 0
M  V30 18133 H 1715.33 -6.09647 -0.341016 0
M  V30 18134 H 1716.74 -5.43266 1.83126 0
M  V30 18135 H 1715.14 -5.39803 2.62169 0
M  V30 18136 H 1716.21 -3.99073 2.75442 0
M  V30 18137 N 1717.55 -0.769612 -1.37531 0
M  V30 18138 C 1718.8 -0.332966 -1.99744 0
M  V30 18139 C 1719.13 1.0899 -1.61094 0
M  V30 18140 O 1718.38 1.7639 -0.847656 0
M  V30 18141 C 1718.68 -0.421385 -3.54907 0
M  V30 18142 C 1718.35 -1.8022 -4.13318 0
M  V30 18143 C 1717.01 -2.18005 -4.28984 0
M  V30 18144 C 1719.36 -2.70724 -4.45374 0
M  V30 18145 C 1716.69 -3.45736 -4.74008 0
M  V30 18146 C 1719.04 -3.97862 -4.91822 0
M  V30 18147 C 1717.71 -4.35695 -5.05694 0
M  V30 18148 H 1716.98 -0.121841 -0.730914 0
M  V30 18149 H 1719.62 -0.98322 -1.64332 0
M  V30 18150 H 1717.93 0.312411 -3.90552 0
M  V30 18151 H 1719.62 -0.0648705 -4.00948 0
M  V30 18152 H 1716.21 -1.49852 -4.0155 0
M  V30 18153 H 1720.4 -2.42792 -4.32857 0
M  V30 18154 H 1715.65 -3.74946 -4.82935 0
M  V30 18155 H 1719.83 -4.68121 -5.15593 0
M  V30 18156 H 1717.46 -5.34729 -5.40341 0
M  V30 18157 N 1719.03 1.48775 -0.519977 0
M  V30 18158 C 1720.26 2.06895 0.0139983 0
M  V30 18159 C 1720.67 1.37786 1.29075 0
M  V30 18160 O 1720.03 0.462168 1.76551 0
M  V30 18161 C 1720.08 3.60621 0.251999 0
M  V30 18162 O 1719.8 4.27132 -0.974158 0
M  V30 18163 C 1721.3 4.35508 0.827483 0
M  V30 18164 H 1718.52 0.670373 -0.0290011 0
M  V30 18165 H 1721.07 1.91302 -0.722762 0
M  V30 18166 H 1719.22 3.75853 0.938783 0
M  V30 18167 H 1719.64 5.19129 -0.748697 0
M  V30 18168 H 1721.11 5.43877 0.943492 0
M  V30 18169 H 1721.59 3.99261 1.82996 0
M  V30 18170 H 1722.19 4.24929 0.177578 0
M  V30 18171 N 1720.51 0.254649 1.55529 0
M  V30 18172 C 1721.76 -0.367932 1.99129 0
M  V30 18173 C 1722.08 -1.5738 1.14288 0
M  V30 18174 O 1721.34 -1.94721 0.195543 0
M  V30 18175 C 1721.64 -0.813781 3.48012 0
M  V30 18176 C 1721.3 0.285187 4.49997 0
M  V30 18177 C 1719.97 0.586996 4.77606 0
M  V30 18178 C 1722.32 1.02673 5.10987 0
M  V30 18179 C 1719.65 1.63429 5.63478 0
M  V30 18180 C 1722 2.0636 5.97995 0
M  V30 18181 C 1720.66 2.37197 6.23934 0
M  V30 18182 H 1719.93 -0.134636 0.728666 0
M  V30 18183 H 1722.58 0.364091 1.88007 0
M  V30 18184 H 1720.88 -1.62514 3.56506 0
M  V30 18185 H 1722.58 -1.3059 3.7914 0
M  V30 18186 H 1719.17 0.0398187 4.28582 0
M  V30 18187 H 1723.35 0.806814 4.89698 0
M  V30 18188 H 1718.61 1.87846 5.81828 0
M  V30 18189 H 1722.78 2.64306 6.44294 0
M  V30 18190 H 1720.41 3.18487 6.90268 0
M  V30 18191 N 1721.99 -1.57589 -0.0183649 0
M  V30 18192 C 1723.23 -1.90038 -0.708056 0
M  V30 18193 C 1723.57 -0.853686 -1.7443 0
M  V30 18194 O 1722.84 0.12994 -1.94065 0
M  V30 18195 C 1723.12 -3.33107 -1.3679 0
M  V30 18196 C 1722.98 -4.48479 -0.344448 0
M  V30 18197 C 1724.3 -3.75276 -2.29904 0
M  V30 18198 H 1721.41 -0.691134 -0.255934 0
M  V30 18199 H 1724.06 -1.89978 0.0291579 0
M  V30 18200 H 1722.21 -3.33289 -1.99626 0
M  V30 18201 H 1723.88 -4.60432 0.282816 0
M  V30 18202 H 1722.12 -4.32503 0.335196 0
M  V30 18203 H 1722.79 -5.45497 -0.844832 0
M  V30 18204 H 1725.27 -3.76529 -1.77103 0
M  V30 18205 H 1724.14 -4.76168 -2.73049 0
M  V30 18206 H 1724.41 -3.08124 -3.17036 0
M  V30 18207 N 1723.46 0.290824 -1.54893 0
M  V30 18208 C 1724.39 1.36354 -1.89551 0
M  V30 18209 C 1725.38 1.52403 -0.75546 0
M  V30 18210 O 1726.56 1.65743 -1.01208 0
M  V30 18211 C 1723.69 2.72609 -2.15178 0
M  V30 18212 C 1722.64 2.71313 -3.31019 0
M  V30 18213 C 1721.97 4.10952 -3.42085 0
M  V30 18214 C 1723.27 2.32153 -4.6787 0
M  V30 18215 H 1724.96 1.07597 -2.79398 0
M  V30 18216 H 1722.51 0.516154 -1.34432 0
M  V30 18217 H 1724.46 3.47749 -2.3801 0
M  V30 18218 H 1723.19 3.02913 -1.22112 0
M  V30 18219 H 1721.85 1.9863 -3.08126 0
M  V30 18220 H 1721.49 4.38449 -2.46518 0
M  V30 18221 H 1721.19 4.10984 -4.1996 0
M  V30 18222 H 1722.72 4.87857 -3.67189 0
M  V30 18223 H 1724.13 2.97011 -4.90364 0
M  V30 18224 H 1722.53 2.4338 -5.48531 0
M  V30 18225 H 1723.6 1.27279 -4.67897 0
M  V30 18226 N 1724.94 1.47523 0.554506 0
M  V30 18227 C 1725.87 1.63093 1.67102 0
M  V30 18228 C 1726.85 0.480298 1.63178 0
M  V30 18229 O 1728.04 0.709956 1.80757 0
M  V30 18230 C 1725.17 1.64751 3.05736 0
M  V30 18231 C 1724.12 2.79068 3.24507 0
M  V30 18232 C 1723.45 2.65801 4.63955 0
M  V30 18233 C 1724.75 4.20631 3.09623 0
M  V30 18234 H 1726.44 2.56561 1.54328 0
M  V30 18235 H 1723.99 1.2347 0.741023 0
M  V30 18236 H 1725.94 1.74234 3.83693 0
M  V30 18237 H 1724.67 0.678453 3.19475 0
M  V30 18238 H 1723.32 2.691 2.48959 0
M  V30 18239 H 1722.97 1.66917 4.74497 0
M  V30 18240 H 1722.67 3.42494 4.77464 0
M  V30 18241 H 1724.2 2.77216 5.44044 0
M  V30 18242 H 1725.61 4.31562 3.77396 0
M  V30 18243 H 1724.01 4.98133 3.3464 0
M  V30 18244 H 1725.08 4.38809 2.06336 0
M  V30 18245 N 1726.42 -0.801453 1.357 0
M  V30 18246 C 1727.35 -1.92807 1.31711 0
M  V30 18247 C 1728.33 -1.69028 0.190642 0
M  V30 18248 O 1729.52 -1.90317 0.38641 0
M  V30 18249 C 1726.65 -3.29635 1.09352 0
M  V30 18250 C 1725.6 -3.67908 2.18695 0
M  V30 18251 C 1724.93 -5.02955 1.81494 0
M  V30 18252 C 1726.23 -3.77749 3.60698 0
M  V30 18253 H 1727.92 -1.96401 2.2598 0
M  V30 18254 H 1725.47 -0.943528 1.08782 0
M  V30 18255 H 1727.42 -4.08058 1.052 0
M  V30 18256 H 1726.14 -3.26396 0.115306 0
M  V30 18257 H 1724.8 -2.91775 2.21952 0
M  V30 18258 H 1724.45 -4.96225 0.822776 0
M  V30 18259 H 1724.15 -5.29533 2.54692 0
M  V30 18260 H 1725.67 -5.83811 1.78876 0
M  V30 18261 H 1727.09 -4.4639 3.59734 0
M  V30 18262 H 1725.49 -4.15801 4.327 0
M  V30 18263 H 1726.56 -2.79167 3.96477 0
M  V30 18264 N 1727.9 -1.19782 -1.02421 0
M  V30 18265 C 1729.12 -1.02939 -1.80051 0
M  V30 18266 C 1729.55 0.417153 -1.83416 0
M  V30 18267 O 1728.91 1.3001 -1.26361 0
M  V30 18268 C 1728.95 -1.60853 -3.22736 0
M  V30 18269 O 1728.06 -0.840999 -4.03734 0
M  V30 18270 H 1727.4 -0.363537 -0.555641 0
M  V30 18271 H 1729.93 -1.58908 -1.28878 0
M  V30 18272 H 1729.94 -1.64266 -3.73471 0
M  V30 18273 H 1728.61 -2.66135 -3.19602 0
M  V30 18274 H 1727.19 -0.880482 -3.62356 0
M  V30 18275 N 1729.38 1.21606 -1.00248 0
M  V30 18276 C 1730.63 1.90231 -0.682401 0
M  V30 18277 C 1730.95 1.78324 0.78903 0
M  V30 18278 O 1730.22 1.17653 1.56635 0
M  V30 18279 H 1728.8 0.704132 -0.249414 0
M  V30 18280 H 1731.46 1.47751 -1.27105 0
M  V30 18281 H 1730.55 2.97183 -0.953351 0
M  V30 18282 N 1730.86 0.776895 1.37121 0
M  V30 18283 C 1731.79 0.124809 2.2886 0
M  V30 18284 C 1732.8 -0.658655 1.48881 0
M  V30 18285 O 1733.99 -0.4959 1.71473 0
M  V30 18286 C 1731.09 -0.84672 3.28152 0
M  V30 18287 C 1730.26 -0.11598 4.37246 0
M  V30 18288 C 1729.32 -1.00162 5.16579 0
M  V30 18289 O 1728.35 -0.463491 5.6731 0
M  V30 18290 N 1729.55 -2.32733 5.31804 0
M  V30 18291 H 1732.31 0.91278 2.85462 0
M  V30 18292 H 1729.88 0.629695 1.49152 0
M  V30 18293 H 1731.87 -1.44275 3.78109 0
M  V30 18294 H 1730.44 -1.53563 2.72281 0
M  V30 18295 H 1729.66 0.661015 3.88618 0
M  V30 18296 H 1730.95 0.388757 5.07313 0
M  V30 18297 H 1730.34 -2.78882 4.9218 0
M  V30 18298 H 1728.9 -2.8733 5.85051 0
M  V30 18299 N 1732.33 -1.48497 0.527859 0
M  V30 18300 C 1733.58 -2.01698 -0.00900086 0
M  V30 18301 C 1733.9 -1.4104 -1.35525 0
M  V30 18302 O 1735.1 -1.85726 -1.98035 0
M  V30 18303 C 1733.56 -3.59839 -0.0664428 0
M  V30 18304 C 1733.17 -4.2948 1.27479 0
M  V30 18305 C 1734.91 -4.20893 -0.552244 0
M  V30 18306 C 1732.82 -5.79548 1.17805 0
M  V30 18307 H 1731.75 -0.753966 -0.00713463 0
M  V30 18308 H 1734.4 -1.70779 0.67132 0
M  V30 18309 H 1732.78 -3.8759 -0.811795 0
M  V30 18310 H 1733.95 -4.13403 2.03554 0
M  V30 18311 H 1732.27 -3.80289 1.69616 0
M  V30 18312 H 1734.87 -5.30825 -0.642556 0
M  V30 18313 H 1735.21 -3.86066 -1.55752 0
M  V30 18314 H 1735.74 -3.97563 0.137363 0
M  V30 18315 H 1732.48 -6.18945 2.15841 0
M  V30 18316 H 1732 -5.98044 0.458624 0
M  V30 18317 H 1733.68 -6.41153 0.867834 0
M  V30 18318 N 1733.81 -0.262893 -1.55392 0
M  V30 18319 C 1735.04 0.361057 -2.03725 0
M  V30 18320 C 1735.45 1.5037 -1.14168 0
M  V30 18321 O 1734.81 1.81804 -0.159284 0
M  V30 18322 C 1734.86 0.853697 -3.51275 0
M  V30 18323 O 1734.58 -0.243431 -4.37423 0
M  V30 18324 C 1736.08 1.54671 -4.15442 0
M  V30 18325 H 1733.3 0.0839272 -0.665731 0
M  V30 18326 H 1735.85 -0.391424 -2.00719 0
M  V30 18327 H 1734 1.55631 -3.54765 0
M  V30 18328 H 1734.42 0.133241 -5.24331 0
M  V30 18329 H 1735.89 1.84296 -5.20326 0
M  V30 18330 H 1736.37 2.47413 -3.62882 0
M  V30 18331 H 1736.97 0.888269 -4.15921 0
M  V30 18332 N 1735.29 1.57597 0.0100073 0
M  V30 18333 C 1736.54 1.91253 0.692388 0
M  V30 18334 C 1736.89 0.863533 1.71933 0
M  V30 18335 O 1736.18 -0.125511 1.91188 0
M  V30 18336 C 1736.38 3.29416 1.38635 0
M  V30 18337 C 1736.21 4.47657 0.428139 0
M  V30 18338 C 1734.98 5.05282 0.0421913 0
M  V30 18339 C 1737.17 5.13416 -0.301465 0
M  V30 18340 N 1735.16 6.07039 -0.915277 0
M  V30 18341 C 1736.53 6.09911 -1.11395 0
M  V30 18342 C 1738.58 4.9655 -0.366373 0
M  V30 18343 C 1737.29 6.91357 -1.98541 0
M  V30 18344 C 1739.31 5.78573 -1.22502 0
M  V30 18345 C 1738.67 6.74654 -2.02538 0
M  V30 18346 H 1734.77 0.748367 0.226872 0
M  V30 18347 H 1737.36 1.94641 -0.047989 0
M  V30 18348 H 1735.53 3.26921 2.09707 0
M  V30 18349 H 1737.26 3.50531 2.02263 0
M  V30 18350 H 1734.01 4.71835 0.408445 0
M  V30 18351 H 1734.44 6.62596 -1.38909 0
M  V30 18352 H 1739.08 4.22129 0.238121 0
M  V30 18353 H 1736.8 7.6511 -2.60062 0
M  V30 18354 H 1740.38 5.67567 -1.27903 0
M  V30 18355 H 1739.26 7.37018 -2.67906 0
M  V30 18356 N 1736.77 -0.282606 1.55045 0
M  V30 18357 C 1738.18 -0.629284 1.4667 0
M  V30 18358 C 1738.38 -1.89931 0.672932 0
M  V30 18359 O 1737.44 -2.518 0.187946 0
M  V30 18360 C 1738.75 -0.765174 2.90802 0
M  V30 18361 C 1740.3 -0.859859 3.00958 0
M  V30 18362 C 1740.78 -1.0276 4.46323 0
M  V30 18363 N 1742.27 -1.09336 4.50111 0
M  V30 18364 C 1743 -1.24178 5.59792 0
M  V30 18365 N 1742.5 -1.358 6.7936 0
M  V30 18366 N 1744.29 -1.27212 5.47516 0
M  V30 18367 H 1736.44 0.551592 2.05113 0
M  V30 18368 H 1738.7 0.185277 0.929718 0
M  V30 18369 H 1738.41 0.0974312 3.51565 0
M  V30 18370 H 1738.28 -1.64848 3.39271 0
M  V30 18371 H 1740.67 -1.71294 2.40297 0
M  V30 18372 H 1740.75 0.0478484 2.55755 0
M  V30 18373 H 1740.4 -0.179219 5.07584 0
M  V30 18374 H 1740.33 -1.94981 4.89173 0
M  V30 18375 H 1742.82 -1.01633 3.63977 0
M  V30 18376 H 1743.13 -1.46932 7.58703 0
M  V30 18377 H 1741.48 -1.32822 6.8219 0
M  V30 18378 H 1744.67 -1.17756 4.53046 0
M  V30 18379 H 1744.84 -1.38435 6.3304 0
M  V30 18380 N 1738.25 -1.47815 -0.546675 0
M  V30 18381 C 1739.49 -1.54674 -1.30078 0
M  V30 18382 C 1739.81 -0.215151 -1.93809 0
M  V30 18383 O 1739.08 0.761862 -1.80478 0
M  V30 18384 H 1737.66 -0.569776 -0.483078 0
M  V30 18385 H 1740.33 -1.84178 -0.637525 0
M  V30 18386 H 1739.42 -2.31894 -2.08882 0
M  V30 18387 N 1739.72 0.794246 -1.36123 0
M  V30 18388 C 1740.66 1.91303 -1.24412 0
M  V30 18389 C 1741.63 1.62085 -0.129318 0
M  V30 18390 O 1742.82 1.86104 -0.299599 0
M  V30 18391 C 1739.95 3.26009 -0.918476 0
M  V30 18392 C 1738.99 3.74163 -2.04705 0
M  V30 18393 S 1739.82 3.90497 -3.66432 0
M  V30 18394 C 1740.98 5.28086 -3.3597 0
M  V30 18395 H 1741.21 2.00944 -2.19109 0
M  V30 18396 H 1738.75 0.952959 -1.21483 0
M  V30 18397 H 1740.7 4.03823 -0.737402 0
M  V30 18398 H 1739.37 3.14098 0.0106309 0
M  V30 18399 H 1738.56 4.7176 -1.77365 0
M  V30 18400 H 1738.16 3.03384 -2.1871 0
M  V30 18401 H 1740.45 6.12502 -2.89564 0
M  V30 18402 H 1741.4 5.60427 -4.32813 0
M  V30 18403 H 1741.8 4.94958 -2.71436 0
M  V30 18404 N 1741.2 1.20323 1.01785 0
M  V30 18405 C 1742.16 0.9527 2.08462 0
M  V30 18406 C 1743.16 -0.0712564 1.60642 0
M  V30 18407 O 1744.35 0.164672 1.7342 0
M  V30 18408 C 1741.49 0.434052 3.38125 0
M  V30 18409 H 1742.68 1.89895 2.32121 0
M  V30 18410 H 1740.23 1.01843 1.18565 0
M  V30 18411 H 1740.97 -0.51772 3.20141 0
M  V30 18412 H 1740.75 1.17248 3.74159 0
M  V30 18413 H 1742.24 0.278215 4.16672 0
M  V30 18414 N 1742.68 -1.21073 1.00892 0
M  V30 18415 C 1743.63 -2.21426 0.543574 0
M  V30 18416 C 1744.61 -1.55927 -0.396938 0
M  V30 18417 O 1745.81 -1.75613 -0.221152 0
M  V30 18418 C 1742.93 -3.43074 -0.124494 0
M  V30 18419 C 1742.02 -4.15753 0.837269 0
M  V30 18420 N 1742.41 -4.64936 1.99168 0
M  V30 18421 C 1740.71 -4.41142 0.656473 0
M  V30 18422 C 1741.41 -5.20527 2.59666 0
M  V30 18423 N 1740.39 -5.10133 1.87792 0
M  V30 18424 H 1744.19 -2.5711 1.42378 0
M  V30 18425 H 1741.7 -1.36923 0.873254 0
M  V30 18426 H 1743.7 -4.14181 -0.475363 0
M  V30 18427 H 1742.36 -3.08897 -1.00064 0
M  V30 18428 H 1743.37 -4.60392 2.37191 0
M  V30 18429 H 1740.05 -4.17144 -0.172261 0
M  V30 18430 H 1741.44 -5.69011 3.57318 0
M  V30 18431 N 1744.16 -0.784156 -1.36707 0
M  V30 18432 C 1745.39 -0.365901 -2.03639 0
M  V30 18433 C 1745.8 1.01599 -1.59132 0
M  V30 18434 O 1745.16 1.65072 -0.778298 0
M  V30 18435 C 1745.21 -0.414035 -3.59121 0
M  V30 18436 O 1744.93 -1.74142 -4.02003 0
M  V30 18437 C 1746.43 0.0142546 -4.43298 0
M  V30 18438 H 1743.65 -0.151525 -0.653667 0
M  V30 18439 H 1746.2 -1.06154 -1.7479 0
M  V30 18440 H 1744.35 0.233134 -3.86698 0
M  V30 18441 H 1744.76 -1.68861 -4.96575 0
M  V30 18442 H 1746.24 -0.0705681 -5.51955 0
M  V30 18443 H 1746.72 1.06623 -4.26061 0
M  V30 18444 H 1747.32 -0.605201 -4.20972 0
M  V30 18445 N 1745.64 1.48215 -0.535727 0
M  V30 18446 C 1746.57 2.3253 0.212562 0
M  V30 18447 C 1747.55 1.42454 0.929568 0
M  V30 18448 O 1748.73 1.71334 0.914228 0
M  V30 18449 C 1745.86 3.23777 1.25641 0
M  V30 18450 C 1744.82 4.22924 0.657191 0
M  V30 18451 C 1744.14 5.03345 1.80411 0
M  V30 18452 C 1745.44 5.20953 -0.374902 0
M  V30 18453 H 1747.14 2.95341 -0.491301 0
M  V30 18454 H 1744.68 1.42024 -0.237718 0
M  V30 18455 H 1746.64 3.81592 1.78789 0
M  V30 18456 H 1745.36 2.58978 1.98993 0
M  V30 18457 H 1744.02 3.66304 0.147184 0
M  V30 18458 H 1743.67 4.34965 2.52615 0
M  V30 18459 H 1743.37 5.70455 1.40906 0
M  V30 18460 H 1744.89 5.64013 2.33926 0
M  V30 18461 H 1746.3 5.73258 0.0697072 0
M  V30 18462 H 1744.7 5.96147 -0.687646 0
M  V30 18463 H 1745.77 4.67739 -1.27861 0
M  V30 18464 N 1747.11 0.27113 1.5525 0
M  V30 18465 C 1748.36 -0.347408 1.98686 0
M  V30 18466 C 1748.68 -1.57275 1.16292 0
M  V30 18467 O 1749.88 -2.26399 1.49853 0
M  V30 18468 C 1748.34 -0.669461 3.53619 0
M  V30 18469 C 1747.95 0.535853 4.44784 0
M  V30 18470 C 1749.69 -1.25084 4.05653 0
M  V30 18471 C 1747.6 0.188607 5.91099 0
M  V30 18472 H 1746.53 -0.133581 0.742073 0
M  V30 18473 H 1749.18 0.375157 1.79624 0
M  V30 18474 H 1747.56 -1.45082 3.68466 0
M  V30 18475 H 1748.73 1.3128 4.41704 0
M  V30 18476 H 1747.05 1.03381 4.03363 0
M  V30 18477 H 1749.65 -1.52439 5.1251 0
M  V30 18478 H 1749.99 -2.18341 3.54448 0
M  V30 18479 H 1750.52 -0.531864 3.94228 0
M  V30 18480 H 1747.26 1.08894 6.46392 0
M  V30 18481 H 1746.78 -0.551653 5.97258 0
M  V30 18482 H 1748.46 -0.220603 6.46624 0
M  V30 18483 N 1748.59 -1.576 -0.00164943 0
M  V30 18484 C 1749.53 -2.0376 -1.02747 0
M  V30 18485 C 1750.5 -0.927146 -1.33577 0
M  V30 18486 O 1751.69 -1.19514 -1.45769 0
M  V30 18487 C 1748.81 -2.43381 -2.35549 0
M  V30 18488 C 1747.86 -3.65143 -2.20392 0
M  V30 18489 S 1748.69 -5.13132 -1.53151 0
M  V30 18490 C 1749.85 -5.56021 -2.87387 0
M  V30 18491 H 1750.08 -2.90452 -0.634417 0
M  V30 18492 H 1747.62 -1.52931 -0.212468 0
M  V30 18493 H 1749.57 -2.66877 -3.11909 0
M  V30 18494 H 1748.23 -1.57091 -2.71995 0
M  V30 18495 H 1747.43 -3.90611 -3.18495 0
M  V30 18496 H 1747.03 -3.41641 -1.52177 0
M  V30 18497 H 1749.32 -5.58381 -3.83689 0
M  V30 18498 H 1750.26 -6.55987 -2.6662 0
M  V30 18499 H 1750.67 -4.83582 -2.9122 0
M  V30 18500 N 1750.07 0.274379 -1.55193 0
M  V30 18501 C 1751.32 1.00394 -1.7494 0
M  V30 18502 C 1751.63 1.87499 -0.557084 0
M  V30 18503 O 1752.84 2.63923 -0.636936 0
M  V30 18504 C 1751.29 1.83489 -3.09612 0
M  V30 18505 C 1750.9 1.01257 -4.36407 0
M  V30 18506 C 1752.65 2.55883 -3.38709 0
M  V30 18507 C 1750.55 1.83782 -5.62119 0
M  V30 18508 H 1749.48 0.378561 -0.65208 0
M  V30 18509 H 1752.13 0.259678 -1.81653 0
M  V30 18510 H 1750.52 2.62005 -2.96933 0
M  V30 18511 H 1751.69 0.27167 -4.59998 0
M  V30 18512 H 1750.01 0.403235 -4.14443 0
M  V30 18513 H 1752.6 3.18028 -4.2984 0
M  V30 18514 H 1752.95 3.26096 -2.58779 0
M  V30 18515 H 1753.48 1.84398 -3.5248 0
M  V30 18516 H 1750.22 1.17992 -6.44793 0
M  V30 18517 H 1749.74 2.55473 -5.42673 0
M  V30 18518 H 1751.42 2.41181 -6.00367 0
M  V30 18519 N 1751.55 1.48103 0.538828 0
M  V30 18520 C 1752.8 1.55362 1.29256 0
M  V30 18521 C 1753.12 0.225427 1.93693 0
M  V30 18522 O 1752.39 -0.75228 1.8088 0
M  V30 18523 H 1750.97 0.57233 0.480049 0
M  V30 18524 H 1753.63 1.84514 0.627749 0
M  V30 18525 H 1752.73 2.32998 2.07649 0
M  V30 18526 N 1753.03 -0.787016 1.36542 0
M  V30 18527 C 1754.25 -1.58103 1.34231 0
M  V30 18528 C 1754.68 -1.87956 -0.0734932 0
M  V30 18529 O 1754.03 -1.48073 -1.04615 0
M  V30 18530 C 1754.08 -2.87739 2.17345 0
M  V30 18531 O 1753.19 -3.81445 1.56759 0
M  V30 18532 H 1752.53 -0.479495 0.459326 0
M  V30 18533 H 1755.06 -0.975294 1.79859 0
M  V30 18534 H 1755.07 -3.36986 2.3001 0
M  V30 18535 H 1753.74 -2.65338 3.20264 0
M  V30 18536 H 1752.32 -3.40046 1.53047 0
M  V30 18537 N 1754.5 -1.20861 -1.01145 0
M  V30 18538 C 1755.45 -0.959005 -2.1191 0
M  V30 18539 C 1756.45 0.0914738 -1.69153 0
M  V30 18540 O 1757.65 -0.0593443 -1.79902 0
M  V30 18541 H 1754.03 -0.292825 -0.692645 0
M  V30 18542 H 1756 -1.89937 -2.30145 0
M  V30 18543 C 1754.75 -0.533258 -3.43586 0
M  V30 18544 H 1754.07 -1.33319 -3.76917 0
M  V30 18545 H 1755.51 -0.397868 -4.22129 0
M  V30 18546 C 1753.97 0.755011 -3.28331 0
M  V30 18547 O 1754.5 1.81217 -3.58502 0
M  V30 18548 N 1752.71 0.719026 -2.81564 0
M  V30 18549 H 1752.25 -0.141544 -2.57211 0
M  V30 18550 H 1752.21 1.58132 -2.71738 0
M  V30 18551 N 1755.98 1.20536 -1.01532 0
M  V30 18552 C 1756.95 2.21495 -0.589298 0
M  V30 18553 C 1757.95 1.57167 0.339871 0
M  V30 18554 O 1759.14 1.73724 0.128736 0
M  V30 18555 C 1756.27 3.40614 0.139623 0
M  V30 18556 H 1757.46 2.607 -1.48241 0
M  V30 18557 H 1755.01 1.33977 -0.804977 0
M  V30 18558 H 1755.75 3.0691 1.04771 0
M  V30 18559 H 1755.53 3.88531 -0.52785 0
M  V30 18560 H 1757.02 4.15431 0.425083 0
M  V30 18561 N 1757.46 0.791395 1.36289 0
M  V30 18562 C 1758.69 0.375566 2.03971 0
M  V30 18563 C 1759.11 -1.00061 1.59277 0
M  V30 18564 O 1758.47 -1.64501 0.762182 0
M  V30 18565 C 1758.52 0.449891 3.57783 0
M  V30 18566 O 1757.62 -0.54243 4.08817 0
M  V30 18567 H 1756.96 0.159181 0.644637 0
M  V30 18568 H 1759.49 1.07306 1.74203 0
M  V30 18569 H 1759.5 0.314206 4.06788 0
M  V30 18570 H 1758.18 1.45377 3.89665 0
M  V30 18571 H 1756.75 -0.368243 3.71077 0
M  V30 18572 N 1758.94 -1.47929 0.54358 0
M  V30 18573 C 1760.22 -1.95535 -0.0505687 0
M  V30 18574 C 1760.6 -1.48603 -1.49934 0
M  V30 18575 O 1759.94 -0.718655 -2.16905 0
M  V30 18576 C 1760.15 -3.48907 0.0807654 0
M  V30 18577 C 1761.5 -4.2454 -0.0715671 0
M  V30 18578 O 1762.53 -3.56199 0.007637 0
M  V30 18579 O 1761.39 -5.45975 -0.239596 0
M  V30 18580 H 1758.48 -0.823883 -0.0717396 0
M  V30 18581 H 1761.03 -1.58391 0.60914 0
M  V30 18582 H 1759.8 -3.75828 1.08944 0
M  V30 18583 H 1759.42 -3.92781 -0.617178 0
M  V30 18584 N 1760.42 -0.27936 -1.55104 0
M  V30 18585 C 1761.83 0.074665 -1.59425 0
M  V30 18586 C 1762.03 1.54246 -1.29655 0
M  V30 18587 O 1761.09 2.29197 -1.05947 0
M  V30 18588 C 1762.4 -0.30379 -2.99162 0
M  V30 18589 C 1763.95 -0.250758 -3.11994 0
M  V30 18590 C 1764.43 -0.603715 -4.54004 0
M  V30 18591 N 1765.92 -0.555428 -4.59858 0
M  V30 18592 C 1766.65 -0.801278 -5.67774 0
M  V30 18593 N 1766.15 -1.11197 -6.83818 0
M  V30 18594 N 1767.94 -0.72979 -5.57342 0
M  V30 18595 H 1760.09 -1.23619 -1.7272 0
M  V30 18596 H 1762.35 -0.499704 -0.805606 0
M  V30 18597 H 1762.06 -1.32475 -3.25796 0
M  V30 18598 H 1761.93 0.353294 -3.75542 0
M  V30 18599 H 1764.32 0.760925 -2.85121 0
M  V30 18600 H 1764.4 -0.94216 -2.37817 0
M  V30 18601 H 1764.05 -1.6131 -4.81603 0
M  V30 18602 H 1763.98 0.109523 -5.26486 0
M  V30 18603 H 1766.47 -0.325348 -3.76497 0
M  V30 18604 H 1766.78 -1.28611 -7.62023 0
M  V30 18605 H 1765.13 -1.14978 -6.85423 0
M  V30 18606 H 1768.32 -0.48688 -4.65561 0
M  V30 18607 H 1768.49 -0.92477 -6.41367 0
M  V30 18608 N 1761.9 1.57599 -0.0067085 0
M  V30 18609 C 1762.83 2.04302 1.01665 0
M  V30 18610 C 1763.81 0.934217 1.33083 0
M  V30 18611 O 1764.99 1.20285 1.45133 0
M  V30 18612 C 1762.12 2.44627 2.34255 0
M  V30 18613 C 1761.16 3.66307 2.18453 0
M  V30 18614 S 1762 5.13937 1.50428 0
M  V30 18615 C 1763.15 5.57538 2.84434 0
M  V30 18616 H 1763.39 2.90784 0.619005 0
M  V30 18617 H 1760.92 1.53042 0.204354 0
M  V30 18618 H 1762.88 2.68527 3.10489 0
M  V30 18619 H 1761.54 1.58531 2.71158 0
M  V30 18620 H 1760.73 3.92295 3.16419 0
M  V30 18621 H 1760.33 3.42443 1.50363 0
M  V30 18622 H 1762.62 5.60408 3.80722 0
M  V30 18623 H 1763.57 6.57392 2.63138 0
M  V30 18624 H 1763.98 4.85119 2.88651 0
M  V30 18625 N 1763.37 -0.266145 1.55336 0
M  V30 18626 C 1764.62 -0.994862 1.75917 0
M  V30 18627 C 1764.94 -1.8657 0.567147 0
M  V30 18628 O 1764.21 -1.91394 -0.417738 0
M  V30 18629 H 1762.79 -0.370318 0.648748 0
M  V30 18630 H 1765.45 -0.288724 1.9275 0
M  V30 18631 H 1764.55 -1.62781 2.66287 0
M  V30 18632 N 1764.85 -1.48386 -0.530967 0
M  V30 18633 C 1765.78 -1.57405 -1.65224 0
M  V30 18634 C 1766.76 -0.424555 -1.5696 0
M  V30 18635 O 1767.95 -0.63602 -1.77446 0
M  V30 18636 C 1765.07 -1.50112 -3.03618 0
M  V30 18637 C 1764.12 -2.6989 -3.30245 0
M  V30 18638 S 1764.95 -4.31867 -3.16624 0
M  V30 18639 C 1766.11 -4.27171 -4.57466 0
M  V30 18640 H 1766.34 -2.52262 -1.57324 0
M  V30 18641 H 1763.87 -1.36907 -0.713851 0
M  V30 18642 H 1765.83 -1.46591 -3.83434 0
M  V30 18643 H 1764.49 -0.565934 -3.0896 0
M  V30 18644 H 1763.69 -2.60923 -4.31202 0
M  V30 18645 H 1763.29 -2.70668 -2.58098 0
M  V30 18646 H 1765.58 -3.97044 -5.48965 0
M  V30 18647 H 1766.52 -5.28304 -4.71487 0
M  V30 18648 H 1766.93 -3.57653 -4.36743 0
M  V30 18649 N 1766.33 0.779763 -1.36958 0
M  V30 18650 C 1767.58 1.53499 -1.31463 0
M  V30 18651 C 1767.9 1.94728 0.102869 0
M  V30 18652 O 1767.17 1.65688 1.0452 0
M  V30 18653 H 1765.75 0.5693 -0.483638 0
M  V30 18654 H 1768.41 0.928536 -1.7136 0
M  V30 18655 H 1767.51 2.4381 -1.94841 0
M  V30 18656 N 1767.81 1.21396 1.00503 0
M  V30 18657 C 1769.05 1.0327 1.74537 0
M  V30 18658 C 1769.39 -0.432746 1.89317 0
M  V30 18659 O 1768.66 -1.32111 1.42747 0
M  V30 18660 C 1768.94 1.73045 3.15797 0
M  V30 18661 C 1768.8 3.27108 3.0874 0
M  V30 18662 C 1770.12 1.47298 4.14718 0
M  V30 18663 H 1767.24 0.376563 0.633537 0
M  V30 18664 H 1769.88 1.49571 1.17169 0
M  V30 18665 H 1768.03 1.33682 3.64776 0
M  V30 18666 H 1769.7 3.75839 2.67475 0
M  V30 18667 H 1767.94 3.57413 2.45843 0
M  V30 18668 H 1768.61 3.71096 4.08646 0
M  V30 18669 H 1771.09 1.81468 3.74444 0
M  V30 18670 H 1769.97 1.98633 5.11699 0
M  V30 18671 H 1770.23 0.402981 4.4026 0
M  V30 18672 N 1769.29 -1.19996 1.0217 0
M  V30 18673 C 1770.51 -1.93466 0.733374 0
M  V30 18674 C 1770.93 -1.75074 -0.70672 0
M  V30 18675 O 1770.29 -1.068 -1.47987 0
M  V30 18676 C 1770.34 -3.45425 1.06601 0
M  V30 18677 O 1770.06 -3.6322 2.44954 0
M  V30 18678 C 1771.56 -4.36032 0.799458 0
M  V30 18679 H 1768.78 -0.614762 0.268903 0
M  V30 18680 H 1771.32 -1.52343 1.36426 0
M  V30 18681 H 1769.48 -3.84409 0.480432 0
M  V30 18682 H 1769.89 -4.57155 2.57117 0
M  V30 18683 H 1771.37 -5.41287 1.08223 0
M  V30 18684 H 1771.84 -4.38392 -0.266279 0
M  V30 18685 H 1772.45 -4.02718 1.36743 0
M  V30 18686 N 1770.76 -0.798611 -1.35867 0
M  V30 18687 C 1771.99 -0.386918 -2.02945 0
M  V30 18688 C 1772.4 1.00438 -1.6034 0
M  V30 18689 O 1771.74 1.65716 -0.792719 0
M  V30 18690 C 1771.81 -0.381754 -3.57467 0
M  V30 18691 C 1771.47 -1.72219 -4.23308 0
M  V30 18692 C 1772.47 -2.67919 -4.45551 0
M  V30 18693 C 1770.15 -2.00402 -4.60591 0
M  V30 18694 C 1772.15 -3.8999 -5.04169 0
M  V30 18695 C 1769.83 -3.22737 -5.18926 0
M  V30 18696 C 1770.83 -4.1735 -5.40655 0
M  V30 18697 O 1770.52 -5.37527 -5.97762 0
M  V30 18698 H 1770.25 -0.156344 -0.657672 0
M  V30 18699 H 1772.81 -1.08128 -1.74635 0
M  V30 18700 H 1771.04 0.369157 -3.84934 0
M  V30 18701 H 1772.72 0.00653107 -4.05899 0
M  V30 18702 H 1773.49 -2.47436 -4.17134 0
M  V30 18703 H 1769.37 -1.27573 -4.42997 0
M  V30 18704 H 1772.91 -4.6385 -5.21046 0
M  V30 18705 H 1768.81 -3.43094 -5.46769 0
M  V30 18706 H 1769.58 -5.38716 -6.16221 0
M  V30 18707 N 1772.24 1.47639 -0.551417 0
M  V30 18708 C 1773.17 2.32743 0.187887 0
M  V30 18709 C 1774.15 1.43432 0.914407 0
M  V30 18710 O 1775.34 1.72295 0.896005 0
M  V30 18711 C 1772.47 3.25092 1.22199 0
M  V30 18712 C 1771.42 4.23598 0.612298 0
M  V30 18713 C 1770.75 5.0523 1.75062 0
M  V30 18714 C 1772.05 5.20526 -0.430135 0
M  V30 18715 H 1773.74 2.94804 -0.522598 0
M  V30 18716 H 1771.29 1.41764 -0.252768 0
M  V30 18717 H 1773.24 3.83467 1.74731 0
M  V30 18718 H 1771.96 2.61074 1.96235 0
M  V30 18719 H 1770.62 3.6644 0.108324 0
M  V30 18720 H 1770.27 4.3762 2.47987 0
M  V30 18721 H 1769.97 5.71918 1.34848 0
M  V30 18722 H 1771.5 5.66463 2.27931 0
M  V30 18723 H 1772.91 5.73299 0.00890168 0
M  V30 18724 H 1771.31 5.95384 -0.750836 0
M  V30 18725 H 1772.38 4.66356 -1.32815 0
M  V30 18726 N 1773.72 0.287581 1.54954 0
M  V30 18727 C 1774.68 -0.581465 2.21702 0
M  V30 18728 C 1775.68 -1.07172 1.19878 0
M  V30 18729 O 1776.87 -0.969899 1.44702 0
M  V30 18730 C 1774.01 -1.80358 2.89282 0
M  V30 18731 H 1775.2 0.00151035 2.999 0
M  V30 18732 H 1772.75 0.0382953 1.56253 0
M  V30 18733 H 1773.49 -2.42674 2.15128 0
M  V30 18734 H 1773.27 -1.45983 3.63911 0
M  V30 18735 H 1774.76 -2.42129 3.4024 0
M  V30 18736 N 1775.2 -1.57593 0.0150662 0
M  V30 18737 C 1776.13 -2.12395 -0.970081 0
M  V30 18738 C 1777.11 -1.03666 -1.34861 0
M  V30 18739 O 1778.29 -1.31427 -1.4297 0
M  V30 18740 C 1775.42 -2.63958 -2.25707 0
M  V30 18741 C 1774.38 -3.77348 -2.01971 0
M  V30 18742 C 1773.7 -4.15284 -3.36814 0
M  V30 18743 C 1775 -5.04008 -1.37017 0
M  V30 18744 H 1776.7 -2.9496 -0.513731 0
M  V30 18745 H 1774.24 -1.41889 -0.245666 0
M  V30 18746 H 1776.2 -3.00927 -2.94993 0
M  V30 18747 H 1774.92 -1.78535 -2.73483 0
M  V30 18748 H 1773.58 -3.40795 -1.35107 0
M  V30 18749 H 1773.23 -3.26863 -3.82321 0
M  V30 18750 H 1772.93 -4.91686 -3.21744 0
M  V30 18751 H 1774.45 -4.54824 -4.07391 0
M  V30 18752 H 1775.87 -5.38652 -1.96282 0
M  V30 18753 H 1774.26 -5.85315 -1.32388 0
M  V30 18754 H 1775.33 -4.83698 -0.341281 0
M  V30 18755 N 1776.68 0.257904 -1.55475 0
M  V30 18756 C 1777.93 0.985329 -1.75995 0
M  V30 18757 C 1778.24 1.86898 -0.57694 0
M  V30 18758 O 1779.44 2.63233 -0.664893 0
M  V30 18759 C 1777.9 1.80195 -3.11541 0
M  V30 18760 C 1777.51 0.966227 -4.37456 0
M  V30 18761 C 1779.25 2.52277 -3.41404 0
M  V30 18762 C 1777.16 1.7781 -5.64037 0
M  V30 18763 H 1776.09 0.371623 -0.656058 0
M  V30 18764 H 1778.74 0.240396 -1.81919 0
M  V30 18765 H 1777.12 2.58841 -2.99695 0
M  V30 18766 H 1778.3 0.222865 -4.60261 0
M  V30 18767 H 1776.61 0.359255 -4.14847 0
M  V30 18768 H 1779.21 3.13451 -4.33189 0
M  V30 18769 H 1779.55 3.23333 -2.62224 0
M  V30 18770 H 1780.08 1.80649 -3.54416 0
M  V30 18771 H 1776.82 1.11147 -6.46008 0
M  V30 18772 H 1776.34 2.49703 -5.45352 0
M  V30 18773 H 1778.02 2.348 -6.02891 0
M  V30 18774 N 1778.15 1.48666 0.52309 0
M  V30 18775 C 1779.12 1.63211 1.60919 0
M  V30 18776 C 1780.12 0.505012 1.52664 0
M  V30 18777 O 1781.31 0.770967 1.56211 0
M  V30 18778 C 1778.44 1.60878 3.00551 0
M  V30 18779 H 1779.63 2.60061 1.4936 0
M  V30 18780 H 1777.19 1.37366 0.745674 0
M  V30 18781 H 1777.92 0.655306 3.1761 0
M  V30 18782 H 1777.71 2.4271 3.07952 0
M  V30 18783 H 1779.2 1.74263 3.79502 0
M  V30 18784 N 1779.63 -0.772489 1.37369 0
M  V30 18785 C 1780.86 -1.56158 1.35729 0
M  V30 18786 C 1781.28 -1.88712 -0.0575274 0
M  V30 18787 O 1780.63 -1.51395 -1.01911 0
M  V30 18788 C 1780.68 -2.87231 2.19501 0
M  V30 18789 O 1780.4 -2.56072 3.5547 0
M  V30 18790 C 1781.91 -3.81464 2.25831 0
M  V30 18791 H 1779.13 -0.483803 0.464947 0
M  V30 18792 H 1781.67 -0.957502 1.80699 0
M  V30 18793 H 1779.82 -3.44063 1.78042 0
M  V30 18794 H 1780.24 -3.40002 3.99373 0
M  V30 18795 H 1781.71 -4.70442 2.8877 0
M  V30 18796 H 1782.19 -4.20542 1.26653 0
M  V30 18797 H 1782.8 -3.30561 2.67599 0
M  V30 18798 N 1781.11 -1.21927 -0.998575 0
M  V30 18799 C 1782.36 -1.0404 -1.7373 0
M  V30 18800 C 1782.69 0.425251 -1.89794 0
M  V30 18801 O 1781.94 1.3317 -1.43402 0
M  V30 18802 C 1782.24 -1.69015 -3.1491 0
M  V30 18803 C 1781.91 -3.18893 -3.18776 0
M  V30 18804 C 1780.57 -3.5979 -3.19538 0
M  V30 18805 C 1782.92 -4.14851 -3.15512 0
M  V30 18806 C 1780.25 -4.95138 -3.1473 0
M  V30 18807 C 1782.6 -5.50168 -3.12246 0
M  V30 18808 C 1781.26 -5.90454 -3.11321 0
M  V30 18809 H 1780.53 -0.380709 -0.635721 0
M  V30 18810 H 1783.18 -1.5161 -1.1699 0
M  V30 18811 H 1781.49 -1.13755 -3.74923 0
M  V30 18812 H 1783.18 -1.52671 -3.708 0
M  V30 18813 H 1779.77 -2.86325 -3.18929 0
M  V30 18814 H 1783.96 -3.84277 -3.14078 0
M  V30 18815 H 1779.21 -5.25589 -3.12356 0
M  V30 18816 H 1783.39 -6.24254 -3.08675 0
M  V30 18817 H 1781.01 -6.95299 -3.0735 0
M  V30 18818 N 1782.59 1.19452 -1.02805 0
M  V30 18819 C 1783.54 2.22644 -0.608134 0
M  V30 18820 C 1784.51 1.6175 0.377639 0
M  V30 18821 O 1785.69 1.88815 0.274487 0
M  V30 18822 C 1782.83 3.45081 0.0357589 0
M  V30 18823 C 1781.94 4.20363 -0.995955 0
M  V30 18824 C 1781.08 5.30224 -0.321911 0
M  V30 18825 C 1780.12 5.97261 -1.33959 0
M  V30 18826 N 1779.25 6.98687 -0.691414 0
M  V30 18827 H 1784.09 2.57921 -1.49268 0
M  V30 18828 H 1781.63 1.26722 -0.746985 0
M  V30 18829 H 1783.59 4.15016 0.426309 0
M  V30 18830 H 1782.22 3.10463 0.883889 0
M  V30 18831 H 1781.27 3.49381 -1.50457 0
M  V30 18832 H 1782.58 4.6636 -1.76945 0
M  V30 18833 H 1781.74 6.06574 0.123528 0
M  V30 18834 H 1780.48 4.85294 0.483792 0
M  V30 18835 H 1779.48 5.19662 -1.7953 0
M  V30 18836 H 1780.71 6.44275 -2.14678 0
M  V30 18837 H 1778.65 6.55932 0.0942121 0
M  V30 18838 H 1778.57 7.42871 -1.40281 0
M  V30 18839 H 1779.84 7.79032 -0.269948 0
M  V30 18840 N 1784.07 0.805805 1.35442 0
M  V30 18841 C 1785.32 0.382303 1.98044 0
M  V30 18842 C 1785.63 -1.05602 1.64644 0
M  V30 18843 O 1786.83 -1.5826 2.20604 0
M  V30 18844 C 1785.29 0.632619 3.54296 0
M  V30 18845 C 1784.9 2.08344 3.96607 0
M  V30 18846 C 1786.64 0.274435 4.23612 0
M  V30 18847 C 1784.55 2.27954 5.45702 0
M  V30 18848 H 1783.48 0.13921 0.741037 0
M  V30 18849 H 1786.13 0.989752 1.54519 0
M  V30 18850 H 1784.51 -0.0447699 3.95975 0
M  V30 18851 H 1785.69 2.79857 3.66083 0
M  V30 18852 H 1784 2.40142 3.40178 0
M  V30 18853 H 1786.6 0.399019 5.33209 0
M  V30 18854 H 1786.94 -0.779292 4.08941 0
M  V30 18855 H 1787.47 0.90571 3.87352 0
M  V30 18856 H 1784.21 3.3177 5.6534 0
M  V30 18857 H 1783.73 1.60965 5.77798 0
M  V30 18858 H 1785.41 2.09469 6.12153 0
M  V30 18859 N 1785.54 -1.47344 0.559239 0
M  V30 18860 C 1786.48 -2.28095 -0.224826 0
M  V30 18861 C 1787.49 -1.37127 -0.877492 0
M  V30 18862 O 1788.68 -1.61933 -0.751002 0
M  V30 18863 C 1785.78 -3.1145 -1.33611 0
M  V30 18864 C 1784.95 -4.30392 -0.779845 0
M  V30 18865 C 1784.01 -4.95327 -1.77587 0
M  V30 18866 O 1783.04 -5.53654 -1.32119 0
M  V30 18867 N 1784.24 -4.90206 -3.10931 0
M  V30 18868 H 1787 -2.96026 0.46786 0
M  V30 18869 H 1784.56 -1.56996 0.395448 0
M  V30 18870 H 1786.56 -3.51758 -2.00121 0
M  V30 18871 H 1785.13 -2.45749 -1.932 0
M  V30 18872 H 1784.35 -3.94151 0.0620861 0
M  V30 18873 H 1785.63 -5.07322 -0.387581 0
M  V30 18874 H 1785.03 -4.44022 -3.50515 0
M  V30 18875 H 1783.59 -5.34527 -3.72994 0
M  V30 18876 N 1787.02 -0.295795 -1.54799 0
M  V30 18877 C 1788.43 0.19789 -1.85648 0
M  V30 18878 C 1788.78 1.53834 -1.21776 0
M  V30 18879 O 1787.91 2.10218 -0.513554 0
M  V30 18880 C 1788.5 0.365844 -3.36819 0
M  V30 18881 C 1787.06 0.80375 -3.67718 0
M  V30 18882 C 1786.21 -0.0909572 -2.77151 0
M  V30 18883 H 1789.16 -0.516968 -1.50044 0
M  V30 18884 H 1789.18 1.20123 -3.61041 0
M  V30 18885 H 1788.69 -0.60991 -3.83278 0
M  V30 18886 H 1786.8 1.79024 -3.26774 0
M  V30 18887 H 1786.91 0.626745 -4.74983 0
M  V30 18888 H 1785.27 0.428882 -2.51063 0
M  V30 18889 H 1786.06 -1.06297 -3.26429 0
M  V30 18890 N 1788.5 1.57583 -0.0234236 0
M  V30 18891 C 1789.75 1.91565 0.656449 0
M  V30 18892 C 1790.08 0.899298 1.72461 0
M  V30 18893 O 1789.33 -0.0926107 1.95481 0
M  V30 18894 C 1789.63 3.32283 1.31616 0
M  V30 18895 C 1789.3 4.49305 0.378925 0
M  V30 18896 C 1787.96 4.81048 0.120945 0
M  V30 18897 C 1790.31 5.20526 -0.264985 0
M  V30 18898 C 1787.64 5.81373 -0.788846 0
M  V30 18899 C 1789.99 6.21821 -1.1628 0
M  V30 18900 C 1788.65 6.52009 -1.42972 0
M  V30 18901 H 1787.92 0.700985 0.240212 0
M  V30 18902 H 1790.57 1.91316 -0.0839711 0
M  V30 18903 H 1788.88 3.28766 2.13119 0
M  V30 18904 H 1790.57 3.55845 1.84866 0
M  V30 18905 H 1787.16 4.24517 0.590173 0
M  V30 18906 H 1791.35 4.96238 -0.0787258 0
M  V30 18907 H 1786.6 6.0311 -1.00341 0
M  V30 18908 H 1790.78 6.7613 -1.66796 0
M  V30 18909 H 1788.4 7.29564 -2.13636 0
M  V30 18910 N 1789.98 -0.249655 1.5561 0
M  V30 18911 C 1790.91 -1.31281 1.931 0
M  V30 18912 C 1791.89 -1.50347 0.795601 0
M  V30 18913 O 1793.08 -1.63001 1.05566 0
M  V30 18914 C 1790.21 -2.66808 2.2233 0
M  V30 18915 C 1789.16 -2.62441 3.38096 0
M  V30 18916 C 1788.49 -4.01738 3.52861 0
M  V30 18917 C 1789.79 -2.19667 4.7386 0
M  V30 18918 H 1791.48 -1.00151 2.82153 0
M  V30 18919 H 1789.03 -0.480331 1.35753 0
M  V30 18920 H 1790.98 -3.41316 2.47146 0
M  V30 18921 H 1789.7 -2.99569 1.30101 0
M  V30 18922 H 1788.36 -1.90391 3.13284 0
M  V30 18923 H 1788.01 -4.31759 2.58056 0
M  V30 18924 H 1787.71 -3.99705 4.30708 0
M  V30 18925 H 1789.23 -4.7795 3.79995 0
M  V30 18926 H 1790.65 -2.83906 4.98067 0
M  V30 18927 H 1789.04 -2.28751 5.54791 0
M  V30 18928 H 1790.11 -1.14829 4.71108 0
M  V30 18929 N 1791.46 -1.48941 -0.515198 0
M  V30 18930 C 1792.42 -1.64062 -1.60051 0
M  V30 18931 C 1793.42 -0.513101 -1.52394 0
M  V30 18932 O 1794.61 -0.77924 -1.558 0
M  V30 18933 C 1791.74 -1.6247 -2.99694 0
M  V30 18934 H 1792.94 -2.60849 -1.47978 0
M  V30 18935 H 1790.49 -1.37759 -0.738378 0
M  V30 18936 H 1791.22 -0.672141 -3.17258 0
M  V30 18937 H 1791.01 -2.4434 -3.0666 0
M  V30 18938 H 1792.5 -1.76273 -3.78573 0
M  V30 18939 N 1792.94 0.765193 -1.37777 0
M  V30 18940 C 1793.87 1.89247 -1.36777 0
M  V30 18941 C 1794.85 1.68463 -0.235389 0
M  V30 18942 O 1796.03 1.89225 -0.436733 0
M  V30 18943 C 1793.16 3.2662 -1.18053 0
M  V30 18944 C 1792.12 3.61981 -2.28372 0
M  V30 18945 C 1791.44 4.97967 -1.94765 0
M  V30 18946 C 1792.74 3.68053 -3.70587 0
M  V30 18947 H 1794.44 1.90341 -2.31108 0
M  V30 18948 H 1791.98 0.914355 -1.11245 0
M  V30 18949 H 1793.93 4.05125 -1.15982 0
M  V30 18950 H 1792.66 3.25976 -0.201803 0
M  V30 18951 H 1791.32 2.85788 -2.2961 0
M  V30 18952 H 1790.97 4.93869 -0.954052 0
M  V30 18953 H 1790.67 5.22594 -2.68642 0
M  V30 18954 H 1792.19 5.78864 -1.94292 0
M  V30 18955 H 1793.6 4.36696 -3.71443 0
M  V30 18956 H 1792 4.04183 -4.43572 0
M  V30 18957 H 1793.07 2.68556 -4.03739 0
M  V30 18958 N 1794.41 1.22455 0.992094 0
M  V30 18959 C 1795.66 1.04752 1.72833 0
M  V30 18960 C 1795.98 -0.418152 1.90464 0
M  V30 18961 O 1795.25 -1.30072 1.46486 0
M  V30 18962 H 1793.83 0.384626 0.640368 0
M  V30 18963 H 1796.49 1.5398 1.19483 0
M  V30 18964 H 1795.59 1.52601 2.72249 0
M  V30 18965 N 1795.89 -1.18905 1.03437 0
M  V30 18966 C 1797.14 -1.88727 0.734048 0
M  V30 18967 C 1797.47 -1.79964 -0.737773 0
M  V30 18968 O 1796.72 -1.19016 -1.5535 0
M  V30 18969 C 1797.02 -3.38811 1.13762 0
M  V30 18970 C 1796.69 -3.67777 2.60865 0
M  V30 18971 C 1795.35 -3.75393 3.01054 0
M  V30 18972 C 1797.7 -3.80666 3.5601 0
M  V30 18973 C 1795.03 -3.9337 4.35289 0
M  V30 18974 C 1797.38 -4.00158 4.89955 0
M  V30 18975 C 1796.04 -4.06007 5.29825 0
M  V30 18976 H 1795.31 -0.690602 0.268607 0
M  V30 18977 H 1797.96 -1.40777 1.29823 0
M  V30 18978 H 1796.27 -3.88697 0.492134 0
M  V30 18979 H 1797.96 -3.91164 0.882696 0
M  V30 18980 H 1794.55 -3.62462 2.28733 0
M  V30 18981 H 1798.74 -3.7412 3.2611 0
M  V30 18982 H 1793.99 -3.9614 4.65707 0
M  V30 18983 H 1798.17 -4.09073 5.63589 0
M  V30 18984 H 1795.79 -4.1969 6.33849 0
M  V30 18985 N 1797.37 -0.812977 -1.35013 0
M  V30 18986 C 1798.62 -0.396345 -1.98583 0
M  V30 18987 C 1798.94 1.0381 -1.6448 0
M  V30 18988 O 1798.2 1.73604 -0.903344 0
M  V30 18989 C 1798.5 -0.534083 -3.53387 0
M  V30 18990 C 1798.16 -1.93278 -4.07375 0
M  V30 18991 C 1796.83 -2.31543 -4.21831 0
M  V30 18992 C 1799.18 -2.84756 -4.36535 0
M  V30 18993 C 1796.51 -3.60641 -4.62769 0
M  V30 18994 C 1798.86 -4.13308 -4.78915 0
M  V30 18995 C 1797.52 -4.51563 -4.91576 0
M  V30 18996 H 1796.79 -0.145033 -0.726668 0
M  V30 18997 H 1799.44 -1.035 -1.61121 0
M  V30 18998 H 1797.74 0.188002 -3.91349 0
M  V30 18999 H 1799.44 -0.192396 -4.00538 0
M  V30 19000 H 1796.03 -1.62551 -3.96579 0
M  V30 19001 H 1800.22 -2.56441 -4.24914 0
M  V30 19002 H 1795.47 -3.9012 -4.70761 0
M  V30 19003 H 1799.65 -4.84287 -5.00439 0
M  V30 19004 H 1797.27 -5.51649 -5.23056 0
M  V30 19005 N 1798.85 1.47045 -0.567045 0
M  V30 19006 C 1799.78 2.32929 0.163191 0
M  V30 19007 C 1800.76 1.44393 0.899142 0
M  V30 19008 O 1801.94 1.73235 0.87768 0
M  V30 19009 C 1799.07 3.26369 1.18745 0
M  V30 19010 C 1798.03 4.24223 0.567335 0
M  V30 19011 C 1797.35 5.07058 1.69693 0
M  V30 19012 C 1798.65 5.2004 -0.485319 0
M  V30 19013 H 1800.35 2.94233 -0.553837 0
M  V30 19014 H 1797.89 1.41488 -0.267789 0
M  V30 19015 H 1799.85 3.85299 1.70654 0
M  V30 19016 H 1798.57 2.6314 1.93455 0
M  V30 19017 H 1797.23 3.66534 0.0694525 0
M  V30 19018 H 1796.88 4.40226 2.43331 0
M  V30 19019 H 1796.58 5.73316 1.28774 0
M  V30 19020 H 1798.1 5.68848 2.2191 0
M  V30 19021 H 1799.52 5.73277 -0.0519049 0
M  V30 19022 H 1797.91 5.94554 -0.813942 0
M  V30 19023 H 1798.98 4.64921 -1.37754 0
M  V30 19024 N 1800.33 0.304 1.5464 0
M  V30 19025 C 1801.74 -0.0492924 1.59524 0
M  V30 19026 C 1801.94 -1.52164 1.32093 0
M  V30 19027 O 1801 -2.27483 1.0958 0
M  V30 19028 C 1802.31 0.351346 2.9864 0
M  V30 19029 C 1803.86 0.300362 3.11555 0
M  V30 19030 C 1804.33 0.675867 4.52986 0
M  V30 19031 N 1805.82 0.628517 4.58916 0
M  V30 19032 C 1806.56 0.891504 5.66427 0
M  V30 19033 N 1806.06 1.22061 6.81962 0
M  V30 19034 N 1807.85 0.818366 5.56111 0
M  V30 19035 H 1800 1.26351 1.70731 0
M  V30 19036 H 1802.26 0.512457 0.797554 0
M  V30 19037 H 1801.97 1.37642 3.23647 0
M  V30 19038 H 1801.84 -0.293504 3.76056 0
M  V30 19039 H 1804.23 -0.715468 2.86295 0
M  V30 19040 H 1804.31 0.979876 2.36288 0
M  V30 19041 H 1803.95 1.68952 4.78976 0
M  V30 19042 H 1803.88 -0.0257498 5.26594 0
M  V30 19043 H 1806.38 0.385204 3.75932 0
M  V30 19044 H 1806.69 1.40718 7.5988 0
M  V30 19045 H 1805.03 1.25868 6.83507 0
M  V30 19046 H 1808.22 0.560885 4.64728 0
M  V30 19047 H 1808.4 1.02669 6.39815 0
M  V30 19048 N 1801.8 -1.57568 0.0317802 0
M  V30 19049 C 1802.75 -2.10379 -0.949183 0
M  V30 19050 C 1803.72 -1.00649 -1.32133 0
M  V30 19051 O 1804.91 -1.28084 -1.41418 0
M  V30 19052 C 1802.05 -2.63762 -2.22539 0
M  V30 19053 C 1801.16 -3.87509 -1.90946 0
M  V30 19054 C 1800.29 -4.29276 -3.12882 0
M  V30 19055 C 1799.33 -5.45775 -2.77121 0
M  V30 19056 N 1798.47 -5.82686 -3.9169 0
M  V30 19057 H 1803.31 -2.93912 -0.491922 0
M  V30 19058 H 1800.85 -1.45272 -0.23121 0
M  V30 19059 H 1802.8 -2.92803 -2.9719 0
M  V30 19060 H 1801.43 -1.83055 -2.65877 0
M  V30 19061 H 1800.49 -3.6518 -1.06526 0
M  V30 19062 H 1801.8 -4.72235 -1.6061 0
M  V30 19063 H 1800.95 -4.59768 -3.95851 0
M  V30 19064 H 1799.69 -3.43323 -3.46382 0
M  V30 19065 H 1798.7 -5.14974 -1.92565 0
M  V30 19066 H 1799.92 -6.3343 -2.44834 0
M  V30 19067 H 1797.87 -4.99688 -4.25027 0
M  V30 19068 H 1797.78 -6.62058 -3.64986 0
M  V30 19069 H 1799.05 -6.17785 -4.75355 0
M  V30 19070 N 1803.28 0.241399 -1.5574 0
M  V30 19071 C 1804.21 1.30255 -1.93793 0
M  V30 19072 C 1805.19 1.49923 -0.803563 0
M  V30 19073 O 1806.38 1.62439 -1.06429 0
M  V30 19074 C 1803.51 2.65625 -2.23742 0
M  V30 19075 C 1802.46 2.60645 -3.39483 0
M  V30 19076 C 1801.79 3.99861 -3.54986 0
M  V30 19077 C 1803.09 2.17151 -4.75019 0
M  V30 19078 H 1804.78 0.986532 -2.8268 0
M  V30 19079 H 1802.33 0.473125 -1.36006 0
M  V30 19080 H 1804.28 3.40001 -2.48953 0
M  V30 19081 H 1803.01 2.98874 -1.31688 0
M  V30 19082 H 1801.66 1.88727 -3.14289 0
M  V30 19083 H 1801.31 4.30385 -2.60342 0
M  V30 19084 H 1801.01 3.97415 -4.32822 0
M  V30 19085 H 1802.54 4.75928 -3.82524 0
M  V30 19086 H 1803.95 2.8126 -4.99565 0
M  V30 19087 H 1802.35 2.25805 -5.55996 0
M  V30 19088 H 1803.42 1.12329 -4.7171 0
M  V30 19089 N 1804.76 1.49212 0.507292 0
M  V30 19090 C 1805.99 1.6208 1.28599 0
M  V30 19091 C 1806.4 0.289745 1.86563 0
M  V30 19092 O 1805.76 -0.723987 1.67525 0
M  V30 19093 C 1805.81 2.68482 2.42074 0
M  V30 19094 O 1805.53 3.96424 1.86493 0
M  V30 19095 C 1807.03 2.91997 3.33546 0
M  V30 19096 H 1804.25 0.545831 0.390268 0
M  V30 19097 H 1806.8 1.95201 0.609652 0
M  V30 19098 H 1804.95 2.38156 3.05549 0
M  V30 19099 H 1805.37 4.54983 2.60942 0
M  V30 19100 H 1806.84 3.70195 4.09463 0
M  V30 19101 H 1807.32 2.01673 3.9016 0
M  V30 19102 H 1807.92 3.23715 2.75842 0
M  V30 19103 N 1806.24 -0.757876 1.38181 0
M  V30 19104 C 1807.46 -1.55221 1.37555 0
M  V30 19105 C 1807.89 -1.8807 -0.0336083 0
M  V30 19106 O 1807.25 -1.50258 -1.0145 0
M  V30 19107 C 1807.29 -2.83064 2.23399 0
M  V30 19108 O 1806.4 -3.78034 1.64814 0
M  V30 19109 H 1805.74 -0.469644 0.469394 0
M  V30 19110 H 1808.27 -0.936923 1.81887 0
M  V30 19111 H 1808.28 -3.32031 2.37106 0
M  V30 19112 H 1806.95 -2.58485 3.2582 0
M  V30 19113 H 1805.53 -3.36723 1.60225 0
M  V30 19114 N 1807.72 -1.22979 -0.985586 0
M  V30 19115 C 1809.13 -0.991329 -1.25079 0
M  V30 19116 C 1809.33 0.310701 -1.9909 0
M  V30 19117 O 1808.39 1.03147 -2.30471 0
M  V30 19118 C 1809.7 -2.19483 -2.05542 0
M  V30 19119 C 1811.25 -2.23918 -2.187 0
M  V30 19120 C 1811.72 -3.43841 -3.02552 0
M  V30 19121 N 1813.22 -3.44048 -3.10137 0
M  V30 19122 C 1813.95 -4.33493 -3.75328 0
M  V30 19123 N 1813.45 -5.33167 -4.42385 0
M  V30 19124 N 1815.24 -4.2125 -3.72163 0
M  V30 19125 H 1807.39 -2.0668 -0.489617 0
M  V30 19126 H 1809.65 -0.906048 -0.278892 0
M  V30 19127 H 1809.36 -3.13945 -1.5853 0
M  V30 19128 H 1809.23 -2.20144 -3.06295 0
M  V30 19129 H 1811.62 -1.3 -2.64923 0
M  V30 19130 H 1811.7 -2.27293 -1.17353 0
M  V30 19131 H 1811.35 -4.38063 -2.57027 0
M  V30 19132 H 1811.28 -3.37707 -4.04056 0
M  V30 19133 H 1813.77 -2.71927 -2.6242 0
M  V30 19134 H 1814.08 -5.97684 -4.89892 0
M  V30 19135 H 1812.42 -5.37073 -4.4111 0
M  V30 19136 H 1815.62 -3.42629 -3.18941 0
M  V30 19137 H 1815.79 -4.91162 -4.22687 0
M  V30 19138 N 1809.19 1.18355 -1.04066 0
M  V30 19139 C 1810.1 2.25641 -0.642115 0
M  V30 19140 C 1811.12 1.70811 0.331614 0
M  V30 19141 O 1812.3 2.00534 0.186542 0
M  V30 19142 C 1809.36 3.46698 -0.0112485 0
M  V30 19143 C 1808.42 4.16662 -1.03398 0
M  V30 19144 C 1807.66 5.3194 -0.433125 0
M  V30 19145 O 1807.88 5.65305 0.760669 0
M  V30 19146 O 1806.81 5.90581 -1.16182 0
M  V30 19147 H 1810.64 2.61997 -1.53595 0
M  V30 19148 H 1808.22 1.25437 -0.811542 0
M  V30 19149 H 1810.11 4.20027 0.339934 0
M  V30 19150 H 1808.78 3.12166 0.856405 0
M  V30 19151 H 1807.69 3.45402 -1.43696 0
M  V30 19152 H 1809.02 4.55194 -1.8724 0
M  V30 19153 N 1810.67 0.820125 1.3458 0
M  V30 19154 C 1811.62 0.22828 2.31477 0
M  V30 19155 C 1812.61 -0.629439 1.57272 0
M  V30 19156 O 1813.82 -0.521091 1.72292 0
M  V30 19157 H 1810.2 0.0550728 0.749981 0
M  V30 19158 H 1812.17 1.0604 2.78923 0
M  V30 19159 C 1810.92 -0.597495 3.42528 0
M  V30 19160 H 1810.24 0.0531749 3.99765 0
M  V30 19161 H 1811.68 -0.977765 4.12572 0
M  V30 19162 C 1810.14 -1.76868 2.86739 0
M  V30 19163 O 1810.67 -2.86674 2.81391 0
M  V30 19164 N 1808.87 -1.58453 2.436 0
M  V30 19165 H 1808.42 -0.691318 2.4815 0
M  V30 19166 H 1808.38 -2.36969 2.06624 0
M  V30 19167 N 1812.15 -1.46743 0.574835 0
M  V30 19168 C 1813.08 -2.33012 -0.150836 0
M  V30 19169 C 1814.06 -1.44868 -0.891472 0
M  V30 19170 O 1815.25 -1.73698 -0.868481 0
M  V30 19171 C 1812.38 -3.26995 -1.17012 0
M  V30 19172 C 1811.33 -4.24518 -0.544829 0
M  V30 19173 C 1810.66 -5.07951 -1.67002 0
M  V30 19174 C 1811.96 -5.19776 0.512891 0
M  V30 19175 H 1813.65 -2.93935 0.569433 0
M  V30 19176 H 1811.2 -1.41344 0.275289 0
M  V30 19177 H 1813.15 -3.86198 -1.68609 0
M  V30 19178 H 1811.87 -2.64163 -1.92056 0
M  V30 19179 H 1810.53 -3.66566 -0.0500133 0
M  V30 19180 H 1810.18 -4.4151 -2.40993 0
M  V30 19181 H 1809.88 -5.73991 -1.25732 0
M  V30 19182 H 1811.4 -5.70017 -2.1889 0
M  V30 19183 H 1812.82 -5.73241 0.0823064 0
M  V30 19184 H 1811.22 -5.94114 0.845462 0
M  V30 19185 H 1812.29 -4.64184 1.40217 0
M  V30 19186 N 1813.63 -0.312197 -1.54477 0
M  V30 19187 C 1814.56 0.551829 -2.26886 0
M  V30 19188 C 1815.54 1.12874 -1.27254 0
M  V30 19189 O 1816.72 1.15599 -1.56046 0
M  V30 19190 C 1813.85 1.71839 -3.01809 0
M  V30 19191 C 1812.81 1.27131 -4.08683 0
M  V30 19192 C 1812.13 2.52392 -4.71384 0
M  V30 19193 C 1813.43 0.394413 -5.20809 0
M  V30 19194 H 1815.13 -0.0521331 -2.99355 0
M  V30 19195 H 1812.67 -0.0265138 -1.43976 0
M  V30 19196 H 1814.63 2.32903 -3.5119 0
M  V30 19197 H 1813.35 2.34876 -2.26938 0
M  V30 19198 H 1812.01 0.683666 -3.60169 0
M  V30 19199 H 1811.66 3.13768 -3.93139 0
M  V30 19200 H 1811.36 2.23174 -5.43569 0
M  V30 19201 H 1812.88 3.14239 -5.23533 0
M  V30 19202 H 1814.3 0.911031 -5.66015 0
M  V30 19203 H 1812.69 0.195517 -5.99781 0
M  V30 19204 H 1813.76 -0.577661 -4.81447 0
M  V30 19205 N 1815.11 1.57549 -0.040136 0
M  V30 19206 C 1816.04 2.13912 0.936168 0
M  V30 19207 C 1817.02 1.05798 1.33194 0
M  V30 19208 O 1818.2 1.33685 1.40861 0
M  V30 19209 C 1815.33 2.67515 2.21479 0
M  V30 19210 C 1814.29 3.80513 1.95943 0
M  V30 19211 C 1813.61 4.20589 3.30165 0
M  V30 19212 C 1814.91 5.06124 1.28981 0
M  V30 19213 H 1816.61 2.9574 0.46674 0
M  V30 19214 H 1814.15 1.42262 0.223062 0
M  V30 19215 H 1816.11 3.05582 2.90168 0
M  V30 19216 H 1814.83 1.82864 2.70608 0
M  V30 19217 H 1813.49 3.42902 1.29669 0
M  V30 19218 H 1813.14 3.32904 3.77073 0
M  V30 19219 H 1812.84 4.96742 3.13881 0
M  V30 19220 H 1814.36 4.61248 4.00103 0
M  V30 19221 H 1815.77 5.41707 1.87687 0
M  V30 19222 H 1814.17 5.87347 1.2306 0
M  V30 19223 H 1815.24 4.84179 0.264286 0
M  V30 19224 N 1816.58 -0.233136 1.55866 0
M  V30 19225 C 1817.83 -0.957324 1.77988 0
M  V30 19226 C 1818.15 -1.85325 0.606593 0
M  V30 19227 O 1817.42 -1.92237 -0.377047 0
M  V30 19228 H 1816 -0.356474 0.656457 0
M  V30 19229 H 1818.67 -0.247774 1.93319 0
M  V30 19230 H 1817.76 -1.57096 2.6968 0
M  V30 19231 N 1818.06 -1.49479 -0.499372 0
M  V30 19232 C 1819.31 -1.59284 -1.25525 0
M  V30 19233 C 1819.64 -0.27941 -1.92179 0
M  V30 19234 O 1818.92 0.717142 -1.80796 0
M  V30 19235 C 1819.2 -2.75323 -2.32098 0
M  V30 19236 C 1819.05 -4.16464 -1.69934 0
M  V30 19237 C 1820.37 -2.86998 -3.33646 0
M  V30 19238 H 1817.49 -0.579768 -0.455015 0
M  V30 19239 H 1820.13 -1.81769 -0.553165 0
M  V30 19240 H 1818.28 -2.56282 -2.91979 0
M  V30 19241 H 1819.96 -4.47026 -1.13867 0
M  V30 19242 H 1818.2 -4.22036 -1.0034 0
M  V30 19243 H 1818.87 -4.93534 -2.47242 0
M  V30 19244 H 1821.35 -3.04337 -2.83757 0
M  V30 19245 H 1820.22 -3.69865 -4.05575 0
M  V30 19246 H 1820.48 -1.96419 -3.9607 0
M  V30 19247 N 1819.54 0.750537 -1.38581 0
M  V30 19248 C 1820.79 1.50676 -1.34689 0
M  V30 19249 C 1821.11 1.94903 0.0615414 0
M  V30 19250 O 1820.38 1.67867 1.00982 0
M  V30 19251 H 1818.96 0.558914 -0.495605 0
M  V30 19252 H 1821.62 0.891979 -1.73291 0
M  V30 19253 H 1820.72 2.39623 -1.99969 0
M  V30 19254 N 1821.02 1.235 0.979051 0
M  V30 19255 C 1821.95 1.04183 2.08969 0
M  V30 19256 C 1822.93 -0.041685 1.70049 0
M  V30 19257 O 1824.12 0.123217 1.93809 0
M  V30 19258 C 1821.25 0.633696 3.4147 0
M  V30 19259 C 1820.2 1.66471 3.94299 0
M  V30 19260 C 1819.53 1.11198 5.2301 0
M  V30 19261 C 1820.83 3.05804 4.23416 0
M  V30 19262 H 1822.52 1.9708 2.25388 0
M  V30 19263 H 1820.07 0.948963 1.08308 0
M  V30 19264 H 1822.02 0.485599 4.18593 0
M  V30 19265 H 1820.74 -0.330958 3.24919 0
M  V30 19266 H 1819.4 1.80082 3.19321 0
M  V30 19267 H 1819.05 0.138264 5.0281 0
M  V30 19268 H 1818.75 1.80087 5.59323 0
M  V30 19269 H 1820.27 0.975759 6.02753 0
M  V30 19270 H 1821.69 2.95487 4.91284 0
M  V30 19271 H 1820.08 3.71944 4.70933 0
M  V30 19272 H 1821.15 3.54695 3.30635 0
M  V30 19273 N 1822.5 -1.17802 1.04693 0
M  V30 19274 C 1823.46 -2.19854 0.647816 0
M  V30 19275 C 1824.46 -1.58013 -0.298081 0
M  V30 19276 O 1825.65 -1.74004 -0.0826309 0
M  V30 19277 C 1822.78 -3.40864 -0.0492661 0
M  V30 19278 H 1823.98 -2.56678 1.55101 0
M  V30 19279 H 1821.53 -1.31796 0.840215 0
M  V30 19280 H 1822.26 -3.0958 -0.965967 0
M  V30 19281 H 1822.05 -3.86995 0.630677 0
M  V30 19282 H 1823.54 -4.16412 -0.31479 0
M  V30 19283 N 1823.98 -0.827251 -1.34143 0
M  V30 19284 C 1824.91 -0.197383 -2.27345 0
M  V30 19285 C 1825.89 0.648729 -1.49098 0
M  V30 19286 O 1827.07 0.611527 -1.78305 0
M  V30 19287 C 1824.2 0.723918 -3.30873 0
M  V30 19288 C 1823.24 -0.0452254 -4.26476 0
M  V30 19289 S 1824.08 -1.39531 -5.17002 0
M  V30 19290 C 1825.23 -0.478996 -6.24064 0
M  V30 19291 H 1825.47 -0.987544 -2.80419 0
M  V30 19292 H 1823 -0.623379 -1.41256 0
M  V30 19293 H 1824.96 1.2499 -3.91009 0
M  V30 19294 H 1823.62 1.48764 -2.76637 0
M  V30 19295 H 1822.81 0.655335 -4.99721 0
M  V30 19296 H 1822.41 -0.5019 -3.70617 0
M  V30 19297 H 1824.7 0.327755 -6.76707 0
M  V30 19298 H 1825.65 -1.18126 -6.98178 0
M  V30 19299 H 1826.06 -0.0655033 -5.64462 0
M  V30 19300 N 1825.45 1.46436 -0.582609 0
M  V30 19301 C 1826.42 2.28769 0.140502 0
M  V30 19302 C 1827.42 1.38385 0.818911 0
M  V30 19303 O 1828.61 1.60763 0.670882 0
M  V30 19304 C 1825.74 3.18765 1.20836 0
M  V30 19305 H 1826.93 2.94178 -0.583049 0
M  V30 19306 H 1824.48 1.52544 -0.340575 0
M  V30 19307 H 1825.22 2.58103 1.9635 0
M  V30 19308 H 1825 3.85312 0.726417 0
M  V30 19309 H 1826.49 3.80735 1.71553 0
M  V30 19310 N 1826.93 0.320385 1.54309 0
M  V30 19311 C 1827.89 -0.534308 2.22885 0
M  V30 19312 C 1828.89 -1.04605 1.22124 0
M  V30 19313 O 1830.08 -0.938988 1.46726 0
M  V30 19314 C 1827.22 -1.74181 2.93042 0
M  V30 19315 H 1828.41 0.0651232 2.99829 0
M  V30 19316 H 1825.96 0.0714303 1.56137 0
M  V30 19317 H 1826.7 -2.38056 2.20227 0
M  V30 19318 H 1826.48 -1.38231 3.66926 0
M  V30 19319 H 1827.97 -2.34857 3.45299 0
M  V30 19320 N 1828.41 -1.57525 0.0484906 0
M  V30 19321 C 1829.64 -1.96897 -0.635553 0
M  V30 19322 C 1830.05 -0.925909 -1.64537 0
M  V30 19323 O 1829.41 0.0901742 -1.82277 0
M  V30 19324 C 1829.46 -3.36348 -1.32484 0
M  V30 19325 O 1829.18 -4.36656 -0.355464 0
M  V30 19326 C 1830.68 -3.90463 -2.0989 0
M  V30 19327 H 1827.9 -0.648062 -0.173945 0
M  V30 19328 H 1830.45 -2.04182 0.113997 0
M  V30 19329 H 1828.6 -3.30222 -2.02564 0
M  V30 19330 H 1829.02 -5.17613 -0.847153 0
M  V30 19331 H 1830.49 -4.90326 -2.53543 0
M  V30 19332 H 1830.97 -3.25745 -2.94596 0
M  V30 19333 H 1831.57 -3.99918 -1.44726 0
M  V30 19334 N 1829.89 0.224867 -1.55988 0
M  V30 19335 C 1830.82 1.28192 -1.95164 0
M  V30 19336 C 1831.8 1.49062 -0.81942 0
M  V30 19337 O 1832.98 1.61301 -1.08146 0
M  V30 19338 C 1830.11 2.63237 -2.26547 0
M  V30 19339 C 1829.07 2.57029 -3.42228 0
M  V30 19340 C 1828.39 3.96073 -3.59207 0
M  V30 19341 C 1829.69 2.12101 -4.77295 0
M  V30 19342 H 1831.39 0.956495 -2.8371 0
M  V30 19343 H 1828.93 0.458673 -1.365 0
M  V30 19344 H 1830.89 3.37341 -2.52545 0
M  V30 19345 H 1829.61 2.97461 -1.3485 0
M  V30 19346 H 1828.27 1.85382 -3.16273 0
M  V30 19347 H 1827.92 4.27599 -2.64892 0
M  V30 19348 H 1827.62 3.92802 -4.37013 0
M  V30 19349 H 1829.14 4.71844 -3.8755 0
M  V30 19350 H 1830.56 2.75946 -5.0252 0
M  V30 19351 H 1828.95 2.19895 -5.5836 0
M  V30 19352 H 1830.02 1.07319 -4.72875 0
M  V30 19353 N 1831.37 1.49742 0.491438 0
M  V30 19354 C 1832.78 1.36717 0.823454 0
M  V30 19355 C 1832.98 0.407587 1.97335 0
M  V30 19356 O 1832.04 -0.157251 2.5201 0
M  V30 19357 C 1833.35 2.77647 1.15466 0
M  V30 19358 C 1834.9 2.86417 1.26231 0
M  V30 19359 C 1835.37 4.28136 1.62676 0
M  V30 19360 N 1836.86 4.30992 1.69707 0
M  V30 19361 C 1837.6 5.37624 1.9937 0
M  V30 19362 N 1837.1 6.54489 2.27192 0
M  V30 19363 N 1838.89 5.25048 2.00701 0
M  V30 19364 H 1831.04 2.10719 -0.266676 0
M  V30 19365 H 1833.3 0.946301 -0.0567377 0
M  V30 19366 H 1833.01 3.49608 0.382994 0
M  V30 19367 H 1832.88 3.13617 2.09582 0
M  V30 19368 H 1835.27 2.14687 2.02468 0
M  V30 19369 H 1835.35 2.54018 0.301434 0
M  V30 19370 H 1834.99 5.00396 0.869859 0
M  V30 19371 H 1834.92 4.58007 2.59879 0
M  V30 19372 H 1837.42 3.46713 1.50327 0
M  V30 19373 H 1837.73 7.31572 2.49041 0
M  V30 19374 H 1836.07 6.57699 2.24627 0
M  V30 19375 H 1839.26 4.32751 1.78449 0
M  V30 19376 H 1839.44 6.08242 2.23484 0
M  V30 19377 N 1832.84 -0.743177 1.38977 0
M  V30 19378 C 1833.77 -1.87047 1.3977 0
M  V30 19379 C 1834.76 -1.68068 0.262161 0
M  V30 19380 O 1835.94 -1.88507 0.466782 0
M  V30 19381 C 1833.07 -3.24701 1.23234 0
M  V30 19382 C 1832.02 -3.58302 2.34102 0
M  V30 19383 C 1831.35 -4.94805 2.02663 0
M  V30 19384 C 1832.65 -3.62111 3.76395 0
M  V30 19385 H 1834.34 -1.8664 2.34107 0
M  V30 19386 H 1831.89 -0.896541 1.12686 0
M  V30 19387 H 1833.84 -4.03228 1.22412 0
M  V30 19388 H 1832.57 -3.25614 0.253638 0
M  V30 19389 H 1831.23 -2.82099 2.34128 0
M  V30 19390 H 1830.87 -4.92289 1.0325 0
M  V30 19391 H 1830.57 -5.18254 2.76922 0
M  V30 19392 H 1832.1 -5.75699 2.03477 0
M  V30 19393 H 1833.51 -4.30731 3.78343 0
M  V30 19394 H 1831.91 -3.97075 4.49946 0
M  V30 19395 H 1832.98 -2.62099 4.07961 0
M  V30 19396 N 1834.32 -1.24018 -0.972487 0
M  V30 19397 C 1835.73 -1.07076 -1.52943 0
M  V30 19398 C 1836.08 0.35937 -1.92881 0
M  V30 19399 O 1835.21 1.24713 -1.76849 0
M  V30 19400 C 1835.8 -1.93753 -2.7793 0
M  V30 19401 C 1834.36 -1.81048 -3.29998 0
M  V30 19402 C 1833.51 -1.88977 -2.02936 0
M  V30 19403 H 1836.46 -1.37565 -0.791304 0
M  V30 19404 H 1836.48 -1.46699 -3.51084 0
M  V30 19405 H 1835.99 -2.97833 -2.48832 0
M  V30 19406 H 1834.1 -0.797825 -3.63958 0
M  V30 19407 H 1834.21 -2.64876 -3.99221 0
M  V30 19408 H 1832.57 -1.32649 -2.17431 0
M  V30 19409 H 1833.36 -2.94627 -1.76209 0
M  V30 19410 N 1835.8 1.17245 -1.05316 0
M  V30 19411 C 1836.71 2.24948 -0.666011 0
M  V30 19412 C 1837.73 1.71153 0.313478 0
M  V30 19413 O 1838.9 2.00721 0.165262 0
M  V30 19414 C 1835.97 3.46667 -0.0480198 0
M  V30 19415 C 1835.03 4.15542 -1.07812 0
M  V30 19416 C 1834.26 5.3145 -0.48952 0
M  V30 19417 O 1834.48 5.6608 0.700668 0
M  V30 19418 O 1833.42 5.89315 -1.22439 0
M  V30 19419 H 1837.24 2.60353 -1.56365 0
M  V30 19420 H 1834.83 1.24569 -0.8248 0
M  V30 19421 H 1836.71 4.20364 0.295366 0
M  V30 19422 H 1835.39 3.13056 0.823248 0
M  V30 19423 H 1834.29 3.43858 -1.47351 0
M  V30 19424 H 1835.63 4.53183 -1.92057 0
M  V30 19425 N 1837.28 0.834353 1.33702 0
M  V30 19426 C 1838.56 0.350003 1.92443 0
M  V30 19427 C 1838.94 -1.1641 1.76102 0
M  V30 19428 O 1838.28 -1.97646 1.14666 0
M  V30 19429 C 1838.49 0.791928 3.39896 0
M  V30 19430 C 1839.84 0.797338 4.17046 0
M  V30 19431 O 1840.87 0.735242 3.48529 0
M  V30 19432 O 1839.72 0.880963 5.39353 0
M  V30 19433 H 1836.82 0.0981048 0.82116 0
M  V30 19434 H 1839.36 0.919905 1.42604 0
M  V30 19435 H 1838.14 1.83433 3.45641 0
M  V30 19436 H 1837.76 0.198349 3.97105 0
M  V30 19437 N 1838.76 -1.46125 0.590367 0
M  V30 19438 C 1840.01 -2.01555 0.0765543 0
M  V30 19439 C 1840.32 -1.46661 -1.29422 0
M  V30 19440 O 1841.52 -1.93958 -1.8998 0
M  V30 19441 C 1839.98 -3.59797 0.0862369 0
M  V30 19442 C 1839.59 -4.23687 1.4558 0
M  V30 19443 C 1841.33 -4.22856 -0.373232 0
M  V30 19444 C 1839.24 -5.7403 1.42279 0
M  V30 19445 H 1838.17 -0.75359 0.0248501 0
M  V30 19446 H 1840.82 -1.67778 0.743149 0
M  V30 19447 H 1839.2 -3.90684 -0.646675 0
M  V30 19448 H 1840.38 -4.04398 2.20905 0
M  V30 19449 H 1838.69 -3.72753 1.85592 0
M  V30 19450 H 1841.29 -5.33073 -0.416837 0
M  V30 19451 H 1841.63 -3.92325 -1.39237 0
M  V30 19452 H 1842.16 -3.96622 0.305859 0
M  V30 19453 H 1838.9 -6.09234 2.41898 0
M  V30 19454 H 1838.42 -5.95561 0.711862 0
M  V30 19455 H 1840.1 -6.36896 1.13899 0
M  V30 19456 N 1840.23 -0.328564 -1.54137 0
M  V30 19457 C 1841.14 0.543922 -2.28207 0
M  V30 19458 C 1842.16 1.1249 -1.32748 0
M  V30 19459 O 1843.34 1.1438 -1.65769 0
M  V30 19460 C 1840.4 1.6864 -3.02922 0
M  V30 19461 C 1839.46 1.13672 -4.13977 0
M  V30 19462 C 1838.7 2.22474 -4.85119 0
M  V30 19463 O 1838.92 3.42914 -4.55813 0
M  V30 19464 O 1837.85 1.87611 -5.71914 0
M  V30 19465 H 1841.68 -0.0577601 -3.03645 0
M  V30 19466 H 1839.26 -0.0940895 -1.49103 0
M  V30 19467 H 1841.15 2.35143 -3.49693 0
M  V30 19468 H 1839.82 2.27417 -2.30355 0
M  V30 19469 H 1838.73 0.436625 -3.71543 0
M  V30 19470 H 1840.06 0.594012 -4.88602 0
M  V30 19471 N 1841.71 1.57497 -0.0568439 0
M  V30 19472 C 1842.64 2.08817 0.94488 0
M  V30 19473 C 1843.66 1.01717 1.27112 0
M  V30 19474 O 1844.85 1.2927 1.23092 0
M  V30 19475 C 1841.95 2.52104 2.26488 0
M  V30 19476 C 1841.12 3.82606 2.11971 0
M  V30 19477 C 1840.18 4.12145 3.27144 0
M  V30 19478 O 1839.2 4.81978 3.02797 0
M  V30 19479 N 1840.41 3.64505 4.51792 0
M  V30 19480 H 1843.17 2.95384 0.506814 0
M  V30 19481 H 1840.73 1.61383 0.129259 0
M  V30 19482 H 1842.72 2.68938 3.02415 0
M  V30 19483 H 1841.29 1.70756 2.61842 0
M  V30 19484 H 1840.51 3.75299 1.20601 0
M  V30 19485 H 1841.8 4.68055 1.99505 0
M  V30 19486 H 1841.2 3.08061 4.74462 0
M  V30 19487 H 1839.76 3.86566 5.24795 0
M  V30 19488 N 1843.19 -0.216591 1.56105 0
M  V30 19489 C 1844.12 -1.29579 1.87842 0
M  V30 19490 C 1845.1 -1.44974 0.73629 0
M  V30 19491 O 1846.29 -1.60708 0.985151 0
M  V30 19492 C 1843.41 -2.66544 2.08979 0
M  V30 19493 C 1842.46 -2.68136 3.3167 0
M  V30 19494 S 1843.29 -2.21708 4.87448 0
M  V30 19495 C 1844.45 -3.60539 5.11627 0
M  V30 19496 H 1844.68 -1.02465 2.79085 0
M  V30 19497 H 1842.21 -0.419071 1.48604 0
M  V30 19498 H 1844.17 -3.45394 2.2184 0
M  V30 19499 H 1842.83 -2.90879 1.18524 0
M  V30 19500 H 1842.03 -3.68796 3.4352 0
M  V30 19501 H 1841.63 -1.97352 3.17692 0
M  V30 19502 H 1843.92 -4.56263 5.0083 0
M  V30 19503 H 1844.86 -3.53601 6.13491 0
M  V30 19504 H 1845.27 -3.54456 4.39342 0
M  V30 19505 N 1844.67 -1.5 -0.48349 0
M  V30 19506 C 1845.63 -1.6742 -1.56535 0
M  V30 19507 C 1846.63 -0.545311 -1.51271 0
M  V30 19508 O 1847.82 -0.812112 -1.54112 0
M  V30 19509 C 1844.95 -1.6879 -2.9618 0
M  V30 19510 H 1846.15 -2.6393 -1.42412 0
M  V30 19511 H 1843.7 -1.39295 -0.708991 0
M  V30 19512 H 1844.43 -0.739285 -3.15761 0
M  V30 19513 H 1844.22 -2.50789 -3.01408 0
M  V30 19514 H 1845.71 -1.84264 -3.74749 0
M  V30 19515 N 1846.15 0.735796 -1.39369 0
M  V30 19516 C 1847.09 1.87116 -1.38168 0
M  V30 19517 C 1848.09 1.67315 -0.264936 0
M  V30 19518 O 1849.29 1.74666 -0.434928 0
M  V30 19519 H 1845.67 0.615926 -0.431438 0
M  V30 19520 H 1847.64 1.85245 -2.33938 0
M  V30 19521 C 1846.39 3.2479 -1.24125 0
M  V30 19522 H 1845.71 3.40621 -2.09325 0
M  V30 19523 H 1847.15 4.04426 -1.27341 0
M  V30 19524 C 1845.61 3.36862 0.050393 0
M  V30 19525 O 1846.14 3.88511 1.02088 0
M  V30 19526 N 1844.35 2.90379 0.113184 0
M  V30 19527 H 1843.89 2.48537 -0.677267 0
M  V30 19528 H 1843.85 2.98837 0.976928 0
M  V30 19529 N 1847.63 1.24532 0.965897 0
M  V30 19530 C 1848.87 1.08395 1.70572 0
M  V30 19531 C 1849.19 -0.377657 1.91308 0
M  V30 19532 O 1848.46 -1.26935 1.49212 0
M  V30 19533 H 1847.04 0.398123 0.632066 0
M  V30 19534 H 1849.71 1.5648 1.1619 0
M  V30 19535 H 1848.8 1.58342 2.6895 0
M  V30 19536 N 1849.1 -1.16685 1.05936 0
M  V30 19537 C 1850.35 -1.86466 0.768993 0
M  V30 19538 C 1850.67 -1.82374 -0.707038 0
M  V30 19539 O 1851.87 -2.47699 -1.11164 0
M  V30 19540 C 1850.33 -3.34605 1.32543 0
M  V30 19541 C 1849.94 -3.47179 2.83144 0
M  V30 19542 C 1851.68 -4.09665 1.11244 0
M  V30 19543 C 1849.59 -4.89384 3.3205 0
M  V30 19544 H 1848.52 -0.698479 0.283978 0
M  V30 19545 H 1851.17 -1.31717 1.27761 0
M  V30 19546 H 1849.55 -3.88937 0.744592 0
M  V30 19547 H 1850.72 -3.03027 3.47148 0
M  V30 19548 H 1849.04 -2.85549 3.03069 0
M  V30 19549 H 1851.64 -5.14586 1.45276 0
M  V30 19550 H 1851.98 -4.16269 0.0505969 0
M  V30 19551 H 1852.51 -3.61561 1.65887 0
M  V30 19552 H 1849.25 -4.87957 4.37697 0
M  V30 19553 H 1848.77 -5.34176 2.72793 0
M  V30 19554 H 1850.45 -5.58186 3.27166 0
M  V30 19555 N 1850.58 -0.841432 -1.33258 0
M  V30 19556 C 1851.54 -0.281685 -2.27462 0
M  V30 19557 C 1852.54 0.551062 -1.51063 0
M  V30 19558 O 1853.73 0.364482 -1.70344 0
M  V30 19559 C 1850.87 0.602896 -3.35526 0
M  V30 19560 H 1852.06 -1.11298 -2.78483 0
M  V30 19561 H 1849.61 -0.614717 -1.43704 0
M  V30 19562 H 1850.35 1.45652 -2.89751 0
M  V30 19563 H 1850.13 0.00701634 -3.92099 0
M  V30 19564 H 1851.62 0.987735 -4.05751 0
M  V30 19565 N 1852.06 1.4581 -0.598108 0
M  V30 19566 C 1852.99 2.33223 0.113747 0
M  V30 19567 C 1853.97 1.46268 0.868312 0
M  V30 19568 O 1855.16 1.75058 0.840737 0
M  V30 19569 C 1852.29 3.28815 1.11795 0
M  V30 19570 C 1851.24 4.25331 0.477223 0
M  V30 19571 C 1850.57 5.10544 1.589 0
M  V30 19572 C 1851.87 5.18894 -0.595518 0
M  V30 19573 H 1853.56 2.92992 -0.616123 0
M  V30 19574 H 1851.11 1.40888 -0.297741 0
M  V30 19575 H 1853.06 3.88832 1.62443 0
M  V30 19576 H 1851.78 2.67185 1.87829 0
M  V30 19577 H 1850.44 3.66599 -0.00831044 0
M  V30 19578 H 1850.09 4.45288 2.33939 0
M  V30 19579 H 1849.79 5.75918 1.16584 0
M  V30 19580 H 1851.31 5.73427 2.09794 0
M  V30 19581 H 1852.73 5.73037 -0.173494 0
M  V30 19582 H 1851.12 5.92694 -0.939873 0
M  V30 19583 H 1852.19 4.61895 -1.47584 0
M  V30 19584 N 1853.54 0.336733 1.53961 0
M  V30 19585 C 1854.79 -0.261343 2.00403 0
M  V30 19586 C 1855.11 -1.51612 1.22633 0
M  V30 19587 O 1854.38 -1.93072 0.331659 0
M  V30 19588 H 1852.96 -0.0995594 0.740336 0
M  V30 19589 H 1855.62 0.456319 1.89483 0
M  V30 19590 H 1854.71 -0.508557 3.07929 0
M  V30 19591 N 1855.02 -1.57465 0.0651956 0
M  V30 19592 C 1855.95 -2.15374 -0.902018 0
M  V30 19593 C 1856.93 -1.07904 -1.31494 0
M  V30 19594 O 1858.11 -1.35909 -1.38717 0
M  V30 19595 C 1855.24 -2.71005 -2.17195 0
M  V30 19596 C 1854.2 -3.83583 -1.89864 0
M  V30 19597 C 1853.52 -4.25789 -3.23432 0
M  V30 19598 C 1854.82 -5.08112 -1.20913 0
M  V30 19599 H 1856.52 -2.96445 -0.419631 0
M  V30 19600 H 1854.06 -1.42599 -0.200401 0
M  V30 19601 H 1856.01 -3.1016 -2.8527 0
M  V30 19602 H 1854.74 -1.87146 -2.67664 0
M  V30 19603 H 1853.4 -3.44921 -1.24197 0
M  V30 19604 H 1853.05 -3.38861 -3.71729 0
M  V30 19605 H 1852.75 -5.01673 -3.05938 0
M  V30 19606 H 1854.27 -4.67555 -3.92715 0
M  V30 19607 H 1855.68 -5.44624 -1.79046 0
M  V30 19608 H 1854.08 -5.8923 -1.137 0
M  V30 19609 H 1855.15 -4.84538 -0.187224 0
M  V30 19610 N 1856.49 0.20831 -1.56217 0
M  V30 19611 C 1857.43 1.28581 -1.88526 0
M  V30 19612 C 1858.4 1.44582 -0.743968 0
M  V30 19613 O 1859.59 1.60183 -0.99366 0
M  V30 19614 C 1856.72 2.65432 -2.1039 0
M  V30 19615 C 1855.76 2.66374 -3.33088 0
M  V30 19616 S 1856.59 2.1912 -4.88617 0
M  V30 19617 C 1857.75 3.57821 -5.13532 0
M  V30 19618 H 1857.98 1.00983 -2.79624 0
M  V30 19619 H 1855.52 0.411185 -1.48824 0
M  V30 19620 H 1857.47 3.44213 -2.23668 0
M  V30 19621 H 1856.14 2.90247 -1.20065 0
M  V30 19622 H 1855.33 3.66969 -3.45471 0
M  V30 19623 H 1854.93 1.95665 -3.18734 0
M  V30 19624 H 1857.22 4.53601 -5.03242 0
M  V30 19625 H 1858.17 3.50343 -6.15358 0
M  V30 19626 H 1858.57 3.52121 -4.41215 0
M  V30 19627 N 1857.97 1.50255 0.475528 0
M  V30 19628 C 1858.93 1.68248 1.55645 0
M  V30 19629 C 1859.93 0.553326 1.5098 0
M  V30 19630 O 1861.12 0.820274 1.53679 0
M  V30 19631 C 1858.26 1.70358 2.95281 0
M  V30 19632 H 1859.45 2.64681 1.4101 0
M  V30 19633 H 1857 1.39669 0.701594 0
M  V30 19634 H 1857.74 0.75602 3.15365 0
M  V30 19635 H 1857.52 2.52384 3.00074 0
M  V30 19636 H 1859.01 1.86249 3.73766 0
M  V30 19637 N 1859.45 -0.728395 1.39758 0
M  V30 19638 C 1860.38 -1.85554 1.41747 0
M  V30 19639 C 1861.36 -1.6778 0.279972 0
M  V30 19640 O 1862.55 -1.88001 0.48675 0
M  V30 19641 C 1859.68 -3.23375 1.26671 0
M  V30 19642 C 1858.63 -3.55799 2.37889 0
M  V30 19643 C 1857.96 -4.92628 2.07899 0
M  V30 19644 C 1859.26 -3.58098 3.80215 0
M  V30 19645 H 1860.95 -1.84146 2.36073 0
M  V30 19646 H 1858.5 -0.884539 1.13631 0
M  V30 19647 H 1860.45 -4.01907 1.26682 0
M  V30 19648 H 1859.17 -3.25326 0.288159 0
M  V30 19649 H 1857.83 -2.796 2.37107 0
M  V30 19650 H 1857.48 -4.91166 1.08466 0
M  V30 19651 H 1857.18 -5.15288 2.82404 0
M  V30 19652 H 1858.7 -5.73509 2.09571 0
M  V30 19653 H 1860.12 -4.26694 3.82891 0
M  V30 19654 H 1858.51 -3.9228 4.54133 0
M  V30 19655 H 1859.58 -2.57758 4.10718 0
M  V30 19656 N 1860.93 -1.25042 -0.959279 0
M  V30 19657 C 1861.87 -1.0502 -2.05522 0
M  V30 19658 C 1862.84 0.039194 -1.66054 0
M  V30 19659 O 1864.03 -0.11708 -1.9044 0
M  V30 19660 C 1861.17 -0.670047 -3.38533 0
M  V30 19661 C 1860.28 -1.83381 -3.91146 0
M  V30 19662 C 1859.42 -1.39844 -5.12462 0
M  V30 19663 C 1858.46 -2.53163 -5.57293 0
M  V30 19664 N 1857.59 -2.10435 -6.69822 0
M  V30 19665 H 1862.43 -1.98816 -2.21982 0
M  V30 19666 H 1859.97 -0.990139 -1.08787 0
M  V30 19667 H 1861.93 -0.430621 -4.14972 0
M  V30 19668 H 1860.56 0.230924 -3.21973 0
M  V30 19669 H 1859.61 -2.18667 -3.1127 0
M  V30 19670 H 1860.92 -2.68497 -4.2037 0
M  V30 19671 H 1860.08 -1.1184 -5.96303 0
M  V30 19672 H 1858.82 -0.51794 -4.84942 0
M  V30 19673 H 1857.82 -2.81918 -4.7202 0
M  V30 19674 H 1859.05 -3.41784 -5.86822 0
M  V30 19675 H 1856.99 -1.24794 -6.44021 0
M  V30 19676 H 1856.91 -2.89101 -6.98539 0
M  V30 19677 H 1858.18 -1.85593 -7.57084 0
M  V30 19678 N 1862.41 1.16121 -1.06553 0
M  V30 19679 C 1863.34 2.22761 -0.699976 0
M  V30 19680 C 1864.32 1.67274 0.308783 0
M  V30 19681 O 1865.5 1.93333 0.183328 0
M  V30 19682 C 1862.63 3.47187 -0.0884044 0
M  V30 19683 C 1861.59 4.15584 -1.02343 0
M  V30 19684 C 1860.91 5.33992 -0.275022 0
M  V30 19685 C 1862.21 4.66266 -2.35358 0
M  V30 19686 H 1863.91 2.53595 -1.59153 0
M  V30 19687 H 1861.45 1.21893 -0.766686 0
M  V30 19688 H 1863.41 4.21019 0.17922 0
M  V30 19689 H 1862.13 3.15661 0.838181 0
M  V30 19690 H 1860.79 3.43683 -1.27584 0
M  V30 19691 H 1860.44 4.9872 0.654765 0
M  V30 19692 H 1860.14 5.80695 -0.898181 0
M  V30 19693 H 1861.66 6.10598 -0.0150056 0
M  V30 19694 H 1863.07 5.31665 -2.14488 0
M  V30 19695 H 1861.47 5.236 -2.93195 0
M  V30 19696 H 1862.54 3.82335 -2.98241 0
M  V30 19697 N 1863.88 0.848487 1.3281 0
M  V30 19698 C 1865.13 0.445116 1.96727 0
M  V30 19699 C 1865.45 -1.00311 1.6792 0
M  V30 19700 O 1866.65 -1.51162 2.25527 0
M  V30 19701 C 1865.11 0.745015 3.52104 0
M  V30 19702 C 1864.72 2.20856 3.89778 0
M  V30 19703 C 1866.46 0.409065 4.22524 0
M  V30 19704 C 1864.37 2.452 5.38174 0
M  V30 19705 H 1863.3 0.162715 0.736233 0
M  V30 19706 H 1865.95 1.03841 1.51292 0
M  V30 19707 H 1864.33 0.0812291 3.95917 0
M  V30 19708 H 1865.5 2.91362 3.56994 0
M  V30 19709 H 1863.82 2.50842 3.32366 0
M  V30 19710 H 1866.42 0.568453 5.3167 0
M  V30 19711 H 1866.76 -0.648796 4.11213 0
M  V30 19712 H 1867.29 1.02848 3.84275 0
M  V30 19713 H 1864.03 3.49588 5.54499 0
M  V30 19714 H 1863.55 1.79265 5.72384 0
M  V30 19715 H 1865.23 2.28838 6.0518 0
M  V30 19716 N 1865.36 -1.4549 0.605832 0
M  V30 19717 C 1866.59 -2.06625 0.106651 0
M  V30 19718 C 1867.01 -1.45077 -1.20822 0
M  V30 19719 O 1866.36 -0.564316 -1.73556 0
M  V30 19720 C 1866.41 -3.61476 -0.0413179 0
M  V30 19721 O 1866.13 -4.20726 1.22153 0
M  V30 19722 C 1867.64 -4.39592 -0.572162 0
M  V30 19723 H 1864.86 -0.667542 0.0680365 0
M  V30 19724 H 1867.4 -1.86763 0.833067 0
M  V30 19725 H 1865.55 -3.80687 -0.718053 0
M  V30 19726 H 1865.97 -5.13881 1.05009 0
M  V30 19727 H 1867.44 -5.48453 -0.624791 0
M  V30 19728 H 1867.92 -4.09251 -1.59407 0
M  V30 19729 H 1868.53 -4.25242 0.0704697 0
M  V30 19730 N 1866.84 -0.344893 -1.5378 0
M  V30 19731 C 1867.77 0.545646 -2.2261 0
M  V30 19732 C 1868.79 1.06288 -1.23315 0
M  V30 19733 O 1869.97 0.972802 -1.49662 0
M  V30 19734 C 1867.07 1.76379 -2.89385 0
M  V30 19735 C 1866.25 1.38162 -4.15006 0
M  V30 19736 C 1865.31 2.45958 -4.65179 0
M  V30 19737 O 1864.33 2.0921 -5.29358 0
M  V30 19738 N 1865.53 3.77232 -4.41221 0
M  V30 19739 H 1868.3 -0.043834 -2.99668 0
M  V30 19740 H 1865.86 -0.169081 -1.61015 0
M  V30 19741 H 1867.85 2.47928 -3.19865 0
M  V30 19742 H 1866.42 2.26061 -2.15905 0
M  V30 19743 H 1865.64 0.496839 -3.91056 0
M  V30 19744 H 1866.93 1.10227 -4.96717 0
M  V30 19745 H 1866.33 4.09875 -3.89896 0
M  V30 19746 H 1864.89 4.44947 -4.76304 0
M  V30 19747 N 1868.32 1.57428 -0.0735454 0
M  V30 19748 C 1869.57 1.93556 0.595172 0
M  V30 19749 C 1869.89 0.95371 1.69513 0
M  V30 19750 O 1869.15 -0.0303731 1.95676 0
M  V30 19751 C 1869.45 3.36302 1.20978 0
M  V30 19752 C 1869.11 4.50283 0.235791 0
M  V30 19753 C 1867.78 4.81189 -0.0321575 0
M  V30 19754 C 1870.13 5.19419 -0.430452 0
M  V30 19755 C 1867.46 5.78569 -0.973406 0
M  V30 19756 C 1869.81 6.17807 -1.36003 0
M  V30 19757 C 1868.47 6.4713 -1.63643 0
M  V30 19758 H 1867.74 0.708272 0.217789 0
M  V30 19759 H 1870.39 1.90952 -0.144794 0
M  V30 19760 H 1868.69 3.3538 2.02552 0
M  V30 19761 H 1870.39 3.61546 1.73452 0
M  V30 19762 H 1866.98 4.2618 0.454817 0
M  V30 19763 H 1871.16 4.95736 -0.23656 0
M  V30 19764 H 1866.42 5.99612 -1.19478 0
M  V30 19765 H 1870.59 6.70481 -1.88222 0
M  V30 19766 H 1868.22 7.22398 -2.36738 0
M  V30 19767 N 1869.8 -0.200022 1.56326 0
M  V30 19768 C 1870.71 -1.26847 1.9735 0
M  V30 19769 C 1871.72 -1.50081 0.880432 0
M  V30 19770 O 1872.9 -1.62792 1.18578 0
M  V30 19771 C 1869.96 -2.59382 2.30048 0
M  V30 19772 C 1869.02 -2.44262 3.53036 0
M  V30 19773 C 1868.26 -3.70476 3.84165 0
M  V30 19774 O 1868.48 -4.74433 3.16654 0
M  V30 19775 O 1867.41 -3.663 4.77606 0
M  V30 19776 H 1871.24 -0.950324 2.88449 0
M  V30 19777 H 1868.83 -0.404628 1.43816 0
M  V30 19778 H 1870.71 -3.37616 2.52177 0
M  V30 19779 H 1869.38 -2.90833 1.42119 0
M  V30 19780 H 1868.29 -1.64154 3.36161 0
M  V30 19781 H 1869.62 -2.17744 4.41416 0
M  V30 19782 N 1871.27 -1.50505 -0.467553 0
M  V30 19783 C 1872.5 -1.65433 -1.24256 0
M  V30 19784 C 1872.92 -0.339107 -1.8573 0
M  V30 19785 O 1872.27 0.679316 -1.69386 0
M  V30 19786 C 1872.33 -2.74805 -2.34871 0
M  V30 19787 O 1872.05 -4.01229 -1.75917 0
M  V30 19788 C 1873.55 -3.00738 -3.25687 0
M  V30 19789 H 1870.77 -0.555987 -0.375659 0
M  V30 19790 H 1873.31 -1.96749 -0.557684 0
M  V30 19791 H 1871.47 -2.46174 -2.99128 0
M  V30 19792 H 1871.88 -4.61742 -2.48787 0
M  V30 19793 H 1873.35 -3.80921 -3.99504 0
M  V30 19794 H 1873.83 -2.11947 -3.84675 0
M  V30 19795 H 1874.44 -3.30914 -2.67163 0
M  V30 19796 N 1872.75 0.720973 -1.40142 0
M  V30 19797 C 1873.98 1.50793 -1.41226 0
M  V30 19798 C 1874.39 1.89198 -0.00879422 0
M  V30 19799 O 1873.73 1.55606 0.976337 0
M  V30 19800 C 1873.8 2.81639 -2.23427 0
M  V30 19801 C 1873.46 2.65588 -3.71903 0
M  V30 19802 C 1874.46 2.33204 -4.64663 0
M  V30 19803 C 1872.14 2.82021 -4.15655 0
M  V30 19804 C 1874.14 2.17454 -5.9916 0
M  V30 19805 C 1871.82 2.65889 -5.50224 0
M  V30 19806 C 1872.82 2.33653 -6.41791 0
M  V30 19807 O 1872.51 2.17637 -7.73879 0
M  V30 19808 H 1872.24 0.472113 -0.483824 0
M  V30 19809 H 1874.79 0.89739 -1.84759 0
M  V30 19810 H 1873.02 3.45006 -1.74665 0
M  V30 19811 H 1874.71 3.43329 -2.16518 0
M  V30 19812 H 1875.48 2.20146 -4.32158 0
M  V30 19813 H 1871.36 3.06101 -3.44707 0
M  V30 19814 H 1874.9 1.92215 -6.70596 0
M  V30 19815 H 1870.8 2.78529 -5.82316 0
M  V30 19816 H 1871.57 2.32599 -7.84755 0
M  V30 19817 N 1874.23 1.25549 0.952634 0
M  V30 19818 C 1875.16 1.01898 2.05304 0
M  V30 19819 C 1876.18 -0.0167609 1.62791 0
M  V30 19820 O 1877.36 0.222021 1.77114 0
M  V30 19821 C 1874.46 0.518856 3.34905 0
M  V30 19822 C 1873.64 1.62121 4.06246 0
M  V30 19823 C 1872.7 1.12111 5.14118 0
M  V30 19824 O 1871.72 1.81591 5.39456 0
M  V30 19825 N 1872.92 -0.0365454 5.80488 0
M  V30 19826 H 1875.69 1.96648 2.26163 0
M  V30 19827 H 1873.25 1.16782 1.12132 0
M  V30 19828 H 1875.24 0.168729 4.04348 0
M  V30 19829 H 1873.81 -0.334763 3.10802 0
M  V30 19830 H 1873.03 2.14282 3.30873 0
M  V30 19831 H 1874.32 2.36173 4.50666 0
M  V30 19832 H 1873.72 -0.617055 5.62325 0
M  V30 19833 H 1872.28 -0.327688 6.50976 0
M  V30 19834 N 1875.71 -1.15554 1.07168 0
M  V30 19835 C 1876.64 -2.22387 0.71178 0
M  V30 19836 C 1877.62 -1.67435 -0.299908 0
M  V30 19837 O 1878.8 -1.93427 -0.173073 0
M  V30 19838 C 1875.93 -3.47136 0.106815 0
M  V30 19839 C 1874.89 -4.15035 1.04545 0
M  V30 19840 C 1874.21 -5.33839 0.303337 0
M  V30 19841 C 1875.51 -4.65011 2.37827 0
M  V30 19842 H 1877.21 -2.52748 1.60496 0
M  V30 19843 H 1874.75 -1.21485 0.773139 0
M  V30 19844 H 1876.71 -4.21108 -0.15689 0
M  V30 19845 H 1875.43 -3.16101 -0.821429 0
M  V30 19846 H 1874.09 -3.43001 1.29405 0
M  V30 19847 H 1873.74 -4.9906 -0.628308 0
M  V30 19848 H 1873.44 -5.8021 0.928964 0
M  V30 19849 H 1874.96 -6.10582 0.0473869 0
M  V30 19850 H 1876.38 -5.3052 2.17305 0
M  V30 19851 H 1874.77 -5.22038 2.95967 0
M  V30 19852 H 1875.84 -3.80748 3.00264 0
M  V30 19853 N 1877.19 -0.855519 -1.32358 0
M  V30 19854 C 1878.43 -0.469284 -1.97912 0
M  V30 19855 C 1878.79 0.964638 -1.66471 0
M  V30 19856 O 1878.08 1.66785 -0.943052 0
M  V30 19857 C 1878.28 -0.64624 -3.51509 0
M  V30 19858 C 1878.1 -2.09581 -3.97877 0
M  V30 19859 C 1876.87 -2.73449 -4.24916 0
M  V30 19860 C 1879.07 -3.06649 -4.12881 0
M  V30 19861 N 1877.05 -4.09308 -4.57537 0
M  V30 19862 C 1878.43 -4.27498 -4.49049 0
M  V30 19863 C 1880.48 -3.02833 -3.95217 0
M  V30 19864 C 1879.18 -5.4503 -4.69398 0
M  V30 19865 C 1881.21 -4.1961 -4.16751 0
M  V30 19866 C 1880.57 -5.39218 -4.53237 0
M  V30 19867 H 1876.67 -0.220478 -0.750276 0
M  V30 19868 H 1879.25 -1.10709 -1.60161 0
M  V30 19869 H 1877.43 -0.038129 -3.88381 0
M  V30 19870 H 1879.16 -0.229815 -4.04047 0
M  V30 19871 H 1875.91 -2.24482 -4.17019 0
M  V30 19872 H 1876.34 -4.7939 -4.78032 0
M  V30 19873 H 1880.98 -2.1148 -3.66109 0
M  V30 19874 H 1878.7 -6.36914 -4.97359 0
M  V30 19875 H 1882.28 -4.18094 -4.04585 0
M  V30 19876 H 1881.16 -6.28075 -4.69565 0
M  V30 19877 N 1878.67 1.45167 -0.61354 0
M  V30 19878 C 1879.89 2.06565 -0.117608 0
M  V30 19879 C 1880.31 1.45716 1.20051 0
M  V30 19880 O 1879.67 0.573512 1.73254 0
M  V30 19881 C 1879.72 3.61493 0.0221474 0
M  V30 19882 O 1879.44 4.20072 -1.24383 0
M  V30 19883 C 1880.94 4.39889 0.548841 0
M  V30 19884 H 1878.16 0.667172 -0.0715756 0
M  V30 19885 H 1880.7 1.86318 -0.84296 0
M  V30 19886 H 1878.86 3.81063 0.697854 0
M  V30 19887 H 1879.27 5.13317 -1.07733 0
M  V30 19888 H 1880.75 5.48776 0.595696 0
M  V30 19889 H 1881.22 4.1009 1.57234 0
M  V30 19890 H 1881.83 4.25198 -0.0930203 0
M  V30 19891 N 1880.14 0.353044 1.53595 0
M  V30 19892 C 1881.11 -0.48691 2.23968 0
M  V30 19893 C 1882.11 -1.01991 1.24316 0
M  V30 19894 O 1883.3 -0.907654 1.48685 0
M  V30 19895 C 1880.43 -1.67926 2.96671 0
M  V30 19896 H 1881.62 0.128707 2.99624 0
M  V30 19897 H 1879.17 0.104533 1.5595 0
M  V30 19898 H 1879.91 -2.33331 2.25227 0
M  V30 19899 H 1879.69 -1.30417 3.69776 0
M  V30 19900 H 1881.18 -2.2748 3.50203 0
M  V30 19901 N 1881.62 -1.57387 0.0818932 0
M  V30 19902 C 1882.55 -2.16318 -0.879124 0
M  V30 19903 C 1883.53 -1.09293 -1.30342 0
M  V30 19904 O 1884.72 -1.37373 -1.37267 0
M  V30 19905 C 1881.85 -2.73293 -2.14308 0
M  V30 19906 C 1880.8 -3.85575 -1.85785 0
M  V30 19907 C 1880.13 -4.29195 -3.18897 0
M  V30 19908 C 1881.43 -5.09365 -1.15517 0
M  V30 19909 H 1883.12 -2.96873 -0.388166 0
M  V30 19910 H 1880.67 -1.42803 -0.185265 0
M  V30 19911 H 1882.62 -3.13168 -2.81964 0
M  V30 19912 H 1881.34 -1.89974 -2.65664 0
M  V30 19913 H 1880 -3.46219 -1.20532 0
M  V30 19914 H 1879.65 -3.42784 -3.68114 0
M  V30 19915 H 1879.35 -5.04889 -3.006 0
M  V30 19916 H 1880.88 -4.71694 -3.87734 0
M  V30 19917 H 1882.29 -5.46493 -1.73259 0
M  V30 19918 H 1880.69 -5.90403 -1.07444 0
M  V30 19919 H 1881.76 -4.8471 -0.135822 0
M  V30 19920 N 1883.1 0.191729 -1.56429 0
M  V30 19921 C 1884.35 0.912948 -1.81089 0
M  V30 19922 C 1884.68 1.82767 -0.656483 0
M  V30 19923 O 1883.95 1.91456 0.342779 0
M  V30 19924 C 1884.24 1.72628 -3.16025 0
M  V30 19925 C 1884.09 0.836045 -4.41962 0
M  V30 19926 C 1885.41 2.69818 -3.47687 0
M  V30 19927 H 1882.53 0.33046 -0.658761 0
M  V30 19928 H 1885.17 0.180148 -1.89144 0
M  V30 19929 H 1883.32 2.35102 -3.09289 0
M  V30 19930 H 1884.99 0.225751 -4.60747 0
M  V30 19931 H 1883.23 0.142944 -4.33564 0
M  V30 19932 H 1883.91 1.44019 -5.32881 0
M  V30 19933 H 1886.38 2.17475 -3.54745 0
M  V30 19934 H 1885.26 3.23806 -4.43216 0
M  V30 19935 H 1885.52 3.49028 -2.71352 0
M  V30 19936 N 1884.58 1.50751 0.459565 0
M  V30 19937 C 1885.8 1.66367 1.23842 0
M  V30 19938 C 1886.23 0.351355 1.84789 0
M  V30 19939 O 1885.59 -0.686103 1.67816 0
M  V30 19940 C 1885.63 2.76521 2.31449 0
M  V30 19941 O 1884.74 2.38576 3.36386 0
M  V30 19942 H 1884.08 0.555447 0.363833 0
M  V30 19943 H 1886.61 1.97193 0.545538 0
M  V30 19944 H 1886.62 2.99943 2.76583 0
M  V30 19945 H 1885.29 3.71759 1.86462 0
M  V30 19946 H 1883.87 2.25643 2.96883 0
M  V30 19947 N 1886.06 -0.713531 1.40522 0
M  V30 19948 C 1886.99 -1.8404 1.43707 0
M  V30 19949 C 1887.97 -1.67474 0.297751 0
M  V30 19950 O 1889.15 -1.87474 0.506662 0
M  V30 19951 C 1886.28 -3.22014 1.30094 0
M  V30 19952 C 1885.24 -3.53255 2.4165 0
M  V30 19953 C 1884.56 -4.90395 2.13113 0
M  V30 19954 C 1885.86 -3.54045 3.83991 0
M  V30 19955 H 1887.56 -1.81632 2.38013 0
M  V30 19956 H 1885.1 -0.872437 1.14562 0
M  V30 19957 H 1887.05 -4.00541 1.30938 0
M  V30 19958 H 1885.78 -3.25002 0.322648 0
M  V30 19959 H 1884.44 -2.77069 2.40059 0
M  V30 19960 H 1884.09 -4.89988 1.13669 0
M  V30 19961 H 1883.79 -5.12264 2.87853 0
M  V30 19962 H 1885.31 -5.71254 2.15642 0
M  V30 19963 H 1886.72 -4.22609 3.87395 0
M  V30 19964 H 1885.12 -3.87441 4.58268 0
M  V30 19965 H 1886.19 -2.53387 4.13428 0
M  V30 19966 N 1887.53 -1.26053 -0.945962 0
M  V30 19967 C 1888.76 -1.14079 -1.72608 0
M  V30 19968 C 1889.18 0.304506 -1.86328 0
M  V30 19969 O 1888.53 1.20885 -1.36723 0
M  V30 19970 C 1888.58 -1.79938 -3.13535 0
M  V30 19971 O 1888.31 -3.18819 -3.00476 0
M  V30 19972 C 1889.81 -1.73856 -4.07785 0
M  V30 19973 H 1887.03 -0.397486 -0.540598 0
M  V30 19974 H 1889.57 -1.66582 -1.1862 0
M  V30 19975 H 1887.73 -1.31385 -3.6444 0
M  V30 19976 H 1888.14 -3.51337 -3.89439 0
M  V30 19977 H 1889.61 -2.24584 -5.04248 0
M  V30 19978 H 1890.09 -0.704095 -4.33519 0
M  V30 19979 H 1890.7 -2.21939 -3.62799 0
M  V30 19980 N 1889.01 1.14984 -1.07779 0
M  V30 19981 C 1890.25 1.87536 -0.813003 0
M  V30 19982 C 1890.62 1.80691 0.649222 0
M  V30 19983 O 1891.82 2.48314 1.02924 0
M  V30 19984 C 1890.09 3.32424 -1.3126 0
M  V30 19985 S 1891.65 4.2266 -1.17914 0
M  V30 19986 H 1888.46 0.647142 -0.294496 0
M  V30 19987 H 1891.07 1.387 -1.37778 0
M  V30 19988 H 1889.77 3.34952 -2.3714 0
M  V30 19989 H 1889.3 3.86316 -0.743218 0
M  V30 19990 H 1891.32 4.96056 -0.119394 0
M  V30 19991 N 1890.49 0.862526 1.31902 0
M  V30 19992 C 1891.71 0.483159 2.01694 0
M  V30 19993 C 1892.14 -0.914778 1.64358 0
M  V30 19994 O 1891.5 -1.60229 0.848308 0
M  V30 19995 C 1891.55 0.638911 3.54895 0
M  V30 19996 O 1890.65 -0.324962 4.11118 0
M  V30 19997 H 1889.99 0.193128 0.635293 0
M  V30 19998 H 1892.52 1.16389 1.6827 0
M  V30 19999 H 1892.53 0.529394 4.04551 0
M  V30 20000 H 1891.21 1.65828 3.81411 0
M  V30 20001 H 1889.78 -0.171025 3.72508 0
M  V30 20002 N 1891.97 -1.4484 0.62123 0
M  V30 20003 C 1892.92 -2.32377 -0.1019 0
M  V30 20004 C 1893.91 -1.4677 -0.845862 0
M  V30 20005 O 1895.12 -1.63174 -0.759882 0
M  V30 20006 H 1891.49 -0.75022 -0.0517143 0
M  V30 20007 H 1893.46 -2.91131 0.654623 0
M  V30 20008 C 1892.21 -3.30611 -1.07665 0
M  V30 20009 H 1891.53 -3.96487 -0.513612 0
M  V30 20010 H 1892.97 -3.94563 -1.5523 0
M  V30 20011 C 1891.43 -2.58795 -2.157 0
M  V30 20012 O 1891.96 -2.37947 -3.23642 0
M  V30 20013 N 1890.17 -2.187 -1.9136 0
M  V30 20014 H 1889.72 -2.35856 -1.03584 0
M  V30 20015 H 1889.67 -1.70975 -2.63847 0
M  V30 20016 N 1893.45 -0.361184 -1.53405 0
M  V30 20017 C 1894.67 0.230765 -2.05609 0
M  V30 20018 C 1895.09 1.42805 -1.23499 0
M  V30 20019 O 1894.45 1.80423 -0.274582 0
M  V30 20020 C 1894.5 0.628571 -3.55993 0
M  V30 20021 O 1894.22 -0.521123 -4.3499 0
M  V30 20022 C 1895.72 1.27938 -4.24437 0
M  V30 20023 H 1892.94 0.0414193 -0.66972 0
M  V30 20024 H 1895.48 -0.518281 -1.97823 0
M  V30 20025 H 1893.64 1.32754 -3.63944 0
M  V30 20026 H 1894.05 -0.200483 -5.24117 0
M  V30 20027 H 1895.53 1.50832 -5.30993 0
M  V30 20028 H 1896 2.23834 -3.77882 0
M  V30 20029 H 1896.61 0.621961 -4.20728 0
M  V30 20030 N 1894.92 1.57341 -0.0902386 0
M  V30 20031 C 1896.17 1.93352 0.574273 0
M  V30 20032 C 1896.49 0.97374 1.6964 0
M  V30 20033 O 1897.69 1.22737 2.42173 0
M  V30 20034 C 1896.15 3.43536 1.07289 0
M  V30 20035 C 1895.76 4.47996 -0.0192163 0
M  V30 20036 C 1897.5 3.88516 1.71042 0
M  V30 20037 C 1895.41 5.89329 0.494487 0
M  V30 20038 H 1894.34 0.721711 0.218287 0
M  V30 20039 H 1896.99 1.82753 -0.165456 0
M  V30 20040 H 1895.37 3.49271 1.86616 0
M  V30 20041 H 1896.54 4.53899 -0.794527 0
M  V30 20042 H 1894.86 4.12595 -0.561628 0
M  V30 20043 H 1897.46 4.91505 2.1054 0
M  V30 20044 H 1897.8 3.26896 2.57769 0
M  V30 20045 H 1898.33 3.85462 0.983058 0
M  V30 20046 H 1895.07 6.54638 -0.336054 0
M  V30 20047 H 1894.59 5.86908 1.23691 0
M  V30 20048 H 1896.27 6.39763 0.965014 0
M  V30 20049 N 1896.4 -0.183431 1.56529 0
M  V30 20050 C 1897.65 -0.901995 1.81302 0
M  V30 20051 C 1897.98 -1.82765 0.665368 0
M  V30 20052 O 1897.23 -1.92578 -0.348162 0
M  V30 20053 C 1897.53 -1.74055 3.12153 0
M  V30 20054 C 1897.2 -0.964866 4.40456 0
M  V30 20055 C 1895.86 -0.750741 4.75308 0
M  V30 20056 C 1898.21 -0.419915 5.19506 0
M  V30 20057 C 1895.54 0.0196291 5.86697 0
M  V30 20058 C 1897.89 0.337305 6.317 0
M  V30 20059 C 1896.56 0.56234 6.65127 0
M  V30 20060 H 1895.83 -0.330064 0.66343 0
M  V30 20061 H 1898.47 -0.167643 1.90765 0
M  V30 20062 H 1896.78 -2.54393 2.97979 0
M  V30 20063 H 1898.47 -2.29935 3.28528 0
M  V30 20064 H 1895.06 -1.14178 4.13112 0
M  V30 20065 H 1899.25 -0.572714 4.92984 0
M  V30 20066 H 1894.5 0.203838 6.1106 0
M  V30 20067 H 1898.68 0.766889 6.92165 0
M  V30 20068 H 1896.31 1.16117 7.51279 0
M  V30 20069 N 1897.88 -1.50992 -0.451564 0
M  V30 20070 C 1899.11 -1.66741 -1.22495 0
M  V30 20071 C 1899.52 -0.358787 -1.8536 0
M  V30 20072 O 1898.88 0.661312 -1.70097 0
M  V30 20073 C 1898.93 -2.77281 -2.31943 0
M  V30 20074 O 1898.65 -4.03072 -1.71652 0
M  V30 20075 C 1900.15 -3.04175 -3.22479 0
M  V30 20076 H 1897.37 -0.55994 -0.369741 0
M  V30 20077 H 1899.92 -1.97329 -0.536785 0
M  V30 20078 H 1898.07 -2.49332 -2.965 0
M  V30 20079 H 1898.49 -4.64354 -2.43875 0
M  V30 20080 H 1899.96 -3.85137 -3.95441 0
M  V30 20081 H 1900.44 -2.16015 -3.82406 0
M  V30 20082 H 1901.04 -3.33729 -2.63638 0
M  V30 20083 N 1899.36 0.706069 -1.40899 0
M  V30 20084 C 1900.29 1.83275 -1.44681 0
M  V30 20085 C 1901.27 1.67313 -0.306629 0
M  V30 20086 O 1902.45 1.87203 -0.516597 0
M  V30 20087 C 1899.58 3.21319 -1.318 0
M  V30 20088 C 1898.54 3.51969 -2.4352 0
M  V30 20089 C 1897.86 4.89258 -2.1571 0
M  V30 20090 C 1899.16 3.52004 -3.85864 0
M  V30 20091 H 1900.86 1.80367 -2.38973 0
M  V30 20092 H 1898.4 0.866349 -1.15023 0
M  V30 20093 H 1900.36 3.99841 -1.3306 0
M  V30 20094 H 1899.08 3.24827 -0.339879 0
M  V30 20095 H 1897.74 2.75792 -2.41525 0
M  V30 20096 H 1897.39 4.89378 -1.16266 0
M  V30 20097 H 1897.09 5.1073 -2.90566 0
M  V30 20098 H 1898.61 5.70102 -2.18669 0
M  V30 20099 H 1900.03 4.20548 -3.8963 0
M  V30 20100 H 1898.42 3.85005 -4.60316 0
M  V30 20101 H 1899.49 2.51191 -4.14766 0
M  V30 20102 N 1900.84 1.26553 0.939264 0
M  V30 20103 C 1902.06 1.14993 1.72001 0
M  V30 20104 C 1902.48 -0.29462 1.86487 0
M  V30 20105 O 1901.84 -1.20158 1.37362 0
M  V30 20106 C 1901.89 1.81598 3.12577 0
M  V30 20107 O 1901.61 3.20408 2.98781 0
M  V30 20108 C 1903.11 1.76017 4.06858 0
M  V30 20109 H 1900.33 0.400347 0.538482 0
M  V30 20110 H 1902.87 1.67209 1.17735 0
M  V30 20111 H 1901.03 1.33316 3.63739 0
M  V30 20112 H 1901.44 3.53397 3.8757 0
M  V30 20113 H 1902.92 2.27255 5.0305 0
M  V30 20114 H 1903.39 0.727075 4.3314 0
M  V30 20115 H 1904 2.2386 3.61617 0
M  V30 20116 N 1902.31 -1.14411 1.08387 0
M  V30 20117 C 1903.56 -1.85719 0.814638 0
M  V30 20118 C 1903.89 -1.82715 -0.657934 0
M  V30 20119 O 1903.17 -1.2577 -1.48365 0
M  V30 20120 C 1903.45 -3.34363 1.33691 0
M  V30 20121 C 1903.3 -3.4594 2.87481 0
M  V30 20122 C 1904.62 -4.29457 0.962006 0
M  V30 20123 H 1901.74 -0.674332 0.297399 0
M  V30 20124 H 1904.38 -1.34354 1.34346 0
M  V30 20125 H 1902.53 -3.78237 0.887082 0
M  V30 20126 H 1904.21 -3.10854 3.40833 0
M  V30 20127 H 1902.45 -2.87158 3.25151 0
M  V30 20128 H 1903.12 -4.50423 3.19097 0
M  V30 20129 H 1905.6 -3.93599 1.34979 0
M  V30 20130 H 1904.47 -5.31922 1.35464 0
M  V30 20131 H 1904.73 -4.41906 -0.130987 0
M  V30 20132 N 1903.79 -0.869509 -1.31443 0
M  V30 20133 C 1904.76 -0.329869 -2.26814 0
M  V30 20134 C 1905.76 0.518895 -1.52198 0
M  V30 20135 O 1906.95 0.328267 -1.71079 0
M  V30 20136 C 1904.08 0.53159 -3.3673 0
M  V30 20137 H 1905.27 -1.1718 -2.7606 0
M  V30 20138 H 1902.82 -0.645061 -1.42368 0
M  V30 20139 H 1903.56 1.39473 -2.92776 0
M  V30 20140 H 1903.34 -0.0761553 -3.92026 0
M  V30 20141 H 1904.83 0.901447 -4.07754 0
M  V30 20142 N 1905.27 1.44508 -0.628902 0
M  V30 20143 C 1906.52 2.02909 -0.141209 0
M  V30 20144 C 1906.87 1.48569 1.2225 0
M  V30 20145 O 1906.16 0.659289 1.799 0
M  V30 20146 C 1906.36 3.57339 -0.0660437 0
M  V30 20147 C 1906.19 4.26661 -1.42092 0
M  V30 20148 C 1904.96 4.63727 -2.00713 0
M  V30 20149 C 1907.16 4.5725 -2.35429 0
M  V30 20150 N 1905.14 5.18006 -3.29459 0
M  V30 20151 C 1906.51 5.12589 -3.48788 0
M  V30 20152 C 1908.56 4.39201 -2.34535 0
M  V30 20153 C 1907.27 5.51779 -4.61446 0
M  V30 20154 C 1909.29 4.79437 -3.46257 0
M  V30 20155 C 1908.65 5.34887 -4.58339 0
M  V30 20156 H 1904.75 0.776142 -0.09554 0
M  V30 20157 H 1907.34 1.76032 -0.83191 0
M  V30 20158 H 1905.51 3.83832 0.593932 0
M  V30 20159 H 1907.24 4.02406 0.430272 0
M  V30 20160 H 1904 4.47972 -1.53682 0
M  V30 20161 H 1904.42 5.49623 -3.95276 0
M  V30 20162 H 1909.06 3.95626 -1.49131 0
M  V30 20163 H 1906.78 5.94309 -5.4756 0
M  V30 20164 H 1910.37 4.67187 -3.46739 0
M  V30 20165 H 1909.25 5.65447 -5.43359 0
M  V30 20166 N 1906.75 0.369315 1.53212 0
M  V30 20167 C 1908.17 0.0184115 1.59589 0
M  V30 20168 C 1908.37 -1.46424 1.38428 0
M  V30 20169 O 1907.42 -2.2263 1.1913 0
M  V30 20170 C 1908.73 0.477693 2.96881 0
M  V30 20171 C 1910.28 0.432233 3.10001 0
M  V30 20172 C 1910.76 0.867386 4.49711 0
M  V30 20173 N 1912.25 0.822594 4.55837 0
M  V30 20174 C 1912.98 1.13094 5.62136 0
M  V30 20175 N 1912.48 1.50876 6.76172 0
M  V30 20176 N 1914.27 1.0535 5.52139 0
M  V30 20177 H 1906.42 1.33479 1.65218 0
M  V30 20178 H 1908.69 0.545823 0.775101 0
M  V30 20179 H 1908.39 1.51245 3.17518 0
M  V30 20180 H 1908.27 -0.133741 3.76963 0
M  V30 20181 H 1910.65 -0.593397 2.89072 0
M  V30 20182 H 1910.73 1.07921 2.3192 0
M  V30 20183 H 1910.38 1.89115 4.71379 0
M  V30 20184 H 1910.31 0.19762 5.26229 0
M  V30 20185 H 1912.8 0.544303 3.7396 0
M  V30 20186 H 1913.11 1.72821 7.53228 0
M  V30 20187 H 1911.46 1.54745 6.77554 0
M  V30 20188 H 1914.65 0.757487 4.6193 0
M  V30 20189 H 1914.82 1.29713 6.34885 0
M  V30 20190 N 1908.23 -1.57291 0.0985816 0
M  V30 20191 C 1909.46 -1.98819 -0.57259 0
M  V30 20192 C 1909.87 -0.977787 -1.61508 0
M  V30 20193 O 1909.23 0.0321385 -1.82472 0
M  V30 20194 C 1909.28 -3.40393 -1.21716 0
M  V30 20195 O 1909 -4.37565 -0.216366 0
M  V30 20196 C 1910.5 -3.96943 -1.97361 0
M  V30 20197 H 1907.72 -0.653268 -0.153239 0
M  V30 20198 H 1910.26 -2.03716 0.178898 0
M  V30 20199 H 1908.42 -3.36499 -1.91956 0
M  V30 20200 H 1908.83 -5.20046 -0.68205 0
M  V30 20201 H 1910.31 -4.98144 -2.37816 0
M  V30 20202 H 1910.78 -3.34953 -2.84083 0
M  V30 20203 H 1911.39 -4.0432 -1.3193 0
M  V30 20204 N 1909.71 0.175127 -1.56624 0
M  V30 20205 C 1910.67 1.20064 -1.95237 0
M  V30 20206 C 1911.67 1.37384 -0.835603 0
M  V30 20207 O 1912.86 1.34855 -1.10272 0
M  V30 20208 C 1909.99 2.5664 -2.24386 0
M  V30 20209 H 1911.18 0.870066 -2.87001 0
M  V30 20210 H 1908.74 0.41743 -1.50623 0
M  V30 20211 H 1909.47 2.94717 -1.35322 0
M  V30 20212 H 1909.26 2.45436 -3.05784 0
M  V30 20213 H 1910.75 3.30554 -2.55194 0
M  V30 20214 N 1911.18 1.5123 0.44355 0
M  V30 20215 C 1912.41 1.67389 1.21609 0
M  V30 20216 C 1912.83 0.368612 1.85167 0
M  V30 20217 O 1912.18 -0.652282 1.70445 0
M  V30 20218 C 1912.23 2.78507 2.30469 0
M  V30 20219 O 1911.96 4.03977 1.69512 0
M  V30 20220 C 1913.46 3.05881 3.20861 0
M  V30 20221 H 1910.68 0.561893 0.366766 0
M  V30 20222 H 1913.22 1.97611 0.526312 0
M  V30 20223 H 1911.38 2.50901 2.95173 0
M  V30 20224 H 1911.79 4.65641 2.41409 0
M  V30 20225 H 1913.26 3.87229 3.93393 0
M  V30 20226 H 1913.74 2.1804 3.81255 0
M  V30 20227 H 1914.35 3.35123 2.61864 0
M  V30 20228 N 1912.66 -0.698586 1.41271 0
M  V30 20229 C 1913.59 -1.82505 1.4565 0
M  V30 20230 C 1914.57 -1.67149 0.315497 0
M  V30 20231 O 1915.76 -1.86926 0.526518 0
M  V30 20232 C 1912.89 -3.20616 1.33502 0
M  V30 20233 C 1911.84 -3.50672 2.45383 0
M  V30 20234 C 1911.17 -4.88107 2.18302 0
M  V30 20235 C 1912.47 -3.49952 3.87725 0
M  V30 20236 H 1914.16 -1.79098 2.39926 0
M  V30 20237 H 1911.71 -0.860237 1.15481 0
M  V30 20238 H 1913.66 -3.9913 1.35179 0
M  V30 20239 H 1912.38 -3.24642 0.357101 0
M  V30 20240 H 1911.04 -2.74507 2.42984 0
M  V30 20241 H 1910.69 -4.88755 1.1886 0
M  V30 20242 H 1910.39 -5.09182 2.9327 0
M  V30 20243 H 1911.92 -5.68934 2.21689 0
M  V30 20244 H 1913.33 -4.18476 3.91855 0
M  V30 20245 H 1911.73 -3.82559 4.62351 0
M  V30 20246 H 1912.8 -2.48988 4.16093 0
M  V30 20247 N 1914.14 -1.27049 -0.93254 0
M  V30 20248 C 1915.39 -1.12488 -1.67419 0
M  V30 20249 C 1915.7 0.329736 -1.92801 0
M  V30 20250 O 1916.91 0.596164 -2.64874 0
M  V30 20251 C 1915.36 -1.96515 -3.01513 0
M  V30 20252 C 1914.97 -3.46604 -2.83847 0
M  V30 20253 C 1916.72 -1.90589 -3.7931 0
M  V30 20254 C 1914.62 -4.22847 -4.13466 0
M  V30 20255 H 1913.55 -0.417373 -0.627946 0
M  V30 20256 H 1916.2 -1.5143 -1.03639 0
M  V30 20257 H 1914.59 -1.50413 -3.66322 0
M  V30 20258 H 1915.76 -4.00535 -2.27835 0
M  V30 20259 H 1914.07 -3.53859 -2.19484 0
M  V30 20260 H 1916.67 -2.44831 -4.75355 0
M  V30 20261 H 1917.01 -0.87846 -4.06926 0
M  V30 20262 H 1917.55 -2.34559 -3.21289 0
M  V30 20263 H 1914.29 -5.26094 -3.91031 0
M  V30 20264 H 1913.81 -3.73695 -4.69161 0
M  V30 20265 H 1915.49 -4.31761 -4.81863 0
M  V30 20266 N 1915.62 1.13835 -1.08993 0
M  V30 20267 C 1916.55 2.21226 -0.74707 0
M  V30 20268 C 1917.53 1.67891 0.273232 0
M  V30 20269 O 1918.71 1.93678 0.142278 0
M  V30 20270 C 1915.84 3.46922 -0.162028 0
M  V30 20271 C 1914.8 4.1332 -1.11135 0
M  V30 20272 C 1914.12 5.33289 -0.388228 0
M  V30 20273 C 1915.42 4.61169 -2.45195 0
M  V30 20274 H 1917.12 2.50162 -1.64497 0
M  V30 20275 H 1914.66 1.20239 -0.792368 0
M  V30 20276 H 1916.62 4.21304 0.0898753 0
M  V30 20277 H 1915.34 3.17368 0.771036 0
M  V30 20278 H 1914 3.40899 -1.34845 0
M  V30 20279 H 1913.65 4.99997 0.548832 0
M  V30 20280 H 1913.35 5.78659 -1.02115 0
M  V30 20281 H 1914.87 6.10429 -0.144519 0
M  V30 20282 H 1916.29 5.26996 -2.25717 0
M  V30 20283 H 1914.68 5.17263 -3.04235 0
M  V30 20284 H 1915.75 3.75923 -3.06284 0
M  V30 20285 N 1917.1 0.876467 1.3098 0
M  V30 20286 C 1918.06 0.341893 2.26636 0
M  V30 20287 C 1919.06 -0.510816 1.52471 0
M  V30 20288 O 1920.25 -0.31919 1.71251 0
M  V30 20289 C 1917.38 -0.513725 3.37007 0
M  V30 20290 H 1918.57 1.18642 2.75434 0
M  V30 20291 H 1916.13 0.652602 1.42024 0
M  V30 20292 H 1916.86 -1.37919 2.93511 0
M  V30 20293 H 1916.65 0.0969443 3.9198 0
M  V30 20294 H 1918.14 -0.87981 4.08227 0
M  V30 20295 N 1918.57 -1.44173 0.636557 0
M  V30 20296 C 1919.82 -2.01594 0.142933 0
M  V30 20297 C 1920.14 -1.50366 -1.24157 0
M  V30 20298 O 1919.41 -0.709463 -1.82602 0
M  V30 20299 H 1917.99 -0.745335 0.04985 0
M  V30 20300 H 1920.65 -1.76602 0.824479 0
M  V30 20301 H 1919.75 -3.11889 0.114775 0
M  V30 20302 N 1920.05 -0.377435 -1.53014 0
M  V30 20303 C 1921.3 0.209712 -2.00607 0
M  V30 20304 C 1921.61 1.48891 -1.2685 0
M  V30 20305 O 1922.82 2.15538 -1.65093 0
M  V30 20306 C 1921.28 0.424271 -3.5739 0
M  V30 20307 C 1920.88 -0.840982 -4.40036 0
M  V30 20308 C 1922.63 0.968428 -4.13306 0
M  V30 20309 C 1920.53 -0.595355 -5.88396 0
M  V30 20310 H 1919.46 0.0821436 -0.749512 0
M  V30 20311 H 1922.12 -0.498005 -1.76613 0
M  V30 20312 H 1920.5 1.19354 -3.77585 0
M  V30 20313 H 1921.67 -1.61396 -4.31611 0
M  V30 20314 H 1919.99 -1.30922 -3.95283 0
M  V30 20315 H 1922.58 1.16771 -5.21794 0
M  V30 20316 H 1922.93 1.93405 -3.68647 0
M  V30 20317 H 1923.46 0.259025 -3.96956 0
M  V30 20318 H 1920.2 -1.53164 -6.37355 0
M  V30 20319 H 1919.72 0.138904 -5.99639 0
M  V30 20320 H 1921.4 -0.225366 -6.46607 0
M  V30 20321 N 1921.53 1.57237 -0.106922 0
M  V30 20322 C 1922.76 1.99545 0.565392 0
M  V30 20323 C 1923.18 0.985887 1.60193 0
M  V30 20324 O 1922.54 -0.0440657 1.81246 0
M  V30 20325 C 1922.59 3.40779 1.17908 0
M  V30 20326 O 1921.69 3.42656 2.29479 0
M  V30 20327 H 1921.03 0.648556 0.142379 0
M  V30 20328 H 1923.56 2.03699 -0.191829 0
M  V30 20329 H 1923.57 3.78728 1.51754 0
M  V30 20330 H 1922.25 4.13776 0.419776 0
M  V30 20331 H 1920.82 3.16514 1.97164 0
M  V30 20332 N 1923.01 -0.166818 1.56715 0
M  V30 20333 C 1923.94 -1.2086 1.99787 0
M  V30 20334 C 1924.92 -1.45918 0.874178 0
M  V30 20335 O 1926.1 -1.57176 1.14058 0
M  V30 20336 C 1923.23 -2.54648 2.3616 0
M  V30 20337 C 1922.19 -2.44151 3.51532 0
M  V30 20338 C 1921.51 -3.82469 3.7366 0
M  V30 20339 C 1922.81 -1.9424 4.84838 0
M  V30 20340 H 1924.51 -0.850538 2.87065 0
M  V30 20341 H 1922.05 -0.407696 1.38108 0
M  V30 20342 H 1924.01 -3.27736 2.64891 0
M  V30 20343 H 1922.73 -2.92251 1.45797 0
M  V30 20344 H 1921.39 -1.73516 3.22936 0
M  V30 20345 H 1921.04 -4.17473 2.8058 0
M  V30 20346 H 1920.74 -3.76312 4.5129 0
M  V30 20347 H 1922.26 -4.57136 4.04796 0
M  V30 20348 H 1923.68 -2.57105 5.12416 0
M  V30 20349 H 1922.07 -1.99021 5.66137 0
M  V30 20350 H 1923.14 -0.89695 4.76532 0
M  V30 20351 N 1924.49 -1.51463 -0.435524 0
M  V30 20352 C 1925.42 -1.75856 -1.53613 0
M  V30 20353 C 1926.4 -0.608449 -1.58846 0
M  V30 20354 O 1927.58 -0.85135 -1.74544 0
M  V30 20355 C 1924.71 -1.88525 -2.91677 0
M  V30 20356 C 1923.67 -3.03972 -3.01305 0
M  V30 20357 C 1922.99 -3.01828 -4.41366 0
M  V30 20358 C 1924.29 -4.43905 -2.75219 0
M  V30 20359 H 1925.99 -2.68013 -1.33452 0
M  V30 20360 H 1923.53 -1.28968 -0.640564 0
M  V30 20361 H 1925.49 -2.04173 -3.68634 0
M  V30 20362 H 1924.21 -0.930179 -3.13074 0
M  V30 20363 H 1922.87 -2.88033 -2.26788 0
M  V30 20364 H 1922.52 -2.04095 -4.59733 0
M  V30 20365 H 1922.22 -3.79353 -4.48737 0
M  V30 20366 H 1923.74 -3.19572 -5.20294 0
M  V30 20367 H 1925.15 -4.60187 -3.41908 0
M  V30 20368 H 1923.55 -5.2315 -2.93998 0
M  V30 20369 H 1924.62 -4.53818 -1.70814 0
M  V30 20370 N 1925.96 0.691085 -1.4164 0
M  V30 20371 C 1927.38 1.27116 -1.36742 0
M  V30 20372 C 1927.73 1.96129 -0.0526953 0
M  V30 20373 O 1926.85 1.99052 0.848953 0
M  V30 20374 C 1927.45 2.31171 -2.4768 0
M  V30 20375 C 1926.01 2.84744 -2.46166 0
M  V30 20376 C 1925.15 1.58841 -2.27299 0
M  V30 20377 H 1928.1 0.485541 -1.5109 0
M  V30 20378 H 1928.12 3.12559 -2.16996 0
M  V30 20379 H 1927.64 1.80913 -3.43354 0
M  V30 20380 H 1925.74 3.39167 -1.54262 0
M  V30 20381 H 1925.85 3.34869 -3.42636 0
M  V30 20382 H 1924.21 1.84815 -1.75258 0
M  V30 20383 H 1925 1.10573 -3.25005 0
M  V30 20384 N 1927.44 1.27542 0.925789 0
M  V30 20385 C 1928.69 1.14161 1.67616 0
M  V30 20386 C 1929.02 -0.311471 1.91686 0
M  V30 20387 O 1928.3 -1.22766 1.5086 0
M  V30 20388 C 1928.58 1.92778 3.04152 0
M  V30 20389 C 1928.43 3.46081 2.87312 0
M  V30 20390 C 1929.75 1.73374 4.04511 0
M  V30 20391 H 1926.87 0.416091 0.608307 0
M  V30 20392 H 1929.51 1.56719 1.0742 0
M  V30 20393 H 1927.66 1.5661 3.55536 0
M  V30 20394 H 1929.33 3.92089 2.43031 0
M  V30 20395 H 1927.58 3.72324 2.22615 0
M  V30 20396 H 1928.25 3.96333 3.84219 0
M  V30 20397 H 1930.72 2.04914 3.62146 0
M  V30 20398 H 1929.6 2.30773 4.98031 0
M  V30 20399 H 1929.86 0.682154 4.36806 0
M  V30 20400 N 1928.92 -1.13255 1.09595 0
M  V30 20401 C 1930.16 -1.86219 0.842735 0
M  V30 20402 C 1930.52 -1.81701 -0.620393 0
M  V30 20403 O 1931.73 -2.4992 -0.989606 0
M  V30 20404 C 1930 -3.30294 1.36532 0
M  V30 20405 S 1931.56 -4.20731 1.24624 0
M  V30 20406 H 1928.37 -0.642375 0.304755 0
M  V30 20407 H 1930.98 -1.3649 1.39967 0
M  V30 20408 H 1929.68 -3.31137 2.42439 0
M  V30 20409 H 1929.21 -3.85084 0.804584 0
M  V30 20410 H 1931.23 -4.95804 0.198297 0
M  V30 20411 N 1930.4 -0.883401 -1.30514 0
M  V30 20412 C 1931.33 -0.306278 -2.27144 0
M  V30 20413 C 1932.34 0.538264 -1.53644 0
M  V30 20414 O 1933.53 0.35807 -1.74872 0
M  V30 20415 C 1930.63 0.583276 -3.33843 0
M  V30 20416 C 1929.81 -0.231845 -4.36785 0
M  V30 20417 C 1928.86 0.587955 -5.22905 0
M  V30 20418 O 1927.89 0.0112122 -5.69199 0
M  V30 20419 N 1929.09 1.89737 -5.48617 0
M  V30 20420 H 1931.86 -1.13674 -2.77306 0
M  V30 20421 H 1929.42 -0.746227 -1.43677 0
M  V30 20422 H 1931.41 1.13773 -3.88379 0
M  V30 20423 H 1929.98 1.31441 -2.83623 0
M  V30 20424 H 1929.2 -0.967741 -3.82137 0
M  V30 20425 H 1930.49 -0.790664 -5.02619 0
M  V30 20426 H 1929.89 2.38889 -5.12785 0
M  V30 20427 H 1928.44 2.39931 -6.06033 0
M  V30 20428 N 1931.88 1.43833 -0.644194 0
M  V30 20429 C 1933.1 2.06784 -0.159719 0
M  V30 20430 C 1933.53 1.47913 1.16204 0
M  V30 20431 O 1932.88 0.585574 1.71583 0
M  V30 20432 C 1932.93 3.60527 -0.0724271 0
M  V30 20433 O 1932.04 4.0088 0.967917 0
M  V30 20434 H 1931.38 0.657771 -0.0907406 0
M  V30 20435 H 1933.91 1.8449 -0.884568 0
M  V30 20436 H 1933.92 4.07841 0.113872 0
M  V30 20437 H 1932.59 4.02755 -1.03736 0
M  V30 20438 H 1931.17 3.65174 0.755135 0
M  V30 20439 N 1933.35 0.385544 1.52811 0
M  V30 20440 C 1934.58 -0.200568 2.06428 0
M  V30 20441 C 1935 -1.40049 1.2557 0
M  V30 20442 O 1934.36 -1.79128 0.279782 0
M  V30 20443 C 1934.41 -0.552623 3.5634 0
M  V30 20444 O 1933.51 -1.64711 3.7808 0
M  V30 20445 H 1932.86 -0.0244676 0.663549 0
M  V30 20446 H 1935.39 0.551927 1.97015 0
M  V30 20447 H 1935.4 -0.817996 3.99716 0
M  V30 20448 H 1934.07 0.324665 4.14631 0
M  V30 20449 H 1932.65 -1.37574 3.46595 0
M  V30 20450 N 1934.83 -1.57178 0.115259 0
M  V30 20451 C 1936.06 -1.99842 -0.554802 0
M  V30 20452 C 1936.48 -0.994368 -1.59668 0
M  V30 20453 O 1935.84 0.0344531 -1.81267 0
M  V30 20454 C 1935.89 -3.41399 -1.16099 0
M  V30 20455 O 1934.99 -3.43868 -2.27659 0
M  V30 20456 H 1934.33 -0.649301 -0.138937 0
M  V30 20457 H 1936.86 -2.03594 0.202629 0
M  V30 20458 H 1936.87 -3.79527 -1.49743 0
M  V30 20459 H 1935.55 -4.13993 -0.397827 0
M  V30 20460 H 1934.13 -3.17555 -1.95482 0
M  V30 20461 N 1936.31 0.158505 -1.56801 0
M  V30 20462 C 1937.24 1.22518 -1.92522 0
M  V30 20463 C 1938.22 1.42142 -0.789589 0
M  V30 20464 O 1939.41 1.56941 -1.04412 0
M  V30 20465 C 1936.53 2.58604 -2.18728 0
M  V30 20466 C 1935.58 2.55642 -3.41394 0
M  V30 20467 S 1936.41 2.03464 -4.95341 0
M  V30 20468 C 1937.57 3.41302 -5.24656 0
M  V30 20469 H 1937.8 0.920362 -2.82695 0
M  V30 20470 H 1935.33 0.363629 -1.50057 0
M  V30 20471 H 1937.29 3.36923 -2.34506 0
M  V30 20472 H 1935.95 2.8628 -1.29239 0
M  V30 20473 H 1935.15 3.55792 -3.56971 0
M  V30 20474 H 1934.75 1.85426 -3.24797 0
M  V30 20475 H 1937.04 4.37361 -5.17418 0
M  V30 20476 H 1937.98 3.30588 -6.26192 0
M  V30 20477 H 1938.39 3.37906 -4.52194 0
M  V30 20478 N 1937.79 1.51692 0.427485 0
M  V30 20479 C 1939.21 1.40086 0.764726 0
M  V30 20480 C 1939.41 0.490917 1.95428 0
M  V30 20481 O 1938.46 -0.0502236 2.5245 0
M  V30 20482 C 1939.77 2.82295 1.03586 0
M  V30 20483 C 1941.32 2.91513 1.1397 0
M  V30 20484 C 1941.8 4.34651 1.44371 0
M  V30 20485 N 1943.29 4.37802 1.51274 0
M  V30 20486 C 1944.02 5.45596 1.76388 0
M  V30 20487 N 1943.52 6.63536 1.99228 0
M  V30 20488 N 1945.31 5.33088 1.78252 0
M  V30 20489 H 1937.46 2.09399 -0.355809 0
M  V30 20490 H 1939.73 0.943043 -0.0968225 0
M  V30 20491 H 1939.43 3.50918 0.234369 0
M  V30 20492 H 1939.31 3.22223 1.96092 0
M  V30 20493 H 1941.69 2.23082 1.9318 0
M  V30 20494 H 1941.77 2.55068 0.193426 0
M  V30 20495 H 1941.42 5.03635 0.656841 0
M  V30 20496 H 1941.35 4.68617 2.4022 0
M  V30 20497 H 1943.84 3.52777 1.35487 0
M  V30 20498 H 1944.15 7.41477 2.17789 0
M  V30 20499 H 1942.5 6.66634 1.9653 0
M  V30 20500 H 1945.69 4.39931 1.59933 0
M  V30 20501 H 1945.86 6.17174 1.97486 0
M  V30 20502 N 1939.27 -0.683564 1.42004 0
M  V30 20503 C 1940.21 -1.7973 1.44796 0
M  V30 20504 C 1941.18 -1.63352 0.300905 0
M  V30 20505 O 1942.37 -1.84031 0.503707 0
M  V30 20506 C 1939.51 -3.17701 1.34758 0
M  V30 20507 C 1938.62 -3.45428 2.59429 0
M  V30 20508 C 1937.76 -4.73079 2.41598 0
M  V30 20509 C 1936.8 -4.93812 3.61685 0
M  V30 20510 N 1935.93 -6.12698 3.4285 0
M  V30 20511 H 1940.77 -1.76679 2.39976 0
M  V30 20512 H 1938.31 -0.862624 1.19152 0
M  V30 20513 H 1940.27 -3.9742 1.26938 0
M  V30 20514 H 1938.9 -3.19899 0.431785 0
M  V30 20515 H 1937.95 -2.60027 2.77651 0
M  V30 20516 H 1939.26 -3.56645 3.48721 0
M  V30 20517 H 1938.42 -5.60873 2.31314 0
M  V30 20518 H 1937.16 -4.6413 1.49782 0
M  V30 20519 H 1936.16 -4.04463 3.72411 0
M  V30 20520 H 1937.39 -5.04612 4.5447 0
M  V30 20521 H 1935.33 -6.04938 2.53744 0
M  V30 20522 H 1935.25 -6.24736 4.25724 0
M  V30 20523 H 1936.52 -7.03194 3.36361 0
M  V30 20524 N 1940.75 -1.28031 -0.919012 0
M  V30 20525 C 1941.97 -1.17714 -1.7015 0
M  V30 20526 C 1942.39 0.264914 -1.86932 0
M  V30 20527 O 1941.75 1.17957 -1.39256 0
M  V30 20528 C 1941.8 -1.86548 -3.09648 0
M  V30 20529 O 1941.52 -3.25121 -2.93646 0
M  V30 20530 C 1943.02 -1.82467 -4.04006 0
M  V30 20531 H 1940.24 -0.408863 -0.532045 0
M  V30 20532 H 1942.78 -1.69061 -1.1506 0
M  V30 20533 H 1940.94 -1.39085 -3.61572 0
M  V30 20534 H 1941.35 -3.59518 -3.81899 0
M  V30 20535 H 1942.83 -2.35229 -4.99371 0
M  V30 20536 H 1943.3 -0.795892 -4.31928 0
M  V30 20537 H 1943.91 -2.29585 -3.5801 0
M  V30 20538 N 1942.22 1.12672 -1.10194 0
M  V30 20539 C 1943.5 1.80442 -0.75499 0
M  V30 20540 C 1943.88 1.96988 0.758887 0
M  V30 20541 O 1943.23 1.54424 1.6842 0
M  V30 20542 C 1943.44 3.14969 -1.50317 0
M  V30 20543 C 1944.79 3.90205 -1.67409 0
M  V30 20544 O 1945.81 3.24618 -1.46634 0
M  V30 20545 O 1944.67 5.07864 -2.01833 0
M  V30 20546 H 1941.76 0.780952 -0.272109 0
M  V30 20547 H 1944.31 1.1953 -1.20461 0
M  V30 20548 H 1943.08 2.98202 -2.5336 0
M  V30 20549 H 1942.7 3.83587 -1.04625 0
M  V30 20550 N 1943.7 0.89031 1.30043 0
M  V30 20551 C 1944.95 0.521592 1.96599 0
M  V30 20552 C 1945.3 -0.920162 1.6897 0
M  V30 20553 O 1944.6 -1.64226 0.986941 0
M  V30 20554 C 1944.79 0.739209 3.49672 0
M  V30 20555 C 1944.62 2.20056 3.9218 0
M  V30 20556 C 1943.39 2.84618 4.17517 0
M  V30 20557 C 1945.59 3.17488 4.04605 0
M  V30 20558 N 1943.57 4.21295 4.46525 0
M  V30 20559 C 1944.94 4.39254 4.37557 0
M  V30 20560 C 1946.99 3.13205 3.87049 0
M  V30 20561 C 1945.7 5.57284 4.54782 0
M  V30 20562 C 1947.72 4.30512 4.05479 0
M  V30 20563 C 1947.09 5.51045 4.38781 0
M  V30 20564 H 1943.18 0.240293 0.744166 0
M  V30 20565 H 1945.77 1.14916 1.5717 0
M  V30 20566 H 1943.94 0.141088 3.88144 0
M  V30 20567 H 1945.67 0.33686 4.03296 0
M  V30 20568 H 1942.43 2.35459 4.10921 0
M  V30 20569 H 1942.85 4.91896 4.65153 0
M  V30 20570 H 1947.49 2.21112 3.60374 0
M  V30 20571 H 1945.21 6.49877 4.80298 0
M  V30 20572 H 1948.8 4.28674 3.93358 0
M  V30 20573 H 1947.68 6.40304 4.52747 0
M  V30 20574 N 1945.18 -1.43489 0.651812 0
M  V30 20575 C 1946.11 -2.33484 -0.0271093 0
M  V30 20576 C 1947.09 -1.4939 -0.813427 0
M  V30 20577 O 1948.28 -1.78058 -0.775186 0
M  V30 20578 C 1945.41 -3.32737 -0.995143 0
M  V30 20579 C 1944.36 -4.26809 -0.319036 0
M  V30 20580 C 1943.69 -5.1609 -1.39842 0
M  V30 20581 C 1944.99 -5.16326 0.787692 0
M  V30 20582 H 1946.68 -2.90503 0.724441 0
M  V30 20583 H 1944.23 -1.39686 0.349826 0
M  V30 20584 H 1946.18 -3.94593 -1.479 0
M  V30 20585 H 1944.9 -2.73972 -1.77784 0
M  V30 20586 H 1943.56 -3.66316 0.144366 0
M  V30 20587 H 1943.21 -4.53664 -2.17251 0
M  V30 20588 H 1942.91 -5.79848 -0.951292 0
M  V30 20589 H 1944.43 -5.80819 -1.88367 0
M  V30 20590 H 1945.85 -5.71999 0.386053 0
M  V30 20591 H 1944.24 -5.88798 1.1592 0
M  V30 20592 H 1945.31 -4.56099 1.64626 0
M  V30 20593 N 1946.66 -0.393643 -1.52605 0
M  V30 20594 C 1948.07 0.0794242 -1.86531 0
M  V30 20595 C 1948.42 1.45778 -1.31313 0
M  V30 20596 O 1947.54 2.06526 -0.646206 0
M  V30 20597 C 1948.14 0.150899 -3.38464 0
M  V30 20598 C 1946.7 0.568268 -3.72086 0
M  V30 20599 C 1945.85 -0.267031 -2.76011 0
M  V30 20600 H 1948.8 -0.611344 -1.46452 0
M  V30 20601 H 1948.82 0.969194 -3.6795 0
M  V30 20602 H 1948.33 -0.852425 -3.78623 0
M  V30 20603 H 1946.43 1.5788 -3.37498 0
M  V30 20604 H 1946.54 0.323405 -4.78007 0
M  V30 20605 H 1944.91 0.268347 -2.53282 0
M  V30 20606 H 1945.69 -1.26841 -3.19008 0
M  V30 20607 N 1948.14 1.57115 -0.123593 0
M  V30 20608 C 1949.07 2.11281 0.862306 0
M  V30 20609 C 1950.05 1.03036 1.25787 0
M  V30 20610 O 1951.23 1.3072 1.35811 0
M  V30 20611 C 1948.36 2.61329 2.15464 0
M  V30 20612 C 1947.4 3.81502 1.90679 0
M  V30 20613 S 1948.24 5.2368 1.11891 0
M  V30 20614 C 1949.39 5.771 2.42294 0
M  V30 20615 H 1949.63 2.94575 0.401603 0
M  V30 20616 H 1947.16 1.54136 0.0902687 0
M  V30 20617 H 1949.12 2.90818 2.89715 0
M  V30 20618 H 1947.78 1.78208 2.58651 0
M  V30 20619 H 1946.97 4.14685 2.86448 0
M  V30 20620 H 1946.57 3.52653 1.24547 0
M  V30 20621 H 1948.86 5.87105 3.38104 0
M  V30 20622 H 1949.81 6.751 2.13649 0
M  V30 20623 H 1950.22 5.05194 2.51871 0
M  V30 20624 N 1949.61 -0.150187 1.56883 0
M  V30 20625 C 1950.84 -0.87835 1.8733 0
M  V30 20626 C 1951.26 -1.74883 0.711426 0
M  V30 20627 O 1950.61 -1.79692 -0.318906 0
M  V30 20628 C 1950.66 -1.73769 3.16996 0
M  V30 20629 O 1950.39 -0.902296 4.28708 0
M  V30 20630 C 1951.89 -2.57371 3.60936 0
M  V30 20631 H 1949.11 -0.254139 0.621011 0
M  V30 20632 H 1951.65 -0.143933 2.03993 0
M  V30 20633 H 1949.81 -2.42521 3.02097 0
M  V30 20634 H 1950.22 -1.49198 5.02832 0
M  V30 20635 H 1951.69 -3.13249 4.5451 0
M  V30 20636 H 1952.17 -3.33257 2.86071 0
M  V30 20637 H 1952.78 -1.93916 3.78519 0
M  V30 20638 N 1951.09 -1.51916 -0.419434 0
M  V30 20639 C 1952.34 -1.65714 -1.16905 0
M  V30 20640 C 1952.67 -0.380888 -1.90428 0
M  V30 20641 O 1951.95 0.620297 -1.84344 0
M  V30 20642 C 1952.23 -2.87239 -2.17177 0
M  V30 20643 C 1952.08 -4.24887 -1.47619 0
M  V30 20644 C 1953.4 -3.04281 -3.17964 0
M  V30 20645 H 1950.52 -0.603072 -0.423643 0
M  V30 20646 H 1953.16 -1.84446 -0.456035 0
M  V30 20647 H 1951.31 -2.71398 -2.77984 0
M  V30 20648 H 1952.98 -4.52433 -0.900112 0
M  V30 20649 H 1951.23 -4.26761 -0.778273 0
M  V30 20650 H 1951.9 -5.05945 -2.20733 0
M  V30 20651 H 1954.37 -3.18951 -2.67226 0
M  V30 20652 H 1953.25 -3.90843 -3.85399 0
M  V30 20653 H 1953.51 -2.17138 -3.85102 0
M  V30 20654 N 1952.57 0.676023 -1.42365 0
M  V30 20655 C 1953.53 1.77138 -1.45446 0
M  V30 20656 C 1954.53 1.57116 -0.342226 0
M  V30 20657 O 1955.72 1.63431 -0.602999 0
M  V30 20658 C 1952.86 3.15757 -1.28492 0
M  V30 20659 H 1954.05 1.75794 -2.42974 0
M  V30 20660 H 1951.6 0.885538 -1.28794 0
M  V30 20661 H 1952.34 3.22729 -0.318815 0
M  V30 20662 H 1952.12 3.31694 -2.09097 0
M  V30 20663 H 1953.61 3.95677 -1.33528 0
M  V30 20664 N 1954.05 1.28517 0.912209 0
M  V30 20665 C 1955.01 1.12594 1.99637 0
M  V30 20666 C 1956.01 0.0651449 1.60668 0
M  V30 20667 O 1957.2 0.311054 1.714 0
M  V30 20668 C 1954.33 0.719053 3.3323 0
M  V30 20669 H 1955.53 2.08884 2.15192 0
M  V30 20670 H 1953.08 1.11525 1.09508 0
M  V30 20671 H 1953.81 -0.244536 3.23377 0
M  V30 20672 H 1953.6 1.48536 3.62876 0
M  V30 20673 H 1955.09 0.630346 4.12815 0
M  V30 20674 N 1955.53 -1.12086 1.1079 0
M  V30 20675 C 1956.46 -2.17072 0.70392 0
M  V30 20676 C 1957.44 -1.59873 -0.296571 0
M  V30 20677 O 1958.62 -1.87493 -0.194599 0
M  V30 20678 C 1955.75 -3.38677 0.0392219 0
M  V30 20679 C 1954.79 -4.1452 1.00377 0
M  V30 20680 S 1955.63 -4.72343 2.52294 0
M  V30 20681 C 1956.78 -5.97279 1.87106 0
M  V30 20682 H 1957.02 -2.51004 1.59325 0
M  V30 20683 H 1954.55 -1.23605 0.925262 0
M  V30 20684 H 1956.51 -4.09107 -0.33795 0
M  V30 20685 H 1955.17 -3.03018 -0.82696 0
M  V30 20686 H 1954.36 -5.01651 0.486009 0
M  V30 20687 H 1953.96 -3.49817 1.32304 0
M  V30 20688 H 1956.26 -6.66726 1.20346 0
M  V30 20689 H 1957.2 -6.53688 2.72208 0
M  V30 20690 H 1957.61 -5.4851 1.33405 0
M  V30 20691 N 1957 -0.897194 -1.29569 0
M  V30 20692 C 1958.25 -0.520803 -1.95274 0
M  V30 20693 C 1958.57 0.935501 -1.71095 0
M  V30 20694 O 1957.84 1.65932 -1.04131 0
M  V30 20695 H 1956.42 -0.18961 -0.722535 0
M  V30 20696 H 1959.09 -1.14294 -1.5787 0
M  V30 20697 H 1958.18 -0.701293 -3.04119 0
M  V30 20698 N 1958.48 1.43142 -0.659413 0
M  V30 20699 C 1959.73 2.02038 -0.175593 0
M  V30 20700 C 1960.06 1.5194 1.20946 0
M  V30 20701 O 1959.34 0.715095 1.80877 0
M  V30 20702 C 1959.62 3.59581 -0.193256 0
M  V30 20703 C 1959.47 4.19896 -1.61267 0
M  V30 20704 C 1960.79 4.37616 0.466976 0
M  V30 20705 H 1957.91 0.734103 -0.0652811 0
M  V30 20706 H 1960.55 1.7036 -0.841276 0
M  V30 20707 H 1958.7 3.867 0.373574 0
M  V30 20708 H 1960.37 4.03786 -2.23056 0
M  V30 20709 H 1958.62 3.7631 -2.15807 0
M  V30 20710 H 1959.29 5.28999 -1.57683 0
M  V30 20711 H 1961.76 4.16097 -0.0153667 0
M  V30 20712 H 1960.64 5.47261 0.423915 0
M  V30 20713 H 1960.9 4.14332 1.54211 0
M  V30 20714 N 1959.96 0.40173 1.52394 0
M  V30 20715 C 1961.37 -0.0695308 1.8657 0
M  V30 20716 C 1961.72 -1.4508 1.32084 0
M  V30 20717 O 1960.85 -2.06181 0.657149 0
M  V30 20718 C 1961.44 -0.132947 3.38539 0
M  V30 20719 C 1960 -0.548527 3.72382 0
M  V30 20720 C 1959.15 0.281664 2.75866 0
M  V30 20721 H 1962.1 0.619102 1.46126 0
M  V30 20722 H 1962.12 -0.949667 3.68458 0
M  V30 20723 H 1961.63 0.872493 3.78166 0
M  V30 20724 H 1959.73 -1.56088 3.3833 0
M  V30 20725 H 1959.85 -0.29805 4.78172 0
M  V30 20726 H 1958.21 -0.254911 2.53421 0
M  V30 20727 H 1958.99 1.28531 3.18331 0
M  V30 20728 N 1961.44 -1.57047 0.131923 0
M  V30 20729 C 1962.85 -1.82552 -0.391375 0
M  V30 20730 C 1963.2 -1.04983 -1.6575 0
M  V30 20731 O 1962.33 -0.2904 -2.14443 0
M  V30 20732 C 1962.92 -3.3113 -0.716843 0
M  V30 20733 C 1961.48 -3.57269 -1.18472 0
M  V30 20734 C 1960.63 -2.76578 -0.200021 0
M  V30 20735 H 1963.58 -1.54636 0.356863 0
M  V30 20736 H 1963.6 -3.46463 -1.57302 0
M  V30 20737 H 1963.11 -3.87559 0.204844 0
M  V30 20738 H 1961.21 -3.06211 -2.12287 0
M  V30 20739 H 1961.32 -4.65798 -1.12111 0
M  V30 20740 H 1959.69 -2.45185 -0.689655 0
M  V30 20741 H 1960.47 -3.35772 0.71499 0
M  V30 20742 N 1962.92 0.141865 -1.5696 0
M  V30 20743 C 1963.85 1.17667 -2.01685 0
M  V30 20744 C 1964.83 1.44509 -0.897282 0
M  V30 20745 O 1966.01 1.55342 -1.16544 0
M  V30 20746 C 1963.14 2.50859 -2.40182 0
M  V30 20747 C 1962.1 2.38527 -3.55371 0
M  V30 20748 C 1961.42 3.76476 -3.79697 0
M  V30 20749 C 1962.72 1.86502 -4.87867 0
M  V30 20750 H 1964.42 0.804761 -2.88382 0
M  V30 20751 H 1961.96 0.385672 -1.38739 0
M  V30 20752 H 1963.92 3.2348 -2.70071 0
M  V30 20753 H 1962.64 2.89895 -1.50428 0
M  V30 20754 H 1961.3 1.68357 -3.25656 0
M  V30 20755 H 1960.95 4.12957 -2.87186 0
M  V30 20756 H 1960.65 3.69085 -4.5722 0
M  V30 20757 H 1962.17 4.50638 -4.12017 0
M  V30 20758 H 1963.58 2.48921 -5.16441 0
M  V30 20759 H 1961.98 1.89989 -5.69231 0
M  V30 20760 H 1963.05 0.821025 -4.77899 0
M  V30 20761 N 1964.39 1.52136 0.411372 0
M  V30 20762 C 1965.81 1.58274 0.990272 0
M  V30 20763 C 1966.16 0.421874 1.91611 0
M  V30 20764 O 1965.28 -0.458058 2.11497 0
M  V30 20765 C 1965.88 2.86855 1.80276 0
M  V30 20766 C 1964.44 2.95478 2.33173 0
M  V30 20767 C 1963.58 2.5319 1.13093 0
M  V30 20768 H 1966.53 1.57538 0.191687 0
M  V30 20769 H 1966.55 2.72082 2.65992 0
M  V30 20770 H 1966.07 3.71326 1.12866 0
M  V30 20771 H 1964.17 2.15496 3.03961 0
M  V30 20772 H 1964.28 3.99674 2.64192 0
M  V30 20773 H 1962.64 2.06986 1.48421 0
M  V30 20774 H 1963.43 3.40032 0.472529 0
M  V30 20775 N 1965.87 -0.668464 1.42721 0
M  V30 20776 C 1966.8 -1.79375 1.49489 0
M  V30 20777 C 1967.78 -1.66442 0.350881 0
M  V30 20778 O 1968.97 -1.85767 0.566049 0
M  V30 20779 C 1966.1 -3.17712 1.40273 0
M  V30 20780 C 1965.05 -3.45389 2.52766 0
M  V30 20781 C 1964.38 -4.83367 2.28606 0
M  V30 20782 C 1965.68 -3.4165 3.95061 0
M  V30 20783 H 1967.37 -1.73968 2.43671 0
M  V30 20784 H 1964.92 -0.835548 1.1728 0
M  V30 20785 H 1966.87 -3.96173 1.43614 0
M  V30 20786 H 1965.6 -3.23811 0.425882 0
M  V30 20787 H 1964.26 -2.69292 2.48752 0
M  V30 20788 H 1963.9 -4.86124 1.292 0
M  V30 20789 H 1963.6 -5.02847 3.04005 0
M  V30 20790 H 1965.13 -5.64104 2.33707 0
M  V30 20791 H 1966.54 -4.1007 4.00644 0
M  V30 20792 H 1964.94 -3.72666 4.70362 0
M  V30 20793 H 1966.01 -2.40106 4.2128 0
M  V30 20794 N 1967.35 -1.28999 -0.905381 0
M  V30 20795 C 1968.6 -1.1664 -1.65534 0
M  V30 20796 C 1968.93 0.283294 -1.92426 0
M  V30 20797 O 1968.18 1.22166 -1.52885 0
M  V30 20798 C 1968.48 -1.91909 -3.01506 0
M  V30 20799 C 1968.15 -3.4166 -2.94243 0
M  V30 20800 C 1966.81 -3.82501 -2.91969 0
M  V30 20801 C 1969.16 -4.37112 -2.8387 0
M  V30 20802 C 1966.49 -5.1712 -2.77135 0
M  V30 20803 C 1968.84 -5.71814 -2.70576 0
M  V30 20804 C 1967.5 -6.1192 -2.66665 0
M  V30 20805 H 1966.77 -0.426816 -0.60573 0
M  V30 20806 H 1969.42 -1.5987 -1.05422 0
M  V30 20807 H 1967.73 -1.41252 -3.65452 0
M  V30 20808 H 1969.42 -1.79756 -3.58453 0
M  V30 20809 H 1966.01 -3.09194 -2.96812 0
M  V30 20810 H 1970.2 -4.06516 -2.84708 0
M  V30 20811 H 1965.45 -5.47311 -2.72508 0
M  V30 20812 H 1969.63 -6.45431 -2.61519 0
M  V30 20813 H 1967.25 -7.16182 -2.54928 0
M  V30 20814 N 1968.83 1.11497 -1.11383 0
M  V30 20815 C 1970.08 1.82584 -0.857082 0
M  V30 20816 C 1970.39 1.8554 0.61922 0
M  V30 20817 O 1971.6 2.52721 0.992197 0
M  V30 20818 C 1970.05 3.279 -1.48356 0
M  V30 20819 C 1969.66 3.33275 -2.99386 0
M  V30 20820 C 1971.41 4.0389 -1.30663 0
M  V30 20821 C 1969.31 4.72984 -3.55021 0
M  V30 20822 H 1968.24 0.684134 -0.31698 0
M  V30 20823 H 1970.89 1.25471 -1.339 0
M  V30 20824 H 1969.28 3.84941 -0.929311 0
M  V30 20825 H 1970.45 2.86119 -3.6121 0
M  V30 20826 H 1968.76 2.70764 -3.16348 0
M  V30 20827 H 1971.36 5.07069 -1.69662 0
M  V30 20828 H 1971.7 4.15554 -0.249147 0
M  V30 20829 H 1972.24 3.53235 -1.82949 0
M  V30 20830 H 1968.98 4.66518 -4.60479 0
M  V30 20831 H 1968.5 5.20553 -2.97968 0
M  V30 20832 H 1970.18 5.41941 -3.53425 0
M  V30 20833 N 1970.31 0.904053 1.29092 0
M  V30 20834 C 1971.55 0.532203 1.95381 0
M  V30 20835 C 1971.88 -0.922327 1.71241 0
M  V30 20836 O 1971.14 -1.66968 1.02079 0
M  V30 20837 C 1971.44 0.776255 3.48868 0
M  V30 20838 C 1971.1 2.20882 3.93093 0
M  V30 20839 C 1969.76 2.60052 4.04878 0
M  V30 20840 C 1972.12 3.14152 4.15882 0
M  V30 20841 C 1969.44 3.91663 4.36826 0
M  V30 20842 C 1971.8 4.45317 4.49306 0
M  V30 20843 C 1970.46 4.84354 4.59301 0
M  V30 20844 H 1969.73 0.194747 0.714951 0
M  V30 20845 H 1972.38 1.14354 1.53608 0
M  V30 20846 H 1970.68 0.0820369 3.91714 0
M  V30 20847 H 1972.38 0.467861 3.98261 0
M  V30 20848 H 1968.97 1.89485 3.84439 0
M  V30 20849 H 1973.15 2.85103 4.06239 0
M  V30 20850 H 1968.41 4.21623 4.42769 0
M  V30 20851 H 1972.58 5.17611 4.65888 0
M  V30 20852 H 1970.21 5.86371 4.83811 0
M  V30 20853 N 1971.79 -1.4279 0.666995 0
M  V30 20854 C 1973.01 -2.06504 0.192596 0
M  V30 20855 C 1973.44 -1.49743 -1.13836 0
M  V30 20856 O 1972.79 -0.612797 -1.7063 0
M  V30 20857 C 1972.84 -3.60366 0.129775 0
M  V30 20858 O 1971.95 -4.0237 -0.904018 0
M  V30 20859 H 1971.29 -0.656244 0.101194 0
M  V30 20860 H 1973.82 -1.83059 0.913807 0
M  V30 20861 H 1973.83 -4.07971 -0.0489739 0
M  V30 20862 H 1972.5 -4.01054 1.1013 0
M  V30 20863 H 1971.08 -3.66329 -0.696943 0
M  V30 20864 N 1973.26 -0.409806 -1.52179 0
M  V30 20865 C 1974.19 0.406421 -2.29936 0
M  V30 20866 C 1975.17 1.04553 -1.34174 0
M  V30 20867 O 1976.36 1.05441 -1.63082 0
M  V30 20868 C 1973.49 1.52297 -3.12127 0
M  V30 20869 C 1972.44 1.00883 -4.15941 0
M  V30 20870 C 1971.77 2.21903 -4.8648 0
M  V30 20871 C 1973.07 0.0623996 -5.22263 0
M  V30 20872 H 1974.76 -0.242406 -2.98417 0
M  V30 20873 H 1972.31 -0.118023 -1.43516 0
M  V30 20874 H 1974.26 2.10097 -3.65291 0
M  V30 20875 H 1972.99 2.19968 -2.41416 0
M  V30 20876 H 1971.65 0.453228 -3.63788 0
M  V30 20877 H 1971.29 2.88131 -4.12298 0
M  V30 20878 H 1970.99 1.88153 -5.56662 0
M  V30 20879 H 1972.52 2.80308 -5.42457 0
M  V30 20880 H 1973.93 0.549223 -5.70663 0
M  V30 20881 H 1972.33 -0.186317 -5.99811 0
M  V30 20882 H 1973.4 -0.882673 -4.76799 0
M  V30 20883 N 1974.74 1.56975 -0.14025 0
M  V30 20884 C 1975.69 2.16418 0.802003 0
M  V30 20885 C 1976.66 1.09512 1.24885 0
M  V30 20886 O 1977.84 1.37522 1.32259 0
M  V30 20887 C 1974.98 2.78465 2.03841 0
M  V30 20888 C 1974.1 3.99743 1.63798 0
M  V30 20889 C 1973.23 4.4981 2.82567 0
M  V30 20890 C 1972.27 5.63569 2.38865 0
M  V30 20891 N 1971.41 6.08285 3.5062 0
M  V30 20892 H 1976.25 2.96602 0.288284 0
M  V30 20893 H 1973.78 1.46519 0.130587 0
M  V30 20894 H 1975.74 3.12581 2.76314 0
M  V30 20895 H 1974.37 2.00936 2.52635 0
M  V30 20896 H 1973.42 3.71651 0.811169 0
M  V30 20897 H 1974.74 4.82177 1.27697 0
M  V30 20898 H 1973.89 4.85945 3.63238 0
M  V30 20899 H 1972.63 3.66369 3.21908 0
M  V30 20900 H 1971.63 5.27017 1.56632 0
M  V30 20901 H 1972.86 6.48791 2.00617 0
M  V30 20902 H 1970.81 5.2778 3.89595 0
M  V30 20903 H 1970.72 6.85628 3.18512 0
M  V30 20904 H 1971.99 6.49063 4.31668 0
M  V30 20905 N 1976.22 -0.133539 1.57033 0
M  V30 20906 C 1977.5 -0.873327 1.75021 0
M  V30 20907 C 1977.88 -1.98735 0.71187 0
M  V30 20908 O 1977.22 -2.26937 -0.266823 0
M  V30 20909 C 1977.43 -1.40341 3.19539 0
M  V30 20910 C 1978.78 -1.86151 3.81619 0
M  V30 20911 O 1979.81 -1.50053 3.23052 0
M  V30 20912 O 1978.67 -2.52767 4.84532 0
M  V30 20913 H 1975.76 -0.413669 0.716105 0
M  V30 20914 H 1978.31 -0.118413 1.69286 0
M  V30 20915 H 1977.08 -0.60345 3.86619 0
M  V30 20916 H 1976.7 -2.22145 3.29754 0
M  V30 20917 N 1977.7 -1.52352 -0.403298 0
M  V30 20918 C 1978.93 -1.70554 -1.17128 0
M  V30 20919 C 1979.34 -0.417576 -1.84124 0
M  V30 20920 O 1978.7 0.606862 -1.72115 0
M  V30 20921 C 1978.75 -2.8452 -2.23004 0
M  V30 20922 O 1978.47 -4.08329 -1.58742 0
M  V30 20923 C 1979.97 -3.14281 -3.12638 0
M  V30 20924 H 1977.19 -0.571419 -0.35174 0
M  V30 20925 H 1979.73 -1.98937 -0.473734 0
M  V30 20926 H 1977.89 -2.58639 -2.88417 0
M  V30 20927 H 1978.3 -4.71878 -2.28979 0
M  V30 20928 H 1979.78 -3.97523 -3.82988 0
M  V30 20929 H 1980.25 -2.28071 -3.7534 0
M  V30 20930 H 1980.86 -3.41948 -2.52887 0
M  V30 20931 N 1979.18 0.660885 -1.43074 0
M  V30 20932 C 1980.11 1.78579 -1.50438 0
M  V30 20933 C 1981.09 1.66253 -0.359703 0
M  V30 20934 O 1982.27 1.85465 -0.575893 0
M  V30 20935 C 1979.4 3.16963 -1.41956 0
M  V30 20936 C 1978.36 3.44043 -2.54594 0
M  V30 20937 C 1977.68 4.82147 -2.31166 0
M  V30 20938 C 1978.98 3.3955 -3.96867 0
M  V30 20939 H 1980.68 1.72673 -2.4459 0
M  V30 20940 H 1978.22 0.829317 -1.17721 0
M  V30 20941 H 1980.17 3.95406 -1.45713 0
M  V30 20942 H 1978.9 3.23581 -0.443048 0
M  V30 20943 H 1977.56 2.67969 -2.50177 0
M  V30 20944 H 1977.21 4.85432 -1.31776 0
M  V30 20945 H 1976.91 5.01228 -3.06667 0
M  V30 20946 H 1978.43 5.62857 -2.36695 0
M  V30 20947 H 1979.84 4.0794 -4.02813 0
M  V30 20948 H 1978.24 3.70166 -4.72332 0
M  V30 20949 H 1979.31 2.37868 -4.22548 0
M  V30 20950 N 1980.65 1.29477 0.898527 0
M  V30 20951 C 1981.6 1.14706 2.00278 0
M  V30 20952 C 1982.57 0.040077 1.66052 0
M  V30 20953 O 1983.76 0.207808 1.89665 0
M  V30 20954 C 1980.9 0.830802 3.3495 0
M  V30 20955 C 1980.01 2.01834 3.81952 0
M  V30 20956 C 1979.14 1.64135 5.05206 0
M  V30 20957 C 1978.18 2.79464 5.44579 0
M  V30 20958 N 1977.32 2.42153 6.59019 0
M  V30 20959 H 1982.16 2.09181 2.12244 0
M  V30 20960 H 1979.7 1.04092 1.03939 0
M  V30 20961 H 1981.66 0.628119 4.12445 0
M  V30 20962 H 1980.29 -0.0770431 3.22708 0
M  V30 20963 H 1979.34 2.33269 3.00483 0
M  V30 20964 H 1980.65 2.88247 4.07081 0
M  V30 20965 H 1979.8 1.40163 5.90288 0
M  V30 20966 H 1978.54 0.748722 4.81918 0
M  V30 20967 H 1977.55 3.04117 4.58031 0
M  V30 20968 H 1978.77 3.69393 5.69847 0
M  V30 20969 H 1976.72 1.55379 6.37333 0
M  V30 20970 H 1976.64 3.221 6.8395 0
M  V30 20971 H 1977.9 2.21503 7.47366 0
M  V30 20972 N 1982.13 -1.10905 1.11972 0
M  V30 20973 C 1983.55 -1.3478 0.854776 0
M  V30 20974 C 1983.75 -1.94737 -0.517653 0
M  V30 20975 O 1982.8 -2.18391 -1.26734 0
M  V30 20976 C 1984.12 -2.27414 1.96732 0
M  V30 20977 C 1985.67 -2.40964 1.99764 0
M  V30 20978 C 1986.14 -3.36923 3.10237 0
M  V30 20979 N 1987.63 -3.44488 3.09648 0
M  V30 20980 C 1988.37 -4.18695 3.91768 0
M  V30 20981 N 1987.86 -4.95829 4.83865 0
M  V30 20982 N 1989.66 -4.14263 3.79924 0
M  V30 20983 H 1981.81 -0.703538 2.0041 0
M  V30 20984 H 1984.07 -0.372318 0.871828 0
M  V30 20985 H 1983.78 -1.90561 2.956 0
M  V30 20986 H 1983.65 -3.27681 1.86829 0
M  V30 20987 H 1986.04 -2.77089 1.01518 0
M  V30 20988 H 1986.12 -1.40529 2.13741 0
M  V30 20989 H 1985.76 -3.01524 4.08712 0
M  V30 20990 H 1985.69 -4.37225 2.93499 0
M  V30 20991 H 1988.18 -2.89475 2.42925 0
M  V30 20992 H 1988.5 -5.49836 5.43047 0
M  V30 20993 H 1986.84 -4.9497 4.87883 0
M  V30 20994 H 1990.03 -3.53095 3.07314 0
M  V30 20995 H 1990.2 -4.71837 4.44155 0
M  V30 20996 N 1983.61 -0.910886 -1.2861 0
M  V30 20997 C 1985.03 -0.608615 -1.4754 0
M  V30 20998 C 1985.23 0.846869 -1.8284 0
M  V30 20999 O 1984.28 1.62618 -1.93162 0
M  V30 21000 C 1985.6 -1.54405 -2.5803 0
M  V30 21001 C 1987.14 -1.55046 -2.719 0
M  V30 21002 C 1987.62 -2.47245 -3.85531 0
M  V30 21003 N 1989.11 -2.45356 -3.9288 0
M  V30 21004 C 1989.84 -3.13394 -4.80179 0
M  V30 21005 N 1989.34 -3.90751 -5.72088 0
M  V30 21006 N 1991.13 -3.02495 -4.73765 0
M  V30 21007 H 1983.28 -1.8521 -1.03977 0
M  V30 21008 H 1985.55 -0.794235 -0.517585 0
M  V30 21009 H 1985.25 -2.5816 -2.38844 0
M  V30 21010 H 1985.13 -1.27299 -3.5507 0
M  V30 21011 H 1987.51 -0.520311 -2.90477 0
M  V30 21012 H 1987.6 -1.86195 -1.754 0
M  V30 21013 H 1987.24 -3.50361 -3.67709 0
M  V30 21014 H 1987.17 -2.134 -4.81423 0
M  V30 21015 H 1989.66 -1.89161 -3.27149 0
M  V30 21016 H 1989.97 -4.39694 -6.35523 0
M  V30 21017 H 1988.32 -3.94857 -5.71938 0
M  V30 21018 H 1991.51 -2.41567 -4.00953 0
M  V30 21019 H 1991.68 -3.55793 -5.41586 0
M  V30 21020 N 1985.09 1.42434 -0.674558 0
M  V30 21021 C 1986.31 2.06399 -0.203545 0
M  V30 21022 C 1986.74 1.50345 1.1304 0
M  V30 21023 O 1986.1 0.621837 1.70302 0
M  V30 21024 C 1986.14 3.60293 -0.148884 0
M  V30 21025 O 1985.25 4.02843 0.882667 0
M  V30 21026 H 1984.59 0.655698 -0.104672 0
M  V30 21027 H 1987.12 1.82572 -0.923502 0
M  V30 21028 H 1987.13 4.07991 0.0273375 0
M  V30 21029 H 1985.8 4.00464 -1.12256 0
M  V30 21030 H 1984.38 3.66694 0.677506 0
M  V30 21031 N 1986.57 0.417871 1.51959 0
M  V30 21032 C 1987.81 -0.147628 2.02864 0
M  V30 21033 C 1988.17 -1.42062 1.29755 0
M  V30 21034 O 1987.46 -1.87425 0.39782 0
M  V30 21035 C 1987.65 -0.440779 3.54672 0
M  V30 21036 C 1987.48 0.802246 4.42486 0
M  V30 21037 C 1986.25 1.33004 4.87481 0
M  V30 21038 C 1988.45 1.68287 4.85988 0
M  V30 21039 N 1986.43 2.52763 5.5945 0
M  V30 21040 C 1987.8 2.72665 5.56825 0
M  V30 21041 C 1989.86 1.6996 4.67994 0
M  V30 21042 C 1988.56 3.78636 6.11577 0
M  V30 21043 C 1990.59 2.74855 5.23649 0
M  V30 21044 C 1989.95 3.77953 5.94416 0
M  V30 21045 H 1986.05 -0.0153607 0.781849 0
M  V30 21046 H 1988.63 0.57418 1.86041 0
M  V30 21047 H 1986.8 -1.13163 3.71549 0
M  V30 21048 H 1988.54 -0.995926 3.92254 0
M  V30 21049 H 1985.29 0.886788 4.65224 0
M  V30 21050 H 1985.72 3.13438 6.00071 0
M  V30 21051 H 1990.36 0.91589 4.12761 0
M  V30 21052 H 1988.08 4.57858 6.65877 0
M  V30 21053 H 1991.66 2.77067 5.11591 0
M  V30 21054 H 1990.54 4.57787 6.36711 0
M  V30 21055 N 1988.04 -1.56898 0.148573 0
M  V30 21056 C 1989.46 -1.82957 -0.371991 0
M  V30 21057 C 1989.81 -1.06735 -1.64627 0
M  V30 21058 O 1988.93 -0.313128 -2.14123 0
M  V30 21059 C 1989.53 -3.31871 -0.681682 0
M  V30 21060 C 1988.09 -3.58506 -1.14676 0
M  V30 21061 C 1987.23 -2.76774 -0.170675 0
M  V30 21062 H 1990.18 -1.54248 0.373244 0
M  V30 21063 H 1990.2 -3.48112 -1.53618 0
M  V30 21064 H 1989.72 -3.8732 0.245938 0
M  V30 21065 H 1987.82 -3.08445 -2.09027 0
M  V30 21066 H 1987.93 -4.66961 -1.07165 0
M  V30 21067 H 1986.29 -2.45903 -0.663611 0
M  V30 21068 H 1987.08 -3.34995 0.750563 0
M  V30 21069 N 1989.52 0.125209 -1.57102 0
M  V30 21070 C 1990.45 1.15521 -2.02922 0
M  V30 21071 C 1991.43 1.43549 -0.912559 0
M  V30 21072 O 1992.62 1.54097 -1.18185 0
M  V30 21073 C 1989.75 2.48297 -2.42829 0
M  V30 21074 C 1988.7 2.34744 -3.57881 0
M  V30 21075 C 1988.03 3.72427 -3.83669 0
M  V30 21076 C 1989.33 1.81317 -4.89818 0
M  V30 21077 H 1991.02 0.774129 -2.89219 0
M  V30 21078 H 1988.57 0.370935 -1.3914 0
M  V30 21079 H 1990.52 3.20597 -2.73487 0
M  V30 21080 H 1989.25 2.88283 -1.53495 0
M  V30 21081 H 1987.9 1.64893 -3.27423 0
M  V30 21082 H 1987.55 4.09887 -2.9155 0
M  V30 21083 H 1987.25 3.64215 -4.61109 0
M  V30 21084 H 1988.78 4.46242 -4.16773 0
M  V30 21085 H 1990.19 2.43429 -5.19052 0
M  V30 21086 H 1988.59 1.83941 -5.71214 0
M  V30 21087 H 1989.66 0.770291 -4.78743 0
M  V30 21088 N 1991 1.52564 0.395213 0
M  V30 21089 C 1991.95 1.77531 1.50285 0
M  V30 21090 C 1992.94 0.642976 1.56723 0
M  V30 21091 O 1994.15 0.825323 1.59964 0
M  V30 21092 H 1990.52 0.561636 0.500069 0
M  V30 21093 H 1992.49 2.70298 1.26418 0
M  V30 21094 C 1991.24 1.95557 2.87494 0
M  V30 21095 H 1990.57 2.82114 2.83288 0
M  V30 21096 H 1992.01 2.17019 3.64251 0
M  V30 21097 C 1990.47 0.726406 3.28976 0
M  V30 21098 O 1991 -0.0991246 4.01578 0
M  V30 21099 N 1989.2 0.558299 2.85187 0
M  V30 21100 H 1988.75 1.2312 2.26272 0
M  V30 21101 H 1988.71 -0.262779 3.133 0
M  V30 21102 N 1992.48 -0.653289 1.43422 0
M  V30 21103 C 1993.39 -1.79526 1.51022 0
M  V30 21104 C 1994.4 -1.69403 0.39732 0
M  V30 21105 O 1995.58 -1.90574 0.651437 0
M  V30 21106 C 1992.65 -3.15803 1.43071 0
M  V30 21107 C 1991.71 -3.37723 2.65031 0
M  V30 21108 C 1990.94 -4.67499 2.5745 0
M  V30 21109 O 1991.16 -5.46846 1.6222 0
M  V30 21110 O 1990.1 -4.91137 3.47948 0
M  V30 21111 H 1993.92 -1.76069 2.47454 0
M  V30 21112 H 1991.51 -0.81176 1.25423 0
M  V30 21113 H 1993.39 -3.97083 1.41079 0
M  V30 21114 H 1992.06 -3.1985 0.497738 0
M  V30 21115 H 1990.97 -2.56208 2.72595 0
M  V30 21116 H 1992.3 -3.38523 3.573 0
M  V30 21117 N 1993.96 -1.29952 -0.891648 0
M  V30 21118 C 1995.2 -1.18155 -1.63963 0
M  V30 21119 C 1995.53 0.265477 -1.93184 0
M  V30 21120 O 1994.8 1.1802 -1.56359 0
M  V30 21121 H 1993.38 -0.434297 -0.607779 0
M  V30 21122 H 1996.04 -1.62988 -1.06869 0
M  V30 21123 H 1995.13 -1.73753 -2.59261 0
M  V30 21124 N 1995.44 1.1031 -1.12559 0
M  V30 21125 C 1996.68 1.82567 -0.883005 0
M  V30 21126 C 1997.01 1.85031 0.589667 0
M  V30 21127 O 1996.29 1.3119 1.43595 0
M  V30 21128 C 1996.57 3.29171 -1.46009 0
M  V30 21129 C 1996.43 3.35032 -3.00122 0
M  V30 21130 C 1997.74 4.25591 -1.12073 0
M  V30 21131 H 1994.86 0.662829 -0.322221 0
M  V30 21132 H 1997.51 1.29276 -1.3924 0
M  V30 21133 H 1995.66 3.74684 -1.02685 0
M  V30 21134 H 1997.33 2.9799 -3.52135 0
M  V30 21135 H 1995.57 2.74892 -3.35584 0
M  V30 21136 H 1996.24 4.3827 -3.35595 0
M  V30 21137 H 1998.72 3.88318 -1.49494 0
M  V30 21138 H 1997.59 5.26528 -1.55112 0
M  V30 21139 H 1997.85 4.42088 -0.0331138 0
M  V30 21140 N 1996.91 0.917694 1.28125 0
M  V30 21141 C 1997.85 0.353528 2.25445 0
M  V30 21142 C 1998.82 -0.544478 1.53213 0
M  V30 21143 O 2000.01 -0.487244 1.82094 0
M  V30 21144 C 1997.14 -0.494267 3.35074 0
M  V30 21145 C 1996.18 0.338908 4.25151 0
M  V30 21146 S 1997.01 1.74815 5.06162 0
M  V30 21147 C 1998.17 0.907763 6.19282 0
M  V30 21148 H 1998.4 1.17837 2.7295 0
M  V30 21149 H 1995.94 0.719206 1.36626 0
M  V30 21150 H 1997.89 -0.977577 3.9869 0
M  V30 21151 H 1996.56 -1.29354 2.86228 0
M  V30 21152 H 1995.75 -0.309531 5.03049 0
M  V30 21153 H 1995.35 0.756018 3.66279 0
M  V30 21154 H 1997.64 0.139193 6.77357 0
M  V30 21155 H 1998.59 1.65941 6.88382 0
M  V30 21156 H 1998.99 0.454194 5.6267 0
M  V30 21157 N 1998.39 -1.42074 0.682102 0
M  V30 21158 C 1999.35 -2.29193 0.0174256 0
M  V30 21159 C 2000.35 -1.43698 -0.721635 0
M  V30 21160 O 2001.54 -1.65003 -0.558542 0
M  V30 21161 C 1998.68 -3.26332 -0.985903 0
M  V30 21162 H 1999.87 -2.89462 0.784316 0
M  V30 21163 H 1997.42 -1.49836 0.44485 0
M  V30 21164 H 1998.16 -2.71016 -1.78103 0
M  V30 21165 H 1997.94 -3.89401 -0.459258 0
M  V30 21166 H 1999.43 -3.91649 -1.44918 0
M  V30 21167 N 1999.87 -0.425924 -1.51735 0
M  V30 21168 C 2001.12 0.144557 -2.02284 0
M  V30 21169 C 2001.45 1.43351 -1.31012 0
M  V30 21170 O 2000.72 1.89877 -0.421524 0
M  V30 21171 C 2001.01 0.37505 -3.58142 0
M  V30 21172 C 2000.86 -0.931753 -4.40044 0
M  V30 21173 C 2002.18 1.14986 -4.24813 0
M  V30 21174 H 1999.3 0.0510632 -0.735229 0
M  V30 21175 H 2001.94 -0.562685 -1.81477 0
M  V30 21176 H 2000.09 0.977495 -3.76002 0
M  V30 21177 H 2001.76 -1.5673 -4.33859 0
M  V30 21178 H 2000 -1.53896 -4.05584 0
M  V30 21179 H 2000.68 -0.724661 -5.47223 0
M  V30 21180 H 2003.15 0.639666 -4.11154 0
M  V30 21181 H 2002.03 1.27989 -5.3377 0
M  V30 21182 H 2002.29 2.17496 -3.849 0
M  V30 21183 N 2001.35 1.56817 -0.156891 0
M  V30 21184 C 2002.6 1.96051 0.490764 0
M  V30 21185 C 2002.92 1.04326 1.64746 0
M  V30 21186 O 2002.19 0.106736 1.95609 0
M  V30 21187 H 2000.77 0.72391 0.184293 0
M  V30 21188 H 2003.43 1.93482 -0.234704 0
M  V30 21189 H 2002.52 3.00007 0.86036 0
M  V30 21190 N 2002.83 -0.116876 1.57166 0
M  V30 21191 C 2003.76 -1.14443 2.03531 0
M  V30 21192 C 2004.74 -1.43063 0.920159 0
M  V30 21193 O 2005.92 -1.53468 1.19001 0
M  V30 21194 C 2003.05 -2.47006 2.44142 0
M  V30 21195 C 2002.01 -2.32843 3.59121 0
M  V30 21196 C 2001.33 -3.70388 3.85639 0
M  V30 21197 C 2002.63 -1.78717 4.90772 0
M  V30 21198 H 2004.33 -0.75878 2.89625 0
M  V30 21199 H 2001.87 -0.363551 1.39335 0
M  V30 21200 H 2003.82 -3.19143 2.75184 0
M  V30 21201 H 2002.55 -2.87465 1.55021 0
M  V30 21202 H 2001.21 -1.63155 3.28293 0
M  V30 21203 H 2000.86 -4.08335 2.9372 0
M  V30 21204 H 2000.56 -3.61764 4.63034 0
M  V30 21205 H 2002.08 -4.44026 4.19134 0
M  V30 21206 H 2003.49 -2.40673 5.20336 0
M  V30 21207 H 2001.89 -1.80909 5.72182 0
M  V30 21208 H 2002.96 -0.744891 4.79144 0
M  V30 21209 N 2004.3 -1.52772 -0.387116 0
M  V30 21210 C 2005.55 -1.68156 -1.13364 0
M  V30 21211 C 2005.88 -0.421195 -1.89577 0
M  V30 21212 O 2005.16 0.581056 -1.85618 0
M  V30 21213 C 2005.44 -2.91781 -2.11036 0
M  V30 21214 C 2005.29 -4.27922 -1.38573 0
M  V30 21215 C 2006.61 -3.10957 -3.11438 0
M  V30 21216 H 2003.73 -0.611922 -0.410755 0
M  V30 21217 H 2006.37 -1.85372 -0.416809 0
M  V30 21218 H 2004.52 -2.77234 -2.72165 0
M  V30 21219 H 2006.2 -4.54241 -0.803941 0
M  V30 21220 H 2004.44 -4.28316 -0.687576 0
M  V30 21221 H 2005.11 -5.10514 -2.09952 0
M  V30 21222 H 2007.59 -3.24547 -2.604 0
M  V30 21223 H 2006.46 -3.9893 -3.77022 0
M  V30 21224 H 2006.72 -2.25258 -3.80409 0
M  V30 21225 N 2005.78 0.645673 -1.43767 0
M  V30 21226 C 2007.01 1.43799 -1.49454 0
M  V30 21227 C 2007.43 1.87742 -0.115948 0
M  V30 21228 O 2006.79 1.57845 0.891891 0
M  V30 21229 C 2006.84 2.64416 -2.45186 0
M  V30 21230 O 2005.94 3.63742 -1.94334 0
M  V30 21231 H 2005.28 0.430858 -0.50523 0
M  V30 21232 H 2007.81 0.789424 -1.88757 0
M  V30 21233 H 2007.82 3.12139 -2.62741 0
M  V30 21234 H 2006.5 2.31776 -3.4533 0
M  V30 21235 H 2005.07 3.22926 -1.86476 0
M  V30 21236 N 2007.26 1.30423 0.884744 0
M  V30 21237 C 2008.51 1.18625 1.63129 0
M  V30 21238 C 2008.82 -0.257953 1.93892 0
M  V30 21239 O 2010.03 -0.497448 2.66904 0
M  V30 21240 C 2008.48 2.0757 2.94011 0
M  V30 21241 C 2008.09 3.569 2.70788 0
M  V30 21242 C 2009.84 2.04535 3.71975 0
M  V30 21243 C 2007.74 4.37901 3.97488 0
M  V30 21244 H 2006.67 0.440391 0.612023 0
M  V30 21245 H 2009.32 1.55172 0.979478 0
M  V30 21246 H 2007.71 1.63905 3.60487 0
M  V30 21247 H 2008.88 4.08715 2.12812 0
M  V30 21248 H 2007.19 3.61761 2.06199 0
M  V30 21249 H 2009.79 2.62305 4.6594 0
M  V30 21250 H 2010.13 1.02888 4.03385 0
M  V30 21251 H 2010.67 2.46322 3.12362 0
M  V30 21252 H 2007.41 5.40244 3.71236 0
M  V30 21253 H 2006.93 3.9085 4.54968 0
M  V30 21254 H 2008.61 4.49347 4.65506 0
M  V30 21255 N 2008.74 -1.09711 1.13142 0
M  V30 21256 C 2009.67 -2.18301 0.828662 0
M  V30 21257 C 2010.65 -1.6879 -0.210733 0
M  V30 21258 O 2011.83 -1.94073 -0.0702977 0
M  V30 21259 C 2008.96 -3.46081 0.290674 0
M  V30 21260 C 2007.92 -4.0891 1.26398 0
M  V30 21261 C 2007.24 -5.3148 0.585887 0
M  V30 21262 C 2008.54 -4.51751 2.62142 0
M  V30 21263 H 2010.24 -2.43885 1.73668 0
M  V30 21264 H 2007.78 -1.17216 0.836449 0
M  V30 21265 H 2009.74 -4.21347 0.0665509 0
M  V30 21266 H 2008.46 -3.20011 -0.652716 0
M  V30 21267 H 2007.12 -3.3566 1.47405 0
M  V30 21268 H 2006.77 -5.01689 -0.362883 0
M  V30 21269 H 2006.47 -5.7447 1.23522 0
M  V30 21270 H 2007.99 -6.09472 0.370976 0
M  V30 21271 H 2009.41 -5.18255 2.45121 0
M  V30 21272 H 2007.8 -5.05615 3.23223 0
M  V30 21273 H 2008.87 -3.64297 3.20025 0
M  V30 21274 N 2010.22 -0.924476 -1.27637 0
M  V30 21275 C 2011.18 -0.425772 -2.25211 0
M  V30 21276 C 2012.18 0.453876 -1.54261 0
M  V30 21277 O 2013.37 0.255412 -1.72317 0
M  V30 21278 C 2010.5 0.388294 -3.38681 0
M  V30 21279 H 2011.69 -1.28783 -2.70841 0
M  V30 21280 H 2009.25 -0.704863 -1.39504 0
M  V30 21281 H 2009.98 1.2693 -2.98428 0
M  V30 21282 H 2009.77 -0.242358 -3.9135 0
M  V30 21283 H 2011.26 0.727693 -4.11211 0
M  V30 21284 N 2011.69 1.41711 -0.689627 0
M  V30 21285 C 2012.92 2.06171 -0.225425 0
M  V30 21286 C 2013.34 1.51535 1.11439 0
M  V30 21287 O 2012.7 0.639865 1.69633 0
M  V30 21288 C 2012.75 3.60114 -0.187089 0
M  V30 21289 O 2011.85 4.03757 0.83989 0
M  V30 21290 H 2011.2 0.654551 -0.111621 0
M  V30 21291 H 2013.73 1.81582 -0.942814 0
M  V30 21292 H 2013.74 4.07997 -0.0159369 0
M  V30 21293 H 2012.41 3.99251 -1.16497 0
M  V30 21294 H 2010.99 3.67392 0.638575 0
M  V30 21295 N 2013.17 0.433965 1.51507 0
M  V30 21296 C 2014.4 -0.134793 2.06962 0
M  V30 21297 C 2014.82 -1.35984 1.29962 0
M  V30 21298 O 2014.18 -1.78147 0.336629 0
M  V30 21299 C 2014.23 -0.438976 3.57918 0
M  V30 21300 O 2013.33 -1.52599 3.83128 0
M  V30 21301 H 2012.67 -0.00334493 0.663992 0
M  V30 21302 H 2015.2 0.614327 1.95159 0
M  V30 21303 H 2015.21 -0.690415 4.02116 0
M  V30 21304 H 2013.89 0.456413 4.13388 0
M  V30 21305 H 2012.47 -1.26478 3.50796 0
M  V30 21306 N 2014.65 -1.56732 0.165206 0
M  V30 21307 C 2015.58 -2.20674 -0.763223 0
M  V30 21308 C 2016.56 -1.16048 -1.24366 0
M  V30 21309 O 2017.75 -1.44456 -1.29793 0
M  V30 21310 C 2014.88 -2.84269 -1.9952 0
M  V30 21311 C 2013.83 -3.94881 -1.65085 0
M  V30 21312 C 2013.16 -4.45496 -2.95698 0
M  V30 21313 C 2014.46 -5.14773 -0.883543 0
M  V30 21314 H 2016.15 -2.98513 -0.230254 0
M  V30 21315 H 2013.7 -1.43585 -0.109308 0
M  V30 21316 H 2015.65 -3.27674 -2.64967 0
M  V30 21317 H 2014.37 -2.03789 -2.55221 0
M  V30 21318 H 2013.03 -3.52122 -1.0201 0
M  V30 21319 H 2012.68 -3.61815 -3.49426 0
M  V30 21320 H 2012.38 -5.20114 -2.73414 0
M  V30 21321 H 2013.9 -4.91584 -3.62185 0
M  V30 21322 H 2015.32 -5.54908 -1.44047 0
M  V30 21323 H 2013.72 -5.95268 -0.759968 0
M  V30 21324 H 2014.79 -4.84748 0.121303 0
M  V30 21325 N 2016.13 0.10854 -1.57226 0
M  V30 21326 C 2017.06 1.13362 -2.04135 0
M  V30 21327 C 2018.04 1.42573 -0.927733 0
M  V30 21328 O 2019.22 1.52835 -1.19813 0
M  V30 21329 C 2016.35 2.45708 -2.45449 0
M  V30 21330 C 2015.31 2.30935 -3.60351 0
M  V30 21331 C 2014.63 3.68337 -3.87597 0
M  V30 21332 C 2015.93 1.76112 -4.91713 0
M  V30 21333 H 2017.63 0.74341 -2.90024 0
M  V30 21334 H 2015.17 0.356157 -1.39526 0
M  V30 21335 H 2017.13 3.17679 -2.76872 0
M  V30 21336 H 2015.85 2.86639 -1.56544 0
M  V30 21337 H 2014.51 1.61411 -3.29153 0
M  V30 21338 H 2014.16 4.06772 -2.95881 0
M  V30 21339 H 2013.86 3.59303 -4.64946 0
M  V30 21340 H 2015.38 4.41797 -4.21483 0
M  V30 21341 H 2016.8 2.3791 -5.21605 0
M  V30 21342 H 2015.19 1.77872 -5.73133 0
M  V30 21343 H 2016.26 0.71947 -4.79533 0
M  V30 21344 N 2017.61 1.52975 0.379009 0
M  V30 21345 C 2019.02 1.42448 0.719772 0
M  V30 21346 C 2019.22 0.552842 1.93768 0
M  V30 21347 O 2018.28 0.0301168 2.52482 0
M  V30 21348 C 2019.59 2.85448 0.945527 0
M  V30 21349 C 2021.14 2.94991 1.04638 0
M  V30 21350 C 2021.61 4.39024 1.30469 0
M  V30 21351 N 2023.11 4.42393 1.37269 0
M  V30 21352 C 2023.84 5.50931 1.58941 0
M  V30 21353 N 2023.34 6.69538 1.78017 0
M  V30 21354 N 2025.13 5.38489 1.61202 0
M  V30 21355 H 2017.28 2.08161 -0.422247 0
M  V30 21356 H 2019.54 0.939485 -0.126776 0
M  V30 21357 H 2019.25 3.51486 0.122608 0
M  V30 21358 H 2019.12 3.28299 1.85741 0
M  V30 21359 H 2021.51 2.29115 1.85985 0
M  V30 21360 H 2021.59 2.55554 0.11218 0
M  V30 21361 H 2021.24 5.0547 0.496281 0
M  V30 21362 H 2021.17 4.76022 2.2519 0
M  V30 21363 H 2023.66 3.56909 1.24195 0
M  V30 21364 H 2023.97 7.4803 1.94089 0
M  V30 21365 H 2022.31 6.72549 1.75222 0
M  V30 21366 H 2025.51 4.44796 1.45856 0
M  V30 21367 H 2025.68 6.23144 1.77751 0
M  V30 21368 N 2019.08 -0.63804 1.44107 0
M  V30 21369 C 2020.03 -1.77153 1.5073 0
M  V30 21370 C 2021.03 -1.65093 0.379567 0
M  V30 21371 O 2022.23 -1.71255 0.554218 0
M  V30 21372 H 2018.61 -0.584742 0.472843 0
M  V30 21373 H 2020.58 -1.68689 2.46143 0
M  V30 21374 C 2019.33 -3.15467 1.46204 0
M  V30 21375 H 2018.65 -3.25392 2.32293 0
M  V30 21376 H 2020.09 -3.94693 1.54899 0
M  V30 21377 C 2018.55 -3.36409 0.181784 0
M  V30 21378 O 2019.08 -3.94621 -0.750818 0
M  V30 21379 N 2017.29 -2.90469 0.0871207 0
M  V30 21380 H 2016.83 -2.43281 0.846871 0
M  V30 21381 H 2016.79 -3.04857 -0.768744 0
M  V30 21382 N 2020.56 -1.3089 -0.877815 0
M  V30 21383 C 2021.84 -1.10773 -1.6121 0
M  V30 21384 C 2022.22 0.340404 -2.08337 0
M  V30 21385 O 2021.57 1.33316 -1.85577 0
M  V30 21386 C 2021.78 -2.11499 -2.77613 0
M  V30 21387 C 2023.13 -2.43601 -3.47769 0
M  V30 21388 O 2024.15 -2.09865 -2.87811 0
M  V30 21389 O 2023.01 -3.0134 -4.55913 0
M  V30 21390 H 2020.1 -0.425928 -0.708882 0
M  V30 21391 H 2022.65 -1.42341 -0.923964 0
M  V30 21392 H 2021.42 -3.08943 -2.40146 0
M  V30 21393 H 2021.04 -1.80791 -3.54119 0
M  V30 21394 N 2022.04 1.0911 -1.13723 0
M  V30 21395 C 2023.29 1.81621 -0.902319 0
M  V30 21396 C 2023.62 1.85646 0.570009 0
M  V30 21397 O 2022.89 1.32706 1.42195 0
M  V30 21398 C 2023.18 3.27604 -1.49492 0
M  V30 21399 C 2023.03 3.3183 -3.03659 0
M  V30 21400 C 2024.35 4.24378 -1.16581 0
M  V30 21401 H 2021.47 0.659374 -0.329233 0
M  V30 21402 H 2024.11 1.27792 -1.40603 0
M  V30 21403 H 2022.26 3.73574 -1.06653 0
M  V30 21404 H 2023.93 2.94239 -3.55276 0
M  V30 21405 H 2022.18 2.71317 -3.38481 0
M  V30 21406 H 2022.85 4.34686 -3.40224 0
M  V30 21407 H 2025.32 3.8671 -1.53604 0
M  V30 21408 H 2024.2 5.24853 -1.60688 0
M  V30 21409 H 2024.46 4.42028 -0.0800013 0
M  V30 21410 N 2023.52 0.931232 1.27145 0
M  V30 21411 C 2024.93 0.617607 1.76189 0
M  V30 21412 C 2025.28 -0.867239 1.75993 0
M  V30 21413 O 2024.41 -1.67865 1.36567 0
M  V30 21414 C 2025 1.11436 3.19949 0
M  V30 21415 C 2023.56 0.851337 3.66646 0
M  V30 21416 C 2022.71 1.27104 2.46454 0
M  V30 21417 H 2025.66 1.11062 1.13362 0
M  V30 21418 H 2025.68 0.463637 3.77665 0
M  V30 21419 H 2025.19 2.19507 3.2006 0
M  V30 21420 H 2023.29 -0.215418 3.71977 0
M  V30 21421 H 2023.4 1.47136 4.55947 0
M  V30 21422 H 2021.77 0.689554 2.45188 0
M  V30 21423 H 2022.55 2.36047 2.49273 0
M  V30 21424 N 2025 -1.41343 0.697132 0
M  V30 21425 C 2025.93 -2.28193 -0.017778 0
M  V30 21426 C 2026.91 -1.4232 -0.786373 0
M  V30 21427 O 2028.09 -1.71747 -0.776865 0
M  V30 21428 C 2025.22 -3.22577 -1.03256 0
M  V30 21429 C 2024.27 -4.25004 -0.356949 0
M  V30 21430 S 2025.1 -5.27852 0.901798 0
M  V30 21431 C 2026.25 -6.25801 -0.111346 0
M  V30 21432 H 2026.49 -2.88479 0.718839 0
M  V30 21433 H 2024.02 -1.46503 0.487463 0
M  V30 21434 H 2025.98 -3.77487 -1.61288 0
M  V30 21435 H 2024.64 -2.61384 -1.74176 0
M  V30 21436 H 2023.83 -4.9132 -1.12343 0
M  V30 21437 H 2023.43 -3.73698 0.150343 0
M  V30 21438 H 2025.73 -6.70605 -0.964122 0
M  V30 21439 H 2026.67 -7.06203 0.517933 0
M  V30 21440 H 2027.08 -5.62566 -0.466819 0
M  V30 21441 N 2026.48 -0.441993 -1.51275 0
M  V30 21442 C 2027.44 0.355502 -2.26426 0
M  V30 21443 C 2028.44 0.945699 -1.30051 0
M  V30 21444 O 2029.63 0.819422 -1.53724 0
M  V30 21445 C 2026.76 1.50344 -3.05957 0
M  V30 21446 H 2027.95 -0.303177 -2.98364 0
M  V30 21447 H 2025.51 -0.195279 -1.55075 0
M  V30 21448 H 2026.24 2.19803 -2.38447 0
M  V30 21449 H 2026.03 1.08636 -3.7675 0
M  V30 21450 H 2027.52 2.06676 -3.6287 0
M  V30 21451 N 2027.95 1.56642 -0.173515 0
M  V30 21452 C 2029.2 1.9656 0.469943 0
M  V30 21453 C 2029.52 1.06067 1.6363 0
M  V30 21454 O 2028.79 0.127477 1.95485 0
M  V30 21455 H 2027.37 0.725824 0.176604 0
M  V30 21456 H 2030.03 1.93222 -0.255212 0
M  V30 21457 H 2029.13 3.00903 0.828491 0
M  V30 21458 N 2029.43 -0.1002 1.57281 0
M  V30 21459 C 2030.84 -0.655287 1.74822 0
M  V30 21460 C 2031.19 -1.79373 0.794961 0
M  V30 21461 O 2030.32 -2.16382 -0.0277532 0
M  V30 21462 C 2030.91 -1.19548 3.17008 0
M  V30 21463 C 2029.47 -1.69668 3.35991 0
M  V30 21464 C 2028.62 -0.604127 2.70639 0
M  V30 21465 H 2031.57 0.125841 1.582 0
M  V30 21466 H 2031.59 -2.06489 3.19598 0
M  V30 21467 H 2031.1 -0.366679 3.86364 0
M  V30 21468 H 2029.2 -2.54964 2.71706 0
M  V30 21469 H 2029.32 -1.79318 4.44277 0
M  V30 21470 H 2027.68 -1.04234 2.32395 0
M  V30 21471 H 2028.46 0.214006 3.42632 0
M  V30 21472 N 2030.91 -1.53174 -0.370891 0
M  V30 21473 C 2031.84 -1.82213 -1.46017 0
M  V30 21474 C 2032.82 -0.675274 -1.56122 0
M  V30 21475 O 2034.01 -0.924614 -1.70776 0
M  V30 21476 C 2031.14 -2.00727 -2.83419 0
M  V30 21477 C 2030.09 -3.16478 -2.88141 0
M  V30 21478 C 2029.42 -3.20276 -4.28167 0
M  V30 21479 C 2030.72 -4.55179 -2.56143 0
M  V30 21480 H 2032.41 -2.73432 -1.21965 0
M  V30 21481 H 2029.96 -1.31569 -0.585288 0
M  V30 21482 H 2031.91 -2.19625 -3.59643 0
M  V30 21483 H 2030.63 -1.06213 -3.08847 0
M  V30 21484 H 2029.29 -2.97392 -2.14367 0
M  V30 21485 H 2028.94 -2.2341 -4.50663 0
M  V30 21486 H 2028.64 -3.98044 -4.32244 0
M  V30 21487 H 2030.16 -3.41352 -5.06272 0
M  V30 21488 H 2031.58 -4.74274 -3.22082 0
M  V30 21489 H 2029.97 -5.35148 -2.71544 0
M  V30 21490 H 2031.04 -4.60654 -1.51412 0
M  V30 21491 N 2032.39 0.630389 -1.44443 0
M  V30 21492 C 2033.63 1.39199 -1.47484 0
M  V30 21493 C 2033.97 1.93903 -0.107313 0
M  V30 21494 O 2033.24 1.73699 0.875158 0
M  V30 21495 C 2033.52 2.55674 -2.5358 0
M  V30 21496 C 2033.38 2.06314 -3.99693 0
M  V30 21497 C 2034.7 3.57858 -2.56174 0
M  V30 21498 H 2031.82 0.504794 -0.536984 0
M  V30 21499 H 2034.46 0.712698 -1.76127 0
M  V30 21500 H 2032.61 3.13624 -2.29287 0
M  V30 21501 H 2034.28 1.53189 -4.35122 0
M  V30 21502 H 2032.52 1.37492 -4.11435 0
M  V30 21503 H 2033.19 2.90173 -4.69578 0
M  V30 21504 H 2035.67 3.0971 -2.77883 0
M  V30 21505 H 2034.55 4.36875 -3.32312 0
M  V30 21506 H 2034.81 4.11976 -1.60401 0
M  V30 21507 N 2033.87 1.31354 0.870861 0
M  V30 21508 C 2034.83 1.18889 1.95954 0
M  V30 21509 C 2035.83 0.116227 1.60379 0
M  V30 21510 O 2037.02 0.365426 1.70324 0
M  V30 21511 C 2034.15 0.824704 3.30774 0
M  V30 21512 H 2035.34 2.15624 2.08438 0
M  V30 21513 H 2032.9 1.14952 1.05904 0
M  V30 21514 H 2033.63 -0.141533 3.23991 0
M  V30 21515 H 2033.42 1.60006 3.57967 0
M  V30 21516 H 2034.91 0.761361 4.10601 0
M  V30 21517 N 2035.34 -1.08505 1.143 0
M  V30 21518 C 2036.59 -1.80514 0.908791 0
M  V30 21519 C 2036.91 -1.86599 -0.566196 0
M  V30 21520 O 2036.18 -1.35837 -1.41156 0
M  V30 21521 H 2034.76 -0.668553 0.333235 0
M  V30 21522 H 2037.42 -1.31188 1.44138 0
M  V30 21523 H 2036.52 -2.83375 1.30786 0
M  V30 21524 N 2036.82 -0.937962 -1.26649 0
M  V30 21525 C 2038.07 -0.582665 -1.93519 0
M  V30 21526 C 2038.39 0.880595 -1.73984 0
M  V30 21527 O 2037.66 1.62535 -1.09358 0
M  V30 21528 H 2036.24 -0.212501 -0.716137 0
M  V30 21529 H 2038.9 -1.19259 -1.54154 0
M  V30 21530 H 2038 -0.797692 -3.01734 0
M  V30 21531 N 2038.3 1.40971 -0.704618 0
M  V30 21532 C 2039.23 2.33424 -0.0595656 0
M  V30 21533 C 2040.21 1.52306 0.757422 0
M  V30 21534 O 2041.4 1.80812 0.708567 0
M  V30 21535 C 2038.53 3.36202 0.870964 0
M  V30 21536 C 2037.48 4.27699 0.160408 0
M  V30 21537 C 2036.81 5.20924 1.20591 0
M  V30 21538 C 2038.11 5.13047 -0.97878 0
M  V30 21539 H 2039.8 2.87615 -0.83176 0
M  V30 21540 H 2037.35 1.38292 -0.401428 0
M  V30 21541 H 2039.3 3.9981 1.33153 0
M  V30 21542 H 2038.02 2.80381 1.67493 0
M  V30 21543 H 2036.68 3.65527 -0.280222 0
M  V30 21544 H 2036.33 4.61414 2.00264 0
M  V30 21545 H 2036.03 5.8298 0.73543 0
M  V30 21546 H 2037.55 5.8741 1.6668 0
M  V30 21547 H 2038.97 5.70172 -0.598081 0
M  V30 21548 H 2037.36 5.8409 -1.37693 0
M  V30 21549 H 2038.43 4.49675 -1.8144 0
M  V30 21550 N 2039.78 0.45001 1.51039 0
M  V30 21551 C 2040.71 -0.345315 2.30933 0
M  V30 21552 C 2041.69 -1.00959 1.36899 0
M  V30 21553 O 2042.87 -1.0108 1.6582 0
M  V30 21554 C 2040 -1.43968 3.16055 0
M  V30 21555 C 2038.96 -0.898198 4.18469 0
M  V30 21556 C 2038.28 -2.08927 4.92193 0
M  V30 21557 C 2039.58 0.0760911 5.22245 0
M  V30 21558 H 2041.28 0.321441 2.97669 0
M  V30 21559 H 2038.82 0.156032 1.43152 0
M  V30 21560 H 2040.78 -2.00338 3.70732 0
M  V30 21561 H 2039.5 -2.1349 2.47163 0
M  V30 21562 H 2038.16 -0.356617 3.64861 0
M  V30 21563 H 2037.81 -2.77098 4.19792 0
M  V30 21564 H 2037.51 -1.73328 5.61454 0
M  V30 21565 H 2039.03 -2.65827 5.49698 0
M  V30 21566 H 2040.45 -0.397728 5.71919 0
M  V30 21567 H 2038.84 0.345281 5.99106 0
M  V30 21568 H 2039.91 1.00878 4.74291 0
M  V30 21569 N 2041.26 -1.56548 0.18182 0
M  V30 21570 C 2042.51 -1.96371 -0.460566 0
M  V30 21571 C 2042.82 -1.07099 -1.63674 0
M  V30 21572 O 2044.02 -1.36648 -2.34605 0
M  V30 21573 C 2042.48 -3.49207 -0.870777 0
M  V30 21574 C 2042.09 -4.47122 0.280378 0
M  V30 21575 C 2043.83 -3.97828 -1.48099 0
M  V30 21576 C 2041.74 -5.9121 -0.15005 0
M  V30 21577 H 2040.67 -0.73321 -0.175838 0
M  V30 21578 H 2043.32 -1.81477 0.271724 0
M  V30 21579 H 2041.7 -3.59557 -1.65935 0
M  V30 21580 H 2042.88 -4.48494 1.05781 0
M  V30 21581 H 2041.19 -4.08619 0.801227 0
M  V30 21582 H 2043.79 -5.02944 -1.81525 0
M  V30 21583 H 2044.13 -3.41369 -2.38271 0
M  V30 21584 H 2044.66 -3.90538 -0.75665 0
M  V30 21585 H 2041.4 -6.51565 0.717155 0
M  V30 21586 H 2040.92 -5.93121 -0.892621 0
M  V30 21587 H 2042.6 -6.44301 -0.590372 0
M  V30 21588 N 2042.73 0.0918577 -1.57332 0
M  V30 21589 C 2043.7 1.09546 -2.01326 0
M  V30 21590 C 2044.7 1.32761 -0.907252 0
M  V30 21591 O 2045.89 1.2882 -1.17265 0
M  V30 21592 C 2043.02 2.44385 -2.37674 0
M  V30 21593 H 2044.21 0.71671 -2.9121 0
M  V30 21594 H 2041.77 0.337001 -1.52624 0
M  V30 21595 H 2042.5 2.8713 -1.50755 0
M  V30 21596 H 2042.29 2.28882 -3.18364 0
M  V30 21597 H 2043.78 3.16562 -2.72357 0
M  V30 21598 N 2044.21 1.53368 0.362763 0
M  V30 21599 C 2045.45 1.7139 1.11376 0
M  V30 21600 C 2045.82 0.457385 1.86472 0
M  V30 21601 O 2047.02 0.514341 2.63833 0
M  V30 21602 C 2045.29 2.93093 2.04527 0
M  V30 21603 S 2046.85 3.31834 2.87109 0
M  V30 21604 H 2043.67 0.603054 0.376626 0
M  V30 21605 H 2046.27 1.91475 0.394647 0
M  V30 21606 H 2044.97 3.82737 1.48125 0
M  V30 21607 H 2044.5 2.75418 2.80906 0
M  V30 21608 H 2046.52 2.84067 4.06842 0
M  V30 21609 N 2045.69 -0.62272 1.44776 0
M  V30 21610 C 2046.92 -1.40706 1.51279 0
M  V30 21611 C 2047.33 -1.88688 0.139108 0
M  V30 21612 O 2046.67 -1.61963 -0.866823 0
M  V30 21613 C 2046.73 -2.65579 2.42298 0
M  V30 21614 C 2046.4 -2.39338 3.89315 0
M  V30 21615 C 2047.39 -2.0064 4.79624 0
M  V30 21616 C 2045.08 -2.52717 4.34096 0
M  V30 21617 C 2047.07 -1.75662 6.12716 0
M  V30 21618 C 2044.76 -2.27354 5.67233 0
M  V30 21619 C 2045.76 -1.88886 6.56362 0
M  V30 21620 O 2045.45 -1.6381 7.87033 0
M  V30 21621 H 2045.18 -0.437662 0.515197 0
M  V30 21622 H 2047.73 -0.767982 1.90503 0
M  V30 21623 H 2045.96 -3.32154 1.98017 0
M  V30 21624 H 2047.65 -3.27598 2.39655 0
M  V30 21625 H 2048.42 -1.89853 4.46297 0
M  V30 21626 H 2044.3 -2.81628 3.64975 0
M  V30 21627 H 2047.84 -1.45562 6.82244 0
M  V30 21628 H 2043.74 -2.37753 6.0012 0
M  V30 21629 H 2044.51 -1.77986 7.98914 0
M  V30 21630 N 2047.17 -1.31814 -0.863883 0
M  V30 21631 C 2048.41 -1.22028 -1.61979 0
M  V30 21632 C 2048.75 0.219661 -1.92954 0
M  V30 21633 O 2048.02 1.15428 -1.56546 0
M  V30 21634 C 2048.31 -2.0707 -2.94608 0
M  V30 21635 C 2048.16 -3.59395 -2.70473 0
M  V30 21636 C 2049.48 -1.92477 -3.95779 0
M  V30 21637 H 2046.6 -0.444641 -0.587762 0
M  V30 21638 H 2049.24 -1.61666 -0.998202 0
M  V30 21639 H 2047.39 -1.73395 -3.47659 0
M  V30 21640 H 2049.06 -4.03237 -2.24048 0
M  V30 21641 H 2047.3 -3.82521 -2.04597 0
M  V30 21642 H 2047.97 -4.14213 -3.64871 0
M  V30 21643 H 2050.45 -2.21959 -3.51957 0
M  V30 21644 H 2049.33 -2.54272 -4.86453 0
M  V30 21645 H 2049.59 -0.889783 -4.33053 0
M  V30 21646 N 2048.65 1.07897 -1.14873 0
M  V30 21647 C 2049.9 1.79765 -0.914736 0
M  V30 21648 C 2050.21 1.87416 0.559879 0
M  V30 21649 O 2051.41 2.55749 0.911294 0
M  V30 21650 C 2049.87 3.23014 -1.58713 0
M  V30 21651 C 2049.48 3.23581 -3.09837 0
M  V30 21652 C 2051.22 3.99529 -1.43446 0
M  V30 21653 C 2049.13 4.6145 -3.69889 0
M  V30 21654 H 2048.06 0.673704 -0.338585 0
M  V30 21655 H 2050.71 1.21148 -1.37824 0
M  V30 21656 H 2049.09 3.8179 -1.05131 0
M  V30 21657 H 2050.27 2.74482 -3.7013 0
M  V30 21658 H 2048.58 2.60562 -3.24802 0
M  V30 21659 H 2051.18 5.01415 -1.85708 0
M  V30 21660 H 2051.52 4.14551 -0.381226 0
M  V30 21661 H 2052.05 3.47235 -1.94094 0
M  V30 21662 H 2048.79 4.51632 -4.75088 0
M  V30 21663 H 2048.31 5.10809 -3.14378 0
M  V30 21664 H 2049.99 5.30422 -3.70488 0
M  V30 21665 N 2050.12 0.944665 1.2615 0
M  V30 21666 C 2051.35 0.610956 1.97674 0
M  V30 21667 C 2051.77 -0.814818 1.70312 0
M  V30 21668 O 2051.12 -1.54376 0.973364 0
M  V30 21669 C 2051.18 0.847912 3.51415 0
M  V30 21670 O 2050.9 2.21761 3.77827 0
M  V30 21671 C 2052.4 0.525225 4.40178 0
M  V30 21672 H 2049.62 0.229933 0.630374 0
M  V30 21673 H 2052.16 1.26632 1.60576 0
M  V30 21674 H 2050.32 0.239105 3.86661 0
M  V30 21675 H 2050.73 2.28026 4.72339 0
M  V30 21676 H 2052.2 0.741624 5.46995 0
M  V30 21677 H 2052.68 -0.539903 4.35869 0
M  V30 21678 H 2053.29 1.11291 4.10481 0
M  V30 21679 N 2051.6 -1.40596 0.712085 0
M  V30 21680 C 2052.85 -2.00553 0.249593 0
M  V30 21681 C 2053.17 -1.56736 -1.16012 0
M  V30 21682 O 2052.44 -0.805259 -1.78584 0
M  V30 21683 H 2051.02 -0.741644 0.0892885 0
M  V30 21684 H 2053.68 -1.71984 0.916933 0
M  V30 21685 H 2052.78 -3.10842 0.279939 0
M  V30 21686 N 2053.08 -0.458013 -1.50798 0
M  V30 21687 C 2054.31 0.0995379 -2.0666 0
M  V30 21688 C 2054.72 1.34662 -1.32331 0
M  V30 21689 O 2054.08 1.78311 -0.388768 0
M  V30 21690 C 2054.13 0.400901 -3.5927 0
M  V30 21691 O 2053.85 -0.796705 -4.30795 0
M  V30 21692 C 2055.35 1.00686 -4.31714 0
M  V30 21693 H 2052.57 -0.00125628 -0.670999 0
M  V30 21694 H 2055.12 -0.643041 -1.94127 0
M  V30 21695 H 2053.27 1.0934 -3.7165 0
M  V30 21696 H 2053.69 -0.533396 -5.21781 0
M  V30 21697 H 2055.16 1.16758 -5.39511 0
M  V30 21698 H 2055.64 1.99349 -3.91352 0
M  V30 21699 H 2056.24 0.353135 -4.23831 0
M  V30 21700 N 2054.56 1.56449 -0.190119 0
M  V30 21701 C 2055.78 2.02261 0.458823 0
M  V30 21702 C 2056.21 1.06942 1.54742 0
M  V30 21703 O 2055.57 0.0520711 1.81225 0
M  V30 21704 C 2055.62 3.46549 0.996786 0
M  V30 21705 O 2054.72 3.54338 2.10993 0
M  V30 21706 H 2054.06 0.655191 0.1078 0
M  V30 21707 H 2056.59 2.02396 -0.299535 0
M  V30 21708 H 2056.6 3.8624 1.31465 0
M  V30 21709 H 2055.28 4.1542 0.199852 0
M  V30 21710 H 2053.85 3.2652 1.80109 0
M  V30 21711 N 2056.04 -0.0835127 1.57379 0
M  V30 21712 C 2057 -1.08477 2.01905 0
M  V30 21713 C 2058 -1.32278 0.91428 0
M  V30 21714 O 2059.19 -1.28196 1.17947 0
M  V30 21715 C 2056.32 -2.43121 2.38967 0
M  V30 21716 H 2057.52 -0.701256 2.91586 0
M  V30 21717 H 2055.07 -0.328903 1.528 0
M  V30 21718 H 2055.8 -2.86326 1.52275 0
M  V30 21719 H 2055.59 -2.2719 3.19573 0
M  V30 21720 H 2057.08 -3.15113 2.74032 0
M  V30 21721 N 2057.52 -1.53558 -0.354624 0
M  V30 21722 C 2058.79 -1.60886 -1.11243 0
M  V30 21723 C 2059.17 -0.423192 -2.06815 0
M  V30 21724 O 2058.52 0.585579 -2.20869 0
M  V30 21725 C 2058.73 -2.96439 -1.84188 0
M  V30 21726 C 2060.08 -3.51404 -2.38329 0
M  V30 21727 O 2061.1 -2.9854 -1.94299 0
M  V30 21728 O 2059.96 -4.43843 -3.1885 0
M  V30 21729 H 2057.06 -0.650291 -0.510932 0
M  V30 21730 H 2059.6 -1.65902 -0.357007 0
M  V30 21731 H 2058.37 -3.74173 -1.145 0
M  V30 21732 H 2058 -2.94963 -2.66613 0
M  V30 21733 N 2058.99 0.615033 -1.45104 0
M  V30 21734 C 2059.92 1.73703 -1.56043 0
M  V30 21735 C 2060.9 1.65025 -0.412413 0
M  V30 21736 O 2062.09 1.83539 -0.634606 0
M  V30 21737 C 2059.22 3.12287 -1.51968 0
M  V30 21738 C 2058.17 3.35769 -2.65411 0
M  V30 21739 C 2057.5 4.74549 -2.46389 0
M  V30 21740 C 2058.8 3.26752 -4.07469 0
M  V30 21741 H 2060.49 1.64805 -2.4996 0
M  V30 21742 H 2058.04 0.791445 -1.203 0
M  V30 21743 H 2059.99 3.9057 -1.58219 0
M  V30 21744 H 2058.72 3.22008 -0.545769 0
M  V30 21745 H 2057.38 2.59874 -2.58575 0
M  V30 21746 H 2057.02 4.80994 -1.47153 0
M  V30 21747 H 2056.72 4.91217 -3.22458 0
M  V30 21748 H 2058.25 5.55041 -2.54482 0
M  V30 21749 H 2059.66 3.94918 -4.15587 0
M  V30 21750 H 2058.06 3.54952 -4.83869 0
M  V30 21751 H 2059.13 2.24305 -4.29902 0
M  V30 21752 N 2060.47 1.3227 0.85688 0
M  V30 21753 C 2061.7 1.25698 1.6434 0
M  V30 21754 C 2062.11 -0.175425 1.87983 0
M  V30 21755 O 2061.47 -1.11179 1.44726 0
M  V30 21756 C 2061.52 2.0111 3.00395 0
M  V30 21757 O 2061.24 3.38761 2.778 0
M  V30 21758 C 2062.74 2.01535 3.9484 0
M  V30 21759 H 2059.96 0.433782 0.511932 0
M  V30 21760 H 2062.51 1.74358 1.06863 0
M  V30 21761 H 2060.66 1.56178 3.54524 0
M  V30 21762 H 2061.08 3.7733 3.64311 0
M  V30 21763 H 2062.55 2.58787 4.87579 0
M  V30 21764 H 2063.03 1.00106 4.27639 0
M  V30 21765 H 2063.63 2.46404 3.46648 0
M  V30 21766 N 2061.95 -1.07287 1.15444 0
M  V30 21767 C 2063.2 -1.80162 0.931099 0
M  V30 21768 C 2063.53 -1.8653 -0.540402 0
M  V30 21769 O 2062.8 -1.34951 -1.40066 0
M  V30 21770 C 2063.09 -3.25184 1.54685 0
M  V30 21771 C 2062.94 -3.26957 3.089 0
M  V30 21772 C 2064.26 -4.2247 1.23318 0
M  V30 21773 H 2061.38 -0.654053 0.339682 0
M  V30 21774 H 2064.02 -1.25539 1.42619 0
M  V30 21775 H 2062.17 -3.7183 1.12583 0
M  V30 21776 H 2063.84 -2.88549 3.59912 0
M  V30 21777 H 2062.08 -2.65898 3.42755 0
M  V30 21778 H 2062.76 -4.29218 3.47097 0
M  V30 21779 H 2065.23 -3.84218 1.59737 0
M  V30 21780 H 2064.11 -5.2223 1.69018 0
M  V30 21781 H 2064.37 -4.41844 0.150314 0
M  V30 21782 N 2063.43 -0.951342 -1.25647 0
M  V30 21783 C 2064.34 -0.475416 -2.29732 0
M  V30 21784 C 2065.35 0.455617 -1.67929 0
M  V30 21785 O 2066.53 0.332666 -1.98634 0
M  V30 21786 C 2063.59 0.242274 -3.45852 0
M  V30 21787 C 2062.66 -0.726566 -4.23107 0
M  V30 21788 C 2061.89 -0.043031 -5.33683 0
M  V30 21789 O 2062.11 1.17196 -5.5823 0
M  V30 21790 O 2061.05 -0.726899 -5.97495 0
M  V30 21791 H 2064.87 -1.34027 -2.72526 0
M  V30 21792 H 2062.46 -0.717655 -1.31035 0
M  V30 21793 H 2064.34 0.646132 -4.16417 0
M  V30 21794 H 2063.01 1.08236 -3.05068 0
M  V30 21795 H 2061.92 -1.18057 -3.54984 0
M  V30 21796 H 2063.25 -1.53457 -4.67666 0
M  V30 21797 N 2064.91 1.40216 -0.719531 0
M  V30 21798 C 2065.85 2.30695 -0.0695046 0
M  V30 21799 C 2066.82 1.48398 0.746138 0
M  V30 21800 O 2068.01 1.77127 0.709277 0
M  V30 21801 C 2065.15 3.34636 0.843357 0
M  V30 21802 C 2064.26 4.31997 0.0167651 0
M  V30 21803 C 2063.4 5.23005 0.929469 0
M  V30 21804 C 2062.43 6.12023 0.0972024 0
M  V30 21805 N 2061.57 6.95437 0.964997 0
M  V30 21806 H 2066.41 2.85716 -0.846765 0
M  V30 21807 H 2063.95 1.40698 -0.429253 0
M  V30 21808 H 2065.91 3.93473 1.38691 0
M  V30 21809 H 2064.54 2.81108 1.58676 0
M  V30 21810 H 2063.59 3.74909 -0.644016 0
M  V30 21811 H 2064.9 4.94838 -0.627416 0
M  V30 21812 H 2064.05 5.86792 1.54141 0
M  V30 21813 H 2062.79 4.60447 1.60746 0
M  V30 21814 H 2061.8 5.47262 -0.52765 0
M  V30 21815 H 2063.02 6.76641 -0.577347 0
M  V30 21816 H 2060.97 6.35463 1.62857 0
M  V30 21817 H 2060.89 7.5506 0.376943 0
M  V30 21818 H 2062.15 7.63669 1.56299 0
M  V30 21819 N 2066.38 0.466004 1.50553 0
M  V30 21820 C 2067.35 -0.319434 2.26963 0
M  V30 21821 C 2068.35 -0.92489 1.31539 0
M  V30 21822 O 2069.54 -0.794862 1.55008 0
M  V30 21823 C 2066.67 -1.45457 3.0831 0
M  V30 21824 H 2067.86 0.350606 2.97844 0
M  V30 21825 H 2065.41 0.219925 1.54745 0
M  V30 21826 H 2066.15 -2.15982 2.41914 0
M  V30 21827 H 2065.93 -1.02628 3.78431 0
M  V30 21828 H 2067.42 -2.00876 3.66113 0
M  V30 21829 N 2067.86 -1.56346 0.198413 0
M  V30 21830 C 2068.82 -2.1801 -0.707414 0
M  V30 21831 C 2069.82 -1.13547 -1.13858 0
M  V30 21832 O 2071.01 -1.38913 -1.05114 0
M  V30 21833 C 2068.15 -2.78484 -1.96621 0
M  V30 21834 H 2069.34 -2.99417 -0.170156 0
M  V30 21835 H 2066.89 -1.56216 -0.0512075 0
M  V30 21836 H 2067.63 -2.00884 -2.5459 0
M  V30 21837 H 2067.41 -3.54959 -1.66574 0
M  V30 21838 H 2068.9 -3.25823 -2.61207 0
M  V30 21839 N 2069.34 0.0751653 -1.57421 0
M  V30 21840 C 2070.62 0.807768 -1.78142 0
M  V30 21841 C 2071 1.95956 -0.785139 0
M  V30 21842 O 2070.35 2.27771 0.182413 0
M  V30 21843 C 2070.56 1.28385 -3.24528 0
M  V30 21844 C 2071.9 1.71859 -3.88265 0
M  V30 21845 O 2072.93 1.3796 -3.28398 0
M  V30 21846 O 2071.79 2.3461 -4.93579 0
M  V30 21847 H 2068.88 0.386806 -0.730965 0
M  V30 21848 H 2071.43 0.0555021 -1.69609 0
M  V30 21849 H 2070.2 0.459543 -3.88592 0
M  V30 21850 H 2069.82 2.09753 -3.37771 0
M  V30 21851 N 2070.82 1.53744 0.346476 0
M  V30 21852 C 2072.06 1.71103 1.08866 0
M  V30 21853 C 2072.4 0.47131 1.88394 0
M  V30 21854 O 2071.67 -0.531638 1.87093 0
M  V30 21855 C 2071.96 2.97273 2.03225 0
M  V30 21856 C 2071.81 4.31446 1.27179 0
M  V30 21857 C 2073.13 3.19105 3.03084 0
M  V30 21858 H 2070.25 0.622598 0.394387 0
M  V30 21859 H 2072.89 1.86412 0.367514 0
M  V30 21860 H 2071.04 2.84352 2.64719 0
M  V30 21861 H 2072.71 4.56212 0.683225 0
M  V30 21862 H 2070.95 4.29989 0.573773 0
M  V30 21863 H 2071.62 5.15901 1.96343 0
M  V30 21864 H 2074.1 3.31337 2.51704 0
M  V30 21865 H 2072.98 4.08786 3.66313 0
M  V30 21866 H 2073.24 2.35265 3.74303 0
M  V30 21867 N 2072.3 -0.607329 1.45428 0
M  V30 21868 C 2073.52 -1.39296 1.52984 0
M  V30 21869 C 2073.94 -1.88099 0.162539 0
M  V30 21870 O 2073.3 -1.62229 -0.835945 0
M  V30 21871 C 2073.35 -2.59727 2.51444 0
M  V30 21872 O 2073.07 -2.12952 3.82862 0
M  V30 21873 C 2074.57 -3.52583 2.68701 0
M  V30 21874 H 2071.79 -0.426391 0.518104 0
M  V30 21875 H 2074.33 -0.740646 1.90617 0
M  V30 21876 H 2072.49 -3.20999 2.16883 0
M  V30 21877 H 2072.9 -2.91201 4.36237 0
M  V30 21878 H 2074.38 -4.33629 3.4157 0
M  V30 21879 H 2074.85 -4.0294 1.74746 0
M  V30 21880 H 2075.46 -2.97163 3.0426 0
M  V30 21881 N 2073.77 -1.32722 -0.849853 0
M  V30 21882 C 2075.02 -1.24749 -1.60653 0
M  V30 21883 C 2075.38 0.187765 -1.91482 0
M  V30 21884 O 2074.67 1.12686 -1.54959 0
M  V30 21885 C 2074.86 -2.04524 -2.93095 0
M  V30 21886 C 2074.69 -3.55661 -2.75201 0
M  V30 21887 C 2073.46 -4.24991 -2.73332 0
M  V30 21888 C 2075.66 -4.50216 -2.48616 0
M  V30 21889 N 2073.64 -5.6215 -2.46699 0
M  V30 21890 C 2075.01 -5.75185 -2.31434 0
M  V30 21891 C 2077.07 -4.39421 -2.34124 0
M  V30 21892 C 2075.77 -6.90579 -2.0123 0
M  V30 21893 C 2077.8 -5.54618 -2.05311 0
M  V30 21894 C 2077.16 -6.7859 -1.88933 0
M  V30 21895 H 2073.26 -0.511661 -0.591377 0
M  V30 21896 H 2075.84 -1.67142 -0.998588 0
M  V30 21897 H 2074.01 -1.64469 -3.51859 0
M  V30 21898 H 2075.74 -1.88407 -3.58169 0
M  V30 21899 H 2072.5 -3.77156 -2.86444 0
M  V30 21900 H 2072.92 -6.34423 -2.36298 0
M  V30 21901 H 2077.57 -3.4422 -2.45504 0
M  V30 21902 H 2075.28 -7.85787 -1.88587 0
M  V30 21903 H 2078.87 -5.48195 -1.94869 0
M  V30 21904 H 2077.75 -7.66221 -1.66957 0
M  V30 21905 N 2075.25 1.06673 -1.16011 0
M  V30 21906 C 2076.16 2.17576 -0.877386 0
M  V30 21907 C 2077.18 1.73362 0.148919 0
M  V30 21908 O 2078.35 2.01382 -0.0268051 0
M  V30 21909 C 2075.42 3.44631 -0.378223 0
M  V30 21910 C 2074.48 4.03374 -1.46928 0
M  V30 21911 C 2073.71 5.24365 -0.993837 0
M  V30 21912 O 2073.94 5.70181 0.157925 0
M  V30 21913 O 2072.87 5.74962 -1.78052 0
M  V30 21914 H 2076.7 2.44264 -1.80468 0
M  V30 21915 H 2074.28 1.1614 -0.939777 0
M  V30 21916 H 2076.16 4.21265 -0.106644 0
M  V30 21917 H 2074.84 3.19478 0.521114 0
M  V30 21918 H 2073.75 3.28248 -1.79455 0
M  V30 21919 H 2075.08 4.32814 -2.34378 0
M  V30 21920 N 2076.73 0.957992 1.25141 0
M  V30 21921 C 2077.64 0.487592 2.29477 0
M  V30 21922 C 2078.66 -0.446704 1.68168 0
M  V30 21923 O 2079.83 -0.322127 1.98807 0
M  V30 21924 C 2076.9 -0.22393 3.45976 0
M  V30 21925 C 2075.96 0.748994 4.22716 0
M  V30 21926 C 2075.19 0.0713329 5.33652 0
M  V30 21927 O 2075.41 -1.14234 5.58844 0
M  V30 21928 O 2074.35 0.758575 5.97101 0
M  V30 21929 H 2078.17 1.35471 2.71811 0
M  V30 21930 H 2075.76 0.724594 1.30652 0
M  V30 21931 H 2077.64 -0.624039 4.16754 0
M  V30 21932 H 2076.32 -1.06616 3.05638 0
M  V30 21933 H 2075.22 1.19938 3.54353 0
M  V30 21934 H 2076.56 1.55935 4.66846 0
M  V30 21935 N 2078.21 -1.39832 0.726957 0
M  V30 21936 C 2079.12 -2.34453 0.0830837 0
M  V30 21937 C 2080.13 -1.579 -0.731009 0
M  V30 21938 O 2081.31 -1.90232 -0.661338 0
M  V30 21939 C 2078.38 -3.3688 -0.819324 0
M  V30 21940 C 2077.44 -4.293 0.00610659 0
M  V30 21941 C 2076.67 -5.26834 -0.853324 0
M  V30 21942 O 2076.89 -5.30641 -2.09228 0
M  V30 21943 O 2075.83 -6.01219 -0.286261 0
M  V30 21944 H 2079.65 -2.91155 0.863845 0
M  V30 21945 H 2077.24 -1.41221 0.487543 0
M  V30 21946 H 2079.12 -3.99665 -1.33589 0
M  V30 21947 H 2077.79 -2.82574 -1.57904 0
M  V30 21948 H 2076.7 -3.69763 0.568007 0
M  V30 21949 H 2078.03 -4.86789 0.727856 0
M  V30 21950 N 2079.69 -0.473982 -1.50304 0
M  V30 21951 C 2080.65 0.307394 -2.27129 0
M  V30 21952 C 2081.65 0.917901 -1.32027 0
M  V30 21953 O 2082.84 0.78663 -1.55428 0
M  V30 21954 C 2079.97 1.4382 -3.09077 0
M  V30 21955 H 2081.16 -0.366396 -2.97653 0
M  V30 21956 H 2078.72 -0.228128 -1.54626 0
M  V30 21957 H 2079.45 2.14696 -2.43056 0
M  V30 21958 H 2079.24 1.0062 -3.7897 0
M  V30 21959 H 2080.73 1.98932 -3.67173 0
M  V30 21960 N 2081.16 1.56239 -0.206702 0
M  V30 21961 C 2082.07 2.2324 0.721172 0
M  V30 21962 C 2083.09 1.2352 1.22552 0
M  V30 21963 O 2084.27 1.56291 1.27025 0
M  V30 21964 C 2081.33 2.88767 1.91871 0
M  V30 21965 C 2080.39 4.03791 1.45779 0
M  V30 21966 C 2079.63 4.66183 2.59825 0
M  V30 21967 O 2079.85 4.27524 3.77597 0
M  V30 21968 O 2078.78 5.55444 2.31874 0
M  V30 21969 H 2082.61 3.03163 0.180488 0
M  V30 21970 H 2080.19 1.49382 0.0231036 0
M  V30 21971 H 2082.08 3.30181 2.61837 0
M  V30 21972 H 2080.75 2.11815 2.44777 0
M  V30 21973 H 2079.66 3.66976 0.726587 0
M  V30 21974 H 2080.99 4.82441 0.975269 0
M  V30 21975 N 2082.64 -0.0668159 1.57458 0
M  V30 21976 C 2083.57 -1.10569 2.00766 0
M  V30 21977 C 2084.59 -1.34696 0.914378 0
M  V30 21978 O 2085.78 -1.32848 1.19221 0
M  V30 21979 C 2082.88 -2.45556 2.33571 0
M  V30 21980 C 2082.05 -2.41316 3.64808 0
M  V30 21981 C 2081.11 -3.58451 3.85227 0
M  V30 21982 O 2080.13 -3.39654 4.56754 0
M  V30 21983 N 2081.34 -4.7898 3.27961 0
M  V30 21984 H 2084.1 -0.736847 2.90501 0
M  V30 21985 H 2081.66 -0.255392 1.59873 0
M  V30 21986 H 2083.65 -3.2257 2.44399 0
M  V30 21987 H 2082.22 -2.74424 1.497 0
M  V30 21988 H 2081.44 -1.49655 3.64688 0
M  V30 21989 H 2082.73 -2.35589 4.50972 0
M  V30 21990 H 2082.13 -4.97155 2.69913 0
M  V30 21991 H 2080.69 -5.53488 3.4423 0
M  V30 21992 N 2084.12 -1.53926 -0.338317 0
M  V30 21993 C 2085.35 -1.75368 -1.09789 0
M  V30 21994 C 2085.76 -0.495294 -1.82187 0
M  V30 21995 O 2085.12 0.533316 -1.74534 0
M  V30 21996 C 2085.17 -2.93722 -2.10736 0
M  V30 21997 O 2084.89 -4.14695 -1.4128 0
M  V30 21998 C 2086.39 -3.27258 -2.99027 0
M  V30 21999 H 2083.61 -0.585824 -0.327188 0
M  V30 22000 H 2086.16 -2.00767 -0.388932 0
M  V30 22001 H 2084.31 -2.70639 -2.77188 0
M  V30 22002 H 2084.73 -4.81165 -2.08759 0
M  V30 22003 H 2086.2 -4.13409 -3.65783 0
M  V30 22004 H 2086.68 -2.43786 -3.65329 0
M  V30 22005 H 2087.28 -3.52366 -2.38156 0
M  V30 22006 N 2085.6 0.599608 -1.45748 0
M  V30 22007 C 2086.85 1.3557 -1.49884 0
M  V30 22008 C 2087.17 1.94459 -0.145141 0
M  V30 22009 O 2086.44 1.77615 0.82643 0
M  V30 22010 H 2085.02 0.503305 -0.551991 0
M  V30 22011 H 2087.68 0.703509 -1.8176 0
M  V30 22012 H 2086.78 2.17106 -2.24213 0
M  V30 22013 N 2087.08 1.33171 0.842803 0
M  V30 22014 C 2088.32 1.24589 1.60017 0
M  V30 22015 C 2088.66 -0.188935 1.93279 0
M  V30 22016 O 2087.93 -1.12923 1.58362 0
M  V30 22017 C 2088.21 2.11731 2.91277 0
M  V30 22018 C 2088.07 3.63652 2.64721 0
M  V30 22019 C 2089.39 1.98749 3.92666 0
M  V30 22020 H 2086.51 0.453935 0.580613 0
M  V30 22021 H 2089.15 1.63234 0.972356 0
M  V30 22022 H 2087.3 1.78904 3.44856 0
M  V30 22023 H 2088.97 4.06751 2.17604 0
M  V30 22024 H 2087.21 3.85728 1.98486 0
M  V30 22025 H 2087.88 4.19966 3.58236 0
M  V30 22026 H 2090.36 2.2753 3.48381 0
M  V30 22027 H 2089.24 2.61979 4.82347 0
M  V30 22028 H 2089.5 0.958565 4.31583 0
M  V30 22029 N 2088.56 -1.06056 1.16576 0
M  V30 22030 C 2089.78 -1.83131 0.973539 0
M  V30 22031 C 2090.21 -1.82047 -0.473358 0
M  V30 22032 O 2089.56 -1.22303 -1.33834 0
M  V30 22033 C 2089.61 -3.2753 1.50852 0
M  V30 22034 O 2088.72 -4.06129 0.716451 0
M  V30 22035 H 2088.06 -0.566557 0.346279 0
M  V30 22036 H 2090.59 -1.33704 1.54869 0
M  V30 22037 H 2090.6 -3.78346 1.52704 0
M  V30 22038 H 2089.27 -3.27634 2.56181 0
M  V30 22039 H 2087.85 -3.64892 0.768639 0
M  V30 22040 N 2090.03 -0.964615 -1.24631 0
M  V30 22041 C 2090.98 -0.463395 -2.23241 0
M  V30 22042 C 2091.97 0.452893 -1.54395 0
M  V30 22043 O 2093.16 0.284318 -1.74702 0
M  V30 22044 C 2090.29 0.248095 -3.42402 0
M  V30 22045 C 2089.37 -0.686842 -4.18501 0
M  V30 22046 N 2089.77 -1.82277 -4.71814 0
M  V30 22047 C 2088.06 -0.497011 -4.43222 0
M  V30 22048 C 2088.76 -2.40731 -5.2955 0
M  V30 22049 N 2087.74 -1.69279 -5.16571 0
M  V30 22050 H 2091.54 -1.33017 -2.62076 0
M  V30 22051 H 2089.06 -0.823324 -1.39983 0
M  V30 22052 H 2091.05 0.62437 -4.12198 0
M  V30 22053 H 2089.71 1.11135 -3.05089 0
M  V30 22054 H 2090.72 -2.20439 -4.68644 0
M  V30 22055 H 2087.4 0.322534 -4.16252 0
M  V30 22056 H 2088.79 -3.36573 -5.81522 0
M  V30 22057 N 2091.51 1.39445 -0.734362 0
M  V30 22058 C 2092.46 2.32452 -0.0830804 0
M  V30 22059 C 2093.45 1.53028 0.726556 0
M  V30 22060 O 2094.66 1.68697 0.627813 0
M  V30 22061 H 2091.03 0.751957 -0.00806559 0
M  V30 22062 H 2093.01 2.85008 -0.883901 0
M  V30 22063 C 2091.75 3.38121 0.810522 0
M  V30 22064 H 2091.08 3.99315 0.196919 0
M  V30 22065 H 2092.52 4.0565 1.23385 0
M  V30 22066 C 2090.98 2.75118 1.94453 0
M  V30 22067 O 2091.51 2.62913 3.0371 0
M  V30 22068 N 2089.71 2.33215 1.73376 0
M  V30 22069 H 2089.26 2.43341 0.845144 0
M  V30 22070 H 2089.22 1.914 2.49426 0
M  V30 22071 N 2092.99 0.481946 1.5005 0
M  V30 22072 C 2093.92 -0.296253 2.31613 0
M  V30 22073 C 2094.9 -0.98032 1.3901 0
M  V30 22074 O 2096.09 -0.975402 1.67927 0
M  V30 22075 C 2093.22 -1.37231 3.19037 0
M  V30 22076 C 2092.17 -0.809232 4.2028 0
M  V30 22077 C 2091.5 -1.98439 4.96514 0
M  V30 22078 C 2092.8 0.18685 5.21966 0
M  V30 22079 H 2094.49 0.384509 2.96921 0
M  V30 22080 H 2092.04 0.186362 1.42789 0
M  V30 22081 H 2093.99 -1.92429 3.74899 0
M  V30 22082 H 2092.71 -2.082 2.51636 0
M  V30 22083 H 2091.37 -0.279145 3.65536 0
M  V30 22084 H 2091.02 -2.68131 4.25576 0
M  V30 22085 H 2090.72 -1.6138 5.65005 0
M  V30 22086 H 2092.24 -2.54107 5.55213 0
M  V30 22087 H 2093.66 -0.276326 5.72634 0
M  V30 22088 H 2092.05 0.472282 5.98239 0
M  V30 22089 H 2093.12 1.10915 4.72044 0
M  V30 22090 N 2094.47 -1.56127 0.214985 0
M  V30 22091 C 2095.4 -2.15949 -0.737656 0
M  V30 22092 C 2096.38 -1.10195 -1.19566 0
M  V30 22093 O 2097.56 -1.38416 -1.27959 0
M  V30 22094 C 2094.69 -2.73447 -1.99861 0
M  V30 22095 C 2093.74 -3.9197 -1.68112 0
M  V30 22096 S 2094.57 -5.29313 -0.811685 0
M  V30 22097 C 2095.72 -5.90245 -2.08235 0
M  V30 22098 H 2095.96 -2.96415 -0.229174 0
M  V30 22099 H 2093.49 -1.544 -0.000249549 0
M  V30 22100 H 2095.45 -3.07215 -2.72267 0
M  V30 22101 H 2094.11 -1.92985 -2.47821 0
M  V30 22102 H 2093.3 -4.3068 -2.61783 0
M  V30 22103 H 2092.9 -3.59314 -1.03774 0
M  V30 22104 H 2095.2 -6.05819 -3.03299 0
M  V30 22105 H 2096.14 -6.86408 -1.73925 0
M  V30 22106 H 2096.55 -5.1902 -2.21989 0
M  V30 22107 N 2095.95 0.0584645 -1.57492 0
M  V30 22108 C 2097.19 0.75396 -1.87078 0
M  V30 22109 C 2097.51 1.78063 -0.809512 0
M  V30 22110 O 2098.71 2.52664 -0.993649 0
M  V30 22111 C 2097.17 1.39192 -3.31894 0
M  V30 22112 C 2096.78 0.403126 -4.46183 0
M  V30 22113 C 2098.52 2.069 -3.70665 0
M  V30 22114 C 2096.43 1.04775 -5.82045 0
M  V30 22115 H 2095.36 0.28534 -0.697923 0
M  V30 22116 H 2098.01 0.0075332 -1.83498 0
M  V30 22117 H 2096.39 2.18706 -3.30127 0
M  V30 22118 H 2097.57 -0.36317 -4.59367 0
M  V30 22119 H 2095.88 -0.170238 -4.16052 0
M  V30 22120 H 2098.48 2.55929 -4.69473 0
M  V30 22121 H 2098.82 2.87433 -3.01145 0
M  V30 22122 H 2099.35 1.342 -3.7448 0
M  V30 22123 H 2096.09 0.282468 -6.54891 0
M  V30 22124 H 2095.61 1.78459 -5.72636 0
M  V30 22125 H 2097.29 1.56372 -6.27819 0
M  V30 22126 N 2097.42 1.54103 0.330149 0
M  V30 22127 C 2098.65 1.75948 1.08857 0
M  V30 22128 C 2099.07 0.504949 1.81922 0
M  V30 22129 O 2098.42 -0.524053 1.74814 0
M  V30 22130 C 2098.47 2.94836 2.09175 0
M  V30 22131 O 2098.2 4.15438 1.39079 0
M  V30 22132 C 2099.7 3.28839 2.97287 0
M  V30 22133 H 2096.92 0.587551 0.324076 0
M  V30 22134 H 2099.46 2.00971 0.378279 0
M  V30 22135 H 2097.62 2.72105 2.75749 0
M  V30 22136 H 2098.03 4.82266 2.06204 0
M  V30 22137 H 2099.5 4.15343 3.63586 0
M  V30 22138 H 2099.98 2.4572 3.64031 0
M  V30 22139 H 2100.59 3.53624 2.36284 0
M  V30 22140 N 2098.9 -0.59187 1.46064 0
M  V30 22141 C 2100.15 -1.3524 1.51122 0
M  V30 22142 C 2100.48 -1.93551 0.158686 0
M  V30 22143 O 2099.76 -1.75958 -0.828798 0
M  V30 22144 C 2100.04 -2.48861 2.6027 0
M  V30 22145 C 2099.89 -1.95645 4.05023 0
M  V30 22146 C 2101.21 -3.50941 2.65572 0
M  V30 22147 H 2098.33 -0.49038 0.550179 0
M  V30 22148 H 2100.97 -0.66575 1.77954 0
M  V30 22149 H 2099.12 -3.07434 2.37521 0
M  V30 22150 H 2100.79 -1.41599 4.3903 0
M  V30 22151 H 2099.04 -1.26535 4.14935 0
M  V30 22152 H 2099.71 -2.77621 4.77107 0
M  V30 22153 H 2102.18 -3.02233 2.85997 0
M  V30 22154 H 2101.06 -4.27911 3.43779 0
M  V30 22155 H 2101.32 -4.07578 1.71267 0
M  V30 22156 N 2100.38 -1.33616 -0.835729 0
M  V30 22157 C 2101.66 -1.15846 -1.57604 0
M  V30 22158 C 2102.04 0.273951 -2.09315 0
M  V30 22159 O 2101.39 1.27345 -1.89725 0
M  V30 22160 C 2101.6 -2.20224 -2.70744 0
M  V30 22161 C 2102.94 -2.54542 -3.39843 0
M  V30 22162 O 2103.97 -2.18915 -2.80989 0
M  V30 22163 O 2102.83 -3.15692 -4.46095 0
M  V30 22164 H 2099.92 -0.448265 -0.694973 0
M  V30 22165 H 2102.47 -1.45209 -0.878211 0
M  V30 22166 H 2101.24 -3.16426 -2.30196 0
M  V30 22167 H 2100.86 -1.91965 -3.48188 0
M  V30 22168 N 2101.86 1.05436 -1.17136 0
M  V30 22169 C 2103.14 1.75275 -0.868216 0
M  V30 22170 C 2103.52 2.01415 0.632074 0
M  V30 22171 O 2102.86 1.64823 1.58258 0
M  V30 22172 C 2103.07 3.04772 -1.70044 0
M  V30 22173 C 2104.42 3.78768 -1.91885 0
M  V30 22174 O 2105.45 3.14636 -1.66982 0
M  V30 22175 O 2104.3 4.94 -2.33723 0
M  V30 22176 H 2101.4 0.762066 -0.321223 0
M  V30 22177 H 2103.94 1.11627 -1.27818 0
M  V30 22178 H 2102.72 2.81485 -2.71812 0
M  V30 22179 H 2102.34 3.76157 -1.28808 0
M  V30 22180 N 2103.34 0.971211 1.24118 0
M  V30 22181 C 2104.61 0.551769 1.87656 0
M  V30 22182 C 2104.99 -0.97112 1.87437 0
M  V30 22183 O 2104.34 -1.84396 1.34946 0
M  V30 22184 C 2104.55 1.14731 3.29602 0
M  V30 22185 C 2105.9 1.23437 4.06262 0
M  V30 22186 O 2106.92 1.10009 3.38787 0
M  V30 22187 O 2105.78 1.44701 5.26995 0
M  V30 22188 H 2102.88 0.184487 0.80616 0
M  V30 22189 H 2105.42 1.06571 1.32064 0
M  V30 22190 H 2104.19 2.18994 3.2428 0
M  V30 22191 H 2103.82 0.617636 3.92773 0
M  V30 22192 N 2104.81 -1.39054 0.741747 0
M  V30 22193 C 2106.06 -1.99978 0.292077 0
M  V30 22194 C 2106.38 -1.59162 -1.12662 0
M  V30 22195 O 2105.65 -0.842958 -1.76836 0
M  V30 22196 H 2104.23 -0.739584 0.105 0
M  V30 22197 H 2106.9 -1.7 0.953207 0
M  V30 22198 H 2105.99 -3.10178 0.34581 0
M  V30 22199 N 2106.29 -0.489897 -1.49792 0
M  V30 22200 C 2107.52 0.0556798 -2.06825 0
M  V30 22201 C 2107.94 1.31825 -1.35158 0
M  V30 22202 O 2107.29 1.77446 -0.426503 0
M  V30 22203 C 2107.34 0.324604 -3.6004 0
M  V30 22204 O 2107.06 -0.887904 -4.29008 0
M  V30 22205 C 2108.57 0.91506 -4.33753 0
M  V30 22206 H 2105.79 -0.0154889 -0.670821 0
M  V30 22207 H 2108.33 -0.684073 -1.92719 0
M  V30 22208 H 2106.48 1.01432 -3.73885 0
M  V30 22209 H 2106.9 -0.643954 -5.20532 0
M  V30 22210 H 2108.37 1.05288 -5.41866 0
M  V30 22211 H 2108.85 1.91003 -3.95493 0
M  V30 22212 H 2109.46 0.263155 -4.24485 0
M  V30 22213 N 2107.77 1.56011 -0.223262 0
M  V30 22214 C 2108.7 2.16337 0.726193 0
M  V30 22215 C 2109.68 1.10827 1.18979 0
M  V30 22216 O 2110.87 1.39092 1.27223 0
M  V30 22217 C 2107.99 2.74503 1.98408 0
M  V30 22218 C 2107.04 3.92856 1.66031 0
M  V30 22219 S 2107.87 5.29736 0.783603 0
M  V30 22220 C 2109.03 5.91341 2.05102 0
M  V30 22221 H 2109.26 2.96533 0.213451 0
M  V30 22222 H 2106.79 1.54398 -0.00793866 0
M  V30 22223 H 2108.75 3.08655 2.70634 0
M  V30 22224 H 2107.41 1.94297 2.46794 0
M  V30 22225 H 2106.61 4.32063 2.59495 0
M  V30 22226 H 2106.21 3.5986 1.01867 0
M  V30 22227 H 2108.5 6.07419 3.00082 0
M  V30 22228 H 2109.44 6.87321 1.70283 0
M  V30 22229 H 2109.85 5.2019 2.19233 0
M  V30 22230 N 2109.25 -0.0501116 1.5752 0
M  V30 22231 C 2110.66 -0.405366 1.54366 0
M  V30 22232 C 2110.86 -1.77885 0.946523 0
M  V30 22233 O 2109.92 -2.46248 0.558406 0
M  V30 22234 C 2111.23 -0.326523 2.98922 0
M  V30 22235 C 2112.78 -0.40514 3.10367 0
M  V30 22236 C 2113.26 -0.355974 4.56615 0
M  V30 22237 N 2114.75 -0.415404 4.61334 0
M  V30 22238 C 2115.48 -0.39992 5.72004 0
M  V30 22239 N 2114.98 -0.337966 6.91975 0
M  V30 22240 N 2116.77 -0.448091 5.60311 0
M  V30 22241 H 2108.92 0.848979 1.94695 0
M  V30 22242 H 2111.19 0.320787 0.892076 0
M  V30 22243 H 2110.89 0.616487 3.46255 0
M  V30 22244 H 2110.77 -1.12839 3.59927 0
M  V30 22245 H 2113.15 -1.33858 2.62995 0
M  V30 22246 H 2113.23 0.425702 2.52233 0
M  V30 22247 H 2112.88 0.573705 5.04649 0
M  V30 22248 H 2112.81 -1.20464 5.12636 0
M  V30 22249 H 2115.3 -0.466654 3.75008 0
M  V30 22250 H 2115.61 -0.330673 7.72092 0
M  V30 22251 H 2113.96 -0.304327 6.94333 0
M  V30 22252 H 2117.15 -0.494336 4.65482 0
M  V30 22253 H 2117.32 -0.432555 6.46555 0
M  V30 22254 N 2110.73 -1.54276 -0.321972 0
M  V30 22255 C 2111.98 -1.7177 -1.05726 0
M  V30 22256 C 2112.29 -0.499164 -1.89124 0
M  V30 22257 O 2113.49 -0.555477 -2.65757 0
M  V30 22258 C 2111.95 -3.03824 -1.92923 0
M  V30 22259 C 2111.56 -4.33087 -1.14629 0
M  V30 22260 C 2113.3 -3.30681 -2.66178 0
M  V30 22261 C 2111.21 -5.56202 -2.00981 0
M  V30 22262 H 2110.14 -0.64013 -0.398433 0
M  V30 22263 H 2112.79 -1.80769 -0.315414 0
M  V30 22264 H 2111.17 -2.88736 -2.71012 0
M  V30 22265 H 2112.35 -4.58946 -0.412993 0
M  V30 22266 H 2110.66 -4.13007 -0.530488 0
M  V30 22267 H 2113.26 -4.19857 -3.31096 0
M  V30 22268 H 2113.6 -2.48629 -3.339 0
M  V30 22269 H 2114.13 -3.46643 -1.95149 0
M  V30 22270 H 2110.87 -6.4086 -1.37764 0
M  V30 22271 H 2110.39 -5.3456 -2.7204 0
M  V30 22272 H 2112.07 -5.92667 -2.59528 0
M  V30 22273 N 2112.2 0.584116 -1.46376 0
M  V30 22274 C 2113.15 1.69328 -1.56833 0
M  V30 22275 C 2114.12 1.60891 -0.412719 0
M  V30 22276 O 2115.31 1.80124 -0.629286 0
M  V30 22277 C 2112.45 3.07663 -1.56324 0
M  V30 22278 C 2111.56 3.26736 -2.82609 0
M  V30 22279 C 2110.69 4.55312 -2.73613 0
M  V30 22280 C 2109.73 4.67723 -3.94844 0
M  V30 22281 N 2108.87 5.87624 -3.84243 0
M  V30 22282 H 2113.71 1.59727 -2.51577 0
M  V30 22283 H 2111.25 0.778493 -1.24811 0
M  V30 22284 H 2113.21 3.87731 -1.54014 0
M  V30 22285 H 2111.84 3.16165 -0.651131 0
M  V30 22286 H 2110.89 2.40283 -2.94904 0
M  V30 22287 H 2112.2 3.31775 -3.72461 0
M  V30 22288 H 2111.35 5.43606 -2.69401 0
M  V30 22289 H 2110.09 4.52709 -1.81399 0
M  V30 22290 H 2109.1 3.77847 -3.99389 0
M  V30 22291 H 2110.32 4.72106 -4.88152 0
M  V30 22292 H 2108.27 5.86021 -2.94814 0
M  V30 22293 H 2108.19 5.93925 -4.67749 0
M  V30 22294 H 2109.45 6.78352 -3.84003 0
M  V30 22295 N 2113.68 1.34058 0.828631 0
M  V30 22296 C 2114.96 1.1668 1.56988 0
M  V30 22297 C 2115.34 -0.262846 2.09457 0
M  V30 22298 O 2114.69 -1.26337 1.90398 0
M  V30 22299 C 2114.9 2.21657 2.69572 0
M  V30 22300 C 2116.25 2.56341 3.38489 0
M  V30 22301 O 2117.27 2.20402 2.79824 0
M  V30 22302 O 2116.13 3.18053 4.44415 0
M  V30 22303 H 2113.22 0.451944 0.692586 0
M  V30 22304 H 2115.77 1.45672 0.870498 0
M  V30 22305 H 2114.54 3.17643 2.28515 0
M  V30 22306 H 2114.16 1.93809 3.47166 0
M  V30 22307 N 2115.16 -1.04814 1.17694 0
M  V30 22308 C 2116.44 -1.74812 0.877499 0
M  V30 22309 C 2116.82 -2.01747 -0.621383 0
M  V30 22310 O 2116.17 -1.6566 -1.57382 0
M  V30 22311 C 2116.38 -3.03866 1.71658 0
M  V30 22312 C 2117.72 -3.77745 1.93891 0
M  V30 22313 O 2118.75 -3.13746 1.68648 0
M  V30 22314 O 2117.61 -4.92753 2.3634 0
M  V30 22315 H 2114.7 -0.760352 0.32526 0
M  V30 22316 H 2117.25 -1.10947 1.28409 0
M  V30 22317 H 2116.02 -2.8004 2.73301 0
M  V30 22318 H 2115.64 -3.75469 1.30801 0
M  V30 22319 N 2116.64 -0.977779 -1.23601 0
M  V30 22320 C 2117.55 -0.524039 -2.28672 0
M  V30 22321 C 2118.57 0.419894 -1.68858 0
M  V30 22322 O 2119.74 0.290458 -1.99295 0
M  V30 22323 C 2116.81 0.16886 -3.46289 0
M  V30 22324 C 2115.87 -0.81615 -4.21471 0
M  V30 22325 C 2115.1 -0.156223 -5.33471 0
M  V30 22326 O 2115.32 1.05329 -5.60591 0
M  V30 22327 O 2114.26 -0.853473 -5.95818 0
M  V30 22328 H 2118.08 -1.39778 -2.69622 0
M  V30 22329 H 2115.67 -0.745288 -1.29483 0
M  V30 22330 H 2117.55 0.557659 -4.17694 0
M  V30 22331 H 2116.23 1.0174 -3.07296 0
M  V30 22332 H 2115.13 -1.2556 -3.524 0
M  V30 22333 H 2116.47 -1.63342 -4.64306 0
M  V30 22334 N 2118.12 1.38658 -0.749111 0
M  V30 22335 C 2119.35 2.04504 -0.313958 0
M  V30 22336 C 2119.76 1.56495 1.05616 0
M  V30 22337 O 2119.12 0.736036 1.66999 0
M  V30 22338 C 2119.17 3.60059 -0.322507 0
M  V30 22339 O 2118.89 4.06304 -1.63855 0
M  V30 22340 C 2120.39 4.43118 0.127067 0
M  V30 22341 H 2117.61 0.657312 -0.134841 0
M  V30 22342 H 2120.15 1.77435 -1.01671 0
M  V30 22343 H 2118.31 3.85979 0.331471 0
M  V30 22344 H 2118.72 5.00711 -1.56169 0
M  V30 22345 H 2120.2 5.51956 0.0699241 0
M  V30 22346 H 2120.67 4.2321 1.17431 0
M  V30 22347 H 2121.28 4.22376 -0.49787 0
M  V30 22348 N 2119.6 0.497834 1.49531 0
M  V30 22349 C 2120.51 -0.286926 2.32839 0
M  V30 22350 C 2121.52 -0.970397 1.44427 0
M  V30 22351 O 2122.7 -0.952478 1.77454 0
M  V30 22352 C 2119.76 -1.33928 3.19788 0
M  V30 22353 C 2118.82 -0.669588 4.24046 0
M  V30 22354 C 2118.06 -1.67181 5.0684 0
M  V30 22355 O 2118.28 -2.90132 4.91101 0
M  V30 22356 O 2117.21 -1.22887 5.89222 0
M  V30 22357 H 2121.04 0.394869 3.01122 0
M  V30 22358 H 2118.62 0.259218 1.47134 0
M  V30 22359 H 2120.51 -1.94822 3.73661 0
M  V30 22360 H 2119.18 -2.00407 2.54202 0
M  V30 22361 H 2118.09 -0.0209922 3.74094 0
M  V30 22362 H 2119.42 -0.0473067 4.92177 0
M  V30 22363 N 2121.07 -1.5589 0.231532 0
M  V30 22364 C 2122.02 -2.22104 -0.690835 0
M  V30 22365 C 2123.02 -1.20363 -1.19202 0
M  V30 22366 O 2124.22 -1.38416 -1.1507 0
M  V30 22367 H 2120.6 -0.712259 -0.241228 0
M  V30 22368 H 2122.57 -2.98201 -0.109056 0
M  V30 22369 C 2121.32 -2.92249 -1.88377 0
M  V30 22370 H 2120.64 -3.703 -1.50725 0
M  V30 22371 H 2122.08 -3.41964 -2.50672 0
M  V30 22372 C 2120.54 -1.95268 -2.7454 0
M  V30 22373 O 2121.07 -1.47596 -3.73602 0
M  V30 22374 N 2119.27 -1.62701 -2.40783 0
M  V30 22375 H 2118.82 -2.01663 -1.6028 0
M  V30 22376 H 2118.78 -0.98076 -2.98711 0
M  V30 22377 N 2122.55 0.0417572 -1.57545 0
M  V30 22378 C 2123.8 0.734075 -1.87868 0
M  V30 22379 C 2124.11 1.77194 -0.828352 0
M  V30 22380 O 2125.32 2.51595 -1.02039 0
M  V30 22381 C 2123.78 1.35664 -3.33352 0
M  V30 22382 C 2123.38 0.355779 -4.46585 0
M  V30 22383 C 2125.13 2.02957 -3.72839 0
M  V30 22384 C 2123.03 0.985962 -5.83123 0
M  V30 22385 H 2121.96 0.277922 -0.70091 0
M  V30 22386 H 2124.62 -0.0119297 -1.83496 0
M  V30 22387 H 2123 2.15192 -3.32428 0
M  V30 22388 H 2124.17 -0.411871 -4.58956 0
M  V30 22389 H 2122.49 -0.214356 -4.15848 0
M  V30 22390 H 2125.08 2.50935 -4.72161 0
M  V30 22391 H 2125.43 2.84222 -3.04176 0
M  V30 22392 H 2125.96 1.3022 -3.75882 0
M  V30 22393 H 2122.7 0.212992 -6.55154 0
M  V30 22394 H 2122.22 1.72375 -5.74497 0
M  V30 22395 H 2123.9 1.49705 -6.29442 0
M  V30 22396 N 2124.03 1.54445 0.313786 0
M  V30 22397 C 2124.96 1.87506 1.39153 0
M  V30 22398 C 2125.94 0.732752 1.53508 0
M  V30 22399 O 2127.13 0.98736 1.67227 0
M  V30 22400 C 2124.26 2.11107 2.75773 0
M  V30 22401 C 2123.21 3.26954 2.76197 0
M  V30 22402 C 2122.54 3.35947 4.15985 0
M  V30 22403 C 2123.84 4.64372 2.39073 0
M  V30 22404 H 2125.53 2.7777 1.11732 0
M  V30 22405 H 2123.08 1.33651 0.536054 0
M  V30 22406 H 2125.03 2.32821 3.51244 0
M  V30 22407 H 2123.75 1.17602 3.04692 0
M  V30 22408 H 2122.41 3.05144 2.03182 0
M  V30 22409 H 2122.06 2.39982 4.42061 0
M  V30 22410 H 2121.76 4.13812 4.17173 0
M  V30 22411 H 2123.28 3.59906 4.93254 0
M  V30 22412 H 2124.7 4.85901 3.04258 0
M  V30 22413 H 2123.09 5.44858 2.51496 0
M  V30 22414 H 2124.16 4.65956 1.34211 0
M  V30 22415 N 2125.51 -0.576345 1.46683 0
M  V30 22416 C 2126.74 -1.3602 1.55905 0
M  V30 22417 C 2127.15 -1.87712 0.202401 0
M  V30 22418 O 2126.51 -1.63966 -0.801346 0
M  V30 22419 C 2126.56 -2.54335 2.56897 0
M  V30 22420 O 2126.28 -2.04783 3.87293 0
M  V30 22421 C 2127.78 -3.46804 2.7612 0
M  V30 22422 H 2125 -0.415305 0.527032 0
M  V30 22423 H 2127.54 -0.700047 1.92145 0
M  V30 22424 H 2125.7 -3.16326 2.23644 0
M  V30 22425 H 2126.11 -2.81882 4.42315 0
M  V30 22426 H 2127.59 -4.26286 3.50691 0
M  V30 22427 H 2128.06 -3.99143 1.83253 0
M  V30 22428 H 2128.67 -2.90643 3.10495 0
M  V30 22429 N 2126.99 -1.34495 -0.82151 0
M  V30 22430 C 2128.23 -1.27119 -1.58014 0
M  V30 22431 C 2128.56 0.158163 -1.93555 0
M  V30 22432 O 2127.84 1.10389 -1.60139 0
M  V30 22433 C 2128.12 -2.16338 -2.87871 0
M  V30 22434 C 2127.98 -3.67818 -2.58902 0
M  V30 22435 C 2129.29 -2.04971 -3.89455 0
M  V30 22436 H 2126.41 -0.463115 -0.573318 0
M  V30 22437 H 2129.06 -1.6476 -0.946264 0
M  V30 22438 H 2127.21 -1.84367 -3.41966 0
M  V30 22439 H 2128.88 -4.10161 -2.11106 0
M  V30 22440 H 2127.12 -3.88837 -1.92324 0
M  V30 22441 H 2127.79 -4.25612 -3.51509 0
M  V30 22442 H 2130.27 -2.33044 -3.44717 0
M  V30 22443 H 2129.14 -2.6962 -4.78118 0
M  V30 22444 H 2129.4 -1.02711 -4.30003 0
M  V30 22445 N 2128.46 1.04188 -1.18248 0
M  V30 22446 C 2129.39 2.14099 -0.931872 0
M  V30 22447 C 2130.38 1.69603 0.129961 0
M  V30 22448 O 2131.56 1.94187 -0.0223769 0
M  V30 22449 C 2128.69 3.443 -0.455463 0
M  V30 22450 C 2127.64 4.02414 -1.45764 0
M  V30 22451 C 2126.97 5.2808 -0.838796 0
M  V30 22452 C 2128.27 4.38729 -2.83397 0
M  V30 22453 H 2129.96 2.35321 -1.85106 0
M  V30 22454 H 2127.51 1.13091 -0.891421 0
M  V30 22455 H 2129.46 4.2055 -0.267505 0
M  V30 22456 H 2128.19 3.22761 0.499291 0
M  V30 22457 H 2126.85 3.28245 -1.63251 0
M  V30 22458 H 2126.49 5.02849 0.123108 0
M  V30 22459 H 2126.19 5.67923 -1.5079 0
M  V30 22460 H 2127.72 6.07008 -0.661341 0
M  V30 22461 H 2129.13 5.0597 -2.69568 0
M  V30 22462 H 2127.53 4.89618 -3.46979 0
M  V30 22463 H 2128.6 3.48613 -3.37041 0
M  V30 22464 N 2129.94 0.98432 1.23081 0
M  V30 22465 C 2130.87 0.547274 2.26996 0
M  V30 22466 C 2131.85 -0.421528 1.64794 0
M  V30 22467 O 2133.04 -0.314036 1.91644 0
M  V30 22468 C 2130.17 -0.147283 3.46988 0
M  V30 22469 C 2129.12 0.739194 4.21568 0
M  V30 22470 C 2128.45 -0.0877981 5.34628 0
M  V30 22471 C 2129.75 2.03191 4.81156 0
M  V30 22472 H 2131.44 1.41586 2.63806 0
M  V30 22473 H 2128.99 0.682245 1.26813 0
M  V30 22474 H 2130.94 -0.464368 4.18834 0
M  V30 22475 H 2129.67 -1.05035 3.09249 0
M  V30 22476 H 2128.32 1.03979 3.51545 0
M  V30 22477 H 2127.97 -0.99152 4.93131 0
M  V30 22478 H 2127.67 0.50225 5.8545 0
M  V30 22479 H 2129.2 -0.399175 6.09294 0
M  V30 22480 H 2130.61 1.77933 5.44989 0
M  V30 22481 H 2129.01 2.57006 5.4228 0
M  V30 22482 H 2130.08 2.71622 4.01684 0
M  V30 22483 N 2131.42 -1.38259 0.756453 0
M  V30 22484 C 2132.37 -2.3043 0.130645 0
M  V30 22485 C 2133.34 -1.50324 -0.70653 0
M  V30 22486 O 2134.52 -1.78945 -0.662065 0
M  V30 22487 C 2131.66 -3.36755 -0.754338 0
M  V30 22488 C 2130.78 -4.31889 0.0977771 0
M  V30 22489 C 2129.91 -5.25286 -0.790477 0
M  V30 22490 C 2128.95 -6.12065 0.0650988 0
M  V30 22491 N 2128.09 -6.97751 -0.780275 0
M  V30 22492 H 2132.93 -2.83371 0.92222 0
M  V30 22493 H 2130.46 -1.3951 0.466406 0
M  V30 22494 H 2132.42 -3.97012 -1.2821 0
M  V30 22495 H 2131.05 -2.85216 -1.51167 0
M  V30 22496 H 2130.1 -3.73069 0.743191 0
M  V30 22497 H 2131.42 -4.93001 0.758393 0
M  V30 22498 H 2130.57 -5.90673 -1.38529 0
M  V30 22499 H 2129.31 -4.64548 -1.48482 0
M  V30 22500 H 2128.31 -5.45671 0.672561 0
M  V30 22501 H 2129.54 -6.74873 0.756543 0
M  V30 22502 H 2127.48 -6.39558 -1.45951 0
M  V30 22503 H 2127.4 -7.55794 -0.176619 0
M  V30 22504 H 2128.67 -7.67545 -1.35997 0
M  V30 22505 N 2132.9 -0.505757 -1.49264 0
M  V30 22506 C 2134.13 0.0337401 -2.06872 0
M  V30 22507 C 2134.54 1.30384 -1.36548 0
M  V30 22508 O 2133.9 1.76984 -0.4453 0
M  V30 22509 C 2133.95 0.286399 -3.60364 0
M  V30 22510 O 2133.67 -0.933356 -4.28042 0
M  V30 22511 C 2135.17 0.869003 -4.34699 0
M  V30 22512 H 2132.39 -0.022603 -0.670619 0
M  V30 22513 H 2134.94 -0.704475 -1.91983 0
M  V30 22514 H 2133.09 0.974605 -3.7494 0
M  V30 22515 H 2133.5 -0.699127 -5.1982 0
M  V30 22516 H 2134.98 0.995347 -5.42952 0
M  V30 22517 H 2135.46 1.86798 -3.97496 0
M  V30 22518 H 2136.06 0.218118 -4.2474 0
M  V30 22519 N 2134.38 1.55765 -0.239796 0
M  V30 22520 C 2135.34 2.19809 0.649364 0
M  V30 22521 C 2136.34 1.16526 1.10808 0
M  V30 22522 O 2137.53 1.41651 1.01394 0
M  V30 22523 C 2134.66 2.83599 1.89168 0
M  V30 22524 H 2135.85 2.99763 0.0907114 0
M  V30 22525 H 2133.41 1.56297 0.00977153 0
M  V30 22526 H 2134.14 2.07564 2.49174 0
M  V30 22527 H 2133.93 3.5925 1.57104 0
M  V30 22528 H 2135.42 3.32634 2.52477 0
M  V30 22529 N 2135.85 -0.0334016 1.57565 0
M  V30 22530 C 2136.78 -1.03494 2.09312 0
M  V30 22531 C 2137.77 -1.37985 0.9947 0
M  V30 22532 O 2138.95 -1.46944 1.26969 0
M  V30 22533 C 2136.08 -2.33717 2.56892 0
M  V30 22534 C 2135.03 -2.1348 3.70959 0
M  V30 22535 C 2134.36 -3.49425 4.0473 0
M  V30 22536 C 2135.66 -1.52451 4.99556 0
M  V30 22537 H 2137.35 -0.60419 2.9324 0
M  V30 22538 H 2134.9 -0.289182 1.41066 0
M  V30 22539 H 2136.85 -3.04107 2.91714 0
M  V30 22540 H 2135.58 -2.78843 1.70041 0
M  V30 22541 H 2134.24 -1.45523 3.3648 0
M  V30 22542 H 2133.88 -3.92192 3.14952 0
M  V30 22543 H 2133.58 -3.36711 4.81559 0
M  V30 22544 H 2135.11 -4.21184 4.42082 0
M  V30 22545 H 2136.52 -2.12753 5.32362 0
M  V30 22546 H 2134.92 -1.50324 5.80967 0
M  V30 22547 H 2135.99 -0.48986 4.82419 0
M  V30 22548 N 2137.33 -1.54609 -0.305591 0
M  V30 22549 C 2138.26 -1.88242 -1.38157 0
M  V30 22550 C 2139.24 -0.740883 -1.53117 0
M  V30 22551 O 2140.43 -0.996214 -1.66701 0
M  V30 22552 C 2137.56 -2.12567 -2.7465 0
M  V30 22553 C 2136.51 -3.28415 -2.74459 0
M  V30 22554 C 2135.84 -3.38148 -4.14198 0
M  V30 22555 C 2137.14 -4.65633 -2.36607 0
M  V30 22556 H 2138.83 -2.78359 -1.10258 0
M  V30 22557 H 2136.38 -1.33933 -0.528959 0
M  V30 22558 H 2138.33 -2.34681 -3.50004 0
M  V30 22559 H 2137.06 -1.19216 -3.04064 0
M  V30 22560 H 2135.71 -3.06217 -2.01561 0
M  V30 22561 H 2135.36 -2.42323 -4.40782 0
M  V30 22562 H 2135.06 -4.16019 -4.14973 0
M  V30 22563 H 2136.59 -3.62517 -4.91339 0
M  V30 22564 H 2138 -4.87508 -3.01677 0
M  V30 22565 H 2136.4 -5.46184 -2.48603 0
M  V30 22566 H 2137.47 -4.66662 -1.31738 0
M  V30 22567 N 2138.81 0.568558 -1.46987 0
M  V30 22568 C 2140.06 1.32251 -1.52291 0
M  V30 22569 C 2140.37 1.94723 -0.184983 0
M  V30 22570 O 2141.58 2.71252 -0.115932 0
M  V30 22571 C 2140.03 2.3976 -2.68408 0
M  V30 22572 C 2139.64 1.83528 -4.08682 0
M  V30 22573 C 2141.39 3.16408 -2.82996 0
M  V30 22574 C 2139.29 2.88751 -5.16117 0
M  V30 22575 H 2138.22 0.497223 -0.56682 0
M  V30 22576 H 2140.87 0.605168 -1.73234 0
M  V30 22577 H 2139.26 3.14357 -2.40823 0
M  V30 22578 H 2140.43 1.1538 -4.46121 0
M  V30 22579 H 2138.75 1.19503 -3.98884 0
M  V30 22580 H 2141.34 3.94962 -3.60429 0
M  V30 22581 H 2141.69 3.69886 -1.91024 0
M  V30 22582 H 2142.22 2.4892 -3.10296 0
M  V30 22583 H 2138.96 2.40142 -6.09928 0
M  V30 22584 H 2138.48 3.55345 -4.83208 0
M  V30 22585 H 2140.16 3.52449 -5.42576 0
M  V30 22586 N 2140.29 1.34929 0.814366 0
M  V30 22587 C 2141.53 1.27956 1.57338 0
M  V30 22588 C 2141.87 -0.147896 1.93636 0
M  V30 22589 O 2141.14 -1.09539 1.60722 0
M  V30 22590 C 2141.43 2.17862 2.8672 0
M  V30 22591 C 2141.28 3.69185 2.56948 0
M  V30 22592 C 2142.6 2.07033 3.88362 0
M  V30 22593 H 2139.72 0.466149 0.570854 0
M  V30 22594 H 2142.36 1.65259 0.937513 0
M  V30 22595 H 2140.51 1.86178 3.40984 0
M  V30 22596 H 2142.18 4.11275 2.08927 0
M  V30 22597 H 2140.42 3.89851 1.90259 0
M  V30 22598 H 2141.09 4.2747 3.49247 0
M  V30 22599 H 2143.57 2.34869 3.43476 0
M  V30 22600 H 2142.45 2.72151 4.76681 0
M  V30 22601 H 2142.71 1.04989 4.29453 0
M  V30 22602 N 2141.77 -1.0356 1.18799 0
M  V30 22603 C 2142.99 -1.81025 1.01216 0
M  V30 22604 C 2143.42 -1.8301 -0.434636 0
M  V30 22605 O 2142.77 -1.25115 -1.3121 0
M  V30 22606 C 2142.82 -3.24257 1.57766 0
M  V30 22607 O 2141.93 -4.04518 0.802435 0
M  V30 22608 H 2141.27 -0.559085 0.358218 0
M  V30 22609 H 2143.8 -1.30389 1.57671 0
M  V30 22610 H 2143.81 -3.75022 1.60694 0
M  V30 22611 H 2142.48 -3.22127 2.63073 0
M  V30 22612 H 2141.06 -3.6318 0.845866 0
M  V30 22613 N 2143.25 -0.990834 -1.22557 0
M  V30 22614 C 2144.49 -0.664218 -1.90873 0
M  V30 22615 C 2144.81 0.80601 -1.77563 0
M  V30 22616 O 2144.08 1.57751 -1.16153 0
M  V30 22617 H 2142.66 -0.242684 -0.70648 0
M  V30 22618 H 2145.33 -1.2569 -1.48957 0
M  V30 22619 H 2144.42 -0.924949 -2.98079 0
M  V30 22620 N 2144.72 1.37856 -0.763775 0
M  V30 22621 C 2145.97 1.99126 -0.321223 0
M  V30 22622 C 2146.29 1.61318 1.10615 0
M  V30 22623 O 2147.49 2.15633 1.64969 0
M  V30 22624 C 2145.95 3.56074 -0.523371 0
M  V30 22625 C 2145.56 4.02826 -1.96049 0
M  V30 22626 C 2147.3 4.24256 -0.144043 0
M  V30 22627 C 2145.21 5.52454 -2.11066 0
M  V30 22628 H 2144.14 0.744968 -0.116357 0
M  V30 22629 H 2146.79 1.5749 -0.941769 0
M  V30 22630 H 2145.17 3.9565 0.166513 0
M  V30 22631 H 2146.34 3.74515 -2.68468 0
M  V30 22632 H 2144.66 3.47402 -2.29567 0
M  V30 22633 H 2147.26 5.34184 -0.234865 0
M  V30 22634 H 2147.6 4.06351 0.904676 0
M  V30 22635 H 2148.13 3.89954 -0.786169 0
M  V30 22636 H 2144.87 5.75275 -3.14228 0
M  V30 22637 H 2144.39 5.82474 -1.43121 0
M  V30 22638 H 2146.07 6.18305 -1.90546 0
M  V30 22639 N 2146.2 0.513665 1.48994 0
M  V30 22640 C 2147.45 -0.0263341 2.02483 0
M  V30 22641 C 2147.78 -1.35817 1.39226 0
M  V30 22642 O 2147.03 -1.88621 0.5216 0
M  V30 22643 C 2147.33 -0.214329 3.56757 0
M  V30 22644 C 2147 1.0411 4.38716 0
M  V30 22645 C 2145.66 1.3852 4.60832 0
M  V30 22646 C 2148.01 1.87499 4.86306 0
M  V30 22647 C 2145.34 2.56248 5.27782 0
M  V30 22648 C 2147.69 3.04392 5.54553 0
M  V30 22649 C 2146.35 3.39167 5.7491 0
M  V30 22650 H 2145.62 -0.00963634 0.740937 0
M  V30 22651 H 2148.27 0.676388 1.79157 0
M  V30 22652 H 2146.58 -0.999685 3.78832 0
M  V30 22653 H 2148.27 -0.646802 3.95749 0
M  V30 22654 H 2144.86 0.763083 4.21752 0
M  V30 22655 H 2149.05 1.62228 4.69037 0
M  V30 22656 H 2144.3 2.83413 5.41744 0
M  V30 22657 H 2148.48 3.69325 5.904 0
M  V30 22658 H 2146.1 4.30492 6.26562 0
M  V30 22659 N 2147.68 -1.55636 0.248053 0
M  V30 22660 C 2149.09 -1.84952 -0.254884 0
M  V30 22661 C 2149.44 -1.16988 -1.57506 0
M  V30 22662 O 2148.57 -0.448668 -2.11698 0
M  V30 22663 C 2149.16 -3.35535 -0.469244 0
M  V30 22664 C 2147.72 -3.65073 -0.916445 0
M  V30 22665 C 2146.87 -2.77299 0.00568866 0
M  V30 22666 H 2149.82 -1.51563 0.470584 0
M  V30 22667 H 2149.84 -3.57176 -1.31169 0
M  V30 22668 H 2149.35 -3.84972 0.491761 0
M  V30 22669 H 2147.45 -3.21114 -1.88988 0
M  V30 22670 H 2147.57 -4.72831 -0.772508 0
M  V30 22671 H 2145.93 -2.49626 -0.505882 0
M  V30 22672 H 2146.71 -3.29543 0.962088 0
M  V30 22673 N 2149.16 0.0250451 -1.5758 0
M  V30 22674 C 2150.39 0.725656 -1.93437 0
M  V30 22675 C 2150.8 1.69204 -0.846562 0
M  V30 22676 O 2150.14 1.82762 0.185397 0
M  V30 22677 C 2150.2 1.53415 -3.25121 0
M  V30 22678 C 2149.86 0.732109 -4.51098 0
M  V30 22679 C 2150.86 0.0306335 -5.19891 0
M  V30 22680 C 2148.55 0.685464 -4.97601 0
M  V30 22681 C 2150.54 -0.706745 -6.3347 0
M  V30 22682 C 2148.23 -0.0556568 -6.11075 0
M  V30 22683 C 2149.23 -0.750517 -6.78864 0
M  V30 22684 O 2148.91 -1.4796 -7.90167 0
M  V30 22685 H 2148.65 0.208724 -0.64297 0
M  V30 22686 H 2151.2 -0.0145992 -2.05395 0
M  V30 22687 H 2149.43 2.31832 -3.09501 0
M  V30 22688 H 2151.12 2.11775 -3.46275 0
M  V30 22689 H 2151.88 0.0576759 -4.84966 0
M  V30 22690 H 2147.76 1.21582 -4.44678 0
M  V30 22691 H 2151.31 -1.24965 -6.86316 0
M  V30 22692 H 2147.2 -0.0846083 -6.45445 0
M  V30 22693 H 2147.97 -1.39369 -8.06547 0
M  V30 22694 N 2150.64 1.54769 0.297388 0
M  V30 22695 C 2151.86 1.78543 1.05533 0
M  V30 22696 C 2152.29 0.54501 1.80031 0
M  V30 22697 O 2151.64 -0.504585 1.74137 0
M  V30 22698 C 2151.69 2.99469 2.00874 0
M  V30 22699 O 2150.8 2.72847 3.09238 0
M  V30 22700 H 2150.14 0.590843 0.302985 0
M  V30 22701 H 2152.67 2.0186 0.333711 0
M  V30 22702 H 2152.68 3.27538 2.43275 0
M  V30 22703 H 2151.35 3.8941 1.46058 0
M  V30 22704 H 2149.93 2.55805 2.71327 0
M  V30 22705 N 2152.11 -0.560755 1.47286 0
M  V30 22706 C 2153.36 -1.31441 1.52991 0
M  V30 22707 C 2153.68 -1.94622 0.195307 0
M  V30 22708 O 2154.88 -2.71187 0.130315 0
M  V30 22709 C 2153.34 -2.38334 2.69676 0
M  V30 22710 C 2152.95 -1.81358 4.0965 0
M  V30 22711 C 2154.69 -3.14902 2.8467 0
M  V30 22712 C 2152.6 -2.8601 5.17641 0
M  V30 22713 H 2151.53 -0.49421 0.569449 0
M  V30 22714 H 2154.18 -0.595972 1.73552 0
M  V30 22715 H 2152.56 -3.13075 2.42487 0
M  V30 22716 H 2153.73 -1.13012 4.46727 0
M  V30 22717 H 2152.05 -1.17385 3.99512 0
M  V30 22718 H 2154.65 -3.93045 3.62518 0
M  V30 22719 H 2154.99 -3.68868 1.92983 0
M  V30 22720 H 2155.52 -2.47271 3.11612 0
M  V30 22721 H 2152.26 -2.36904 6.11193 0
M  V30 22722 H 2151.78 -3.52777 4.85086 0
M  V30 22723 H 2153.46 -3.49566 5.44438 0
M  V30 22724 N 2153.59 -1.35359 -0.807199 0
M  V30 22725 C 2155 -1.25624 -1.38114 0
M  V30 22726 C 2155.35 0.11163 -1.95882 0
M  V30 22727 O 2154.48 1.01256 -1.91249 0
M  V30 22728 C 2155.07 -2.27464 -2.51088 0
M  V30 22729 C 2153.63 -2.21472 -3.04347 0
M  V30 22730 C 2152.78 -2.13208 -1.77307 0
M  V30 22731 H 2155.73 -1.46496 -0.610285 0
M  V30 22732 H 2155.75 -1.90077 -3.29623 0
M  V30 22733 H 2155.26 -3.27009 -2.09014 0
M  V30 22734 H 2153.36 -1.25336 -3.50887 0
M  V30 22735 H 2153.48 -3.13409 -3.6237 0
M  V30 22736 H 2151.84 -1.59176 -1.98834 0
M  V30 22737 H 2152.62 -3.14611 -1.37385 0
M  V30 22738 N 2155.07 1.02928 -1.19346 0
M  V30 22739 C 2156.03 2.09361 -0.932765 0
M  V30 22740 C 2157.03 1.60567 0.086582 0
M  V30 22741 O 2158.22 1.73569 -0.148116 0
M  V30 22742 C 2155.35 3.38524 -0.401767 0
M  V30 22743 H 2156.55 2.33922 -1.87671 0
M  V30 22744 H 2154.1 1.19532 -1.00707 0
M  V30 22745 H 2154.84 3.19632 0.548245 0
M  V30 22746 H 2154.62 3.75261 -1.13672 0
M  V30 22747 H 2156.11 4.16919 -0.238443 0
M  V30 22748 N 2156.55 0.997319 1.2203 0
M  V30 22749 C 2157.78 0.694247 1.94905 0
M  V30 22750 C 2158.19 -0.741849 1.73615 0
M  V30 22751 O 2157.55 -1.50108 1.03796 0
M  V30 22752 C 2157.6 0.996196 3.47503 0
M  V30 22753 O 2157.32 2.37587 3.68082 0
M  V30 22754 C 2158.82 0.711446 4.37554 0
M  V30 22755 H 2156.04 0.256462 0.620055 0
M  V30 22756 H 2158.58 1.33329 1.5506 0
M  V30 22757 H 2156.74 0.402886 3.85299 0
M  V30 22758 H 2157.15 2.47854 4.62243 0
M  V30 22759 H 2158.63 0.972956 5.43358 0
M  V30 22760 H 2159.1 -0.35455 4.37767 0
M  V30 22761 H 2159.71 1.28601 4.05391 0
M  V30 22762 N 2158.03 -1.37449 0.771075 0
M  V30 22763 C 2158.96 -2.27966 0.103207 0
M  V30 22764 C 2159.94 -1.46288 -0.709827 0
M  V30 22765 O 2161.12 -1.75624 -0.684734 0
M  V30 22766 C 2158.25 -3.27597 -0.860115 0
M  V30 22767 C 2157.29 -4.26298 -0.131162 0
M  V30 22768 S 2158.13 -5.2233 1.18033 0
M  V30 22769 C 2159.28 -6.25511 0.220534 0
M  V30 22770 H 2159.52 -2.84263 0.870745 0
M  V30 22771 H 2157.05 -1.43713 0.564436 0
M  V30 22772 H 2159.01 -3.85506 -1.41052 0
M  V30 22773 H 2157.67 -2.70249 -1.60076 0
M  V30 22774 H 2156.86 -4.96584 -0.86141 0
M  V30 22775 H 2156.46 -3.72375 0.34822 0
M  V30 22776 H 2158.76 -6.74773 -0.607294 0
M  V30 22777 H 2159.7 -7.02465 0.891548 0
M  V30 22778 H 2160.11 -5.6425 -0.167959 0
M  V30 22779 N 2159.5 -0.52156 -1.4872 0
M  V30 22780 C 2160.43 0.234741 -2.32317 0
M  V30 22781 C 2161.42 0.943119 -1.4156 0
M  V30 22782 O 2162.6 0.930536 -1.70454 0
M  V30 22783 C 2159.73 1.28724 -3.22564 0
M  V30 22784 C 2158.68 0.697518 -4.22278 0
M  V30 22785 C 2158.01 1.85205 -5.016 0
M  V30 22786 C 2159.31 -0.325174 -5.21287 0
M  V30 22787 H 2161 -0.463097 -2.95797 0
M  V30 22788 H 2158.55 -0.224154 -1.42245 0
M  V30 22789 H 2160.5 1.82422 -3.79869 0
M  V30 22790 H 2159.23 2.01455 -2.57067 0
M  V30 22791 H 2157.89 0.182131 -3.66147 0
M  V30 22792 H 2157.53 2.56754 -4.32535 0
M  V30 22793 H 2157.23 1.46343 -5.69085 0
M  V30 22794 H 2158.76 2.39297 -5.61755 0
M  V30 22795 H 2160.17 0.124406 -5.73165 0
M  V30 22796 H 2158.57 -0.630729 -5.96776 0
M  V30 22797 H 2159.64 -1.23392 -4.68938 0
M  V30 22798 N 2160.98 1.55502 -0.256304 0
M  V30 22799 C 2162.23 1.99463 0.366354 0
M  V30 22800 C 2162.56 1.14436 1.56902 0
M  V30 22801 O 2161.84 0.209944 1.93364 0
M  V30 22802 C 2162.12 3.51836 0.767016 0
M  V30 22803 C 2161.97 4.47626 -0.441687 0
M  V30 22804 C 2163.29 4.09574 1.61051 0
M  V30 22805 H 2160.41 0.72514 0.131688 0
M  V30 22806 H 2163.05 1.86568 -0.359494 0
M  V30 22807 H 2161.2 3.62956 1.38546 0
M  V30 22808 H 2162.87 4.48475 -1.08018 0
M  V30 22809 H 2161.12 4.2006 -1.08313 0
M  V30 22810 H 2161.79 5.51874 -0.117869 0
M  V30 22811 H 2164.26 4.01614 1.08838 0
M  V30 22812 H 2163.14 5.16436 1.85969 0
M  V30 22813 H 2163.4 3.58619 2.58544 0
M  V30 22814 N 2162.46 -0.0166879 1.57591 0
M  V30 22815 C 2163.71 -0.700489 1.90957 0
M  V30 22816 C 2164.06 -1.72297 0.856237 0
M  V30 22817 O 2163.35 -1.91134 -0.133614 0
M  V30 22818 C 2163.55 -1.4003 3.28826 0
M  V30 22819 C 2163.38 -0.447112 4.47472 0
M  V30 22820 C 2162.15 -0.0636103 5.0526 0
M  V30 22821 C 2164.35 0.279698 5.13539 0
M  V30 22822 N 2162.33 0.889536 6.07421 0
M  V30 22823 C 2163.7 1.08808 6.10378 0
M  V30 22824 C 2165.75 0.34532 4.96701 0
M  V30 22825 C 2164.46 1.95608 6.92192 0
M  V30 22826 C 2166.48 1.20049 5.79087 0
M  V30 22827 C 2165.84 1.99677 6.75506 0
M  V30 22828 H 2161.94 -0.230042 0.747398 0
M  V30 22829 H 2164.53 0.0397375 1.94659 0
M  V30 22830 H 2162.7 -2.11091 3.26029 0
M  V30 22831 H 2164.43 -2.03747 3.4967 0
M  V30 22832 H 2161.19 -0.428443 4.71658 0
M  V30 22833 H 2161.61 1.36098 6.63179 0
M  V30 22834 H 2166.25 -0.256013 4.22024 0
M  V30 22835 H 2163.97 2.56816 7.66206 0
M  V30 22836 H 2167.56 1.25496 5.68104 0
M  V30 22837 H 2166.44 2.64779 7.38147 0
M  V30 22838 N 2163.94 -1.54924 -0.289176 0
M  V30 22839 C 2164.89 -1.83077 -1.35892 0
M  V30 22840 C 2165.87 -0.68863 -1.45419 0
M  V30 22841 O 2167.06 -0.949574 -1.49372 0
M  V30 22842 C 2164.19 -2.09196 -2.72198 0
M  V30 22843 C 2163.28 -3.29627 -2.66847 0
M  V30 22844 N 2163.67 -4.49912 -2.31112 0
M  V30 22845 C 2161.97 -3.31892 -2.97933 0
M  V30 22846 C 2162.67 -5.31963 -2.35351 0
M  V30 22847 N 2161.65 -4.69972 -2.7318 0
M  V30 22848 H 2165.45 -2.73634 -1.07246 0
M  V30 22849 H 2162.96 -1.54583 -0.497785 0
M  V30 22850 H 2164.96 -2.27516 -3.49345 0
M  V30 22851 H 2163.62 -1.19914 -3.01746 0
M  V30 22852 H 2164.63 -4.76302 -2.03364 0
M  V30 22853 H 2161.31 -2.52753 -3.32298 0
M  V30 22854 H 2162.7 -6.38101 -2.10421 0
M  V30 22855 N 2165.42 0.552936 -1.47582 0
M  V30 22856 C 2166.64 1.33522 -1.58049 0
M  V30 22857 C 2167.06 1.87366 -0.232239 0
M  V30 22858 O 2166.42 1.6522 0.775159 0
M  V30 22859 C 2166.47 2.50216 -2.60911 0
M  V30 22860 O 2166.19 1.98596 -3.90502 0
M  V30 22861 C 2167.69 3.42367 -2.81602 0
M  V30 22862 H 2164.91 0.406868 -0.533572 0
M  V30 22863 H 2167.45 0.669389 -1.93234 0
M  V30 22864 H 2165.61 3.12728 -2.28648 0
M  V30 22865 H 2166.02 2.74809 -4.46744 0
M  V30 22866 H 2167.5 4.20653 -3.57429 0
M  V30 22867 H 2167.97 3.96177 -1.8958 0
M  V30 22868 H 2168.58 2.85666 -3.15079 0
M  V30 22869 N 2166.89 1.35785 0.800009 0
M  V30 22870 C 2168.14 1.30625 1.55912 0
M  V30 22871 C 2168.5 -0.116568 1.92047 0
M  V30 22872 O 2167.79 -1.06857 1.59035 0
M  V30 22873 C 2167.98 2.15261 2.85302 0
M  V30 22874 C 2167.81 3.6563 2.61811 0
M  V30 22875 C 2166.58 4.34843 2.57371 0
M  V30 22876 C 2168.78 4.59133 2.31736 0
M  V30 22877 N 2166.76 5.70919 2.25666 0
M  V30 22878 C 2168.13 5.83379 2.09927 0
M  V30 22879 C 2170.19 4.47807 2.17654 0
M  V30 22880 C 2168.89 6.97571 1.75461 0
M  V30 22881 C 2170.92 5.61856 1.84586 0
M  V30 22882 C 2170.28 6.85134 1.63617 0
M  V30 22883 H 2166.38 0.533257 0.57198 0
M  V30 22884 H 2168.96 1.70733 0.935867 0
M  V30 22885 H 2167.13 1.77415 3.45512 0
M  V30 22886 H 2168.86 2.01571 3.50929 0
M  V30 22887 H 2165.62 3.87528 2.72249 0
M  V30 22888 H 2166.04 6.42756 2.12589 0
M  V30 22889 H 2170.69 3.53095 2.3256 0
M  V30 22890 H 2168.4 7.92244 1.59293 0
M  V30 22891 H 2171.99 5.55049 1.74389 0
M  V30 22892 H 2170.87 7.7189 1.38404 0
M  V30 22893 N 2168.37 -1.02294 1.19891 0
M  V30 22894 C 2169.3 -2.108 0.899788 0
M  V30 22895 C 2170.32 -1.62429 -0.109916 0
M  V30 22896 O 2171.51 -1.78094 0.120276 0
M  V30 22897 C 2168.61 -3.37325 0.326304 0
M  V30 22898 C 2167.78 -4.1486 1.38601 0
M  V30 22899 C 2166.84 -5.19693 0.824993 0
M  V30 22900 O 2165.86 -5.48966 1.50415 0
M  V30 22901 N 2167.07 -5.79328 -0.36876 0
M  V30 22902 H 2169.83 -2.37048 1.8338 0
M  V30 22903 H 2167.39 -1.18633 1.10172 0
M  V30 22904 H 2169.38 -4.04651 -0.0629984 0
M  V30 22905 H 2167.95 -3.08377 -0.512119 0
M  V30 22906 H 2167.17 -3.42596 1.94991 0
M  V30 22907 H 2168.46 -4.63446 2.09989 0
M  V30 22908 H 2167.86 -5.57871 -0.93792 0
M  V30 22909 H 2166.42 -6.48033 -0.699773 0
M  V30 22910 N 2169.85 -1.00378 -1.21499 0
M  V30 22911 C 2170.8 -0.563153 -2.23824 0
M  V30 22912 C 2171.77 0.410151 -1.60956 0
M  V30 22913 O 2172.95 0.312473 -1.88224 0
M  V30 22914 C 2170.09 0.105277 -3.44939 0
M  V30 22915 C 2169.21 -0.91106 -4.22284 0
M  V30 22916 C 2168.34 -0.215019 -5.30765 0
M  V30 22917 C 2167.38 -1.21899 -5.99839 0
M  V30 22918 N 2166.52 -0.550506 -6.99938 0
M  V30 22919 H 2171.36 -1.44041 -2.60876 0
M  V30 22920 H 2168.89 -0.721302 -1.28202 0
M  V30 22921 H 2170.85 0.509838 -4.14073 0
M  V30 22922 H 2169.48 0.946261 -3.08619 0
M  V30 22923 H 2168.53 -1.43387 -3.52341 0
M  V30 22924 H 2169.85 -1.67513 -4.69831 0
M  V30 22925 H 2169 0.245713 -6.06202 0
M  V30 22926 H 2167.74 0.581469 -4.84221 0
M  V30 22927 H 2166.74 -1.69024 -5.23174 0
M  V30 22928 H 2167.97 -2.01654 -6.48469 0
M  V30 22929 H 2165.91 0.226347 -6.55609 0
M  V30 22930 H 2165.83 -1.25285 -7.45547 0
M  V30 22931 H 2167.1 -0.112938 -7.79418 0
M  V30 22932 N 2171.33 1.37038 -0.778354 0
M  V30 22933 C 2172.26 2.28847 -0.127244 0
M  V30 22934 C 2173.27 1.48951 0.657071 0
M  V30 22935 O 2174.46 1.71526 0.494075 0
M  V30 22936 C 2171.56 3.28242 0.843228 0
M  V30 22937 C 2170.74 4.37258 0.111327 0
M  V30 22938 C 2169.79 5.16685 0.996125 0
M  V30 22939 O 2168.82 5.67359 0.457454 0
M  V30 22940 N 2170.02 5.32051 2.32167 0
M  V30 22941 H 2172.79 2.85364 -0.915817 0
M  V30 22942 H 2170.35 1.49085 -0.631281 0
M  V30 22943 H 2172.34 3.78263 1.43873 0
M  V30 22944 H 2170.91 2.72445 1.53273 0
M  V30 22945 H 2170.13 3.88548 -0.66515 0
M  V30 22946 H 2171.42 5.07271 -0.394155 0
M  V30 22947 H 2170.82 4.92476 2.78358 0
M  V30 22948 H 2169.37 5.85356 2.86708 0
M  V30 22949 N 2172.81 0.529439 1.48441 0
M  V30 22950 C 2174.04 -0.000824174 2.069 0
M  V30 22951 C 2174.45 -1.28195 1.38605 0
M  V30 22952 O 2173.81 -1.76253 0.4734 0
M  V30 22953 C 2173.86 -0.229032 3.60774 0
M  V30 22954 O 2173.58 1.00134 4.26503 0
M  V30 22955 C 2175.08 -0.799736 4.36027 0
M  V30 22956 H 2172.3 0.0332691 0.670175 0
M  V30 22957 H 2174.84 0.734929 1.90838 0
M  V30 22958 H 2173 -0.914832 3.76443 0
M  V30 22959 H 2173.41 0.781737 5.18642 0
M  V30 22960 H 2174.89 -0.908842 5.44467 0
M  V30 22961 H 2175.36 -1.8045 4.00418 0
M  V30 22962 H 2175.97 -0.150518 4.25034 0
M  V30 22963 N 2174.29 -1.55364 0.264547 0
M  V30 22964 C 2175.22 -2.19475 -0.660544 0
M  V30 22965 C 2176.23 -1.17628 -1.1255 0
M  V30 22966 O 2177.42 -1.44407 -1.04923 0
M  V30 22967 C 2174.52 -2.79832 -1.91173 0
M  V30 22968 C 2173.69 -4.07269 -1.59533 0
M  V30 22969 C 2172.75 -4.51774 -2.6979 0
M  V30 22970 O 2171.78 -5.17776 -2.36425 0
M  V30 22971 N 2172.98 -4.2103 -3.99642 0
M  V30 22972 H 2175.74 -2.99491 -0.111888 0
M  V30 22973 H 2173.31 -1.61676 0.0852139 0
M  V30 22974 H 2175.3 -3.06555 -2.64209 0
M  V30 22975 H 2173.87 -2.03871 -2.36971 0
M  V30 22976 H 2173.09 -3.87948 -0.699303 0
M  V30 22977 H 2174.38 -4.9032 -1.35881 0
M  V30 22978 H 2173.77 -3.68079 -4.29575 0
M  V30 22979 H 2172.33 -4.52548 -4.69088 0
M  V30 22980 N 2175.76 0.00833021 -1.57598 0
M  V30 22981 C 2177.18 0.364296 -1.55387 0
M  V30 22982 C 2177.38 1.75313 -0.993353 0
M  V30 22983 O 2176.44 2.44681 -0.623498 0
M  V30 22984 C 2177.75 0.247154 -2.99683 0
M  V30 22985 C 2179.3 0.32271 -3.11332 0
M  V30 22986 C 2179.77 0.234786 -4.57398 0
M  V30 22987 N 2181.26 0.292944 -4.62273 0
M  V30 22988 C 2182 0.248123 -5.72863 0
M  V30 22989 N 2181.49 0.154382 -6.92628 0
M  V30 22990 N 2183.29 0.299377 -5.61302 0
M  V30 22991 H 2175.44 -0.900301 -1.92376 0
M  V30 22992 H 2177.7 -0.344326 -0.883257 0
M  V30 22993 H 2177.41 -0.708073 -3.44498 0
M  V30 22994 H 2177.28 1.03257 -3.62792 0
M  V30 22995 H 2179.67 1.26838 -2.66451 0
M  V30 22996 H 2179.75 -0.492428 -2.51016 0
M  V30 22997 H 2179.39 -0.707303 -5.02951 0
M  V30 22998 H 2179.32 1.0683 -5.1565 0
M  V30 22999 H 2181.81 0.367063 -3.76113 0
M  V30 23000 H 2182.13 0.12585 -7.72698 0
M  V30 23001 H 2180.47 0.12013 -6.94896 0
M  V30 23002 H 2183.66 0.370748 -4.66629 0
M  V30 23003 H 2183.84 0.260981 -6.47474 0
M  V30 23004 N 2177.24 1.55075 0.280956 0
M  V30 23005 C 2178.47 1.79652 1.03634 0
M  V30 23006 C 2178.89 0.564074 1.79443 0
M  V30 23007 O 2178.25 -0.486088 1.74662 0
M  V30 23008 C 2178.3 3.01583 1.97687 0
M  V30 23009 O 2177.4 2.76111 3.06327 0
M  V30 23010 H 2176.74 0.594024 0.296701 0
M  V30 23011 H 2179.27 2.02203 0.312282 0
M  V30 23012 H 2179.28 3.301 2.39787 0
M  V30 23013 H 2177.96 3.90937 1.41919 0
M  V30 23014 H 2176.53 2.58668 2.68598 0
M  V30 23015 N 2178.72 -0.545102 1.47873 0
M  V30 23016 C 2179.97 -1.29914 1.54812 0
M  V30 23017 C 2180.29 -1.93786 0.217214 0
M  V30 23018 O 2179.56 -1.80559 -0.759941 0
M  V30 23019 H 2178.14 -0.482471 0.57029 0
M  V30 23020 H 2180.8 -0.635565 1.84246 0
M  V30 23021 H 2179.9 -2.08635 2.32116 0
M  V30 23022 N 2180.2 -1.36208 -0.792797 0
M  V30 23023 C 2181.44 -1.30442 -1.55282 0
M  V30 23024 C 2181.78 0.117071 -1.93847 0
M  V30 23025 O 2181.05 1.06968 -1.62444 0
M  V30 23026 C 2181.33 -2.22396 -2.83218 0
M  V30 23027 C 2181.19 -3.73227 -2.51042 0
M  V30 23028 C 2182.51 -2.13185 -3.85019 0
M  V30 23029 H 2179.63 -0.475171 -0.563366 0
M  V30 23030 H 2182.27 -1.6673 -0.911103 0
M  V30 23031 H 2180.42 -1.9158 -3.37979 0
M  V30 23032 H 2182.09 -4.14547 -2.02358 0
M  V30 23033 H 2180.33 -3.92829 -1.84033 0
M  V30 23034 H 2181 -4.32972 -3.42402 0
M  V30 23035 H 2183.48 -2.40303 -3.39696 0
M  V30 23036 H 2182.36 -2.797 -4.72291 0
M  V30 23037 H 2182.62 -1.11808 -4.27728 0
M  V30 23038 N 2181.68 1.01656 -1.20431 0
M  V30 23039 C 2182.61 2.12074 -0.977076 0
M  V30 23040 C 2183.59 1.6984 0.0939563 0
M  V30 23041 O 2184.77 1.94096 -0.0635618 0
M  V30 23042 C 2181.9 3.43257 -0.528392 0
M  V30 23043 C 2180.86 3.99231 -1.54267 0
M  V30 23044 C 2180.18 5.26182 -0.950621 0
M  V30 23045 C 2181.48 4.32619 -2.92639 0
M  V30 23046 H 2183.18 2.31342 -1.90056 0
M  V30 23047 H 2180.72 1.11175 -0.915209 0
M  V30 23048 H 2182.67 4.19888 -0.35665 0
M  V30 23049 H 2181.4 3.23747 0.430716 0
M  V30 23050 H 2180.06 3.24708 -1.70177 0
M  V30 23051 H 2179.71 5.02997 0.0164182 0
M  V30 23052 H 2179.41 5.64597 -1.62802 0
M  V30 23053 H 2180.93 6.05469 -0.789947 0
M  V30 23054 H 2182.34 5.00138 -2.8024 0
M  V30 23055 H 2180.74 4.82148 -3.57286 0
M  V30 23056 H 2181.81 3.41386 -3.4436 0
M  V30 23057 N 2183.15 1.01021 1.20965 0
M  V30 23058 C 2184.4 0.706603 1.90732 0
M  V30 23059 C 2184.75 -0.754922 1.76971 0
M  V30 23060 O 2184.05 -1.54071 1.13898 0
M  V30 23061 C 2184.24 1.06913 3.41034 0
M  V30 23062 C 2184.07 2.56435 3.6942 0
M  V30 23063 C 2182.84 3.23118 3.88488 0
M  V30 23064 C 2185.04 3.54608 3.72502 0
M  V30 23065 N 2183.02 4.61936 4.04336 0
M  V30 23066 C 2184.39 4.78959 3.93698 0
M  V30 23067 C 2186.45 3.4867 3.55434 0
M  V30 23068 C 2185.15 5.98094 3.99595 0
M  V30 23069 C 2187.18 4.672 3.62599 0
M  V30 23070 C 2186.54 5.90358 3.84261 0
M  V30 23071 H 2182.64 0.310128 0.717875 0
M  V30 23072 H 2185.22 1.29373 1.45501 0
M  V30 23073 H 2183.39 0.510401 3.85032 0
M  V30 23074 H 2185.12 0.719723 3.98249 0
M  V30 23075 H 2181.88 2.73554 3.86607 0
M  V30 23076 H 2182.3 5.33992 4.16151 0
M  V30 23077 H 2186.94 2.54454 3.37658 0
M  V30 23078 H 2184.66 6.92697 4.16169 0
M  V30 23079 H 2188.25 4.64214 3.50708 0
M  V30 23080 H 2187.13 6.80542 3.89656 0
M  V30 23081 N 2184.63 -1.36623 0.78561 0
M  V30 23082 C 2185.91 -1.9358 0.280398 0
M  V30 23083 C 2186.29 -1.71791 -1.22683 0
M  V30 23084 O 2185.64 -1.07466 -2.01651 0
M  V30 23085 C 2185.85 -3.4253 0.668878 0
M  V30 23086 C 2187.19 -4.1965 0.646471 0
M  V30 23087 O 2188.22 -3.50953 0.609116 0
M  V30 23088 O 2187.08 -5.42178 0.685949 0
M  V30 23089 H 2184.17 -0.824163 0.0684374 0
M  V30 23090 H 2186.72 -1.45827 0.867897 0
M  V30 23091 H 2185.49 -3.5203 1.70853 0
M  V30 23092 H 2185.11 -3.97562 0.0550603 0
M  V30 23093 N 2186.11 -0.537304 -1.48158 0
M  V30 23094 C 2187.36 -0.00589118 -2.02799 0
M  V30 23095 C 2187.69 1.33238 -1.41285 0
M  V30 23096 O 2186.96 1.86228 -0.56121 0
M  V30 23097 C 2187.25 0.108356 -3.59937 0
M  V30 23098 C 2187.1 -1.2556 -4.3192 0
M  V30 23099 C 2188.42 0.831579 -4.32172 0
M  V30 23100 H 2185.54 -0.00361491 -0.736991 0
M  V30 23101 H 2188.18 -0.69575 -1.76803 0
M  V30 23102 H 2186.33 0.695893 -3.82217 0
M  V30 23103 H 2188 -1.88481 -4.21038 0
M  V30 23104 H 2186.24 -1.83557 -3.93051 0
M  V30 23105 H 2186.92 -1.12858 -5.4034 0
M  V30 23106 H 2189.39 0.332919 -4.14766 0
M  V30 23107 H 2188.27 0.880431 -5.41793 0
M  V30 23108 H 2188.53 1.88346 -3.99973 0
M  V30 23109 N 2187.59 1.55221 -0.272782 0
M  V30 23110 C 2189 1.85334 0.225428 0
M  V30 23111 C 2189.35 1.19479 1.55625 0
M  V30 23112 O 2188.48 0.482291 2.10957 0
M  V30 23113 C 2189.07 3.36239 0.415804 0
M  V30 23114 C 2187.63 3.66485 0.858249 0
M  V30 23115 C 2186.78 2.77255 -0.0498039 0
M  V30 23116 H 2189.73 1.50795 -0.494637 0
M  V30 23117 H 2189.75 3.59218 1.2547 0
M  V30 23118 H 2189.26 3.84141 -0.552945 0
M  V30 23119 H 2187.36 3.2408 1.83855 0
M  V30 23120 H 2187.47 4.74 0.697187 0
M  V30 23121 H 2185.84 2.50399 0.466105 0
M  V30 23122 H 2186.62 3.27971 -1.01439 0
M  V30 23123 N 2189.07 2.77022e-05 1.576 0
M  V30 23124 C 2190.29 -0.699433 1.9525 0
M  V30 23125 C 2190.72 -1.66511 0.874964 0
M  V30 23126 O 2190.07 -1.8053 -0.166897 0
M  V30 23127 C 2190.12 -1.4075 3.31996 0
M  V30 23128 O 2189.23 -2.52192 3.26302 0
M  V30 23129 H 2188.57 -0.18604 0.637405 0
M  V30 23130 H 2191.1 0.053226 2.04531 0
M  V30 23131 H 2191.11 -1.77092 3.67563 0
M  V30 23132 H 2189.78 -0.699458 4.09976 0
M  V30 23133 H 2188.36 -2.18177 3.02412 0
M  V30 23134 N 2190.54 -1.55222 -0.272728 0
M  V30 23135 C 2191.96 -1.66547 -0.843751 0
M  V30 23136 C 2192.31 -0.592674 -1.87034 0
M  V30 23137 O 2191.43 0.26578 -2.14762 0
M  V30 23138 C 2192.03 -3.01921 -1.53718 0
M  V30 23139 C 2190.59 -3.15272 -2.05623 0
M  V30 23140 C 2189.73 -2.62344 -0.898377 0
M  V30 23141 H 2192.68 -1.58624 -0.0490719 0
M  V30 23142 H 2192.7 -2.94925 -2.40415 0
M  V30 23143 H 2192.22 -3.79979 -0.789763 0
M  V30 23144 H 2190.32 -2.41988 -2.83324 0
M  V30 23145 H 2190.43 -4.21837 -2.27135 0
M  V30 23146 H 2188.79 -2.19509 -1.29182 0
M  V30 23147 H 2189.58 -3.42906 -0.164467 0
M  V30 23148 N 2192.02 0.537252 -1.4816 0
M  V30 23149 C 2193.43 1.11926 -1.49431 0
M  V30 23150 C 2193.78 1.94469 -0.260035 0
M  V30 23151 O 2192.91 2.06921 0.633453 0
M  V30 23152 C 2193.5 2.03651 -2.70762 0
M  V30 23153 C 2192.06 2.57083 -2.74927 0
M  V30 23154 C 2191.21 1.33885 -2.42837 0
M  V30 23155 H 2194.16 0.322859 -1.55381 0
M  V30 23156 H 2194.18 2.8783 -2.48866 0
M  V30 23157 H 2193.69 1.43547 -3.60577 0
M  V30 23158 H 2191.8 3.20929 -1.89302 0
M  V30 23159 H 2191.91 2.96714 -3.76162 0
M  V30 23160 H 2190.27 1.65223 -1.93839 0
M  V30 23161 H 2191.06 0.755445 -3.34885 0
M  V30 23162 N 2193.5 1.36626 0.785562 0
M  V30 23163 C 2194.41 1.33428 1.92961 0
M  V30 23164 C 2195.43 0.235882 1.72394 0
M  V30 23165 O 2196.6 0.468912 1.95865 0
M  V30 23166 C 2193.67 1.12668 3.27882 0
M  V30 23167 C 2192.73 2.32019 3.612 0
M  V30 23168 C 2191.96 2.1224 4.89684 0
M  V30 23169 O 2192.18 1.09955 5.59702 0
M  V30 23170 O 2191.12 3.00107 5.21746 0
M  V30 23171 H 2194.94 2.29757 1.98609 0
M  V30 23172 H 2192.53 1.17213 0.926363 0
M  V30 23173 H 2194.41 1.03024 4.08612 0
M  V30 23174 H 2193.09 0.194048 3.23118 0
M  V30 23175 H 2191.99 2.47233 2.80761 0
M  V30 23176 H 2193.33 3.23802 3.70693 0
M  V30 23177 N 2194.98 -1.01016 1.20969 0
M  V30 23178 C 2196.21 -1.78301 1.04959 0
M  V30 23179 C 2196.62 -1.84495 -0.400883 0
M  V30 23180 O 2195.98 -1.30259 -1.27823 0
M  V30 23181 C 2196.03 -3.22459 1.63409 0
M  V30 23182 O 2195.75 -3.16632 3.0278 0
M  V30 23183 C 2197.25 -4.16266 1.52439 0
M  V30 23184 H 2194.47 -0.560515 0.368868 0
M  V30 23185 H 2197.02 -1.27113 1.60195 0
M  V30 23186 H 2195.17 -3.70773 1.12276 0
M  V30 23187 H 2195.58 -4.07164 3.30633 0
M  V30 23188 H 2197.06 -5.15233 1.98087 0
M  V30 23189 H 2197.54 -4.36592 0.477952 0
M  V30 23190 H 2198.14 -3.73838 2.02794 0
M  V30 23191 N 2196.46 -1.01661 -1.20428 0
M  V30 23192 C 2197.39 -0.545027 -2.22625 0
M  V30 23193 C 2198.4 0.372581 -1.58479 0
M  V30 23194 O 2199.59 0.170927 -1.7768 0
M  V30 23195 C 2196.69 0.22657 -3.38142 0
M  V30 23196 C 2195.86 -0.692952 -4.31876 0
M  V30 23197 C 2194.92 0.0310691 -5.26191 0
M  V30 23198 O 2193.95 -0.591442 -5.66119 0
M  V30 23199 N 2195.15 1.30591 -5.6562 0
M  V30 23200 H 2197.92 -1.42392 -2.63713 0
M  V30 23201 H 2195.48 -0.89414 -1.34969 0
M  V30 23202 H 2197.47 0.72017 -3.98241 0
M  V30 23203 H 2196.04 1.00676 -2.95944 0
M  V30 23204 H 2195.26 -1.36686 -3.69744 0
M  V30 23205 H 2196.55 -1.31833 -4.91424 0
M  V30 23206 H 2195.94 1.8326 -5.35194 0
M  V30 23207 H 2194.5 1.74424 -6.28028 0
M  V30 23208 N 2197.93 1.36205 -0.792844 0
M  V30 23209 C 2198.88 2.30003 -0.191693 0
M  V30 23210 C 2199.85 1.52145 0.666426 0
M  V30 23211 O 2201.04 1.80638 0.614388 0
M  V30 23212 C 2198.18 3.38636 0.664788 0
M  V30 23213 C 2197.29 4.31478 -0.212251 0
M  V30 23214 C 2196.42 5.27197 0.650929 0
M  V30 23215 C 2195.46 6.11678 -0.227354 0
M  V30 23216 N 2194.6 6.99574 0.595004 0
M  V30 23217 H 2199.44 2.80826 -0.997027 0
M  V30 23218 H 2196.98 1.38224 -0.503231 0
M  V30 23219 H 2198.94 4.00271 1.17638 0
M  V30 23220 H 2197.57 2.89124 1.43552 0
M  V30 23221 H 2196.62 3.70968 -0.841842 0
M  V30 23222 H 2197.93 4.90817 -0.888837 0
M  V30 23223 H 2197.08 5.94138 1.2282 0
M  V30 23224 H 2195.82 4.68321 1.36113 0
M  V30 23225 H 2194.83 5.43696 -0.817 0
M  V30 23226 H 2196.05 6.7263 -0.935208 0
M  V30 23227 H 2194 6.43203 1.28943 0
M  V30 23228 H 2193.92 7.55996 -0.0238281 0
M  V30 23229 H 2195.18 7.70881 1.15599 0
M  V30 23230 N 2199.41 0.545154 1.47871 0
M  V30 23231 C 2200.38 -0.198677 2.28337 0
M  V30 23232 C 2201.38 -0.853864 1.36256 0
M  V30 23233 O 2202.57 -0.711578 1.59004 0
M  V30 23234 C 2199.7 -1.2891 3.15587 0
M  V30 23235 H 2200.89 0.507993 2.95566 0
M  V30 23236 H 2198.44 0.301643 1.53362 0
M  V30 23237 H 2199.18 -2.02855 2.53023 0
M  V30 23238 H 2198.96 -0.824241 3.83339 0
M  V30 23239 H 2200.45 -1.81187 3.76246 0
M  V30 23240 N 2200.89 -1.55074 0.28101 0
M  V30 23241 C 2201.8 -2.26427 -0.61384 0
M  V30 23242 C 2202.82 -1.29226 -1.16519 0
M  V30 23243 O 2203.99 -1.62173 -1.19423 0
M  V30 23244 C 2201.06 -2.97593 -1.77875 0
M  V30 23245 C 2200.12 -4.10286 -1.26348 0
M  V30 23246 C 2199.35 -4.78049 -2.37287 0
M  V30 23247 O 2199.57 -4.45053 -3.56769 0
M  V30 23248 O 2198.51 -5.65874 -2.05109 0
M  V30 23249 H 2202.33 -3.03679 -0.0356398 0
M  V30 23250 H 2199.92 -1.49322 0.0481948 0
M  V30 23251 H 2201.8 -3.42297 -2.45785 0
M  V30 23252 H 2200.48 -2.23253 -2.34393 0
M  V30 23253 H 2199.38 -3.70025 -0.55067 0
M  V30 23254 H 2200.72 -4.86545 -0.743979 0
M  V30 23255 N 2202.37 -0.00838561 -1.57598 0
M  V30 23256 C 2203.3 0.979076 -2.11982 0
M  V30 23257 C 2204.28 1.35299 -1.03093 0
M  V30 23258 O 2205.47 1.43526 -1.3082 0
M  V30 23259 C 2202.6 2.26824 -2.62999 0
M  V30 23260 C 2201.55 2.03569 -3.76488 0
M  V30 23261 C 2200.88 3.38571 -4.13852 0
M  V30 23262 C 2202.18 1.39152 -5.03422 0
M  V30 23263 H 2203.87 0.52623 -2.94739 0
M  V30 23264 H 2201.42 0.251679 -1.41784 0
M  V30 23265 H 2203.37 2.96266 -2.99674 0
M  V30 23266 H 2202.09 2.74237 -1.77374 0
M  V30 23267 H 2200.75 1.36551 -3.4022 0
M  V30 23268 H 2200.4 3.83704 -3.25239 0
M  V30 23269 H 2200.1 3.23825 -4.90317 0
M  V30 23270 H 2201.62 4.09315 -4.53093 0
M  V30 23271 H 2203.04 1.98563 -5.37815 0
M  V30 23272 H 2201.43 1.34868 -5.84748 0
M  V30 23273 H 2202.5 0.361783 -4.83548 0
M  V30 23274 N 2203.85 1.55365 0.264492 0
M  V30 23275 C 2204.76 1.91936 1.34899 0
M  V30 23276 C 2205.77 0.81762 1.53594 0
M  V30 23277 O 2206.95 1.11745 1.67556 0
M  V30 23278 C 2204.01 2.19126 2.68672 0
M  V30 23279 C 2203.08 3.42634 2.58651 0
M  V30 23280 C 2202.31 3.68517 3.86045 0
M  V30 23281 O 2202.53 2.96765 4.87121 0
M  V30 23282 O 2201.47 4.62051 3.85736 0
M  V30 23283 H 2205.29 2.84272 1.06878 0
M  V30 23284 H 2202.88 1.4202 0.46375 0
M  V30 23285 H 2204.76 2.38001 3.47755 0
M  V30 23286 H 2203.43 1.29971 2.96461 0
M  V30 23287 H 2202.34 3.29086 1.77914 0
M  V30 23288 H 2203.67 4.32035 2.3581 0
M  V30 23289 N 2205.33 -0.529387 1.48443 0
M  V30 23290 C 2206.24 -1.66081 1.65693 0
M  V30 23291 C 2207.25 -1.65426 0.539461 0
M  V30 23292 O 2208.43 -1.84367 0.810605 0
M  V30 23293 C 2205.49 -3.02542 1.69321 0
M  V30 23294 C 2204.55 -3.14047 2.927 0
M  V30 23295 C 2203.79 -4.43998 2.96144 0
M  V30 23296 O 2204.01 -5.31131 2.07982 0
M  V30 23297 O 2202.94 -4.59881 3.8832 0
M  V30 23298 H 2206.77 -1.54464 2.61485 0
M  V30 23299 H 2204.35 -0.702544 1.31851 0
M  V30 23300 H 2206.24 -3.83698 1.74224 0
M  V30 23301 H 2204.91 -3.14481 0.767022 0
M  V30 23302 H 2203.82 -2.32184 2.93328 0
M  V30 23303 H 2205.15 -3.07023 3.84704 0
M  V30 23304 N 2206.8 -1.37041 -0.778305 0
M  V30 23305 C 2208.05 -1.31626 -1.53359 0
M  V30 23306 C 2208.37 0.100797 -1.94739 0
M  V30 23307 O 2207.64 1.04344 -1.65799 0
M  V30 23308 H 2206.22 -0.484244 -0.568785 0
M  V30 23309 H 2208.88 -1.71459 -0.926712 0
M  V30 23310 H 2207.98 -1.951 -2.43603 0
M  V30 23311 N 2208.28 1.00373 -1.21503 0
M  V30 23312 C 2209.53 1.74427 -1.03456 0
M  V30 23313 C 2209.86 1.89363 0.430731 0
M  V30 23314 O 2209.14 1.42888 1.31959 0
M  V30 23315 C 2209.42 3.15612 -1.73381 0
M  V30 23316 C 2209.27 3.08391 -3.27437 0
M  V30 23317 C 2210.59 4.14561 -1.47739 0
M  V30 23318 H 2207.71 0.633136 -0.377237 0
M  V30 23319 H 2210.35 1.1701 -1.49695 0
M  V30 23320 H 2208.5 3.64633 -1.3407 0
M  V30 23321 H 2210.17 2.67075 -3.76123 0
M  V30 23322 H 2208.42 2.45462 -3.57674 0
M  V30 23323 H 2209.09 4.08251 -3.71531 0
M  V30 23324 H 2211.56 3.74251 -1.81866 0
M  V30 23325 H 2210.44 5.11488 -1.99178 0
M  V30 23326 H 2210.7 4.40216 -0.407666 0
M  V30 23327 N 2209.76 1.02298 1.19887 0
M  V30 23328 C 2210.99 0.734366 1.93108 0
M  V30 23329 C 2211.4 -0.709859 1.75379 0
M  V30 23330 O 2210.74 -1.49382 1.06915 0
M  V30 23331 C 2210.8 0.99833 3.4536 0
M  V30 23332 C 2210.47 2.43293 3.86856 0
M  V30 23333 C 2211.46 3.41404 3.92096 0
M  V30 23334 C 2209.15 2.77537 4.18663 0
M  V30 23335 C 2211.14 4.71817 4.28565 0
M  V30 23336 C 2208.83 4.08161 4.54806 0
M  V30 23337 C 2209.83 5.05111 4.5973 0
M  V30 23338 O 2209.52 6.33397 4.95039 0
M  V30 23339 H 2209.25 0.268467 0.620404 0
M  V30 23340 H 2211.8 1.36883 1.53141 0
M  V30 23341 H 2210.03 0.306713 3.85482 0
M  V30 23342 H 2211.72 0.700304 3.99813 0
M  V30 23343 H 2212.49 3.16286 3.67679 0
M  V30 23344 H 2208.37 2.02757 4.14018 0
M  V30 23345 H 2211.91 5.47487 4.32323 0
M  V30 23346 H 2207.81 4.33055 4.78679 0
M  V30 23347 H 2208.57 6.37781 5.13009 0
M  V30 23348 N 2211.24 -1.35782 0.800057 0
M  V30 23349 C 2212.65 -1.52116 0.483004 0
M  V30 23350 C 2212.85 -1.75111 -0.996917 0
M  V30 23351 O 2211.91 -1.78875 -1.78213 0
M  V30 23352 C 2213.22 -2.70047 1.32269 0
M  V30 23353 C 2214.77 -2.83922 1.31747 0
M  V30 23354 C 2215.25 -4.0487 2.14113 0
M  V30 23355 N 2216.74 -4.12036 2.11615 0
M  V30 23356 C 2217.47 -5.04722 2.72108 0
M  V30 23357 N 2216.97 -6.02783 3.41503 0
M  V30 23358 N 2218.76 -4.97419 2.61785 0
M  V30 23359 H 2210.91 -1.19112 1.75858 0
M  V30 23360 H 2213.17 -0.582239 0.748132 0
M  V30 23361 H 2212.88 -2.59611 2.37265 0
M  V30 23362 H 2212.75 -3.64478 0.971367 0
M  V30 23363 H 2215.14 -2.93812 0.275385 0
M  V30 23364 H 2215.22 -1.90367 1.70862 0
M  V30 23365 H 2214.87 -3.95741 3.18358 0
M  V30 23366 H 2214.8 -4.97593 1.72361 0
M  V30 23367 H 2217.29 -3.41832 1.61118 0
M  V30 23368 H 2217.6 -6.70091 3.84964 0
M  V30 23369 H 2215.95 -6.02977 3.45606 0
M  V30 23370 H 2219.14 -4.19763 2.07164 0
M  V30 23371 H 2219.31 -5.69462 3.0922 0
M  V30 23372 N 2212.72 -0.552988 -1.4758 0
M  V30 23373 C 2213.96 -0.025235 -2.01684 0
M  V30 23374 C 2214.28 1.33112 -1.4332 0
M  V30 23375 O 2215.48 1.94855 -1.89061 0
M  V30 23376 C 2213.94 0.00535725 -3.599 0
M  V30 23377 C 2213.55 -1.3475 -4.27255 0
M  V30 23378 C 2215.29 0.480725 -4.21769 0
M  V30 23379 C 2213.2 -1.27624 -5.77465 0
M  V30 23380 H 2212.13 -0.00566359 -0.753979 0
M  V30 23381 H 2214.78 -0.70021 -1.69615 0
M  V30 23382 H 2213.16 0.745892 -3.88912 0
M  V30 23383 H 2214.34 -2.10541 -4.09889 0
M  V30 23384 H 2212.65 -1.76046 -3.77355 0
M  V30 23385 H 2215.25 0.552366 -5.31839 0
M  V30 23386 H 2215.59 1.49177 -3.88654 0
M  V30 23387 H 2216.12 -0.204822 -3.97272 0
M  V30 23388 H 2212.86 -2.26315 -6.15192 0
M  V30 23389 H 2212.38 -0.560065 -5.97179 0
M  V30 23390 H 2214.06 -0.976533 -6.39588 0
M  V30 23391 N 2214.19 1.54923 -0.28923 0
M  V30 23392 C 2215.14 2.23076 0.592075 0
M  V30 23393 C 2216.11 1.20917 1.13879 0
M  V30 23394 O 2217.3 1.49502 1.18549 0
M  V30 23395 C 2214.44 2.96626 1.76371 0
M  V30 23396 C 2213.55 4.13535 1.24951 0
M  V30 23397 C 2212.68 4.74695 2.38407 0
M  V30 23398 C 2211.72 5.8377 1.84062 0
M  V30 23399 N 2210.86 6.38934 2.91045 0
M  V30 23400 H 2215.7 2.98 0.00426799 0
M  V30 23401 H 2213.24 1.47097 -0.00966114 0
M  V30 23402 H 2215.19 3.37494 2.45262 0
M  V30 23403 H 2213.82 2.24101 2.32333 0
M  V30 23404 H 2212.88 3.7769 0.453241 0
M  V30 23405 H 2214.19 4.92153 0.811576 0
M  V30 23406 H 2213.34 5.18355 3.15267 0
M  V30 23407 H 2212.08 3.95383 2.85523 0
M  V30 23408 H 2211.09 5.39546 1.05687 0
M  V30 23409 H 2212.31 6.64959 1.37865 0
M  V30 23410 H 2210.26 5.62511 3.37516 0
M  V30 23411 H 2210.17 7.12866 2.51712 0
M  V30 23412 H 2211.44 6.87252 3.67838 0
M  V30 23413 N 2215.67 0.0167433 1.57591 0
M  V30 23414 C 2216.6 -0.997717 2.06345 0
M  V30 23415 C 2217.62 -1.2966 0.984492 0
M  V30 23416 O 2218.81 -1.26342 1.26095 0
M  V30 23417 C 2215.91 -2.3283 2.46259 0
M  V30 23418 C 2215.08 -2.21639 3.77087 0
M  V30 23419 C 2214.14 -3.37527 4.03686 0
M  V30 23420 O 2213.16 -3.14965 4.74116 0
M  V30 23421 N 2214.37 -4.60922 3.52889 0
M  V30 23422 H 2217.13 -0.581823 2.93998 0
M  V30 23423 H 2214.69 -0.170288 1.61002 0
M  V30 23424 H 2216.68 -3.09161 2.61154 0
M  V30 23425 H 2215.25 -2.66103 1.64037 0
M  V30 23426 H 2214.47 -1.30113 3.72108 0
M  V30 23427 H 2215.76 -2.11352 4.62826 0
M  V30 23428 H 2215.16 -4.82149 2.95887 0
M  V30 23429 H 2213.72 -5.34463 3.73085 0
M  V30 23430 N 2217.15 -1.55503 -0.256249 0
M  V30 23431 C 2218.08 -1.85964 -1.33978 0
M  V30 23432 C 2219.1 -0.745237 -1.44741 0
M  V30 23433 O 2220.28 -1.02327 -1.46258 0
M  V30 23434 C 2217.38 -2.02247 -2.71936 0
M  V30 23435 C 2216.56 -3.33038 -2.83556 0
M  V30 23436 C 2215.62 -3.39179 -4.02298 0
M  V30 23437 O 2214.64 -4.12451 -3.92266 0
M  V30 23438 N 2215.84 -2.67793 -5.15041 0
M  V30 23439 H 2218.61 -2.79492 -1.08186 0
M  V30 23440 H 2216.17 -1.55625 -0.446361 0
M  V30 23441 H 2218.16 -2.03708 -3.49693 0
M  V30 23442 H 2216.73 -1.15507 -2.90477 0
M  V30 23443 H 2215.95 -3.43974 -1.92549 0
M  V30 23444 H 2217.24 -4.19263 -2.88263 0
M  V30 23445 H 2216.64 -2.07977 -5.26082 0
M  V30 23446 H 2215.2 -2.74957 -5.90967 0
M  V30 23447 N 2218.63 0.521507 -1.48721 0
M  V30 23448 C 2219.88 1.27434 -1.56859 0
M  V30 23449 C 2220.2 1.93416 -0.248016 0
M  V30 23450 O 2219.47 1.81746 0.731119 0
M  V30 23451 H 2218.05 0.473337 -0.577894 0
M  V30 23452 H 2220.71 0.606173 -1.85234 0
M  V30 23453 H 2219.81 2.04916 -2.35406 0
M  V30 23454 N 2220.11 1.37452 0.771027 0
M  V30 23455 C 2221.36 1.32023 1.52489 0
M  V30 23456 C 2221.67 -0.0927004 1.9538 0
M  V30 23457 O 2222.87 -0.269455 2.7016 0
M  V30 23458 C 2221.33 2.31741 2.75362 0
M  V30 23459 C 2220.94 3.78566 2.39566 0
M  V30 23460 C 2222.68 2.35324 3.53303 0
M  V30 23461 C 2220.59 4.70013 3.58945 0
M  V30 23462 H 2219.52 0.490676 0.572498 0
M  V30 23463 H 2222.17 1.62915 0.844445 0
M  V30 23464 H 2220.55 1.93867 3.45299 0
M  V30 23465 H 2221.73 4.2528 1.77408 0
M  V30 23466 H 2220.04 3.77935 1.74798 0
M  V30 23467 H 2222.64 3.0085 4.42033 0
M  V30 23468 H 2222.98 1.36705 3.93214 0
M  V30 23469 H 2223.51 2.71909 2.90363 0
M  V30 23470 H 2220.25 5.69763 3.24115 0
M  V30 23471 H 2219.77 4.28003 4.20207 0
M  V30 23472 H 2221.45 4.87182 4.25749 0
M  V30 23473 N 2221.58 -0.997276 1.22033 0
M  V30 23474 C 2222.83 -1.73619 1.04225 0
M  V30 23475 C 2223.16 -1.89839 -0.423231 0
M  V30 23476 O 2222.41 -1.43544 -1.33017 0
M  V30 23477 C 2222.71 -3.1473 1.6935 0
M  V30 23478 C 2222.38 -3.18436 3.19232 0
M  V30 23479 C 2221.04 -3.19155 3.6013 0
M  V30 23480 C 2223.39 -3.15071 4.15187 0
M  V30 23481 C 2220.72 -3.14203 4.95473 0
M  V30 23482 C 2223.07 -3.1166 5.505 0
M  V30 23483 C 2221.74 -3.10692 5.90785 0
M  V30 23484 H 2221.01 -0.635316 0.381385 0
M  V30 23485 H 2223.65 -1.16829 1.51734 0
M  V30 23486 H 2221.96 -3.74801 1.14154 0
M  V30 23487 H 2223.66 -3.70637 1.53066 0
M  V30 23488 H 2220.25 -3.18624 2.86664 0
M  V30 23489 H 2224.43 -3.13669 3.84611 0
M  V30 23490 H 2219.69 -3.11796 5.25921 0
M  V30 23491 H 2223.86 -3.08011 6.24582 0
M  V30 23492 H 2221.49 -3.0661 6.95625 0
M  V30 23493 N 2223.06 -1.02932 -1.19343 0
M  V30 23494 C 2224.31 -0.724607 -1.88663 0
M  V30 23495 C 2224.63 0.749112 -1.80037 0
M  V30 23496 O 2223.9 1.53976 -1.21113 0
M  V30 23497 H 2222.48 -0.265037 -0.698401 0
M  V30 23498 H 2225.14 -1.30365 -1.44883 0
M  V30 23499 H 2224.24 -1.01931 -2.94985 0
M  V30 23500 N 2224.54 1.35356 -0.807246 0
M  V30 23501 C 2225.49 2.29786 -0.216077 0
M  V30 23502 C 2226.46 1.52843 0.650252 0
M  V30 23503 O 2227.64 1.81279 0.595195 0
M  V30 23504 C 2224.78 3.39322 0.628834 0
M  V30 23505 C 2223.9 4.31229 -0.258003 0
M  V30 23506 C 2223.03 5.27857 0.594976 0
M  V30 23507 C 2222.07 6.11402 -0.292218 0
M  V30 23508 N 2221.21 7.00166 0.520772 0
M  V30 23509 H 2226.05 2.79753 -1.02676 0
M  V30 23510 H 2223.58 1.37683 -0.517863 0
M  V30 23511 H 2225.54 4.01496 1.13386 0
M  V30 23512 H 2224.17 2.9063 1.40477 0
M  V30 23513 H 2223.22 3.70054 -0.881141 0
M  V30 23514 H 2224.54 4.89846 -0.940845 0
M  V30 23515 H 2223.69 5.95407 1.16511 0
M  V30 23516 H 2222.43 4.69738 1.31138 0
M  V30 23517 H 2221.43 5.42799 -0.87462 0
M  V30 23518 H 2222.66 6.716 -1.0065 0
M  V30 23519 H 2220.6 6.44534 1.22114 0
M  V30 23520 H 2220.52 7.55928 -0.10401 0
M  V30 23521 H 2221.79 7.72063 1.07416 0
M  V30 23522 N 2226.02 0.560807 1.47284 0
M  V30 23523 C 2227.25 0.0430626 2.06855 0
M  V30 23524 C 2227.66 -1.25226 1.41293 0
M  V30 23525 O 2227.02 -1.75209 0.510679 0
M  V30 23526 C 2227.07 -0.152455 3.61178 0
M  V30 23527 O 2226.79 1.09158 4.24283 0
M  V30 23528 C 2228.29 -0.707068 4.37625 0
M  V30 23529 H 2225.51 0.047477 0.669318 0
M  V30 23530 H 2228.06 0.775243 1.89236 0
M  V30 23531 H 2226.21 -0.834777 3.78299 0
M  V30 23532 H 2226.62 0.891573 5.16867 0
M  V30 23533 H 2228.1 -0.793148 5.46272 0
M  V30 23534 H 2228.58 -1.71916 4.04155 0
M  V30 23535 H 2229.18 -0.0603279 4.25257 0
M  V30 23536 N 2227.5 -1.54768 0.297442 0
M  V30 23537 C 2228.43 -2.20827 -0.613842 0
M  V30 23538 C 2229.44 -1.19989 -1.1003 0
M  V30 23539 O 2230.63 -1.466 -1.01836 0
M  V30 23540 C 2227.73 -2.83824 -1.85195 0
M  V30 23541 C 2226.9 -4.10561 -1.50858 0
M  V30 23542 C 2225.96 -4.57395 -2.60146 0
M  V30 23543 O 2224.99 -5.22674 -2.25389 0
M  V30 23544 N 2226.19 -4.29413 -3.90621 0
M  V30 23545 H 2228.96 -2.99661 -0.0483364 0
M  V30 23546 H 2226.52 -1.61458 0.119488 0
M  V30 23547 H 2228.51 -3.1209 -2.57647 0
M  V30 23548 H 2227.08 -2.08852 -2.32594 0
M  V30 23549 H 2226.3 -3.89344 -0.616857 0
M  V30 23550 H 2227.59 -4.93092 -1.2545 0
M  V30 23551 H 2226.98 -3.77108 -4.21671 0
M  V30 23552 H 2225.54 -4.62396 -4.59383 0
M  V30 23553 N 2228.97 -0.0251005 -1.5758 0
M  V30 23554 C 2230.22 0.65538 -1.91918 0
M  V30 23555 C 2230.55 1.7201 -0.901464 0
M  V30 23556 O 2229.83 1.9435 0.0763727 0
M  V30 23557 C 2230.11 1.27552 -3.36753 0
M  V30 23558 C 2229.96 0.22064 -4.49259 0
M  V30 23559 C 2231.28 2.19468 -3.81473 0
M  V30 23560 H 2228.4 0.236778 -0.697929 0
M  V30 23561 H 2231.04 -0.081537 -1.89825 0
M  V30 23562 H 2229.19 1.90359 -3.38667 0
M  V30 23563 H 2230.87 -0.409682 -4.59477 0
M  V30 23564 H 2229.11 -0.45434 -4.31414 0
M  V30 23565 H 2229.78 0.694079 -5.47619 0
M  V30 23566 H 2232.26 1.66652 -3.81269 0
M  V30 23567 H 2231.13 2.59813 -4.83516 0
M  V30 23568 H 2231.39 3.08419 -3.1675 0
M  V30 23569 N 2230.45 1.55637 0.247999 0
M  V30 23570 C 2231.7 1.77066 0.974264 0
M  V30 23571 C 2232.02 0.588882 1.85896 0
M  V30 23572 O 2231.29 -0.395373 1.91869 0
M  V30 23573 H 2229.87 0.653025 0.362722 0
M  V30 23574 H 2232.53 1.93073 0.26621 0
M  V30 23575 H 2231.63 2.68168 1.59662 0
M  V30 23576 N 2231.93 -0.513613 1.48996 0
M  V30 23577 C 2233.18 -1.27039 1.58079 0
M  V30 23578 C 2233.51 -1.92437 0.261059 0
M  V30 23579 O 2232.79 -1.80104 -0.734361 0
M  V30 23580 C 2233.07 -2.34714 2.73096 0
M  V30 23581 C 2232.92 -1.739 4.14824 0
M  V30 23582 C 2234.24 -3.3637 2.83802 0
M  V30 23583 H 2231.36 -0.460526 0.575399 0
M  V30 23584 H 2234 -0.570484 1.81233 0
M  V30 23585 H 2232.15 -2.94412 2.53484 0
M  V30 23586 H 2233.82 -1.18128 4.45919 0
M  V30 23587 H 2232.07 -1.04362 4.21059 0
M  V30 23588 H 2232.74 -2.5194 4.91152 0
M  V30 23589 H 2235.21 -2.86648 3.01616 0
M  V30 23590 H 2234.09 -4.09086 3.65978 0
M  V30 23591 H 2234.35 -3.97927 1.92631 0
M  V30 23592 N 2233.41 -1.37859 -0.763727 0
M  V30 23593 C 2234.66 -1.33245 -1.51954 0
M  V30 23594 C 2234.98 0.0801367 -1.94835 0
M  V30 23595 O 2234.25 1.02579 -1.66896 0
M  V30 23596 H 2232.83 -0.49025 -0.563617 0
M  V30 23597 H 2235.49 -1.72432 -0.908474 0
M  V30 23598 H 2234.59 -1.97673 -2.4152 0
M  V30 23599 N 2234.89 0.990791 -1.22561 0
M  V30 23600 C 2236.13 1.7332 -1.053 0
M  V30 23601 C 2236.47 1.89809 0.410622 0
M  V30 23602 O 2235.74 1.44279 1.30437 0
M  V30 23603 C 2236.02 3.13756 -1.76719 0
M  V30 23604 C 2235.88 3.04901 -3.30689 0
M  V30 23605 C 2237.2 4.12971 -1.52128 0
M  V30 23606 H 2234.32 0.629099 -0.383931 0
M  V30 23607 H 2236.96 1.15416 -1.50928 0
M  V30 23608 H 2235.11 3.63191 -1.3793 0
M  V30 23609 H 2236.78 2.6307 -3.78935 0
M  V30 23610 H 2235.02 2.41655 -3.60257 0
M  V30 23611 H 2235.69 4.04287 -3.7584 0
M  V30 23612 H 2238.17 3.72301 -1.85826 0
M  V30 23613 H 2237.05 5.09346 -2.04591 0
M  V30 23614 H 2237.31 4.39759 -0.454334 0
M  V30 23615 N 2236.37 1.03564 1.18795 0
M  V30 23616 C 2237.3 0.580376 2.2173 0
M  V30 23617 C 2238.31 -0.347321 1.59052 0
M  V30 23618 O 2239.5 -0.142638 1.77929 0
M  V30 23619 C 2236.6 -0.172746 3.38459 0
M  V30 23620 C 2235.77 0.761572 4.30719 0
M  V30 23621 C 2234.83 0.0526472 5.26174 0
M  V30 23622 O 2233.86 0.681432 5.65106 0
M  V30 23623 N 2235.06 -1.21576 5.67626 0
M  V30 23624 H 2237.82 1.4657 2.61414 0
M  V30 23625 H 2235.39 0.915499 1.3353 0
M  V30 23626 H 2237.38 -0.656722 3.99336 0
M  V30 23627 H 2235.95 -0.959549 2.97509 0
M  V30 23628 H 2235.17 1.42551 3.67523 0
M  V30 23629 H 2236.46 1.39634 4.89265 0
M  V30 23630 H 2235.85 -1.74722 5.38041 0
M  V30 23631 H 2234.41 -1.6441 6.30724 0
M  V30 23632 N 2237.84 -1.34926 0.814413 0
M  V30 23633 C 2238.79 -2.29668 0.228261 0
M  V30 23634 C 2239.76 -1.53186 -0.642137 0
M  V30 23635 O 2240.95 -1.81592 -0.585573 0
M  V30 23636 C 2238.09 -3.39651 -0.61083 0
M  V30 23637 C 2237.2 -4.31086 0.280868 0
M  V30 23638 C 2236.33 -5.28166 -0.566974 0
M  V30 23639 C 2235.37 -6.11239 0.324638 0
M  V30 23640 N 2234.51 -7.00432 -0.483633 0
M  V30 23641 H 2239.35 -2.79205 1.04158 0
M  V30 23642 H 2236.89 -1.37406 0.525157 0
M  V30 23643 H 2238.84 -4.02092 -1.11256 0
M  V30 23644 H 2237.47 -2.91371 -1.38934 0
M  V30 23645 H 2236.53 -3.69582 0.900753 0
M  V30 23646 H 2237.84 -4.89341 0.966809 0
M  V30 23647 H 2236.99 -5.96017 -1.13352 0
M  V30 23648 H 2235.73 -4.70427 -1.28645 0
M  V30 23649 H 2234.74 -5.42327 0.903394 0
M  V30 23650 H 2235.96 -6.71057 1.0421 0
M  V30 23651 H 2233.91 -6.45173 -1.18694 0
M  V30 23652 H 2233.82 -7.55863 0.144097 0
M  V30 23653 H 2235.09 -7.72622 -1.0332 0
M  V30 23654 N 2239.32 -0.56861 -1.46985 0
M  V30 23655 C 2240.23 0.175509 -2.33943 0
M  V30 23656 C 2241.25 0.900383 -1.48893 0
M  V30 23657 O 2242.42 0.866728 -1.81796 0
M  V30 23658 C 2239.49 1.18518 -3.25813 0
M  V30 23659 C 2238.55 0.466507 -4.26758 0
M  V30 23660 C 2237.78 1.42808 -5.14239 0
M  V30 23661 O 2238.01 2.6637 -5.04384 0
M  V30 23662 O 2236.94 0.946349 -5.94414 0
M  V30 23663 H 2240.77 -0.538089 -2.98895 0
M  V30 23664 H 2238.35 -0.329122 -1.4573 0
M  V30 23665 H 2240.23 1.76773 -3.8253 0
M  V30 23666 H 2238.91 1.8805 -2.63475 0
M  V30 23667 H 2237.81 -0.157517 -3.73768 0
M  V30 23668 H 2239.15 -0.187571 -4.91842 0
M  V30 23669 N 2240.8 1.54608 -0.305646 0
M  V30 23670 C 2242.05 1.99836 0.301666 0
M  V30 23671 C 2242.37 1.19553 1.54052 0
M  V30 23672 O 2241.64 0.292692 1.93701 0
M  V30 23673 H 2240.22 0.73818 0.114455 0
M  V30 23674 H 2242.88 1.90364 -0.41805 0
M  V30 23675 H 2241.98 3.06842 0.570494 0
M  V30 23676 N 2242.28 0.033457 1.57564 0
M  V30 23677 C 2243.52 -0.645193 1.92263 0
M  V30 23678 C 2243.86 -1.71529 0.910573 0
M  V30 23679 O 2243.13 -1.94388 -0.0660648 0
M  V30 23680 C 2243.41 -1.25765 3.37425 0
M  V30 23681 C 2243.27 -0.196812 4.49369 0
M  V30 23682 C 2244.59 -2.17442 3.82632 0
M  V30 23683 H 2241.71 -0.233073 0.699175 0
M  V30 23684 H 2244.35 0.0916027 1.89779 0
M  V30 23685 H 2242.5 -1.8856 3.39672 0
M  V30 23686 H 2244.17 0.434043 4.59253 0
M  V30 23687 H 2242.41 0.477213 4.31167 0
M  V30 23688 H 2243.08 -0.665027 5.47979 0
M  V30 23689 H 2245.56 -1.64628 3.82148 0
M  V30 23690 H 2244.44 -2.57246 4.84888 0
M  V30 23691 H 2244.7 -3.06734 3.18381 0
M  V30 23692 N 2243.76 -1.55766 -0.239741 0
M  V30 23693 C 2245 -1.77932 -0.96677 0
M  V30 23694 C 2245.33 -0.599047 -1.85045 0
M  V30 23695 O 2244.59 0.417362 -1.91198 0
M  V30 23696 C 2244.88 -3.05676 -1.85195 0
M  V30 23697 C 2244.55 -4.36691 -1.12303 0
M  V30 23698 C 2243.21 -4.72292 -0.921606 0
M  V30 23699 C 2245.56 -5.17654 -0.606928 0
M  V30 23700 C 2242.89 -5.86386 -0.191893 0
M  V30 23701 C 2245.24 -6.32505 0.109352 0
M  V30 23702 C 2243.91 -6.66722 0.32219 0
M  V30 23703 H 2243.18 -0.651099 -0.353766 0
M  V30 23704 H 2245.83 -1.90036 -0.236307 0
M  V30 23705 H 2244.13 -2.88614 -2.6497 0
M  V30 23706 H 2245.83 -3.20026 -2.41629 0
M  V30 23707 H 2242.42 -4.08727 -1.28997 0
M  V30 23708 H 2246.6 -4.90599 -0.750067 0
M  V30 23709 H 2241.86 -6.11398 -0.0165874 0
M  V30 23710 H 2246.03 -6.94479 0.516859 0
M  V30 23711 H 2243.66 -7.54977 0.889573 0
M  V30 23712 N 2245.23 0.505704 -1.49266 0
M  V30 23713 C 2246.18 1.60454 -1.61983 0
M  V30 23714 C 2247.17 1.53707 -0.475707 0
M  V30 23715 O 2248.36 1.61317 -0.72842 0
M  V30 23716 C 2245.49 2.99086 -1.68531 0
M  V30 23717 C 2244.57 3.10847 -2.88505 0
M  V30 23718 N 2244.97 2.9251 -4.1264 0
M  V30 23719 C 2243.26 3.4194 -2.86344 0
M  V30 23720 C 2243.96 3.08329 -4.93263 0
M  V30 23721 N 2242.94 3.36995 -4.26539 0
M  V30 23722 H 2246.74 1.44924 -2.55684 0
M  V30 23723 H 2244.26 0.711727 -1.45973 0
M  V30 23724 H 2246.25 3.7805 -1.75739 0
M  V30 23725 H 2244.91 3.15689 -0.759639 0
M  V30 23726 H 2245.92 2.6878 -4.42694 0
M  V30 23727 H 2242.6 3.64749 -2.03136 0
M  V30 23728 H 2243.99 2.98684 -6.01862 0
M  V30 23729 N 2246.71 1.38262 0.756405 0
M  V30 23730 C 2247.94 1.37542 1.54563 0
M  V30 23731 C 2248.36 -0.0354999 1.88767 0
M  V30 23732 O 2247.71 -1.00137 1.52574 0
M  V30 23733 C 2247.76 2.22838 2.8465 0
M  V30 23734 O 2247.48 3.58434 2.51906 0
M  V30 23735 C 2248.99 2.30268 3.78803 0
M  V30 23736 H 2246.21 0.470561 0.478344 0
M  V30 23737 H 2248.75 1.81804 0.936349 0
M  V30 23738 H 2246.9 1.82046 3.41962 0
M  V30 23739 H 2247.32 4.03314 3.35318 0
M  V30 23740 H 2248.79 2.94241 4.6704 0
M  V30 23741 H 2249.27 1.31552 4.19035 0
M  V30 23742 H 2249.88 2.71439 3.27416 0
M  V30 23743 N 2248.19 -0.984277 1.23084 0
M  V30 23744 C 2249.12 -2.07402 0.951822 0
M  V30 23745 C 2250.1 -1.62238 -0.108451 0
M  V30 23746 O 2251.29 -1.88483 0.0249798 0
M  V30 23747 C 2248.41 -3.35918 0.433201 0
M  V30 23748 C 2247.46 -4.00017 1.47948 0
M  V30 23749 S 2248.29 -4.39763 3.05563 0
M  V30 23750 C 2249.45 -5.71438 2.55361 0
M  V30 23751 H 2249.68 -2.30751 1.8746 0
M  V30 23752 H 2247.21 -1.11994 1.06286 0
M  V30 23753 H 2249.17 -4.10259 0.140578 0
M  V30 23754 H 2247.83 -3.10585 -0.468602 0
M  V30 23755 H 2247.03 -4.92583 1.06666 0
M  V30 23756 H 2246.63 -3.32037 1.72125 0
M  V30 23757 H 2248.92 -6.48184 1.9714 0
M  V30 23758 H 2249.86 -6.17557 3.46452 0
M  V30 23759 H 2250.27 -5.29252 1.96348 0
M  V30 23760 N 2249.67 -1.04192 -1.18244 0
M  V30 23761 C 2250.91 -0.756923 -1.88791 0
M  V30 23762 C 2251.27 0.707735 -1.7891 0
M  V30 23763 O 2250.56 1.50997 -1.17943 0
M  V30 23764 C 2250.76 -1.15917 -3.3808 0
M  V30 23765 C 2250.59 -2.66139 -3.62491 0
M  V30 23766 C 2249.36 -3.33304 -3.79785 0
M  V30 23767 C 2251.55 -3.64359 -3.6297 0
M  V30 23768 N 2249.54 -4.72494 -3.91947 0
M  V30 23769 C 2250.91 -4.89229 -3.80861 0
M  V30 23770 C 2252.96 -3.57971 -3.46065 0
M  V30 23771 C 2251.66 -6.08478 -3.83597 0
M  V30 23772 C 2253.69 -4.76649 -3.50085 0
M  V30 23773 C 2253.05 -6.00339 -3.68474 0
M  V30 23774 H 2249.15 -0.329053 -0.7094 0
M  V30 23775 H 2251.74 -1.33186 -1.4202 0
M  V30 23776 H 2249.91 -0.612306 -3.83543 0
M  V30 23777 H 2251.64 -0.825059 -3.96201 0
M  V30 23778 H 2248.39 -2.83708 -3.79219 0
M  V30 23779 H 2248.82 -5.44838 -4.01847 0
M  V30 23780 H 2253.46 -2.63317 -3.30793 0
M  V30 23781 H 2251.18 -7.03487 -3.97657 0
M  V30 23782 H 2254.76 -4.7335 -3.38277 0
M  V30 23783 H 2253.64 -6.90634 -3.71476 0
M  V30 23784 N 2251.15 1.34492 -0.821557 0
M  V30 23785 C 2252.1 2.26986 -0.214833 0
M  V30 23786 C 2253.08 1.48471 0.620099 0
M  V30 23787 O 2254.27 1.7051 0.474903 0
M  V30 23788 C 2251.4 3.3759 0.623506 0
M  V30 23789 C 2250.49 4.23519 -0.221978 0
M  V30 23790 N 2250.88 4.89012 -1.29232 0
M  V30 23791 C 2249.18 4.46 -0.00608762 0
M  V30 23792 C 2249.88 5.52832 -1.80975 0
M  V30 23793 N 2248.85 5.32066 -1.11385 0
M  V30 23794 H 2252.66 2.75126 -1.03359 0
M  V30 23795 H 2250.17 1.48195 -0.664226 0
M  V30 23796 H 2252.17 4.0282 1.07433 0
M  V30 23797 H 2250.83 2.91001 1.44044 0
M  V30 23798 H 2251.84 4.90062 -1.67511 0
M  V30 23799 H 2248.51 4.10172 0.778788 0
M  V30 23800 H 2249.9 6.15039 -2.70513 0
M  V30 23801 N 2252.62 0.576397 1.46681 0
M  V30 23802 C 2253.87 0.0596577 2.02712 0
M  V30 23803 C 2254.2 -1.29445 1.44767 0
M  V30 23804 O 2253.48 -1.84674 0.610387 0
M  V30 23805 C 2253.76 -0.012887 3.60098 0
M  V30 23806 C 2253.61 1.36967 4.28439 0
M  V30 23807 C 2254.93 -0.716704 4.34225 0
M  V30 23808 H 2252.05 0.0231537 0.736636 0
M  V30 23809 H 2254.69 0.742381 1.74896 0
M  V30 23810 H 2252.84 -0.594311 3.83927 0
M  V30 23811 H 2254.52 1.99578 4.15892 0
M  V30 23812 H 2252.76 1.93913 3.88046 0
M  V30 23813 H 2253.43 1.27145 5.37158 0
M  V30 23814 H 2255.91 -0.222834 4.15503 0
M  V30 23815 H 2254.78 -0.736475 5.43937 0
M  V30 23816 H 2255.04 -1.77675 4.04826 0
M  V30 23817 N 2254.1 -1.54444 0.313841 0
M  V30 23818 C 2255.33 -2.04802 -0.293882 0
M  V30 23819 C 2255.75 -1.1905 -1.46535 0
M  V30 23820 O 2255.1 -0.218971 -1.81182 0
M  V30 23821 C 2255.15 -3.53892 -0.737744 0
M  V30 23822 O 2254.87 -4.36386 0.387115 0
M  V30 23823 C 2256.38 -4.20302 -1.40929 0
M  V30 23824 H 2253.6 -0.66813 -0.061994 0
M  V30 23825 H 2256.14 -1.99324 0.457205 0
M  V30 23826 H 2254.29 -3.5969 -1.43883 0
M  V30 23827 H 2254.71 -5.24485 0.0392196 0
M  V30 23828 H 2256.18 -5.26104 -1.67089 0
M  V30 23829 H 2256.66 -3.7082 -2.35348 0
M  V30 23830 H 2257.27 -4.18616 -0.751043 0
M  V30 23831 N 2255.58 -0.0418125 -1.57545 0
M  V30 23832 C 2257 0.314677 -1.56467 0
M  V30 23833 C 2257.2 1.72064 -1.04862 0
M  V30 23834 O 2256.25 2.42573 -0.701025 0
M  V30 23835 C 2257.57 0.151687 -3.00317 0
M  V30 23836 C 2259.11 0.223498 -3.12201 0
M  V30 23837 C 2259.59 0.089149 -4.57913 0
M  V30 23838 N 2261.08 0.145727 -4.62971 0
M  V30 23839 C 2261.81 0.0657451 -5.73362 0
M  V30 23840 N 2261.31 -0.06605 -6.92769 0
M  V30 23841 N 2263.1 0.120652 -5.6197 0
M  V30 23842 H 2255.25 -0.961048 -1.89414 0
M  V30 23843 H 2257.52 -0.372252 -0.871856 0
M  V30 23844 H 2257.22 -0.817315 -3.42071 0
M  V30 23845 H 2257.1 0.916628 -3.65893 0
M  V30 23846 H 2259.48 1.18297 -2.70351 0
M  V30 23847 H 2259.57 -0.572037 -2.49322 0
M  V30 23848 H 2259.21 -0.866955 -5.00446 0
M  V30 23849 H 2259.14 0.903711 -5.18788 0
M  V30 23850 H 2261.63 0.24722 -3.7709 0
M  V30 23851 H 2261.94 -0.120041 -7.72707 0
M  V30 23852 H 2260.29 -0.101007 -6.94927 0
M  V30 23853 H 2263.48 0.222105 -4.67573 0
M  V30 23854 H 2263.65 0.0548596 -6.47977 0
M  V30 23855 N 2257.06 1.55891 0.231477 0
M  V30 23856 C 2258.31 1.7809 0.955429 0
M  V30 23857 C 2258.63 0.608565 1.85261 0
M  V30 23858 O 2257.9 -0.375001 1.92277 0
M  V30 23859 H 2256.48 0.656836 0.355775 0
M  V30 23860 H 2259.14 1.93345 0.245717 0
M  V30 23861 H 2258.24 2.69847 1.56809 0
M  V30 23862 N 2258.54 -0.497781 1.49532 0
M  V30 23863 C 2259.5 -1.58125 1.65919 0
M  V30 23864 C 2260.5 -1.51785 0.530851 0
M  V30 23865 O 2261.69 -1.54879 0.79737 0
M  V30 23866 C 2258.82 -2.97777 1.65956 0
M  V30 23867 H 2260.01 -1.44924 2.62559 0
M  V30 23868 H 2257.57 -0.722251 1.38612 0
M  V30 23869 H 2258.3 -3.16452 0.70912 0
M  V30 23870 H 2258.09 -3.03788 2.47902 0
M  V30 23871 H 2259.58 -3.7649 1.80679 0
M  V30 23872 N 2260.01 -1.38661 -0.749062 0
M  V30 23873 C 2261.26 -1.35317 -1.51054 0
M  V30 23874 C 2261.59 0.055341 -1.94121 0
M  V30 23875 O 2260.87 1.01746 -1.65765 0
M  V30 23876 C 2261.15 -2.31293 -2.75999 0
M  V30 23877 C 2261 -3.81024 -2.39041 0
M  V30 23878 C 2262.32 -2.25327 -3.78042 0
M  V30 23879 H 2259.44 -0.492854 -0.547963 0
M  V30 23880 H 2262.08 -1.69544 -0.857598 0
M  V30 23881 H 2260.23 -2.02235 -3.31713 0
M  V30 23882 H 2261.91 -4.20775 -1.89067 0
M  V30 23883 H 2260.15 -3.98485 -1.71442 0
M  V30 23884 H 2260.82 -4.43646 -3.28454 0
M  V30 23885 H 2263.3 -2.50989 -3.31879 0
M  V30 23886 H 2262.17 -2.94584 -4.63154 0
M  V30 23887 H 2262.43 -1.2536 -4.23954 0
M  V30 23888 N 2261.49 0.977736 -1.23605 0
M  V30 23889 C 2262.42 2.08858 -1.04405 0
M  V30 23890 C 2263.4 1.70053 0.0398754 0
M  V30 23891 O 2264.59 1.93795 -0.12528 0
M  V30 23892 C 2261.72 3.41402 -0.637329 0
M  V30 23893 C 2260.67 3.94121 -1.6689 0
M  V30 23894 C 2260 5.22891 -1.11754 0
M  V30 23895 C 2261.3 4.2309 -3.06255 0
M  V30 23896 H 2262.99 2.25178 -1.9732 0
M  V30 23897 H 2260.54 1.08207 -0.950115 0
M  V30 23898 H 2262.49 4.18541 -0.490054 0
M  V30 23899 H 2261.22 3.24954 0.3275 0
M  V30 23900 H 2259.88 3.1913 -1.80421 0
M  V30 23901 H 2259.52 5.02795 -0.143615 0
M  V30 23902 H 2259.22 5.59131 -1.80682 0
M  V30 23903 H 2260.75 6.02649 -0.982173 0
M  V30 23904 H 2262.16 4.9097 -2.9601 0
M  V30 23905 H 2260.56 4.70537 -3.72445 0
M  V30 23906 H 2261.63 3.30257 -3.55047 0
M  V30 23907 N 2262.97 1.04818 1.1769 0
M  V30 23908 C 2264.2 0.776288 1.91785 0
M  V30 23909 C 2264.61 -0.667546 1.76605 0
M  V30 23910 O 2263.97 -1.45571 1.1007 0
M  V30 23911 C 2264.02 1.14269 3.42965 0
M  V30 23912 O 2263.74 2.52984 3.57674 0
M  V30 23913 C 2265.24 0.896388 4.34143 0
M  V30 23914 H 2262.46 0.28253 0.60862 0
M  V30 23915 H 2265.01 1.39785 1.49266 0
M  V30 23916 H 2263.16 0.565942 3.83244 0
M  V30 23917 H 2263.58 2.67236 4.51315 0
M  V30 23918 H 2265.05 1.20254 5.38742 0
M  V30 23919 H 2265.53 -0.168559 4.38876 0
M  V30 23920 H 2266.13 1.45679 3.99572 0
M  V30 23921 N 2264.45 -1.34055 0.828678 0
M  V30 23922 C 2265.4 -2.26868 0.226867 0
M  V30 23923 C 2266.38 -1.48798 -0.612217 0
M  V30 23924 O 2267.58 -1.70759 -0.465854 0
M  V30 23925 C 2264.7 -3.37916 -0.605594 0
M  V30 23926 C 2263.79 -4.23395 0.244435 0
M  V30 23927 N 2264.18 -4.8832 1.31823 0
M  V30 23928 C 2262.48 -4.4599 0.02974 0
M  V30 23929 C 2263.18 -5.51864 1.83904 0
M  V30 23930 N 2262.16 -5.31468 1.14206 0
M  V30 23931 H 2265.96 -2.74574 1.04816 0
M  V30 23932 H 2263.47 -1.47841 0.672076 0
M  V30 23933 H 2265.47 -4.03384 -1.05295 0
M  V30 23934 H 2264.13 -2.91761 -1.42498 0
M  V30 23935 H 2265.14 -4.89167 1.70107 0
M  V30 23936 H 2261.82 -4.10579 -0.757024 0
M  V30 23937 H 2263.21 -6.13595 2.73771 0
M  V30 23938 N 2265.93 -0.584167 -1.46374 0
M  V30 23939 C 2266.88 0.161006 -2.32042 0
M  V30 23940 C 2267.87 0.88294 -1.4457 0
M  V30 23941 O 2269.08 0.801163 -1.61187 0
M  V30 23942 H 2265.45 0.0707902 -0.748661 0
M  V30 23943 H 2267.42 -0.58032 -2.92703 0
M  V30 23944 C 2266.17 1.16044 -3.27764 0
M  V30 23945 H 2265.49 0.61435 -3.95052 0
M  V30 23946 H 2266.93 1.65221 -3.90484 0
M  V30 23947 C 2265.39 2.22216 -2.53222 0
M  V30 23948 O 2265.92 3.29593 -2.29634 0
M  V30 23949 N 2264.13 1.96864 -2.13759 0
M  V30 23950 H 2263.68 1.09553 -2.33143 0
M  V30 23951 H 2263.63 2.68112 -1.64204 0
M  V30 23952 N 2267.41 1.54275 -0.322027 0
M  V30 23953 C 2268.65 2.00145 0.280454 0
M  V30 23954 C 2268.97 1.2118 1.52775 0
M  V30 23955 O 2268.24 0.313221 1.9338 0
M  V30 23956 H 2266.82 0.739352 0.106619 0
M  V30 23957 H 2269.49 1.8991 -0.438217 0
M  V30 23958 H 2268.58 3.07429 0.537917 0
M  V30 23959 N 2268.88 0.0501669 1.5752 0
M  V30 23960 C 2269.83 -0.924566 2.11472 0
M  V30 23961 C 2270.8 -1.30949 1.02184 0
M  V30 23962 O 2271.99 -1.39914 1.29726 0
M  V30 23963 C 2269.13 -2.19446 2.66341 0
M  V30 23964 C 2268.24 -1.86411 3.89711 0
M  V30 23965 C 2267.37 -3.07851 4.32899 0
M  V30 23966 C 2266.41 -2.70733 5.48972 0
M  V30 23967 N 2265.55 -3.84863 5.87218 0
M  V30 23968 H 2270.39 -0.457588 2.94466 0
M  V30 23969 H 2267.93 -0.214241 1.45532 0
M  V30 23970 H 2269.88 -2.93753 2.96252 0
M  V30 23971 H 2268.51 -2.63723 1.86146 0
M  V30 23972 H 2267.57 -1.02257 3.66398 0
M  V30 23973 H 2268.88 -1.55088 4.74077 0
M  V30 23974 H 2268.03 -3.90458 4.64357 0
M  V30 23975 H 2266.77 -3.42352 3.47342 0
M  V30 23976 H 2265.78 -1.86542 5.17187 0
M  V30 23977 H 2267 -2.37425 6.36244 0
M  V30 23978 H 2264.95 -4.19166 5.04614 0
M  V30 23979 H 2264.86 -3.57235 6.66273 0
M  V30 23980 H 2266.13 -4.68113 6.2329 0
M  V30 23981 N 2270.36 -1.56011 -0.223207 0
M  V30 23982 C 2271.78 -1.48966 -0.57283 0
M  V30 23983 C 2271.98 -0.744952 -1.87224 0
M  V30 23984 O 2271.03 -0.28394 -2.50898 0
M  V30 23985 C 2272.35 -2.93511 -0.653594 0
M  V30 23986 C 2273.89 -3.04021 -0.744333 0
M  V30 23987 C 2274.37 -4.49921 -0.856456 0
M  V30 23988 N 2275.86 -4.53957 -0.92072 0
M  V30 23989 C 2276.6 -5.64125 -1.02716 0
M  V30 23990 N 2276.09 -6.84049 -1.09764 0
M  V30 23991 N 2277.88 -5.51973 -1.06216 0
M  V30 23992 H 2270.04 -2.02857 0.629498 0
M  V30 23993 H 2272.3 -0.921967 0.220637 0
M  V30 23994 H 2272 -3.50937 0.23158 0
M  V30 23995 H 2271.88 -3.45318 -1.51775 0
M  V30 23996 H 2274.27 -2.46661 -1.61995 0
M  V30 23997 H 2274.35 -2.55386 0.145455 0
M  V30 23998 H 2273.99 -5.07898 0.0146961 0
M  V30 23999 H 2273.92 -4.9626 -1.76164 0
M  V30 24000 H 2276.41 -3.67592 -0.87663 0
M  V30 24001 H 2276.72 -7.6376 -1.17859 0
M  V30 24002 H 2275.07 -6.86764 -1.06681 0
M  V30 24003 H 2278.26 -4.57212 -1.00374 0
M  V30 24004 H 2278.43 -6.37864 -1.14166 0
M  V30 24005 N 2271.84 0.489844 -1.49794 0
M  V30 24006 C 2272.77 1.59853 -1.70203 0
M  V30 24007 C 2273.75 1.60936 -0.550789 0
M  V30 24008 O 2274.94 1.775 -0.787872 0
M  V30 24009 C 2272.07 2.98284 -1.77888 0
M  V30 24010 C 2271.02 3.12068 -2.92912 0
M  V30 24011 C 2270.35 4.5196 -2.8572 0
M  V30 24012 C 2271.65 2.91043 -4.33695 0
M  V30 24013 H 2273.34 1.43027 -2.63028 0
M  V30 24014 H 2270.89 0.686642 -1.26575 0
M  V30 24015 H 2272.84 3.75755 -1.90751 0
M  V30 24016 H 2271.56 3.16224 -0.816708 0
M  V30 24017 H 2270.22 2.37024 -2.79669 0
M  V30 24018 H 2269.87 4.66792 -1.87388 0
M  V30 24019 H 2269.57 4.62122 -3.62929 0
M  V30 24020 H 2271.09 5.31477 -3.00607 0
M  V30 24021 H 2272.51 3.58276 -4.47561 0
M  V30 24022 H 2270.9 3.12666 -5.12211 0
M  V30 24023 H 2271.97 1.87063 -4.47365 0
M  V30 24024 N 2273.32 1.39056 0.741698 0
M  V30 24025 C 2274.23 1.395 1.88619 0
M  V30 24026 C 2275.24 0.290608 1.71556 0
M  V30 24027 O 2276.42 0.530988 1.94274 0
M  V30 24028 C 2273.48 1.23042 3.24132 0
M  V30 24029 C 2272.55 2.43393 3.53636 0
M  V30 24030 C 2271.78 2.27711 4.82683 0
M  V30 24031 O 2272 1.27706 5.5592 0
M  V30 24032 O 2270.94 3.16554 5.11935 0
M  V30 24033 H 2274.76 2.35959 1.91199 0
M  V30 24034 H 2272.35 1.20101 0.888604 0
M  V30 24035 H 2274.23 1.15971 4.05128 0
M  V30 24036 H 2272.9 0.296747 3.22337 0
M  V30 24037 H 2271.81 2.5604 2.72753 0
M  V30 24038 H 2273.14 3.35431 3.60204 0
M  V30 24039 N 2274.8 -0.971167 1.24121 0
M  V30 24040 C 2276.21 -1.52829 1.07239 0
M  V30 24041 C 2276.56 -1.92919 -0.357318 0
M  V30 24042 O 2275.68 -1.76982 -1.24525 0
M  V30 24043 C 2276.28 -2.77724 1.94048 0
M  V30 24044 C 2274.84 -3.29805 1.81399 0
M  V30 24045 C 2273.98 -2.02735 1.89193 0
M  V30 24046 H 2276.93 -0.78984 1.37649 0
M  V30 24047 H 2276.96 -3.50927 1.47072 0
M  V30 24048 H 2276.47 -2.48515 2.98097 0
M  V30 24049 H 2274.57 -3.63873 0.801698 0
M  V30 24050 H 2274.68 -3.98939 2.65301 0
M  V30 24051 H 2273.05 -2.1729 1.32881 0
M  V30 24052 H 2273.83 -1.75895 2.94815 0
M  V30 24053 N 2276.27 -1.05441 -1.17133 0
M  V30 24054 C 2277.22 -0.65155 -2.23288 0
M  V30 24055 C 2278.22 0.328382 -1.66187 0
M  V30 24056 O 2279.42 0.194174 -1.7895 0
M  V30 24057 H 2275.8 -0.192536 -0.726935 0
M  V30 24058 H 2277.77 -1.55694 -2.54562 0
M  V30 24059 C 2276.52 -0.0449047 -3.47671 0
M  V30 24060 H 2275.84 -0.790029 -3.91917 0
M  V30 24061 H 2277.28 0.199566 -4.2353 0
M  V30 24062 C 2275.74 1.20912 -3.14455 0
M  V30 24063 O 2276.27 2.29819 -3.29463 0
M  V30 24064 N 2274.48 1.10774 -2.68659 0
M  V30 24065 H 2274.02 0.221481 -2.56646 0
M  V30 24066 H 2273.98 1.94766 -2.46807 0
M  V30 24067 N 2277.75 1.33613 -0.835776 0
M  V30 24068 C 2279 1.98587 -0.439852 0
M  V30 24069 C 2279.35 1.6502 0.989245 0
M  V30 24070 O 2278.65 0.918189 1.68166 0
M  V30 24071 C 2278.84 3.5243 -0.593987 0
M  V30 24072 C 2278.67 4.00944 -2.03652 0
M  V30 24073 C 2277.44 4.28929 -2.67111 0
M  V30 24074 C 2279.64 4.17388 -3.00486 0
M  V30 24075 N 2277.62 4.63563 -4.0247 0
M  V30 24076 C 2278.99 4.55346 -4.20785 0
M  V30 24077 C 2281.05 3.99669 -2.96933 0
M  V30 24078 C 2279.75 4.77437 -5.38002 0
M  V30 24079 C 2281.77 4.22934 -4.13377 0
M  V30 24080 C 2281.14 4.61192 -5.3243 0
M  V30 24081 H 2277.24 0.753466 -0.209316 0
M  V30 24082 H 2279.82 1.61787 -1.08319 0
M  V30 24083 H 2277.99 3.88395 0.0195307 0
M  V30 24084 H 2279.72 4.04344 -0.169809 0
M  V30 24085 H 2276.48 4.20306 -2.18266 0
M  V30 24086 H 2276.9 4.85095 -4.72241 0
M  V30 24087 H 2281.54 3.69208 -2.06022 0
M  V30 24088 H 2279.26 5.0676 -6.2946 0
M  V30 24089 H 2282.85 4.10747 -4.12041 0
M  V30 24090 H 2281.73 4.78837 -6.21035 0
M  V30 24091 N 2279.23 0.591922 1.46062 0
M  V30 24092 C 2280.19 -0.125933 2.28854 0
M  V30 24093 C 2281.19 -0.810083 1.38904 0
M  V30 24094 O 2282.38 -0.660632 1.61187 0
M  V30 24095 C 2279.52 -1.18804 3.19528 0
M  V30 24096 H 2280.71 0.601768 2.93801 0
M  V30 24097 H 2278.26 0.350281 1.52324 0
M  V30 24098 H 2279 -1.94702 2.59348 0
M  V30 24099 H 2278.78 -0.701868 3.85767 0
M  V30 24100 H 2280.27 -1.69125 3.8182 0
M  V30 24101 N 2280.71 -1.54102 0.330204 0
M  V30 24102 C 2281.93 -2.05571 -0.274857 0
M  V30 24103 C 2282.36 -1.20439 -1.44485 0
M  V30 24104 O 2281.72 -0.215023 -1.8002 0
M  V30 24105 C 2281.76 -3.54116 -0.680727 0
M  V30 24106 O 2280.87 -3.71896 -1.78234 0
M  V30 24107 H 2280.21 -0.662236 -0.0483732 0
M  V30 24108 H 2282.74 -1.98877 0.480543 0
M  V30 24109 H 2282.75 -3.96507 -0.961565 0
M  V30 24110 H 2281.42 -4.15532 0.174976 0
M  V30 24111 H 2280 -3.4141 -1.49979 0
M  V30 24112 N 2282.19 -0.0585199 -1.57491 0
M  V30 24113 C 2283.43 0.614524 -1.93265 0
M  V30 24114 C 2283.77 1.70059 -0.937746 0
M  V30 24115 O 2283.04 1.94468 0.0351311 0
M  V30 24116 C 2283.32 1.2038 -3.39383 0
M  V30 24117 C 2283.18 0.125296 -4.49625 0
M  V30 24118 C 2284.5 2.11327 -3.86043 0
M  V30 24119 H 2281.61 0.22192 -0.702795 0
M  V30 24120 H 2284.26 -0.121783 -1.89609 0
M  V30 24121 H 2282.41 1.83133 -3.42629 0
M  V30 24122 H 2284.08 -0.507051 -4.58505 0
M  V30 24123 H 2282.32 -0.545747 -4.30353 0
M  V30 24124 H 2282.99 0.577765 -5.48968 0
M  V30 24125 H 2285.47 1.58527 -3.84719 0
M  V30 24126 H 2284.34 2.49499 -4.88919 0
M  V30 24127 H 2284.61 3.0163 -3.23221 0
M  V30 24128 N 2283.66 1.56128 0.21493 0
M  V30 24129 C 2284.61 1.92954 1.26639 0
M  V30 24130 C 2285.58 0.787555 1.46242 0
M  V30 24131 O 2286.77 1.04402 1.59702 0
M  V30 24132 C 2283.91 2.2573 2.61036 0
M  V30 24133 C 2283.02 3.52895 2.49177 0
M  V30 24134 C 2282.15 3.75087 3.76143 0
M  V30 24135 C 2281.19 4.95744 3.59033 0
M  V30 24136 N 2280.33 5.14291 4.77963 0
M  V30 24137 H 2285.17 2.82608 0.945334 0
M  V30 24138 H 2282.71 1.39871 0.455465 0
M  V30 24139 H 2284.67 2.42745 3.39309 0
M  V30 24140 H 2283.3 1.39241 2.91225 0
M  V30 24141 H 2282.35 3.44037 1.62304 0
M  V30 24142 H 2283.66 4.41322 2.32458 0
M  V30 24143 H 2282.81 3.92234 4.62858 0
M  V30 24144 H 2281.55 2.84954 3.95794 0
M  V30 24145 H 2280.56 4.7854 2.70701 0
M  V30 24146 H 2281.78 5.87368 3.40846 0
M  V30 24147 H 2279.73 4.27102 4.97916 0
M  V30 24148 H 2279.65 5.96862 4.63996 0
M  V30 24149 H 2280.91 5.35879 5.66086 0
M  V30 24150 N 2285.14 -0.481893 1.50052 0
M  V30 24151 C 2286.09 -1.58122 1.68125 0
M  V30 24152 C 2287.06 -1.57665 0.522573 0
M  V30 24153 O 2288.24 -1.75361 0.751874 0
M  V30 24154 C 2285.38 -2.96164 1.77147 0
M  V30 24155 C 2284.5 -3.06491 3.04445 0
M  V30 24156 C 2283.63 -4.35382 3.04329 0
M  V30 24157 C 2282.67 -4.39412 4.26126 0
M  V30 24158 N 2281.81 -5.59758 4.2381 0
M  V30 24159 H 2286.65 -1.42017 2.61983 0
M  V30 24160 H 2284.19 -0.690664 1.29878 0
M  V30 24161 H 2286.14 -3.762 1.80358 0
M  V30 24162 H 2284.77 -3.10928 0.867383 0
M  V30 24163 H 2283.83 -2.19396 3.10756 0
M  V30 24164 H 2285.14 -3.05329 3.94431 0
M  V30 24165 H 2284.29 -5.23756 3.06209 0
M  V30 24166 H 2283.03 -4.39138 2.12154 0
M  V30 24167 H 2282.04 -3.49437 4.24469 0
M  V30 24168 H 2283.26 -4.37357 5.19515 0
M  V30 24169 H 2281.21 -5.6432 3.34484 0
M  V30 24170 H 2281.12 -5.60292 5.07552 0
M  V30 24171 H 2282.39 -6.50287 4.29821 0
M  V30 24172 N 2286.62 -1.39448 -0.734313 0
M  V30 24173 C 2287.9 -1.27217 -1.48577 0
M  V30 24174 C 2288.28 0.117931 -2.1077 0
M  V30 24175 O 2287.63 1.12921 -1.98648 0
M  V30 24176 C 2287.84 -2.397 -2.53663 0
M  V30 24177 C 2289.18 -2.7905 -3.20026 0
M  V30 24178 O 2290.21 -2.39155 -2.63976 0
M  V30 24179 O 2289.07 -3.47912 -4.21449 0
M  V30 24180 H 2286.16 -0.498582 -0.659807 0
M  V30 24181 H 2288.71 -1.51323 -0.76808 0
M  V30 24182 H 2287.48 -3.3263 -2.0609 0
M  V30 24183 H 2287.1 -2.17264 -3.3299 0
M  V30 24184 N 2288.1 0.964571 -1.24635 0
M  V30 24185 C 2289.03 2.07739 -1.06614 0
M  V30 24186 C 2290.01 1.70086 0.0218367 0
M  V30 24187 O 2291.19 1.93652 -0.145827 0
M  V30 24188 C 2288.32 3.40707 -0.673503 0
M  V30 24189 C 2287.28 3.92329 -1.71061 0
M  V30 24190 C 2286.6 5.21676 -1.17294 0
M  V30 24191 C 2287.9 4.19818 -3.10725 0
M  V30 24192 H 2289.6 2.23073 -1.99697 0
M  V30 24193 H 2287.14 1.07193 -0.961539 0
M  V30 24194 H 2289.1 4.17998 -0.534418 0
M  V30 24195 H 2287.82 3.25283 0.293016 0
M  V30 24196 H 2286.48 3.17198 -1.83796 0
M  V30 24197 H 2286.13 5.02614 -0.196935 0
M  V30 24198 H 2285.83 5.57183 -1.86602 0
M  V30 24199 H 2287.35 6.01573 -1.04604 0
M  V30 24200 H 2288.77 4.87802 -3.01201 0
M  V30 24201 H 2287.16 4.6656 -3.77414 0
M  V30 24202 H 2288.23 3.26473 -3.5853 0
M  V30 24203 N 2289.58 1.0606 1.16572 0
M  V30 24204 C 2290.83 0.770977 1.86384 0
M  V30 24205 C 2291.14 -0.705097 1.82449 0
M  V30 24206 O 2292.34 -1.10901 2.47817 0
M  V30 24207 C 2290.8 1.32899 3.34464 0
M  V30 24208 C 2290.41 2.83513 3.46878 0
M  V30 24209 C 2292.15 1.1168 4.09546 0
M  V30 24210 C 2290.06 3.32571 4.8903 0
M  V30 24211 H 2288.99 0.284721 0.698176 0
M  V30 24212 H 2291.64 1.27901 1.31581 0
M  V30 24213 H 2290.02 0.748731 3.88857 0
M  V30 24214 H 2291.2 3.4747 3.02657 0
M  V30 24215 H 2289.51 3.03373 2.85226 0
M  V30 24216 H 2292.11 1.45823 5.14431 0
M  V30 24217 H 2292.45 0.0550267 4.16264 0
M  V30 24218 H 2292.98 1.66272 3.61384 0
M  V30 24219 H 2289.72 4.38216 4.87491 0
M  V30 24220 H 2289.24 2.73361 5.33886 0
M  V30 24221 H 2290.92 3.2776 5.57837 0
M  V30 24222 N 2291.06 -1.33168 0.84285 0
M  V30 24223 C 2292.28 -2.02389 0.453164 0
M  V30 24224 C 2292.71 -1.62981 -0.939077 0
M  V30 24225 O 2292.06 -0.824429 -1.61471 0
M  V30 24226 C 2292.11 -3.55804 0.586156 0
M  V30 24227 O 2291.22 -4.1059 -0.385957 0
M  V30 24228 H 2290.56 -0.63809 0.183675 0
M  V30 24229 H 2293.09 -1.69979 1.13878 0
M  V30 24230 H 2293.1 -4.05292 0.46928 0
M  V30 24231 H 2291.77 -3.8383 1.60147 0
M  V30 24232 H 2290.35 -3.72213 -0.226305 0
M  V30 24233 N 2292.53 -0.599659 -1.45746 0
M  V30 24234 C 2293.76 -0.0977495 -2.06369 0
M  V30 24235 C 2294.17 1.21983 -1.44627 0
M  V30 24236 O 2293.51 1.75215 -0.551862 0
M  V30 24237 C 2293.58 0.12461 -3.59284 0
M  V30 24238 C 2293.24 -1.10995 -4.43316 0
M  V30 24239 C 2294.24 -2.02617 -4.78793 0
M  V30 24240 C 2291.92 -1.33655 -4.84192 0
M  V30 24241 C 2293.92 -3.15234 -5.53991 0
M  V30 24242 C 2291.6 -2.46574 -5.59146 0
M  V30 24243 C 2292.6 -3.37192 -5.93962 0
M  V30 24244 O 2292.29 -4.48147 -6.67397 0
M  V30 24245 H 2292.02 -0.0623272 -0.673121 0
M  V30 24246 H 2294.58 -0.825014 -1.88103 0
M  V30 24247 H 2292.81 0.906679 -3.75921 0
M  V30 24248 H 2294.49 0.577131 -4.01776 0
M  V30 24249 H 2295.26 -1.86332 -4.47778 0
M  V30 24250 H 2291.14 -0.64024 -4.56533 0
M  V30 24251 H 2294.68 -3.85988 -5.81084 0
M  V30 24252 H 2290.58 -2.62815 -5.89575 0
M  V30 24253 H 2291.35 -4.46729 -6.85839 0
M  V30 24254 N 2294.01 1.53925 -0.338371 0
M  V30 24255 C 2295.26 2.00431 0.25921 0
M  V30 24256 C 2295.58 1.22794 1.51481 0
M  V30 24257 O 2294.85 0.333713 1.93037 0
M  V30 24258 H 2293.43 0.740441 0.0987715 0
M  V30 24259 H 2296.09 1.89434 -0.458335 0
M  V30 24260 H 2295.19 3.07983 0.50528 0
M  V30 24261 N 2295.49 0.0668712 1.57458 0
M  V30 24262 C 2296.74 -0.60218 1.9292 0
M  V30 24263 C 2297.06 -1.70447 0.947245 0
M  V30 24264 O 2296.33 -1.95899 -0.00540674 0
M  V30 24265 H 2294.91 -0.225428 0.712174 0
M  V30 24266 H 2297.57 0.123569 1.94508 0
M  V30 24267 H 2296.67 -1.03067 2.9459 0
M  V30 24268 N 2296.97 -1.56239 -0.206647 0
M  V30 24269 C 2298.22 -1.79587 -0.926976 0
M  V30 24270 C 2298.54 -0.637962 -1.84269 0
M  V30 24271 O 2297.81 0.344364 -1.9285 0
M  V30 24272 H 2296.39 -0.662413 -0.34528 0
M  V30 24273 H 2299.05 -1.93711 -0.214926 0
M  V30 24274 H 2298.14 -2.72307 -1.52496 0
M  V30 24275 N 2298.45 0.473929 -1.50305 0
M  V30 24276 C 2299.69 1.22518 -1.6236 0
M  V30 24277 C 2300.05 1.89744 -0.318588 0
M  V30 24278 O 2299.34 1.79002 0.683284 0
M  V30 24279 C 2299.53 2.29544 -2.73942 0
M  V30 24280 C 2299.36 1.72817 -4.15168 0
M  V30 24281 C 2298.13 1.52915 -4.81607 0
M  V30 24282 C 2300.33 1.22472 -4.99505 0
M  V30 24283 N 2298.31 0.914023 -6.07058 0
M  V30 24284 C 2299.68 0.732635 -6.15656 0
M  V30 24285 C 2301.74 1.113 -4.85301 0
M  V30 24286 C 2300.44 0.139849 -7.19164 0
M  V30 24287 C 2302.47 0.534155 -5.88983 0
M  V30 24288 C 2301.83 0.0524324 -7.0438 0
M  V30 24289 H 2297.93 0.437309 -0.648294 0
M  V30 24290 H 2300.51 0.527659 -1.87414 0
M  V30 24291 H 2298.68 2.96726 -2.50616 0
M  V30 24292 H 2300.42 2.96569 -2.75371 0
M  V30 24293 H 2297.17 1.7806 -4.38853 0
M  V30 24294 H 2297.59 0.624952 -6.74109 0
M  V30 24295 H 2302.24 1.47137 -3.96372 0
M  V30 24296 H 2299.95 -0.230733 -8.07771 0
M  V30 24297 H 2303.54 0.450117 -5.80056 0
M  V30 24298 H 2302.42 -0.388462 -7.83237 0
M  V30 24299 N 2299.92 1.39835 0.726907 0
M  V30 24300 C 2301.34 1.21617 1.03352 0
M  V30 24301 C 2301.54 0.0834153 2.01327 0
M  V30 24302 O 2300.6 -0.562337 2.46159 0
M  V30 24303 C 2301.91 2.55345 1.58806 0
M  V30 24304 C 2303.46 2.6226 1.70847 0
M  V30 24305 C 2303.93 3.96229 2.29709 0
M  V30 24306 N 2305.42 3.97912 2.37109 0
M  V30 24307 C 2306.16 4.9835 2.8361 0
M  V30 24308 N 2305.65 6.09185 3.29947 0
M  V30 24309 N 2307.45 4.85725 2.82892 0
M  V30 24310 H 2299.6 2.12259 0.0772696 0
M  V30 24311 H 2301.86 0.943035 0.0968937 0
M  V30 24312 H 2301.57 3.38828 0.942796 0
M  V30 24313 H 2301.44 2.75636 2.57497 0
M  V30 24314 H 2303.83 1.79156 2.34493 0
M  V30 24315 H 2303.91 2.45811 0.70787 0
M  V30 24316 H 2303.55 4.79768 1.66688 0
M  V30 24317 H 2303.48 4.10003 3.30462 0
M  V30 24318 H 2305.97 3.17871 2.04368 0
M  V30 24319 H 2306.29 6.81726 3.63964 0
M  V30 24320 H 2304.63 6.12767 3.27935 0
M  V30 24321 H 2307.82 3.98236 2.4602 0
M  V30 24322 H 2308 5.64145 3.18817 0
M  V30 24323 N 2301.4 -0.957948 1.25144 0
M  V30 24324 C 2302.33 -2.07171 1.07715 0
M  V30 24325 C 2303.31 -1.70095 -0.0128163 0
M  V30 24326 O 2304.5 -1.93572 0.156095 0
M  V30 24327 C 2301.63 -3.40345 0.691562 0
M  V30 24328 C 2300.58 -3.91416 1.73139 0
M  V30 24329 C 2299.91 -5.21047 1.20059 0
M  V30 24330 C 2301.21 -4.18164 3.12947 0
M  V30 24331 H 2302.9 -2.22011 2.00877 0
M  V30 24332 H 2300.45 -1.06682 0.96721 0
M  V30 24333 H 2302.4 -4.17708 0.556578 0
M  V30 24334 H 2301.12 -3.25434 -0.275761 0
M  V30 24335 H 2299.78 -3.16219 1.85476 0
M  V30 24336 H 2299.43 -5.02503 0.223587 0
M  V30 24337 H 2299.13 -5.56186 1.89554 0
M  V30 24338 H 2300.66 -6.0101 1.07792 0
M  V30 24339 H 2302.07 -4.86198 3.03783 0
M  V30 24340 H 2300.47 -4.64552 3.79883 0
M  V30 24341 H 2301.54 -3.24567 3.60256 0
M  V30 24342 N 2302.88 -1.06677 -1.16008 0
M  V30 24343 C 2304.1 -0.80674 -1.91067 0
M  V30 24344 C 2304.53 0.633454 -1.77113 0
M  V30 24345 O 2303.89 1.44185 -1.0991 0
M  V30 24346 C 2303.94 -1.21112 -3.39653 0
M  V30 24347 O 2303.04 -0.352262 -4.10893 0
M  V30 24348 H 2302.38 -0.294497 -0.59512 0
M  V30 24349 H 2304.91 -1.42359 -1.46953 0
M  V30 24350 H 2304.92 -1.18435 -3.90432 0
M  V30 24351 H 2303.6 -2.26014 -3.49128 0
M  V30 24352 H 2302.17 -0.440933 -3.70284 0
M  V30 24353 N 2304.36 1.32719 -0.8499 0
M  V30 24354 C 2305.32 2.27279 -0.296162 0
M  V30 24355 C 2306.32 1.51411 0.541432 0
M  V30 24356 O 2307.51 1.70573 0.353628 0
M  V30 24357 C 2304.64 3.35903 0.58152 0
M  V30 24358 H 2305.84 2.77769 -1.13069 0
M  V30 24359 H 2303.39 1.4331 -0.623855 0
M  V30 24360 H 2304.12 2.90673 1.43804 0
M  V30 24361 H 2303.91 3.92096 -0.0179503 0
M  V30 24362 H 2305.4 4.06371 0.961879 0
M  V30 24363 N 2305.84 0.60738 1.45426 0
M  V30 24364 C 2306.77 -0.149711 2.28711 0
M  V30 24365 C 2307.78 -0.831933 1.39938 0
M  V30 24366 O 2308.97 -0.697356 1.64314 0
M  V30 24367 C 2306.07 -1.23299 3.15675 0
M  V30 24368 C 2305.24 -0.63792 4.32723 0
M  V30 24369 C 2304.3 -1.61206 5.00898 0
M  V30 24370 O 2303.33 -1.13844 5.57699 0
M  V30 24371 N 2304.53 -2.94646 5.00164 0
M  V30 24372 H 2307.3 0.564934 2.94327 0
M  V30 24373 H 2304.86 0.446851 1.55611 0
M  V30 24374 H 2306.85 -1.88447 3.58148 0
M  V30 24375 H 2305.42 -1.85016 2.51968 0
M  V30 24376 H 2304.64 0.191641 3.93734 0
M  V30 24377 H 2305.93 -0.220575 5.08322 0
M  V30 24378 H 2305.32 -3.35727 4.55306 0
M  V30 24379 H 2303.88 -3.55218 5.46501 0
M  V30 24380 N 2307.31 -1.53743 0.34653 0
M  V30 24381 C 2308.56 -2.01954 -0.2421 0
M  V30 24382 C 2308.92 -1.22986 -1.4796 0
M  V30 24383 O 2308.21 -0.309957 -1.89076 0
M  V30 24384 C 2308.4 -3.52229 -0.605747 0
M  V30 24385 C 2308.23 -4.45747 0.59496 0
M  V30 24386 C 2307 -4.93155 1.10119 0
M  V30 24387 C 2309.2 -4.93309 1.45434 0
M  V30 24388 N 2307.18 -5.70632 2.26391 0
M  V30 24389 C 2308.55 -5.68938 2.46393 0
M  V30 24390 C 2310.61 -4.75413 1.47943 0
M  V30 24391 C 2309.31 -6.28574 3.49695 0
M  V30 24392 C 2311.34 -5.35901 2.50128 0
M  V30 24393 C 2310.7 -6.114 3.49813 0
M  V30 24394 H 2306.8 -0.780281 -0.0518159 0
M  V30 24395 H 2309.38 -1.88517 0.48677 0
M  V30 24396 H 2307.55 -3.65866 -1.30372 0
M  V30 24397 H 2309.28 -3.87181 -1.17782 0
M  V30 24398 H 2306.04 -4.68854 0.668804 0
M  V30 24399 H 2306.46 -6.14039 2.85105 0
M  V30 24400 H 2311.11 -4.16584 0.722347 0
M  V30 24401 H 2308.82 -6.8651 4.26297 0
M  V30 24402 H 2312.41 -5.23958 2.52901 0
M  V30 24403 H 2311.29 -6.57373 4.27587 0
M  V30 24404 N 2308.79 -0.0752207 -1.5742 0
M  V30 24405 C 2309.72 0.920446 -2.09906 0
M  V30 24406 C 2310.74 1.25916 -1.03194 0
M  V30 24407 O 2311.93 1.21575 -1.30697 0
M  V30 24408 C 2309.03 2.2353 -2.5473 0
M  V30 24409 C 2308.2 2.07491 -3.85053 0
M  V30 24410 C 2307.26 3.22311 -4.15935 0
M  V30 24411 O 2306.28 2.97151 -4.85479 0
M  V30 24412 N 2307.49 4.47507 -3.69753 0
M  V30 24413 H 2310.25 0.472307 -2.95955 0
M  V30 24414 H 2307.81 0.110416 -1.61523 0
M  V30 24415 H 2309.8 2.99255 -2.72449 0
M  V30 24416 H 2308.37 2.59831 -1.738 0
M  V30 24417 H 2307.59 1.16213 -3.76681 0
M  V30 24418 H 2308.88 1.94029 -4.70351 0
M  V30 24419 H 2308.28 4.70835 -3.13578 0
M  V30 24420 H 2306.84 5.20248 -3.92665 0
M  V30 24421 N 2310.27 1.56347 0.198358 0
M  V30 24422 C 2311.22 1.94286 1.24585 0
M  V30 24423 C 2312.19 0.803022 1.45399 0
M  V30 24424 O 2313.37 1.0609 1.58586 0
M  V30 24425 C 2310.51 2.28486 2.58627 0
M  V30 24426 C 2309.63 3.55518 2.4542 0
M  V30 24427 C 2308.76 3.79055 3.72143 0
M  V30 24428 C 2307.8 4.99524 3.53754 0
M  V30 24429 N 2306.94 5.19332 4.72482 0
M  V30 24430 H 2311.78 2.83595 0.915307 0
M  V30 24431 H 2309.31 1.40346 0.440604 0
M  V30 24432 H 2311.27 2.4633 3.36715 0
M  V30 24433 H 2309.9 1.42322 2.89731 0
M  V30 24434 H 2308.95 3.45739 1.58646 0
M  V30 24435 H 2310.27 4.43762 2.27764 0
M  V30 24436 H 2309.42 3.97121 4.58672 0
M  V30 24437 H 2308.16 2.89135 3.92749 0
M  V30 24438 H 2307.16 4.81384 2.65611 0
M  V30 24439 H 2308.39 5.9095 3.34597 0
M  V30 24440 H 2306.33 4.32359 4.93358 0
M  V30 24441 H 2306.25 6.01749 4.57639 0
M  V30 24442 H 2307.52 5.41853 5.60371 0
M  V30 24443 N 2311.75 -0.465951 1.50554 0
M  V30 24444 C 2313 -1.21525 1.61481 0
M  V30 24445 C 2313.32 -1.92363 0.31963 0
M  V30 24446 O 2312.59 -1.84334 -0.663161 0
M  V30 24447 H 2311.17 -0.451563 0.595063 0
M  V30 24448 H 2313.83 -0.537007 1.87356 0
M  V30 24449 H 2312.93 -1.96038 2.42849 0
M  V30 24450 N 2313.23 -1.40218 -0.719481 0
M  V30 24451 C 2314.14 -1.42483 -1.86375 0
M  V30 24452 C 2315.15 -0.317864 -1.71072 0
M  V30 24453 O 2316.33 -0.561828 -1.93405 0
M  V30 24454 C 2313.39 -1.28183 -3.22133 0
M  V30 24455 C 2312.45 -2.48988 -3.49719 0
M  V30 24456 C 2311.69 -2.35362 -4.79 0
M  V30 24457 O 2311.91 -1.36534 -5.53818 0
M  V30 24458 O 2310.84 -3.24659 -5.06834 0
M  V30 24459 H 2314.67 -2.38971 -1.87421 0
M  V30 24460 H 2312.26 -1.21499 -0.869384 0
M  V30 24461 H 2314.14 -1.22402 -4.03232 0
M  V30 24462 H 2312.81 -0.347991 -3.21824 0
M  V30 24463 H 2311.72 -2.60347 -2.68645 0
M  V30 24464 H 2313.05 -3.4112 -3.54822 0
M  V30 24465 N 2314.7 0.951297 -1.25651 0
M  V30 24466 C 2315.61 2.08222 -1.08077 0
M  V30 24467 C 2316.63 1.73992 -0.0169971 0
M  V30 24468 O 2317.81 2.0021 -0.218628 0
M  V30 24469 C 2314.87 3.39457 -0.704982 0
M  V30 24470 C 2313.93 3.87534 -1.84706 0
M  V30 24471 C 2313.17 5.12505 -1.48911 0
M  V30 24472 O 2313.39 5.69091 -0.386256 0
M  V30 24473 O 2312.32 5.55373 -2.32043 0
M  V30 24474 H 2316.15 2.25951 -2.02928 0
M  V30 24475 H 2313.73 1.06654 -1.0462 0
M  V30 24476 H 2315.62 4.18331 -0.507683 0
M  V30 24477 H 2314.29 3.2299 0.214234 0
M  V30 24478 H 2313.2 3.09649 -2.09924 0
M  V30 24479 H 2314.53 4.08504 -2.74564 0
M  V30 24480 N 2316.18 1.07291 1.1544 0
M  V30 24481 C 2317.43 0.796879 1.86488 0
M  V30 24482 C 2317.76 -0.675339 1.82079 0
M  V30 24483 O 2317.04 -1.49558 1.24349 0
M  V30 24484 C 2317.32 1.30495 3.35624 0
M  V30 24485 C 2317.17 2.84167 3.48668 0
M  V30 24486 C 2318.49 0.920983 4.30356 0
M  V30 24487 H 2315.61 0.290951 0.677139 0
M  V30 24488 H 2318.25 1.33058 1.3563 0
M  V30 24489 H 2316.4 0.850949 3.79066 0
M  V30 24490 H 2318.07 3.37851 3.14093 0
M  V30 24491 H 2316.32 3.22396 2.90247 0
M  V30 24492 H 2316.99 3.14785 4.53447 0
M  V30 24493 H 2319.46 1.31217 3.94869 0
M  V30 24494 H 2318.34 1.30382 5.3319 0
M  V30 24495 H 2318.6 -0.173149 4.41761 0
M  V30 24496 N 2317.66 -1.32267 0.856927 0
M  V30 24497 C 2318.59 -2.27715 0.260452 0
M  V30 24498 C 2319.61 -1.52529 -0.56911 0
M  V30 24499 O 2320.79 -1.74115 -0.39323 0
M  V30 24500 C 2317.89 -3.326 -0.650419 0
M  V30 24501 C 2317.07 -4.37164 0.143797 0
M  V30 24502 C 2316.13 -5.21614 -0.693188 0
M  V30 24503 O 2315.15 -5.69061 -0.12589 0
M  V30 24504 N 2316.35 -5.44682 -2.00752 0
M  V30 24505 H 2319.12 -2.7954 1.08063 0
M  V30 24506 H 2316.68 -1.45151 0.717129 0
M  V30 24507 H 2318.67 -3.86007 -1.21574 0
M  V30 24508 H 2317.24 -2.80917 -1.37128 0
M  V30 24509 H 2316.46 -3.84009 0.890553 0
M  V30 24510 H 2317.75 -5.0411 0.689238 0
M  V30 24511 H 2317.15 -5.07868 -2.49172 0
M  V30 24512 H 2315.71 -6.01076 -2.52092 0
M  V30 24513 N 2319.14 -0.615084 -1.45102 0
M  V30 24514 C 2320.38 -0.113382 -2.02483 0
M  V30 24515 C 2320.72 1.25561 -1.48149 0
M  V30 24516 O 2319.99 1.82991 -0.659136 0
M  V30 24517 C 2320.28 -0.0825911 -3.60005 0
M  V30 24518 C 2320.13 -1.48279 -4.24657 0
M  V30 24519 C 2321.45 0.601325 -4.35973 0
M  V30 24520 H 2318.57 -0.0426761 -0.735763 0
M  V30 24521 H 2321.21 -0.788491 -1.72866 0
M  V30 24522 H 2319.36 0.49231 -3.85368 0
M  V30 24523 H 2321.03 -2.10534 -4.10455 0
M  V30 24524 H 2319.27 -2.04134 -3.82769 0
M  V30 24525 H 2319.94 -1.41342 -5.33598 0
M  V30 24526 H 2322.42 0.112593 -4.15948 0
M  V30 24527 H 2321.3 0.592001 -5.45698 0
M  V30 24528 H 2321.56 1.66879 -4.09394 0
M  V30 24529 N 2320.62 1.53557 -0.354678 0
M  V30 24530 C 2321.87 2.00273 0.239469 0
M  V30 24531 C 2322.18 1.24626 1.50757 0
M  V30 24532 O 2323.39 1.61875 2.17965 0
M  V30 24533 C 2321.84 3.56721 0.477279 0
M  V30 24534 C 2321.45 4.41236 -0.775566 0
M  V30 24535 C 2323.19 4.11823 1.02968 0
M  V30 24536 C 2321.1 5.89215 -0.507942 0
M  V30 24537 H 2320.03 0.74821 0.0932611 0
M  V30 24538 H 2322.68 1.77333 -0.471732 0
M  V30 24539 H 2321.06 3.75772 1.24946 0
M  V30 24540 H 2322.24 4.33959 -1.54971 0
M  V30 24541 H 2320.55 3.97183 -1.2504 0
M  V30 24542 H 2323.15 5.20003 1.24504 0
M  V30 24543 H 2323.49 3.65735 1.98856 0
M  V30 24544 H 2324.03 3.96528 0.317925 0
M  V30 24545 H 2320.76 6.39558 -1.43685 0
M  V30 24546 H 2320.28 5.99367 0.227906 0
M  V30 24547 H 2321.96 6.46871 -0.129352 0
M  V30 24548 N 2322.1 0.083568 1.57378 0
M  V30 24549 C 2323.06 -0.864922 2.12254 0
M  V30 24550 C 2324.06 -1.21856 1.04918 0
M  V30 24551 O 2325.25 -1.14989 1.30855 0
M  V30 24552 C 2322.38 -2.16456 2.63362 0
M  V30 24553 H 2323.57 -0.388623 2.97371 0
M  V30 24554 H 2321.13 -0.16529 1.55424 0
M  V30 24555 H 2321.86 -2.68596 1.81732 0
M  V30 24556 H 2321.65 -1.92081 3.41829 0
M  V30 24557 H 2323.14 -2.84331 3.05852 0
M  V30 24558 N 2323.57 -1.5645 -0.190064 0
M  V30 24559 C 2324.82 -1.81186 -0.911021 0
M  V30 24560 C 2325.15 -0.658428 -1.82697 0
M  V30 24561 O 2324.43 0.340741 -1.91492 0
M  V30 24562 C 2324.71 -3.16208 -1.72291 0
M  V30 24563 C 2324.56 -4.42051 -0.831341 0
M  V30 24564 C 2325.88 -3.47974 -2.69448 0
M  V30 24565 H 2323 -0.659112 -0.329758 0
M  V30 24566 H 2325.64 -1.89163 -0.178135 0
M  V30 24567 H 2323.79 -3.09539 -2.34773 0
M  V30 24568 H 2325.47 -4.60771 -0.220848 0
M  V30 24569 H 2323.71 -4.33579 -0.13833 0
M  V30 24570 H 2324.38 -5.33034 -1.43451 0
M  V30 24571 H 2326.86 -3.54976 -2.17097 0
M  V30 24572 H 2325.73 -4.43561 -3.23334 0
M  V30 24573 H 2325.99 -2.71723 -3.48739 0
M  V30 24574 N 2325.05 0.45796 -1.50799 0
M  V30 24575 C 2325.96 1.57986 -1.73429 0
M  V30 24576 C 2326.98 1.62664 -0.617773 0
M  V30 24577 O 2328.15 1.80289 -0.897646 0
M  V30 24578 C 2325.22 2.94119 -1.83562 0
M  V30 24579 C 2324.28 2.99724 -3.0735 0
M  V30 24580 C 2323.51 4.29363 -3.16991 0
M  V30 24581 O 2323.74 5.20603 -2.33086 0
M  V30 24582 O 2322.67 4.4083 -4.0982 0
M  V30 24583 H 2326.5 1.41812 -2.68557 0
M  V30 24584 H 2324.08 0.638836 -1.35053 0
M  V30 24585 H 2325.96 3.74948 -1.92332 0
M  V30 24586 H 2324.64 3.10464 -0.916191 0
M  V30 24587 H 2323.54 2.17924 -3.04072 0
M  V30 24588 H 2324.88 2.88319 -3.98915 0
M  V30 24589 N 2326.53 1.40598 0.712035 0
M  V30 24590 C 2327.94 1.3484 1.29132 0
M  V30 24591 C 2328.29 0.023574 1.96186 0
M  V30 24592 O 2327.42 -0.878409 1.9777 0
M  V30 24593 C 2328.01 2.44221 2.34822 0
M  V30 24594 C 2326.57 2.41912 2.88367 0
M  V30 24595 C 2325.72 2.24916 1.62198 0
M  V30 24596 H 2328.67 1.50353 0.507917 0
M  V30 24597 H 2328.69 2.12332 3.15746 0
M  V30 24598 H 2328.2 3.40631 1.8599 0
M  V30 24599 H 2326.3 1.4921 3.41419 0
M  V30 24600 H 2326.42 3.37627 3.39919 0
M  V30 24601 H 2324.78 1.72495 1.87397 0
M  V30 24602 H 2325.56 3.23328 1.15386 0
M  V30 24603 N 2328.01 -0.94462 1.26153 0
M  V30 24604 C 2329.26 -1.68708 1.11274 0
M  V30 24605 C 2329.58 -1.91921 -0.345132 0
M  V30 24606 O 2328.85 -1.51345 -1.24384 0
M  V30 24607 H 2327.43 -0.625217 0.408794 0
M  V30 24608 H 2330.09 -1.13517 1.58429 0
M  V30 24609 H 2329.18 -2.66224 1.62884 0
M  V30 24610 N 2329.49 -1.07901 -1.1487 0
M  V30 24611 C 2330.43 -0.704357 -2.1979 0
M  V30 24612 C 2331.4 0.306958 -1.63239 0
M  V30 24613 O 2332.59 0.192137 -1.8983 0
M  V30 24614 C 2329.73 -0.114305 -3.44911 0
M  V30 24615 C 2328.84 -1.17777 -4.15635 0
M  V30 24616 C 2327.98 -0.55213 -5.28323 0
M  V30 24617 C 2327.01 -1.598 -5.90873 0
M  V30 24618 N 2326.15 -0.994526 -6.95021 0
M  V30 24619 H 2330.99 -1.6034 -2.51187 0
M  V30 24620 H 2328.53 -0.801373 -1.23355 0
M  V30 24621 H 2330.49 0.245471 -4.16477 0
M  V30 24622 H 2329.12 0.748075 -3.14012 0
M  V30 24623 H 2328.17 -1.65505 -3.42509 0
M  V30 24624 H 2329.48 -1.97054 -4.58226 0
M  V30 24625 H 2328.63 -0.140306 -6.06538 0
M  V30 24626 H 2327.37 0.272345 -4.86939 0
M  V30 24627 H 2326.38 -2.01954 -5.11366 0
M  V30 24628 H 2327.6 -2.42486 -6.34332 0
M  V30 24629 H 2325.55 -0.191054 -6.55722 0
M  V30 24630 H 2325.47 -1.72445 -7.3607 0
M  V30 24631 H 2326.73 -0.60839 -7.77122 0
M  V30 24632 N 2330.96 1.31811 -0.863929 0
M  V30 24633 C 2331.91 2.30601 -0.304261 0
M  V30 24634 C 2332.91 1.59256 0.577391 0
M  V30 24635 O 2334.11 1.73912 0.464163 0
M  V30 24636 H 2330.49 0.747765 -0.0797008 0
M  V30 24637 H 2332.46 2.75286 -1.15153 0
M  V30 24638 C 2331.21 3.44307 0.484556 0
M  V30 24639 H 2330.53 3.99374 -0.18458 0
M  V30 24640 H 2331.97 4.15564 0.841591 0
M  V30 24641 C 2330.43 2.92399 1.67345 0
M  V30 24642 O 2330.96 2.90664 2.77268 0
M  V30 24643 N 2329.16 2.48678 1.50358 0
M  V30 24644 H 2328.71 2.50289 0.609358 0
M  V30 24645 H 2328.67 2.14303 2.30047 0
M  V30 24646 N 2332.44 0.62277 1.44773 0
M  V30 24647 C 2333.85 0.207259 1.85546 0
M  V30 24648 C 2334.2 -1.23942 1.52095 0
M  V30 24649 O 2333.33 -1.9419 0.954954 0
M  V30 24650 C 2333.92 0.369372 3.3678 0
M  V30 24651 C 2332.48 0.00843463 3.76399 0
M  V30 24652 C 2331.63 0.686698 2.68663 0
M  V30 24653 H 2334.58 0.828477 1.35359 0
M  V30 24654 H 2334.6 -0.394095 3.78454 0
M  V30 24655 H 2334.11 1.42237 3.61096 0
M  V30 24656 H 2332.21 -1.04315 3.577 0
M  V30 24657 H 2332.33 0.412668 4.77319 0
M  V30 24658 H 2330.69 0.122822 2.54404 0
M  V30 24659 H 2331.47 1.74213 2.95812 0
M  V30 24660 N 2333.92 -1.53367 0.362817 0
M  V30 24661 C 2334.87 -2.25647 -0.484968 0
M  V30 24662 C 2335.84 -1.26212 -1.0798 0
M  V30 24663 O 2337.02 -1.54988 -1.11281 0
M  V30 24664 C 2334.16 -3.04703 -1.62018 0
M  V30 24665 C 2333.27 -4.19026 -1.05079 0
M  V30 24666 C 2332.41 -4.85529 -2.15488 0
M  V30 24667 C 2331.45 -5.91887 -1.56 0
M  V30 24668 N 2330.59 -6.52093 -2.60229 0
M  V30 24669 H 2335.43 -2.97681 0.137916 0
M  V30 24670 H 2332.96 -1.46883 0.0798319 0
M  V30 24671 H 2334.92 -3.48811 -2.28881 0
M  V30 24672 H 2333.55 -2.34931 -2.21376 0
M  V30 24673 H 2332.6 -3.79423 -0.272524 0
M  V30 24674 H 2333.91 -4.95465 -0.575839 0
M  V30 24675 H 2333.07 -5.32806 -2.90177 0
M  V30 24676 H 2331.81 -4.08556 -2.66333 0
M  V30 24677 H 2330.81 -5.43974 -0.798243 0
M  V30 24678 H 2332.04 -6.70779 -1.05982 0
M  V30 24679 H 2329.98 -5.77974 -3.10294 0
M  V30 24680 H 2329.9 -7.24063 -2.17413 0
M  V30 24681 H 2331.17 -7.0402 -3.34629 0
M  V30 24682 N 2335.4 -0.091913 -1.57332 0
M  V30 24683 C 2336.35 0.885709 -2.15077 0
M  V30 24684 C 2337.34 1.29439 -1.09279 0
M  V30 24685 O 2338.55 1.26929 -1.27629 0
M  V30 24686 H 2334.92 0.303644 -0.687971 0
M  V30 24687 H 2336.89 0.373943 -2.96048 0
M  V30 24688 C 2335.64 2.13633 -2.74329 0
M  V30 24689 H 2334.96 1.83074 -3.55421 0
M  V30 24690 H 2336.4 2.80104 -3.18305 0
M  V30 24691 C 2334.86 2.90824 -1.70067 0
M  V30 24692 O 2335.39 3.85252 -1.13769 0
M  V30 24693 N 2333.6 2.54305 -1.40633 0
M  V30 24694 H 2333.15 1.77587 -1.86603 0
M  V30 24695 H 2333.1 3.06253 -0.711096 0
M  V30 24696 N 2336.88 1.56548 0.181765 0
M  V30 24697 C 2338.12 1.81398 0.900066 0
M  V30 24698 C 2338.45 0.667313 1.82694 0
M  V30 24699 O 2337.71 -0.346112 1.92615 0
M  V30 24700 C 2338.01 3.12338 1.73722 0
M  V30 24701 C 2337.67 4.40558 0.960178 0
M  V30 24702 C 2336.33 4.75387 0.745683 0
M  V30 24703 C 2338.69 5.1955 0.414386 0
M  V30 24704 C 2336.01 5.86694 -0.0258725 0
M  V30 24705 C 2338.37 6.31664 -0.344027 0
M  V30 24706 C 2337.03 6.65067 -0.569418 0
M  V30 24707 H 2336.3 0.663781 0.329357 0
M  V30 24708 H 2338.95 1.90783 0.165613 0
M  V30 24709 H 2337.25 2.9825 2.54076 0
M  V30 24710 H 2338.95 3.28773 2.29585 0
M  V30 24711 H 2335.54 4.13233 1.13739 0
M  V30 24712 H 2339.72 4.93045 0.567467 0
M  V30 24713 H 2334.98 6.11038 -0.21034 0
M  V30 24714 H 2339.15 6.92083 -0.774254 0
M  V30 24715 H 2336.78 7.51155 -1.16916 0
M  V30 24716 N 2338.35 -0.449957 1.5104 0
M  V30 24717 C 2339.29 -1.56321 1.6762 0
M  V30 24718 C 2340.3 -1.52971 0.55711 0
M  V30 24719 O 2341.49 -1.57976 0.831017 0
M  V30 24720 C 2338.59 -2.95232 1.66407 0
M  V30 24721 C 2337.76 -3.23224 2.94695 0
M  V30 24722 C 2336.82 -4.41794 2.8584 0
M  V30 24723 O 2335.85 -4.41065 3.59792 0
M  V30 24724 N 2337.05 -5.44654 2.0083 0
M  V30 24725 H 2339.81 -1.42508 2.63651 0
M  V30 24726 H 2337.37 -0.638711 1.48769 0
M  V30 24727 H 2339.37 -3.72554 1.58068 0
M  V30 24728 H 2337.94 -3.02706 0.780236 0
M  V30 24729 H 2337.16 -2.34317 3.17 0
M  V30 24730 H 2338.44 -3.38747 3.79642 0
M  V30 24731 H 2337.84 -5.48077 1.401 0
M  V30 24732 H 2336.4 -6.20877 1.98379 0
M  V30 24733 N 2339.83 -1.40974 -0.704569 0
M  V30 24734 C 2341.06 -1.43184 -1.49352 0
M  V30 24735 C 2341.48 -0.034584 -1.88768 0
M  V30 24736 O 2340.83 0.944054 -1.56185 0
M  V30 24737 C 2340.88 -2.33249 -2.76183 0
M  V30 24738 O 2340.6 -3.67536 -2.3843 0
M  V30 24739 C 2342.11 -2.44168 -3.69996 0
M  V30 24740 H 2339.33 -0.48799 -0.46055 0
M  V30 24741 H 2341.87 -1.85154 -0.868228 0
M  V30 24742 H 2340.02 -1.94612 -3.3497 0
M  V30 24743 H 2340.44 -4.15481 -3.20118 0
M  V30 24744 H 2341.91 -3.11372 -4.55797 0
M  V30 24745 H 2342.39 -1.47013 -4.13864 0
M  V30 24746 H 2343 -2.83404 -3.17116 0
M  V30 24747 N 2341.31 0.937917 -1.26653 0
M  V30 24748 C 2342.24 2.03726 -1.02814 0
M  V30 24749 C 2343.22 1.62529 0.0481629 0
M  V30 24750 O 2344.41 1.88261 -0.094917 0
M  V30 24751 C 2341.53 3.34079 -0.557576 0
M  V30 24752 C 2340.58 3.9425 -1.62693 0
M  V30 24753 S 2341.41 4.28119 -3.21674 0
M  V30 24754 C 2342.57 5.61567 -2.76394 0
M  V30 24755 H 2342.8 2.23634 -1.95895 0
M  V30 24756 H 2340.33 1.07972 -1.10369 0
M  V30 24757 H 2342.29 4.09455 -0.292746 0
M  V30 24758 H 2340.95 3.1211 0.353007 0
M  V30 24759 H 2340.15 4.88285 -1.24875 0
M  V30 24760 H 2339.75 3.2542 -1.8433 0
M  V30 24761 H 2342.04 6.4042 -2.21061 0
M  V30 24762 H 2342.98 6.04273 -3.69133 0
M  V30 24763 H 2343.39 5.216 -2.15856 0
M  V30 24764 N 2342.79 1.08509 1.14296 0
M  V30 24765 C 2344.2 0.836257 1.66924 0
M  V30 24766 C 2344.55 -0.636828 1.85577 0
M  V30 24767 O 2343.68 -1.49172 1.5677 0
M  V30 24768 C 2344.27 1.51147 3.03216 0
M  V30 24769 C 2342.83 1.30985 3.52874 0
M  V30 24770 C 2341.98 1.5736 2.28327 0
M  V30 24771 H 2344.93 1.24553 0.983469 0
M  V30 24772 H 2344.95 0.939276 3.68725 0
M  V30 24773 H 2344.46 2.58358 2.89608 0
M  V30 24774 H 2342.56 0.258494 3.71702 0
M  V30 24775 H 2342.67 2.03821 4.33582 0
M  V30 24776 H 2341.04 0.995206 2.34452 0
M  V30 24777 H 2341.82 2.65779 2.17294 0
M  V30 24778 N 2344.27 -1.31351 0.870907 0
M  V30 24779 C 2345.51 -1.96284 0.481355 0
M  V30 24780 C 2345.84 -1.69175 -0.969783 0
M  V30 24781 O 2345.11 -1.00767 -1.67997 0
M  V30 24782 H 2343.69 -0.726209 0.175014 0
M  V30 24783 H 2346.35 -1.60141 1.1109 0
M  V30 24784 H 2345.44 -3.0547 0.639879 0
M  V30 24785 N 2345.74 -0.630439 -1.44441 0
M  V30 24786 C 2346.99 -0.132108 -2.01267 0
M  V30 24787 C 2347.31 1.25328 -1.50174 0
M  V30 24788 O 2348.51 1.84559 -1.99124 0
M  V30 24789 C 2346.97 -0.185425 -3.59422 0
M  V30 24790 C 2346.58 -1.57208 -4.19511 0
M  V30 24791 C 2348.32 0.256479 -4.23724 0
M  V30 24792 C 2346.23 -1.58055 -5.69888 0
M  V30 24793 H 2345.16 -0.0456224 -0.752618 0
M  V30 24794 H 2347.81 -0.789135 -1.65665 0
M  V30 24795 H 2346.19 0.53869 -3.92319 0
M  V30 24796 H 2347.36 -2.31973 -3.98152 0
M  V30 24797 H 2345.68 -1.95801 -3.67493 0
M  V30 24798 H 2348.28 0.269673 -5.3402 0
M  V30 24799 H 2348.62 1.28365 -3.96015 0
M  V30 24800 H 2349.15 -0.415119 -3.95628 0
M  V30 24801 H 2345.89 -2.58607 -6.02331 0
M  V30 24802 H 2345.41 -0.875829 -5.93371 0
M  V30 24803 H 2347.09 -1.31419 -6.33512 0
M  V30 24804 N 2347.22 1.53172 -0.370945 0
M  V30 24805 C 2348.47 2.01333 0.217066 0
M  V30 24806 C 2348.8 1.25805 1.48335 0
M  V30 24807 O 2348.05 0.341494 1.92697 0
M  V30 24808 C 2348.35 3.53148 0.549634 0
M  V30 24809 C 2348.02 4.46576 -0.622951 0
M  V30 24810 C 2346.68 4.71836 -0.944678 0
M  V30 24811 C 2349.03 5.01814 -1.40828 0
M  V30 24812 C 2346.36 5.49585 -2.05361 0
M  V30 24813 C 2348.71 5.80774 -2.50767 0
M  V30 24814 C 2347.38 6.04319 -2.83469 0
M  V30 24815 H 2346.65 0.736731 0.0794301 0
M  V30 24816 H 2349.29 1.84735 -0.504514 0
M  V30 24817 H 2347.6 3.67723 1.3523 0
M  V30 24818 H 2349.29 3.87891 1.01693 0
M  V30 24819 H 2345.88 4.27067 -0.362165 0
M  V30 24820 H 2350.07 4.8224 -1.17297 0
M  V30 24821 H 2345.32 5.66046 -2.3109 0
M  V30 24822 H 2349.5 6.22582 -3.12033 0
M  V30 24823 H 2347.13 6.64349 -3.69519 0
M  V30 24824 N 2348.7 0.100255 1.57281 0
M  V30 24825 C 2349.63 -0.886935 2.11344 0
M  V30 24826 C 2350.65 -1.24259 1.05184 0
M  V30 24827 O 2351.83 -1.1948 1.32615 0
M  V30 24828 C 2348.93 -2.19449 2.58254 0
M  V30 24829 C 2348.11 -2.01339 3.88306 0
M  V30 24830 C 2347.17 -3.15654 4.2101 0
M  V30 24831 O 2346.19 -2.8939 4.90145 0
M  V30 24832 N 2347.39 -4.41568 3.76826 0
M  V30 24833 H 2350.16 -0.425163 2.96669 0
M  V30 24834 H 2347.72 -0.084705 1.61678 0
M  V30 24835 H 2349.71 -2.94883 2.77175 0
M  V30 24836 H 2348.28 -2.57034 1.77912 0
M  V30 24837 H 2347.5 -1.10205 3.78482 0
M  V30 24838 H 2348.79 -1.86522 4.73378 0
M  V30 24839 H 2348.19 -4.65787 3.21029 0
M  V30 24840 H 2346.75 -5.13935 4.00892 0
M  V30 24841 N 2350.18 -1.56643 -0.17346 0
M  V30 24842 C 2351.41 -1.86006 -0.906062 0
M  V30 24843 C 2351.82 -0.685386 -1.7592 0
M  V30 24844 O 2351.18 0.345547 -1.79199 0
M  V30 24845 C 2351.23 -3.14381 -1.78456 0
M  V30 24846 O 2350.95 -4.27321 -0.965839 0
M  V30 24847 C 2352.45 -3.57076 -2.62701 0
M  V30 24848 H 2349.67 -0.61717 -0.26333 0
M  V30 24849 H 2352.22 -2.03757 -0.1742 0
M  V30 24850 H 2350.37 -2.98463 -2.46979 0
M  V30 24851 H 2350.79 -5.00562 -1.56646 0
M  V30 24852 H 2352.26 -4.4981 -3.19961 0
M  V30 24853 H 2352.74 -2.81092 -3.37467 0
M  V30 24854 H 2353.34 -3.75599 -1.99514 0
M  V30 24855 N 2351.66 0.44194 -1.51277 0
M  V30 24856 C 2352.89 1.21431 -1.67518 0
M  V30 24857 C 2353.3 1.85127 -0.370582 0
M  V30 24858 O 2352.66 1.70514 0.650468 0
M  V30 24859 C 2352.71 2.30172 -2.78752 0
M  V30 24860 O 2352.43 1.69082 -4.04157 0
M  V30 24861 C 2353.93 3.20535 -3.06222 0
M  V30 24862 H 2351.15 0.366168 -0.562283 0
M  V30 24863 H 2353.69 0.524209 -1.97667 0
M  V30 24864 H 2351.85 2.94906 -2.51215 0
M  V30 24865 H 2352.26 2.40914 -4.65898 0
M  V30 24866 H 2353.74 3.92981 -3.87647 0
M  V30 24867 H 2354.21 3.81023 -2.18445 0
M  V30 24868 H 2354.82 2.61507 -3.35401 0
M  V30 24869 N 2353.14 1.41345 0.697083 0
M  V30 24870 C 2354.36 1.43974 1.4859 0
M  V30 24871 C 2354.78 0.0445944 1.88747 0
M  V30 24872 O 2354.14 -0.935758 1.56684 0
M  V30 24873 C 2354.19 2.34711 2.74942 0
M  V30 24874 O 2353.91 3.68796 2.36477 0
M  V30 24875 C 2355.41 2.46127 3.68695 0
M  V30 24876 H 2352.63 0.490426 0.457956 0
M  V30 24877 H 2355.17 1.85612 0.858397 0
M  V30 24878 H 2353.33 1.96386 3.33933 0
M  V30 24879 H 2353.74 4.17173 3.1791 0
M  V30 24880 H 2355.22 3.13785 4.5414 0
M  V30 24881 H 2355.69 1.49206 4.13079 0
M  V30 24882 H 2356.3 2.85081 3.15608 0
M  V30 24883 N 2354.61 -0.931187 1.27148 0
M  V30 24884 C 2355.86 -1.67518 1.13058 0
M  V30 24885 C 2356.18 -1.92277 -0.324757 0
M  V30 24886 O 2355.45 -1.52656 -1.22772 0
M  V30 24887 H 2354.03 -0.620846 0.415402 0
M  V30 24888 H 2356.69 -1.1183 1.59624 0
M  V30 24889 H 2355.79 -2.64482 1.65698 0
M  V30 24890 N 2356.09 -1.09114 -1.13719 0
M  V30 24891 C 2357 -0.739609 -2.22636 0
M  V30 24892 C 2358.02 0.257037 -1.72091 0
M  V30 24893 O 2359.19 0.0991801 -2.01156 0
M  V30 24894 C 2356.26 -0.16197 -3.46321 0
M  V30 24895 C 2355.32 -1.21415 -4.11773 0
M  V30 24896 C 2354.55 -0.663984 -5.29554 0
M  V30 24897 O 2354.78 0.514174 -5.68078 0
M  V30 24898 O 2353.71 -1.41748 -5.84971 0
M  V30 24899 H 2357.54 -1.6484 -2.55071 0
M  V30 24900 H 2355.12 -0.86531 -1.2179 0
M  V30 24901 H 2357 0.156999 -4.21107 0
M  V30 24902 H 2355.68 0.719877 -3.15594 0
M  V30 24903 H 2354.58 -1.58577 -3.38828 0
M  V30 24904 H 2355.92 -2.06853 -4.46624 0
M  V30 24905 N 2357.57 1.30887 -0.877861 0
M  V30 24906 C 2358.82 1.95687 -0.488827 0
M  V30 24907 C 2359.13 1.70113 0.965455 0
M  V30 24908 O 2360.34 2.28838 1.461 0
M  V30 24909 C 2358.79 3.50358 -0.823263 0
M  V30 24910 C 2358.4 3.84761 -2.29484 0
M  V30 24911 C 2360.15 4.21508 -0.503083 0
M  V30 24912 C 2358.05 5.32578 -2.57127 0
M  V30 24913 H 2356.98 0.732426 -0.179075 0
M  V30 24914 H 2359.63 1.48941 -1.07185 0
M  V30 24915 H 2358.02 3.95638 -0.169401 0
M  V30 24916 H 2359.19 3.50415 -2.99242 0
M  V30 24917 H 2357.5 3.26696 -2.58184 0
M  V30 24918 H 2360.1 5.30272 -0.686744 0
M  V30 24919 H 2360.44 4.12556 0.557036 0
M  V30 24920 H 2360.98 3.81888 -1.11383 0
M  V30 24921 H 2357.72 5.46574 -3.61853 0
M  V30 24922 H 2357.24 5.68249 -1.91971 0
M  V30 24923 H 2358.92 5.99932 -2.42262 0
M  V30 24924 N 2359.05 0.638091 1.44105 0
M  V30 24925 C 2360.3 0.145079 2.01579 0
M  V30 24926 C 2360.62 -1.23997 1.50498 0
M  V30 24927 O 2359.89 -1.82526 0.711406 0
M  V30 24928 H 2358.47 0.0506431 0.745281 0
M  V30 24929 H 2361.13 0.826358 1.76514 0
M  V30 24930 H 2360.22 0.118094 3.11876 0
M  V30 24931 N 2360.53 -1.52973 0.379063 0
M  V30 24932 C 2361.49 -2.24763 -0.448826 0
M  V30 24933 C 2362.49 -1.26029 -0.998667 0
M  V30 24934 O 2363.68 -1.50204 -0.882286 0
M  V30 24935 C 2360.81 -2.99478 -1.62866 0
M  V30 24936 H 2362 -2.99362 0.179544 0
M  V30 24937 H 2359.56 -1.5575 0.130988 0
M  V30 24938 H 2360.29 -2.29155 -2.29475 0
M  V30 24939 H 2360.08 -3.71936 -1.24121 0
M  V30 24940 H 2361.57 -3.54014 -2.21504 0
M  V30 24941 N 2362 -0.108595 -1.57225 0
M  V30 24942 C 2363.25 0.551669 -1.94009 0
M  V30 24943 C 2363.57 1.68492 -0.993471 0
M  V30 24944 O 2364.77 2.40724 -1.25555 0
M  V30 24945 C 2363.23 1.03273 -3.44765 0
M  V30 24946 C 2362.84 -0.071498 -4.47943 0
M  V30 24947 C 2364.58 1.66496 -3.90486 0
M  V30 24948 C 2362.49 0.425676 -5.89866 0
M  V30 24949 H 2361.42 0.20985 -0.724209 0
M  V30 24950 H 2364.07 -0.186773 -1.82547 0
M  V30 24951 H 2362.45 1.82527 -3.51425 0
M  V30 24952 H 2363.62 -0.847445 -4.5294 0
M  V30 24953 H 2361.94 -0.609741 -4.11912 0
M  V30 24954 H 2364.54 2.04789 -4.93929 0
M  V30 24955 H 2364.88 2.53936 -3.29882 0
M  V30 24956 H 2365.41 0.938006 -3.86583 0
M  V30 24957 H 2362.15 -0.412431 -6.54201 0
M  V30 24958 H 2361.67 1.16833 -5.88311 0
M  V30 24959 H 2363.35 0.890285 -6.40845 0
M  V30 24960 N 2363.48 1.56732 0.16515 0
M  V30 24961 C 2364.44 1.95997 1.18818 0
M  V30 24962 C 2365.44 0.844334 1.36849 0
M  V30 24963 O 2366.63 1.11128 1.3415 0
M  V30 24964 C 2363.77 2.26015 2.55206 0
M  V30 24965 H 2364.96 2.8755 0.851774 0
M  V30 24966 H 2362.51 1.50885 0.407831 0
M  V30 24967 H 2363.25 1.37196 2.9385 0
M  V30 24968 H 2363.03 3.0734 2.43484 0
M  V30 24969 H 2364.52 2.57294 3.28922 0
M  V30 24970 N 2364.96 -0.433911 1.51509 0
M  V30 24971 C 2365.89 -1.53426 1.76019 0
M  V30 24972 C 2366.87 -1.58781 0.610139 0
M  V30 24973 O 2368.06 -1.74453 0.853207 0
M  V30 24974 C 2365.19 -2.91476 1.88836 0
M  V30 24975 C 2364.14 -3.00981 3.04293 0
M  V30 24976 C 2363.47 -4.41044 3.02298 0
M  V30 24977 C 2364.77 -2.74746 4.44198 0
M  V30 24978 H 2366.46 -1.33167 2.68155 0
M  V30 24979 H 2364.01 -0.639191 1.29036 0
M  V30 24980 H 2365.96 -3.68417 2.04565 0
M  V30 24981 H 2364.68 -3.12975 0.93351 0
M  V30 24982 H 2363.34 -2.26481 2.88274 0
M  V30 24983 H 2362.99 -4.59515 2.04584 0
M  V30 24984 H 2362.69 -4.48333 3.7983 0
M  V30 24985 H 2364.21 -5.19954 3.20125 0
M  V30 24986 H 2365.63 -3.41418 4.6055 0
M  V30 24987 H 2364.03 -2.93441 5.23462 0
M  V30 24988 H 2365.1 -1.70331 4.53999 0
M  V30 24989 N 2366.44 -1.41713 -0.689577 0
M  V30 24990 C 2367.72 -1.3188 -1.44454 0
M  V30 24991 C 2368.1 0.0508166 -2.11039 0
M  V30 24992 O 2367.44 1.06544 -2.0214 0
M  V30 24993 C 2367.65 -2.47649 -2.45908 0
M  V30 24994 C 2369 -2.8909 -3.10986 0
M  V30 24995 O 2370.03 -2.47432 -2.56234 0
M  V30 24996 O 2368.88 -3.61144 -4.10167 0
M  V30 24997 H 2365.98 -0.51932 -0.643611 0
M  V30 24998 H 2368.52 -1.5369 -0.719549 0
M  V30 24999 H 2367.3 -3.39018 -1.95403 0
M  V30 25000 H 2366.92 -2.27748 -3.25909 0
M  V30 25001 N 2367.92 0.924431 -1.2764 0
M  V30 25002 C 2369.16 1.67247 -1.1417 0
M  V30 25003 C 2369.49 1.91984 0.311829 0
M  V30 25004 O 2368.75 1.51055 1.24422 0
M  V30 25005 C 2369.05 3.04321 -1.87412 0
M  V30 25006 C 2368.71 2.99283 -3.37255 0
M  V30 25007 C 2367.37 2.97616 -3.78125 0
M  V30 25008 C 2369.73 2.90328 -4.3285 0
M  V30 25009 C 2367.05 2.84781 -5.12949 0
M  V30 25010 C 2369.41 2.79035 -5.67735 0
M  V30 25011 C 2368.07 2.75719 -6.07894 0
M  V30 25012 H 2367.34 0.611999 -0.417777 0
M  V30 25013 H 2369.99 1.07783 -1.58288 0
M  V30 25014 H 2368.29 3.67508 -1.35812 0
M  V30 25015 H 2369.99 3.61082 -1.74415 0
M  V30 25016 H 2366.58 3.01369 -3.04753 0
M  V30 25017 H 2370.76 2.90712 -4.02244 0
M  V30 25018 H 2366.02 2.80603 -5.43205 0
M  V30 25019 H 2370.19 2.71072 -6.41477 0
M  V30 25020 H 2367.82 2.65531 -7.12318 0
M  V30 25021 N 2369.39 1.09715 1.13139 0
M  V30 25022 C 2370.34 0.739235 2.18641 0
M  V30 25023 C 2371.31 -0.28095 1.63707 0
M  V30 25024 O 2372.5 -0.161912 1.90112 0
M  V30 25025 C 2369.64 0.169162 3.44685 0
M  V30 25026 C 2368.75 1.24375 4.13709 0
M  V30 25027 C 2367.88 0.636112 5.27378 0
M  V30 25028 C 2366.92 1.6918 5.88256 0
M  V30 25029 N 2366.06 1.10497 6.9335 0
M  V30 25030 H 2370.9 1.64316 2.48604 0
M  V30 25031 H 2368.44 0.820896 1.22064 0
M  V30 25032 H 2370.4 -0.179182 4.16815 0
M  V30 25033 H 2369.03 -0.698024 3.15163 0
M  V30 25034 H 2368.08 1.70933 3.39832 0
M  V30 25035 H 2369.39 2.04319 4.55033 0
M  V30 25036 H 2368.54 0.236784 6.06238 0
M  V30 25037 H 2367.28 -0.194843 4.87311 0
M  V30 25038 H 2366.29 2.10064 5.08088 0
M  V30 25039 H 2367.51 2.52547 6.30394 0
M  V30 25040 H 2365.46 0.29535 6.55335 0
M  V30 25041 H 2365.38 1.84134 7.33233 0
M  V30 25042 H 2366.64 0.731946 7.76056 0
M  V30 25043 N 2370.87 -1.30419 0.88479 0
M  V30 25044 C 2372.28 -1.78301 0.553688 0
M  V30 25045 C 2372.63 -1.72752 -0.930122 0
M  V30 25046 O 2371.76 -1.30426 -1.72679 0
M  V30 25047 C 2372.35 -3.23759 0.998291 0
M  V30 25048 C 2370.91 -3.69477 0.718605 0
M  V30 25049 C 2370.06 -2.50876 1.18137 0
M  V30 25050 H 2373.01 -1.17292 1.06903 0
M  V30 25051 H 2373.03 -3.79091 0.327184 0
M  V30 25052 H 2372.54 -3.27765 2.07826 0
M  V30 25053 H 2370.65 -3.70958 -0.349378 0
M  V30 25054 H 2370.76 -4.60955 1.30603 0
M  V30 25055 H 2369.12 -2.47515 0.600713 0
M  V30 25056 H 2369.91 -2.5762 2.26907 0
M  V30 25057 N 2372.35 -0.645724 -1.43764 0
M  V30 25058 C 2373.6 -0.155767 -2.01499 0
M  V30 25059 C 2373.92 1.23197 -1.51154 0
M  V30 25060 O 2373.19 1.82146 -0.721076 0
M  V30 25061 H 2371.77 -0.0545948 -0.745002 0
M  V30 25062 H 2374.43 -0.835708 -1.76074 0
M  V30 25063 H 2373.53 -0.134631 -3.11809 0
M  V30 25064 N 2373.83 1.5277 -0.38717 0
M  V30 25065 C 2375.06 2.05971 0.195833 0
M  V30 25066 C 2375.47 1.25905 1.40689 0
M  V30 25067 O 2374.83 0.305166 1.79931 0
M  V30 25068 C 2374.88 3.57009 0.568058 0
M  V30 25069 O 2374.6 4.34042 -0.594879 0
M  V30 25070 C 2376.1 4.26547 1.20715 0
M  V30 25071 H 2373.32 0.670327 0.0300461 0
M  V30 25072 H 2375.87 1.96915 -0.551784 0
M  V30 25073 H 2374.02 3.66145 1.26557 0
M  V30 25074 H 2374.43 5.23701 -0.289414 0
M  V30 25075 H 2375.91 5.33477 1.41798 0
M  V30 25076 H 2376.39 3.81627 2.17388 0
M  V30 25077 H 2376.99 4.21723 0.550461 0
M  V30 25078 N 2375.31 0.116931 1.57166 0
M  V30 25079 C 2376.53 -0.552675 1.99901 0
M  V30 25080 C 2376.96 -1.59562 0.996067 0
M  V30 25081 O 2376.31 -1.81271 -0.0325241 0
M  V30 25082 C 2376.36 -1.15736 3.41522 0
M  V30 25083 O 2375.47 -2.27292 3.4411 0
M  V30 25084 H 2374.81 -0.138246 0.649449 0
M  V30 25085 H 2377.34 0.204795 2.03572 0
M  V30 25086 H 2377.35 -1.49339 3.79686 0
M  V30 25087 H 2376.02 -0.393421 4.14035 0
M  V30 25088 H 2374.6 -1.95144 3.17763 0
M  V30 25089 N 2376.78 -1.56818 -0.156836 0
M  V30 25090 C 2378.03 -1.82445 -0.869372 0
M  V30 25091 C 2378.35 -0.696262 -1.82146 0
M  V30 25092 O 2377.62 0.282836 -1.93847 0
M  V30 25093 H 2376.2 -0.673062 -0.324031 0
M  V30 25094 H 2378.87 -1.94297 -0.15319 0
M  V30 25095 H 2377.96 -2.77021 -1.43756 0
M  V30 25096 N 2378.26 0.425871 -1.51737 0
M  V30 25097 C 2379.49 1.20105 -1.69084 0
M  V30 25098 C 2379.91 1.83961 -0.39243 0
M  V30 25099 O 2379.27 1.69303 0.648551 0
M  V30 25100 C 2379.32 2.25232 -2.81608 0
M  V30 25101 O 2378.42 3.30988 -2.4601 0
M  V30 25102 H 2377.76 0.35137 -0.563414 0
M  V30 25103 H 2380.29 0.501477 -1.98359 0
M  V30 25104 H 2380.3 2.69833 -3.0603 0
M  V30 25105 H 2378.98 1.78135 -3.7582 0
M  V30 25106 H 2377.56 2.91783 -2.322 0
M  V30 25107 N 2379.74 1.42077 0.682052 0
M  V30 25108 C 2381.15 1.37548 1.26243 0
M  V30 25109 C 2381.5 0.0651826 1.96092 0
M  V30 25110 O 2380.63 -0.836262 1.99589 0
M  V30 25111 C 2381.22 2.49147 2.29589 0
M  V30 25112 C 2379.78 2.47974 2.83171 0
M  V30 25113 C 2378.93 2.28305 1.57391 0
M  V30 25114 H 2381.88 1.51396 0.475911 0
M  V30 25115 H 2381.9 2.18982 3.11171 0
M  V30 25116 H 2381.41 3.44499 1.78723 0
M  V30 25117 H 2379.51 1.56419 3.38177 0
M  V30 25118 H 2379.63 3.44761 3.32681 0
M  V30 25119 H 2377.99 1.76431 1.83696 0
M  V30 25120 H 2378.77 3.25703 1.08501 0
M  V30 25121 N 2381.22 -0.917649 1.28129 0
M  V30 25122 C 2382.47 -1.66095 1.14435 0
M  V30 25123 C 2382.78 -1.93172 -0.307213 0
M  V30 25124 O 2383.99 -2.65552 -0.565212 0
M  V30 25125 C 2382.44 -2.99199 2.0002 0
M  V30 25126 C 2382.05 -2.79783 3.49893 0
M  V30 25127 C 2383.8 -3.7706 1.95002 0
M  V30 25128 C 2381.7 -4.08503 4.27643 0
M  V30 25129 H 2380.63 -0.623032 0.424673 0
M  V30 25130 H 2383.28 -1.01865 1.52629 0
M  V30 25131 H 2381.67 -3.64542 1.54678 0
M  V30 25132 H 2382.84 -2.23145 4.03166 0
M  V30 25133 H 2381.15 -2.15339 3.56396 0
M  V30 25134 H 2383.75 -4.72465 2.50362 0
M  V30 25135 H 2384.09 -4.05873 0.92589 0
M  V30 25136 H 2384.63 -3.1853 2.38293 0
M  V30 25137 H 2381.37 -3.84865 5.30621 0
M  V30 25138 H 2380.89 -4.64768 3.79145 0
M  V30 25139 H 2382.57 -4.76791 4.37355 0
M  V30 25140 N 2382.7 -1.10314 -1.12555 0
M  V30 25141 C 2383.95 -0.839621 -1.83394 0
M  V30 25142 C 2384.26 0.636897 -1.8494 0
M  V30 25143 O 2385.47 1.01627 -2.51762 0
M  V30 25144 C 2383.92 -1.4522 -3.29301 0
M  V30 25145 C 2383.53 -2.96192 -3.36116 0
M  V30 25146 C 2385.27 -1.26803 -4.05119 0
M  V30 25147 C 2383.18 -3.50491 -4.7635 0
M  V30 25148 H 2382.11 -0.310437 -0.687128 0
M  V30 25149 H 2384.76 -1.32697 -1.26743 0
M  V30 25150 H 2383.14 -0.892537 -3.85811 0
M  V30 25151 H 2384.32 -3.58463 -2.89553 0
M  V30 25152 H 2382.63 -3.1375 -2.7377 0
M  V30 25153 H 2385.23 -1.64815 -5.08665 0
M  V30 25154 H 2385.57 -0.209482 -4.15773 0
M  V30 25155 H 2386.11 -1.7957 -3.54964 0
M  V30 25156 H 2382.84 -4.56007 -4.70891 0
M  V30 25157 H 2382.36 -2.92987 -5.23372 0
M  V30 25158 H 2384.04 -3.48238 -5.45288 0
M  V30 25159 N 2384.18 1.29948 -0.891694 0
M  V30 25160 C 2385.12 2.29904 -0.353106 0
M  V30 25161 C 2386.12 1.60445 0.543481 0
M  V30 25162 O 2387.32 1.74858 0.427169 0
M  V30 25163 H 2383.7 0.745906 -0.0955441 0
M  V30 25164 H 2385.67 2.72781 -1.20966 0
M  V30 25165 C 2384.42 3.45257 0.411414 0
M  V30 25166 H 2383.74 3.98892 -0.269252 0
M  V30 25167 H 2385.18 4.17255 0.753254 0
M  V30 25168 C 2383.64 2.95883 1.61105 0
M  V30 25169 O 2384.17 2.9648 2.7104 0
M  V30 25170 N 2382.38 2.51812 1.45049 0
M  V30 25171 H 2381.92 2.51525 0.556131 0
M  V30 25172 H 2381.88 2.19134 2.2545 0
M  V30 25173 N 2385.65 0.653339 1.4342 0
M  V30 25174 C 2387.07 0.320914 1.5634 0
M  V30 25175 C 2387.27 -1.17496 1.63698 0
M  V30 25176 O 2386.33 -1.95979 1.59212 0
M  V30 25177 C 2387.64 1.03238 2.82423 0
M  V30 25178 C 2389.19 1.01264 2.96167 0
M  V30 25179 C 2389.66 1.705 4.25081 0
M  V30 25180 N 2391.15 1.67264 4.31945 0
M  V30 25181 C 2391.89 2.1771 5.30462 0
M  V30 25182 N 2391.38 2.76445 6.35256 0
M  V30 25183 N 2393.18 2.08209 5.22116 0
M  V30 25184 H 2385.33 1.62406 1.36887 0
M  V30 25185 H 2387.59 0.682989 0.657442 0
M  V30 25186 H 2387.3 2.08749 2.83049 0
M  V30 25187 H 2387.17 0.584013 3.72651 0
M  V30 25188 H 2389.56 -0.0340717 2.9508 0
M  V30 25189 H 2389.64 1.49969 2.07227 0
M  V30 25190 H 2389.28 2.75128 4.26928 0
M  V30 25191 H 2389.21 1.1926 5.12918 0
M  V30 25192 H 2391.7 1.24404 3.56836 0
M  V30 25193 H 2392.02 3.12613 7.06748 0
M  V30 25194 H 2390.36 2.80506 6.35879 0
M  V30 25195 H 2393.55 1.62028 4.39163 0
M  V30 25196 H 2393.73 2.47832 5.98735 0
M  V30 25197 N 2387.13 -1.52563 0.395266 0
M  V30 25198 C 2388.04 -2.30356 -0.444191 0
M  V30 25199 C 2389.06 -1.37513 -1.06612 0
M  V30 25200 O 2390.23 -1.70585 -1.07064 0
M  V30 25201 C 2387.3 -3.09967 -1.5531 0
M  V30 25202 C 2386.36 -4.18528 -0.95566 0
M  V30 25203 C 2385.59 -4.94333 -2.01173 0
M  V30 25204 O 2385.82 -4.70291 -3.22773 0
M  V30 25205 O 2384.75 -5.7953 -1.62569 0
M  V30 25206 H 2388.58 -3.03107 0.18972 0
M  V30 25207 H 2386.16 -1.48553 0.158826 0
M  V30 25208 H 2388.04 -3.59586 -2.19718 0
M  V30 25209 H 2386.72 -2.40024 -2.17187 0
M  V30 25210 H 2385.62 -3.7309 -0.274678 0
M  V30 25211 H 2386.96 -4.90723 -0.381023 0
M  V30 25212 N 2388.61 -0.125265 -1.57101 0
M  V30 25213 C 2389.86 0.530164 -1.95022 0
M  V30 25214 C 2390.18 1.66814 -1.00985 0
M  V30 25215 O 2389.45 1.95784 -0.0673037 0
M  V30 25216 H 2388.03 0.19884 -0.72005 0
M  V30 25217 H 2390.69 -0.195674 -1.93915 0
M  V30 25218 H 2389.79 0.920629 -2.98213 0
M  V30 25219 N 2390.09 1.56899 0.148518 0
M  V30 25220 C 2391.03 1.98151 1.18341 0
M  V30 25221 C 2392 0.848873 1.4277 0
M  V30 25222 O 2393.19 1.11082 1.55131 0
M  V30 25223 C 2390.33 2.36598 2.51227 0
M  V30 25224 C 2389.44 3.63146 2.33985 0
M  V30 25225 C 2388.58 3.90703 3.59895 0
M  V30 25226 C 2387.62 5.10526 3.37683 0
M  V30 25227 N 2386.75 5.341 4.5572 0
M  V30 25228 H 2391.59 2.86363 0.82462 0
M  V30 25229 H 2389.13 1.41677 0.395731 0
M  V30 25230 H 2391.09 2.56918 3.28708 0
M  V30 25231 H 2389.72 1.51468 2.85057 0
M  V30 25232 H 2388.77 3.50612 1.47566 0
M  V30 25233 H 2390.08 4.50784 2.13531 0
M  V30 25234 H 2389.24 4.11512 4.45805 0
M  V30 25235 H 2387.98 3.01484 3.83352 0
M  V30 25236 H 2386.98 4.89591 2.50161 0
M  V30 25237 H 2388.21 6.01296 3.15627 0
M  V30 25238 H 2386.15 4.47836 4.79353 0
M  V30 25239 H 2386.07 6.16004 4.38263 0
M  V30 25240 H 2387.34 5.59407 5.42848 0
M  V30 25241 N 2391.57 -0.417818 1.51961 0
M  V30 25242 C 2392.81 -1.16729 1.65838 0
M  V30 25243 C 2393.14 -1.90388 0.382914 0
M  V30 25244 O 2392.42 -1.8441 -0.618335 0
M  V30 25245 C 2392.7 -2.16871 2.8747 0
M  V30 25246 C 2392.56 -1.47167 4.25043 0
M  V30 25247 C 2393.87 -3.1764 3.04619 0
M  V30 25248 H 2390.99 -0.423001 0.603522 0
M  V30 25249 H 2393.64 -0.454072 1.84494 0
M  V30 25250 H 2391.79 -2.77695 2.71694 0
M  V30 25251 H 2393.46 -0.895297 4.52529 0
M  V30 25252 H 2391.7 -0.773731 4.26844 0
M  V30 25253 H 2392.37 -2.20195 5.0618 0
M  V30 25254 H 2394.85 -2.66886 3.19235 0
M  V30 25255 H 2393.72 -3.84983 3.91253 0
M  V30 25256 H 2393.98 -3.84871 2.17548 0
M  V30 25257 N 2393.04 -1.42436 -0.674508 0
M  V30 25258 C 2394.29 -1.43133 -1.43669 0
M  V30 25259 C 2394.62 -0.0476362 -1.94142 0
M  V30 25260 O 2393.9 0.928158 -1.70925 0
M  V30 25261 C 2394.18 -2.45598 -2.63351 0
M  V30 25262 C 2394.03 -3.9316 -2.18507 0
M  V30 25263 C 2395.35 -2.45049 -3.65567 0
M  V30 25264 H 2392.47 -0.521207 -0.521068 0
M  V30 25265 H 2395.11 -1.73852 -0.766521 0
M  V30 25266 H 2393.26 -2.19534 -3.20526 0
M  V30 25267 H 2394.94 -4.30205 -1.66497 0
M  V30 25268 H 2393.18 -4.07012 -1.50079 0
M  V30 25269 H 2393.85 -4.60433 -3.04475 0
M  V30 25270 H 2396.33 -2.68228 -3.18108 0
M  V30 25271 H 2395.2 -3.18721 -4.46887 0
M  V30 25272 H 2395.46 -1.47656 -4.16713 0
M  V30 25273 N 2394.52 0.910841 -1.28614 0
M  V30 25274 C 2395.77 1.65699 -1.15708 0
M  V30 25275 C 2396.09 1.92769 0.294126 0
M  V30 25276 O 2395.36 1.5459 1.20328 0
M  V30 25277 H 2393.94 0.614159 -0.425227 0
M  V30 25278 H 2396.6 1.09277 -1.61383 0
M  V30 25279 H 2395.7 2.61812 -1.69885 0
M  V30 25280 N 2396 1.10909 1.11969 0
M  V30 25281 C 2396.93 0.784511 2.19927 0
M  V30 25282 C 2397.91 -0.244697 1.68331 0
M  V30 25283 O 2399.1 -0.109384 1.93892 0
M  V30 25284 C 2396.23 0.220888 3.46597 0
M  V30 25285 C 2395.18 1.18134 4.11374 0
M  V30 25286 C 2394.51 0.478688 5.32553 0
M  V30 25287 C 2395.81 2.52987 4.56941 0
M  V30 25288 H 2397.5 1.68719 2.47334 0
M  V30 25289 H 2395.05 0.812663 1.18877 0
M  V30 25290 H 2397 -0.0183538 4.21396 0
M  V30 25291 H 2395.72 -0.717057 3.18631 0
M  V30 25292 H 2394.38 1.40612 3.38561 0
M  V30 25293 H 2394.03 -0.463888 5.00856 0
M  V30 25294 H 2393.73 1.11922 5.76842 0
M  V30 25295 H 2395.25 0.248107 6.10096 0
M  V30 25296 H 2396.67 2.3463 5.23089 0
M  V30 25297 H 2395.07 3.12971 5.12025 0
M  V30 25298 H 2396.14 3.1262 3.70671 0
M  V30 25299 N 2397.48 -1.29474 0.898573 0
M  V30 25300 C 2398.71 -1.99458 0.538514 0
M  V30 25301 C 2399.12 -1.67442 -0.880893 0
M  V30 25302 O 2398.46 -0.915155 -1.59282 0
M  V30 25303 C 2398.52 -3.53582 0.649626 0
M  V30 25304 C 2398.19 -4.0915 2.0358 0
M  V30 25305 C 2399.18 -4.2413 3.00683 0
M  V30 25306 C 2396.87 -4.44208 2.34488 0
M  V30 25307 C 2398.86 -4.73398 4.26818 0
M  V30 25308 C 2396.55 -4.93173 3.60866 0
M  V30 25309 C 2397.55 -5.07722 4.56845 0
M  V30 25310 O 2397.23 -5.55625 5.80979 0
M  V30 25311 H 2396.97 -0.644045 0.205383 0
M  V30 25312 H 2399.52 -1.66005 1.20961 0
M  V30 25313 H 2397.75 -3.8662 -0.0784913 0
M  V30 25314 H 2399.44 -4.04798 0.298881 0
M  V30 25315 H 2400.21 -3.97334 2.78119 0
M  V30 25316 H 2396.08 -4.32143 1.60542 0
M  V30 25317 H 2399.63 -4.84669 5.01738 0
M  V30 25318 H 2395.53 -5.19405 3.8326 0
M  V30 25319 H 2396.29 -5.73942 5.83552 0
M  V30 25320 N 2398.96 -0.660936 -1.43071 0
M  V30 25321 C 2400.2 -0.17713 -2.01322 0
M  V30 25322 C 2400.53 1.21587 -1.52452 0
M  V30 25323 O 2399.8 1.81371 -0.740354 0
M  V30 25324 H 2398.38 -0.0624935 -0.744381 0
M  V30 25325 H 2401.04 -0.854336 -1.75177 0
M  V30 25326 H 2400.13 -0.167695 -3.11649 0
M  V30 25327 N 2400.43 1.52351 -0.403352 0
M  V30 25328 C 2401.38 2.28406 0.439712 0
M  V30 25329 C 2402.38 1.32865 1.05087 0
M  V30 25330 O 2403.58 1.50347 0.989733 0
M  V30 25331 H 2399.96 0.734656 0.160574 0
M  V30 25332 H 2401.93 2.97565 -0.223035 0
M  V30 25333 C 2400.68 3.11374 1.5473 0
M  V30 25334 H 2400 3.84757 1.08636 0
M  V30 25335 H 2401.44 3.67705 2.11114 0
M  V30 25336 C 2399.9 2.2457 2.51137 0
M  V30 25337 O 2400.43 1.88203 3.54884 0
M  V30 25338 N 2398.64 1.88454 2.21209 0
M  V30 25339 H 2398.18 2.18227 1.36874 0
M  V30 25340 H 2398.14 1.30667 2.85961 0
M  V30 25341 N 2401.91 0.133594 1.57033 0
M  V30 25342 C 2403.16 -0.519814 1.95301 0
M  V30 25343 C 2403.48 -1.66276 1.01869 0
M  V30 25344 O 2402.75 -1.95746 0.0776857 0
M  V30 25345 H 2401.33 -0.195019 0.721094 0
M  V30 25346 H 2403.99 0.205955 1.93809 0
M  V30 25347 H 2403.09 -0.904801 2.98697 0
M  V30 25348 N 2403.39 -1.56975 -0.140195 0
M  V30 25349 C 2404.64 -1.83992 -0.852917 0
M  V30 25350 C 2404.97 -0.716218 -1.8051 0
M  V30 25351 O 2404.24 0.279647 -1.92479 0
M  V30 25352 C 2404.53 -3.2153 -1.62144 0
M  V30 25353 C 2404.38 -4.44472 -0.690285 0
M  V30 25354 C 2405.7 -3.5637 -2.58241 0
M  V30 25355 H 2402.82 -0.669269 -0.308622 0
M  V30 25356 H 2405.46 -1.89634 -0.117865 0
M  V30 25357 H 2403.61 -3.16851 -2.24806 0
M  V30 25358 H 2405.28 -4.6124 -0.0741453 0
M  V30 25359 H 2403.53 -4.338 -0.000320181 0
M  V30 25360 H 2404.2 -5.37328 -1.26421 0
M  V30 25361 H 2406.67 -3.61703 -2.05694 0
M  V30 25362 H 2405.55 -4.53623 -3.09059 0
M  V30 25363 H 2405.81 -2.8268 -3.39918 0
M  V30 25364 N 2404.87 0.409753 -1.5218 0
M  V30 25365 C 2406.11 1.15848 -1.66455 0
M  V30 25366 C 2406.45 1.90182 -0.393005 0
M  V30 25367 O 2405.72 1.84735 0.608547 0
M  V30 25368 C 2406.01 2.15344 -2.88616 0
M  V30 25369 C 2405.86 1.44911 -4.25818 0
M  V30 25370 C 2407.18 3.1602 -3.06299 0
M  V30 25371 H 2404.3 0.419794 -0.605757 0
M  V30 25372 H 2406.94 0.444282 -1.84733 0
M  V30 25373 H 2405.09 2.7625 -2.73163 0
M  V30 25374 H 2406.76 0.871285 -4.52997 0
M  V30 25375 H 2405 0.751084 -4.27248 0
M  V30 25376 H 2405.67 2.17507 -5.07341 0
M  V30 25377 H 2408.15 2.6519 -3.20646 0
M  V30 25378 H 2407.03 3.82903 -3.93289 0
M  V30 25379 H 2407.29 3.83711 -2.19586 0
M  V30 25380 N 2406.35 1.42792 0.666944 0
M  V30 25381 C 2407.57 1.47094 1.45503 0
M  V30 25382 C 2407.99 0.0846204 1.8861 0
M  V30 25383 O 2407.35 -0.902312 1.58633 0
M  V30 25384 C 2407.4 2.4049 2.69902 0
M  V30 25385 O 2407.12 3.73729 2.28601 0
M  V30 25386 C 2408.62 2.53892 3.63392 0
M  V30 25387 H 2405.84 0.500029 0.44745 0
M  V30 25388 H 2408.38 1.87391 0.818833 0
M  V30 25389 H 2406.54 2.03425 3.29693 0
M  V30 25390 H 2406.95 4.23822 3.0899 0
M  V30 25391 H 2408.43 3.23347 4.47382 0
M  V30 25392 H 2408.9 1.57935 4.09821 0
M  V30 25393 H 2409.51 2.91712 3.0949 0
M  V30 25394 N 2407.82 -0.904008 1.29095 0
M  V30 25395 C 2408.77 -2.00762 1.13856 0
M  V30 25396 C 2409.74 -1.66067 0.0330376 0
M  V30 25397 O 2410.93 -1.89751 0.199766 0
M  V30 25398 C 2408.07 -3.35299 0.816595 0
M  V30 25399 C 2407.18 -3.82804 2.00213 0
M  V30 25400 C 2406.31 -5.05897 1.61992 0
M  V30 25401 C 2405.35 -5.45759 2.77152 0
M  V30 25402 N 2404.49 -6.6004 2.39357 0
M  V30 25403 H 2409.33 -2.13128 2.08279 0
M  V30 25404 H 2406.87 -1.0438 1.0365 0
M  V30 25405 H 2408.83 -4.12707 0.61063 0
M  V30 25406 H 2407.46 -3.22672 -0.0907223 0
M  V30 25407 H 2406.51 -3.01469 2.31993 0
M  V30 25408 H 2407.82 -4.08299 2.86519 0
M  V30 25409 H 2406.97 -5.90876 1.37659 0
M  V30 25410 H 2405.71 -4.82232 0.728287 0
M  V30 25411 H 2404.72 -4.59316 3.02173 0
M  V30 25412 H 2405.94 -5.71408 3.66974 0
M  V30 25413 H 2403.89 -6.37986 1.52676 0
M  V30 25414 H 2403.81 -6.85309 3.19197 0
M  V30 25415 H 2405.07 -7.48299 2.18333 0
M  V30 25416 N 2409.3 -1.11501 -1.11379 0
M  V30 25417 C 2410.25 -0.768994 -2.1952 0
M  V30 25418 C 2411.24 0.239828 -1.67694 0
M  V30 25419 O 2412.45 0.0990439 -1.79727 0
M  V30 25420 H 2408.83 -0.230799 -0.715707 0
M  V30 25421 H 2410.8 -1.68969 -2.45951 0
M  V30 25422 C 2409.55 -0.229134 -3.46944 0
M  V30 25423 H 2408.87 -0.996664 -3.87178 0
M  V30 25424 H 2410.31 -0.0252186 -4.23993 0
M  V30 25425 C 2408.77 1.04074 -3.20422 0
M  V30 25426 O 2409.3 2.12032 -3.41182 0
M  V30 25427 N 2407.5 0.963775 -2.74153 0
M  V30 25428 H 2407.05 0.0851269 -2.57459 0
M  V30 25429 H 2407.01 1.81409 -2.56784 0
M  V30 25430 N 2410.78 1.28995 -0.905426 0
M  V30 25431 C 2412.03 1.94939 -0.533227 0
M  V30 25432 C 2412.35 1.71687 0.924588 0
M  V30 25433 O 2411.62 1.05186 1.65266 0
M  V30 25434 H 2410.2 0.721313 -0.194207 0
M  V30 25435 H 2412.86 1.57139 -1.15297 0
M  V30 25436 H 2411.96 3.03666 -0.720644 0
M  V30 25437 N 2412.26 0.668514 1.42719 0
M  V30 25438 C 2413.51 0.187804 2.01226 0
M  V30 25439 C 2413.83 -1.20777 1.53094 0
M  V30 25440 O 2413.1 -1.80976 0.749962 0
M  V30 25441 H 2411.68 0.0664403 0.744039 0
M  V30 25442 H 2414.34 0.863614 1.74722 0
M  V30 25443 H 2413.44 0.184221 3.11556 0
M  V30 25444 N 2413.74 -1.52135 0.411426 0
M  V30 25445 C 2414.97 -2.05958 -0.162804 0
M  V30 25446 C 2415.38 -1.28121 -1.39218 0
M  V30 25447 O 2414.72 -0.326913 -1.80768 0
M  V30 25448 C 2414.78 -3.54857 -0.575883 0
M  V30 25449 C 2414.44 -4.53762 0.543077 0
M  V30 25450 C 2415.44 -5.00489 1.40735 0
M  V30 25451 C 2413.13 -4.97165 0.716424 0
M  V30 25452 C 2415.12 -5.89266 2.4299 0
M  V30 25453 C 2412.81 -5.85737 1.74228 0
M  V30 25454 C 2413.81 -6.31683 2.59742 0
M  V30 25455 O 2413.49 -7.18501 3.60571 0
M  V30 25456 H 2413.23 -0.675612 -0.0229007 0
M  V30 25457 H 2415.78 -1.96992 0.581669 0
M  V30 25458 H 2414.01 -3.61517 -1.37267 0
M  V30 25459 H 2415.7 -3.91315 -1.07829 0
M  V30 25460 H 2416.46 -4.67672 1.28484 0
M  V30 25461 H 2412.34 -4.6096 0.0604667 0
M  V30 25462 H 2415.89 -6.2505 3.09771 0
M  V30 25463 H 2411.78 -6.17968 1.86509 0
M  V30 25464 H 2412.55 -7.36618 3.56842 0
M  V30 25465 N 2415.22 -0.14192 -1.5696 0
M  V30 25466 C 2416.46 0.511214 -1.96251 0
M  V30 25467 C 2416.79 1.64849 -1.02657 0
M  V30 25468 O 2416.07 1.94381 -0.0680017 0
M  V30 25469 C 2416.35 1.02221 -3.45287 0
M  V30 25470 C 2416.21 -0.113217 -4.49657 0
M  V30 25471 C 2417.52 1.90567 -3.96702 0
M  V30 25472 H 2414.64 0.184355 -0.71357 0
M  V30 25473 H 2417.29 -0.22212 -1.88697 0
M  V30 25474 H 2415.44 1.64713 -3.51855 0
M  V30 25475 H 2417.11 -0.749382 -4.55172 0
M  V30 25476 H 2415.35 -0.773101 -4.26855 0
M  V30 25477 H 2416.02 0.285956 -5.51259 0
M  V30 25478 H 2418.5 1.37911 -3.92581 0
M  V30 25479 H 2417.37 2.23232 -5.01457 0
M  V30 25480 H 2417.63 2.84073 -3.38755 0
M  V30 25481 N 2416.69 1.57047 0.131868 0
M  V30 25482 C 2417.92 1.88712 0.860385 0
M  V30 25483 C 2418.34 0.732541 1.7325 0
M  V30 25484 O 2417.7 -0.317397 1.785 0
M  V30 25485 C 2417.75 3.19052 1.68042 0
M  V30 25486 O 2416.85 3.04052 2.78615 0
M  V30 25487 H 2416.19 0.619599 0.238732 0
M  V30 25488 H 2418.72 2.04259 0.118133 0
M  V30 25489 H 2418.73 3.51452 2.07232 0
M  V30 25490 H 2417.41 4.02684 1.04011 0
M  V30 25491 H 2415.99 2.83092 2.42721 0
M  V30 25492 N 2418.17 -0.401677 1.52395 0
M  V30 25493 C 2419.42 -1.14567 1.6649 0
M  V30 25494 C 2419.74 -1.90834 0.40093 0
M  V30 25495 O 2419.01 -1.86981 -0.584382 0
M  V30 25496 H 2417.59 -0.425918 0.61368 0
M  V30 25497 H 2420.25 -0.457059 1.89465 0
M  V30 25498 H 2419.35 -1.85561 2.50945 0
M  V30 25499 N 2419.65 -1.43144 -0.659362 0
M  V30 25500 C 2420.9 -1.43723 -1.41515 0
M  V30 25501 C 2421.21 -0.062852 -1.95499 0
M  V30 25502 O 2422.42 0.0539206 -2.71446 0
M  V30 25503 C 2420.87 -2.5289 -2.56076 0
M  V30 25504 C 2420.48 -3.96406 -2.08726 0
M  V30 25505 C 2422.23 -2.62655 -3.33485 0
M  V30 25506 C 2420.13 -4.9705 -3.20461 0
M  V30 25507 H 2419.06 -0.534618 -0.531696 0
M  V30 25508 H 2421.71 -1.6911 -0.712314 0
M  V30 25509 H 2420.1 -2.20693 -3.28801 0
M  V30 25510 H 2421.27 -4.38033 -1.43052 0
M  V30 25511 H 2419.58 -3.9063 -1.44212 0
M  V30 25512 H 2422.18 -3.35025 -4.16729 0
M  V30 25513 H 2422.52 -1.6752 -3.81107 0
M  V30 25514 H 2423.06 -2.94123 -2.67837 0
M  V30 25515 H 2419.8 -5.93717 -2.77814 0
M  V30 25516 H 2419.32 -4.60041 -3.84866 0
M  V30 25517 H 2421 -5.19474 -3.85689 0
M  V30 25518 N 2421.13 0.897149 -1.29572 0
M  V30 25519 C 2422.09 1.9831 -1.14917 0
M  V30 25520 C 2423.09 1.60581 -0.0838911 0
M  V30 25521 O 2424.28 1.71026 -0.331036 0
M  V30 25522 C 2421.41 3.32368 -0.757893 0
M  V30 25523 H 2422.61 2.1274 -2.11381 0
M  V30 25524 H 2420.16 1.08199 -1.12795 0
M  V30 25525 H 2420.89 3.2364 0.20678 0
M  V30 25526 H 2420.68 3.61118 -1.52761 0
M  V30 25527 H 2422.17 4.12051 -0.67848 0
M  V30 25528 N 2422.61 1.1209 1.10786 0
M  V30 25529 C 2423.54 0.743251 2.16814 0
M  V30 25530 C 2424.55 -0.228383 1.6119 0
M  V30 25531 O 2425.74 -0.0102617 1.78497 0
M  V30 25532 C 2422.84 0.0787909 3.38808 0
M  V30 25533 C 2422.01 1.07897 4.23883 0
M  V30 25534 C 2421.07 0.442805 5.24334 0
M  V30 25535 O 2420.1 1.09874 5.58495 0
M  V30 25536 N 2421.3 -0.791356 5.75081 0
M  V30 25537 H 2424.06 1.65557 2.49822 0
M  V30 25538 H 2421.63 1.01203 1.26371 0
M  V30 25539 H 2423.62 -0.358696 4.03107 0
M  V30 25540 H 2422.19 -0.736221 3.03807 0
M  V30 25541 H 2421.41 1.6942 3.55936 0
M  V30 25542 H 2422.7 1.75542 4.77559 0
M  V30 25543 H 2422.09 -1.3433 5.4952 0
M  V30 25544 H 2420.65 -1.17172 6.41182 0
M  V30 25545 N 2424.08 -1.28513 0.912254 0
M  V30 25546 C 2425.31 -1.99165 0.560451 0
M  V30 25547 C 2425.73 -1.68183 -0.857897 0
M  V30 25548 O 2425.08 -0.933761 -1.56803 0
M  V30 25549 C 2425.13 -3.53459 0.758204 0
M  V30 25550 O 2424.86 -3.83349 2.12074 0
M  V30 25551 C 2426.36 -4.41372 0.413032 0
M  V30 25552 H 2423.58 -0.636022 0.213816 0
M  V30 25553 H 2426.12 -1.63746 1.22505 0
M  V30 25554 H 2424.28 -3.87145 0.140624 0
M  V30 25555 H 2424.69 -4.77989 2.15931 0
M  V30 25556 H 2426.16 -5.48706 0.602176 0
M  V30 25557 H 2426.64 -4.34354 -0.650654 0
M  V30 25558 H 2427.25 -4.1318 1.00809 0
M  V30 25559 N 2425.56 -0.676073 -1.42362 0
M  V30 25560 C 2426.51 0.0131099 -2.32596 0
M  V30 25561 C 2427.5 0.789212 -1.49893 0
M  V30 25562 O 2428.71 0.697032 -1.65956 0
M  V30 25563 H 2425.09 0.0230349 -0.751647 0
M  V30 25564 H 2427.06 -0.765293 -2.8842 0
M  V30 25565 C 2425.81 0.949643 -3.3448 0
M  V30 25566 H 2425.13 0.361868 -3.98159 0
M  V30 25567 H 2426.57 1.40053 -4.00201 0
M  V30 25568 C 2425.03 2.05663 -2.66842 0
M  V30 25569 O 2425.56 3.14322 -2.5013 0
M  V30 25570 N 2423.76 1.82871 -2.25846 0
M  V30 25571 H 2423.31 0.945043 -2.39639 0
M  V30 25572 H 2423.27 2.57127 -1.80923 0
M  V30 25573 N 2427.04 1.51915 -0.419488 0
M  V30 25574 C 2428 2.25874 0.389076 0
M  V30 25575 C 2429 1.28632 0.964901 0
M  V30 25576 O 2430.19 1.52491 0.842152 0
M  V30 25577 C 2427.33 3.03691 1.54869 0
M  V30 25578 H 2428.52 2.98781 -0.258851 0
M  V30 25579 H 2426.07 1.55348 -0.172236 0
M  V30 25580 H 2426.81 2.35158 2.23318 0
M  V30 25581 H 2426.59 3.75096 1.14217 0
M  V30 25582 H 2428.08 3.59762 2.1204 0
M  V30 25583 N 2428.52 0.150242 1.56882 0
M  V30 25584 C 2429.43 -0.801184 2.20495 0
M  V30 25585 C 2430.44 -1.26925 1.19021 0
M  V30 25586 O 2431.62 -1.32576 1.5161 0
M  V30 25587 C 2428.69 -2.02156 2.81662 0
M  V30 25588 C 2427.75 -1.60242 3.98273 0
M  V30 25589 C 2426.98 -2.76462 4.56513 0
M  V30 25590 O 2427.2 -3.92764 4.13634 0
M  V30 25591 O 2426.14 -2.51748 5.46724 0
M  V30 25592 H 2429.96 -0.289664 3.02315 0
M  V30 25593 H 2427.55 -0.0769422 1.49202 0
M  V30 25594 H 2429.43 -2.7357 3.20527 0
M  V30 25595 H 2428.1 -2.52254 2.02853 0
M  V30 25596 H 2427.01 -0.858413 3.64118 0
M  V30 25597 H 2428.34 -1.14856 4.78611 0
M  V30 25598 N 2430 -1.57115 -0.123538 0
M  V30 25599 C 2431.41 -1.7383 -0.681167 0
M  V30 25600 C 2431.76 -0.768246 -1.80534 0
M  V30 25601 O 2430.88 0.0598723 -2.16317 0
M  V30 25602 C 2431.48 -3.15198 -1.2424 0
M  V30 25603 C 2430.04 -3.33435 -1.74637 0
M  V30 25604 C 2429.18 -2.69713 -0.644237 0
M  V30 25605 H 2432.14 -1.5837 0.102342 0
M  V30 25606 H 2432.16 -3.16497 -2.11211 0
M  V30 25607 H 2431.67 -3.85777 -0.423995 0
M  V30 25608 H 2429.77 -2.67891 -2.5897 0
M  V30 25609 H 2429.88 -4.41566 -1.85894 0
M  V30 25610 H 2428.25 -2.30822 -1.07672 0
M  V30 25611 H 2429.03 -3.42912 0.163118 0
M  V30 25612 N 2431.47 0.393589 -1.52606 0
M  V30 25613 C 2432.75 1.15302 -1.58003 0
M  V30 25614 C 2433.13 2.07825 -0.370422 0
M  V30 25615 O 2432.48 2.19307 0.6416 0
M  V30 25616 C 2432.69 1.91672 -2.91655 0
M  V30 25617 C 2434.04 2.47195 -3.45224 0
M  V30 25618 O 2435.06 2.01834 -2.93499 0
M  V30 25619 O 2433.92 3.30043 -4.35585 0
M  V30 25620 H 2431.01 0.527316 -0.637077 0
M  V30 25621 H 2433.56 0.399112 -1.6494 0
M  V30 25622 H 2432.33 1.23985 -3.71138 0
M  V30 25623 H 2431.96 2.74034 -2.88082 0
M  V30 25624 N 2432.95 1.43492 0.651762 0
M  V30 25625 C 2434.2 1.44899 1.40885 0
M  V30 25626 C 2434.52 0.0749429 1.94856 0
M  V30 25627 O 2433.79 -0.889925 1.7452 0
M  V30 25628 H 2432.37 0.533487 0.522877 0
M  V30 25629 H 2435.03 1.79106 0.768578 0
M  V30 25630 H 2434.13 2.1624 2.25048 0
M  V30 25631 N 2434.43 -0.890264 1.30046 0
M  V30 25632 C 2435.84 -1.457 1.16741 0
M  V30 25633 C 2436.19 -1.94801 -0.233905 0
M  V30 25634 O 2435.32 -1.84543 -1.13018 0
M  V30 25635 C 2435.91 -2.64821 2.11318 0
M  V30 25636 C 2434.47 -3.17601 2.02007 0
M  V30 25637 C 2433.62 -1.90293 2.01703 0
M  V30 25638 H 2436.57 -0.700701 1.42393 0
M  V30 25639 H 2436.59 -3.40864 1.69092 0
M  V30 25640 H 2436.1 -2.29054 3.13298 0
M  V30 25641 H 2434.2 -3.58038 1.03148 0
M  V30 25642 H 2434.32 -3.81259 2.90135 0
M  V30 25643 H 2432.68 -2.08399 1.4643 0
M  V30 25644 H 2433.46 -1.5679 3.05404 0
M  V30 25645 N 2435.91 -1.12676 -1.1019 0
M  V30 25646 C 2437.14 -0.90656 -1.85981 0
M  V30 25647 C 2437.55 0.544301 -1.80784 0
M  V30 25648 O 2436.91 1.37643 -1.19836 0
M  V30 25649 C 2436.96 -1.37623 -3.34278 0
M  V30 25650 O 2436.68 -2.77023 -3.39396 0
M  V30 25651 C 2438.18 -1.19333 -4.26936 0
M  V30 25652 H 2435.4 -0.323786 -0.587711 0
M  V30 25653 H 2437.95 -1.49736 -1.39282 0
M  V30 25654 H 2436.1 -0.828606 -3.78435 0
M  V30 25655 H 2436.51 -2.97692 -4.31833 0
M  V30 25656 H 2437.99 -1.57081 -5.29178 0
M  V30 25657 H 2438.47 -0.134174 -4.38995 0
M  V30 25658 H 2439.07 -1.72859 -3.88587 0
M  V30 25659 N 2437.39 1.28028 -0.919057 0
M  V30 25660 C 2438.8 1.7677 -0.600766 0
M  V30 25661 C 2439.15 1.75157 0.883993 0
M  V30 25662 O 2438.27 1.34958 1.6916 0
M  V30 25663 C 2438.87 3.20998 -1.08378 0
M  V30 25664 C 2437.43 3.67442 -0.816312 0
M  V30 25665 C 2436.57 2.47656 -1.24747 0
M  V30 25666 H 2439.53 1.14416 -1.09976 0
M  V30 25667 H 2439.55 3.7809 -0.427579 0
M  V30 25668 H 2439.06 3.2214 -2.16443 0
M  V30 25669 H 2437.16 3.71754 0.250903 0
M  V30 25670 H 2437.27 4.57331 -1.42778 0
M  V30 25671 H 2435.64 2.45835 -0.666126 0
M  V30 25672 H 2436.42 2.51514 -2.33657 0
M  V30 25673 N 2438.86 0.683613 1.42002 0
M  V30 25674 C 2439.77 0.0109488 2.34597 0
M  V30 25675 C 2440.79 -0.779218 1.55577 0
M  V30 25676 O 2441.97 -0.719522 1.88109 0
M  V30 25677 C 2439.03 -0.922529 3.34201 0
M  V30 25678 C 2438.09 -0.125908 4.29115 0
M  V30 25679 C 2437.33 -1.01493 5.23961 0
M  V30 25680 O 2437.55 -2.25447 5.23956 0
M  V30 25681 O 2436.48 -0.471004 6.00054 0
M  V30 25682 H 2440.31 0.773904 2.93674 0
M  V30 25683 H 2437.89 0.443886 1.42653 0
M  V30 25684 H 2439.78 -1.45816 3.95368 0
M  V30 25685 H 2438.45 -1.66518 2.77585 0
M  V30 25686 H 2437.36 0.454034 3.71335 0
M  V30 25687 H 2438.69 0.577822 4.88797 0
M  V30 25688 N 2440.34 -1.5169 0.427538 0
M  V30 25689 C 2441.27 -2.30394 -0.379559 0
M  V30 25690 C 2442.25 -1.35385 -1.0298 0
M  V30 25691 O 2443.44 -1.64302 -1.03531 0
M  V30 25692 C 2440.57 -3.13883 -1.48644 0
M  V30 25693 C 2439.52 -4.1709 -0.960221 0
M  V30 25694 C 2438.85 -4.89037 -2.1621 0
M  V30 25695 C 2440.15 -5.223 -0.00144499 0
M  V30 25696 H 2441.84 -2.98114 0.277216 0
M  V30 25697 H 2439.39 -1.43368 0.134764 0
M  V30 25698 H 2441.34 -3.67718 -2.0582 0
M  V30 25699 H 2440.07 -2.43966 -2.17136 0
M  V30 25700 H 2438.73 -3.64292 -0.410742 0
M  V30 25701 H 2438.37 -4.15633 -2.83299 0
M  V30 25702 H 2438.07 -5.58819 -1.81644 0
M  V30 25703 H 2439.6 -5.45692 -2.73958 0
M  V30 25704 H 2441.01 -5.71265 -0.482586 0
M  V30 25705 H 2439.41 -5.99552 0.256305 0
M  V30 25706 H 2440.48 -4.75736 0.938258 0
M  V30 25707 N 2441.82 -0.15856 -1.568 0
M  V30 25708 C 2442.73 0.789479 -2.20917 0
M  V30 25709 C 2443.75 1.26292 -1.19693 0
M  V30 25710 O 2444.92 1.3177 -1.52311 0
M  V30 25711 C 2441.99 2.0066 -2.82731 0
M  V30 25712 C 2441.05 1.58127 -3.99117 0
M  V30 25713 C 2440.28 2.74037 -4.57973 0
M  V30 25714 O 2440.51 3.90565 -4.15711 0
M  V30 25715 O 2439.44 2.48845 -5.48051 0
M  V30 25716 H 2443.27 0.273628 -3.02465 0
M  V30 25717 H 2440.85 0.0690286 -1.4924 0
M  V30 25718 H 2442.73 2.71866 -3.21973 0
M  V30 25719 H 2441.41 2.51175 -2.04188 0
M  V30 25720 H 2440.31 0.83909 -3.64568 0
M  V30 25721 H 2441.65 1.12316 -4.79214 0
M  V30 25722 N 2443.3 1.57178 0.115204 0
M  V30 25723 C 2444.21 2.0392 1.1599 0
M  V30 25724 C 2445.23 0.960293 1.45101 0
M  V30 25725 O 2446.4 1.27207 1.56142 0
M  V30 25726 C 2443.47 2.43736 2.46563 0
M  V30 25727 C 2442.53 3.65727 2.24815 0
M  V30 25728 C 2441.76 4.03635 3.49163 0
M  V30 25729 O 2441.98 3.41843 4.56617 0
M  V30 25730 O 2440.92 4.96714 3.3994 0
M  V30 25731 H 2444.74 2.93165 0.792968 0
M  V30 25732 H 2442.33 1.45794 0.326274 0
M  V30 25733 H 2444.21 2.70063 3.23487 0
M  V30 25734 H 2442.89 1.57636 2.82723 0
M  V30 25735 H 2441.79 3.44545 1.45738 0
M  V30 25736 H 2443.13 4.52544 1.93558 0
M  V30 25737 N 2444.78 -0.38549 1.52813 0
M  V30 25738 C 2445.69 -1.49532 1.80769 0
M  V30 25739 C 2446.7 -1.59531 0.694679 0
M  V30 25740 O 2447.88 -1.75801 0.982642 0
M  V30 25741 C 2444.94 -2.85026 1.97386 0
M  V30 25742 C 2444.01 -2.84719 3.213 0
M  V30 25743 C 2443.24 -4.1375 3.37115 0
M  V30 25744 O 2443.46 -5.08889 2.57659 0
M  V30 25745 O 2442.4 -4.20775 4.30386 0
M  V30 25746 H 2446.22 -1.28838 2.75017 0
M  V30 25747 H 2443.81 -0.573673 1.37947 0
M  V30 25748 H 2445.69 -3.65345 2.10003 0
M  V30 25749 H 2444.36 -3.05739 1.06327 0
M  V30 25750 H 2443.27 -2.03168 3.14123 0
M  V30 25751 H 2444.6 -2.68958 4.12217 0
M  V30 25752 N 2446.26 -1.43835 -0.644143 0
M  V30 25753 C 2447.19 -1.44154 -1.76903 0
M  V30 25754 C 2448.17 -0.301886 -1.59773 0
M  V30 25755 O 2449.35 -0.496873 -1.81834 0
M  V30 25756 C 2446.48 -1.26179 -3.14319 0
M  V30 25757 C 2445.52 -2.43539 -3.5013 0
M  V30 25758 S 2446.36 -4.06085 -3.49078 0
M  V30 25759 C 2447.51 -3.9051 -4.89135 0
M  V30 25760 H 2447.75 -2.39339 -1.76364 0
M  V30 25761 H 2445.28 -1.30976 -0.817601 0
M  V30 25762 H 2447.24 -1.16496 -3.93623 0
M  V30 25763 H 2445.9 -0.325279 -3.12411 0
M  V30 25764 H 2445.09 -2.26791 -4.50091 0
M  V30 25765 H 2444.69 -2.49895 -2.7826 0
M  V30 25766 H 2446.98 -3.53395 -5.78029 0
M  V30 25767 H 2447.93 -4.90255 -5.10936 0
M  V30 25768 H 2448.34 -3.22803 -4.63097 0
M  V30 25769 N 2447.73 0.883355 -1.30517 0
M  V30 25770 C 2448.98 1.6353 -1.19433 0
M  V30 25771 C 2449.31 1.92879 0.250593 0
M  V30 25772 O 2448.56 1.54937 1.19553 0
M  V30 25773 C 2448.86 2.98205 -1.96999 0
M  V30 25774 C 2448.53 2.88402 -3.46605 0
M  V30 25775 C 2447.19 2.85435 -3.87402 0
M  V30 25776 C 2449.54 2.7641 -4.41867 0
M  V30 25777 C 2446.87 2.68318 -5.21749 0
M  V30 25778 C 2449.22 2.60831 -5.76324 0
M  V30 25779 C 2447.89 2.5624 -6.16358 0
M  V30 25780 H 2447.16 0.598398 -0.437036 0
M  V30 25781 H 2449.8 1.02693 -1.61637 0
M  V30 25782 H 2448.11 3.63002 -1.47435 0
M  V30 25783 H 2449.81 3.55351 -1.85814 0
M  V30 25784 H 2446.4 2.91521 -3.14187 0
M  V30 25785 H 2450.58 2.77767 -4.11289 0
M  V30 25786 H 2445.84 2.63179 -5.51857 0
M  V30 25787 H 2450.01 2.50527 -6.49776 0
M  V30 25788 H 2447.64 2.42735 -7.20405 0
M  V30 25789 N 2449.21 1.13259 1.09591 0
M  V30 25790 C 2450.16 0.808419 2.16179 0
M  V30 25791 C 2451.13 -0.228725 1.64518 0
M  V30 25792 O 2452.31 -0.101348 1.90531 0
M  V30 25793 C 2449.45 0.278736 3.43972 0
M  V30 25794 C 2448.57 1.37474 4.09542 0
M  V30 25795 C 2447.7 0.803571 5.25087 0
M  V30 25796 C 2446.74 1.87809 5.82576 0
M  V30 25797 N 2445.88 1.325 6.89484 0
M  V30 25798 H 2450.72 1.72142 2.43251 0
M  V30 25799 H 2448.25 0.859315 1.19391 0
M  V30 25800 H 2450.21 -0.046485 4.17174 0
M  V30 25801 H 2448.84 -0.597404 3.17224 0
M  V30 25802 H 2447.89 1.81658 3.34222 0
M  V30 25803 H 2449.21 2.18692 4.48303 0
M  V30 25804 H 2448.36 0.429534 6.05178 0
M  V30 25805 H 2447.1 -0.0397099 4.87684 0
M  V30 25806 H 2446.1 2.26122 5.01148 0
M  V30 25807 H 2447.33 2.72474 6.22041 0
M  V30 25808 H 2445.28 0.50369 6.54063 0
M  V30 25809 H 2445.19 2.07368 7.27004 0
M  V30 25810 H 2446.46 0.978472 7.73334 0
M  V30 25811 N 2450.69 -1.27539 0.925834 0
M  V30 25812 C 2451.64 -2.26908 0.422085 0
M  V30 25813 C 2452.61 -1.58077 -0.510001 0
M  V30 25814 O 2453.79 -1.85902 -0.429566 0
M  V30 25815 C 2450.93 -3.43606 -0.320776 0
M  V30 25816 C 2450.04 -4.27155 0.645205 0
M  V30 25817 C 2449.18 -5.3107 -0.117312 0
M  V30 25818 C 2448.22 -6.06288 0.841498 0
M  V30 25819 N 2447.36 -7.02011 0.111727 0
M  V30 25820 H 2452.2 -2.69373 1.27446 0
M  V30 25821 H 2449.73 -1.32461 0.63972 0
M  V30 25822 H 2451.69 -4.10074 -0.767778 0
M  V30 25823 H 2450.32 -3.02098 -1.1374 0
M  V30 25824 H 2449.37 -3.60618 1.21073 0
M  V30 25825 H 2450.68 -4.79386 1.37805 0
M  V30 25826 H 2449.84 -6.03479 -0.624316 0
M  V30 25827 H 2448.58 -4.79637 -0.883135 0
M  V30 25828 H 2447.58 -5.3272 1.35977 0
M  V30 25829 H 2448.81 -6.59811 1.60707 0
M  V30 25830 H 2446.75 -6.52911 -0.635884 0
M  V30 25831 H 2446.67 -7.51922 0.784176 0
M  V30 25832 H 2447.94 -7.78599 -0.374686 0
M  V30 25833 N 2452.17 -0.691135 -1.41637 0
M  V30 25834 C 2453.58 -0.362252 -1.55435 0
M  V30 25835 C 2453.78 1.13114 -1.66756 0
M  V30 25836 O 2452.84 1.91689 -1.64352 0
M  V30 25837 C 2454.15 -1.10689 -2.79586 0
M  V30 25838 C 2455.7 -1.0908 -2.93378 0
M  V30 25839 C 2456.18 -1.8171 -4.20411 0
M  V30 25840 N 2457.67 -1.78658 -4.27359 0
M  V30 25841 C 2458.4 -2.31698 -5.24503 0
M  V30 25842 N 2457.9 -2.9319 -6.27703 0
M  V30 25843 N 2459.69 -2.21979 -5.16412 0
M  V30 25844 H 2451.84 -1.65978 -1.32533 0
M  V30 25845 H 2454.1 -0.700179 -0.639103 0
M  V30 25846 H 2453.81 -2.1618 -2.77415 0
M  V30 25847 H 2453.68 -0.68261 -3.70972 0
M  V30 25848 H 2456.07 -0.0441757 -2.95067 0
M  V30 25849 H 2456.15 -1.55411 -2.03178 0
M  V30 25850 H 2455.8 -2.8635 -4.19483 0
M  V30 25851 H 2455.73 -1.32817 -5.09575 0
M  V30 25852 H 2458.22 -1.33821 -3.53412 0
M  V30 25853 H 2458.53 -3.31241 -6.98211 0
M  V30 25854 H 2456.88 -2.97266 -6.28218 0
M  V30 25855 H 2460.07 -1.73615 -4.34713 0
M  V30 25856 H 2460.24 -2.63619 -5.91953 0
M  V30 25857 N 2453.65 1.51461 -0.435577 0
M  V30 25858 C 2454.59 2.29287 0.391164 0
M  V30 25859 C 2455.59 1.35064 1.02245 0
M  V30 25860 O 2456.79 1.52413 0.957619 0
M  V30 25861 H 2453.17 0.737897 0.144955 0
M  V30 25862 H 2455.14 2.97025 -0.286103 0
M  V30 25863 C 2453.89 3.14586 1.48091 0
M  V30 25864 H 2453.21 3.86975 1.0045 0
M  V30 25865 H 2454.65 3.721 2.03267 0
M  V30 25866 C 2453.11 2.29847 2.46317 0
M  V30 25867 O 2453.64 1.95688 3.50812 0
M  V30 25868 N 2451.85 1.93103 2.17162 0
M  V30 25869 H 2451.39 2.21082 1.32215 0
M  V30 25870 H 2451.35 1.36703 2.83125 0
M  V30 25871 N 2455.12 0.166873 1.56714 0
M  V30 25872 C 2456.05 -0.760874 2.20755 0
M  V30 25873 C 2457.04 -1.24242 1.1618 0
M  V30 25874 O 2458.22 -1.29639 1.44594 0
M  V30 25875 C 2455.35 -1.99218 2.84481 0
M  V30 25876 C 2454.3 -1.64665 3.95056 0
M  V30 25877 C 2453.63 -2.95224 4.4581 0
M  V30 25878 C 2454.93 -0.878064 5.14866 0
M  V30 25879 H 2456.62 -0.227077 2.98538 0
M  V30 25880 H 2454.17 -0.10778 1.43596 0
M  V30 25881 H 2456.12 -2.64618 3.27956 0
M  V30 25882 H 2454.85 -2.55004 2.04061 0
M  V30 25883 H 2453.51 -1.01635 3.5223 0
M  V30 25884 H 2453.15 -3.49041 3.62187 0
M  V30 25885 H 2452.85 -2.72861 5.20404 0
M  V30 25886 H 2454.38 -3.61662 4.91969 0
M  V30 25887 H 2455.79 -1.43456 5.55061 0
M  V30 25888 H 2454.19 -0.753633 5.95349 0
M  V30 25889 H 2455.26 0.126462 4.84735 0
M  V30 25890 N 2456.6 -1.57237 -0.106866 0
M  V30 25891 C 2457.83 -1.89681 -0.826356 0
M  V30 25892 C 2458.25 -0.759383 -1.72855 0
M  V30 25893 O 2457.6 0.269231 -1.80503 0
M  V30 25894 C 2457.65 -3.21667 -1.64961 0
M  V30 25895 O 2457.37 -4.31033 -0.783728 0
M  V30 25896 C 2458.88 -3.67896 -2.4732 0
M  V30 25897 H 2456.1 -0.627783 -0.236916 0
M  V30 25898 H 2458.64 -2.04312 -0.0876234 0
M  V30 25899 H 2456.79 -3.0867 -2.34098 0
M  V30 25900 H 2457.21 -5.06755 -1.35275 0
M  V30 25901 H 2458.68 -4.62976 -3.00595 0
M  V30 25902 H 2459.16 -2.95152 -3.25241 0
M  V30 25903 H 2459.77 -3.83723 -1.83404 0
M  V30 25904 N 2458.08 0.377381 -1.53015 0
M  V30 25905 C 2459.33 1.1185 -1.67847 0
M  V30 25906 C 2459.64 1.908 -0.430659 0
M  V30 25907 O 2460.85 2.67587 -0.459308 0
M  V30 25908 C 2459.3 2.0375 -2.96671 0
M  V30 25909 C 2458.91 1.30168 -4.28673 0
M  V30 25910 C 2460.66 2.77926 -3.2087 0
M  V30 25911 C 2458.56 2.20902 -5.48595 0
M  V30 25912 H 2457.49 0.421252 -0.62535 0
M  V30 25913 H 2460.14 0.380378 -1.79514 0
M  V30 25914 H 2458.53 2.81245 -2.78778 0
M  V30 25915 H 2459.7 0.578179 -4.57158 0
M  V30 25916 H 2458.02 0.679035 -4.10826 0
M  V30 25917 H 2460.61 3.46017 -4.07648 0
M  V30 25918 H 2460.96 3.42646 -2.3643 0
M  V30 25919 H 2461.49 2.07519 -3.39383 0
M  V30 25920 H 2458.23 1.60778 -6.35477 0
M  V30 25921 H 2457.75 2.91134 -5.24405 0
M  V30 25922 H 2459.43 2.80726 -5.82925 0
M  V30 25923 N 2459.56 1.44175 0.636506 0
M  V30 25924 C 2460.49 1.4509 1.76137 0
M  V30 25925 C 2461.47 0.310354 1.59611 0
M  V30 25926 O 2462.65 0.506509 1.81567 0
M  V30 25927 C 2459.78 1.27845 3.13645 0
M  V30 25928 C 2458.83 2.45392 3.48833 0
M  V30 25929 S 2459.66 4.0793 3.46919 0
M  V30 25930 C 2460.82 3.93098 4.87057 0
M  V30 25931 H 2461.05 2.40271 1.75092 0
M  V30 25932 H 2458.58 1.31408 0.810643 0
M  V30 25933 H 2460.54 1.18582 3.92999 0
M  V30 25934 H 2459.2 0.341842 3.12234 0
M  V30 25935 H 2458.39 2.29175 4.48882 0
M  V30 25936 H 2458 2.51367 2.7693 0
M  V30 25937 H 2460.29 3.56456 5.76147 0
M  V30 25938 H 2461.23 4.92958 5.08329 0
M  V30 25939 H 2461.64 3.25254 4.61378 0
M  V30 25940 N 2461.04 -0.876421 1.30983 0
M  V30 25941 C 2462.31 -1.61092 1.10945 0
M  V30 25942 C 2462.69 -2.08373 -0.338187 0
M  V30 25943 O 2462.04 -1.85719 -1.33119 0
M  V30 25944 C 2462.25 -2.77388 2.11794 0
M  V30 25945 C 2463.6 -3.4751 2.43971 0
M  V30 25946 O 2464.62 -2.87587 2.10171 0
M  V30 25947 O 2463.48 -4.55592 3.01825 0
M  V30 25948 H 2460.58 -0.708429 0.426682 0
M  V30 25949 H 2463.12 -0.922449 1.42439 0
M  V30 25950 H 2461.89 -2.39817 3.09198 0
M  V30 25951 H 2461.52 -3.53927 1.81167 0
M  V30 25952 N 2462.51 -1.13839 -1.08989 0
M  V30 25953 C 2463.44 -0.842545 -2.17769 0
M  V30 25954 C 2464.43 0.199981 -1.6892 0
M  V30 25955 O 2465.61 0.0579389 -1.94114 0
M  V30 25956 C 2462.74 -0.312705 -3.45889 0
M  V30 25957 C 2461.69 -1.28999 -4.08097 0
M  V30 25958 C 2461.02 -0.619716 -5.31097 0
M  V30 25959 C 2462.32 -2.65013 -4.50073 0
M  V30 25960 H 2464.01 -1.75217 -2.42774 0
M  V30 25961 H 2461.56 -0.843895 -1.16681 0
M  V30 25962 H 2463.51 -0.0933784 -4.21297 0
M  V30 25963 H 2462.24 0.632326 -3.2042 0
M  V30 25964 H 2460.9 -1.49539 -3.34714 0
M  V30 25965 H 2460.54 0.330931 -5.0191 0
M  V30 25966 H 2460.24 -1.27177 -5.73672 0
M  V30 25967 H 2461.77 -0.409776 -6.09223 0
M  V30 25968 H 2463.18 -2.48416 -5.16684 0
M  V30 25969 H 2461.58 -3.26436 -5.03547 0
M  V30 25970 H 2462.65 -3.22338 -3.62252 0
M  V30 25971 N 2463.99 1.27046 -0.932584 0
M  V30 25972 C 2464.94 2.24348 -0.406431 0
M  V30 25973 C 2465.93 1.53192 0.492039 0
M  V30 25974 O 2467.12 1.73921 0.328687 0
M  V30 25975 C 2464.25 3.4166 0.335154 0
M  V30 25976 C 2463.33 4.20114 -0.580114 0
M  V30 25977 N 2463.72 4.763 -1.70211 0
M  V30 25978 C 2462.02 4.44343 -0.384053 0
M  V30 25979 C 2462.72 5.35505 -2.27177 0
M  V30 25980 N 2461.7 5.20712 -1.56078 0
M  V30 25981 H 2465.5 2.65376 -1.26304 0
M  V30 25982 H 2463.02 1.42033 -0.787433 0
M  V30 25983 H 2465.01 4.10476 0.72907 0
M  V30 25984 H 2463.67 3.02162 1.18863 0
M  V30 25985 H 2464.68 4.74102 -2.08441 0
M  V30 25986 H 2461.36 4.15297 0.428363 0
M  V30 25987 H 2462.75 5.899 -3.21664 0
M  V30 25988 N 2465.47 0.698636 1.41269 0
M  V30 25989 C 2466.88 0.305321 1.84187 0
M  V30 25990 C 2467.23 -1.15705 1.58451 0
M  V30 25991 O 2466.36 -1.88855 1.05655 0
M  V30 25992 C 2466.95 0.547373 3.34349 0
M  V30 25993 C 2465.51 0.207944 3.75825 0
M  V30 25994 C 2464.66 0.828145 2.64645 0
M  V30 25995 H 2467.61 0.899063 1.30777 0
M  V30 25996 H 2467.63 -0.192931 3.80011 0
M  V30 25997 H 2467.14 1.61178 3.53048 0
M  V30 25998 H 2465.24 -0.852079 3.62726 0
M  V30 25999 H 2465.36 0.665105 4.74461 0
M  V30 26000 H 2463.72 0.257503 2.53395 0
M  V30 26001 H 2464.5 1.89648 2.86161 0
M  V30 26002 N 2466.95 -1.51228 0.443603 0
M  V30 26003 C 2468.2 -2.0174 -0.120522 0
M  V30 26004 C 2468.52 -1.32938 -1.42663 0
M  V30 26005 O 2467.79 -0.4659 -1.90279 0
M  V30 26006 H 2466.37 -0.745486 -0.0475295 0
M  V30 26007 H 2469.03 -1.85827 0.587743 0
M  V30 26008 H 2468.13 -3.10732 -0.291917 0
M  V30 26009 N 2468.43 -0.175182 -1.56623 0
M  V30 26010 C 2469.65 0.478102 -2.01814 0
M  V30 26011 C 2470.08 1.55755 -1.0546 0
M  V30 26012 O 2469.43 1.81267 -0.0347758 0
M  V30 26013 C 2469.48 1.02981 -3.45583 0
M  V30 26014 O 2468.59 2.14364 -3.52309 0
M  V30 26015 H 2467.93 0.114047 -0.654132 0
M  V30 26016 H 2470.46 -0.280209 -2.02672 0
M  V30 26017 H 2470.47 1.35145 -3.84967 0
M  V30 26018 H 2469.14 0.239483 -4.1521 0
M  V30 26019 H 2467.72 1.83216 -3.24786 0
M  V30 26020 N 2469.91 1.57292 0.0985263 0
M  V30 26021 C 2471.15 1.85546 0.80106 0
M  V30 26022 C 2471.47 0.763385 1.79436 0
M  V30 26023 O 2470.74 -0.210696 1.94764 0
M  V30 26024 H 2469.32 0.684625 0.298828 0
M  V30 26025 H 2471.99 1.94732 0.0809722 0
M  V30 26026 H 2471.08 2.82166 1.33375 0
M  V30 26027 N 2471.38 -0.369261 1.53213 0
M  V30 26028 C 2472.33 -1.45215 1.79391 0
M  V30 26029 C 2473.3 -1.53355 0.638086 0
M  V30 26030 O 2474.49 -1.69301 0.879882 0
M  V30 26031 C 2471.63 -2.82208 1.98628 0
M  V30 26032 C 2470.74 -2.83064 3.26342 0
M  V30 26033 C 2469.87 -4.11608 3.35786 0
M  V30 26034 C 2468.91 -4.06593 4.57547 0
M  V30 26035 N 2468.05 -5.26779 4.64164 0
M  V30 26036 H 2472.89 -1.22193 2.71796 0
M  V30 26037 H 2470.43 -0.592421 1.34643 0
M  V30 26038 H 2472.38 -3.61785 2.07767 0
M  V30 26039 H 2471.01 -3.03638 1.09563 0
M  V30 26040 H 2470.07 -1.95741 3.26174 0
M  V30 26041 H 2471.38 -2.7523 4.15993 0
M  V30 26042 H 2470.53 -4.996 3.44217 0
M  V30 26043 H 2469.27 -4.22191 2.44144 0
M  V30 26044 H 2468.28 -3.16988 4.4922 0
M  V30 26045 H 2469.5 -3.97615 5.50526 0
M  V30 26046 H 2467.45 -5.37954 3.75422 0
M  V30 26047 H 2467.36 -5.21099 5.47715 0
M  V30 26048 H 2468.63 -6.16613 4.76874 0
M  V30 26049 N 2472.86 -1.4451 -0.628851 0
M  V30 26050 C 2474.09 -1.509 -1.41552 0
M  V30 26051 C 2474.5 -0.134597 -1.8832 0
M  V30 26052 O 2473.86 0.859936 -1.6097 0
M  V30 26053 C 2473.91 -2.47561 -2.63431 0
M  V30 26054 O 2473.63 -3.79658 -2.18612 0
M  V30 26055 C 2475.13 -2.63438 -3.56533 0
M  V30 26056 H 2472.35 -0.511717 -0.434035 0
M  V30 26057 H 2474.9 -1.89496 -0.768861 0
M  V30 26058 H 2473.05 -2.12094 -3.24183 0
M  V30 26059 H 2473.47 -4.31866 -2.97644 0
M  V30 26060 H 2474.94 -3.35095 -4.38651 0
M  V30 26061 H 2475.42 -1.68745 -4.0549 0
M  V30 26062 H 2476.02 -2.99815 -3.01647 0
M  V30 26063 N 2474.34 0.869463 -1.31446 0
M  V30 26064 C 2475.76 1.15529 -1.10115 0
M  V30 26065 C 2475.96 2.01093 0.128052 0
M  V30 26066 O 2475.01 2.38909 0.817234 0
M  V30 26067 C 2476.32 1.84694 -2.37294 0
M  V30 26068 C 2477.87 1.97393 -2.42909 0
M  V30 26069 C 2478.35 2.69972 -3.69972 0
M  V30 26070 N 2479.84 2.77508 -3.70869 0
M  V30 26071 C 2480.57 3.34279 -4.65881 0
M  V30 26072 N 2480.07 3.91978 -5.71249 0
M  V30 26073 N 2481.86 3.32242 -4.534 0
M  V30 26074 H 2474.01 0.29931 -2.10281 0
M  V30 26075 H 2476.28 0.195198 -0.927686 0
M  V30 26076 H 2475.98 1.29272 -3.2708 0
M  V30 26077 H 2475.86 2.84968 -2.4713 0
M  V30 26078 H 2478.24 2.51979 -1.53592 0
M  V30 26079 H 2478.32 0.961601 -2.37038 0
M  V30 26080 H 2477.97 2.16054 -4.59656 0
M  V30 26081 H 2477.9 3.71613 -3.7311 0
M  V30 26082 H 2480.39 2.36558 -2.94701 0
M  V30 26083 H 2480.7 4.3341 -6.39825 0
M  V30 26084 H 2479.05 3.90352 -5.75022 0
M  V30 26085 H 2482.24 2.86404 -3.70257 0
M  V30 26086 H 2482.41 3.76188 -5.27623 0
M  V30 26087 N 2475.82 1.14415 1.08383 0
M  V30 26088 C 2476.76 0.831303 2.15309 0
M  V30 26089 C 2477.73 -0.211263 1.64751 0
M  V30 26090 O 2478.92 -0.0811339 1.90627 0
M  V30 26091 C 2476.06 0.315203 3.43658 0
M  V30 26092 C 2475.17 1.4181 4.08061 0
M  V30 26093 C 2474.31 0.859218 5.24205 0
M  V30 26094 C 2473.35 1.93977 5.80551 0
M  V30 26095 N 2472.48 1.39805 6.8804 0
M  V30 26096 H 2477.32 1.74713 2.41411 0
M  V30 26097 H 2474.86 0.871929 1.18473 0
M  V30 26098 H 2476.82 -0.0022355 4.172 0
M  V30 26099 H 2475.45 -0.563724 3.1784 0
M  V30 26100 H 2474.5 1.85193 3.32277 0
M  V30 26101 H 2475.81 2.23434 4.45958 0
M  V30 26102 H 2474.97 0.493697 6.04688 0
M  V30 26103 H 2473.71 0.0120177 4.87699 0
M  V30 26104 H 2472.71 2.31424 4.98721 0
M  V30 26105 H 2473.94 2.79057 6.19116 0
M  V30 26106 H 2471.88 0.573034 6.53492 0
M  V30 26107 H 2471.8 2.15067 7.24764 0
M  V30 26108 H 2473.07 1.06044 7.72253 0
M  V30 26109 N 2477.3 -1.26549 0.939309 0
M  V30 26110 C 2478.53 -1.97644 0.601697 0
M  V30 26111 C 2478.93 -1.7016 -0.827176 0
M  V30 26112 O 2478.28 -0.965366 -1.56289 0
M  V30 26113 C 2478.34 -3.51336 0.761787 0
M  V30 26114 C 2478 -4.02466 2.16494 0
M  V30 26115 C 2479 -4.14349 3.14024 0
M  V30 26116 C 2476.68 -4.36523 2.48501 0
M  V30 26117 C 2478.68 -4.59579 4.41662 0
M  V30 26118 C 2476.37 -4.81442 3.76373 0
M  V30 26119 C 2477.36 -4.92931 4.72766 0
M  V30 26120 O 2477.05 -5.3686 5.98361 0
M  V30 26121 H 2476.78 -0.637185 0.225769 0
M  V30 26122 H 2479.34 -1.62073 1.26181 0
M  V30 26123 H 2477.57 -3.86674 0.0445488 0
M  V30 26124 H 2479.26 -4.03642 0.427513 0
M  V30 26125 H 2480.02 -3.88285 2.90619 0
M  V30 26126 H 2475.9 -4.26816 1.74209 0
M  V30 26127 H 2479.45 -4.68461 5.16904 0
M  V30 26128 H 2475.34 -5.06949 3.99591 0
M  V30 26129 H 2476.11 -5.55086 6.01516 0
M  V30 26130 N 2478.77 -0.706118 -1.40896 0
M  V30 26131 C 2479.7 -0.0620496 -2.33418 0
M  V30 26132 C 2480.68 0.755801 -1.52387 0
M  V30 26133 O 2481.87 0.706642 -1.80887 0
M  V30 26134 C 2479 0.867386 -3.36294 0
M  V30 26135 C 2477.95 0.155857 -4.27716 0
M  V30 26136 C 2477.28 1.20037 -5.21052 0
M  V30 26137 C 2478.58 -0.984239 -5.12943 0
M  V30 26138 H 2480.27 -0.834821 -2.87526 0
M  V30 26139 H 2477.82 -0.4029 -1.38249 0
M  V30 26140 H 2479.77 1.32728 -3.99952 0
M  V30 26141 H 2478.5 1.67194 -2.80559 0
M  V30 26142 H 2477.16 -0.284111 -3.65497 0
M  V30 26143 H 2476.8 1.99773 -4.61627 0
M  V30 26144 H 2476.5 0.729226 -5.83058 0
M  V30 26145 H 2478.03 1.66055 -5.87587 0
M  V30 26146 H 2479.44 -0.604148 -5.70108 0
M  V30 26147 H 2477.84 -1.38314 -5.83943 0
M  V30 26148 H 2478.91 -1.81918 -4.49482 0
M  V30 26149 N 2480.25 1.50991 -0.451617 0
M  V30 26150 C 2481.66 1.86698 0.00815289 0
M  V30 26151 C 2482.01 1.36783 1.40659 0
M  V30 26152 O 2481.14 0.724582 2.03909 0
M  V30 26153 C 2481.73 3.38793 0.0215708 0
M  V30 26154 C 2480.29 3.73984 0.425799 0
M  V30 26155 C 2479.44 2.74791 -0.372211 0
M  V30 26156 H 2482.39 1.44012 -0.666811 0
M  V30 26157 H 2482.41 3.71381 0.828012 0
M  V30 26158 H 2481.92 3.75093 -0.996354 0
M  V30 26159 H 2480.02 3.43279 1.4488 0
M  V30 26160 H 2480.14 4.78893 0.140676 0
M  V30 26161 H 2478.5 2.54122 0.171454 0
M  V30 26162 H 2479.28 3.13933 -1.38928 0
M  V30 26163 N 2481.73 0.183486 1.56528 0
M  V30 26164 C 2482.69 -0.728185 2.17325 0
M  V30 26165 C 2483.69 -1.14937 1.12455 0
M  V30 26166 O 2484.88 -1.06434 1.37903 0
M  V30 26167 C 2482.01 -1.99269 2.76595 0
M  V30 26168 H 2483.21 -0.19872 2.99241 0
M  V30 26169 H 2480.76 -0.0661116 1.5616 0
M  V30 26170 H 2481.5 -2.56495 1.98446 0
M  V30 26171 H 2481.28 -1.69953 3.53353 0
M  V30 26172 H 2482.77 -2.64305 3.23315 0
M  V30 26173 N 2483.21 -1.57342 -0.0901833 0
M  V30 26174 C 2484.46 -1.85521 -0.791498 0
M  V30 26175 C 2484.77 -0.773472 -1.79657 0
M  V30 26176 O 2485.98 -0.942542 -2.54614 0
M  V30 26177 C 2484.43 -3.29022 -1.4585 0
M  V30 26178 C 2484.04 -4.4528 -0.492939 0
M  V30 26179 C 2485.78 -3.66422 -2.14326 0
M  V30 26180 C 2483.69 -5.79816 -1.16481 0
M  V30 26181 H 2482.62 -0.692033 -0.299344 0
M  V30 26182 H 2485.27 -1.83446 -0.0445021 0
M  V30 26183 H 2483.65 -3.25654 -2.25313 0
M  V30 26184 H 2484.83 -4.60005 0.270545 0
M  V30 26185 H 2483.14 -4.1631 0.0863793 0
M  V30 26186 H 2485.74 -4.64221 -2.65336 0
M  V30 26187 H 2486.08 -2.95293 -2.93442 0
M  V30 26188 H 2486.62 -3.717 -1.41717 0
M  V30 26189 H 2483.35 -6.54189 -0.414355 0
M  V30 26190 H 2482.87 -5.68925 -1.8996 0
M  V30 26191 H 2484.55 -6.24541 -1.6899 0
M  V30 26192 N 2484.69 0.36113 -1.53407 0
M  V30 26193 C 2485.93 1.10493 -1.70056 0
M  V30 26194 C 2486.27 1.88835 -0.453311 0
M  V30 26195 O 2485.54 1.86577 0.549467 0
M  V30 26196 C 2485.82 2.06053 -2.95321 0
M  V30 26197 C 2485.68 1.3129 -4.30213 0
M  V30 26198 C 2487 3.06116 -3.16198 0
M  V30 26199 H 2484.11 0.40031 -0.618806 0
M  V30 26200 H 2486.76 0.385285 -1.86053 0
M  V30 26201 H 2484.91 2.6742 -2.81813 0
M  V30 26202 H 2486.58 0.726727 -4.5554 0
M  V30 26203 H 2484.82 0.614778 -4.29422 0
M  V30 26204 H 2485.49 2.01256 -5.14004 0
M  V30 26205 H 2487.97 2.54854 -3.2892 0
M  V30 26206 H 2486.84 3.70197 -4.05272 0
M  V30 26207 H 2487.11 3.76531 -2.31682 0
M  V30 26208 N 2486.16 1.44842 0.621179 0
M  V30 26209 C 2487.58 1.28948 0.940458 0
M  V30 26210 C 2487.78 0.232525 2.00154 0
M  V30 26211 O 2486.84 -0.378193 2.49652 0
M  V30 26212 C 2488.15 2.66421 1.39428 0
M  V30 26213 C 2489.7 2.74211 1.50922 0
M  V30 26214 C 2490.17 4.12177 1.99685 0
M  V30 26215 N 2491.66 4.14403 2.0694 0
M  V30 26216 C 2492.4 5.18015 2.45862 0
M  V30 26217 N 2491.89 6.31982 2.83851 0
M  V30 26218 N 2493.69 5.05371 2.46083 0
M  V30 26219 H 2485.84 2.12248 -0.0803921 0
M  V30 26220 H 2488.1 0.947625 0.0266747 0
M  V30 26221 H 2487.81 3.44888 0.688864 0
M  V30 26222 H 2487.68 2.93977 2.36341 0
M  V30 26223 H 2490.07 1.96057 2.20558 0
M  V30 26224 H 2490.15 2.50384 0.523583 0
M  V30 26225 H 2489.79 4.90811 1.30641 0
M  V30 26226 H 2489.72 4.33387 2.99138 0
M  V30 26227 H 2492.21 3.32155 1.80226 0
M  V30 26228 H 2492.53 7.06846 3.12392 0
M  V30 26229 H 2490.87 6.35404 2.81578 0
M  V30 26230 H 2494.06 4.15388 2.15802 0
M  V30 26231 H 2494.24 5.8624 2.76092 0
M  V30 26232 N 2487.64 -0.862479 1.31905 0
M  V30 26233 C 2488.55 -2.00282 1.22164 0
M  V30 26234 C 2489.57 -1.73461 0.136816 0
M  V30 26235 O 2490.74 -1.98228 0.356029 0
M  V30 26236 C 2487.81 -3.33794 0.937152 0
M  V30 26237 C 2486.87 -3.73889 2.10963 0
M  V30 26238 C 2486.1 -5.01029 1.83862 0
M  V30 26239 O 2486.33 -5.65078 0.777373 0
M  V30 26240 O 2485.26 -5.38069 2.6975 0
M  V30 26241 H 2489.09 -2.11435 2.18011 0
M  V30 26242 H 2486.67 -0.991937 1.11718 0
M  V30 26243 H 2488.55 -4.1384 0.794656 0
M  V30 26244 H 2487.23 -3.23699 0.00877584 0
M  V30 26245 H 2486.14 -2.94452 2.30757 0
M  V30 26246 H 2487.47 -3.88619 3.02053 0
M  V30 26247 N 2489.12 -1.14988 -1.07775 0
M  V30 26248 C 2490.08 -0.845396 -2.13039 0
M  V30 26249 C 2491.08 0.152903 -1.60071 0
M  V30 26250 O 2492.27 -0.0762185 -1.74033 0
M  V30 26251 C 2489.41 -0.261443 -3.39896 0
M  V30 26252 H 2490.6 -1.77838 -2.41482 0
M  V30 26253 H 2488.15 -0.956779 -1.23594 0
M  V30 26254 H 2488.89 0.679944 -3.17092 0
M  V30 26255 H 2488.67 -0.980581 -3.79641 0
M  V30 26256 H 2490.16 -0.0658421 -4.17548 0
M  V30 26257 N 2490.6 1.26049 -0.946007 0
M  V30 26258 C 2491.85 1.92821 -0.591869 0
M  V30 26259 C 2492.16 1.74991 0.873925 0
M  V30 26260 O 2493.37 2.36261 1.33765 0
M  V30 26261 C 2491.82 3.45501 -1.00782 0
M  V30 26262 C 2491.43 3.72056 -2.49556 0
M  V30 26263 C 2493.17 4.18249 -0.725808 0
M  V30 26264 C 2491.08 5.182 -2.84997 0
M  V30 26265 H 2490.01 0.721904 -0.217647 0
M  V30 26266 H 2492.66 1.4305 -1.1493 0
M  V30 26267 H 2491.04 3.94183 -0.378882 0
M  V30 26268 H 2492.22 3.3406 -3.17396 0
M  V30 26269 H 2490.53 3.12551 -2.75138 0
M  V30 26270 H 2493.13 5.25886 -0.966864 0
M  V30 26271 H 2493.47 4.14929 0.337566 0
M  V30 26272 H 2494.01 3.75447 -1.31469 0
M  V30 26273 H 2490.75 5.26624 -3.90316 0
M  V30 26274 H 2490.27 5.57274 -2.21823 0
M  V30 26275 H 2491.94 5.86247 -2.73722 0
M  V30 26276 N 2492.08 0.71358 1.4052 0
M  V30 26277 C 2493.02 0.0597246 2.30723 0
M  V30 26278 C 2493.99 -0.752422 1.4808 0
M  V30 26279 O 2495.18 -0.716779 1.76825 0
M  V30 26280 C 2492.32 -0.857535 3.34276 0
M  V30 26281 C 2491.43 -0.0350776 4.31986 0
M  V30 26282 C 2490.57 -0.951632 5.22606 0
M  V30 26283 C 2489.61 -0.123146 6.11976 0
M  V30 26284 N 2488.74 -0.994468 6.95021 0
M  V30 26285 H 2493.58 0.834646 2.86073 0
M  V30 26286 H 2491.12 0.423285 1.40878 0
M  V30 26287 H 2493.08 -1.40357 3.92881 0
M  V30 26288 H 2491.71 -1.59866 2.80433 0
M  V30 26289 H 2490.76 0.628118 3.75178 0
M  V30 26290 H 2492.07 0.606434 4.951 0
M  V30 26291 H 2491.23 -1.56627 5.86134 0
M  V30 26292 H 2489.96 -1.62697 4.59762 0
M  V30 26293 H 2488.97 0.504446 5.47481 0
M  V30 26294 H 2490.19 0.548658 6.7688 0
M  V30 26295 H 2488.14 -1.65549 6.34767 0
M  V30 26296 H 2488.06 -0.408947 7.54893 0
M  V30 26297 H 2489.33 -1.59535 7.63 0
M  V30 26298 N 2493.55 -1.50749 0.459618 0
M  V30 26299 C 2494.97 -1.59199 0.11312 0
M  V30 26300 C 2495.17 -1.46876 -1.37948 0
M  V30 26301 O 2494.23 -1.32136 -2.15166 0
M  V30 26302 C 2495.54 -2.93522 0.653095 0
M  V30 26303 C 2497.09 -3.06889 0.615503 0
M  V30 26304 C 2497.56 -4.43769 1.13283 0
M  V30 26305 N 2499.05 -4.5015 1.09175 0
M  V30 26306 C 2499.79 -5.54431 1.46266 0
M  V30 26307 N 2499.28 -6.66022 1.90751 0
M  V30 26308 N 2501.08 -5.44911 1.37942 0
M  V30 26309 H 2493.23 -1.57003 1.43052 0
M  V30 26310 H 2495.49 -0.741331 0.590874 0
M  V30 26311 H 2495.2 -3.0798 1.69828 0
M  V30 26312 H 2495.07 -3.77092 0.0902795 0
M  V30 26313 H 2497.46 -2.92085 -0.420742 0
M  V30 26314 H 2497.54 -2.25104 1.21499 0
M  V30 26315 H 2497.18 -4.59321 2.16765 0
M  V30 26316 H 2497.11 -5.24128 0.509668 0
M  V30 26317 H 2499.6 -3.70069 0.765345 0
M  V30 26318 H 2499.92 -7.4164 2.17231 0
M  V30 26319 H 2498.26 -6.67172 1.94695 0
M  V30 26320 H 2501.45 -4.56619 1.03038 0
M  V30 26321 H 2501.63 -6.26064 1.67175 0
M  V30 26322 N 2495.03 -0.191784 -1.56429 0
M  V30 26323 C 2496.45 0.164109 -1.58754 0
M  V30 26324 C 2496.65 1.61286 -1.20785 0
M  V30 26325 O 2495.7 2.34787 -0.92904 0
M  V30 26326 C 2497.02 -0.135248 -3.00396 0
M  V30 26327 C 2498.57 -0.0750901 -3.1291 0
M  V30 26328 C 2499.04 -0.347712 -4.56678 0
M  V30 26329 N 2500.53 -0.296212 -4.62252 0
M  V30 26330 C 2501.27 -0.481048 -5.71379 0
M  V30 26331 N 2500.76 -0.726054 -6.88985 0
M  V30 26332 N 2502.56 -0.415534 -5.60562 0
M  V30 26333 H 2494.71 -1.13721 -1.79391 0
M  V30 26334 H 2496.97 -0.453657 -0.832406 0
M  V30 26335 H 2496.68 -1.13964 -3.32724 0
M  V30 26336 H 2496.55 0.563708 -3.72964 0
M  V30 26337 H 2498.94 0.919899 -2.80396 0
M  V30 26338 H 2499.02 -0.807071 -2.42734 0
M  V30 26339 H 2498.66 -1.34 -4.89904 0
M  V30 26340 H 2498.59 0.40512 -5.25039 0
M  V30 26341 H 2501.08 -0.113326 -3.7773 0
M  V30 26342 H 2501.4 -0.855992 -7.68045 0
M  V30 26343 H 2499.74 -0.762909 -6.908 0
M  V30 26344 H 2502.93 -0.224568 -4.67561 0
M  V30 26345 H 2503.1 -0.563002 -6.4555 0
M  V30 26346 N 2496.51 1.57387 0.0818378 0
M  V30 26347 C 2497.44 2.0603 1.09881 0
M  V30 26348 C 2498.42 0.951798 1.40978 0
M  V30 26349 O 2499.61 1.2239 1.50779 0
M  V30 26350 C 2496.74 2.49584 2.41506 0
M  V30 26351 C 2495.69 3.64219 2.24786 0
M  V30 26352 C 2495.02 3.93793 3.61705 0
M  V30 26353 C 2496.32 4.94632 1.6774 0
M  V30 26354 H 2498.01 2.91244 0.694077 0
M  V30 26355 H 2495.56 1.4011 0.332424 0
M  V30 26356 H 2497.51 2.82224 3.12934 0
M  V30 26357 H 2496.23 1.61386 2.8394 0
M  V30 26358 H 2494.89 3.31846 1.55801 0
M  V30 26359 H 2494.54 3.02743 4.01691 0
M  V30 26360 H 2494.24 4.70978 3.5136 0
M  V30 26361 H 2495.76 4.28921 4.34579 0
M  V30 26362 H 2497.18 5.25568 2.29023 0
M  V30 26363 H 2495.58 5.7607 1.68118 0
M  V30 26364 H 2496.65 4.80685 0.637975 0
M  V30 26365 N 2497.99 -0.35299 1.53596 0
M  V30 26366 C 2499.4 -0.69549 1.43649 0
M  V30 26367 C 2499.6 -1.92801 0.585651 0
M  V30 26368 O 2498.66 -2.52395 0.0729667 0
M  V30 26369 C 2499.97 -0.896941 2.87011 0
M  V30 26370 C 2501.52 -0.996157 2.96725 0
M  V30 26371 C 2502 -1.22999 4.41175 0
M  V30 26372 N 2503.49 -1.29741 4.44659 0
M  V30 26373 C 2504.22 -1.49567 5.5355 0
M  V30 26374 N 2503.72 -1.66628 6.72463 0
M  V30 26375 N 2505.51 -1.52038 5.41148 0
M  V30 26376 H 2497.66 0.457518 2.07414 0
M  V30 26377 H 2499.93 0.142703 0.937198 0
M  V30 26378 H 2499.63 -0.062932 3.51644 0
M  V30 26379 H 2499.51 -1.80142 3.31404 0
M  V30 26380 H 2501.89 -1.8207 2.32238 0
M  V30 26381 H 2501.97 -0.0687881 2.55707 0
M  V30 26382 H 2501.62 -0.410416 5.06239 0
M  V30 26383 H 2501.55 -2.17078 4.79776 0
M  V30 26384 H 2504.04 -1.18119 3.58966 0
M  V30 26385 H 2504.35 -1.81365 7.51217 0
M  V30 26386 H 2502.7 -1.63782 6.75426 0
M  V30 26387 H 2505.89 -1.38286 4.47208 0
M  V30 26388 H 2506.06 -1.67148 6.26071 0
M  V30 26389 N 2499.47 -1.45169 -0.613489 0
M  V30 26390 C 2500.7 -1.52393 -1.39943 0
M  V30 26391 C 2501.11 -0.154564 -1.88166 0
M  V30 26392 O 2500.47 0.842815 -1.61873 0
M  V30 26393 C 2500.52 -2.50341 -2.6079 0
M  V30 26394 O 2500.24 -3.81956 -2.14573 0
M  V30 26395 C 2501.74 -2.67204 -3.53718 0
M  V30 26396 H 2498.96 -0.516292 -0.428584 0
M  V30 26397 H 2501.5 -1.90301 -0.74872 0
M  V30 26398 H 2499.66 -2.15521 -3.21915 0
M  V30 26399 H 2500.07 -4.34998 -2.93047 0
M  V30 26400 H 2501.55 -3.39729 -4.35073 0
M  V30 26401 H 2502.02 -1.73036 -4.03677 0
M  V30 26402 H 2502.63 -3.02997 -2.9845 0
M  V30 26403 N 2500.95 0.855472 -1.32361 0
M  V30 26404 C 2501.88 1.97956 -1.23837 0
M  V30 26405 C 2502.86 1.69659 -0.122391 0
M  V30 26406 O 2504.04 1.91719 -0.309424 0
M  V30 26407 C 2501.17 3.33773 -0.959831 0
M  V30 26408 C 2500.13 3.7642 -2.03695 0
M  V30 26409 C 2499.45 5.09859 -1.61084 0
M  V30 26410 C 2500.75 3.91974 -3.45187 0
M  V30 26411 H 2502.45 2.05346 -2.17884 0
M  V30 26412 H 2499.99 0.986587 -1.04893 0
M  V30 26413 H 2501.94 4.11964 -0.88675 0
M  V30 26414 H 2500.67 3.26596 0.016283 0
M  V30 26415 H 2499.33 3.0048 -2.10018 0
M  V30 26416 H 2498.98 4.99137 -0.622195 0
M  V30 26417 H 2498.68 5.39364 -2.33152 0
M  V30 26418 H 2500.2 5.90544 -1.55211 0
M  V30 26419 H 2501.61 4.6052 -3.41458 0
M  V30 26420 H 2500.01 4.32896 -4.15598 0
M  V30 26421 H 2501.08 2.94913 -3.84908 0
M  V30 26422 N 2502.42 1.15558 1.07164 0
M  V30 26423 C 2503.67 0.926164 1.79179 0
M  V30 26424 C 2503.99 -0.547934 1.87769 0
M  V30 26425 O 2505.19 -0.894991 2.56324 0
M  V30 26426 C 2503.65 1.60766 3.21997 0
M  V30 26427 C 2503.26 3.11891 3.21602 0
M  V30 26428 C 2505 1.45987 3.98608 0
M  V30 26429 C 2502.91 3.7282 4.59085 0
M  V30 26430 H 2501.84 0.342868 0.671534 0
M  V30 26431 H 2504.49 1.38593 1.20268 0
M  V30 26432 H 2502.87 1.0756 3.81113 0
M  V30 26433 H 2504.04 3.7187 2.7212 0
M  V30 26434 H 2502.36 3.26454 2.58489 0
M  V30 26435 H 2504.96 1.88897 5.00222 0
M  V30 26436 H 2505.3 0.407614 4.143 0
M  V30 26437 H 2505.83 1.96301 3.45992 0
M  V30 26438 H 2502.57 4.77954 4.48598 0
M  V30 26439 H 2502.09 3.17624 5.08797 0
M  V30 26440 H 2503.77 3.73858 5.28052 0
M  V30 26441 N 2503.9 -1.25546 0.952678 0
M  V30 26442 C 2504.83 -2.28315 0.489327 0
M  V30 26443 C 2505.81 -1.63668 -0.46333 0
M  V30 26444 O 2507 -1.90783 -0.362707 0
M  V30 26445 C 2504.13 -3.465 -0.235542 0
M  V30 26446 C 2503.08 -4.23313 0.631668 0
M  V30 26447 C 2502.41 -5.34231 -0.223829 0
M  V30 26448 C 2503.71 -4.86171 1.9088 0
M  V30 26449 H 2505.4 -2.67324 1.34827 0
M  V30 26450 H 2502.95 -1.28508 0.64975 0
M  V30 26451 H 2504.9 -4.17516 -0.570809 0
M  V30 26452 H 2503.62 -3.06476 -1.12871 0
M  V30 26453 H 2502.28 -3.54077 0.949991 0
M  V30 26454 H 2501.93 -4.90448 -1.1167 0
M  V30 26455 H 2501.63 -5.86538 0.353094 0
M  V30 26456 H 2503.16 -6.08081 -0.554107 0
M  V30 26457 H 2504.57 -5.4934 1.64006 0
M  V30 26458 H 2502.97 -5.48645 2.43122 0
M  V30 26459 H 2504.04 -4.08466 2.61311 0
M  V30 26460 N 2505.38 -0.721022 -1.40139 0
M  V30 26461 C 2506.34 -0.0806236 -2.29058 0
M  V30 26462 C 2507.34 0.681733 -1.45633 0
M  V30 26463 O 2508.53 0.512827 -1.6648 0
M  V30 26464 C 2505.66 0.895535 -3.28927 0
M  V30 26465 H 2506.86 -0.863843 -2.87189 0
M  V30 26466 H 2504.41 -0.486001 -1.48552 0
M  V30 26467 H 2505.15 1.70561 -2.75825 0
M  V30 26468 H 2504.93 0.351698 -3.9052 0
M  V30 26469 H 2506.42 1.34062 -3.95496 0
M  V30 26470 N 2506.86 1.50503 -0.467606 0
M  V30 26471 C 2508.27 1.86696 -0.0116494 0
M  V30 26472 C 2508.62 1.38267 1.392 0
M  V30 26473 O 2507.74 0.746168 2.03129 0
M  V30 26474 C 2508.34 3.38797 -0.014364 0
M  V30 26475 C 2506.9 3.74414 0.386109 0
M  V30 26476 C 2506.05 2.7438 -0.401335 0
M  V30 26477 H 2509 1.43296 -0.682047 0
M  V30 26478 H 2509.02 3.72239 0.788576 0
M  V30 26479 H 2508.53 3.74015 -1.03608 0
M  V30 26480 H 2506.63 3.44796 1.41231 0
M  V30 26481 H 2506.74 4.79016 0.0898754 0
M  V30 26482 H 2505.11 2.5429 0.144491 0
M  V30 26483 H 2505.89 3.12442 -1.4225 0
M  V30 26484 N 2508.34 0.200077 1.56325 0
M  V30 26485 C 2509.56 -0.442839 2.02105 0
M  V30 26486 C 2509.98 -1.54848 1.08017 0
M  V30 26487 O 2509.34 -1.82298 0.0859117 0
M  V30 26488 C 2509.39 -0.994522 3.47551 0
M  V30 26489 O 2509.11 0.0670092 4.38049 0
M  V30 26490 C 2510.61 -1.71282 4.08873 0
M  V30 26491 H 2507.83 -0.110679 0.661809 0
M  V30 26492 H 2510.37 0.310243 2.02133 0
M  V30 26493 H 2508.53 -1.69797 3.48207 0
M  V30 26494 H 2508.94 -0.34437 5.23368 0
M  V30 26495 H 2510.42 -2.05109 5.12479 0
M  V30 26496 H 2510.89 -2.61831 3.5262 0
M  V30 26497 H 2511.5 -1.05511 4.12004 0
M  V30 26498 N 2509.81 -1.57429 -0.0734901 0
M  V30 26499 C 2511.23 -1.53747 -0.428237 0
M  V30 26500 C 2511.43 -0.920011 -1.79271 0
M  V30 26501 O 2510.49 -0.521788 -2.4705 0
M  V30 26502 C 2511.8 -2.98404 -0.370862 0
M  V30 26503 C 2513.35 -3.09731 -0.45117 0
M  V30 26504 C 2513.82 -4.56036 -0.42372 0
M  V30 26505 N 2515.31 -4.60666 -0.483844 0
M  V30 26506 C 2516.05 -5.71347 -0.48479 0
M  V30 26507 N 2515.54 -6.91397 -0.440653 0
M  V30 26508 N 2517.34 -5.59584 -0.531221 0
M  V30 26509 H 2509.49 -1.95934 0.819983 0
M  V30 26510 H 2511.75 -0.89674 0.307509 0
M  V30 26511 H 2511.46 -3.47132 0.565017 0
M  V30 26512 H 2511.33 -3.58212 -1.1817 0
M  V30 26513 H 2513.72 -2.60978 -1.37747 0
M  V30 26514 H 2513.8 -2.52837 0.388211 0
M  V30 26515 H 2513.44 -5.05445 0.498727 0
M  V30 26516 H 2513.37 -5.10791 -1.28061 0
M  V30 26517 H 2515.86 -3.74274 -0.522272 0
M  V30 26518 H 2516.18 -7.71516 -0.445254 0
M  V30 26519 H 2514.52 -6.93805 -0.407368 0
M  V30 26520 H 2517.71 -4.64697 -0.563383 0
M  V30 26521 H 2517.89 -6.45841 -0.528489 0
M  V30 26522 N 2511.29 0.344839 -1.53781 0
M  V30 26523 C 2512.54 1.08684 -1.71218 0
M  V30 26524 C 2512.87 1.88344 -0.473314 0
M  V30 26525 O 2512.15 1.8715 0.529647 0
M  V30 26526 C 2512.43 2.02909 -2.97489 0
M  V30 26527 C 2512.28 1.2672 -4.31581 0
M  V30 26528 C 2513.6 3.02745 -3.19427 0
M  V30 26529 H 2510.72 0.393724 -0.623017 0
M  V30 26530 H 2513.36 0.36553 -1.86451 0
M  V30 26531 H 2511.51 2.64416 -2.84634 0
M  V30 26532 H 2513.18 0.67837 -4.56285 0
M  V30 26533 H 2511.43 0.569197 -4.3005 0
M  V30 26534 H 2512.1 1.95793 -5.16109 0
M  V30 26535 H 2514.57 2.51351 -3.31605 0
M  V30 26536 H 2513.45 3.65878 -4.09176 0
M  V30 26537 H 2513.71 3.74053 -2.35663 0
M  V30 26538 N 2512.77 1.45492 0.605781 0
M  V30 26539 C 2514.02 1.49825 1.36676 0
M  V30 26540 C 2514.35 0.140209 1.93693 0
M  V30 26541 O 2513.62 -0.84555 1.75159 0
M  V30 26542 C 2513.91 2.57883 2.51333 0
M  V30 26543 C 2513.76 4.03137 1.995 0
M  V30 26544 C 2515.08 2.62212 3.53459 0
M  V30 26545 H 2512.2 0.545475 0.495607 0
M  V30 26546 H 2514.84 1.77311 0.682701 0
M  V30 26547 H 2512.99 2.34577 3.09687 0
M  V30 26548 H 2514.66 4.37659 1.45782 0
M  V30 26549 H 2512.9 4.13709 1.30489 0
M  V30 26550 H 2513.58 4.74436 2.82161 0
M  V30 26551 H 2516.05 2.831 3.04948 0
M  V30 26552 H 2514.93 3.3968 4.31172 0
M  V30 26553 H 2515.19 1.6737 4.09194 0
M  V30 26554 N 2514.25 -0.848441 1.32813 0
M  V30 26555 C 2515.21 -1.93908 1.22198 0
M  V30 26556 C 2516.21 -1.60159 0.143432 0
M  V30 26557 O 2517.4 -1.69679 0.394283 0
M  V30 26558 C 2514.53 -3.29327 0.880728 0
M  V30 26559 H 2515.73 -2.04748 2.19131 0
M  V30 26560 H 2513.28 -1.03938 1.16733 0
M  V30 26561 H 2514.01 -3.24185 -0.0865206 0
M  V30 26562 H 2513.8 -3.552 1.66059 0
M  V30 26563 H 2515.29 -4.09249 0.830943 0
M  V30 26564 N 2515.73 -1.16125 -1.06549 0
M  V30 26565 C 2516.69 -0.867944 -2.12131 0
M  V30 26566 C 2517.69 0.135916 -1.60225 0
M  V30 26567 O 2518.88 -0.0946728 -1.73943 0
M  V30 26568 C 2516.01 -0.297479 -3.396 0
M  V30 26569 H 2517.2 -1.80389 -2.39583 0
M  V30 26570 H 2514.76 -0.969834 -1.22572 0
M  V30 26571 H 2515.49 0.646274 -3.17795 0
M  V30 26572 H 2515.28 -1.02079 -3.78579 0
M  V30 26573 H 2516.77 -0.110125 -4.17455 0
M  V30 26574 N 2517.2 1.25039 -0.959323 0
M  V30 26575 C 2518.11 2.29425 -0.490034 0
M  V30 26576 C 2519.13 1.68216 0.444915 0
M  V30 26577 O 2520.31 1.98841 0.320011 0
M  V30 26578 C 2517.37 3.46 0.220248 0
M  V30 26579 C 2516.43 4.22636 -0.753492 0
M  V30 26580 C 2515.67 5.33644 -0.0770118 0
M  V30 26581 O 2515.89 5.58965 1.13639 0
M  V30 26582 O 2514.82 5.9702 -0.764929 0
M  V30 26583 H 2518.65 2.71667 -1.3576 0
M  V30 26584 H 2516.23 1.30575 -0.725984 0
M  V30 26585 H 2518.12 4.1682 0.619604 0
M  V30 26586 H 2516.79 3.05751 1.06291 0
M  V30 26587 H 2515.7 3.54225 -1.20315 0
M  V30 26588 H 2517.03 4.6668 -1.56431 0
M  V30 26589 N 2518.68 0.728444 1.39755 0
M  V30 26590 C 2519.62 0.0330573 2.28176 0
M  V30 26591 C 2520.59 -0.754475 1.44036 0
M  V30 26592 O 2521.78 -0.738415 1.73435 0
M  V30 26593 C 2518.9 -0.960447 3.24797 0
M  V30 26594 C 2517.95 -0.262189 4.25693 0
M  V30 26595 S 2518.78 1.01916 5.25712 0
M  V30 26596 C 2519.94 0.0280817 6.25894 0
M  V30 26597 H 2520.17 0.782921 2.86806 0
M  V30 26598 H 2517.71 0.519976 1.45381 0
M  V30 26599 H 2519.66 -1.5284 3.80986 0
M  V30 26600 H 2518.32 -1.6831 2.65199 0
M  V30 26601 H 2517.52 -1.01371 4.937 0
M  V30 26602 H 2517.12 0.233548 3.7327 0
M  V30 26603 H 2519.41 -0.814503 6.72586 0
M  V30 26604 H 2520.35 0.675114 7.04874 0
M  V30 26605 H 2520.76 -0.34139 5.63467 0
M  V30 26606 N 2520.16 -1.50253 0.475581 0
M  V30 26607 C 2521.07 -2.32387 -0.32146 0
M  V30 26608 C 2522.09 -1.42971 -0.99173 0
M  V30 26609 O 2523.26 -1.7602 -0.978716 0
M  V30 26610 C 2520.33 -3.17764 -1.38661 0
M  V30 26611 C 2519.39 -4.23005 -0.732464 0
M  V30 26612 C 2518.62 -5.04302 -1.74686 0
M  V30 26613 O 2518.84 -4.86739 -2.9739 0
M  V30 26614 O 2517.78 -5.87333 -1.31621 0
M  V30 26615 H 2521.6 -3.01675 0.350124 0
M  V30 26616 H 2519.19 -1.47503 0.237347 0
M  V30 26617 H 2521.07 -3.70727 -2.00348 0
M  V30 26618 H 2519.75 -2.51199 -2.04158 0
M  V30 26619 H 2518.65 -3.74022 -0.0765245 0
M  V30 26620 H 2519.99 -4.92053 -0.120366 0
M  V30 26621 N 2521.64 -0.208365 -1.56217 0
M  V30 26622 C 2522.55 0.718796 -2.23317 0
M  V30 26623 C 2523.56 1.2242 -1.2365 0
M  V30 26624 O 2524.74 1.26858 -1.56426 0
M  V30 26625 C 2521.81 1.91563 -2.88971 0
M  V30 26626 C 2520.87 1.4535 -4.03945 0
M  V30 26627 C 2520.1 2.59329 -4.66459 0
M  V30 26628 O 2520.32 3.77141 -4.27926 0
M  V30 26629 O 2519.26 2.31283 -5.5569 0
M  V30 26630 H 2523.08 0.177262 -3.03182 0
M  V30 26631 H 2520.67 0.0215139 -1.49385 0
M  V30 26632 H 2522.55 2.61486 -3.30459 0
M  V30 26633 H 2521.22 2.44552 -2.12076 0
M  V30 26634 H 2520.13 0.722681 -3.67053 0
M  V30 26635 H 2521.46 0.970134 -4.82545 0
M  V30 26636 N 2523.12 1.57465 0.0651402 0
M  V30 26637 C 2524.08 2.03157 1.06113 0
M  V30 26638 C 2525.08 0.929655 1.31202 0
M  V30 26639 O 2526.27 1.19435 1.26811 0
M  V30 26640 C 2523.4 2.41788 2.40315 0
M  V30 26641 H 2524.59 2.92385 0.667179 0
M  V30 26642 H 2522.15 1.53174 0.311048 0
M  V30 26643 H 2522.88 1.55606 2.8453 0
M  V30 26644 H 2522.67 3.22203 2.23445 0
M  V30 26645 H 2524.16 2.77691 3.11893 0
M  V30 26646 N 2524.59 -0.336679 1.53962 0
M  V30 26647 C 2525.53 -1.43719 1.77257 0
M  V30 26648 C 2526.51 -1.50235 0.621957 0
M  V30 26649 O 2527.69 -1.67846 0.857903 0
M  V30 26650 C 2524.82 -2.81908 1.87738 0
M  V30 26651 C 2523.86 -2.92986 3.09938 0
M  V30 26652 S 2524.7 -2.58745 4.6884 0
M  V30 26653 C 2525.85 -3.9903 4.82209 0
M  V30 26654 H 2526.08 -1.23743 2.70324 0
M  V30 26655 H 2523.62 -0.532751 1.44918 0
M  V30 26656 H 2525.58 -3.61518 1.94461 0
M  V30 26657 H 2524.24 -2.99175 0.956718 0
M  V30 26658 H 2523.43 -3.9426 3.13967 0
M  V30 26659 H 2523.03 -2.21333 3.01476 0
M  V30 26660 H 2525.32 -4.93632 4.6404 0
M  V30 26661 H 2526.27 -3.99992 5.84305 0
M  V30 26662 H 2526.67 -3.87375 4.10611 0
M  V30 26663 N 2526.07 -1.45812 -0.598057 0
M  V30 26664 C 2527.02 -1.5521 -1.70817 0
M  V30 26665 C 2527.99 -0.397348 -1.61277 0
M  V30 26666 O 2529.17 -0.612069 -1.80716 0
M  V30 26667 C 2526.31 -1.53381 -3.09141 0
M  V30 26668 C 2525.43 -2.79478 -3.29418 0
M  V30 26669 C 2524.56 -2.69256 -4.57902 0
M  V30 26670 C 2523.6 -3.90363 -4.7147 0
M  V30 26671 N 2522.74 -3.78618 -5.91264 0
M  V30 26672 H 2527.58 -2.50042 -1.62121 0
M  V30 26673 H 2525.12 -1.24063 -0.790367 0
M  V30 26674 H 2527.07 -1.50307 -3.89183 0
M  V30 26675 H 2525.7 -0.620932 -3.16772 0
M  V30 26676 H 2524.76 -2.92598 -2.43086 0
M  V30 26677 H 2526.07 -3.69278 -3.35314 0
M  V30 26678 H 2525.22 -2.64202 -5.46152 0
M  V30 26679 H 2523.96 -1.77071 -4.5442 0
M  V30 26680 H 2522.97 -3.95765 -3.81641 0
M  V30 26681 H 2524.19 -4.83625 -4.76743 0
M  V30 26682 H 2522.14 -2.89209 -5.88807 0
M  V30 26683 H 2522.05 -4.6206 -5.98361 0
M  V30 26684 H 2523.32 -3.77513 -6.81985 0
M  V30 26685 N 2527.55 0.841385 -1.33261 0
M  V30 26686 C 2528.8 1.59332 -1.24329 0
M  V30 26687 C 2529.12 1.94057 0.19153 0
M  V30 26688 O 2528.39 1.60751 1.11964 0
M  V30 26689 H 2526.97 0.590755 -0.457184 0
M  V30 26690 H 2529.63 1.00569 -1.66949 0
M  V30 26691 H 2528.73 2.52439 -1.83524 0
M  V30 26692 N 2529.03 1.16688 1.05932 0
M  V30 26693 C 2529.96 0.899986 2.15459 0
M  V30 26694 C 2530.94 -0.155124 1.69391 0
M  V30 26695 O 2532.13 -0.00645279 1.94199 0
M  V30 26696 C 2529.26 0.404301 3.44939 0
M  V30 26697 C 2528.21 1.39774 4.04533 0
M  V30 26698 C 2527.54 0.760309 5.29267 0
M  V30 26699 C 2528.84 2.76853 4.42888 0
M  V30 26700 H 2530.53 1.81592 2.38043 0
M  V30 26701 H 2528.08 0.874534 1.14402 0
M  V30 26702 H 2530.03 0.205045 4.20901 0
M  V30 26703 H 2528.75 -0.54715 3.21984 0
M  V30 26704 H 2527.41 1.58361 3.30632 0
M  V30 26705 H 2527.06 -0.197743 5.02611 0
M  V30 26706 H 2526.76 1.42342 5.70099 0
M  V30 26707 H 2528.28 0.571157 6.07923 0
M  V30 26708 H 2529.7 2.62028 5.09916 0
M  V30 26709 H 2528.09 3.39672 4.94715 0
M  V30 26710 H 2529.16 3.31829 3.53578 0
M  V30 26711 N 2530.51 -1.24529 0.96594 0
M  V30 26712 C 2531.92 -1.74419 0.66596 0
M  V30 26713 C 2532.27 -1.78317 -0.818376 0
M  V30 26714 O 2531.39 -1.41144 -1.64035 0
M  V30 26715 C 2531.99 -3.16754 1.20217 0
M  V30 26716 C 2530.55 -3.64159 0.952123 0
M  V30 26717 C 2529.7 -2.42856 1.33852 0
M  V30 26718 H 2532.65 -1.10256 1.14146 0
M  V30 26719 H 2532.67 -3.76243 0.56761 0
M  V30 26720 H 2532.18 -3.13885 2.2825 0
M  V30 26721 H 2530.28 -3.72429 -0.112756 0
M  V30 26722 H 2530.39 -4.51716 1.59653 0
M  V30 26723 H 2528.76 -2.43193 0.756907 0
M  V30 26724 H 2529.54 -2.42668 2.42831 0
M  V30 26725 N 2531.99 -0.735845 -1.39367 0
M  V30 26726 C 2533.23 -0.281039 -1.99732 0
M  V30 26727 C 2533.55 1.13843 -1.59057 0
M  V30 26728 O 2534.75 1.6928 -2.12265 0
M  V30 26729 C 2533.21 -0.451525 -3.57056 0
M  V30 26730 C 2532.82 -1.87893 -4.06694 0
M  V30 26731 C 2534.56 -0.0585362 -4.2446 0
M  V30 26732 C 2532.47 -1.99893 -5.56594 0
M  V30 26733 H 2531.4 -0.101324 -0.747161 0
M  V30 26734 H 2534.05 -0.909847 -1.59355 0
M  V30 26735 H 2532.43 0.246193 -3.95234 0
M  V30 26736 H 2533.61 -2.60868 -3.79848 0
M  V30 26737 H 2531.92 -2.22521 -3.51956 0
M  V30 26738 H 2534.52 -0.127193 -5.34549 0
M  V30 26739 H 2534.86 0.986362 -4.04446 0
M  V30 26740 H 2535.39 -0.707443 -3.91459 0
M  V30 26741 H 2532.13 -3.02574 -5.81489 0
M  V30 26742 H 2531.65 -1.31356 -5.8524 0
M  V30 26743 H 2533.33 -1.7805 -6.22019 0
M  V30 26744 N 2533.46 1.49999 -0.483543 0
M  V30 26745 C 2534.88 1.58999 -0.138432 0
M  V30 26746 C 2535.08 1.49052 1.35594 0
M  V30 26747 O 2534.14 1.35543 2.13036 0
M  V30 26748 C 2535.45 2.92446 -0.699709 0
M  V30 26749 C 2537 3.0587 -0.664249 0
M  V30 26750 C 2537.47 4.41911 -1.20328 0
M  V30 26751 N 2538.96 4.48356 -1.16323 0
M  V30 26752 C 2539.7 5.52034 -1.55068 0
M  V30 26753 N 2539.19 6.62903 -2.01323 0
M  V30 26754 N 2540.99 5.42648 -1.46593 0
M  V30 26755 H 2533.14 1.54707 -1.45532 0
M  V30 26756 H 2535.4 0.731837 -0.602593 0
M  V30 26757 H 2535.11 3.05239 -1.74706 0
M  V30 26758 H 2534.98 3.76901 -0.15026 0
M  V30 26759 H 2537.37 2.92718 0.374221 0
M  V30 26760 H 2537.45 2.23142 -1.25065 0
M  V30 26761 H 2537.09 4.55814 -2.24045 0
M  V30 26762 H 2537.02 5.23251 -0.592988 0
M  V30 26763 H 2539.51 3.68804 -0.824123 0
M  V30 26764 H 2539.83 7.38091 -2.29003 0
M  V30 26765 H 2538.17 6.6399 -2.05284 0
M  V30 26766 H 2541.36 4.54922 -1.10289 0
M  V30 26767 H 2541.54 6.23326 -1.77114 0
M  V30 26768 N 2534.94 0.216646 1.56104 0
M  V30 26769 C 2536.17 -0.420767 2.0227 0
M  V30 26770 C 2536.58 -1.54238 1.09577 0
M  V30 26771 O 2535.92 -1.83445 0.096763 0
M  V30 26772 C 2535.98 -1.01799 3.44786 0
M  V30 26773 C 2535.65 -0.0324351 4.56988 0
M  V30 26774 C 2536.65 0.766145 5.14224 0
M  V30 26775 C 2534.33 0.0848974 5.02228 0
M  V30 26776 C 2536.32 1.66881 6.15166 0
M  V30 26777 C 2534.01 0.9911 6.03009 0
M  V30 26778 C 2535.01 1.78161 6.59354 0
M  V30 26779 O 2534.7 2.67258 7.58174 0
M  V30 26780 H 2534.43 -0.107764 0.667355 0
M  V30 26781 H 2536.98 0.32907 2.02747 0
M  V30 26782 H 2535.21 -1.81683 3.41362 0
M  V30 26783 H 2536.9 -1.5623 3.74629 0
M  V30 26784 H 2537.67 0.68592 4.80125 0
M  V30 26785 H 2533.55 -0.520268 4.58055 0
M  V30 26786 H 2537.09 2.28626 6.59072 0
M  V30 26787 H 2532.99 1.07236 6.3653 0
M  V30 26788 H 2533.76 2.61279 7.75678 0
M  V30 26789 N 2536.42 -1.57498 -0.0567885 0
M  V30 26790 C 2537.35 -2.01466 -1.09289 0
M  V30 26791 C 2538.36 -0.922936 -1.34111 0
M  V30 26792 O 2539.55 -1.20064 -1.32086 0
M  V30 26793 C 2536.65 -2.3513 -2.44064 0
M  V30 26794 C 2535.83 -3.66338 -2.38989 0
M  V30 26795 C 2534.89 -3.87501 -3.5599 0
M  V30 26796 O 2533.91 -4.58907 -3.36738 0
M  V30 26797 N 2535.11 -3.31004 -4.76882 0
M  V30 26798 H 2537.88 -2.90964 -0.718335 0
M  V30 26799 H 2535.44 -1.60032 -0.245207 0
M  V30 26800 H 2537.43 -2.46448 -3.21007 0
M  V30 26801 H 2536 -1.51445 -2.73465 0
M  V30 26802 H 2535.22 -3.65633 -1.47329 0
M  V30 26803 H 2536.51 -4.52463 -2.32712 0
M  V30 26804 H 2535.91 -2.73073 -4.95427 0
M  V30 26805 H 2534.46 -3.47747 -5.51285 0
M  V30 26806 N 2537.9 0.328509 -1.54138 0
M  V30 26807 C 2539.13 1.0867 -1.76064 0
M  V30 26808 C 2539.54 1.81868 -0.506884 0
M  V30 26809 O 2538.9 1.7487 0.522192 0
M  V30 26810 C 2538.95 2.08861 -2.95058 0
M  V30 26811 O 2538.67 1.38637 -4.15586 0
M  V30 26812 C 2540.17 2.96937 -3.29155 0
M  V30 26813 H 2537.39 0.323451 -0.587895 0
M  V30 26814 H 2539.93 0.37614 -2.01011 0
M  V30 26815 H 2538.09 2.75459 -2.72399 0
M  V30 26816 H 2538.5 2.05691 -4.82485 0
M  V30 26817 H 2539.98 3.63143 -4.15729 0
M  V30 26818 H 2540.45 3.63769 -2.46107 0
M  V30 26819 H 2541.06 2.35908 -3.53875 0
M  V30 26820 N 2539.38 1.46127 0.590316 0
M  V30 26821 C 2540.6 1.546 1.37501 0
M  V30 26822 C 2541.02 0.18448 1.87897 0
M  V30 26823 O 2540.38 -0.816956 1.63193 0
M  V30 26824 C 2540.43 2.54458 2.56775 0
M  V30 26825 O 2540.15 3.85321 2.08469 0
M  V30 26826 C 2541.65 2.72798 3.49423 0
M  V30 26827 H 2538.87 0.523045 0.420316 0
M  V30 26828 H 2541.41 1.91468 0.71835 0
M  V30 26829 H 2539.57 2.20615 3.18446 0
M  V30 26830 H 2539.98 4.39605 2.8609 0
M  V30 26831 H 2541.46 3.46608 4.29613 0
M  V30 26832 H 2541.93 1.79436 4.00873 0
M  V30 26833 H 2542.54 3.07707 2.93592 0
M  V30 26834 N 2540.85 -0.834306 1.33705 0
M  V30 26835 C 2541.82 -1.92601 1.24247 0
M  V30 26836 C 2542.82 -1.59998 0.160411 0
M  V30 26837 O 2544.01 -1.69252 0.412257 0
M  V30 26838 C 2541.14 -3.28374 0.915608 0
M  V30 26839 H 2542.33 -2.02412 2.2129 0
M  V30 26840 H 2539.88 -1.02694 1.17829 0
M  V30 26841 H 2540.62 -3.24258 -0.0521316 0
M  V30 26842 H 2540.4 -3.53419 1.69817 0
M  V30 26843 H 2541.89 -4.08345 0.874303 0
M  V30 26844 N 2542.33 -1.17248 -1.05312 0
M  V30 26845 C 2543.56 -0.984625 -1.81969 0
M  V30 26846 C 2543.97 0.467134 -1.8293 0
M  V30 26847 O 2543.33 1.32436 -1.25566 0
M  V30 26848 C 2543.38 -1.51677 -3.28141 0
M  V30 26849 O 2543.1 -2.91169 -3.27342 0
M  V30 26850 C 2544.6 -1.37333 -4.21491 0
M  V30 26851 H 2541.82 -0.348421 -0.573449 0
M  V30 26852 H 2544.37 -1.55509 -1.32806 0
M  V30 26853 H 2542.52 -0.988367 -3.7458 0
M  V30 26854 H 2542.94 -3.15739 -4.18818 0
M  V30 26855 H 2544.41 -1.79384 -5.2204 0
M  V30 26856 H 2544.89 -0.320246 -4.38031 0
M  V30 26857 H 2545.49 -1.89185 -3.80906 0
M  V30 26858 N 2543.81 1.24015 -0.972531 0
M  V30 26859 C 2544.76 2.25185 -0.506009 0
M  V30 26860 C 2545.73 1.5986 0.450981 0
M  V30 26861 O 2546.91 1.87368 0.360274 0
M  V30 26862 C 2544.05 3.4456 0.193028 0
M  V30 26863 C 2543.17 4.24466 -0.803296 0
M  V30 26864 C 2542.3 5.3114 -0.0798726 0
M  V30 26865 C 2541.34 6.02747 -1.06594 0
M  V30 26866 N 2540.48 7.01113 -0.372197 0
M  V30 26867 H 2545.32 2.64457 -1.37356 0
M  V30 26868 H 2542.85 1.29996 -0.688442 0
M  V30 26869 H 2544.81 4.12641 0.615052 0
M  V30 26870 H 2543.44 3.06111 1.0245 0
M  V30 26871 H 2542.49 3.55876 -1.34374 0
M  V30 26872 H 2543.81 4.73941 -1.55502 0
M  V30 26873 H 2542.96 6.05381 0.399908 0
M  V30 26874 H 2541.7 4.82585 0.704512 0
M  V30 26875 H 2540.7 5.27306 -1.55655 0
M  V30 26876 H 2541.93 6.53391 -1.85085 0
M  V30 26877 H 2539.87 6.54821 0.393123 0
M  V30 26878 H 2539.79 7.48494 -1.06271 0
M  V30 26879 H 2541.06 7.79453 0.0854562 0
M  V30 26880 N 2545.29 0.743226 1.38974 0
M  V30 26881 C 2546.51 0.303972 2.0516 0
M  V30 26882 C 2546.94 -1.05573 1.55679 0
M  V30 26883 O 2546.3 -1.67067 0.704161 0
M  V30 26884 C 2546.34 0.324437 3.59138 0
M  V30 26885 O 2545.45 -0.685132 4.06669 0
M  V30 26886 H 2544.79 0.136529 0.649812 0
M  V30 26887 H 2547.32 1.01145 1.77851 0
M  V30 26888 H 2547.33 0.171689 4.07639 0
M  V30 26889 H 2546 1.31654 3.94512 0
M  V30 26890 H 2544.58 -0.497848 3.69562 0
M  V30 26891 N 2546.77 -1.4974 0.491491 0
M  V30 26892 C 2547.68 -2.32715 -0.296794 0
M  V30 26893 C 2548.69 -1.44015 -0.97651 0
M  V30 26894 O 2549.87 -1.77048 -0.959992 0
M  V30 26895 C 2546.93 -3.19217 -1.35283 0
M  V30 26896 C 2545.99 -4.23758 -0.687557 0
M  V30 26897 C 2545.23 -5.06126 -1.69328 0
M  V30 26898 O 2545.45 -4.89866 -2.92211 0
M  V30 26899 O 2544.38 -5.88696 -1.25384 0
M  V30 26900 H 2548.21 -3.01287 0.382101 0
M  V30 26901 H 2545.8 -1.47243 0.252979 0
M  V30 26902 H 2547.68 -3.72831 -1.96404 0
M  V30 26903 H 2546.35 -2.53351 -2.01482 0
M  V30 26904 H 2545.26 -3.74082 -0.0368502 0
M  V30 26905 H 2546.59 -4.92153 -0.0681701 0
M  V30 26906 N 2548.24 -0.224922 -1.55987 0
M  V30 26907 C 2549.19 0.697258 -2.17077 0
M  V30 26908 C 2550.18 1.15512 -1.12008 0
M  V30 26909 O 2551.37 1.10855 -1.37986 0
M  V30 26910 C 2548.5 1.90369 -2.85683 0
M  V30 26911 C 2547.59 1.46536 -3.9798 0
M  V30 26912 N 2547.98 0.739821 -5.0036 0
M  V30 26913 C 2546.27 1.75238 -4.10131 0
M  V30 26914 C 2546.98 0.515837 -5.79408 0
M  V30 26915 N 2545.95 1.07354 -5.32894 0
M  V30 26916 H 2549.75 0.134542 -2.93592 0
M  V30 26917 H 2547.27 -0.0263171 -1.62379 0
M  V30 26918 H 2549.26 2.57512 -3.27861 0
M  V30 26919 H 2547.92 2.47084 -2.10664 0
M  V30 26920 H 2548.94 0.392162 -5.16413 0
M  V30 26921 H 2545.61 2.33249 -3.46267 0
M  V30 26922 H 2547 -0.061853 -6.71872 0
M  V30 26923 N 2549.72 1.57526 0.0484352 0
M  V30 26924 C 2550.95 1.92618 0.755387 0
M  V30 26925 C 2551.37 0.823014 1.69917 0
M  V30 26926 O 2550.72 -0.202053 1.81378 0
M  V30 26927 C 2550.77 3.27568 1.52909 0
M  V30 26928 O 2550.49 4.33645 0.623213 0
M  V30 26929 C 2552 3.76822 2.33495 0
M  V30 26930 H 2549.22 0.636144 0.213453 0
M  V30 26931 H 2551.76 2.04497 0.0117339 0
M  V30 26932 H 2549.91 3.17145 2.2248 0
M  V30 26933 H 2550.33 5.11427 1.16374 0
M  V30 26934 H 2551.8 4.73813 2.83205 0
M  V30 26935 H 2552.28 3.0702 3.14063 0
M  V30 26936 H 2552.89 3.90265 1.69036 0
M  V30 26937 N 2551.2 -0.32033 1.5431 0
M  V30 26938 C 2552.45 -1.0558 1.72329 0
M  V30 26939 C 2552.77 -1.8844 0.501523 0
M  V30 26940 O 2552.04 -1.89816 -0.484446 0
M  V30 26941 H 2550.62 -0.392789 0.635394 0
M  V30 26942 H 2553.28 -0.355986 1.91621 0
M  V30 26943 H 2552.38 -1.71998 2.60429 0
M  V30 26944 N 2552.68 -1.46438 -0.582558 0
M  V30 26945 C 2554.09 -1.31396 -0.905939 0
M  V30 26946 C 2554.29 -0.285511 -1.99467 0
M  V30 26947 O 2553.35 0.311869 -2.50567 0
M  V30 26948 C 2554.66 -2.70024 -1.32315 0
M  V30 26949 C 2556.21 -2.78116 -1.43599 0
M  V30 26950 C 2556.69 -4.17326 -1.88687 0
M  V30 26951 N 2558.18 -4.19744 -1.9588 0
M  V30 26952 C 2558.91 -5.24351 -2.32042 0
M  V30 26953 N 2558.41 -6.39285 -2.66995 0
M  V30 26954 N 2560.2 -5.11718 -2.32597 0
M  V30 26955 H 2552.35 -2.1196 0.136638 0
M  V30 26956 H 2554.62 -0.947999 -0.0015407 0
M  V30 26957 H 2554.32 -3.46593 -0.597181 0
M  V30 26958 H 2554.2 -3.0014 -2.28464 0
M  V30 26959 H 2556.58 -2.01835 -2.15282 0
M  V30 26960 H 2556.66 -2.51684 -0.457014 0
M  V30 26961 H 2556.31 -4.94102 -1.17582 0
M  V30 26962 H 2556.24 -4.41165 -2.87543 0
M  V30 26963 H 2558.73 -3.36817 -1.71356 0
M  V30 26964 H 2559.04 -7.1488 -2.93542 0
M  V30 26965 H 2557.39 -6.42646 -2.64633 0
M  V30 26966 H 2560.58 -4.20963 -2.04713 0
M  V30 26967 H 2560.75 -5.93354 -2.60452 0
M  V30 26968 N 2554.16 0.827204 -1.34146 0
M  V30 26969 C 2555.07 1.96973 -1.27432 0
M  V30 26970 C 2556.08 1.73038 -0.182758 0
M  V30 26971 O 2557.26 1.97214 -0.408461 0
M  V30 26972 C 2554.32 3.31192 -1.02532 0
M  V30 26973 C 2553.38 3.68164 -2.20802 0
M  V30 26974 C 2552.62 4.95978 -1.97081 0
M  V30 26975 O 2552.84 5.62818 -0.926921 0
M  V30 26976 O 2551.77 5.30728 -2.83921 0
M  V30 26977 H 2555.6 2.0558 -2.23541 0
M  V30 26978 H 2553.19 0.961969 -1.14309 0
M  V30 26979 H 2555.07 4.11587 -0.904099 0
M  V30 26980 H 2553.74 3.23562 -0.0945958 0
M  V30 26981 H 2552.65 2.88231 -2.38483 0
M  V30 26982 H 2553.98 3.80474 -3.1225 0
M  V30 26983 N 2555.63 1.17805 1.04688 0
M  V30 26984 C 2556.88 0.963962 1.77174 0
M  V30 26985 C 2557.2 -0.507982 1.88889 0
M  V30 26986 O 2558.4 -0.840419 2.58165 0
M  V30 26987 C 2556.86 1.6756 3.18515 0
M  V30 26988 C 2556.47 3.18643 3.14914 0
M  V30 26989 C 2558.21 1.54409 3.95421 0
M  V30 26990 C 2556.12 3.82474 4.51074 0
M  V30 26991 H 2555.05 0.357035 0.66411 0
M  V30 26992 H 2557.7 1.41112 1.17301 0
M  V30 26993 H 2556.08 1.15619 3.78746 0
M  V30 26994 H 2557.25 3.77558 2.64171 0
M  V30 26995 H 2555.57 3.31864 2.51506 0
M  V30 26996 H 2558.17 1.99465 4.96103 0
M  V30 26997 H 2558.51 0.495402 4.13342 0
M  V30 26998 H 2559.04 2.03596 3.41751 0
M  V30 26999 H 2555.78 4.87362 4.38359 0
M  V30 27000 H 2555.3 3.28345 5.01946 0
M  V30 27001 H 2556.98 3.84974 5.20004 0
M  V30 27002 N 2557.11 -1.23497 0.979094 0
M  V30 27003 C 2558.36 -1.92162 0.648212 0
M  V30 27004 C 2558.69 -1.76224 -0.816018 0
M  V30 27005 O 2557.97 -1.1224 -1.58847 0
M  V30 27006 C 2558.25 -3.44822 1.03779 0
M  V30 27007 C 2558.1 -3.69874 2.55955 0
M  V30 27008 C 2559.42 -4.36252 0.58073 0
M  V30 27009 H 2556.54 -0.697866 0.236964 0
M  V30 27010 H 2559.18 -1.45645 1.22014 0
M  V30 27011 H 2557.33 -3.84571 0.551126 0
M  V30 27012 H 2559 -3.39615 3.12185 0
M  V30 27013 H 2557.25 -3.14631 2.98647 0
M  V30 27014 H 2557.92 -4.76732 2.78263 0
M  V30 27015 H 2560.39 -4.03941 0.998536 0
M  V30 27016 H 2559.27 -5.41771 0.881759 0
M  V30 27017 H 2559.53 -4.39043 -0.518975 0
M  V30 27018 N 2558.59 -0.750586 -1.38578 0
M  V30 27019 C 2559.87 -0.231043 -1.94231 0
M  V30 27020 C 2560.25 1.27015 -1.68613 0
M  V30 27021 O 2559.6 2.04321 -1.023 0
M  V30 27022 C 2559.81 -0.581489 -3.44122 0
M  V30 27023 C 2561.15 -0.539463 -4.21159 0
M  V30 27024 O 2562.18 -0.519603 -3.5239 0
M  V30 27025 O 2561.04 -0.547745 -5.43748 0
M  V30 27026 H 2558.13 -0.0474408 -0.825638 0
M  V30 27027 H 2560.68 -0.830504 -1.47989 0
M  V30 27028 H 2559.45 -1.61839 -3.56264 0
M  V30 27029 H 2559.07 0.0461348 -3.97573 0
M  V30 27030 N 2560.07 1.49477 -0.499425 0
M  V30 27031 C 2561 2.31943 0.269203 0
M  V30 27032 C 2561.98 1.40144 0.96403 0
M  V30 27033 O 2563.17 1.69054 0.955737 0
M  V30 27034 C 2560.3 3.20617 1.33499 0
M  V30 27035 C 2559.25 4.21196 0.760128 0
M  V30 27036 C 2558.58 4.98796 1.92631 0
M  V30 27037 C 2559.88 5.21712 -0.247753 0
M  V30 27038 H 2561.57 2.96452 -0.419134 0
M  V30 27039 H 2559.12 1.42562 -0.203013 0
M  V30 27040 H 2561.07 3.77119 1.88041 0
M  V30 27041 H 2559.79 2.54048 2.05249 0
M  V30 27042 H 2558.45 3.65837 0.236466 0
M  V30 27043 H 2558.1 4.28676 2.63146 0
M  V30 27044 H 2557.8 5.6685 1.54775 0
M  V30 27045 H 2559.32 5.58141 2.4761 0
M  V30 27046 H 2560.74 5.72917 0.209479 0
M  V30 27047 H 2559.13 5.97647 -0.542067 0
M  V30 27048 H 2560.2 4.70718 -1.16417 0
M  V30 27049 N 2561.55 0.233191 1.55865 0
M  V30 27050 C 2562.48 -0.712404 2.16795 0
M  V30 27051 C 2563.46 -1.18271 1.11582 0
M  V30 27052 O 2564.64 -1.26334 1.39899 0
M  V30 27053 C 2561.77 -1.96656 2.75761 0
M  V30 27054 C 2560.82 -1.63526 3.93905 0
M  V30 27055 S 2561.65 -0.749856 5.30224 0
M  V30 27056 C 2562.8 -2.01332 5.92635 0
M  V30 27057 H 2563.04 -0.194565 2.96663 0
M  V30 27058 H 2560.57 0.0177696 1.5439 0
M  V30 27059 H 2562.53 -2.68663 3.10372 0
M  V30 27060 H 2561.19 -2.45552 1.95864 0
M  V30 27061 H 2560.38 -2.56739 4.33706 0
M  V30 27062 H 2559.98 -0.99574 3.60501 0
M  V30 27063 H 2562.28 -2.96208 6.09317 0
M  V30 27064 H 2563.22 -1.65903 6.88391 0
M  V30 27065 H 2563.63 -2.15916 5.21575 0
M  V30 27066 N 2563.03 -1.57549 -0.0400806 0
M  V30 27067 C 2564.27 -1.90609 -0.738064 0
M  V30 27068 C 2564.63 -0.83057 -1.73106 0
M  V30 27069 O 2565.83 -1.04518 -2.47648 0
M  V30 27070 C 2564.1 -3.28847 -1.39979 0
M  V30 27071 S 2565.66 -3.83722 -2.12845 0
M  V30 27072 H 2562.48 -0.667544 -0.244758 0
M  V30 27073 H 2565.08 -1.95499 0.00697036 0
M  V30 27074 H 2563.78 -4.04998 -0.663704 0
M  V30 27075 H 2563.32 -3.27234 -2.1836 0
M  V30 27076 H 2565.33 -3.61561 -3.39836 0
M  V30 27077 N 2564.5 0.312142 -1.54478 0
M  V30 27078 C 2565.45 1.38595 -1.8104 0
M  V30 27079 C 2566.44 1.46425 -0.666967 0
M  V30 27080 O 2567.63 1.50765 -0.927295 0
M  V30 27081 C 2564.76 2.75274 -2.05132 0
M  V30 27082 C 2563.84 2.71711 -3.25629 0
M  V30 27083 N 2564.24 2.37765 -4.46432 0
M  V30 27084 C 2562.53 3.02827 -3.27432 0
M  V30 27085 C 2563.23 2.43222 -5.28411 0
M  V30 27086 N 2562.21 2.80127 -4.65865 0
M  V30 27087 H 2566.01 1.11296 -2.72012 0
M  V30 27088 H 2563.53 0.520678 -1.53827 0
M  V30 27089 H 2565.52 3.52684 -2.22305 0
M  V30 27090 H 2564.18 3.03493 -1.15421 0
M  V30 27091 H 2565.19 2.10412 -4.73231 0
M  V30 27092 H 2561.87 3.36014 -2.47792 0
M  V30 27093 H 2563.26 2.19871 -6.34907 0
M  V30 27094 N 2565.98 1.46745 0.574784 0
M  V30 27095 C 2566.94 1.57481 1.66531 0
M  V30 27096 C 2567.94 0.45129 1.54337 0
M  V30 27097 O 2569.13 0.715841 1.58812 0
M  V30 27098 C 2566.27 1.50264 3.05996 0
M  V30 27099 H 2567.46 2.54676 1.58367 0
M  V30 27100 H 2565.01 1.34673 0.793278 0
M  V30 27101 H 2565.75 0.543781 3.19708 0
M  V30 27102 H 2565.53 2.31787 3.16255 0
M  V30 27103 H 2567.02 1.60879 3.85367 0
M  V30 27104 N 2567.46 -0.820078 1.34583 0
M  V30 27105 C 2568.69 -1.60811 1.30183 0
M  V30 27106 C 2569.1 -1.88396 -0.123518 0
M  V30 27107 O 2568.46 -1.47737 -1.07145 0
M  V30 27108 C 2568.51 -2.94735 2.09317 0
M  V30 27109 O 2568.23 -2.68352 3.46293 0
M  V30 27110 C 2569.73 -3.89132 2.12347 0
M  V30 27111 H 2566.95 -0.499774 0.447735 0
M  V30 27112 H 2569.5 -1.02014 1.77238 0
M  V30 27113 H 2567.65 -3.50082 1.65895 0
M  V30 27114 H 2568.07 -3.53767 3.87233 0
M  V30 27115 H 2569.54 -4.80257 2.72134 0
M  V30 27116 H 2570.02 -4.24716 1.11861 0
M  V30 27117 H 2570.62 -3.39721 2.5587 0
M  V30 27118 N 2568.94 -1.18359 -1.04062 0
M  V30 27119 C 2570.18 -0.978978 -1.77263 0
M  V30 27120 C 2570.51 0.491395 -1.8819 0
M  V30 27121 O 2569.77 1.38106 -1.38655 0
M  V30 27122 C 2570.07 -1.57894 -3.20631 0
M  V30 27123 C 2569.73 -3.07545 -3.29738 0
M  V30 27124 C 2568.39 -3.4839 -3.31931 0
M  V30 27125 C 2570.75 -4.03558 -3.29834 0
M  V30 27126 C 2568.07 -4.83823 -3.31861 0
M  V30 27127 C 2570.43 -5.38907 -3.31304 0
M  V30 27128 C 2569.09 -5.792 -3.31789 0
M  V30 27129 H 2568.36 -0.358233 -0.648652 0
M  V30 27130 H 2571.01 -1.47424 -1.22223 0
M  V30 27131 H 2569.31 -1.00568 -3.78673 0
M  V30 27132 H 2571.01 -1.39604 -3.75914 0
M  V30 27133 H 2567.6 -2.74991 -3.28752 0
M  V30 27134 H 2571.78 -3.73053 -3.27331 0
M  V30 27135 H 2567.04 -5.14339 -3.30553 0
M  V30 27136 H 2571.21 -6.13072 -3.30327 0
M  V30 27137 H 2568.84 -6.8412 -3.31488 0
M  V30 27138 N 2570.42 1.22976 -0.98563 0
M  V30 27139 C 2571.64 1.95558 -0.675617 0
M  V30 27140 C 2572.06 1.72899 0.758382 0
M  V30 27141 O 2571.42 1.02359 1.51092 0
M  V30 27142 C 2571.47 3.48438 -0.962992 0
M  V30 27143 O 2571.19 3.70332 -2.34063 0
M  V30 27144 C 2572.69 4.38213 -0.669662 0
M  V30 27145 H 2569.91 0.622474 -0.250534 0
M  V30 27146 H 2572.45 1.56325 -1.31843 0
M  V30 27147 H 2570.61 3.85666 -0.366101 0
M  V30 27148 H 2571.02 4.64587 -2.43432 0
M  V30 27149 H 2572.5 5.44261 -0.921063 0
M  V30 27150 H 2572.97 4.37408 0.396307 0
M  V30 27151 H 2573.58 4.066 -1.24727 0
M  V30 27152 N 2571.89 0.757924 1.38178 0
M  V30 27153 C 2572.83 0.0814494 2.28055 0
M  V30 27154 C 2573.8 -0.723754 1.45604 0
M  V30 27155 O 2574.99 -0.701461 1.74962 0
M  V30 27156 C 2572.12 -0.891336 3.26761 0
M  V30 27157 C 2571.16 -0.171834 4.26154 0
M  V30 27158 S 2571.99 1.13044 5.23432 0
M  V30 27159 C 2573.15 0.160837 6.25693 0
M  V30 27160 H 2573.38 0.84358 2.85081 0
M  V30 27161 H 2570.92 0.550697 1.44245 0
M  V30 27162 H 2572.87 -1.44724 3.84142 0
M  V30 27163 H 2571.54 -1.62647 2.68709 0
M  V30 27164 H 2570.73 -0.908756 4.95739 0
M  V30 27165 H 2570.33 0.312671 3.72691 0
M  V30 27166 H 2572.62 -0.671654 6.74162 0
M  V30 27167 H 2573.57 0.824476 7.03284 0
M  V30 27168 H 2573.97 -0.221793 5.64064 0
M  V30 27169 N 2573.37 -1.4921 0.507345 0
M  V30 27170 C 2574.79 -1.58758 0.16371 0
M  V30 27171 C 2574.99 -1.5119 -1.33206 0
M  V30 27172 O 2574.04 -1.38915 -2.10853 0
M  V30 27173 C 2575.36 -2.91296 0.746146 0
M  V30 27174 C 2576.91 -3.04775 0.712826 0
M  V30 27175 C 2577.38 -4.3994 1.27344 0
M  V30 27176 N 2578.87 -4.46449 1.23441 0
M  V30 27177 C 2579.61 -5.49497 1.63831 0
M  V30 27178 N 2579.1 -6.59617 2.11843 0
M  V30 27179 N 2580.9 -5.40247 1.55208 0
M  V30 27180 H 2573.05 -1.52372 1.47974 0
M  V30 27181 H 2575.31 -0.722158 0.61416 0
M  V30 27182 H 2575.02 -3.02421 1.7954 0
M  V30 27183 H 2574.89 -3.76614 0.210203 0
M  V30 27184 H 2577.28 -2.93276 -0.327604 0
M  V30 27185 H 2577.36 -2.21124 1.28599 0
M  V30 27186 H 2577 -4.52192 2.31268 0
M  V30 27187 H 2576.93 -5.22241 0.676157 0
M  V30 27188 H 2579.42 -3.67447 0.882692 0
M  V30 27189 H 2579.74 -7.34354 2.40716 0
M  V30 27190 H 2578.08 -6.60641 2.15822 0
M  V30 27191 H 2581.27 -4.5311 1.17513 0
M  V30 27192 H 2581.44 -6.20429 1.87008 0
M  V30 27193 N 2574.85 -0.241454 -1.55739 0
M  V30 27194 C 2575.78 0.654682 -2.24134 0
M  V30 27195 C 2576.76 1.18558 -1.21976 0
M  V30 27196 O 2577.95 1.22592 -1.50615 0
M  V30 27197 C 2575.08 1.85418 -2.93662 0
M  V30 27198 C 2574.03 1.45629 -4.02463 0
M  V30 27199 C 2573.36 2.73618 -4.59388 0
M  V30 27200 C 2574.66 0.631415 -5.18469 0
M  V30 27201 H 2576.35 0.0843827 -2.99281 0
M  V30 27202 H 2573.9 0.0391454 -1.43947 0
M  V30 27203 H 2575.85 2.4867 -3.40208 0
M  V30 27204 H 2574.57 2.44977 -2.15995 0
M  V30 27205 H 2573.23 0.84714 -3.56678 0
M  V30 27206 H 2572.88 3.31363 -3.78428 0
M  V30 27207 H 2572.58 2.47721 -5.3283 0
M  V30 27208 H 2574.1 3.37777 -5.08664 0
M  V30 27209 H 2575.52 1.1681 -5.61274 0
M  V30 27210 H 2573.92 0.468726 -5.98267 0
M  V30 27211 H 2574.99 -0.357591 -4.8358 0
M  V30 27212 N 2576.33 1.57568 0.0317248 0
M  V30 27213 C 2577.26 2.09422 1.03271 0
M  V30 27214 C 2578.24 0.996168 1.37879 0
M  V30 27215 O 2579.42 1.27125 1.46809 0
M  V30 27216 C 2576.55 2.57141 2.33443 0
M  V30 27217 C 2575.51 3.71186 2.13085 0
M  V30 27218 C 2574.83 4.05102 3.48994 0
M  V30 27219 C 2576.13 4.99718 1.51919 0
M  V30 27220 H 2577.83 2.93304 0.601069 0
M  V30 27221 H 2575.37 1.41097 0.28768 0
M  V30 27222 H 2577.33 2.92037 3.03796 0
M  V30 27223 H 2576.05 1.70338 2.78662 0
M  V30 27224 H 2574.71 3.36634 1.45165 0
M  V30 27225 H 2574.36 3.15369 3.91857 0
M  V30 27226 H 2574.06 4.81917 3.36198 0
M  V30 27227 H 2575.58 4.4253 4.20714 0
M  V30 27228 H 2577 5.32588 2.12186 0
M  V30 27229 H 2575.39 5.81127 1.49706 0
M  V30 27230 H 2576.46 4.82471 0.484726 0
M  V30 27231 N 2577.81 -0.303946 1.54641 0
M  V30 27232 C 2579.03 -1.06289 1.78094 0
M  V30 27233 C 2579.46 -1.80261 0.537374 0
M  V30 27234 O 2578.81 -1.73921 -0.511963 0
M  V30 27235 C 2578.86 -2.02142 2.98615 0
M  V30 27236 O 2577.97 -3.10392 2.71534 0
M  V30 27237 H 2577.31 -0.305487 0.589554 0
M  V30 27238 H 2579.84 -0.342265 2.01717 0
M  V30 27239 H 2579.85 -2.44661 3.26504 0
M  V30 27240 H 2578.52 -1.47707 3.88787 0
M  V30 27241 H 2577.1 -2.72409 2.54652 0
M  V30 27242 N 2579.28 -1.47047 -0.566994 0
M  V30 27243 C 2580.7 -1.47145 -1.14914 0
M  V30 27244 C 2581.05 -0.220801 -1.94954 0
M  V30 27245 O 2580.17 0.675014 -2.05603 0
M  V30 27246 C 2580.77 -2.66604 -2.09065 0
M  V30 27247 C 2579.33 -2.69692 -2.6257 0
M  V30 27248 C 2578.47 -2.40091 -1.38751 0
M  V30 27249 H 2581.42 -1.54699 -0.354099 0
M  V30 27250 H 2581.44 -2.43017 -2.92785 0
M  V30 27251 H 2580.96 -3.57612 -1.50782 0
M  V30 27252 H 2579.06 -1.82797 -3.24678 0
M  V30 27253 H 2579.17 -3.70107 -3.04232 0
M  V30 27254 H 2577.53 -1.90471 -1.69095 0
M  V30 27255 H 2578.32 -3.33295 -0.822763 0
M  V30 27256 N 2580.76 0.812929 -1.35016 0
M  V30 27257 C 2582.01 1.57202 -1.28123 0
M  V30 27258 C 2582.34 1.93652 0.145835 0
M  V30 27259 O 2581.62 1.60838 1.09368 0
M  V30 27260 C 2581.9 2.86488 -2.18167 0
M  V30 27261 C 2581.75 2.56555 -3.69459 0
M  V30 27262 C 2583.07 3.88142 -2.07446 0
M  V30 27263 H 2580.19 0.570358 -0.466756 0
M  V30 27264 H 2582.83 0.935754 -1.65359 0
M  V30 27265 H 2580.98 3.40785 -1.86541 0
M  V30 27266 H 2582.65 2.0849 -4.11497 0
M  V30 27267 H 2580.9 1.89844 -3.90053 0
M  V30 27268 H 2581.57 3.48792 -4.27841 0
M  V30 27269 H 2584.04 3.43226 -2.35234 0
M  V30 27270 H 2582.92 4.76391 -2.72658 0
M  V30 27271 H 2583.18 4.29341 -1.05446 0
M  V30 27272 N 2582.24 1.18909 1.03433 0
M  V30 27273 C 2583.66 0.940134 1.28972 0
M  V30 27274 C 2583.86 -0.390656 1.97677 0
M  V30 27275 O 2582.91 -1.12348 2.26129 0
M  V30 27276 C 2584.23 2.11025 2.14217 0
M  V30 27277 C 2585.77 2.14926 2.27543 0
M  V30 27278 C 2586.25 3.31373 3.16158 0
M  V30 27279 N 2587.74 3.31274 3.23746 0
M  V30 27280 C 2588.47 4.18021 3.92487 0
M  V30 27281 N 2587.97 5.14912 4.63506 0
M  V30 27282 N 2589.76 4.05915 3.88831 0
M  V30 27283 H 2581.91 2.04539 0.572484 0
M  V30 27284 H 2584.18 0.894077 0.315168 0
M  V30 27285 H 2583.88 3.07303 1.71049 0
M  V30 27286 H 2583.76 2.07626 3.14915 0
M  V30 27287 H 2586.14 1.19222 2.69945 0
M  V30 27288 H 2586.23 2.2238 1.26415 0
M  V30 27289 H 2585.87 4.27353 2.74466 0
M  V30 27290 H 2585.8 3.21155 4.17333 0
M  V30 27291 H 2588.29 2.61134 2.73162 0
M  V30 27292 H 2588.6 5.77463 5.13573 0
M  V30 27293 H 2586.95 5.18866 4.62389 0
M  V30 27294 H 2590.14 3.29501 3.32485 0
M  V30 27295 H 2590.31 4.73734 4.42131 0
M  V30 27296 N 2583.72 -1.22452 0.992137 0
M  V30 27297 C 2584.96 -1.91463 0.668557 0
M  V30 27298 C 2585.3 -1.77079 -0.797281 0
M  V30 27299 O 2584.57 -1.13919 -1.57648 0
M  V30 27300 C 2584.86 -3.43702 1.0743 0
M  V30 27301 C 2584.71 -3.67139 2.59864 0
M  V30 27302 C 2586.03 -4.35611 0.626968 0
M  V30 27303 H 2583.15 -0.695313 0.244353 0
M  V30 27304 H 2585.79 -1.44343 1.23552 0
M  V30 27305 H 2583.94 -3.83965 0.591884 0
M  V30 27306 H 2585.61 -3.36284 3.1577 0
M  V30 27307 H 2583.85 -3.11446 3.01967 0
M  V30 27308 H 2584.52 -4.73754 2.83304 0
M  V30 27309 H 2587 -4.02859 1.04132 0
M  V30 27310 H 2585.88 -5.40806 0.939171 0
M  V30 27311 H 2586.14 -4.39569 -0.472379 0
M  V30 27312 N 2585.2 -0.765242 -1.37774 0
M  V30 27313 C 2586.61 -0.392851 -1.8252 0
M  V30 27314 C 2586.96 1.08014 -1.63791 0
M  V30 27315 O 2586.08 1.83599 -1.14545 0
M  V30 27316 C 2586.68 -0.706272 -3.31357 0
M  V30 27317 C 2585.24 -0.387018 -3.74405 0
M  V30 27318 C 2584.38 -0.953468 -2.60393 0
M  V30 27319 H 2587.34 -0.960435 -1.26338 0
M  V30 27320 H 2587.36 0.0114037 -3.80498 0
M  V30 27321 H 2586.87 -1.77839 -3.44956 0
M  V30 27322 H 2584.97 0.678048 -3.66379 0
M  V30 27323 H 2585.08 -0.890719 -4.70747 0
M  V30 27324 H 2583.45 -0.378108 -2.51878 0
M  V30 27325 H 2584.23 -2.03085 -2.76787 0
M  V30 27326 N 2586.67 1.48939 -0.515251 0
M  V30 27327 C 2587.62 2.31038 0.269074 0
M  V30 27328 C 2588.62 1.40294 0.949419 0
M  V30 27329 O 2589.82 1.57275 0.875482 0
M  V30 27330 H 2586.2 0.744543 0.105637 0
M  V30 27331 H 2588.17 2.95091 -0.443148 0
M  V30 27332 C 2586.92 3.21994 1.31207 0
M  V30 27333 H 2586.24 3.91756 0.797966 0
M  V30 27334 H 2587.68 3.82352 1.83257 0
M  V30 27335 C 2586.14 2.4258 2.33787 0
M  V30 27336 O 2586.67 2.14009 3.39946 0
M  V30 27337 N 2584.88 2.04343 2.06621 0
M  V30 27338 H 2584.42 2.27779 1.2031 0
M  V30 27339 H 2584.38 1.51519 2.7548 0
M  V30 27340 N 2588.15 0.249709 1.55609 0
M  V30 27341 C 2589.38 -0.377768 2.03117 0
M  V30 27342 C 2589.79 -1.51879 1.12824 0
M  V30 27343 O 2589.13 -1.83198 0.135653 0
M  V30 27344 C 2589.2 -0.944632 3.46867 0
M  V30 27345 C 2588.86 0.0645062 4.56954 0
M  V30 27346 C 2589.86 0.875047 5.12483 0
M  V30 27347 C 2587.54 0.191408 5.01935 0
M  V30 27348 C 2589.54 1.79892 6.11488 0
M  V30 27349 C 2587.22 1.11878 6.00772 0
M  V30 27350 C 2588.22 1.92106 6.55427 0
M  V30 27351 O 2587.91 2.8328 7.52335 0
M  V30 27352 H 2587.64 -0.0935843 0.669491 0
M  V30 27353 H 2590.2 0.372001 2.02003 0
M  V30 27354 H 2588.43 -1.74401 3.45139 0
M  V30 27355 H 2590.11 -1.48249 3.77859 0
M  V30 27356 H 2590.88 0.787607 4.78562 0
M  V30 27357 H 2586.76 -0.422991 4.59055 0
M  V30 27358 H 2590.3 2.42555 6.54074 0
M  V30 27359 H 2586.2 1.20714 6.34112 0
M  V30 27360 H 2586.97 2.77673 7.69961 0
M  V30 27361 N 2589.63 -1.57583 -0.0233682 0
M  V30 27362 C 2590.58 -2.08025 -1.04059 0
M  V30 27363 C 2591.57 -0.995228 -1.37082 0
M  V30 27364 O 2592.78 -1.18007 -1.35921 0
M  V30 27365 H 2589.15 -0.663929 -0.353133 0
M  V30 27366 H 2591.13 -2.92521 -0.589402 0
M  V30 27367 C 2589.87 -2.57975 -2.33119 0
M  V30 27368 H 2589.2 -3.41084 -2.08571 0
M  V30 27369 H 2590.64 -2.96973 -3.02627 0
M  V30 27370 C 2589.1 -1.48348 -3.02481 0
M  V30 27371 O 2589.63 -0.852967 -3.9254 0
M  V30 27372 N 2587.83 -1.21662 -2.63906 0
M  V30 27373 H 2587.38 -1.73119 -1.90755 0
M  V30 27374 H 2587.34 -0.485272 -3.10632 0
M  V30 27375 N 2591.11 0.29574 -1.548 0
M  V30 27376 C 2592.04 1.36955 -1.89118 0
M  V30 27377 C 2593.02 1.52643 -0.750617 0
M  V30 27378 O 2594.21 1.66063 -1.00681 0
M  V30 27379 C 2591.34 2.73291 -2.14311 0
M  V30 27380 C 2590.29 2.72363 -3.30155 0
M  V30 27381 C 2589.62 4.12036 -3.40779 0
M  V30 27382 C 2590.92 2.33638 -4.6713 0
M  V30 27383 H 2592.61 1.08483 -2.79055 0
M  V30 27384 H 2590.16 0.52042 -1.34267 0
M  V30 27385 H 2592.11 3.48503 -2.36904 0
M  V30 27386 H 2590.83 3.03299 -1.2115 0
M  V30 27387 H 2589.49 1.99607 -3.07494 0
M  V30 27388 H 2589.14 4.3923 -2.45125 0
M  V30 27389 H 2588.84 4.12315 -4.18653 0
M  V30 27390 H 2590.36 4.8902 -3.65638 0
M  V30 27391 H 2591.78 2.98567 -4.89419 0
M  V30 27392 H 2590.17 2.4512 -5.47756 0
M  V30 27393 H 2591.24 1.28764 -4.67491 0
M  V30 27394 N 2592.59 1.47346 0.559187 0
M  V30 27395 C 2593.84 1.5313 1.31278 0
M  V30 27396 C 2594.15 0.197378 1.94602 0
M  V30 27397 O 2595.36 0.133201 2.71173 0
M  V30 27398 C 2593.81 2.69929 2.38046 0
M  V30 27399 C 2593.42 4.09843 1.80922 0
M  V30 27400 C 2595.16 2.85004 3.14599 0
M  V30 27401 C 2593.07 5.17945 2.85459 0
M  V30 27402 H 2592 0.569975 0.493604 0
M  V30 27403 H 2594.65 1.73616 0.594125 0
M  V30 27404 H 2593.03 2.4282 3.12817 0
M  V30 27405 H 2594.21 4.46847 1.12537 0
M  V30 27406 H 2592.52 3.99636 1.1696 0
M  V30 27407 H 2595.12 3.62936 3.92659 0
M  V30 27408 H 2595.46 1.93375 3.68662 0
M  V30 27409 H 2596 3.11875 2.46939 0
M  V30 27410 H 2592.73 6.11445 2.36254 0
M  V30 27411 H 2592.25 4.85461 3.52261 0
M  V30 27412 H 2593.93 5.44809 3.48987 0
M  V30 27413 N 2594.07 -0.805758 1.35445 0
M  V30 27414 C 2595.31 -1.55799 1.281 0
M  V30 27415 C 2595.63 -1.95081 -0.142393 0
M  V30 27416 O 2596.83 -2.69386 -0.338122 0
M  V30 27417 C 2595.29 -2.8117 2.24658 0
M  V30 27418 C 2594.9 -2.49123 3.72346 0
M  V30 27419 C 2596.64 -3.59177 2.26257 0
M  V30 27420 C 2594.55 -3.70791 4.60726 0
M  V30 27421 H 2593.48 -0.5848 0.475947 0
M  V30 27422 H 2596.13 -0.885632 1.60713 0
M  V30 27423 H 2594.51 -3.50121 1.85017 0
M  V30 27424 H 2595.69 -1.88173 4.20627 0
M  V30 27425 H 2594 -1.8436 3.73364 0
M  V30 27426 H 2596.6 -4.49547 2.89503 0
M  V30 27427 H 2596.94 -3.96566 1.26654 0
M  V30 27428 H 2597.47 -2.97189 2.64431 0
M  V30 27429 H 2594.21 -3.3851 5.6133 0
M  V30 27430 H 2593.73 -4.30963 4.1717 0
M  V30 27431 H 2595.41 -4.3801 4.7619 0
M  V30 27432 N 2595.54 -1.19456 -1.02801 0
M  V30 27433 C 2596.48 -0.876433 -2.10699 0
M  V30 27434 C 2597.45 0.166869 -1.61741 0
M  V30 27435 O 2598.64 0.0429864 -1.88451 0
M  V30 27436 C 2595.77 -0.311817 -3.37262 0
M  V30 27437 C 2594.81 -1.33431 -4.05091 0
M  V30 27438 S 2595.64 -2.89511 -4.50493 0
M  V30 27439 C 2596.8 -2.34595 -5.80273 0
M  V30 27440 H 2597.03 -1.7902 -2.37359 0
M  V30 27441 H 2594.57 -1.02179 -1.15753 0
M  V30 27442 H 2596.52 0.00741536 -4.10499 0
M  V30 27443 H 2595.19 0.580266 -3.08694 0
M  V30 27444 H 2594.38 -0.88839 -4.96108 0
M  V30 27445 H 2593.98 -1.60043 -3.38027 0
M  V30 27446 H 2596.27 -1.73644 -6.54869 0
M  V30 27447 H 2597.22 -3.23963 -6.29645 0
M  V30 27448 H 2597.62 -1.77141 -5.35986 0
M  V30 27449 N 2597.02 1.21924 -0.998617 0
M  V30 27450 C 2598.3 1.86381 -0.593434 0
M  V30 27451 C 2598.68 1.89553 0.929127 0
M  V30 27452 O 2598.03 1.3902 1.81344 0
M  V30 27453 C 2598.24 3.26965 -1.22045 0
M  V30 27454 C 2599.58 4.03411 -1.32456 0
M  V30 27455 O 2600.61 3.36252 -1.17528 0
M  V30 27456 O 2599.47 5.23641 -1.56404 0
M  V30 27457 H 2596.56 0.80185 -0.202399 0
M  V30 27458 H 2599.11 1.29657 -1.09486 0
M  V30 27459 H 2597.88 3.19321 -2.26163 0
M  V30 27460 H 2597.5 3.913 -0.704975 0
M  V30 27461 N 2598.5 0.772537 1.37367 0
M  V30 27462 C 2599.41 0.160122 2.34053 0
M  V30 27463 C 2600.43 -0.6787 1.60218 0
M  V30 27464 O 2601.6 -0.598436 1.92304 0
M  V30 27465 C 2598.67 -0.708122 3.39391 0
M  V30 27466 C 2597.73 0.147248 4.29047 0
M  V30 27467 C 2596.96 -0.679651 5.29355 0
M  V30 27468 O 2597.18 -1.91669 5.37233 0
M  V30 27469 O 2596.12 -0.0884386 6.01835 0
M  V30 27470 H 2599.94 0.959103 2.88158 0
M  V30 27471 H 2597.53 0.53371 1.39542 0
M  V30 27472 H 2599.41 -1.20377 4.03841 0
M  V30 27473 H 2598.09 -1.48528 2.87613 0
M  V30 27474 H 2596.99 0.68927 3.67695 0
M  V30 27475 H 2598.33 0.887508 4.84132 0
M  V30 27476 N 2599.98 -1.48664 0.523142 0
M  V30 27477 C 2600.94 -2.28017 -0.232552 0
M  V30 27478 C 2601.94 -1.34974 -0.873997 0
M  V30 27479 O 2603.13 -1.5793 -0.735104 0
M  V30 27480 C 2600.26 -3.13638 -1.3358 0
M  V30 27481 H 2601.46 -2.96288 0.46406 0
M  V30 27482 H 2599.01 -1.53793 0.278843 0
M  V30 27483 H 2599.74 -2.49983 -2.06588 0
M  V30 27484 H 2599.53 -3.82073 -0.881057 0
M  V30 27485 H 2601.02 -3.73515 -1.86753 0
M  V30 27486 N 2601.46 -0.257958 -1.55475 0
M  V30 27487 C 2602.41 0.651056 -2.18507 0
M  V30 27488 C 2603.39 1.1311 -1.14433 0
M  V30 27489 O 2604.58 1.07903 -1.40307 0
M  V30 27490 C 2601.71 1.84266 -2.89656 0
M  V30 27491 C 2600.8 1.38061 -4.00999 0
M  V30 27492 N 2601.19 0.633521 -5.01817 0
M  V30 27493 C 2599.49 1.66499 -4.13756 0
M  V30 27494 C 2600.19 0.39282 -5.80372 0
M  V30 27495 N 2599.16 0.960265 -5.35051 0
M  V30 27496 H 2602.96 0.0722366 -2.93811 0
M  V30 27497 H 2600.48 -0.0607541 -1.62286 0
M  V30 27498 H 2602.48 2.505 -3.3325 0
M  V30 27499 H 2601.14 2.4256 -2.15858 0
M  V30 27500 H 2602.15 0.282535 -5.17129 0
M  V30 27501 H 2598.82 2.25852 -3.51137 0
M  V30 27502 H 2600.21 -0.204353 -6.71589 0
M  V30 27503 N 2602.93 1.57593 0.0150108 0
M  V30 27504 C 2604.18 1.89907 0.702968 0
M  V30 27505 C 2604.51 0.856975 1.74603 0
M  V30 27506 O 2603.76 -0.140252 1.95197 0
M  V30 27507 C 2604.06 3.28975 1.3968 0
M  V30 27508 C 2603.73 4.48247 0.488378 0
M  V30 27509 C 2602.39 4.8061 0.238216 0
M  V30 27510 C 2604.74 5.21017 -0.137973 0
M  V30 27511 C 2602.07 5.83123 -0.64684 0
M  V30 27512 C 2604.42 6.24472 -1.01081 0
M  V30 27513 C 2603.09 6.55301 -1.2703 0
M  V30 27514 H 2602.36 0.694918 0.257234 0
M  V30 27515 H 2605 1.91464 -0.0372927 0
M  V30 27516 H 2603.31 3.23472 2.21073 0
M  V30 27517 H 2605.01 3.51231 1.93489 0
M  V30 27518 H 2601.6 4.22952 0.693519 0
M  V30 27519 H 2605.78 4.96282 0.042308 0
M  V30 27520 H 2601.04 6.05377 -0.856044 0
M  V30 27521 H 2605.21 6.79997 -1.50259 0
M  V30 27522 H 2602.84 7.34557 -1.95782 0
M  V30 27523 N 2604.41 -0.287527 1.54955 0
M  V30 27524 C 2605.64 -1.03964 1.78883 0
M  V30 27525 C 2606.06 -1.80461 0.554925 0
M  V30 27526 O 2605.41 -1.76193 -0.475645 0
M  V30 27527 C 2605.46 -2.00965 3.00492 0
M  V30 27528 O 2605.18 -1.27569 4.19115 0
M  V30 27529 C 2606.69 -2.88106 3.36912 0
M  V30 27530 H 2603.91 -0.30775 0.596264 0
M  V30 27531 H 2606.45 -0.322713 2.01938 0
M  V30 27532 H 2604.6 -2.6814 2.79606 0
M  V30 27533 H 2605.02 -1.92826 4.87769 0
M  V30 27534 H 2606.49 -3.51993 4.25211 0
M  V30 27535 H 2606.97 -3.57116 2.55665 0
M  V30 27536 H 2607.58 -2.26442 3.60005 0
M  V30 27537 N 2605.89 -1.47641 -0.551365 0
M  V30 27538 C 2607.17 -1.45048 -1.31227 0
M  V30 27539 C 2607.55 -0.150564 -2.10562 0
M  V30 27540 O 2606.9 0.867919 -2.11375 0
M  V30 27541 C 2607.11 -2.6996 -2.21184 0
M  V30 27542 C 2608.45 -3.17415 -2.82016 0
M  V30 27543 O 2609.48 -2.70728 -2.31483 0
M  V30 27544 O 2608.34 -3.98595 -3.73878 0
M  V30 27545 H 2605.43 -0.578301 -0.591182 0
M  V30 27546 H 2607.98 -1.59848 -0.569785 0
M  V30 27547 H 2606.75 -3.56099 -1.62201 0
M  V30 27548 H 2606.37 -2.57775 -3.02718 0
M  V30 27549 N 2607.37 0.798563 -1.3587 0
M  V30 27550 C 2608.78 1.37312 -1.26501 0
M  V30 27551 C 2609.13 1.95949 0.0991554 0
M  V30 27552 O 2608.26 1.9189 1.00036 0
M  V30 27553 C 2608.85 2.49635 -2.29059 0
M  V30 27554 C 2607.41 3.02931 -2.23405 0
M  V30 27555 C 2606.56 1.75946 -2.14333 0
M  V30 27556 H 2609.51 0.600945 -1.46882 0
M  V30 27557 H 2609.53 3.28406 -1.92172 0
M  V30 27558 H 2609.04 2.06927 -3.28333 0
M  V30 27559 H 2607.14 3.50082 -1.27568 0
M  V30 27560 H 2607.25 3.60367 -3.1571 0
M  V30 27561 H 2605.62 1.97817 -1.60439 0
M  V30 27562 H 2606.4 1.35379 -3.1548 0
M  V30 27563 N 2608.85 1.19999 1.02166 0
M  V30 27564 C 2609.81 0.946077 2.08763 0
M  V30 27565 C 2610.81 -0.0763563 1.60619 0
M  V30 27566 O 2612 0.159165 1.73471 0
M  V30 27567 C 2609.13 0.423314 3.38262 0
M  V30 27568 H 2610.32 1.89157 2.32722 0
M  V30 27569 H 2607.88 1.01466 1.18888 0
M  V30 27570 H 2608.61 -0.527881 3.19975 0
M  V30 27571 H 2608.4 1.1606 3.7453 0
M  V30 27572 H 2609.89 0.264985 4.16758 0
M  V30 27573 N 2610.32 -1.21392 1.00507 0
M  V30 27574 C 2611.55 -1.94999 0.706401 0
M  V30 27575 C 2611.97 -1.73583 -0.7246 0
M  V30 27576 O 2611.33 -1.02272 -1.497 0
M  V30 27577 C 2611.38 -3.45486 1.03306 0
M  V30 27578 O 2610.48 -4.12168 0.138347 0
M  V30 27579 H 2609.83 -0.609614 0.263186 0
M  V30 27580 H 2612.36 -1.54149 1.34533 0
M  V30 27581 H 2612.37 -3.96057 0.979942 0
M  V30 27582 H 2611.04 -3.60397 2.07573 0
M  V30 27583 H 2609.62 -3.72074 0.247994 0
M  V30 27584 N 2611.8 -0.779811 -1.36955 0
M  V30 27585 C 2613.05 -0.34444 -1.98737 0
M  V30 27586 C 2613.36 1.08725 -1.62598 0
M  V30 27587 O 2614.57 1.62441 -2.17543 0
M  V30 27588 C 2613.03 -0.564891 -3.55439 0
M  V30 27589 C 2612.63 -2.00737 -4.0051 0
M  V30 27590 C 2614.38 -0.193545 -4.24059 0
M  V30 27591 C 2612.29 -2.17499 -5.49953 0
M  V30 27592 H 2611.22 -0.125043 -0.743559 0
M  V30 27593 H 2613.87 -0.960084 -1.5638 0
M  V30 27594 H 2612.25 0.120328 -3.95817 0
M  V30 27595 H 2613.42 -2.7282 -3.71357 0
M  V30 27596 H 2611.74 -2.33606 -3.44699 0
M  V30 27597 H 2614.33 -0.297191 -5.33873 0
M  V30 27598 H 2614.68 0.857191 -4.07379 0
M  V30 27599 H 2615.21 -0.831625 -3.8901 0
M  V30 27600 H 2611.95 -3.20921 -5.71568 0
M  V30 27601 H 2611.47 -1.49909 -5.80764 0
M  V30 27602 H 2613.15 -1.97748 -6.16039 0
M  V30 27603 N 2613.28 1.48384 -0.531019 0
M  V30 27604 C 2614.24 2.28137 0.220457 0
M  V30 27605 C 2615.24 1.35435 0.866827 0
M  V30 27606 O 2616.43 1.58318 0.726718 0
M  V30 27607 C 2613.57 3.14342 1.31915 0
M  V30 27608 H 2614.76 2.96038 -0.479767 0
M  V30 27609 H 2612.31 1.53643 -0.286995 0
M  V30 27610 H 2613.05 2.51076 2.0526 0
M  V30 27611 H 2612.83 3.82535 0.860783 0
M  V30 27612 H 2614.32 3.745 1.84769 0
M  V30 27613 N 2614.76 0.2662 1.55336 0
M  V30 27614 C 2615.72 -0.611962 2.20879 0
M  V30 27615 C 2616.72 -1.08814 1.1839 0
M  V30 27616 O 2617.91 -0.989749 1.43351 0
M  V30 27617 C 2615.04 -1.84327 2.86769 0
M  V30 27618 H 2616.24 -0.0398191 2.99874 0
M  V30 27619 H 2613.79 0.0167584 1.56291 0
M  V30 27620 H 2614.52 -2.45615 2.11763 0
M  V30 27621 H 2614.31 -1.50984 3.61865 0
M  V30 27622 H 2615.8 -2.46795 3.36871 0
M  V30 27623 N 2616.24 -1.57599 -0.0066531 0
M  V30 27624 C 2617.65 -1.55425 -0.362642 0
M  V30 27625 C 2617.85 -0.995218 -1.75207 0
M  V30 27626 O 2616.91 -0.626101 -2.44614 0
M  V30 27627 C 2618.22 -2.99709 -0.243965 0
M  V30 27628 C 2619.77 -3.11366 -0.319396 0
M  V30 27629 C 2620.24 -4.57423 -0.229918 0
M  V30 27630 N 2621.74 -4.62304 -0.288024 0
M  V30 27631 C 2622.47 -5.72889 -0.242026 0
M  V30 27632 N 2621.97 -6.92644 -0.147012 0
M  V30 27633 N 2623.76 -5.61334 -0.293404 0
M  V30 27634 H 2615.91 -1.9228 0.902347 0
M  V30 27635 H 2618.17 -0.88289 0.345266 0
M  V30 27636 H 2617.88 -3.44423 0.711739 0
M  V30 27637 H 2617.75 -3.62901 -1.02871 0
M  V30 27638 H 2620.14 -2.66586 -1.26554 0
M  V30 27639 H 2620.22 -2.50963 0.495099 0
M  V30 27640 H 2619.87 -5.02875 0.712654 0
M  V30 27641 H 2619.8 -5.15763 -1.06281 0
M  V30 27642 H 2622.29 -3.76152 -0.36306 0
M  V30 27643 H 2622.6 -7.7271 -0.117627 0
M  V30 27644 H 2620.94 -6.94909 -0.112735 0
M  V30 27645 H 2624.14 -4.66669 -0.365782 0
M  V30 27646 H 2624.31 -6.47502 -0.25409 0
M  V30 27647 N 2617.72 0.279305 -1.55105 0
M  V30 27648 C 2618.96 1.00974 -1.75068 0
M  V30 27649 C 2619.28 1.87044 -0.551309 0
M  V30 27650 O 2618.55 1.91033 0.43395 0
M  V30 27651 H 2617.13 0.375805 -0.645585 0
M  V30 27652 H 2619.8 0.305055 -1.92498 0
M  V30 27653 H 2618.89 1.65033 -2.64897 0
M  V30 27654 N 2619.19 1.47931 0.543528 0
M  V30 27655 C 2620.42 1.58665 1.32321 0
M  V30 27656 C 2620.83 0.240929 1.8766 0
M  V30 27657 O 2620.17 -0.777981 1.66413 0
M  V30 27658 C 2620.24 2.56303 2.52089 0
M  V30 27659 C 2619.9 4.01687 2.17937 0
M  V30 27660 C 2620.9 4.89771 1.74413 0
M  V30 27661 C 2618.58 4.47125 2.28876 0
M  V30 27662 C 2620.58 6.21318 1.42276 0
M  V30 27663 C 2618.26 5.78697 1.9635 0
M  V30 27664 C 2619.26 6.65615 1.5312 0
M  V30 27665 O 2618.95 7.94739 1.21015 0
M  V30 27666 H 2618.68 0.538108 0.409165 0
M  V30 27667 H 2621.24 1.94376 0.663852 0
M  V30 27668 H 2619.47 2.15687 3.20961 0
M  V30 27669 H 2621.15 2.57018 3.1416 0
M  V30 27670 H 2621.92 4.55909 1.65444 0
M  V30 27671 H 2617.8 3.79669 2.61482 0
M  V30 27672 H 2621.34 6.89117 1.0846 0
M  V30 27673 H 2617.24 6.12097 2.04957 0
M  V30 27674 H 2618.01 8.07369 1.34528 0
M  V30 27675 N 2620.67 -0.791347 1.36292 0
M  V30 27676 C 2621.92 -1.54432 1.29745 0
M  V30 27677 C 2622.23 -1.95221 -0.121695 0
M  V30 27678 O 2623.44 -2.6973 -0.309531 0
M  V30 27679 C 2621.9 -2.78772 2.27628 0
M  V30 27680 C 2621.5 -2.4516 3.74968 0
M  V30 27681 C 2623.25 -3.56757 2.30054 0
M  V30 27682 C 2621.15 -3.65883 4.64633 0
M  V30 27683 H 2620.08 -0.579719 0.482123 0
M  V30 27684 H 2622.74 -0.868537 1.61644 0
M  V30 27685 H 2621.12 -3.48139 1.8872 0
M  V30 27686 H 2622.29 -1.83701 4.226 0
M  V30 27687 H 2620.61 -1.80389 3.75298 0
M  V30 27688 H 2623.2 -4.46451 2.94254 0
M  V30 27689 H 2623.55 -3.952 1.30853 0
M  V30 27690 H 2624.08 -2.94367 2.67568 0
M  V30 27691 H 2620.82 -3.32537 5.64889 0
M  V30 27692 H 2620.34 -4.26514 4.21718 0
M  V30 27693 H 2622.02 -4.32934 4.80809 0
M  V30 27694 N 2622.15 -1.2054 -1.01528 0
M  V30 27695 C 2623.37 -1.04274 -1.79281 0
M  V30 27696 C 2623.8 0.403511 -1.83721 0
M  V30 27697 O 2623.16 1.29067 -1.27324 0
M  V30 27698 C 2623.21 -1.63247 -3.21532 0
M  V30 27699 O 2622.31 -0.870979 -4.03098 0
M  V30 27700 H 2621.65 -0.367656 -0.552924 0
M  V30 27701 H 2624.18 -1.59861 -1.27694 0
M  V30 27702 H 2624.19 -1.67037 -3.7224 0
M  V30 27703 H 2622.87 -2.68502 -3.17615 0
M  V30 27704 H 2621.44 -0.907387 -3.61692 0
M  V30 27705 N 2623.63 1.20858 -1.01149 0
M  V30 27706 C 2624.86 1.94081 -0.716945 0
M  V30 27707 C 2625.27 1.74469 0.721537 0
M  V30 27708 O 2624.63 1.05541 1.48887 0
M  V30 27709 C 2624.68 3.46317 -1.03668 0
M  V30 27710 O 2624.4 3.65284 -2.41866 0
M  V30 27711 C 2625.9 4.36694 -0.762462 0
M  V30 27712 H 2623.12 0.61702 -0.263681 0
M  V30 27713 H 2625.66 1.53494 -1.35129 0
M  V30 27714 H 2623.82 3.84803 -0.447824 0
M  V30 27715 H 2624.23 4.59319 -2.53232 0
M  V30 27716 H 2625.71 5.42185 -1.0363 0
M  V30 27717 H 2626.18 4.38151 0.303437 0
M  V30 27718 H 2626.79 4.03863 -1.33323 0
M  V30 27719 N 2625.11 0.787064 1.3654 0
M  V30 27720 C 2626.52 0.468467 1.5257 0
M  V30 27721 C 2626.72 -1.01358 1.74152 0
M  V30 27722 O 2625.78 -1.79912 1.77166 0
M  V30 27723 C 2627.09 1.29686 2.71297 0
M  V30 27724 C 2628.64 1.29032 2.85166 0
M  V30 27725 C 2629.11 2.1024 4.06895 0
M  V30 27726 N 2630.6 2.07673 4.14036 0
M  V30 27727 C 2631.34 2.6728 5.07296 0
M  V30 27728 N 2630.84 3.35735 6.06015 0
M  V30 27729 N 2632.63 2.57026 4.99894 0
M  V30 27730 H 2624.78 1.74714 1.20785 0
M  V30 27731 H 2627.04 0.742543 0.589351 0
M  V30 27732 H 2626.75 2.34777 2.61864 0
M  V30 27733 H 2626.62 0.936543 3.65388 0
M  V30 27734 H 2629.01 0.247336 2.94062 0
M  V30 27735 H 2629.09 1.69038 1.91989 0
M  V30 27736 H 2628.73 3.14567 3.9876 0
M  V30 27737 H 2628.66 1.67605 4.99215 0
M  V30 27738 H 2631.16 1.57849 3.43354 0
M  V30 27739 H 2631.47 3.78553 6.73734 0
M  V30 27740 H 2629.81 3.39837 6.06247 0
M  V30 27741 H 2633 2.03149 4.2172 0
M  V30 27742 H 2633.18 3.03772 5.72387 0
M  V30 27743 N 2626.58 -1.48101 0.53888 0
M  V30 27744 C 2627.83 -2.02798 0.0080493 0
M  V30 27745 C 2628.16 -1.41426 -1.33087 0
M  V30 27746 O 2627.44 -0.563191 -1.86168 0
M  V30 27747 C 2627.72 -3.59948 -0.104526 0
M  V30 27748 C 2627.57 -4.31786 1.2602 0
M  V30 27749 C 2628.89 -4.3226 -0.826979 0
M  V30 27750 H 2626.01 -0.736987 0.0043992 0
M  V30 27751 H 2628.65 -1.76729 0.697631 0
M  V30 27752 H 2626.8 -3.8229 -0.691825 0
M  V30 27753 H 2628.48 -4.20837 1.88929 0
M  V30 27754 H 2626.72 -3.92856 1.83975 0
M  V30 27755 H 2627.39 -5.40219 1.13433 0
M  V30 27756 H 2629.87 -4.14801 -0.328505 0
M  V30 27757 H 2628.74 -5.41886 -0.874665 0
M  V30 27758 H 2629 -4.00173 -1.8792 0
M  V30 27759 N 2628.06 -0.274434 -1.55192 0
M  V30 27760 C 2629.31 0.341867 -1.99188 0
M  V30 27761 C 2629.63 1.56429 -1.16425 0
M  V30 27762 O 2628.9 1.94251 -0.253607 0
M  V30 27763 H 2627.48 0.129304 -0.735724 0
M  V30 27764 H 2630.14 -0.379611 -1.91167 0
M  V30 27765 H 2629.24 0.632199 -3.0563 0
M  V30 27766 N 2629.54 1.576 -0.00170483 0
M  V30 27767 C 2630.47 2.03978 1.02313 0
M  V30 27768 C 2631.45 0.929987 1.33379 0
M  V30 27769 O 2632.63 1.19824 1.45514 0
M  V30 27770 C 2629.76 2.43882 2.35031 0
M  V30 27771 C 2628.81 3.65611 2.19615 0
M  V30 27772 S 2629.64 5.13457 1.52059 0
M  V30 27773 C 2630.8 5.56632 2.86203 0
M  V30 27774 H 2631.03 2.90586 0.628234 0
M  V30 27775 H 2628.56 1.52976 0.209212 0
M  V30 27776 H 2630.52 2.6754 3.1134 0
M  V30 27777 H 2629.18 1.5767 2.7166 0
M  V30 27778 H 2628.37 3.91288 3.17663 0
M  V30 27779 H 2627.98 3.41964 1.51449 0
M  V30 27780 H 2630.27 5.59196 3.825 0
M  V30 27781 H 2631.21 6.56553 2.65223 0
M  V30 27782 H 2631.62 4.842 2.9019 0
M  V30 27783 N 2631.02 -0.271076 1.55251 0
M  V30 27784 C 2632.27 -1.00044 1.75601 0
M  V30 27785 C 2632.59 -1.86749 0.56122 0
M  V30 27786 O 2631.86 -1.91261 -0.423813 0
M  V30 27787 H 2630.44 -0.372376 0.647569 0
M  V30 27788 H 2633.1 -0.294843 1.92657 0
M  V30 27789 H 2632.19 -1.63626 2.65769 0
M  V30 27790 N 2632.5 -1.48217 -0.535675 0
M  V30 27791 C 2633.41 -1.64988 -1.66782 0
M  V30 27792 C 2634.42 -0.532443 -1.65653 0
M  V30 27793 O 2635.6 -0.802782 -1.84709 0
M  V30 27794 C 2632.66 -1.68037 -3.03257 0
M  V30 27795 C 2631.72 -2.91366 -3.15285 0
M  V30 27796 C 2630.96 -2.9426 -4.45249 0
M  V30 27797 O 2631.18 -2.05729 -5.32007 0
M  V30 27798 O 2630.11 -3.86368 -4.61523 0
M  V30 27799 H 2633.94 -2.60828 -1.55571 0
M  V30 27800 H 2631.53 -1.31552 -0.708127 0
M  V30 27801 H 2633.41 -1.72596 -3.84433 0
M  V30 27802 H 2632.08 -0.753684 -3.14804 0
M  V30 27803 H 2630.99 -2.92341 -2.33425 0
M  V30 27804 H 2632.32 -3.834 -3.08651 0
M  V30 27805 N 2633.97 0.784108 -1.3671 0
M  V30 27806 C 2634.94 1.87857 -1.3131 0
M  V30 27807 C 2635.94 1.59292 -0.219682 0
M  V30 27808 O 2637.13 1.67605 -0.47479 0
M  V30 27809 C 2634.26 3.24749 -1.03685 0
M  V30 27810 H 2635.45 1.9406 -2.2865 0
M  V30 27811 H 2633.01 0.982499 -1.21559 0
M  V30 27812 H 2633.74 3.24228 -0.0682506 0
M  V30 27813 H 2633.53 3.46872 -1.82817 0
M  V30 27814 H 2635.02 4.04819 -1.02526 0
M  V30 27815 N 2635.45 1.21076 1.00888 0
M  V30 27816 C 2636.42 0.968165 2.07748 0
M  V30 27817 C 2637.42 -0.0593163 1.60691 0
M  V30 27818 O 2638.61 0.177555 1.73293 0
M  V30 27819 C 2635.74 0.459168 3.37794 0
M  V30 27820 H 2636.93 1.91614 2.30703 0
M  V30 27821 H 2634.48 1.02721 1.17805 0
M  V30 27822 H 2635.22 -0.493914 3.20517 0
M  V30 27823 H 2635 1.20025 3.73278 0
M  V30 27824 H 2636.49 0.309173 4.16454 0
M  V30 27825 N 2636.93 -1.2032 1.01789 0
M  V30 27826 C 2637.89 -2.21369 0.594011 0
M  V30 27827 C 2638.89 -1.57239 -0.336525 0
M  V30 27828 O 2640.08 -1.73751 -0.125038 0
M  V30 27829 C 2637.22 -3.40643 -0.132373 0
M  V30 27830 H 2638.41 -2.60384 1.48796 0
M  V30 27831 H 2635.96 -1.33805 0.807826 0
M  V30 27832 H 2636.7 -3.07132 -1.04117 0
M  V30 27833 H 2636.48 -3.88418 0.536119 0
M  V30 27834 H 2637.97 -4.1552 -0.416241 0
M  V30 27835 N 2638.41 -0.794293 -1.3612 0
M  V30 27836 C 2639.66 -0.365499 -1.98361 0
M  V30 27837 C 2639.97 1.06994 -1.63742 0
M  V30 27838 O 2641.18 1.60125 -2.19254 0
M  V30 27839 C 2639.63 -0.602558 -3.5482 0
M  V30 27840 C 2639.24 -2.04974 -3.98359 0
M  V30 27841 C 2640.98 -0.238511 -4.23829 0
M  V30 27842 C 2638.89 -2.2332 -5.47615 0
M  V30 27843 H 2637.82 -0.132923 -0.742191 0
M  V30 27844 H 2640.47 -0.976617 -1.55353 0
M  V30 27845 H 2638.85 0.0783394 -3.95923 0
M  V30 27846 H 2640.03 -2.76743 -3.68442 0
M  V30 27847 H 2638.34 -2.37249 -3.42202 0
M  V30 27848 H 2640.94 -0.353798 -5.33528 0
M  V30 27849 H 2641.28 0.813935 -4.08266 0
M  V30 27850 H 2641.82 -0.872838 -3.88106 0
M  V30 27851 H 2638.56 -3.26965 -5.68132 0
M  V30 27852 H 2638.08 -1.5606 -5.79142 0
M  V30 27853 H 2639.75 -2.04271 -6.13907 0
M  V30 27854 N 2639.89 1.47813 -0.546727 0
M  V30 27855 C 2641.13 2.02491 -0.0187763 0
M  V30 27856 C 2641.46 1.42217 1.32682 0
M  V30 27857 O 2640.72 0.563487 1.87412 0
M  V30 27858 C 2641.02 3.57146 0.134807 0
M  V30 27859 C 2640.68 4.36288 -1.13856 0
M  V30 27860 C 2639.34 4.57632 -1.48751 0
M  V30 27861 C 2641.7 4.82009 -1.98285 0
M  V30 27862 C 2639.02 5.21943 -2.67941 0
M  V30 27863 C 2641.38 5.47634 -3.16669 0
M  V30 27864 C 2640.04 5.67213 -3.51889 0
M  V30 27865 H 2639.31 0.740968 -0.00687072 0
M  V30 27866 H 2641.96 1.77606 -0.716128 0
M  V30 27867 H 2640.26 3.80965 0.915051 0
M  V30 27868 H 2641.96 3.97092 0.558486 0
M  V30 27869 H 2638.55 4.19948 -0.856841 0
M  V30 27870 H 2642.73 4.65307 -1.72636 0
M  V30 27871 H 2637.99 5.35297 -2.9541 0
M  V30 27872 H 2642.16 5.82027 -3.82385 0
M  V30 27873 H 2639.79 6.16818 -4.44342 0
M  V30 27874 N 2641.36 0.28266 1.55044 0
M  V30 27875 C 2642.3 -0.643071 2.18952 0
M  V30 27876 C 2643.28 -1.14662 1.15289 0
M  V30 27877 O 2644.46 -1.2182 1.43848 0
M  V30 27878 C 2641.59 -1.87784 2.81878 0
M  V30 27879 C 2640.63 -1.50912 3.98908 0
M  V30 27880 S 2641.47 -0.58079 5.32341 0
M  V30 27881 C 2642.62 -1.82376 5.9874 0
M  V30 27882 H 2642.85 -0.100086 2.97131 0
M  V30 27883 H 2640.39 0.0668786 1.54255 0
M  V30 27884 H 2642.35 -2.58653 3.18762 0
M  V30 27885 H 2641.01 -2.39197 2.03577 0
M  V30 27886 H 2640.2 -2.42811 4.41655 0
M  V30 27887 H 2639.8 -0.880546 3.63486 0
M  V30 27888 H 2642.09 -2.76673 6.18432 0
M  V30 27889 H 2643.04 -1.43918 6.9332 0
M  V30 27890 H 2643.44 -1.99213 5.2818 0
M  V30 27891 N 2642.84 -1.57597 0.0100627 0
M  V30 27892 C 2644.07 -1.95288 -0.683378 0
M  V30 27893 C 2644.49 -0.885511 -1.66746 0
M  V30 27894 O 2643.84 0.134597 -1.82003 0
M  V30 27895 C 2643.89 -3.33018 -1.40647 0
M  V30 27896 O 2643.61 -4.35659 -0.46184 0
M  V30 27897 C 2645.12 -3.85228 -2.19349 0
M  V30 27898 H 2642.34 -0.643627 -0.189696 0
M  V30 27899 H 2644.88 -2.04399 0.0641718 0
M  V30 27900 H 2643.03 -3.25184 -2.10556 0
M  V30 27901 H 2643.45 -5.15394 -0.973124 0
M  V30 27902 H 2644.92 -4.83998 -2.65425 0
M  V30 27903 H 2645.4 -3.18464 -3.02452 0
M  V30 27904 H 2646.01 -3.9627 -1.54435 0
M  V30 27905 N 2644.32 0.262839 -1.55393 0
M  V30 27906 C 2645.28 1.30842 -1.88183 0
M  V30 27907 C 2646.28 1.41861 -0.757104 0
M  V30 27908 O 2647.47 1.40837 -1.02522 0
M  V30 27909 C 2644.61 2.6884 -2.09614 0
M  V30 27910 H 2645.8 1.02992 -2.8166 0
M  V30 27911 H 2643.35 0.501388 -1.4804 0
M  V30 27912 H 2644.09 3.01854 -1.18552 0
M  V30 27913 H 2643.87 2.62226 -2.91513 0
M  V30 27914 H 2645.36 3.44368 -2.36221 0
M  V30 27915 N 2645.8 1.48499 0.527807 0
M  V30 27916 C 2647.03 1.60292 1.3082 0
M  V30 27917 C 2647.44 0.264007 1.86945 0
M  V30 27918 O 2646.8 -0.747005 1.66512 0
M  V30 27919 C 2646.85 2.6512 2.45751 0
M  V30 27920 O 2646.57 3.93816 1.91939 0
M  V30 27921 C 2648.07 2.87373 3.37538 0
M  V30 27922 H 2645.29 0.540401 0.397753 0
M  V30 27923 H 2647.84 1.94342 0.636495 0
M  V30 27924 H 2645.99 2.33923 3.08802 0
M  V30 27925 H 2646.4 4.51344 2.67187 0
M  V30 27926 H 2647.88 3.64517 4.14525 0
M  V30 27927 H 2648.36 1.96277 3.92902 0
M  V30 27928 H 2648.96 3.19883 2.80277 0
M  V30 27929 N 2647.28 -0.776847 1.37123 0
M  V30 27930 C 2648.69 -1.35282 1.28669 0
M  V30 27931 C 2649.04 -1.96082 -0.0679691 0
M  V30 27932 O 2648.16 -1.93457 -0.969709 0
M  V30 27933 C 2648.76 -2.45959 2.33001 0
M  V30 27934 C 2647.32 -2.99338 2.28197 0
M  V30 27935 C 2646.47 -1.72514 2.17105 0
M  V30 27936 H 2649.42 -0.577501 1.4782 0
M  V30 27937 H 2649.44 -3.25307 1.97372 0
M  V30 27938 H 2648.95 -2.01678 3.31584 0
M  V30 27939 H 2647.05 -3.48008 1.33121 0
M  V30 27940 H 2647.16 -3.55299 3.21403 0
M  V30 27941 H 2645.53 -1.95239 1.63565 0
M  V30 27942 H 2646.31 -1.30343 3.17594 0
M  V30 27943 N 2648.76 -1.2161 -1.00244 0
M  V30 27944 C 2650.17 -1.03314 -1.55509 0
M  V30 27945 C 2650.52 0.406299 -1.91947 0
M  V30 27946 O 2649.64 1.28989 -1.73755 0
M  V30 27947 C 2650.24 -1.86918 -2.82573 0
M  V30 27948 C 2648.8 -1.72947 -3.34315 0
M  V30 27949 C 2647.94 -1.83972 -2.07484 0
M  V30 27950 H 2650.89 -1.35594 -0.824615 0
M  V30 27951 H 2650.92 -1.38094 -3.54557 0
M  V30 27952 H 2650.43 -2.91676 -2.56021 0
M  V30 27953 H 2648.53 -0.708834 -3.65795 0
M  V30 27954 H 2648.64 -2.55062 -4.05562 0
M  V30 27955 H 2647.01 -1.27308 -2.20601 0
M  V30 27956 H 2647.79 -2.90243 -1.83341 0
M  V30 27957 N 2650.23 1.19778 -1.02425 0
M  V30 27958 C 2651.48 1.88969 -0.716603 0
M  V30 27959 C 2651.8 1.79718 0.756737 0
M  V30 27960 O 2651.07 1.20459 1.54488 0
M  V30 27961 H 2649.65 0.699519 -0.262074 0
M  V30 27962 H 2652.31 1.45434 -1.2975 0
M  V30 27963 H 2651.41 2.95415 -1.0068 0
M  V30 27964 N 2651.71 0.801501 1.35697 0
M  V30 27965 C 2652.94 0.391804 2.03156 0
M  V30 27966 C 2653.35 -0.99564 1.60413 0
M  V30 27967 O 2652.71 -1.64067 0.799256 0
M  V30 27968 C 2652.76 0.459734 3.58565 0
M  V30 27969 O 2652.48 1.79247 3.99752 0
M  V30 27970 C 2653.98 0.0421984 4.4328 0
M  V30 27971 H 2651.2 0.159837 0.651685 0
M  V30 27972 H 2653.75 1.08371 1.73424 0
M  V30 27973 H 2651.9 -0.183871 3.86963 0
M  V30 27974 H 2652.32 1.75171 4.94384 0
M  V30 27975 H 2653.79 0.140851 5.5182 0
M  V30 27976 H 2654.27 -1.01188 4.27385 0
M  V30 27977 H 2654.87 0.658761 4.20167 0
M  V30 27978 N 2653.19 -1.47521 0.554558 0
M  V30 27979 C 2654.15 -2.28459 -0.184134 0
M  V30 27980 C 2655.15 -1.36797 -0.84517 0
M  V30 27981 O 2656.34 -1.59454 -0.701439 0
M  V30 27982 C 2653.47 -3.16401 -1.26898 0
M  V30 27983 H 2654.67 -2.95237 0.526803 0
M  V30 27984 H 2652.22 -1.53167 0.311402 0
M  V30 27985 H 2652.96 -2.54309 -2.01239 0
M  V30 27986 H 2652.74 -3.83856 -0.799816 0
M  V30 27987 H 2654.23 -3.77392 -1.78788 0
M  V30 27988 N 2654.67 -0.290879 -1.54892 0
M  V30 27989 C 2655.94 0.373955 -1.91992 0
M  V30 27990 C 2656.32 1.7249 -1.21697 0
M  V30 27991 O 2655.67 2.25816 -0.34921 0
M  V30 27992 C 2655.88 0.498642 -3.45419 0
M  V30 27993 C 2657.23 0.774225 -4.17482 0
M  V30 27994 O 2658.25 0.582846 -3.51399 0
M  V30 27995 O 2657.11 1.1412 -5.34452 0
M  V30 27996 H 2654.21 0.207301 -0.800597 0
M  V30 27997 H 2656.75 -0.338193 -1.66296 0
M  V30 27998 H 2655.53 -0.45146 -3.88687 0
M  V30 27999 H 2655.15 1.25965 -3.77119 0
M  V30 28000 N 2656.15 1.57589 -0.0184203 0
M  V30 28001 C 2657.11 2.08496 0.951949 0
M  V30 28002 C 2658.11 0.997896 1.2609 0
M  V30 28003 O 2659.3 1.25989 1.20302 0
M  V30 28004 C 2656.43 2.54186 2.27161 0
M  V30 28005 H 2657.62 2.9551 0.511255 0
M  V30 28006 H 2655.18 1.54607 0.229416 0
M  V30 28007 H 2655.91 1.7047 2.75881 0
M  V30 28008 H 2655.7 3.33594 2.06052 0
M  V30 28009 H 2657.19 2.93833 2.96735 0
M  V30 28010 N 2657.62 -0.254594 1.5553 0
M  V30 28011 C 2658.87 -0.983705 1.77001 0
M  V30 28012 C 2659.2 -1.85608 0.581363 0
M  V30 28013 O 2658.45 -1.90791 -0.435587 0
M  V30 28014 C 2658.75 -1.88103 3.03895 0
M  V30 28015 C 2658.42 -1.16465 4.35599 0
M  V30 28016 C 2657.08 -0.966631 4.71391 0
M  V30 28017 C 2659.43 -0.656296 5.17051 0
M  V30 28018 C 2656.76 -0.247839 5.86176 0
M  V30 28019 C 2659.11 0.0489919 6.32581 0
M  V30 28020 C 2657.78 0.258556 6.66999 0
M  V30 28021 H 2657.05 -0.359963 0.647694 0
M  V30 28022 H 2659.69 -0.25443 1.89802 0
M  V30 28023 H 2658 -2.67712 2.86073 0
M  V30 28024 H 2659.7 -2.44672 3.17705 0
M  V30 28025 H 2656.29 -1.32891 4.07477 0
M  V30 28026 H 2660.47 -0.796847 4.89861 0
M  V30 28027 H 2655.73 -0.0749276 6.11354 0
M  V30 28028 H 2659.9 0.450567 6.94941 0
M  V30 28029 H 2657.53 0.817491 7.55792 0
M  V30 28030 N 2659.1 -1.48777 -0.519925 0
M  V30 28031 C 2660.51 -1.50727 -1.10174 0
M  V30 28032 C 2660.86 -0.282712 -1.94152 0
M  V30 28033 O 2659.99 0.609261 -2.07646 0
M  V30 28034 C 2660.58 -2.7312 -2.00477 0
M  V30 28035 C 2659.14 -2.77909 -2.53857 0
M  V30 28036 C 2658.29 -2.44383 -1.31042 0
M  V30 28037 H 2661.24 -1.55747 -0.304703 0
M  V30 28038 H 2661.26 -2.52208 -2.84906 0
M  V30 28039 H 2660.77 -3.62228 -1.39329 0
M  V30 28040 H 2658.87 -1.93034 -3.18698 0
M  V30 28041 H 2658.99 -3.79599 -2.92304 0
M  V30 28042 H 2657.35 -1.95754 -1.62949 0
M  V30 28043 H 2658.13 -3.35744 -0.716311 0
M  V30 28044 N 2660.58 0.769564 -1.37534 0
M  V30 28045 C 2661.51 1.89212 -1.29351 0
M  V30 28046 C 2662.52 1.61455 -0.208871 0
M  V30 28047 O 2663.71 1.72332 -0.465188 0
M  V30 28048 C 2660.81 3.24491 -0.977706 0
M  V30 28049 C 2659.99 3.79876 -2.16824 0
M  V30 28050 C 2659.05 4.93635 -1.82238 0
M  V30 28051 O 2658.07 5.09106 -2.54557 0
M  V30 28052 N 2659.27 5.754 -0.767798 0
M  V30 28053 H 2662.04 1.96747 -2.26077 0
M  V30 28054 H 2659.6 0.948772 -1.31187 0
M  V30 28055 H 2661.59 3.98114 -0.727135 0
M  V30 28056 H 2660.16 3.12443 -0.0989326 0
M  V30 28057 H 2659.38 2.98005 -2.58043 0
M  V30 28058 H 2660.67 4.13612 -2.96315 0
M  V30 28059 H 2660.07 5.65451 -0.167726 0
M  V30 28060 H 2658.62 6.4924 -0.577087 0
M  V30 28061 N 2662.06 1.22139 0.995977 0
M  V30 28062 C 2663.28 1.07113 1.77599 0
M  V30 28063 C 2663.71 -0.374232 1.8434 0
M  V30 28064 O 2663.07 -1.27026 1.29361 0
M  V30 28065 C 2663.11 1.68341 3.18894 0
M  V30 28066 O 2662.22 0.934998 4.01661 0
M  V30 28067 H 2661.56 0.376406 0.547005 0
M  V30 28068 H 2664.09 1.61872 1.25134 0
M  V30 28069 H 2664.1 1.72937 3.69536 0
M  V30 28070 H 2662.77 2.73521 3.13303 0
M  V30 28071 H 2661.35 0.964814 3.60202 0
M  V30 28072 N 2663.54 -1.19233 1.03059 0
M  V30 28073 C 2664.48 -2.24556 0.606431 0
M  V30 28074 C 2665.48 -1.65491 -0.361797 0
M  V30 28075 O 2666.68 -1.78522 -0.230189 0
M  V30 28076 H 2663.06 -0.730666 0.177851 0
M  V30 28077 H 2665.03 -2.57648 1.50533 0
M  V30 28078 C 2663.78 -3.47691 -0.0251516 0
M  V30 28079 H 2663.1 -3.93429 0.710907 0
M  V30 28080 H 2664.54 -4.23042 -0.284856 0
M  V30 28081 C 2663 -3.11955 -1.27223 0
M  V30 28082 O 2663.53 -3.24766 -2.36411 0
M  V30 28083 N 2661.74 -2.66372 -1.16165 0
M  V30 28084 H 2661.28 -2.56148 -0.273144 0
M  V30 28085 H 2661.24 -2.42833 -1.99699 0
M  V30 28086 N 2665.01 -0.808686 -1.3527 0
M  V30 28087 C 2665.98 -0.226133 -2.28082 0
M  V30 28088 C 2666.98 0.587735 -1.49674 0
M  V30 28089 O 2668.17 0.405913 -1.69405 0
M  V30 28090 C 2665.3 0.684537 -3.33956 0
M  V30 28091 H 2666.49 -1.04474 -2.81114 0
M  V30 28092 H 2664.05 -0.579491 -1.45161 0
M  V30 28093 H 2664.78 1.52675 -2.86113 0
M  V30 28094 H 2664.57 0.10263 -3.91966 0
M  V30 28095 H 2666.06 1.08639 -4.03221 0
M  V30 28096 N 2666.49 1.47225 -0.562374 0
M  V30 28097 C 2667.9 1.86244 -0.130358 0
M  V30 28098 C 2668.25 1.4684 1.30125 0
M  V30 28099 O 2667.38 0.87384 1.97972 0
M  V30 28100 C 2667.97 3.3802 -0.229797 0
M  V30 28101 C 2666.53 3.76112 0.147214 0
M  V30 28102 C 2665.68 2.71273 -0.575018 0
M  V30 28103 H 2668.63 1.38669 -0.771798 0
M  V30 28104 H 2668.65 3.765 0.55025 0
M  V30 28105 H 2668.16 3.66668 -1.27184 0
M  V30 28106 H 2666.27 3.5308 1.19017 0
M  V30 28107 H 2666.38 4.78618 -0.214943 0
M  V30 28108 H 2664.74 2.54694 -0.0175204 0
M  V30 28109 H 2665.53 3.02763 -1.61832 0
M  V30 28110 N 2667.97 0.299089 1.54736 0
M  V30 28111 C 2669.22 -0.311514 1.9928 0
M  V30 28112 C 2669.53 -1.55152 1.1911 0
M  V30 28113 O 2670.74 -2.23659 1.53912 0
M  V30 28114 C 2669.19 -0.60557 3.54769 0
M  V30 28115 C 2668.8 0.615992 4.43745 0
M  V30 28116 C 2670.55 -1.17747 4.07843 0
M  V30 28117 C 2668.45 0.295194 5.90663 0
M  V30 28118 H 2667.38 -0.120174 0.744362 0
M  V30 28119 H 2670.03 0.407495 1.78918 0
M  V30 28120 H 2668.42 -1.38412 3.71023 0
M  V30 28121 H 2669.59 1.39225 4.39264 0
M  V30 28122 H 2667.91 1.1064 4.01432 0
M  V30 28123 H 2670.5 -1.4317 5.15176 0
M  V30 28124 H 2670.85 -2.11912 3.58328 0
M  V30 28125 H 2671.38 -0.46067 3.95124 0
M  V30 28126 H 2668.12 1.20535 6.44323 0
M  V30 28127 H 2667.64 -0.443834 5.98156 0
M  V30 28128 H 2669.32 -0.103935 6.46917 0
M  V30 28129 N 2669.45 -1.57577 0.0267774 0
M  V30 28130 C 2670.38 -2.06976 -0.984558 0
M  V30 28131 C 2671.39 -0.992728 -1.2903 0
M  V30 28132 O 2672.58 -1.26897 -1.25536 0
M  V30 28133 C 2669.68 -2.47736 -2.31257 0
M  V30 28134 C 2668.86 -3.78491 -2.19234 0
M  V30 28135 C 2667.91 -4.05827 -3.34949 0
M  V30 28136 O 2666.94 -4.76112 -3.11939 0
M  V30 28137 N 2668.14 -3.55817 -4.58666 0
M  V30 28138 H 2670.91 -2.94363 -0.563092 0
M  V30 28139 H 2668.47 -1.61107 -0.160033 0
M  V30 28140 H 2670.46 -2.63118 -3.07492 0
M  V30 28141 H 2669.03 -1.65728 -2.65053 0
M  V30 28142 H 2668.25 -3.72929 -1.27741 0
M  V30 28143 H 2669.54 -4.64162 -2.08401 0
M  V30 28144 H 2668.94 -2.98951 -4.80255 0
M  V30 28145 H 2667.49 -3.76481 -5.32076 0
M  V30 28146 N 2670.93 0.246342 -1.55663 0
M  V30 28147 C 2672.2 0.997169 -1.68273 0
M  V30 28148 C 2672.58 2.03348 -0.566821 0
M  V30 28149 O 2671.93 2.24424 0.429648 0
M  V30 28150 C 2672.14 1.63001 -3.08597 0
M  V30 28151 C 2673.49 2.13165 -3.67214 0
M  V30 28152 O 2674.51 1.7294 -3.114 0
M  V30 28153 O 2673.37 2.87023 -4.65059 0
M  V30 28154 H 2670.47 0.464193 -0.684437 0
M  V30 28155 H 2673.01 0.240085 -1.67993 0
M  V30 28156 H 2671.78 0.88046 -3.81266 0
M  V30 28157 H 2671.41 2.45328 -3.1289 0
M  V30 28158 N 2672.4 1.4905 0.512027 0
M  V30 28159 C 2673.31 1.6762 1.64136 0
M  V30 28160 C 2674.33 0.55873 1.64785 0
M  V30 28161 O 2675.51 0.832066 1.83408 0
M  V30 28162 C 2672.57 1.7284 3.00545 0
M  V30 28163 C 2671.63 2.96345 3.10609 0
M  V30 28164 C 2670.87 3.01306 4.40512 0
M  V30 28165 O 2671.09 2.14166 5.28667 0
M  V30 28166 O 2670.02 3.93661 4.55318 0
M  V30 28167 H 2673.85 2.6327 1.51402 0
M  V30 28168 H 2671.43 1.32662 0.687108 0
M  V30 28169 H 2673.32 1.7869 3.81638 0
M  V30 28170 H 2671.99 0.803671 3.13565 0
M  V30 28171 H 2670.9 2.96018 2.28745 0
M  V30 28172 H 2672.23 3.88261 3.02513 0
M  V30 28173 N 2673.88 -0.762259 1.3794 0
M  V30 28174 C 2674.79 -1.90669 1.36684 0
M  V30 28175 C 2675.81 -1.71969 0.265108 0
M  V30 28176 O 2676.98 -1.95041 0.502089 0
M  V30 28177 C 2674.05 -3.25923 1.18217 0
M  V30 28178 C 2673.11 -3.5721 2.38116 0
M  V30 28179 C 2672.34 -4.86011 2.20521 0
M  V30 28180 O 2672.57 -5.57755 1.19439 0
M  V30 28181 O 2671.5 -5.16577 3.0892 0
M  V30 28182 H 2675.33 -1.94681 2.33095 0
M  V30 28183 H 2672.91 -0.906335 1.18768 0
M  V30 28184 H 2674.79 -4.06805 1.09944 0
M  V30 28185 H 2673.47 -3.22742 0.248864 0
M  V30 28186 H 2672.38 -2.76524 2.51963 0
M  V30 28187 H 2673.71 -3.65143 3.30047 0
M  V30 28188 N 2675.36 -1.22666 -0.989486 0
M  V30 28189 C 2676.78 -0.987353 -1.25393 0
M  V30 28190 C 2676.98 0.317021 -1.98991 0
M  V30 28191 O 2676.03 1.03878 -2.30143 0
M  V30 28192 C 2677.35 -2.1883 -2.06238 0
M  V30 28193 C 2678.89 -2.23223 -2.1941 0
M  V30 28194 C 2679.37 -3.42879 -3.03642 0
M  V30 28195 N 2680.86 -3.43062 -3.11228 0
M  V30 28196 C 2681.59 -4.32299 -3.76702 0
M  V30 28197 N 2681.09 -5.3176 -4.44076 0
M  V30 28198 N 2682.88 -4.20066 -3.73498 0
M  V30 28199 H 2675.03 -2.06523 -0.496176 0
M  V30 28200 H 2677.3 -0.905158 -0.281768 0
M  V30 28201 H 2677 -3.1344 -1.59526 0
M  V30 28202 H 2676.88 -2.19171 -3.06992 0
M  V30 28203 H 2679.26 -1.29158 -2.65334 0
M  V30 28204 H 2679.35 -2.26919 -1.18074 0
M  V30 28205 H 2678.99 -4.37245 -2.58416 0
M  V30 28206 H 2678.92 -3.36423 -4.05126 0
M  V30 28207 H 2681.41 -2.71092 -2.63282 0
M  V30 28208 H 2681.72 -5.96126 -4.91787 0
M  V30 28209 H 2680.07 -5.35669 -4.42813 0
M  V30 28210 H 2683.26 -3.41614 -3.20027 0
M  V30 28211 H 2683.43 -4.89817 -4.24244 0
M  V30 28212 N 2676.84 1.18685 -1.0369 0
M  V30 28213 C 2678.12 1.84398 -0.652429 0
M  V30 28214 C 2678.5 1.92413 0.868352 0
M  V30 28215 O 2677.84 1.44719 1.7683 0
M  V30 28216 C 2678.05 3.22917 -1.32385 0
M  V30 28217 C 2679.4 3.98993 -1.45223 0
M  V30 28218 O 2680.43 3.32343 -1.28166 0
M  V30 28219 O 2679.29 5.184 -1.72984 0
M  V30 28220 H 2676.38 0.795005 -0.227806 0
M  V30 28221 H 2678.93 1.26108 -1.13555 0
M  V30 28222 H 2677.7 3.11964 -2.36208 0
M  V30 28223 H 2677.32 3.88859 -0.829107 0
M  V30 28224 N 2678.32 0.815849 1.34839 0
M  V30 28225 C 2679.57 0.397011 1.97754 0
M  V30 28226 C 2679.88 -1.04376 1.65424 0
M  V30 28227 O 2681.09 -1.56616 2.21774 0
M  V30 28228 C 2679.54 0.658931 3.53816 0
M  V30 28229 C 2679.15 2.11285 3.95047 0
M  V30 28230 C 2680.89 0.305909 4.23396 0
M  V30 28231 C 2678.8 2.32004 5.43993 0
M  V30 28232 H 2677.73 0.144713 0.739982 0
M  V30 28233 H 2680.38 1.00121 1.53779 0
M  V30 28234 H 2678.76 -0.0153416 3.95997 0
M  V30 28235 H 2679.94 2.8257 3.63993 0
M  V30 28236 H 2678.25 2.42663 3.38384 0
M  V30 28237 H 2680.85 0.438633 5.32898 0
M  V30 28238 H 2681.19 -0.74888 4.09509 0
M  V30 28239 H 2681.73 0.934471 3.86668 0
M  V30 28240 H 2678.46 3.35962 5.62859 0
M  V30 28241 H 2677.98 1.65254 5.76586 0
M  V30 28242 H 2679.66 2.14012 6.1058 0
M  V30 28243 N 2679.8 -1.46924 0.570174 0
M  V30 28244 C 2681.21 -1.86173 0.140233 0
M  V30 28245 C 2681.56 -1.47528 -1.29344 0
M  V30 28246 O 2680.68 -0.884327 -1.97506 0
M  V30 28247 C 2681.28 -3.37893 0.24772 0
M  V30 28248 C 2679.84 -3.76185 -0.127266 0
M  V30 28249 C 2678.98 -2.70964 0.589397 0
M  V30 28250 H 2681.93 -1.38257 0.779141 0
M  V30 28251 H 2681.96 -3.76787 -0.530275 0
M  V30 28252 H 2681.47 -3.65989 1.29127 0
M  V30 28253 H 2679.57 -3.53706 -1.17143 0
M  V30 28254 H 2679.68 -4.78497 0.240322 0
M  V30 28255 H 2678.05 -2.54681 0.0310272 0
M  V30 28256 H 2678.83 -3.019 1.63435 0
M  V30 28257 N 2681.27 -0.307291 -1.54575 0
M  V30 28258 C 2682.18 0.57532 -2.27436 0
M  V30 28259 C 2683.2 1.14309 -1.31185 0
M  V30 28260 O 2684.38 1.16653 -1.64177 0
M  V30 28261 C 2681.44 1.72798 -3.00569 0
M  V30 28262 C 2680.5 1.19366 -4.12371 0
M  V30 28263 C 2679.73 2.29139 -4.82007 0
M  V30 28264 O 2679.96 3.49164 -4.51044 0
M  V30 28265 O 2678.89 1.95475 -5.69274 0
M  V30 28266 H 2682.72 -0.0159092 -3.03696 0
M  V30 28267 H 2680.3 -0.0735326 -1.49219 0
M  V30 28268 H 2682.18 2.3994 -3.4642 0
M  V30 28269 H 2680.86 2.3057 -2.27199 0
M  V30 28270 H 2679.77 0.487786 -3.70906 0
M  V30 28271 H 2681.1 0.66129 -4.87737 0
M  V30 28272 N 2682.75 1.57561 -0.0351337 0
M  V30 28273 C 2684.17 1.56332 0.321306 0
M  V30 28274 C 2684.37 1.04132 1.72507 0
M  V30 28275 O 2683.42 0.690736 2.42868 0
M  V30 28276 C 2684.74 3.0025 0.164416 0
M  V30 28277 C 2686.28 3.12103 0.236731 0
M  V30 28278 C 2686.76 4.57871 0.10856 0
M  V30 28279 N 2688.25 4.62905 0.165351 0
M  V30 28280 C 2688.99 5.73329 0.0900498 0
M  V30 28281 N 2688.48 6.9279 -0.0366823 0
M  V30 28282 N 2690.27 5.61914 0.144473 0
M  V30 28283 H 2682.43 1.8982 -0.95301 0
M  V30 28284 H 2684.69 0.873426 -0.368553 0
M  V30 28285 H 2684.39 3.42415 -0.802806 0
M  V30 28286 H 2684.27 3.65501 0.93213 0
M  V30 28287 H 2686.66 2.69848 1.19442 0
M  V30 28288 H 2686.74 2.49562 -0.561463 0
M  V30 28289 H 2686.38 5.00809 -0.845732 0
M  V30 28290 H 2686.31 5.184 0.925694 0
M  V30 28291 H 2688.8 3.76982 0.263203 0
M  V30 28292 H 2689.11 7.72751 -0.0872845 0
M  V30 28293 H 2687.46 6.94963 -0.0715477 0
M  V30 28294 H 2690.65 4.67474 0.241924 0
M  V30 28295 H 2690.82 6.47948 0.0823274 0
M  V30 28296 N 2684.23 -0.238084 1.55791 0
M  V30 28297 C 2685.45 -0.9864 1.82442 0
M  V30 28298 C 2685.88 -1.77819 0.613345 0
M  V30 28299 O 2685.24 -1.75936 -0.437736 0
M  V30 28300 C 2685.29 -1.89295 3.0692 0
M  V30 28301 O 2684.39 -2.98596 2.84454 0
M  V30 28302 H 2683.73 -0.280207 0.60198 0
M  V30 28303 H 2686.26 -0.256402 2.02987 0
M  V30 28304 H 2686.27 -2.30593 3.36587 0
M  V30 28305 H 2684.95 -1.31084 3.94702 0
M  V30 28306 H 2683.52 -2.61363 2.65977 0
M  V30 28307 N 2685.71 -1.4932 -0.504115 0
M  V30 28308 C 2686.95 -1.59859 -1.25765 0
M  V30 28309 C 2687.31 -0.280295 -1.90347 0
M  V30 28310 O 2686.6 0.719209 -1.77589 0
M  V30 28311 C 2686.8 -2.69262 -2.35017 0
M  V30 28312 C 2686.62 -4.11602 -1.81147 0
M  V30 28313 C 2685.39 -4.78428 -1.62588 0
M  V30 28314 C 2687.59 -4.96936 -1.32511 0
M  V30 28315 N 2685.57 -6.05093 -1.03614 0
M  V30 28316 C 2686.95 -6.14055 -0.856526 0
M  V30 28317 C 2689 -4.8296 -1.21055 0
M  V30 28318 C 2687.7 -7.18736 -0.284715 0
M  V30 28319 C 2689.73 -5.87787 -0.652712 0
M  V30 28320 C 2689.09 -7.04132 -0.194337 0
M  V30 28321 H 2685.19 -0.639351 -0.450282 0
M  V30 28322 H 2687.77 -1.86312 -0.565311 0
M  V30 28323 H 2685.95 -2.44587 -3.01715 0
M  V30 28324 H 2687.68 -2.6934 -3.02056 0
M  V30 28325 H 2684.43 -4.35176 -1.86865 0
M  V30 28326 H 2684.86 -6.72713 -0.760642 0
M  V30 28327 H 2689.5 -3.93327 -1.55093 0
M  V30 28328 H 2687.22 -8.08071 0.06794 0
M  V30 28329 H 2690.8 -5.79032 -0.566892 0
M  V30 28330 H 2689.68 -7.83861 0.23058 0
M  V30 28331 N 2687.19 0.754933 -1.38342 0
M  V30 28332 C 2688.13 1.89002 -1.35576 0
M  V30 28333 C 2689.13 1.67665 -0.241853 0
M  V30 28334 O 2690.33 1.75249 -0.410815 0
M  V30 28335 H 2686.71 0.621813 -0.422909 0
M  V30 28336 H 2688.68 1.88451 -2.31363 0
M  V30 28337 C 2687.43 3.26469 -1.19637 0
M  V30 28338 H 2686.75 3.43474 -2.04611 0
M  V30 28339 H 2688.19 4.06142 -1.21756 0
M  V30 28340 C 2686.65 3.36761 0.0968113 0
M  V30 28341 O 2687.18 3.87067 1.07432 0
M  V30 28342 N 2685.39 2.90196 0.153191 0
M  V30 28343 H 2684.93 2.49447 -0.642952 0
M  V30 28344 H 2684.89 2.97462 1.01802 0
M  V30 28345 N 2688.66 1.23189 0.982967 0
M  V30 28346 C 2689.89 1.08991 1.76453 0
M  V30 28347 C 2690.31 -0.354659 1.84726 0
M  V30 28348 O 2689.67 -1.25646 1.30701 0
M  V30 28349 C 2689.72 1.71714 3.17091 0
M  V30 28350 O 2688.82 0.977547 4.00647 0
M  V30 28351 H 2688.16 0.382187 0.542982 0
M  V30 28352 H 2690.69 1.6319 1.2341 0
M  V30 28353 H 2690.7 1.76847 3.67681 0
M  V30 28354 H 2689.38 2.76829 3.10385 0
M  V30 28355 H 2687.96 1.00296 3.59159 0
M  V30 28356 N 2690.14 -1.18133 1.04318 0
M  V30 28357 C 2691.39 -1.87805 0.746575 0
M  V30 28358 C 2691.71 -1.80899 -0.72805 0
M  V30 28359 O 2690.98 -1.22901 -1.52552 0
M  V30 28360 H 2689.56 -0.695261 0.27317 0
M  V30 28361 H 2692.22 -1.43351 1.32047 0
M  V30 28362 H 2691.32 -2.93776 1.05367 0
M  V30 28363 N 2691.62 -0.822988 -1.34405 0
M  V30 28364 C 2692.57 -0.233206 -2.31428 0
M  V30 28365 C 2693.56 0.62609 -1.57405 0
M  V30 28366 O 2694.77 0.517423 -1.72403 0
M  V30 28367 H 2691.14 -0.0566689 -0.749862 0
M  V30 28368 H 2693.11 -1.06633 -2.78697 0
M  V30 28369 C 2691.86 0.590203 -3.42654 0
M  V30 28370 H 2691.19 -0.0616831 -3.99752 0
M  V30 28371 H 2692.63 0.968981 -4.12779 0
M  V30 28372 C 2691.09 1.76257 -2.87115 0
M  V30 28373 O 2691.62 2.86075 -2.82 0
M  V30 28374 N 2689.82 1.57934 -2.43937 0
M  V30 28375 H 2689.37 0.686035 -2.48297 0
M  V30 28376 H 2689.33 2.36528 -2.07127 0
M  V30 28377 N 2693.1 1.4662 -0.577957 0
M  V30 28378 C 2694.01 2.3405 0.160609 0
M  V30 28379 C 2695.02 1.49463 0.890885 0
M  V30 28380 O 2696.2 1.82344 0.855134 0
M  V30 28381 C 2693.27 3.26561 1.16442 0
M  V30 28382 C 2692.33 4.27046 0.439325 0
M  V30 28383 C 2691.56 5.15138 1.39531 0
M  V30 28384 O 2691.78 5.0607 2.63153 0
M  V30 28385 O 2690.72 5.95004 0.908481 0
M  V30 28386 H 2694.54 2.98546 -0.557109 0
M  V30 28387 H 2692.13 1.45517 -0.338395 0
M  V30 28388 H 2694.01 3.83648 1.74333 0
M  V30 28389 H 2692.68 2.64667 1.86369 0
M  V30 28390 H 2691.59 3.7366 -0.181313 0
M  V30 28391 H 2692.92 4.91713 -0.218885 0
M  V30 28392 N 2694.58 0.315484 1.5441 0
M  V30 28393 C 2695.82 -0.282739 2.01425 0
M  V30 28394 C 2696.18 -1.50408 1.1998 0
M  V30 28395 O 2695.47 -1.89662 0.2718 0
M  V30 28396 C 2695.66 -0.67659 3.50937 0
M  V30 28397 C 2695.49 0.505033 4.46855 0
M  V30 28398 C 2694.26 1.00161 4.95274 0
M  V30 28399 C 2696.46 1.35465 4.96139 0
M  V30 28400 N 2694.44 2.14848 5.75077 0
M  V30 28401 C 2695.81 2.3488 5.73787 0
M  V30 28402 C 2697.87 1.38335 4.78297 0
M  V30 28403 C 2696.57 3.3696 6.35492 0
M  V30 28404 C 2698.6 2.39281 5.40832 0
M  V30 28405 C 2697.96 3.37424 6.18324 0
M  V30 28406 H 2694.06 -0.0675261 0.779079 0
M  V30 28407 H 2696.64 0.448689 1.89459 0
M  V30 28408 H 2694.81 -1.37716 3.63165 0
M  V30 28409 H 2696.55 -1.25559 3.8473 0
M  V30 28410 H 2693.3 0.574206 4.70106 0
M  V30 28411 H 2693.73 2.72676 6.19659 0
M  V30 28412 H 2698.37 0.638269 4.17955 0
M  V30 28413 H 2696.09 4.12379 6.9496 0
M  V30 28414 H 2699.67 2.42293 5.28947 0
M  V30 28415 H 2698.55 4.14256 6.65854 0
M  V30 28416 N 2696.05 -1.5754 0.0434891 0
M  V30 28417 C 2697.3 -1.91562 -0.63142 0
M  V30 28418 C 2697.62 -0.92295 -1.72456 0
M  V30 28419 O 2698.82 -1.15494 -2.4571 0
M  V30 28420 C 2697.28 -3.402 -1.17441 0
M  V30 28421 C 2696.89 -4.47855 -0.113788 0
M  V30 28422 C 2698.63 -3.83267 -1.825 0
M  V30 28423 C 2696.54 -5.87601 -0.669222 0
M  V30 28424 H 2695.47 -0.714912 -0.239617 0
M  V30 28425 H 2698.12 -1.83163 0.111129 0
M  V30 28426 H 2696.5 -3.43577 -1.96903 0
M  V30 28427 H 2697.67 -4.56057 0.659428 0
M  V30 28428 H 2695.99 -4.14081 0.438894 0
M  V30 28429 H 2698.59 -4.85038 -2.25038 0
M  V30 28430 H 2698.93 -3.191 -2.6736 0
M  V30 28431 H 2699.46 -3.82374 -1.09706 0
M  V30 28432 H 2696.2 -6.55347 0.141564 0
M  V30 28433 H 2695.72 -5.82977 -1.4106 0
M  V30 28434 H 2697.4 -6.36616 -1.15451 0
M  V30 28435 N 2697.53 0.229818 -1.55915 0
M  V30 28436 C 2698.76 0.97253 -1.82618 0
M  V30 28437 C 2699.18 1.78277 -0.62152 0
M  V30 28438 O 2698.53 1.77837 0.409925 0
M  V30 28439 C 2698.58 1.89674 -3.07744 0
M  V30 28440 O 2698.3 1.11926 -4.23561 0
M  V30 28441 C 2699.81 2.75403 -3.47373 0
M  V30 28442 H 2697.03 0.285408 -0.607275 0
M  V30 28443 H 2699.57 0.247543 -2.02996 0
M  V30 28444 H 2697.72 2.57578 -2.89365 0
M  V30 28445 H 2698.14 1.7459 -4.94589 0
M  V30 28446 H 2699.61 3.35969 -4.37982 0
M  V30 28447 H 2700.09 3.47381 -2.68743 0
M  V30 28448 H 2700.7 2.12925 -3.68162 0
M  V30 28449 N 2699.01 1.49585 0.49619 0
M  V30 28450 C 2700.29 1.49818 1.25753 0
M  V30 28451 C 2700.67 0.228609 2.09858 0
M  V30 28452 O 2700.02 -0.78887 2.14451 0
M  V30 28453 C 2700.23 2.77983 2.11013 0
M  V30 28454 C 2701.57 3.27663 2.70041 0
M  V30 28455 O 2702.6 2.79133 2.21276 0
M  V30 28456 O 2701.46 4.12196 3.58827 0
M  V30 28457 H 2698.55 0.599844 0.569312 0
M  V30 28458 H 2701.1 1.61853 0.510066 0
M  V30 28459 H 2699.87 3.61874 1.48872 0
M  V30 28460 H 2699.49 2.68832 2.92942 0
M  V30 28461 N 2700.49 -0.747586 1.3874 0
M  V30 28462 C 2701.74 -1.50687 1.35277 0
M  V30 28463 C 2702.06 -1.94421 -0.0553017 0
M  V30 28464 O 2701.32 -1.66177 -1.03362 0
M  V30 28465 C 2701.62 -2.76876 2.25996 0
M  V30 28466 C 2701.28 -2.52073 3.73858 0
M  V30 28467 C 2699.95 -2.45018 4.14149 0
M  V30 28468 C 2702.3 -2.3056 4.67431 0
M  V30 28469 C 2699.63 -2.14473 5.46093 0
M  V30 28470 C 2701.98 -2.01535 5.99639 0
M  V30 28471 C 2700.64 -1.9294 6.39007 0
M  V30 28472 H 2699.91 -0.551401 0.495013 0
M  V30 28473 H 2702.56 -0.859128 1.71147 0
M  V30 28474 H 2700.86 -3.4633 1.83202 0
M  V30 28475 H 2702.56 -3.34857 2.20617 0
M  V30 28476 H 2699.15 -2.58438 3.41918 0
M  V30 28477 H 2703.33 -2.34986 4.37144 0
M  V30 28478 H 2698.59 -2.06332 5.75532 0
M  V30 28479 H 2702.76 -1.83894 6.71681 0
M  V30 28480 H 2700.39 -1.69037 7.41168 0
M  V30 28481 N 2701.97 -1.23709 -0.97642 0
M  V30 28482 C 2703.21 -1.07315 -1.72079 0
M  V30 28483 C 2703.55 0.388443 -1.90275 0
M  V30 28484 O 2702.82 1.28744 -1.45792 0
M  V30 28485 C 2703.1 -1.80368 -3.11672 0
M  V30 28486 C 2702.96 -3.34225 -3.01021 0
M  V30 28487 C 2704.28 -1.56937 -4.11168 0
M  V30 28488 H 2701.39 -0.391247 -0.624576 0
M  V30 28489 H 2704.04 -1.52265 -1.13646 0
M  V30 28490 H 2702.19 -1.42159 -3.61556 0
M  V30 28491 H 2703.86 -3.81979 -2.5863 0
M  V30 28492 H 2702.1 -3.63053 -2.37434 0
M  V30 28493 H 2702.77 -3.80533 -3.99874 0
M  V30 28494 H 2705.25 -1.90158 -3.70107 0
M  V30 28495 H 2704.12 -2.10522 -5.06924 0
M  V30 28496 H 2704.39 -0.505625 -4.39199 0
M  V30 28497 N 2703.44 1.17579 -1.04943 0
M  V30 28498 C 2704.69 1.87406 -0.756525 0
M  V30 28499 C 2705.01 1.81283 0.718446 0
M  V30 28500 O 2704.28 1.23709 1.51898 0
M  V30 28501 H 2702.86 0.693802 -0.276853 0
M  V30 28502 H 2705.53 1.42649 -1.32805 0
M  V30 28503 H 2704.62 2.93213 -1.06923 0
M  V30 28504 N 2704.92 0.830104 1.33967 0
M  V30 28505 C 2705.87 0.255048 2.29386 0
M  V30 28506 C 2706.84 -0.624216 1.53925 0
M  V30 28507 O 2708.02 -0.56434 1.82263 0
M  V30 28508 C 2705.16 -0.57115 3.40341 0
M  V30 28509 C 2704.28 0.331159 4.30729 0
M  V30 28510 C 2703.41 -0.505296 5.28791 0
M  V30 28511 C 2702.45 0.39595 6.10818 0
M  V30 28512 N 2701.59 -0.401856 7.00949 0
M  V30 28513 H 2706.43 1.07409 2.7797 0
M  V30 28514 H 2703.97 0.541157 1.36784 0
M  V30 28515 H 2705.92 -1.06555 4.03363 0
M  V30 28516 H 2704.55 -1.35524 2.92973 0
M  V30 28517 H 2703.61 0.943824 3.68505 0
M  V30 28518 H 2704.92 1.02385 4.88179 0
M  V30 28519 H 2704.07 -1.06389 5.97299 0
M  V30 28520 H 2702.81 -1.23146 4.71896 0
M  V30 28521 H 2701.82 0.966624 5.41236 0
M  V30 28522 H 2703.04 1.12034 6.69795 0
M  V30 28523 H 2700.99 -1.11157 6.46514 0
M  V30 28524 H 2700.9 0.2323 7.55643 0
M  V30 28525 H 2702.17 -0.942966 7.73775 0
M  V30 28526 N 2706.4 -1.46311 0.585725 0
M  V30 28527 C 2707.63 -2.06752 0.0781662 0
M  V30 28528 C 2708.04 -1.43399 -1.2281 0
M  V30 28529 O 2707.4 -0.540344 -1.74317 0
M  V30 28530 C 2707.45 -3.61385 -0.0911292 0
M  V30 28531 O 2707.17 -4.22369 1.16344 0
M  V30 28532 C 2708.67 -4.38762 -0.632688 0
M  V30 28533 H 2705.89 -0.668416 0.0588306 0
M  V30 28534 H 2708.44 -1.87893 0.807251 0
M  V30 28535 H 2706.59 -3.79662 -0.770447 0
M  V30 28536 H 2707.01 -5.15279 0.979173 0
M  V30 28537 H 2708.48 -5.4754 -0.700314 0
M  V30 28538 H 2708.96 -4.07015 -1.65032 0
M  V30 28539 H 2709.56 -4.25298 0.0118603 0
M  V30 28540 N 2707.88 -0.323668 -1.54241 0
M  V30 28541 C 2709.13 0.279288 -2.00868 0
M  V30 28542 C 2709.46 1.51778 -1.21149 0
M  V30 28543 O 2708.73 1.92268 -0.293813 0
M  V30 28544 C 2709.02 0.613324 -3.54838 0
M  V30 28545 C 2708.87 -0.635882 -4.45283 0
M  V30 28546 C 2710.19 1.43092 -4.16188 0
M  V30 28547 H 2707.31 0.100036 -0.730179 0
M  V30 28548 H 2709.95 -0.440267 -1.84829 0
M  V30 28549 H 2708.1 1.22635 -3.68637 0
M  V30 28550 H 2709.77 -1.27414 -4.43355 0
M  V30 28551 H 2708.01 -1.26474 -4.14954 0
M  V30 28552 H 2708.69 -0.357694 -5.5084 0
M  V30 28553 H 2711.16 0.912743 -4.05966 0
M  V30 28554 H 2710.04 1.63341 -5.24033 0
M  V30 28555 H 2710.3 2.42708 -3.6952 0
M  V30 28556 N 2709.36 1.57515 -0.0518432 0
M  V30 28557 C 2710.6 1.93822 0.616805 0
M  V30 28558 C 2710.96 0.930336 1.68412 0
M  V30 28559 O 2710.25 -0.0503894 1.91534 0
M  V30 28560 C 2710.45 3.34603 1.25601 0
M  V30 28561 C 2710.27 4.48993 0.252143 0
M  V30 28562 C 2709.04 5.05059 -0.15612 0
M  V30 28563 C 2711.24 5.11837 -0.502703 0
M  V30 28564 N 2709.22 6.02979 -1.15278 0
M  V30 28565 C 2710.6 6.0507 -1.35243 0
M  V30 28566 C 2712.65 4.9473 -0.560942 0
M  V30 28567 C 2711.35 6.83033 -2.25517 0
M  V30 28568 C 2713.38 5.73321 -1.45112 0
M  V30 28569 C 2712.74 6.66186 -2.28856 0
M  V30 28570 H 2708.84 0.756693 0.197331 0
M  V30 28571 H 2711.42 1.94303 -0.124331 0
M  V30 28572 H 2709.6 3.34898 1.96717 0
M  V30 28573 H 2711.33 3.58198 1.88352 0
M  V30 28574 H 2708.08 4.73075 0.222977 0
M  V30 28575 H 2708.51 6.56635 -1.64803 0
M  V30 28576 H 2713.15 4.22738 0.0722896 0
M  V30 28577 H 2710.87 7.54316 -2.89885 0
M  V30 28578 H 2714.45 5.62111 -1.50076 0
M  V30 28579 H 2713.33 7.25938 -2.96621 0
M  V30 28580 N 2710.84 -0.221546 1.56035 0
M  V30 28581 C 2712.08 -0.945939 1.79048 0
M  V30 28582 C 2712.41 -1.84333 0.620602 0
M  V30 28583 O 2711.67 -1.91672 -0.39502 0
M  V30 28584 C 2711.96 -1.81615 3.07816 0
M  V30 28585 C 2711.63 -1.07199 4.37972 0
M  V30 28586 C 2710.29 -0.866424 4.73336 0
M  V30 28587 C 2712.64 -0.546474 5.18327 0
M  V30 28588 C 2709.97 -0.123446 5.8657 0
M  V30 28589 C 2712.32 0.183161 6.32335 0
M  V30 28590 C 2710.99 0.399978 6.66301 0
M  V30 28591 H 2710.26 -0.346143 0.655184 0
M  V30 28592 H 2712.91 -0.214112 1.90299 0
M  V30 28593 H 2711.21 -2.61584 2.91687 0
M  V30 28594 H 2712.91 -2.37878 3.22824 0
M  V30 28595 H 2709.5 -1.24218 4.10205 0
M  V30 28596 H 2713.68 -0.69276 4.91441 0
M  V30 28597 H 2708.94 0.0547665 6.11375 0
M  V30 28598 H 2713.11 0.597872 6.93829 0
M  V30 28599 H 2710.74 0.977621 7.53888 0
M  V30 28600 N 2712.31 -1.49846 -0.48825 0
M  V30 28601 C 2713.56 -1.60212 -1.24338 0
M  V30 28602 C 2713.89 -0.293685 -1.91966 0
M  V30 28603 O 2713.17 0.703686 -1.81324 0
M  V30 28604 C 2713.45 -2.7704 -2.30045 0
M  V30 28605 C 2713.3 -4.17716 -1.66834 0
M  V30 28606 C 2714.62 -2.8947 -3.31504 0
M  V30 28607 H 2711.74 -0.583133 -0.450694 0
M  V30 28608 H 2714.38 -1.82175 -0.539641 0
M  V30 28609 H 2712.53 -2.58444 -2.90067 0
M  V30 28610 H 2714.21 -4.4786 -1.10542 0
M  V30 28611 H 2712.45 -4.2277 -0.972004 0
M  V30 28612 H 2713.12 -4.95357 -2.43567 0
M  V30 28613 H 2715.6 -3.06438 -2.81487 0
M  V30 28614 H 2714.47 -3.72869 -4.02815 0
M  V30 28615 H 2714.73 -1.99357 -3.946 0
M  V30 28616 N 2713.79 0.740218 -1.39135 0
M  V30 28617 C 2715.2 1.31823 -1.32211 0
M  V30 28618 C 2715.55 1.96194 0.0159574 0
M  V30 28619 O 2714.68 1.9596 0.918077 0
M  V30 28620 C 2715.27 2.39695 -2.3944 0
M  V30 28621 C 2713.83 2.93183 -2.36053 0
M  V30 28622 C 2712.98 1.66697 -2.21602 0
M  V30 28623 H 2715.93 0.538106 -1.49299 0
M  V30 28624 H 2715.95 3.19959 -2.05928 0
M  V30 28625 H 2715.46 1.92815 -3.36814 0
M  V30 28626 H 2713.56 3.44356 -1.42301 0
M  V30 28627 H 2713.68 3.46652 -3.3071 0
M  V30 28628 H 2712.04 1.90834 -1.68684 0
M  V30 28629 H 2712.82 1.21877 -3.20938 0
M  V30 28630 N 2715.27 1.24225 0.969846 0
M  V30 28631 C 2716.49 1.10857 1.75287 0
M  V30 28632 C 2716.92 -0.335046 1.85092 0
M  V30 28633 O 2716.28 -1.24253 1.32026 0
M  V30 28634 C 2716.33 1.75068 3.15252 0
M  V30 28635 O 2715.43 1.01999 3.99587 0
M  V30 28636 H 2714.77 0.387924 0.538898 0
M  V30 28637 H 2717.3 1.6449 1.21672 0
M  V30 28638 H 2717.31 1.80737 3.65784 0
M  V30 28639 H 2715.99 2.80105 3.07431 0
M  V30 28640 H 2714.56 1.041 3.58075 0
M  V30 28641 N 2716.75 -1.1702 1.05565 0
M  V30 28642 C 2718 -1.86709 0.763069 0
M  V30 28643 C 2718.31 -1.82149 -0.712825 0
M  V30 28644 O 2719.52 -2.47345 -1.1195 0
M  V30 28645 C 2717.97 -3.35024 1.3148 0
M  V30 28646 C 2717.58 -3.48077 2.8204 0
M  V30 28647 C 2719.32 -4.10016 1.09942 0
M  V30 28648 C 2717.23 -4.90436 3.30495 0
M  V30 28649 H 2716.16 -0.699377 0.281759 0
M  V30 28650 H 2718.81 -1.32122 1.27342 0
M  V30 28651 H 2717.19 -3.89171 0.73224 0
M  V30 28652 H 2718.37 -3.04127 3.46184 0
M  V30 28653 H 2716.68 -2.8651 3.02161 0
M  V30 28654 H 2719.28 -5.15045 1.43641 0
M  V30 28655 H 2719.62 -4.16283 0.0373804 0
M  V30 28656 H 2720.16 -3.62086 1.64738 0
M  V30 28657 H 2716.89 -4.89344 4.36145 0
M  V30 28658 H 2716.41 -5.3504 2.71095 0
M  V30 28659 H 2718.09 -5.59222 3.25392 0
M  V30 28660 N 2718.23 -0.837197 -1.33524 0
M  V30 28661 C 2719.17 -0.26721 -2.29248 0
M  V30 28662 C 2720.14 0.616044 -1.54253 0
M  V30 28663 O 2721.33 0.554667 -1.8256 0
M  V30 28664 C 2718.47 0.553092 -3.40639 0
M  V30 28665 C 2717.58 -0.353997 -4.30547 0
M  V30 28666 C 2716.72 0.477246 -5.29052 0
M  V30 28667 C 2715.75 -0.428338 -6.10599 0
M  V30 28668 N 2714.89 0.364678 -7.01152 0
M  V30 28669 H 2719.73 -1.08882 -2.77396 0
M  V30 28670 H 2717.27 -0.548404 -1.36495 0
M  V30 28671 H 2719.23 1.04415 -4.03923 0
M  V30 28672 H 2717.86 1.33968 -2.93687 0
M  V30 28673 H 2716.91 -0.963353 -3.68 0
M  V30 28674 H 2718.22 -1.04973 -4.87629 0
M  V30 28675 H 2717.37 1.0322 -5.97855 0
M  V30 28676 H 2716.11 1.20642 -4.72543 0
M  V30 28677 H 2715.12 -0.995314 -5.40716 0
M  V30 28678 H 2716.34 -1.15585 -6.69191 0
M  V30 28679 H 2714.29 1.07726 -6.47094 0
M  V30 28680 H 2714.21 -0.27237 -7.55509 0
M  V30 28681 H 2715.47 0.901918 -7.74265 0
M  V30 28682 N 2719.7 1.45999 -0.593476 0
M  V30 28683 C 2720.67 2.28867 0.123497 0
M  V30 28684 C 2721.67 1.3899 0.808604 0
M  V30 28685 O 2722.86 1.61257 0.658916 0
M  V30 28686 C 2719.99 3.19655 1.18464 0
M  V30 28687 H 2721.18 2.93736 -0.604894 0
M  V30 28688 H 2718.73 1.52287 -0.351902 0
M  V30 28689 H 2719.47 2.59555 1.94426 0
M  V30 28690 H 2719.25 3.85842 0.697762 0
M  V30 28691 H 2720.74 3.82 1.68719 0
M  V30 28692 N 2721.18 0.331843 1.54067 0
M  V30 28693 C 2722.43 -0.267704 2.00319 0
M  V30 28694 C 2722.75 -1.52001 1.22151 0
M  V30 28695 O 2722.02 -1.93176 0.325527 0
M  V30 28696 H 2720.6 -0.101909 0.740016 0
M  V30 28697 H 2723.26 0.4503 1.89627 0
M  V30 28698 H 2722.36 -0.518331 3.07766 0
M  V30 28699 N 2722.66 -1.57485 0.0601958 0
M  V30 28700 C 2723.61 -2.13248 -0.928862 0
M  V30 28701 C 2724.6 -1.06649 -1.31614 0
M  V30 28702 O 2725.81 -1.25046 -1.29474 0
M  V30 28703 H 2722.18 -0.681714 -0.317443 0
M  V30 28704 H 2724.15 -2.95234 -0.433514 0
M  V30 28705 C 2722.9 -2.69969 -2.19116 0
M  V30 28706 H 2722.23 -3.5166 -1.90197 0
M  V30 28707 H 2723.67 -3.12597 -2.8646 0
M  V30 28708 C 2722.13 -1.64173 -2.94192 0
M  V30 28709 O 2722.66 -1.05984 -3.87466 0
M  V30 28710 N 2720.86 -1.3548 -2.57086 0
M  V30 28711 H 2720.41 -1.82987 -1.8131 0
M  V30 28712 H 2720.37 -0.64925 -3.07623 0
M  V30 28713 N 2724.14 0.213268 -1.5615 0
M  V30 28714 C 2725.38 0.937817 -1.79813 0
M  V30 28715 C 2725.72 1.83655 -0.631234 0
M  V30 28716 O 2724.99 1.90965 0.369131 0
M  V30 28717 C 2725.28 1.76966 -3.13616 0
M  V30 28718 C 2725.13 0.896872 -4.40768 0
M  V30 28719 C 2726.45 2.74584 -3.43936 0
M  V30 28720 H 2723.57 0.339507 -0.654144 0
M  V30 28721 H 2726.21 0.206197 -1.88878 0
M  V30 28722 H 2724.36 2.39342 -3.06019 0
M  V30 28723 H 2726.03 0.289225 -4.60392 0
M  V30 28724 H 2724.27 0.20268 -4.33326 0
M  V30 28725 H 2724.94 1.51348 -5.30846 0
M  V30 28726 H 2727.42 2.22343 -3.51714 0
M  V30 28727 H 2726.3 3.29883 -4.38712 0
M  V30 28728 H 2726.56 3.52734 -2.66516 0
M  V30 28729 N 2725.62 1.50103 0.480296 0
M  V30 28730 C 2726.87 1.59874 1.22977 0
M  V30 28731 C 2727.18 0.300254 1.93282 0
M  V30 28732 O 2728.38 0.276757 2.70086 0
M  V30 28733 C 2726.84 2.82168 2.23403 0
M  V30 28734 C 2726.45 4.18857 1.58943 0
M  V30 28735 C 2728.19 3.0128 2.9905 0
M  V30 28736 C 2726.1 5.32349 2.57602 0
M  V30 28737 H 2725.03 0.595338 0.462697 0
M  V30 28738 H 2727.68 1.76521 0.50126 0
M  V30 28739 H 2726.06 2.5906 2.99506 0
M  V30 28740 H 2727.24 4.52184 0.88692 0
M  V30 28741 H 2725.55 4.05274 0.956119 0
M  V30 28742 H 2728.15 3.8324 3.72869 0
M  V30 28743 H 2728.49 2.12646 3.57893 0
M  V30 28744 H 2729.02 3.24526 2.30061 0
M  V30 28745 H 2725.76 6.23108 2.0351 0
M  V30 28746 H 2725.28 5.03451 3.26032 0
M  V30 28747 H 2726.96 5.62542 3.19617 0
M  V30 28748 N 2727.09 -0.732829 1.39526 0
M  V30 28749 C 2728.06 -1.82854 1.38192 0
M  V30 28750 C 2729.06 -1.58367 0.278651 0
M  V30 28751 O 2730.25 -1.65727 0.536668 0
M  V30 28752 C 2727.38 -3.20678 1.15666 0
M  V30 28753 H 2728.57 -1.8544 2.35695 0
M  V30 28754 H 2726.13 -0.936706 1.25122 0
M  V30 28755 H 2726.86 -3.23751 0.188539 0
M  V30 28756 H 2726.65 -3.39848 1.95565 0
M  V30 28757 H 2728.14 -4.00735 1.17479 0
M  V30 28758 N 2728.57 -1.24737 -0.963244 0
M  V30 28759 C 2729.52 -1.04142 -2.07984 0
M  V30 28760 C 2730.51 0.0250258 -1.69382 0
M  V30 28761 O 2731.72 -0.129894 -1.79531 0
M  V30 28762 H 2728.1 -0.31978 -0.680621 0
M  V30 28763 H 2730.07 -1.98822 -2.22514 0
M  V30 28764 C 2728.82 -0.667675 -3.41229 0
M  V30 28765 H 2728.14 -1.48007 -3.71395 0
M  V30 28766 H 2729.58 -0.56321 -4.20243 0
M  V30 28767 C 2728.04 0.625589 -3.31041 0
M  V30 28768 O 2728.57 1.67009 -3.65337 0
M  V30 28769 N 2726.77 0.607983 -2.84169 0
M  V30 28770 H 2726.32 -0.242368 -2.56457 0
M  V30 28771 H 2726.28 1.47347 -2.77734 0
M  V30 28772 N 2730.05 1.16459 -1.06184 0
M  V30 28773 C 2731.29 1.88638 -0.787081 0
M  V30 28774 C 2731.65 1.79779 0.674061 0
M  V30 28775 O 2732.86 2.46872 1.06336 0
M  V30 28776 C 2731.13 3.34201 -1.26666 0
M  V30 28777 S 2732.69 4.24245 -1.12079 0
M  V30 28778 H 2729.5 0.651139 -0.28555 0
M  V30 28779 H 2732.11 1.40585 -1.35853 0
M  V30 28780 H 2730.81 3.38188 -2.32502 0
M  V30 28781 H 2730.34 3.87303 -0.689909 0
M  V30 28782 H 2732.36 4.96174 -0.0510213 0
M  V30 28783 N 2731.53 0.844266 1.33079 0
M  V30 28784 C 2732.46 0.296533 2.31609 0
M  V30 28785 C 2733.44 -0.598679 1.59216 0
M  V30 28786 O 2734.62 -0.521101 1.87078 0
M  V30 28787 C 2731.75 -0.524702 3.43314 0
M  V30 28788 C 2730.71 0.275181 4.27114 0
M  V30 28789 C 2730.03 -0.670143 5.30484 0
M  V30 28790 C 2731.33 1.49522 5.0044 0
M  V30 28791 H 2733.03 1.11981 2.7767 0
M  V30 28792 H 2730.57 0.539923 1.33495 0
M  V30 28793 H 2732.53 -0.918226 4.11274 0
M  V30 28794 H 2731.25 -1.38124 2.95955 0
M  V30 28795 H 2729.91 0.65033 3.60786 0
M  V30 28796 H 2729.56 -1.52324 4.79381 0
M  V30 28797 H 2729.26 -0.13902 5.87436 0
M  V30 28798 H 2730.78 -1.06107 6.0131 0
M  V30 28799 H 2732.2 1.17456 5.61139 0
M  V30 28800 H 2730.59 1.96353 5.67068 0
M  V30 28801 H 2731.66 2.2621 4.28902 0
M  V30 28802 N 2733.01 -1.45682 0.60121 0
M  V30 28803 C 2734.42 -1.57396 0.264343 0
M  V30 28804 C 2734.62 -1.59356 -1.23321 0
M  V30 28805 O 2733.68 -1.52043 -2.01592 0
M  V30 28806 C 2734.99 -2.85961 0.929889 0
M  V30 28807 C 2736.54 -2.99625 0.905209 0
M  V30 28808 C 2737.01 -4.30951 1.55064 0
M  V30 28809 N 2738.51 -4.37695 1.51584 0
M  V30 28810 C 2739.24 -5.37966 1.98445 0
M  V30 28811 N 2738.74 -6.44809 2.53364 0
M  V30 28812 N 2740.53 -5.29283 1.89251 0
M  V30 28813 H 2732.68 -1.42653 1.57365 0
M  V30 28814 H 2734.94 -0.681637 0.658843 0
M  V30 28815 H 2734.65 -2.90391 1.98409 0
M  V30 28816 H 2734.52 -3.74515 0.44929 0
M  V30 28817 H 2736.91 -2.94766 -0.140429 0
M  V30 28818 H 2736.99 -2.12498 1.42401 0
M  V30 28819 H 2736.64 -4.36569 2.59558 0
M  V30 28820 H 2736.57 -5.16884 1.00691 0
M  V30 28821 H 2739.06 -3.61089 1.11459 0
M  V30 28822 H 2739.37 -7.17559 2.86931 0
M  V30 28823 H 2737.71 -6.45578 2.57399 0
M  V30 28824 H 2740.91 -4.44719 1.46091 0
M  V30 28825 H 2741.08 -6.0728 2.26086 0
M  V30 28826 N 2734.48 -0.340009 -1.53889 0
M  V30 28827 C 2735.43 0.518413 -2.24902 0
M  V30 28828 C 2736.4 1.09842 -1.24595 0
M  V30 28829 O 2737.59 1.13569 -1.53319 0
M  V30 28830 C 2734.73 1.66523 -3.02265 0
M  V30 28831 C 2733.84 1.11288 -4.17419 0
M  V30 28832 C 2732.97 2.22672 -4.82277 0
M  V30 28833 C 2732.01 1.64769 -5.89506 0
M  V30 28834 N 2731.15 2.69881 -6.48158 0
M  V30 28835 H 2735.99 -0.0937102 -2.97853 0
M  V30 28836 H 2733.53 -0.0580182 -1.46986 0
M  V30 28837 H 2735.49 2.34034 -3.45375 0
M  V30 28838 H 2734.12 2.2484 -2.31618 0
M  V30 28839 H 2733.17 0.328819 -3.78976 0
M  V30 28840 H 2734.48 0.649328 -4.94556 0
M  V30 28841 H 2733.63 2.98054 -5.2844 0
M  V30 28842 H 2732.37 2.72369 -4.04557 0
M  V30 28843 H 2731.38 0.878908 -5.42729 0
M  V30 28844 H 2732.6 1.15928 -6.69132 0
M  V30 28845 H 2730.55 3.1884 -5.73304 0
M  V30 28846 H 2730.47 2.28138 -7.20756 0
M  V30 28847 H 2731.73 3.45043 -6.98975 0
M  V30 28848 N 2735.96 1.57451 -0.0685468 0
M  V30 28849 C 2736.91 2.13738 0.91754 0
M  V30 28850 C 2737.91 1.07346 1.31047 0
M  V30 28851 O 2739.11 1.25731 1.28809 0
M  V30 28852 H 2735.49 0.683388 0.313823 0
M  V30 28853 H 2737.46 2.9546 0.417851 0
M  V30 28854 C 2736.21 2.71127 2.17682 0
M  V30 28855 H 2735.53 3.52664 1.8833 0
M  V30 28856 H 2736.97 3.14112 2.84798 0
M  V30 28857 C 2735.43 1.65731 2.93317 0
M  V30 28858 O 2735.96 1.08038 3.86899 0
M  V30 28859 N 2734.16 1.36842 2.56364 0
M  V30 28860 H 2733.71 1.83946 1.80337 0
M  V30 28861 H 2733.67 0.665555 3.07275 0
M  V30 28862 N 2737.44 -0.204984 1.56261 0
M  V30 28863 C 2738.69 -0.925064 1.79686 0
M  V30 28864 C 2739.01 -1.84201 0.639922 0
M  V30 28865 O 2738.28 -1.92886 -0.342311 0
M  V30 28866 H 2736.86 -0.344575 0.66278 0
M  V30 28867 H 2739.52 -0.212865 1.93734 0
M  V30 28868 H 2738.62 -1.52206 2.72469 0
M  V30 28869 N 2738.92 -1.50356 -0.472329 0
M  V30 28870 C 2739.87 -1.69129 -1.57048 0
M  V30 28871 C 2740.84 -0.532602 -1.57329 0
M  V30 28872 O 2742.02 -0.763025 -1.74879 0
M  V30 28873 C 2739.16 -1.79029 -2.9503 0
M  V30 28874 C 2738.27 -3.06391 -3.04547 0
M  V30 28875 C 2737.41 -3.07095 -4.33435 0
M  V30 28876 C 2736.45 -4.28915 -4.3669 0
M  V30 28877 N 2735.59 -4.27366 -5.57048 0
M  V30 28878 H 2740.43 -2.62882 -1.40346 0
M  V30 28879 H 2737.96 -1.30315 -0.68238 0
M  V30 28880 H 2739.92 -1.8275 -3.75044 0
M  V30 28881 H 2738.55 -0.887164 -3.1037 0
M  V30 28882 H 2737.6 -3.12147 -2.17413 0
M  V30 28883 H 2738.91 -3.96367 -3.02811 0
M  V30 28884 H 2738.07 -3.09538 -5.21796 0
M  V30 28885 H 2736.81 -2.14946 -4.37778 0
M  V30 28886 H 2735.81 -4.26686 -3.46727 0
M  V30 28887 H 2737.04 -5.22289 -4.3404 0
M  V30 28888 H 2734.98 -3.3807 -5.62178 0
M  V30 28889 H 2734.9 -5.11109 -5.57049 0
M  V30 28890 H 2736.17 -4.33953 -6.47537 0
M  V30 28891 N 2740.4 0.725419 -1.39912 0
M  V30 28892 C 2741.34 1.83949 -1.39396 0
M  V30 28893 C 2742.31 1.64173 -0.252278 0
M  V30 28894 O 2743.5 1.85445 -0.448852 0
M  V30 28895 C 2740.64 3.21562 -1.25267 0
M  V30 28896 C 2739.75 3.52977 -2.4906 0
M  V30 28897 C 2738.89 4.80043 -2.27447 0
M  V30 28898 C 2737.93 5.04332 -3.46866 0
M  V30 28899 N 2737.06 6.22606 -3.2451 0
M  V30 28900 H 2741.9 1.83725 -2.34626 0
M  V30 28901 H 2739.44 0.897616 -1.16539 0
M  V30 28902 H 2741.4 4.01013 -1.15084 0
M  V30 28903 H 2740.03 3.2104 -0.336626 0
M  V30 28904 H 2739.08 2.68155 -2.69809 0
M  V30 28905 H 2740.39 3.6684 -3.37979 0
M  V30 28906 H 2739.55 5.67493 -2.14561 0
M  V30 28907 H 2738.29 4.68372 -1.35937 0
M  V30 28908 H 2737.29 4.1534 -3.6024 0
M  V30 28909 H 2738.52 5.17882 -4.3929 0
M  V30 28910 H 2736.46 6.12204 -2.35674 0
M  V30 28911 H 2736.38 6.37099 -4.0699 0
M  V30 28912 H 2737.65 7.12869 -3.15337 0
M  V30 28913 N 2741.88 1.25246 0.956615 0
M  V30 28914 C 2743.12 1.10039 1.7035 0
M  V30 28915 C 2743.45 -0.358122 1.90869 0
M  V30 28916 O 2742.73 -1.26408 1.47822 0
M  V30 28917 C 2743.01 1.85304 3.08763 0
M  V30 28918 C 2742.87 3.38972 2.95666 0
M  V30 28919 C 2744.18 1.63458 4.08619 0
M  V30 28920 H 2741.3 0.401134 0.618272 0
M  V30 28921 H 2743.95 1.54053 1.1121 0
M  V30 28922 H 2742.1 1.47893 3.59249 0
M  V30 28923 H 2743.77 3.86045 2.5252 0
M  V30 28924 H 2742.01 3.66785 2.31628 0
M  V30 28925 H 2742.68 3.86846 3.93769 0
M  V30 28926 H 2745.16 1.96022 3.67035 0
M  V30 28927 H 2744.03 2.1856 5.03511 0
M  V30 28928 H 2744.29 0.575434 4.38339 0
M  V30 28929 N 2743.35 -1.15894 1.068 0
M  V30 28930 C 2744.6 -1.85889 0.782829 0
M  V30 28931 C 2744.92 -1.82895 -0.693466 0
M  V30 28932 O 2746.12 -2.48518 -1.0932 0
M  V30 28933 C 2744.58 -3.33611 1.35026 0
M  V30 28934 C 2744.19 -3.45066 2.85716 0
M  V30 28935 C 2745.93 -4.08827 1.14285 0
M  V30 28936 C 2743.84 -4.86903 3.35678 0
M  V30 28937 H 2742.77 -0.696349 0.289161 0
M  V30 28938 H 2745.42 -1.30764 1.28736 0
M  V30 28939 H 2743.8 -3.88373 0.773475 0
M  V30 28940 H 2744.97 -3.00439 3.4939 0
M  V30 28941 H 2743.29 -2.83289 3.05183 0
M  V30 28942 H 2745.89 -5.13493 1.49096 0
M  V30 28943 H 2746.23 -4.1622 0.0815307 0
M  V30 28944 H 2746.76 -3.60318 1.68569 0
M  V30 28945 H 2743.5 -4.84691 4.41311 0
M  V30 28946 H 2743.02 -5.32134 2.76755 0
M  V30 28947 H 2744.7 -5.55739 3.31305 0
M  V30 28948 N 2744.83 -0.851312 -1.32629 0
M  V30 28949 C 2745.76 -0.250797 -2.27824 0
M  V30 28950 C 2746.78 0.575571 -1.52286 0
M  V30 28951 O 2747.97 0.400607 -1.73947 0
M  V30 28952 C 2745.07 0.664512 -3.32321 0
M  V30 28953 C 2744.24 -0.125264 -4.37221 0
M  V30 28954 C 2743.3 0.715293 -5.21316 0
M  V30 28955 O 2742.32 0.150011 -5.69002 0
M  V30 28956 N 2743.53 2.03059 -5.43827 0
M  V30 28957 H 2746.29 -1.06878 -2.79995 0
M  V30 28958 H 2743.85 -0.710969 -1.45454 0
M  V30 28959 H 2745.84 1.2321 -3.85489 0
M  V30 28960 H 2744.41 1.38318 -2.80334 0
M  V30 28961 H 2743.63 -0.874267 -3.84383 0
M  V30 28962 H 2744.92 -0.667863 -5.04398 0
M  V30 28963 H 2744.32 2.51323 -5.06807 0
M  V30 28964 H 2742.88 2.54638 -6.00002 0
M  V30 28965 N 2746.31 1.45361 -0.608928 0
M  V30 28966 C 2747.24 2.33301 0.0964116 0
M  V30 28967 C 2748.22 1.46909 0.857418 0
M  V30 28968 O 2749.41 1.75678 0.827704 0
M  V30 28969 C 2746.54 3.29637 1.09348 0
M  V30 28970 C 2745.49 4.25674 0.445601 0
M  V30 28971 C 2744.82 5.11711 1.55101 0
M  V30 28972 C 2746.12 5.18437 -0.634063 0
M  V30 28973 H 2747.81 2.92526 -0.63788 0
M  V30 28974 H 2745.36 1.40663 -0.308203 0
M  V30 28975 H 2747.31 3.90028 1.59549 0
M  V30 28976 H 2746.03 2.68573 1.85839 0
M  V30 28977 H 2744.69 3.66583 -0.0355542 0
M  V30 28978 H 2744.34 4.47014 2.30623 0
M  V30 28979 H 2744.04 5.76769 1.12301 0
M  V30 28980 H 2745.56 5.74971 2.05527 0
M  V30 28981 H 2746.98 5.72893 -0.216074 0
M  V30 28982 H 2745.37 5.91979 -0.983893 0
M  V30 28983 H 2746.44 4.60785 -1.51013 0
M  V30 28984 N 2747.79 0.348166 1.53706 0
M  V30 28985 C 2749.01 -0.250847 2.05877 0
M  V30 28986 C 2749.44 -1.4307 1.22117 0
M  V30 28987 O 2748.8 -1.79757 0.236017 0
M  V30 28988 C 2748.84 -0.639354 3.54887 0
M  V30 28989 O 2747.95 -1.73881 3.73951 0
M  V30 28990 H 2747.29 -0.0406414 0.662755 0
M  V30 28991 H 2749.82 0.50372 1.98302 0
M  V30 28992 H 2749.83 -0.915225 3.97602 0
M  V30 28993 H 2748.5 0.223459 4.15299 0
M  V30 28994 H 2747.08 -1.45985 3.43137 0
M  V30 28995 N 2749.27 -1.57412 0.0768958 0
M  V30 28996 C 2750.68 -1.57129 -0.279745 0
M  V30 28997 C 2750.88 -1.08669 -1.69686 0
M  V30 28998 O 2749.94 -0.754886 -2.40952 0
M  V30 28999 C 2751.25 -3.00581 -0.0847526 0
M  V30 29000 C 2752.8 -3.12621 -0.153899 0
M  V30 29001 C 2753.27 -4.57998 0.0128751 0
M  V30 29002 N 2754.76 -4.6318 -0.0425621 0
M  V30 29003 C 2755.5 -5.73366 0.06199 0
M  V30 29004 N 2755 -6.92449 0.220351 0
M  V30 29005 N 2756.79 -5.621 0.00455952 0
M  V30 29006 H 2748.94 -1.87226 1.003 0
M  V30 29007 H 2751.2 -0.863347 0.391581 0
M  V30 29008 H 2750.91 -3.40166 0.89331 0
M  V30 29009 H 2750.78 -3.67844 -0.834896 0
M  V30 29010 H 2753.17 -2.72919 -1.12245 0
M  V30 29011 H 2753.25 -2.47986 0.627433 0
M  V30 29012 H 2752.89 -4.98391 0.978216 0
M  V30 29013 H 2752.82 -5.20672 -0.787924 0
M  V30 29014 H 2755.32 -3.77548 -0.16316 0
M  V30 29015 H 2755.63 -7.72248 0.292135 0
M  V30 29016 H 2753.97 -6.94529 0.25578 0
M  V30 29017 H 2757.16 -4.67952 -0.117897 0
M  V30 29018 H 2757.34 -6.47938 0.0894935 0
M  V30 29019 N 2750.74 0.196695 -1.56368 0
M  V30 29020 C 2751.69 1.24378 -1.94419 0
M  V30 29021 C 2752.66 1.45313 -0.804569 0
M  V30 29022 O 2753.85 1.58473 -1.06259 0
M  V30 29023 C 2750.99 2.58384 -2.28761 0
M  V30 29024 C 2750.1 2.45041 -3.55779 0
M  V30 29025 C 2749.23 3.71739 -3.79451 0
M  V30 29026 C 2748.27 3.53223 -4.999 0
M  V30 29027 N 2747.41 4.71929 -5.19834 0
M  V30 29028 H 2752.25 0.912288 -2.83692 0
M  V30 29029 H 2749.79 0.43911 -1.40393 0
M  V30 29030 H 2751.75 3.36453 -2.46688 0
M  V30 29031 H 2750.38 2.8958 -1.4263 0
M  V30 29032 H 2749.43 1.58278 -3.45908 0
M  V30 29033 H 2750.74 2.27292 -4.44004 0
M  V30 29034 H 2749.89 4.58249 -3.97609 0
M  V30 29035 H 2748.63 3.92441 -2.89553 0
M  V30 29036 H 2747.64 2.65098 -4.81667 0
M  V30 29037 H 2748.86 3.33968 -5.91306 0
M  V30 29038 H 2746.81 4.92897 -4.32884 0
M  V30 29039 H 2746.73 4.56999 -6.02236 0
M  V30 29040 H 2747.99 5.59794 -5.42449 0
M  V30 29041 N 2752.22 1.50604 0.464349 0
M  V30 29042 C 2753.45 1.65697 1.23904 0
M  V30 29043 C 2753.87 0.343059 1.85657 0
M  V30 29044 O 2753.22 -0.675709 1.6953 0
M  V30 29045 C 2753.27 2.75305 2.34285 0
M  V30 29046 O 2752.99 4.01602 1.75063 0
M  V30 29047 C 2754.5 3.0143 3.25046 0
M  V30 29048 H 2751.72 0.556785 0.374475 0
M  V30 29049 H 2754.26 1.96867 0.553495 0
M  V30 29050 H 2752.41 2.4681 2.98603 0
M  V30 29051 H 2752.83 4.6227 2.47804 0
M  V30 29052 H 2754.3 3.8177 3.98692 0
M  V30 29053 H 2754.78 2.12765 3.84224 0
M  V30 29054 H 2755.39 3.31482 2.66458 0
M  V30 29055 N 2753.7 -0.717989 1.40295 0
M  V30 29056 C 2754.95 -1.47783 1.38443 0
M  V30 29057 C 2755.28 -1.94495 -0.0140497 0
M  V30 29058 O 2754.53 -1.68332 -0.998135 0
M  V30 29059 C 2754.83 -2.7202 2.31819 0
M  V30 29060 C 2754.5 -2.44086 3.79121 0
M  V30 29061 C 2753.16 -2.36178 4.19253 0
M  V30 29062 C 2755.51 -2.20593 4.72216 0
M  V30 29063 C 2752.84 -2.02842 5.5052 0
M  V30 29064 C 2755.19 -1.8877 6.03779 0
M  V30 29065 C 2753.85 -1.79342 6.42956 0
M  V30 29066 H 2753.12 -0.540777 0.506598 0
M  V30 29067 H 2755.77 -0.822632 1.72931 0
M  V30 29068 H 2754.08 -3.42366 1.90507 0
M  V30 29069 H 2755.77 -3.30102 2.2767 0
M  V30 29070 H 2752.36 -2.51127 3.47323 0
M  V30 29071 H 2756.55 -2.25661 4.4203 0
M  V30 29072 H 2751.8 -1.94078 5.79779 0
M  V30 29073 H 2755.98 -1.69605 6.75431 0
M  V30 29074 H 2753.6 -1.53278 7.44587 0
M  V30 29075 N 2755.18 -1.25752 -0.94996 0
M  V30 29076 C 2756.46 -1.01542 -1.67178 0
M  V30 29077 C 2756.84 0.456906 -2.06096 0
M  V30 29078 O 2756.18 1.43531 -1.77795 0
M  V30 29079 C 2756.39 -1.95569 -2.89057 0
M  V30 29080 C 2757.74 -2.2368 -3.60905 0
M  V30 29081 O 2758.77 -1.93365 -2.99146 0
M  V30 29082 O 2757.62 -2.75251 -4.72122 0
M  V30 29083 H 2754.72 -0.385432 -0.731691 0
M  V30 29084 H 2757.26 -1.36926 -1.00247 0
M  V30 29085 H 2756.04 -2.94964 -2.57123 0
M  V30 29086 H 2755.66 -1.60611 -3.63717 0
M  V30 29087 N 2756.66 1.15326 -1.07413 0
M  V30 29088 C 2757.88 1.90008 -0.818816 0
M  V30 29089 C 2758.3 1.78048 0.628041 0
M  V30 29090 O 2757.66 1.13285 1.43083 0
M  V30 29091 C 2757.71 3.40334 -1.2188 0
M  V30 29092 O 2757.43 3.5195 -2.60889 0
M  V30 29093 C 2758.93 4.32038 -0.992872 0
M  V30 29094 H 2756.15 0.602175 -0.296017 0
M  V30 29095 H 2758.69 1.46115 -1.43076 0
M  V30 29096 H 2756.85 3.81888 -0.651171 0
M  V30 29097 H 2757.26 4.4525 -2.77223 0
M  V30 29098 H 2758.74 5.3593 -1.32225 0
M  V30 29099 H 2759.21 4.39143 0.0707559 0
M  V30 29100 H 2759.82 3.96228 -1.54544 0
M  V30 29101 N 2758.13 0.858334 1.32176 0
M  V30 29102 C 2759.04 0.308647 2.32561 0
M  V30 29103 C 2760.06 -0.575433 1.6421 0
M  V30 29104 O 2761.24 -0.474926 1.9572 0
M  V30 29105 C 2758.3 -0.490848 3.43208 0
M  V30 29106 C 2757.36 0.419808 4.27242 0
M  V30 29107 C 2756.6 -0.341625 5.32605 0
M  V30 29108 O 2756.82 -1.57115 5.48335 0
M  V30 29109 O 2755.75 0.294485 6.01179 0
M  V30 29110 H 2759.58 1.14042 2.81475 0
M  V30 29111 H 2757.16 0.621373 1.35865 0
M  V30 29112 H 2759.05 -0.944502 4.10679 0
M  V30 29113 H 2757.72 -1.29936 2.96476 0
M  V30 29114 H 2756.63 0.921715 3.62568 0
M  V30 29115 H 2757.96 1.1936 4.77508 0
M  V30 29116 N 2759.61 -1.45036 0.616628 0
M  V30 29117 C 2760.84 -2.0624 0.121827 0
M  V30 29118 C 2761.25 -1.4604 -1.20287 0
M  V30 29119 O 2760.59 -0.572273 -1.74559 0
M  V30 29120 C 2760.66 -3.59405 -0.0826713 0
M  V30 29121 C 2760.32 -4.4199 1.16161 0
M  V30 29122 C 2761.32 -4.76395 2.08191 0
M  V30 29123 C 2759 -4.82599 1.39297 0
M  V30 29124 C 2761 -5.50275 3.21678 0
M  V30 29125 C 2758.68 -5.5623 2.53083 0
M  V30 29126 C 2759.68 -5.89986 3.44101 0
M  V30 29127 O 2759.37 -6.62122 4.55906 0
M  V30 29128 H 2759.1 -0.672347 0.0701785 0
M  V30 29129 H 2761.65 -1.87127 0.84691 0
M  V30 29130 H 2759.88 -3.76953 -0.862746 0
M  V30 29131 H 2761.57 -4.02422 -0.530202 0
M  V30 29132 H 2762.34 -4.45573 1.91546 0
M  V30 29133 H 2758.22 -4.55754 0.693476 0
M  V30 29134 H 2761.76 -5.7654 3.92743 0
M  V30 29135 H 2757.66 -5.86468 2.69678 0
M  V30 29136 H 2758.43 -6.80579 4.54702 0
M  V30 29137 N 2761.09 -0.356312 -1.53519 0
M  V30 29138 C 2762.02 0.529087 -2.2301 0
M  V30 29139 C 2763.04 1.05369 -1.24102 0
M  V30 29140 O 2764.22 0.961653 -1.50381 0
M  V30 29141 C 2761.32 1.74224 -2.90688 0
M  V30 29142 C 2760.5 1.35074 -4.16021 0
M  V30 29143 C 2759.56 2.42494 -4.66994 0
M  V30 29144 O 2758.58 2.0527 -5.30898 0
M  V30 29145 N 2759.78 3.73943 -4.44013 0
M  V30 29146 H 2762.55 -0.0661028 -2.99627 0
M  V30 29147 H 2760.11 -0.181043 -1.60885 0
M  V30 29148 H 2762.1 2.45544 -3.21699 0
M  V30 29149 H 2760.67 2.24451 -2.17579 0
M  V30 29150 H 2759.89 0.467764 -3.91415 0
M  V30 29151 H 2761.18 1.06533 -4.97522 0
M  V30 29152 H 2760.58 4.06966 -3.92931 0
M  V30 29153 H 2759.14 4.41395 -4.79598 0
M  V30 29154 N 2762.57 1.57369 -0.0852427 0
M  V30 29155 C 2763.52 2.13479 0.877231 0
M  V30 29156 C 2764.49 1.05076 1.2864 0
M  V30 29157 O 2765.67 1.3281 1.36989 0
M  V30 29158 C 2762.81 2.71163 2.13459 0
M  V30 29159 C 2761.92 3.93767 1.77684 0
M  V30 29160 C 2761.06 4.39649 2.98132 0
M  V30 29161 C 2760.1 5.54867 2.58437 0
M  V30 29162 N 2759.23 5.95645 3.71687 0
M  V30 29163 H 2764.07 2.95412 0.391881 0
M  V30 29164 H 2761.61 1.45973 0.18177 0
M  V30 29165 H 2763.57 3.02722 2.87081 0
M  V30 29166 H 2762.2 1.91974 2.59511 0
M  V30 29167 H 2761.25 3.68585 0.940703 0
M  V30 29168 H 2762.56 4.77414 1.44489 0
M  V30 29169 H 2761.72 4.72939 3.80018 0
M  V30 29170 H 2760.46 3.54882 3.3453 0
M  V30 29171 H 2759.46 5.21214 1.74975 0
M  V30 29172 H 2760.69 6.41375 2.23194 0
M  V30 29173 H 2758.63 5.13826 4.07822 0
M  V30 29174 H 2758.55 6.74065 3.42305 0
M  V30 29175 H 2759.82 6.33563 4.54112 0
M  V30 29176 N 2764.05 -0.188399 1.5647 0
M  V30 29177 C 2765.27 -0.92377 1.85133 0
M  V30 29178 C 2765.69 -1.76566 0.668568 0
M  V30 29179 O 2765.05 -1.78861 -0.36263 0
M  V30 29180 C 2765.1 -1.81448 3.12664 0
M  V30 29181 O 2764.82 -1.00657 4.2638 0
M  V30 29182 C 2766.32 -2.66096 3.54553 0
M  V30 29183 H 2763.54 -0.269207 0.614629 0
M  V30 29184 H 2766.08 -0.193635 2.03581 0
M  V30 29185 H 2764.24 -2.49816 2.96093 0
M  V30 29186 H 2764.65 -1.61416 4.99044 0
M  V30 29187 H 2766.13 -3.24239 4.46736 0
M  V30 29188 H 2766.6 -3.40134 2.77859 0
M  V30 29189 H 2767.21 -2.03089 3.73678 0
M  V30 29190 N 2765.53 -1.50848 -0.456355 0
M  V30 29191 C 2766.47 -1.70785 -1.55246 0
M  V30 29192 C 2767.44 -0.549259 -1.56756 0
M  V30 29193 O 2768.63 -0.78153 -1.7406 0
M  V30 29194 C 2765.77 -1.82148 -2.93114 0
M  V30 29195 C 2764.88 -3.09604 -3.0128 0
M  V30 29196 C 2764.02 -3.11675 -4.30154 0
M  V30 29197 C 2763.05 -4.33523 -4.32116 0
M  V30 29198 N 2762.19 -4.3325 -5.52484 0
M  V30 29199 H 2767.03 -2.64356 -1.3755 0
M  V30 29200 H 2764.57 -1.31031 -0.66852 0
M  V30 29201 H 2766.53 -1.86718 -3.73085 0
M  V30 29202 H 2765.16 -0.920033 -3.09411 0
M  V30 29203 H 2764.21 -3.14435 -2.1409 0
M  V30 29204 H 2765.52 -3.99557 -2.9859 0
M  V30 29205 H 2764.67 -3.15055 -5.18484 0
M  V30 29206 H 2763.41 -2.19577 -4.35473 0
M  V30 29207 H 2762.42 -4.30339 -3.42182 0
M  V30 29208 H 2763.64 -5.26864 -4.28476 0
M  V30 29209 H 2761.59 -3.44014 -5.58561 0
M  V30 29210 H 2761.51 -5.16989 -5.51596 0
M  V30 29211 H 2762.77 -4.40797 -6.42898 0
M  V30 29212 N 2767 0.710538 -1.40674 0
M  V30 29213 C 2767.93 1.83734 -1.44098 0
M  V30 29214 C 2768.91 1.6741 -0.301315 0
M  V30 29215 O 2770.1 1.87366 -0.510651 0
M  V30 29216 C 2767.23 3.21736 -1.30779 0
M  V30 29217 C 2766.18 3.5274 -2.42401 0
M  V30 29218 C 2765.51 4.8994 -2.14156 0
M  V30 29219 C 2766.81 3.53227 -3.84744 0
M  V30 29220 H 2768.5 1.81125 -2.38399 0
M  V30 29221 H 2766.05 0.869996 -1.14748 0
M  V30 29222 H 2768 4.00262 -1.3179 0
M  V30 29223 H 2766.73 3.24933 -0.329565 0
M  V30 29224 H 2765.39 2.76558 -2.40648 0
M  V30 29225 H 2765.03 4.89745 -1.14712 0
M  V30 29226 H 2764.73 5.1165 -2.88943 0
M  V30 29227 H 2766.26 5.70793 -2.16858 0
M  V30 29228 H 2767.67 4.21783 -3.88293 0
M  V30 29229 H 2766.07 3.86465 -4.59091 0
M  V30 29230 H 2767.14 2.52506 -4.13967 0
M  V30 29231 N 2768.48 1.26254 0.943277 0
M  V30 29232 C 2769.43 1.07438 2.063 0
M  V30 29233 C 2770.42 0.00192449 1.694 0
M  V30 29234 O 2771.63 0.15844 1.79301 0
M  V30 29235 H 2768 0.330568 0.675447 0
M  V30 29236 H 2769.98 2.02337 2.19323 0
M  V30 29237 C 2768.72 0.721877 3.40124 0
M  V30 29238 H 2768.05 1.53897 3.68993 0
M  V30 29239 H 2769.49 0.629995 4.19294 0
M  V30 29240 C 2767.95 -0.572844 3.31994 0
M  V30 29241 O 2768.48 -1.61176 3.67947 0
M  V30 29242 N 2766.68 -0.562698 2.851 0
M  V30 29243 H 2766.23 0.283137 2.56039 0
M  V30 29244 H 2766.19 -1.4291 2.80043 0
M  V30 29245 N 2769.96 -1.14755 1.08024 0
M  V30 29246 C 2771.24 -1.8185 0.720418 0
M  V30 29247 C 2771.62 -1.95504 -0.796341 0
M  V30 29248 O 2770.96 -1.51182 -1.71337 0
M  V30 29249 C 2771.17 -3.17781 1.44279 0
M  V30 29250 C 2772.52 -3.93328 1.59932 0
M  V30 29251 O 2773.55 -3.27357 1.40412 0
M  V30 29252 O 2772.41 -5.11623 1.92105 0
M  V30 29253 H 2769.5 -0.786003 0.257156 0
M  V30 29254 H 2772.05 -1.21807 1.18158 0
M  V30 29255 H 2770.82 -3.02983 2.47623 0
M  V30 29256 H 2770.44 -3.85514 0.972858 0
M  V30 29257 N 2771.44 -0.865331 -1.31719 0
M  V30 29258 C 2772.68 -0.483979 -1.97558 0
M  V30 29259 C 2773.04 0.95224 -1.67183 0
M  V30 29260 O 2772.33 1.66079 -0.955421 0
M  V30 29261 C 2772.53 -0.672345 -3.51019 0
M  V30 29262 C 2772.35 -2.12532 -3.96308 0
M  V30 29263 C 2771.12 -2.76599 -4.22873 0
M  V30 29264 C 2773.32 -3.09709 -4.10591 0
M  V30 29265 N 2771.3 -4.12696 -4.54483 0
M  V30 29266 C 2772.68 -4.30824 -4.4586 0
M  V30 29267 C 2774.73 -3.05762 -3.92956 0
M  V30 29268 C 2773.43 -5.48504 -4.65335 0
M  V30 29269 C 2775.46 -4.22696 -4.13621 0
M  V30 29270 C 2774.82 -5.42571 -4.49217 0
M  V30 29271 H 2770.92 -0.226048 -0.748616 0
M  V30 29272 H 2773.5 -1.11896 -1.59334 0
M  V30 29273 H 2771.68 -0.0669907 -3.88342 0
M  V30 29274 H 2773.41 -0.259836 -4.03865 0
M  V30 29275 H 2770.16 -2.27575 -4.15339 0
M  V30 29276 H 2770.59 -4.82929 -4.74456 0
M  V30 29277 H 2775.23 -2.14195 -3.64528 0
M  V30 29278 H 2772.95 -6.40592 -4.92612 0
M  V30 29279 H 2776.53 -4.21089 -4.01467 0
M  V30 29280 H 2775.41 -6.31548 -4.64884 0
M  V30 29281 N 2772.92 1.44707 -0.624311 0
M  V30 29282 C 2774.19 1.95516 -0.0573125 0
M  V30 29283 C 2774.57 1.56644 1.41513 0
M  V30 29284 O 2773.92 0.837148 2.12613 0
M  V30 29285 C 2774.13 3.47931 -0.273005 0
M  V30 29286 C 2775.48 4.24289 -0.162603 0
M  V30 29287 O 2776.5 3.55615 -0.204009 0
M  V30 29288 O 2775.36 5.46465 -0.0617807 0
M  V30 29289 H 2772.46 0.826585 0.0262073 0
M  V30 29290 H 2775 1.54791 -0.695539 0
M  V30 29291 H 2773.77 3.6925 -1.29499 0
M  V30 29292 H 2773.4 3.95586 0.399687 0
M  V30 29293 N 2774.39 0.364449 1.53328 0
M  V30 29294 C 2775.64 -0.225599 2.01239 0
M  V30 29295 C 2775.97 -1.48867 1.25175 0
M  V30 29296 O 2775.22 -1.9284 0.333323 0
M  V30 29297 C 2775.52 -0.564599 3.52912 0
M  V30 29298 C 2775.19 0.604014 4.46836 0
M  V30 29299 C 2773.85 0.924668 4.72232 0
M  V30 29300 C 2776.2 1.387 5.02406 0
M  V30 29301 C 2773.53 2.0303 5.50451 0
M  V30 29302 C 2775.88 2.48303 5.81832 0
M  V30 29303 C 2774.55 2.80905 6.05515 0
M  V30 29304 H 2773.82 -0.0825525 0.736387 0
M  V30 29305 H 2776.46 0.496678 1.84947 0
M  V30 29306 H 2774.77 -1.36788 3.67146 0
M  V30 29307 H 2776.47 -1.03337 3.87456 0
M  V30 29308 H 2773.06 0.344058 4.27217 0
M  V30 29309 H 2777.24 1.15252 4.82733 0
M  V30 29310 H 2772.5 2.28688 5.6702 0
M  V30 29311 H 2776.67 3.09391 6.23899 0
M  V30 29312 H 2774.3 3.667 6.65909 0
M  V30 29313 N 2775.87 -1.57322 0.0935872 0
M  V30 29314 C 2777.12 -1.94586 -0.57132 0
M  V30 29315 C 2777.45 -0.975395 -1.67928 0
M  V30 29316 O 2776.73 -0.00819625 -1.94498 0
M  V30 29317 C 2777.01 -3.4198 -1.12791 0
M  V30 29318 C 2776.86 -4.49793 -0.0251091 0
M  V30 29319 C 2778.18 -3.90654 -2.02675 0
M  V30 29320 H 2775.3 -0.707564 -0.20621 0
M  V30 29321 H 2777.94 -1.89291 0.163989 0
M  V30 29322 H 2776.09 -3.46623 -1.75455 0
M  V30 29323 H 2777.76 -4.57262 0.609059 0
M  V30 29324 H 2776.01 -4.29031 0.641475 0
M  V30 29325 H 2776.68 -5.50119 -0.455336 0
M  V30 29326 H 2779.15 -3.88154 -1.49918 0
M  V30 29327 H 2778.03 -4.94355 -2.38546 0
M  V30 29328 H 2778.29 -3.29859 -2.94356 0
M  V30 29329 N 2777.35 0.180099 -1.56568 0
M  V30 29330 C 2778.6 0.899465 -1.81762 0
M  V30 29331 C 2778.93 1.82275 -0.670048 0
M  V30 29332 O 2778.2 1.91705 0.328541 0
M  V30 29333 C 2778.49 1.70274 -3.17299 0
M  V30 29334 C 2778.34 0.803177 -4.42571 0
M  V30 29335 C 2779.66 2.67227 -3.49683 0
M  V30 29336 H 2776.78 0.325555 -0.661198 0
M  V30 29337 H 2779.42 0.166087 -1.89273 0
M  V30 29338 H 2777.57 2.32797 -3.11027 0
M  V30 29339 H 2779.24 0.191504 -4.60902 0
M  V30 29340 H 2777.48 0.11072 -4.33659 0
M  V30 29341 H 2778.16 1.40054 -5.33937 0
M  V30 29342 H 2780.63 2.14833 -3.56351 0
M  V30 29343 H 2779.51 3.20503 -4.45611 0
M  V30 29344 H 2779.77 3.47002 -2.73938 0
M  V30 29345 N 2778.83 1.51088 0.448349 0
M  V30 29346 C 2780.06 1.67002 1.2214 0
M  V30 29347 C 2780.47 0.362731 1.85283 0
M  V30 29348 O 2779.83 -0.65769 1.70237 0
M  V30 29349 C 2779.88 2.77774 2.31352 0
M  V30 29350 O 2779.6 4.03437 1.70794 0
M  V30 29351 C 2781.1 3.04861 3.2183 0
M  V30 29352 H 2778.32 0.560725 0.368549 0
M  V30 29353 H 2780.86 1.97443 0.532584 0
M  V30 29354 H 2779.02 2.49963 2.95969 0
M  V30 29355 H 2779.43 4.64872 2.42887 0
M  V30 29356 H 2780.91 3.85978 3.9462 0
M  V30 29357 H 2781.38 2.16828 3.81945 0
M  V30 29358 H 2781.99 3.3429 2.62927 0
M  V30 29359 N 2780.31 -0.703068 1.41049 0
M  V30 29360 C 2781.53 -1.49199 1.43343 0
M  V30 29361 C 2781.95 -1.88765 0.0365928 0
M  V30 29362 O 2781.31 -1.56286 -0.942391 0
M  V30 29363 C 2781.36 -2.75935 2.33543 0
M  V30 29364 O 2781.08 -2.38038 3.6779 0
M  V30 29365 C 2782.58 -3.69736 2.44562 0
M  V30 29366 H 2779.8 -0.460031 0.48848 0
M  V30 29367 H 2782.34 -0.866257 1.85246 0
M  V30 29368 H 2780.5 -3.34763 1.94968 0
M  V30 29369 H 2780.91 -3.19676 4.15822 0
M  V30 29370 H 2782.39 -4.55466 3.11857 0
M  V30 29371 H 2782.86 -4.13708 1.47454 0
M  V30 29372 H 2783.47 -3.16814 2.83741 0
M  V30 29373 N 2781.78 -1.26752 -0.936569 0
M  V30 29374 C 2783.06 -1.03309 -1.66092 0
M  V30 29375 C 2783.44 0.435021 -2.06569 0
M  V30 29376 O 2782.79 1.41637 -1.79307 0
M  V30 29377 C 2783 -1.98624 -2.86966 0
M  V30 29378 C 2784.35 -2.27495 -3.58512 0
M  V30 29379 O 2785.37 -1.96527 -2.97078 0
M  V30 29380 O 2784.23 -2.80243 -4.69176 0
M  V30 29381 H 2781.32 -0.393171 -0.727561 0
M  V30 29382 H 2783.87 -1.37981 -0.98789 0
M  V30 29383 H 2782.64 -2.97674 -2.5398 0
M  V30 29384 H 2782.27 -1.6446 -3.61993 0
M  V30 29385 N 2783.26 1.1418 -1.08631 0
M  V30 29386 C 2784.51 1.8462 -0.812303 0
M  V30 29387 C 2784.82 1.83975 0.664281 0
M  V30 29388 O 2786.03 2.50226 1.05353 0
M  V30 29389 C 2784.49 3.3142 -1.40316 0
M  V30 29390 C 2784.09 3.40476 -2.9117 0
M  V30 29391 C 2785.84 4.06957 -1.20775 0
M  V30 29392 C 2783.75 4.81501 -3.43381 0
M  V30 29393 H 2782.68 0.691661 -0.300203 0
M  V30 29394 H 2785.33 1.28699 -1.30801 0
M  V30 29395 H 2783.71 3.87093 -0.835164 0
M  V30 29396 H 2784.88 2.94842 -3.54125 0
M  V30 29397 H 2783.2 2.78398 -3.09651 0
M  V30 29398 H 2785.79 5.11056 -1.57246 0
M  V30 29399 H 2786.14 4.16038 -0.147737 0
M  V30 29400 H 2786.67 3.57591 -1.7428 0
M  V30 29401 H 2783.41 4.77608 -4.48966 0
M  V30 29402 H 2782.93 5.27664 -2.85186 0
M  V30 29403 H 2784.61 5.50398 -3.40105 0
M  V30 29404 N 2784.74 0.872304 1.31258 0
M  V30 29405 C 2785.97 0.498135 2.01329 0
M  V30 29406 C 2786.39 -0.902539 1.65033 0
M  V30 29407 O 2785.75 -1.59594 0.860193 0
M  V30 29408 C 2785.8 0.665268 3.5441 0
M  V30 29409 O 2784.9 -0.294401 4.11348 0
M  V30 29410 H 2784.24 0.197844 0.633841 0
M  V30 29411 H 2786.77 1.17636 1.674 0
M  V30 29412 H 2786.78 0.559444 4.04146 0
M  V30 29413 H 2785.46 1.68657 3.80168 0
M  V30 29414 H 2784.03 -0.143337 3.72624 0
M  V30 29415 N 2786.22 -1.44374 0.631976 0
M  V30 29416 C 2787.13 -2.34484 -0.0736328 0
M  V30 29417 C 2788.14 -1.52667 -0.834798 0
M  V30 29418 O 2789.32 -1.85392 -0.786869 0
M  V30 29419 C 2786.39 -3.30658 -1.04241 0
M  V30 29420 C 2785.45 -4.28382 -0.280527 0
M  V30 29421 C 2784.68 -5.19961 -1.20316 0
M  V30 29422 O 2784.9 -5.15488 -2.44189 0
M  V30 29423 O 2783.84 -5.97966 -0.687023 0
M  V30 29424 H 2787.66 -2.96273 0.667529 0
M  V30 29425 H 2785.25 -1.44161 0.392169 0
M  V30 29426 H 2787.13 -3.89854 -1.59974 0
M  V30 29427 H 2785.8 -2.71401 -1.76417 0
M  V30 29428 H 2784.71 -3.7273 0.31987 0
M  V30 29429 H 2786.04 -4.90562 0.40123 0
M  V30 29430 N 2787.7 -0.372575 -1.53133 0
M  V30 29431 C 2788.63 0.514322 -2.22329 0
M  V30 29432 C 2789.61 1.07745 -1.21778 0
M  V30 29433 O 2790.79 1.13226 -1.50706 0
M  V30 29434 C 2787.92 1.7103 -2.92346 0
M  V30 29435 C 2786.96 1.27398 -4.07028 0
M  V30 29436 S 2787.8 0.269432 -5.34822 0
M  V30 29437 C 2788.95 1.47158 -6.08355 0
M  V30 29438 H 2789.19 -0.0733205 -2.9721 0
M  V30 29439 H 2786.72 -0.1567 -1.53603 0
M  V30 29440 H 2788.68 2.39628 -3.333 0
M  V30 29441 H 2787.34 2.26921 -2.17177 0
M  V30 29442 H 2786.53 2.16648 -4.5506 0
M  V30 29443 H 2786.13 0.667125 -3.68002 0
M  V30 29444 H 2788.43 2.40146 -6.33511 0
M  V30 29445 H 2789.37 1.03251 -7.00532 0
M  V30 29446 H 2789.78 1.6808 -5.38896 0
M  V30 29447 N 2789.17 1.5727 -0.101929 0
M  V30 29448 C 2790.42 1.94214 0.559057 0
M  V30 29449 C 2790.74 0.984978 1.68295 0
M  V30 29450 O 2790.01 0.0382319 1.95863 0
M  V30 29451 H 2788.59 0.717018 0.209508 0
M  V30 29452 H 2791.26 1.94184 -0.166866 0
M  V30 29453 H 2790.35 2.96813 0.964798 0
M  V30 29454 N 2790.65 -0.171793 1.56661 0
M  V30 29455 C 2791.62 -1.19648 1.95492 0
M  V30 29456 C 2792.62 -1.37206 0.838525 0
M  V30 29457 O 2793.81 -1.3462 1.10558 0
M  V30 29458 C 2790.94 -2.56162 2.24931 0
M  V30 29459 H 2792.13 -0.863956 2.87186 0
M  V30 29460 H 2789.68 -0.414223 1.50711 0
M  V30 29461 H 2790.42 -2.94429 1.35949 0
M  V30 29462 H 2790.2 -2.44784 3.06306 0
M  V30 29463 H 2791.69 -3.3001 2.55897 0
M  V30 29464 N 2792.13 -1.51324 -0.44033 0
M  V30 29465 C 2793.08 -1.72991 -1.55489 0
M  V30 29466 C 2794.07 -0.596166 -1.58563 0
M  V30 29467 O 2795.28 -0.777471 -1.62343 0
M  V30 29468 H 2791.65 -0.546542 -0.516522 0
M  V30 29469 H 2793.62 -2.66426 -1.34387 0
M  V30 29470 C 2792.37 -1.86936 -2.93173 0
M  V30 29471 H 2791.7 -2.73579 -2.91538 0
M  V30 29472 H 2793.14 -2.0611 -3.70533 0
M  V30 29473 C 2791.6 -0.628423 -3.30987 0
M  V30 29474 O 2792.13 0.218297 -4.01106 0
M  V30 29475 N 2790.33 -0.47339 -2.86718 0
M  V30 29476 H 2789.88 -1.16349 -2.29828 0
M  V30 29477 H 2789.84 0.355672 -3.12382 0
M  V30 29478 N 2793.61 0.695578 -1.41419 0
M  V30 29479 C 2794.86 1.45562 -1.40776 0
M  V30 29480 C 2795.18 1.94493 -0.0168946 0
M  V30 29481 O 2794.44 1.69899 0.971229 0
M  V30 29482 C 2794.74 2.68298 -2.36117 0
M  V30 29483 C 2794.4 2.38024 -3.82956 0
M  V30 29484 C 2793.07 2.29478 -4.22958 0
M  V30 29485 C 2795.42 2.13053 -4.75666 0
M  V30 29486 C 2792.75 1.94058 -5.53677 0
M  V30 29487 C 2795.1 1.79141 -6.06705 0
M  V30 29488 C 2793.76 1.69091 -6.45728 0
M  V30 29489 H 2793.03 0.532649 -0.515137 0
M  V30 29490 H 2795.68 0.795016 -1.74218 0
M  V30 29491 H 2793.98 3.39292 -1.9593 0
M  V30 29492 H 2795.68 3.26438 -2.32893 0
M  V30 29493 H 2792.27 2.4557 -3.51274 0
M  V30 29494 H 2796.45 2.186 -4.45565 0
M  V30 29495 H 2791.71 1.84829 -5.82793 0
M  V30 29496 H 2795.88 1.58838 -6.78044 0
M  V30 29497 H 2793.51 1.41413 -7.46931 0
M  V30 29498 N 2795.09 1.27247 0.929833 0
M  V30 29499 C 2796.34 1.12844 1.6718 0
M  V30 29500 C 2796.65 -0.325632 1.9287 0
M  V30 29501 O 2797.86 -0.590526 2.65 0
M  V30 29502 C 2796.31 1.97156 3.01094 0
M  V30 29503 C 2795.92 3.47208 2.83109 0
M  V30 29504 C 2797.66 1.91395 3.78904 0
M  V30 29505 C 2795.57 4.23726 4.12565 0
M  V30 29506 H 2794.5 0.418708 0.627056 0
M  V30 29507 H 2797.15 1.5165 1.03317 0
M  V30 29508 H 2795.53 1.51193 3.66001 0
M  V30 29509 H 2796.71 4.01019 2.26982 0
M  V30 29510 H 2795.02 3.54325 2.1873 0
M  V30 29511 H 2797.62 2.45842 4.74832 0
M  V30 29512 H 2797.96 0.887118 4.06738 0
M  V30 29513 H 2798.5 2.35242 3.20789 0
M  V30 29514 H 2795.23 5.26925 3.89911 0
M  V30 29515 H 2794.75 3.74693 4.68364 0
M  V30 29516 H 2796.43 4.32785 4.80943 0
M  V30 29517 N 2796.57 -1.13603 1.09235 0
M  V30 29518 C 2797.53 -2.17143 0.733591 0
M  V30 29519 C 2798.53 -1.59061 -0.235845 0
M  V30 29520 O 2799.72 -1.74194 -0.0142861 0
M  V30 29521 C 2796.85 -3.40795 0.0845309 0
M  V30 29522 H 2798.04 -2.50394 1.65054 0
M  V30 29523 H 2795.6 -1.28397 0.891286 0
M  V30 29524 H 2796.33 -3.13132 -0.84374 0
M  V30 29525 H 2796.12 -3.84222 0.782052 0
M  V30 29526 H 2797.61 -4.17326 -0.151143 0
M  V30 29527 N 2798.04 -0.879253 -1.30793 0
M  V30 29528 C 2799.32 -0.41512 -1.91144 0
M  V30 29529 C 2799.7 1.10365 -1.79952 0
M  V30 29530 O 2799.05 1.9364 -1.21309 0
M  V30 29531 C 2799.26 -0.906837 -3.37013 0
M  V30 29532 C 2800.61 -0.93843 -4.141 0
M  V30 29533 O 2801.63 -0.853114 -3.45833 0
M  V30 29534 O 2800.49 -1.06352 -5.36052 0
M  V30 29535 H 2797.58 -0.12592 -0.817357 0
M  V30 29536 H 2800.13 -0.967777 -1.39399 0
M  V30 29537 H 2798.9 -1.95059 -3.39216 0
M  V30 29538 H 2798.52 -0.333018 -3.96203 0
M  V30 29539 N 2799.52 1.44037 -0.639624 0
M  V30 29540 C 2800.94 1.56639 -0.305981 0
M  V30 29541 C 2801.14 1.62569 1.19052 0
M  V30 29542 O 2800.19 1.57334 1.9749 0
M  V30 29543 C 2801.51 2.83395 -1.00538 0
M  V30 29544 C 2803.05 2.97119 -0.984331 0
M  V30 29545 C 2803.53 4.26689 -1.66436 0
M  V30 29546 N 2805.02 4.33522 -1.63135 0
M  V30 29547 C 2805.76 5.32515 -2.12639 0
M  V30 29548 N 2805.25 6.37865 -2.70371 0
M  V30 29549 N 2807.04 5.24079 -2.03218 0
M  V30 29550 H 2799.2 1.38431 -1.61092 0
M  V30 29551 H 2801.46 0.66393 -0.676684 0
M  V30 29552 H 2801.16 2.85028 -2.06039 0
M  V30 29553 H 2801.04 3.73192 -0.548428 0
M  V30 29554 H 2803.43 2.95034 0.0622273 0
M  V30 29555 H 2803.51 2.08648 -1.47985 0
M  V30 29556 H 2803.15 4.29534 -2.71041 0
M  V30 29557 H 2803.08 5.14032 -1.1436 0
M  V30 29558 H 2805.57 3.58007 -1.20993 0
M  V30 29559 H 2805.88 7.09699 -3.05855 0
M  V30 29560 H 2804.23 6.38526 -2.74425 0
M  V30 29561 H 2807.42 4.40689 -1.5783 0
M  V30 29562 H 2807.59 6.01072 -2.42108 0
M  V30 29563 N 2801 0.380691 1.52933 0
M  V30 29564 C 2802.25 -0.204545 2.01766 0
M  V30 29565 C 2802.58 -1.47177 1.26699 0
M  V30 29566 O 2801.85 -1.91045 0.36497 0
M  V30 29567 C 2802.14 -0.481206 3.5687 0
M  V30 29568 C 2801.99 0.800707 4.42616 0
M  V30 29569 C 2803.31 -1.27547 4.21212 0
M  V30 29570 H 2800.43 -0.0728674 0.733389 0
M  V30 29571 H 2803.07 0.508562 1.83067 0
M  V30 29572 H 2801.22 -1.08869 3.72934 0
M  V30 29573 H 2802.89 1.43781 4.3832 0
M  V30 29574 H 2801.13 1.41787 4.09974 0
M  V30 29575 H 2801.81 0.561888 5.49133 0
M  V30 29576 H 2804.28 -0.761442 4.09074 0
M  V30 29577 H 2803.16 -1.43779 5.29735 0
M  V30 29578 H 2803.42 -2.28827 3.78273 0
M  V30 29579 N 2802.48 -1.57214 0.110268 0
M  V30 29580 C 2803.73 -1.94068 -0.549604 0
M  V30 29581 C 2804.04 -0.995264 -1.68386 0
M  V30 29582 O 2805.25 -1.25811 -2.4059 0
M  V30 29583 C 2803.7 -3.44874 -1.02906 0
M  V30 29584 C 2803.31 -4.47935 0.0762649 0
M  V30 29585 C 2805.05 -3.90663 -1.6608 0
M  V30 29586 C 2802.96 -5.89911 -0.419398 0
M  V30 29587 H 2801.89 -0.724432 -0.209079 0
M  V30 29588 H 2804.54 -1.82527 0.188715 0
M  V30 29589 H 2802.92 -3.51619 -1.82153 0
M  V30 29590 H 2804.1 -4.5285 0.852264 0
M  V30 29591 H 2802.41 -4.11846 0.614124 0
M  V30 29592 H 2805.01 -4.94146 -2.04263 0
M  V30 29593 H 2805.35 -3.30152 -2.53585 0
M  V30 29594 H 2805.89 -3.86682 -0.933891 0
M  V30 29595 H 2802.62 -6.54157 0.419392 0
M  V30 29596 H 2802.14 -5.88435 -1.16207 0
M  V30 29597 H 2803.82 -6.4094 -0.883465 0
M  V30 29598 N 2803.96 0.163482 -1.5675 0
M  V30 29599 C 2805.23 0.906569 -1.73323 0
M  V30 29600 C 2805.61 2.00057 -0.673815 0
M  V30 29601 O 2804.96 2.26386 0.310082 0
M  V30 29602 C 2805.17 1.46413 -3.16803 0
M  V30 29603 C 2806.52 1.934 -3.77997 0
M  V30 29604 O 2807.54 1.56191 -3.2013 0
M  V30 29605 O 2806.4 2.61967 -4.7962 0
M  V30 29606 H 2803.5 0.427259 -0.708081 0
M  V30 29607 H 2806.04 0.150698 -1.6903 0
M  V30 29608 H 2804.81 0.677121 -3.85397 0
M  V30 29609 H 2804.44 2.28397 -3.25454 0
M  V30 29610 N 2805.43 1.51555 0.432299 0
M  V30 29611 C 2806.84 1.56894 1.01199 0
M  V30 29612 C 2807.2 0.395428 1.92174 0
M  V30 29613 O 2806.32 -0.487161 2.10845 0
M  V30 29614 C 2806.92 2.84344 1.84212 0
M  V30 29615 C 2805.47 2.92237 2.37223 0
M  V30 29616 C 2804.62 2.51608 1.16571 0
M  V30 29617 H 2807.57 1.57259 0.21338 0
M  V30 29618 H 2807.59 2.6839 2.69717 0
M  V30 29619 H 2807.11 3.69735 1.17973 0
M  V30 29620 H 2805.21 2.11287 3.06902 0
M  V30 29621 H 2805.32 3.95995 2.69675 0
M  V30 29622 H 2803.68 2.04921 1.51259 0
M  V30 29623 H 2804.47 3.39349 0.519344 0
M  V30 29624 N 2806.91 -0.688069 1.41786 0
M  V30 29625 C 2808.33 -0.999586 1.2442 0
M  V30 29626 C 2808.53 -2.01021 0.138904 0
M  V30 29627 O 2807.58 -2.47616 -0.49424 0
M  V30 29628 C 2808.9 -1.51704 2.59627 0
M  V30 29629 C 2810.44 -1.6355 2.66872 0
M  V30 29630 C 2810.92 -2.18695 4.02413 0
M  V30 29631 N 2812.41 -2.26046 4.04299 0
M  V30 29632 C 2813.15 -2.69759 5.05982 0
M  V30 29633 N 2812.64 -3.13022 6.18052 0
M  V30 29634 N 2814.43 -2.6939 4.93341 0
M  V30 29635 H 2806.59 -0.0187054 2.12392 0
M  V30 29636 H 2808.85 -0.0708507 0.945349 0
M  V30 29637 H 2808.55 -0.848999 3.41299 0
M  V30 29638 H 2808.43 -2.49798 2.82632 0
M  V30 29639 H 2810.82 -2.29464 1.85554 0
M  V30 29640 H 2810.9 -0.639813 2.47669 0
M  V30 29641 H 2810.54 -1.53394 4.84183 0
M  V30 29642 H 2810.47 -3.19029 4.1896 0
M  V30 29643 H 2812.96 -1.95524 3.23386 0
M  V30 29644 H 2813.27 -3.45025 6.91504 0
M  V30 29645 H 2811.62 -3.10912 6.21577 0
M  V30 29646 H 2814.81 -2.34945 4.04869 0
M  V30 29647 H 2814.98 -3.03138 5.72723 0
M  V30 29648 N 2808.39 -1.27739 -0.923072 0
M  V30 29649 C 2809.81 -1.05243 -1.19983 0
M  V30 29650 C 2810.01 0.211095 -2.00391 0
M  V30 29651 O 2809.06 0.915325 -2.35325 0
M  V30 29652 C 2810.37 -2.29454 -1.94348 0
M  V30 29653 C 2811.92 -2.34539 -2.07268 0
M  V30 29654 C 2812.4 -3.58492 -2.8504 0
M  V30 29655 N 2813.89 -3.59077 -2.92606 0
M  V30 29656 C 2814.62 -4.5166 -3.53258 0
M  V30 29657 N 2814.12 -5.54552 -4.15264 0
M  V30 29658 N 2815.91 -4.39274 -3.50706 0
M  V30 29659 H 2808.06 -2.08863 -0.386005 0
M  V30 29660 H 2810.33 -0.918821 -0.233391 0
M  V30 29661 H 2810.03 -3.21455 -1.42687 0
M  V30 29662 H 2809.91 -2.35135 -2.94943 0
M  V30 29663 H 2812.29 -1.43042 -2.58115 0
M  V30 29664 H 2812.37 -2.32859 -1.05879 0
M  V30 29665 H 2812.02 -4.50329 -2.34876 0
M  V30 29666 H 2811.95 -3.57425 -3.86724 0
M  V30 29667 H 2814.44 -2.84667 -2.48542 0
M  V30 29668 H 2814.75 -6.21356 -4.59496 0
M  V30 29669 H 2813.1 -5.58389 -4.13796 0
M  V30 29670 H 2816.29 -3.58098 -3.01469 0
M  V30 29671 H 2816.46 -5.11617 -3.97684 0
M  V30 29672 N 2809.87 1.13022 -1.09836 0
M  V30 29673 C 2811.11 1.86039 -0.846696 0
M  V30 29674 C 2811.47 1.81832 0.616525 0
M  V30 29675 O 2812.67 2.50131 0.984285 0
M  V30 29676 C 2810.94 3.30002 -1.37234 0
M  V30 29677 S 2812.5 4.20465 -1.25519 0
M  V30 29678 H 2809.32 0.641725 -0.306121 0
M  V30 29679 H 2811.92 1.36192 -1.40257 0
M  V30 29680 H 2810.63 3.3062 -2.43143 0
M  V30 29681 H 2810.16 3.84912 -0.812778 0
M  V30 29682 H 2812.17 4.9576 -0.208849 0
M  V30 29683 N 2811.35 0.886177 1.30325 0
M  V30 29684 C 2812.28 0.370068 2.30549 0
M  V30 29685 C 2813.26 -0.547722 1.6104 0
M  V30 29686 O 2814.44 -0.461319 1.88641 0
M  V30 29687 C 2811.57 -0.415214 3.44809 0
M  V30 29688 C 2810.53 0.410925 4.26023 0
M  V30 29689 C 2809.85 -0.501034 5.32347 0
M  V30 29690 C 2811.15 1.65368 4.9543 0
M  V30 29691 H 2812.85 1.20758 2.73967 0
M  V30 29692 H 2810.39 0.58212 1.31709 0
M  V30 29693 H 2812.35 -0.786917 4.13987 0
M  V30 29694 H 2811.07 -1.28639 3.00199 0
M  V30 29695 H 2809.73 0.764782 3.58534 0
M  V30 29696 H 2809.38 -1.36995 4.83985 0
M  V30 29697 H 2809.08 0.0479389 5.8758 0
M  V30 29698 H 2810.6 -0.869227 6.04381 0
M  V30 29699 H 2812.01 1.35249 5.57118 0
M  V30 29700 H 2810.41 2.14294 5.60534 0
M  V30 29701 H 2811.48 2.3974 4.21488 0
M  V30 29702 N 2812.82 -1.43695 0.647253 0
M  V30 29703 C 2813.77 -2.3075 -0.0479687 0
M  V30 29704 C 2814.74 -1.44409 -0.82068 0
M  V30 29705 O 2815.93 -1.73288 -0.798484 0
M  V30 29706 C 2813.07 -3.29912 -1.01254 0
M  V30 29707 C 2812.18 -4.31352 -0.236553 0
M  V30 29708 C 2811.31 -5.17598 -1.19438 0
M  V30 29709 C 2810.35 -6.10735 -0.408488 0
M  V30 29710 N 2809.49 -6.89626 -1.3176 0
M  V30 29711 H 2814.33 -2.89655 0.700289 0
M  V30 29712 H 2811.87 -1.427 0.357107 0
M  V30 29713 H 2813.83 -3.85906 -1.58532 0
M  V30 29714 H 2812.46 -2.7267 -1.72774 0
M  V30 29715 H 2811.51 -3.777 0.45242 0
M  V30 29716 H 2812.82 -4.9739 0.374818 0
M  V30 29717 H 2811.97 -5.78189 -1.83799 0
M  V30 29718 H 2810.71 -4.51672 -1.83967 0
M  V30 29719 H 2809.72 -5.49238 0.248507 0
M  V30 29720 H 2810.94 -6.78703 0.232308 0
M  V30 29721 H 2808.89 -6.26354 -1.9498 0
M  V30 29722 H 2808.81 -7.52164 -0.760647 0
M  V30 29723 H 2810.07 -7.54727 -1.94954 0
M  V30 29724 N 2814.3 -0.388796 -1.52729 0
M  V30 29725 C 2815.71 0.085346 -1.86505 0
M  V30 29726 C 2816.06 1.46194 -1.3085 0
M  V30 29727 O 2815.19 2.0673 -0.639645 0
M  V30 29728 C 2815.78 0.161644 -3.38414 0
M  V30 29729 C 2814.34 0.580078 -3.71903 0
M  V30 29730 C 2813.49 -0.258266 -2.76095 0
M  V30 29731 H 2816.44 -0.606691 -1.46646 0
M  V30 29732 H 2816.46 0.980871 -3.6764 0
M  V30 29733 H 2815.97 -0.8404 -3.78892 0
M  V30 29734 H 2814.08 1.58951 -3.36995 0
M  V30 29735 H 2814.19 0.338579 -4.77902 0
M  V30 29736 H 2812.55 0.276387 -2.53196 0
M  V30 29737 H 2813.34 -1.25828 -3.19409 0
M  V30 29738 N 2815.78 1.57153 -0.118604 0
M  V30 29739 C 2817.03 1.9547 0.540291 0
M  V30 29740 C 2817.36 1.00199 1.66355 0
M  V30 29741 O 2816.63 0.0391382 1.94461 0
M  V30 29742 C 2816.92 3.43731 1.07336 0
M  V30 29743 C 2816.77 4.49776 -0.0464523 0
M  V30 29744 C 2818.09 3.93829 1.96435 0
M  V30 29745 H 2815.21 0.710755 0.194927 0
M  V30 29746 H 2817.85 1.89006 -0.194083 0
M  V30 29747 H 2816 3.49371 1.69918 0
M  V30 29748 H 2817.67 4.56235 -0.681729 0
M  V30 29749 H 2815.92 4.27956 -0.709649 0
M  V30 29750 H 2816.59 5.50774 0.36776 0
M  V30 29751 H 2819.06 3.9049 1.43724 0
M  V30 29752 H 2817.94 4.98088 2.30651 0
M  V30 29753 H 2818.2 3.345 2.89071 0
M  V30 29754 N 2817.26 -0.155167 1.56834 0
M  V30 29755 C 2818.51 -0.867535 1.8209 0
M  V30 29756 C 2818.82 -1.82702 0.698522 0
M  V30 29757 O 2820.03 -2.58294 0.836453 0
M  V30 29758 C 2818.48 -1.59331 3.2271 0
M  V30 29759 C 2818.09 -0.676641 4.42861 0
M  V30 29760 C 2819.83 -2.29294 3.57246 0
M  V30 29761 C 2817.74 -1.40357 5.74503 0
M  V30 29762 H 2816.67 -0.327703 0.679063 0
M  V30 29763 H 2819.32 -0.120319 1.83105 0
M  V30 29764 H 2817.7 -2.38586 3.16058 0
M  V30 29765 H 2818.88 0.0801006 4.6073 0
M  V30 29766 H 2817.19 -0.0858397 4.16312 0
M  V30 29767 H 2819.79 -2.84304 4.52852 0
M  V30 29768 H 2820.13 -3.05401 2.82906 0
M  V30 29769 H 2820.67 -1.56966 3.65522 0
M  V30 29770 H 2817.41 -0.684509 6.51916 0
M  V30 29771 H 2816.93 -2.13323 5.60583 0
M  V30 29772 H 2818.6 -1.9467 6.17019 0
M  V30 29773 N 2818.74 -1.51782 -0.424256 0
M  V30 29774 C 2819.67 -1.76992 -1.52302 0
M  V30 29775 C 2820.65 -0.620237 -1.58389 0
M  V30 29776 O 2821.83 -0.864298 -1.73907 0
M  V30 29777 C 2818.96 -1.90688 -2.90268 0
M  V30 29778 C 2817.92 -3.06203 -2.99038 0
M  V30 29779 C 2817.24 -3.051 -4.39111 0
M  V30 29780 C 2818.54 -4.45938 -2.71912 0
M  V30 29781 H 2820.24 -2.68997 -1.31457 0
M  V30 29782 H 2817.78 -1.29441 -0.630962 0
M  V30 29783 H 2819.74 -2.06907 -3.67107 0
M  V30 29784 H 2818.46 -0.95342 -3.12374 0
M  V30 29785 H 2817.12 -2.8971 -2.24641 0
M  V30 29786 H 2816.77 -2.07506 -4.58203 0
M  V30 29787 H 2816.47 -3.82677 -4.45906 0
M  V30 29788 H 2817.99 -3.23429 -5.17905 0
M  V30 29789 H 2819.4 -4.62715 -3.38479 0
M  V30 29790 H 2817.8 -5.2532 -2.90102 0
M  V30 29791 H 2818.87 -4.55075 -1.67437 0
M  V30 29792 N 2820.21 0.68054 -1.42149 0
M  V30 29793 C 2821.44 1.469 -1.45699 0
M  V30 29794 C 2821.86 1.88682 -0.066619 0
M  V30 29795 O 2821.21 1.57765 0.917408 0
M  V30 29796 C 2821.27 2.72184 -2.37903 0
M  V30 29797 O 2820.99 2.32157 -3.7153 0
M  V30 29798 C 2822.49 3.65798 -2.50413 0
M  V30 29799 H 2819.71 0.452201 -0.495737 0
M  V30 29800 H 2822.25 0.836677 -1.86601 0
M  V30 29801 H 2820.41 3.31619 -2.00269 0
M  V30 29802 H 2820.82 3.1302 -4.20855 0
M  V30 29803 H 2822.29 4.50447 -3.19064 0
M  V30 29804 H 2822.77 4.11309 -1.54017 0
M  V30 29805 H 2823.38 3.1226 -2.88745 0
M  V30 29806 N 2821.69 1.28226 0.916285 0
M  V30 29807 C 2822.97 1.05939 1.64427 0
M  V30 29808 C 2823.35 -0.402103 2.07235 0
M  V30 29809 O 2822.7 -1.38767 1.81538 0
M  V30 29810 C 2822.91 2.03164 2.8377 0
M  V30 29811 C 2824.26 2.3317 3.54848 0
M  V30 29812 O 2825.28 2.01228 2.93914 0
M  V30 29813 O 2824.14 2.87672 4.64658 0
M  V30 29814 H 2821.23 0.404696 0.721214 0
M  V30 29815 H 2823.78 1.39535 0.965813 0
M  V30 29816 H 2822.55 3.01677 2.49212 0
M  V30 29817 H 2822.17 1.70198 3.5933 0
M  V30 29818 N 2823.17 -1.12438 1.10433 0
M  V30 29819 C 2824.42 -1.83583 0.845077 0
M  V30 29820 C 2824.74 -1.84504 -0.631136 0
M  V30 29821 O 2824.01 -1.30815 -1.45823 0
M  V30 29822 H 2822.59 -0.679803 0.30964 0
M  V30 29823 H 2825.25 -1.3615 1.3946 0
M  V30 29824 H 2824.35 -2.87778 1.20791 0
M  V30 29825 N 2824.65 -0.893076 -1.29853 0
M  V30 29826 C 2826.06 -0.56503 -1.77945 0
M  V30 29827 C 2826.41 0.919104 -1.7334 0
M  V30 29828 O 2825.54 1.71845 -1.31523 0
M  V30 29829 C 2826.13 -1.01889 -3.23116 0
M  V30 29830 C 2824.69 -0.742116 -3.69012 0
M  V30 29831 C 2823.84 -1.19732 -2.50119 0
M  V30 29832 H 2826.79 -1.07648 -1.16609 0
M  V30 29833 H 2826.81 -0.351316 -3.78875 0
M  V30 29834 H 2826.32 -2.09909 -3.26435 0
M  V30 29835 H 2824.42 0.325751 -3.71173 0
M  V30 29836 H 2824.54 -1.33535 -4.60114 0
M  V30 29837 H 2822.9 -0.616461 -2.47127 0
M  V30 29838 H 2823.68 -2.28543 -2.5617 0
M  V30 29839 N 2826.13 1.4335 -0.654865 0
M  V30 29840 C 2827.04 2.34572 0.0363191 0
M  V30 29841 C 2828.05 1.53975 0.810405 0
M  V30 29842 O 2829.23 1.86621 0.757275 0
M  V30 29843 C 2826.29 3.32274 0.989675 0
M  V30 29844 C 2825.36 4.28775 0.212339 0
M  V30 29845 C 2824.59 5.2181 1.12028 0
M  V30 29846 O 2824.81 5.19307 2.35958 0
M  V30 29847 O 2823.75 5.98984 0.591805 0
M  V30 29848 H 2827.57 2.95174 -0.714579 0
M  V30 29849 H 2825.16 1.43519 -0.415055 0
M  V30 29850 H 2827.04 3.9235 1.53752 0
M  V30 29851 H 2825.71 2.74174 1.72077 0
M  V30 29852 H 2824.62 3.72174 -0.379127 0
M  V30 29853 H 2825.95 4.89861 -0.479224 0
M  V30 29854 N 2827.61 0.39689 1.52521 0
M  V30 29855 C 2829.02 0.0471939 1.5953 0
M  V30 29856 C 2829.22 -1.43904 1.41046 0
M  V30 29857 O 2828.28 -2.20446 1.23126 0
M  V30 29858 C 2829.59 0.531165 2.95972 0
M  V30 29859 C 2831.14 0.488078 3.09171 0
M  V30 29860 C 2831.61 0.94836 4.48074 0
M  V30 29861 N 2833.1 0.90468 4.54279 0
M  V30 29862 C 2833.84 1.23215 5.60005 0
M  V30 29863 N 2833.34 1.63048 6.7334 0
M  V30 29864 N 2835.13 1.15291 5.50149 0
M  V30 29865 H 2827.28 1.36437 1.62784 0
M  V30 29866 H 2829.54 0.559715 0.76513 0
M  V30 29867 H 2829.25 1.56947 3.14739 0
M  V30 29868 H 2829.12 -0.0657259 3.77143 0
M  V30 29869 H 2831.51 -0.54116 2.90096 0
M  V30 29870 H 2831.59 1.12087 2.29935 0
M  V30 29871 H 2831.23 1.97586 4.67891 0
M  V30 29872 H 2831.16 0.292504 5.25787 0
M  V30 29873 H 2833.66 0.611666 3.72917 0
M  V30 29874 H 2833.97 1.86379 7.49989 0
M  V30 29875 H 2832.31 1.66941 6.74652 0
M  V30 29876 H 2835.5 0.840683 4.60489 0
M  V30 29877 H 2835.68 1.41144 6.32442 0
M  V30 29878 N 2829.08 -1.57088 0.126936 0
M  V30 29879 C 2830.33 -1.95754 -0.529917 0
M  V30 29880 C 2830.66 -1.0108 -1.65821 0
M  V30 29881 O 2829.94 -0.0494504 -1.94437 0
M  V30 29882 C 2830.22 -3.44295 -1.05511 0
M  V30 29883 C 2830.07 -4.49745 0.0703043 0
M  V30 29884 C 2831.39 -3.94865 -1.94343 0
M  V30 29885 H 2828.51 -0.711779 -0.191155 0
M  V30 29886 H 2831.15 -1.88901 0.204104 0
M  V30 29887 H 2829.3 -3.50267 -1.68063 0
M  V30 29888 H 2830.98 -4.55867 0.705914 0
M  V30 29889 H 2829.22 -4.27574 0.732334 0
M  V30 29890 H 2829.89 -5.50961 -0.338546 0
M  V30 29891 H 2832.37 -3.91247 -1.41651 0
M  V30 29892 H 2831.24 -4.99304 -2.28006 0
M  V30 29893 H 2831.5 -3.36029 -2.87293 0
M  V30 29894 N 2830.56 0.146848 -1.56914 0
M  V30 29895 C 2831.81 0.857866 -1.82547 0
M  V30 29896 C 2832.12 1.82329 -0.708201 0
M  V30 29897 O 2833.33 2.57847 -0.850139 0
M  V30 29898 C 2831.79 1.57617 -3.23551 0
M  V30 29899 C 2831.39 0.653146 -4.43213 0
M  V30 29900 C 2833.14 2.27396 -3.58457 0
M  V30 29901 C 2831.04 1.37308 -5.75239 0
M  V30 29902 H 2829.97 0.324098 -0.680791 0
M  V30 29903 H 2832.63 0.110607 -1.83166 0
M  V30 29904 H 2831.01 2.36906 -3.17319 0
M  V30 29905 H 2832.18 -0.104533 -4.60681 0
M  V30 29906 H 2830.5 0.0637605 -4.16351 0
M  V30 29907 H 2833.09 2.81899 -4.54354 0
M  V30 29908 H 2833.44 3.03896 -2.84522 0
M  V30 29909 H 2833.97 1.55025 -3.6635 0
M  V30 29910 H 2830.71 0.649927 -6.5227 0
M  V30 29911 H 2830.23 2.10347 -5.61707 0
M  V30 29912 H 2831.91 1.91395 -6.18043 0
M  V30 29913 N 2832.04 1.52005 0.4162 0
M  V30 29914 C 2832.97 1.77797 1.51362 0
M  V30 29915 C 2833.95 0.628628 1.58058 0
M  V30 29916 O 2835.14 0.873509 1.73446 0
M  V30 29917 C 2832.27 1.92224 2.89253 0
M  V30 29918 C 2831.22 3.07785 2.9741 0
M  V30 29919 C 2830.55 3.07424 4.37486 0
M  V30 29920 C 2831.85 4.47374 2.69543 0
M  V30 29921 H 2833.54 2.69691 1.30028 0
M  V30 29922 H 2831.09 1.29773 0.624089 0
M  V30 29923 H 2833.04 2.08851 3.66004 0
M  V30 29924 H 2831.76 0.969972 3.11864 0
M  V30 29925 H 2830.42 2.90897 2.23102 0
M  V30 29926 H 2830.07 2.09933 4.57097 0
M  V30 29927 H 2829.77 3.85037 4.4387 0
M  V30 29928 H 2831.29 3.26171 5.16183 0
M  V30 29929 H 2832.71 4.64503 3.3602 0
M  V30 29930 H 2831.1 5.26851 2.87312 0
M  V30 29931 H 2832.17 4.55956 1.65021 0
M  V30 29932 N 2833.52 -0.672992 1.42508 0
M  V30 29933 C 2834.48 -1.76829 1.45823 0
M  V30 29934 C 2835.48 -1.57043 0.34557 0
M  V30 29935 O 2836.67 -1.63302 0.606476 0
M  V30 29936 C 2833.8 -3.15483 1.29163 0
M  V30 29937 H 2835 -1.75276 2.43348 0
M  V30 29938 H 2832.55 -0.882794 1.28982 0
M  V30 29939 H 2833.28 -3.2266 0.325683 0
M  V30 29940 H 2833.07 -3.31248 2.09803 0
M  V30 29941 H 2834.56 -3.95391 1.3437 0
M  V30 29942 N 2835 -1.2871 -0.909472 0
M  V30 29943 C 2836.24 -1.15885 -1.65575 0
M  V30 29944 C 2836.56 0.292075 -1.928 0
M  V30 29945 O 2835.83 1.20163 -1.54718 0
M  V30 29946 H 2834.41 -0.42588 -0.613706 0
M  V30 29947 H 2837.08 -1.615 -1.09105 0
M  V30 29948 H 2836.17 -1.70163 -2.61631 0
M  V30 29949 N 2836.47 1.1185 -1.11028 0
M  V30 29950 C 2837.88 1.6502 -0.873232 0
M  V30 29951 C 2838.24 1.8695 0.595331 0
M  V30 29952 O 2837.36 1.60054 1.45643 0
M  V30 29953 C 2837.96 2.99774 -1.57864 0
M  V30 29954 C 2836.51 3.49868 -1.38813 0
M  V30 29955 C 2835.66 2.24765 -1.62407 0
M  V30 29956 H 2838.61 0.955481 -1.26713 0
M  V30 29957 H 2838.63 3.66541 -1.02118 0
M  V30 29958 H 2838.15 2.83781 -2.64745 0
M  V30 29959 H 2836.25 3.71034 -0.341228 0
M  V30 29960 H 2836.36 4.28935 -2.13429 0
M  V30 29961 H 2834.72 2.32177 -1.04718 0
M  V30 29962 H 2835.51 2.11319 -2.70553 0
M  V30 29963 N 2837.95 0.89995 1.29378 0
M  V30 29964 C 2838.88 0.322425 2.25911 0
M  V30 29965 C 2839.86 -0.56554 1.52448 0
M  V30 29966 O 2841.05 -0.512292 1.81405 0
M  V30 29967 C 2838.17 -0.540396 3.34361 0
M  V30 29968 C 2837.22 0.280286 4.25578 0
M  V30 29969 S 2838.05 1.67823 5.08523 0
M  V30 29970 C 2839.21 0.822333 6.20474 0
M  V30 29971 H 2839.44 1.14065 2.74548 0
M  V30 29972 H 2836.97 0.700309 1.37605 0
M  V30 29973 H 2838.93 -1.03243 3.97305 0
M  V30 29974 H 2837.59 -1.33286 2.84418 0
M  V30 29975 H 2836.79 -0.378827 5.02574 0
M  V30 29976 H 2836.39 0.705469 3.67286 0
M  V30 29977 H 2838.68 0.0458329 6.77484 0
M  V30 29978 H 2839.62 1.56439 6.90603 0
M  V30 29979 H 2840.03 0.376609 5.63242 0
M  V30 29980 N 2839.43 -1.43001 0.662458 0
M  V30 29981 C 2840.84 -1.84904 0.258348 0
M  V30 29982 C 2841.19 -1.55455 -1.197 0
M  V30 29983 O 2840.32 -1.00814 -1.91482 0
M  V30 29984 C 2840.91 -3.35634 0.462106 0
M  V30 29985 C 2839.47 -3.76233 0.112231 0
M  V30 29986 C 2838.62 -2.66667 0.760526 0
M  V30 29987 H 2841.57 -1.33022 0.86549 0
M  V30 29988 H 2841.59 -3.79396 -0.289579 0
M  V30 29989 H 2841.1 -3.57036 1.52141 0
M  V30 29990 H 2839.2 -3.6044 -0.944115 0
M  V30 29991 H 2839.32 -4.76 0.544142 0
M  V30 29992 H 2837.68 -2.53968 0.192932 0
M  V30 29993 H 2838.46 -2.90895 1.82304 0
M  V30 29994 N 2840.91 -0.404973 -1.52308 0
M  V30 29995 C 2842.15 0.17242 -2.02066 0
M  V30 29996 C 2842.49 1.45143 -1.29024 0
M  V30 29997 O 2841.76 1.9044 -0.395317 0
M  V30 29998 C 2842.05 0.42437 -3.57591 0
M  V30 29999 C 2841.9 -0.871022 -4.41286 0
M  V30 30000 C 2843.22 1.2083 -4.23188 0
M  V30 30001 H 2840.34 0.0611906 -0.734455 0
M  V30 30002 H 2842.98 -0.537622 -1.82235 0
M  V30 30003 H 2841.13 1.02922 -3.74619 0
M  V30 30004 H 2842.8 -1.50736 -4.35977 0
M  V30 30005 H 2841.04 -1.48292 -4.07667 0
M  V30 30006 H 2841.71 -0.649179 -5.48169 0
M  V30 30007 H 2844.19 0.696266 -4.10233 0
M  V30 30008 H 2843.07 1.35333 -5.31955 0
M  V30 30009 H 2843.33 2.2278 -3.81866 0
M  V30 30010 N 2842.39 1.57018 -0.135265 0
M  V30 30011 C 2843.61 2.00101 0.526031 0
M  V30 30012 C 2844.03 1.01522 1.59182 0
M  V30 30013 O 2843.39 0.0104579 1.82497 0
M  V30 30014 C 2843.44 3.43141 1.13738 0
M  V30 30015 O 2843.16 4.37951 0.114182 0
M  V30 30016 C 2844.66 4.01441 1.88043 0
M  V30 30017 H 2841.88 0.656666 0.137951 0
M  V30 30018 H 2844.42 2.03243 -0.226395 0
M  V30 30019 H 2842.58 3.40888 1.8405 0
M  V30 30020 H 2842.99 5.21497 0.560489 0
M  V30 30021 H 2844.47 5.03559 2.26125 0
M  V30 30022 H 2844.94 3.41492 2.76188 0
M  V30 30023 H 2845.55 4.07289 1.22457 0
M  V30 30024 N 2843.86 -0.138524 1.5699 0
M  V30 30025 C 2845.11 -0.850958 1.84083 0
M  V30 30026 C 2845.44 -1.80434 0.718139 0
M  V30 30027 O 2844.72 -1.92509 -0.277599 0
M  V30 30028 C 2845 -1.61802 3.21702 0
M  V30 30029 C 2844.85 -0.685555 4.44545 0
M  V30 30030 C 2846.17 -2.57862 3.56645 0
M  V30 30031 H 2843.29 -0.30791 0.669597 0
M  V30 30032 H 2845.93 -0.115846 1.89647 0
M  V30 30033 H 2844.08 -2.24469 3.1709 0
M  V30 30034 H 2845.76 -0.0692369 4.61248 0
M  V30 30035 H 2844 0.00429618 4.338 0
M  V30 30036 H 2844.67 -1.25849 5.37463 0
M  V30 30037 H 2847.15 -2.05309 3.61922 0
M  V30 30038 H 2846.02 -3.08576 4.53952 0
M  V30 30039 H 2846.28 -3.39617 2.83042 0
M  V30 30040 N 2845.34 -1.52224 -0.408133 0
M  V30 30041 C 2846.31 -1.75013 -1.47997 0
M  V30 30042 C 2847.31 -0.620023 -1.48366 0
M  V30 30043 O 2848.5 -0.887908 -1.49873 0
M  V30 30044 C 2845.63 -1.83341 -2.874 0
M  V30 30045 H 2846.82 -2.70699 -1.29082 0
M  V30 30046 H 2844.37 -1.42655 -0.63869 0
M  V30 30047 H 2845.11 -0.895732 -3.11684 0
M  V30 30048 H 2844.89 -2.65499 -2.88535 0
M  V30 30049 H 2846.38 -2.02711 -3.651 0
M  V30 30050 N 2846.82 0.665425 -1.42863 0
M  V30 30051 C 2848.05 1.45845 -1.47458 0
M  V30 30052 C 2848.47 1.87884 -0.0900642 0
M  V30 30053 O 2847.83 1.56601 0.913559 0
M  V30 30054 C 2847.88 2.6777 -2.41519 0
M  V30 30055 O 2846.98 3.66385 -1.89303 0
M  V30 30056 H 2846.32 0.43778 -0.499244 0
M  V30 30057 H 2848.85 0.815361 -1.87651 0
M  V30 30058 H 2848.86 3.15731 -2.58415 0
M  V30 30059 H 2847.54 2.36513 -3.42103 0
M  V30 30060 H 2846.11 3.25465 -1.82009 0
M  V30 30061 N 2848.3 1.29191 0.902633 0
M  V30 30062 C 2849.26 1.14075 1.98795 0
M  V30 30063 C 2850.26 0.0770832 1.60615 0
M  V30 30064 O 2851.45 0.323783 1.71165 0
M  V30 30065 C 2848.58 0.743797 3.32687 0
M  V30 30066 H 2849.78 2.10477 2.13634 0
M  V30 30067 H 2847.33 1.12336 1.08676 0
M  V30 30068 H 2848.06 -0.220498 3.2355 0
M  V30 30069 H 2847.85 1.51229 3.61763 0
M  V30 30070 H 2849.34 0.661007 4.12335 0
M  V30 30071 N 2849.78 -1.1126 1.1162 0
M  V30 30072 C 2850.74 -2.15538 0.779485 0
M  V30 30073 C 2851.74 -1.59525 -0.202053 0
M  V30 30074 O 2852.93 -1.74185 0.0226663 0
M  V30 30075 C 2850.06 -3.40539 0.1568 0
M  V30 30076 H 2851.25 -2.46837 1.70328 0
M  V30 30077 H 2848.81 -1.26478 0.918321 0
M  V30 30078 H 2849.54 -3.14851 -0.77713 0
M  V30 30079 H 2849.33 -3.82476 0.863375 0
M  V30 30080 H 2850.82 -4.17553 -0.0625876 0
M  V30 30081 N 2851.25 -0.906798 -1.28899 0
M  V30 30082 C 2852.19 -0.347199 -2.26555 0
M  V30 30083 C 2853.2 0.510463 -1.5459 0
M  V30 30084 O 2854.39 0.32647 -1.75489 0
M  V30 30085 C 2851.49 0.522965 -3.34841 0
M  V30 30086 C 2850.66 -0.310591 -4.36296 0
M  V30 30087 C 2849.72 0.493542 -5.2388 0
M  V30 30088 O 2848.75 -0.0914569 -5.69127 0
M  V30 30089 N 2849.95 1.79811 -5.5195 0
M  V30 30090 H 2852.71 -1.18657 -2.7521 0
M  V30 30091 H 2850.27 -0.772021 -1.42308 0
M  V30 30092 H 2852.27 1.06749 -3.90367 0
M  V30 30093 H 2850.84 1.26304 -2.85948 0
M  V30 30094 H 2850.06 -1.03651 -3.80329 0
M  V30 30095 H 2851.34 -0.881194 -5.01111 0
M  V30 30096 H 2850.74 2.29601 -5.1701 0
M  V30 30097 H 2849.3 2.28961 -6.10263 0
M  V30 30098 N 2852.73 1.42648 -0.670032 0
M  V30 30099 C 2854.15 1.55955 -0.339137 0
M  V30 30100 C 2854.35 1.65058 1.15577 0
M  V30 30101 O 2853.4 1.61488 1.94108 0
M  V30 30102 C 2854.72 2.81198 -1.06527 0
M  V30 30103 C 2856.27 2.94965 -1.04713 0
M  V30 30104 C 2856.74 4.23062 -1.75449 0
M  V30 30105 N 2858.23 4.29964 -1.72294 0
M  V30 30106 C 2858.97 5.27885 -2.23886 0
M  V30 30107 N 2858.46 6.31986 -2.8384 0
M  V30 30108 N 2860.26 5.19651 -2.14288 0
M  V30 30109 H 2852.41 1.34983 -1.63992 0
M  V30 30110 H 2854.67 0.649427 -0.690615 0
M  V30 30111 H 2854.38 2.80594 -2.12038 0
M  V30 30112 H 2854.25 3.71945 -0.627464 0
M  V30 30113 H 2856.64 2.951 -0.000367837 0
M  V30 30114 H 2856.72 2.05462 -1.52378 0
M  V30 30115 H 2856.36 4.23688 -2.80091 0
M  V30 30116 H 2856.29 5.11491 -1.25238 0
M  V30 30117 H 2858.78 3.5536 -1.2856 0
M  V30 30118 H 2859.1 7.03052 -3.2084 0
M  V30 30119 H 2857.44 6.32562 -2.87908 0
M  V30 30120 H 2860.63 4.37243 -1.67142 0
M  V30 30121 H 2860.8 5.95802 -2.54803 0
M  V30 30122 N 2854.21 0.413044 1.52091 0
M  V30 30123 C 2855.63 0.0641116 1.59471 0
M  V30 30124 C 2855.83 -1.42399 1.42565 0
M  V30 30125 O 2854.88 -2.19127 1.25457 0
M  V30 30126 C 2856.2 0.562526 2.95391 0
M  V30 30127 C 2857.74 0.520842 3.08636 0
M  V30 30128 C 2858.22 0.995831 4.47043 0
M  V30 30129 N 2859.71 0.952812 4.53294 0
M  V30 30130 C 2860.45 1.29148 5.58667 0
M  V30 30131 N 2859.94 1.7018 6.71573 0
M  V30 30132 N 2861.73 1.2112 5.48896 0
M  V30 30133 H 2853.89 1.38156 1.61328 0
M  V30 30134 H 2856.15 0.567798 0.75915 0
M  V30 30135 H 2855.85 1.60277 3.13056 0
M  V30 30136 H 2855.73 -0.0257212 3.77191 0
M  V30 30137 H 2858.12 -0.510361 2.90653 0
M  V30 30138 H 2858.2 1.14519 2.28733 0
M  V30 30139 H 2857.84 2.02538 4.65769 0
M  V30 30140 H 2857.77 0.348255 5.25447 0
M  V30 30141 H 2860.26 0.651184 3.72247 0
M  V30 30142 H 2860.57 1.94323 7.4797 0
M  V30 30143 H 2858.92 1.74087 6.72844 0
M  V30 30144 H 2862.11 0.889477 4.59571 0
M  V30 30145 H 2862.28 1.47844 6.30909 0
M  V30 30146 N 2855.69 -1.56945 0.143591 0
M  V30 30147 C 2856.94 -1.95628 -0.507368 0
M  V30 30148 C 2857.26 -1.02925 -1.65624 0
M  V30 30149 O 2856.53 -0.090148 -1.95692 0
M  V30 30150 H 2855.11 -0.722321 -0.190424 0
M  V30 30151 H 2857.77 -1.93674 0.218292 0
M  V30 30152 H 2856.87 -2.99267 -0.885764 0
M  V30 30153 N 2857.17 0.130197 -1.57061 0
M  V30 30154 C 2858.58 0.483386 -1.52104 0
M  V30 30155 C 2858.78 1.82471 -0.854784 0
M  V30 30156 O 2857.84 2.4877 -0.432386 0
M  V30 30157 C 2859.15 0.478198 -2.96873 0
M  V30 30158 C 2860.7 0.562538 -3.07903 0
M  V30 30159 C 2861.18 0.587849 -4.54212 0
M  V30 30160 N 2862.67 0.649603 -4.58622 0
M  V30 30161 C 2863.4 0.690451 -5.69228 0
M  V30 30162 N 2862.9 0.689622 -6.89359 0
M  V30 30163 N 2864.69 0.73261 -5.57305 0
M  V30 30164 H 2856.84 -0.748814 -1.98763 0
M  V30 30165 H 2859.1 -0.274981 -0.907243 0
M  V30 30166 H 2858.81 -0.439506 -3.48943 0
M  V30 30167 H 2858.68 1.31007 -3.53719 0
M  V30 30168 H 2861.07 1.47066 -2.55843 0
M  V30 30169 H 2861.15 -0.296809 -2.54072 0
M  V30 30170 H 2860.8 -0.316185 -5.06915 0
M  V30 30171 H 2860.73 1.46392 -5.05843 0
M  V30 30172 H 2863.22 0.656862 -3.72147 0
M  V30 30173 H 2863.53 0.723104 -7.6941 0
M  V30 30174 H 2861.88 0.657226 -6.91885 0
M  V30 30175 H 2865.07 0.730544 -4.62364 0
M  V30 30176 H 2865.24 0.760977 -6.43516 0
M  V30 30177 N 2858.65 1.52438 0.400055 0
M  V30 30178 C 2859.89 1.67189 1.14786 0
M  V30 30179 C 2860.22 0.405107 1.89928 0
M  V30 30180 O 2859.5 -0.596772 1.85119 0
M  V30 30181 C 2859.78 2.89981 2.13502 0
M  V30 30182 C 2859.64 4.26732 1.42196 0
M  V30 30183 C 2860.95 3.08305 3.14063 0
M  V30 30184 H 2858.07 0.608418 0.415929 0
M  V30 30185 H 2860.72 1.85012 0.43251 0
M  V30 30186 H 2858.87 2.74916 2.74505 0
M  V30 30187 H 2860.54 4.53543 0.842424 0
M  V30 30188 H 2858.78 4.27718 0.723864 0
M  V30 30189 H 2859.45 5.08715 2.14272 0
M  V30 30190 H 2861.93 3.22328 2.63142 0
M  V30 30191 H 2860.8 3.9572 3.80391 0
M  V30 30192 H 2861.06 2.22025 3.82305 0
M  V30 30193 N 2860.12 -0.657839 1.43214 0
M  V30 30194 C 2861.37 -1.41498 1.44301 0
M  V30 30195 C 2861.69 -1.94886 0.0666821 0
M  V30 30196 O 2860.96 -1.74141 -0.897315 0
M  V30 30197 H 2859.54 -0.525134 0.531266 0
M  V30 30198 H 2862.2 -0.776163 1.78778 0
M  V30 30199 H 2861.3 -2.25963 2.15284 0
M  V30 30200 N 2861.6 -1.29668 -0.895769 0
M  V30 30201 C 2863.02 -1.07765 -1.17724 0
M  V30 30202 C 2863.22 0.168541 -2.00794 0
M  V30 30203 O 2862.27 0.865203 -2.37214 0
M  V30 30204 C 2863.59 -2.33525 -1.89437 0
M  V30 30205 C 2865.13 -2.38883 -2.02247 0
M  V30 30206 C 2865.61 -3.64457 -2.77371 0
M  V30 30207 N 2867.1 -3.65203 -2.84923 0
M  V30 30208 C 2867.84 -4.59051 -3.43598 0
M  V30 30209 N 2867.33 -5.63235 -4.03408 0
M  V30 30210 N 2869.12 -4.46614 -3.4131 0
M  V30 30211 H 2861.28 -2.09635 -0.341615 0
M  V30 30212 H 2863.54 -0.923565 -0.213849 0
M  V30 30213 H 2863.24 -3.24409 -1.35836 0
M  V30 30214 H 2863.12 -2.41339 -2.89889 0
M  V30 30215 H 2865.51 -1.48484 -2.55022 0
M  V30 30216 H 2865.59 -2.35052 -1.00916 0
M  V30 30217 H 2865.23 -4.55209 -2.25271 0
M  V30 30218 H 2865.16 -3.65547 -3.79055 0
M  V30 30219 H 2867.65 -2.89875 -2.42448 0
M  V30 30220 H 2867.96 -6.30963 -4.46213 0
M  V30 30221 H 2866.31 -5.6704 -4.01858 0
M  V30 30222 H 2869.5 -3.64412 -2.93805 0
M  V30 30223 H 2869.67 -5.19937 -3.86742 0
M  V30 30224 N 2863.08 1.10667 -1.12208 0
M  V30 30225 C 2864.03 2.19026 -0.782957 0
M  V30 30226 C 2865.02 1.67843 0.229145 0
M  V30 30227 O 2866.23 1.79787 0.0875979 0
M  V30 30228 H 2862.6 0.714223 -0.235351 0
M  V30 30229 H 2864.57 2.44871 -1.70531 0
M  V30 30230 C 2863.32 3.46791 -0.251221 0
M  V30 30231 H 2862.65 3.86535 -1.0213 0
M  V30 30232 H 2864.09 4.23968 -0.0522154 0
M  V30 30233 C 2862.54 3.21078 1.02031 0
M  V30 30234 O 2863.07 3.42525 2.09855 0
M  V30 30235 N 2861.28 2.74761 0.946299 0
M  V30 30236 H 2860.83 2.57508 0.0687317 0
M  V30 30237 H 2860.79 2.57934 1.7977 0
M  V30 30238 N 2864.56 0.913621 1.28416 0
M  V30 30239 C 2865.97 0.593268 1.77023 0
M  V30 30240 C 2866.32 -0.89141 1.74781 0
M  V30 30241 O 2865.44 -1.69731 1.3424 0
M  V30 30242 C 2866.04 1.07016 3.21454 0
M  V30 30243 C 2864.6 0.800729 3.67784 0
M  V30 30244 C 2863.75 1.23696 2.48183 0
M  V30 30245 H 2866.7 1.0949 1.14881 0
M  V30 30246 H 2866.72 0.411547 3.78268 0
M  V30 30247 H 2866.23 2.15075 3.23054 0
M  V30 30248 H 2864.33 -0.266659 3.71645 0
M  V30 30249 H 2864.44 1.40838 4.57932 0
M  V30 30250 H 2862.81 0.655699 2.46115 0
M  V30 30251 H 2863.59 2.32589 2.52502 0
M  V30 30252 N 2866.04 -1.4229 0.677588 0
M  V30 30253 C 2866.97 -2.29169 -0.0379815 0
M  V30 30254 C 2867.98 -1.43829 -0.762689 0
M  V30 30255 O 2869.17 -1.6752 -0.616383 0
M  V30 30256 C 2866.27 -3.21313 -1.07755 0
M  V30 30257 C 2865.44 -4.3532 -0.426103 0
M  V30 30258 C 2864.5 -5.08165 -1.36583 0
M  V30 30259 O 2863.53 -5.62588 -0.865075 0
M  V30 30260 N 2864.73 -5.1394 -2.699 0
M  V30 30261 H 2867.49 -2.91222 0.707817 0
M  V30 30262 H 2865.06 -1.53247 0.522217 0
M  V30 30263 H 2867.05 -3.66913 -1.70755 0
M  V30 30264 H 2865.62 -2.60692 -1.72506 0
M  V30 30265 H 2864.84 -3.92331 0.383454 0
M  V30 30266 H 2866.13 -5.08793 0.0276171 0
M  V30 30267 H 2865.52 -4.71139 -3.1312 0
M  V30 30268 H 2864.08 -5.63176 -3.2814 0
M  V30 30269 N 2867.51 -0.421104 -1.5187 0
M  V30 30270 C 2868.46 0.398468 -2.27334 0
M  V30 30271 C 2869.43 1.03083 -1.30243 0
M  V30 30272 O 2870.62 1.05283 -1.59123 0
M  V30 30273 C 2867.76 1.50267 -3.10667 0
M  V30 30274 C 2866.87 0.890048 -4.22732 0
M  V30 30275 C 2866 1.96794 -4.93402 0
M  V30 30276 C 2865.04 1.33289 -5.97411 0
M  V30 30277 N 2864.18 2.35144 -6.61552 0
M  V30 30278 H 2869.02 -0.251464 -2.96937 0
M  V30 30279 H 2866.56 -0.13585 -1.46471 0
M  V30 30280 H 2868.51 2.15397 -3.57295 0
M  V30 30281 H 2867.14 2.12246 -2.43211 0
M  V30 30282 H 2866.2 0.12747 -3.80186 0
M  V30 30283 H 2867.51 0.386262 -4.97302 0
M  V30 30284 H 2866.66 2.69624 -5.43496 0
M  V30 30285 H 2865.4 2.50542 -4.18426 0
M  V30 30286 H 2864.41 0.589983 -5.46625 0
M  V30 30287 H 2865.63 0.802958 -6.74336 0
M  V30 30288 H 2863.58 2.88002 -5.89399 0
M  V30 30289 H 2863.49 1.89612 -7.31836 0
M  V30 30290 H 2864.76 3.07507 -7.16282 0
M  V30 30291 N 2868.99 1.56866 -0.151912 0
M  V30 30292 C 2869.9 2.20581 0.798837 0
M  V30 30293 C 2870.92 1.19156 1.26798 0
M  V30 30294 O 2872.09 1.51751 1.32415 0
M  V30 30295 C 2869.16 2.81877 2.01856 0
M  V30 30296 C 2868.22 3.98443 1.59818 0
M  V30 30297 C 2867.45 4.56807 2.75976 0
M  V30 30298 O 2867.68 4.14051 3.92323 0
M  V30 30299 O 2866.61 5.46991 2.51166 0
M  V30 30300 H 2870.44 3.02346 0.286447 0
M  V30 30301 H 2868.02 1.4921 0.0753544 0
M  V30 30302 H 2869.9 3.20818 2.73229 0
M  V30 30303 H 2868.58 2.03121 2.52038 0
M  V30 30304 H 2867.49 3.64209 0.854537 0
M  V30 30305 H 2868.82 4.78733 1.14347 0
M  V30 30306 N 2870.47 -0.121866 1.57128 0
M  V30 30307 C 2871.42 -1.16864 2.01111 0
M  V30 30308 C 2872.41 -1.43038 0.907557 0
M  V30 30309 O 2873.62 -1.43034 1.09276 0
M  V30 30310 H 2869.99 -0.39396 0.640546 0
M  V30 30311 H 2871.96 -0.771174 2.88263 0
M  V30 30312 C 2870.71 -2.48795 2.42892 0
M  V30 30313 H 2870.04 -2.29492 3.27374 0
M  V30 30314 H 2871.48 -3.20606 2.77467 0
M  V30 30315 C 2869.94 -3.11165 1.29142 0
M  V30 30316 O 2870.47 -3.97105 0.605826 0
M  V30 30317 N 2868.67 -2.70998 1.04921 0
M  V30 30318 H 2868.22 -2.01208 1.60851 0
M  V30 30319 H 2868.18 -3.13059 0.290071 0
M  V30 30320 N 2871.95 -1.52648 -0.391965 0
M  V30 30321 C 2873.23 -1.58125 -1.15133 0
M  V30 30322 C 2873.61 -0.372633 -2.07785 0
M  V30 30323 O 2872.95 0.639265 -2.19376 0
M  V30 30324 C 2873.16 -2.91859 -1.91362 0
M  V30 30325 C 2874.51 -3.45487 -2.46827 0
M  V30 30326 O 2875.54 -2.93713 -2.01521 0
M  V30 30327 O 2874.39 -4.35936 -3.29579 0
M  V30 30328 H 2871.49 -0.637638 -0.526637 0
M  V30 30329 H 2874.03 -1.64982 -0.397357 0
M  V30 30330 H 2872.81 -3.7127 -1.2359 0
M  V30 30331 H 2872.43 -2.88374 -2.73727 0
M  V30 30332 N 2873.43 0.650235 -1.43561 0
M  V30 30333 C 2874.36 1.77568 -1.44921 0
M  V30 30334 C 2875.37 1.59103 -0.344953 0
M  V30 30335 O 2876.56 1.67769 -0.609567 0
M  V30 30336 C 2873.66 3.15037 -1.2492 0
M  V30 30337 C 2872.83 3.60134 -2.48239 0
M  V30 30338 C 2871.89 4.76415 -2.23418 0
M  V30 30339 O 2870.92 4.85701 -2.96788 0
M  V30 30340 N 2872.12 5.66823 -1.25269 0
M  V30 30341 H 2874.89 1.76879 -2.41938 0
M  V30 30342 H 2872.45 0.834177 -1.38756 0
M  V30 30343 H 2874.44 3.90519 -1.06192 0
M  V30 30344 H 2873.01 3.10481 -0.363374 0
M  V30 30345 H 2872.23 2.75064 -2.82371 0
M  V30 30346 H 2873.52 3.87011 -3.30303 0
M  V30 30347 H 2872.91 5.61995 -0.646345 0
M  V30 30348 H 2871.47 6.42014 -1.12525 0
M  V30 30349 N 2874.9 1.30141 0.88888 0
M  V30 30350 C 2876.13 1.21477 1.67113 0
M  V30 30351 C 2876.54 -0.225439 1.87852 0
M  V30 30352 O 2875.89 -1.16142 1.42326 0
M  V30 30353 C 2875.95 1.86851 3.07127 0
M  V30 30354 C 2875.61 3.36172 3.09576 0
M  V30 30355 C 2876.61 4.32227 2.88921 0
M  V30 30356 C 2874.29 3.77554 3.31297 0
M  V30 30357 C 2876.29 5.67639 2.89939 0
M  V30 30358 C 2873.97 5.13085 3.31945 0
M  V30 30359 C 2874.97 6.07938 3.11289 0
M  V30 30360 O 2874.66 7.40993 3.11745 0
M  V30 30361 H 2874.39 0.421671 0.528365 0
M  V30 30362 H 2876.95 1.72232 1.11916 0
M  V30 30363 H 2875.18 1.30621 3.63971 0
M  V30 30364 H 2876.87 1.72361 3.67487 0
M  V30 30365 H 2877.63 4.01588 2.71941 0
M  V30 30366 H 2873.51 3.04171 3.46411 0
M  V30 30367 H 2877.05 6.4165 2.73735 0
M  V30 30368 H 2872.95 5.43366 3.4846 0
M  V30 30369 H 2873.72 7.49933 3.27938 0
M  V30 30370 N 2876.38 -1.1007 1.12794 0
M  V30 30371 C 2877.63 -1.81478 0.880264 0
M  V30 30372 C 2877.94 -1.86313 -0.595542 0
M  V30 30373 O 2879.15 -2.53964 -0.959934 0
M  V30 30374 C 2877.61 -3.25984 1.5252 0
M  V30 30375 C 2877.21 -3.29435 3.03606 0
M  V30 30376 C 2878.96 -4.02194 1.35795 0
M  V30 30377 C 2876.87 -4.68425 3.61015 0
M  V30 30378 H 2875.8 -0.680042 0.325666 0
M  V30 30379 H 2878.45 -1.23756 1.35487 0
M  V30 30380 H 2876.83 -3.83727 0.978256 0
M  V30 30381 H 2878 -2.81496 3.64824 0
M  V30 30382 H 2876.32 -2.66713 3.1977 0
M  V30 30383 H 2878.91 -5.04867 1.76105 0
M  V30 30384 H 2879.26 -4.15203 0.302045 0
M  V30 30385 H 2879.79 -3.50876 1.87432 0
M  V30 30386 H 2876.53 -4.60616 4.66383 0
M  V30 30387 H 2876.05 -5.16716 3.04573 0
M  V30 30388 H 2877.73 -5.37396 3.60298 0
M  V30 30389 N 2877.86 -0.920419 -1.2793 0
M  V30 30390 C 2879.11 -0.557041 -1.94688 0
M  V30 30391 C 2879.44 0.900446 -1.72401 0
M  V30 30392 O 2878.69 1.65655 -1.04197 0
M  V30 30393 C 2878.99 -0.820619 -3.47851 0
M  V30 30394 C 2878.66 -2.2587 -3.90248 0
M  V30 30395 C 2877.32 -2.65186 -4.01534 0
M  V30 30396 C 2879.67 -3.19423 -4.11848 0
M  V30 30397 C 2877 -3.97194 -4.31803 0
M  V30 30398 C 2879.35 -4.51003 -4.43598 0
M  V30 30399 C 2878.01 -4.90163 -4.53096 0
M  V30 30400 H 2877.28 -0.203836 -0.712413 0
M  V30 30401 H 2879.93 -1.16301 -1.5214 0
M  V30 30402 H 2878.24 -0.131913 -3.91578 0
M  V30 30403 H 2879.93 -0.51854 -3.97633 0
M  V30 30404 H 2876.52 -1.94365 -3.81995 0
M  V30 30405 H 2880.71 -2.90253 -4.02575 0
M  V30 30406 H 2875.96 -4.27227 -4.37364 0
M  V30 30407 H 2880.14 -5.23502 -4.59259 0
M  V30 30408 H 2877.76 -5.92484 -4.76305 0
M  V30 30409 N 2879.34 1.41929 -0.685124 0
M  V30 30410 C 2880.27 2.2817 0.0371238 0
M  V30 30411 C 2881.25 1.41648 0.798411 0
M  V30 30412 O 2882.43 1.71082 0.791398 0
M  V30 30413 C 2879.56 3.2169 1.05987 0
M  V30 30414 C 2878.61 4.24686 0.392968 0
M  V30 30415 S 2879.44 5.28598 -0.857014 0
M  V30 30416 C 2880.6 6.25684 0.164398 0
M  V30 30417 H 2880.83 2.89078 -0.694356 0
M  V30 30418 H 2878.36 1.46911 -0.475025 0
M  V30 30419 H 2880.32 3.76106 1.64483 0
M  V30 30420 H 2878.98 2.59898 1.76386 0
M  V30 30421 H 2878.17 4.9035 1.16504 0
M  V30 30422 H 2877.78 3.73812 -0.118655 0
M  V30 30423 H 2880.07 6.69763 1.02094 0
M  V30 30424 H 2881.01 7.06617 -0.458041 0
M  V30 30425 H 2881.42 5.6215 0.514497 0
M  V30 30426 N 2880.82 0.429152 1.51644 0
M  V30 30427 C 2882.06 -0.139767 2.01616 0
M  V30 30428 C 2882.39 -1.43925 1.3157 0
M  V30 30429 O 2881.66 -1.90715 0.447722 0
M  V30 30430 H 2880.24 -0.0546409 0.744999 0
M  V30 30431 H 2882.9 0.569984 1.86379 0
M  V30 30432 H 2881.99 -0.321555 3.10439 0
M  V30 30433 N 2882.29 -1.56783 0.160229 0
M  V30 30434 C 2883.23 -2.14576 -0.805602 0
M  V30 30435 C 2884.24 -1.09851 -1.20152 0
M  V30 30436 O 2885.43 -1.3708 -1.1433 0
M  V30 30437 C 2882.53 -2.66444 -2.0943 0
M  V30 30438 C 2881.7 -3.95709 -1.86368 0
M  V30 30439 C 2880.76 -4.32754 -2.9935 0
M  V30 30440 O 2879.79 -5.00836 -2.70466 0
M  V30 30441 N 2880.99 -3.93409 -4.2686 0
M  V30 30442 H 2883.75 -2.98076 -0.311592 0
M  V30 30443 H 2881.31 -1.61884 -0.0229181 0
M  V30 30444 H 2883.31 -2.88231 -2.84086 0
M  V30 30445 H 2881.88 -1.87595 -2.50054 0
M  V30 30446 H 2881.1 -3.82413 -0.956754 0
M  V30 30447 H 2882.38 -4.80154 -1.68313 0
M  V30 30448 H 2881.78 -3.38577 -4.53191 0
M  V30 30449 H 2880.34 -4.2022 -4.98255 0
M  V30 30450 N 2883.77 0.113531 -1.57191 0
M  V30 30451 C 2885.18 0.670085 -1.74261 0
M  V30 30452 C 2885.54 1.80041 -0.779725 0
M  V30 30453 O 2884.66 2.16351 0.0460973 0
M  V30 30454 C 2885.26 1.22231 -3.15983 0
M  V30 30455 C 2883.81 1.7251 -3.3454 0
M  V30 30456 C 2882.96 0.62705 -2.70117 0
M  V30 30457 H 2885.91 -0.112424 -1.58301 0
M  V30 30458 H 2885.93 2.09191 -3.17835 0
M  V30 30459 H 2885.45 0.399422 -3.86039 0
M  V30 30460 H 2883.55 2.57259 -2.69534 0
M  V30 30461 H 2883.66 1.83078 -4.4274 0
M  V30 30462 H 2882.02 1.062 -2.31503 0
M  V30 30463 H 2882.81 -0.18495 -3.42801 0
M  V30 30464 N 2885.25 1.52854 0.383864 0
M  V30 30465 C 2886.18 1.80968 1.47556 0
M  V30 30466 C 2887.16 0.662013 1.56689 0
M  V30 30467 O 2888.35 0.910103 1.71554 0
M  V30 30468 C 2885.48 1.98317 2.8511 0
M  V30 30469 C 2884.43 3.14024 2.90814 0
M  V30 30470 C 2883.76 3.16635 4.30867 0
M  V30 30471 C 2885.06 4.52991 2.59993 0
M  V30 30472 H 2886.75 2.72388 1.24278 0
M  V30 30473 H 2884.3 1.31068 0.596422 0
M  V30 30474 H 2886.25 2.16568 3.61492 0
M  V30 30475 H 2884.97 1.0359 3.09736 0
M  V30 30476 H 2883.63 2.95564 2.16881 0
M  V30 30477 H 2883.28 2.19581 4.52541 0
M  V30 30478 H 2882.98 3.94365 4.35603 0
M  V30 30479 H 2884.51 3.37047 5.09148 0
M  V30 30480 H 2885.92 4.71526 3.26092 0
M  V30 30481 H 2884.32 5.32827 2.76072 0
M  V30 30482 H 2885.39 4.59354 1.55312 0
M  V30 30483 N 2886.73 -0.642612 1.43904 0
M  V30 30484 C 2887.68 -1.77631 1.50167 0
M  V30 30485 C 2888.67 -1.65213 0.374324 0
M  V30 30486 O 2889.88 -1.71431 0.548778 0
M  V30 30487 H 2886.25 -0.586241 0.470984 0
M  V30 30488 H 2888.22 -1.6947 2.45606 0
M  V30 30489 C 2886.97 -3.1593 1.45202 0
M  V30 30490 H 2886.3 -3.26128 2.31258 0
M  V30 30491 H 2887.74 -3.95183 1.53645 0
M  V30 30492 C 2886.19 -3.36465 0.171102 0
M  V30 30493 O 2886.72 -3.9438 -0.763343 0
M  V30 30494 N 2884.93 -2.90496 0.077898 0
M  V30 30495 H 2884.48 -2.43549 0.839142 0
M  V30 30496 H 2884.44 -3.04611 -0.778419 0
M  V30 30497 N 2888.21 -1.30611 -0.881966 0
M  V30 30498 C 2889.15 -1.17247 -1.98801 0
M  V30 30499 C 2890.12 -0.0612197 -1.65987 0
M  V30 30500 O 2891.31 -0.231944 -1.89385 0
M  V30 30501 C 2888.45 -0.873389 -3.33865 0
M  V30 30502 C 2887.56 -2.06682 -3.7935 0
M  V30 30503 C 2886.7 -1.70556 -5.03075 0
M  V30 30504 C 2885.74 -2.86376 -5.40976 0
M  V30 30505 N 2884.87 -2.50526 -6.55882 0
M  V30 30506 H 2889.71 -2.11867 -2.09563 0
M  V30 30507 H 2887.25 -1.05407 -1.02605 0
M  V30 30508 H 2889.21 -0.680591 -4.11611 0
M  V30 30509 H 2887.84 0.0359415 -3.2278 0
M  V30 30510 H 2886.89 -2.37076 -2.97488 0
M  V30 30511 H 2888.2 -2.93408 -4.03377 0
M  V30 30512 H 2887.36 -1.47668 -5.88455 0
M  V30 30513 H 2886.1 -0.810032 -4.80926 0
M  V30 30514 H 2885.1 -3.09925 -4.54121 0
M  V30 30515 H 2886.33 -3.76619 -5.65097 0
M  V30 30516 H 2884.27 -1.63482 -6.35303 0
M  V30 30517 H 2884.19 -3.30783 -6.79793 0
M  V30 30518 H 2885.46 -2.31002 -7.44485 0
M  V30 30519 N 2889.69 1.0947 -1.13376 0
M  V30 30520 C 2890.96 1.78205 -0.80636 0
M  V30 30521 C 2891.34 1.9908 0.702156 0
M  V30 30522 O 2890.69 1.59185 1.63928 0
M  V30 30523 C 2890.9 3.10535 -1.59276 0
M  V30 30524 C 2892.25 3.8525 -1.78516 0
M  V30 30525 O 2893.27 3.20285 -1.55871 0
M  V30 30526 O 2892.13 5.01875 -2.16296 0
M  V30 30527 H 2889.23 0.772838 -0.294364 0
M  V30 30528 H 2891.77 1.16031 -1.23835 0
M  V30 30529 H 2890.54 2.90823 -2.61797 0
M  V30 30530 H 2890.17 3.80434 -1.15568 0
M  V30 30531 N 2891.16 0.92719 1.2744 0
M  V30 30532 C 2892.07 0.431488 2.30598 0
M  V30 30533 C 2893.09 -0.48758 1.67029 0
M  V30 30534 O 2894.27 -0.370512 1.97963 0
M  V30 30535 C 2891.33 -0.308231 3.45327 0
M  V30 30536 C 2890.39 0.64569 4.24416 0
M  V30 30537 C 2889.62 -0.0588226 5.33668 0
M  V30 30538 O 2889.85 -1.27828 5.55892 0
M  V30 30539 O 2888.78 0.612743 5.98773 0
M  V30 30540 H 2892.61 1.28802 2.75034 0
M  V30 30541 H 2890.19 0.692518 1.3238 0
M  V30 30542 H 2892.07 -0.725482 4.15108 0
M  V30 30543 H 2890.75 -1.14038 3.02947 0
M  V30 30544 H 2889.66 1.11261 3.57172 0
M  V30 30545 H 2890.99 1.44504 4.7051 0
M  V30 30546 N 2892.64 -1.41564 0.692641 0
M  V30 30547 C 2893.92 -1.9502 0.15053 0
M  V30 30548 C 2894.3 -1.63217 -1.33878 0
M  V30 30549 O 2893.65 -0.937635 -2.08376 0
M  V30 30550 C 2893.86 -3.46232 0.438697 0
M  V30 30551 C 2895.2 -4.2303 0.364852 0
M  V30 30552 O 2896.23 -3.54237 0.373445 0
M  V30 30553 O 2895.09 -5.45548 0.322436 0
M  V30 30554 H 2892.18 -0.826894 0.0132599 0
M  V30 30555 H 2894.73 -1.51296 0.7686 0
M  V30 30556 H 2893.5 -3.62651 1.46969 0
M  V30 30557 H 2893.12 -3.97042 -0.210493 0
M  V30 30558 N 2894.12 -0.437188 -1.51415 0
M  V30 30559 C 2895.07 0.392272 -2.246 0
M  V30 30560 C 2896.05 0.990199 -1.26822 0
M  V30 30561 O 2897.25 0.908364 -1.51914 0
M  V30 30562 C 2894.37 1.49296 -3.09137 0
M  V30 30563 C 2893.46 0.90443 -4.14344 0
M  V30 30564 N 2893.85 0.0450622 -5.0578 0
M  V30 30565 C 2892.15 1.17203 -4.30325 0
M  V30 30566 C 2892.85 -0.285446 -5.80999 0
M  V30 30567 N 2891.83 0.330898 -5.42592 0
M  V30 30568 H 2895.63 -0.270272 -2.92655 0
M  V30 30569 H 2893.14 -0.249254 -1.60476 0
M  V30 30570 H 2895.14 2.10004 -3.60144 0
M  V30 30571 H 2893.8 2.15784 -2.42626 0
M  V30 30572 H 2894.81 -0.321362 -5.16902 0
M  V30 30573 H 2891.49 1.83441 -3.75041 0
M  V30 30574 H 2892.88 -0.984743 -6.64645 0
M  V30 30575 N 2895.6 1.56696 -0.168541 0
M  V30 30576 C 2896.56 2.1662 0.74889 0
M  V30 30577 C 2897.56 1.11353 1.16005 0
M  V30 30578 O 2898.75 1.36881 1.07746 0
M  V30 30579 C 2895.88 2.74681 2.01899 0
M  V30 30580 H 2897.08 2.99038 0.227265 0
M  V30 30581 H 2894.63 1.5609 0.0810098 0
M  V30 30582 H 2895.36 1.95989 2.58377 0
M  V30 30583 H 2895.15 3.51715 1.73317 0
M  V30 30584 H 2896.64 3.20779 2.67378 0
M  V30 30585 N 2897.08 -0.105193 1.57249 0
M  V30 30586 C 2898.03 -1.13446 1.97772 0
M  V30 30587 C 2899.01 -1.36323 0.854678 0
M  V30 30588 O 2900.2 -1.37184 1.11846 0
M  V30 30589 C 2897.33 -2.45741 2.39721 0
M  V30 30590 C 2896.42 -2.2628 3.58689 0
M  V30 30591 N 2896.81 -1.76663 4.73945 0
M  V30 30592 C 2895.11 -2.56885 3.6459 0
M  V30 30593 C 2895.81 -1.71235 5.55926 0
M  V30 30594 N 2894.78 -2.16084 4.98807 0
M  V30 30595 H 2898.58 -0.743614 2.84337 0
M  V30 30596 H 2896.1 -0.312759 1.5936 0
M  V30 30597 H 2898.1 -3.20202 2.66977 0
M  V30 30598 H 2896.76 -2.85571 1.54528 0
M  V30 30599 H 2897.77 -1.46007 4.96893 0
M  V30 30600 H 2894.44 -3.00308 2.90036 0
M  V30 30601 H 2895.83 -1.3401 6.584 0
M  V30 30602 N 2898.55 -1.53055 -0.375752 0
M  V30 30603 C 2899.8 -1.69942 -1.11764 0
M  V30 30604 C 2900.16 -0.440607 -1.87287 0
M  V30 30605 O 2899.45 0.566114 -1.83046 0
M  V30 30606 C 2899.64 -2.88211 -2.11351 0
M  V30 30607 C 2899.47 -4.25473 -1.45612 0
M  V30 30608 C 2898.24 -4.90486 -1.21456 0
M  V30 30609 C 2900.44 -5.06378 -0.899187 0
M  V30 30610 N 2898.42 -6.11697 -0.519598 0
M  V30 30611 C 2899.79 -6.19105 -0.333029 0
M  V30 30612 C 2901.85 -4.91482 -0.796884 0
M  V30 30613 C 2900.55 -7.18563 0.325442 0
M  V30 30614 C 2902.58 -5.91204 -0.152211 0
M  V30 30615 C 2901.94 -7.03246 0.403117 0
M  V30 30616 H 2898.04 -0.675213 -0.394477 0
M  V30 30617 H 2900.62 -1.90433 -0.405377 0
M  V30 30618 H 2898.79 -2.69277 -2.79901 0
M  V30 30619 H 2900.52 -2.9397 -2.78143 0
M  V30 30620 H 2897.28 -4.49447 -1.49311 0
M  V30 30621 H 2897.7 -6.7674 -0.187777 0
M  V30 30622 H 2902.35 -4.05056 -1.212 0
M  V30 30623 H 2900.06 -8.04588 0.75254 0
M  V30 30624 H 2903.65 -5.81753 -0.0741207 0
M  V30 30625 H 2902.53 -7.79087 0.894077 0
M  V30 30626 N 2900.03 0.634971 -1.44242 0
M  V30 30627 C 2901.26 1.4219 -1.50298 0
M  V30 30628 C 2901.68 1.88375 -0.126613 0
M  V30 30629 O 2901.03 1.60604 0.866752 0
M  V30 30630 C 2901.08 2.64478 -2.46442 0
M  V30 30631 O 2900.8 2.20219 -3.78728 0
M  V30 30632 C 2902.31 3.57646 -2.61924 0
M  V30 30633 H 2899.53 0.436201 -0.509872 0
M  V30 30634 H 2902.07 0.776887 -1.89168 0
M  V30 30635 H 2900.22 3.25079 -2.10718 0
M  V30 30636 H 2900.64 2.99472 -4.306 0
M  V30 30637 H 2902.11 4.40068 -3.33233 0
M  V30 30638 H 2902.59 4.06201 -1.67024 0
M  V30 30639 H 2903.2 3.02916 -2.98533 0
M  V30 30640 N 2901.51 1.31076 0.875027 0
M  V30 30641 C 2902.42 1.20248 2.01439 0
M  V30 30642 C 2903.44 0.120258 1.73584 0
M  V30 30643 O 2904.61 0.337098 1.98559 0
M  V30 30644 C 2901.68 0.905258 3.34673 0
M  V30 30645 C 2900.74 2.07386 3.75885 0
M  V30 30646 C 2899.97 1.79073 5.02761 0
M  V30 30647 O 2900.19 0.723417 5.65794 0
M  V30 30648 O 2899.13 2.64604 5.40619 0
M  V30 30649 H 2902.95 2.15984 2.13506 0
M  V30 30650 H 2900.54 1.10767 1.00255 0
M  V30 30651 H 2902.42 0.75513 4.14579 0
M  V30 30652 H 2901.1 -0.0221126 3.23692 0
M  V30 30653 H 2900 2.27937 2.96641 0
M  V30 30654 H 2901.34 2.9833 3.91484 0
M  V30 30655 N 2902.99 -1.08867 1.13955 0
M  V30 30656 C 2903.95 -2.13836 0.825028 0
M  V30 30657 C 2904.95 -1.59918 -0.16817 0
M  V30 30658 O 2906.14 -1.74098 0.0596084 0
M  V30 30659 C 2903.27 -3.4013 0.228998 0
M  V30 30660 H 2904.47 -2.43168 1.75525 0
M  V30 30661 H 2902.02 -1.24501 0.944942 0
M  V30 30662 H 2902.75 -3.16429 -0.710171 0
M  V30 30663 H 2902.54 -3.80559 0.94431 0
M  V30 30664 H 2904.03 -4.17592 0.0259957 0
M  V30 30665 N 2904.47 -0.933936 -1.26946 0
M  V30 30666 C 2905.41 -0.436524 -2.26634 0
M  V30 30667 C 2906.38 0.499925 -1.58398 0
M  V30 30668 O 2907.57 0.41772 -1.86171 0
M  V30 30669 C 2904.71 0.298891 -3.43803 0
M  V30 30670 C 2903.82 -0.672391 -4.26735 0
M  V30 30671 C 2902.96 0.0834938 -5.31134 0
M  V30 30672 C 2902 -0.880086 -6.0574 0
M  V30 30673 N 2901.13 -0.156425 -7.01926 0
M  V30 30674 H 2905.97 -1.29158 -2.68556 0
M  V30 30675 H 2903.51 -0.648142 -1.32051 0
M  V30 30676 H 2905.47 0.741651 -4.10555 0
M  V30 30677 H 2904.1 1.11814 -3.02816 0
M  V30 30678 H 2903.15 -1.23367 -3.5984 0
M  V30 30679 H 2904.46 -1.40855 -4.78499 0
M  V30 30680 H 2903.62 0.585877 -6.03865 0
M  V30 30681 H 2902.35 0.852576 -4.8019 0
M  V30 30682 H 2901.36 -1.39366 -5.31843 0
M  V30 30683 H 2902.58 -1.64905 -6.58774 0
M  V30 30684 H 2900.53 0.594298 -6.53302 0
M  V30 30685 H 2900.45 -0.832038 -7.51407 0
M  V30 30686 H 2901.72 0.325102 -7.78822 0
M  V30 30687 N 2905.94 1.41194 -0.700139 0
M  V30 30688 C 2906.88 2.28196 0.0129213 0
M  V30 30689 C 2907.86 1.42487 0.783342 0
M  V30 30690 O 2909.04 1.71912 0.773208 0
M  V30 30691 C 2906.17 3.22796 1.02569 0
M  V30 30692 C 2905.21 4.25079 0.347903 0
M  V30 30693 S 2906.05 5.27659 -0.913031 0
M  V30 30694 C 2907.2 6.25823 0.0980262 0
M  V30 30695 H 2907.43 2.88325 -0.724978 0
M  V30 30696 H 2904.97 1.46399 -0.49058 0
M  V30 30697 H 2906.93 3.77829 1.60485 0
M  V30 30698 H 2905.59 2.61754 1.73619 0
M  V30 30699 H 2904.78 4.91558 1.11297 0
M  V30 30700 H 2904.38 3.73665 -0.158296 0
M  V30 30701 H 2906.67 6.70809 0.949847 0
M  V30 30702 H 2907.62 7.06091 -0.532962 0
M  V30 30703 H 2908.02 5.62665 0.454845 0
M  V30 30704 N 2907.42 0.445212 1.51181 0
M  V30 30705 C 2908.35 -0.352645 2.30822 0
M  V30 30706 C 2909.33 -1.01393 1.36578 0
M  V30 30707 O 2910.52 -1.01606 1.65499 0
M  V30 30708 C 2907.65 -1.4497 3.15596 0
M  V30 30709 C 2906.6 -0.911479 4.18182 0
M  V30 30710 C 2905.93 -2.10488 4.91527 0
M  V30 30711 C 2907.23 0.0595098 5.22266 0
M  V30 30712 H 2908.92 0.311988 2.9777 0
M  V30 30713 H 2906.47 0.151487 1.43201 0
M  V30 30714 H 2908.42 -2.01514 3.70095 0
M  V30 30715 H 2907.15 -2.14274 2.46484 0
M  V30 30716 H 2905.8 -0.3682 3.64746 0
M  V30 30717 H 2905.45 -2.78429 4.18911 0
M  V30 30718 H 2905.15 -1.7511 5.60901 0
M  V30 30719 H 2906.68 -2.67571 5.48852 0
M  V30 30720 H 2908.09 -0.415884 5.7179 0
M  V30 30721 H 2906.49 0.326258 5.99212 0
M  V30 30722 H 2907.56 0.993714 4.74609 0
M  V30 30723 N 2908.9 -1.56605 0.176849 0
M  V30 30724 C 2909.83 -2.21235 -0.746802 0
M  V30 30725 C 2910.81 -1.16969 -1.235 0
M  V30 30726 O 2912 -1.45417 -1.28715 0
M  V30 30727 C 2909.13 -2.85744 -1.97402 0
M  V30 30728 C 2908.08 -3.96097 -1.62146 0
M  V30 30729 C 2907.41 -4.47681 -2.92379 0
M  V30 30730 C 2908.71 -5.15415 -0.845263 0
M  V30 30731 H 2910.4 -2.98676 -0.208064 0
M  V30 30732 H 2907.95 -1.43662 -0.0986342 0
M  V30 30733 H 2909.9 -3.29634 -2.62525 0
M  V30 30734 H 2908.62 -2.0568 -2.53699 0
M  V30 30735 H 2907.28 -3.5287 -0.993902 0
M  V30 30736 H 2906.93 -3.64402 -3.46728 0
M  V30 30737 H 2906.63 -5.22131 -2.69542 0
M  V30 30738 H 2908.15 -4.94262 -3.58522 0
M  V30 30739 H 2909.57 -5.55964 -1.39919 0
M  V30 30740 H 2907.97 -5.95817 -0.71571 0
M  V30 30741 H 2909.04 -4.84645 0.157324 0
M  V30 30742 N 2910.38 0.0968524 -1.57302 0
M  V30 30743 C 2911.66 0.832241 -1.77012 0
M  V30 30744 C 2912.04 1.97019 -0.758059 0
M  V30 30745 O 2911.38 2.27498 0.213784 0
M  V30 30746 C 2911.59 1.32845 -3.22728 0
M  V30 30747 C 2912.94 1.77194 -3.85859 0
M  V30 30748 O 2913.97 1.42472 -3.26466 0
M  V30 30749 O 2912.82 2.41389 -4.90299 0
M  V30 30750 H 2909.92 0.396843 -0.725565 0
M  V30 30751 H 2912.46 0.0788707 -1.69517 0
M  V30 30752 H 2911.24 0.513052 -3.87922 0
M  V30 30753 H 2910.86 2.14388 -3.34849 0
M  V30 30754 N 2911.86 1.53252 0.36763 0
M  V30 30755 C 2912.8 1.80213 1.47058 0
M  V30 30756 C 2913.8 0.671139 1.55538 0
M  V30 30757 O 2915 0.854042 1.58449 0
M  V30 30758 H 2911.38 0.570564 0.489858 0
M  V30 30759 H 2913.35 2.72534 1.21522 0
M  V30 30760 C 2912.1 2.00711 2.8392 0
M  V30 30761 H 2911.42 2.87177 2.78153 0
M  V30 30762 H 2912.86 2.23553 3.60277 0
M  V30 30763 C 2911.32 0.785625 3.27612 0
M  V30 30764 O 2911.85 -0.0266753 4.01691 0
M  V30 30765 N 2910.06 0.609647 2.84133 0
M  V30 30766 H 2909.6 1.27182 2.24015 0
M  V30 30767 H 2909.56 -0.206226 3.13723 0
M  V30 30768 N 2913.34 -0.627313 1.44577 0
M  V30 30769 C 2914.58 -1.38279 1.4684 0
M  V30 30770 C 2914.9 -1.9531 0.106385 0
M  V30 30771 O 2916.1 -2.71499 0.00655857 0
M  V30 30772 C 2914.56 -2.50379 2.58531 0
M  V30 30773 C 2914.17 -1.99844 4.00957 0
M  V30 30774 C 2915.91 -3.27552 2.70019 0
M  V30 30775 C 2913.82 -3.09309 5.04065 0
M  V30 30776 H 2912.75 -0.519655 0.546329 0
M  V30 30777 H 2915.4 -0.674467 1.70655 0
M  V30 30778 H 2913.78 -3.23804 2.27963 0
M  V30 30779 H 2914.96 -1.33259 4.41111 0
M  V30 30780 H 2913.27 -1.35475 3.93745 0
M  V30 30781 H 2915.87 -4.09162 3.44224 0
M  V30 30782 H 2916.21 -3.77281 1.75967 0
M  V30 30783 H 2916.74 -2.61219 3.00016 0
M  V30 30784 H 2913.48 -2.64519 5.99758 0
M  V30 30785 H 2913 -3.74523 4.685 0
M  V30 30786 H 2914.68 -3.74021 5.27937 0
M  V30 30787 N 2914.81 -1.31539 -0.868063 0
M  V30 30788 C 2915.76 -1.19283 -1.99686 0
M  V30 30789 C 2916.76 -0.100686 -1.69101 0
M  V30 30790 O 2917.96 -0.262708 -1.78073 0
M  V30 30791 H 2914.34 -0.369386 -0.655025 0
M  V30 30792 H 2916.31 -2.1478 -2.07153 0
M  V30 30793 C 2915.06 -0.918951 -3.35337 0
M  V30 30794 H 2914.38 -1.75148 -3.59393 0
M  V30 30795 H 2915.82 -0.873384 -4.14907 0
M  V30 30796 C 2914.28 0.378307 -3.34769 0
M  V30 30797 O 2914.81 1.39449 -3.76718 0
M  V30 30798 N 2913.01 0.395519 -2.87896 0
M  V30 30799 H 2912.56 -0.431934 -2.53953 0
M  V30 30800 H 2912.52 1.26339 -2.87899 0
M  V30 30801 N 2916.29 1.08262 -1.1453 0
M  V30 30802 C 2917.52 1.84416 -0.937996 0
M  V30 30803 C 2917.93 1.81682 0.513538 0
M  V30 30804 O 2917.29 1.22155 1.35589 0
M  V30 30805 C 2917.34 3.31894 -1.43277 0
M  V30 30806 O 2917.06 3.34646 -2.82744 0
M  V30 30807 C 2918.56 4.24849 -1.26562 0
M  V30 30808 H 2915.78 0.58213 -0.333714 0
M  V30 30809 H 2918.33 1.3672 -1.52078 0
M  V30 30810 H 2916.48 3.76974 -0.892719 0
M  V30 30811 H 2916.9 4.26718 -3.04978 0
M  V30 30812 H 2918.37 5.26436 -1.6604 0
M  V30 30813 H 2918.85 4.38704 -0.208666 0
M  V30 30814 H 2919.45 3.85597 -1.7943 0
M  V30 30815 N 2917.77 0.940655 1.26449 0
M  V30 30816 C 2919.18 0.630683 1.75725 0
M  V30 30817 C 2919.53 -0.854136 1.76632 0
M  V30 30818 O 2918.66 -1.66845 1.3781 0
M  V30 30819 C 2919.25 1.13811 3.19112 0
M  V30 30820 C 2917.81 0.878561 3.66003 0
M  V30 30821 C 2916.96 1.28932 2.45503 0
M  V30 30822 H 2919.91 1.11902 1.12533 0
M  V30 30823 H 2919.93 0.491691 3.7731 0
M  V30 30824 H 2919.44 2.21879 3.1842 0
M  V30 30825 H 2917.54 -0.187768 3.72127 0
M  V30 30826 H 2917.66 1.5052 4.54841 0
M  V30 30827 H 2916.02 0.707756 2.44669 0
M  V30 30828 H 2916.8 2.37893 2.47512 0
M  V30 30829 N 2919.25 -1.40821 0.707617 0
M  V30 30830 C 2920.16 -2.34545 0.0507658 0
M  V30 30831 C 2921.17 -1.56877 -0.7527 0
M  V30 30832 O 2922.35 -1.89303 -0.687491 0
M  V30 30833 C 2919.41 -3.35719 -0.865672 0
M  V30 30834 C 2918.48 -4.29267 -0.0530559 0
M  V30 30835 C 2917.71 -5.25608 -0.925846 0
M  V30 30836 O 2917.93 -5.27707 -2.16521 0
M  V30 30837 O 2916.87 -6.00767 -0.369088 0
M  V30 30838 H 2920.69 -2.92318 0.823639 0
M  V30 30839 H 2918.28 -1.4188 0.468035 0
M  V30 30840 H 2920.16 -3.97786 -1.39084 0
M  V30 30841 H 2918.83 -2.80371 -1.61783 0
M  V30 30842 H 2917.74 -3.7051 0.516996 0
M  V30 30843 H 2919.07 -4.87745 0.660702 0
M  V30 30844 N 2920.73 -0.453223 -1.50943 0
M  V30 30845 C 2921.97 0.107674 -2.01813 0
M  V30 30846 C 2922.29 1.41813 -1.33843 0
M  V30 30847 O 2921.56 1.89979 -0.478006 0
M  V30 30848 H 2920.14 0.0427817 -0.745774 0
M  V30 30849 H 2922.81 -0.599564 -1.85449 0
M  V30 30850 H 2921.9 0.272126 -3.10911 0
M  V30 30851 N 2922.2 1.56509 -0.185151 0
M  V30 30852 C 2923.45 1.96469 0.456386 0
M  V30 30853 C 2923.77 1.07447 1.63446 0
M  V30 30854 O 2924.97 1.37147 2.34314 0
M  V30 30855 C 2923.43 3.49391 0.863343 0
M  V30 30856 C 2923.04 4.47061 -0.289894 0
M  V30 30857 C 2924.78 3.98142 1.47252 0
M  V30 30858 C 2922.69 5.9124 0.137467 0
M  V30 30859 H 2921.62 0.733583 0.174277 0
M  V30 30860 H 2924.27 1.81419 -0.275586 0
M  V30 30861 H 2922.65 3.5991 1.6517 0
M  V30 30862 H 2923.82 4.48268 -1.06735 0
M  V30 30863 H 2922.14 4.08447 -0.809922 0
M  V30 30864 H 2924.74 5.03329 1.80454 0
M  V30 30865 H 2925.08 3.41875 2.37544 0
M  V30 30866 H 2925.61 3.90698 0.748336 0
M  V30 30867 H 2922.35 6.51411 -0.731021 0
M  V30 30868 H 2921.87 5.93309 0.879996 0
M  V30 30869 H 2923.55 6.44425 0.576658 0
M  V30 30870 N 2923.68 -0.0885089 1.57351 0
M  V30 30871 C 2924.93 -0.789524 1.85606 0
M  V30 30872 C 2925.24 -1.79575 0.775384 0
M  V30 30873 O 2926.45 -2.54514 0.945251 0
M  V30 30874 C 2924.91 -1.455 3.29177 0
M  V30 30875 C 2924.51 -0.4882 4.45332 0
M  V30 30876 C 2926.26 -2.13936 3.66649 0
M  V30 30877 C 2924.16 -1.15864 5.79939 0
M  V30 30878 H 2923.09 -0.298607 0.692351 0
M  V30 30879 H 2925.75 -0.0425499 1.83451 0
M  V30 30880 H 2924.13 -2.24966 3.25893 0
M  V30 30881 H 2925.3 0.27544 4.59976 0
M  V30 30882 H 2923.62 0.0908095 4.16301 0
M  V30 30883 H 2926.21 -2.64842 4.64503 0
M  V30 30884 H 2926.56 -2.93127 2.95605 0
M  V30 30885 H 2927.09 -1.41322 3.71851 0
M  V30 30886 H 2923.83 -0.407393 6.54233 0
M  V30 30887 H 2923.35 -1.89354 5.69126 0
M  V30 30888 H 2925.03 -1.68325 6.24721 0
M  V30 30889 N 2925.16 -1.53445 -0.359498 0
M  V30 30890 C 2926.57 -1.61543 -0.935981 0
M  V30 30891 C 2926.92 -0.486666 -1.90068 0
M  V30 30892 O 2926.05 0.386009 -2.12929 0
M  V30 30893 C 2926.64 -2.92809 -1.70436 0
M  V30 30894 C 2925.2 -3.03222 -2.23009 0
M  V30 30895 C 2924.35 -2.56883 -1.04434 0
M  V30 30896 H 2927.3 -1.58098 -0.138106 0
M  V30 30897 H 2927.32 -2.80953 -2.56604 0
M  V30 30898 H 2926.83 -3.74943 -1.00198 0
M  V30 30899 H 2924.93 -2.25689 -2.96471 0
M  V30 30900 H 2925.05 -4.08411 -2.50474 0
M  V30 30901 H 2923.41 -2.11905 -1.4131 0
M  V30 30902 H 2924.19 -3.4144 -0.356845 0
M  V30 30903 N 2926.64 0.619637 -1.44908 0
M  V30 30904 C 2927.6 1.71295 -1.52285 0
M  V30 30905 C 2928.6 1.55652 -0.403617 0
M  V30 30906 O 2929.79 1.60938 -0.666667 0
M  V30 30907 C 2926.92 3.10472 -1.40783 0
M  V30 30908 H 2928.12 1.66124 -2.49686 0
M  V30 30909 H 2925.67 0.834315 -1.3217 0
M  V30 30910 H 2926.4 3.21229 -0.445212 0
M  V30 30911 H 2926.19 3.23233 -2.21952 0
M  V30 30912 H 2927.68 3.90132 -1.48952 0
M  V30 30913 N 2928.12 1.31997 0.861075 0
M  V30 30914 C 2929.05 1.22997 1.98479 0
M  V30 30915 C 2930.03 0.115198 1.69709 0
M  V30 30916 O 2931.21 0.301294 1.91849 0
M  V30 30917 C 2928.34 0.945674 3.34177 0
M  V30 30918 C 2927.3 2.02098 3.7728 0
M  V30 30919 C 2926.62 1.58921 5.10537 0
M  V30 30920 C 2927.92 3.43522 3.93433 0
M  V30 30921 H 2929.62 2.17012 2.06268 0
M  V30 30922 H 2927.16 1.04473 0.991025 0
M  V30 30923 H 2929.12 0.869279 4.12337 0
M  V30 30924 H 2927.84 -0.0301275 3.26586 0
M  V30 30925 H 2926.5 2.08742 3.01368 0
M  V30 30926 H 2926.15 0.60103 4.99396 0
M  V30 30927 H 2925.85 2.30864 5.40348 0
M  V30 30928 H 2927.37 1.52706 5.91196 0
M  V30 30929 H 2928.78 3.39503 4.61964 0
M  V30 30930 H 2927.18 4.13759 4.34653 0
M  V30 30931 H 2928.25 3.83655 2.96542 0
M  V30 30932 N 2929.59 -1.07653 1.15103 0
M  V30 30933 C 2930.84 -1.8019 0.924006 0
M  V30 30934 C 2931.17 -1.8659 -0.549032 0
M  V30 30935 O 2930.42 -1.34343 -1.42304 0
M  V30 30936 C 2930.72 -3.25335 1.4796 0
M  V30 30937 C 2930.39 -3.39039 2.97259 0
M  V30 30938 C 2929.05 -3.42487 3.38018 0
M  V30 30939 C 2931.4 -3.42087 3.93225 0
M  V30 30940 C 2928.73 -3.46582 4.7339 0
M  V30 30941 C 2931.08 -3.47719 5.28464 0
M  V30 30942 C 2929.75 -3.49443 5.68723 0
M  V30 30943 H 2929.02 -0.659361 0.338118 0
M  V30 30944 H 2931.66 -1.26698 1.43596 0
M  V30 30945 H 2929.97 -3.81587 0.888758 0
M  V30 30946 H 2931.67 -3.80029 1.27979 0
M  V30 30947 H 2928.26 -3.37052 2.64752 0
M  V30 30948 H 2932.44 -3.38647 3.62811 0
M  V30 30949 H 2927.7 -3.46213 5.03931 0
M  V30 30950 H 2931.87 -3.49023 6.02624 0
M  V30 30951 H 2929.5 -3.52369 6.73603 0
M  V30 30952 N 2931.07 -0.947348 -1.25949 0
M  V30 30953 C 2931.98 -0.46812 -2.29882 0
M  V30 30954 C 2933 0.460946 -1.67783 0
M  V30 30955 O 2934.17 0.338971 -1.98527 0
M  V30 30956 C 2931.24 0.253254 -3.45774 0
M  V30 30957 C 2930.3 -0.713129 -4.23336 0
M  V30 30958 C 2929.53 -0.0260868 -5.33694 0
M  V30 30959 O 2929.76 1.18968 -5.57856 0
M  V30 30960 O 2928.69 -0.707925 -5.97722 0
M  V30 30961 H 2932.52 -1.33161 -2.7295 0
M  V30 30962 H 2930.1 -0.713491 -1.31262 0
M  V30 30963 H 2931.98 0.65935 -4.1621 0
M  V30 30964 H 2930.66 1.09204 -3.04723 0
M  V30 30965 H 2929.57 -1.16929 -3.55357 0
M  V30 30966 H 2930.9 -1.51971 -4.68151 0
M  V30 30967 N 2932.55 1.40444 -0.715075 0
M  V30 30968 C 2933.96 1.83818 -0.326796 0
M  V30 30969 C 2934.31 1.59791 1.13848 0
M  V30 30970 O 2933.44 1.07852 1.87609 0
M  V30 30971 C 2934.03 3.33687 -0.586356 0
M  V30 30972 C 2932.59 3.75557 -0.25179 0
M  V30 30973 C 2931.74 2.63661 -0.858974 0
M  V30 30974 H 2934.69 1.29719 -0.914264 0
M  V30 30975 H 2934.71 3.8021 0.148569 0
M  V30 30976 H 2934.22 3.51143 -1.65288 0
M  V30 30977 H 2932.32 3.63696 0.80969 0
M  V30 30978 H 2932.44 4.73652 -0.720431 0
M  V30 30979 H 2930.8 2.53077 -0.287058 0
M  V30 30980 H 2931.58 2.83929 -1.92975 0
M  V30 30981 N 2934.03 0.461222 1.507 0
M  V30 30982 C 2934.94 -0.34362 2.3207 0
M  V30 30983 C 2935.95 -1.00533 1.42018 0
M  V30 30984 O 2937.13 -0.995468 1.75078 0
M  V30 30985 C 2934.2 -1.41687 3.16426 0
M  V30 30986 C 2933.26 -0.772795 4.22287 0
M  V30 30987 C 2932.49 -1.7949 5.02612 0
M  V30 30988 O 2932.71 -3.02021 4.8388 0
M  V30 30989 O 2931.65 -1.37219 5.8605 0
M  V30 30990 H 2935.47 0.321321 3.01995 0
M  V30 30991 H 2933.06 0.223261 1.47722 0
M  V30 30992 H 2934.94 -2.03876 3.68799 0
M  V30 30993 H 2933.61 -2.06546 2.4924 0
M  V30 30994 H 2932.52 -0.112211 3.73932 0
M  V30 30995 H 2933.85 -0.167313 4.91916 0
M  V30 30996 N 2935.51 -1.56408 0.193449 0
M  V30 30997 C 2936.92 -1.58771 -0.16242 0
M  V30 30998 C 2937.12 -1.20957 -1.61157 0
M  V30 30999 O 2936.18 -0.931538 -2.34688 0
M  V30 31000 C 2937.49 -3.00381 0.138444 0
M  V30 31001 C 2939.04 -3.12902 0.0784199 0
M  V30 31002 C 2939.51 -4.56641 0.352571 0
M  V30 31003 N 2941.01 -4.6222 0.301131 0
M  V30 31004 C 2941.74 -5.71327 0.487128 0
M  V30 31005 N 2941.24 -6.88907 0.733386 0
M  V30 31006 N 2943.03 -5.60517 0.421499 0
M  V30 31007 H 2935.18 -1.7927 1.13912 0
M  V30 31008 H 2937.44 -0.831922 0.454543 0
M  V30 31009 H 2937.15 -3.32602 1.14318 0
M  V30 31010 H 2937.02 -3.73024 -0.559738 0
M  V30 31011 H 2939.41 -2.80494 -0.916914 0
M  V30 31012 H 2939.49 -2.42648 0.809654 0
M  V30 31013 H 2939.14 -4.89762 1.34522 0
M  V30 31014 H 2939.07 -5.25082 -0.399532 0
M  V30 31015 H 2941.56 -3.77718 0.117345 0
M  V30 31016 H 2941.87 -7.67953 0.864165 0
M  V30 31017 H 2940.21 -6.90718 0.77026 0
M  V30 31018 H 2943.41 -4.67537 0.229543 0
M  V30 31019 H 2943.58 -6.45489 0.569872 0
M  V30 31020 N 2936.98 0.0801629 -1.57396 0
M  V30 31021 C 2937.89 1.11419 -2.06453 0
M  V30 31022 C 2938.91 1.42926 -0.992377 0
M  V30 31023 O 2940.09 1.5327 -1.30653 0
M  V30 31024 C 2937.15 2.41073 -2.49168 0
M  V30 31025 C 2936.21 2.16613 -3.70644 0
M  V30 31026 C 2935.45 3.40085 -4.11313 0
M  V30 31027 O 2935.67 4.48889 -3.5193 0
M  V30 31028 O 2934.6 3.28791 -5.04163 0
M  V30 31029 H 2938.43 0.727467 -2.94859 0
M  V30 31030 H 2936.01 0.293717 -1.46484 0
M  V30 31031 H 2937.9 3.17391 -2.77202 0
M  V30 31032 H 2936.57 2.79142 -1.63895 0
M  V30 31033 H 2935.48 1.38027 -3.47706 0
M  V30 31034 H 2936.81 1.83429 -4.56743 0
M  V30 31035 N 2938.46 1.53634 0.351355 0
M  V30 31036 C 2939.41 1.81074 1.43112 0
M  V30 31037 C 2940.38 0.655939 1.526 0
M  V30 31038 O 2941.56 0.89958 1.68262 0
M  V30 31039 C 2938.7 2.01908 2.7987 0
M  V30 31040 C 2937.82 3.29623 2.79236 0
M  V30 31041 C 2936.95 3.40567 4.07661 0
M  V30 31042 C 2935.99 4.62261 4.01225 0
M  V30 31043 N 2935.13 4.7028 5.21326 0
M  V30 31044 H 2939.97 2.73203 1.19012 0
M  V30 31045 H 2937.51 1.35325 0.576667 0
M  V30 31046 H 2939.46 2.11975 3.59336 0
M  V30 31047 H 2938.09 1.13099 3.02338 0
M  V30 31048 H 2937.15 3.28436 1.91921 0
M  V30 31049 H 2938.46 4.19177 2.70356 0
M  V30 31050 H 2937.61 3.50024 4.95548 0
M  V30 31051 H 2936.35 2.49055 4.19313 0
M  V30 31052 H 2935.36 4.52889 3.11724 0
M  V30 31053 H 2936.58 5.55129 3.91164 0
M  V30 31054 H 2934.53 3.81675 5.33536 0
M  V30 31055 H 2934.44 5.53759 5.14672 0
M  V30 31056 H 2935.71 4.84038 6.11005 0
M  V30 31057 N 2939.94 -0.611943 1.45234 0
M  V30 31058 C 2941.17 -1.40272 1.5277 0
M  V30 31059 C 2941.59 -1.87421 0.159734 0
M  V30 31060 O 2940.95 -1.59883 -0.854808 0
M  V30 31061 C 2941 -2.58622 2.51291 0
M  V30 31062 O 2940.1 -3.59107 2.0277 0
M  V30 31063 H 2939.44 -0.418949 0.515148 0
M  V30 31064 H 2941.97 -0.745154 1.90548 0
M  V30 31065 H 2941.98 -3.05922 2.69955 0
M  V30 31066 H 2940.66 -2.23653 3.50645 0
M  V30 31067 H 2939.23 -3.18485 1.93963 0
M  V30 31068 N 2941.42 -1.32452 -0.854063 0
M  V30 31069 C 2942.38 -1.21375 -1.94424 0
M  V30 31070 C 2943.38 -0.136641 -1.60218 0
M  V30 31071 O 2944.57 -0.387086 -1.69845 0
M  V30 31072 C 2941.7 -0.866759 -3.29697 0
M  V30 31073 H 2942.9 -2.18261 -2.05675 0
M  V30 31074 H 2940.45 -1.16292 -1.04432 0
M  V30 31075 H 2941.18 0.100262 -3.24145 0
M  V30 31076 H 2940.97 -1.64551 -3.55901 0
M  V30 31077 H 2942.46 -0.813587 -4.09598 0
M  V30 31078 N 2942.9 1.07041 -1.15672 0
M  V30 31079 C 2943.86 2.12497 -0.858943 0
M  V30 31080 C 2944.86 1.60165 0.142707 0
M  V30 31081 O 2946.05 1.73981 -0.0872984 0
M  V30 31082 C 2943.18 3.39723 -0.28308 0
M  V30 31083 H 2944.38 2.40345 -1.79372 0
M  V30 31084 H 2941.93 1.22982 -0.964629 0
M  V30 31085 H 2942.66 3.17518 0.65974 0
M  V30 31086 H 2942.45 3.79009 -1.00473 0
M  V30 31087 H 2943.94 4.17498 -0.0924277 0
M  V30 31088 N 2944.38 0.954014 1.25445 0
M  V30 31089 C 2945.62 0.604135 1.9244 0
M  V30 31090 C 2945.94 -0.862765 1.75544 0
M  V30 31091 O 2947.14 -1.32258 2.37108 0
M  V30 31092 C 2945.6 1.0298 3.44852 0
M  V30 31093 C 2945.21 2.5192 3.70459 0
M  V30 31094 C 2946.95 0.752425 4.17778 0
M  V30 31095 C 2944.86 2.8829 5.16374 0
M  V30 31096 H 2943.79 0.22224 0.720504 0
M  V30 31097 H 2946.44 1.15838 1.42316 0
M  V30 31098 H 2944.82 0.403973 3.93934 0
M  V30 31099 H 2946 3.19517 3.32033 0
M  V30 31100 H 2944.31 2.77123 3.10792 0
M  V30 31101 H 2946.91 1.00033 5.25259 0
M  V30 31102 H 2947.25 -0.311139 4.15136 0
M  V30 31103 H 2947.78 1.33857 3.74603 0
M  V30 31104 H 2944.52 3.93662 5.24128 0
M  V30 31105 H 2944.04 2.25367 5.55851 0
M  V30 31106 H 2945.72 2.77449 5.84492 0
M  V30 31107 N 2945.85 -1.40063 0.722513 0
M  V30 31108 C 2947.13 -1.94657 0.191863 0
M  V30 31109 C 2947.51 -1.6602 -1.30386 0
M  V30 31110 O 2946.86 -0.981624 -2.0634 0
M  V30 31111 C 2947.07 -3.45223 0.512039 0
M  V30 31112 C 2948.42 -4.2216 0.454501 0
M  V30 31113 O 2949.44 -3.53365 0.4485 0
M  V30 31114 O 2948.3 -5.44741 0.438082 0
M  V30 31115 H 2945.39 -0.826426 0.0307966 0
M  V30 31116 H 2947.94 -1.49632 0.800519 0
M  V30 31117 H 2946.71 -3.59452 1.54628 0
M  V30 31118 H 2946.33 -3.974 -0.126227 0
M  V30 31119 N 2947.33 -0.469207 -1.50453 0
M  V30 31120 C 2948.58 0.0862627 -2.01916 0
M  V30 31121 C 2948.9 1.40386 -1.3534 0
M  V30 31122 O 2948.17 1.89461 -0.498129 0
M  V30 31123 H 2946.75 0.0348693 -0.746186 0
M  V30 31124 H 2949.41 -0.619199 -1.84802 0
M  V30 31125 H 2948.51 0.239134 -3.11183 0
M  V30 31126 N 2948.81 1.56303 -0.201741 0
M  V30 31127 C 2949.72 2.2301 0.728256 0
M  V30 31128 C 2950.74 1.2313 1.22943 0
M  V30 31129 O 2951.91 1.55886 1.2752 0
M  V30 31130 C 2948.98 2.88157 1.92787 0
M  V30 31131 C 2948.04 4.03326 1.47061 0
M  V30 31132 C 2947.27 4.65356 2.61304 0
M  V30 31133 O 2947.49 4.26323 3.78952 0
M  V30 31134 O 2946.43 5.54705 2.33637 0
M  V30 31135 H 2950.25 3.03104 0.190113 0
M  V30 31136 H 2947.84 1.49374 0.0278463 0
M  V30 31137 H 2949.72 3.29348 2.62884 0
M  V30 31138 H 2948.4 2.11037 2.45449 0
M  V30 31139 H 2947.3 3.66744 0.738234 0
M  V30 31140 H 2948.64 4.82129 0.990581 0
M  V30 31141 N 2950.29 -0.0718147 1.57436 0
M  V30 31142 C 2951.52 -0.782762 1.91197 0
M  V30 31143 C 2951.93 -1.71643 0.795958 0
M  V30 31144 O 2951.27 -1.82131 -0.239572 0
M  V30 31145 C 2951.33 -1.63 3.20424 0
M  V30 31146 C 2950.99 -0.865704 4.48725 0
M  V30 31147 C 2951.99 -0.18496 5.19571 0
M  V30 31148 C 2949.68 -0.832884 4.95347 0
M  V30 31149 C 2951.67 0.518376 6.35289 0
M  V30 31150 C 2949.36 -0.125777 6.10971 0
M  V30 31151 C 2950.36 0.548653 6.80793 0
M  V30 31152 O 2950.04 1.24437 7.94211 0
M  V30 31153 H 2949.78 -0.22772 0.63649 0
M  V30 31154 H 2952.33 -0.0463826 2.05348 0
M  V30 31155 H 2950.56 -2.40918 3.02482 0
M  V30 31156 H 2952.25 -2.21962 3.39835 0
M  V30 31157 H 2953.01 -0.201622 4.84581 0
M  V30 31158 H 2948.89 -1.34729 4.40873 0
M  V30 31159 H 2952.44 1.04535 6.89723 0
M  V30 31160 H 2948.33 -0.107042 6.45411 0
M  V30 31161 H 2949.1 1.15364 8.10329 0
M  V30 31162 N 2951.77 -1.53818 -0.343203 0
M  V30 31163 C 2953.18 -1.44089 -0.68633 0
M  V30 31164 C 2953.38 -0.597916 -1.92425 0
M  V30 31165 O 2952.44 -0.0890362 -2.52343 0
M  V30 31166 C 2953.75 -2.87577 -0.878648 0
M  V30 31167 C 2955.3 -2.97353 -0.977243 0
M  V30 31168 C 2955.77 -4.41949 -1.20187 0
M  V30 31169 N 2957.26 -4.45476 -1.26907 0
M  V30 31170 C 2958 -5.54491 -1.46039 0
M  V30 31171 N 2957.5 -6.73511 -1.62342 0
M  V30 31172 N 2959.29 -5.42105 -1.4859 0
M  V30 31173 H 2951.44 -2.07118 0.470715 0
M  V30 31174 H 2953.7 -0.93627 0.148668 0
M  V30 31175 H 2953.41 -3.51677 -0.0405402 0
M  V30 31176 H 2953.28 -3.32544 -1.78028 0
M  V30 31177 H 2955.67 -2.33393 -1.80587 0
M  V30 31178 H 2955.75 -2.55746 -0.0525048 0
M  V30 31179 H 2955.39 -5.0649 -0.378173 0
M  V30 31180 H 2955.32 -4.81148 -2.14018 0
M  V30 31181 H 2957.82 -3.5971 -1.15831 0
M  V30 31182 H 2958.13 -7.52356 -1.76578 0
M  V30 31183 H 2956.47 -6.76455 -1.59478 0
M  V30 31184 H 2959.66 -4.48079 -1.35436 0
M  V30 31185 H 2959.84 -6.27123 -1.63159 0
M  V30 31186 N 2953.24 0.604233 -1.45557 0
M  V30 31187 C 2954.17 1.72539 -1.5733 0
M  V30 31188 C 2955.15 1.64714 -0.424666 0
M  V30 31189 O 2956.34 1.83062 -0.648228 0
M  V30 31190 C 2953.47 3.11149 -1.54284 0
M  V30 31191 C 2952.42 3.33788 -2.67899 0
M  V30 31192 C 2951.75 4.72705 -2.49908 0
M  V30 31193 C 2953.05 3.23715 -4.09886 0
M  V30 31194 H 2954.74 1.62942 -2.51177 0
M  V30 31195 H 2952.29 0.782483 -1.20885 0
M  V30 31196 H 2954.24 3.89383 -1.61117 0
M  V30 31197 H 2952.97 3.21593 -0.569684 0
M  V30 31198 H 2951.63 2.57945 -2.60499 0
M  V30 31199 H 2951.27 4.79887 -1.50724 0
M  V30 31200 H 2950.97 4.88807 -3.261 0
M  V30 31201 H 2952.5 5.53135 -2.586 0
M  V30 31202 H 2953.91 3.91819 -4.1851 0
M  V30 31203 H 2952.31 3.51346 -4.86494 0
M  V30 31204 H 2953.38 2.21104 -4.31557 0
M  V30 31205 N 2954.72 1.32903 0.847027 0
M  V30 31206 C 2955.67 1.22477 1.95622 0
M  V30 31207 C 2956.64 0.105207 1.65766 0
M  V30 31208 O 2957.82 0.282075 1.88703 0
M  V30 31209 C 2954.96 0.9616 3.31432 0
M  V30 31210 C 2954.08 2.16667 3.73737 0
M  V30 31211 C 2953.21 1.83834 4.98376 0
M  V30 31212 C 2952.25 3.00618 5.33193 0
M  V30 31213 N 2951.39 2.67827 6.49009 0
M  V30 31214 H 2956.23 2.17348 2.03872 0
M  V30 31215 H 2953.76 1.0809 0.997745 0
M  V30 31216 H 2955.72 0.789484 4.09662 0
M  V30 31217 H 2954.35 0.0496505 3.22762 0
M  V30 31218 H 2953.4 2.44881 2.91097 0
M  V30 31219 H 2954.72 3.04 3.95456 0
M  V30 31220 H 2953.87 1.63218 5.84333 0
M  V30 31221 H 2952.61 0.937256 4.78609 0
M  V30 31222 H 2951.61 3.21857 4.45745 0
M  V30 31223 H 2952.84 3.9147 5.54913 0
M  V30 31224 H 2950.79 1.80269 6.30745 0
M  V30 31225 H 2950.7 3.4869 6.70784 0
M  V30 31226 H 2951.97 2.5066 7.38099 0
M  V30 31227 N 2956.2 -1.06426 1.16238 0
M  V30 31228 C 2957.45 -1.78846 0.941202 0
M  V30 31229 C 2957.77 -1.8759 -0.532447 0
M  V30 31230 O 2957.04 -1.38361 -1.38683 0
M  V30 31231 H 2955.62 -0.662434 0.345239 0
M  V30 31232 H 2958.28 -1.28567 1.46481 0
M  V30 31233 H 2957.38 -2.8097 1.35876 0
M  V30 31234 N 2957.68 -0.960653 -1.24937 0
M  V30 31235 C 2958.59 -0.492475 -2.29373 0
M  V30 31236 C 2959.6 0.443124 -1.68263 0
M  V30 31237 O 2960.78 0.317895 -1.98875 0
M  V30 31238 C 2957.85 0.216566 -3.46023 0
M  V30 31239 C 2956.91 -0.757989 -4.22555 0
M  V30 31240 C 2956.14 -0.0826907 -5.33636 0
M  V30 31241 O 2956.36 1.13045 -5.59086 0
M  V30 31242 O 2955.3 -0.771282 -5.96938 0
M  V30 31243 H 2959.12 -1.36049 -2.71522 0
M  V30 31244 H 2956.71 -0.727373 -1.30498 0
M  V30 31245 H 2958.59 0.615168 -4.16886 0
M  V30 31246 H 2957.26 1.05966 -3.05864 0
M  V30 31247 H 2956.17 -1.20692 -3.54097 0
M  V30 31248 H 2957.5 -1.56928 -4.66513 0
M  V30 31249 N 2959.16 1.39677 -0.729931 0
M  V30 31250 C 2960.38 2.05441 -0.284382 0
M  V30 31251 C 2960.81 1.54665 1.07054 0
M  V30 31252 O 2960.16 0.688187 1.67731 0
M  V30 31253 C 2960.21 3.59431 -0.290152 0
M  V30 31254 O 2959.32 4.05997 0.723906 0
M  V30 31255 H 2958.66 0.651085 -0.130322 0
M  V30 31256 H 2961.19 1.78808 -0.994434 0
M  V30 31257 H 2961.2 4.07784 -0.132784 0
M  V30 31258 H 2959.87 3.95751 -1.27884 0
M  V30 31259 H 2958.45 3.6907 0.533089 0
M  V30 31260 N 2960.63 0.47718 1.50202 0
M  V30 31261 C 2962.05 0.131691 1.59056 0
M  V30 31262 C 2962.25 -1.36225 1.48476 0
M  V30 31263 O 2961.31 -2.13609 1.34638 0
M  V30 31264 C 2962.62 0.687306 2.9274 0
M  V30 31265 C 2964.17 0.651277 3.06149 0
M  V30 31266 C 2964.64 1.18454 4.42417 0
M  V30 31267 N 2966.13 1.14421 4.48845 0
M  V30 31268 C 2966.87 1.52727 5.52686 0
M  V30 31269 N 2966.36 1.98511 6.63751 0
M  V30 31270 N 2968.16 1.44292 5.43265 0
M  V30 31271 H 2960.31 1.44874 1.55323 0
M  V30 31272 H 2962.57 0.599486 0.734385 0
M  V30 31273 H 2962.28 1.7341 3.05977 0
M  V30 31274 H 2962.15 0.134282 3.76961 0
M  V30 31275 H 2964.54 -0.386626 2.92556 0
M  V30 31276 H 2964.62 1.24118 2.2367 0
M  V30 31277 H 2964.26 2.22111 4.5676 0
M  V30 31278 H 2964.19 0.570801 5.23497 0
M  V30 31279 H 2966.68 0.808481 3.6915 0
M  V30 31280 H 2967 2.25872 7.39055 0
M  V30 31281 H 2965.34 2.02468 6.64855 0
M  V30 31282 H 2968.53 1.0836 4.55385 0
M  V30 31283 H 2968.71 1.7447 6.24071 0
M  V30 31284 N 2962.11 -1.56194 0.210027 0
M  V30 31285 C 2963.06 -2.19775 -0.704815 0
M  V30 31286 C 2964.03 -1.14966 -1.19884 0
M  V30 31287 O 2965.21 -1.43276 -1.26002 0
M  V30 31288 C 2962.35 -2.87268 -1.91236 0
M  V30 31289 C 2961.47 -4.06641 -1.45831 0
M  V30 31290 C 2960.6 -4.61949 -2.62252 0
M  V30 31291 C 2959.64 -5.73649 -2.13527 0
M  V30 31292 N 2958.78 -6.23298 -3.23179 0
M  V30 31293 H 2963.62 -2.97592 -0.155892 0
M  V30 31294 H 2961.16 -1.46955 -0.0651977 0
M  V30 31295 H 2963.11 -3.24577 -2.62117 0
M  V30 31296 H 2961.74 -2.11989 -2.43435 0
M  V30 31297 H 2960.8 -3.74895 -0.644831 0
M  V30 31298 H 2962.11 -4.87386 -1.06094 0
M  V30 31299 H 2961.26 -5.01642 -3.41234 0
M  V30 31300 H 2960 -3.80343 -3.05271 0
M  V30 31301 H 2959.01 -5.3347 -1.33004 0
M  V30 31302 H 2960.23 -6.57082 -1.71521 0
M  V30 31303 H 2958.18 -5.44609 -3.65701 0
M  V30 31304 H 2958.09 -6.99134 -2.87658 0
M  V30 31305 H 2959.36 -6.67646 -4.0233 0
M  V30 31306 N 2963.59 0.0634645 -1.57472 0
M  V30 31307 C 2964.82 0.773733 -1.91888 0
M  V30 31308 C 2965.23 1.70695 -0.806763 0
M  V30 31309 O 2964.59 1.81177 0.219352 0
M  V30 31310 C 2964.64 1.56028 -3.26094 0
M  V30 31311 O 2964.36 0.664564 -4.3303 0
M  V30 31312 C 2965.86 2.3708 -3.74577 0
M  V30 31313 H 2963.08 0.219514 -0.634078 0
M  V30 31314 H 2965.63 0.0312469 -2.04476 0
M  V30 31315 H 2963.78 2.25496 -3.15008 0
M  V30 31316 H 2964.2 1.21249 -5.10293 0
M  V30 31317 H 2965.67 2.87714 -4.71089 0
M  V30 31318 H 2966.15 3.16978 -3.04009 0
M  V30 31319 H 2966.75 1.72752 -3.88634 0
M  V30 31320 N 2965.07 1.53998 0.33504 0
M  V30 31321 C 2966.32 1.71653 1.07432 0
M  V30 31322 C 2966.64 0.484163 1.88378 0
M  V30 31323 O 2965.9 -0.534106 1.88271 0
M  V30 31324 C 2966.2 2.93713 2.03635 0
M  V30 31325 C 2965.86 4.28962 1.38935 0
M  V30 31326 C 2964.53 4.65734 1.21019 0
M  V30 31327 C 2966.88 5.12944 0.923993 0
M  V30 31328 C 2964.21 5.84098 0.551994 0
M  V30 31329 C 2966.56 6.31981 0.279669 0
M  V30 31330 C 2965.22 6.67442 0.088267 0
M  V30 31331 H 2964.49 0.628121 0.393122 0
M  V30 31332 H 2967.14 1.88224 0.352679 0
M  V30 31333 H 2965.44 2.7178 2.82211 0
M  V30 31334 H 2967.14 3.04567 2.60845 0
M  V30 31335 H 2963.73 4.00024 1.53878 0
M  V30 31336 H 2967.91 4.85061 1.05023 0
M  V30 31337 H 2963.17 6.1014 0.392395 0
M  V30 31338 H 2967.34 6.96343 -0.0889703 0
M  V30 31339 H 2964.97 7.59018 -0.42379 0
M  V30 31340 N 2966.55 -0.596505 1.45875 0
M  V30 31341 C 2967.79 -1.35719 1.50692 0
M  V30 31342 C 2968.13 -1.936 0.15254 0
M  V30 31343 O 2967.4 -1.75694 -0.83438 0
M  V30 31344 C 2967.68 -2.49686 2.59478 0
M  V30 31345 C 2967.54 -1.96929 4.04399 0
M  V30 31346 C 2968.86 -3.51782 2.64457 0
M  V30 31347 H 2965.97 -0.492124 0.548619 0
M  V30 31348 H 2968.62 -0.671397 1.77742 0
M  V30 31349 H 2966.77 -3.08187 2.36544 0
M  V30 31350 H 2968.44 -1.42992 4.38578 0
M  V30 31351 H 2966.68 -1.27852 4.14532 0
M  V30 31352 H 2967.35 -2.79134 4.76223 0
M  V30 31353 H 2969.83 -3.0314 2.85036 0
M  V30 31354 H 2968.7 -4.29 3.42418 0
M  V30 31355 H 2968.97 -4.0812 1.69972 0
M  V30 31356 N 2968.02 -1.3335 -0.839967 0
M  V30 31357 C 2968.93 -1.25546 -1.9818 0
M  V30 31358 C 2969.95 -0.166238 -1.73204 0
M  V30 31359 O 2971.13 -0.389624 -1.97595 0
M  V30 31360 C 2968.19 -0.993672 -3.32155 0
M  V30 31361 C 2967.25 -2.17279 -3.70254 0
M  V30 31362 C 2966.49 -1.9234 -4.97836 0
M  V30 31363 O 2966.71 -0.873173 -5.63677 0
M  V30 31364 O 2965.64 -2.78844 -5.33413 0
M  V30 31365 H 2969.47 -2.21569 -2.07704 0
M  V30 31366 H 2967.05 -1.13386 -0.972832 0
M  V30 31367 H 2968.94 -0.864783 -4.12431 0
M  V30 31368 H 2967.61 -0.0637165 -3.23637 0
M  V30 31369 H 2966.52 -2.35721 -2.90493 0
M  V30 31370 H 2967.85 -3.08605 -3.83437 0
M  V30 31371 N 2969.5 1.05808 -1.16801 0
M  V30 31372 C 2970.43 2.15363 -0.902279 0
M  V30 31373 C 2971.41 1.69408 0.153321 0
M  V30 31374 O 2972.6 1.942 0.00438619 0
M  V30 31375 C 2969.73 3.44895 -0.407972 0
M  V30 31376 C 2968.68 4.04384 -1.40204 0
M  V30 31377 C 2968.01 5.29186 -0.765941 0
M  V30 31378 C 2969.31 4.42593 -2.77324 0
M  V30 31379 H 2971 2.3785 -1.81846 0
M  V30 31380 H 2968.55 1.14309 -0.875751 0
M  V30 31381 H 2970.5 4.20879 -0.209524 0
M  V30 31382 H 2969.23 3.22042 0.543723 0
M  V30 31383 H 2967.88 3.30463 -1.58712 0
M  V30 31384 H 2967.53 5.02632 0.192394 0
M  V30 31385 H 2967.23 5.69947 -1.42949 0
M  V30 31386 H 2968.76 6.07862 -0.577626 0
M  V30 31387 H 2970.17 5.09637 -2.6257 0
M  V30 31388 H 2968.57 4.94353 -3.40198 0
M  V30 31389 H 2969.64 3.53225 -3.32205 0
M  V30 31390 N 2970.98 0.967265 1.24426 0
M  V30 31391 C 2971.91 0.441722 2.23884 0
M  V30 31392 C 2972.89 -0.483936 1.55232 0
M  V30 31393 O 2974.08 -0.415413 1.83866 0
M  V30 31394 C 2971.2 -0.362399 3.36756 0
M  V30 31395 C 2970.25 0.505481 4.23494 0
M  V30 31396 S 2971.08 1.94542 4.98912 0
M  V30 31397 C 2972.24 1.15008 6.15243 0
M  V30 31398 H 2972.47 1.28457 2.68116 0
M  V30 31399 H 2970 0.772266 1.33699 0
M  V30 31400 H 2971.96 -0.820374 4.02219 0
M  V30 31401 H 2970.62 -1.18022 2.91084 0
M  V30 31402 H 2969.82 -0.11189 5.03876 0
M  V30 31403 H 2969.42 0.899168 3.6303 0
M  V30 31404 H 2971.71 0.404888 6.76289 0
M  V30 31405 H 2972.65 1.92826 6.8134 0
M  V30 31406 H 2973.06 0.674642 5.60454 0
M  V30 31407 N 2972.46 -1.39288 0.737328 0
M  V30 31408 C 2973.88 -1.5416 0.413159 0
M  V30 31409 C 2974.08 -1.70384 -1.07571 0
M  V30 31410 O 2973.13 -1.70565 -1.86182 0
M  V30 31411 C 2974.44 -2.75796 1.19822 0
M  V30 31412 C 2975.99 -2.89633 1.18667 0
M  V30 31413 C 2976.47 -4.1421 1.95434 0
M  V30 31414 N 2977.96 -4.21254 1.92612 0
M  V30 31415 C 2978.69 -5.16602 2.48817 0
M  V30 31416 N 2978.19 -6.17724 3.13669 0
M  V30 31417 N 2979.98 -5.08835 2.38838 0
M  V30 31418 H 2972.13 -1.27005 1.70246 0
M  V30 31419 H 2974.4 -0.615737 0.720813 0
M  V30 31420 H 2974.1 -2.70157 2.25184 0
M  V30 31421 H 2973.98 -3.68527 0.804209 0
M  V30 31422 H 2976.36 -2.94762 0.141163 0
M  V30 31423 H 2976.44 -1.97958 1.62007 0
M  V30 31424 H 2976.09 -4.09842 2.99987 0
M  V30 31425 H 2976.02 -5.04933 1.49499 0
M  V30 31426 H 2978.51 -3.48822 1.45368 0
M  V30 31427 H 2978.82 -6.86943 3.54018 0
M  V30 31428 H 2977.17 -6.18105 3.1776 0
M  V30 31429 H 2980.36 -4.2877 1.87814 0
M  V30 31430 H 2980.53 -5.82966 2.82939 0
M  V30 31431 N 2973.94 -0.485139 -1.49947 0
M  V30 31432 C 2975.35 -0.140124 -1.58984 0
M  V30 31433 C 2975.55 1.35435 -1.49196 0
M  V30 31434 O 2974.61 2.12892 -1.35769 0
M  V30 31435 C 2975.92 -0.702821 -2.92371 0
M  V30 31436 C 2977.47 -0.667503 -3.058 0
M  V30 31437 C 2977.95 -1.20799 -4.41782 0
M  V30 31438 N 2979.44 -1.168 -4.48232 0
M  V30 31439 C 2980.17 -1.55656 -5.51869 0
M  V30 31440 N 2979.67 -2.02028 -6.62689 0
M  V30 31441 N 2981.46 -1.47171 -5.42492 0
M  V30 31442 H 2973.61 -1.45696 -1.54552 0
M  V30 31443 H 2975.87 -0.603372 -0.731195 0
M  V30 31444 H 2975.58 -1.75031 -3.05053 0
M  V30 31445 H 2975.45 -0.154271 -3.76884 0
M  V30 31446 H 2977.84 0.371105 -2.92757 0
M  V30 31447 H 2977.92 -1.25302 -2.23009 0
M  V30 31448 H 2977.57 -2.2453 -4.55575 0
M  V30 31449 H 2977.5 -0.598556 -5.23187 0
M  V30 31450 H 2979.99 -0.828047 -3.68716 0
M  V30 31451 H 2980.3 -2.29788 -7.37846 0
M  V30 31452 H 2978.65 -2.05991 -6.63772 0
M  V30 31453 H 2981.84 -1.10773 -4.54804 0
M  V30 31454 H 2982.01 -1.77777 -6.23137 0
M  V30 31455 N 2975.42 1.56081 -0.218307 0
M  V30 31456 C 2976.66 1.97826 0.413454 0
M  V30 31457 C 2976.98 1.1071 1.60525 0
M  V30 31458 O 2976.25 0.183413 1.9504 0
M  V30 31459 H 2974.83 0.730584 0.155744 0
M  V30 31460 H 2977.5 1.92412 -0.310447 0
M  V30 31461 H 2976.59 3.03152 0.741971 0
M  V30 31462 N 2976.89 -0.0551124 1.57504 0
M  V30 31463 C 2978.17 -0.785017 1.79156 0
M  V30 31464 C 2978.55 -1.9494 0.810029 0
M  V30 31465 O 2977.9 -2.27985 -0.153392 0
M  V30 31466 C 2978.11 -1.24242 3.26136 0
M  V30 31467 C 2979.46 -1.66901 3.90422 0
M  V30 31468 O 2980.48 -1.33767 3.30129 0
M  V30 31469 O 2979.34 -2.28305 4.96527 0
M  V30 31470 H 2976.43 -0.377466 0.735832 0
M  V30 31471 H 2978.98 -0.0338986 1.69666 0
M  V30 31472 H 2977.75 -0.410021 3.89146 0
M  V30 31473 H 2977.37 -2.05435 3.40415 0
M  V30 31474 N 2978.37 -1.54173 -0.326869 0
M  V30 31475 C 2979.3 -1.8632 -1.40738 0
M  V30 31476 C 2980.28 -0.719711 -1.54124 0
M  V30 31477 O 2981.47 -0.973147 -1.68058 0
M  V30 31478 C 2978.6 -2.08762 -2.77553 0
M  V30 31479 C 2977.55 -3.24601 -2.78959 0
M  V30 31480 C 2976.88 -3.32408 -4.18819 0
M  V30 31481 C 2978.18 -4.62328 -2.43002 0
M  V30 31482 H 2979.87 -2.76813 -1.14083 0
M  V30 31483 H 2977.42 -1.33191 -0.547366 0
M  V30 31484 H 2979.37 -2.29835 -3.53205 0
M  V30 31485 H 2978.09 -1.15015 -3.05678 0
M  V30 31486 H 2976.75 -3.0341 -2.05762 0
M  V30 31487 H 2976.4 -2.36226 -4.44079 0
M  V30 31488 H 2976.1 -4.1026 -4.20666 0
M  V30 31489 H 2977.63 -3.55712 -4.96288 0
M  V30 31490 H 2979.04 -4.83304 -3.08367 0
M  V30 31491 H 2977.44 -5.42706 -2.56106 0
M  V30 31492 H 2978.51 -4.64802 -1.38157 0
M  V30 31493 N 2979.85 0.58876 -1.4619 0
M  V30 31494 C 2981.26 1.17085 -1.45423 0
M  V30 31495 C 2981.61 1.9526 -0.191836 0
M  V30 31496 O 2980.74 2.04578 0.705461 0
M  V30 31497 C 2981.33 2.12999 -2.63471 0
M  V30 31498 C 2979.89 2.66545 -2.65764 0
M  V30 31499 C 2979.04 1.423 -2.38004 0
M  V30 31500 H 2981.99 0.377025 -1.54156 0
M  V30 31501 H 2982.01 2.96361 -2.38643 0
M  V30 31502 H 2981.52 1.56075 -3.55334 0
M  V30 31503 H 2979.62 3.27356 -1.77957 0
M  V30 31504 H 2979.74 3.09693 -3.6555 0
M  V30 31505 H 2978.1 1.71904 -1.87939 0
M  V30 31506 H 2978.88 0.87215 -3.32037 0
M  V30 31507 N 2981.33 1.33794 0.832883 0
M  V30 31508 C 2982.57 1.25775 1.59086 0
M  V30 31509 C 2982.91 -0.174567 1.93414 0
M  V30 31510 O 2982.18 -1.11743 1.59197 0
M  V30 31511 C 2982.46 2.1389 2.89695 0
M  V30 31512 C 2982.32 3.65609 2.62011 0
M  V30 31513 C 2983.64 2.01661 3.91179 0
M  V30 31514 H 2980.76 0.458237 0.577224 0
M  V30 31515 H 2983.4 1.63952 0.960199 0
M  V30 31516 H 2981.55 1.81462 3.43517 0
M  V30 31517 H 2983.22 4.08357 2.14575 0
M  V30 31518 H 2981.46 3.87192 1.95614 0
M  V30 31519 H 2982.13 4.22616 3.55105 0
M  V30 31520 H 2984.61 2.30113 3.4668 0
M  V30 31521 H 2983.49 2.65556 4.80386 0
M  V30 31522 H 2983.75 0.990612 4.30859 0
M  V30 31523 N 2982.81 -1.05187 1.1736 0
M  V30 31524 C 2984.05 -1.78593 0.973446 0
M  V30 31525 C 2984.41 -1.85985 -0.49268 0
M  V30 31526 O 2983.7 -1.34863 -1.36098 0
M  V30 31527 C 2983.89 -3.22123 1.54827 0
M  V30 31528 C 2983.72 -3.2872 3.06877 0
M  V30 31529 C 2982.49 -3.38004 3.75608 0
M  V30 31530 C 2984.69 -3.17658 4.04473 0
M  V30 31531 N 2982.67 -3.33732 5.15263 0
M  V30 31532 C 2984.04 -3.20757 5.3058 0
M  V30 31533 C 2986.1 -3.0162 3.96144 0
M  V30 31534 C 2984.8 -3.09467 6.49325 0
M  V30 31535 C 2986.83 -2.91672 5.14472 0
M  V30 31536 C 2986.19 -2.95404 6.39465 0
M  V30 31537 H 2982.29 -0.665837 0.410104 0
M  V30 31538 H 2984.87 -1.25392 1.48946 0
M  V30 31539 H 2983.04 -3.73696 1.05859 0
M  V30 31540 H 2984.78 -3.83766 1.28474 0
M  V30 31541 H 2981.53 -3.43268 3.26289 0
M  V30 31542 H 2981.95 -3.35066 5.88268 0
M  V30 31543 H 2986.6 -2.97572 3.00351 0
M  V30 31544 H 2984.31 -3.1227 7.45328 0
M  V30 31545 H 2987.9 -2.80334 5.09808 0
M  V30 31546 H 2986.78 -2.87779 7.29488 0
M  V30 31547 N 2984.28 -0.97385 -1.23911 0
M  V30 31548 C 2985.21 -0.528009 -2.27452 0
M  V30 31549 C 2986.19 0.435484 -1.64431 0
M  V30 31550 O 2987.38 0.330273 -1.91371 0
M  V30 31551 C 2984.51 0.176696 -3.4685 0
M  V30 31552 C 2983.46 -0.703426 -4.2218 0
M  V30 31553 C 2982.79 0.133121 -5.34534 0
M  V30 31554 C 2984.09 -1.99104 -4.82861 0
M  V30 31555 H 2985.78 -1.39345 -2.64997 0
M  V30 31556 H 2983.33 -0.671469 -1.27386 0
M  V30 31557 H 2985.28 0.499861 -4.18425 0
M  V30 31558 H 2984.01 1.07653 -3.08348 0
M  V30 31559 H 2982.67 -1.00995 -3.52414 0
M  V30 31560 H 2982.31 1.03329 -4.92272 0
M  V30 31561 H 2982.01 -0.452597 -5.85854 0
M  V30 31562 H 2983.54 0.450817 -6.08933 0
M  V30 31563 H 2984.95 -1.73307 -5.46478 0
M  V30 31564 H 2983.35 -2.52399 -5.4444 0
M  V30 31565 H 2984.42 -2.68206 -4.03972 0
M  V30 31566 N 2985.76 1.38895 -0.744705 0
M  V30 31567 C 2986.72 2.28888 -0.11949 0
M  V30 31568 C 2987.72 1.46769 0.656916 0
M  V30 31569 O 2988.91 1.67327 0.484496 0
M  V30 31570 C 2986.05 3.304 0.839577 0
M  V30 31571 H 2987.24 2.85682 -0.912464 0
M  V30 31572 H 2984.79 1.47706 -0.511145 0
M  V30 31573 H 2985.53 2.7868 1.65855 0
M  V30 31574 H 2985.31 3.9106 0.285364 0
M  V30 31575 H 2986.8 3.97715 1.2733 0
M  V30 31576 N 2987.24 0.493084 1.49688 0
M  V30 31577 C 2988.19 -0.308642 2.25901 0
M  V30 31578 C 2989.17 -0.942447 1.3041 0
M  V30 31579 O 2990.37 -0.851357 1.5518 0
M  V30 31580 C 2987.5 -1.37719 3.14465 0
M  V30 31581 C 2986.58 -0.750026 4.17415 0
M  V30 31582 N 2986.97 0.142686 5.05599 0
M  V30 31583 C 2985.27 -1.01151 4.34378 0
M  V30 31584 C 2985.97 0.500884 5.7954 0
M  V30 31585 N 2984.95 -0.12929 5.43446 0
M  V30 31586 H 2988.75 0.378703 2.9145 0
M  V30 31587 H 2986.26 0.308642 1.5944 0
M  V30 31588 H 2988.26 -1.96493 3.6769 0
M  V30 31589 H 2986.92 -2.0663 2.50468 0
M  V30 31590 H 2987.93 0.512985 5.15353 0
M  V30 31591 H 2984.61 -1.69396 3.81591 0
M  V30 31592 H 2986 1.23074 6.60532 0
M  V30 31593 N 2988.72 -1.55963 0.226582 0
M  V30 31594 C 2989.67 -2.2051 -0.681465 0
M  V30 31595 C 2990.64 -1.16231 -1.18658 0
M  V30 31596 O 2991.82 -1.44605 -1.24475 0
M  V30 31597 C 2988.96 -2.8928 -1.88178 0
M  V30 31598 C 2988.07 -4.08165 -1.4151 0
M  V30 31599 C 2987.21 -4.64705 -2.57338 0
M  V30 31600 C 2986.25 -5.75881 -2.07431 0
M  V30 31601 N 2985.38 -6.2669 -3.1655 0
M  V30 31602 H 2990.22 -2.97741 -0.124319 0
M  V30 31603 H 2987.76 -1.47016 -0.0496074 0
M  V30 31604 H 2989.72 -3.27339 -2.5866 0
M  V30 31605 H 2988.35 -2.14559 -2.41173 0
M  V30 31606 H 2987.4 -3.75558 -0.605033 0
M  V30 31607 H 2988.71 -4.88484 -1.00919 0
M  V30 31608 H 2987.87 -5.05233 -3.35894 0
M  V30 31609 H 2986.61 -3.8356 -3.0122 0
M  V30 31610 H 2985.61 -5.34851 -1.27338 0
M  V30 31611 H 2986.84 -6.58865 -1.64542 0
M  V30 31612 H 2984.78 -5.48457 -3.59904 0
M  V30 31613 H 2984.7 -7.02146 -2.80226 0
M  V30 31614 H 2985.97 -6.71875 -3.95226 0
M  V30 31615 N 2990.2 0.0467589 -1.57531 0
M  V30 31616 C 2991.44 0.742185 -1.88731 0
M  V30 31617 C 2991.78 1.7594 -0.822115 0
M  V30 31618 O 2991.05 1.938 0.164888 0
M  V30 31619 C 2991.33 1.42771 -3.30588 0
M  V30 31620 C 2991.19 0.425206 -4.47786 0
M  V30 31621 C 2992.51 2.36629 -3.71072 0
M  V30 31622 H 2989.62 0.268347 -0.68641 0
M  V30 31623 H 2992.27 0.00508001 -1.89999 0
M  V30 31624 H 2990.42 2.056 -3.29638 0
M  V30 31625 H 2992.09 -0.199802 -4.60867 0
M  V30 31626 H 2990.33 -0.257207 -4.33037 0
M  V30 31627 H 2991 0.942991 -5.43886 0
M  V30 31628 H 2993.48 1.83859 -3.73276 0
M  V30 31629 H 2992.35 2.81585 -4.7117 0
M  V30 31630 H 2992.62 3.22537 -3.02361 0
M  V30 31631 N 2991.67 1.54344 0.318688 0
M  V30 31632 C 2992.64 1.83344 1.37541 0
M  V30 31633 C 2993.64 0.705469 1.44498 0
M  V30 31634 O 2994.83 0.973778 1.44441 0
M  V30 31635 C 2991.96 1.99785 2.76222 0
M  V30 31636 H 2993.15 2.77764 1.1308 0
M  V30 31637 H 2990.71 1.46136 0.554431 0
M  V30 31638 H 2991.44 1.07593 3.05932 0
M  V30 31639 H 2991.23 2.8187 2.72565 0
M  V30 31640 H 2992.72 2.23653 3.5266 0
M  V30 31641 N 2993.15 -0.580999 1.465 0
M  V30 31642 C 2994.38 -1.37 1.55711 0
M  V30 31643 C 2994.8 -1.8704 0.199453 0
M  V30 31644 O 2994.16 -1.61661 -0.820702 0
M  V30 31645 C 2994.21 -2.53233 2.5672 0
M  V30 31646 O 2993.31 -3.54725 2.10342 0
M  V30 31647 H 2992.65 -0.407928 0.523919 0
M  V30 31648 H 2995.18 -0.704568 1.92086 0
M  V30 31649 H 2995.19 -3.00127 2.76383 0
M  V30 31650 H 2993.87 -2.16165 3.5531 0
M  V30 31651 H 2992.45 -3.14299 2.00674 0
M  V30 31652 N 2994.63 -1.34234 -0.825776 0
M  V30 31653 C 2995.54 -1.27641 -1.96837 0
M  V30 31654 C 2996.56 -0.184599 -1.73018 0
M  V30 31655 O 2997.73 -0.410559 -1.97171 0
M  V30 31656 C 2994.8 -1.02885 -3.31083 0
M  V30 31657 C 2993.86 -2.21194 -3.67929 0
M  V30 31658 C 2993.09 -1.97609 -4.95768 0
M  V30 31659 O 2993.31 -0.932909 -5.62719 0
M  V30 31660 O 2992.25 -2.84486 -5.30426 0
M  V30 31661 H 2996.07 -2.23759 -2.05342 0
M  V30 31662 H 2993.66 -1.14411 -0.960752 0
M  V30 31663 H 2995.54 -0.908478 -4.11491 0
M  V30 31664 H 2994.22 -0.098039 -3.23552 0
M  V30 31665 H 2993.12 -2.38789 -2.87977 0
M  V30 31666 H 2994.46 -3.12655 -3.80142 0
M  V30 31667 N 2996.11 1.04563 -1.17917 0
M  V30 31668 C 2997.36 1.77326 -0.969536 0
M  V30 31669 C 2997.68 1.88413 0.502536 0
M  V30 31670 O 2996.95 1.4055 1.36465 0
M  V30 31671 H 2995.53 0.656858 -0.355734 0
M  V30 31672 H 2998.19 1.2622 -1.48508 0
M  V30 31673 H 2997.29 2.78773 -1.40329 0
M  V30 31674 N 2997.59 0.980408 1.23393 0
M  V30 31675 C 2998.84 0.644818 1.91115 0
M  V30 31676 C 2999.15 -0.825335 1.77335 0
M  V30 31677 O 3000.35 -1.27199 2.3986 0
M  V30 31678 C 2998.81 1.10272 3.4259 0
M  V30 31679 C 2998.42 2.59722 3.65032 0
M  V30 31680 C 3000.16 0.840873 4.16088 0
M  V30 31681 C 2998.07 2.99179 5.10143 0
M  V30 31682 H 2997 0.237473 0.715628 0
M  V30 31683 H 2999.65 1.18831 1.39827 0
M  V30 31684 H 2998.03 0.487442 3.92989 0
M  V30 31685 H 2999.21 3.26488 3.2518 0
M  V30 31686 H 2997.52 2.83653 3.04844 0
M  V30 31687 H 3000.12 1.11152 5.23019 0
M  V30 31688 H 3000.46 -0.223012 4.15702 0
M  V30 31689 H 3000.99 1.41773 3.71679 0
M  V30 31690 H 2997.73 4.04691 5.1566 0
M  V30 31691 H 2997.25 2.37106 5.50945 0
M  V30 31692 H 2998.93 2.89785 5.78475 0
M  V30 31693 N 2999.06 -1.38498 0.75206 0
M  V30 31694 C 3000.01 -2.3047 0.123328 0
M  V30 31695 C 3000.98 -1.50099 -0.711299 0
M  V30 31696 O 3002.17 -1.78734 -0.667743 0
M  V30 31697 C 2999.31 -3.36514 -0.765026 0
M  V30 31698 C 2998.42 -4.31918 0.0840645 0
M  V30 31699 C 2997.55 -5.25032 -0.807151 0
M  V30 31700 C 2996.59 -6.12083 0.0456659 0
M  V30 31701 N 2995.73 -6.975 -0.802424 0
M  V30 31702 H 3000.57 -2.83662 0.913219 0
M  V30 31703 H 2998.11 -1.39657 0.461974 0
M  V30 31704 H 3000.07 -3.96602 -1.29469 0
M  V30 31705 H 2998.7 -2.84735 -1.52072 0
M  V30 31706 H 2997.75 -3.73304 0.731342 0
M  V30 31707 H 2999.06 -4.93239 0.742737 0
M  V30 31708 H 2998.21 -5.9023 -1.40404 0
M  V30 31709 H 2996.95 -4.64074 -1.49956 0
M  V30 31710 H 2995.96 -5.45882 0.655233 0
M  V30 31711 H 2997.18 -6.7511 0.735113 0
M  V30 31712 H 2995.13 -6.39091 -1.47981 0
M  V30 31713 H 2995.05 -7.55734 -0.200614 0
M  V30 31714 H 2996.31 -7.67109 -1.38433 0
M  V30 31715 N 3000.54 -0.501015 -1.49424 0
M  V30 31716 C 3001.77 0.0402495 -2.06561 0
M  V30 31717 C 3002.18 1.31367 -1.3616 0
M  V30 31718 O 3001.52 1.78508 -0.433649 0
M  V30 31719 C 3001.59 0.364206 -3.5765 0
M  V30 31720 C 3001.25 -0.811496 -4.49737 0
M  V30 31721 C 3002.25 -1.70199 -4.91252 0
M  V30 31722 C 2999.93 -1.0103 -4.92035 0
M  V30 31723 C 3001.93 -2.77544 -5.73802 0
M  V30 31724 C 2999.61 -2.08693 -5.74361 0
M  V30 31725 C 3000.61 -2.96784 -6.15149 0
M  V30 31726 O 3000.3 -4.02589 -6.95828 0
M  V30 31727 H 3000.03 -0.0172476 -0.67578 0
M  V30 31728 H 3002.58 -0.697587 -1.93191 0
M  V30 31729 H 3000.81 1.15564 -3.69028 0
M  V30 31730 H 3002.5 0.844087 -3.97026 0
M  V30 31731 H 3003.27 -1.56021 -4.59219 0
M  V30 31732 H 2999.15 -0.33401 -4.59788 0
M  V30 31733 H 3002.69 -3.46331 -6.05558 0
M  V30 31734 H 2998.59 -2.22866 -6.05806 0
M  V30 31735 H 2999.36 -3.99942 -7.14135 0
M  V30 31736 N 3002.02 1.5584 -0.234849 0
M  V30 31737 C 3003.25 2.03042 0.397709 0
M  V30 31738 C 3003.66 1.11439 1.52403 0
M  V30 31739 O 3003.02 0.126498 1.82061 0
M  V30 31740 C 3003.07 3.4968 0.916857 0
M  V30 31741 O 3002.79 4.37791 -0.16457 0
M  V30 31742 C 3004.29 4.12587 1.62132 0
M  V30 31743 H 3001.51 0.66411 0.0959097 0
M  V30 31744 H 3004.06 2.01392 -0.355192 0
M  V30 31745 H 3002.21 3.51903 1.61998 0
M  V30 31746 H 3002.63 5.24006 0.227702 0
M  V30 31747 H 3004.1 5.1692 1.93642 0
M  V30 31748 H 3004.58 3.58365 2.53912 0
M  V30 31749 H 3005.18 4.14252 0.963072 0
M  V30 31750 N 3003.5 -0.038404 1.57553 0
M  V30 31751 C 3004.78 -0.765971 1.79978 0
M  V30 31752 C 3005.16 -1.9407 0.83066 0
M  V30 31753 O 3004.5 -2.28134 -0.129203 0
M  V30 31754 C 3004.71 -1.20776 3.27436 0
M  V30 31755 C 3006.06 -1.62751 3.9217 0
M  V30 31756 O 3007.09 -1.30258 3.31529 0
M  V30 31757 O 3005.95 -2.23026 4.98921 0
M  V30 31758 H 3003.04 -0.369641 0.739794 0
M  V30 31759 H 3005.59 -0.0159014 1.69693 0
M  V30 31760 H 3004.36 -0.368724 3.89559 0
M  V30 31761 H 3003.98 -2.01813 3.42575 0
M  V30 31762 N 3004.98 -1.54511 -0.310498 0
M  V30 31763 C 3006.39 -1.45513 -0.655612 0
M  V30 31764 C 3006.59 -0.638597 -1.91113 0
M  V30 31765 O 3005.65 -0.142542 -2.52097 0
M  V30 31766 C 3006.96 -2.89376 -0.817451 0
M  V30 31767 C 3008.51 -2.99359 -0.91395 0
M  V30 31768 C 3008.99 -4.44399 -1.10786 0
M  V30 31769 N 3010.48 -4.48068 -1.17429 0
M  V30 31770 C 3011.21 -5.57464 -1.34245 0
M  V30 31771 N 3010.71 -6.76803 -1.4802 0
M  V30 31772 N 3012.5 -5.45135 -1.37057 0
M  V30 31773 H 3004.65 -2.06073 0.514542 0
M  V30 31774 H 3006.91 -0.932906 0.168494 0
M  V30 31775 H 3006.62 -3.51684 0.0340648 0
M  V30 31776 H 3006.49 -3.36246 -1.70934 0
M  V30 31777 H 3008.88 -2.37171 -1.75596 0
M  V30 31778 H 3008.96 -2.558 0.00175454 0
M  V30 31779 H 3008.61 -5.07178 -0.270654 0
M  V30 31780 H 3008.54 -4.8558 -2.03764 0
M  V30 31781 H 3011.03 -3.62086 -1.08175 0
M  V30 31782 H 3011.34 -7.55933 -1.60579 0
M  V30 31783 H 3009.69 -6.79686 -1.45093 0
M  V30 31784 H 3012.88 -4.50851 -1.25901 0
M  V30 31785 H 3013.05 -6.30443 -1.4982 0
M  V30 31786 N 3006.46 0.573222 -1.46806 0
M  V30 31787 C 3007.4 1.68158 -1.58087 0
M  V30 31788 C 3008.37 1.6058 -0.424664 0
M  V30 31789 O 3009.56 1.79651 -0.642654 0
M  V30 31790 C 3006.7 3.06493 -1.58606 0
M  V30 31791 C 3005.81 3.24627 -2.85029 0
M  V30 31792 C 3004.95 4.53266 -2.76989 0
M  V30 31793 C 3003.98 4.64776 -3.98309 0
M  V30 31794 N 3003.12 5.84752 -3.88599 0
M  V30 31795 H 3007.96 1.57853 -2.52757 0
M  V30 31796 H 3005.5 0.769196 -1.25387 0
M  V30 31797 H 3007.46 3.86576 -1.56891 0
M  V30 31798 H 3006.09 3.15672 -0.674609 0
M  V30 31799 H 3005.14 2.38084 -2.96682 0
M  V30 31800 H 3006.45 3.28998 -3.74916 0
M  V30 31801 H 3005.6 5.41589 -2.73434 0
M  V30 31802 H 3004.34 4.51349 -1.84758 0
M  V30 31803 H 3003.35 3.74869 -4.02186 0
M  V30 31804 H 3004.57 4.68465 -4.91647 0
M  V30 31805 H 3002.52 5.83814 -2.99161 0
M  V30 31806 H 3002.44 5.90432 -4.7215 0
M  V30 31807 H 3003.7 6.7548 -3.89034 0
M  V30 31808 N 3007.93 1.3467 0.818645 0
M  V30 31809 C 3009.18 1.28464 1.57697 0
M  V30 31810 C 3009.53 -0.143023 1.91868 0
M  V30 31811 O 3008.83 -1.09039 1.57547 0
M  V30 31812 C 3009.02 2.11309 2.88242 0
M  V30 31813 C 3008.85 3.61987 2.66825 0
M  V30 31814 C 3007.62 4.31255 2.63339 0
M  V30 31815 C 3009.82 4.55896 2.38041 0
M  V30 31816 N 3007.8 5.67755 2.33512 0
M  V30 31817 C 3009.17 5.8043 2.17947 0
M  V30 31818 C 3011.23 4.44765 2.23804 0
M  V30 31819 C 3009.93 6.95087 1.85058 0
M  V30 31820 C 3011.96 5.59259 1.92311 0
M  V30 31821 C 3011.32 6.82814 1.73044 0
M  V30 31822 H 3007.42 0.525324 0.579275 0
M  V30 31823 H 3010 1.69427 0.959307 0
M  V30 31824 H 3008.17 1.72636 3.47924 0
M  V30 31825 H 3009.9 1.96715 3.53674 0
M  V30 31826 H 3006.66 3.83739 2.77563 0
M  V30 31827 H 3007.08 6.39765 2.21426 0
M  V30 31828 H 3011.72 3.49856 2.37404 0
M  V30 31829 H 3009.44 7.89974 1.70196 0
M  V30 31830 H 3013.03 5.52593 1.82021 0
M  V30 31831 H 3011.91 7.69909 1.49028 0
M  V30 31832 N 3009.41 -1.03936 1.1847 0
M  V30 31833 C 3010.65 -1.78722 0.991855 0
M  V30 31834 C 3011.02 -1.86156 -0.470082 0
M  V30 31835 O 3012.22 -2.57161 -0.782406 0
M  V30 31836 C 3010.49 -3.18053 1.63024 0
M  V30 31837 S 3012.05 -4.09161 1.58534 0
M  V30 31838 H 3008.86 -0.61537 0.356148 0
M  V30 31839 H 3011.47 -1.24616 1.50636 0
M  V30 31840 H 3010.17 -3.10253 2.68647 0
M  V30 31841 H 3009.7 -3.77236 1.11608 0
M  V30 31842 H 3011.72 -4.92533 0.602146 0
M  V30 31843 N 3010.89 -0.986938 -1.22871 0
M  V30 31844 C 3012.14 -0.659457 -1.91461 0
M  V30 31845 C 3012.46 0.807794 -1.76932 0
M  V30 31846 O 3011.72 1.59899 -1.12831 0
M  V30 31847 C 3012.02 -1.00385 -3.43012 0
M  V30 31848 C 3011.68 -2.46239 -3.77726 0
M  V30 31849 C 3010.35 -2.86098 -3.86913 0
M  V30 31850 C 3012.7 -3.40805 -3.94337 0
M  V30 31851 C 3010.03 -4.19525 -4.10141 0
M  V30 31852 C 3012.38 -4.73883 -4.19068 0
M  V30 31853 C 3011.04 -5.13492 -4.26477 0
M  V30 31854 H 3010.31 -0.241313 -0.700606 0
M  V30 31855 H 3012.96 -1.24202 -1.45761 0
M  V30 31856 H 3011.26 -0.339295 -3.90328 0
M  V30 31857 H 3012.96 -0.728588 -3.94325 0
M  V30 31858 H 3009.55 -2.1434 -3.71155 0
M  V30 31859 H 3013.74 -3.11184 -3.86624 0
M  V30 31860 H 3008.99 -4.4981 -4.14102 0
M  V30 31861 H 3013.17 -5.4711 -4.30864 0
M  V30 31862 H 3010.79 -6.16899 -4.44229 0
M  V30 31863 N 3012.37 1.38098 -0.759394 0
M  V30 31864 C 3013.64 1.9408 -0.243405 0
M  V30 31865 C 3014.02 1.69419 1.25939 0
M  V30 31866 O 3013.37 1.03599 2.03665 0
M  V30 31867 C 3013.58 3.43744 -0.603389 0
M  V30 31868 C 3014.93 4.20807 -0.566269 0
M  V30 31869 O 3015.95 3.52052 -0.542031 0
M  V30 31870 O 3014.81 5.43388 -0.582357 0
M  V30 31871 H 3011.91 0.825319 -0.052697 0
M  V30 31872 H 3014.45 1.47457 -0.83991 0
M  V30 31873 H 3013.23 3.55226 -1.64104 0
M  V30 31874 H 3012.85 3.97595 0.0208188 0
M  V30 31875 N 3013.85 0.508932 1.49156 0
M  V30 31876 C 3015.09 -0.032698 2.02074 0
M  V30 31877 C 3015.41 -1.36748 1.39014 0
M  V30 31878 O 3014.68 -1.88074 0.548186 0
M  V30 31879 H 3013.26 -0.0150733 0.746848 0
M  V30 31880 H 3015.93 0.667979 1.83096 0
M  V30 31881 H 3015.02 -0.156545 3.11707 0
M  V30 31882 N 3015.32 -1.55714 0.243111 0
M  V30 31883 C 3016.23 -2.24863 -0.668873 0
M  V30 31884 C 3017.25 -1.26346 -1.19635 0
M  V30 31885 O 3018.43 -1.59213 -1.23342 0
M  V30 31886 C 3015.49 -2.93167 -1.85079 0
M  V30 31887 C 3014.55 -4.07083 -1.36316 0
M  V30 31888 C 3013.78 -4.7212 -2.48874 0
M  V30 31889 O 3014.01 -4.36221 -3.67516 0
M  V30 31890 O 3012.94 -5.60704 -2.18847 0
M  V30 31891 H 3016.77 -3.03502 -0.109683 0
M  V30 31892 H 3014.35 -1.49395 0.0117674 0
M  V30 31893 H 3016.23 -3.36202 -2.5406 0
M  V30 31894 H 3014.91 -2.1747 -2.39767 0
M  V30 31895 H 3013.82 -3.68572 -0.640739 0
M  V30 31896 H 3015.15 -4.84586 -0.862405 0
M  V30 31897 N 3016.8 0.030048 -1.57571 0
M  V30 31898 C 3018.22 0.385675 -1.5487 0
M  V30 31899 C 3018.42 1.76666 -0.969099 0
M  V30 31900 O 3017.47 2.45517 -0.589719 0
M  V30 31901 C 3018.79 0.28843 -2.99314 0
M  V30 31902 C 3020.34 0.365584 -3.10858 0
M  V30 31903 C 3020.81 0.297797 -4.57031 0
M  V30 31904 N 3022.3 0.356622 -4.61825 0
M  V30 31905 C 3023.04 0.327045 -5.72467 0
M  V30 31906 N 3022.53 0.249819 -6.92349 0
M  V30 31907 N 3024.33 0.376702 -5.60836 0
M  V30 31908 H 3016.48 -0.873704 -1.93598 0
M  V30 31909 H 3018.74 -0.332121 -0.887919 0
M  V30 31910 H 3018.45 -0.660531 -3.45442 0
M  V30 31911 H 3018.32 1.08247 -3.61334 0
M  V30 31912 H 3020.71 1.30498 -2.64678 0
M  V30 31913 H 3020.79 -0.457789 -2.5167 0
M  V30 31914 H 3020.43 -0.637924 -5.03878 0
M  V30 31915 H 3020.36 1.13926 -5.14129 0
M  V30 31916 H 3022.85 0.41886 -3.75572 0
M  V30 31917 H 3023.17 0.232324 -7.72451 0
M  V30 31918 H 3021.51 0.215882 -6.94665 0
M  V30 31919 H 3024.7 0.435019 -4.66074 0
M  V30 31920 H 3024.87 0.350185 -6.47053 0
M  V30 31921 N 3018.28 1.54674 0.3023 0
M  V30 31922 C 3019.23 1.86288 1.39283 0
M  V30 31923 C 3020.22 0.736504 1.52552 0
M  V30 31924 O 3021.43 0.920477 1.54684 0
M  V30 31925 H 3017.8 0.590827 0.465217 0
M  V30 31926 H 3019.77 2.77443 1.09854 0
M  V30 31927 C 3018.52 2.12572 2.75152 0
M  V30 31928 H 3017.85 2.98716 2.65723 0
M  V30 31929 H 3019.29 2.38633 3.50472 0
M  V30 31930 C 3017.75 0.92387 3.23985 0
M  V30 31931 O 3018.28 0.14372 4.01443 0
M  V30 31932 N 3016.48 0.729609 2.81292 0
M  V30 31933 H 3016.03 1.36568 2.18419 0
M  V30 31934 H 3015.99 -0.0729798 3.14315 0
M  V30 31935 N 3019.76 -0.565428 1.47108 0
M  V30 31936 C 3020.71 -1.69421 1.59371 0
M  V30 31937 C 3021.7 -1.62996 0.461373 0
M  V30 31938 O 3022.91 -1.68281 0.638878 0
M  V30 31939 H 3019.28 -0.56045 0.501397 0
M  V30 31940 H 3021.25 -1.56213 2.54244 0
M  V30 31941 C 3020 -3.07789 1.61744 0
M  V30 31942 H 3019.32 -3.13411 2.48221 0
M  V30 31943 H 3020.76 -3.86483 1.74377 0
M  V30 31944 C 3019.22 -3.35085 0.349215 0
M  V30 31945 O 3019.75 -3.97872 -0.553218 0
M  V30 31946 N 3017.96 -2.89674 0.231774 0
M  V30 31947 H 3017.51 -2.38759 0.967063 0
M  V30 31948 H 3017.46 -3.08309 -0.615857 0
M  V30 31949 N 3021.24 -1.35102 -0.811492 0
M  V30 31950 C 3022.17 -1.23471 -1.931 0
M  V30 31951 C 3023.18 -0.159124 -1.6202 0
M  V30 31952 O 3024.37 -0.411975 -1.73681 0
M  V30 31953 C 3021.47 -0.877461 -3.27344 0
M  V30 31954 C 3020.64 -2.0504 -3.86364 0
M  V30 31955 C 3019.7 -1.66972 -4.99006 0
M  V30 31956 O 3018.73 -2.38781 -5.16693 0
M  V30 31957 N 3019.93 -0.590496 -5.77489 0
M  V30 31958 H 3022.7 -2.1992 -2.03606 0
M  V30 31959 H 3020.26 -1.28207 -0.988664 0
M  V30 31960 H 3022.25 -0.604369 -4.00162 0
M  V30 31961 H 3020.82 -0.00280762 -3.126 0
M  V30 31962 H 3020.04 -2.48758 -3.058 0
M  V30 31963 H 3021.33 -2.83456 -4.22528 0
M  V30 31964 H 3020.72 0.00623316 -5.657 0
M  V30 31965 H 3019.28 -0.377169 -6.50708 0
M  V30 31966 N 3022.71 1.03306 -1.19019 0
M  V30 31967 C 3023.96 1.76037 -0.984573 0
M  V30 31968 C 3024.28 1.89469 0.485903 0
M  V30 31969 O 3025.48 2.59128 0.810233 0
M  V30 31970 C 3023.94 3.16537 -1.71266 0
M  V30 31971 C 3023.55 3.11174 -3.22296 0
M  V30 31972 C 3025.29 3.93592 -1.59013 0
M  V30 31973 C 3023.2 4.4658 -3.87712 0
M  V30 31974 H 3022.13 0.659898 -0.364761 0
M  V30 31975 H 3024.78 1.15646 -1.42472 0
M  V30 31976 H 3023.16 3.7737 -1.20032 0
M  V30 31977 H 3024.33 2.59747 -3.80616 0
M  V30 31978 H 3022.65 2.47616 -3.34776 0
M  V30 31979 H 3025.25 4.93741 -2.05241 0
M  V30 31980 H 3025.59 4.12736 -0.543607 0
M  V30 31981 H 3026.12 3.39351 -2.0757 0
M  V30 31982 H 3022.86 4.32641 -4.92445 0
M  V30 31983 H 3022.38 4.98079 -3.34181 0
M  V30 31984 H 3024.06 5.15475 -3.91017 0
M  V30 31985 N 3024.19 0.99344 1.22346 0
M  V30 31986 C 3025.12 0.564128 2.26583 0
M  V30 31987 C 3026.1 -0.409269 1.65103 0
M  V30 31988 O 3027.29 -0.299785 1.91872 0
M  V30 31989 C 3024.42 -0.121493 3.47087 0
M  V30 31990 C 3023.37 0.770503 4.21007 0
M  V30 31991 C 3022.7 -0.0480646 5.34678 0
M  V30 31992 C 3024 2.06761 4.79632 0
M  V30 31993 H 3025.69 1.43543 2.62747 0
M  V30 31994 H 3023.24 0.69165 1.26302 0
M  V30 31995 H 3025.19 -0.43323 4.19167 0
M  V30 31996 H 3023.92 -1.02734 3.10021 0
M  V30 31997 H 3022.57 1.06589 3.50763 0
M  V30 31998 H 3022.22 -0.954846 4.93854 0
M  V30 31999 H 3021.92 0.545744 5.8506 0
M  V30 32000 H 3023.45 -0.353884 6.09574 0
M  V30 32001 H 3024.86 1.81979 5.43651 0
M  V30 32002 H 3023.26 2.61029 5.40355 0
M  V30 32003 H 3024.33 2.74599 3.99654 0
M  V30 32004 N 3025.67 -1.37693 0.766707 0
M  V30 32005 C 3026.58 -2.34119 0.150199 0
M  V30 32006 C 3027.6 -1.59928 -0.685485 0
M  V30 32007 O 3028.77 -1.92048 -0.606582 0
M  V30 32008 C 3025.84 -3.39088 -0.722503 0
M  V30 32009 C 3024.9 -4.29106 0.129059 0
M  V30 32010 C 3024.13 -5.29062 -0.702085 0
M  V30 32011 O 3024.35 -5.36416 -1.93945 0
M  V30 32012 O 3023.29 -6.01792 -0.11395 0
M  V30 32013 H 3027.11 -2.88562 0.94688 0
M  V30 32014 H 3024.7 -1.39767 0.527789 0
M  V30 32015 H 3026.58 -4.03327 -1.22087 0
M  V30 32016 H 3025.26 -2.86981 -1.49746 0
M  V30 32017 H 3024.16 -3.67984 0.673677 0
M  V30 32018 H 3025.5 -4.84504 0.866977 0
M  V30 32019 N 3027.15 -0.516835 -1.48884 0
M  V30 32020 C 3028.06 0.257252 -2.33185 0
M  V30 32021 C 3029.07 0.951926 -1.45652 0
M  V30 32022 O 3030.25 0.929803 -1.78652 0
M  V30 32023 C 3027.32 1.29845 -3.21467 0
M  V30 32024 C 3026.38 0.615533 -4.24864 0
M  V30 32025 C 3025.61 1.60713 -5.08927 0
M  V30 32026 O 3025.83 2.83854 -4.94755 0
M  V30 32027 O 3024.77 1.15374 -5.90739 0
M  V30 32028 H 3028.59 -0.433183 -3.00595 0
M  V30 32029 H 3026.18 -0.277934 -1.46792 0
M  V30 32030 H 3028.06 1.90048 -3.76111 0
M  V30 32031 H 3026.73 1.97153 -2.56734 0
M  V30 32032 H 3025.64 -0.0266486 -3.74091 0
M  V30 32033 H 3026.97 -0.0153736 -4.92198 0
M  V30 32034 N 3028.63 1.55583 -0.251365 0
M  V30 32035 C 3029.57 2.22966 0.662495 0
M  V30 32036 C 3030.57 1.21871 1.1766 0
M  V30 32037 O 3031.77 1.3987 1.13298 0
M  V30 32038 H 3028.15 0.715273 0.232138 0
M  V30 32039 H 3030.12 2.98315 0.0710728 0
M  V30 32040 C 3028.87 2.94624 1.8464 0
M  V30 32041 H 3028.19 3.72189 1.45997 0
M  V30 32042 H 3029.63 3.45129 2.46297 0
M  V30 32043 C 3028.09 1.98748 2.72031 0
M  V30 32044 O 3028.62 1.52341 3.71692 0
M  V30 32045 N 3026.83 1.65754 2.38692 0
M  V30 32046 H 3026.37 2.03688 1.57699 0
M  V30 32047 H 3026.33 1.01872 2.97438 0
M  V30 32048 N 3030.1 -0.0216912 1.57585 0
M  V30 32049 C 3031.04 -1.0533 2.02437 0
M  V30 32050 C 3032.02 -1.34745 0.910084 0
M  V30 32051 O 3033.2 -1.47277 1.17651 0
M  V30 32052 C 3030.33 -2.38625 2.40366 0
M  V30 32053 C 3029.37 -2.25018 3.62311 0
M  V30 32054 S 3030.21 -1.59664 5.11143 0
M  V30 32055 C 3031.36 -2.94434 5.52322 0
M  V30 32056 H 3031.59 -0.671303 2.89622 0
M  V30 32057 H 3029.13 -0.231899 1.52649 0
M  V30 32058 H 3031.09 -3.15278 2.62888 0
M  V30 32059 H 3029.75 -2.73971 1.53619 0
M  V30 32060 H 3028.94 -3.23437 3.86529 0
M  V30 32061 H 3028.54 -1.56509 3.39678 0
M  V30 32062 H 3030.83 -3.90759 5.53456 0
M  V30 32063 H 3031.78 -2.74941 6.52544 0
M  V30 32064 H 3032.18 -2.97346 4.79839 0
M  V30 32065 N 3031.58 -1.54832 -0.294093 0
M  V30 32066 C 3032.86 -1.65127 -1.04844 0
M  V30 32067 C 3033.24 -0.504022 -2.04995 0
M  V30 32068 O 3032.59 0.498457 -2.22997 0
M  V30 32069 C 3032.8 -3.03438 -1.72413 0
M  V30 32070 C 3034.15 -3.60485 -2.24356 0
M  V30 32071 O 3035.17 -3.05935 -1.82434 0
M  V30 32072 O 3034.03 -4.56013 -3.01188 0
M  V30 32073 H 3031.12 -0.669839 -0.48502 0
M  V30 32074 H 3033.67 -1.67175 -0.29163 0
M  V30 32075 H 3032.44 -3.78378 -0.997285 0
M  V30 32076 H 3032.06 -3.05198 -2.54833 0
M  V30 32077 N 3033.06 0.557619 -1.47405 0
M  V30 32078 C 3034.31 1.31676 -1.54238 0
M  V30 32079 C 3034.64 1.93128 -0.203816 0
M  V30 32080 O 3033.92 1.77844 0.787505 0
M  V30 32081 C 3034.2 2.42718 -2.66007 0
M  V30 32082 C 3034.05 1.86138 -4.09478 0
M  V30 32083 C 3035.37 3.44647 -2.73691 0
M  V30 32084 H 3032.49 0.477405 -0.561474 0
M  V30 32085 H 3035.13 0.624036 -1.7946 0
M  V30 32086 H 3033.28 3.01807 -2.44632 0
M  V30 32087 H 3034.95 1.31313 -4.42215 0
M  V30 32088 H 3033.2 1.16816 -4.17776 0
M  V30 32089 H 3033.87 2.6641 -4.83456 0
M  V30 32090 H 3036.34 2.95476 -2.92973 0
M  V30 32091 H 3035.22 4.19771 -3.53672 0
M  V30 32092 H 3035.48 4.0347 -1.80733 0
M  V30 32093 N 3034.54 1.35531 0.804316 0
M  V30 32094 C 3035.45 1.30756 1.94782 0
M  V30 32095 C 3036.47 0.212102 1.72702 0
M  V30 32096 O 3037.64 0.441875 1.96493 0
M  V30 32097 C 3034.71 1.08139 3.29404 0
M  V30 32098 C 3033.77 2.27019 3.64363 0
M  V30 32099 C 3033 2.05471 4.92562 0
M  V30 32100 O 3033.22 1.02231 5.61164 0
M  V30 32101 O 3032.16 2.92889 5.25833 0
M  V30 32102 H 3035.98 2.26998 2.01757 0
M  V30 32103 H 3033.57 1.15925 0.942428 0
M  V30 32104 H 3035.45 0.973828 4.09993 0
M  V30 32105 H 3034.13 0.149501 3.23355 0
M  V30 32106 H 3033.03 2.4334 2.84141 0
M  V30 32107 H 3034.37 3.18663 3.7512 0
M  V30 32108 N 3036.02 -1.02674 1.19565 0
M  V30 32109 C 3037.27 -1.75512 0.993895 0
M  V30 32110 C 3037.58 -1.89724 -0.475849 0
M  V30 32111 O 3038.79 -2.59554 -0.796479 0
M  V30 32112 C 3037.24 -3.15625 1.72942 0
M  V30 32113 C 3036.85 -3.0946 3.23942 0
M  V30 32114 C 3038.59 -3.92744 1.61099 0
M  V30 32115 C 3036.5 -4.44517 3.90075 0
M  V30 32116 H 3035.43 -0.657954 0.368255 0
M  V30 32117 H 3038.08 -1.14889 1.43083 0
M  V30 32118 H 3036.46 -3.76729 1.22031 0
M  V30 32119 H 3037.64 -2.57724 3.81988 0
M  V30 32120 H 3035.95 -2.45837 3.36085 0
M  V30 32121 H 3038.55 -4.92646 2.07856 0
M  V30 32122 H 3038.89 -4.12441 0.565487 0
M  V30 32123 H 3039.43 -3.38246 2.09367 0
M  V30 32124 H 3036.16 -4.30024 4.94732 0
M  V30 32125 H 3035.68 -4.963 3.36818 0
M  V30 32126 H 3037.36 -5.13394 3.93745 0
M  V30 32127 N 3037.5 -0.999914 -1.21817 0
M  V30 32128 C 3038.74 -0.690407 -1.91324 0
M  V30 32129 C 3039.1 0.769898 -1.76324 0
M  V30 32130 O 3038.39 1.55031 -1.12587 0
M  V30 32131 C 3038.58 -1.04018 -3.41928 0
M  V30 32132 C 3038.41 -2.53294 -3.71581 0
M  V30 32133 C 3037.18 -3.19813 -3.91214 0
M  V30 32134 C 3039.38 -3.51437 -3.75495 0
M  V30 32135 N 3037.36 -4.58492 -4.08238 0
M  V30 32136 C 3038.73 -4.75604 -3.97744 0
M  V30 32137 C 3040.79 -3.45644 -3.58377 0
M  V30 32138 C 3039.49 -5.94685 -4.04651 0
M  V30 32139 C 3041.52 -4.64109 -3.66547 0
M  V30 32140 C 3040.88 -5.87079 -3.89252 0
M  V30 32141 H 3036.98 -0.304031 -0.720478 0
M  V30 32142 H 3039.56 -1.28135 -1.46593 0
M  V30 32143 H 3037.73 -0.477739 -3.85451 0
M  V30 32144 H 3039.47 -0.685934 -3.98845 0
M  V30 32145 H 3036.22 -2.70266 -3.88913 0
M  V30 32146 H 3036.64 -5.30444 -4.20663 0
M  V30 32147 H 3041.29 -2.51582 -3.39803 0
M  V30 32148 H 3039 -6.89144 -4.22027 0
M  V30 32149 H 3042.59 -4.61224 -3.54631 0
M  V30 32150 H 3041.47 -6.77214 -3.95412 0
M  V30 32151 N 3038.97 1.37284 -0.773999 0
M  V30 32152 C 3040.2 2.03905 -0.350794 0
M  V30 32153 C 3040.62 1.58375 1.02776 0
M  V30 32154 O 3039.97 0.766039 1.65644 0
M  V30 32155 C 3040.02 3.59418 -0.387399 0
M  V30 32156 O 3039.75 4.03283 -1.71157 0
M  V30 32157 C 3041.25 4.43275 0.0471201 0
M  V30 32158 H 3038.47 0.654773 -0.146675 0
M  V30 32159 H 3041.01 1.75573 -1.04855 0
M  V30 32160 H 3039.17 3.86514 0.261797 0
M  V30 32161 H 3039.58 4.97813 -1.65175 0
M  V30 32162 H 3041.05 5.51992 -0.0296445 0
M  V30 32163 H 3041.53 4.25259 1.09778 0
M  V30 32164 H 3042.14 4.21409 -0.573974 0
M  V30 32165 N 3040.45 0.524724 1.48608 0
M  V30 32166 C 3041.4 -0.240915 2.29539 0
M  V30 32167 C 3042.37 -0.938657 1.37034 0
M  V30 32168 O 3043.55 -0.940708 1.65998 0
M  V30 32169 C 3040.69 -1.28509 3.2028 0
M  V30 32170 C 3039.81 -0.596722 4.27859 0
M  V30 32171 C 3038.94 -1.62337 5.05787 0
M  V30 32172 C 3037.98 -0.91818 6.05174 0
M  V30 32173 N 3037.12 -1.89013 6.76179 0
M  V30 32174 H 3041.96 0.45542 2.94499 0
M  V30 32175 H 3039.49 0.236429 1.45188 0
M  V30 32176 H 3041.45 -1.90272 3.71285 0
M  V30 32177 H 3040.08 -1.94987 2.57254 0
M  V30 32178 H 3039.13 0.134735 3.80161 0
M  V30 32179 H 3040.45 -0.042763 4.98782 0
M  V30 32180 H 3039.6 -2.31543 5.60779 0
M  V30 32181 H 3038.34 -2.21122 4.34691 0
M  V30 32182 H 3037.34 -0.212023 5.49391 0
M  V30 32183 H 3038.57 -0.336514 6.78266 0
M  V30 32184 H 3036.52 -2.46715 6.07838 0
M  V30 32185 H 3036.43 -1.38746 7.43159 0
M  V30 32186 H 3037.7 -2.57433 7.35764 0
M  V30 32187 N 3041.93 -1.55447 0.259613 0
M  V30 32188 C 3042.84 -2.2556 -0.644986 0
M  V30 32189 C 3043.86 -1.27608 -1.18289 0
M  V30 32190 O 3045.03 -1.60512 -1.21647 0
M  V30 32191 C 3042.1 -2.95113 -1.81959 0
M  V30 32192 C 3041.16 -4.08506 -1.3199 0
M  V30 32193 C 3040.39 -4.74733 -2.43852 0
M  V30 32194 O 3040.61 -4.40094 -3.62868 0
M  V30 32195 O 3039.55 -5.62994 -2.12888 0
M  V30 32196 H 3043.37 -3.03601 -0.0774866 0
M  V30 32197 H 3040.96 -1.49374 0.0276121 0
M  V30 32198 H 3042.84 -3.38878 -2.50479 0
M  V30 32199 H 3041.52 -2.20001 -2.37447 0
M  V30 32200 H 3040.42 -3.69231 -0.601611 0
M  V30 32201 H 3041.76 -4.85473 -0.81096 0
M  V30 32202 N 3043.41 0.0133338 -1.57594 0
M  V30 32203 C 3044.66 0.699562 -1.89606 0
M  V30 32204 C 3044.98 1.75046 -0.85929 0
M  V30 32205 O 3044.25 1.95618 0.105078 0
M  V30 32206 H 3042.83 0.261373 -0.699781 0
M  V30 32207 H 3045.49 -0.0244386 -1.94885 0
M  V30 32208 H 3044.58 1.17923 -2.88965 0
M  V30 32209 N 3044.89 1.54985 0.285878 0
M  V30 32210 C 3045.8 1.90059 1.37531 0
M  V30 32211 C 3046.81 0.796375 1.54706 0
M  V30 32212 O 3047.99 1.09426 1.6908 0
M  V30 32213 C 3045.05 2.15402 2.71667 0
M  V30 32214 C 3044.11 3.39037 2.63348 0
M  V30 32215 C 3043.35 3.63162 3.91087 0
M  V30 32216 O 3043.57 2.90024 4.91164 0
M  V30 32217 O 3042.5 4.56692 3.92067 0
M  V30 32218 H 3046.33 2.82772 1.10786 0
M  V30 32219 H 3043.91 1.41368 0.483278 0
M  V30 32220 H 3045.8 2.33186 3.51002 0
M  V30 32221 H 3044.47 1.25873 2.98224 0
M  V30 32222 H 3043.38 3.26602 1.82433 0
M  V30 32223 H 3044.71 4.28744 2.41742 0
M  V30 32224 N 3046.36 -0.549794 1.47699 0
M  V30 32225 C 3047.31 -1.65622 1.60742 0
M  V30 32226 C 3048.28 -1.59884 0.450158 0
M  V30 32227 O 3049.47 -1.78606 0.671154 0
M  V30 32228 C 3046.61 -3.03931 1.63462 0
M  V30 32229 C 3045.72 -3.20051 2.90158 0
M  V30 32230 C 3044.85 -4.48802 2.84165 0
M  V30 32231 C 3043.89 -4.5838 4.05652 0
M  V30 32232 N 3043.03 -5.78496 3.97853 0
M  V30 32233 H 3047.87 -1.53812 2.55237 0
M  V30 32234 H 3045.41 -0.749151 1.26594 0
M  V30 32235 H 3047.37 -3.84031 1.63022 0
M  V30 32236 H 3046 -3.14559 0.724744 0
M  V30 32237 H 3045.05 -2.33334 3.00432 0
M  V30 32238 H 3046.36 -3.22992 3.80103 0
M  V30 32239 H 3045.51 -5.37171 2.82015 0
M  V30 32240 H 3044.25 -4.48352 1.91916 0
M  V30 32241 H 3043.26 -3.68423 4.08099 0
M  V30 32242 H 3044.48 -4.60584 4.99038 0
M  V30 32243 H 3042.43 -5.78981 3.08411 0
M  V30 32244 H 3042.35 -5.82846 4.81483 0
M  V30 32245 H 3043.61 -6.69205 3.99731 0
M  V30 32246 N 3047.84 -1.35955 -0.797117 0
M  V30 32247 C 3048.79 -1.29653 -1.90942 0
M  V30 32248 C 3049.76 -0.166657 -1.65262 0
M  V30 32249 O 3050.94 -0.351916 -1.87526 0
M  V30 32250 C 3048.08 -1.08395 -3.27635 0
M  V30 32251 C 3047.2 -2.30388 -3.65438 0
M  V30 32252 C 3046.33 -2.02204 -4.9121 0
M  V30 32253 C 3045.37 -3.202 -5.21669 0
M  V30 32254 N 3044.51 -2.9173 -6.38622 0
M  V30 32255 H 3049.35 -2.24765 -1.95664 0
M  V30 32256 H 3046.89 -1.11719 -0.95694 0
M  V30 32257 H 3048.84 -0.940983 -4.0645 0
M  V30 32258 H 3047.47 -0.169407 -3.22355 0
M  V30 32259 H 3046.53 -2.55516 -2.81808 0
M  V30 32260 H 3047.84 -3.18467 -3.83901 0
M  V30 32261 H 3046.99 -1.84793 -5.77872 0
M  V30 32262 H 3045.73 -1.11424 -4.74801 0
M  V30 32263 H 3044.74 -3.38178 -4.33492 0
M  V30 32264 H 3045.96 -4.11795 -5.40001 0
M  V30 32265 H 3043.91 -2.03554 -6.2362 0
M  V30 32266 H 3043.82 -3.73346 -6.5738 0
M  V30 32267 H 3045.09 -2.77881 -7.28287 0
M  V30 32268 N 3049.32 1.02038 -1.20108 0
M  V30 32269 C 3050.27 2.10499 -0.946505 0
M  V30 32270 C 3051.24 1.65652 0.121873 0
M  V30 32271 O 3052.42 1.90787 -0.0220579 0
M  V30 32272 C 3049.56 3.4145 -0.500559 0
M  V30 32273 C 3048.68 3.99797 -1.63666 0
M  V30 32274 C 3047.81 5.18792 -1.1414 0
M  V30 32275 C 3046.85 5.69213 -2.25084 0
M  V30 32276 N 3045.99 6.79474 -1.76803 0
M  V30 32277 H 3050.83 2.31612 -1.8751 0
M  V30 32278 H 3048.36 1.13585 -0.934713 0
M  V30 32279 H 3050.32 4.16602 -0.22335 0
M  V30 32280 H 3048.95 3.20423 0.391042 0
M  V30 32281 H 3048 3.21777 -2.02888 0
M  V30 32282 H 3049.32 4.33224 -2.47221 0
M  V30 32283 H 3048.47 6.01134 -0.819932 0
M  V30 32284 H 3047.21 4.8692 -0.275701 0
M  V30 32285 H 3046.21 4.85478 -2.58052 0
M  V30 32286 H 3047.44 6.03121 -3.12124 0
M  V30 32287 H 3045.38 6.49438 -0.925542 0
M  V30 32288 H 3045.3 7.12075 -2.53941 0
M  V30 32289 H 3046.57 7.6539 -1.47645 0
M  V30 32290 N 3050.8 1.00636 1.21285 0
M  V30 32291 C 3051.73 0.588128 2.25972 0
M  V30 32292 C 3052.71 -0.391735 1.65528 0
M  V30 32293 O 3053.89 -0.279418 1.92179 0
M  V30 32294 C 3051.02 -0.0846726 3.47197 0
M  V30 32295 C 3049.98 0.815113 4.20167 0
M  V30 32296 C 3049.3 0.00864792 5.34699 0
M  V30 32297 C 3050.6 2.11836 4.77412 0
M  V30 32298 H 3052.3 1.46322 2.61209 0
M  V30 32299 H 3049.84 0.705007 1.25561 0
M  V30 32300 H 3051.8 -0.388747 4.19603 0
M  V30 32301 H 3050.52 -0.994401 3.11094 0
M  V30 32302 H 3049.18 1.10303 3.49612 0
M  V30 32303 H 3048.83 -0.902412 4.94839 0
M  V30 32304 H 3048.53 0.607767 5.84448 0
M  V30 32305 H 3050.05 -0.28921 6.09915 0
M  V30 32306 H 3051.47 1.87735 5.41691 0
M  V30 32307 H 3049.86 2.66745 5.37557 0
M  V30 32308 H 3050.93 2.78823 3.96719 0
M  V30 32309 N 3052.28 -1.36872 0.781268 0
M  V30 32310 C 3053.69 -1.52767 0.461995 0
M  V30 32311 C 3053.89 -1.7372 -1.02095 0
M  V30 32312 O 3052.95 -1.76402 -1.80661 0
M  V30 32313 C 3054.26 -2.71844 1.28535 0
M  V30 32314 C 3055.81 -2.85711 1.27822 0
M  V30 32315 C 3056.28 -4.07782 2.08513 0
M  V30 32316 N 3057.78 -4.14913 2.05916 0
M  V30 32317 C 3058.51 -5.08424 2.65127 0
M  V30 32318 N 3058.01 -6.07432 3.33163 0
M  V30 32319 N 3059.8 -5.00979 2.54905 0
M  V30 32320 H 3051.95 -1.21524 1.742 0
M  V30 32321 H 3054.21 -0.592493 0.740038 0
M  V30 32322 H 3053.92 -2.62857 2.33665 0
M  V30 32323 H 3053.79 -3.65782 0.921046 0
M  V30 32324 H 3056.18 -2.94164 0.234868 0
M  V30 32325 H 3056.26 -1.92704 1.68223 0
M  V30 32326 H 3055.91 -4.0009 3.12874 0
M  V30 32327 H 3055.84 -4.99921 1.65488 0
M  V30 32328 H 3058.33 -3.4402 1.56392 0
M  V30 32329 H 3058.64 -6.75333 3.75693 0
M  V30 32330 H 3056.98 -6.07683 3.37264 0
M  V30 32331 H 3060.18 -4.22578 2.01359 0
M  V30 32332 H 3060.35 -5.7367 3.01342 0
M  V30 32333 N 3053.75 -0.532597 -1.48328 0
M  V30 32334 C 3055.17 -0.0928076 -1.86469 0
M  V30 32335 C 3055.52 1.33057 -1.44188 0
M  V30 32336 O 3054.64 1.99693 -0.833776 0
M  V30 32337 C 3055.24 -0.161648 -3.38414 0
M  V30 32338 C 3053.8 0.222962 -3.75739 0
M  V30 32339 C 3052.94 -0.520247 -2.72376 0
M  V30 32340 H 3055.89 -0.743703 -1.40195 0
M  V30 32341 H 3055.91 0.625994 -3.75315 0
M  V30 32342 H 3055.43 -1.19771 -3.69156 0
M  V30 32343 H 3053.53 1.26107 -3.50611 0
M  V30 32344 H 3053.64 -0.118469 -4.78954 0
M  V30 32345 H 3052 0.0337977 -2.54678 0
M  V30 32346 H 3052.79 -1.55699 -3.05962 0
M  V30 32347 N 3055.23 1.55307 -0.267853 0
M  V30 32348 C 3056.65 1.59366 0.0864827 0
M  V30 32349 C 3056.85 1.28508 1.55203 0
M  V30 32350 O 3055.9 1.04245 2.29977 0
M  V30 32351 C 3057.22 2.99379 -0.281602 0
M  V30 32352 C 3058.77 3.12171 -0.22762 0
M  V30 32353 C 3059.24 4.54439 -0.570039 0
M  V30 32354 N 3060.73 4.60257 -0.521319 0
M  V30 32355 C 3061.47 5.68352 -0.759161 0
M  V30 32356 N 3060.96 6.84624 -1.06124 0
M  V30 32357 N 3062.76 5.57868 -0.688449 0
M  V30 32358 H 3054.91 1.73631 -1.22335 0
M  V30 32359 H 3057.17 0.809288 -0.493717 0
M  V30 32360 H 3056.88 3.26769 -1.30056 0
M  V30 32361 H 3056.75 3.7527 0.381126 0
M  V30 32362 H 3059.14 2.84549 0.782043 0
M  V30 32363 H 3059.22 2.38509 -0.924503 0
M  V30 32364 H 3058.86 4.82786 -1.57735 0
M  V30 32365 H 3058.79 5.2639 0.148554 0
M  V30 32366 H 3061.28 3.76728 -0.297426 0
M  V30 32367 H 3061.6 7.62956 -1.22958 0
M  V30 32368 H 3059.94 6.86257 -1.09893 0
M  V30 32369 H 3063.13 4.65909 -0.45235 0
M  V30 32370 H 3063.3 6.42035 -0.877194 0
M  V30 32371 N 3056.71 -0.00497598 1.57599 0
M  V30 32372 C 3057.96 -0.686279 1.91473 0
M  V30 32373 C 3058.31 -1.71656 0.869018 0
M  V30 32374 O 3057.6 -1.91228 -0.119406 0
M  V30 32375 C 3057.8 -1.37582 3.29857 0
M  V30 32376 C 3057.63 -0.413845 4.47792 0
M  V30 32377 C 3056.4 -0.02606 5.05293 0
M  V30 32378 C 3058.6 0.317854 5.13317 0
M  V30 32379 N 3056.58 0.934652 6.06743 0
M  V30 32380 C 3057.95 1.13341 6.09552 0
M  V30 32381 C 3060 0.382223 4.96431 0
M  V30 32382 C 3058.71 2.00747 6.90719 0
M  V30 32383 C 3060.73 1.24349 5.78179 0
M  V30 32384 C 3060.09 2.04691 6.74004 0
M  V30 32385 H 3056.19 -0.224482 0.749087 0
M  V30 32386 H 3058.78 0.0542026 1.94625 0
M  V30 32387 H 3056.95 -2.08663 3.27589 0
M  V30 32388 H 3058.68 -2.01143 3.51175 0
M  V30 32389 H 3055.44 -0.393379 4.71963 0
M  V30 32390 H 3055.86 1.41023 6.62149 0
M  V30 32391 H 3060.5 -0.224643 4.22203 0
M  V30 32392 H 3058.22 2.62503 7.64276 0
M  V30 32393 H 3061.81 1.29714 5.67156 0
M  V30 32394 H 3060.69 2.70257 7.36159 0
M  V30 32395 N 3058.19 -1.55135 -0.277654 0
M  V30 32396 C 3059.12 -1.90703 -1.34739 0
M  V30 32397 C 3060.1 -0.76838 -1.51756 0
M  V30 32398 O 3061.28 -1.02612 -1.64877 0
M  V30 32399 C 3058.41 -2.17486 -2.70771 0
M  V30 32400 C 3057.37 -3.33312 -2.68491 0
M  V30 32401 C 3056.69 -3.45564 -4.08031 0
M  V30 32402 C 3057.99 -4.69825 -2.2817 0
M  V30 32403 H 3059.69 -2.80302 -1.05219 0
M  V30 32404 H 3057.23 -1.34865 -0.504715 0
M  V30 32405 H 3059.19 -2.40955 -3.45714 0
M  V30 32406 H 3057.91 -1.24681 -3.01864 0
M  V30 32407 H 3056.57 -3.09803 -1.96005 0
M  V30 32408 H 3056.22 -2.50234 -4.36339 0
M  V30 32409 H 3055.92 -4.23436 -4.07401 0
M  V30 32410 H 3057.44 -3.71321 -4.8472 0
M  V30 32411 H 3058.86 -4.9287 -2.92835 0
M  V30 32412 H 3057.25 -5.50579 -2.38711 0
M  V30 32413 H 3058.32 -4.68962 -1.23299 0
M  V30 32414 N 3059.67 0.541953 -1.47989 0
M  V30 32415 C 3060.94 1.303 -1.45881 0
M  V30 32416 C 3061.32 2.10462 -0.163968 0
M  V30 32417 O 3060.67 2.11923 0.854442 0
M  V30 32418 C 3060.88 2.19461 -2.71363 0
M  V30 32419 C 3062.23 2.79989 -3.19204 0
M  V30 32420 O 3063.25 2.29755 -2.72197 0
M  V30 32421 O 3062.11 3.71332 -4.00967 0
M  V30 32422 H 3059.21 0.587488 -0.582054 0
M  V30 32423 H 3061.75 0.559595 -1.60208 0
M  V30 32424 H 3060.52 1.5993 -3.57125 0
M  V30 32425 H 3060.15 3.0107 -2.59697 0
M  V30 32426 N 3061.15 1.36376 0.789896 0
M  V30 32427 C 3062.11 1.30513 1.88412 0
M  V30 32428 C 3063.11 0.212928 1.59384 0
M  V30 32429 O 3064.3 0.467681 1.67805 0
M  V30 32430 C 3061.43 1.02307 3.25186 0
M  V30 32431 H 3062.62 2.27826 1.95027 0
M  V30 32432 H 3060.18 1.21142 0.987643 0
M  V30 32433 H 3060.91 0.0545056 3.24254 0
M  V30 32434 H 3060.7 1.81345 3.47644 0
M  V30 32435 H 3062.19 1.00809 4.0525 0
M  V30 32436 N 3062.62 -1.014 1.20647 0
M  V30 32437 C 3064.04 -1.27357 0.961889 0
M  V30 32438 C 3064.24 -1.98311 -0.357048 0
M  V30 32439 O 3063.3 -2.28003 -1.08494 0
M  V30 32440 C 3064.61 -2.10605 2.1463 0
M  V30 32441 C 3066.16 -2.23862 2.18757 0
M  V30 32442 C 3066.63 -3.10488 3.36691 0
M  V30 32443 N 3068.12 -3.18077 3.36721 0
M  V30 32444 C 3068.86 -3.85336 4.24622 0
M  V30 32445 N 3068.35 -4.54699 5.22705 0
M  V30 32446 N 3070.15 -3.81886 4.12456 0
M  V30 32447 H 3062.3 -0.537685 2.05482 0
M  V30 32448 H 3064.56 -0.299947 0.899297 0
M  V30 32449 H 3064.27 -1.65808 3.10162 0
M  V30 32450 H 3064.14 -3.11345 2.12941 0
M  V30 32451 H 3066.53 -2.67882 1.23786 0
M  V30 32452 H 3066.61 -1.22622 2.24494 0
M  V30 32453 H 3066.25 -2.67173 4.3195 0
M  V30 32454 H 3066.18 -4.11822 3.28192 0
M  V30 32455 H 3068.67 -2.6869 2.65733 0
M  V30 32456 H 3068.99 -5.03697 5.86096 0
M  V30 32457 H 3067.33 -4.53516 5.26639 0
M  V30 32458 H 3070.52 -3.26845 3.35097 0
M  V30 32459 H 3070.7 -4.34027 4.8117 0
M  V30 32460 N 3064.1 -1.01278 -1.2075 0
M  V30 32461 C 3065.33 -0.71901 -1.94005 0
M  V30 32462 C 3065.74 0.71968 -1.74545 0
M  V30 32463 O 3065.1 1.48775 -1.057 0
M  V30 32464 C 3065.15 -1.04037 -3.46206 0
M  V30 32465 O 3064.87 -2.42255 -3.65026 0
M  V30 32466 C 3066.37 -0.767109 -4.36612 0
M  V30 32467 H 3063.59 -0.264338 -0.616739 0
M  V30 32468 H 3066.14 -1.35293 -1.5335 0
M  V30 32469 H 3064.29 -0.451919 -3.84755 0
M  V30 32470 H 3064.71 -2.53721 -4.59049 0
M  V30 32471 H 3066.18 -1.04207 -5.42075 0
M  V30 32472 H 3066.66 0.298774 -4.38183 0
M  V30 32473 H 3067.26 -1.33753 -4.0372 0
M  V30 32474 N 3065.58 1.36456 -0.788516 0
M  V30 32475 C 3066.81 2.03226 -0.371861 0
M  V30 32476 C 3067.22 1.59591 1.01624 0
M  V30 32477 O 3066.56 0.780411 1.66299 0
M  V30 32478 C 3066.62 3.57741 -0.355241 0
M  V30 32479 C 3066.29 4.24573 -1.69076 0
M  V30 32480 C 3067.28 4.47525 -2.64609 0
M  V30 32481 C 3064.97 4.62065 -1.96981 0
M  V30 32482 C 3066.96 5.07047 -3.86241 0
M  V30 32483 C 3064.65 5.21304 -3.18881 0
M  V30 32484 C 3065.65 5.43735 -4.1333 0
M  V30 32485 O 3065.34 6.01731 -5.33081 0
M  V30 32486 H 3065.07 0.658813 -0.151464 0
M  V30 32487 H 3067.62 1.75432 -1.0683 0
M  V30 32488 H 3065.85 3.8465 0.397686 0
M  V30 32489 H 3067.54 4.05883 0.0366241 0
M  V30 32490 H 3068.31 4.18957 -2.44337 0
M  V30 32491 H 3064.19 4.4393 -1.24285 0
M  V30 32492 H 3067.73 5.2447 -4.59975 0
M  V30 32493 H 3063.63 5.49298 -3.39031 0
M  V30 32494 H 3064.39 6.20198 -5.34132 0
M  V30 32495 N 3067.06 0.540456 1.48043 0
M  V30 32496 C 3068.28 0.0125129 2.07396 0
M  V30 32497 C 3068.71 -1.26412 1.3929 0
M  V30 32498 O 3068.07 -1.75307 0.462283 0
M  V30 32499 C 3068.11 -0.183706 3.60132 0
M  V30 32500 O 3067.22 -1.25007 3.92997 0
M  V30 32501 H 3066.56 0.0438142 0.662553 0
M  V30 32502 H 3069.09 0.75136 1.90304 0
M  V30 32503 H 3069.1 -0.403125 4.06004 0
M  V30 32504 H 3067.77 0.748812 4.09103 0
M  V30 32505 H 3066.35 -1.01248 3.58892 0
M  V30 32506 N 3068.54 -1.55163 0.276085 0
M  V30 32507 C 3069.81 -1.91626 -0.392259 0
M  V30 32508 C 3070.19 -1.20046 -1.73644 0
M  V30 32509 O 3069.54 -0.327646 -2.26139 0
M  V30 32510 C 3069.75 -3.44928 -0.53158 0
M  V30 32511 C 3071.1 -4.16724 -0.814027 0
M  V30 32512 O 3072.12 -3.50827 -0.616351 0
M  V30 32513 O 3070.98 -5.33339 -1.19215 0
M  V30 32514 H 3068.08 -0.798582 -0.214931 0
M  V30 32515 H 3070.62 -1.66611 0.322309 0
M  V30 32516 H 3069.39 -3.891 0.41435 0
M  V30 32517 H 3069.02 -3.759 -1.29558 0
M  V30 32518 N 3070.01 -0.00338196 -1.576 0
M  V30 32519 C 3071.42 0.538977 -1.78751 0
M  V30 32520 C 3071.78 1.73761 -0.911127 0
M  V30 32521 O 3070.9 2.16097 -0.114514 0
M  V30 32522 C 3071.5 0.984554 -3.24179 0
M  V30 32523 C 3070.05 1.4722 -3.46415 0
M  V30 32524 C 3069.2 0.424956 -2.74024 0
M  V30 32525 H 3072.15 -0.229539 -1.57031 0
M  V30 32526 H 3072.17 1.85038 -3.32477 0
M  V30 32527 H 3071.69 0.111967 -3.87938 0
M  V30 32528 H 3069.79 2.36557 -2.87875 0
M  V30 32529 H 3069.9 1.49733 -4.55101 0
M  V30 32530 H 3068.26 0.887352 -2.38743 0
M  V30 32531 H 3069.05 -0.438722 -3.40485 0
M  V30 32532 N 3071.49 1.5528 0.269423 0
M  V30 32533 C 3072.42 1.91415 1.33726 0
M  V30 32534 C 3073.4 0.776417 1.51347 0
M  V30 32535 O 3074.59 1.03485 1.6433 0
M  V30 32536 C 3071.72 2.18919 2.69614 0
M  V30 32537 C 3070.67 3.34731 2.6672 0
M  V30 32538 C 3070 3.47723 4.06193 0
M  V30 32539 C 3071.3 4.71029 2.25675 0
M  V30 32540 H 3072.99 2.80856 1.03731 0
M  V30 32541 H 3070.54 1.35131 0.497555 0
M  V30 32542 H 3072.49 2.42786 3.44432 0
M  V30 32543 H 3071.21 1.26281 3.01199 0
M  V30 32544 H 3069.87 3.10838 1.94359 0
M  V30 32545 H 3069.52 2.52545 4.35006 0
M  V30 32546 H 3069.22 4.25591 4.0515 0
M  V30 32547 H 3070.75 3.73886 4.82744 0
M  V30 32548 H 3072.16 4.94416 2.90217 0
M  V30 32549 H 3070.56 5.51837 2.35787 0
M  V30 32550 H 3071.63 4.69609 1.20811 0
M  V30 32551 N 3072.97 -0.534097 1.48274 0
M  V30 32552 C 3073.93 -1.62124 1.62013 0
M  V30 32553 C 3074.93 -1.53034 0.49368 0
M  V30 32554 O 3076.12 -1.56778 0.759364 0
M  V30 32555 C 3073.25 -3.01736 1.58645 0
M  V30 32556 H 3074.45 -1.51284 2.58946 0
M  V30 32557 H 3072 -0.755837 1.36809 0
M  V30 32558 H 3072.74 -3.18087 0.631741 0
M  V30 32559 H 3072.52 -3.09743 2.4042 0
M  V30 32560 H 3074.01 -3.80784 1.71445 0
M  V30 32561 N 3074.45 -1.36793 -0.782652 0
M  V30 32562 C 3075.38 -1.34359 -1.90971 0
M  V30 32563 C 3076.36 -0.213947 -1.68749 0
M  V30 32564 O 3077.54 -0.412634 -1.89766 0
M  V30 32565 C 3074.67 -1.1389 -3.28095 0
M  V30 32566 C 3073.63 -2.23751 -3.64856 0
M  V30 32567 C 3072.95 -1.88417 -5.00403 0
M  V30 32568 C 3074.25 -3.65876 -3.72736 0
M  V30 32569 H 3075.95 -2.28668 -1.93264 0
M  V30 32570 H 3073.49 -1.10074 -0.928428 0
M  V30 32571 H 3075.45 -1.1082 -4.06567 0
M  V30 32572 H 3074.17 -0.160333 -3.26206 0
M  V30 32573 H 3072.83 -2.25957 -2.88685 0
M  V30 32574 H 3072.48 -0.89117 -4.95043 0
M  V30 32575 H 3072.18 -2.61975 -5.25969 0
M  V30 32576 H 3073.7 -1.86915 -5.81288 0
M  V30 32577 H 3075.12 -3.65859 -4.41384 0
M  V30 32578 H 3073.51 -4.38397 -4.09791 0
M  V30 32579 H 3074.58 -4.00291 -2.73669 0
M  V30 32580 N 3075.93 1.00759 -1.21184 0
M  V30 32581 C 3076.87 2.09483 -0.968778 0
M  V30 32582 C 3077.84 1.65772 0.104296 0
M  V30 32583 O 3079.03 1.90753 -0.0422922 0
M  V30 32584 C 3076.17 3.409 -0.536746 0
M  V30 32585 C 3075.28 3.98038 -1.67897 0
M  V30 32586 C 3074.42 5.17553 -1.19636 0
M  V30 32587 C 3073.46 5.66794 -2.31109 0
M  V30 32588 N 3072.59 6.77561 -1.84 0
M  V30 32589 H 3077.43 2.2961 -1.89956 0
M  V30 32590 H 3074.97 1.12587 -0.946707 0
M  V30 32591 H 3076.93 4.16341 -0.267523 0
M  V30 32592 H 3075.56 3.20819 0.357035 0
M  V30 32593 H 3074.61 3.19607 -2.06289 0
M  V30 32594 H 3075.92 4.30578 -2.51802 0
M  V30 32595 H 3075.08 6.0023 -0.883644 0
M  V30 32596 H 3073.81 4.866 -0.32733 0
M  V30 32597 H 3072.82 4.82714 -2.63186 0
M  V30 32598 H 3074.04 5.99777 -3.18504 0
M  V30 32599 H 3071.99 6.4842 -0.994371 0
M  V30 32600 H 3071.91 7.09341 -2.61479 0
M  V30 32601 H 3073.18 7.63781 -1.55755 0
M  V30 32602 N 3077.4 1.01917 1.20211 0
M  V30 32603 C 3078.31 0.601351 2.26762 0
M  V30 32604 C 3079.33 -0.362339 1.70185 0
M  V30 32605 O 3080.51 -0.222647 2.00166 0
M  V30 32606 C 3077.57 -0.051227 3.46662 0
M  V30 32607 C 3076.63 0.958732 4.18458 0
M  V30 32608 C 3075.87 0.337201 5.32634 0
M  V30 32609 O 3076.09 -0.862411 5.63843 0
M  V30 32610 O 3075.02 1.05521 5.92578 0
M  V30 32611 H 3078.85 1.48849 2.64722 0
M  V30 32612 H 3076.43 0.788807 1.26879 0
M  V30 32613 H 3078.32 -0.415566 4.19346 0
M  V30 32614 H 3076.99 -0.912517 3.10572 0
M  V30 32615 H 3075.9 1.37448 3.47935 0
M  V30 32616 H 3077.23 1.79007 4.58495 0
M  V30 32617 N 3078.88 -1.36036 0.795742 0
M  V30 32618 C 3080.13 -1.99071 0.371059 0
M  V30 32619 C 3080.46 -1.63147 -1.05893 0
M  V30 32620 O 3079.71 -0.881194 -1.74738 0
M  V30 32621 C 3080.01 -3.54038 0.4891 0
M  V30 32622 C 3079.68 -4.098 1.88082 0
M  V30 32623 C 3078.34 -4.24741 2.2616 0
M  V30 32624 C 3080.69 -4.40121 2.79182 0
M  V30 32625 C 3078.02 -4.67318 3.54727 0
M  V30 32626 C 3080.37 -4.84132 4.07184 0
M  V30 32627 C 3079.04 -4.97279 4.45275 0
M  V30 32628 H 3078.31 -0.728454 0.13578 0
M  V30 32629 H 3080.95 -1.62424 1.01443 0
M  V30 32630 H 3079.26 -3.91078 -0.237754 0
M  V30 32631 H 3080.95 -4.0075 0.141444 0
M  V30 32632 H 3077.54 -3.98614 1.57495 0
M  V30 32633 H 3081.73 -4.28141 2.51016 0
M  V30 32634 H 3076.98 -4.75685 3.84102 0
M  V30 32635 H 3081.16 -5.06557 4.77884 0
M  V30 32636 H 3078.79 -5.30029 5.44953 0
M  V30 32637 N 3080.36 -0.5483 -1.47755 0
M  V30 32638 C 3081.31 0.204367 -2.29893 0
M  V30 32639 C 3082.28 0.916737 -1.3851 0
M  V30 32640 O 3083.46 0.91418 -1.67474 0
M  V30 32641 C 3080.6 1.23397 -3.22284 0
M  V30 32642 C 3079.72 0.528578 -4.28754 0
M  V30 32643 C 3078.85 1.5427 -5.08305 0
M  V30 32644 C 3077.89 0.821786 -6.06558 0
M  V30 32645 N 3077.03 1.78231 -6.79101 0
M  V30 32646 H 3081.87 -0.502215 -2.93738 0
M  V30 32647 H 3079.4 -0.259497 -1.44793 0
M  V30 32648 H 3081.36 1.84341 -3.74265 0
M  V30 32649 H 3079.99 1.9087 -2.60324 0
M  V30 32650 H 3079.04 -0.195198 -3.79899 0
M  V30 32651 H 3080.36 -0.0365943 -4.98787 0
M  V30 32652 H 3079.51 2.22592 -5.64391 0
M  V30 32653 H 3078.25 2.14178 -4.38154 0
M  V30 32654 H 3077.25 0.124593 -5.49659 0
M  V30 32655 H 3078.48 0.228565 -6.78715 0
M  V30 32656 H 3076.42 2.37014 -6.11687 0
M  V30 32657 H 3076.34 1.26906 -7.45272 0
M  V30 32658 H 3077.61 2.45696 -7.39766 0
M  V30 32659 N 3081.84 1.55014 -0.28431 0
M  V30 32660 C 3083.12 1.91832 0.382091 0
M  V30 32661 C 3083.5 1.20965 1.73005 0
M  V30 32662 O 3082.84 0.339634 2.25962 0
M  V30 32663 C 3083.05 3.45205 0.51328 0
M  V30 32664 C 3084.4 4.1715 0.791915 0
M  V30 32665 O 3085.43 3.51149 0.597737 0
M  V30 32666 O 3084.28 5.33963 1.16385 0
M  V30 32667 H 3081.38 0.799711 0.210693 0
M  V30 32668 H 3083.92 1.66438 -0.33114 0
M  V30 32669 H 3082.7 3.88875 -0.434979 0
M  V30 32670 H 3082.32 3.76581 1.27563 0
M  V30 32671 N 3083.32 0.0117398 1.57596 0
M  V30 32672 C 3084.56 -0.670634 1.91073 0
M  V30 32673 C 3084.89 -1.73123 0.886487 0
M  V30 32674 O 3084.15 -1.95407 -0.107101 0
M  V30 32675 C 3084.45 -1.34076 3.31298 0
M  V30 32676 C 3084.11 -0.412226 4.49012 0
M  V30 32677 C 3082.77 -0.156607 4.80945 0
M  V30 32678 C 3085.13 0.226386 5.20708 0
M  V30 32679 C 3082.45 0.745722 5.81941 0
M  V30 32680 C 3084.81 1.11666 6.22666 0
M  V30 32681 C 3083.47 1.38134 6.53051 0
M  V30 32682 H 3082.74 -0.245402 0.699184 0
M  V30 32683 H 3085.39 0.0697847 1.91373 0
M  V30 32684 H 3083.69 -2.15551 3.27177 0
M  V30 32685 H 3085.39 -1.87499 3.54464 0
M  V30 32686 H 3081.98 -0.62163 4.24068 0
M  V30 32687 H 3086.16 0.0419328 4.96282 0
M  V30 32688 H 3081.42 0.958672 6.03837 0
M  V30 32689 H 3085.59 1.61779 6.77348 0
M  V30 32690 H 3083.22 2.08221 7.31128 0
M  V30 32691 N 3084.79 -1.55421 -0.261185 0
M  V30 32692 C 3085.76 -1.88322 -1.30642 0
M  V30 32693 C 3086.76 -0.758613 -1.4178 0
M  V30 32694 O 3087.95 -1.02671 -1.40727 0
M  V30 32695 C 3085.08 -2.099 -2.68617 0
M  V30 32696 H 3086.27 -2.8177 -1.02693 0
M  V30 32697 H 3083.83 -1.48093 -0.499812 0
M  V30 32698 H 3084.56 -1.18873 -3.01728 0
M  V30 32699 H 3084.35 -2.91792 -2.61916 0
M  V30 32700 H 3085.84 -2.36587 -3.44116 0
M  V30 32701 N 3086.27 0.526227 -1.48555 0
M  V30 32702 C 3087.24 1.61263 -1.62871 0
M  V30 32703 C 3088.24 1.5277 -0.501789 0
M  V30 32704 O 3089.43 1.56373 -0.767668 0
M  V30 32705 C 3086.56 3.0089 -1.60243 0
M  V30 32706 H 3087.75 1.49908 -2.59745 0
M  V30 32707 H 3085.3 0.748571 -1.37208 0
M  V30 32708 H 3086.04 3.17748 -0.648601 0
M  V30 32709 H 3085.82 3.08463 -2.42059 0
M  V30 32710 H 3087.31 3.79869 -1.73462 0
M  V30 32711 N 3087.75 1.37206 0.775387 0
M  V30 32712 C 3089 1.31952 1.53078 0
M  V30 32713 C 3089.32 -0.0966521 1.9476 0
M  V30 32714 O 3088.59 -1.03991 1.6602 0
M  V30 32715 H 3087.17 0.485454 0.567753 0
M  V30 32716 H 3089.83 1.71655 0.92306 0
M  V30 32717 H 3088.93 1.95618 2.43187 0
M  V30 32718 N 3089.23 -1.00115 1.21716 0
M  V30 32719 C 3090.64 -1.2633 0.975343 0
M  V30 32720 C 3090.84 -1.98679 -0.335994 0
M  V30 32721 O 3089.9 -2.29141 -1.06069 0
M  V30 32722 C 3091.21 -2.08316 2.16852 0
M  V30 32723 C 3092.76 -2.2153 2.21119 0
M  V30 32724 C 3093.24 -3.069 3.39966 0
M  V30 32725 N 3094.73 -3.14488 3.40076 0
M  V30 32726 C 3095.46 -3.8081 4.28685 0
M  V30 32727 N 3094.96 -4.4913 5.27498 0
M  V30 32728 N 3096.75 -3.77489 4.16483 0
M  V30 32729 H 3088.9 -0.51586 2.0604 0
M  V30 32730 H 3091.17 -0.290392 0.902428 0
M  V30 32731 H 3090.87 -1.62509 3.11903 0
M  V30 32732 H 3090.75 -3.09069 2.16231 0
M  V30 32733 H 3093.13 -2.66554 1.26621 0
M  V30 32734 H 3093.21 -1.20234 2.25782 0
M  V30 32735 H 3092.86 -2.62577 4.34759 0
M  V30 32736 H 3092.79 -4.08318 3.32542 0
M  V30 32737 H 3095.28 -2.65857 2.68568 0
M  V30 32738 H 3095.59 -4.97453 5.91406 0
M  V30 32739 H 3093.94 -4.47904 5.3142 0
M  V30 32740 H 3097.13 -3.23272 3.38545 0
M  V30 32741 H 3097.3 -4.28899 4.85746 0
M  V30 32742 N 3090.71 -1.02553 -1.19669 0
M  V30 32743 C 3091.65 -0.603433 -2.22772 0
M  V30 32744 C 3092.62 0.381052 -1.6167 0
M  V30 32745 O 3093.81 0.278472 -1.88757 0
M  V30 32746 C 3090.95 0.0430427 -3.45073 0
M  V30 32747 C 3090.06 -0.98708 -4.20572 0
M  V30 32748 C 3089.2 -0.310719 -5.3029 0
M  V30 32749 C 3088.24 -1.32698 -5.97543 0
M  V30 32750 N 3087.37 -0.676665 -6.98832 0
M  V30 32751 H 3092.21 -1.48723 -2.58235 0
M  V30 32752 H 3089.75 -0.744308 -1.2688 0
M  V30 32753 H 3091.71 0.435068 -4.14925 0
M  V30 32754 H 3090.34 0.890441 -3.10276 0
M  V30 32755 H 3089.39 -1.49719 -3.49697 0
M  V30 32756 H 3090.7 -1.7596 -4.66733 0
M  V30 32757 H 3089.86 0.136331 -6.06547 0
M  V30 32758 H 3088.6 0.494034 -4.85191 0
M  V30 32759 H 3087.6 -1.78433 -5.2004 0
M  V30 32760 H 3088.83 -2.13317 -6.44727 0
M  V30 32761 H 3086.77 0.108057 -6.55911 0
M  V30 32762 H 3086.69 -1.38712 -7.43165 0
M  V30 32763 H 3087.96 -0.253504 -7.79088 0
M  V30 32764 N 3092.19 1.35612 -0.802945 0
M  V30 32765 C 3093.41 2.03645 -0.392882 0
M  V30 32766 C 3093.84 1.60122 0.987047 0
M  V30 32767 O 3093.19 0.77613 1.63847 0
M  V30 32768 C 3093.24 3.57387 -0.480271 0
M  V30 32769 O 3092.35 4.09263 0.507679 0
M  V30 32770 H 3091.69 0.643262 -0.164652 0
M  V30 32771 H 3094.22 1.73285 -1.08782 0
M  V30 32772 H 3094.23 4.06507 -0.348754 0
M  V30 32773 H 3092.9 3.88415 -1.48682 0
M  V30 32774 H 3091.48 3.71377 0.336704 0
M  V30 32775 N 3093.66 0.556128 1.47462 0
M  V30 32776 C 3094.91 0.0295274 2.01678 0
M  V30 32777 C 3095.23 -1.32807 1.43603 0
M  V30 32778 O 3096.43 -1.94452 1.89475 0
M  V30 32779 C 3094.89 0.00230263 3.599 0
M  V30 32780 C 3094.5 1.35659 4.26967 0
M  V30 32781 C 3096.24 -0.471748 4.21871 0
M  V30 32782 C 3094.15 1.28853 5.77192 0
M  V30 32783 H 3093.08 0.0072683 0.753965 0
M  V30 32784 H 3095.73 0.703819 1.69466 0
M  V30 32785 H 3094.11 -0.737613 3.8907 0
M  V30 32786 H 3095.28 2.11413 4.0944 0
M  V30 32787 H 3093.6 1.76849 3.76979 0
M  V30 32788 H 3096.2 -0.541045 5.31956 0
M  V30 32789 H 3096.54 -1.48349 3.88971 0
M  V30 32790 H 3097.07 0.213277 3.97228 0
M  V30 32791 H 3093.81 2.27624 6.14709 0
M  V30 32792 H 3093.33 0.572773 5.97059 0
M  V30 32793 H 3095.01 0.990143 6.39379 0
M  V30 32794 N 3095.14 -1.54861 0.292527 0
M  V30 32795 C 3096.1 -2.21886 -0.574384 0
M  V30 32796 C 3097.1 -1.2022 -1.06789 0
M  V30 32797 O 3098.29 -1.45011 -0.965275 0
M  V30 32798 C 3095.43 -2.89856 -1.79433 0
M  V30 32799 H 3096.62 -2.99898 0.0110847 0
M  V30 32800 H 3094.17 -1.5624 0.0432835 0
M  V30 32801 H 3094.91 -2.15901 -2.41986 0
M  V30 32802 H 3094.69 -3.64376 -1.4482 0
M  V30 32803 H 3096.18 -3.41011 -2.41042 0
M  V30 32804 N 3096.62 -0.0200973 -1.57587 0
M  V30 32805 C 3097.55 0.963296 -2.12704 0
M  V30 32806 C 3098.53 1.34529 -1.04096 0
M  V30 32807 O 3099.72 1.4255 -1.31883 0
M  V30 32808 C 3096.85 2.24863 -2.64677 0
M  V30 32809 C 3095.8 2.00766 -3.77991 0
M  V30 32810 C 3095.13 3.35487 -4.16357 0
M  V30 32811 C 3096.43 1.35407 -5.04442 0
M  V30 32812 H 3098.12 0.504311 -2.95122 0
M  V30 32813 H 3095.67 0.241135 -1.41967 0
M  V30 32814 H 3097.62 2.94031 -3.01867 0
M  V30 32815 H 3096.34 2.72911 -1.79408 0
M  V30 32816 H 3095 1.34019 -3.41225 0
M  V30 32817 H 3094.65 3.81276 -3.28082 0
M  V30 32818 H 3094.35 3.20172 -4.9271 0
M  V30 32819 H 3095.87 4.05937 -4.56123 0
M  V30 32820 H 3097.29 1.94561 -5.39276 0
M  V30 32821 H 3095.68 1.30519 -5.85734 0
M  V30 32822 H 3096.75 0.325838 -4.83804 0
M  V30 32823 N 3098.1 1.55557 0.252939 0
M  V30 32824 C 3099.37 1.67849 1.00429 0
M  V30 32825 C 3099.75 0.558196 2.03586 0
M  V30 32826 O 3099.1 -0.439158 2.2424 0
M  V30 32827 C 3099.31 3.07903 1.64307 0
M  V30 32828 C 3100.66 3.66307 2.1472 0
M  V30 32829 O 3101.68 3.10664 1.74259 0
M  V30 32830 O 3100.54 4.63838 2.88992 0
M  V30 32831 H 3097.64 0.682463 0.46709 0
M  V30 32832 H 3100.18 1.6789 0.247204 0
M  V30 32833 H 3098.96 3.80889 0.896614 0
M  V30 32834 H 3098.58 3.11847 2.46652 0
M  V30 32835 N 3099.58 -0.518341 1.48832 0
M  V30 32836 C 3100.51 -1.63072 1.67122 0
M  V30 32837 C 3101.49 -1.61958 0.519976 0
M  V30 32838 O 3102.67 -1.78971 0.753855 0
M  V30 32839 C 3099.8 -3.01624 1.72163 0
M  V30 32840 C 3098.76 -3.17601 2.86904 0
M  V30 32841 C 3098.08 -4.5733 2.77043 0
M  V30 32842 C 3099.38 -2.99266 4.28062 0
M  V30 32843 H 3101.08 -1.48021 2.6025 0
M  V30 32844 H 3098.62 -0.710672 1.25242 0
M  V30 32845 H 3100.57 -3.79327 1.83545 0
M  V30 32846 H 3099.3 -3.17725 0.756213 0
M  V30 32847 H 3097.96 -2.42318 2.75095 0
M  V30 32848 H 3097.61 -4.70283 1.78446 0
M  V30 32849 H 3097.31 -4.68963 3.54044 0
M  V30 32850 H 3098.83 -5.37117 2.9041 0
M  V30 32851 H 3100.24 -3.66752 4.40643 0
M  V30 32852 H 3098.64 -3.22384 5.06151 0
M  V30 32853 H 3099.71 -1.95567 4.43714 0
M  V30 32854 N 3101.05 -1.37615 -0.7681 0
M  V30 32855 C 3102.3 -1.33222 -1.52904 0
M  V30 32856 C 3102.63 0.0820876 -1.94026 0
M  V30 32857 O 3101.91 1.0402 -1.64347 0
M  V30 32858 C 3102.19 -2.27468 -2.7916 0
M  V30 32859 C 3102.04 -3.77694 -2.44269 0
M  V30 32860 C 3103.36 -2.20095 -3.81112 0
M  V30 32861 H 3100.48 -0.485256 -0.554703 0
M  V30 32862 H 3103.12 -1.68346 -0.880882 0
M  V30 32863 H 3101.27 -1.97645 -3.34468 0
M  V30 32864 H 3102.95 -4.18129 -1.94848 0
M  V30 32865 H 3101.19 -3.96084 -1.76918 0
M  V30 32866 H 3101.86 -4.39078 -3.34537 0
M  V30 32867 H 3104.34 -2.46391 -3.35307 0
M  V30 32868 H 3103.21 -2.88174 -4.67169 0
M  V30 32869 H 3103.47 -1.19505 -4.25642 0
M  V30 32870 N 3102.53 0.994677 -1.22245 0
M  V30 32871 C 3103.76 1.7695 -1.07221 0
M  V30 32872 C 3104.17 1.8499 0.377356 0
M  V30 32873 O 3103.53 1.31876 1.26154 0
M  V30 32874 C 3103.58 3.20352 -1.67502 0
M  V30 32875 O 3103.3 3.1275 -3.06788 0
M  V30 32876 C 3104.8 4.14291 -1.57728 0
M  V30 32877 H 3102.02 0.555773 -0.375976 0
M  V30 32878 H 3104.57 1.25063 -1.61801 0
M  V30 32879 H 3102.72 3.69313 -1.16989 0
M  V30 32880 H 3103.14 4.0292 -3.35791 0
M  V30 32881 H 3104.61 5.12669 -2.04632 0
M  V30 32882 H 3105.09 4.35948 -0.533511 0
M  V30 32883 H 3105.69 3.71225 -2.07538 0
M  V30 32884 N 3104.01 1.03186 1.19123 0
M  V30 32885 C 3104.92 0.625369 2.26111 0
M  V30 32886 C 3105.94 -0.344268 1.7056 0
M  V30 32887 O 3107.11 -0.201404 2.0039 0
M  V30 32888 C 3104.18 -0.0144559 3.46697 0
M  V30 32889 C 3103.24 1.00306 4.17417 0
M  V30 32890 C 3102.47 0.393675 5.32246 0
M  V30 32891 O 3102.69 -0.802559 5.64726 0
M  V30 32892 O 3101.63 1.118 5.91426 0
M  V30 32893 H 3105.45 1.51648 2.63129 0
M  V30 32894 H 3103.04 0.80222 1.26035 0
M  V30 32895 H 3104.92 -0.371065 4.19763 0
M  V30 32896 H 3103.6 -0.879526 3.11522 0
M  V30 32897 H 3102.5 1.41131 3.46458 0
M  V30 32898 H 3103.84 1.8386 4.5657 0
M  V30 32899 N 3105.49 -1.35184 0.810125 0
M  V30 32900 C 3106.74 -1.97921 0.388624 0
M  V30 32901 C 3107.05 -1.6498 -1.05076 0
M  V30 32902 O 3108.26 -2.21108 -1.57555 0
M  V30 32903 C 3106.71 -3.54093 0.643926 0
M  V30 32904 C 3106.32 -3.9594 2.09609 0
M  V30 32905 C 3108.06 -4.23522 0.287958 0
M  V30 32906 C 3105.97 -5.44972 2.29695 0
M  V30 32907 H 3104.9 -0.740589 0.141575 0
M  V30 32908 H 3107.55 -1.54202 0.99468 0
M  V30 32909 H 3105.93 -3.95987 -0.0321282 0
M  V30 32910 H 3107.11 -3.65187 2.81025 0
M  V30 32911 H 3105.42 -3.3941 2.41226 0
M  V30 32912 H 3108.02 -5.33079 0.416039 0
M  V30 32913 H 3108.36 -4.09188 -0.766233 0
M  V30 32914 H 3108.9 -3.87061 0.918072 0
M  V30 32915 H 3105.64 -5.64278 3.33573 0
M  V30 32916 H 3105.16 -5.77281 1.62808 0
M  V30 32917 H 3106.83 -6.11482 2.11422 0
M  V30 32918 N 3106.97 -0.56394 -1.47165 0
M  V30 32919 C 3108.21 -0.0423228 -2.02056 0
M  V30 32920 C 3108.54 1.31494 -1.43994 0
M  V30 32921 O 3107.81 1.8591 -0.617611 0
M  V30 32922 H 3106.39 -0.0126559 -0.746893 0
M  V30 32923 H 3109.05 -0.735473 -1.8049 0
M  V30 32924 H 3108.14 0.0407495 -3.12073 0
M  V30 32925 N 3108.44 1.54704 -0.300735 0
M  V30 32926 C 3109.86 1.59513 0.0526594 0
M  V30 32927 C 3110.06 1.31771 1.52442 0
M  V30 32928 O 3109.12 1.091 2.27714 0
M  V30 32929 C 3110.43 2.98714 -0.345041 0
M  V30 32930 C 3111.98 3.11618 -0.293785 0
M  V30 32931 C 3112.45 4.53127 -0.666304 0
M  V30 32932 N 3113.94 4.59048 -0.618829 0
M  V30 32933 C 3114.68 5.66614 -0.879546 0
M  V30 32934 N 3114.17 6.82219 -1.20622 0
M  V30 32935 N 3115.97 5.56282 -0.806626 0
M  V30 32936 H 3108.12 1.70997 -1.25991 0
M  V30 32937 H 3110.38 0.798634 -0.510772 0
M  V30 32938 H 3110.09 3.23937 -1.36958 0
M  V30 32939 H 3109.96 3.75994 0.301441 0
M  V30 32940 H 3112.35 2.86144 0.72151 0
M  V30 32941 H 3112.43 2.36494 -0.974886 0
M  V30 32942 H 3112.07 4.79331 -1.67941 0
M  V30 32943 H 3112 5.26587 0.0368649 0
M  V30 32944 H 3114.49 3.76012 -0.377268 0
M  V30 32945 H 3114.81 7.60176 -1.39114 0
M  V30 32946 H 3113.15 6.83771 -1.24425 0
M  V30 32947 H 3116.34 4.64845 -0.551074 0
M  V30 32948 H 3116.52 6.4003 -1.01318 0
M  V30 32949 N 3109.92 0.0284543 1.57574 0
M  V30 32950 C 3111.17 -0.651294 1.92057 0
M  V30 32951 C 3111.5 -1.71817 0.905122 0
M  V30 32952 O 3110.78 -1.94366 -0.0722362 0
M  V30 32953 C 3111.06 -1.26835 3.37024 0
M  V30 32954 C 3110.91 -0.211078 4.49304 0
M  V30 32955 C 3112.23 -2.18656 3.81939 0
M  V30 32956 H 3109.35 -0.235292 0.698432 0
M  V30 32957 H 3111.99 0.0855769 1.89807 0
M  V30 32958 H 3110.14 -1.89638 3.39072 0
M  V30 32959 H 3111.81 0.41946 4.59389 0
M  V30 32960 H 3110.06 0.463521 4.31316 0
M  V30 32961 H 3110.73 -0.682422 5.47765 0
M  V30 32962 H 3113.2 -1.6584 3.81623 0
M  V30 32963 H 3112.08 -2.58784 4.84068 0
M  V30 32964 H 3112.34 -3.07744 3.17405 0
M  V30 32965 N 3111.4 -1.55689 -0.244686 0
M  V30 32966 C 3112.81 -1.68041 -0.813573 0
M  V30 32967 C 3113.16 -0.626313 -1.85935 0
M  V30 32968 O 3112.29 0.227 -2.15206 0
M  V30 32969 C 3112.88 -3.04645 -1.48247 0
M  V30 32970 C 3111.44 -3.18929 -1.99903 0
M  V30 32971 C 3110.59 -2.63922 -0.850912 0
M  V30 32972 H 3113.54 -1.58687 -0.0204526 0
M  V30 32973 H 3113.56 -2.99213 -2.35057 0
M  V30 32974 H 3113.07 -3.81342 -0.721097 0
M  V30 32975 H 3111.17 -2.47059 -2.78914 0
M  V30 32976 H 3111.29 -4.25865 -2.19489 0
M  V30 32977 H 3109.65 -2.21803 -1.25202 0
M  V30 32978 H 3110.43 -3.43147 -0.10259 0
M  V30 32979 N 3112.88 0.510441 -1.49105 0
M  V30 32980 C 3114.1 1.29414 -1.6207 0
M  V30 32981 C 3114.53 1.85875 -0.288465 0
M  V30 32982 O 3113.89 1.65392 0.742637 0
M  V30 32983 C 3113.93 2.40697 -2.6851 0
M  V30 32984 O 3113.04 3.44286 -2.27027 0
M  V30 32985 H 3112.38 0.382467 -0.542785 0
M  V30 32986 H 3114.91 0.612119 -1.95229 0
M  V30 32987 H 3114.92 2.86599 -2.90388 0
M  V30 32988 H 3113.59 1.98967 -3.65219 0
M  V30 32989 H 3112.17 3.04367 -2.15442 0
M  V30 32990 N 3114.36 1.38021 0.760791 0
M  V30 32991 C 3115.31 1.31178 1.86484 0
M  V30 32992 C 3116.29 0.197442 1.59684 0
M  V30 32993 O 3117.48 0.432794 1.71627 0
M  V30 32994 C 3114.61 1.13197 3.24101 0
M  V30 32995 C 3113.7 2.29222 3.56816 0
M  V30 32996 N 3114.09 3.54646 3.60638 0
M  V30 32997 C 3112.39 2.21617 3.87043 0
M  V30 32998 C 3113.09 4.3122 3.90415 0
M  V30 32999 N 3112.06 3.60489 4.06877 0
M  V30 33000 H 3115.87 2.26149 1.87707 0
M  V30 33001 H 3113.38 1.31149 0.957788 0
M  V30 33002 H 3115.38 1.06379 4.03099 0
M  V30 33003 H 3114.04 0.19153 3.24135 0
M  V30 33004 H 3115.05 3.88411 3.42575 0
M  V30 33005 H 3111.72 1.35691 3.94834 0
M  V30 33006 H 3113.11 5.39819 4.00056 0
M  V30 33007 N 3115.83 -0.98818 1.22771 0
M  V30 33008 C 3116.76 -2.09736 1.02631 0
M  V30 33009 C 3117.75 -1.70013 -0.0542912 0
M  V30 33010 O 3118.93 -1.93895 0.108845 0
M  V30 33011 C 3116.06 -3.4193 0.608362 0
M  V30 33012 C 3115.01 -3.95522 1.63543 0
M  V30 33013 C 3114.34 -5.2382 1.07317 0
M  V30 33014 C 3115.64 -4.25671 3.02657 0
M  V30 33015 H 3117.33 -2.26843 1.95404 0
M  V30 33016 H 3114.88 -1.09009 0.940907 0
M  V30 33017 H 3116.83 -4.18941 0.454552 0
M  V30 33018 H 3115.56 -3.24665 -0.355038 0
M  V30 33019 H 3114.22 -3.20648 1.77709 0
M  V30 33020 H 3113.86 -5.02899 0.100982 0
M  V30 33021 H 3113.56 -5.60643 1.75935 0
M  V30 33022 H 3115.09 -6.0346 0.931044 0
M  V30 33023 H 3116.5 -4.93461 2.91837 0
M  V30 33024 H 3114.9 -4.73678 3.68442 0
M  V30 33025 H 3115.97 -3.33255 3.52234 0
M  V30 33026 N 3117.31 -1.03816 -1.18575 0
M  V30 33027 C 3118.28 -0.631499 -2.20329 0
M  V30 33028 C 3119.28 0.309788 -1.57788 0
M  V30 33029 O 3120.47 0.0955292 -1.73938 0
M  V30 33030 C 3117.6 0.0745363 -3.40819 0
M  V30 33031 H 3118.79 -1.53194 -2.57821 0
M  V30 33032 H 3116.34 -0.830421 -1.32415 0
M  V30 33033 H 3117.08 0.988892 -3.08855 0
M  V30 33034 H 3116.86 -0.601968 -3.87452 0
M  V30 33035 H 3118.35 0.345654 -4.16167 0
M  V30 33036 N 3118.79 1.34753 -0.817283 0
M  V30 33037 C 3119.74 2.27053 -0.207625 0
M  V30 33038 C 3120.72 1.48273 0.62481 0
M  V30 33039 O 3121.92 1.70358 0.480314 0
M  V30 33040 C 3119.05 3.37391 0.634221 0
M  V30 33041 C 3118.13 4.23587 -0.208531 0
M  V30 33042 N 3118.52 4.8942 -1.27679 0
M  V30 33043 C 3116.82 4.45999 0.00807256 0
M  V30 33044 C 3117.52 5.53404 -1.79219 0
M  V30 33045 N 3116.5 5.32417 -1.09696 0
M  V30 33046 H 3120.3 2.75453 -1.02485 0
M  V30 33047 H 3117.81 1.48405 -0.659518 0
M  V30 33048 H 3119.81 4.02477 1.08711 0
M  V30 33049 H 3118.47 2.90542 1.44967 0
M  V30 33050 H 3119.48 4.90591 -1.65954 0
M  V30 33051 H 3116.16 4.09923 0.791806 0
M  V30 33052 H 3117.55 6.15894 -2.68559 0
M  V30 33053 N 3120.27 0.571737 1.46864 0
M  V30 33054 C 3121.69 0.232578 1.57896 0
M  V30 33055 C 3121.89 -1.26506 1.56839 0
M  V30 33056 O 3120.94 -2.04614 1.4795 0
M  V30 33057 C 3122.25 0.872086 2.87776 0
M  V30 33058 C 3123.8 0.844658 3.01388 0
M  V30 33059 C 3124.28 1.4635 4.33988 0
M  V30 33060 N 3125.77 1.42734 4.4066 0
M  V30 33061 C 3126.5 1.87566 5.41855 0
M  V30 33062 N 3126 2.40321 6.49783 0
M  V30 33063 N 3127.79 1.78549 5.32988 0
M  V30 33064 H 3119.94 1.54459 1.45795 0
M  V30 33065 H 3122.21 0.644976 0.694773 0
M  V30 33066 H 3121.91 1.92518 2.94329 0
M  V30 33067 H 3121.79 0.373743 3.75344 0
M  V30 33068 H 3124.17 -0.199788 2.94423 0
M  V30 33069 H 3124.25 1.38091 2.15324 0
M  V30 33070 H 3123.9 2.50709 4.4171 0
M  V30 33071 H 3123.83 0.902571 5.18807 0
M  V30 33072 H 3126.32 1.04161 3.63261 0
M  V30 33073 H 3126.63 2.72416 7.23194 0
M  V30 33074 H 3124.98 2.4434 6.50633 0
M  V30 33075 H 3128.17 1.37101 4.47572 0
M  V30 33076 H 3128.34 2.13805 6.11712 0
M  V30 33077 N 3121.75 -1.54542 0.308935 0
M  V30 33078 C 3122.98 -2.04708 -0.300382 0
M  V30 33079 C 3123.39 -1.18584 -1.46913 0
M  V30 33080 O 3122.75 -0.213218 -1.8125 0
M  V30 33081 C 3122.8 -3.53656 -0.748976 0
M  V30 33082 O 3122.52 -4.36507 0.373258 0
M  V30 33083 C 3124.02 -4.19853 -1.42262 0
M  V30 33084 H 3121.24 -0.66793 -0.0641149 0
M  V30 33085 H 3123.78 -1.99468 0.450874 0
M  V30 33086 H 3121.94 -3.59231 -1.45024 0
M  V30 33087 H 3122.35 -5.24495 0.0225674 0
M  V30 33088 H 3123.83 -5.25571 -1.68759 0
M  V30 33089 H 3124.3 -3.70071 -2.36525 0
M  V30 33090 H 3124.91 -4.18376 -0.76433 0
M  V30 33091 N 3123.23 -0.0368104 -1.57557 0
M  V30 33092 C 3124.64 0.319643 -1.56366 0
M  V30 33093 C 3124.84 1.72396 -1.04316 0
M  V30 33094 O 3123.9 2.42795 -0.69332 0
M  V30 33095 C 3125.21 0.161221 -3.00267 0
M  V30 33096 C 3126.76 0.233409 -3.12128 0
M  V30 33097 C 3127.23 0.103687 -4.57883 0
M  V30 33098 N 3128.72 0.160425 -4.62922 0
M  V30 33099 C 3129.46 0.0839486 -5.73339 0
M  V30 33100 N 3128.96 -0.0440548 -6.92786 0
M  V30 33101 N 3130.75 0.138493 -5.61929 0
M  V30 33102 H 3122.9 -0.955029 -1.89718 0
M  V30 33103 H 3125.16 -0.369482 -0.873033 0
M  V30 33104 H 3124.87 -0.80645 -3.42329 0
M  V30 33105 H 3124.74 0.92824 -3.656 0
M  V30 33106 H 3127.13 1.19154 -2.69975 0
M  V30 33107 H 3127.21 -0.564119 -2.49502 0
M  V30 33108 H 3126.85 -0.851061 -5.00719 0
M  V30 33109 H 3126.78 0.920177 -5.18498 0
M  V30 33110 H 3129.28 0.259191 -3.7701 0
M  V30 33111 H 3129.59 -0.0955078 -7.72741 0
M  V30 33112 H 3127.93 -0.0789433 -6.94955 0
M  V30 33113 H 3131.12 0.236949 -4.675 0
M  V30 33114 H 3131.3 0.0754321 -6.47956 0
M  V30 33115 N 3124.7 1.55817 0.236426 0
M  V30 33116 C 3125.65 1.92028 1.31256 0
M  V30 33117 C 3126.65 0.800544 1.4929 0
M  V30 33118 O 3127.85 0.985256 1.50641 0
M  V30 33119 H 3124.23 0.610027 0.43974 0
M  V30 33120 H 3126.2 2.81853 0.979877 0
M  V30 33121 C 3124.95 2.24051 2.65888 0
M  V30 33122 H 3124.27 3.09718 2.52814 0
M  V30 33123 H 3125.71 2.53283 3.40035 0
M  V30 33124 C 3124.17 1.06045 3.19775 0
M  V30 33125 O 3124.7 0.313856 4.00472 0
M  V30 33126 N 3122.9 0.848258 2.77944 0
M  V30 33127 H 3122.45 1.45709 2.1243 0
M  V30 33128 H 3122.41 0.0603977 3.14342 0
M  V30 33129 N 3126.18 -0.502526 1.49373 0
M  V30 33130 C 3127.14 -1.58651 1.65416 0
M  V30 33131 C 3128.14 -1.51953 0.52603 0
M  V30 33132 O 3129.33 -1.55132 0.792448 0
M  V30 33133 C 3126.47 -2.98303 1.6501 0
M  V30 33134 H 3127.66 -1.45757 2.62097 0
M  V30 33135 H 3125.21 -0.726648 1.38382 0
M  V30 33136 H 3125.95 -3.16676 0.69907 0
M  V30 33137 H 3125.73 -3.04573 2.46936 0
M  V30 33138 H 3127.22 -3.77062 1.79483 0
M  V30 33139 N 3127.66 -1.38422 -0.75346 0
M  V30 33140 C 3128.59 -1.3838 -1.88078 0
M  V30 33141 C 3129.57 -0.249693 -1.68257 0
M  V30 33142 O 3130.76 -0.452794 -1.88848 0
M  V30 33143 C 3127.89 -1.20824 -3.25605 0
M  V30 33144 C 3126.84 -2.3144 -3.60027 0
M  V30 33145 C 3126.17 -1.98989 -4.96294 0
M  V30 33146 C 3127.47 -3.737 -3.64891 0
M  V30 33147 H 3129.16 -2.32716 -1.88371 0
M  V30 33148 H 3126.71 -1.12018 -0.904871 0
M  V30 33149 H 3128.66 -1.19419 -4.04125 0
M  V30 33150 H 3127.38 -0.22949 -3.25793 0
M  V30 33151 H 3126.04 -2.3203 -2.83827 0
M  V30 33152 H 3125.69 -0.995975 -4.93041 0
M  V30 33153 H 3125.39 -2.73073 -5.20293 0
M  V30 33154 H 3126.91 -1.99203 -5.77192 0
M  V30 33155 H 3128.33 -3.7514 -4.33524 0
M  V30 33156 H 3126.72 -4.4699 -4.004 0
M  V30 33157 H 3127.79 -4.06006 -2.65117 0
M  V30 33158 N 3129.14 0.981655 -1.23294 0
M  V30 33159 C 3130.41 1.69708 -0.972544 0
M  V30 33160 C 3130.79 2.04866 0.509208 0
M  V30 33161 O 3130.14 1.74085 1.48009 0
M  V30 33162 C 3130.35 2.9394 -1.8815 0
M  V30 33163 C 3131.7 3.66481 -2.14423 0
M  V30 33164 O 3132.72 3.0397 -1.85689 0
M  V30 33165 O 3131.58 4.78974 -2.63147 0
M  V30 33166 H 3128.68 0.741263 -0.366686 0
M  V30 33167 H 3131.22 1.03699 -1.3433 0
M  V30 33168 H 3130 2.64546 -2.88325 0
M  V30 33169 H 3129.62 3.67686 -1.51303 0
M  V30 33170 N 3130.62 1.04444 1.18022 0
M  V30 33171 C 3131.56 0.632596 2.23832 0
M  V30 33172 C 3132.56 -0.342459 1.65902 0
M  V30 33173 O 3133.76 -0.209339 1.78779 0
M  V30 33174 H 3130.14 0.186366 0.728541 0
M  V30 33175 H 3132.11 1.5353 2.55873 0
M  V30 33176 C 3130.86 0.0154272 3.47697 0
M  V30 33177 H 3130.18 0.756773 3.92572 0
M  V30 33178 H 3131.62 -0.235466 4.23346 0
M  V30 33179 C 3130.08 -1.23574 3.13418 0
M  V30 33180 O 3130.61 -2.32604 3.27503 0
M  V30 33181 N 3128.82 -1.13048 2.6771 0
M  V30 33182 H 3128.36 -0.243232 2.56449 0
M  V30 33183 H 3128.32 -1.96851 2.45147 0
M  V30 33184 N 3132.09 -1.34317 0.824418 0
M  V30 33185 C 3133.02 -2.32024 0.262118 0
M  V30 33186 C 3134 -1.5831 -0.622249 0
M  V30 33187 O 3135.19 -1.86284 -0.548815 0
M  V30 33188 C 3132.32 -3.42497 -0.575609 0
M  V30 33189 C 3131.27 -4.27476 0.211745 0
M  V30 33190 C 3130.6 -5.29431 -0.74882 0
M  V30 33191 C 3131.9 -5.02605 1.42077 0
M  V30 33192 H 3133.59 -2.79302 1.07847 0
M  V30 33193 H 3131.14 -1.34282 0.520046 0
M  V30 33194 H 3133.09 -4.09866 -0.979179 0
M  V30 33195 H 3131.82 -2.93872 -1.42503 0
M  V30 33196 H 3130.48 -3.61711 0.5967 0
M  V30 33197 H 3130.12 -4.77067 -1.59423 0
M  V30 33198 H 3129.82 -5.87164 -0.22621 0
M  V30 33199 H 3131.35 -5.99669 -1.15021 0
M  V30 33200 H 3132.76 -5.62821 1.09113 0
M  V30 33201 H 3131.16 -5.6992 1.87913 0
M  V30 33202 H 3132.23 -4.32213 2.19818 0
M  V30 33203 N 3133.57 -0.579517 -1.46558 0
M  V30 33204 C 3134.82 -0.063972 -2.02699 0
M  V30 33205 C 3135.15 1.29137 -1.45043 0
M  V30 33206 O 3134.43 1.84544 -0.614316 0
M  V30 33207 C 3134.71 0.00522288 -3.601 0
M  V30 33208 C 3134.56 -1.37879 -4.28146 0
M  V30 33209 C 3135.88 0.70746 -4.34377 0
M  V30 33210 H 3133 -0.0247214 -0.736585 0
M  V30 33211 H 3135.64 -0.746102 -1.74738 0
M  V30 33212 H 3133.79 0.586138 -3.84053 0
M  V30 33213 H 3135.46 -2.00462 -4.15467 0
M  V30 33214 H 3133.71 -1.94739 -3.87633 0
M  V30 33215 H 3134.38 -1.28288 -5.36886 0
M  V30 33216 H 3136.85 0.213991 -4.15549 0
M  V30 33217 H 3135.73 0.724896 -5.44092 0
M  V30 33218 H 3135.99 1.76813 -4.05203 0
M  V30 33219 N 3135.05 1.54376 -0.317127 0
M  V30 33220 C 3135.98 2.2033 0.594139 0
M  V30 33221 C 3136.96 1.17814 1.12065 0
M  V30 33222 O 3138.15 1.46526 1.18585 0
M  V30 33223 C 3135.27 2.85991 1.81458 0
M  V30 33224 C 3134.32 4.02171 1.41989 0
M  V30 33225 S 3135.15 5.33503 0.462065 0
M  V30 33226 C 3136.31 6.02654 1.68994 0
M  V30 33227 H 3136.54 2.97281 0.0338738 0
M  V30 33228 H 3134.07 1.54068 -0.101223 0
M  V30 33229 H 3136.03 3.24444 2.51488 0
M  V30 33230 H 3134.69 2.08855 2.34603 0
M  V30 33231 H 3133.89 4.46954 2.32913 0
M  V30 33232 H 3133.49 3.65358 0.799359 0
M  V30 33233 H 3135.78 6.24442 2.62828 0
M  V30 33234 H 3136.72 6.96354 1.28438 0
M  V30 33235 H 3137.13 5.32487 1.87399 0
M  V30 33236 N 3136.53 0.0451655 1.57535 0
M  V30 33237 C 3137.46 -0.929334 2.14209 0
M  V30 33238 C 3138.44 -1.32856 1.06223 0
M  V30 33239 O 3139.62 -1.40434 1.34134 0
M  V30 33240 C 3136.75 -2.20624 2.68221 0
M  V30 33241 C 3135.71 -1.94727 3.81137 0
M  V30 33242 C 3135.03 -3.2882 4.21641 0
M  V30 33243 C 3136.33 -1.27365 5.06533 0
M  V30 33244 H 3138.03 -0.457296 2.95887 0
M  V30 33245 H 3135.57 -0.218519 1.42332 0
M  V30 33246 H 3137.53 -2.89191 3.06507 0
M  V30 33247 H 3136.25 -2.70022 1.83727 0
M  V30 33248 H 3134.91 -1.28573 3.43314 0
M  V30 33249 H 3134.56 -3.76008 3.34106 0
M  V30 33250 H 3134.26 -3.12293 4.97742 0
M  V30 33251 H 3135.78 -3.98629 4.62523 0
M  V30 33252 H 3137.2 -1.85957 5.42303 0
M  V30 33253 H 3135.59 -1.21184 5.87737 0
M  V30 33254 H 3136.66 -0.248827 4.84261 0
M  V30 33255 N 3138.01 -1.5594 -0.228159 0
M  V30 33256 C 3138.96 -1.88269 -1.28603 0
M  V30 33257 C 3139.94 -0.745164 -1.42605 0
M  V30 33258 O 3141.13 -1.00746 -1.45531 0
M  V30 33259 C 3138.26 -2.19716 -2.63779 0
M  V30 33260 C 3137.35 -3.39844 -2.53706 0
M  V30 33261 N 3137.74 -4.58635 -2.13278 0
M  V30 33262 C 3136.04 -3.43327 -2.8468 0
M  V30 33263 C 3136.74 -5.40789 -2.14295 0
M  V30 33264 N 3135.71 -4.8033 -2.54527 0
M  V30 33265 H 3139.52 -2.77632 -0.964258 0
M  V30 33266 H 3137.03 -1.56417 -0.436742 0
M  V30 33267 H 3139.03 -2.4105 -3.40148 0
M  V30 33268 H 3137.69 -1.31663 -2.96808 0
M  V30 33269 H 3138.7 -4.83915 -1.84516 0
M  V30 33270 H 3135.37 -2.65598 -3.22124 0
M  V30 33271 H 3136.76 -6.45866 -1.85219 0
M  V30 33272 N 3139.48 0.494597 -1.49638 0
M  V30 33273 C 3140.71 1.27217 -1.63167 0
M  V30 33274 C 3141.13 1.86311 -0.305584 0
M  V30 33275 O 3140.48 1.68134 0.709728 0
M  V30 33276 C 3140.54 2.39784 -2.70529 0
M  V30 33277 O 3140.26 1.83119 -3.97994 0
M  V30 33278 C 3141.76 3.31053 -2.9482 0
M  V30 33279 H 3138.98 0.385617 -0.549127 0
M  V30 33280 H 3141.52 0.593047 -1.95712 0
M  V30 33281 H 3139.68 3.03515 -2.40743 0
M  V30 33282 H 3140.09 2.57067 -4.57184 0
M  V30 33283 H 3141.56 4.06303 -3.7366 0
M  V30 33284 H 3142.04 3.88432 -2.04981 0
M  V30 33285 H 3142.65 2.73082 -3.26046 0
M  V30 33286 N 3140.96 1.3882 0.746109 0
M  V30 33287 C 3142.19 1.38868 1.54046 0
M  V30 33288 C 3142.61 -0.0176293 1.88092 0
M  V30 33289 O 3141.97 -1.0017 1.51115 0
M  V30 33290 C 3142.02 2.25796 2.81156 0
M  V30 33291 O 3141.12 1.6802 3.7662 0
M  V30 33292 H 3140.46 0.473367 0.465639 0
M  V30 33293 H 3142.99 1.82676 0.921437 0
M  V30 33294 H 3143 2.39918 3.30005 0
M  V30 33295 H 3141.68 3.28004 2.55707 0
M  V30 33296 H 3140.26 1.6308 3.35349 0
M  V30 33297 N 3142.44 -0.975103 1.23812 0
M  V30 33298 C 3143.35 -2.10247 1.04084 0
M  V30 33299 C 3144.37 -1.73992 -0.0162098 0
M  V30 33300 O 3145.54 -2.00591 0.180381 0
M  V30 33301 C 3142.61 -3.4074 0.640073 0
M  V30 33302 C 3141.67 -3.90988 1.77277 0
M  V30 33303 C 3140.9 -5.15253 1.39103 0
M  V30 33304 O 3141.12 -5.69724 0.277583 0
M  V30 33305 O 3140.06 -5.59701 2.21402 0
M  V30 33306 H 3143.88 -2.29782 1.98579 0
M  V30 33307 H 3141.47 -1.08631 1.02565 0
M  V30 33308 H 3143.35 -4.19223 0.427758 0
M  V30 33309 H 3142.03 -3.22523 -0.275833 0
M  V30 33310 H 3140.93 -3.13599 2.03977 0
M  V30 33311 H 3142.27 -4.13669 2.66718 0
M  V30 33312 N 3143.92 -1.05068 -1.17467 0
M  V30 33313 C 3144.87 -0.620751 -2.19387 0
M  V30 33314 C 3145.85 0.342112 -1.57221 0
M  V30 33315 O 3147.04 0.159543 -1.76279 0
M  V30 33316 C 3144.17 0.00432484 -3.433 0
M  V30 33317 C 3143.26 -0.98229 -4.12567 0
M  V30 33318 N 3143.65 -2.15321 -4.57679 0
M  V30 33319 C 3141.95 -0.810493 -4.38574 0
M  V30 33320 C 3142.65 -2.77728 -5.11119 0
M  V30 33321 N 3141.63 -2.05534 -5.03246 0
M  V30 33322 H 3145.43 -1.51291 -2.51969 0
M  V30 33323 H 3142.94 -0.920649 -1.33783 0
M  V30 33324 H 3144.94 0.330088 -4.15591 0
M  V30 33325 H 3143.6 0.891895 -3.1221 0
M  V30 33326 H 3144.61 -2.53162 -4.51807 0
M  V30 33327 H 3141.29 0.0261344 -4.17492 0
M  V30 33328 H 3142.68 -3.77018 -5.56154 0
M  V30 33329 N 3145.4 1.33878 -0.831529 0
M  V30 33330 C 3146.64 1.97626 -0.422872 0
M  V30 33331 C 3146.97 1.66222 1.01958 0
M  V30 33332 O 3146.24 0.957353 1.70914 0
M  V30 33333 H 3144.82 0.731084 -0.153378 0
M  V30 33334 H 3147.48 1.63368 -1.06287 0
M  V30 33335 H 3146.57 3.07235 -0.548912 0
M  V30 33336 N 3146.87 0.587281 1.46249 0
M  V30 33337 C 3148.12 0.0744628 2.01963 0
M  V30 33338 C 3148.44 -1.29187 1.46068 0
M  V30 33339 O 3147.71 -1.84904 0.647109 0
M  V30 33340 H 3146.29 0.0245367 0.746597 0
M  V30 33341 H 3148.96 0.764095 1.79298 0
M  V30 33342 H 3148.05 0.00890379 3.12099 0
M  V30 33343 N 3148.35 -1.54206 0.325309 0
M  V30 33344 C 3149.77 -1.59577 -0.0272756 0
M  V30 33345 C 3149.97 -1.3418 -1.50326 0
M  V30 33346 O 3149.02 -1.12709 -2.25949 0
M  V30 33347 C 3150.34 -2.98127 0.392521 0
M  V30 33348 C 3151.89 -3.11111 0.343324 0
M  V30 33349 C 3152.36 -4.5201 0.738308 0
M  V30 33350 N 3153.85 -4.58005 0.691782 0
M  V30 33351 C 3154.59 -5.65143 0.969578 0
M  V30 33352 N 3154.08 -6.80213 1.3146 0
M  V30 33353 N 3155.88 -5.54929 0.895024 0
M  V30 33354 H 3148.03 -1.68971 1.28695 0
M  V30 33355 H 3150.29 -0.790407 0.523413 0
M  V30 33356 H 3150 -3.21717 1.42094 0
M  V30 33357 H 3149.87 -3.76426 -0.241585 0
M  V30 33358 H 3152.26 -2.87255 -0.675895 0
M  V30 33359 H 3152.34 -2.34914 1.01239 0
M  V30 33360 H 3151.98 -4.76599 1.75545 0
M  V30 33361 H 3151.91 -5.26579 0.0469152 0
M  V30 33362 H 3154.4 -3.75364 0.437041 0
M  V30 33363 H 3154.72 -7.57866 1.5119 0
M  V30 33364 H 3153.06 -6.81705 1.35288 0
M  V30 33365 H 3156.25 -4.63909 0.624957 0
M  V30 33366 H 3156.42 -6.38337 1.11488 0
M  V30 33367 N 3149.83 -0.0535194 -1.57509 0
M  V30 33368 C 3150.79 0.90527 -2.10565 0
M  V30 33369 C 3151.79 1.23836 -1.02574 0
M  V30 33370 O 3152.98 1.17465 -1.28637 0
M  V30 33371 C 3150.12 2.21442 -2.59183 0
M  V30 33372 H 3151.31 0.445302 -2.96576 0
M  V30 33373 H 3148.86 0.19492 -1.5508 0
M  V30 33374 H 3149.6 2.72016 -1.76573 0
M  V30 33375 H 3149.38 1.98569 -3.38101 0
M  V30 33376 H 3150.87 2.90116 -3.0037 0
M  V30 33377 N 3151.31 1.56059 0.219886 0
M  V30 33378 C 3152.54 1.82968 0.959489 0
M  V30 33379 C 3152.95 0.630633 1.78381 0
M  V30 33380 O 3152.29 -0.410172 1.79062 0
M  V30 33381 C 3152.35 3.03634 1.92475 0
M  V30 33382 C 3152.02 4.38568 1.28479 0
M  V30 33383 C 3153.01 5.15515 0.673855 0
M  V30 33384 C 3150.7 4.85291 1.29606 0
M  V30 33385 C 3152.69 6.37346 0.0827204 0
M  V30 33386 C 3150.38 6.07065 0.701084 0
M  V30 33387 C 3151.38 6.82933 0.0954677 0
M  V30 33388 O 3151.07 8.02404 -0.49025 0
M  V30 33389 H 3150.8 0.612193 0.286698 0
M  V30 33390 H 3153.35 2.03996 0.239726 0
M  V30 33391 H 3151.58 2.78428 2.68355 0
M  V30 33392 H 3153.27 3.17401 2.53005 0
M  V30 33393 H 3154.04 4.80523 0.657464 0
M  V30 33394 H 3149.92 4.26211 1.75684 0
M  V30 33395 H 3153.46 6.96506 -0.390604 0
M  V30 33396 H 3149.36 6.41529 0.714894 0
M  V30 33397 H 3150.12 8.17595 -0.384732 0
M  V30 33398 N 3152.79 -0.486655 1.49898 0
M  V30 33399 C 3154.2 -0.819085 1.36979 0
M  V30 33400 C 3154.4 -1.97204 0.413885 0
M  V30 33401 O 3153.46 -2.52059 -0.149205 0
M  V30 33402 C 3154.77 -1.14579 2.78015 0
M  V30 33403 C 3156.32 -1.25316 2.86819 0
M  V30 33404 C 3156.8 -1.61308 4.28653 0
M  V30 33405 N 3158.29 -1.6833 4.31531 0
M  V30 33406 C 3159.02 -1.97652 5.38257 0
M  V30 33407 N 3158.52 -2.25101 6.55211 0
M  V30 33408 N 3160.31 -1.99024 5.25686 0
M  V30 33409 H 3152.46 0.273401 2.10633 0
M  V30 33410 H 3154.72 0.0597585 0.946115 0
M  V30 33411 H 3154.43 -0.371831 3.49729 0
M  V30 33412 H 3154.3 -2.08579 3.14284 0
M  V30 33413 H 3156.69 -2.01782 2.15333 0
M  V30 33414 H 3156.77 -0.293323 2.54113 0
M  V30 33415 H 3156.42 -0.85388 5.00671 0
M  V30 33416 H 3156.35 -2.58416 4.58834 0
M  V30 33417 H 3158.84 -1.4922 3.47191 0
M  V30 33418 H 3159.15 -2.46705 7.32364 0
M  V30 33419 H 3157.5 -2.22527 6.58412 0
M  V30 33420 H 3160.69 -1.77066 4.33319 0
M  V30 33421 H 3160.86 -2.21541 6.08953 0
M  V30 33422 N 3154.27 -1.39214 -0.738737 0
M  V30 33423 C 3155.22 -1.34128 -1.84374 0
M  V30 33424 C 3156.2 -0.222821 -1.5935 0
M  V30 33425 O 3157.39 -0.460044 -1.70917 0
M  V30 33426 C 3154.52 -1.18339 -3.22259 0
M  V30 33427 C 3153.61 -2.3487 -3.53124 0
M  V30 33428 N 3154 -3.60339 -3.5495 0
M  V30 33429 C 3152.3 -2.27746 -3.83468 0
M  V30 33430 C 3153 -4.37377 -3.83505 0
M  V30 33431 N 3151.97 -3.66916 -4.0109 0
M  V30 33432 H 3155.77 -2.29107 -1.84085 0
M  V30 33433 H 3153.29 -1.32657 -0.936802 0
M  V30 33434 H 3155.29 -1.12779 -4.01356 0
M  V30 33435 H 3153.95 -0.243073 -3.23789 0
M  V30 33436 H 3154.96 -3.93812 -3.36352 0
M  V30 33437 H 3151.63 -1.41955 -3.92626 0
M  V30 33438 H 3153.02 -5.46116 -3.91417 0
M  V30 33439 N 3155.74 0.968523 -1.24328 0
M  V30 33440 C 3156.71 2.04452 -1.03595 0
M  V30 33441 C 3157.71 1.60799 0.00645263 0
M  V30 33442 O 3158.9 1.72615 -0.234434 0
M  V30 33443 C 3156.03 3.36101 -0.569979 0
M  V30 33444 H 3157.22 2.24279 -1.99096 0
M  V30 33445 H 3154.77 1.14364 -1.06539 0
M  V30 33446 H 3155.51 3.21967 0.388268 0
M  V30 33447 H 3155.29 3.6913 -1.32233 0
M  V30 33448 H 3156.78 4.15212 -0.445927 0
M  V30 33449 N 3157.22 1.0569 1.16908 0
M  V30 33450 C 3158.47 0.771104 1.87568 0
M  V30 33451 C 3158.8 -0.700367 1.81131 0
M  V30 33452 O 3158.08 -1.51257 1.22276 0
M  V30 33453 C 3158.36 1.25857 3.3739 0
M  V30 33454 C 3158.21 2.79335 3.52551 0
M  V30 33455 C 3159.53 0.861588 4.31584 0
M  V30 33456 H 3156.65 0.281591 0.681084 0
M  V30 33457 H 3159.29 1.31176 1.37451 0
M  V30 33458 H 3157.44 0.798629 3.80203 0
M  V30 33459 H 3159.11 3.33491 3.18719 0
M  V30 33460 H 3157.36 3.18365 2.94663 0
M  V30 33461 H 3158.03 3.08506 4.57742 0
M  V30 33462 H 3160.5 1.25763 3.9664 0
M  V30 33463 H 3159.38 1.23021 5.34936 0
M  V30 33464 H 3159.64 -0.234011 4.4148 0
M  V30 33465 N 3158.7 -1.33435 0.838617 0
M  V30 33466 C 3159.61 -2.32993 0.274089 0
M  V30 33467 C 3160.63 -1.63337 -0.599747 0
M  V30 33468 O 3161.8 -1.94994 -0.503929 0
M  V30 33469 C 3158.87 -3.42441 -0.541744 0
M  V30 33470 C 3157.93 -4.27819 0.356337 0
M  V30 33471 C 3157.16 -5.3204 -0.420654 0
M  V30 33472 O 3157.38 -5.45942 -1.65238 0
M  V30 33473 O 3156.32 -6.0155 0.205207 0
M  V30 33474 H 3160.14 -2.83137 1.09851 0
M  V30 33475 H 3157.73 -1.36773 0.601135 0
M  V30 33476 H 3159.61 -4.09231 -1.00536 0
M  V30 33477 H 3158.29 -2.94515 -1.34323 0
M  V30 33478 H 3157.19 -3.63896 0.86779 0
M  V30 33479 H 3158.53 -4.79227 1.12258 0
M  V30 33480 N 3160.18 -0.595029 -1.45935 0
M  V30 33481 C 3161.09 0.133284 -2.34221 0
M  V30 33482 C 3162.1 0.873381 -1.50493 0
M  V30 33483 O 3163.28 0.833796 -1.8333 0
M  V30 33484 C 3160.34 1.12622 -3.27898 0
M  V30 33485 C 3159.41 0.389457 -4.2753 0
M  V30 33486 C 3158.64 1.3351 -5.16731 0
M  V30 33487 O 3158.86 2.57229 -5.09106 0
M  V30 33488 O 3157.8 0.838979 -5.96024 0
M  V30 33489 H 3161.62 -0.591913 -2.97876 0
M  V30 33490 H 3159.21 -0.355354 -1.45112 0
M  V30 33491 H 3161.09 1.69844 -3.85657 0
M  V30 33492 H 3159.76 1.83267 -2.66824 0
M  V30 33493 H 3158.67 -0.224908 -3.73423 0
M  V30 33494 H 3160 -0.276255 -4.91424 0
M  V30 33495 N 3161.66 1.54031 -0.333483 0
M  V30 33496 C 3162.59 2.27625 0.52047 0
M  V30 33497 C 3163.57 1.28799 1.11107 0
M  V30 33498 O 3164.75 1.57627 1.13435 0
M  V30 33499 C 3161.88 3.04152 1.67658 0
M  V30 33500 C 3160.84 4.10398 1.2148 0
M  V30 33501 C 3160.16 4.74821 2.45863 0
M  V30 33502 C 3161.46 5.21303 0.322511 0
M  V30 33503 H 3163.16 2.99254 -0.0934349 0
M  V30 33504 H 3160.7 1.43925 -0.0463779 0
M  V30 33505 H 3162.65 3.5437 2.28035 0
M  V30 33506 H 3161.38 2.30157 2.31722 0
M  V30 33507 H 3160.04 3.61078 0.633903 0
M  V30 33508 H 3159.69 3.97432 3.08313 0
M  V30 33509 H 3159.39 5.46597 2.15652 0
M  V30 33510 H 3160.91 5.27819 3.06985 0
M  V30 33511 H 3162.32 5.67218 0.832842 0
M  V30 33512 H 3160.72 5.99994 0.112737 0
M  V30 33513 H 3161.79 4.80604 -0.644038 0
M  V30 33514 N 3163.13 0.0618717 1.57479 0
M  V30 33515 C 3164.54 -0.472263 1.80628 0
M  V30 33516 C 3164.9 -1.7026 0.97499 0
M  V30 33517 O 3164.02 -2.15523 0.194638 0
M  V30 33518 C 3164.62 -0.863558 3.2761 0
M  V30 33519 C 3163.17 -1.34261 3.5164 0
M  V30 33520 C 3162.32 -0.322961 2.75413 0
M  V30 33521 H 3165.27 0.287662 1.56071 0
M  V30 33522 H 3165.29 -1.72571 3.39116 0
M  V30 33523 H 3164.81 0.0320908 3.88087 0
M  V30 33524 H 3162.91 -2.25709 2.96456 0
M  V30 33525 H 3163.02 -1.32739 4.60345 0
M  V30 33526 H 3161.38 -0.798133 2.41872 0
M  V30 33527 H 3162.17 0.564788 3.38622 0
M  V30 33528 N 3164.61 -1.56173 -0.211607 0
M  V30 33529 C 3165.52 -1.96404 -1.28306 0
M  V30 33530 C 3166.54 -0.869281 -1.5073 0
M  V30 33531 O 3167.71 -1.17368 -1.63666 0
M  V30 33532 C 3164.78 -2.28119 -2.6108 0
M  V30 33533 C 3163.84 -3.51216 -2.46872 0
M  V30 33534 C 3163.07 -3.81408 -3.73314 0
M  V30 33535 O 3163.3 -3.13128 -4.76767 0
M  V30 33536 O 3162.23 -4.74878 -3.69831 0
M  V30 33537 H 3166.06 -2.87736 -0.971683 0
M  V30 33538 H 3163.64 -1.43512 -0.41528 0
M  V30 33539 H 3165.52 -2.49667 -3.39477 0
M  V30 33540 H 3164.2 -1.39959 -2.91879 0
M  V30 33541 H 3163.11 -3.34935 -1.66642 0
M  V30 33542 H 3164.44 -4.3979 -2.21011 0
M  V30 33543 N 3166.09 0.478699 -1.50154 0
M  V30 33544 C 3167.32 1.25479 -1.64507 0
M  V30 33545 C 3167.73 1.85976 -0.325328 0
M  V30 33546 O 3167.09 1.68878 0.691855 0
M  V30 33547 C 3167.14 2.36902 -2.73057 0
M  V30 33548 O 3166.86 1.78887 -3.99914 0
M  V30 33549 C 3168.36 3.27907 -2.98315 0
M  V30 33550 H 3165.58 0.379771 -0.553186 0
M  V30 33551 H 3168.13 0.572255 -1.9633 0
M  V30 33552 H 3166.28 3.00945 -2.43949 0
M  V30 33553 H 3166.7 2.52203 -4.59884 0
M  V30 33554 H 3168.17 4.02317 -3.77949 0
M  V30 33555 H 3168.65 3.86236 -2.09089 0
M  V30 33556 H 3169.25 2.69609 -3.28924 0
M  V30 33557 N 3167.57 1.39603 0.731343 0
M  V30 33558 C 3168.5 1.33007 1.8543 0
M  V30 33559 C 3169.48 0.203099 1.61327 0
M  V30 33560 O 3170.66 0.384156 1.84544 0
M  V30 33561 C 3167.79 1.06619 3.21481 0
M  V30 33562 C 3166.84 2.21555 3.64439 0
M  V30 33563 S 3167.67 3.83858 3.73381 0
M  V30 33564 C 3168.83 3.59703 5.12215 0
M  V30 33565 H 3169.06 2.28045 1.90743 0
M  V30 33566 H 3166.59 1.25702 0.896568 0
M  V30 33567 H 3168.55 0.920789 4.0004 0
M  V30 33568 H 3167.21 0.132618 3.1382 0
M  V30 33569 H 3166.4 1.98694 4.63181 0
M  V30 33570 H 3166.01 2.32317 2.93095 0
M  V30 33571 H 3168.3 3.17194 5.9866 0
M  V30 33572 H 3169.24 4.5792 5.40107 0
M  V30 33573 H 3169.65 2.93725 4.82064 0
M  V30 33574 N 3169.05 -0.961916 1.2484 0
M  V30 33575 C 3169.96 -2.09131 1.06308 0
M  V30 33576 C 3170.97 -1.74 0.00224534 0
M  V30 33577 O 3172.15 -2.00388 0.201646 0
M  V30 33578 C 3169.21 -3.40042 0.676177 0
M  V30 33579 C 3168.27 -3.89086 1.81414 0
M  V30 33580 C 3167.51 -5.13749 1.4456 0
M  V30 33581 O 3167.73 -5.69398 0.337994 0
M  V30 33582 O 3166.66 -5.57321 2.27326 0
M  V30 33583 H 3170.49 -2.27663 2.01005 0
M  V30 33584 H 3168.08 -1.07537 1.03712 0
M  V30 33585 H 3169.96 -4.18746 0.472198 0
M  V30 33586 H 3168.63 -3.22797 -0.24161 0
M  V30 33587 H 3167.54 -3.11418 2.07292 0
M  V30 33588 H 3168.87 -4.10817 2.71091 0
M  V30 33589 N 3170.52 -1.06308 -1.16346 0
M  V30 33590 C 3171.75 -0.800647 -1.90781 0
M  V30 33591 C 3172.17 0.645002 -1.77441 0
M  V30 33592 O 3171.52 1.44158 -1.11914 0
M  V30 33593 C 3171.58 -1.18627 -3.41482 0
M  V30 33594 O 3171.3 -2.57519 -3.54423 0
M  V30 33595 C 3172.8 -0.951601 -4.32966 0
M  V30 33596 H 3170.02 -0.290258 -0.604972 0
M  V30 33597 H 3172.56 -1.41675 -1.47474 0
M  V30 33598 H 3170.72 -0.6147 -3.82492 0
M  V30 33599 H 3171.13 -2.72962 -4.47875 0
M  V30 33600 H 3172.6 -1.27105 -5.37167 0
M  V30 33601 H 3173.08 0.112657 -4.39055 0
M  V30 33602 H 3173.69 -1.50756 -3.97684 0
M  V30 33603 N 3172 1.32989 -0.845682 0
M  V30 33604 C 3172.93 2.31578 -0.298998 0
M  V30 33605 C 3173.91 1.5928 0.596984 0
M  V30 33606 O 3175.1 1.87133 0.51911 0
M  V30 33607 C 3172.23 3.43369 0.521048 0
M  V30 33608 C 3171.18 4.27085 -0.279726 0
M  V30 33609 C 3170.51 5.30555 0.664497 0
M  V30 33610 C 3171.81 5.00281 -1.50055 0
M  V30 33611 H 3173.5 2.77551 -1.12277 0
M  V30 33612 H 3171.05 1.33437 -0.541343 0
M  V30 33613 H 3173 4.11372 0.913849 0
M  V30 33614 H 3171.73 2.96102 1.37809 0
M  V30 33615 H 3170.38 3.60716 -0.654169 0
M  V30 33616 H 3170.03 4.79543 1.51813 0
M  V30 33617 H 3169.73 5.8745 0.132768 0
M  V30 33618 H 3171.26 6.01423 1.05467 0
M  V30 33619 H 3172.67 5.61014 -1.18054 0
M  V30 33620 H 3171.07 5.66858 -1.96956 0
M  V30 33621 H 3172.14 4.28661 -2.26666 0
M  V30 33622 N 3173.48 0.60276 1.45618 0
M  V30 33623 C 3174.41 -0.106301 2.33258 0
M  V30 33624 C 3175.39 -0.863638 1.46545 0
M  V30 33625 O 3176.58 -0.835144 1.75325 0
M  V30 33626 C 3173.71 -1.10745 3.2917 0
M  V30 33627 C 3172.66 -0.463642 4.25481 0
M  V30 33628 C 3171.99 -1.57269 5.11048 0
M  V30 33629 C 3173.29 0.612081 5.18701 0
M  V30 33630 H 3174.98 0.625474 2.92794 0
M  V30 33631 H 3172.53 0.302237 1.40792 0
M  V30 33632 H 3174.48 -1.61201 3.89348 0
M  V30 33633 H 3173.2 -1.86976 2.67783 0
M  V30 33634 H 3171.86 0.0200141 3.66595 0
M  V30 33635 H 3171.51 -2.32516 4.46033 0
M  V30 33636 H 3171.21 -1.14745 5.76288 0
M  V30 33637 H 3172.73 -2.07962 5.74094 0
M  V30 33638 H 3174.15 0.191787 5.72979 0
M  V30 33639 H 3172.55 0.95879 5.92391 0
M  V30 33640 H 3173.62 1.49058 4.61421 0
M  V30 33641 N 3174.96 -1.53852 0.341647 0
M  V30 33642 C 3175.89 -2.27898 -0.508391 0
M  V30 33643 C 3176.87 -1.29386 -1.10423 0
M  V30 33644 O 3178.05 -1.58226 -1.12597 0
M  V30 33645 C 3175.18 -3.05036 -1.66042 0
M  V30 33646 C 3174.14 -4.11037 -1.19302 0
M  V30 33647 C 3173.46 -4.76119 -2.43342 0
M  V30 33648 C 3174.76 -5.21467 -0.29486 0
M  V30 33649 H 3176.46 -2.992 0.109304 0
M  V30 33650 H 3174 -1.43899 0.05401 0
M  V30 33651 H 3175.96 -3.55574 -2.26152 0
M  V30 33652 H 3174.68 -2.31383 -2.30499 0
M  V30 33653 H 3173.34 -3.61409 -0.614745 0
M  V30 33654 H 3172.99 -3.99061 -3.06201 0
M  V30 33655 H 3172.69 -5.47733 -2.12751 0
M  V30 33656 H 3174.21 -5.29439 -3.04181 0
M  V30 33657 H 3175.63 -5.67652 -0.80275 0
M  V30 33658 H 3174.02 -6.00045 -0.0809166 0
M  V30 33659 H 3175.09 -4.80256 0.669517 0
M  V30 33660 N 3176.44 -0.0702223 -1.57443 0
M  V30 33661 C 3177.37 0.895138 -2.15661 0
M  V30 33662 C 3178.35 1.31149 -1.08323 0
M  V30 33663 O 3179.53 1.38282 -1.36351 0
M  V30 33664 C 3176.66 2.16329 -2.71697 0
M  V30 33665 C 3175.62 1.88639 -3.84187 0
M  V30 33666 C 3174.94 3.22071 -4.26819 0
M  V30 33667 C 3176.24 1.1929 -5.08495 0
M  V30 33668 H 3177.94 0.410165 -2.96577 0
M  V30 33669 H 3175.48 0.195847 -1.42662 0
M  V30 33670 H 3177.44 2.84278 -3.11069 0
M  V30 33671 H 3176.16 2.67065 -1.87999 0
M  V30 33672 H 3174.82 1.23095 -3.45316 0
M  V30 33673 H 3174.47 3.70645 -3.40046 0
M  V30 33674 H 3174.17 3.04335 -5.02647 0
M  V30 33675 H 3175.69 3.9122 -4.68806 0
M  V30 33676 H 3177.1 1.77306 -5.45193 0
M  V30 33677 H 3175.5 1.11818 -5.8959 0
M  V30 33678 H 3176.57 0.171754 -4.84596 0
M  V30 33679 N 3177.91 1.56283 0.203321 0
M  V30 33680 C 3179.16 1.79784 0.923151 0
M  V30 33681 C 3179.48 0.641882 1.84133 0
M  V30 33682 O 3178.75 -0.340259 1.92922 0
M  V30 33683 H 3177.33 0.663146 0.34387 0
M  V30 33684 H 3180 1.93757 0.210803 0
M  V30 33685 H 3179.09 2.72631 1.51916 0
M  V30 33686 N 3179.39 -0.470729 1.50406 0
M  V30 33687 C 3180.32 -1.57673 1.72225 0
M  V30 33688 C 3181.3 -1.60221 0.571238 0
M  V30 33689 O 3182.49 -1.76482 0.810412 0
M  V30 33690 C 3179.62 -2.95994 1.81672 0
M  V30 33691 C 3178.57 -3.08312 2.96863 0
M  V30 33692 C 3177.9 -4.48285 2.91453 0
M  V30 33693 C 3179.2 -2.85496 4.37366 0
M  V30 33694 H 3180.89 -1.39666 2.64828 0
M  V30 33695 H 3178.44 -0.670468 1.27439 0
M  V30 33696 H 3180.39 -3.73296 1.95521 0
M  V30 33697 H 3179.12 -3.15158 0.856912 0
M  V30 33698 H 3177.78 -2.33444 2.82665 0
M  V30 33699 H 3177.42 -4.64368 1.93318 0
M  V30 33700 H 3177.12 -4.57462 3.68784 0
M  V30 33701 H 3178.65 -5.27606 3.07351 0
M  V30 33702 H 3180.06 -3.52548 4.52088 0
M  V30 33703 H 3178.46 -3.06118 5.16151 0
M  V30 33704 H 3179.53 -1.81351 4.49711 0
M  V30 33705 N 3180.87 -1.39989 -0.72393 0
M  V30 33706 C 3181.8 -1.33988 -1.84722 0
M  V30 33707 C 3182.78 -0.211651 -1.61217 0
M  V30 33708 O 3183.97 -0.393938 -1.84338 0
M  V30 33709 C 3181.09 -1.08322 -3.20911 0
M  V30 33710 C 3180.14 -2.23485 -3.63259 0
M  V30 33711 S 3180.97 -3.85833 -3.7134 0
M  V30 33712 C 3182.13 -3.62414 -5.10301 0
M  V30 33713 H 3182.36 -2.29053 -1.89531 0
M  V30 33714 H 3179.89 -1.26176 -0.889889 0
M  V30 33715 H 3181.85 -0.941991 -3.99546 0
M  V30 33716 H 3180.51 -0.149259 -3.13745 0
M  V30 33717 H 3179.71 -2.01147 -4.62121 0
M  V30 33718 H 3179.31 -2.33868 -2.91859 0
M  V30 33719 H 3181.6 -3.20365 -5.9697 0
M  V30 33720 H 3182.54 -4.60778 -5.37671 0
M  V30 33721 H 3182.95 -2.96277 -4.805 0
M  V30 33722 N 3182.35 0.955282 -1.25348 0
M  V30 33723 C 3183.6 1.69419 -1.09453 0
M  V30 33724 C 3183.91 1.92175 0.364425 0
M  V30 33725 O 3185.12 2.63757 0.643797 0
M  V30 33726 C 3183.57 3.05005 -1.9105 0
M  V30 33727 C 3183.18 2.90047 -3.41433 0
M  V30 33728 C 3184.93 3.82683 -1.83723 0
M  V30 33729 C 3182.83 4.21019 -4.15328 0
M  V30 33730 H 3181.76 0.635365 -0.405989 0
M  V30 33731 H 3184.41 1.06351 -1.49538 0
M  V30 33732 H 3182.8 3.68973 -1.43788 0
M  V30 33733 H 3183.97 2.35015 -3.96364 0
M  V30 33734 H 3182.28 2.25824 -3.49846 0
M  V30 33735 H 3184.88 4.79689 -2.36225 0
M  V30 33736 H 3185.22 4.08443 -0.804991 0
M  V30 33737 H 3185.76 3.25464 -2.28732 0
M  V30 33738 H 3182.5 4.00448 -5.18962 0
M  V30 33739 H 3182.02 4.75819 -3.6518 0
M  V30 33740 H 3183.7 4.89565 -4.23008 0
M  V30 33741 N 3183.83 1.06924 1.1578 0
M  V30 33742 C 3184.76 0.707084 2.22537 0
M  V30 33743 C 3185.74 -0.303441 1.67372 0
M  V30 33744 O 3186.92 -0.177155 1.9339 0
M  V30 33745 C 3184.05 0.0994879 3.47157 0
M  V30 33746 C 3183.01 1.03669 4.15255 0
M  V30 33747 C 3182.33 0.292068 5.33902 0
M  V30 33748 C 3183.63 2.36845 4.65512 0
M  V30 33749 H 3185.33 1.59962 2.53086 0
M  V30 33750 H 3182.87 0.770573 1.21648 0
M  V30 33751 H 3184.83 -0.165778 4.21074 0
M  V30 33752 H 3183.55 -0.828099 3.15927 0
M  V30 33753 H 3182.21 1.2868 3.43274 0
M  V30 33754 H 3181.86 -0.63884 4.98927 0
M  V30 33755 H 3181.56 0.916716 5.80405 0
M  V30 33756 H 3183.08 0.0344988 6.1059 0
M  V30 33757 H 3184.5 2.16184 5.30978 0
M  V30 33758 H 3182.89 2.94865 5.22661 0
M  V30 33759 H 3183.96 2.9946 3.81381 0
M  V30 33760 N 3185.31 -1.32538 0.852723 0
M  V30 33761 C 3186.24 -2.31416 0.311275 0
M  V30 33762 C 3187.22 -1.59594 -0.588529 0
M  V30 33763 O 3188.4 -1.87406 -0.509178 0
M  V30 33764 C 3185.53 -3.43641 -0.502831 0
M  V30 33765 C 3184.49 -4.26931 0.302371 0
M  V30 33766 C 3183.81 -5.309 -0.636351 0
M  V30 33767 C 3185.11 -4.99478 1.52706 0
M  V30 33768 H 3186.81 -2.76951 1.13747 0
M  V30 33769 H 3184.35 -1.33148 0.548412 0
M  V30 33770 H 3186.3 -4.11851 -0.89202 0
M  V30 33771 H 3185.03 -2.96828 -1.36237 0
M  V30 33772 H 3183.69 -3.60364 0.67329 0
M  V30 33773 H 3183.34 -4.80342 -1.49268 0
M  V30 33774 H 3183.04 -5.87512 -0.101612 0
M  V30 33775 H 3184.56 -6.01973 -1.02276 0
M  V30 33776 H 3185.97 -5.6038 1.21027 0
M  V30 33777 H 3184.37 -5.65806 1.99959 0
M  V30 33778 H 3185.44 -4.27453 2.28936 0
M  V30 33779 N 3186.78 -0.610474 -1.45296 0
M  V30 33780 C 3188.01 -0.113247 -2.0659 0
M  V30 33781 C 3188.43 1.20358 -1.45462 0
M  V30 33782 O 3187.78 1.73375 -0.569854 0
M  V30 33783 C 3187.83 0.0297776 -3.61488 0
M  V30 33784 O 3187.56 -1.23496 -4.20334 0
M  V30 33785 C 3189.06 0.558125 -4.39773 0
M  V30 33786 H 3186.28 -0.0701672 -0.667321 0
M  V30 33787 H 3188.82 -0.839026 -1.86496 0
M  V30 33788 H 3186.98 0.705896 -3.80915 0
M  V30 33789 H 3187.39 -1.06649 -5.13543 0
M  V30 33790 H 3188.86 0.607278 -5.48649 0
M  V30 33791 H 3189.34 1.58099 -4.09757 0
M  V30 33792 H 3189.95 -0.0840452 -4.25217 0
M  V30 33793 N 3188.26 1.53669 -0.349801 0
M  V30 33794 C 3189.51 2.00618 0.244308 0
M  V30 33795 C 3189.83 1.23916 1.50565 0
M  V30 33796 O 3189.1 0.34805 1.92783 0
M  V30 33797 H 3187.68 0.741155 0.0932662 0
M  V30 33798 H 3190.34 1.89088 -0.4724 0
M  V30 33799 H 3189.44 3.0835 0.482378 0
M  V30 33800 N 3189.74 0.0785709 1.57404 0
M  V30 33801 C 3190.99 -0.587826 1.93362 0
M  V30 33802 C 3191.31 -1.69739 0.959886 0
M  V30 33803 O 3190.58 -1.95898 0.00915174 0
M  V30 33804 H 3189.16 -0.220129 0.713829 0
M  V30 33805 H 3191.82 0.13802 1.94411 0
M  V30 33806 H 3190.92 -1.00875 2.95348 0
M  V30 33807 N 3191.22 -1.56389 -0.19503 0
M  V30 33808 C 3192.18 -1.93694 -1.22537 0
M  V30 33809 C 3193.18 -0.818064 -1.38435 0
M  V30 33810 O 3194.37 -1.08548 -1.36246 0
M  V30 33811 C 3191.5 -2.21104 -2.59472 0
M  V30 33812 H 3192.7 -2.85872 -0.906494 0
M  V30 33813 H 3190.25 -1.5008 -0.436551 0
M  V30 33814 H 3190.98 -1.31564 -2.96414 0
M  V30 33815 H 3190.77 -3.02638 -2.49304 0
M  V30 33816 H 3192.26 -2.5097 -3.33772 0
M  V30 33817 N 3192.7 0.462746 -1.50653 0
M  V30 33818 C 3193.63 1.57874 -1.64776 0
M  V30 33819 C 3194.61 1.5486 -0.495691 0
M  V30 33820 O 3195.79 1.74361 -0.716279 0
M  V30 33821 C 3192.92 2.96457 -1.63802 0
M  V30 33822 C 3191.96 3.17594 -2.84669 0
M  V30 33823 S 3192.8 2.966 -4.45857 0
M  V30 33824 C 3193.95 4.3751 -4.47589 0
M  V30 33825 H 3194.19 1.45657 -2.59174 0
M  V30 33826 H 3191.72 0.650674 -1.4002 0
M  V30 33827 H 3193.68 3.7635 -1.63924 0
M  V30 33828 H 3192.34 3.06057 -0.706239 0
M  V30 33829 H 3191.53 4.18855 -2.80316 0
M  V30 33830 H 3191.13 2.45487 -2.82157 0
M  V30 33831 H 3193.42 5.30288 -4.21665 0
M  V30 33832 H 3194.37 4.46905 -5.49256 0
M  V30 33833 H 3194.78 4.19979 -3.77198 0
M  V30 33834 N 3194.17 1.40371 0.716495 0
M  V30 33835 C 3195.1 1.43318 1.84343 0
M  V30 33836 C 3196.09 0.294216 1.67536 0
M  V30 33837 O 3197.27 0.502704 1.87581 0
M  V30 33838 C 3194.4 1.29414 3.22288 0
M  V30 33839 C 3193.35 2.40904 3.53765 0
M  V30 33840 C 3192.68 2.12077 4.90844 0
M  V30 33841 C 3193.98 3.83243 3.54855 0
M  V30 33842 H 3195.67 2.37629 1.82134 0
M  V30 33843 H 3193.22 1.14378 0.874853 0
M  V30 33844 H 3195.17 1.30092 4.00817 0
M  V30 33845 H 3193.9 0.315787 3.2507 0
M  V30 33846 H 3192.56 2.39474 2.77575 0
M  V30 33847 H 3192.2 1.12635 4.90227 0
M  V30 33848 H 3191.9 2.86771 5.1287 0
M  V30 33849 H 3193.43 2.14436 5.71708 0
M  V30 33850 H 3194.84 3.86502 4.23426 0
M  V30 33851 H 3193.24 4.57449 3.88408 0
M  V30 33852 H 3194.31 4.12893 2.54259 0
M  V30 33853 N 3195.65 -0.948621 1.25853 0
M  V30 33854 C 3196.9 -1.69395 1.10957 0
M  V30 33855 C 3197.23 -1.91354 -0.34841 0
M  V30 33856 O 3196.48 -1.48653 -1.27282 0
M  V30 33857 C 3196.78 -3.07843 1.8157 0
M  V30 33858 C 3196.45 -3.05664 3.31482 0
M  V30 33859 C 3195.11 -3.04777 3.72376 0
M  V30 33860 C 3197.46 -2.98536 4.27231 0
M  V30 33861 C 3194.79 -2.94518 5.07421 0
M  V30 33862 C 3197.14 -2.89818 5.62306 0
M  V30 33863 C 3195.81 -2.8727 6.02522 0
M  V30 33864 H 3195.08 -0.619861 0.406022 0
M  V30 33865 H 3197.72 -1.10784 1.56202 0
M  V30 33866 H 3196.03 -3.70033 1.28774 0
M  V30 33867 H 3197.72 -3.64345 1.67492 0
M  V30 33868 H 3194.31 -3.0713 2.98947 0
M  V30 33869 H 3198.5 -2.98335 3.96623 0
M  V30 33870 H 3193.75 -2.90918 5.37751 0
M  V30 33871 H 3197.93 -2.83264 6.36187 0
M  V30 33872 H 3195.56 -2.79076 7.07121 0
M  V30 33873 N 3197.13 -1.07536 -1.15212 0
M  V30 33874 C 3198.06 -0.718876 -2.22159 0
M  V30 33875 C 3199.04 0.294561 -1.6753 0
M  V30 33876 O 3200.23 0.166897 -1.93482 0
M  V30 33877 C 3197.36 -0.117897 -3.471 0
M  V30 33878 C 3196.31 -1.0587 -4.14699 0
M  V30 33879 C 3195.64 -0.320378 -5.33739 0
M  V30 33880 C 3196.94 -2.39311 -4.6425 0
M  V30 33881 H 3198.63 -1.61302 -2.52234 0
M  V30 33882 H 3196.18 -0.777014 -1.21237 0
M  V30 33883 H 3198.13 0.143445 -4.21156 0
M  V30 33884 H 3196.85 0.811333 -3.16362 0
M  V30 33885 H 3195.51 -1.30499 -3.42587 0
M  V30 33886 H 3195.16 0.612372 -4.99258 0
M  V30 33887 H 3194.86 -0.947483 -5.79911 0
M  V30 33888 H 3196.38 -0.0668794 -6.10563 0
M  V30 33889 H 3197.8 -2.18997 -5.29824 0
M  V30 33890 H 3196.2 -2.97633 -5.2109 0
M  V30 33891 H 3197.27 -3.01478 -3.79788 0
M  V30 33892 N 3198.61 1.32084 -0.85974 0
M  V30 33893 C 3199.86 1.96342 -0.461813 0
M  V30 33894 C 3200.17 1.68766 0.988807 0
M  V30 33895 O 3201.38 2.26803 1.4924 0
M  V30 33896 C 3199.83 3.51459 -0.774902 0
M  V30 33897 C 3199.44 3.87887 -2.24159 0
M  V30 33898 C 3201.18 4.22162 -0.444947 0
M  V30 33899 C 3199.09 5.36071 -2.49763 0
M  V30 33900 H 3198.02 0.734825 -0.168964 0
M  V30 33901 H 3200.67 1.50404 -1.05123 0
M  V30 33902 H 3199.05 3.95833 -0.114862 0
M  V30 33903 H 3200.23 3.54506 -2.94385 0
M  V30 33904 H 3198.54 3.30223 -2.53657 0
M  V30 33905 H 3201.14 5.31168 -0.613602 0
M  V30 33906 H 3201.48 4.1175 0.613838 0
M  V30 33907 H 3202.02 3.83387 -1.06109 0
M  V30 33908 H 3198.76 5.51509 -3.54286 0
M  V30 33909 H 3198.28 5.70841 -1.84122 0
M  V30 33910 H 3199.95 6.03214 -2.33971 0
M  V30 33911 N 3200.09 0.618171 1.4497 0
M  V30 33912 C 3201.31 0.122432 2.07038 0
M  V30 33913 C 3201.74 -1.1885 1.45795 0
M  V30 33914 O 3201.09 -1.7261 0.55456 0
M  V30 33915 C 3201.14 0.00744978 3.60599 0
M  V30 33916 O 3200.25 -1.04 3.99071 0
M  V30 33917 H 3199.59 0.0788731 0.659299 0
M  V30 33918 H 3202.12 0.85118 1.86054 0
M  V30 33919 H 3202.13 -0.187345 4.0757 0
M  V30 33920 H 3200.8 0.964616 4.04559 0
M  V30 33921 H 3199.38 -0.820815 3.63754 0
M  V30 33922 N 3201.56 -1.53481 0.357946 0
M  V30 33923 C 3202.81 -2.00745 -0.233665 0
M  V30 33924 C 3203.13 -1.24713 -1.49905 0
M  V30 33925 O 3202.4 -0.358269 -1.92596 0
M  V30 33926 H 3200.98 -0.741639 -0.0893343 0
M  V30 33927 H 3203.65 -1.88835 0.482421 0
M  V30 33928 H 3202.74 -3.08601 -0.466019 0
M  V30 33929 N 3203.04 -0.0869173 -1.5736 0
M  V30 33930 C 3203.99 0.874958 -2.13572 0
M  V30 33931 C 3204.96 1.28528 -1.05212 0
M  V30 33932 O 3206.14 1.36848 -1.32956 0
M  V30 33933 C 3203.28 2.1317 -2.7139 0
M  V30 33934 C 3202.4 1.77265 -3.93956 0
M  V30 33935 C 3201.53 2.97664 -4.39966 0
M  V30 33936 C 3200.57 2.57846 -5.55141 0
M  V30 33937 N 3199.71 3.71053 -5.9604 0
M  V30 33938 H 3204.55 0.388737 -2.95454 0
M  V30 33939 H 3202.09 0.180216 -1.45992 0
M  V30 33940 H 3204.04 2.86759 -3.03027 0
M  V30 33941 H 3202.67 2.59306 -1.9225 0
M  V30 33942 H 3201.73 0.93678 -3.68685 0
M  V30 33943 H 3203.04 1.43981 -4.77568 0
M  V30 33944 H 3202.19 3.79514 -4.73343 0
M  V30 33945 H 3200.93 3.34152 -3.55238 0
M  V30 33946 H 3199.94 1.7442 -5.214 0
M  V30 33947 H 3201.16 2.22511 -6.41612 0
M  V30 33948 H 3199.11 4.07275 -5.1426 0
M  V30 33949 H 3199.02 3.41587 -6.74429 0
M  V30 33950 H 3200.29 4.53438 -6.34046 0
M  V30 33951 N 3204.52 1.5649 0.186734 0
M  V30 33952 C 3205.77 1.80753 0.904031 0
M  V30 33953 C 3206.09 0.661376 1.83442 0
M  V30 33954 O 3205.36 -0.319777 1.93272 0
M  V30 33955 H 3203.94 0.666756 0.336817 0
M  V30 33956 H 3206.6 1.93969 0.190241 0
M  V30 33957 H 3205.7 2.74227 1.49016 0
M  V30 33958 N 3206 -0.45475 1.50897 0
M  V30 33959 C 3207.25 -1.20245 1.61938 0
M  V30 33960 C 3207.56 -1.92744 0.333017 0
M  V30 33961 O 3208.77 -2.69577 0.322559 0
M  V30 33962 C 3207.22 -2.18582 2.8592 0
M  V30 33963 C 3206.83 -1.51811 4.21494 0
M  V30 33964 C 3208.57 -2.93893 3.06312 0
M  V30 33965 C 3206.48 -2.48529 5.36644 0
M  V30 33966 H 3205.41 -0.452525 0.603106 0
M  V30 33967 H 3208.06 -0.471226 1.77346 0
M  V30 33968 H 3206.44 -2.95066 2.64106 0
M  V30 33969 H 3207.62 -0.810043 4.53624 0
M  V30 33970 H 3205.93 -0.887194 4.06839 0
M  V30 33971 H 3208.53 -3.6631 3.89513 0
M  V30 33972 H 3208.87 -3.54232 2.18689 0
M  V30 33973 H 3209.41 -2.24519 3.28384 0
M  V30 33974 H 3206.15 -1.92905 6.26473 0
M  V30 33975 H 3205.67 -3.1744 5.08912 0
M  V30 33976 H 3207.34 -3.10023 5.67886 0
M  V30 33977 N 3207.48 -1.40749 -0.709041 0
M  V30 33978 C 3208.72 -1.39106 -1.46608 0
M  V30 33979 C 3209.05 0.00361939 -1.95 0
M  V30 33980 O 3208.32 0.959511 -1.70793 0
M  V30 33981 H 3206.9 -0.511989 -0.543945 0
M  V30 33982 H 3209.56 -1.75864 -0.84011 0
M  V30 33983 H 3208.65 -2.06998 -2.33577 0
M  V30 33984 N 3208.96 0.941933 -1.26354 0
M  V30 33985 C 3209.9 2.04054 -1.07846 0
M  V30 33986 C 3210.87 1.66092 0.0162772 0
M  V30 33987 O 3212.06 1.90261 -0.143347 0
M  V30 33988 C 3209.2 3.37576 -0.716696 0
M  V30 33989 C 3208.31 3.88579 -1.88761 0
M  V30 33990 C 3207.45 5.10483 -1.46902 0
M  V30 33991 C 3206.48 5.53746 -2.60828 0
M  V30 33992 N 3205.62 6.66855 -2.19657 0
M  V30 33993 H 3210.46 2.19218 -2.0186 0
M  V30 33994 H 3208 1.07411 -1.00506 0
M  V30 33995 H 3209.96 4.14338 -0.487841 0
M  V30 33996 H 3208.59 3.22261 0.186474 0
M  V30 33997 H 3207.64 3.08223 -2.22941 0
M  V30 33998 H 3208.95 4.16625 -2.74272 0
M  V30 33999 H 3208.1 5.94703 -1.20057 0
M  V30 34000 H 3206.84 4.84181 -0.584806 0
M  V30 34001 H 3205.85 4.68085 -2.88404 0
M  V30 34002 H 3207.07 5.8205 -3.49849 0
M  V30 34003 H 3205.02 6.42237 -1.33669 0
M  V30 34004 H 3204.94 6.94483 -2.98712 0
M  V30 34005 H 3206.2 7.54451 -1.96022 0
M  V30 34006 N 3210.43 1.08146 1.1464 0
M  V30 34007 C 3211.66 0.830898 1.89483 0
M  V30 34008 C 3212.08 -0.616691 1.78444 0
M  V30 34009 O 3211.43 -1.42359 1.14194 0
M  V30 34010 C 3211.48 1.24045 3.39551 0
M  V30 34011 O 3211.21 2.63125 3.50281 0
M  V30 34012 C 3212.71 1.02036 4.31397 0
M  V30 34013 H 3209.93 0.299846 0.600278 0
M  V30 34014 H 3212.47 1.44003 1.45201 0
M  V30 34015 H 3210.63 0.675474 3.81466 0
M  V30 34016 H 3211.04 2.80053 4.43476 0
M  V30 34017 H 3212.51 1.35634 5.35077 0
M  V30 34018 H 3212.99 -0.0427925 4.39179 0
M  V30 34019 H 3213.6 1.57064 3.95236 0
M  V30 34020 N 3211.91 -1.31626 0.866732 0
M  V30 34021 C 3213.14 -2.01538 0.489596 0
M  V30 34022 C 3213.56 -1.64649 -0.909527 0
M  V30 34023 O 3212.92 -0.853419 -1.59958 0
M  V30 34024 C 3212.97 -3.54689 0.650238 0
M  V30 34025 O 3212.07 -4.11219 -0.311836 0
M  V30 34026 H 3211.41 -0.634674 0.195155 0
M  V30 34027 H 3213.94 -1.67897 1.16926 0
M  V30 34028 H 3213.95 -4.0438 0.542307 0
M  V30 34029 H 3212.63 -3.80879 1.67044 0
M  V30 34030 H 3211.2 -3.7256 -0.159132 0
M  V30 34031 N 3213.39 -0.62585 -1.4464 0
M  V30 34032 C 3214.64 -0.125717 -2.01308 0
M  V30 34033 C 3214.95 1.25804 -1.49776 0
M  V30 34034 O 3216.16 1.8519 -1.98537 0
M  V30 34035 C 3214.61 -0.174013 -3.59479 0
M  V30 34036 C 3214.22 -1.55876 -4.20008 0
M  V30 34037 C 3215.97 0.26993 -4.23641 0
M  V30 34038 C 3213.87 -1.56245 -5.70387 0
M  V30 34039 H 3212.8 -0.0432327 -0.75276 0
M  V30 34040 H 3215.45 -0.783871 -1.65915 0
M  V30 34041 H 3213.84 0.551143 -3.92146 0
M  V30 34042 H 3215.01 -2.30707 -3.98887 0
M  V30 34043 H 3213.32 -1.94633 -3.68113 0
M  V30 34044 H 3215.92 0.286626 -5.33931 0
M  V30 34045 H 3216.26 1.29622 -3.95606 0
M  V30 34046 H 3216.8 -0.402556 -3.95758 0
M  V30 34047 H 3213.54 -2.56693 -6.03149 0
M  V30 34048 H 3213.06 -0.856986 -5.93646 0
M  V30 34049 H 3214.74 -1.29407 -6.33926 0
M  V30 34050 N 3214.87 1.53289 -0.36608 0
M  V30 34051 C 3216.12 2.00866 0.223016 0
M  V30 34052 C 3216.44 1.25506 1.49242 0
M  V30 34053 O 3215.71 0.368478 1.92403 0
M  V30 34054 H 3214.29 0.742102 0.0854 0
M  V30 34055 H 3216.95 1.88577 -0.492429 0
M  V30 34056 H 3216.04 3.08844 0.449647 0
M  V30 34057 N 3216.35 0.0952613 1.57312 0
M  V30 34058 C 3217.28 -0.860715 2.17057 0
M  V30 34059 C 3218.26 -1.29409 1.10396 0
M  V30 34060 O 3219.44 -1.36095 1.38534 0
M  V30 34061 C 3216.57 -2.11979 2.75104 0
M  V30 34062 C 3215.53 -1.82503 3.87139 0
M  V30 34063 C 3214.85 -3.1524 4.31889 0
M  V30 34064 C 3216.15 -1.11185 5.10328 0
M  V30 34065 H 3217.85 -0.362931 2.97192 0
M  V30 34066 H 3215.39 -0.173126 1.42955 0
M  V30 34067 H 3217.34 -2.79293 3.15552 0
M  V30 34068 H 3216.07 -2.64041 1.92224 0
M  V30 34069 H 3214.73 -1.17586 3.47231 0
M  V30 34070 H 3214.38 -3.65189 3.45899 0
M  V30 34071 H 3214.08 -2.963 5.07425 0
M  V30 34072 H 3215.6 -3.83712 4.74971 0
M  V30 34073 H 3217.01 -1.6861 5.47945 0
M  V30 34074 H 3215.41 -1.02424 5.91295 0
M  V30 34075 H 3216.48 -0.0946374 4.84808 0
M  V30 34076 N 3217.82 -1.56587 -0.178432 0
M  V30 34077 C 3219.07 -1.80782 -0.894471 0
M  V30 34078 C 3219.39 -0.671323 -1.83719 0
M  V30 34079 O 3220.59 -0.798016 -2.59507 0
M  V30 34080 C 3219.05 -3.20309 -1.64104 0
M  V30 34081 C 3218.66 -4.41807 -0.74231 0
M  V30 34082 C 3220.4 -3.53802 -2.34572 0
M  V30 34083 C 3218.31 -5.72356 -1.4887 0
M  V30 34084 H 3217.24 -0.674123 -0.337748 0
M  V30 34085 H 3219.89 -1.82906 -0.147488 0
M  V30 34086 H 3218.27 -3.12482 -2.43251 0
M  V30 34087 H 3219.44 -4.60799 0.011696 0
M  V30 34088 H 3217.76 -4.16138 -0.147632 0
M  V30 34089 H 3220.36 -4.48582 -2.90996 0
M  V30 34090 H 3220.7 -2.78341 -3.09567 0
M  V30 34091 H 3221.23 -3.63152 -1.62375 0
M  V30 34092 H 3217.97 -6.50828 -0.781211 0
M  V30 34093 H 3217.49 -5.57355 -2.21621 0
M  V30 34094 H 3219.17 -6.14061 -2.03808 0
M  V30 34095 N 3219.3 0.446741 -1.51136 0
M  V30 34096 C 3220.54 1.20653 -1.64991 0
M  V30 34097 C 3220.91 1.8871 -0.353915 0
M  V30 34098 O 3222.11 2.66267 -0.368146 0
M  V30 34099 C 3220.38 2.2037 -2.81375 0
M  V30 34100 S 3221.94 3.04961 -3.15506 0
M  V30 34101 H 3218.75 0.409291 -0.581379 0
M  V30 34102 H 3221.36 0.499579 -1.89009 0
M  V30 34103 H 3220.06 1.68994 -3.73991 0
M  V30 34104 H 3219.59 2.95659 -2.59518 0
M  V30 34105 H 3221.61 4.2188 -2.61212 0
M  V30 34106 N 3220.78 1.41123 0.701567 0
M  V30 34107 C 3222.03 1.40366 1.46374 0
M  V30 34108 C 3222.36 0.0105784 1.94197 0
M  V30 34109 O 3221.63 -0.960608 1.69123 0
M  V30 34110 C 3221.92 2.40528 2.67989 0
M  V30 34111 C 3221.77 3.88918 2.25971 0
M  V30 34112 C 3223.09 2.38028 3.70177 0
M  V30 34113 H 3220.21 0.511169 0.53092 0
M  V30 34114 H 3222.85 1.72357 0.799558 0
M  V30 34115 H 3221 2.13377 3.24657 0
M  V30 34116 H 3222.67 4.26949 1.74676 0
M  V30 34117 H 3220.91 4.04074 1.57818 0
M  V30 34118 H 3221.59 4.54539 3.13207 0
M  V30 34119 H 3224.06 2.62109 3.23169 0
M  V30 34120 H 3222.94 3.10135 4.52888 0
M  V30 34121 H 3223.2 1.39677 4.19455 0
M  V30 34122 N 3222.26 -0.935219 1.26852 0
M  V30 34123 C 3223.51 -1.67656 1.12135 0
M  V30 34124 C 3223.82 -1.92731 -0.333805 0
M  V30 34125 O 3225.03 -2.64747 -0.601754 0
M  V30 34126 C 3223.48 -3.01927 1.95878 0
M  V30 34127 C 3223.09 -2.84578 3.46005 0
M  V30 34128 C 3224.83 -3.79712 1.89787 0
M  V30 34129 C 3222.74 -4.14358 4.21973 0
M  V30 34130 H 3221.67 -0.628826 0.416046 0
M  V30 34131 H 3224.32 -1.03959 1.51211 0
M  V30 34132 H 3222.7 -3.66639 1.4964 0
M  V30 34133 H 3223.88 -2.2868 4.00053 0
M  V30 34134 H 3222.19 -2.2023 3.53395 0
M  V30 34135 H 3224.79 -4.7587 2.43827 0
M  V30 34136 H 3225.13 -4.07111 0.869868 0
M  V30 34137 H 3225.67 -3.21784 2.3388 0
M  V30 34138 H 3222.4 -3.92141 5.25267 0
M  V30 34139 H 3221.92 -4.69949 3.72704 0
M  V30 34140 H 3223.6 -4.82773 4.30743 0
M  V30 34141 N 3223.74 -1.08752 -1.14065 0
M  V30 34142 C 3224.7 -0.724379 -2.17452 0
M  V30 34143 C 3225.7 0.242586 -1.5896 0
M  V30 34144 O 3226.89 0.0216702 -1.74187 0
M  V30 34145 C 3224.02 -0.0700835 -3.40828 0
M  V30 34146 H 3225.21 -1.63991 -2.51092 0
M  V30 34147 H 3222.77 -0.885835 -1.28774 0
M  V30 34148 H 3223.5 0.857006 -3.12771 0
M  V30 34149 H 3223.29 -0.765758 -3.8455 0
M  V30 34150 H 3224.78 0.168832 -4.17259 0
M  V30 34151 N 3225.21 1.31165 -0.873701 0
M  V30 34152 C 3226.44 2.01276 -0.500277 0
M  V30 34153 C 3226.86 1.65129 0.900782 0
M  V30 34154 O 3226.22 0.86189 1.59503 0
M  V30 34155 C 3226.27 3.54339 -0.669039 0
M  V30 34156 O 3225.37 4.11379 0.290023 0
M  V30 34157 H 3224.72 0.63363 -0.198518 0
M  V30 34158 H 3227.25 1.67275 -1.17814 0
M  V30 34159 H 3227.26 4.04087 -0.563745 0
M  V30 34160 H 3225.93 3.79988 -1.69062 0
M  V30 34161 H 3224.51 3.72639 0.139372 0
M  V30 34162 N 3226.69 0.633512 1.44307 0
M  V30 34163 C 3227.92 0.144384 2.06897 0
M  V30 34164 C 3228.34 -1.17297 1.47047 0
M  V30 34165 O 3227.7 -1.72012 0.572836 0
M  V30 34166 C 3227.75 0.0456957 3.60571 0
M  V30 34167 O 3226.85 -0.997612 4.00152 0
M  V30 34168 H 3226.19 0.0858614 0.658425 0
M  V30 34169 H 3228.72 0.870866 1.85141 0
M  V30 34170 H 3228.73 -0.144106 4.07745 0
M  V30 34171 H 3227.41 1.00747 4.03513 0
M  V30 34172 H 3225.99 -0.782188 3.64604 0
M  V30 34173 N 3228.17 -1.53093 0.374204 0
M  V30 34174 C 3229.42 -2.00981 -0.21236 0
M  V30 34175 C 3229.74 -1.26296 -1.48574 0
M  V30 34176 O 3229.01 -0.378676 -1.92205 0
M  V30 34177 H 3227.59 -0.742545 -0.0814632 0
M  V30 34178 H 3230.25 -1.88313 0.502423 0
M  V30 34179 H 3229.35 -3.09078 -0.433262 0
M  V30 34180 N 3229.65 -0.103603 -1.57259 0
M  V30 34181 C 3230.58 0.889104 -2.10167 0
M  V30 34182 C 3231.56 1.27087 -1.01428 0
M  V30 34183 O 3232.74 1.37462 -1.28982 0
M  V30 34184 C 3229.87 2.1877 -2.58568 0
M  V30 34185 C 3228.92 1.95515 -3.79046 0
M  V30 34186 S 3229.75 1.18541 -5.22215 0
M  V30 34187 C 3230.91 2.49613 -5.73972 0
M  V30 34188 H 3231.14 0.439031 -2.9404 0
M  V30 34189 H 3228.67 0.109863 -1.54009 0
M  V30 34190 H 3230.63 2.9339 -2.87111 0
M  V30 34191 H 3229.29 2.60897 -1.74905 0
M  V30 34192 H 3228.48 2.91698 -4.11009 0
M  V30 34193 H 3228.09 1.29022 -3.5104 0
M  V30 34194 H 3230.38 3.45543 -5.82758 0
M  V30 34195 H 3231.32 2.22217 -6.72328 0
M  V30 34196 H 3231.73 2.58275 -5.0195 0
M  V30 34197 N 3231.13 1.56679 0.170126 0
M  V30 34198 C 3232.06 1.99532 1.21282 0
M  V30 34199 C 3233.04 0.871097 1.46102 0
M  V30 34200 O 3234.22 1.13726 1.57417 0
M  V30 34201 C 3231.35 2.35622 2.55146 0
M  V30 34202 C 3230.31 3.51016 2.44892 0
M  V30 34203 C 3229.63 3.72852 3.83257 0
M  V30 34204 C 3230.93 4.84427 1.95263 0
M  V30 34205 H 3232.63 2.86885 0.856596 0
M  V30 34206 H 3230.17 1.38022 0.41061 0
M  V30 34207 H 3232.13 2.64199 3.28294 0
M  V30 34208 H 3230.85 1.4518 2.92558 0
M  V30 34209 H 3229.51 3.22569 1.74198 0
M  V30 34210 H 3229.16 2.79698 4.18064 0
M  V30 34211 H 3228.86 4.50495 3.77264 0
M  V30 34212 H 3230.38 4.0383 4.57989 0
M  V30 34213 H 3231.79 5.11872 2.58186 0
M  V30 34214 H 3230.19 5.65715 2.00215 0
M  V30 34215 H 3231.26 4.76342 0.907007 0
M  V30 34216 N 3232.6 -0.43872 1.5137 0
M  V30 34217 C 3233.85 -1.18696 1.65175 0
M  V30 34218 C 3234.21 -1.88949 0.362787 0
M  V30 34219 O 3233.5 -1.80548 -0.64132 0
M  V30 34220 C 3233.69 -2.23088 2.79225 0
M  V30 34221 C 3233.52 -1.6308 4.19088 0
M  V30 34222 C 3232.29 -1.41633 4.85044 0
M  V30 34223 C 3234.49 -1.10781 5.02227 0
M  V30 34224 N 3232.47 -0.772091 6.09025 0
M  V30 34225 C 3233.84 -0.588745 6.17198 0
M  V30 34226 C 3235.9 -0.999431 4.87766 0
M  V30 34227 C 3234.6 0.0280367 7.19295 0
M  V30 34228 C 3236.63 -0.396545 5.90069 0
M  V30 34229 C 3235.99 0.111979 7.04311 0
M  V30 34230 H 3232.09 -0.42206 0.658323 0
M  V30 34231 H 3234.67 -0.483775 1.88594 0
M  V30 34232 H 3232.84 -2.90796 2.57473 0
M  V30 34233 H 3234.57 -2.90061 2.82218 0
M  V30 34234 H 3231.33 -1.67768 4.42889 0
M  V30 34235 H 3231.75 -0.46745 6.75384 0
M  V30 34236 H 3236.4 -1.37846 3.99698 0
M  V30 34237 H 3234.11 0.419198 8.07012 0
M  V30 34238 H 3237.7 -0.314613 5.80949 0
M  V30 34239 H 3236.58 0.571158 7.82117 0
M  V30 34240 N 3234.08 -1.41493 -0.694073 0
M  V30 34241 C 3235.02 -1.37876 -1.81839 0
M  V30 34242 C 3235.99 -0.2458 -1.60731 0
M  V30 34243 O 3237.18 -0.43295 -1.83461 0
M  V30 34244 C 3234.3 -1.15105 -3.18541 0
M  V30 34245 C 3233.35 -2.3114 -3.58436 0
M  V30 34246 S 3234.18 -3.93623 -3.63072 0
M  V30 34247 C 3235.34 -3.73157 -5.02498 0
M  V30 34248 H 3235.57 -2.33022 -1.8463 0
M  V30 34249 H 3233.11 -1.28035 -0.862925 0
M  V30 34250 H 3235.06 -1.02653 -3.97458 0
M  V30 34251 H 3233.72 -0.215775 -3.13358 0
M  V30 34252 H 3232.92 -2.10904 -4.5775 0
M  V30 34253 H 3232.52 -2.40007 -2.86832 0
M  V30 34254 H 3234.81 -3.32955 -5.9004 0
M  V30 34255 H 3235.75 -4.72079 -5.27776 0
M  V30 34256 H 3236.16 -3.06403 -4.74107 0
M  V30 34257 N 3235.56 0.928479 -1.27346 0
M  V30 34258 C 3236.52 2.01053 -1.10047 0
M  V30 34259 C 3237.52 1.60738 -0.0447075 0
M  V30 34260 O 3238.71 1.71782 -0.289232 0
M  V30 34261 C 3235.85 3.34118 -0.676618 0
M  V30 34262 H 3237.04 2.17831 -2.0613 0
M  V30 34263 H 3234.59 1.10917 -1.10123 0
M  V30 34264 H 3235.33 3.2304 0.28564 0
M  V30 34265 H 3235.11 3.64736 -1.4391 0
M  V30 34266 H 3236.6 4.13583 -0.577797 0
M  V30 34267 N 3237.04 1.09355 1.13486 0
M  V30 34268 C 3238.32 0.741591 1.80997 0
M  V30 34269 C 3238.7 -0.77347 1.9642 0
M  V30 34270 O 3238.04 -1.69561 1.53171 0
M  V30 34271 C 3238.25 1.47978 3.16075 0
M  V30 34272 C 3239.6 1.64511 3.91435 0
M  V30 34273 O 3240.63 1.44223 3.25696 0
M  V30 34274 O 3239.48 1.98063 5.09346 0
M  V30 34275 H 3236.58 0.266311 0.782948 0
M  V30 34276 H 3239.12 1.19571 1.20419 0
M  V30 34277 H 3237.9 2.51142 3.00072 0
M  V30 34278 H 3237.52 1.01778 3.84353 0
M  V30 34279 N 3238.52 -1.307 0.880644 0
M  V30 34280 C 3239.76 -1.96599 0.497646 0
M  V30 34281 C 3240.1 -1.69384 -0.949871 0
M  V30 34282 O 3239.37 -0.996181 -1.67052 0
M  V30 34283 C 3239.65 -3.51815 0.767981 0
M  V30 34284 C 3239.51 -3.88563 2.26581 0
M  V30 34285 C 3240.83 -4.39436 0.241579 0
M  V30 34286 H 3237.95 -0.714103 0.182279 0
M  V30 34287 H 3240.59 -1.54646 1.10384 0
M  V30 34288 H 3238.74 -3.87682 0.252035 0
M  V30 34289 H 3240.41 -3.62743 2.84983 0
M  V30 34290 H 3238.65 -3.36787 2.73417 0
M  V30 34291 H 3239.32 -4.96826 2.40558 0
M  V30 34292 H 3241.8 -4.10454 0.683123 0
M  V30 34293 H 3240.68 -5.46968 0.460093 0
M  V30 34294 H 3240.94 -4.33714 -0.856991 0
M  V30 34295 N 3240 -0.641156 -1.43969 0
M  V30 34296 C 3241.41 -0.23087 -1.85267 0
M  V30 34297 C 3241.76 1.21995 -1.53661 0
M  V30 34298 O 3240.88 1.92958 -0.979606 0
M  V30 34299 C 3241.48 -0.41223 -3.36283 0
M  V30 34300 C 3240.04 -0.0563666 -3.76358 0
M  V30 34301 C 3239.18 -0.720856 -2.67767 0
M  V30 34302 H 3242.13 -0.845647 -1.34293 0
M  V30 34303 H 3242.16 0.345869 -3.78925 0
M  V30 34304 H 3241.67 -1.46824 -3.59255 0
M  V30 34305 H 3239.77 0.997519 -3.58999 0
M  V30 34306 H 3239.88 -0.473419 -4.76755 0
M  V30 34307 H 3238.25 -0.155209 -2.54227 0
M  V30 34308 H 3239.03 -1.77966 -2.9357 0
M  V30 34309 N 3241.47 1.52892 -0.382318 0
M  V30 34310 C 3242.4 2.29166 0.447789 0
M  V30 34311 C 3243.38 1.32269 1.06953 0
M  V30 34312 O 3244.57 1.61156 1.08363 0
M  V30 34313 C 3241.7 3.09332 1.57896 0
M  V30 34314 C 3240.65 4.14055 1.08362 0
M  V30 34315 C 3239.98 4.82403 2.30633 0
M  V30 34316 C 3241.28 5.22065 0.156499 0
M  V30 34317 H 3242.97 2.98805 -0.188593 0
M  V30 34318 H 3240.52 1.43705 -0.0921432 0
M  V30 34319 H 3242.47 3.61445 2.16645 0
M  V30 34320 H 3241.2 2.37413 2.24283 0
M  V30 34321 H 3239.86 3.62912 0.518708 0
M  V30 34322 H 3239.5 4.07039 2.95513 0
M  V30 34323 H 3239.2 5.53181 1.98154 0
M  V30 34324 H 3240.73 5.37318 2.90037 0
M  V30 34325 H 3242.14 5.69581 0.651965 0
M  V30 34326 H 3240.54 6.00049 -0.0782033 0
M  V30 34327 H 3241.61 4.78312 -0.796613 0
M  V30 34328 N 3242.95 0.111941 1.57202 0
M  V30 34329 C 3243.88 -0.871204 2.11997 0
M  V30 34330 C 3244.9 -1.23474 1.06104 0
M  V30 34331 O 3246.09 -1.18491 1.33499 0
M  V30 34332 C 3243.19 -2.17524 2.59878 0
M  V30 34333 C 3242.36 -1.98448 3.89791 0
M  V30 34334 C 3241.42 -3.12516 4.23344 0
M  V30 34335 O 3240.44 -2.85739 4.92282 0
M  V30 34336 N 3241.65 -4.38756 3.80097 0
M  V30 34337 H 3244.41 -0.403105 2.96977 0
M  V30 34338 H 3241.97 -0.0726874 1.61737 0
M  V30 34339 H 3243.96 -2.92815 2.79359 0
M  V30 34340 H 3242.53 -2.55704 1.79817 0
M  V30 34341 H 3241.75 -1.0739 3.7929 0
M  V30 34342 H 3243.04 -1.82999 4.74751 0
M  V30 34343 H 3242.44 -4.63388 3.24481 0
M  V30 34344 H 3241 -5.10942 4.047 0
M  V30 34345 N 3244.43 -1.56767 -0.161814 0
M  V30 34346 C 3245.68 -1.83691 -0.873449 0
M  V30 34347 C 3246.03 -0.693848 -1.79453 0
M  V30 34348 O 3245.32 0.309148 -1.89089 0
M  V30 34349 C 3245.52 -3.14525 -1.69731 0
M  V30 34350 C 3245.35 -4.41449 -0.85749 0
M  V30 34351 C 3244.12 -5.02525 -0.528863 0
M  V30 34352 C 3246.31 -5.13932 -0.194643 0
M  V30 34353 N 3244.3 -6.13033 0.326102 0
M  V30 34354 C 3245.67 -6.17806 0.521082 0
M  V30 34355 C 3247.72 -4.9777 -0.113787 0
M  V30 34356 C 3246.43 -7.0727 1.31001 0
M  V30 34357 C 3248.45 -5.87685 0.661835 0
M  V30 34358 C 3247.81 -6.9103 1.36589 0
M  V30 34359 H 3243.91 -0.723024 -0.297926 0
M  V30 34360 H 3246.5 -1.94198 -0.139782 0
M  V30 34361 H 3244.67 -3.05193 -2.40232 0
M  V30 34362 H 3246.4 -3.29411 -2.35097 0
M  V30 34363 H 3243.15 -4.65704 -0.861185 0
M  V30 34364 H 3243.58 -6.72898 0.744173 0
M  V30 34365 H 3248.22 -4.1787 -0.643758 0
M  V30 34366 H 3245.94 -7.86608 1.85129 0
M  V30 34367 H 3249.52 -5.7725 0.726193 0
M  V30 34368 H 3248.4 -7.59403 1.95643 0
M  V30 34369 N 3245.91 0.430686 -1.51601 0
M  V30 34370 C 3247.16 1.17654 -1.63831 0
M  V30 34371 C 3247.47 1.9219 -0.363639 0
M  V30 34372 O 3248.68 2.6903 -0.365406 0
M  V30 34373 C 3247.13 2.14005 -2.89361 0
M  V30 34374 C 3246.74 1.45086 -4.23856 0
M  V30 34375 C 3248.48 2.88982 -3.10949 0
M  V30 34376 C 3246.39 2.3996 -5.4053 0
M  V30 34377 H 3245.32 0.442873 -0.610229 0
M  V30 34378 H 3247.97 0.442952 -1.78074 0
M  V30 34379 H 3246.35 2.90827 -2.68767 0
M  V30 34380 H 3247.53 0.737773 -4.54856 0
M  V30 34381 H 3245.84 0.822357 -4.08199 0
M  V30 34382 H 3248.44 3.60067 -3.95292 0
M  V30 34383 H 3248.78 3.50708 -2.24297 0
M  V30 34384 H 3249.32 2.19266 -3.31914 0
M  V30 34385 H 3246.05 1.82914 -6.29462 0
M  V30 34386 H 3245.57 3.09304 -5.13898 0
M  V30 34387 H 3247.25 3.00949 -5.72747 0
M  V30 34388 N 3247.39 1.4186 0.686559 0
M  V30 34389 C 3248.35 1.44129 1.78212 0
M  V30 34390 C 3249.35 0.330569 1.57365 0
M  V30 34391 O 3250.54 0.590866 1.63873 0
M  V30 34392 C 3247.67 1.26147 3.16701 0
M  V30 34393 H 3248.86 2.41664 1.7759 0
M  V30 34394 H 3246.42 1.28134 0.895062 0
M  V30 34395 H 3247.15 0.294879 3.22957 0
M  V30 34396 H 3246.94 2.06632 3.33235 0
M  V30 34397 H 3248.43 1.30591 3.96656 0
M  V30 34398 N 3248.86 -0.921712 1.27837 0
M  V30 34399 C 3250.09 -1.70927 1.17468 0
M  V30 34400 C 3250.51 -1.86236 -0.264138 0
M  V30 34401 O 3249.87 -1.36674 -1.19122 0
M  V30 34402 C 3249.92 -3.08338 1.86975 0
M  V30 34403 O 3249.02 -3.95402 1.1718 0
M  V30 34404 H 3248.36 -0.523695 0.408216 0
M  V30 34405 H 3250.89 -1.15304 1.69015 0
M  V30 34406 H 3250.9 -3.58617 1.9457 0
M  V30 34407 H 3249.58 -2.96513 2.91638 0
M  V30 34408 H 3248.16 -3.53839 1.17695 0
M  V30 34409 N 3250.34 -1.09956 -1.12905 0
M  V30 34410 C 3251.3 -0.747402 -2.16671 0
M  V30 34411 C 3252.3 0.225713 -1.59208 0
M  V30 34412 O 3253.49 0.0031942 -1.742 0
M  V30 34413 C 3250.63 -0.106229 -3.40734 0
M  V30 34414 H 3251.82 -1.66645 -2.49338 0
M  V30 34415 H 3249.37 -0.899444 -1.27827 0
M  V30 34416 H 3250.11 0.823785 -3.13663 0
M  V30 34417 H 3249.89 -0.806501 -3.83716 0
M  V30 34418 H 3251.38 0.124567 -4.17414 0
M  V30 34419 N 3251.82 1.30231 -0.887563 0
M  V30 34420 C 3253.07 1.95318 -0.503356 0
M  V30 34421 C 3253.38 1.70825 0.952787 0
M  V30 34422 O 3254.59 2.29918 1.44396 0
M  V30 34423 C 3253.04 3.49736 -0.849277 0
M  V30 34424 C 3252.65 3.83045 -2.32337 0
M  V30 34425 C 3254.4 4.21123 -0.534394 0
M  V30 34426 C 3252.3 5.30653 -2.61078 0
M  V30 34427 H 3251.23 0.731075 -0.184513 0
M  V30 34428 H 3253.88 1.48141 -1.08289 0
M  V30 34429 H 3252.27 3.95501 -0.198798 0
M  V30 34430 H 3253.44 3.48182 -3.01838 0
M  V30 34431 H 3251.75 3.24768 -2.60605 0
M  V30 34432 H 3254.35 5.29747 -0.726132 0
M  V30 34433 H 3254.69 4.12959 0.526361 0
M  V30 34434 H 3255.23 3.8105 -1.14218 0
M  V30 34435 H 3251.97 5.4387 -3.65904 0
M  V30 34436 H 3251.49 5.66807 -1.96189 0
M  V30 34437 H 3253.17 5.98115 -2.46713 0
M  V30 34438 N 3253.3 0.648782 1.43627 0
M  V30 34439 C 3254.54 0.160609 2.02163 0
M  V30 34440 C 3254.88 -1.22069 1.51039 0
M  V30 34441 O 3254.15 -1.81403 0.701665 0
M  V30 34442 C 3254.44 0.166591 3.59714 0
M  V30 34443 C 3254.29 1.58149 4.21081 0
M  V30 34444 C 3255.61 -0.499408 4.37257 0
M  V30 34445 H 3252.73 0.0598367 0.734567 0
M  V30 34446 H 3255.37 0.828622 1.70979 0
M  V30 34447 H 3253.52 -0.402234 3.86412 0
M  V30 34448 H 3255.19 2.20057 4.05429 0
M  V30 34449 H 3253.43 2.13012 3.779 0
M  V30 34450 H 3254.1 1.53757 5.30154 0
M  V30 34451 H 3256.58 -0.015483 4.16097 0
M  V30 34452 H 3255.46 -0.464477 5.46931 0
M  V30 34453 H 3255.72 -1.57279 4.13178 0
M  V30 34454 N 3254.78 -1.52688 0.390421 0
M  V30 34455 C 3255.71 -2.294 -0.435629 0
M  V30 34456 C 3256.69 -1.32834 -1.0625 0
M  V30 34457 O 3257.87 -1.61728 -1.07506 0
M  V30 34458 C 3255 -3.10165 -1.56254 0
M  V30 34459 C 3253.96 -4.14624 -1.06165 0
M  V30 34460 C 3253.28 -4.83619 -2.28071 0
M  V30 34461 C 3254.58 -5.22141 -0.12881 0
M  V30 34462 H 3256.28 -2.98701 0.204437 0
M  V30 34463 H 3253.82 -1.43654 0.0997629 0
M  V30 34464 H 3255.78 -3.62589 -2.14725 0
M  V30 34465 H 3254.5 -2.38599 -2.23021 0
M  V30 34466 H 3253.16 -3.63182 -0.499455 0
M  V30 34467 H 3252.81 -4.08601 -2.93351 0
M  V30 34468 H 3252.51 -5.54224 -1.95217 0
M  V30 34469 H 3254.03 -5.38849 -2.87183 0
M  V30 34470 H 3255.44 -5.69919 -0.621749 0
M  V30 34471 H 3253.84 -5.99999 0.110024 0
M  V30 34472 H 3254.91 -4.77883 0.821968 0
M  V30 34473 N 3256.25 -0.120276 -1.5714 0
M  V30 34474 C 3257.16 0.843116 -2.18926 0
M  V30 34475 C 3258.18 1.29173 -1.16577 0
M  V30 34476 O 3259.36 1.35445 -1.49052 0
M  V30 34477 C 3256.42 2.07495 -2.77753 0
M  V30 34478 C 3255.48 1.67813 -3.95142 0
M  V30 34479 C 3254.72 2.85124 -4.51154 0
M  V30 34480 O 3254.94 4.00586 -4.06063 0
M  V30 34481 O 3253.87 2.62135 -5.4182 0
M  V30 34482 H 3257.7 0.347304 -3.01708 0
M  V30 34483 H 3255.28 0.105401 -1.49028 0
M  V30 34484 H 3257.17 2.79637 -3.15248 0
M  V30 34485 H 3255.84 2.5608 -1.98002 0
M  V30 34486 H 3254.75 0.927743 -3.62414 0
M  V30 34487 H 3256.08 1.23969 -4.76332 0
M  V30 34488 N 3257.73 1.56851 0.153498 0
M  V30 34489 C 3258.98 1.82991 0.8672 0
M  V30 34490 C 3259.31 0.700157 1.81461 0
M  V30 34491 O 3258.56 -0.311314 1.93208 0
M  V30 34492 C 3258.86 3.15421 1.6806 0
M  V30 34493 C 3258.53 4.42218 0.880558 0
M  V30 34494 C 3257.19 4.76655 0.659815 0
M  V30 34495 C 3259.54 5.20213 0.320607 0
M  V30 34496 C 3256.87 5.86552 -0.131691 0
M  V30 34497 C 3259.22 6.30941 -0.457905 0
M  V30 34498 C 3257.89 6.63932 -0.689284 0
M  V30 34499 H 3257.16 0.669613 0.317331 0
M  V30 34500 H 3259.8 1.9105 0.131174 0
M  V30 34501 H 3258.11 3.02784 2.48655 0
M  V30 34502 H 3259.8 3.32861 2.23618 0
M  V30 34503 H 3256.39 4.15217 1.06267 0
M  V30 34504 H 3260.58 4.93988 0.478443 0
M  V30 34505 H 3255.83 6.10559 -0.32052 0
M  V30 34506 H 3260.01 6.90573 -0.89896 0
M  V30 34507 H 3257.64 7.48924 -1.30446 0
M  V30 34508 N 3259.21 -0.42264 1.51827 0
M  V30 34509 C 3260.46 -1.17081 1.65222 0
M  V30 34510 C 3260.79 -1.9084 0.375541 0
M  V30 34511 O 3260.04 -1.84905 -0.640997 0
M  V30 34512 C 3260.34 -2.20114 2.81575 0
M  V30 34513 C 3260.01 -1.63261 4.20306 0
M  V30 34514 C 3258.67 -1.47479 4.58043 0
M  V30 34515 C 3261.02 -1.21609 5.06814 0
M  V30 34516 C 3258.35 -0.885429 5.7998 0
M  V30 34517 C 3260.7 -0.64096 6.29344 0
M  V30 34518 C 3259.36 -0.470169 6.65842 0
M  V30 34519 H 3258.63 -0.428431 0.604589 0
M  V30 34520 H 3261.28 -0.459841 1.85897 0
M  V30 34521 H 3259.59 -2.97305 2.55181 0
M  V30 34522 H 3261.28 -2.77851 2.89137 0
M  V30 34523 H 3257.87 -1.76524 3.9056 0
M  V30 34524 H 3262.06 -1.32616 4.78254 0
M  V30 34525 H 3257.31 -0.740998 6.06893 0
M  V30 34526 H 3261.49 -0.309766 6.95711 0
M  V30 34527 H 3259.11 -0.0113702 7.60199 0
M  V30 34528 N 3260.69 -1.42222 -0.679027 0
M  V30 34529 C 3261.62 -1.39797 -1.80366 0
M  V30 34530 C 3262.6 -0.262834 -1.60462 0
M  V30 34531 O 3263.78 -0.452384 -1.82991 0
M  V30 34532 C 3260.91 -1.18477 -3.17303 0
M  V30 34533 C 3259.96 -2.34928 -3.55965 0
M  V30 34534 S 3260.79 -3.97452 -3.58877 0
M  V30 34535 C 3261.95 -3.78466 -4.98512 0
M  V30 34536 H 3262.18 -2.34967 -1.82148 0
M  V30 34537 H 3259.71 -1.28943 -0.849297 0
M  V30 34538 H 3261.67 -1.06863 -3.96347 0
M  V30 34539 H 3260.33 -0.248999 -3.13111 0
M  V30 34540 H 3259.52 -2.15748 -4.55488 0
M  V30 34541 H 3259.13 -2.43035 -2.84271 0
M  V30 34542 H 3261.42 -3.39195 -5.86475 0
M  V30 34543 H 3262.36 -4.7765 -5.22739 0
M  V30 34544 H 3262.77 -3.11414 -4.70831 0
M  V30 34545 N 3262.17 0.91492 -1.28324 0
M  V30 34546 C 3263.1 2.01839 -1.06472 0
M  V30 34547 C 3264.08 1.62589 0.0188396 0
M  V30 34548 O 3265.26 1.88059 -0.128858 0
M  V30 34549 C 3262.39 3.33019 -0.617744 0
M  V30 34550 C 3261.43 3.91252 -1.69777 0
M  V30 34551 S 3262.27 4.22247 -3.29344 0
M  V30 34552 C 3263.42 5.5649 -2.86478 0
M  V30 34553 H 3263.66 2.20065 -1.99897 0
M  V30 34554 H 3261.19 1.05964 -1.12299 0
M  V30 34555 H 3263.15 4.0886 -0.366553 0
M  V30 34556 H 3261.81 3.12696 0.296654 0
M  V30 34557 H 3261 4.85953 -1.33662 0
M  V30 34558 H 3260.6 3.22043 -1.9017 0
M  V30 34559 H 3262.9 6.36329 -2.32576 0
M  V30 34560 H 3263.84 5.97517 -3.79973 0
M  V30 34561 H 3264.25 5.17622 -2.25229 0
M  V30 34562 N 3263.64 1.10553 1.1232 0
M  V30 34563 C 3264.89 0.849964 1.84129 0
M  V30 34564 C 3265.22 -0.622913 1.83939 0
M  V30 34565 O 3264.5 -1.45935 1.28581 0
M  V30 34566 C 3264.78 1.40054 3.31748 0
M  V30 34567 C 3264.63 2.94036 3.40386 0
M  V30 34568 C 3265.95 1.04386 4.27541 0
M  V30 34569 H 3263.07 0.310225 0.668528 0
M  V30 34570 H 3265.71 1.36888 1.31764 0
M  V30 34571 H 3263.86 0.959168 3.76473 0
M  V30 34572 H 3265.54 3.46709 3.04287 0
M  V30 34573 H 3263.78 3.30576 2.80895 0
M  V30 34574 H 3264.45 3.27643 4.44246 0
M  V30 34575 H 3266.93 1.42472 3.90949 0
M  V30 34576 H 3265.8 1.45599 5.29237 0
M  V30 34577 H 3266.06 -0.0465539 4.42075 0
M  V30 34578 N 3265.12 -1.29758 0.894457 0
M  V30 34579 C 3266.05 -2.30308 0.384741 0
M  V30 34580 C 3267.03 -1.61386 -0.537457 0
M  V30 34581 O 3268.22 -1.88931 -0.449299 0
M  V30 34582 C 3265.35 -3.45066 -0.39325 0
M  V30 34583 C 3264.3 -4.25752 0.438043 0
M  V30 34584 C 3263.63 -5.32656 -0.467127 0
M  V30 34585 C 3264.93 -4.94367 1.68519 0
M  V30 34586 H 3266.62 -2.73192 1.22501 0
M  V30 34587 H 3264.17 -1.31336 0.590494 0
M  V30 34588 H 3266.12 -4.1448 -0.760541 0
M  V30 34589 H 3264.85 -3.01012 -1.26725 0
M  V30 34590 H 3263.5 -3.5804 0.787596 0
M  V30 34591 H 3263.15 -4.84847 -1.33911 0
M  V30 34592 H 3262.85 -5.87538 0.0853515 0
M  V30 34593 H 3264.38 -6.04923 -0.830726 0
M  V30 34594 H 3265.79 -5.56246 1.38794 0
M  V30 34595 H 3264.19 -5.59158 2.17859 0
M  V30 34596 H 3265.26 -4.19953 2.42419 0
M  V30 34597 N 3266.6 -0.65639 -1.4328 0
M  V30 34598 C 3267.53 0.0196551 -2.33492 0
M  V30 34599 C 3268.51 0.808654 -1.49649 0
M  V30 34600 O 3269.7 0.769498 -1.78304 0
M  V30 34601 C 3266.83 0.984515 -3.33053 0
M  V30 34602 C 3265.78 0.305408 -4.26909 0
M  V30 34603 C 3265.11 1.38193 -5.16533 0
M  V30 34604 C 3266.41 -0.804172 -5.16072 0
M  V30 34605 H 3268.1 -0.733712 -2.90271 0
M  V30 34606 H 3265.65 -0.354283 -1.39574 0
M  V30 34607 H 3267.6 1.4664 -3.95063 0
M  V30 34608 H 3266.32 1.76908 -2.74538 0
M  V30 34609 H 3264.98 -0.156059 -3.66268 0
M  V30 34610 H 3264.63 2.15802 -4.54355 0
M  V30 34611 H 3264.33 0.932776 -5.80149 0
M  V30 34612 H 3265.85 1.86512 -5.81417 0
M  V30 34613 H 3267.27 -0.404312 -5.71873 0
M  V30 34614 H 3265.67 -1.17799 -5.88424 0
M  V30 34615 H 3266.74 -1.66081 -4.55571 0
M  V30 34616 N 3268.08 1.52478 -0.398513 0
M  V30 34617 C 3269.33 2.00877 0.182011 0
M  V30 34618 C 3269.64 1.28893 1.47126 0
M  V30 34619 O 3270.85 1.68051 2.13239 0
M  V30 34620 C 3269.3 3.57942 0.374915 0
M  V30 34621 C 3268.91 4.38833 -0.901621 0
M  V30 34622 C 3270.66 4.14603 0.911305 0
M  V30 34623 C 3268.56 5.87518 -0.676489 0
M  V30 34624 H 3267.49 0.750574 0.0717936 0
M  V30 34625 H 3270.14 1.75909 -0.522328 0
M  V30 34626 H 3268.53 3.79196 1.14133 0
M  V30 34627 H 3269.7 4.29343 -1.67336 0
M  V30 34628 H 3268.01 3.93438 -1.36364 0
M  V30 34629 H 3270.61 5.23355 1.0956 0
M  V30 34630 H 3270.95 3.7128 1.88299 0
M  V30 34631 H 3271.49 3.97275 0.204226 0
M  V30 34632 H 3268.23 6.35181 -1.61944 0
M  V30 34633 H 3267.75 5.99774 0.0561488 0
M  V30 34634 H 3269.43 6.46235 -0.314568 0
M  V30 34635 N 3269.56 0.128608 1.57074 0
M  V30 34636 C 3270.97 -0.395227 1.82469 0
M  V30 34637 C 3271.32 -1.65971 1.04633 0
M  V30 34638 O 3270.44 -2.14503 0.285873 0
M  V30 34639 C 3271.04 -0.723831 3.30978 0
M  V30 34640 C 3269.6 -1.19226 3.57018 0
M  V30 34641 C 3268.75 -0.205858 2.76535 0
M  V30 34642 H 3271.7 0.353598 1.54711 0
M  V30 34643 H 3271.72 -1.58033 3.4613 0
M  V30 34644 H 3271.23 0.196663 3.87601 0
M  V30 34645 H 3269.33 -2.12932 3.05762 0
M  V30 34646 H 3269.44 -1.13094 4.6556 0
M  V30 34647 H 3267.81 -0.694829 2.45039 0
M  V30 34648 H 3268.59 0.707902 3.35922 0
M  V30 34649 N 3271.04 -1.5693 -0.145178 0
M  V30 34650 C 3271.95 -2.0167 -1.19861 0
M  V30 34651 C 3272.96 -0.932428 -1.46907 0
M  V30 34652 O 3274.14 -1.24204 -1.58541 0
M  V30 34653 C 3271.2 -2.38987 -2.5117 0
M  V30 34654 C 3270.26 -3.6137 -2.31754 0
M  V30 34655 C 3269.5 -3.96898 -3.56802 0
M  V30 34656 O 3269.72 -3.33067 -4.63058 0
M  V30 34657 O 3268.65 -4.90136 -3.49357 0
M  V30 34658 H 3272.48 -2.91598 -0.84877 0
M  V30 34659 H 3270.06 -1.45145 -0.354037 0
M  V30 34660 H 3271.95 -2.63841 -3.28582 0
M  V30 34661 H 3270.62 -1.52212 -2.8568 0
M  V30 34662 H 3269.53 -3.41701 -1.52287 0
M  V30 34663 H 3270.86 -4.48768 -2.02159 0
M  V30 34664 N 3272.51 0.414582 -1.52049 0
M  V30 34665 C 3273.92 0.99361 -1.58064 0
M  V30 34666 C 3274.28 1.91699 -0.417828 0
M  V30 34667 O 3273.4 2.11399 0.462521 0
M  V30 34668 C 3274 1.80881 -2.86474 0
M  V30 34669 C 3272.55 2.33796 -2.94985 0
M  V30 34670 C 3271.7 1.13627 -2.52951 0
M  V30 34671 H 3274.65 0.195012 -1.57497 0
M  V30 34672 H 3274.67 2.66566 -2.7152 0
M  V30 34673 H 3274.19 1.1365 -3.71087 0
M  V30 34674 H 3272.29 3.04415 -2.14854 0
M  V30 34675 H 3272.4 2.65035 -3.99116 0
M  V30 34676 H 3270.76 1.48857 -2.06673 0
M  V30 34677 H 3271.55 0.479706 -3.39932 0
M  V30 34678 N 3273.99 1.4258 0.671475 0
M  V30 34679 C 3274.9 1.48727 1.81432 0
M  V30 34680 C 3275.92 0.375745 1.69895 0
M  V30 34681 O 3277.09 0.627149 1.91387 0
M  V30 34682 C 3274.16 1.39043 3.17597 0
M  V30 34683 C 3273.22 2.60715 3.41066 0
M  V30 34684 C 3272.45 2.51484 4.70735 0
M  V30 34685 O 3272.68 1.55253 5.48865 0
M  V30 34686 O 3271.61 3.41674 4.95522 0
M  V30 34687 H 3275.44 2.45195 1.79202 0
M  V30 34688 H 3273.02 1.2438 0.827645 0
M  V30 34689 H 3274.9 1.36017 3.98845 0
M  V30 34690 H 3273.58 0.457022 3.20457 0
M  V30 34691 H 3272.48 2.69315 2.59654 0
M  V30 34692 H 3273.82 3.52966 3.43039 0
M  V30 34693 N 3275.47 -0.908102 1.28807 0
M  V30 34694 C 3276.42 -2.01123 1.13218 0
M  V30 34695 C 3277.39 -1.66077 0.0277649 0
M  V30 34696 O 3278.57 -1.89814 0.193741 0
M  V30 34697 C 3275.71 -3.35557 0.805946 0
M  V30 34698 C 3274.82 -3.83438 1.98997 0
M  V30 34699 C 3273.96 -5.06409 1.60385 0
M  V30 34700 C 3273 -5.46636 2.75418 0
M  V30 34701 N 3272.14 -6.60796 2.37261 0
M  V30 34702 H 3276.98 -2.13789 2.07602 0
M  V30 34703 H 3274.51 -1.04708 1.03318 0
M  V30 34704 H 3276.47 -4.12899 0.597524 0
M  V30 34705 H 3275.1 -3.22642 -0.100966 0
M  V30 34706 H 3274.15 -3.02204 2.31035 0
M  V30 34707 H 3275.46 -4.09207 2.85221 0
M  V30 34708 H 3274.62 -5.9131 1.35782 0
M  V30 34709 H 3273.36 -4.8246 0.712972 0
M  V30 34710 H 3272.36 -4.60273 3.00713 0
M  V30 34711 H 3273.59 -5.7257 3.65158 0
M  V30 34712 H 3271.53 -6.38467 1.50649 0
M  V30 34713 H 3271.45 -6.86319 3.1702 0
M  V30 34714 H 3272.72 -7.48988 2.15956 0
M  V30 34715 N 3276.95 -1.11147 -1.11732 0
M  V30 34716 C 3277.88 -0.724843 -2.17437 0
M  V30 34717 C 3278.89 0.242041 -1.60991 0
M  V30 34718 O 3280.08 0.0253945 -1.78482 0
M  V30 34719 C 3277.18 -0.0500635 -3.38863 0
M  V30 34720 C 3276.35 -1.04299 -4.24783 0
M  V30 34721 C 3275.41 -0.398336 -5.2469 0
M  V30 34722 O 3274.44 -1.05135 -5.59406 0
M  V30 34723 N 3275.64 0.840083 -5.74389 0
M  V30 34724 H 3278.41 -1.63433 -2.51217 0
M  V30 34725 H 3275.97 -1.00128 -1.27225 0
M  V30 34726 H 3277.96 0.392858 -4.02789 0
M  V30 34727 H 3276.53 0.761952 -3.03172 0
M  V30 34728 H 3275.75 -1.66396 -3.5736 0
M  V30 34729 H 3277.04 -1.71487 -4.7903 0
M  V30 34730 H 3276.44 1.38984 -5.48361 0
M  V30 34731 H 3274.99 1.22603 -6.40165 0
M  V30 34732 N 3278.43 1.29282 -0.901326 0
M  V30 34733 C 3279.84 1.47987 -0.59766 0
M  V30 34734 C 3280.04 1.82207 0.860402 0
M  V30 34735 O 3279.1 1.91951 1.64046 0
M  V30 34736 C 3280.41 2.59168 -1.52488 0
M  V30 34737 C 3281.96 2.73042 -1.53026 0
M  V30 34738 C 3282.43 3.87353 -2.4438 0
M  V30 34739 N 3283.92 3.94688 -2.42436 0
M  V30 34740 C 3284.66 4.82489 -3.09825 0
M  V30 34741 N 3284.16 5.7497 -3.86499 0
M  V30 34742 N 3285.95 4.75994 -2.98975 0
M  V30 34743 H 3278.1 1.05347 -1.84434 0
M  V30 34744 H 3280.36 0.523459 -0.790376 0
M  V30 34745 H 3280.07 2.40751 -2.56382 0
M  V30 34746 H 3279.94 3.56004 -1.24663 0
M  V30 34747 H 3282.33 2.90855 -0.49876 0
M  V30 34748 H 3282.41 1.76775 -1.84889 0
M  V30 34749 H 3282.05 3.70296 -3.47625 0
M  V30 34750 H 3281.98 4.82992 -2.09825 0
M  V30 34751 H 3284.48 3.28543 -1.8673 0
M  V30 34752 H 3284.79 6.38765 -4.3497 0
M  V30 34753 H 3283.13 5.7485 -3.90606 0
M  V30 34754 H 3286.32 4.02732 -2.38588 0
M  V30 34755 H 3286.5 5.44209 -3.51768 0
M  V30 34756 N 3279.9 0.663979 1.4293 0
M  V30 34757 C 3281.13 0.189844 2.06027 0
M  V30 34758 C 3281.55 -1.14877 1.49829 0
M  V30 34759 O 3280.9 -1.71141 0.633808 0
M  V30 34760 C 3280.95 0.104407 3.61349 0
M  V30 34761 O 3280.68 1.39011 4.15461 0
M  V30 34762 C 3282.18 -0.394522 4.41541 0
M  V30 34763 H 3279.4 0.0948861 0.664257 0
M  V30 34764 H 3281.94 0.907664 1.83253 0
M  V30 34765 H 3280.1 -0.564035 3.83272 0
M  V30 34766 H 3280.51 1.25635 5.09231 0
M  V30 34767 H 3281.98 -0.403232 5.50525 0
M  V30 34768 H 3282.46 -1.42783 4.15343 0
M  V30 34769 H 3283.07 0.241804 4.24612 0
M  V30 34770 N 3281.38 -1.52265 0.406593 0
M  V30 34771 C 3282.79 -1.86592 -0.0635742 0
M  V30 34772 C 3283.14 -1.32547 -1.44657 0
M  V30 34773 O 3282.27 -0.663728 -2.0597 0
M  V30 34774 C 3282.86 -3.3858 -0.122138 0
M  V30 34775 C 3281.42 -3.72555 -0.536636 0
M  V30 34776 C 3280.57 -2.75774 0.29047 0
M  V30 34777 H 3283.52 -1.45928 0.623764 0
M  V30 34778 H 3283.54 -3.6876 -0.937899 0
M  V30 34779 H 3283.05 -3.77885 0.884561 0
M  V30 34780 H 3281.15 -3.38827 -1.55007 0
M  V30 34781 H 3281.27 -4.78265 -0.282783 0
M  V30 34782 H 3279.63 -2.53501 -0.246819 0
M  V30 34783 H 3280.41 -3.17919 1.29547 0
M  V30 34784 N 3282.86 -0.136936 -1.57004 0
M  V30 34785 C 3283.79 0.837367 -2.13356 0
M  V30 34786 C 3284.81 1.2177 -1.08055 0
M  V30 34787 O 3285.99 1.16353 -1.35367 0
M  V30 34788 C 3283.09 2.13362 -2.63306 0
M  V30 34789 C 3282.27 1.92222 -3.92899 0
M  V30 34790 C 3281.33 3.05741 -4.28262 0
M  V30 34791 O 3280.35 2.77871 -4.96766 0
M  V30 34792 N 3281.55 4.32653 -3.87029 0
M  V30 34793 H 3284.32 0.355807 -2.9758 0
M  V30 34794 H 3281.88 0.0469473 -1.61832 0
M  V30 34795 H 3283.87 2.88334 -2.83982 0
M  V30 34796 H 3282.44 2.52811 -1.83862 0
M  V30 34797 H 3281.66 1.01342 -3.80951 0
M  V30 34798 H 3282.95 1.75423 -4.77603 0
M  V30 34799 H 3282.35 4.58167 -3.31812 0
M  V30 34800 H 3280.91 5.04439 -4.12777 0
M  V30 34801 N 3284.34 1.57005 0.136853 0
M  V30 34802 C 3285.62 1.74836 0.87702 0
M  V30 34803 C 3286 0.707674 1.98885 0
M  V30 34804 O 3285.34 -0.271612 2.2688 0
M  V30 34805 C 3285.55 3.19242 1.41015 0
M  V30 34806 C 3286.9 3.81225 1.86956 0
M  V30 34807 O 3287.93 3.22734 1.50735 0
M  V30 34808 O 3286.78 4.83997 2.53789 0
M  V30 34809 H 3283.88 0.715231 0.41518 0
M  V30 34810 H 3286.42 1.69261 0.121986 0
M  V30 34811 H 3285.2 3.86491 0.61161 0
M  V30 34812 H 3284.82 3.29284 2.2284 0
M  V30 34813 N 3285.82 -0.406513 1.52267 0
M  V30 34814 C 3286.76 -1.51597 1.76412 0
M  V30 34815 C 3287.76 -1.57196 0.631338 0
M  V30 34816 O 3288.96 -1.60571 0.813441 0
M  V30 34817 H 3285.34 -0.50422 0.557913 0
M  V30 34818 H 3287.31 -1.28419 2.69353 0
M  V30 34819 C 3286.06 -2.88936 1.9342 0
M  V30 34820 H 3285.38 -2.85372 2.80005 0
M  V30 34821 H 3286.82 -3.6585 2.14312 0
M  V30 34822 C 3285.28 -3.29505 0.701996 0
M  V30 34823 O 3285.81 -4.01493 -0.128895 0
M  V30 34824 N 3284.02 -2.85593 0.53714 0
M  V30 34825 H 3283.56 -2.27179 1.21439 0
M  V30 34826 H 3283.52 -3.13096 -0.286 0
M  V30 34827 N 3287.29 -1.42934 -0.663904 0
M  V30 34828 C 3288.23 -1.4322 -1.78943 0
M  V30 34829 C 3289.24 -0.329755 -1.59425 0
M  V30 34830 O 3290.43 -0.59353 -1.68343 0
M  V30 34831 C 3287.53 -1.21908 -3.16215 0
M  V30 34832 C 3286.7 -2.44791 -3.62486 0
M  V30 34833 C 3285.76 -2.18862 -4.78525 0
M  V30 34834 O 3284.79 -2.9214 -4.88511 0
M  V30 34835 N 3285.99 -1.19855 -5.67992 0
M  V30 34836 H 3288.75 -2.40239 -1.7918 0
M  V30 34837 H 3286.31 -1.37953 -0.84738 0
M  V30 34838 H 3288.31 -1.02461 -3.91515 0
M  V30 34839 H 3286.88 -0.333731 -3.10813 0
M  V30 34840 H 3286.1 -2.79734 -2.77746 0
M  V30 34841 H 3287.38 -3.26595 -3.90145 0
M  V30 34842 H 3286.78 -0.592689 -5.62587 0
M  V30 34843 H 3285.34 -1.06393 -6.43058 0
M  V30 34844 N 3288.77 0.901258 -1.29287 0
M  V30 34845 C 3289.7 2.02168 -1.16835 0
M  V30 34846 C 3290.68 1.69983 -0.0629564 0
M  V30 34847 O 3291.87 1.92684 -0.242157 0
M  V30 34848 C 3289 3.36927 -0.842465 0
M  V30 34849 C 3287.95 3.83316 -1.90401 0
M  V30 34850 C 3287.28 5.15183 -1.43147 0
M  V30 34851 C 3288.58 4.03811 -3.31261 0
M  V30 34852 H 3290.27 2.12843 -2.10566 0
M  V30 34853 H 3287.82 1.02268 -1.01377 0
M  V30 34854 H 3289.77 4.14815 -0.742072 0
M  V30 34855 H 3288.5 3.26339 0.13054 0
M  V30 34856 H 3287.15 3.07644 -1.99376 0
M  V30 34857 H 3286.8 5.01008 -0.447179 0
M  V30 34858 H 3286.5 5.47191 -2.14139 0
M  V30 34859 H 3288.03 5.95613 -1.34454 0
M  V30 34860 H 3289.44 4.72185 -3.25137 0
M  V30 34861 H 3287.84 4.47171 -4.00197 0
M  V30 34862 H 3288.91 3.08199 -3.74355 0
M  V30 34863 N 3290.25 1.11738 1.11141 0
M  V30 34864 C 3291.21 0.781778 2.15455 0
M  V30 34865 C 3292.21 -0.200355 1.59547 0
M  V30 34866 O 3293.4 0.0245199 1.74183 0
M  V30 34867 C 3290.54 0.160423 3.40522 0
M  V30 34868 H 3291.73 1.70591 2.46655 0
M  V30 34869 H 3289.28 0.919666 1.2638 0
M  V30 34870 H 3290.02 -0.773779 3.14934 0
M  V30 34871 H 3289.8 0.867445 3.82384 0
M  V30 34872 H 3291.29 -0.0581441 4.1756 0
M  V30 34873 N 3291.73 -1.28802 0.90817 0
M  V30 34874 C 3292.96 -1.99053 0.553322 0
M  V30 34875 C 3293.37 -1.68092 -0.868425 0
M  V30 34876 O 3292.71 -0.926966 -1.58597 0
M  V30 34877 C 3292.77 -3.53089 0.675885 0
M  V30 34878 C 3292.44 -4.07626 2.06615 0
M  V30 34879 C 3293.43 -4.21883 3.03826 0
M  V30 34880 C 3291.12 -4.42453 2.37783 0
M  V30 34881 C 3293.11 -4.70213 4.30324 0
M  V30 34882 C 3290.8 -4.90477 3.64521 0
M  V30 34883 C 3291.8 -5.04313 4.60605 0
M  V30 34884 O 3291.48 -5.51292 5.85092 0
M  V30 34885 H 3291.22 -0.642501 0.210164 0
M  V30 34886 H 3293.77 -1.65102 1.22191 0
M  V30 34887 H 3292 -3.86668 -0.0497573 0
M  V30 34888 H 3293.69 -4.04565 0.328956 0
M  V30 34889 H 3294.46 -3.95257 2.81064 0
M  V30 34890 H 3290.33 -4.30938 1.63749 0
M  V30 34891 H 3293.88 -4.80927 5.05326 0
M  V30 34892 H 3289.78 -5.16543 3.8711 0
M  V30 34893 H 3290.54 -5.69589 5.87801 0
M  V30 34894 N 3293.21 -0.67155 -1.42576 0
M  V30 34895 C 3294.45 -0.192752 -2.01882 0
M  V30 34896 C 3294.79 1.19651 -1.52962 0
M  V30 34897 O 3294.06 1.80263 -0.730436 0
M  V30 34898 C 3294.34 -0.223798 -3.59404 0
M  V30 34899 C 3294.2 -1.64828 -4.18511 0
M  V30 34900 C 3295.52 0.429781 -4.37996 0
M  V30 34901 H 3292.63 -0.0715154 -0.733522 0
M  V30 34902 H 3295.28 -0.855718 -1.69639 0
M  V30 34903 H 3293.43 0.340708 -3.87003 0
M  V30 34904 H 3295.1 -2.26479 -4.01877 0
M  V30 34905 H 3293.34 -2.18997 -3.74463 0
M  V30 34906 H 3294.01 -1.62172 -5.2764 0
M  V30 34907 H 3296.49 -0.0507164 -4.16069 0
M  V30 34908 H 3295.36 0.377407 -5.47601 0
M  V30 34909 H 3295.63 1.50686 -4.15627 0
M  V30 34910 N 3294.68 1.52047 -0.414663 0
M  V30 34911 C 3295.93 2.02171 0.15955 0
M  V30 34912 C 3296.26 1.29946 1.44318 0
M  V30 34913 O 3295.54 0.407435 1.90185 0
M  V30 34914 C 3295.82 3.57854 0.401592 0
M  V30 34915 C 3295.67 4.40722 -0.899103 0
M  V30 34916 C 3296.99 4.23949 1.18133 0
M  V30 34917 H 3294.11 0.73483 0.0565128 0
M  V30 34918 H 3296.75 1.81889 -0.549215 0
M  V30 34919 H 3294.9 3.75267 1.00534 0
M  V30 34920 H 3296.58 4.35009 -1.53509 0
M  V30 34921 H 3294.82 4.06714 -1.50884 0
M  V30 34922 H 3295.49 5.47745 -0.68407 0
M  V30 34923 H 3297.97 4.10668 0.670131 0
M  V30 34924 H 3296.84 5.32806 1.31943 0
M  V30 34925 H 3297.1 3.83277 2.20344 0
M  V30 34926 N 3296.16 0.145261 1.56929 0
M  V30 34927 C 3297.41 -0.506238 1.95244 0
M  V30 34928 C 3297.72 -1.66127 1.03253 0
M  V30 34929 O 3298.93 -2.37728 1.31139 0
M  V30 34930 C 3297.39 -0.951981 3.47081 0
M  V30 34931 C 3296.99 0.176025 4.47654 0
M  V30 34932 C 3298.74 -1.57337 3.94266 0
M  V30 34933 C 3296.65 -0.287889 5.90699 0
M  V30 34934 H 3295.58 -0.19289 0.72891 0
M  V30 34935 H 3298.23 0.229327 1.82061 0
M  V30 34936 H 3296.61 -1.74276 3.5559 0
M  V30 34937 H 3297.78 0.952927 4.50839 0
M  V30 34938 H 3296.1 0.705712 4.10376 0
M  V30 34939 H 3298.69 -1.93205 4.98574 0
M  V30 34940 H 3299.04 -2.46168 3.35719 0
M  V30 34941 H 3299.57 -0.847524 3.88667 0
M  V30 34942 H 3296.31 0.565004 6.5306 0
M  V30 34943 H 3295.83 -1.0307 5.90878 0
M  V30 34944 H 3297.51 -0.740473 6.42749 0
M  V30 34945 N 3297.64 -1.57075 -0.128525 0
M  V30 34946 C 3298.89 -1.83984 -0.836323 0
M  V30 34947 C 3299.21 -0.729003 -1.80861 0
M  V30 34948 O 3298.48 0.247825 -1.94326 0
M  V30 34949 H 3297.06 -0.678797 -0.311838 0
M  V30 34950 H 3299.72 -1.94542 -0.118119 0
M  V30 34951 H 3298.82 -2.79569 -1.38736 0
M  V30 34952 N 3299.12 0.398432 -1.5248 0
M  V30 34953 C 3300.37 1.14152 -1.66289 0
M  V30 34954 C 3300.68 1.91376 -0.404323 0
M  V30 34955 O 3301.89 2.68194 -0.422389 0
M  V30 34956 C 3300.34 2.0782 -2.93835 0
M  V30 34957 C 3299.95 1.36063 -4.26838 0
M  V30 34958 C 3301.7 2.82322 -3.17009 0
M  V30 34959 C 3299.6 2.28441 -5.45499 0
M  V30 34960 H 3298.53 0.42983 -0.619486 0
M  V30 34961 H 3301.18 0.405081 -1.78973 0
M  V30 34962 H 3299.57 2.85061 -2.74875 0
M  V30 34963 H 3300.74 0.641125 -4.56318 0
M  V30 34964 H 3299.05 0.735587 -4.09851 0
M  V30 34965 H 3301.65 3.51602 -4.02841 0
M  V30 34966 H 3301.99 3.45872 -2.31686 0
M  V30 34967 H 3302.53 2.12177 -3.36491 0
M  V30 34968 H 3299.27 1.69521 -6.33201 0
M  V30 34969 H 3298.79 2.98334 -5.20343 0
M  V30 34970 H 3300.47 2.88733 -5.79001 0
M  V30 34971 N 3300.6 1.43284 0.656314 0
M  V30 34972 C 3301.53 1.51007 1.78098 0
M  V30 34973 C 3302.51 0.365009 1.66138 0
M  V30 34974 O 3303.69 0.581811 1.8528 0
M  V30 34975 C 3300.82 1.42967 3.16509 0
M  V30 34976 C 3299.78 2.55691 3.43229 0
M  V30 34977 C 3299.1 2.32705 4.81407 0
M  V30 34978 C 3300.4 3.97949 3.38281 0
M  V30 34979 H 3302.1 2.4514 1.71892 0
M  V30 34980 H 3299.64 1.17986 0.825554 0
M  V30 34981 H 3301.6 1.46975 3.94938 0
M  V30 34982 H 3300.32 0.453376 3.23438 0
M  V30 34983 H 3298.98 2.51031 2.67168 0
M  V30 34984 H 3298.63 1.33325 4.85009 0
M  V30 34985 H 3298.33 3.08266 5.00246 0
M  V30 34986 H 3299.85 2.38491 5.62098 0
M  V30 34987 H 3301.27 4.04113 4.06652 0
M  V30 34988 H 3299.66 4.73511 3.68656 0
M  V30 34989 H 3300.73 4.23305 2.36518 0
M  V30 34990 N 3302.08 -0.894389 1.29763 0
M  V30 34991 C 3303.3 -1.6787 1.20943 0
M  V30 34992 C 3303.72 -1.87404 -0.22916 0
M  V30 34993 O 3303.08 -1.41484 -1.15276 0
M  V30 34994 C 3303.13 -3.06028 1.92429 0
M  V30 34995 O 3302.85 -2.87383 3.3067 0
M  V30 34996 C 3304.35 -4.00447 1.90151 0
M  V30 34997 H 3301.57 -0.524138 0.418951 0
M  V30 34998 H 3304.11 -1.1181 1.71228 0
M  V30 34999 H 3302.27 -3.58849 1.45967 0
M  V30 35000 H 3302.68 -3.74962 3.66747 0
M  V30 35001 H 3304.16 -4.94787 2.44724 0
M  V30 35002 H 3304.63 -4.30329 0.87825 0
M  V30 35003 H 3305.24 -3.53559 2.36381 0
M  V30 35004 N 3303.55 -1.12326 -1.10547 0
M  V30 35005 C 3304.48 -0.812454 -2.1891 0
M  V30 35006 C 3305.46 0.223241 -1.68629 0
M  V30 35007 O 3306.65 0.0846843 -1.94015 0
M  V30 35008 C 3303.78 -0.265008 -3.46287 0
M  V30 35009 C 3302.73 -1.23363 -4.09836 0
M  V30 35010 C 3302.06 -0.546467 -5.319 0
M  V30 35011 C 3303.36 -2.58786 -4.53682 0
M  V30 35012 H 3305.05 -1.71855 -2.45166 0
M  V30 35013 H 3302.6 -0.827735 -1.17833 0
M  V30 35014 H 3304.55 -0.0353105 -4.21385 0
M  V30 35015 H 3303.28 0.676423 -3.19519 0
M  V30 35016 H 3301.94 -1.44912 -3.36743 0
M  V30 35017 H 3301.58 0.400068 -5.01406 0
M  V30 35018 H 3301.28 -1.19259 -5.7537 0
M  V30 35019 H 3302.81 -0.32578 -6.0973 0
M  V30 35020 H 3304.22 -2.41272 -5.20058 0
M  V30 35021 H 3302.62 -3.19466 -5.07998 0
M  V30 35022 H 3303.69 -3.17315 -3.66659 0
M  V30 35023 N 3305.03 1.28319 -0.914988 0
M  V30 35024 C 3305.99 2.2552 -0.409063 0
M  V30 35025 C 3306.99 1.53921 0.4653 0
M  V30 35026 O 3308.18 1.72123 0.26818 0
M  V30 35027 C 3305.32 3.38384 0.413393 0
M  V30 35028 H 3306.51 2.71789 -1.26771 0
M  V30 35029 H 3304.06 1.40023 -0.694501 0
M  V30 35030 H 3304.8 2.97479 1.29139 0
M  V30 35031 H 3304.58 3.91519 -0.213337 0
M  V30 35032 H 3306.07 4.1066 0.75816 0
M  V30 35033 N 3306.51 0.679102 1.42218 0
M  V30 35034 C 3307.47 0.0125878 2.29197 0
M  V30 35035 C 3308.47 -0.724666 1.43545 0
M  V30 35036 O 3309.66 -0.562023 1.64885 0
M  V30 35037 C 3306.79 -0.992789 3.26123 0
M  V30 35038 H 3307.99 0.778205 2.89627 0
M  V30 35039 H 3305.54 0.441687 1.49929 0
M  V30 35040 H 3306.28 -1.78675 2.7064 0
M  V30 35041 H 3306.06 -0.467476 3.89303 0
M  V30 35042 H 3307.55 -1.45744 3.91342 0
M  V30 35043 N 3307.99 -1.51825 0.42272 0
M  V30 35044 C 3309.24 -2.01141 -0.15003 0
M  V30 35045 C 3309.55 -1.31217 -1.45057 0
M  V30 35046 O 3310.76 -1.71422 -2.10539 0
M  V30 35047 C 3309.21 -3.58493 -0.317922 0
M  V30 35048 C 3308.82 -4.37344 0.971321 0
M  V30 35049 C 3310.56 -4.16 -0.84523 0
M  V30 35050 C 3308.47 -5.86368 0.769872 0
M  V30 35051 H 3307.4 -0.751621 -0.0598435 0
M  V30 35052 H 3310.05 -1.75056 0.550248 0
M  V30 35053 H 3308.43 -3.80964 -1.08086 0
M  V30 35054 H 3309.61 -4.26626 1.74145 0
M  V30 35055 H 3307.92 -3.91219 1.42606 0
M  V30 35056 H 3310.52 -5.25032 -1.0122 0
M  V30 35057 H 3310.86 -3.74229 -1.82369 0
M  V30 35058 H 3311.4 -3.9755 -0.140997 0
M  V30 35059 H 3308.13 -6.32524 1.72028 0
M  V30 35060 H 3307.65 -5.99787 0.0392771 0
M  V30 35061 H 3309.33 -6.45653 0.417338 0
M  V30 35062 N 3309.47 -0.153581 -1.5685 0
M  V30 35063 C 3310.71 0.496615 -1.96625 0
M  V30 35064 C 3311.04 1.64081 -1.03879 0
M  V30 35065 O 3310.32 1.94325 -0.0824454 0
M  V30 35066 C 3310.6 0.996525 -3.46037 0
M  V30 35067 C 3310.46 -0.14663 -4.49561 0
M  V30 35068 C 3311.77 1.87613 -3.98107 0
M  V30 35069 H 3308.89 0.179047 -0.71492 0
M  V30 35070 H 3311.54 -0.236137 -1.88527 0
M  V30 35071 H 3309.69 1.62094 -3.53069 0
M  V30 35072 H 3311.36 -0.783187 -4.54603 0
M  V30 35073 H 3309.6 -0.804802 -4.26269 0
M  V30 35074 H 3310.27 0.244981 -5.51456 0
M  V30 35075 H 3312.75 1.3499 -3.93595 0
M  V30 35076 H 3311.62 2.19499 -5.03102 0
M  V30 35077 H 3311.88 2.81548 -3.40857 0
M  V30 35078 N 3310.94 1.57141 0.120193 0
M  V30 35079 C 3311.91 1.9932 1.13156 0
M  V30 35080 C 3312.91 0.883182 1.34375 0
M  V30 35081 O 3314.1 1.14925 1.30912 0
M  V30 35082 C 3311.23 2.33232 2.48628 0
M  V30 35083 H 3312.42 2.89871 0.769069 0
M  V30 35084 H 3309.97 1.51992 0.364449 0
M  V30 35085 H 3310.71 1.45556 2.898 0
M  V30 35086 H 3310.49 3.14188 2.34581 0
M  V30 35087 H 3311.98 2.66609 3.21418 0
M  V30 35088 N 3312.42 -0.39034 1.5269 0
M  V30 35089 C 3313.39 -1.45944 1.76728 0
M  V30 35090 C 3314.39 -1.47632 0.637295 0
M  V30 35091 O 3315.58 -1.48826 0.905338 0
M  V30 35092 C 3312.71 -2.85241 1.86683 0
M  V30 35093 H 3313.9 -1.25914 2.72187 0
M  V30 35094 H 3311.45 -0.621998 1.43391 0
M  V30 35095 H 3312.19 -3.10618 0.932046 0
M  V30 35096 H 3311.97 -2.85417 2.68848 0
M  V30 35097 H 3313.46 -3.62709 2.06958 0
M  V30 35098 N 3313.9 -1.4363 -0.648706 0
M  V30 35099 C 3314.85 -1.49412 -1.78266 0
M  V30 35100 C 3315.84 -0.367317 -1.6537 0
M  V30 35101 O 3317.05 -0.541506 -1.71662 0
M  V30 35102 H 3313.42 -0.468495 -0.588232 0
M  V30 35103 H 3315.39 -2.44886 -1.7051 0
M  V30 35104 C 3314.14 -1.43861 -3.16543 0
M  V30 35105 H 3313.47 -2.29874 -3.27106 0
M  V30 35106 H 3314.91 -1.51968 -3.9583 0
M  V30 35107 C 3313.37 -0.156838 -3.36535 0
M  V30 35108 O 3313.9 0.780054 -3.94053 0
M  V30 35109 N 3312.1 -0.065583 -2.90526 0
M  V30 35110 H 3311.65 -0.828811 -2.43903 0
M  V30 35111 H 3311.61 0.791325 -3.04278 0
M  V30 35112 N 3315.38 0.887495 -1.30236 0
M  V30 35113 C 3316.29 2.02577 -1.1832 0
M  V30 35114 C 3317.3 1.73691 -0.103688 0
M  V30 35115 O 3318.48 1.98871 -0.318135 0
M  V30 35116 C 3315.55 3.35522 -0.873281 0
M  V30 35117 C 3314.61 3.77847 -2.0379 0
M  V30 35118 C 3313.84 5.04447 -1.74267 0
M  V30 35119 O 3314.06 5.66459 -0.669395 0
M  V30 35120 O 3313 5.43119 -2.59433 0
M  V30 35121 H 3316.82 2.15557 -2.13937 0
M  V30 35122 H 3314.41 1.01308 -1.09805 0
M  V30 35123 H 3316.29 4.15281 -0.715536 0
M  V30 35124 H 3314.96 3.23657 0.0529991 0
M  V30 35125 H 3313.87 2.98802 -2.25096 0
M  V30 35126 H 3315.2 3.94313 -2.94581 0
M  V30 35127 N 3316.86 1.12911 1.0995 0
M  V30 35128 C 3317.79 0.745255 2.15688 0
M  V30 35129 C 3318.77 -0.265979 1.6041 0
M  V30 35130 O 3319.95 -0.15875 1.8783 0
M  V30 35131 C 3317.08 0.103906 3.38541 0
M  V30 35132 C 3316.12 1.08277 4.12527 0
M  V30 35133 S 3316.96 2.61271 4.67438 0
M  V30 35134 C 3318.11 1.9848 5.93596 0
M  V30 35135 H 3318.35 1.6409 2.47915 0
M  V30 35136 H 3315.88 0.948704 1.21815 0
M  V30 35137 H 3317.84 -0.259744 4.09677 0
M  V30 35138 H 3316.5 -0.768929 3.04543 0
M  V30 35139 H 3315.69 0.581741 5.00631 0
M  V30 35140 H 3315.29 1.38961 3.47226 0
M  V30 35141 H 3317.59 1.33059 6.64305 0
M  V30 35142 H 3318.53 2.84645 6.48369 0
M  V30 35143 H 3318.94 1.43857 5.45862 0
M  V30 35144 N 3318.33 -1.27832 0.92178 0
M  V30 35145 C 3319.58 -1.94244 0.558008 0
M  V30 35146 C 3319.9 -1.7285 -0.90265 0
M  V30 35147 O 3319.17 -1.07282 -1.63913 0
M  V30 35148 H 3317.75 -0.718782 0.203377 0
M  V30 35149 H 3320.42 -1.55658 1.17289 0
M  V30 35150 H 3319.51 -3.02724 0.759256 0
M  V30 35151 N 3319.81 -0.686634 -1.41856 0
M  V30 35152 C 3320.74 -0.0298763 -2.33481 0
M  V30 35153 C 3321.72 0.776729 -1.51331 0
M  V30 35154 O 3322.91 0.731503 -1.79896 0
M  V30 35155 C 3320.04 0.913648 -3.35067 0
M  V30 35156 C 3318.99 0.214786 -4.27461 0
M  V30 35157 C 3318.32 1.27206 -5.19348 0
M  V30 35158 C 3319.62 -0.913457 -5.1425 0
M  V30 35159 H 3321.31 -0.795117 -2.88649 0
M  V30 35160 H 3318.86 -0.383809 -1.38791 0
M  V30 35161 H 3320.81 1.38227 -3.98085 0
M  V30 35162 H 3319.54 1.71045 -2.78229 0
M  V30 35163 H 3318.19 -0.233715 -3.65854 0
M  V30 35164 H 3317.84 2.06116 -4.5883 0
M  V30 35165 H 3317.54 0.809508 -5.81997 0
M  V30 35166 H 3319.07 1.74137 -5.85242 0
M  V30 35167 H 3320.48 -0.525524 -5.70886 0
M  V30 35168 H 3318.88 -1.30254 -5.85793 0
M  V30 35169 H 3319.95 -1.75707 -4.51946 0
M  V30 35170 N 3321.29 1.51599 -0.430766 0
M  V30 35171 C 3322.22 2.30475 0.374655 0
M  V30 35172 C 3323.2 1.35604 1.02691 0
M  V30 35173 O 3324.39 1.64522 1.03181 0
M  V30 35174 C 3321.52 3.14198 1.47975 0
M  V30 35175 C 3320.47 4.17293 0.951342 0
M  V30 35176 C 3319.8 4.89496 2.15169 0
M  V30 35177 C 3321.1 5.22299 -0.00967132 0
M  V30 35178 H 3322.79 2.98054 -0.28356 0
M  V30 35179 H 3320.34 1.43339 -0.137815 0
M  V30 35180 H 3322.29 3.68155 2.05037 0
M  V30 35181 H 3321.01 2.44428 2.16616 0
M  V30 35182 H 3319.67 3.64378 0.402988 0
M  V30 35183 H 3319.32 4.16235 2.82414 0
M  V30 35184 H 3319.02 5.59205 1.80454 0
M  V30 35185 H 3320.54 5.46274 2.72796 0
M  V30 35186 H 3321.96 5.71367 0.470427 0
M  V30 35187 H 3320.36 5.99496 -0.269065 0
M  V30 35188 H 3321.43 4.75535 -0.948381 0
M  V30 35189 N 3322.77 0.161897 1.56766 0
M  V30 35190 C 3323.68 -0.784775 2.21085 0
M  V30 35191 C 3324.69 -1.26037 1.19961 0
M  V30 35192 O 3325.87 -1.31446 1.52591 0
M  V30 35193 C 3322.94 -2.00058 2.83157 0
M  V30 35194 C 3322 -1.57278 3.99452 0
M  V30 35195 C 3321.23 -2.73062 4.58555 0
M  V30 35196 O 3321.45 -3.89679 4.16541 0
M  V30 35197 O 3320.39 -2.47678 5.48579 0
M  V30 35198 H 3324.21 -0.267189 3.02522 0
M  V30 35199 H 3321.8 -0.0658521 1.49255 0
M  V30 35200 H 3323.68 -2.71181 3.22551 0
M  V30 35201 H 3322.35 -2.5074 2.04722 0
M  V30 35202 H 3321.26 -0.831329 3.64746 0
M  V30 35203 H 3322.59 -1.11296 4.79452 0
M  V30 35204 N 3324.25 -1.57203 -0.111858 0
M  V30 35205 C 3325.47 -1.89418 -0.832374 0
M  V30 35206 C 3325.89 -0.753891 -1.73095 0
M  V30 35207 O 3325.25 0.274961 -1.80417 0
M  V30 35208 C 3325.3 -3.21142 -1.65982 0
M  V30 35209 O 3325.02 -4.30782 -0.797409 0
M  V30 35210 C 3326.52 -3.67109 -2.48487 0
M  V30 35211 H 3323.74 -0.627028 -0.238908 0
M  V30 35212 H 3326.28 -2.04283 -0.0941097 0
M  V30 35213 H 3324.44 -3.07925 -2.35077 0
M  V30 35214 H 3324.85 -5.06323 -1.36883 0
M  V30 35215 H 3326.33 -4.62019 -3.02064 0
M  V30 35216 H 3326.8 -2.94118 -3.26177 0
M  V30 35217 H 3327.41 -3.83138 -1.84621 0
M  V30 35218 N 3325.72 0.382237 -1.52894 0
M  V30 35219 C 3326.95 1.14763 -1.72154 0
M  V30 35220 C 3327.37 1.83531 -0.442943 0
M  V30 35221 O 3326.72 1.72936 0.583055 0
M  V30 35222 C 3326.78 2.19057 -2.8757 0
M  V30 35223 O 3326.5 1.53092 -4.10481 0
M  V30 35224 C 3328 3.08272 -3.18565 0
M  V30 35225 H 3325.22 0.343822 -0.576218 0
M  V30 35226 H 3327.76 0.446238 -1.99572 0
M  V30 35227 H 3325.92 2.84821 -2.62594 0
M  V30 35228 H 3326.33 2.22446 -4.74993 0
M  V30 35229 H 3327.8 3.77466 -4.02769 0
M  V30 35230 H 3328.28 3.72157 -2.33229 0
M  V30 35231 H 3328.89 2.48144 -3.45405 0
M  V30 35232 N 3327.2 1.43972 0.64108 0
M  V30 35233 C 3328.15 1.50071 1.75349 0
M  V30 35234 C 3329.12 0.349295 1.62386 0
M  V30 35235 O 3330.31 0.558151 1.82454 0
M  V30 35236 C 3327.45 1.44136 3.13558 0
M  V30 35237 C 3326.56 2.69575 3.37569 0
M  V30 35238 C 3325.69 2.55544 4.65694 0
M  V30 35239 C 3324.73 3.76194 4.8285 0
M  V30 35240 N 3323.87 3.60899 6.02243 0
M  V30 35241 H 3328.71 2.45119 1.69472 0
M  V30 35242 H 3326.25 1.21662 0.826849 0
M  V30 35243 H 3328.2 1.38688 3.93474 0
M  V30 35244 H 3326.83 0.526619 3.18475 0
M  V30 35245 H 3325.89 2.85252 2.51665 0
M  V30 35246 H 3327.2 3.59161 3.46129 0
M  V30 35247 H 3326.35 2.47872 5.53755 0
M  V30 35248 H 3325.09 1.63503 4.59476 0
M  V30 35249 H 3324.1 3.84261 3.93222 0
M  V30 35250 H 3325.32 4.69259 4.9089 0
M  V30 35251 H 3323.27 2.71602 5.97134 0
M  V30 35252 H 3323.18 4.44093 6.11815 0
M  V30 35253 H 3324.45 3.57101 6.92892 0
M  V30 35254 N 3328.68 -0.880575 1.30704 0
M  V30 35255 C 3330.1 -1.16458 1.09131 0
M  V30 35256 C 3330.3 -2.00977 -0.145096 0
M  V30 35257 O 3329.35 -2.38208 -0.83746 0
M  V30 35258 C 3330.67 -1.86699 2.3572 0
M  V30 35259 C 3332.21 -1.99445 2.41227 0
M  V30 35260 C 3332.69 -2.73099 3.6767 0
M  V30 35261 N 3334.18 -2.80642 3.68503 0
M  V30 35262 C 3334.92 -3.38217 4.6303 0
M  V30 35263 N 3334.41 -3.96807 5.67905 0
M  V30 35264 N 3336.2 -3.36074 4.50567 0
M  V30 35265 H 3328.36 -0.317127 2.10019 0
M  V30 35266 H 3330.62 -0.203056 0.925998 0
M  V30 35267 H 3330.32 -1.32041 3.25973 0
M  V30 35268 H 3330.2 -2.87053 2.44705 0
M  V30 35269 H 3332.59 -2.53272 1.51451 0
M  V30 35270 H 3332.67 -0.981663 2.36214 0
M  V30 35271 H 3332.31 -2.19943 4.57807 0
M  V30 35272 H 3332.24 -3.74763 3.69946 0
M  V30 35273 H 3334.73 -2.39048 2.92685 0
M  V30 35274 H 3335.04 -4.38819 6.36127 0
M  V30 35275 H 3333.39 -3.95213 5.71692 0
M  V30 35276 H 3336.58 -2.89532 3.67816 0
M  V30 35277 H 3336.75 -3.80648 5.24415 0
M  V30 35278 N 3330.16 -1.13492 -1.09349 0
M  V30 35279 C 3331.44 -0.808256 -1.7812 0
M  V30 35280 C 3331.82 0.700037 -1.99155 0
M  V30 35281 O 3331.16 1.63759 -1.59359 0
M  V30 35282 C 3331.37 -1.59607 -3.10365 0
M  V30 35283 C 3332.72 -1.78925 -3.8506 0
M  V30 35284 O 3333.75 -1.56212 -3.20119 0
M  V30 35285 O 3332.61 -2.1683 -5.01644 0
M  V30 35286 H 3329.7 -0.295186 -0.772524 0
M  V30 35287 H 3332.25 -1.23958 -1.15899 0
M  V30 35288 H 3331.02 -2.62106 -2.90544 0
M  V30 35289 H 3330.64 -1.15973 -3.8031 0
M  V30 35290 N 3331.64 1.27341 -0.928546 0
M  V30 35291 C 3332.57 2.29207 -0.445668 0
M  V30 35292 C 3333.55 1.62754 0.49448 0
M  V30 35293 O 3334.73 1.90056 0.399049 0
M  V30 35294 C 3331.86 3.45988 0.301624 0
M  V30 35295 C 3330.82 4.24441 -0.550769 0
M  V30 35296 C 3330.14 5.33707 0.325739 0
M  V30 35297 C 3331.44 4.89725 -1.81567 0
M  V30 35298 H 3333.14 2.69848 -1.29701 0
M  V30 35299 H 3330.68 1.29724 -0.625108 0
M  V30 35300 H 3332.64 4.16351 0.650382 0
M  V30 35301 H 3331.36 3.04266 1.18699 0
M  V30 35302 H 3330.02 3.55826 -0.882247 0
M  V30 35303 H 3329.67 4.88227 1.21009 0
M  V30 35304 H 3329.37 5.87105 -0.241097 0
M  V30 35305 H 3330.89 6.06912 0.67005 0
M  V30 35306 H 3332.31 5.5237 -1.53493 0
M  V30 35307 H 3330.7 5.53185 -2.32607 0
M  V30 35308 H 3331.77 4.13378 -2.53469 0
M  V30 35309 N 3333.12 0.694147 1.4149 0
M  V30 35310 C 3334.36 0.224069 2.00854 0
M  V30 35311 C 3334.68 -1.17996 1.55248 0
M  V30 35312 O 3333.95 -1.79594 0.782483 0
M  V30 35313 H 3332.53 0.0798498 0.74272 0
M  V30 35314 H 3335.2 0.894988 1.73136 0
M  V30 35315 H 3334.29 0.240386 3.11173 0
M  V30 35316 N 3334.59 -1.51368 0.438799 0
M  V30 35317 C 3335.53 -2.24354 -0.417175 0
M  V30 35318 C 3336.5 -1.26347 -1.02349 0
M  V30 35319 O 3337.69 -1.55486 -1.06567 0
M  V30 35320 C 3334.82 -2.99506 -1.58158 0
M  V30 35321 C 3333.86 -4.12182 -1.09581 0
M  V30 35322 S 3334.69 -5.35487 -0.036655 0
M  V30 35323 C 3335.85 -6.14177 -1.20569 0
M  V30 35324 H 3336.08 -2.9661 0.202468 0
M  V30 35325 H 3333.62 -1.52776 0.223333 0
M  V30 35326 H 3335.57 -3.43403 -2.24911 0
M  V30 35327 H 3334.24 -2.26837 -2.17264 0
M  V30 35328 H 3333.43 -4.64049 -1.96659 0
M  V30 35329 H 3333.03 -3.70554 -0.506499 0
M  V30 35330 H 3335.32 -6.43353 -2.12376 0
M  V30 35331 H 3336.27 -7.04358 -0.726963 0
M  V30 35332 H 3336.67 -5.45694 -1.44492 0
M  V30 35333 N 3336.07 -0.170208 -1.56678 0
M  V30 35334 C 3337.3 0.484507 -2.01661 0
M  V30 35335 C 3337.72 1.5609 -1.04965 0
M  V30 35336 O 3337.08 1.81277 -0.0290205 0
M  V30 35337 C 3337.13 1.04078 -3.45254 0
M  V30 35338 O 3336.23 2.15482 -3.51627 0
M  V30 35339 H 3335.57 0.116123 -0.653767 0
M  V30 35340 H 3338.1 -0.273773 -2.0276 0
M  V30 35341 H 3338.11 1.36366 -3.84536 0
M  V30 35342 H 3336.79 0.252665 -4.15132 0
M  V30 35343 H 3335.36 1.84246 -3.24203 0
M  V30 35344 N 3337.55 1.5726 0.10352 0
M  V30 35345 C 3338.5 2.0146 1.12617 0
M  V30 35346 C 3339.47 0.889415 1.4028 0
M  V30 35347 O 3340.65 1.15479 1.51885 0
M  V30 35348 C 3337.79 2.43697 2.44348 0
M  V30 35349 C 3336.9 3.69699 2.23488 0
M  V30 35350 C 3336.04 4.0085 3.48558 0
M  V30 35351 C 3335.08 5.19988 3.22923 0
M  V30 35352 N 3334.22 5.46933 4.40236 0
M  V30 35353 H 3339.06 2.88608 0.742265 0
M  V30 35354 H 3336.59 1.42752 0.354991 0
M  V30 35355 H 3338.55 2.66227 3.21215 0
M  V30 35356 H 3337.18 1.5957 2.80602 0
M  V30 35357 H 3336.23 3.54694 1.37464 0
M  V30 35358 H 3337.54 4.56715 2.00532 0
M  V30 35359 H 3336.7 4.24112 4.33836 0
M  V30 35360 H 3335.44 3.1234 3.7456 0
M  V30 35361 H 3334.44 4.96555 2.36036 0
M  V30 35362 H 3335.67 6.10089 2.98276 0
M  V30 35363 H 3333.61 4.61381 4.6633 0
M  V30 35364 H 3333.53 6.28304 4.20441 0
M  V30 35365 H 3334.8 5.74725 5.26604 0
M  V30 35366 N 3339.03 -0.374123 1.53095 0
M  V30 35367 C 3339.94 -1.48184 1.81875 0
M  V30 35368 C 3340.95 -1.59011 0.706515 0
M  V30 35369 O 3342.13 -1.75066 0.995679 0
M  V30 35370 C 3339.19 -2.83551 1.99499 0
M  V30 35371 C 3338.26 -2.82323 3.23407 0
M  V30 35372 C 3337.49 -4.11233 3.40181 0
M  V30 35373 O 3337.71 -5.0696 2.61434 0
M  V30 35374 O 3336.65 -4.17565 4.33501 0
M  V30 35375 H 3340.47 -1.2679 2.75967 0
M  V30 35376 H 3338.06 -0.563405 1.38369 0
M  V30 35377 H 3339.94 -3.63774 2.12712 0
M  V30 35378 H 3338.61 -3.0494 1.08597 0
M  V30 35379 H 3337.52 -2.00828 3.15624 0
M  V30 35380 H 3338.85 -2.65887 4.14204 0
M  V30 35381 N 3340.51 -1.4431 -0.633436 0
M  V30 35382 C 3341.92 -1.41754 -1.21502 0
M  V30 35383 C 3342.27 -0.131701 -1.95757 0
M  V30 35384 O 3341.39 0.768037 -2.02312 0
M  V30 35385 C 3341.99 -2.56796 -2.21 0
M  V30 35386 C 3340.55 -2.57442 -2.74591 0
M  V30 35387 C 3339.69 -2.33516 -1.49551 0
M  V30 35388 H 3342.64 -1.52924 -0.424251 0
M  V30 35389 H 3342.67 -2.29417 -3.03559 0
M  V30 35390 H 3342.18 -3.50367 -1.66927 0
M  V30 35391 H 3340.28 -1.67807 -3.32673 0
M  V30 35392 H 3340.39 -3.55854 -3.20787 0
M  V30 35393 H 3338.76 -1.82564 -1.77602 0
M  V30 35394 H 3339.54 -3.29198 -0.973841 0
M  V30 35395 N 3341.98 0.873632 -1.3117 0
M  V30 35396 C 3343.23 1.62317 -1.20407 0
M  V30 35397 C 3343.55 1.93532 0.238795 0
M  V30 35398 O 3342.82 1.57973 1.15851 0
M  V30 35399 H 3341.4 0.601728 -0.442642 0
M  V30 35400 H 3344.07 1.0461 -1.64447 0
M  V30 35401 H 3343.16 2.56839 -1.77314 0
M  V30 35402 N 3343.46 1.1407 1.08746 0
M  V30 35403 C 3344.71 0.908113 1.81332 0
M  V30 35404 C 3345.04 -0.564079 1.85827 0
M  V30 35405 O 3344.32 -1.41771 1.33159 0
M  V30 35406 C 3344.6 1.50537 3.27125 0
M  V30 35407 C 3344.45 3.04717 3.30859 0
M  V30 35408 C 3345.77 1.17935 4.24004 0
M  V30 35409 H 3342.89 0.331337 0.65832 0
M  V30 35410 H 3345.53 1.41011 1.27342 0
M  V30 35411 H 3343.68 1.07845 3.73231 0
M  V30 35412 H 3345.35 3.56214 2.93103 0
M  V30 35413 H 3343.6 3.39345 2.70235 0
M  V30 35414 H 3344.27 3.4161 4.33597 0
M  V30 35415 H 3346.74 1.54838 3.86218 0
M  V30 35416 H 3345.62 1.62363 5.24337 0
M  V30 35417 H 3345.88 0.0941126 4.42 0
M  V30 35418 N 3344.94 -1.26847 0.935286 0
M  V30 35419 C 3346.19 -1.94312 0.580583 0
M  V30 35420 C 3346.52 -1.73261 -0.877175 0
M  V30 35421 O 3345.79 -1.06614 -1.62677 0
M  V30 35422 C 3346.08 -3.48242 0.916506 0
M  V30 35423 C 3345.93 -3.78603 2.42857 0
M  V30 35424 C 3347.25 -4.38016 0.427742 0
M  V30 35425 H 3344.37 -0.705729 0.212403 0
M  V30 35426 H 3347.01 -1.49825 1.16844 0
M  V30 35427 H 3345.16 -3.86264 0.416237 0
M  V30 35428 H 3346.83 -3.50329 3.00112 0
M  V30 35429 H 3345.08 -3.24887 2.87456 0
M  V30 35430 H 3345.75 -4.86176 2.61413 0
M  V30 35431 H 3348.22 -4.07187 0.856596 0
M  V30 35432 H 3347.1 -5.44525 0.691667 0
M  V30 35433 H 3347.36 -4.36959 -0.672267 0
M  V30 35434 N 3346.42 -0.701641 -1.4112 0
M  V30 35435 C 3347.64 -0.242933 -2.05972 0
M  V30 35436 C 3348.07 1.10148 -1.52476 0
M  V30 35437 O 3347.43 1.69083 -0.654253 0
M  V30 35438 C 3347.47 -0.217677 -3.59942 0
M  V30 35439 O 3346.58 0.805558 -4.04456 0
M  V30 35440 H 3345.92 -0.117178 -0.653579 0
M  V30 35441 H 3348.45 -0.958207 -1.80775 0
M  V30 35442 H 3348.46 -0.0505984 -4.07969 0
M  V30 35443 H 3347.13 -1.19884 -3.98247 0
M  V30 35444 H 3345.71 0.60734 -3.67921 0
M  V30 35445 N 3347.9 1.51133 -0.446821 0
M  V30 35446 C 3349.31 1.86695 0.0140804 0
M  V30 35447 C 3349.66 1.36336 1.41092 0
M  V30 35448 O 3348.78 0.718104 2.04138 0
M  V30 35449 C 3349.38 3.38785 0.0323271 0
M  V30 35450 C 3347.94 3.73847 0.437671 0
M  V30 35451 C 3347.08 2.74907 -0.363485 0
M  V30 35452 H 3350.04 1.44223 -0.662235 0
M  V30 35453 H 3350.06 3.71117 0.839799 0
M  V30 35454 H 3349.57 3.75407 -0.98444 0
M  V30 35455 H 3347.67 3.42817 1.45969 0
M  V30 35456 H 3347.78 4.78846 0.15588 0
M  V30 35457 H 3346.15 2.54067 0.179521 0
M  V30 35458 H 3346.93 3.14372 -1.37931 0
M  V30 35459 N 3349.37 0.178515 1.56586 0
M  V30 35460 C 3350.6 -0.470649 2.01476 0
M  V30 35461 C 3351.02 -1.56322 1.05873 0
M  V30 35462 O 3350.37 -1.82399 0.0607811 0
M  V30 35463 C 3350.43 -1.04232 3.46147 0
M  V30 35464 O 3350.15 0.00663521 4.38099 0
M  V30 35465 C 3351.65 -1.76901 4.06474 0
M  V30 35466 H 3348.87 -0.119789 0.660221 0
M  V30 35467 H 3351.41 0.282357 2.02541 0
M  V30 35468 H 3349.57 -1.74579 3.45834 0
M  V30 35469 H 3349.98 -0.416462 5.22844 0
M  V30 35470 H 3351.45 -2.12152 5.09603 0
M  V30 35471 H 3351.93 -2.66666 3.48978 0
M  V30 35472 H 3352.54 -1.11179 4.10511 0
M  V30 35473 N 3350.85 -1.57312 -0.0951784 0
M  V30 35474 C 3352.08 -1.90668 -0.816107 0
M  V30 35475 C 3352.5 -0.772776 -1.71493 0
M  V30 35476 O 3351.86 0.27565 -1.79192 0
M  V30 35477 C 3351.91 -3.22887 -1.60549 0
M  V30 35478 O 3351.01 -3.10471 -2.71443 0
M  V30 35479 H 3350.35 -0.625002 -0.224206 0
M  V30 35480 H 3352.88 -2.04479 -0.0704281 0
M  V30 35481 H 3352.89 -3.56193 -1.98973 0
M  V30 35482 H 3351.57 -4.05002 -0.945847 0
M  V30 35483 H 3350.15 -2.8868 -2.36048 0
M  V30 35484 N 3352.33 0.365999 -1.53291 0
M  V30 35485 C 3353.56 1.12767 -1.7311 0
M  V30 35486 C 3353.97 1.83531 -0.459694 0
M  V30 35487 O 3353.31 1.74399 0.57712 0
M  V30 35488 C 3353.37 2.20237 -2.8414 0
M  V30 35489 C 3353.04 1.69244 -4.24506 0
M  V30 35490 C 3354.03 1.15675 -5.06868 0
M  V30 35491 C 3351.72 1.7477 -4.70915 0
M  V30 35492 C 3353.71 0.68308 -6.33729 0
M  V30 35493 C 3351.4 1.27015 -5.97754 0
M  V30 35494 C 3352.4 0.738738 -6.78993 0
M  V30 35495 O 3352.09 0.268234 -8.03452 0
M  V30 35496 H 3351.82 0.343124 -0.582445 0
M  V30 35497 H 3354.37 0.430934 -2.00829 0
M  V30 35498 H 3352.6 2.93404 -2.51895 0
M  V30 35499 H 3354.29 2.81795 -2.92141 0
M  V30 35500 H 3355.06 1.10745 -4.72187 0
M  V30 35501 H 3350.94 2.15074 -4.07755 0
M  V30 35502 H 3354.48 0.267623 -6.97086 0
M  V30 35503 H 3350.38 1.31638 -6.31935 0
M  V30 35504 H 3351.15 0.387601 -8.17582 0
M  V30 35505 N 3353.81 1.44644 0.625774 0
M  V30 35506 C 3354.74 1.54751 1.74855 0
M  V30 35507 C 3355.72 0.400167 1.65326 0
M  V30 35508 O 3356.9 0.620981 1.84004 0
M  V30 35509 C 3354.03 1.49648 3.13405 0
M  V30 35510 C 3352.99 2.62914 3.37728 0
M  V30 35511 C 3352.31 2.42864 4.76363 0
M  V30 35512 C 3353.61 4.05035 3.29764 0
M  V30 35513 H 3355.31 2.48731 1.66653 0
M  V30 35514 H 3352.85 1.1971 0.800342 0
M  V30 35515 H 3354.81 1.55319 3.91732 0
M  V30 35516 H 3353.53 0.52188 3.22403 0
M  V30 35517 H 3352.19 2.56642 2.61784 0
M  V30 35518 H 3351.84 1.43583 4.82071 0
M  V30 35519 H 3351.54 3.18807 4.93595 0
M  V30 35520 H 3353.06 2.5036 5.56913 0
M  V30 35521 H 3354.48 4.12648 3.97988 0
M  V30 35522 H 3352.87 4.81224 3.58529 0
M  V30 35523 H 3353.94 4.28227 2.27486 0
M  V30 35524 N 3355.29 -0.866663 1.31631 0
M  V30 35525 C 3356.56 -1.60263 1.12139 0
M  V30 35526 C 3356.94 -2.08619 -0.322692 0
M  V30 35527 O 3356.29 -1.86703 -1.31735 0
M  V30 35528 C 3356.5 -2.75807 2.1385 0
M  V30 35529 C 3357.85 -3.45687 2.46547 0
M  V30 35530 O 3358.87 -2.86018 2.12303 0
M  V30 35531 O 3357.73 -4.53336 3.05202 0
M  V30 35532 H 3354.83 -0.705238 0.431935 0
M  V30 35533 H 3357.37 -0.911838 1.43121 0
M  V30 35534 H 3356.14 -2.37513 3.10972 0
M  V30 35535 H 3355.77 -3.52571 1.83792 0
M  V30 35536 N 3356.77 -1.14645 -1.0814 0
M  V30 35537 C 3358.01 -0.917717 -1.80847 0
M  V30 35538 C 3358.34 0.554217 -1.86124 0
M  V30 35539 O 3357.62 1.41062 -1.33909 0
M  V30 35540 C 3357.9 -1.5227 -3.26322 0
M  V30 35541 C 3357.76 -3.06467 -3.29239 0
M  V30 35542 C 3359.07 -1.20182 -4.23372 0
M  V30 35543 H 3356.19 -0.334823 -0.656553 0
M  V30 35544 H 3358.84 -1.41684 -1.26592 0
M  V30 35545 H 3356.99 -1.09823 -3.72654 0
M  V30 35546 H 3358.66 -3.57763 -2.9121 0
M  V30 35547 H 3356.9 -3.40774 -2.68432 0
M  V30 35548 H 3357.57 -3.43905 -4.31779 0
M  V30 35549 H 3360.05 -1.56884 -3.85391 0
M  V30 35550 H 3358.92 -1.65141 -5.23469 0
M  V30 35551 H 3359.18 -0.117552 -4.41944 0
M  V30 35552 N 3358.24 1.26349 -0.942 0
M  V30 35553 C 3359.52 1.88892 -0.507855 0
M  V30 35554 C 3359.9 1.85121 1.01457 0
M  V30 35555 O 3359.25 1.30609 1.87493 0
M  V30 35556 C 3359.46 3.32188 -1.07013 0
M  V30 35557 C 3360.81 4.0903 -1.13929 0
M  V30 35558 O 3361.83 3.4126 -1.02078 0
M  V30 35559 O 3360.69 5.30227 -1.32371 0
M  V30 35560 H 3357.78 0.810243 -0.165636 0
M  V30 35561 H 3360.33 1.34513 -1.03462 0
M  V30 35562 H 3359.1 3.29299 -2.11372 0
M  V30 35563 H 3358.72 3.94107 -0.525866 0
M  V30 35564 N 3359.72 0.709115 1.40746 0
M  V30 35565 C 3360.65 0.0670173 2.33404 0
M  V30 35566 C 3361.63 -0.752556 1.52547 0
M  V30 35567 O 3362.82 -0.702791 1.81037 0
M  V30 35568 C 3359.95 -0.860226 3.36478 0
M  V30 35569 C 3358.9 -0.146753 4.27748 0
M  V30 35570 C 3358.23 -1.18927 5.21306 0
M  V30 35571 C 3359.53 0.995154 5.12732 0
M  V30 35572 H 3361.22 0.840938 2.87348 0
M  V30 35573 H 3358.77 0.405841 1.38163 0
M  V30 35574 H 3360.72 -1.31876 4.00233 0
M  V30 35575 H 3359.44 -1.66597 2.80915 0
M  V30 35576 H 3358.1 0.29189 3.65436 0
M  V30 35577 H 3357.75 -1.9879 4.62051 0
M  V30 35578 H 3357.45 -0.716815 5.83211 0
M  V30 35579 H 3358.98 -1.64804 5.87939 0
M  V30 35580 H 3360.39 0.616281 5.69978 0
M  V30 35581 H 3358.79 1.39557 5.83647 0
M  V30 35582 H 3359.86 1.82875 4.49093 0
M  V30 35583 N 3361.2 -1.50894 0.454829 0
M  V30 35584 C 3362.15 -2.25043 -0.366033 0
M  V30 35585 C 3363.13 -1.27969 -0.975331 0
M  V30 35586 O 3364.33 -1.52963 -0.890573 0
M  V30 35587 C 3361.45 -3.10858 -1.45678 0
M  V30 35588 C 3360.54 -4.15371 -0.856013 0
M  V30 35589 N 3360.93 -5.05798 0.0139676 0
M  V30 35590 C 3359.23 -4.31663 -1.12173 0
M  V30 35591 C 3359.93 -5.80627 0.353232 0
M  V30 35592 N 3358.91 -5.42941 -0.267552 0
M  V30 35593 H 3362.71 -2.92319 0.304408 0
M  V30 35594 H 3360.22 -1.60174 0.267966 0
M  V30 35595 H 3362.22 -3.6257 -2.05787 0
M  V30 35596 H 3360.88 -2.45128 -2.12937 0
M  V30 35597 H 3361.89 -5.16492 0.381664 0
M  V30 35598 H 3358.57 -3.77156 -1.79052 0
M  V30 35599 H 3359.96 -6.6345 1.06224 0
M  V30 35600 N 3362.68 -0.186817 -1.56489 0
M  V30 35601 C 3364.09 0.327233 -1.8381 0
M  V30 35602 C 3364.44 1.61974 -1.1072 0
M  V30 35603 O 3363.56 2.13295 -0.365288 0
M  V30 35604 C 3364.16 0.600492 -3.33436 0
M  V30 35605 C 3362.72 1.05893 -3.61197 0
M  V30 35606 C 3361.87 0.103082 -2.77108 0
M  V30 35607 H 3364.82 -0.410774 -1.53292 0
M  V30 35608 H 3364.84 1.45078 -3.51757 0
M  V30 35609 H 3364.35 -0.340383 -3.86604 0
M  V30 35610 H 3362.45 2.01438 -3.13454 0
M  V30 35611 H 3362.56 0.957375 -4.69437 0
M  V30 35612 H 3360.93 0.603405 -2.47449 0
M  V30 35613 H 3361.71 -0.832089 -3.33063 0
M  V30 35614 N 3364.16 1.57361 0.0868344 0
M  V30 35615 C 3365.12 2.01675 1.08903 0
M  V30 35616 C 3366.12 0.911486 1.32471 0
M  V30 35617 O 3367.31 1.17676 1.28445 0
M  V30 35618 C 3364.44 2.38453 2.43625 0
M  V30 35619 H 3365.63 2.91437 0.707409 0
M  V30 35620 H 3363.19 1.52731 0.332127 0
M  V30 35621 H 3363.92 1.5167 2.86647 0
M  V30 35622 H 3363.71 3.19093 2.27864 0
M  V30 35623 H 3365.2 2.73366 3.15691 0
M  V30 35624 N 3365.63 -0.357865 1.53483 0
M  V30 35625 C 3366.86 -1.12455 1.74266 0
M  V30 35626 C 3367.28 -1.8203 0.473976 0
M  V30 35627 O 3366.64 -1.72024 -0.5725 0
M  V30 35628 C 3366.69 -2.12466 2.9136 0
M  V30 35629 O 3365.79 -3.19702 2.60508 0
M  V30 35630 H 3365.13 -0.325927 0.578505 0
M  V30 35631 H 3367.66 -0.412631 2.00396 0
M  V30 35632 H 3367.67 -2.55935 3.17744 0
M  V30 35633 H 3366.35 -1.61219 3.83381 0
M  V30 35634 H 3364.93 -2.81152 2.44966 0
M  V30 35635 N 3367.11 -1.44974 -0.618094 0
M  V30 35636 C 3368.07 -1.52468 -1.71132 0
M  V30 35637 C 3369.07 -0.405273 -1.55609 0
M  V30 35638 O 3370.26 -0.668379 -1.60867 0
M  V30 35639 C 3367.4 -1.41114 -3.10322 0
M  V30 35640 H 3368.59 -2.49862 -1.65858 0
M  V30 35641 H 3366.14 -1.32259 -0.832908 0
M  V30 35642 H 3366.88 -0.44863 -3.21182 0
M  V30 35643 H 3366.66 -2.22296 -3.22997 0
M  V30 35644 H 3368.15 -1.49367 -3.89973 0
M  V30 35645 N 3368.59 0.85967 -1.32089 0
M  V30 35646 C 3369.84 1.61573 -1.23554 0
M  V30 35647 C 3370.19 1.91337 0.201956 0
M  V30 35648 O 3369.48 1.5412 1.13832 0
M  V30 35649 C 3369.68 2.94603 -2.02345 0
M  V30 35650 C 3369.51 2.7783 -3.53611 0
M  V30 35651 C 3368.28 2.76475 -4.22953 0
M  V30 35652 C 3370.47 2.51947 -4.4836 0
M  V30 35653 N 3368.46 2.5086 -5.60306 0
M  V30 35654 C 3369.83 2.35692 -5.73454 0
M  V30 35655 C 3371.88 2.37375 -4.37673 0
M  V30 35656 C 3370.59 2.06345 -6.89068 0
M  V30 35657 C 3372.61 2.09418 -5.53081 0
M  V30 35658 C 3371.97 1.93959 -6.7717 0
M  V30 35659 H 3368.07 0.595155 -0.507262 0
M  V30 35660 H 3370.66 1.01095 -1.66397 0
M  V30 35661 H 3368.83 3.53068 -1.61856 0
M  V30 35662 H 3370.56 3.59556 -1.85747 0
M  V30 35663 H 3367.31 2.89232 -3.75022 0
M  V30 35664 H 3367.74 2.40995 -6.32654 0
M  V30 35665 H 3372.38 2.4805 -3.4239 0
M  V30 35666 H 3370.1 1.94408 -7.84367 0
M  V30 35667 H 3373.68 1.98928 -5.46735 0
M  V30 35668 H 3372.56 1.72633 -7.64962 0
M  V30 35669 N 3370.07 1.15217 1.0753 0
M  V30 35670 C 3371.3 0.94972 1.83815 0
M  V30 35671 C 3371.71 -0.501959 1.82005 0
M  V30 35672 O 3371.07 -1.34808 1.23016 0
M  V30 35673 C 3371.12 1.45388 3.30975 0
M  V30 35674 O 3370.84 2.84869 3.32839 0
M  V30 35675 C 3372.34 1.29265 4.24035 0
M  V30 35676 H 3369.56 0.337414 0.579994 0
M  V30 35677 H 3372.1 1.52946 1.35749 0
M  V30 35678 H 3370.26 0.916704 3.76398 0
M  V30 35679 H 3370.67 3.07689 4.24768 0
M  V30 35680 H 3372.15 1.69389 5.25368 0
M  V30 35681 H 3372.62 0.236596 4.38562 0
M  V30 35682 H 3373.23 1.81881 3.84447 0
M  V30 35683 N 3371.55 -1.25848 0.948687 0
M  V30 35684 C 3372.48 -2.28469 0.482076 0
M  V30 35685 C 3373.46 -1.6352 -0.468524 0
M  V30 35686 O 3374.64 -1.90667 -0.368762 0
M  V30 35687 C 3371.77 -3.46424 -0.246542 0
M  V30 35688 C 3370.73 -4.23511 0.618225 0
M  V30 35689 C 3370.05 -5.34158 -0.24079 0
M  V30 35690 C 3371.35 -4.86775 1.89335 0
M  V30 35691 H 3373.05 -2.67751 1.33977 0
M  V30 35692 H 3370.59 -1.28713 0.645667 0
M  V30 35693 H 3372.55 -4.17333 -0.584062 0
M  V30 35694 H 3371.27 -3.06116 -1.13844 0
M  V30 35695 H 3369.93 -3.54377 0.938744 0
M  V30 35696 H 3369.58 -4.90091 -1.13226 0
M  V30 35697 H 3369.28 -5.86647 0.33447 0
M  V30 35698 H 3370.8 -6.07902 -0.57341 0
M  V30 35699 H 3372.21 -5.49858 1.62261 0
M  V30 35700 H 3370.61 -5.49415 2.41379 0
M  V30 35701 H 3371.68 -4.09294 2.60013 0
M  V30 35702 N 3373.02 -0.716569 -1.40368 0
M  V30 35703 C 3374.25 -0.265793 -2.04883 0
M  V30 35704 C 3374.66 1.09777 -1.54097 0
M  V30 35705 O 3374.01 1.70128 -0.692974 0
M  V30 35706 C 3374.07 -0.168933 -3.59103 0
M  V30 35707 C 3373.73 -1.46794 -4.32782 0
M  V30 35708 C 3374.73 -2.41005 -4.60666 0
M  V30 35709 C 3372.41 -1.72713 -4.71673 0
M  V30 35710 C 3374.41 -3.59381 -5.26426 0
M  V30 35711 C 3372.09 -2.91371 -5.37165 0
M  V30 35712 C 3373.09 -3.84527 -5.64471 0
M  V30 35713 O 3372.78 -5.01104 -6.2861 0
M  V30 35714 H 3372.51 -0.117037 -0.665792 0
M  V30 35715 H 3375.07 -0.97573 -1.80745 0
M  V30 35716 H 3373.3 0.596956 -3.82065 0
M  V30 35717 H 3374.99 0.247411 -4.05145 0
M  V30 35718 H 3375.75 -2.22244 -4.31083 0
M  V30 35719 H 3371.63 -1.01057 -4.49787 0
M  V30 35720 H 3375.17 -4.3211 -5.47656 0
M  V30 35721 H 3371.07 -3.1004 -5.66167 0
M  V30 35722 H 3371.84 -5.01195 -6.47106 0
M  V30 35723 N 3374.5 1.50651 -0.462825 0
M  V30 35724 C 3375.47 2.26895 0.324224 0
M  V30 35725 C 3376.47 1.31343 0.927664 0
M  V30 35726 O 3377.66 1.5484 0.798132 0
M  V30 35727 C 3374.79 3.08002 1.46107 0
M  V30 35728 H 3375.98 2.97917 -0.344318 0
M  V30 35729 H 3373.53 1.54791 -0.216658 0
M  V30 35730 H 3374.27 2.41458 2.16492 0
M  V30 35731 H 3374.05 3.78213 1.03427 0
M  V30 35732 H 3375.54 3.65688 2.01649 0
M  V30 35733 N 3375.98 0.195113 1.56388 0
M  V30 35734 C 3377.23 -0.444309 1.97873 0
M  V30 35735 C 3377.56 -1.61269 1.08193 0
M  V30 35736 O 3376.83 -1.94038 0.133938 0
M  V30 35737 C 3377.12 -0.904429 3.48557 0
M  V30 35738 C 3376.97 0.265772 4.49014 0
M  V30 35739 C 3378.29 -1.76992 4.02941 0
M  V30 35740 H 3375.41 -0.160029 0.719416 0
M  V30 35741 H 3378.05 0.286038 1.87835 0
M  V30 35742 H 3376.2 -1.52676 3.57243 0
M  V30 35743 H 3377.87 0.903442 4.52367 0
M  V30 35744 H 3376.12 0.917536 4.23986 0
M  V30 35745 H 3376.79 -0.0986864 5.51912 0
M  V30 35746 H 3379.26 -1.24507 3.97036 0
M  V30 35747 H 3378.14 -2.06083 5.08745 0
M  V30 35748 H 3378.4 -2.72412 3.48202 0
M  V30 35749 N 3377.46 -1.57404 -0.0784879 0
M  V30 35750 C 3378.42 -2.0225 -1.07832 0
M  V30 35751 C 3379.42 -0.918498 -1.31986 0
M  V30 35752 O 3380.61 -1.18355 -1.27819 0
M  V30 35753 C 3377.74 -2.39742 -2.42357 0
M  V30 35754 H 3378.94 -2.91808 -0.691944 0
M  V30 35755 H 3376.49 -1.52904 -0.324023 0
M  V30 35756 H 3377.22 -1.53188 -2.85839 0
M  V30 35757 H 3377.01 -3.20297 -2.26169 0
M  V30 35758 H 3378.5 -2.75037 -3.14236 0
M  V30 35759 N 3378.94 0.34972 -1.53671 0
M  V30 35760 C 3380.16 1.11086 -1.74549 0
M  V30 35761 C 3380.58 1.8255 -0.481773 0
M  V30 35762 O 3379.94 1.74133 0.546242 0
M  V30 35763 C 3379.99 2.12908 -2.92152 0
M  V30 35764 O 3379.71 1.44351 -4.13636 0
M  V30 35765 C 3381.21 3.01445 -3.25032 0
M  V30 35766 H 3378.43 0.331522 -0.583382 0
M  V30 35767 H 3380.97 0.403806 -2.00474 0
M  V30 35768 H 3379.13 2.79187 -2.68577 0
M  V30 35769 H 3379.54 2.12321 -4.79604 0
M  V30 35770 H 3381.02 3.68838 -4.10685 0
M  V30 35771 H 3381.49 3.67126 -2.4107 0
M  V30 35772 H 3382.1 2.40762 -3.50591 0
M  V30 35773 N 3380.41 1.45299 0.610397 0
M  V30 35774 C 3381.64 1.5269 1.39619 0
M  V30 35775 C 3382.06 0.158568 1.88133 0
M  V30 35776 O 3381.41 -0.839368 1.62052 0
M  V30 35777 C 3381.47 2.50896 2.60257 0
M  V30 35778 O 3381.19 3.82411 2.1376 0
M  V30 35779 C 3382.69 2.67957 3.53149 0
M  V30 35780 H 3379.91 0.517203 0.427484 0
M  V30 35781 H 3382.45 1.9046 0.744668 0
M  V30 35782 H 3380.61 2.16205 3.21456 0
M  V30 35783 H 3381.02 4.35621 2.92121 0
M  V30 35784 H 3382.49 3.40654 4.34349 0
M  V30 35785 H 3382.97 1.73895 4.03308 0
M  V30 35786 H 3383.58 3.03632 2.97805 0
M  V30 35787 N 3381.89 -0.852653 1.32543 0
M  V30 35788 C 3383.14 -1.60936 1.234 0
M  V30 35789 C 3383.47 -1.93133 -0.20326 0
M  V30 35790 O 3382.75 -1.57521 -1.14094 0
M  V30 35791 C 3383.03 -2.92838 2.09566 0
M  V30 35792 C 3382.88 -2.6741 3.6168 0
M  V30 35793 C 3384.2 -3.94129 1.95832 0
M  V30 35794 H 3381.32 -0.583963 0.449618 0
M  V30 35795 H 3383.96 -0.984432 1.62508 0
M  V30 35796 H 3382.11 -3.46173 1.76342 0
M  V30 35797 H 3383.78 -2.20614 4.05126 0
M  V30 35798 H 3382.03 -2.0134 3.84245 0
M  V30 35799 H 3382.7 -3.61339 4.17298 0
M  V30 35800 H 3385.17 -3.50058 2.24941 0
M  V30 35801 H 3384.05 -4.84276 2.58396 0
M  V30 35802 H 3384.31 -4.32282 0.926542 0
M  V30 35803 N 3383.37 -1.15786 -1.06918 0
M  V30 35804 C 3384.62 -0.929975 -1.78981 0
M  V30 35805 C 3384.93 0.543936 -1.87885 0
M  V30 35806 O 3386.14 0.889533 -2.56514 0
M  V30 35807 C 3384.59 -1.61451 -3.21654 0
M  V30 35808 C 3384.2 -3.12575 -3.20937 0
M  V30 35809 C 3385.95 -1.46835 -3.98296 0
M  V30 35810 C 3383.85 -3.73796 -4.58291 0
M  V30 35811 H 3382.78 -0.344296 -0.670803 0
M  V30 35812 H 3385.43 -1.38848 -1.19973 0
M  V30 35813 H 3383.82 -1.0837 -3.80883 0
M  V30 35814 H 3384.99 -3.72448 -2.71328 0
M  V30 35815 H 3383.31 -3.27004 -2.57794 0
M  V30 35816 H 3385.9 -1.89961 -4.99819 0
M  V30 35817 H 3386.25 -0.416431 -4.14212 0
M  V30 35818 H 3386.78 -1.97037 -3.45574 0
M  V30 35819 H 3383.52 -4.78908 -4.4758 0
M  V30 35820 H 3383.04 -3.18707 -5.0812 0
M  V30 35821 H 3384.72 -3.74981 -5.27256 0
M  V30 35822 N 3384.85 1.25343 -0.955348 0
M  V30 35823 C 3386.08 1.97148 -0.627728 0
M  V30 35824 C 3386.49 1.70998 0.800319 0
M  V30 35825 O 3385.85 0.986444 1.53543 0
M  V30 35826 C 3385.9 3.50682 -0.877737 0
M  V30 35827 O 3385.62 3.7593 -2.24963 0
M  V30 35828 C 3387.12 4.39715 -0.562602 0
M  V30 35829 H 3384.34 0.628398 -0.23528 0
M  V30 35830 H 3386.89 1.59494 -1.27992 0
M  V30 35831 H 3385.04 3.86444 -0.271945 0
M  V30 35832 H 3385.45 4.70385 -2.3203 0
M  V30 35833 H 3386.93 5.46346 -0.788068 0
M  V30 35834 H 3387.41 4.36312 0.502853 0
M  V30 35835 H 3388.01 4.0952 -1.14775 0
M  V30 35836 N 3386.33 0.724003 1.39986 0
M  V30 35837 C 3387.74 0.338494 1.83606 0
M  V30 35838 C 3388.09 -1.12829 1.60512 0
M  V30 35839 O 3387.21 -1.86918 1.09044 0
M  V30 35840 C 3387.81 0.607591 3.33307 0
M  V30 35841 C 3386.37 0.275698 3.75389 0
M  V30 35842 C 3385.52 0.875745 2.63108 0
M  V30 35843 H 3388.47 0.922505 1.29134 0
M  V30 35844 H 3388.49 -0.124357 3.80297 0
M  V30 35845 H 3388 1.6752 3.50084 0
M  V30 35846 H 3386.1 -0.786515 3.64204 0
M  V30 35847 H 3386.21 0.750576 4.73184 0
M  V30 35848 H 3384.58 0.303166 2.52889 0
M  V30 35849 H 3385.36 1.94779 2.82694 0
M  V30 35850 N 3387.81 -1.50403 0.470808 0
M  V30 35851 C 3388.74 -2.25189 -0.369492 0
M  V30 35852 C 3389.72 -1.28489 -0.996455 0
M  V30 35853 O 3390.9 -1.57711 -1.03244 0
M  V30 35854 C 3388.03 -3.02793 -1.51769 0
M  V30 35855 C 3387.07 -4.14414 -1.00813 0
M  V30 35856 S 3387.91 -5.35445 0.0769381 0
M  V30 35857 C 3389.06 -6.16597 -1.07514 0
M  V30 35858 H 3389.3 -2.96114 0.265338 0
M  V30 35859 H 3386.83 -1.52268 0.255689 0
M  V30 35860 H 3388.79 -3.48096 -2.17576 0
M  V30 35861 H 3387.45 -2.31395 -2.12404 0
M  V30 35862 H 3386.64 -4.68116 -1.86772 0
M  V30 35863 H 3386.24 -3.71545 -0.427785 0
M  V30 35864 H 3388.53 -6.47713 -1.98682 0
M  V30 35865 H 3389.48 -7.05742 -0.577394 0
M  V30 35866 H 3389.89 -5.48636 -1.32884 0
M  V30 35867 N 3389.28 -0.203404 -1.56282 0
M  V30 35868 C 3390.21 0.709144 -2.22471 0
M  V30 35869 C 3391.19 1.21497 -1.19049 0
M  V30 35870 O 3392.38 1.26229 -1.4758 0
M  V30 35871 C 3389.51 1.92524 -2.89053 0
M  V30 35872 C 3388.46 1.554 -3.98792 0
M  V30 35873 C 3387.79 2.84739 -4.52579 0
M  V30 35874 C 3389.09 0.757659 -5.16775 0
M  V30 35875 H 3390.78 0.157339 -2.98986 0
M  V30 35876 H 3388.33 0.074236 -1.43809 0
M  V30 35877 H 3390.28 2.56892 -3.34043 0
M  V30 35878 H 3389.01 2.50171 -2.09957 0
M  V30 35879 H 3387.67 0.933866 -3.54506 0
M  V30 35880 H 3387.31 3.40493 -3.70235 0
M  V30 35881 H 3387.01 2.6064 -5.26631 0
M  V30 35882 H 3388.54 3.50081 -5.00276 0
M  V30 35883 H 3389.95 1.30463 -5.58258 0
M  V30 35884 H 3388.35 0.614478 -5.96946 0
M  V30 35885 H 3389.42 -0.239561 -4.84308 0
M  V30 35886 N 3390.76 1.57444 0.0701393 0
M  V30 35887 C 3392.18 1.53838 0.424964 0
M  V30 35888 C 3392.38 0.923825 1.79075 0
M  V30 35889 O 3391.43 0.527045 2.46938 0
M  V30 35890 C 3392.75 2.98483 0.36451 0
M  V30 35891 C 3394.29 3.09827 0.444577 0
M  V30 35892 C 3394.77 4.56125 0.414013 0
M  V30 35893 N 3396.26 4.60768 0.474038 0
M  V30 35894 C 3397 5.71449 0.472629 0
M  V30 35895 N 3396.49 6.91489 0.425937 0
M  V30 35896 N 3398.28 5.59696 0.51931 0
M  V30 35897 H 3390.44 1.95759 -0.824151 0
M  V30 35898 H 3392.7 0.896083 -0.309417 0
M  V30 35899 H 3392.4 3.47011 -0.572404 0
M  V30 35900 H 3392.28 3.58462 1.17408 0
M  V30 35901 H 3394.67 2.61271 1.37191 0
M  V30 35902 H 3394.75 2.52754 -0.393592 0
M  V30 35903 H 3394.39 5.05338 -0.509483 0
M  V30 35904 H 3394.32 5.11063 1.26974 0
M  V30 35905 H 3396.81 3.74384 0.514305 0
M  V30 35906 H 3397.12 7.71609 0.428833 0
M  V30 35907 H 3395.47 6.9389 0.3926 0
M  V30 35908 H 3398.66 4.64816 0.553491 0
M  V30 35909 H 3398.83 6.45952 0.514742 0
M  V30 35910 N 3392.24 -0.341566 1.53854 0
M  V30 35911 C 3393.19 -1.42025 1.78362 0
M  V30 35912 C 3394.17 -1.47671 0.638902 0
M  V30 35913 O 3395.37 -1.52508 0.898355 0
M  V30 35914 C 3392.49 -2.79138 1.99842 0
M  V30 35915 C 3391.58 -2.77875 3.20384 0
M  V30 35916 N 3391.97 -2.46241 4.41813 0
M  V30 35917 C 3390.27 -3.0902 3.21593 0
M  V30 35918 C 3390.97 -2.53262 5.23673 0
M  V30 35919 N 3389.95 -2.88966 4.60434 0
M  V30 35920 H 3393.75 -1.16467 2.69838 0
M  V30 35921 H 3391.26 -0.549939 1.52805 0
M  V30 35922 H 3393.26 -3.56862 2.15534 0
M  V30 35923 H 3391.92 -3.0564 1.09609 0
M  V30 35924 H 3392.93 -2.19405 4.69129 0
M  V30 35925 H 3389.61 -3.40681 2.41335 0
M  V30 35926 H 3391 -2.31947 6.30595 0
M  V30 35927 N 3393.72 -1.45621 -0.602683 0
M  V30 35928 C 3394.95 -1.53428 -1.38807 0
M  V30 35929 C 3395.36 -0.168543 -1.88046 0
M  V30 35930 O 3394.72 0.830762 -1.62495 0
M  V30 35931 C 3394.77 -2.52272 -2.58923 0
M  V30 35932 O 3394.49 -3.8354 -2.11729 0
M  V30 35933 C 3395.99 -2.69826 -3.51723 0
M  V30 35934 H 3393.21 -0.519462 -0.424735 0
M  V30 35935 H 3395.75 -1.90852 -0.734557 0
M  V30 35936 H 3393.91 -2.17907 -3.20305 0
M  V30 35937 H 3394.32 -4.37164 -2.89806 0
M  V30 35938 H 3395.8 -3.42953 -4.32536 0
M  V30 35939 H 3396.27 -1.76031 -4.0238 0
M  V30 35940 H 3396.88 -3.05207 -2.9619 0
M  V30 35941 N 3395.2 0.845612 -1.32993 0
M  V30 35942 C 3396.44 1.59533 -1.23418 0
M  V30 35943 C 3396.76 1.94572 0.200244 0
M  V30 35944 O 3397.96 2.68264 0.417946 0
M  V30 35945 C 3396.42 2.87716 -2.16212 0
M  V30 35946 C 3396.03 2.60067 -3.64787 0
M  V30 35947 C 3397.77 3.65736 -2.15494 0
M  V30 35948 C 3395.68 3.84305 -4.49515 0
M  V30 35949 H 3394.61 0.598671 -0.458376 0
M  V30 35950 H 3397.26 0.932953 -1.58013 0
M  V30 35951 H 3395.64 3.55459 -1.74541 0
M  V30 35952 H 3396.82 2.00577 -4.14856 0
M  V30 35953 H 3395.13 1.95362 -3.67726 0
M  V30 35954 H 3397.73 4.57943 -2.76029 0
M  V30 35955 H 3398.07 4.00151 -1.14825 0
M  V30 35956 H 3398.6 3.04908 -2.55492 0
M  V30 35957 H 3395.34 3.55025 -5.51033 0
M  V30 35958 H 3394.86 4.43157 -4.04192 0
M  V30 35959 H 3396.54 4.51953 -4.62977 0
M  V30 35960 N 3396.67 1.16351 1.06302 0
M  V30 35961 C 3397.58 0.884327 2.17294 0
M  V30 35962 C 3398.6 -0.143383 1.73408 0
M  V30 35963 O 3399.78 0.0332341 2.01373 0
M  V30 35964 C 3396.84 0.389223 3.44508 0
M  V30 35965 C 3395.9 1.48215 4.02903 0
M  V30 35966 C 3395.13 1.01057 5.24045 0
M  V30 35967 O 3395.36 -0.139721 5.70229 0
M  V30 35968 O 3394.29 1.79886 5.74391 0
M  V30 35969 H 3398.12 1.81247 2.43687 0
M  V30 35970 H 3395.7 0.94348 1.1584 0
M  V30 35971 H 3397.58 0.120092 4.21229 0
M  V30 35972 H 3396.26 -0.510912 3.19643 0
M  V30 35973 H 3395.17 1.80502 3.27673 0
M  V30 35974 H 3396.5 2.35758 4.32064 0
M  V30 35975 N 3398.15 -1.24835 0.961982 0
M  V30 35976 C 3399.1 -2.27608 0.479322 0
M  V30 35977 C 3400.09 -1.63197 -0.454196 0
M  V30 35978 O 3401.3 -1.76947 -0.330115 0
M  V30 35979 H 3397.67 -0.739504 0.136523 0
M  V30 35980 H 3399.65 -2.65697 1.35822 0
M  V30 35981 C 3398.39 -3.47001 -0.220438 0
M  V30 35982 H 3397.72 -3.96801 0.488764 0
M  V30 35983 H 3399.16 -4.20774 -0.522063 0
M  V30 35984 C 3397.62 -3.04315 -1.44547 0
M  V30 35985 O 3398.15 -3.10972 -2.54282 0
M  V30 35986 N 3396.35 -2.59426 -1.30945 0
M  V30 35987 H 3395.9 -2.54209 -0.416611 0
M  V30 35988 H 3395.86 -2.31231 -2.13025 0
M  V30 35989 N 3399.63 -0.731417 -1.396 0
M  V30 35990 C 3400.85 -0.286568 -2.05411 0
M  V30 35991 C 3401.28 1.06889 -1.54778 0
M  V30 35992 O 3400.64 1.67658 -0.689971 0
M  V30 35993 C 3400.69 -0.293977 -3.594 0
M  V30 35994 O 3399.79 0.719586 -4.06074 0
M  V30 35995 H 3399.13 -0.131015 -0.650946 0
M  V30 35996 H 3401.66 -0.996337 -1.78702 0
M  V30 35997 H 3401.67 -0.137123 -4.0777 0
M  V30 35998 H 3400.35 -1.28305 -3.95614 0
M  V30 35999 H 3398.92 0.529162 -3.69126 0
M  V30 36000 N 3401.11 1.50152 -0.478778 0
M  V30 36001 C 3402.34 2.06778 0.0710122 0
M  V30 36002 C 3402.75 1.34177 1.32823 0
M  V30 36003 O 3402.11 0.413336 1.77758 0
M  V30 36004 C 3402.16 3.59789 0.351288 0
M  V30 36005 O 3401.88 4.29655 -0.856073 0
M  V30 36006 C 3403.38 4.33063 0.947193 0
M  V30 36007 H 3400.6 0.670918 -0.010515 0
M  V30 36008 H 3403.15 1.93221 -0.669766 0
M  V30 36009 H 3401.3 3.73123 1.04201 0
M  V30 36010 H 3401.71 5.20995 -0.605344 0
M  V30 36011 H 3403.19 5.4107 1.09302 0
M  V30 36012 H 3403.67 3.94066 1.9393 0
M  V30 36013 H 3404.27 4.24278 0.294619 0
M  V30 36014 N 3402.59 0.211689 1.56172 0
M  V30 36015 C 3403.55 -0.688867 2.18603 0
M  V30 36016 C 3404.55 -1.1289 1.1451 0
M  V30 36017 O 3405.74 -1.0393 1.39801 0
M  V30 36018 C 3402.87 -1.94248 2.80144 0
M  V30 36019 H 3404.06 -0.144713 2.99551 0
M  V30 36020 H 3401.62 -0.037934 1.56254 0
M  V30 36021 H 3402.35 -2.52874 2.0304 0
M  V30 36022 H 3402.14 -1.63552 3.56361 0
M  V30 36023 H 3403.63 -2.5843 3.2803 0
M  V30 36024 N 3404.06 -1.57479 -0.0617887 0
M  V30 36025 C 3405.01 -2.05426 -1.09101 0
M  V30 36026 C 3406.01 -0.961504 -1.39469 0
M  V30 36027 O 3407.21 -1.14657 -1.38758 0
M  V30 36028 H 3403.59 -0.65512 -0.369218 0
M  V30 36029 H 3405.56 -2.90997 -0.660559 0
M  V30 36030 C 3404.31 -2.52213 -2.3934 0
M  V30 36031 H 3403.63 -3.35896 -2.16826 0
M  V30 36032 H 3405.07 -2.89505 -3.09779 0
M  V30 36033 C 3403.53 -1.40928 -3.06008 0
M  V30 36034 O 3404.06 -0.75699 -3.94503 0
M  V30 36035 N 3402.27 -1.15191 -2.66795 0
M  V30 36036 H 3401.81 -1.68416 -1.9492 0
M  V30 36037 H 3401.77 -0.409379 -3.11723 0
M  V30 36038 N 3405.54 0.333401 -1.54033 0
M  V30 36039 C 3406.79 1.07408 -1.72021 0
M  V30 36040 C 3407.12 1.87987 -0.487298 0
M  V30 36041 O 3406.4 1.87538 0.515724 0
M  V30 36042 C 3406.68 2.00692 -2.98989 0
M  V30 36043 C 3406.53 1.23509 -4.32511 0
M  V30 36044 C 3407.85 3.00362 -3.21668 0
M  V30 36045 H 3404.97 0.389083 -0.625926 0
M  V30 36046 H 3407.61 0.351664 -1.86717 0
M  V30 36047 H 3405.76 2.62293 -2.86591 0
M  V30 36048 H 3407.43 0.644442 -4.56776 0
M  V30 36049 H 3405.68 0.537222 -4.30461 0
M  V30 36050 H 3406.35 1.91953 -5.1755 0
M  V30 36051 H 3408.82 2.4888 -3.33464 0
M  V30 36052 H 3407.7 3.62827 -4.11884 0
M  V30 36053 H 3407.96 3.72291 -2.38436 0
M  V30 36054 N 3407.02 1.45939 0.594952 0
M  V30 36055 C 3408.25 1.54396 1.38479 0
M  V30 36056 C 3408.67 0.181596 1.87221 0
M  V30 36057 O 3408.03 -0.836091 1.6087 0
M  V30 36058 C 3408.08 2.54292 2.55672 0
M  V30 36059 O 3407.18 2.06947 3.56716 0
M  V30 36060 H 3406.52 0.520002 0.412909 0
M  V30 36061 H 3409.05 1.91405 0.722865 0
M  V30 36062 H 3409.06 2.73507 3.02751 0
M  V30 36063 H 3407.74 3.53232 2.19546 0
M  V30 36064 H 3406.31 1.97666 3.162 0
M  V30 36065 N 3408.5 -0.838547 1.3344 0
M  V30 36066 C 3409.43 -1.96363 1.26348 0
M  V30 36067 C 3410.41 -1.69489 0.143986 0
M  V30 36068 O 3411.59 -1.9131 0.333813 0
M  V30 36069 C 3408.72 -3.32524 1.00226 0
M  V30 36070 C 3407.68 -3.73796 2.08472 0
M  V30 36071 C 3407 -5.07766 1.67564 0
M  V30 36072 C 3408.3 -3.87546 3.50151 0
M  V30 36073 H 3410 -2.02555 2.20481 0
M  V30 36074 H 3407.54 -0.973149 1.0614 0
M  V30 36075 H 3409.5 -4.10802 0.93914 0
M  V30 36076 H 3408.22 -3.2659 0.0253088 0
M  V30 36077 H 3406.88 -2.97781 2.13827 0
M  V30 36078 H 3406.53 -4.98304 0.685707 0
M  V30 36079 H 3406.23 -5.36351 2.40002 0
M  V30 36080 H 3407.75 -5.88519 1.62719 0
M  V30 36081 H 3409.17 -4.56135 3.47295 0
M  V30 36082 H 3407.56 -4.27568 4.21077 0
M  V30 36083 H 3408.63 -2.89987 3.88633 0
M  V30 36084 N 3409.98 -1.16914 -1.05683 0
M  V30 36085 C 3410.94 -0.883684 -2.1148 0
M  V30 36086 C 3411.94 0.124005 -1.60321 0
M  V30 36087 O 3413.13 -0.107597 -1.73867 0
M  V30 36088 C 3410.26 -0.322708 -3.39369 0
M  V30 36089 H 3411.45 -1.82165 -2.38235 0
M  V30 36090 H 3409.01 -0.978916 -1.21848 0
M  V30 36091 H 3409.74 0.622639 -3.18267 0
M  V30 36092 H 3409.53 -1.0489 -3.7781 0
M  V30 36093 H 3411.02 -0.141145 -4.17361 0
M  V30 36094 N 3411.45 1.24323 -0.968589 0
M  V30 36095 C 3412.42 2.23582 -0.504346 0
M  V30 36096 C 3413.42 1.55756 0.399598 0
M  V30 36097 O 3414.61 1.73106 0.194935 0
M  V30 36098 C 3411.74 3.39833 0.2695 0
M  V30 36099 H 3412.93 2.66167 -1.38185 0
M  V30 36100 H 3410.49 1.36951 -0.753265 0
M  V30 36101 H 3411.22 3.02688 1.16406 0
M  V30 36102 H 3411.01 3.90262 -0.379202 0
M  V30 36103 H 3412.5 4.13506 0.583303 0
M  V30 36104 N 3412.93 0.73881 1.3921 0
M  V30 36105 C 3414.18 0.285289 1.99672 0
M  V30 36106 C 3414.49 -1.13504 1.59299 0
M  V30 36107 O 3415.7 -1.68828 2.12625 0
M  V30 36108 C 3414.16 0.459123 3.56959 0
M  V30 36109 C 3413.76 1.88759 4.06293 0
M  V30 36110 C 3415.51 0.06757 4.24446 0
M  V30 36111 C 3413.42 2.01077 5.56167 0
M  V30 36112 H 3412.35 0.102914 0.746944 0
M  V30 36113 H 3415 0.913237 1.59161 0
M  V30 36114 H 3413.38 -0.237781 3.95285 0
M  V30 36115 H 3414.55 2.61675 3.79292 0
M  V30 36116 H 3412.87 2.2327 3.51482 0
M  V30 36117 H 3415.46 0.138569 5.3452 0
M  V30 36118 H 3415.81 -0.977751 4.04655 0
M  V30 36119 H 3416.34 0.715773 3.91307 0
M  V30 36120 H 3413.08 3.03811 5.80843 0
M  V30 36121 H 3412.6 1.32602 5.84959 0
M  V30 36122 H 3414.28 1.79373 6.21638 0
M  V30 36123 N 3414.41 -1.49895 0.486734 0
M  V30 36124 C 3415.37 -2.27382 -0.288086 0
M  V30 36125 C 3416.37 -1.32802 -0.906651 0
M  V30 36126 O 3417.56 -1.5609 -0.773397 0
M  V30 36127 C 3414.7 -3.10288 -1.41189 0
M  V30 36128 H 3415.89 -2.97331 0.391671 0
M  V30 36129 H 3413.44 -1.54427 0.241257 0
M  V30 36130 H 3414.18 -2.44871 -2.12623 0
M  V30 36131 H 3413.96 -3.79811 -0.973966 0
M  V30 36132 H 3415.45 -3.6885 -1.95805 0
M  V30 36133 N 3415.89 -0.219968 -1.56057 0
M  V30 36134 C 3416.84 0.707282 -2.21586 0
M  V30 36135 C 3417.83 1.20091 -1.19476 0
M  V30 36136 O 3419.04 1.16093 -1.37559 0
M  V30 36137 H 3415.41 0.246502 -0.710451 0
M  V30 36138 H 3417.38 0.131162 -2.98112 0
M  V30 36139 C 3416.13 1.90539 -2.90844 0
M  V30 36140 H 3415.46 1.53466 -3.69172 0
M  V30 36141 H 3416.9 2.532 -3.40096 0
M  V30 36142 C 3415.35 2.7598 -1.93227 0
M  V30 36143 O 3415.88 3.74686 -1.44822 0
M  V30 36144 N 3414.09 2.41983 -1.60912 0
M  V30 36145 H 3413.64 1.61771 -2.0047 0
M  V30 36146 H 3413.6 2.9943 -0.958587 0
M  V30 36147 N 3417.37 1.57509 0.0534363 0
M  V30 36148 C 3418.3 2.01698 1.0886 0
M  V30 36149 C 3419.31 0.925789 1.33914 0
M  V30 36150 O 3420.5 1.20345 1.31831 0
M  V30 36151 C 3417.6 2.35648 2.43563 0
M  V30 36152 C 3416.77 3.66845 2.38208 0
M  V30 36153 C 3415.83 3.88258 3.55165 0
M  V30 36154 O 3414.86 4.59623 3.35761 0
M  V30 36155 N 3416.06 3.32018 4.76177 0
M  V30 36156 H 3418.83 2.91116 0.712141 0
M  V30 36157 H 3416.39 1.60084 0.241801 0
M  V30 36158 H 3418.38 2.47131 3.20482 0
M  V30 36159 H 3416.95 1.52026 2.73142 0
M  V30 36160 H 3416.17 3.65946 1.46551 0
M  V30 36161 H 3417.46 4.52957 2.31749 0
M  V30 36162 H 3416.86 2.74127 4.94844 0
M  V30 36163 H 3415.41 3.4892 5.50543 0
M  V30 36164 N 3418.85 -0.325228 1.54208 0
M  V30 36165 C 3419.81 -1.38317 1.82759 0
M  V30 36166 C 3420.81 -1.44796 0.699338 0
M  V30 36167 O 3422 -1.44853 0.967646 0
M  V30 36168 C 3419.13 -2.77066 1.98613 0
M  V30 36169 H 3420.32 -1.14256 2.77282 0
M  V30 36170 H 3417.88 -0.560621 1.459 0
M  V30 36171 H 3418.61 -3.06385 1.06295 0
M  V30 36172 H 3418.4 -2.73758 2.80712 0
M  V30 36173 H 3419.89 -3.53605 2.22156 0
M  V30 36174 N 3420.32 -1.46252 -0.587204 0
M  V30 36175 C 3421.57 -1.51553 -1.34757 0
M  V30 36176 C 3421.9 -0.164864 -1.93499 0
M  V30 36177 O 3421.18 0.823176 -1.76222 0
M  V30 36178 C 3421.46 -2.61063 -2.48028 0
M  V30 36179 C 3421.31 -4.05645 -1.9435 0
M  V30 36180 C 3422.63 -2.66691 -3.50091 0
M  V30 36181 H 3419.75 -0.551742 -0.488621 0
M  V30 36182 H 3422.39 -1.78166 -0.660066 0
M  V30 36183 H 3420.54 -2.38502 -3.06675 0
M  V30 36184 H 3422.22 -4.3948 -1.40196 0
M  V30 36185 H 3420.46 -4.15337 -1.2521 0
M  V30 36186 H 3421.13 -4.7799 -2.76096 0
M  V30 36187 H 3423.61 -2.86961 -3.01319 0
M  V30 36188 H 3422.48 -3.45143 -4.26811 0
M  V30 36189 H 3422.74 -1.72567 -4.07029 0
M  V30 36190 N 3421.8 0.831459 -1.33883 0
M  V30 36191 C 3423.05 1.58952 -1.25944 0
M  V30 36192 C 3423.38 1.93432 0.172508 0
M  V30 36193 O 3422.66 1.59316 1.11574 0
M  V30 36194 C 3422.94 2.89467 -2.14198 0
M  V30 36195 C 3422.79 2.61622 -3.65888 0
M  V30 36196 C 3424.11 3.90964 -2.02078 0
M  V30 36197 H 3421.23 0.576736 -0.458851 0
M  V30 36198 H 3423.87 0.958453 -1.64054 0
M  V30 36199 H 3422.02 3.43324 -1.81827 0
M  V30 36200 H 3423.69 2.14141 -4.08585 0
M  V30 36201 H 3421.94 1.95202 -3.874 0
M  V30 36202 H 3422.61 3.54655 -4.22994 0
M  V30 36203 H 3425.08 3.46435 -2.30482 0
M  V30 36204 H 3423.96 4.80103 -2.66067 0
M  V30 36205 H 3424.22 4.30753 -0.995197 0
M  V30 36206 N 3423.28 1.17472 1.05062 0
M  V30 36207 C 3424.21 0.915974 2.14784 0
M  V30 36208 C 3425.19 -0.142532 1.69502 0
M  V30 36209 O 3426.38 0.00797935 1.94198 0
M  V30 36210 C 3423.51 0.429924 3.44629 0
M  V30 36211 C 3422.46 1.42776 4.03483 0
M  V30 36212 C 3421.79 0.799621 5.28687 0
M  V30 36213 C 3423.09 2.80137 4.40818 0
M  V30 36214 H 3424.78 1.83356 2.36687 0
M  V30 36215 H 3422.33 0.883012 1.13749 0
M  V30 36216 H 3424.28 0.236319 4.20737 0
M  V30 36217 H 3423 -0.523206 3.22382 0
M  V30 36218 H 3421.66 1.60813 3.29446 0
M  V30 36219 H 3421.31 -0.160385 5.02744 0
M  V30 36220 H 3421.01 1.46575 5.69025 0
M  V30 36221 H 3422.53 0.616319 6.07482 0
M  V30 36222 H 3423.95 2.6581 5.07955 0
M  V30 36223 H 3422.34 3.43339 4.92177 0
M  V30 36224 H 3423.41 3.34448 3.51102 0
M  V30 36225 N 3424.76 -1.23807 0.975168 0
M  V30 36226 C 3425.69 -2.23598 0.455969 0
M  V30 36227 C 3426.67 -1.55537 -0.474042 0
M  V30 36228 O 3427.85 -1.84126 -0.403697 0
M  V30 36229 C 3424.98 -3.3698 -0.340949 0
M  V30 36230 C 3424.03 -4.23164 0.532437 0
M  V30 36231 S 3424.86 -4.97664 1.97715 0
M  V30 36232 C 3426.01 -6.14498 1.18923 0
M  V30 36233 H 3426.25 -2.67292 1.30162 0
M  V30 36234 H 3423.78 -1.33205 0.780764 0
M  V30 36235 H 3425.74 -4.02733 -0.794746 0
M  V30 36236 H 3424.4 -2.91829 -1.16166 0
M  V30 36237 H 3423.59 -5.03937 -0.0798042 0
M  V30 36238 H 3423.19 -3.6245 0.922265 0
M  V30 36239 H 3425.49 -6.76018 0.447942 0
M  V30 36240 H 3426.43 -6.80098 1.9716 0
M  V30 36241 H 3426.84 -5.60013 0.710314 0
M  V30 36242 N 3426.24 -0.746182 -1.38816 0
M  V30 36243 C 3427.48 -0.29846 -1.99884 0
M  V30 36244 C 3427.8 1.12153 -1.5952 0
M  V30 36245 O 3427.07 1.76566 -0.848599 0
M  V30 36246 H 3425.65 -0.10736 -0.739245 0
M  V30 36247 H 3428.32 -0.95863 -1.69695 0
M  V30 36248 H 3427.41 -0.355711 -3.10066 0
M  V30 36249 N 3427.71 1.49635 -0.494676 0
M  V30 36250 C 3428.64 2.31856 0.276566 0
M  V30 36251 C 3429.62 1.39838 0.968474 0
M  V30 36252 O 3430.81 1.6875 0.9611 0
M  V30 36253 C 3427.94 3.20192 1.34516 0
M  V30 36254 C 3426.89 4.20953 0.773497 0
M  V30 36255 C 3426.22 4.98182 1.94214 0
M  V30 36256 C 3427.52 5.21788 -0.231188 0
M  V30 36257 H 3429.21 2.96583 -0.40972 0
M  V30 36258 H 3426.76 1.42625 -0.198486 0
M  V30 36259 H 3428.71 3.7652 1.89237 0
M  V30 36260 H 3427.44 2.53395 2.06054 0
M  V30 36261 H 3426.1 3.6576 0.24808 0
M  V30 36262 H 3425.74 4.27838 2.64506 0
M  V30 36263 H 3425.44 5.66355 1.56574 0
M  V30 36264 H 3426.97 5.57352 2.49381 0
M  V30 36265 H 3428.38 5.72848 0.227667 0
M  V30 36266 H 3426.78 5.97816 -0.52309 0
M  V30 36267 H 3427.85 4.71085 -1.14922 0
M  V30 36268 N 3429.19 0.228241 1.55939 0
M  V30 36269 C 3430.47 -0.451 1.9033 0
M  V30 36270 C 3430.85 -1.77253 1.14649 0
M  V30 36271 O 3430.2 -2.27039 0.257952 0
M  V30 36272 C 3430.41 -0.637396 3.4313 0
M  V30 36273 C 3431.75 -0.941787 4.14024 0
M  V30 36274 O 3432.78 -0.723941 3.48766 0
M  V30 36275 O 3431.64 -1.35559 5.2942 0
M  V30 36276 H 3428.73 -0.239386 0.791595 0
M  V30 36277 H 3431.28 0.270923 1.67523 0
M  V30 36278 H 3430.05 0.294504 3.9019 0
M  V30 36279 H 3429.67 -1.41056 3.71738 0
M  V30 36280 N 3430.67 -1.57536 -0.0450825 0
M  V30 36281 C 3431.62 -2.055 -1.05063 0
M  V30 36282 C 3432.59 -0.940867 -1.36883 0
M  V30 36283 O 3433.77 -1.21037 -1.47495 0
M  V30 36284 C 3430.91 -2.52598 -2.35135 0
M  V30 36285 C 3430.03 -3.77738 -2.09613 0
M  V30 36286 C 3429.16 -4.13511 -3.3344 0
M  V30 36287 C 3428.2 -5.31615 -3.03401 0
M  V30 36288 N 3427.34 -5.62896 -4.19634 0
M  V30 36289 H 3432.18 -2.91164 -0.634638 0
M  V30 36290 H 3429.71 -1.43971 -0.301765 0
M  V30 36291 H 3431.67 -2.77965 -3.11113 0
M  V30 36292 H 3430.3 -1.69874 -2.74486 0
M  V30 36293 H 3429.35 -3.59552 -1.24205 0
M  V30 36294 H 3430.67 -4.63843 -1.83444 0
M  V30 36295 H 3429.82 -4.39921 -4.17797 0
M  V30 36296 H 3428.56 -3.26026 -3.62709 0
M  V30 36297 H 3427.56 -5.04973 -2.17445 0
M  V30 36298 H 3428.79 -6.20739 -2.75427 0
M  V30 36299 H 3426.73 -4.78371 -4.48885 0
M  V30 36300 H 3426.65 -6.43475 -3.96832 0
M  V30 36301 H 3427.92 -5.93873 -5.04911 0
M  V30 36302 N 3432.15 0.317045 -1.54378 0
M  V30 36303 C 3433.4 1.05213 -1.72553 0
M  V30 36304 C 3433.72 1.88333 -0.505533 0
M  V30 36305 O 3432.99 1.89918 0.480405 0
M  V30 36306 H 3431.57 0.391436 -0.636229 0
M  V30 36307 H 3434.23 0.351906 -1.91697 0
M  V30 36308 H 3433.33 1.71444 -2.60794 0
M  V30 36309 N 3433.63 1.46561 0.57944 0
M  V30 36310 C 3434.87 1.53253 1.33736 0
M  V30 36311 C 3435.23 0.183079 1.91527 0
M  V30 36312 O 3434.52 -0.808639 1.737 0
M  V30 36313 C 3434.71 2.56955 2.48413 0
M  V30 36314 C 3434.54 4.01851 2.01855 0
M  V30 36315 C 3433.31 4.69535 1.86721 0
M  V30 36316 C 3435.51 4.8955 1.57625 0
M  V30 36317 N 3433.49 5.99037 1.34269 0
M  V30 36318 C 3434.86 6.08901 1.16786 0
M  V30 36319 C 3436.92 4.76175 1.45472 0
M  V30 36320 C 3435.62 7.16357 0.650056 0
M  V30 36321 C 3437.65 5.83705 0.950946 0
M  V30 36322 C 3437.01 7.02231 0.552364 0
M  V30 36323 H 3433.11 0.615612 0.482231 0
M  V30 36324 H 3435.69 1.83195 0.659379 0
M  V30 36325 H 3433.86 2.28918 3.13769 0
M  V30 36326 H 3435.6 2.53622 3.1537 0
M  V30 36327 H 3432.35 4.25104 2.08766 0
M  V30 36328 H 3432.78 6.67972 1.10195 0
M  V30 36329 H 3437.42 3.84926 1.74906 0
M  V30 36330 H 3435.14 8.0737 0.343314 0
M  V30 36331 H 3438.72 5.75397 0.860783 0
M  V30 36332 H 3437.6 7.84019 0.168565 0
M  V30 36333 N 3435.1 -0.824347 1.34322 0
M  V30 36334 C 3436.52 -1.39701 1.23857 0
M  V30 36335 C 3436.87 -1.95724 -0.136532 0
M  V30 36336 O 3435.99 -1.89946 -1.0368 0
M  V30 36337 C 3436.59 -2.53961 2.24253 0
M  V30 36338 C 3435.15 -3.07139 2.17584 0
M  V30 36339 C 3434.29 -1.80004 2.10936 0
M  V30 36340 H 3437.24 -0.628866 1.45709 0
M  V30 36341 H 3437.26 -3.32013 1.8587 0
M  V30 36342 H 3436.78 -2.13156 3.24324 0
M  V30 36343 H 3434.88 -3.52452 1.20864 0
M  V30 36344 H 3434.99 -3.66326 3.08775 0
M  V30 36345 H 3433.35 -2.00843 1.56634 0
M  V30 36346 H 3434.14 -1.41375 3.12839 0
M  V30 36347 N 3436.58 -1.18028 -1.04437 0
M  V30 36348 C 3437.83 -0.967731 -1.76969 0
M  V30 36349 C 3438.14 0.503961 -1.88996 0
M  V30 36350 O 3439.35 0.834923 -2.58343 0
M  V30 36351 C 3437.81 -1.68238 -3.18157 0
M  V30 36352 C 3437.41 -3.19312 -3.14235 0
M  V30 36353 C 3439.16 -1.5525 -3.95092 0
M  V30 36354 C 3437.07 -3.83433 -4.50259 0
M  V30 36355 H 3436 -0.358447 -0.663349 0
M  V30 36356 H 3438.65 -1.41362 -1.17 0
M  V30 36357 H 3437.03 -1.16425 -3.78499 0
M  V30 36358 H 3438.2 -3.7812 -2.63367 0
M  V30 36359 H 3436.52 -3.32398 -2.50799 0
M  V30 36360 H 3439.11 -2.0052 -4.95677 0
M  V30 36361 H 3439.46 -0.504198 -4.13235 0
M  V30 36362 H 3439.99 -2.04323 -3.41317 0
M  V30 36363 H 3436.73 -4.88294 -4.37321 0
M  V30 36364 H 3436.25 -3.29413 -5.01246 0
M  V30 36365 H 3437.93 -3.8608 -5.19183 0
M  V30 36366 N 3438.06 1.23288 -0.98172 0
M  V30 36367 C 3439.29 1.96312 -0.669059 0
M  V30 36368 C 3439.71 1.72169 0.757594 0
M  V30 36369 O 3439.07 0.993969 1.51624 0
M  V30 36370 C 3439.12 3.47394 -0.966936 0
M  V30 36371 O 3438.22 4.12357 -0.0596658 0
M  V30 36372 H 3437.56 0.614526 -0.251504 0
M  V30 36373 H 3440.09 1.56688 -1.31567 0
M  V30 36374 H 3440.1 3.97855 -0.904182 0
M  V30 36375 H 3438.78 3.64293 -2.00658 0
M  V30 36376 H 3437.35 3.7248 -0.176943 0
M  V30 36377 N 3439.54 0.753533 1.38418 0
M  V30 36378 C 3440.49 0.125781 2.30457 0
M  V30 36379 C 3441.46 -0.709702 1.50175 0
M  V30 36380 O 3442.64 -0.665841 1.78805 0
M  V30 36381 C 3439.78 -0.761444 3.36595 0
M  V30 36382 C 3438.89 0.0886608 4.31909 0
M  V30 36383 C 3438.03 -0.801563 5.25118 0
M  V30 36384 C 3437.07 0.0521795 6.12078 0
M  V30 36385 N 3436.2 -0.795001 6.97585 0
M  V30 36386 H 3441.04 0.916237 2.83565 0
M  V30 36387 H 3438.58 0.46346 1.39608 0
M  V30 36388 H 3440.54 -1.29047 3.9674 0
M  V30 36389 H 3439.17 -1.51769 2.84897 0
M  V30 36390 H 3438.22 0.735314 3.73226 0
M  V30 36391 H 3439.53 0.747985 4.9316 0
M  V30 36392 H 3438.69 -1.39776 5.90379 0
M  V30 36393 H 3437.43 -1.49462 4.64233 0
M  V30 36394 H 3436.43 0.661042 5.45812 0
M  V30 36395 H 3437.66 0.742297 6.75031 0
M  V30 36396 H 3435.6 -1.47301 6.39248 0
M  V30 36397 H 3435.52 -0.192572 7.55755 0
M  V30 36398 H 3436.79 -1.37617 7.67256 0
M  V30 36399 N 3441.02 -1.49371 0.502605 0
M  V30 36400 C 3441.95 -2.25922 -0.321643 0
M  V30 36401 C 3442.93 -1.30574 -0.968977 0
M  V30 36402 O 3444.11 -1.59866 -0.99876 0
M  V30 36403 C 3441.24 -3.05944 -1.45313 0
M  V30 36404 C 3440.28 -4.16459 -0.920003 0
M  V30 36405 S 3441.12 -5.35161 0.190497 0
M  V30 36406 C 3442.27 -6.18738 -0.944114 0
M  V30 36407 H 3442.51 -2.95484 0.328088 0
M  V30 36408 H 3440.04 -1.51692 0.28793 0
M  V30 36409 H 3442 -3.52633 -2.10143 0
M  V30 36410 H 3440.66 -2.35848 -2.07448 0
M  V30 36411 H 3439.85 -4.71972 -1.768 0
M  V30 36412 H 3439.45 -3.72369 -0.348879 0
M  V30 36413 H 3441.75 -6.51781 -1.84898 0
M  V30 36414 H 3442.69 -7.06808 -0.427566 0
M  V30 36415 H 3443.1 -5.51332 -1.21217 0
M  V30 36416 N 3442.49 -0.236508 -1.55815 0
M  V30 36417 C 3443.77 0.4409 -1.90566 0
M  V30 36418 C 3444.15 1.76643 -1.15588 0
M  V30 36419 O 3443.5 2.26899 -0.269989 0
M  V30 36420 C 3443.71 0.61919 -3.43463 0
M  V30 36421 C 3445.06 0.919817 -4.14517 0
M  V30 36422 O 3446.08 0.705435 -3.49145 0
M  V30 36423 O 3444.94 1.32749 -5.30132 0
M  V30 36424 H 3442.03 0.235185 -0.792854 0
M  V30 36425 H 3444.58 -0.279803 -1.67377 0
M  V30 36426 H 3443.35 -0.315192 -3.90028 0
M  V30 36427 H 3442.98 1.39082 -3.72481 0
M  V30 36428 N 3443.97 1.57557 0.0367273 0
M  V30 36429 C 3444.9 2.09093 1.03935 0
M  V30 36430 C 3445.88 0.991785 1.38194 0
M  V30 36431 O 3447.07 1.26658 1.47212 0
M  V30 36432 C 3444.2 2.56398 2.34259 0
M  V30 36433 C 3443.15 3.70507 2.14262 0
M  V30 36434 C 3442.48 4.03991 3.50278 0
M  V30 36435 C 3443.78 4.99233 1.53505 0
M  V30 36436 H 3445.47 2.93112 0.610378 0
M  V30 36437 H 3443.02 1.41005 0.292159 0
M  V30 36438 H 3444.97 2.91071 3.04722 0
M  V30 36439 H 3443.7 1.69452 2.79202 0
M  V30 36440 H 3442.35 3.36172 1.46233 0
M  V30 36441 H 3442 3.14123 3.92856 0
M  V30 36442 H 3441.7 4.80848 3.37727 0
M  V30 36443 H 3443.23 4.41192 4.22116 0
M  V30 36444 H 3444.64 5.31912 2.13876 0
M  V30 36445 H 3443.04 5.80648 1.5155 0
M  V30 36446 H 3444.11 4.82315 0.500041 0
M  V30 36447 N 3445.45 -0.308854 1.54544 0
M  V30 36448 C 3446.7 -1.04297 1.73109 0
M  V30 36449 C 3447.02 -1.88062 0.515514 0
M  V30 36450 O 3446.29 -1.9017 -0.470327 0
M  V30 36451 H 3444.87 -0.388056 0.638296 0
M  V30 36452 H 3447.53 -0.341735 1.91881 0
M  V30 36453 H 3446.63 -1.70058 2.617 0
M  V30 36454 N 3446.93 -1.46867 -0.571659 0
M  V30 36455 C 3448.18 -1.52974 -1.33142 0
M  V30 36456 C 3448.51 -0.185378 -1.93313 0
M  V30 36457 O 3447.78 0.804439 -1.77085 0
M  V30 36458 C 3448.07 -2.63679 -2.45246 0
M  V30 36459 C 3447.92 -4.07684 -1.90037 0
M  V30 36460 C 3449.24 -2.7039 -3.47243 0
M  V30 36461 H 3446.36 -0.556893 -0.482741 0
M  V30 36462 H 3449 -1.78856 -0.641132 0
M  V30 36463 H 3447.15 -2.41741 -3.04128 0
M  V30 36464 H 3448.82 -4.40942 -1.35527 0
M  V30 36465 H 3447.06 -4.16642 -1.20797 0
M  V30 36466 H 3447.74 -4.80892 -2.71011 0
M  V30 36467 H 3450.21 -2.9014 -2.98258 0
M  V30 36468 H 3449.09 -3.4965 -4.23126 0
M  V30 36469 H 3449.35 -1.76875 -4.05176 0
M  V30 36470 N 3448.41 0.817212 -1.34757 0
M  V30 36471 C 3449.82 1.39042 -1.24596 0
M  V30 36472 C 3450.17 1.95794 0.12615 0
M  V30 36473 O 3449.29 1.90493 1.02671 0
M  V30 36474 C 3449.89 2.52768 -2.25597 0
M  V30 36475 C 3448.45 3.05981 -2.1921 0
M  V30 36476 C 3447.6 1.78883 -2.11887 0
M  V30 36477 H 3450.55 0.62113 -1.4604 0
M  V30 36478 H 3450.57 3.31023 -1.87628 0
M  V30 36479 H 3450.08 2.11433 -3.2545 0
M  V30 36480 H 3448.18 3.51806 -1.22731 0
M  V30 36481 H 3448.29 3.64683 -3.10713 0
M  V30 36482 H 3446.66 2.00009 -1.57697 0
M  V30 36483 H 3447.44 1.39714 -3.13584 0
M  V30 36484 N 3449.89 1.1858 1.0381 0
M  V30 36485 C 3450.82 0.938703 2.138 0
M  V30 36486 C 3451.8 -0.124546 1.69643 0
M  V30 36487 O 3452.98 0.0285762 1.94179 0
M  V30 36488 C 3450.11 0.466453 3.44153 0
M  V30 36489 C 3449.07 1.47048 4.01946 0
M  V30 36490 C 3448.39 0.855651 5.27809 0
M  V30 36491 C 3449.69 2.84796 4.37822 0
M  V30 36492 H 3451.39 1.85856 2.34729 0
M  V30 36493 H 3448.93 0.895027 1.12806 0
M  V30 36494 H 3450.88 0.28093 4.20463 0
M  V30 36495 H 3449.61 -0.488984 3.22919 0
M  V30 36496 H 3448.27 1.64299 3.27722 0
M  V30 36497 H 3447.92 -0.107054 5.02886 0
M  V30 36498 H 3447.62 1.52602 5.67438 0
M  V30 36499 H 3449.14 0.680716 6.06794 0
M  V30 36500 H 3450.55 2.71182 5.05107 0
M  V30 36501 H 3448.95 3.4854 4.88508 0
M  V30 36502 H 3450.02 3.38153 3.47535 0
M  V30 36503 N 3451.36 -1.22766 0.988245 0
M  V30 36504 C 3452.29 -2.2682 0.554518 0
M  V30 36505 C 3453.27 -1.64928 -0.416264 0
M  V30 36506 O 3454.46 -1.91743 -0.307916 0
M  V30 36507 C 3451.59 -3.47033 -0.136205 0
M  V30 36508 C 3450.54 -4.2133 0.752649 0
M  V30 36509 C 3449.87 -5.34653 -0.0707296 0
M  V30 36510 C 3451.17 -4.80505 2.04726 0
M  V30 36511 H 3452.86 -2.63353 1.42428 0
M  V30 36512 H 3450.41 -1.26594 0.68629 0
M  V30 36513 H 3452.36 -4.1898 -0.450995 0
M  V30 36514 H 3451.09 -3.09583 -1.04047 0
M  V30 36515 H 3449.75 -3.51211 1.05101 0
M  V30 36516 H 3449.39 -4.93445 -0.975772 0
M  V30 36517 H 3449.09 -5.85286 0.520938 0
M  V30 36518 H 3450.62 -6.09418 -0.379721 0
M  V30 36519 H 3452.03 -5.44418 1.79672 0
M  V30 36520 H 3450.43 -5.41457 2.58736 0
M  V30 36521 H 3451.5 -4.00814 2.72903 0
M  V30 36522 N 3452.84 -0.760864 -1.38017 0
M  V30 36523 C 3453.8 -0.146195 -2.28733 0
M  V30 36524 C 3454.8 0.639742 -1.47526 0
M  V30 36525 O 3455.99 0.464935 -1.67881 0
M  V30 36526 C 3453.13 0.800961 -3.31357 0
M  V30 36527 H 3454.32 -0.945742 -2.84597 0
M  V30 36528 H 3451.87 -0.528348 -1.47099 0
M  V30 36529 H 3452.61 1.62592 -2.80597 0
M  V30 36530 H 3452.39 0.239706 -3.91367 0
M  V30 36531 H 3453.88 1.2268 -3.99173 0
M  V30 36532 N 3454.32 1.49102 -0.510519 0
M  V30 36533 C 3455.25 2.32137 0.251958 0
M  V30 36534 C 3456.23 1.40857 0.953588 0
M  V30 36535 O 3457.42 1.6976 0.943148 0
M  V30 36536 C 3454.55 3.216 1.31112 0
M  V30 36537 C 3453.5 4.21749 0.728806 0
M  V30 36538 C 3452.83 5.00214 1.88919 0
M  V30 36539 C 3454.13 5.21514 -0.286517 0
M  V30 36540 H 3455.82 2.96132 -0.441154 0
M  V30 36541 H 3453.37 1.42407 -0.213602 0
M  V30 36542 H 3455.32 3.78506 1.85233 0
M  V30 36543 H 3454.04 2.55567 2.03355 0
M  V30 36544 H 3452.7 3.66002 0.209272 0
M  V30 36545 H 3452.35 4.3062 2.59953 0
M  V30 36546 H 3452.05 5.67984 1.50558 0
M  V30 36547 H 3453.57 5.59966 2.43456 0
M  V30 36548 H 3454.99 5.73057 0.166896 0
M  V30 36549 H 3453.38 5.97227 -0.586466 0
M  V30 36550 H 3454.45 4.6984 -1.19912 0
M  V30 36551 N 3455.8 0.244768 1.55688 0
M  V30 36552 C 3457.05 -0.379817 1.98499 0
M  V30 36553 C 3457.37 -1.58623 1.13419 0
M  V30 36554 O 3456.64 -1.947 0.216491 0
M  V30 36555 H 3455.22 -0.143321 0.733122 0
M  V30 36556 H 3457.88 0.343061 1.91857 0
M  V30 36557 H 3456.97 -0.690409 3.04368 0
M  V30 36558 N 3457.28 -1.57574 -0.0283712 0
M  V30 36559 C 3458.52 -1.91153 -0.723879 0
M  V30 36560 C 3458.88 -0.843411 -1.72484 0
M  V30 36561 O 3460.08 -1.06355 -2.46864 0
M  V30 36562 C 3458.35 -3.29879 -1.37531 0
M  V30 36563 S 3459.91 -3.85293 -2.09988 0
M  V30 36564 H 3456.73 -0.669344 -0.239791 0
M  V30 36565 H 3459.33 -1.95488 0.0214987 0
M  V30 36566 H 3458.03 -4.0548 -0.633588 0
M  V30 36567 H 3457.57 -3.28848 -2.15923 0
M  V30 36568 H 3459.58 -3.64076 -3.3714 0
M  V30 36569 N 3458.75 0.300654 -1.54706 0
M  V30 36570 C 3459.98 1.05324 -1.77737 0
M  V30 36571 C 3460.39 1.81416 -0.537122 0
M  V30 36572 O 3459.73 1.7669 0.502632 0
M  V30 36573 C 3459.8 2.07988 -2.93226 0
M  V30 36574 C 3459.46 1.51087 -4.31302 0
M  V30 36575 C 3460.46 0.94073 -5.11318 0
M  V30 36576 C 3458.14 1.5464 -4.77904 0
M  V30 36577 C 3460.14 0.413679 -6.36056 0
M  V30 36578 C 3457.82 1.01548 -6.02604 0
M  V30 36579 C 3458.82 0.450089 -6.81515 0
M  V30 36580 O 3458.51 -0.0727788 -8.03867 0
M  V30 36581 H 3458.24 0.318111 -0.596474 0
M  V30 36582 H 3460.8 0.345368 -2.02476 0
M  V30 36583 H 3459.03 2.82456 -2.64113 0
M  V30 36584 H 3460.71 2.6915 -3.0383 0
M  V30 36585 H 3461.48 0.906184 -4.76459 0
M  V30 36586 H 3457.36 1.97586 -4.1651 0
M  V30 36587 H 3460.9 -0.028276 -6.97594 0
M  V30 36588 H 3456.8 1.04717 -6.36949 0
M  V30 36589 H 3457.57 0.0404882 -8.1849 0
M  V30 36590 N 3460.23 1.47168 0.563863 0
M  V30 36591 C 3461.46 1.57299 1.35173 0
M  V30 36592 C 3461.88 0.221268 1.86794 0
M  V30 36593 O 3461.24 -0.80178 1.62607 0
M  V30 36594 C 3461.29 2.59658 2.5022 0
M  V30 36595 O 3460.39 2.14467 3.52246 0
M  V30 36596 H 3459.73 0.528644 0.401786 0
M  V30 36597 H 3462.26 1.92895 0.682103 0
M  V30 36598 H 3462.27 2.79867 2.96881 0
M  V30 36599 H 3460.95 3.57809 2.12004 0
M  V30 36600 H 3459.53 2.04329 3.11936 0
M  V30 36601 N 3461.71 -0.810054 1.35188 0
M  V30 36602 C 3462.64 -1.92968 1.23676 0
M  V30 36603 C 3463.66 -1.62003 0.160848 0
M  V30 36604 O 3464.84 -1.73637 0.413823 0
M  V30 36605 C 3461.94 -3.2725 0.880944 0
M  V30 36606 C 3461.12 -3.86146 2.05451 0
M  V30 36607 C 3460.18 -4.98828 1.67503 0
M  V30 36608 O 3459.2 -5.16439 2.39331 0
M  V30 36609 N 3460.4 -5.77426 0.596641 0
M  V30 36610 H 3463.17 -2.03372 2.20136 0
M  V30 36611 H 3460.73 -0.987299 1.28312 0
M  V30 36612 H 3462.72 -4.00097 0.608627 0
M  V30 36613 H 3461.29 -3.12599 0.00613421 0
M  V30 36614 H 3460.51 -3.05535 2.49083 0
M  V30 36615 H 3461.8 -4.22226 2.83906 0
M  V30 36616 H 3461.2 -5.657 -0.000213155 0
M  V30 36617 H 3459.76 -6.50667 0.384094 0
M  V30 36618 N 3463.19 -1.19129 -1.0318 0
M  V30 36619 C 3464.43 -0.993594 -1.76792 0
M  V30 36620 C 3464.77 0.474776 -1.88307 0
M  V30 36621 O 3464.04 1.35256 -1.39771 0
M  V30 36622 C 3464.33 -1.65973 -3.1957 0
M  V30 36623 C 3464.18 -3.20155 -3.15944 0
M  V30 36624 C 3465.5 -1.38031 -4.17894 0
M  V30 36625 H 3462.62 -0.362369 -0.641762 0
M  V30 36626 H 3465.26 -1.46926 -1.20469 0
M  V30 36627 H 3463.41 -1.2553 -3.67661 0
M  V30 36628 H 3465.08 -3.69792 -2.75774 0
M  V30 36629 H 3463.32 -3.51852 -2.53737 0
M  V30 36630 H 3463.99 -3.61909 -4.16805 0
M  V30 36631 H 3466.47 -1.73089 -3.78391 0
M  V30 36632 H 3465.35 -1.87195 -5.15994 0
M  V30 36633 H 3465.61 -0.304889 -4.41047 0
M  V30 36634 N 3464.67 1.2224 -0.994741 0
M  V30 36635 C 3465.61 2.26257 -0.5395 0
M  V30 36636 C 3466.61 1.64344 0.410767 0
M  V30 36637 O 3467.81 1.7776 0.283085 0
M  V30 36638 H 3464.19 0.735624 -0.156081 0
M  V30 36639 H 3466.16 2.62003 -1.42818 0
M  V30 36640 C 3464.91 3.47463 0.128359 0
M  V30 36641 H 3464.23 3.95366 -0.593797 0
M  V30 36642 H 3465.67 4.2201 0.410319 0
M  V30 36643 C 3464.13 3.08041 1.36428 0
M  V30 36644 O 3464.66 3.17604 2.45948 0
M  V30 36645 N 3462.87 2.62806 1.24021 0
M  V30 36646 H 3462.41 2.55224 0.349066 0
M  V30 36647 H 3462.37 2.36797 2.0682 0
M  V30 36648 N 3466.14 0.768172 1.37611 0
M  V30 36649 C 3467.56 0.396735 1.82436 0
M  V30 36650 C 3467.91 -1.07665 1.64021 0
M  V30 36651 O 3467.03 -1.83354 1.14935 0
M  V30 36652 C 3467.63 0.713323 3.31206 0
M  V30 36653 C 3466.19 0.394986 3.74322 0
M  V30 36654 C 3465.33 0.959008 2.60189 0
M  V30 36655 H 3468.28 0.963121 1.26134 0
M  V30 36656 H 3468.3 -0.0033054 3.805 0
M  V30 36657 H 3467.82 1.78573 3.44577 0
M  V30 36658 H 3465.92 -0.670248 3.66522 0
M  V30 36659 H 3466.03 0.900736 4.70557 0
M  V30 36660 H 3464.39 0.383468 2.51797 0
M  V30 36661 H 3465.18 2.03674 2.76354 0
M  V30 36662 N 3467.62 -1.48829 0.518419 0
M  V30 36663 C 3468.55 -2.32267 -0.239644 0
M  V30 36664 C 3469.53 -1.41361 -0.946105 0
M  V30 36665 O 3470.72 -1.70258 -0.934132 0
M  V30 36666 C 3467.85 -3.22291 -1.29405 0
M  V30 36667 C 3466.8 -4.2213 -0.706429 0
M  V30 36668 C 3466.13 -5.01208 -1.86264 0
M  V30 36669 C 3467.43 -5.21354 0.31417 0
M  V30 36670 H 3469.12 -2.95894 0.456852 0
M  V30 36671 H 3466.67 -1.42292 0.221151 0
M  V30 36672 H 3468.62 -3.79483 -1.83223 0
M  V30 36673 H 3467.35 -2.56641 -2.01997 0
M  V30 36674 H 3466 -3.66108 -0.189859 0
M  V30 36675 H 3465.65 -4.31992 -2.57666 0
M  V30 36676 H 3465.35 -5.68775 -1.47544 0
M  V30 36677 H 3466.88 -5.61249 -2.40483 0
M  V30 36678 H 3468.29 -5.73137 -0.136503 0
M  V30 36679 H 3466.69 -5.96908 0.618131 0
M  V30 36680 H 3467.76 -4.69197 1.22402 0
M  V30 36681 N 3469.1 -0.253021 -1.55556 0
M  V30 36682 C 3470.33 0.373986 -2.03492 0
M  V30 36683 C 3470.74 1.51092 -1.1321 0
M  V30 36684 O 3470.1 1.81901 -0.147737 0
M  V30 36685 C 3470.15 0.875986 -3.50726 0
M  V30 36686 O 3469.87 -0.215651 -4.37569 0
M  V30 36687 C 3471.37 1.57306 -4.14451 0
M  V30 36688 H 3468.59 0.0881527 -0.665184 0
M  V30 36689 H 3471.14 -0.378671 -2.00964 0
M  V30 36690 H 3469.29 1.5788 -3.53769 0
M  V30 36691 H 3469.71 0.166532 -5.24236 0
M  V30 36692 H 3471.18 1.87596 -5.19145 0
M  V30 36693 H 3471.66 2.49712 -3.61304 0
M  V30 36694 H 3472.26 0.914662 -4.15348 0
M  V30 36695 N 3470.58 1.57587 0.0200142 0
M  V30 36696 C 3471.51 2.10183 1.01712 0
M  V30 36697 C 3472.49 1.00639 1.37134 0
M  V30 36698 O 3473.67 1.28213 1.4586 0
M  V30 36699 C 3470.8 2.58869 2.31526 0
M  V30 36700 C 3469.76 3.72759 2.1032 0
M  V30 36701 C 3469.08 4.07684 3.45974 0
M  V30 36702 C 3470.38 5.00833 1.48201 0
M  V30 36703 H 3472.08 2.93743 0.579255 0
M  V30 36704 H 3469.62 1.41307 0.277187 0
M  V30 36705 H 3471.58 2.94287 3.01618 0
M  V30 36706 H 3470.3 1.72404 2.77389 0
M  V30 36707 H 3468.96 3.37704 1.42659 0
M  V30 36708 H 3468.61 3.18272 3.89502 0
M  V30 36709 H 3468.31 4.84403 3.32608 0
M  V30 36710 H 3469.83 4.45644 4.17413 0
M  V30 36711 H 3471.25 5.3415 2.08222 0
M  V30 36712 H 3469.64 5.82223 1.45383 0
M  V30 36713 H 3470.71 4.82818 0.448857 0
M  V30 36714 N 3472.06 -0.292445 1.54863 0
M  V30 36715 C 3473.31 -1.02426 1.73758 0
M  V30 36716 C 3473.62 -1.88136 0.535197 0
M  V30 36717 O 3474.82 -2.64647 0.606139 0
M  V30 36718 C 3473.28 -1.87084 3.07453 0
M  V30 36719 C 3472.89 -1.06336 4.35197 0
M  V30 36720 C 3474.63 -2.59813 3.35704 0
M  V30 36721 C 3472.54 -1.9032 5.5994 0
M  V30 36722 H 3471.47 -0.386133 0.647624 0
M  V30 36723 H 3474.12 -0.280828 1.81338 0
M  V30 36724 H 3472.5 -2.65448 2.9386 0
M  V30 36725 H 3473.68 -0.325254 4.59651 0
M  V30 36726 H 3471.99 -0.451502 4.13945 0
M  V30 36727 H 3474.59 -3.23015 4.26105 0
M  V30 36728 H 3474.93 -3.2909 2.54962 0
M  V30 36729 H 3475.46 -1.88493 3.50308 0
M  V30 36730 H 3472.2 -1.25498 6.43374 0
M  V30 36731 H 3471.72 -2.6178 5.39659 0
M  V30 36732 H 3473.4 -2.48161 5.97516 0
M  V30 36733 N 3473.53 -1.47465 -0.55605 0
M  V30 36734 C 3474.5 -1.59589 -1.64512 0
M  V30 36735 C 3475.5 -0.470908 -1.5375 0
M  V30 36736 O 3476.69 -0.736007 -1.57888 0
M  V30 36737 C 3473.82 -1.54149 -3.04058 0
M  V30 36738 H 3475.01 -2.56672 -1.55111 0
M  V30 36739 H 3472.57 -1.35672 -0.776063 0
M  V30 36740 H 3473.3 -0.584451 -3.1899 0
M  V30 36741 H 3473.09 -2.35795 -3.13278 0
M  V30 36742 H 3474.58 -1.65773 -3.83287 0
M  V30 36743 N 3475.01 0.802873 -1.35616 0
M  V30 36744 C 3475.98 1.89649 -1.28709 0
M  V30 36745 C 3476.98 1.5958 -0.197709 0
M  V30 36746 O 3478.17 1.68243 -0.451647 0
M  V30 36747 C 3475.3 3.26148 -0.991998 0
M  V30 36748 H 3476.49 1.97192 -2.25954 0
M  V30 36749 H 3474.04 0.999158 -1.20194 0
M  V30 36750 H 3474.78 3.24291 -0.0235621 0
M  V30 36751 H 3474.56 3.49359 -1.78019 0
M  V30 36752 H 3476.05 4.06193 -0.969369 0
M  V30 36753 N 3476.49 1.19674 1.02547 0
M  V30 36754 C 3477.74 1.00296 1.76263 0
M  V30 36755 C 3478.07 -0.464783 1.88556 0
M  V30 36756 O 3477.35 -1.34513 1.40487 0
M  V30 36757 C 3477.63 1.67666 3.18685 0
M  V30 36758 C 3477.48 3.21826 3.14242 0
M  V30 36759 C 3478.8 1.40245 4.17156 0
M  V30 36760 H 3475.92 0.365767 0.639831 0
M  V30 36761 H 3478.56 1.47563 1.19688 0
M  V30 36762 H 3476.71 1.27478 3.6699 0
M  V30 36763 H 3478.38 3.7125 2.73809 0
M  V30 36764 H 3476.63 3.53193 2.51867 0
M  V30 36765 H 3477.3 3.64114 4.1488 0
M  V30 36766 H 3479.77 1.75093 3.77467 0
M  V30 36767 H 3478.65 1.89928 5.14994 0
M  V30 36768 H 3478.91 0.328275 4.4088 0
M  V30 36769 N 3477.97 -1.21711 1.00121 0
M  V30 36770 C 3478.9 -2.26219 0.578544 0
M  V30 36771 C 3479.88 -1.6536 -0.398748 0
M  V30 36772 O 3481.07 -1.92059 -0.287562 0
M  V30 36773 C 3478.2 -3.47158 -0.0993898 0
M  V30 36774 C 3477.15 -4.20508 0.797294 0
M  V30 36775 C 3476.48 -5.34698 -0.0140185 0
M  V30 36776 C 3477.78 -4.78306 2.09811 0
M  V30 36777 H 3479.47 -2.61827 1.45213 0
M  V30 36778 H 3477.02 -1.25859 0.699678 0
M  V30 36779 H 3478.97 -4.19434 -0.406531 0
M  V30 36780 H 3477.69 -3.10669 -1.00758 0
M  V30 36781 H 3476.35 -3.50077 1.0882 0
M  V30 36782 H 3476 -4.94452 -0.923381 0
M  V30 36783 H 3475.7 -5.84701 0.582986 0
M  V30 36784 H 3477.22 -6.09787 -0.315062 0
M  V30 36785 H 3478.64 -5.42481 1.85437 0
M  V30 36786 H 3477.03 -5.38682 2.64464 0
M  V30 36787 H 3478.1 -3.97897 2.77139 0
M  V30 36788 N 3479.45 -0.775459 -1.37202 0
M  V30 36789 C 3480.38 -0.178301 -2.32818 0
M  V30 36790 C 3481.36 0.678916 -1.55964 0
M  V30 36791 O 3482.54 0.615615 -1.84184 0
M  V30 36792 C 3479.67 0.698708 -3.40199 0
M  V30 36793 C 3478.63 -0.0574982 -4.27961 0
M  V30 36794 C 3477.95 0.939198 -5.26387 0
M  V30 36795 C 3479.25 -1.23865 -5.074 0
M  V30 36796 H 3480.95 -0.977078 -2.83008 0
M  V30 36797 H 3478.49 -0.471298 -1.36069 0
M  V30 36798 H 3480.45 1.1263 -4.06069 0
M  V30 36799 H 3479.17 1.53004 -2.88543 0
M  V30 36800 H 3477.83 -0.465912 -3.63627 0
M  V30 36801 H 3477.48 1.76518 -4.7101 0
M  V30 36802 H 3477.18 0.437741 -5.85967 0
M  V30 36803 H 3478.7 1.36565 -5.95132 0
M  V30 36804 H 3480.12 -0.887523 -5.66388 0
M  V30 36805 H 3478.51 -1.67245 -5.76324 0
M  V30 36806 H 3479.58 -2.04093 -4.39857 0
M  V30 36807 N 3480.93 1.48552 -0.526305 0
M  V30 36808 C 3481.86 2.32391 0.227323 0
M  V30 36809 C 3482.84 1.41861 0.938595 0
M  V30 36810 O 3484.02 1.70751 0.925089 0
M  V30 36811 C 3481.15 3.22973 1.27694 0
M  V30 36812 C 3480.11 4.22499 0.684033 0
M  V30 36813 C 3479.43 5.02189 1.83603 0
M  V30 36814 C 3480.73 5.2118 -0.341814 0
M  V30 36815 H 3482.43 2.95647 -0.472538 0
M  V30 36816 H 3479.97 1.42172 -0.228694 0
M  V30 36817 H 3481.92 3.80449 1.81208 0
M  V30 36818 H 3480.65 2.57709 2.00633 0
M  V30 36819 H 3479.31 3.66204 0.170441 0
M  V30 36820 H 3478.96 4.33353 2.55371 0
M  V30 36821 H 3478.66 5.69549 1.44526 0
M  V30 36822 H 3480.18 5.62516 2.37503 0
M  V30 36823 H 3481.59 5.73202 0.106107 0
M  V30 36824 H 3479.99 5.96572 -0.649777 0
M  V30 36825 H 3481.06 4.68541 -1.24888 0
M  V30 36826 N 3482.4 0.261267 1.55419 0
M  V30 36827 C 3483.65 -0.359984 1.99579 0
M  V30 36828 C 3483.98 -1.56536 1.14936 0
M  V30 36829 O 3483.26 -1.93296 0.216116 0
M  V30 36830 C 3483.54 -0.75578 3.5208 0
M  V30 36831 C 3483.39 0.455975 4.47483 0
M  V30 36832 C 3484.71 -1.59743 4.10086 0
M  V30 36833 H 3481.83 -0.129372 0.725556 0
M  V30 36834 H 3484.47 0.365448 1.86452 0
M  V30 36835 H 3482.62 -1.37387 3.63397 0
M  V30 36836 H 3484.3 1.09449 4.48128 0
M  V30 36837 H 3482.54 1.09654 4.19712 0
M  V30 36838 H 3483.21 0.135487 5.51834 0
M  V30 36839 H 3485.69 -1.07555 4.01959 0
M  V30 36840 H 3484.56 -1.8432 5.17027 0
M  V30 36841 H 3484.82 -2.57398 3.59442 0
M  V30 36842 N 3483.88 -1.57596 -0.0116567 0
M  V30 36843 C 3485.11 -1.94328 -0.710226 0
M  V30 36844 C 3485.52 -0.862447 -1.6795 0
M  V30 36845 O 3484.88 0.159666 -1.818 0
M  V30 36846 C 3484.93 -3.31048 -1.45222 0
M  V30 36847 O 3484.65 -4.34981 -0.521834 0
M  V30 36848 C 3486.15 -3.82169 -2.24637 0
M  V30 36849 H 3483.37 -0.640952 -0.198548 0
M  V30 36850 H 3485.92 -2.04468 0.0359974 0
M  V30 36851 H 3484.07 -3.22252 -2.15018 0
M  V30 36852 H 3484.49 -5.14004 -1.04406 0
M  V30 36853 H 3485.96 -4.80294 -2.7207 0
M  V30 36854 H 3486.44 -3.14266 -3.06812 0
M  V30 36855 H 3487.04 -3.94104 -1.59882 0
M  V30 36856 N 3485.36 0.284228 -1.55016 0
M  V30 36857 C 3486.31 1.35307 -1.8351 0
M  V30 36858 C 3487.29 1.45198 -0.693269 0
M  V30 36859 O 3488.49 1.49068 -0.954338 0
M  V30 36860 C 3485.61 2.71529 -2.10064 0
M  V30 36861 C 3484.7 2.65793 -3.30477 0
M  V30 36862 N 3485.09 2.29674 -4.50648 0
M  V30 36863 C 3483.39 2.96872 -3.32841 0
M  V30 36864 C 3484.09 2.33652 -5.32712 0
M  V30 36865 N 3483.07 2.71678 -4.70842 0
M  V30 36866 H 3486.87 1.06372 -2.73975 0
M  V30 36867 H 3484.38 0.492847 -1.54741 0
M  V30 36868 H 3486.38 3.48617 -2.2863 0
M  V30 36869 H 3485.04 3.01362 -1.20877 0
M  V30 36870 H 3486.05 2.01842 -4.76949 0
M  V30 36871 H 3482.73 3.3149 -2.53813 0
M  V30 36872 H 3484.12 2.08383 -6.38769 0
M  V30 36873 N 3486.84 1.47758 0.548222 0
M  V30 36874 C 3488.07 1.58245 1.32824 0
M  V30 36875 C 3488.48 0.234969 1.87735 0
M  V30 36876 O 3487.82 -0.783261 1.66165 0
M  V30 36877 C 3487.88 2.55502 2.52901 0
M  V30 36878 C 3487.54 4.00993 2.19211 0
M  V30 36879 C 3488.54 4.89215 1.75967 0
M  V30 36880 C 3486.23 4.46396 2.30294 0
M  V30 36881 C 3488.22 6.20863 1.44248 0
M  V30 36882 C 3485.91 5.7807 1.98187 0
M  V30 36883 C 3486.91 6.65125 1.55232 0
M  V30 36884 O 3486.59 7.94351 1.23537 0
M  V30 36885 H 3486.33 0.536806 0.410871 0
M  V30 36886 H 3488.88 1.94165 0.67002 0
M  V30 36887 H 3487.11 2.14667 3.21644 0
M  V30 36888 H 3488.8 2.56019 3.14975 0
M  V30 36889 H 3489.56 4.55382 1.6689 0
M  V30 36890 H 3485.44 3.78837 2.62686 0
M  V30 36891 H 3488.99 6.88769 1.10647 0
M  V30 36892 H 3484.88 6.11443 2.06899 0
M  V30 36893 H 3485.65 8.06938 1.37091 0
M  V30 36894 N 3488.32 -0.79567 1.3604 0
M  V30 36895 C 3489.28 -1.88964 1.29713 0
M  V30 36896 C 3490.28 -1.59473 0.20617 0
M  V30 36897 O 3491.47 -1.68001 0.460563 0
M  V30 36898 C 3488.6 -3.25617 1.00928 0
M  V30 36899 H 3489.79 -1.95991 2.26997 0
M  V30 36900 H 3487.35 -0.992769 1.20722 0
M  V30 36901 H 3488.08 -3.24274 0.0407597 0
M  V30 36902 H 3487.87 -3.4841 1.79869 0
M  V30 36903 H 3489.36 -4.05673 0.990897 0
M  V30 36904 N 3489.79 -1.20217 -1.0191 0
M  V30 36905 C 3491.04 -1.00505 -1.74876 0
M  V30 36906 C 3491.36 0.463758 -1.90023 0
M  V30 36907 O 3492.56 0.779936 -2.60056 0
M  V30 36908 C 3491.02 -1.74949 -3.14517 0
M  V30 36909 C 3490.63 -3.25906 -3.07391 0
M  V30 36910 C 3492.37 -1.63596 -3.9171 0
M  V30 36911 C 3490.28 -3.92897 -4.42025 0
M  V30 36912 H 3489.21 -0.372437 -0.655596 0
M  V30 36913 H 3491.86 -1.43812 -1.13976 0
M  V30 36914 H 3490.24 -1.24427 -3.75944 0
M  V30 36915 H 3491.41 -3.83621 -2.55287 0
M  V30 36916 H 3489.73 -3.37643 -2.43692 0
M  V30 36917 H 3492.33 -2.10989 -4.91312 0
M  V30 36918 H 3492.67 -0.591738 -4.12073 0
M  V30 36919 H 3493.2 -2.11517 -3.36906 0
M  V30 36920 H 3489.94 -4.9746 -4.26865 0
M  V30 36921 H 3489.46 -3.39971 -4.94146 0
M  V30 36922 H 3491.14 -3.97006 -5.10877 0
M  V30 36923 N 3491.27 1.21178 -1.00765 0
M  V30 36924 C 3492.52 1.89631 -0.68723 0
M  V30 36925 C 3492.83 1.79129 0.785629 0
M  V30 36926 O 3494.04 2.42634 1.21824 0
M  V30 36927 C 3492.5 3.40049 -1.17876 0
M  V30 36928 C 3492.1 3.59156 -2.67788 0
M  V30 36929 C 3493.85 4.14112 -0.933349 0
M  V30 36930 C 3491.76 5.03352 -3.10468 0
M  V30 36931 H 3490.69 0.71016 -0.253354 0
M  V30 36932 H 3493.34 1.37145 -1.21916 0
M  V30 36933 H 3491.72 3.91805 -0.57486 0
M  V30 36934 H 3492.89 3.17827 -3.3365 0
M  V30 36935 H 3491.21 2.9845 -2.90373 0
M  V30 36936 H 3493.8 5.20414 -1.22775 0
M  V30 36937 H 3494.15 4.16096 0.130358 0
M  V30 36938 H 3494.68 3.68429 -1.50017 0
M  V30 36939 H 3491.42 5.06518 -4.16077 0
M  V30 36940 H 3490.94 5.45527 -2.4932 0
M  V30 36941 H 3492.62 5.71877 -3.02599 0
M  V30 36942 N 3492.75 0.782725 1.36789 0
M  V30 36943 C 3494 0.351351 1.99022 0
M  V30 36944 C 3494.32 -1.07884 1.62438 0
M  V30 36945 O 3493.59 -1.74254 0.895114 0
M  V30 36946 H 3492.17 0.126922 0.736138 0
M  V30 36947 H 3494.83 1.00328 1.67093 0
M  V30 36948 H 3493.93 0.437794 3.09014 0
M  V30 36949 N 3494.23 -1.48271 0.534176 0
M  V30 36950 C 3495.64 -1.86459 0.0947919 0
M  V30 36951 C 3495.99 -1.4433 -1.32903 0
M  V30 36952 O 3495.12 -0.835901 -1.99604 0
M  V30 36953 C 3495.71 -3.38397 0.165249 0
M  V30 36954 C 3494.27 -3.75763 -0.218963 0
M  V30 36955 C 3493.42 -2.72321 0.523145 0
M  V30 36956 H 3496.37 -1.40116 0.745194 0
M  V30 36957 H 3496.39 -3.75382 -0.621999 0
M  V30 36958 H 3495.9 -3.69029 1.20164 0
M  V30 36959 H 3494 -3.50745 -1.25734 0
M  V30 36960 H 3494.11 -4.78941 0.123566 0
M  V30 36961 H 3492.48 -2.54681 -0.0310875 0
M  V30 36962 H 3493.26 -3.05796 1.56025 0
M  V30 36963 N 3495.71 -0.269505 -1.55279 0
M  V30 36964 C 3496.95 0.348189 -1.99078 0
M  V30 36965 C 3497.28 1.56798 -1.15928 0
M  V30 36966 O 3496.55 1.94331 -0.247438 0
M  V30 36967 H 3495.13 0.13164 -0.735309 0
M  V30 36968 H 3497.79 -0.37354 -1.91287 0
M  V30 36969 H 3496.88 0.6419 -3.05428 0
M  V30 36970 N 3497.18 1.576 0.00329885 0
M  V30 36971 C 3498.11 2.1125 0.994766 0
M  V30 36972 C 3499.1 1.02087 1.36059 0
M  V30 36973 O 3500.28 1.29752 1.44492 0
M  V30 36974 C 3497.41 2.6131 2.28767 0
M  V30 36975 C 3496.36 3.74969 2.06355 0
M  V30 36976 C 3495.69 4.1133 3.4163 0
M  V30 36977 C 3496.99 5.02377 1.42881 0
M  V30 36978 H 3498.68 2.94341 0.548067 0
M  V30 36979 H 3496.23 1.41593 0.262184 0
M  V30 36980 H 3498.18 2.97469 2.98479 0
M  V30 36981 H 3496.91 1.75336 2.75544 0
M  V30 36982 H 3495.57 3.39198 1.3907 0
M  V30 36983 H 3495.21 3.22385 3.86104 0
M  V30 36984 H 3494.91 4.87903 3.27451 0
M  V30 36985 H 3496.44 4.50046 4.12663 0
M  V30 36986 H 3497.85 5.36329 2.02545 0
M  V30 36987 H 3496.25 5.83732 1.392 0
M  V30 36988 H 3497.32 4.83267 0.397623 0
M  V30 36989 N 3498.66 -0.276003 1.55164 0
M  V30 36990 C 3499.59 -1.36332 1.84245 0
M  V30 36991 C 3500.61 -1.45677 0.72677 0
M  V30 36992 O 3501.8 -1.47548 1.00458 0
M  V30 36993 C 3498.9 -2.74486 1.98773 0
M  V30 36994 C 3498.07 -2.87769 3.29405 0
M  V30 36995 C 3497.13 -4.06579 3.34036 0
M  V30 36996 O 3496.15 -3.97479 4.0743 0
M  V30 36997 N 3497.36 -5.18405 2.61222 0
M  V30 36998 H 3500.12 -1.11732 2.78094 0
M  V30 36999 H 3497.68 -0.466116 1.55045 0
M  V30 37000 H 3499.67 -3.52255 1.99244 0
M  V30 37001 H 3498.24 -2.91922 1.11804 0
M  V30 37002 H 3497.46 -1.96908 3.41498 0
M  V30 37003 H 3498.75 -2.93572 4.15564 0
M  V30 37004 H 3498.15 -5.28684 2.01271 0
M  V30 37005 H 3496.71 -5.94416 2.6742 0
M  V30 37006 N 3500.14 -1.48046 -0.540378 0
M  V30 37007 C 3501.1 -1.61325 -1.6281 0
M  V30 37008 C 3502.1 -0.487188 -1.53242 0
M  V30 37009 O 3503.29 -0.752711 -1.57098 0
M  V30 37010 C 3500.43 -1.57365 -3.02406 0
M  V30 37011 H 3501.62 -2.58303 -1.5238 0
M  V30 37012 H 3499.17 -1.36488 -0.76163 0
M  V30 37013 H 3499.91 -0.618251 -3.18352 0
M  V30 37014 H 3499.69 -2.39105 -3.10759 0
M  V30 37015 H 3501.18 -1.69829 -3.81507 0
M  V30 37016 N 3501.62 0.788444 -1.3646 0
M  V30 37017 C 3502.57 1.90112 -1.30866 0
M  V30 37018 C 3503.54 1.65152 -0.177177 0
M  V30 37019 O 3504.72 1.87299 -0.36385 0
M  V30 37020 C 3501.86 3.26938 -1.10479 0
M  V30 37021 C 3500.97 3.63964 -2.32711 0
M  V30 37022 C 3500.11 4.89912 -2.05328 0
M  V30 37023 C 3499.15 5.19619 -3.23515 0
M  V30 37024 N 3498.28 6.36751 -2.95791 0
M  V30 37025 H 3503.12 1.94229 -2.26007 0
M  V30 37026 H 3500.66 0.949807 -1.12326 0
M  V30 37027 H 3502.62 4.05842 -0.966844 0
M  V30 37028 H 3501.25 3.22241 -0.189929 0
M  V30 37029 H 3500.3 2.80176 -2.57305 0
M  V30 37030 H 3501.61 3.81865 -3.20905 0
M  V30 37031 H 3500.77 5.76684 -1.88469 0
M  V30 37032 H 3499.51 4.74082 -1.14445 0
M  V30 37033 H 3498.51 4.3133 -3.40932 0
M  V30 37034 H 3499.74 5.37368 -4.15225 0
M  V30 37035 H 3497.68 6.22311 -2.07521 0
M  V30 37036 H 3497.6 6.5499 -3.77524 0
M  V30 37037 H 3498.87 7.26503 -2.82513 0
M  V30 37038 N 3503.1 1.20755 1.01271 0
M  V30 37039 C 3504.06 0.961565 2.08054 0
M  V30 37040 C 3505.06 -0.0644178 1.60671 0
M  V30 37041 O 3506.25 0.172052 1.73348 0
M  V30 37042 C 3503.38 0.448441 3.37938 0
M  V30 37043 H 3504.57 1.90881 2.3131 0
M  V30 37044 H 3502.13 1.02346 1.18131 0
M  V30 37045 H 3502.86 -0.504088 3.20358 0
M  V30 37046 H 3502.65 1.1884 3.73657 0
M  V30 37047 H 3504.14 0.295949 4.1655 0
M  V30 37048 N 3504.58 -1.20642 1.01406 0
M  V30 37049 C 3505.8 -1.93928 0.721075 0
M  V30 37050 C 3506.22 -1.74622 -0.717822 0
M  V30 37051 O 3505.58 -1.05858 -1.48662 0
M  V30 37052 C 3505.63 -3.46095 1.04405 0
M  V30 37053 O 3505.35 -3.64768 2.42643 0
M  V30 37054 C 3506.85 -4.3653 0.771755 0
M  V30 37055 H 3504.07 -0.616457 0.264994 0
M  V30 37056 H 3506.61 -1.53206 1.35456 0
M  V30 37057 H 3504.77 -3.84707 0.456013 0
M  V30 37058 H 3505.18 -4.58779 2.54209 0
M  V30 37059 H 3506.66 -5.41963 1.04784 0
M  V30 37060 H 3507.13 -4.38214 -0.294111 0
M  V30 37061 H 3507.74 -4.03578 1.34183 0
M  V30 37062 N 3506.05 -0.789968 -1.36372 0
M  V30 37063 C 3507.47 -0.471713 -1.5247 0
M  V30 37064 C 3507.67 1.00987 -1.74367 0
M  V30 37065 O 3506.73 1.79535 -1.77549 0
M  V30 37066 C 3508.04 -1.30263 -2.7102 0
M  V30 37067 C 3509.59 -1.29638 -2.84891 0
M  V30 37068 C 3510.06 -2.11105 -4.06446 0
M  V30 37069 N 3511.55 -2.08554 -4.13593 0
M  V30 37070 C 3512.29 -2.68359 -5.06726 0
M  V30 37071 N 3511.78 -3.37024 -6.05299 0
M  V30 37072 N 3513.58 -2.5809 -4.99346 0
M  V30 37073 H 3505.73 -1.7497 -1.20413 0
M  V30 37074 H 3507.99 -0.743795 -0.587769 0
M  V30 37075 H 3507.7 -2.35334 -2.61363 0
M  V30 37076 H 3507.57 -0.944318 -3.65188 0
M  V30 37077 H 3509.96 -0.253594 -2.94008 0
M  V30 37078 H 3510.04 -1.69446 -1.91629 0
M  V30 37079 H 3509.68 -3.15415 -3.9809 0
M  V30 37080 H 3509.61 -1.68667 -4.98858 0
M  V30 37081 H 3512.1 -1.58579 -3.43017 0
M  V30 37082 H 3512.42 -3.79986 -6.72927 0
M  V30 37083 H 3510.76 -3.41126 -6.05523 0
M  V30 37084 H 3513.95 -2.04046 -4.21287 0
M  V30 37085 H 3514.13 -3.04989 -5.71739 0
M  V30 37086 N 3507.53 1.47986 -0.542031 0
M  V30 37087 C 3508.44 2.33588 0.217636 0
M  V30 37088 C 3509.46 1.47246 0.927067 0
M  V30 37089 O 3510.63 1.80205 0.899346 0
M  V30 37090 C 3507.7 3.23625 1.2437 0
M  V30 37091 C 3506.76 4.25848 0.543332 0
M  V30 37092 C 3505.99 5.11582 1.52051 0
M  V30 37093 O 3506.22 4.99502 2.75416 0
M  V30 37094 O 3505.15 5.92612 1.05331 0
M  V30 37095 H 3508.98 2.99816 -0.484142 0
M  V30 37096 H 3506.56 1.46299 -0.302809 0
M  V30 37097 H 3508.44 3.79283 1.83637 0
M  V30 37098 H 3507.12 2.60043 1.92767 0
M  V30 37099 H 3506.02 3.73991 -0.0901398 0
M  V30 37100 H 3507.36 4.92101 -0.0989129 0
M  V30 37101 N 3509.01 0.277736 1.55133 0
M  V30 37102 C 3509.97 -0.595531 2.21328 0
M  V30 37103 C 3510.97 -1.07931 1.19195 0
M  V30 37104 O 3512.16 -0.979068 1.44083 0
M  V30 37105 C 3509.29 -1.82191 2.88131 0
M  V30 37106 H 3510.49 -0.0175328 2.99895 0
M  V30 37107 H 3508.04 0.0283728 1.56274 0
M  V30 37108 H 3508.78 -2.44035 2.13582 0
M  V30 37109 H 3508.56 -1.4829 3.62977 0
M  V30 37110 H 3510.05 -2.44285 3.38696 0
M  V30 37111 N 3510.49 -1.57599 0.00505908 0
M  V30 37112 C 3511.42 -2.056 -1.01299 0
M  V30 37113 C 3512.43 -0.974852 -1.30386 0
M  V30 37114 O 3513.62 -1.25155 -1.27273 0
M  V30 37115 C 3510.72 -2.44526 -2.34649 0
M  V30 37116 C 3509.89 -3.75434 -2.24429 0
M  V30 37117 C 3508.95 -4.01172 -3.4051 0
M  V30 37118 O 3507.98 -4.71768 -3.18471 0
M  V30 37119 N 3509.18 -3.49462 -4.63526 0
M  V30 37120 H 3511.95 -2.93559 -0.603604 0
M  V30 37121 H 3509.51 -1.60871 -0.18222 0
M  V30 37122 H 3511.5 -2.58855 -3.11089 0
M  V30 37123 H 3510.07 -1.62059 -2.67312 0
M  V30 37124 H 3509.29 -3.71133 -1.32868 0
M  V30 37125 H 3510.58 -4.61246 -2.14778 0
M  V30 37126 H 3509.98 -2.92304 -4.84329 0
M  V30 37127 H 3508.53 -3.69113 -5.37214 0
M  V30 37128 N 3511.97 0.267771 -1.55309 0
M  V30 37129 C 3512.91 1.33112 -1.88547 0
M  V30 37130 C 3513.88 1.4883 -0.737491 0
M  V30 37131 O 3515.07 1.63152 -0.989244 0
M  V30 37132 C 3512.21 2.68544 -2.16745 0
M  V30 37133 C 3511.32 2.61005 -3.44239 0
M  V30 37134 C 3510.46 3.8865 -3.62111 0
M  V30 37135 C 3509.49 3.75643 -4.83279 0
M  V30 37136 N 3508.63 4.95135 -4.97781 0
M  V30 37137 H 3513.47 1.04066 -2.79239 0
M  V30 37138 H 3511.01 0.502652 -1.38245 0
M  V30 37139 H 3512.97 3.47349 -2.31095 0
M  V30 37140 H 3511.6 2.95781 -1.29281 0
M  V30 37141 H 3510.65 1.73881 -3.38333 0
M  V30 37142 H 3511.96 2.47295 -4.33182 0
M  V30 37143 H 3511.11 4.75898 -3.76306 0
M  V30 37144 H 3509.85 4.05233 -2.71363 0
M  V30 37145 H 3508.86 2.8678 -4.69082 0
M  V30 37146 H 3510.08 3.60575 -5.75467 0
M  V30 37147 H 3508.03 5.12118 -4.09965 0
M  V30 37148 H 3507.95 4.83977 -5.80778 0
M  V30 37149 H 3509.21 5.8394 -5.16367 0
M  V30 37150 N 3513.44 1.48331 0.532519 0
M  V30 37151 C 3514.86 1.34395 0.860819 0
M  V30 37152 C 3515.06 0.353048 1.98383 0
M  V30 37153 O 3514.12 -0.226644 2.51481 0
M  V30 37154 C 3515.43 2.7436 1.23074 0
M  V30 37155 C 3516.98 2.82829 1.34077 0
M  V30 37156 C 3517.45 4.2349 1.74413 0
M  V30 37157 N 3518.94 4.26151 1.8152 0
M  V30 37158 C 3519.68 5.31925 2.14111 0
M  V30 37159 N 3519.17 6.47979 2.45143 0
M  V30 37160 N 3520.97 5.19317 2.15095 0
M  V30 37161 H 3513.12 2.11374 -0.208501 0
M  V30 37162 H 3515.38 0.947505 -0.0306366 0
M  V30 37163 H 3515.09 3.4842 0.479199 0
M  V30 37164 H 3514.96 3.07721 2.18145 0
M  V30 37165 H 3517.35 2.09026 2.08308 0
M  V30 37166 H 3517.43 2.53091 0.371326 0
M  V30 37167 H 3517.07 4.97808 1.00743 0
M  V30 37168 H 3517 4.50671 2.72403 0
M  V30 37169 H 3519.49 3.42439 1.59826 0
M  V30 37170 H 3519.81 7.24431 2.69109 0
M  V30 37171 H 3518.15 6.51258 2.42668 0
M  V30 37172 H 3521.34 4.27669 1.90307 0
M  V30 37173 H 3521.52 6.01852 2.40162 0
M  V30 37174 N 3514.92 -0.781196 1.36876 0
M  V30 37175 C 3516.15 -1.57016 1.34735 0
M  V30 37176 C 3516.56 -1.88672 -0.0695091 0
M  V30 37177 O 3515.92 -1.50745 -1.0287 0
M  V30 37178 C 3515.97 -2.88619 2.17673 0
M  V30 37179 O 3515.69 -2.58324 3.53837 0
M  V30 37180 C 3517.19 -3.82891 2.23405 0
M  V30 37181 H 3514.41 -0.486746 0.461865 0
M  V30 37182 H 3516.96 -0.968957 1.80087 0
M  V30 37183 H 3515.11 -3.45187 1.75854 0
M  V30 37184 H 3515.53 -3.42531 3.97206 0
M  V30 37185 H 3517 -4.72266 2.85777 0
M  V30 37186 H 3517.48 -4.21338 1.2398 0
M  V30 37187 H 3518.08 -3.32254 2.65495 0
M  V30 37188 N 3516.4 -1.21291 -1.0063 0
M  V30 37189 C 3517.36 -0.972585 -2.07541 0
M  V30 37190 C 3518.36 0.0558961 -1.60703 0
M  V30 37191 O 3519.55 -0.181243 -1.73255 0
M  V30 37192 C 3516.68 -0.466356 -3.37695 0
M  V30 37193 H 3517.88 -1.92105 -2.30295 0
M  V30 37194 H 3515.43 -1.02972 -1.17586 0
M  V30 37195 H 3516.17 0.487091 -3.20621 0
M  V30 37196 H 3515.95 -1.2082 -3.73021 0
M  V30 37197 H 3517.44 -0.318035 -4.16387 0
M  V30 37198 N 3517.88 1.20103 -1.02045 0
M  V30 37199 C 3518.84 2.21242 -0.598721 0
M  V30 37200 C 3519.84 1.5731 0.333178 0
M  V30 37201 O 3521.03 1.73777 0.12134 0
M  V30 37202 C 3518.16 3.4067 0.125123 0
M  V30 37203 H 3519.36 2.60067 -1.49349 0
M  V30 37204 H 3516.91 1.33633 -0.810672 0
M  V30 37205 H 3517.64 3.07353 1.03463 0
M  V30 37206 H 3517.43 3.88303 -0.544384 0
M  V30 37207 H 3518.92 4.15608 0.407396 0
M  V30 37208 N 3519.36 0.797189 1.35951 0
M  V30 37209 C 3520.6 0.37244 1.98639 0
M  V30 37210 C 3520.93 -1.06155 1.63573 0
M  V30 37211 O 3520.2 -1.73295 0.913546 0
M  V30 37212 H 3518.78 0.134723 0.734751 0
M  V30 37213 H 3521.44 1.02095 1.6602 0
M  V30 37214 H 3520.53 0.470545 3.08532 0
M  V30 37215 N 3520.83 -1.47696 0.549872 0
M  V30 37216 C 3522.08 -2.01689 0.0209778 0
M  V30 37217 C 3522.4 -1.43038 -1.33414 0
M  V30 37218 O 3523.6 -1.88649 -1.95253 0
M  V30 37219 C 3522.06 -3.59898 -0.0129539 0
M  V30 37220 C 3521.67 -4.27538 1.33848 0
M  V30 37221 C 3523.41 -4.21667 -0.489627 0
M  V30 37222 C 3521.32 -5.77733 1.26405 0
M  V30 37223 H 3520.25 -0.753989 0.00407211 0
M  V30 37224 H 3522.9 -1.69763 0.696628 0
M  V30 37225 H 3521.28 -3.88754 -0.7541 0
M  V30 37226 H 3522.45 -4.10332 2.09676 0
M  V30 37227 H 3520.77 -3.77726 1.75249 0
M  V30 37228 H 3523.37 -5.31721 -0.563591 0
M  V30 37229 H 3523.71 -3.88338 -1.49997 0
M  V30 37230 H 3524.24 -3.97315 0.196436 0
M  V30 37231 H 3520.98 -6.15669 2.25016 0
M  V30 37232 H 3520.5 -5.97296 0.547458 0
M  V30 37233 H 3522.18 -6.39793 0.963031 0
M  V30 37234 N 3522.31 -0.285959 -1.54984 0
M  V30 37235 C 3523.25 0.63841 -2.19088 0
M  V30 37236 C 3524.22 1.14416 -1.15532 0
M  V30 37237 O 3525.41 1.21513 -1.44107 0
M  V30 37238 C 3522.53 1.87183 -2.82277 0
M  V30 37239 C 3521.58 1.50063 -3.99229 0
M  V30 37240 S 3522.41 0.569459 -5.32464 0
M  V30 37241 C 3523.57 1.81101 -5.99127 0
M  V30 37242 H 3523.8 0.0937617 -2.97152 0
M  V30 37243 H 3521.34 -0.0701615 -1.54241 0
M  V30 37244 H 3523.29 2.57974 -3.19312 0
M  V30 37245 H 3521.95 2.38763 -2.04086 0
M  V30 37246 H 3521.15 2.41871 -4.4217 0
M  V30 37247 H 3520.75 0.872808 -3.63673 0
M  V30 37248 H 3523.04 2.75356 -6.1902 0
M  V30 37249 H 3523.98 1.42442 -6.93625 0
M  V30 37250 H 3524.39 1.98089 -5.28603 0
M  V30 37251 N 3523.79 1.57594 -0.0134169 0
M  V30 37252 C 3524.74 2.09258 0.973634 0
M  V30 37253 C 3525.71 0.991022 1.33297 0
M  V30 37254 O 3526.89 1.26428 1.42901 0
M  V30 37255 C 3524.03 2.61151 2.25598 0
M  V30 37256 C 3523.15 3.85258 1.95449 0
M  V30 37257 C 3522.28 4.25601 3.17863 0
M  V30 37258 C 3521.32 5.42509 2.83462 0
M  V30 37259 N 3520.46 5.78082 3.98453 0
M  V30 37260 H 3525.3 2.93319 0.526138 0
M  V30 37261 H 3522.83 1.44992 0.248123 0
M  V30 37262 H 3524.79 2.8932 3.00582 0
M  V30 37263 H 3523.42 1.79944 2.67992 0
M  V30 37264 H 3522.47 3.63914 1.10775 0
M  V30 37265 H 3523.79 4.70331 1.66102 0
M  V30 37266 H 3522.94 4.55124 4.01182 0
M  V30 37267 H 3521.68 3.39263 3.50359 0
M  V30 37268 H 3520.68 5.12696 1.98553 0
M  V30 37269 H 3521.91 6.30533 2.52199 0
M  V30 37270 H 3519.85 4.94701 4.30821 0
M  V30 37271 H 3519.77 6.5776 3.72676 0
M  V30 37272 H 3521.04 6.12204 4.82521 0
M  V30 37273 N 3525.27 -0.259531 1.55448 0
M  V30 37274 C 3526.22 -1.34092 1.90058 0
M  V30 37275 C 3527.21 -1.50462 0.778293 0
M  V30 37276 O 3528.42 -1.52087 0.962784 0
M  V30 37277 H 3524.79 -0.448747 0.603432 0
M  V30 37278 H 3526.76 -1.02161 2.80367 0
M  V30 37279 C 3525.51 -2.69185 2.20079 0
M  V30 37280 H 3524.83 -2.57384 3.05931 0
M  V30 37281 H 3526.27 -3.43758 2.48207 0
M  V30 37282 C 3524.73 -3.21314 1.01286 0
M  V30 37283 O 3525.26 -4.00894 0.254371 0
M  V30 37284 N 3523.47 -2.79173 0.806904 0
M  V30 37285 H 3523.02 -2.1457 1.4254 0
M  V30 37286 H 3522.97 -3.14397 0.0137267 0
M  V30 37287 N 3526.75 -1.48611 -0.524645 0
M  V30 37288 C 3528.16 -1.50376 -1.10652 0
M  V30 37289 C 3528.51 -0.276547 -1.94241 0
M  V30 37290 O 3527.63 0.615851 -2.07452 0
M  V30 37291 C 3528.23 -2.72482 -2.01343 0
M  V30 37292 C 3526.79 -2.77102 -2.54738 0
M  V30 37293 C 3525.93 -2.43966 -1.31818 0
M  V30 37294 H 3528.89 -1.5565 -0.309646 0
M  V30 37295 H 3528.91 -2.51302 -2.85705 0
M  V30 37296 H 3528.42 -3.61784 -1.40478 0
M  V30 37297 H 3526.52 -1.92021 -3.19309 0
M  V30 37298 H 3526.63 -3.78669 -2.93507 0
M  V30 37299 H 3525 -1.95236 -1.6357 0
M  V30 37300 H 3525.78 -3.35515 -0.726967 0
M  V30 37301 N 3528.22 0.773926 -1.37289 0
M  V30 37302 C 3529.45 1.56299 -1.35566 0
M  V30 37303 C 3529.87 1.88706 0.0595024 0
M  V30 37304 O 3529.22 1.51288 1.02069 0
M  V30 37305 C 3529.28 2.8746 -2.192 0
M  V30 37306 O 3529 2.56444 -3.55201 0
M  V30 37307 C 3530.5 3.817 -2.25432 0
M  V30 37308 H 3527.72 0.48429 -0.46444 0
M  V30 37309 H 3530.26 0.959393 -1.80599 0
M  V30 37310 H 3528.42 3.4425 -1.77682 0
M  V30 37311 H 3528.83 3.4042 -3.99017 0
M  V30 37312 H 3530.3 4.70744 -2.88278 0
M  V30 37313 H 3530.78 4.20675 -1.26212 0
M  V30 37314 H 3531.39 3.30841 -2.67253 0
M  V30 37315 N 3529.7 1.21823 0.99985 0
M  V30 37316 C 3530.95 1.04012 1.74096 0
M  V30 37317 C 3531.28 -0.424683 1.895 0
M  V30 37318 O 3530.56 -1.31503 1.43308 0
M  V30 37319 C 3530.84 1.74388 3.15057 0
M  V30 37320 C 3530.69 3.28419 3.07345 0
M  V30 37321 C 3532.01 1.49062 4.14088 0
M  V30 37322 H 3529.13 0.379256 0.631928 0
M  V30 37323 H 3531.77 1.50068 1.16531 0
M  V30 37324 H 3529.92 1.35234 3.64203 0
M  V30 37325 H 3531.59 3.76974 2.65873 0
M  V30 37326 H 3529.84 3.58456 2.44319 0
M  V30 37327 H 3530.51 3.72832 4.07063 0
M  V30 37328 H 3532.98 1.8306 3.73669 0
M  V30 37329 H 3531.86 2.00809 5.10849 0
M  V30 37330 H 3532.12 0.421718 4.40084 0
M  V30 37331 N 3531.18 -1.1956 1.0268 0
M  V30 37332 C 3532.46 -1.84945 0.636772 0
M  V30 37333 C 3532.84 -1.9167 -0.884634 0
M  V30 37334 O 3532.19 -1.43215 -1.7805 0
M  V30 37335 C 3532.4 -3.24027 1.29643 0
M  V30 37336 C 3533.74 -4.0021 1.41835 0
M  V30 37337 O 3534.77 -3.33418 1.25344 0
M  V30 37338 O 3533.63 -5.19848 1.68583 0
M  V30 37339 H 3530.72 -0.796908 0.221058 0
M  V30 37340 H 3533.27 -1.27066 1.12482 0
M  V30 37341 H 3532.04 -3.13956 2.33554 0
M  V30 37342 H 3531.66 -3.89548 0.796109 0
M  V30 37343 N 3532.66 -0.804387 -1.35526 0
M  V30 37344 C 3533.91 -0.382969 -1.98438 0
M  V30 37345 C 3534.23 1.05286 -1.64134 0
M  V30 37346 O 3533.5 1.72808 -0.922723 0
M  V30 37347 H 3532.08 -0.138618 -0.734026 0
M  V30 37348 H 3534.74 -1.02974 -1.65476 0
M  V30 37349 H 3533.84 -0.4869 -3.08279 0
M  V30 37350 N 3534.14 1.47403 -0.557697 0
M  V30 37351 C 3535.39 2.01675 -0.0316736 0
M  V30 37352 C 3535.7 1.43744 1.32654 0
M  V30 37353 O 3536.91 1.89682 1.9425 0
M  V30 37354 C 3535.36 3.59899 -0.00613257 0
M  V30 37355 C 3534.97 4.26822 -1.36113 0
M  V30 37356 C 3536.71 4.21921 0.467258 0
M  V30 37357 C 3534.62 5.77055 -1.29467 0
M  V30 37358 H 3533.55 0.753957 -0.00807064 0
M  V30 37359 H 3536.2 1.69391 -0.705622 0
M  V30 37360 H 3534.58 3.89148 0.733472 0
M  V30 37361 H 3535.76 4.09215 -2.11849 0
M  V30 37362 H 3534.07 3.76791 -1.7725 0
M  V30 37363 H 3536.67 5.32013 0.535384 0
M  V30 37364 H 3537.01 3.89128 1.47935 0
M  V30 37365 H 3537.55 3.97205 -0.217504 0
M  V30 37366 H 3534.28 6.14467 -2.28278 0
M  V30 37367 H 3533.8 5.96998 -0.579127 0
M  V30 37368 H 3535.48 6.39273 -0.996947 0
M  V30 37369 N 3535.62 0.294175 1.5483 0
M  V30 37370 C 3536.55 -0.626782 2.19424 0
M  V30 37371 C 3537.53 -1.13802 1.16138 0
M  V30 37372 O 3538.71 -1.20747 1.44749 0
M  V30 37373 C 3535.84 -1.85684 2.83265 0
M  V30 37374 C 3534.88 -1.47943 4.00019 0
M  V30 37375 S 3535.72 -0.541213 5.32758 0
M  V30 37376 C 3536.87 -1.77921 6.00079 0
M  V30 37377 H 3537.11 -0.0780017 2.97198 0
M  V30 37378 H 3534.64 0.0783402 1.54201 0
M  V30 37379 H 3536.6 -2.56277 3.20675 0
M  V30 37380 H 3535.26 -2.37677 2.05349 0
M  V30 37381 H 3534.45 -2.39522 4.43447 0
M  V30 37382 H 3534.05 -0.853509 3.64131 0
M  V30 37383 H 3536.34 -2.72069 6.20471 0
M  V30 37384 H 3537.29 -1.38762 6.94371 0
M  V30 37385 H 3537.7 -1.95283 5.29646 0
M  V30 37386 N 3537.09 -1.57585 0.0217743 0
M  V30 37387 C 3538.32 -1.95791 -0.668846 0
M  V30 37388 C 3538.74 -0.897878 -1.66083 0
M  V30 37389 O 3538.09 0.121067 -1.82098 0
M  V30 37390 C 3538.14 -3.34054 -1.38168 0
M  V30 37391 O 3537.87 -4.3599 -0.429451 0
M  V30 37392 C 3539.37 -3.86848 -2.1648 0
M  V30 37393 H 3536.59 -0.645019 -0.184908 0
M  V30 37394 H 3539.13 -2.04346 0.0793601 0
M  V30 37395 H 3537.29 -3.2674 -2.08134 0
M  V30 37396 H 3537.7 -5.16103 -0.934796 0
M  V30 37397 H 3539.17 -4.85957 -2.61821 0
M  V30 37398 H 3539.65 -3.20703 -3.00077 0
M  V30 37399 H 3540.26 -3.97407 -1.51486 0
M  V30 37400 N 3538.57 0.251283 -1.55584 0
M  V30 37401 C 3539.82 0.977828 -1.76413 0
M  V30 37402 C 3540.13 1.8665 -0.58489 0
M  V30 37403 O 3541.34 2.62947 -0.676092 0
M  V30 37404 C 3539.8 1.78867 -3.12305 0
M  V30 37405 C 3539.4 0.947597 -4.37864 0
M  V30 37406 C 3541.15 2.50821 -3.42475 0
M  V30 37407 C 3539.05 1.75407 -5.64789 0
M  V30 37408 H 3537.98 0.368827 -0.657634 0
M  V30 37409 H 3540.64 0.23265 -1.82019 0
M  V30 37410 H 3539.02 2.57563 -3.00794 0
M  V30 37411 H 3540.19 0.203271 -4.60351 0
M  V30 37412 H 3538.51 0.341593 -4.14997 0
M  V30 37413 H 3541.1 3.11604 -4.34519 0
M  V30 37414 H 3541.45 3.22214 -2.63597 0
M  V30 37415 H 3541.98 1.79138 -3.55182 0
M  V30 37416 H 3538.72 1.08396 -6.46475 0
M  V30 37417 H 3538.24 2.47379 -5.4641 0
M  V30 37418 H 3539.92 2.32231 -6.03885 0
M  V30 37419 N 3540.05 1.48887 0.516757 0
M  V30 37420 C 3541.33 1.48071 1.27806 0
M  V30 37421 C 3541.71 0.199667 2.10154 0
M  V30 37422 O 3541.05 -0.818349 2.13343 0
M  V30 37423 C 3541.26 2.75049 2.14823 0
M  V30 37424 C 3542.61 3.23911 2.74531 0
M  V30 37425 O 3543.64 2.76057 2.25102 0
M  V30 37426 O 3542.5 4.07212 3.64473 0
M  V30 37427 H 3539.59 0.591941 0.577524 0
M  V30 37428 H 3542.14 1.61135 0.532322 0
M  V30 37429 H 3540.91 3.59788 1.53845 0
M  V30 37430 H 3540.53 2.6477 2.96619 0
M  V30 37431 N 3541.53 -0.766635 1.37697 0
M  V30 37432 C 3542.46 -1.8939 1.36579 0
M  V30 37433 C 3543.44 -1.68488 0.233626 0
M  V30 37434 O 3544.62 -1.89271 0.434753 0
M  V30 37435 C 3541.75 -3.26744 1.17711 0
M  V30 37436 C 3540.71 -3.62219 2.27994 0
M  V30 37437 C 3540.03 -4.9817 1.94244 0
M  V30 37438 C 3541.33 -3.6844 3.70201 0
M  V30 37439 H 3543.03 -1.90583 2.30908 0
M  V30 37440 H 3540.57 -0.915518 1.1115 0
M  V30 37441 H 3542.53 -4.05246 1.15558 0
M  V30 37442 H 3541.25 -3.25997 0.198392 0
M  V30 37443 H 3539.91 -2.86028 2.29311 0
M  V30 37444 H 3539.56 -4.93969 0.948883 0
M  V30 37445 H 3539.26 -5.22875 2.68095 0
M  V30 37446 H 3540.78 -5.79067 1.93686 0
M  V30 37447 H 3542.2 -4.37084 3.70986 0
M  V30 37448 H 3540.59 -4.04647 4.43149 0
M  V30 37449 H 3541.66 -2.68979 4.03458 0
M  V30 37450 N 3543.01 -1.22351 -0.993375 0
M  V30 37451 C 3544.28 -0.956305 -1.70629 0
M  V30 37452 C 3544.66 0.528734 -2.04371 0
M  V30 37453 O 3544.01 1.49664 -1.72664 0
M  V30 37454 C 3544.22 -1.85336 -2.95722 0
M  V30 37455 C 3545.57 -2.10916 -3.6851 0
M  V30 37456 O 3546.59 -1.8278 -3.05728 0
M  V30 37457 O 3545.45 -2.58565 -4.81463 0
M  V30 37458 H 3542.55 -0.359596 -0.744728 0
M  V30 37459 H 3545.09 -1.33334 -1.04976 0
M  V30 37460 H 3543.86 -2.85787 -2.67285 0
M  V30 37461 H 3543.49 -1.47787 -3.69113 0
M  V30 37462 N 3544.48 1.19014 -1.03313 0
M  V30 37463 C 3545.89 1.70482 -0.761109 0
M  V30 37464 C 3546.25 1.82558 0.718819 0
M  V30 37465 O 3545.37 1.49973 1.56004 0
M  V30 37466 C 3545.97 3.09645 -1.37498 0
M  V30 37467 C 3544.52 3.58355 -1.15145 0
M  V30 37468 C 3543.67 2.35107 -1.47038 0
M  V30 37469 H 3546.62 1.03795 -1.20051 0
M  V30 37470 H 3546.64 3.72541 -0.77418 0
M  V30 37471 H 3546.16 3.00823 -2.45208 0
M  V30 37472 H 3544.26 3.72485 -0.0927476 0
M  V30 37473 H 3544.37 4.42227 -1.84315 0
M  V30 37474 H 3542.73 2.3865 -0.889836 0
M  V30 37475 H 3543.52 2.28911 -2.55841 0
M  V30 37476 N 3545.96 0.811563 1.35098 0
M  V30 37477 C 3547.21 0.39485 1.98919 0
M  V30 37478 C 3547.54 -1.03658 1.64222 0
M  V30 37479 O 3546.82 -1.72001 0.908061 0
M  V30 37480 C 3547.1 0.584193 3.5533 0
M  V30 37481 C 3546.95 2.06091 3.99808 0
M  V30 37482 C 3548.27 0.0129869 4.40098 0
M  V30 37483 H 3545.39 0.144939 0.722608 0
M  V30 37484 H 3548.03 1.02202 1.60171 0
M  V30 37485 H 3546.18 0.0503129 3.88467 0
M  V30 37486 H 3547.85 2.65756 3.77057 0
M  V30 37487 H 3546.1 2.55554 3.50535 0
M  V30 37488 H 3546.77 2.14425 5.08651 0
M  V30 37489 H 3549.24 0.46899 4.13449 0
M  V30 37490 H 3548.12 0.175349 5.4862 0
M  V30 37491 H 3548.38 -1.08113 4.28677 0
M  V30 37492 N 3547.44 -1.47105 0.565506 0
M  V30 37493 C 3548.69 -2.01655 0.0423685 0
M  V30 37494 C 3549 -1.44445 -1.3189 0
M  V30 37495 O 3550.21 -1.90709 -1.93241 0
M  V30 37496 C 3548.66 -3.59891 0.0252188 0
M  V30 37497 C 3548.27 -4.26094 1.38375 0
M  V30 37498 C 3550.02 -4.22162 -0.444876 0
M  V30 37499 C 3547.92 -5.7636 1.32526 0
M  V30 37500 H 3546.85 -0.753903 0.0120689 0
M  V30 37501 H 3549.5 -1.69014 0.714595 0
M  V30 37502 H 3547.89 -3.89532 -0.712825 0
M  V30 37503 H 3549.06 -4.08086 2.14016 0
M  V30 37504 H 3547.37 -3.75846 1.79245 0
M  V30 37505 H 3549.97 -5.32289 -0.507163 0
M  V30 37506 H 3550.31 -3.89907 -1.45869 0
M  V30 37507 H 3550.85 -3.97084 0.238566 0
M  V30 37508 H 3547.59 -6.13247 2.31534 0
M  V30 37509 H 3547.11 -5.96682 0.610779 0
M  V30 37510 H 3548.79 -6.38735 1.03084 0
M  V30 37511 N 3548.92 -0.302382 -1.54672 0
M  V30 37512 C 3550.15 0.308609 -2.04282 0
M  V30 37513 C 3550.56 1.47962 -1.17914 0
M  V30 37514 O 3549.9 1.82632 -0.197755 0
M  V30 37515 C 3549.96 0.826356 -3.49874 0
M  V30 37516 C 3549.63 -0.219566 -4.56472 0
M  V30 37517 C 3550.62 -1.04849 -5.09218 0
M  V30 37518 C 3548.31 -0.361662 -5.00996 0
M  V30 37519 C 3550.3 -2.00543 -6.0503 0
M  V30 37520 C 3547.99 -1.32205 -5.96628 0
M  V30 37521 C 3548.99 -2.14242 -6.48529 0
M  V30 37522 O 3548.67 -3.08652 -7.42286 0
M  V30 37523 H 3548.41 0.0708069 -0.672281 0
M  V30 37524 H 3550.96 -0.44035 -2.00624 0
M  V30 37525 H 3549.19 1.62586 -3.5086 0
M  V30 37526 H 3550.88 1.35338 -3.82673 0
M  V30 37527 H 3551.65 -0.949584 -4.75613 0
M  V30 37528 H 3547.52 0.266938 -4.60227 0
M  V30 37529 H 3551.07 -2.64615 -6.45465 0
M  V30 37530 H 3546.97 -1.42167 -6.2965 0
M  V30 37531 H 3547.73 -3.03647 -7.60093 0
M  V30 37532 N 3550.4 1.57571 -0.0301311 0
M  V30 37533 C 3551.67 1.83138 0.686998 0
M  V30 37534 C 3552.05 0.914249 1.90275 0
M  V30 37535 O 3551.4 -0.0298956 2.2848 0
M  V30 37536 C 3551.61 3.32377 1.06426 0
M  V30 37537 C 3552.96 3.98875 1.45547 0
M  V30 37538 O 3553.98 3.36879 1.15721 0
M  V30 37539 O 3552.84 5.08145 2.01124 0
M  V30 37540 H 3549.94 0.755165 0.337127 0
M  V30 37541 H 3552.48 1.69601 -0.0578902 0
M  V30 37542 H 3551.25 3.90794 0.199008 0
M  V30 37543 H 3550.88 3.51025 1.86728 0
M  V30 37544 N 3551.87 -0.243029 1.55715 0
M  V30 37545 C 3553.1 -0.992187 1.82127 0
M  V30 37546 C 3553.52 -1.78013 0.607696 0
M  V30 37547 O 3552.88 -1.75796 -0.44332 0
M  V30 37548 C 3552.93 -1.90268 3.06317 0
M  V30 37549 O 3552.03 -2.99498 2.83505 0
M  V30 37550 H 3551.38 -0.282117 0.601087 0
M  V30 37551 H 3553.91 -0.262845 2.02905 0
M  V30 37552 H 3553.92 -2.3166 3.35854 0
M  V30 37553 H 3552.59 -1.32337 3.94284 0
M  V30 37554 H 3551.17 -2.62206 2.65146 0
M  V30 37555 N 3553.35 -1.49159 -0.508854 0
M  V30 37556 C 3554.3 -1.65249 -1.61126 0
M  V30 37557 C 3555.27 -0.494077 -1.58581 0
M  V30 37558 O 3556.45 -0.720153 -1.76687 0
M  V30 37559 C 3553.59 -1.71781 -2.99308 0
M  V30 37560 C 3552.71 -2.98873 -3.11928 0
M  V30 37561 C 3551.84 -2.96434 -4.40795 0
M  V30 37562 C 3550.88 -4.18139 -4.47019 0
M  V30 37563 N 3550.02 -4.13655 -5.67304 0
M  V30 37564 H 3554.86 -2.59381 -1.46715 0
M  V30 37565 H 3552.4 -1.28612 -0.713955 0
M  V30 37566 H 3554.35 -1.7355 -3.79389 0
M  V30 37567 H 3552.98 -0.811214 -3.12441 0
M  V30 37568 H 3552.04 -3.06752 -2.2496 0
M  V30 37569 H 3553.35 -3.88865 -3.12387 0
M  V30 37570 H 3552.5 -2.96722 -5.29189 0
M  V30 37571 H 3551.24 -2.04207 -4.42889 0
M  V30 37572 H 3550.25 -4.18104 -3.57029 0
M  V30 37573 H 3551.47 -5.1155 -4.46647 0
M  V30 37574 H 3549.42 -3.24261 -5.70255 0
M  V30 37575 H 3549.33 -4.97374 -5.69347 0
M  V30 37576 H 3550.6 -4.18034 -6.57927 0
M  V30 37577 N 3554.83 0.759322 -1.38102 0
M  V30 37578 C 3556.08 1.51828 -1.33994 0
M  V30 37579 C 3556.41 1.94367 0.071783 0
M  V30 37580 O 3555.66 1.65295 1.04767 0
M  V30 37581 C 3555.96 2.78782 -2.23641 0
M  V30 37582 C 3555.63 2.55234 -3.71708 0
M  V30 37583 C 3554.29 2.4852 -4.12057 0
M  V30 37584 C 3556.64 2.34515 -4.65459 0
M  V30 37585 C 3553.97 2.19095 -5.44256 0
M  V30 37586 C 3556.32 2.06611 -5.97908 0
M  V30 37587 C 3554.98 1.98351 -6.37349 0
M  V30 37588 H 3554.25 0.555578 -0.49032 0
M  V30 37589 H 3556.9 0.873607 -1.70412 0
M  V30 37590 H 3555.21 3.4787 -1.80259 0
M  V30 37591 H 3556.9 3.36715 -2.1777 0
M  V30 37592 H 3553.49 2.61327 -3.39715 0
M  V30 37593 H 3557.68 2.38684 -4.35136 0
M  V30 37594 H 3552.93 2.11204 -5.73762 0
M  V30 37595 H 3557.11 1.89582 -6.70098 0
M  V30 37596 H 3554.73 1.75315 -7.39709 0
M  V30 37597 N 3556.31 1.22876 0.986873 0
M  V30 37598 C 3557.22 1.02073 2.1123 0
M  V30 37599 C 3558.23 -0.0328118 1.73969 0
M  V30 37600 O 3559.41 0.161232 2.00754 0
M  V30 37601 C 3556.48 0.60753 3.41336 0
M  V30 37602 C 3555.54 1.73538 3.92662 0
M  V30 37603 C 3554.77 1.3418 5.16557 0
M  V30 37604 O 3554.99 0.223206 5.69963 0
M  V30 37605 O 3553.93 2.16051 5.61788 0
M  V30 37606 H 3557.75 1.96378 2.31667 0
M  V30 37607 H 3555.34 1.01524 1.09605 0
M  V30 37608 H 3557.22 0.387735 4.19612 0
M  V30 37609 H 3555.89 -0.306597 3.22245 0
M  V30 37610 H 3554.8 2.00975 3.15531 0
M  V30 37611 H 3556.13 2.62759 4.16196 0
M  V30 37612 N 3557.79 -1.18464 1.03942 0
M  V30 37613 C 3558.73 -2.22053 0.629391 0
M  V30 37614 C 3559.7 -1.62104 -0.362159 0
M  V30 37615 O 3560.89 -1.89069 -0.256424 0
M  V30 37616 C 3558.03 -3.451 -0.00276822 0
M  V30 37617 C 3557.14 -4.19391 1.0361 0
M  V30 37618 C 3556.28 -5.29892 0.372585 0
M  V30 37619 C 3555.32 -5.95954 1.39663 0
M  V30 37620 N 3554.45 -6.97994 0.758176 0
M  V30 37621 H 3559.29 -2.56482 1.51727 0
M  V30 37622 H 3556.83 -1.26002 0.759065 0
M  V30 37623 H 3558.79 -4.15405 -0.386615 0
M  V30 37624 H 3557.42 -3.11294 -0.854169 0
M  V30 37625 H 3556.47 -3.47926 1.5379 0
M  V30 37626 H 3557.78 -4.64647 1.81395 0
M  V30 37627 H 3556.94 -6.06665 -0.0655354 0
M  V30 37628 H 3555.67 -4.85735 -0.437377 0
M  V30 37629 H 3554.68 -5.17922 1.8449 0
M  V30 37630 H 3555.9 -6.42193 2.20827 0
M  V30 37631 H 3553.85 -6.55992 -0.031502 0
M  V30 37632 H 3553.77 -7.41496 1.47376 0
M  V30 37633 H 3555.04 -7.78739 0.34441 0
M  V30 37634 N 3559.26 -0.818716 -1.34665 0
M  V30 37635 C 3560.2 -0.195166 -2.28368 0
M  V30 37636 C 3561.21 0.612535 -1.50837 0
M  V30 37637 O 3562.4 0.442906 -1.72918 0
M  V30 37638 C 3559.5 0.745353 -3.30602 0
M  V30 37639 C 3558.67 -0.0186077 -4.37396 0
M  V30 37640 C 3557.73 0.842207 -5.19416 0
M  V30 37641 O 3556.76 0.288721 -5.68467 0
M  V30 37642 N 3557.96 2.1626 -5.38713 0
M  V30 37643 H 3560.72 -1.00018 -2.82518 0
M  V30 37644 H 3558.28 -0.675288 -1.47144 0
M  V30 37645 H 3560.28 1.32573 -3.82369 0
M  V30 37646 H 3558.85 1.45113 -2.76877 0
M  V30 37647 H 3558.07 -0.780273 -3.86401 0
M  V30 37648 H 3559.35 -0.544664 -5.05876 0
M  V30 37649 H 3558.75 2.63607 -5.00528 0
M  V30 37650 H 3557.31 2.69193 -5.93614 0
M  V30 37651 N 3560.74 1.46803 -0.573299 0
M  V30 37652 C 3561.67 2.32996 0.153275 0
M  V30 37653 C 3562.65 1.44775 0.892988 0
M  V30 37654 O 3563.84 1.73607 0.870298 0
M  V30 37655 C 3560.97 3.26872 1.17354 0
M  V30 37656 C 3559.92 4.24461 0.549272 0
M  V30 37657 C 3559.25 5.07776 1.67533 0
M  V30 37658 C 3560.55 5.19829 -0.507451 0
M  V30 37659 H 3562.24 2.93994 -0.566356 0
M  V30 37660 H 3559.79 1.41373 -0.27381 0
M  V30 37661 H 3561.74 3.86022 1.69013 0
M  V30 37662 H 3560.47 2.63962 1.92333 0
M  V30 37663 H 3559.12 3.6656 0.0538498 0
M  V30 37664 H 3558.77 4.41258 2.41455 0
M  V30 37665 H 3558.47 5.73859 1.26333 0
M  V30 37666 H 3560 5.69788 2.19486 0
M  V30 37667 H 3561.41 5.73249 -0.0763069 0
M  V30 37668 H 3559.81 5.94203 -0.839243 0
M  V30 37669 H 3560.88 4.64331 -1.39731 0
M  V30 37670 N 3562.22 0.31058 1.54509 0
M  V30 37671 C 3563.47 -0.295285 1.99931 0
M  V30 37672 C 3563.79 -1.5367 1.20044 0
M  V30 37673 O 3563.06 -1.93607 0.298875 0
M  V30 37674 H 3561.64 -0.112098 0.738541 0
M  V30 37675 H 3564.3 0.424125 1.90229 0
M  V30 37676 H 3563.4 -0.560695 3.07022 0
M  V30 37677 N 3563.7 -1.57553 0.0384871 0
M  V30 37678 C 3564.63 -2.07702 -0.969149 0
M  V30 37679 C 3565.64 -1.00229 -1.28289 0
M  V30 37680 O 3566.83 -1.27826 -1.2459 0
M  V30 37681 C 3563.93 -2.49448 -2.2941 0
M  V30 37682 C 3563.11 -3.8011 -2.16415 0
M  V30 37683 C 3562.17 -4.08305 -3.31924 0
M  V30 37684 O 3561.19 -4.78417 -3.08392 0
M  V30 37685 N 3562.39 -3.59216 -4.56009 0
M  V30 37686 H 3565.16 -2.94773 -0.5412 0
M  V30 37687 H 3562.72 -1.61222 -0.148056 0
M  V30 37688 H 3564.71 -2.65395 -3.05528 0
M  V30 37689 H 3563.28 -1.67693 -2.63814 0
M  V30 37690 H 3562.5 -3.73868 -1.24966 0
M  V30 37691 H 3563.79 -4.65698 -2.04946 0
M  V30 37692 H 3563.19 -3.02512 -4.7802 0
M  V30 37693 H 3561.74 -3.80425 -5.29264 0
M  V30 37694 N 3565.18 0.234767 -1.55842 0
M  V30 37695 C 3566.42 0.962508 -1.78504 0
M  V30 37696 C 3566.76 1.84507 -0.605864 0
M  V30 37697 O 3566.03 1.90438 0.395413 0
M  V30 37698 C 3566.31 1.81272 -3.11147 0
M  V30 37699 C 3566.17 0.95753 -4.3949 0
M  V30 37700 C 3567.49 2.79298 -3.40119 0
M  V30 37701 H 3564.61 0.348489 -0.649403 0
M  V30 37702 H 3567.25 0.232207 -1.88576 0
M  V30 37703 H 3565.4 2.43536 -3.02692 0
M  V30 37704 H 3567.07 0.352645 -4.5995 0
M  V30 37705 H 3565.31 0.262378 -4.33006 0
M  V30 37706 H 3565.98 1.5865 -5.2871 0
M  V30 37707 H 3568.46 2.27169 -3.48616 0
M  V30 37708 H 3567.34 3.35898 -4.34124 0
M  V30 37709 H 3567.6 3.56374 -2.6163 0
M  V30 37710 N 3566.66 1.49427 0.500936 0
M  V30 37711 C 3567.59 1.60704 1.62017 0
M  V30 37712 C 3568.57 0.45612 1.56071 0
M  V30 37713 O 3569.75 0.671673 1.76127 0
M  V30 37714 C 3566.88 1.56204 3.0053 0
M  V30 37715 C 3565.92 2.76494 3.24736 0
M  V30 37716 S 3566.76 4.38164 3.07851 0
M  V30 37717 C 3567.91 4.36309 4.48759 0
M  V30 37718 H 3568.15 2.55384 1.52206 0
M  V30 37719 H 3565.68 1.38319 0.686098 0
M  V30 37720 H 3567.64 1.54293 3.804 0
M  V30 37721 H 3566.3 0.628121 3.07756 0
M  V30 37722 H 3565.49 2.69565 4.25853 0
M  V30 37723 H 3565.09 2.75818 2.52588 0
M  V30 37724 H 3567.38 4.08033 5.40847 0
M  V30 37725 H 3568.33 5.37704 4.60738 0
M  V30 37726 H 3568.74 3.66387 4.29442 0
M  V30 37727 N 3568.13 -0.751987 1.38502 0
M  V30 37728 C 3569.06 -1.8793 1.3858 0
M  V30 37729 C 3570.04 -1.68231 0.251483 0
M  V30 37730 O 3571.23 -1.88799 0.454803 0
M  V30 37731 C 3568.36 -3.25477 1.2117 0
M  V30 37732 C 3567.31 -3.59781 2.31823 0
M  V30 37733 C 3566.64 -4.96082 1.99517 0
M  V30 37734 C 3567.94 -3.64493 3.74088 0
M  V30 37735 H 3569.63 -1.88123 2.32917 0
M  V30 37736 H 3567.18 -0.903678 1.12114 0
M  V30 37737 H 3569.13 -4.03998 1.19849 0
M  V30 37738 H 3567.86 -3.25768 0.232957 0
M  V30 37739 H 3566.52 -2.8358 2.32332 0
M  V30 37740 H 3566.16 -4.92935 1.00122 0
M  V30 37741 H 3565.86 -5.20002 2.73626 0
M  V30 37742 H 3567.39 -5.7698 1.99817 0
M  V30 37743 H 3568.8 -4.33125 3.75601 0
M  V30 37744 H 3567.2 -3.99924 4.47416 0
M  V30 37745 H 3568.27 -2.64685 4.06288 0
M  V30 37746 N 3569.61 -1.23398 -0.980343 0
M  V30 37747 C 3570.54 -1.03964 -2.09078 0
M  V30 37748 C 3571.52 0.0434647 -1.70044 0
M  V30 37749 O 3572.71 -0.121189 -1.93821 0
M  V30 37750 C 3569.84 -0.630121 -3.41536 0
M  V30 37751 C 3568.79 -1.66058 -3.94473 0
M  V30 37752 C 3568.12 -1.1065 -5.23126 0
M  V30 37753 C 3569.42 -3.05361 -4.23736 0
M  V30 37754 H 3571.11 -1.96844 -2.25594 0
M  V30 37755 H 3568.66 -0.947829 -1.08408 0
M  V30 37756 H 3570.61 -0.481218 -4.18643 0
M  V30 37757 H 3569.33 0.334358 -3.24884 0
M  V30 37758 H 3567.99 -1.79747 -3.1951 0
M  V30 37759 H 3567.64 -0.133002 -5.02824 0
M  V30 37760 H 3567.34 -1.79501 -5.59511 0
M  V30 37761 H 3568.87 -0.96945 -6.02855 0
M  V30 37762 H 3570.28 -2.94973 -4.91593 0
M  V30 37763 H 3568.68 -3.71451 -4.71322 0
M  V30 37764 H 3569.75 -3.54349 -3.31006 0
M  V30 37765 N 3571.09 1.17911 -1.04569 0
M  V30 37766 C 3572.34 1.88295 -0.75317 0
M  V30 37767 C 3572.67 1.80455 0.71762 0
M  V30 37768 O 3571.94 1.20827 1.52417 0
M  V30 37769 C 3572.23 3.38576 -1.22632 0
M  V30 37770 C 3572.08 3.552 -2.75958 0
M  V30 37771 C 3573.4 4.32386 -0.820366 0
M  V30 37772 H 3570.52 0.68374 -0.275079 0
M  V30 37773 H 3573.16 1.38697 -1.29859 0
M  V30 37774 H 3571.31 3.80948 -0.762313 0
M  V30 37775 H 3572.98 3.21886 -3.30434 0
M  V30 37776 H 3571.22 2.97687 -3.15539 0
M  V30 37777 H 3571.9 4.60665 -3.04124 0
M  V30 37778 H 3574.37 3.97822 -1.21972 0
M  V30 37779 H 3573.25 5.36086 -1.17911 0
M  V30 37780 H 3573.51 4.41237 0.276128 0
M  V30 37781 N 3572.57 0.825847 1.34229 0
M  V30 37782 C 3573.5 0.264587 2.31996 0
M  V30 37783 C 3574.48 -0.620564 1.58376 0
M  V30 37784 O 3575.66 -0.546832 1.86342 0
M  V30 37785 C 3572.79 -0.571964 3.42558 0
M  V30 37786 C 3571.75 0.216294 4.27453 0
M  V30 37787 C 3571.07 -0.743185 5.2951 0
M  V30 37788 C 3572.37 1.42612 5.02453 0
M  V30 37789 H 3574.07 1.08144 2.79187 0
M  V30 37790 H 3571.61 0.521475 1.34226 0
M  V30 37791 H 3573.57 -0.974816 4.0997 0
M  V30 37792 H 3572.29 -1.4219 2.94023 0
M  V30 37793 H 3570.95 0.600549 3.61648 0
M  V30 37794 H 3570.6 -1.58916 4.77237 0
M  V30 37795 H 3570.3 -0.219961 5.87188 0
M  V30 37796 H 3571.82 -1.14383 5.99791 0
M  V30 37797 H 3573.24 1.09712 5.62704 0
M  V30 37798 H 3571.63 1.88519 5.6972 0
M  V30 37799 H 3572.7 2.20278 4.31979 0
M  V30 37800 N 3574.05 -1.46497 0.581077 0
M  V30 37801 C 3575.29 -2.04285 0.0686936 0
M  V30 37802 C 3575.65 -1.44298 -1.26658 0
M  V30 37803 O 3576.85 -1.93276 -1.86809 0
M  V30 37804 C 3575.12 -3.574 0.00219362 0
M  V30 37805 S 3576.68 -4.36457 -0.452851 0
M  V30 37806 H 3573.5 -0.710053 0.0366811 0
M  V30 37807 H 3576.1 -1.7956 0.773205 0
M  V30 37808 H 3574.8 -3.98577 0.977978 0
M  V30 37809 H 3574.34 -3.86659 -0.725139 0
M  V30 37810 H 3576.35 -4.6588 -1.70792 0
M  V30 37811 N 3575.52 -0.31877 -1.54343 0
M  V30 37812 C 3576.49 0.53664 -2.22829 0
M  V30 37813 C 3577.49 1.04733 -1.22015 0
M  V30 37814 O 3578.68 0.940523 -1.46628 0
M  V30 37815 C 3575.81 1.74488 -2.9286 0
M  V30 37816 H 3577 -0.0619852 -2.99836 0
M  V30 37817 H 3574.55 -0.0697961 -1.56144 0
M  V30 37818 H 3575.29 2.38286 -2.19977 0
M  V30 37819 H 3575.07 1.38615 -3.66781 0
M  V30 37820 H 3576.56 2.35219 -3.45053 0
M  V30 37821 N 3577 1.5753 -0.0468419 0
M  V30 37822 C 3578.25 1.92804 0.628835 0
M  V30 37823 C 3578.58 0.925113 1.70749 0
M  V30 37824 O 3577.86 -0.0495479 1.94437 0
M  V30 37825 C 3578.14 3.38481 1.22893 0
M  V30 37826 C 3577.99 4.4952 0.158628 0
M  V30 37827 C 3579.31 3.84465 2.14183 0
M  V30 37828 H 3576.43 0.70113 0.227125 0
M  V30 37829 H 3579.07 1.89694 -0.107722 0
M  V30 37830 H 3577.22 3.41262 1.85668 0
M  V30 37831 H 3578.89 4.58868 -0.473044 0
M  V30 37832 H 3577.14 4.30746 -0.513826 0
M  V30 37833 H 3577.81 5.48525 0.618449 0
M  V30 37834 H 3580.28 3.83533 1.61375 0
M  V30 37835 H 3579.16 4.87056 2.53117 0
M  V30 37836 H 3579.42 3.20975 3.04018 0
M  V30 37837 N 3578.48 -0.226499 1.55964 0
M  V30 37838 C 3579.41 -1.30401 1.88489 0
M  V30 37839 C 3580.43 -1.43291 0.772748 0
M  V30 37840 O 3581.61 -1.44277 1.05102 0
M  V30 37841 C 3578.71 -2.68023 2.07405 0
M  V30 37842 C 3577.89 -2.77143 3.38394 0
M  V30 37843 C 3576.95 -3.95746 3.46802 0
M  V30 37844 O 3575.97 -3.84316 4.19869 0
M  V30 37845 N 3577.17 -5.09832 2.77582 0
M  V30 37846 H 3579.94 -1.02828 2.81508 0
M  V30 37847 H 3577.5 -0.416553 1.56449 0
M  V30 37848 H 3579.49 -3.45738 2.1035 0
M  V30 37849 H 3578.06 -2.88218 1.21035 0
M  V30 37850 H 3577.28 -1.85944 3.4759 0
M  V30 37851 H 3578.57 -2.80202 4.24693 0
M  V30 37852 H 3577.97 -5.22013 2.17988 0
M  V30 37853 H 3576.53 -5.85607 2.86195 0
M  V30 37854 N 3579.96 -1.4969 -0.493005 0
M  V30 37855 C 3580.89 -1.69866 -1.60212 0
M  V30 37856 C 3581.87 -0.547391 -1.61052 0
M  V30 37857 O 3583.05 -0.784124 -1.77666 0
M  V30 37858 C 3580.18 -1.77258 -2.98659 0
M  V30 37859 C 3579.14 -2.92253 -3.12685 0
M  V30 37860 C 3578.46 -2.84766 -4.52562 0
M  V30 37861 C 3579.76 -4.3308 -2.91958 0
M  V30 37862 H 3581.46 -2.62725 -1.43582 0
M  V30 37863 H 3579 -1.2643 -0.689312 0
M  V30 37864 H 3580.96 -1.89957 -3.76157 0
M  V30 37865 H 3579.68 -0.810032 -3.16395 0
M  V30 37866 H 3578.34 -2.79169 -2.37614 0
M  V30 37867 H 3577.99 -1.86403 -4.67186 0
M  V30 37868 H 3577.69 -3.61953 -4.62887 0
M  V30 37869 H 3579.21 -2.99484 -5.3211 0
M  V30 37870 H 3580.63 -4.46804 -3.5922 0
M  V30 37871 H 3579.02 -5.11549 -3.13747 0
M  V30 37872 H 3580.09 -4.46969 -1.88007 0
M  V30 37873 N 3581.44 0.744631 -1.38899 0
M  V30 37874 C 3582.37 1.87193 -1.39575 0
M  V30 37875 C 3583.35 1.68095 -0.260402 0
M  V30 37876 O 3584.53 1.88555 -0.464809 0
M  V30 37877 C 3581.66 3.2483 -1.22895 0
M  V30 37878 C 3580.62 3.58546 -2.33727 0
M  V30 37879 C 3579.94 4.95017 -2.02145 0
M  V30 37880 C 3581.24 3.62504 -3.76016 0
M  V30 37881 H 3582.94 1.86885 -2.33911 0
M  V30 37882 H 3580.48 0.89772 -1.12592 0
M  V30 37883 H 3582.44 4.03356 -1.2199 0
M  V30 37884 H 3581.16 3.2564 -0.25023 0
M  V30 37885 H 3579.82 2.82344 -2.33833 0
M  V30 37886 H 3579.47 4.92397 -1.02735 0
M  V30 37887 H 3579.17 5.18544 -2.7638 0
M  V30 37888 H 3580.69 5.75912 -2.02874 0
M  V30 37889 H 3582.1 4.31127 -3.77892 0
M  V30 37890 H 3580.5 3.97545 -4.49531 0
M  V30 37891 H 3581.57 2.62526 -4.07686 0
M  V30 37892 N 3582.91 1.23916 0.973785 0
M  V30 37893 C 3583.84 1.05071 2.08524 0
M  V30 37894 C 3584.83 -0.0344462 1.70065 0
M  V30 37895 O 3586.01 0.131466 1.93755 0
M  V30 37896 C 3583.14 0.648225 3.41197 0
M  V30 37897 C 3582.09 1.68147 3.93587 0
M  V30 37898 C 3581.42 1.13423 5.22532 0
M  V30 37899 C 3582.72 3.07604 4.2211 0
M  V30 37900 H 3584.41 1.98038 2.24547 0
M  V30 37901 H 3581.96 0.953565 1.07903 0
M  V30 37902 H 3583.91 0.503413 4.18382 0
M  V30 37903 H 3582.64 -0.317124 3.25057 0
M  V30 37904 H 3581.3 1.81439 3.18552 0
M  V30 37905 H 3580.94 0.159666 5.02747 0
M  V30 37906 H 3580.64 1.82466 5.58552 0
M  V30 37907 H 3582.17 1.00141 6.02332 0
M  V30 37908 H 3583.58 2.97576 4.90022 0
M  V30 37909 H 3581.98 3.73945 4.69346 0
M  V30 37910 H 3583.05 3.56099 3.29122 0
M  V30 37911 N 3584.39 -1.17355 1.05193 0
M  V30 37912 C 3585.33 -2.20246 0.597246 0
M  V30 37913 C 3586.3 -1.58236 -0.374167 0
M  V30 37914 O 3587.49 -1.86321 -0.285782 0
M  V30 37915 C 3584.61 -3.38466 -0.125952 0
M  V30 37916 C 3583.66 -4.18921 0.800475 0
M  V30 37917 S 3584.49 -4.84082 2.28964 0
M  V30 37918 C 3585.65 -6.05691 1.57762 0
M  V30 37919 H 3585.88 -2.58473 1.46897 0
M  V30 37920 H 3583.42 -1.2797 0.863896 0
M  V30 37921 H 3585.37 -4.06972 -0.537014 0
M  V30 37922 H 3584.03 -2.98626 -0.973718 0
M  V30 37923 H 3583.23 -5.03424 0.240842 0
M  V30 37924 H 3582.83 -3.55851 1.1509 0
M  V30 37925 H 3585.12 -6.718 0.876957 0
M  V30 37926 H 3586.06 -6.66183 2.40013 0
M  V30 37927 H 3586.47 -5.54362 1.06502 0
M  V30 37928 N 3585.87 -0.832954 -1.3379 0
M  V30 37929 C 3587.29 -0.519981 -1.50892 0
M  V30 37930 C 3587.49 0.953888 -1.77491 0
M  V30 37931 O 3586.54 1.73795 -1.83171 0
M  V30 37932 C 3587.86 -1.3882 -2.66739 0
M  V30 37933 C 3589.4 -1.38636 -2.80623 0
M  V30 37934 C 3589.88 -2.23929 -3.99524 0
M  V30 37935 N 3591.37 -2.21607 -4.06749 0
M  V30 37936 C 3592.1 -2.84344 -4.97932 0
M  V30 37937 N 3591.6 -3.56111 -5.9427 0
M  V30 37938 N 3593.39 -2.73845 -4.90882 0
M  V30 37939 H 3585.54 -1.78712 -1.14785 0
M  V30 37940 H 3587.81 -0.762118 -0.563809 0
M  V30 37941 H 3587.51 -2.4353 -2.53744 0
M  V30 37942 H 3587.39 -1.06002 -3.61999 0
M  V30 37943 H 3589.77 -0.347002 -2.93053 0
M  V30 37944 H 3589.86 -1.75457 -1.86141 0
M  V30 37945 H 3589.5 -3.2792 -3.87854 0
M  V30 37946 H 3589.43 -1.84453 -4.93239 0
M  V30 37947 H 3591.92 -1.69412 -3.37799 0
M  V30 37948 H 3592.23 -4.01202 -6.60497 0
M  V30 37949 H 3590.58 -3.60218 -5.94364 0
M  V30 37950 H 3593.77 -2.17346 -4.14582 0
M  V30 37951 H 3593.94 -3.23024 -5.61747 0
M  V30 37952 N 3587.35 1.46186 -0.588837 0
M  V30 37953 C 3588.58 2.06735 -0.0825664 0
M  V30 37954 C 3588.99 1.4366 1.22504 0
M  V30 37955 O 3588.35 0.544053 1.74202 0
M  V30 37956 C 3588.4 3.61404 0.0834375 0
M  V30 37957 O 3588.12 4.22121 -1.17242 0
M  V30 37958 C 3589.62 4.38896 0.623348 0
M  V30 37959 H 3586.84 0.668289 -0.0602531 0
M  V30 37960 H 3589.39 1.87721 -0.811248 0
M  V30 37961 H 3587.54 3.79825 0.762365 0
M  V30 37962 H 3587.95 5.15069 -0.990138 0
M  V30 37963 H 3589.43 5.47687 0.688659 0
M  V30 37964 H 3589.91 4.07365 1.64165 0
M  V30 37965 H 3590.51 4.25295 -0.0209121 0
M  V30 37966 N 3588.83 0.32695 1.54171 0
M  V30 37967 C 3590.05 -0.279195 2.05512 0
M  V30 37968 C 3590.48 -1.44739 1.20134 0
M  V30 37969 O 3589.83 -1.80065 0.211223 0
M  V30 37970 C 3589.88 -0.6882 3.53972 0
M  V30 37971 O 3588.99 -1.79018 3.71519 0
M  V30 37972 H 3588.33 -0.049771 0.662132 0
M  V30 37973 H 3590.86 0.476344 1.98978 0
M  V30 37974 H 3590.87 -0.969932 3.96303 0
M  V30 37975 H 3589.54 0.166205 4.15568 0
M  V30 37976 H 3588.12 -1.507 3.41092 0
M  V30 37977 N 3590.3 -1.57503 0.0551955 0
M  V30 37978 C 3591.55 -1.93953 -0.612679 0
M  V30 37979 C 3591.91 -0.933919 -1.68213 0
M  V30 37980 O 3591.2 0.0463128 -1.91544 0
M  V30 37981 C 3591.39 -3.34869 -1.24889 0
M  V30 37982 C 3591.22 -4.49045 -0.242587 0
M  V30 37983 C 3589.99 -5.05024 0.166869 0
M  V30 37984 C 3592.19 -5.11729 0.513595 0
M  V30 37985 N 3590.17 -6.02733 1.16561 0
M  V30 37986 C 3591.54 -6.04781 1.3653 0
M  V30 37987 C 3593.6 -4.9461 0.571471 0
M  V30 37988 C 3592.3 -6.82552 2.26971 0
M  V30 37989 C 3594.33 -5.7301 1.46332 0
M  V30 37990 C 3593.69 -6.65698 2.30274 0
M  V30 37991 H 3589.79 -0.757112 -0.19572 0
M  V30 37992 H 3592.37 -1.94276 0.128466 0
M  V30 37993 H 3590.54 -3.35316 -1.96004 0
M  V30 37994 H 3592.27 -3.58598 -1.87589 0
M  V30 37995 H 3589.03 -4.73121 -0.212908 0
M  V30 37996 H 3589.45 -6.56282 1.662 0
M  V30 37997 H 3594.1 -4.22753 -0.0632921 0
M  V30 37998 H 3591.81 -7.53697 2.9149 0
M  V30 37999 H 3595.4 -5.6179 1.51272 0
M  V30 38000 H 3594.28 -7.25305 2.98165 0
M  V30 38001 N 3591.78 0.218225 -1.56082 0
M  V30 38002 C 3592.75 1.25399 -1.91854 0
M  V30 38003 C 3593.75 1.39635 -0.797423 0
M  V30 38004 O 3594.94 1.37843 -1.06513 0
M  V30 38005 C 3592.07 2.62726 -2.17227 0
M  V30 38006 H 3593.26 0.948832 -2.84495 0
M  V30 38007 H 3590.81 0.458782 -1.49415 0
M  V30 38008 H 3591.55 2.98335 -1.27149 0
M  V30 38009 H 3591.33 2.5377 -2.98904 0
M  V30 38010 H 3592.82 3.37461 -2.45987 0
M  V30 38011 N 3593.26 1.4995 0.485059 0
M  V30 38012 C 3594.19 1.70713 1.59309 0
M  V30 38013 C 3595.17 0.555924 1.60759 0
M  V30 38014 O 3596.36 0.793535 1.77247 0
M  V30 38015 C 3593.49 1.78839 2.97714 0
M  V30 38016 C 3592.44 2.93907 3.11131 0
M  V30 38017 C 3591.77 2.87162 4.51046 0
M  V30 38018 C 3593.07 4.34622 2.89657 0
M  V30 38019 H 3594.76 2.63483 1.42187 0
M  V30 38020 H 3592.31 1.26794 0.682598 0
M  V30 38021 H 3594.26 1.9195 3.75144 0
M  V30 38022 H 3592.98 0.8268 3.15961 0
M  V30 38023 H 3591.64 2.80425 2.3613 0
M  V30 38024 H 3591.29 1.88878 4.66191 0
M  V30 38025 H 3590.99 3.64402 4.60961 0
M  V30 38026 H 3592.52 3.02302 5.30515 0
M  V30 38027 H 3593.93 4.48703 3.56845 0
M  V30 38028 H 3592.33 5.13206 3.1103 0
M  V30 38029 H 3593.4 4.4796 1.85634 0
M  V30 38030 N 3594.74 -0.737255 1.39292 0
M  V30 38031 C 3595.98 -1.50944 1.37824 0
M  V30 38032 C 3596.34 -1.91981 -0.0268887 0
M  V30 38033 O 3597.54 -2.68283 -0.166563 0
M  V30 38034 C 3595.82 -2.71737 2.3215 0
M  V30 38035 S 3597.37 -3.61414 2.48849 0
M  V30 38036 H 3594.19 -0.516339 0.488789 0
M  V30 38037 H 3596.79 -0.864065 1.75369 0
M  V30 38038 H 3595.5 -2.39725 3.33107 0
M  V30 38039 H 3595.03 -3.41205 1.95812 0
M  V30 38040 H 3597.04 -4.65261 1.72472 0
M  V30 38041 N 3596.22 -1.24431 -0.967199 0
M  V30 38042 C 3597.13 -1.0542 -2.0958 0
M  V30 38043 C 3598.14 0.00513068 -1.73999 0
M  V30 38044 O 3599.32 -0.19315 -2.00472 0
M  V30 38045 C 3596.38 -0.661756 -3.40326 0
M  V30 38046 C 3595.45 -1.79763 -3.89851 0
M  V30 38047 C 3594.68 -1.42381 -5.14357 0
M  V30 38048 O 3594.9 -0.313854 -5.69536 0
M  V30 38049 O 3593.84 -2.24962 -5.58279 0
M  V30 38050 H 3597.66 -2.00038 -2.28513 0
M  V30 38051 H 3595.25 -1.03255 -1.07976 0
M  V30 38052 H 3597.13 -0.454443 -4.18942 0
M  V30 38053 H 3595.8 0.255291 -3.22692 0
M  V30 38054 H 3594.71 -2.0597 -3.12294 0
M  V30 38055 H 3596.04 -2.69347 -4.11963 0
M  V30 38056 N 3597.7 1.16795 -1.05814 0
M  V30 38057 C 3598.94 1.87486 -0.773099 0
M  V30 38058 C 3599.27 1.81206 0.69844 0
M  V30 38059 O 3598.55 1.22437 1.51127 0
M  V30 38060 C 3598.83 3.37256 -1.26216 0
M  V30 38061 C 3598.69 3.52253 -2.7971 0
M  V30 38062 C 3600 4.31492 -0.86618 0
M  V30 38063 H 3597.12 0.680784 -0.282316 0
M  V30 38064 H 3599.77 1.37311 -1.31322 0
M  V30 38065 H 3597.92 3.80118 -0.802675 0
M  V30 38066 H 3599.59 3.18364 -3.3383 0
M  V30 38067 H 3597.83 2.94324 -3.18679 0
M  V30 38068 H 3598.5 4.57414 -3.08993 0
M  V30 38069 H 3600.98 3.96505 -1.26185 0
M  V30 38070 H 3599.85 5.34805 -1.23591 0
M  V30 38071 H 3600.11 4.41505 0.229313 0
M  V30 38072 N 3599.17 0.840037 1.33346 0
M  V30 38073 C 3600.1 0.289179 2.31702 0
M  V30 38074 C 3601.08 -0.603731 1.59025 0
M  V30 38075 O 3602.27 -0.527038 1.86912 0
M  V30 38076 C 3599.4 -0.535599 3.43145 0
M  V30 38077 C 3598.35 0.261619 4.272 0
M  V30 38078 C 3597.68 -0.686982 5.30268 0
M  V30 38079 C 3598.98 1.47933 5.00912 0
M  V30 38080 H 3600.67 1.11099 2.78024 0
M  V30 38081 H 3598.22 0.535682 1.33665 0
M  V30 38082 H 3600.17 -0.931279 4.10981 0
M  V30 38083 H 3598.9 -1.39063 2.95515 0
M  V30 38084 H 3597.56 0.638872 3.6099 0
M  V30 38085 H 3597.2 -1.53845 4.78895 0
M  V30 38086 H 3596.9 -0.15767 5.87388 0
M  V30 38087 H 3598.43 -1.08015 6.0097 0
M  V30 38088 H 3599.84 1.15674 5.61509 0
M  V30 38089 H 3598.24 1.94551 5.67688 0
M  V30 38090 H 3599.31 2.24847 4.29618 0
M  V30 38091 N 3600.65 -1.45872 0.596582 0
M  V30 38092 C 3601.88 -2.06688 0.0935289 0
M  V30 38093 C 3602.29 -1.44307 -1.21741 0
M  V30 38094 O 3601.65 -0.553284 -1.73911 0
M  V30 38095 C 3601.7 -3.61443 -0.0642702 0
M  V30 38096 O 3601.42 -4.21493 1.19479 0
M  V30 38097 C 3602.92 -4.3922 -0.600064 0
M  V30 38098 H 3600.14 -0.66796 0.0637963 0
M  V30 38099 H 3602.69 -1.87288 0.821192 0
M  V30 38100 H 3600.84 -3.80224 -0.742211 0
M  V30 38101 H 3601.26 -5.14537 1.01744 0
M  V30 38102 H 3602.73 -5.48045 -0.659604 0
M  V30 38103 H 3603.21 -4.0823 -1.62002 0
M  V30 38104 H 3603.81 -4.25278 0.0434662 0
M  V30 38105 N 3602.13 -0.335122 -1.53996 0
M  V30 38106 C 3603.06 0.518047 -2.27681 0
M  V30 38107 C 3604.04 1.1097 -1.28917 0
M  V30 38108 O 3605.23 1.13267 -1.57747 0
M  V30 38109 C 3602.36 1.67334 -3.0433 0
M  V30 38110 C 3601.31 1.21043 -4.10527 0
M  V30 38111 C 3600.64 2.45358 -4.75083 0
M  V30 38112 C 3601.94 0.316963 -5.21337 0
M  V30 38113 H 3603.63 -0.0966195 -2.99244 0
M  V30 38114 H 3601.18 -0.0479095 -1.4392 0
M  V30 38115 H 3603.13 2.27658 -3.54612 0
M  V30 38116 H 3601.85 2.31477 -2.30403 0
M  V30 38117 H 3600.51 0.63006 -3.61145 0
M  V30 38118 H 3600.16 3.0789 -3.97759 0
M  V30 38119 H 3599.86 2.1507 -5.46826 0
M  V30 38120 H 3601.38 3.06423 -5.28145 0
M  V30 38121 H 3602.8 0.826806 -5.67307 0
M  V30 38122 H 3601.19 0.106352 -6.00006 0
M  V30 38123 H 3602.26 -0.649153 -4.80535 0
M  V30 38124 N 3603.61 1.57472 -0.0635475 0
M  V30 38125 C 3604.57 2.11137 0.891844 0
M  V30 38126 C 3605.57 1.0336 1.2318 0
M  V30 38127 O 3606.76 1.29383 1.16644 0
M  V30 38128 C 3603.89 2.60588 2.19788 0
M  V30 38129 H 3605.09 2.96853 0.426408 0
M  V30 38130 H 3602.64 1.55201 0.185042 0
M  V30 38131 H 3603.37 1.78301 2.70886 0
M  V30 38132 H 3603.16 3.39359 1.96413 0
M  V30 38133 H 3604.65 3.02212 2.88198 0
M  V30 38134 N 3605.09 -0.209945 1.56195 0
M  V30 38135 C 3606.31 -0.949196 1.83842 0
M  V30 38136 C 3606.73 -1.77471 0.644172 0
M  V30 38137 O 3606.09 -1.78344 -0.387245 0
M  V30 38138 C 3606.14 -1.85739 3.10134 0
M  V30 38139 O 3605.86 -1.06523 4.24952 0
M  V30 38140 C 3607.36 -2.70957 3.50852 0
M  V30 38141 H 3604.58 -0.277652 0.610861 0
M  V30 38142 H 3607.12 -0.221672 2.03295 0
M  V30 38143 H 3605.28 -2.53872 2.92622 0
M  V30 38144 H 3605.69 -1.68278 4.96772 0
M  V30 38145 H 3607.17 -3.30365 4.42225 0
M  V30 38146 H 3607.64 -3.43931 2.73145 0
M  V30 38147 H 3608.25 -2.08219 3.70843 0
M  V30 38148 N 3606.56 -1.50205 -0.4771 0
M  V30 38149 C 3607.81 -1.60576 -1.22719 0
M  V30 38150 C 3608.13 -0.30536 -1.92594 0
M  V30 38151 O 3607.4 0.67681 -1.83837 0
M  V30 38152 H 3605.98 -0.591699 -0.455962 0
M  V30 38153 H 3608.64 -1.86953 -0.550883 0
M  V30 38154 H 3607.74 -2.41389 -1.97833 0
M  V30 38155 N 3608.04 0.729857 -1.39681 0
M  V30 38156 C 3609.45 1.30837 -1.33187 0
M  V30 38157 C 3609.8 1.962 0.0013768 0
M  V30 38158 O 3608.93 1.96637 0.903489 0
M  V30 38159 C 3609.52 2.37909 -2.41215 0
M  V30 38160 C 3608.08 2.9142 -2.38225 0
M  V30 38161 C 3607.23 1.65045 -2.22835 0
M  V30 38162 H 3610.18 0.526996 -1.49694 0
M  V30 38163 H 3610.2 3.1842 -2.083 0
M  V30 38164 H 3609.71 1.90307 -3.38238 0
M  V30 38165 H 3607.82 3.43289 -1.44856 0
M  V30 38166 H 3607.93 3.44185 -3.33277 0
M  V30 38167 H 3606.29 1.89575 -1.70098 0
M  V30 38168 H 3607.08 1.19488 -3.21835 0
M  V30 38169 N 3609.52 1.24942 0.960587 0
M  V30 38170 C 3610.77 1.08734 1.69882 0
M  V30 38171 C 3611.08 -0.372568 1.92019 0
M  V30 38172 O 3612.29 -0.654972 2.63481 0
M  V30 38173 C 3610.74 1.89755 3.05812 0
M  V30 38174 C 3610.35 3.40201 2.91492 0
M  V30 38175 C 3612.1 1.82099 3.83458 0
M  V30 38176 C 3610 4.13539 4.22776 0
M  V30 38177 H 3608.93 0.403292 0.63708 0
M  V30 38178 H 3611.58 1.49086 1.06984 0
M  V30 38179 H 3609.97 1.42223 3.69579 0
M  V30 38180 H 3611.14 3.95364 2.36693 0
M  V30 38181 H 3609.46 3.48886 2.27305 0
M  V30 38182 H 3612.05 2.3419 4.80686 0
M  V30 38183 H 3612.4 0.787669 4.0878 0
M  V30 38184 H 3612.93 2.2735 3.26431 0
M  V30 38185 H 3609.67 5.1726 4.02644 0
M  V30 38186 H 3609.19 3.6316 4.77362 0
M  V30 38187 H 3610.87 4.20929 4.91353 0
M  V30 38188 N 3611 -1.16233 1.06432 0
M  V30 38189 C 3612.23 -1.90695 0.802677 0
M  V30 38190 C 3612.64 -1.77509 -0.643113 0
M  V30 38191 O 3612 -1.12068 -1.44038 0
M  V30 38192 C 3612.05 -3.41355 1.1899 0
M  V30 38193 O 3611.77 -3.54149 2.57896 0
M  V30 38194 C 3613.27 -4.32864 0.956208 0
M  V30 38195 H 3610.49 -0.604663 0.290901 0
M  V30 38196 H 3613.04 -1.47323 1.41832 0
M  V30 38197 H 3611.19 -3.82426 0.61877 0
M  V30 38198 H 3611.6 -4.47584 2.73439 0
M  V30 38199 H 3613.08 -5.37031 1.27676 0
M  V30 38200 H 3613.56 -4.39067 -0.107984 0
M  V30 38201 H 3614.16 -3.97524 1.51179 0
M  V30 38202 N 3612.48 -0.847097 -1.32899 0
M  V30 38203 C 3613.7 -0.460533 -2.01709 0
M  V30 38204 C 3614.12 0.94062 -1.637 0
M  V30 38205 O 3613.48 1.6126 -0.854483 0
M  V30 38206 C 3613.53 -0.581171 -3.56798 0
M  V30 38207 O 3613.25 -1.92712 -3.93438 0
M  V30 38208 C 3614.75 -0.19263 -4.42881 0
M  V30 38209 H 3611.97 -0.181864 -0.645884 0
M  V30 38210 H 3614.51 -1.14195 -1.69646 0
M  V30 38211 H 3612.67 0.0524243 -3.87365 0
M  V30 38212 H 3613.08 -1.9185 -4.88154 0
M  V30 38213 H 3614.56 -0.328066 -5.51024 0
M  V30 38214 H 3615.03 0.866239 -4.30573 0
M  V30 38215 H 3615.64 -0.800992 -4.17689 0
M  V30 38216 N 3613.95 1.45554 -0.604309 0
M  V30 38217 C 3614.88 2.33269 0.103818 0
M  V30 38218 C 3615.87 1.46636 0.862078 0
M  V30 38219 O 3617.05 1.75414 0.833278 0
M  V30 38220 C 3614.18 3.29288 1.10394 0
M  V30 38221 C 3613.13 4.2553 0.459114 0
M  V30 38222 C 3612.46 5.11216 1.56725 0
M  V30 38223 C 3613.76 5.18636 -0.6176 0
M  V30 38224 H 3615.45 2.92727 -0.62859 0
M  V30 38225 H 3613 1.4076 -0.303735 0
M  V30 38226 H 3614.95 3.8952 1.60787 0
M  V30 38227 H 3613.68 2.67982 1.8669 0
M  V30 38228 H 3612.34 3.66592 -0.0239153 0
M  V30 38229 H 3611.98 4.4628 2.32041 0
M  V30 38230 H 3611.68 5.76409 1.14132 0
M  V30 38231 H 3613.21 5.74315 2.07351 0
M  V30 38232 H 3614.62 5.72958 -0.197884 0
M  V30 38233 H 3613.02 5.92289 -0.965094 0
M  V30 38234 H 3614.09 4.61262 -1.49549 0
M  V30 38235 N 3615.43 0.343284 1.53816 0
M  V30 38236 C 3616.68 -0.246362 2.01902 0
M  V30 38237 C 3617.03 -1.48219 1.22674 0
M  V30 38238 O 3616.33 -1.89141 0.305965 0
M  V30 38239 C 3616.52 -0.613181 3.52101 0
M  V30 38240 C 3616.35 0.58555 4.45872 0
M  V30 38241 C 3615.12 1.09078 4.93386 0
M  V30 38242 C 3617.32 1.44392 4.93615 0
M  V30 38243 N 3615.3 2.25186 5.71108 0
M  V30 38244 C 3616.67 2.45192 5.69457 0
M  V30 38245 C 3618.73 1.4694 4.75724 0
M  V30 38246 C 3617.43 3.48368 6.29311 0
M  V30 38247 C 3619.45 2.48997 5.36428 0
M  V30 38248 C 3618.82 3.48522 6.12137 0
M  V30 38249 H 3614.92 -0.0534628 0.78017 0
M  V30 38250 H 3617.5 0.482789 1.88619 0
M  V30 38251 H 3615.67 -1.31144 3.6559 0
M  V30 38252 H 3617.4 -1.18599 3.86932 0
M  V30 38253 H 3614.16 0.658906 4.68994 0
M  V30 38254 H 3614.58 2.83808 6.1464 0
M  V30 38255 H 3619.22 0.713552 4.16735 0
M  V30 38256 H 3616.94 4.24847 6.87409 0
M  V30 38257 H 3620.53 2.51794 5.24491 0
M  V30 38258 H 3619.41 4.26199 6.58274 0
M  V30 38259 N 3616.91 -1.57436 0.0718977 0
M  V30 38260 C 3617.82 -2.1623 -0.910039 0
M  V30 38261 C 3618.84 -1.1255 -1.32697 0
M  V30 38262 O 3620.01 -1.44816 -1.39965 0
M  V30 38263 C 3617.08 -2.71241 -2.15938 0
M  V30 38264 C 3616.14 -3.89795 -1.79885 0
M  V30 38265 C 3615.37 -4.42173 -2.98862 0
M  V30 38266 O 3615.59 -3.93553 -4.12883 0
M  V30 38267 O 3614.53 -5.33503 -2.78673 0
M  V30 38268 H 3618.35 -3.00497 -0.439917 0
M  V30 38269 H 3615.94 -1.48633 -0.151178 0
M  V30 38270 H 3617.82 -3.065 -2.89199 0
M  V30 38271 H 3616.5 -1.90034 -2.62047 0
M  V30 38272 H 3615.4 -3.5939 -1.03875 0
M  V30 38273 H 3616.74 -4.72295 -1.38558 0
M  V30 38274 N 3618.39 0.201658 -1.56305 0
M  V30 38275 C 3619.64 0.921238 -1.79882 0
M  V30 38276 C 3619.96 1.84064 -0.643841 0
M  V30 38277 O 3619.23 1.92958 0.338205 0
M  V30 38278 H 3617.81 0.343164 -0.663512 0
M  V30 38279 H 3620.47 0.208741 -1.93779 0
M  V30 38280 H 3619.57 1.51626 -2.72793 0
M  V30 38281 N 3619.87 1.50456 0.469128 0
M  V30 38282 C 3621.09 1.65577 1.24896 0
M  V30 38283 C 3621.52 0.339614 1.85009 0
M  V30 38284 O 3620.87 -0.696745 1.67377 0
M  V30 38285 C 3620.92 2.75045 2.332 0
M  V30 38286 O 3620.03 2.36435 3.37894 0
M  V30 38287 H 3619.37 0.553126 0.367353 0
M  V30 38288 H 3621.9 1.96843 0.558048 0
M  V30 38289 H 3621.91 2.98181 2.78482 0
M  V30 38290 H 3620.58 3.70567 1.88819 0
M  V30 38291 H 3619.16 2.23753 2.9831 0
M  V30 38292 N 3621.34 -0.722439 1.40066 0
M  V30 38293 C 3622.76 -1.30128 1.33879 0
M  V30 38294 C 3623.11 -1.96198 0.00902818 0
M  V30 38295 O 3622.23 -1.97113 -0.893048 0
M  V30 38296 C 3622.83 -2.36626 2.42473 0
M  V30 38297 C 3621.39 -2.90153 2.39767 0
M  V30 38298 C 3620.53 -1.63861 2.23707 0
M  V30 38299 H 3623.48 -0.51905 1.49972 0
M  V30 38300 H 3623.5 -3.17311 2.09985 0
M  V30 38301 H 3623.02 -1.88511 3.39242 0
M  V30 38302 H 3621.12 -3.42516 1.46675 0
M  V30 38303 H 3621.23 -3.42413 3.35098 0
M  V30 38304 H 3619.59 -1.88671 1.71101 0
M  V30 38305 H 3620.38 -1.1778 3.22464 0
M  V30 38306 N 3622.82 -1.2545 -0.953947 0
M  V30 38307 C 3624.07 -1.10021 -1.69528 0
M  V30 38308 C 3624.39 0.359352 -1.9166 0
M  V30 38309 O 3623.66 1.25503 -1.50419 0
M  V30 38310 H 3622.24 -0.404147 -0.628231 0
M  V30 38311 H 3624.9 -1.57583 -1.14689 0
M  V30 38312 H 3624 -1.60905 -2.67424 0
M  V30 38313 N 3624.3 1.15667 -1.07047 0
M  V30 38314 C 3625.25 2.20306 -0.688043 0
M  V30 38315 C 3626.22 1.63007 0.319052 0
M  V30 38316 O 3627.4 1.89682 0.206206 0
M  V30 38317 C 3624.54 3.44986 -0.0887299 0
M  V30 38318 C 3623.66 4.16497 -1.14693 0
M  V30 38319 C 3622.79 5.28718 -0.512945 0
M  V30 38320 C 3621.83 5.92041 -1.55415 0
M  V30 38321 N 3620.97 6.95739 -0.94297 0
M  V30 38322 H 3625.81 2.52369 -1.58474 0
M  V30 38323 H 3623.34 1.23946 -0.792206 0
M  V30 38324 H 3625.3 4.16284 0.276342 0
M  V30 38325 H 3623.93 3.13449 0.771335 0
M  V30 38326 H 3622.98 3.43726 -1.62961 0
M  V30 38327 H 3624.3 4.59675 -1.93651 0
M  V30 38328 H 3623.45 6.06625 -0.0953341 0
M  V30 38329 H 3622.19 4.86724 0.308439 0
M  V30 38330 H 3621.19 5.12849 -1.98157 0
M  V30 38331 H 3622.42 6.36113 -2.37776 0
M  V30 38332 H 3620.37 6.55845 -0.142434 0
M  V30 38333 H 3620.28 7.37328 -1.66983 0
M  V30 38334 H 3621.55 7.77552 -0.550758 0
M  V30 38335 N 3625.78 0.854133 1.32447 0
M  V30 38336 C 3627.03 0.457258 1.9727 0
M  V30 38337 C 3627.35 -0.987001 1.67596 0
M  V30 38338 O 3626.61 -1.70742 0.956331 0
M  V30 38339 C 3626.91 0.642561 3.51576 0
M  V30 38340 C 3626.57 2.05721 4.01235 0
M  V30 38341 C 3625.24 2.44412 4.14507 0
M  V30 38342 C 3627.59 2.98053 4.27567 0
M  V30 38343 C 3624.92 3.74709 4.51454 0
M  V30 38344 C 3627.27 4.27847 4.65972 0
M  V30 38345 C 3625.93 4.66474 4.7745 0
M  V30 38346 H 3625.2 0.167322 0.721862 0
M  V30 38347 H 3627.85 1.08409 1.5786 0
M  V30 38348 H 3626.15 -0.0675018 3.91742 0
M  V30 38349 H 3627.85 0.315543 3.99757 0
M  V30 38350 H 3624.44 1.74676 3.9139 0
M  V30 38351 H 3628.63 2.69393 4.16823 0
M  V30 38352 H 3623.88 4.0442 4.58535 0
M  V30 38353 H 3628.06 4.99455 4.85301 0
M  V30 38354 H 3625.68 5.67481 5.05835 0
M  V30 38355 N 3627.26 -1.45231 0.61202 0
M  V30 38356 C 3628.5 -2.0306 0.117554 0
M  V30 38357 C 3628.86 -1.47134 -1.23973 0
M  V30 38358 O 3628.15 -0.638281 -1.80656 0
M  V30 38359 C 3628.35 -3.57392 0.0243989 0
M  V30 38360 C 3628.17 -4.28288 1.37111 0
M  V30 38361 C 3626.94 -4.66034 1.95295 0
M  V30 38362 C 3629.14 -4.59963 2.30084 0
M  V30 38363 N 3627.12 -5.2181 3.234 0
M  V30 38364 C 3628.5 -5.16618 3.42791 0
M  V30 38365 C 3630.55 -4.41904 2.29402 0
M  V30 38366 C 3629.25 -5.57118 4.54985 0
M  V30 38367 C 3631.28 -4.8344 3.40646 0
M  V30 38368 C 3630.64 -5.40192 4.52075 0
M  V30 38369 H 3626.74 -0.777202 0.0864893 0
M  V30 38370 H 3629.32 -1.7699 0.811341 0
M  V30 38371 H 3627.5 -3.83114 -0.638619 0
M  V30 38372 H 3629.23 -4.01877 -0.477134 0
M  V30 38373 H 3625.98 -4.49732 1.48451 0
M  V30 38374 H 3626.41 -5.54192 3.88844 0
M  V30 38375 H 3631.05 -3.97337 1.44511 0
M  V30 38376 H 3628.77 -6.0065 5.40597 0
M  V30 38377 H 3632.35 -4.71196 3.41271 0
M  V30 38378 H 3631.23 -5.71741 5.36733 0
M  V30 38379 N 3628.74 -0.351436 -1.53632 0
M  V30 38380 C 3629.68 0.516943 -2.26783 0
M  V30 38381 C 3630.68 1.09534 -1.29223 0
M  V30 38382 O 3631.88 1.04017 -1.46903 0
M  V30 38383 H 3628.26 0.185404 -0.728786 0
M  V30 38384 H 3630.23 -0.121961 -2.98151 0
M  V30 38385 C 3628.98 1.65204 -3.05946 0
M  V30 38386 H 3628.3 1.21626 -3.80851 0
M  V30 38387 H 3629.74 2.23466 -3.60332 0
M  V30 38388 C 3628.2 2.58611 -2.15922 0
M  V30 38389 O 3628.73 3.61064 -1.76055 0
M  V30 38390 N 3626.94 2.27475 -1.80841 0
M  V30 38391 H 3626.48 1.44199 -2.13458 0
M  V30 38392 H 3626.44 2.90229 -1.20891 0
M  V30 38393 N 3630.21 1.57396 -0.0802459 0
M  V30 38394 C 3631.44 1.98138 0.595719 0
M  V30 38395 C 3631.86 0.9589 1.62636 0
M  V30 38396 O 3631.21 -0.0533995 1.82422 0
M  V30 38397 C 3631.26 3.38952 1.25674 0
M  V30 38398 O 3630.99 4.37284 0.26734 0
M  V30 38399 C 3632.49 3.94616 2.01973 0
M  V30 38400 H 3629.71 0.651438 0.160841 0
M  V30 38401 H 3632.25 2.03911 -0.155147 0
M  V30 38402 H 3630.41 3.3424 1.95864 0
M  V30 38403 H 3630.82 5.19216 0.742604 0
M  V30 38404 H 3632.29 4.95339 2.43604 0
M  V30 38405 H 3632.77 3.3162 2.87967 0
M  V30 38406 H 3633.38 4.02755 1.36632 0
M  V30 38407 N 3631.69 -0.193366 1.56409 0
M  V30 38408 C 3632.92 -0.929643 1.84838 0
M  V30 38409 C 3633.33 -1.76778 0.662959 0
M  V30 38410 O 3632.69 -1.78745 -0.368307 0
M  V30 38411 C 3632.74 -1.8244 3.12087 0
M  V30 38412 O 3632.46 -1.0201 4.26058 0
M  V30 38413 C 3633.96 -2.67221 3.53706 0
M  V30 38414 H 3631.18 -0.271157 0.613771 0
M  V30 38415 H 3633.73 -0.200098 2.03519 0
M  V30 38416 H 3631.88 -2.50754 2.95298 0
M  V30 38417 H 3632.3 -1.62999 4.98529 0
M  V30 38418 H 3633.77 -3.25656 4.45704 0
M  V30 38419 H 3634.25 -3.41014 2.76777 0
M  V30 38420 H 3634.85 -2.04274 3.73031 0
M  V30 38421 N 3633.17 -1.50702 -0.461142 0
M  V30 38422 C 3634.42 -1.61427 -1.20931 0
M  V30 38423 C 3634.73 -0.324844 -1.92884 0
M  V30 38424 O 3635.94 -0.311129 -2.69711 0
M  V30 38425 C 3634.39 -2.8499 -2.19792 0
M  V30 38426 C 3634 -4.20847 -1.53596 0
M  V30 38427 C 3635.75 -3.05064 -2.95189 0
M  V30 38428 C 3633.65 -5.35586 -2.50802 0
M  V30 38429 H 3632.58 -0.601182 -0.455078 0
M  V30 38430 H 3635.23 -1.77145 -0.47874 0
M  V30 38431 H 3633.62 -2.62853 -2.96183 0
M  V30 38432 H 3634.79 -4.53277 -0.829265 0
M  V30 38433 H 3633.1 -4.06459 -0.904432 0
M  V30 38434 H 3635.7 -3.87957 -3.67958 0
M  V30 38435 H 3636.04 -2.17186 -3.55156 0
M  V30 38436 H 3636.58 -3.27429 -2.25909 0
M  V30 38437 H 3633.32 -6.25649 -1.95559 0
M  V30 38438 H 3632.84 -5.07562 -3.19595 0
M  V30 38439 H 3634.52 -5.66567 -3.12427 0
M  V30 38440 N 3634.65 0.715001 -1.40447 0
M  V30 38441 C 3635.61 1.8108 -1.40509 0
M  V30 38442 C 3636.61 1.58 -0.298796 0
M  V30 38443 O 3637.8 1.6503 -0.557729 0
M  V30 38444 C 3634.93 3.19179 -1.19741 0
M  V30 38445 H 3636.13 1.82423 -2.38037 0
M  V30 38446 H 3633.68 0.920696 -1.26305 0
M  V30 38447 H 3634.41 3.23485 -0.229752 0
M  V30 38448 H 3634.2 3.3733 -1.99877 0
M  V30 38449 H 3635.69 3.99206 -1.22573 0
M  V30 38450 N 3636.13 1.25954 0.947281 0
M  V30 38451 C 3637.37 1.11302 1.69528 0
M  V30 38452 C 3637.7 -0.343928 1.9113 0
M  V30 38453 O 3636.98 -1.25306 1.48757 0
M  V30 38454 C 3637.26 1.87593 3.07377 0
M  V30 38455 C 3637.12 3.41159 2.93139 0
M  V30 38456 C 3638.43 1.66491 4.07393 0
M  V30 38457 H 3635.55 0.405717 0.615274 0
M  V30 38458 H 3638.2 1.54876 1.10062 0
M  V30 38459 H 3636.35 1.50559 3.5814 0
M  V30 38460 H 3638.02 3.87911 2.49645 0
M  V30 38461 H 3636.26 3.68496 2.28896 0
M  V30 38462 H 3636.93 3.89762 3.90883 0
M  V30 38463 H 3639.41 1.98744 3.65568 0
M  V30 38464 H 3638.28 2.22296 5.01872 0
M  V30 38465 H 3638.54 0.607993 4.37899 0
M  V30 38466 N 3637.6 -1.15097 1.07659 0
M  V30 38467 C 3638.83 -1.90374 0.822943 0
M  V30 38468 C 3639.25 -1.77645 -0.618384 0
M  V30 38469 O 3638.61 -1.11131 -1.43246 0
M  V30 38470 C 3638.66 -3.38612 1.23994 0
M  V30 38471 O 3637.76 -4.10579 0.387157 0
M  V30 38472 H 3637.11 -0.592596 0.299542 0
M  V30 38473 H 3639.64 -1.45738 1.43602 0
M  V30 38474 H 3639.65 -3.89412 1.21748 0
M  V30 38475 H 3638.32 -3.47195 2.28972 0
M  V30 38476 H 3636.9 -3.69896 0.472376 0
M  V30 38477 N 3639.08 -0.861145 -1.31993 0
M  V30 38478 C 3640.02 -0.255217 -2.26768 0
M  V30 38479 C 3640.99 0.610548 -1.50702 0
M  V30 38480 O 3642.18 0.56592 -1.79804 0
M  V30 38481 C 3639.3 0.63942 -3.3261 0
M  V30 38482 C 3638.35 -0.153821 -4.26223 0
M  V30 38483 S 3639.18 -1.52652 -5.13281 0
M  V30 38484 C 3640.34 -0.637771 -6.22642 0
M  V30 38485 H 3640.57 -1.05864 -2.77813 0
M  V30 38486 H 3638.11 -0.65915 -1.39623 0
M  V30 38487 H 3640.06 1.14992 -3.94065 0
M  V30 38488 H 3638.72 1.41671 -2.80336 0
M  V30 38489 H 3637.92 0.527858 -5.01228 0
M  V30 38490 H 3637.52 -0.596123 -3.69219 0
M  V30 38491 H 3639.81 0.155312 -6.77322 0
M  V30 38492 H 3640.75 -1.35868 -6.94943 0
M  V30 38493 H 3641.16 -0.209234 -5.64112 0
M  V30 38494 N 3640.56 1.44905 -0.619713 0
M  V30 38495 C 3641.52 2.29053 0.0821962 0
M  V30 38496 C 3642.52 1.40426 0.783403 0
M  V30 38497 O 3643.71 1.6242 0.629723 0
M  V30 38498 C 3640.85 3.21739 1.12679 0
M  V30 38499 H 3642.04 2.92597 -0.657778 0
M  V30 38500 H 3639.59 1.51628 -0.379313 0
M  V30 38501 H 3640.33 2.6302 1.89713 0
M  V30 38502 H 3640.11 3.87037 0.628054 0
M  V30 38503 H 3641.6 3.84981 1.61801 0
M  V30 38504 N 3642.04 0.359579 1.53443 0
M  V30 38505 C 3642.99 -0.504909 2.27054 0
M  V30 38506 C 3643.98 -1.08847 1.29803 0
M  V30 38507 O 3645.19 -1.03236 1.47453 0
M  V30 38508 H 3641.56 -0.181537 0.729759 0
M  V30 38509 H 3643.53 0.137771 2.98082 0
M  V30 38510 C 3642.28 -1.63579 3.06818 0
M  V30 38511 H 3641.6 -1.19605 3.8149 0
M  V30 38512 H 3643.04 -2.21552 3.61512 0
M  V30 38513 C 3641.5 -2.57462 2.1729 0
M  V30 38514 O 3642.03 -3.60126 1.77968 0
M  V30 38515 N 3640.24 -2.26513 1.82045 0
M  V30 38516 H 3639.79 -1.43065 2.1422 0
M  V30 38517 H 3639.74 -2.89584 1.22428 0
M  V30 38518 N 3643.52 -1.57351 0.0885919 0
M  V30 38519 C 3644.77 -1.93292 -0.576296 0
M  V30 38520 C 3645.08 -0.971964 -1.69742 0
M  V30 38521 O 3646.28 -1.22484 -2.42301 0
M  V30 38522 C 3644.74 -3.43424 -1.07649 0
M  V30 38523 C 3644.35 -4.47998 0.0145276 0
M  V30 38524 C 3646.09 -3.88337 -1.71448 0
M  V30 38525 C 3644 -5.89277 -0.500654 0
M  V30 38526 H 3642.93 -0.721482 -0.219043 0
M  V30 38527 H 3645.58 -1.8277 0.163543 0
M  V30 38528 H 3643.96 -3.49076 -1.86982 0
M  V30 38529 H 3645.14 -4.53981 0.789776 0
M  V30 38530 H 3643.45 -4.12654 0.557309 0
M  V30 38531 H 3646.05 -4.91284 -2.11054 0
M  V30 38532 H 3646.39 -3.26626 -2.58111 0
M  V30 38533 H 3646.92 -3.85359 -0.987091 0
M  V30 38534 H 3643.66 -6.54673 0.329203 0
M  V30 38535 H 3643.18 -5.86778 -1.24305 0
M  V30 38536 H 3644.86 -6.39661 -0.971709 0
M  V30 38537 N 3644.99 0.185069 -1.5651 0
M  V30 38538 C 3646.24 0.903892 -1.81207 0
M  V30 38539 C 3646.57 1.82835 -0.663455 0
M  V30 38540 O 3645.82 1.92542 0.350177 0
M  V30 38541 C 3646.12 1.74381 -3.11971 0
M  V30 38542 C 3645.79 0.969475 -4.40354 0
M  V30 38543 C 3644.45 0.755715 -4.75229 0
M  V30 38544 C 3646.8 0.425352 -5.19461 0
M  V30 38545 C 3644.13 -0.0134888 -5.86698 0
M  V30 38546 C 3646.48 -0.330693 -6.31735 0
M  V30 38547 C 3645.15 -0.555379 -6.65186 0
M  V30 38548 H 3644.42 0.330758 -0.663084 0
M  V30 38549 H 3647.06 0.16964 -1.90747 0
M  V30 38550 H 3645.37 2.54705 -2.97713 0
M  V30 38551 H 3647.07 2.30279 -3.28288 0
M  V30 38552 H 3643.66 1.14611 -4.12992 0
M  V30 38553 H 3647.84 0.577873 -4.92924 0
M  V30 38554 H 3643.1 -0.197442 -6.11081 0
M  V30 38555 H 3647.27 -0.759644 -6.92244 0
M  V30 38556 H 3644.9 -1.15331 -7.51401 0
M  V30 38557 N 3646.47 1.50945 0.453144 0
M  V30 38558 C 3647.89 1.38769 0.788369 0
M  V30 38559 C 3648.09 0.45771 1.96233 0
M  V30 38560 O 3647.14 -0.0930208 2.52329 0
M  V30 38561 C 3648.46 2.80498 1.08358 0
M  V30 38562 C 3650.01 2.89539 1.18896 0
M  V30 38563 C 3650.48 4.3214 1.5172 0
M  V30 38564 N 3651.97 4.35174 1.58676 0
M  V30 38565 C 3652.71 5.42527 1.85613 0
M  V30 38566 N 3652.2 6.60063 2.1045 0
M  V30 38567 N 3654 5.29989 1.87265 0
M  V30 38568 H 3646.15 2.09972 -0.320253 0
M  V30 38569 H 3648.41 0.944549 -0.0808187 0
M  V30 38570 H 3648.12 3.5047 0.293835 0
M  V30 38571 H 3647.99 3.18852 2.01527 0
M  V30 38572 H 3650.38 2.19774 1.96935 0
M  V30 38573 H 3650.46 2.54703 0.236646 0
M  V30 38574 H 3650.1 5.02449 0.742141 0
M  V30 38575 H 3650.03 4.64477 2.48131 0
M  V30 38576 H 3652.52 3.50429 1.41449 0
M  V30 38577 H 3652.84 7.37677 2.3033 0
M  V30 38578 H 3651.18 6.63206 2.07805 0
M  V30 38579 H 3654.37 4.37156 1.6737 0
M  V30 38580 H 3654.54 6.13737 2.07922 0
M  V30 38581 N 3647.95 -0.707543 1.40825 0
M  V30 38582 C 3649.2 -1.4646 1.39262 0
M  V30 38583 C 3649.52 -1.95 -0.00154426 0
M  V30 38584 O 3648.79 -1.70895 -0.957693 0
M  V30 38585 H 3647.37 -0.5434 0.512567 0
M  V30 38586 H 3650.03 -0.838238 1.75953 0
M  V30 38587 H 3649.13 -2.33356 2.07247 0
M  V30 38588 N 3649.43 -1.26454 -0.940588 0
M  V30 38589 C 3650.65 -1.14917 -1.72652 0
M  V30 38590 C 3651.08 0.291756 -1.85824 0
M  V30 38591 O 3650.44 1.21138 -1.3489 0
M  V30 38592 C 3650.48 -1.82378 -3.1108 0
M  V30 38593 O 3649.59 -1.11297 -3.97098 0
M  V30 38594 H 3648.93 -0.400396 -0.529697 0
M  V30 38595 H 3651.46 -1.67285 -1.178 0
M  V30 38596 H 3651.47 -1.89225 -3.61466 0
M  V30 38597 H 3650.14 -2.87204 -3.0081 0
M  V30 38598 H 3648.72 -1.12429 -3.55548 0
M  V30 38599 N 3650.91 1.14525 -1.08268 0
M  V30 38600 C 3652.14 1.8912 -0.831706 0
M  V30 38601 C 3652.54 1.78764 0.619671 0
M  V30 38602 O 3651.89 1.1438 1.43746 0
M  V30 38603 C 3651.95 3.39831 -1.17282 0
M  V30 38604 C 3651.61 3.73971 -2.62669 0
M  V30 38605 C 3652.61 3.7421 -3.60919 0
M  V30 38606 C 3650.3 4.03994 -2.98487 0
M  V30 38607 C 3652.29 4.03994 -4.93019 0
M  V30 38608 C 3649.98 4.33441 -4.30781 0
M  V30 38609 C 3650.97 4.33424 -5.27857 0
M  V30 38610 O 3650.66 4.62158 -6.57773 0
M  V30 38611 H 3650.39 0.605935 -0.299697 0
M  V30 38612 H 3652.95 1.45975 -1.445 0
M  V30 38613 H 3651.18 3.83421 -0.502525 0
M  V30 38614 H 3652.87 3.9573 -0.902901 0
M  V30 38615 H 3653.63 3.51104 -3.34591 0
M  V30 38616 H 3649.51 4.03161 -2.23568 0
M  V30 38617 H 3653.06 4.03896 -5.68783 0
M  V30 38618 H 3648.95 4.56016 -4.56858 0
M  V30 38619 H 3649.72 4.79881 -6.63066 0
M  V30 38620 N 3652.39 0.868133 1.31534 0
M  V30 38621 C 3653.32 0.338261 2.31037 0
M  V30 38622 C 3654.3 -0.569863 1.6027 0
M  V30 38623 O 3655.48 -0.487272 1.87987 0
M  V30 38624 C 3652.61 -0.462693 3.44204 0
M  V30 38625 C 3651.57 0.352175 4.26549 0
M  V30 38626 C 3650.89 -0.57435 5.31606 0
M  V30 38627 C 3652.19 1.58525 4.97662 0
M  V30 38628 H 3653.89 1.16971 2.75605 0
M  V30 38629 H 3651.43 0.563914 1.32499 0
M  V30 38630 H 3653.38 -0.843894 4.12864 0
M  V30 38631 H 3652.11 -1.32764 2.98398 0
M  V30 38632 H 3650.77 0.7153 3.59554 0
M  V30 38633 H 3650.42 -1.43652 4.82051 0
M  V30 38634 H 3650.12 -0.0330403 5.87591 0
M  V30 38635 H 3651.64 -0.952435 6.03126 0
M  V30 38636 H 3653.05 1.27559 5.58929 0
M  V30 38637 H 3651.45 2.06549 5.63434 0
M  V30 38638 H 3652.52 2.33909 4.24752 0
M  V30 38639 N 3653.86 -1.44574 0.627389 0
M  V30 38640 C 3654.83 -2.29093 -0.0700478 0
M  V30 38641 C 3655.83 -1.40839 -0.775944 0
M  V30 38642 O 3657.02 -1.62751 -0.6211 0
M  V30 38643 C 3654.15 -3.22332 -1.10971 0
M  V30 38644 H 3655.34 -2.92245 0.673286 0
M  V30 38645 H 3652.89 -1.51424 0.387349 0
M  V30 38646 H 3653.63 -2.64022 -1.88315 0
M  V30 38647 H 3653.41 -3.87365 -0.607519 0
M  V30 38648 H 3654.9 -3.85833 -1.59757 0
M  V30 38649 N 3655.34 -0.367711 -1.5325 0
M  V30 38650 C 3656.59 0.220878 -2.00889 0
M  V30 38651 C 3656.91 1.49108 -1.25665 0
M  V30 38652 O 3656.18 1.92364 -0.370525 0
M  V30 38653 H 3654.76 0.0846102 -0.742193 0
M  V30 38654 H 3657.42 -0.494435 -1.88524 0
M  V30 38655 H 3656.52 0.44636 -3.08892 0
M  V30 38656 N 3656.82 1.57302 -0.0969353 0
M  V30 38657 C 3657.78 2.12981 0.846858 0
M  V30 38658 C 3658.78 1.0595 1.2096 0
M  V30 38659 O 3659.97 1.31828 1.13873 0
M  V30 38660 C 3657.1 2.65192 2.14211 0
M  V30 38661 H 3658.3 2.97691 0.363346 0
M  V30 38662 H 3655.85 1.55558 0.15208 0
M  V30 38663 H 3656.59 1.84007 2.67043 0
M  V30 38664 H 3656.37 3.43449 1.8917 0
M  V30 38665 H 3657.86 3.08257 2.81723 0
M  V30 38666 N 3658.3 -0.176766 1.56606 0
M  V30 38667 C 3659.55 -0.892503 1.81325 0
M  V30 38668 C 3659.87 -1.83017 0.673043 0
M  V30 38669 O 3659.14 -1.93472 -0.307464 0
M  V30 38670 H 3657.72 -0.332564 0.668887 0
M  V30 38671 H 3660.38 -0.177886 1.94087 0
M  V30 38672 H 3659.47 -1.47267 2.75171 0
M  V30 38673 N 3659.78 -1.51183 -0.445132 0
M  V30 38674 C 3660.71 -1.74877 -1.54727 0
M  V30 38675 C 3661.69 -0.598351 -1.59229 0
M  V30 38676 O 3662.87 -0.84025 -1.75081 0
M  V30 38677 C 3660 -1.86669 -2.92868 0
M  V30 38678 C 3658.96 -3.02053 -3.03229 0
M  V30 38679 C 3658.28 -2.9902 -4.43274 0
M  V30 38680 C 3659.58 -4.42149 -2.78032 0
M  V30 38681 H 3661.28 -2.6716 -1.35151 0
M  V30 38682 H 3658.82 -1.28559 -0.648741 0
M  V30 38683 H 3660.77 -2.01828 -3.69923 0
M  V30 38684 H 3659.5 -0.910281 -3.13658 0
M  V30 38685 H 3658.16 -2.86587 -2.28612 0
M  V30 38686 H 3657.81 -2.01171 -4.6102 0
M  V30 38687 H 3657.51 -3.76496 -4.51137 0
M  V30 38688 H 3659.03 -3.16261 -5.22313 0
M  V30 38689 H 3660.44 -4.58006 -3.44823 0
M  V30 38690 H 3658.84 -5.21272 -2.97314 0
M  V30 38691 H 3659.91 -4.52724 -1.73692 0
M  V30 38692 N 3661.25 0.700065 -1.41198 0
M  V30 38693 C 3662.22 1.79579 -1.42422 0
M  V30 38694 C 3663.22 1.57674 -0.315537 0
M  V30 38695 O 3664.41 1.6443 -0.575202 0
M  V30 38696 C 3661.54 3.17891 -1.23119 0
M  V30 38697 H 3662.73 1.79888 -2.39959 0
M  V30 38698 H 3660.28 0.907248 -1.27274 0
M  V30 38699 H 3661.02 3.23223 -0.264049 0
M  V30 38700 H 3660.8 3.35191 -2.03443 0
M  V30 38701 H 3662.29 3.97884 -1.268 0
M  V30 38702 N 3662.73 1.26951 0.933869 0
M  V30 38703 C 3663.66 1.11652 2.05076 0
M  V30 38704 C 3664.64 0.0196762 1.70089 0
M  V30 38705 O 3665.83 0.193041 1.93238 0
M  V30 38706 C 3662.96 0.756446 3.38962 0
M  V30 38707 C 3661.91 1.80584 3.88038 0
M  V30 38708 C 3661.24 1.29989 5.18659 0
M  V30 38709 C 3662.54 3.20877 4.1211 0
M  V30 38710 H 3664.23 2.05081 2.18133 0
M  V30 38711 H 3661.78 0.987411 1.04815 0
M  V30 38712 H 3663.73 0.636263 4.16569 0
M  V30 38713 H 3662.45 -0.21355 3.25901 0
M  V30 38714 H 3661.11 1.91482 3.12618 0
M  V30 38715 H 3660.76 0.31953 5.01984 0
M  V30 38716 H 3660.46 2.00144 5.52464 0
M  V30 38717 H 3661.99 1.19253 5.98841 0
M  V30 38718 H 3663.4 3.13015 4.80307 0
M  V30 38719 H 3661.8 3.88687 4.57211 0
M  V30 38720 H 3662.87 3.6639 3.17626 0
M  V30 38721 N 3664.21 -1.13949 1.08873 0
M  V30 38722 C 3665.43 -1.89491 0.843089 0
M  V30 38723 C 3665.86 -1.78291 -0.599507 0
M  V30 38724 O 3665.22 -1.12644 -1.4206 0
M  V30 38725 C 3665.27 -3.37278 1.27578 0
M  V30 38726 O 3664.37 -4.10145 0.430683 0
M  V30 38727 H 3663.71 -0.589386 0.305811 0
M  V30 38728 H 3666.24 -1.44207 1.4514 0
M  V30 38729 H 3666.25 -3.88098 1.25871 0
M  V30 38730 H 3664.93 -3.44747 2.32641 0
M  V30 38731 H 3663.5 -3.69374 0.511581 0
M  V30 38732 N 3665.69 -0.875096 -1.31072 0
M  V30 38733 C 3666.94 -0.484696 -1.9579 0
M  V30 38734 C 3667.25 0.969044 -1.69909 0
M  V30 38735 O 3668.46 1.46583 -2.28529 0
M  V30 38736 C 3666.91 -0.815866 -3.50531 0
M  V30 38737 C 3666.52 -2.28671 -3.85245 0
M  V30 38738 C 3668.26 -0.494185 -4.21614 0
M  V30 38739 C 3666.17 -2.56003 -5.3312 0
M  V30 38740 H 3665.1 -0.177528 -0.732803 0
M  V30 38741 H 3667.75 -1.06871 -1.49167 0
M  V30 38742 H 3666.13 -0.16105 -3.95672 0
M  V30 38743 H 3667.31 -2.98502 -3.51046 0
M  V30 38744 H 3665.62 -2.57494 -3.2724 0
M  V30 38745 H 3668.22 -0.675549 -5.30415 0
M  V30 38746 H 3668.56 0.565743 -4.12438 0
M  V30 38747 H 3669.1 -1.10577 -3.82123 0
M  V30 38748 H 3665.83 -3.60698 -5.47336 0
M  V30 38749 H 3665.35 -1.90771 -5.68653 0
M  V30 38750 H 3667.03 -2.40995 -6.00442 0
M  V30 38751 N 3667.17 1.44239 -0.635047 0
M  V30 38752 C 3668.1 2.279 0.116932 0
M  V30 38753 C 3669.08 1.38768 0.847481 0
M  V30 38754 O 3670.26 1.68209 0.850771 0
M  V30 38755 C 3667.39 3.17785 1.17177 0
M  V30 38756 C 3666.43 4.23051 0.541314 0
M  V30 38757 S 3667.27 5.31273 -0.671547 0
M  V30 38758 C 3668.42 6.24726 0.383208 0
M  V30 38759 H 3668.66 2.9133 -0.59279 0
M  V30 38760 H 3666.19 1.48483 -0.423334 0
M  V30 38761 H 3668.15 3.70121 1.77541 0
M  V30 38762 H 3666.81 2.53567 1.85371 0
M  V30 38763 H 3666 4.85973 1.33589 0
M  V30 38764 H 3665.6 3.73998 0.0122049 0
M  V30 38765 H 3667.9 6.65781 1.25465 0
M  V30 38766 H 3668.84 7.07787 -0.210534 0
M  V30 38767 H 3669.25 5.60006 0.710864 0
M  V30 38768 N 3668.64 0.375833 1.53053 0
M  V30 38769 C 3669.59 -0.465781 2.26051 0
M  V30 38770 C 3670.56 -1.06904 1.27125 0
M  V30 38771 O 3671.75 -1.0996 1.55928 0
M  V30 38772 C 3668.89 -1.59423 3.06069 0
M  V30 38773 C 3668 -1.01515 4.19903 0
M  V30 38774 C 3667.13 -2.11355 4.87342 0
M  V30 38775 C 3666.17 -1.50966 5.93191 0
M  V30 38776 N 3665.31 -2.5468 6.5428 0
M  V30 38777 H 3670.15 0.163201 2.97553 0
M  V30 38778 H 3667.69 0.0923078 1.4681 0
M  V30 38779 H 3669.65 -2.25909 3.50743 0
M  V30 38780 H 3668.28 -2.19372 2.36803 0
M  V30 38781 H 3667.33 -0.240279 3.7964 0
M  V30 38782 H 3668.64 -0.533725 4.95936 0
M  V30 38783 H 3667.79 -2.8564 5.35252 0
M  V30 38784 H 3666.53 -2.62853 4.10804 0
M  V30 38785 H 3665.54 -0.752 5.44633 0
M  V30 38786 H 3666.76 -1.00279 6.71655 0
M  V30 38787 H 3664.71 -3.05372 5.80589 0
M  V30 38788 H 3664.63 -2.11254 7.25884 0
M  V30 38789 H 3665.89 -3.28636 7.06837 0
M  V30 38790 N 3670.12 -1.57248 0.105276 0
M  V30 38791 C 3671.35 -1.99485 -0.56748 0
M  V30 38792 C 3671.77 -0.98421 -1.60296 0
M  V30 38793 O 3671.13 0.0459626 -1.81242 0
M  V30 38794 C 3671.18 -3.40655 -1.18265 0
M  V30 38795 O 3670.28 -3.42416 -2.29837 0
M  V30 38796 H 3669.62 -0.648406 -0.143058 0
M  V30 38797 H 3672.15 -2.03719 0.189697 0
M  V30 38798 H 3672.16 -3.78569 -1.5215 0
M  V30 38799 H 3670.84 -4.13732 -0.424106 0
M  V30 38800 H 3669.42 -3.16307 -1.97495 0
M  V30 38801 N 3671.6 0.168458 -1.56697 0
M  V30 38802 C 3672.85 0.885933 -1.82426 0
M  V30 38803 C 3673.18 1.81772 -0.683575 0
M  V30 38804 O 3672.45 1.91944 0.314286 0
M  V30 38805 C 3672.74 1.67912 -3.18556 0
M  V30 38806 C 3672.59 0.770265 -4.43156 0
M  V30 38807 C 3673.91 2.64621 -3.51659 0
M  V30 38808 H 3671.03 0.320632 -0.663599 0
M  V30 38809 H 3673.67 0.152017 -1.89391 0
M  V30 38810 H 3671.82 2.30479 -3.12749 0
M  V30 38811 H 3673.49 0.157247 -4.61032 0
M  V30 38812 H 3671.74 0.0784891 -4.33729 0
M  V30 38813 H 3672.41 1.36083 -5.34963 0
M  V30 38814 H 3674.88 2.12179 -3.57938 0
M  V30 38815 H 3673.76 3.17183 -4.4798 0
M  V30 38816 H 3674.02 3.44957 -2.76509 0
M  V30 38817 N 3673.08 1.51417 0.437109 0
M  V30 38818 C 3674.33 1.63773 1.18418 0
M  V30 38819 C 3674.65 0.356315 1.91717 0
M  V30 38820 O 3673.92 -0.627831 1.85567 0
M  V30 38821 H 3672.5 0.60358 0.440114 0
M  V30 38822 H 3675.16 1.88348 0.501122 0
M  V30 38823 H 3674.26 2.46549 1.91363 0
M  V30 38824 N 3674.56 -0.692567 1.41567 0
M  V30 38825 C 3675.78 -1.4813 1.44448 0
M  V30 38826 C 3676.2 -1.88732 0.0506199 0
M  V30 38827 O 3675.56 -1.56982 -0.930751 0
M  V30 38828 C 3675.61 -2.74191 2.35587 0
M  V30 38829 O 3675.33 -2.35298 3.69549 0
M  V30 38830 C 3676.83 -3.67908 2.47303 0
M  V30 38831 H 3674.05 -0.456388 0.491885 0
M  V30 38832 H 3676.59 -0.852467 1.85885 0
M  V30 38833 H 3674.75 -3.33305 1.97451 0
M  V30 38834 H 3675.16 -3.16577 4.18186 0
M  V30 38835 H 3676.64 -4.53136 3.15233 0
M  V30 38836 H 3677.11 -4.126 1.50524 0
M  V30 38837 H 3677.72 -3.14697 2.86088 0
M  V30 38838 N 3676.03 -1.27445 -0.927123 0
M  V30 38839 C 3677.28 -1.13592 -1.67157 0
M  V30 38840 C 3677.6 0.318617 -1.92379 0
M  V30 38841 O 3676.87 1.22284 -1.53047 0
M  V30 38842 H 3675.45 -0.417382 -0.619517 0
M  V30 38843 H 3678.12 -1.59981 -1.1132 0
M  V30 38844 H 3677.21 -1.66542 -2.63951 0
M  V30 38845 N 3677.51 1.1337 -1.09476 0
M  V30 38846 C 3678.46 2.18797 -0.734618 0
M  V30 38847 C 3679.43 1.63647 0.284404 0
M  V30 38848 O 3680.61 1.90077 0.165925 0
M  V30 38849 C 3677.75 3.4472 -0.161887 0
M  V30 38850 C 3676.87 4.1397 -1.23501 0
M  V30 38851 C 3676 5.27511 -0.624979 0
M  V30 38852 C 3675.04 5.88611 -1.67938 0
M  V30 38853 N 3674.18 6.93582 -1.09033 0
M  V30 38854 H 3679.02 2.48951 -1.63791 0
M  V30 38855 H 3676.56 1.22237 -0.818318 0
M  V30 38856 H 3678.51 4.16776 0.18798 0
M  V30 38857 H 3677.14 3.15015 0.704674 0
M  V30 38858 H 3676.2 3.40193 -1.70215 0
M  V30 38859 H 3677.51 4.55464 -2.03358 0
M  V30 38860 H 3676.66 6.06286 -0.223987 0
M  V30 38861 H 3675.4 4.87268 0.205128 0
M  V30 38862 H 3674.41 5.0853 -2.08991 0
M  V30 38863 H 3675.63 6.30926 -2.51215 0
M  V30 38864 H 3673.58 6.55396 -0.281516 0
M  V30 38865 H 3673.49 7.3362 -1.82586 0
M  V30 38866 H 3674.76 7.76209 -0.715564 0
M  V30 38867 N 3678.99 0.882035 1.30606 0
M  V30 38868 C 3680.41 0.575626 1.48858 0
M  V30 38869 C 3680.61 -0.887356 1.80909 0
M  V30 38870 O 3679.66 -1.66877 1.89495 0
M  V30 38871 C 3680.98 1.48624 2.61403 0
M  V30 38872 C 3682.52 1.48956 2.75284 0
M  V30 38873 C 3683 2.38603 3.90938 0
M  V30 38874 N 3684.49 2.3655 3.98244 0
M  V30 38875 C 3685.22 3.02628 4.87035 0
M  V30 38876 N 3684.72 3.77921 5.80644 0
M  V30 38877 N 3686.51 2.91875 4.8038 0
M  V30 38878 H 3678.66 1.82849 1.08073 0
M  V30 38879 H 3680.93 0.782518 0.535135 0
M  V30 38880 H 3680.63 2.5278 2.44531 0
M  V30 38881 H 3680.51 1.19364 3.57816 0
M  V30 38882 H 3682.89 0.455528 2.91563 0
M  V30 38883 H 3682.98 1.82245 1.79501 0
M  V30 38884 H 3682.62 3.42089 3.75416 0
M  V30 38885 H 3682.55 2.02632 4.86053 0
M  V30 38886 H 3685.04 1.81832 3.31278 0
M  V30 38887 H 3685.35 4.2544 6.45152 0
M  V30 38888 H 3683.7 3.82029 5.80585 0
M  V30 38889 H 3686.89 2.32583 4.0623 0
M  V30 38890 H 3687.06 3.4365 5.49371 0
M  V30 38891 N 3680.47 -1.439 0.642688 0
M  V30 38892 C 3681.72 -2.01531 0.151513 0
M  V30 38893 C 3682.04 -1.50893 -1.23516 0
M  V30 38894 O 3681.31 -0.717229 -1.82298 0
M  V30 38895 H 3679.89 -0.745116 0.0530222 0
M  V30 38896 H 3682.55 -1.7625 0.831989 0
M  V30 38897 H 3681.65 -3.11837 0.12805 0
M  V30 38898 N 3681.95 -0.383945 -1.52852 0
M  V30 38899 C 3683.18 0.20018 -2.05929 0
M  V30 38900 C 3683.59 1.40954 -1.25608 0
M  V30 38901 O 3682.95 1.79995 -0.301367 0
M  V30 38902 C 3683 0.575592 -3.56888 0
M  V30 38903 O 3682.72 -0.585717 -4.34167 0
M  V30 38904 C 3684.22 1.21615 -4.26292 0
M  V30 38905 H 3681.44 0.0314609 -0.670262 0
M  V30 38906 H 3683.98 -0.547626 -1.97031 0
M  V30 38907 H 3682.14 1.2733 -3.65877 0
M  V30 38908 H 3682.55 -0.278359 -5.23761 0
M  V30 38909 H 3684.03 1.42924 -5.33176 0
M  V30 38910 H 3684.5 2.18193 -3.81167 0
M  V30 38911 H 3685.11 0.559361 -4.21606 0
M  V30 38912 N 3683.43 1.5719 -0.113614 0
M  V30 38913 C 3684.67 1.94624 0.544608 0
M  V30 38914 C 3684.99 0.997457 1.67558 0
M  V30 38915 O 3684.26 0.0527865 1.95829 0
M  V30 38916 H 3682.84 0.718556 0.204173 0
M  V30 38917 H 3685.51 1.94055 -0.181292 0
M  V30 38918 H 3684.6 2.97522 0.942713 0
M  V30 38919 N 3684.9 -0.160146 1.56784 0
M  V30 38920 C 3686.13 -0.89425 1.87131 0
M  V30 38921 C 3686.55 -1.74542 0.701203 0
M  V30 38922 O 3685.91 -1.77899 -0.349511 0
M  V30 38923 C 3685.96 -1.73763 3.15973 0
M  V30 38924 O 3685.06 -2.84049 2.98982 0
M  V30 38925 H 3684.4 -0.249858 0.615197 0
M  V30 38926 H 3686.93 -0.15492 2.04013 0
M  V30 38927 H 3686.94 -2.13531 3.47661 0
M  V30 38928 H 3685.62 -1.11251 4.00744 0
M  V30 38929 H 3684.2 -2.47783 2.78672 0
M  V30 38930 N 3686.38 -1.51647 -0.429072 0
M  V30 38931 C 3687.31 -1.69761 -1.53993 0
M  V30 38932 C 3688.33 -0.578164 -1.52188 0
M  V30 38933 O 3689.52 -0.852736 -1.56814 0
M  V30 38934 C 3686.62 -1.70465 -2.92907 0
M  V30 38935 C 3685.79 -2.99127 -3.19126 0
M  V30 38936 C 3684.85 -2.91909 -4.37808 0
M  V30 38937 O 3683.87 -3.65844 -4.36058 0
M  V30 38938 N 3685.08 -2.08327 -5.41831 0
M  V30 38939 H 3687.84 -2.65592 -1.38856 0
M  V30 38940 H 3685.4 -1.49636 -0.618122 0
M  V30 38941 H 3687.39 -1.63194 -3.70338 0
M  V30 38942 H 3685.96 -0.82193 -3.01601 0
M  V30 38943 H 3685.18 -3.20203 -2.29921 0
M  V30 38944 H 3686.47 -3.8428 -3.33476 0
M  V30 38945 H 3685.87 -1.4765 -5.46092 0
M  V30 38946 H 3684.43 -2.06928 -6.18081 0
M  V30 38947 N 3687.86 0.685049 -1.41932 0
M  V30 38948 C 3689.11 1.44226 -1.41574 0
M  V30 38949 C 3689.43 1.94978 -0.0294787 0
M  V30 38950 O 3688.7 1.72397 0.930384 0
M  V30 38951 H 3687.28 0.535177 -0.521148 0
M  V30 38952 H 3689.94 0.810139 -1.77265 0
M  V30 38953 H 3689.04 2.3003 -2.10933 0
M  V30 38954 N 3689.34 1.27935 0.920351 0
M  V30 38955 C 3690.25 1.13126 2.05523 0
M  V30 38956 C 3691.26 0.0594515 1.73898 0
M  V30 38957 O 3692.44 0.267421 1.99617 0
M  V30 38958 C 3689.5 0.78761 3.37635 0
M  V30 38959 C 3688.57 1.94108 3.82911 0
M  V30 38960 C 3687.8 1.61373 5.08718 0
M  V30 38961 O 3688.02 0.525017 5.67979 0
M  V30 38962 O 3686.96 2.45527 5.49545 0
M  V30 38963 H 3690.78 2.08382 2.20932 0
M  V30 38964 H 3688.37 1.07191 1.04069 0
M  V30 38965 H 3690.25 0.609617 4.16967 0
M  V30 38966 H 3688.92 -0.135351 3.23417 0
M  V30 38967 H 3687.83 2.17418 3.04434 0
M  V30 38968 H 3689.16 2.84451 4.01682 0
M  V30 38969 N 3690.82 -1.12788 1.10076 0
M  V30 38970 C 3692.04 -1.88045 0.862939 0
M  V30 38971 C 3692.46 -1.79465 -0.586315 0
M  V30 38972 O 3691.82 -1.16594 -1.404 0
M  V30 38973 C 3691.87 -3.37397 1.2979 0
M  V30 38974 O 3691.59 -3.45765 2.69032 0
M  V30 38975 C 3693.09 -4.29603 1.09344 0
M  V30 38976 H 3690.31 -0.595102 0.309991 0
M  V30 38977 H 3692.85 -1.42736 1.46447 0
M  V30 38978 H 3691.01 -3.80264 0.740123 0
M  V30 38979 H 3691.42 -4.38658 2.8754 0
M  V30 38980 H 3692.9 -5.32698 1.44697 0
M  V30 38981 H 3693.37 -4.39189 0.0317562 0
M  V30 38982 H 3693.98 -3.92513 1.63749 0
M  V30 38983 N 3692.29 -0.888949 -1.30136 0
M  V30 38984 C 3693.22 -0.374974 -2.3047 0
M  V30 38985 C 3694.2 0.544294 -1.61157 0
M  V30 38986 O 3695.39 0.457304 -1.88739 0
M  V30 38987 C 3692.52 0.407874 -3.44897 0
M  V30 38988 C 3691.47 -0.419991 -4.25934 0
M  V30 38989 C 3690.8 0.489703 -5.32453 0
M  V30 38990 C 3692.1 -1.66422 -4.95077 0
M  V30 38991 H 3693.79 -1.21341 -2.73709 0
M  V30 38992 H 3691.34 -0.584922 -1.31585 0
M  V30 38993 H 3693.29 0.778104 -4.14154 0
M  V30 38994 H 3692.02 1.28 -3.00472 0
M  V30 38995 H 3690.68 -0.772411 -3.5837 0
M  V30 38996 H 3690.32 1.35965 -4.84275 0
M  V30 38997 H 3690.02 -0.0604445 -5.87569 0
M  V30 38998 H 3691.55 0.856362 -6.04565 0
M  V30 38999 H 3692.96 -1.36435 -5.56829 0
M  V30 39000 H 3691.36 -2.15487 -5.60076 0
M  V30 39001 H 3692.43 -2.40637 -4.20977 0
M  V30 39002 N 3693.77 1.43557 -0.65031 0
M  V30 39003 C 3695.02 2.01448 -0.162199 0
M  V30 39004 C 3695.34 1.51546 1.22714 0
M  V30 39005 O 3694.61 0.726887 1.81915 0
M  V30 39006 H 3693.19 0.744824 -0.056973 0
M  V30 39007 H 3695.85 1.75806 -0.841325 0
M  V30 39008 H 3694.95 3.11765 -0.144585 0
M  V30 39009 N 3695.25 0.392045 1.52646 0
M  V30 39010 C 3696.16 -0.449052 2.30262 0
M  V30 39011 C 3697.18 -1.06902 1.37288 0
M  V30 39012 O 3698.35 -1.07424 1.70358 0
M  V30 39013 C 3695.42 -1.55964 3.09639 0
M  V30 39014 C 3694.48 -0.964492 4.18325 0
M  V30 39015 C 3693.71 -2.02216 4.93907 0
M  V30 39016 O 3693.93 -3.23765 4.69609 0
M  V30 39017 O 3692.87 -1.63792 5.79185 0
M  V30 39018 H 3696.69 0.183322 3.03146 0
M  V30 39019 H 3694.28 0.15569 1.48587 0
M  V30 39020 H 3696.16 -2.20476 3.59122 0
M  V30 39021 H 3694.84 -2.17693 2.39565 0
M  V30 39022 H 3693.74 -0.282552 3.73031 0
M  V30 39023 H 3695.08 -0.39138 4.90641 0
M  V30 39024 N 3696.73 -1.57127 0.121948 0
M  V30 39025 C 3697.68 -2.15468 -0.827167 0
M  V30 39026 C 3698.65 -1.08049 -1.26153 0
M  V30 39027 O 3699.83 -1.35971 -1.33852 0
M  V30 39028 C 3696.97 -2.76071 -2.07072 0
M  V30 39029 C 3696.08 -3.97807 -1.68445 0
M  V30 39030 C 3695.22 -4.46487 -2.87789 0
M  V30 39031 C 3694.26 -5.60747 -2.45416 0
M  V30 39032 N 3693.39 -6.04158 -3.57684 0
M  V30 39033 H 3698.23 -2.96246 -0.322827 0
M  V30 39034 H 3695.77 -1.46357 -0.147651 0
M  V30 39035 H 3697.73 -3.0934 -2.79937 0
M  V30 39036 H 3696.36 -1.97978 -2.5496 0
M  V30 39037 H 3695.41 -3.7068 -0.854422 0
M  V30 39038 H 3696.72 -4.80656 -1.33307 0
M  V30 39039 H 3695.88 -4.8168 -3.68876 0
M  V30 39040 H 3694.62 -3.62593 -3.26156 0
M  V30 39041 H 3693.62 -5.25156 -1.62763 0
M  V30 39042 H 3694.85 -6.46409 -2.08164 0
M  V30 39043 H 3692.79 -5.23204 -3.95719 0
M  V30 39044 H 3692.71 -6.8187 -3.26479 0
M  V30 39045 H 3693.98 -6.43989 -4.39202 0
M  V30 39046 N 3698.21 0.151829 -1.56867 0
M  V30 39047 C 3699.45 0.861735 -1.84244 0
M  V30 39048 C 3699.81 1.79008 -0.705261 0
M  V30 39049 O 3699.1 1.89283 0.297101 0
M  V30 39050 C 3699.29 1.67725 -3.156 0
M  V30 39051 C 3699.12 0.829364 -4.41986 0
M  V30 39052 C 3697.89 0.496855 -5.02851 0
M  V30 39053 C 3700.09 0.161915 -5.14045 0
M  V30 39054 N 3698.07 -0.36513 -6.12813 0
M  V30 39055 C 3699.44 -0.560409 -6.17462 0
M  V30 39056 C 3701.5 0.0820892 -4.97832 0
M  V30 39057 C 3700.2 -1.35502 -7.06422 0
M  V30 39058 C 3702.23 -0.699241 -5.87252 0
M  V30 39059 C 3701.59 -1.40986 -6.90146 0
M  V30 39060 H 3697.69 0.293316 -0.724907 0
M  V30 39061 H 3700.27 0.127414 -1.94283 0
M  V30 39062 H 3698.44 2.38284 -3.06717 0
M  V30 39063 H 3700.18 2.32995 -3.30901 0
M  V30 39064 H 3696.93 0.831514 -4.66243 0
M  V30 39065 H 3697.36 -0.787004 -6.7241 0
M  V30 39066 H 3702 0.617138 -4.18272 0
M  V30 39067 H 3699.72 -1.90134 -7.85414 0
M  V30 39068 H 3703.3 -0.762934 -5.76776 0
M  V30 39069 H 3702.18 -2.00475 -7.58142 0
M  V30 39070 N 3699.68 1.51872 0.421024 0
M  V30 39071 C 3700.63 1.74362 1.51217 0
M  V30 39072 C 3701.6 0.585695 1.55431 0
M  V30 39073 O 3702.79 0.821942 1.72188 0
M  V30 39074 C 3699.93 1.8894 2.88783 0
M  V30 39075 C 3699.04 3.16551 2.93972 0
M  V30 39076 C 3698.17 3.21629 4.22762 0
M  V30 39077 C 3697.21 4.4349 4.2188 0
M  V30 39078 N 3696.35 4.46027 5.42222 0
M  V30 39079 H 3701.19 2.67494 1.31343 0
M  V30 39080 H 3698.73 1.32556 0.637756 0
M  V30 39081 H 3700.69 1.95374 3.68625 0
M  V30 39082 H 3699.32 0.991996 3.0718 0
M  V30 39083 H 3698.37 3.19346 2.06693 0
M  V30 39084 H 3699.68 4.06417 2.89183 0
M  V30 39085 H 3698.83 3.2707 5.10989 0
M  V30 39086 H 3697.57 2.29681 4.3023 0
M  V30 39087 H 3696.58 4.38208 3.32045 0
M  V30 39088 H 3697.8 5.3672 4.16063 0
M  V30 39089 H 3695.75 3.56956 5.5038 0
M  V30 39090 H 3695.67 5.29722 5.3938 0
M  V30 39091 H 3696.93 4.55682 6.32435 0
M  V30 39092 N 3701.16 -0.677513 1.42294 0
M  V30 39093 C 3702.11 -1.79112 1.4556 0
M  V30 39094 C 3703.08 -1.63222 0.307855 0
M  V30 39095 O 3704.26 -1.83815 0.511536 0
M  V30 39096 C 3701.4 -3.17125 1.36109 0
M  V30 39097 C 3700.52 -3.44321 2.60897 0
M  V30 39098 C 3699.65 -4.72047 2.43609 0
M  V30 39099 C 3698.69 -4.92268 3.63784 0
M  V30 39100 N 3697.83 -6.11233 3.45455 0
M  V30 39101 H 3702.67 -1.75655 2.40726 0
M  V30 39102 H 3700.21 -0.857544 1.19518 0
M  V30 39103 H 3702.16 -3.96876 1.28629 0
M  V30 39104 H 3700.79 -3.19712 0.445398 0
M  V30 39105 H 3699.85 -2.58843 2.78755 0
M  V30 39106 H 3701.16 -3.55157 3.50235 0
M  V30 39107 H 3700.31 -5.59884 2.33699 0
M  V30 39108 H 3699.05 -4.63488 1.51756 0
M  V30 39109 H 3698.06 -4.02874 3.74129 0
M  V30 39110 H 3699.28 -5.02673 4.56614 0
M  V30 39111 H 3697.23 -6.03852 2.56317 0
M  V30 39112 H 3697.14 -6.22918 4.28379 0
M  V30 39113 H 3698.41 -7.01756 3.39351 0
M  V30 39114 N 3702.64 -1.28421 -0.913554 0
M  V30 39115 C 3703.59 -1.12364 -2.01601 0
M  V30 39116 C 3704.56 -0.0207245 -1.66087 0
M  V30 39117 O 3705.74 -0.185693 -1.89894 0
M  V30 39118 C 3702.88 -0.791714 -3.35896 0
M  V30 39119 C 3702 -1.97369 -3.84278 0
M  V30 39120 C 3701.13 -1.58237 -5.07084 0
M  V30 39121 C 3700.17 -2.73099 -5.47799 0
M  V30 39122 N 3699.31 -2.34457 -6.61796 0
M  V30 39123 H 3704.15 -2.06693 -2.14667 0
M  V30 39124 H 3701.68 -1.02873 -1.05145 0
M  V30 39125 H 3703.64 -0.580015 -4.13148 0
M  V30 39126 H 3702.27 0.114643 -3.22596 0
M  V30 39127 H 3701.32 -2.29752 -3.0318 0
M  V30 39128 H 3702.64 -2.83484 -4.10412 0
M  V30 39129 H 3701.79 -1.33275 -5.91881 0
M  V30 39130 H 3700.53 -0.692514 -4.82758 0
M  V30 39131 H 3699.53 -2.98759 -4.61544 0
M  V30 39132 H 3700.76 -3.62727 -5.74113 0
M  V30 39133 H 3698.7 -1.47942 -6.391 0
M  V30 39134 H 3698.62 -3.14108 -6.87657 0
M  V30 39135 H 3699.89 -2.12779 -7.49897 0
M  V30 39136 N 3704.12 1.12202 -1.10672 0
M  V30 39137 C 3705.05 2.20092 -0.779867 0
M  V30 39138 C 3706.03 1.68279 0.248249 0
M  V30 39139 O 3707.21 1.93868 0.113477 0
M  V30 39140 C 3704.34 3.46643 -0.213572 0
M  V30 39141 C 3703.3 4.11622 -1.17265 0
M  V30 39142 C 3702.62 5.32653 -0.467446 0
M  V30 39143 C 3703.92 4.57474 -2.52022 0
M  V30 39144 H 3705.62 2.4769 -1.68196 0
M  V30 39145 H 3703.16 1.19048 -0.810152 0
M  V30 39146 H 3705.12 4.21391 0.0272484 0
M  V30 39147 H 3703.84 3.18479 0.723781 0
M  V30 39148 H 3702.5 3.38857 -1.39897 0
M  V30 39149 H 3702.15 5.00757 0.474459 0
M  V30 39150 H 3701.85 5.77077 -1.10704 0
M  V30 39151 H 3703.37 6.10147 -0.235229 0
M  V30 39152 H 3704.79 5.23583 -2.33525 0
M  V30 39153 H 3703.18 5.12684 -3.11889 0
M  V30 39154 H 3704.25 3.7133 -3.11837 0
M  V30 39155 N 3705.6 0.895838 1.29663 0
M  V30 39156 C 3706.54 0.360444 2.2979 0
M  V30 39157 C 3707.54 -0.538356 1.60618 0
M  V30 39158 O 3708.74 -0.421585 1.74993 0
M  V30 39159 H 3705.12 0.0979249 0.745597 0
M  V30 39160 H 3707.09 1.21836 2.72394 0
M  V30 39161 C 3705.84 -0.40039 3.45387 0
M  V30 39162 H 3705.16 0.281985 3.98804 0
M  V30 39163 H 3706.6 -0.73993 4.17494 0
M  V30 39164 C 3705.06 -1.6016 2.96396 0
M  V30 39165 O 3705.59 -2.70092 2.97343 0
M  V30 39166 N 3703.8 -1.44245 2.52273 0
M  V30 39167 H 3703.34 -0.548098 2.51702 0
M  V30 39168 H 3703.3 -2.24749 2.19853 0
M  V30 39169 N 3707.07 -1.43211 0.657914 0
M  V30 39170 C 3708.01 -2.29094 -0.0695597 0
M  V30 39171 C 3709.02 -1.42765 -0.782438 0
M  V30 39172 O 3710.21 -1.66655 -0.639411 0
M  V30 39173 C 3707.31 -3.19798 -1.12173 0
M  V30 39174 C 3706.48 -4.34691 -0.486054 0
M  V30 39175 C 3705.54 -5.06234 -1.43573 0
M  V30 39176 O 3704.57 -5.61342 -0.942523 0
M  V30 39177 N 3705.77 -5.10171 -2.76957 0
M  V30 39178 H 3708.53 -2.92169 0.667617 0
M  V30 39179 H 3706.09 -1.53952 0.501049 0
M  V30 39180 H 3708.09 -3.64525 -1.75795 0
M  V30 39181 H 3706.66 -2.5829 -1.76082 0
M  V30 39182 H 3705.88 -3.92822 0.32935 0
M  V30 39183 H 3707.16 -5.08782 -0.0425024 0
M  V30 39184 H 3706.56 -4.66779 -3.19583 0
M  V30 39185 H 3705.12 -5.586 -3.3587 0
M  V30 39186 N 3708.55 -0.400135 -1.52436 0
M  V30 39187 C 3709.48 0.421014 -2.29673 0
M  V30 39188 C 3710.46 1.05403 -1.33508 0
M  V30 39189 O 3711.65 1.06475 -1.62409 0
M  V30 39190 C 3708.78 1.54276 -3.11153 0
M  V30 39191 C 3707.73 1.03522 -4.15292 0
M  V30 39192 C 3707.06 2.24987 -4.85062 0
M  V30 39193 C 3708.36 0.0955611 -5.22213 0
M  V30 39194 H 3710.05 -0.223452 -2.98565 0
M  V30 39195 H 3707.6 -0.108908 -1.43588 0
M  V30 39196 H 3709.55 2.12412 -3.63949 0
M  V30 39197 H 3708.28 2.21497 -2.40014 0
M  V30 39198 H 3706.93 0.476319 -3.63492 0
M  V30 39199 H 3706.58 2.90743 -4.1046 0
M  V30 39200 H 3706.28 1.91684 -5.55456 0
M  V30 39201 H 3707.81 2.83747 -5.40666 0
M  V30 39202 H 3709.22 0.585448 -5.70303 0
M  V30 39203 H 3707.62 -0.148226 -5.99917 0
M  V30 39204 H 3708.69 -0.85238 -4.77349 0
M  V30 39205 N 3710.03 1.57061 -0.13028 0
M  V30 39206 C 3711.26 2.00363 0.535672 0
M  V30 39207 C 3711.68 1.00959 1.5871 0
M  V30 39208 O 3711.04 -0.0171227 1.81292 0
M  V30 39209 C 3711.09 3.42493 1.1283 0
M  V30 39210 O 3710.19 3.46029 2.24361 0
M  V30 39211 H 3709.53 0.6506 0.132724 0
M  V30 39212 H 3712.06 2.03391 -0.222083 0
M  V30 39213 H 3712.07 3.80941 1.46108 0
M  V30 39214 H 3710.75 4.14354 0.358231 0
M  V30 39215 H 3709.32 3.19409 1.92438 0
M  V30 39216 N 3711.51 -0.143508 1.56945 0
M  V30 39217 C 3712.93 -0.496264 1.51688 0
M  V30 39218 C 3713.13 -1.83189 0.839284 0
M  V30 39219 O 3712.18 -2.49128 0.411279 0
M  V30 39220 C 3713.49 -0.50335 2.96457 0
M  V30 39221 C 3715.04 -0.588622 3.07415 0
M  V30 39222 C 3715.52 -0.626336 4.53697 0
M  V30 39223 N 3717.01 -0.688463 4.58055 0
M  V30 39224 C 3717.74 -0.738686 5.68622 0
M  V30 39225 N 3717.24 -0.748042 6.8875 0
M  V30 39226 N 3719.03 -0.779833 5.56664 0
M  V30 39227 H 3711.18 0.731936 1.9939 0
M  V30 39228 H 3713.45 0.267279 0.909542 0
M  V30 39229 H 3713.15 0.409906 3.49303 0
M  V30 39230 H 3713.03 -1.34001 3.52595 0
M  V30 39231 H 3715.41 -1.4923 2.54587 0
M  V30 39232 H 3715.49 0.275258 2.54315 0
M  V30 39233 H 3715.14 0.273197 5.07165 0
M  V30 39234 H 3715.07 -1.50676 5.04583 0
M  V30 39235 H 3717.56 -0.688389 3.71577 0
M  V30 39236 H 3717.87 -0.788309 7.68769 0
M  V30 39237 H 3716.22 -0.715861 6.91303 0
M  V30 39238 H 3719.41 -0.769717 4.61728 0
M  V30 39239 H 3719.58 -0.815508 6.42848 0
M  V30 39240 N 3712.99 -1.52093 -0.412964 0
M  V30 39241 C 3713.93 -1.75161 -1.50291 0
M  V30 39242 C 3714.9 -0.593929 -1.55118 0
M  V30 39243 O 3716.09 -0.831062 -1.7175 0
M  V30 39244 C 3713.23 -1.90468 -2.87777 0
M  V30 39245 C 3712.34 -3.18106 -2.92289 0
M  V30 39246 C 3711.48 -3.23867 -4.21051 0
M  V30 39247 C 3710.52 -4.45721 -4.19522 0
M  V30 39248 N 3709.65 -4.48896 -5.39849 0
M  V30 39249 H 3714.49 -2.68187 -1.29922 0
M  V30 39250 H 3712.03 -1.32892 -0.630717 0
M  V30 39251 H 3713.99 -1.97327 -3.67584 0
M  V30 39252 H 3712.62 -1.00827 -3.06649 0
M  V30 39253 H 3711.67 -3.20438 -2.04997 0
M  V30 39254 H 3712.98 -4.07945 -2.87024 0
M  V30 39255 H 3712.14 -3.29776 -5.09247 0
M  V30 39256 H 3710.88 -2.3196 -4.29006 0
M  V30 39257 H 3709.88 -4.39963 -3.29716 0
M  V30 39258 H 3711.11 -5.38919 -4.1321 0
M  V30 39259 H 3709.05 -3.5987 -5.48479 0
M  V30 39260 H 3708.97 -5.32575 -5.36563 0
M  V30 39261 H 3710.24 -4.59029 -6.3001 0
M  V30 39262 N 3714.47 0.669957 -1.42651 0
M  V30 39263 C 3715.38 1.81274 -1.4892 0
M  V30 39264 C 3716.39 1.69854 -0.377553 0
M  V30 39265 O 3717.57 1.9132 -0.629185 0
M  V30 39266 C 3714.63 3.17449 -1.39381 0
M  V30 39267 C 3713.69 3.40789 -2.61078 0
M  V30 39268 C 3712.93 4.70467 -2.51985 0
M  V30 39269 O 3713.15 5.48699 -1.55837 0
M  V30 39270 O 3712.08 4.95158 -3.42201 0
M  V30 39271 H 3715.91 1.78941 -2.45385 0
M  V30 39272 H 3713.49 0.826321 -1.24468 0
M  V30 39273 H 3715.38 3.987 -1.36442 0
M  V30 39274 H 3714.05 3.20409 -0.460432 0
M  V30 39275 H 3712.96 2.59367 -2.69591 0
M  V30 39276 H 3714.29 3.42663 -3.53331 0
M  V30 39277 N 3715.94 1.28904 0.90673 0
M  V30 39278 C 3717.19 1.16467 1.65656 0
M  V30 39279 C 3717.52 -0.285308 1.92396 0
M  V30 39280 O 3716.77 -1.22326 1.52758 0
M  V30 39281 C 3717.07 1.91593 3.01706 0
M  V30 39282 C 3716.74 3.41352 2.946 0
M  V30 39283 C 3715.4 3.82196 2.9237 0
M  V30 39284 C 3717.75 4.36815 2.84328 0
M  V30 39285 C 3715.08 5.1683 2.77676 0
M  V30 39286 C 3717.43 5.71531 2.71174 0
M  V30 39287 C 3716.1 6.11641 2.67305 0
M  V30 39288 H 3715.37 0.426182 0.606176 0
M  V30 39289 H 3718.01 1.5976 1.05589 0
M  V30 39290 H 3716.32 1.4087 3.65599 0
M  V30 39291 H 3718.02 1.7938 3.58641 0
M  V30 39292 H 3714.61 3.08883 2.97135 0
M  V30 39293 H 3718.79 4.06217 2.85133 0
M  V30 39294 H 3714.05 5.47025 2.73081 0
M  V30 39295 H 3718.22 6.45156 2.62195 0
M  V30 39296 H 3715.85 7.15914 2.55677 0
M  V30 39297 N 3717.42 -1.11614 1.11266 0
M  V30 39298 C 3718.7 -1.79712 0.772205 0
M  V30 39299 C 3719.08 -1.97704 -0.74002 0
M  V30 39300 O 3718.43 -1.56027 -1.66936 0
M  V30 39301 C 3718.64 -3.13518 1.53321 0
M  V30 39302 C 3719.98 -3.88586 1.71131 0
M  V30 39303 O 3721.01 -3.23201 1.49731 0
M  V30 39304 O 3719.87 -5.05911 2.06679 0
M  V30 39305 H 3716.96 -0.778315 0.279562 0
M  V30 39306 H 3719.51 -1.18373 1.21598 0
M  V30 39307 H 3718.28 -2.95766 2.56199 0
M  V30 39308 H 3717.9 -3.8257 1.08287 0
M  V30 39309 N 3718.9 -0.902701 -1.29186 0
M  V30 39310 C 3719.83 -0.399397 -2.30059 0
M  V30 39311 C 3720.81 0.52717 -1.61725 0
M  V30 39312 O 3722 0.43726 -1.89213 0
M  V30 39313 C 3719.13 0.37127 -3.4531 0
M  V30 39314 C 3718.08 -0.465143 -4.25465 0
M  V30 39315 C 3717.41 0.433202 -5.32942 0
M  V30 39316 C 3718.71 -1.71664 -4.93284 0
M  V30 39317 H 3720.4 -1.24238 -2.72407 0
M  V30 39318 H 3717.95 -0.598845 -1.30957 0
M  V30 39319 H 3719.9 0.734134 -4.14956 0
M  V30 39320 H 3718.62 1.24806 -3.01813 0
M  V30 39321 H 3717.28 -0.810378 -3.57531 0
M  V30 39322 H 3716.93 1.30821 -4.8569 0
M  V30 39323 H 3716.63 -0.122761 -5.87472 0
M  V30 39324 H 3718.15 0.792192 -6.05439 0
M  V30 39325 H 3719.57 -1.42333 -5.55351 0
M  V30 39326 H 3717.96 -2.21415 -5.57759 0
M  V30 39327 H 3719.03 -2.45089 -4.18401 0
M  V30 39328 N 3720.38 1.4286 -0.6655 0
M  V30 39329 C 3721.61 2.05708 -0.191758 0
M  V30 39330 C 3722.02 1.50039 1.1526 0
M  V30 39331 O 3721.36 0.63119 1.72516 0
M  V30 39332 C 3721.42 3.59478 -0.0393635 0
M  V30 39333 C 3721.08 4.37793 -1.31096 0
M  V30 39334 C 3722.08 4.69055 -2.24241 0
M  V30 39335 C 3719.77 4.77593 -1.55597 0
M  V30 39336 C 3721.76 5.39039 -3.4017 0
M  V30 39337 C 3719.45 5.4732 -2.71817 0
M  V30 39338 C 3720.45 5.77967 -3.63928 0
M  V30 39339 O 3720.13 6.46266 -4.78116 0
M  V30 39340 H 3719.87 0.669578 -0.0929585 0
M  V30 39341 H 3722.42 1.84145 -0.909936 0
M  V30 39342 H 3720.65 3.79664 0.734305 0
M  V30 39343 H 3722.34 4.0399 0.393309 0
M  V30 39344 H 3723.1 4.38815 -2.06559 0
M  V30 39345 H 3718.98 4.53138 -0.847766 0
M  V30 39346 H 3722.53 5.62878 -4.12086 0
M  V30 39347 H 3718.42 5.76976 -2.89428 0
M  V30 39348 H 3719.19 6.64754 -4.7754 0
M  V30 39349 N 3721.86 0.408213 1.52221 0
M  V30 39350 C 3722.8 -0.417727 2.26988 0
M  V30 39351 C 3723.77 -1.04183 1.29364 0
M  V30 39352 O 3724.96 -1.06628 1.58225 0
M  V30 39353 C 3722.1 -1.52895 3.09382 0
M  V30 39354 C 3721.21 -0.925855 4.21962 0
M  V30 39355 C 3720.35 -2.0097 4.91716 0
M  V30 39356 C 3719.38 -1.38349 5.9626 0
M  V30 39357 N 3718.52 -2.40745 6.59535 0
M  V30 39358 H 3723.36 0.22628 2.9714 0
M  V30 39359 H 3720.9 0.123428 1.46581 0
M  V30 39360 H 3722.86 -2.18419 3.55456 0
M  V30 39361 H 3721.49 -2.143 2.41403 0
M  V30 39362 H 3720.54 -0.159698 3.80065 0
M  V30 39363 H 3721.85 -0.428409 4.96957 0
M  V30 39364 H 3721 -2.74222 5.41191 0
M  V30 39365 H 3719.74 -2.5408 4.16287 0
M  V30 39366 H 3718.75 -0.636306 5.46105 0
M  V30 39367 H 3719.97 -0.8601 6.73631 0
M  V30 39368 H 3717.92 -2.92989 5.86936 0
M  V30 39369 H 3717.84 -1.95809 7.30202 0
M  V30 39370 H 3719.1 -3.13569 7.13649 0
M  V30 39371 N 3723.33 -1.56989 0.138607 0
M  V30 39372 C 3724.28 -2.16333 -0.804267 0
M  V30 39373 C 3725.25 -1.09381 -1.25 0
M  V30 39374 O 3726.44 -1.37383 -1.32403 0
M  V30 39375 C 3723.58 -2.78252 -2.04132 0
M  V30 39376 C 3722.69 -3.99571 -1.64216 0
M  V30 39377 C 3721.82 -4.49514 -2.83038 0
M  V30 39378 C 3720.86 -5.63319 -2.39455 0
M  V30 39379 N 3720 -6.07917 -3.51256 0
M  V30 39380 H 3724.84 -2.96572 -0.291388 0
M  V30 39381 H 3722.38 -1.46505 -0.13212 0
M  V30 39382 H 3724.33 -3.12291 -2.76641 0
M  V30 39383 H 3722.96 -2.00671 -2.52845 0
M  V30 39384 H 3722.02 -3.71566 -0.815058 0
M  V30 39385 H 3723.33 -4.82043 -1.28202 0
M  V30 39386 H 3722.48 -4.85565 -3.63746 0
M  V30 39387 H 3721.22 -3.66032 -3.22292 0
M  V30 39388 H 3720.23 -5.26852 -1.57184 0
M  V30 39389 H 3721.45 -6.48581 -2.01296 0
M  V30 39390 H 3719.4 -5.27372 -3.90147 0
M  V30 39391 H 3719.31 -6.85295 -3.19229 0
M  V30 39392 H 3720.58 -6.48611 -4.32347 0
M  V30 39393 N 3724.81 0.135183 -1.57019 0
M  V30 39394 C 3726.04 0.864366 -1.8853 0
M  V30 39395 C 3726.46 1.73404 -0.728882 0
M  V30 39396 O 3725.82 1.78433 0.321164 0
M  V30 39397 C 3725.87 1.68715 -3.18697 0
M  V30 39398 O 3724.97 2.79256 -3.03463 0
M  V30 39399 H 3724.31 0.240039 -0.619094 0
M  V30 39400 H 3726.84 0.122444 -2.04233 0
M  V30 39401 H 3726.85 2.07973 -3.51014 0
M  V30 39402 H 3725.53 1.04861 -4.02464 0
M  V30 39403 H 3724.1 2.43318 -2.82579 0
M  V30 39404 N 3726.29 1.5231 0.404892 0
M  V30 39405 C 3727.54 1.66248 1.14918 0
M  V30 39406 C 3727.86 0.396901 1.90918 0
M  V30 39407 O 3727.13 -0.588328 1.86857 0
M  V30 39408 H 3725.71 0.612779 0.427212 0
M  V30 39409 H 3728.37 1.89368 0.461058 0
M  V30 39410 H 3727.47 2.50553 1.8609 0
M  V30 39411 N 3727.77 -0.662382 1.43004 0
M  V30 39412 C 3729.02 -1.41818 1.43424 0
M  V30 39413 C 3729.33 -1.95512 0.0587253 0
M  V30 39414 O 3730.54 -2.71434 -0.0596501 0
M  V30 39415 C 3728.99 -2.56609 2.52349 0
M  V30 39416 C 3728.6 -2.09562 3.95964 0
M  V30 39417 C 3730.34 -3.34039 2.61951 0
M  V30 39418 C 3728.25 -3.21509 4.96373 0
M  V30 39419 H 3727.18 -0.532823 0.533494 0
M  V30 39420 H 3729.83 -0.715882 1.6896 0
M  V30 39421 H 3728.21 -3.29267 2.19999 0
M  V30 39422 H 3729.39 -1.43976 4.3773 0
M  V30 39423 H 3727.7 -1.45037 3.90325 0
M  V30 39424 H 3730.3 -4.17435 3.34144 0
M  V30 39425 H 3730.64 -3.8146 1.66715 0
M  V30 39426 H 3731.18 -2.68457 2.93557 0
M  V30 39427 H 3727.92 -2.79066 5.93129 0
M  V30 39428 H 3727.44 -3.85837 4.59228 0
M  V30 39429 H 3729.11 -3.86784 5.18659 0
M  V30 39430 N 3729.25 -1.29383 -0.899882 0
M  V30 39431 C 3730.47 -1.2023 -1.68381 0
M  V30 39432 C 3730.89 0.237102 -1.87305 0
M  V30 39433 O 3730.25 1.15874 -1.40994 0
M  V30 39434 C 3730.3 -1.9113 -3.06841 0
M  V30 39435 O 3730.02 -3.29449 -2.88782 0
M  V30 39436 C 3731.52 -1.88452 -4.01249 0
M  V30 39437 H 3728.74 -0.416726 -0.525909 0
M  V30 39438 H 3731.28 -1.70752 -1.12534 0
M  V30 39439 H 3729.44 -1.44444 -3.59464 0
M  V30 39440 H 3729.85 -3.65155 -3.76513 0
M  V30 39441 H 3731.33 -2.42625 -4.9582 0
M  V30 39442 H 3731.8 -0.86 -4.30698 0
M  V30 39443 H 3732.41 -2.3488 -3.54558 0
M  V30 39444 N 3730.72 1.11022 -1.11856 0
M  V30 39445 C 3731.63 2.20765 -0.793719 0
M  V30 39446 C 3732.65 1.72667 0.214965 0
M  V30 39447 O 3733.83 2.01338 0.0500622 0
M  V30 39448 C 3730.89 3.45823 -0.246436 0
M  V30 39449 C 3729.95 4.08687 -1.31428 0
M  V30 39450 C 3729.19 5.27775 -0.793014 0
M  V30 39451 O 3729.41 5.69163 0.375392 0
M  V30 39452 O 3728.34 5.81338 -1.55981 0
M  V30 39453 H 3732.17 2.50973 -1.71015 0
M  V30 39454 H 3729.75 1.19642 -0.894773 0
M  V30 39455 H 3731.64 4.21365 0.0541891 0
M  V30 39456 H 3730.31 3.17257 0.642647 0
M  V30 39457 H 3729.22 3.34857 -1.66798 0
M  V30 39458 H 3730.55 4.41443 -2.17691 0
M  V30 39459 N 3732.2 0.90954 1.28706 0
M  V30 39460 C 3733.45 0.541316 1.95442 0
M  V30 39461 C 3733.78 -0.911904 1.71458 0
M  V30 39462 O 3733.06 -1.64792 1.03315 0
M  V30 39463 C 3733.34 0.846158 3.50017 0
M  V30 39464 C 3733.19 2.3518 3.83419 0
M  V30 39465 C 3734.51 0.339405 4.38789 0
M  V30 39466 H 3731.63 0.198141 0.709866 0
M  V30 39467 H 3734.27 1.13802 1.52149 0
M  V30 39468 H 3732.42 0.33833 3.87024 0
M  V30 39469 H 3734.09 2.92993 3.56305 0
M  V30 39470 H 3732.34 2.80852 3.30613 0
M  V30 39471 H 3733.01 2.51565 4.91344 0
M  V30 39472 H 3735.48 0.774384 4.08831 0
M  V30 39473 H 3734.36 0.581818 5.45808 0
M  V30 39474 H 3734.62 -0.760167 4.35516 0
M  V30 39475 N 3733.68 -1.42505 0.673067 0
M  V30 39476 C 3734.96 -1.95209 0.12364 0
M  V30 39477 C 3735.34 -1.61357 -1.36115 0
M  V30 39478 O 3734.69 -0.90883 -2.09649 0
M  V30 39479 C 3734.9 -3.46803 0.390941 0
M  V30 39480 C 3736.24 -4.23492 0.306519 0
M  V30 39481 O 3737.27 -3.54718 0.324592 0
M  V30 39482 O 3736.13 -5.45941 0.247223 0
M  V30 39483 H 3733.22 -0.826998 0.00186322 0
M  V30 39484 H 3735.77 -1.52341 0.747677 0
M  V30 39485 H 3734.54 -3.64642 1.41957 0
M  V30 39486 H 3734.16 -3.96715 -0.265189 0
M  V30 39487 N 3735.16 -0.41628 -1.52003 0
M  V30 39488 C 3736.57 -0.0675055 -1.59457 0
M  V30 39489 C 3736.77 1.42096 -1.42867 0
M  V30 39490 O 3735.83 2.1886 -1.25923 0
M  V30 39491 C 3737.14 -0.568812 -2.95271 0
M  V30 39492 C 3738.69 -0.52741 -3.08525 0
M  V30 39493 C 3739.17 -1.00534 -4.4683 0
M  V30 39494 N 3740.66 -0.962457 -4.53091 0
M  V30 39495 C 3741.39 -1.30337 -5.5839 0
M  V30 39496 N 3740.89 -1.71609 -6.71209 0
M  V30 39497 N 3742.68 -1.22288 -5.48637 0
M  V30 39498 H 3734.83 -1.38499 -1.61033 0
M  V30 39499 H 3737.1 -0.569413 -0.75794 0
M  V30 39500 H 3736.8 -1.60943 -3.12714 0
M  V30 39501 H 3736.68 0.0176932 -3.77196 0
M  V30 39502 H 3739.06 0.504174 -2.90761 0
M  V30 39503 H 3739.14 -1.15006 -2.28489 0
M  V30 39504 H 3738.79 -2.03529 -4.65337 0
M  V30 39505 H 3738.72 -0.359437 -5.25372 0
M  V30 39506 H 3741.21 -0.659106 -3.72108 0
M  V30 39507 H 3741.52 -1.95914 -7.47554 0
M  V30 39508 H 3739.87 -1.75519 -6.72472 0
M  V30 39509 H 3743.06 -0.899256 -4.59381 0
M  V30 39510 H 3743.23 -1.49186 -6.30593 0
M  V30 39511 N 3736.64 1.56914 -0.146931 0
M  V30 39512 C 3737.86 2.00487 0.511146 0
M  V30 39513 C 3738.28 1.02702 1.58423 0
M  V30 39514 O 3737.64 0.0240199 1.82484 0
M  V30 39515 C 3737.69 3.43977 1.11185 0
M  V30 39516 O 3737.41 4.38024 0.0816324 0
M  V30 39517 C 3738.91 4.02827 1.85054 0
M  V30 39518 H 3736.13 0.657673 0.133067 0
M  V30 39519 H 3738.67 2.03069 -0.241493 0
M  V30 39520 H 3736.83 3.42246 1.81511 0
M  V30 39521 H 3737.24 5.21899 0.521718 0
M  V30 39522 H 3738.72 5.05226 2.22376 0
M  V30 39523 H 3739.19 3.43535 2.73643 0
M  V30 39524 H 3739.8 4.08188 1.19427 0
M  V30 39525 N 3738.11 -0.126854 1.57089 0
M  V30 39526 C 3739.02 -1.17499 2.03055 0
M  V30 39527 C 3740.04 -1.45809 0.949509 0
M  V30 39528 O 3741.22 -1.57081 1.26046 0
M  V30 39529 C 3738.28 -2.48364 2.41902 0
M  V30 39530 C 3737.34 -2.27521 3.64051 0
M  V30 39531 C 3736.58 -3.52145 4.01035 0
M  V30 39532 O 3736.8 -4.59139 3.38449 0
M  V30 39533 O 3735.73 -3.43613 4.9418 0
M  V30 39534 H 3739.56 -0.814681 2.92569 0
M  V30 39535 H 3737.14 -0.337074 1.45548 0
M  V30 39536 H 3739.03 -3.2548 2.67657 0
M  V30 39537 H 3737.7 -2.83884 1.55536 0
M  V30 39538 H 3736.61 -1.48288 3.43455 0
M  V30 39539 H 3737.94 -1.96908 4.51097 0
M  V30 39540 N 3739.59 -1.52523 -0.396809 0
M  V30 39541 C 3740.56 -1.76108 -1.46692 0
M  V30 39542 C 3741.56 -0.631031 -1.47901 0
M  V30 39543 O 3742.75 -0.899021 -1.49209 0
M  V30 39544 C 3739.88 -1.85472 -2.8603 0
M  V30 39545 H 3741.07 -2.71651 -1.27066 0
M  V30 39546 H 3738.62 -1.43126 -0.628071 0
M  V30 39547 H 3739.36 -0.91887 -3.1101 0
M  V30 39548 H 3739.14 -2.67636 -2.86554 0
M  V30 39549 H 3740.63 -2.05419 -3.63583 0
M  V30 39550 N 3741.07 0.654789 -1.43354 0
M  V30 39551 C 3742.02 1.76773 -1.48391 0
M  V30 39552 C 3742.99 1.62712 -0.333783 0
M  V30 39553 O 3744.17 1.82978 -0.540715 0
M  V30 39554 C 3741.31 3.14919 -1.41137 0
M  V30 39555 C 3740.43 3.40126 -2.66342 0
M  V30 39556 C 3739.56 4.68111 -2.51088 0
M  V30 39557 C 3738.6 4.86418 -3.71569 0
M  V30 39558 N 3737.74 6.05659 -3.55135 0
M  V30 39559 H 3742.58 1.71803 -2.4349 0
M  V30 39560 H 3740.11 0.838421 -1.20867 0
M  V30 39561 H 3742.07 3.94779 -1.34927 0
M  V30 39562 H 3740.7 3.18963 -0.496205 0
M  V30 39563 H 3739.75 2.54375 -2.82838 0
M  V30 39564 H 3741.07 3.4954 -3.55841 0
M  V30 39565 H 3740.22 5.56095 -2.42577 0
M  V30 39566 H 3738.96 4.61015 -1.59111 0
M  V30 39567 H 3737.96 3.96871 -3.80491 0
M  V30 39568 H 3739.19 4.95345 -4.64553 0
M  V30 39569 H 3737.14 5.99698 -2.65891 0
M  V30 39570 H 3737.05 6.16024 -4.38235 0
M  V30 39571 H 3738.32 6.96268 -3.50473 0
M  V30 39572 N 3742.55 1.29858 0.893007 0
M  V30 39573 C 3743.46 1.1746 2.03077 0
M  V30 39574 C 3744.48 0.0963246 1.73733 0
M  V30 39575 O 3745.65 0.309702 1.99005 0
M  V30 39576 C 3742.72 0.85905 3.35889 0
M  V30 39577 C 3741.78 2.02186 3.78707 0
M  V30 39578 C 3741.01 1.72127 5.05181 0
M  V30 39579 O 3741.23 0.645376 5.66737 0
M  V30 39580 O 3740.17 2.57128 5.44214 0
M  V30 39581 H 3743.99 2.13021 2.16462 0
M  V30 39582 H 3741.58 1.09374 1.01772 0
M  V30 39583 H 3743.46 0.697925 4.1558 0
M  V30 39584 H 3742.14 -0.0667187 3.23631 0
M  V30 39585 H 3741.04 2.23827 2.99754 0
M  V30 39586 H 3742.38 2.92907 3.95558 0
M  V30 39587 N 3744.03 -1.10427 1.12443 0
M  V30 39588 C 3745.28 -1.82029 0.878053 0
M  V30 39589 C 3745.6 -1.85612 -0.597754 0
M  V30 39590 O 3744.87 -1.33424 -1.43439 0
M  V30 39591 H 3743.45 -0.674107 0.321851 0
M  V30 39592 H 3746.11 -1.33613 1.41893 0
M  V30 39593 H 3745.2 -2.85552 1.25962 0
M  V30 39594 N 3745.51 -0.916353 -1.28221 0
M  V30 39595 C 3746.44 -0.423776 -2.29622 0
M  V30 39596 C 3747.42 0.509987 -1.62275 0
M  V30 39597 O 3748.6 0.417166 -1.89666 0
M  V30 39598 C 3745.73 0.334625 -3.45684 0
M  V30 39599 C 3744.69 -0.510243 -4.24948 0
M  V30 39600 C 3744.01 0.376652 -5.33372 0
M  V30 39601 C 3745.31 -1.76886 -4.91435 0
M  V30 39602 H 3747.01 -1.2712 -2.71074 0
M  V30 39603 H 3744.55 -0.612701 -1.30315 0
M  V30 39604 H 3746.5 0.690081 -4.15711 0
M  V30 39605 H 3745.23 1.21597 -3.0312 0
M  V30 39606 H 3743.89 -0.848253 -3.56651 0
M  V30 39607 H 3743.54 1.25662 -4.8705 0
M  V30 39608 H 3743.24 -0.185063 -5.87309 0
M  V30 39609 H 3744.76 0.727932 -6.06245 0
M  V30 39610 H 3746.17 -1.48215 -5.5381 0
M  V30 39611 H 3744.57 -2.27318 -5.5538 0
M  V30 39612 H 3745.64 -2.49512 -4.15778 0
M  V30 39613 N 3746.98 1.42146 -0.680615 0
M  V30 39614 C 3747.93 2.30799 -0.00589983 0
M  V30 39615 C 3748.9 1.46285 0.786752 0
M  V30 39616 O 3750.09 1.75105 0.757822 0
M  V30 39617 C 3747.23 3.32185 0.935261 0
M  V30 39618 C 3746.34 4.31786 0.135815 0
M  V30 39619 C 3745.47 5.20245 1.07325 0
M  V30 39620 C 3744.51 6.11522 0.265836 0
M  V30 39621 N 3743.65 6.92513 1.15629 0
M  V30 39622 H 3748.49 2.87942 -0.767702 0
M  V30 39623 H 3746.03 1.41827 -0.390315 0
M  V30 39624 H 3747.98 3.89501 1.49482 0
M  V30 39625 H 3746.61 2.76628 1.66363 0
M  V30 39626 H 3745.67 3.76541 -0.540449 0
M  V30 39627 H 3746.98 4.96379 -0.490803 0
M  V30 39628 H 3746.13 5.82322 1.70254 0
M  V30 39629 H 3744.87 4.55843 1.73375 0
M  V30 39630 H 3743.88 5.48508 -0.376627 0
M  V30 39631 H 3745.1 6.77975 -0.390649 0
M  V30 39632 H 3743.05 6.30734 1.80308 0
M  V30 39633 H 3742.96 7.53734 0.58489 0
M  V30 39634 H 3744.23 7.59072 1.77286 0
M  V30 39635 N 3748.46 0.424336 1.5178 0
M  V30 39636 C 3749.88 0.075961 1.59419 0
M  V30 39637 C 3750.08 -1.41336 1.43619 0
M  V30 39638 O 3749.13 -2.18189 1.27082 0
M  V30 39639 C 3750.45 0.584463 2.94965 0
M  V30 39640 C 3751.99 0.543764 3.0824 0
M  V30 39641 C 3752.47 1.02903 4.4629 0
M  V30 39642 N 3753.96 0.986472 4.52574 0
M  V30 39643 C 3754.7 1.33296 5.57691 0
M  V30 39644 N 3754.19 1.75166 6.7029 0
M  V30 39645 N 3755.98 1.25196 5.4798 0
M  V30 39646 H 3748.14 1.39351 1.60296 0
M  V30 39647 H 3750.4 0.573424 0.75491 0
M  V30 39648 H 3750.1 1.62599 3.11857 0
M  V30 39649 H 3749.98 0.00231066 3.772 0
M  V30 39650 H 3752.37 -0.488747 2.91025 0
M  V30 39651 H 3752.45 1.16216 2.27876 0
M  V30 39652 H 3752.09 2.05994 4.64251 0
M  V30 39653 H 3752.02 0.387294 5.25174 0
M  V30 39654 H 3754.51 0.67883 3.71753 0
M  V30 39655 H 3754.82 1.99876 7.46505 0
M  V30 39656 H 3753.17 1.79082 6.71531 0
M  V30 39657 H 3756.36 0.923605 4.58898 0
M  V30 39658 H 3756.53 1.52528 6.29793 0
M  V30 39659 N 3749.94 -1.56833 0.15525 0
M  V30 39660 C 3751.19 -1.95999 -0.492816 0
M  V30 39661 C 3751.51 -1.04153 -1.64855 0
M  V30 39662 O 3750.78 -0.104689 -1.9562 0
M  V30 39663 H 3749.36 -0.723716 -0.18505 0
M  V30 39664 H 3752.02 -1.93506 0.232678 0
M  V30 39665 H 3751.12 -2.99917 -0.863499 0
M  V30 39666 N 3751.42 0.118521 -1.57154 0
M  V30 39667 C 3752.33 1.1642 -2.03675 0
M  V30 39668 C 3753.34 1.45304 -0.957229 0
M  V30 39669 O 3754.52 1.5641 -1.26877 0
M  V30 39670 C 3751.58 2.47077 -2.43215 0
M  V30 39671 C 3750.65 2.25587 -3.65252 0
M  V30 39672 C 3749.88 3.50014 -4.02897 0
M  V30 39673 O 3750.1 4.57338 -3.40879 0
M  V30 39674 O 3749.04 3.40987 -4.95995 0
M  V30 39675 H 3752.86 0.799154 -2.92997 0
M  V30 39676 H 3750.45 0.329351 -1.45725 0
M  V30 39677 H 3752.33 3.24056 -2.6938 0
M  V30 39678 H 3751 2.83055 -1.57039 0
M  V30 39679 H 3749.91 1.46465 -3.44237 0
M  V30 39680 H 3751.24 1.94513 -4.52135 0
M  V30 39681 N 3752.9 1.52731 0.388715 0
M  V30 39682 C 3754.14 1.67013 1.13091 0
M  V30 39683 C 3754.46 0.416501 1.91114 0
M  V30 39684 O 3755.66 0.439457 2.6792 0
M  V30 39685 C 3754.12 2.95152 2.05944 0
M  V30 39686 C 3753.73 4.27696 1.33342 0
M  V30 39687 C 3755.47 3.188 2.80297 0
M  V30 39688 C 3753.38 5.46942 2.24963 0
M  V30 39689 H 3752.31 0.62221 0.425876 0
M  V30 39690 H 3754.96 1.79227 0.393677 0
M  V30 39691 H 3753.34 2.76685 2.83304 0
M  V30 39692 H 3754.52 4.56717 0.612056 0
M  V30 39693 H 3752.83 4.10311 0.709475 0
M  V30 39694 H 3755.43 4.05071 3.49029 0
M  V30 39695 H 3755.77 2.33883 3.4439 0
M  V30 39696 H 3756.3 3.37835 2.1003 0
M  V30 39697 H 3753.04 6.34267 1.65485 0
M  V30 39698 H 3752.56 5.22232 2.95014 0
M  V30 39699 H 3754.24 5.80828 2.8504 0
M  V30 39700 N 3754.37 -0.647178 1.43699 0
M  V30 39701 C 3755.6 -1.43459 1.49087 0
M  V30 39702 C 3756.02 -1.88476 0.110638 0
M  V30 39703 O 3755.37 -1.59863 -0.880337 0
M  V30 39704 C 3755.42 -2.66558 2.44191 0
M  V30 39705 O 3755.15 -2.23422 3.76847 0
M  V30 39706 C 3756.65 -3.59854 2.58882 0
M  V30 39707 H 3753.87 -0.440508 0.506156 0
M  V30 39708 H 3756.41 -0.792897 1.88503 0
M  V30 39709 H 3754.57 -3.26854 2.07955 0
M  V30 39710 H 3754.98 -3.03112 4.28046 0
M  V30 39711 H 3756.45 -4.42877 3.2949 0
M  V30 39712 H 3756.93 -4.07603 1.63575 0
M  V30 39713 H 3757.54 -3.05436 2.95955 0
M  V30 39714 N 3755.85 -1.3033 -0.886108 0
M  V30 39715 C 3756.8 -1.13227 -1.97898 0
M  V30 39716 C 3757.79 -0.0477651 -1.60829 0
M  V30 39717 O 3758.98 -0.270963 -1.74914 0
M  V30 39718 C 3756.11 -0.825002 -3.3324 0
M  V30 39719 C 3755.19 -1.94971 -3.76626 0
M  V30 39720 N 3755.58 -3.19493 -3.9212 0
M  V30 39721 C 3753.88 -1.84582 -4.06012 0
M  V30 39722 C 3754.58 -3.92959 -4.28903 0
M  V30 39723 N 3753.56 -3.21001 -4.38702 0
M  V30 39724 H 3757.36 -2.07672 -2.07966 0
M  V30 39725 H 3754.88 -1.21653 -1.07584 0
M  V30 39726 H 3756.87 -0.683495 -4.11259 0
M  V30 39727 H 3755.53 0.111381 -3.24509 0
M  V30 39728 H 3756.54 -3.54794 -3.77282 0
M  V30 39729 H 3753.22 -0.98304 -4.05762 0
M  V30 39730 H 3754.61 -5.00187 -4.48623 0
M  V30 39731 N 3757.33 1.0983 -1.13028 0
M  V30 39732 C 3758.28 2.14508 -0.772691 0
M  V30 39733 C 3759.26 1.59229 0.231299 0
M  V30 39734 O 3760.46 1.76964 0.0358456 0
M  V30 39735 C 3757.59 3.42489 -0.235822 0
M  V30 39736 C 3756.67 4.04686 -1.26847 0
M  V30 39737 N 3757.06 4.41497 -2.46808 0
M  V30 39738 C 3755.36 4.3183 -1.11529 0
M  V30 39739 C 3756.06 4.9044 -3.128 0
M  V30 39740 N 3755.04 4.87637 -2.40232 0
M  V30 39741 H 3758.84 2.40769 -1.68546 0
M  V30 39742 H 3756.35 1.27015 -1.01197 0
M  V30 39743 H 3758.35 4.16882 0.0385758 0
M  V30 39744 H 3757.01 3.17684 0.671321 0
M  V30 39745 H 3758.02 4.32992 -2.84145 0
M  V30 39746 H 3754.7 4.16652 -0.265963 0
M  V30 39747 H 3756.09 5.2842 -4.14997 0
M  V30 39748 N 3758.81 0.92314 1.27734 0
M  V30 39749 C 3759.77 0.423415 2.25255 0
M  V30 39750 C 3760.77 -0.45549 1.54214 0
M  V30 39751 O 3761.96 -0.257215 1.72291 0
M  V30 39752 C 3759.09 -0.391838 3.38641 0
M  V30 39753 H 3760.29 1.28499 2.70976 0
M  V30 39754 H 3757.84 0.703403 1.39578 0
M  V30 39755 H 3758.57 -1.27243 2.98295 0
M  V30 39756 H 3758.36 0.238262 3.91375 0
M  V30 39757 H 3759.85 -0.731997 4.11134 0
M  V30 39758 N 3760.29 -1.41783 0.688143 0
M  V30 39759 C 3761.53 -2.01643 0.216299 0
M  V30 39760 C 3761.87 -1.54348 -1.17858 0
M  V30 39761 O 3761.14 -0.751424 -1.79399 0
M  V30 39762 C 3761.42 -3.59118 0.265726 0
M  V30 39763 C 3761.28 -4.16559 1.69701 0
M  V30 39764 C 3762.6 -4.38468 -0.378636 0
M  V30 39765 H 3759.71 -0.732637 0.0800711 0
M  V30 39766 H 3762.36 -1.68629 0.875458 0
M  V30 39767 H 3760.51 -3.87374 -0.29552 0
M  V30 39768 H 3762.18 -3.99206 2.31153 0
M  V30 39769 H 3760.42 -3.71882 2.23352 0
M  V30 39770 H 3761.09 -5.25712 1.68319 0
M  V30 39771 H 3763.57 -4.15982 0.0992701 0
M  V30 39772 H 3762.44 -5.48004 -0.313473 0
M  V30 39773 H 3762.71 -4.17358 -1.45825 0
M  V30 39774 N 3761.76 -0.432379 -1.51553 0
M  V30 39775 C 3762.99 0.136959 -2.06947 0
M  V30 39776 C 3763.41 1.3612 -1.29819 0
M  V30 39777 O 3762.77 1.78183 -0.334764 0
M  V30 39778 C 3762.82 0.442722 -3.57872 0
M  V30 39779 O 3761.92 1.53 -3.82968 0
M  V30 39780 H 3761.27 0.00403985 -0.663988 0
M  V30 39781 H 3763.8 -0.612284 -1.95224 0
M  V30 39782 H 3763.81 0.694623 -4.02044 0
M  V30 39783 H 3762.48 -0.452086 -4.13436 0
M  V30 39784 H 3761.06 1.26845 -3.50663 0
M  V30 39785 N 3763.24 1.56749 -0.163565 0
M  V30 39786 C 3764.66 1.58433 0.192689 0
M  V30 39787 C 3764.86 1.17859 1.63436 0
M  V30 39788 O 3763.91 0.886582 2.36423 0
M  V30 39789 C 3765.23 3.00591 -0.0810955 0
M  V30 39790 C 3766.78 3.12994 -0.0186928 0
M  V30 39791 C 3767.25 4.57231 -0.265364 0
M  V30 39792 N 3768.74 4.62711 -0.212868 0
M  V30 39793 C 3769.48 5.72153 -0.37801 0
M  V30 39794 N 3768.97 6.90181 -0.601784 0
M  V30 39795 N 3770.77 5.6122 -0.314455 0
M  V30 39796 H 3762.92 1.81412 -1.1047 0
M  V30 39797 H 3765.18 0.840445 -0.438584 0
M  V30 39798 H 3764.89 3.34723 -1.07949 0
M  V30 39799 H 3764.76 3.71888 0.630823 0
M  V30 39800 H 3767.15 2.78693 0.970275 0
M  V30 39801 H 3767.23 2.44149 -0.763201 0
M  V30 39802 H 3766.87 4.9224 -1.25151 0
M  V30 39803 H 3766.8 5.24224 0.499664 0
M  V30 39804 H 3769.29 3.77873 -0.0452418 0
M  V30 39805 H 3769.61 7.69462 -0.717454 0
M  V30 39806 H 3767.95 6.92063 -0.638306 0
M  V30 39807 H 3771.14 4.6789 -0.140279 0
M  V30 39808 H 3771.31 6.46459 -0.446585 0
M  V30 39809 N 3764.72 -0.110185 1.57214 0
M  V30 39810 C 3765.97 -0.814794 1.84947 0
M  V30 39811 C 3766.29 -1.79997 0.750061 0
M  V30 39812 O 3765.56 -1.94602 -0.22513 0
M  V30 39813 H 3764.14 -0.303895 0.68239 0
M  V30 39814 H 3766.8 -0.0954073 1.94666 0
M  V30 39815 H 3765.9 -1.35464 2.81169 0
M  V30 39816 N 3766.2 -1.52935 -0.38061 0
M  V30 39817 C 3767.42 -1.72577 -1.1503 0
M  V30 39818 C 3767.85 -0.446901 -1.82714 0
M  V30 39819 O 3767.21 0.597974 -1.71155 0
M  V30 39820 C 3767.25 -2.88174 -2.16768 0
M  V30 39821 O 3766.36 -2.55733 -3.23534 0
M  V30 39822 H 3765.7 -0.573602 -0.334479 0
M  V30 39823 H 3768.23 -1.99761 -0.442334 0
M  V30 39824 H 3768.24 -3.1391 -2.60623 0
M  V30 39825 H 3766.91 -3.80946 -1.66893 0
M  V30 39826 H 3765.49 -2.40765 -2.84757 0
M  V30 39827 N 3767.68 0.639548 -1.4404 0
M  V30 39828 C 3768.64 1.73377 -1.4991 0
M  V30 39829 C 3769.64 1.56194 -0.382128 0
M  V30 39830 O 3770.83 1.61842 -0.644424 0
M  V30 39831 C 3767.96 3.12383 -1.36491 0
M  V30 39832 H 3769.15 1.69549 -2.47373 0
M  V30 39833 H 3766.71 0.85245 -1.31008 0
M  V30 39834 H 3767.44 3.21812 -0.400901 0
M  V30 39835 H 3767.23 3.26261 -2.17477 0
M  V30 39836 H 3768.72 3.92148 -1.43562 0
M  V30 39837 N 3769.15 1.30798 0.879184 0
M  V30 39838 C 3770.1 1.1767 1.98551 0
M  V30 39839 C 3771.07 0.0647523 1.65974 0
M  V30 39840 O 3772.26 0.235974 1.89335 0
M  V30 39841 C 3769.4 0.880493 3.33678 0
M  V30 39842 C 3768.51 2.07488 3.7891 0
M  V30 39843 C 3767.64 1.71626 5.02711 0
M  V30 39844 C 3766.68 2.87527 5.40366 0
M  V30 39845 N 3765.82 2.51921 6.55347 0
M  V30 39846 H 3770.66 2.12312 2.09111 0
M  V30 39847 H 3768.2 1.05625 1.02381 0
M  V30 39848 H 3770.16 0.68935 4.11465 0
M  V30 39849 H 3768.79 -0.0290716 3.22787 0
M  V30 39850 H 3767.84 2.37709 2.96982 0
M  V30 39851 H 3769.15 2.94266 4.02752 0
M  V30 39852 H 3768.3 1.4892 5.88139 0
M  V30 39853 H 3767.04 0.820265 4.80752 0
M  V30 39854 H 3766.05 3.10891 4.53461 0
M  V30 39855 H 3767.27 3.77821 5.64294 0
M  V30 39856 H 3765.22 1.64834 6.34953 0
M  V30 39857 H 3765.14 3.32229 6.79087 0
M  V30 39858 H 3766.4 2.32586 7.43992 0
M  V30 39859 N 3770.63 -1.09229 1.13608 0
M  V30 39860 C 3771.56 -2.17947 0.837947 0
M  V30 39861 C 3772.54 -1.68878 -0.203546 0
M  V30 39862 O 3773.73 -1.94101 -0.0620361 0
M  V30 39863 C 3770.86 -3.45955 0.305403 0
M  V30 39864 C 3769.81 -4.08368 1.28138 0
M  V30 39865 C 3769.14 -5.31226 0.608505 0
M  V30 39866 C 3770.44 -4.50631 2.64063 0
M  V30 39867 H 3772.13 -2.43143 1.74704 0
M  V30 39868 H 3769.68 -1.16859 0.84143 0
M  V30 39869 H 3771.63 -4.21315 0.0844856 0
M  V30 39870 H 3770.36 -3.20286 -0.639088 0
M  V30 39871 H 3769.02 -3.35029 1.48832 0
M  V30 39872 H 3768.66 -5.01839 -0.341525 0
M  V30 39873 H 3768.36 -5.73939 1.25966 0
M  V30 39874 H 3769.89 -6.09309 0.396916 0
M  V30 39875 H 3771.3 -5.17207 2.47325 0
M  V30 39876 H 3769.7 -5.04235 3.25373 0
M  V30 39877 H 3770.77 -3.62931 3.21573 0
M  V30 39878 N 3772.11 -0.929901 -1.27242 0
M  V30 39879 C 3773.04 -0.388006 -2.25892 0
M  V30 39880 C 3774.06 0.482496 -1.55486 0
M  V30 39881 O 3775.25 0.294764 -1.76049 0
M  V30 39882 C 3772.35 0.462485 -3.35729 0
M  V30 39883 C 3771.52 -0.389236 -4.35665 0
M  V30 39884 C 3770.58 0.398969 -5.24685 0
M  V30 39885 O 3769.6 -0.194096 -5.68869 0
M  V30 39886 N 3770.81 1.69826 -5.55103 0
M  V30 39887 H 3773.57 -1.23602 -2.73025 0
M  V30 39888 H 3771.13 -0.797564 -1.40892 0
M  V30 39889 H 3773.12 0.996905 -3.92229 0
M  V30 39890 H 3771.69 1.21125 -2.88179 0
M  V30 39891 H 3770.91 -1.10494 -3.78398 0
M  V30 39892 H 3772.2 -0.971437 -4.9944 0
M  V30 39893 H 3771.6 2.20238 -5.21068 0
M  V30 39894 H 3770.16 2.17916 -6.14293 0
M  V30 39895 N 3773.59 1.41416 -0.695653 0
M  V30 39896 C 3774.84 2.02029 -0.235744 0
M  V30 39897 C 3775.19 1.54112 1.15184 0
M  V30 39898 O 3774.48 0.742522 1.76627 0
M  V30 39899 C 3774.68 3.56641 -0.232727 0
M  V30 39900 C 3774.51 4.19566 -1.61848 0
M  V30 39901 C 3773.28 4.53855 -2.22134 0
M  V30 39902 C 3775.47 4.45766 -2.5651 0
M  V30 39903 N 3773.46 5.02067 -3.53273 0
M  V30 39904 C 3774.83 4.95754 -3.72328 0
M  V30 39905 C 3776.88 4.27778 -2.54776 0
M  V30 39906 C 3775.59 5.29644 -4.86693 0
M  V30 39907 C 3777.61 4.62757 -3.68253 0
M  V30 39908 C 3776.97 5.12916 -4.82801 0
M  V30 39909 H 3773.07 0.770838 -0.131655 0
M  V30 39910 H 3775.66 1.71958 -0.913151 0
M  V30 39911 H 3773.83 3.86185 0.414167 0
M  V30 39912 H 3775.56 4.03976 0.242017 0
M  V30 39913 H 3772.31 4.40312 -1.74419 0
M  V30 39914 H 3772.74 5.30579 -4.20494 0
M  V30 39915 H 3777.38 3.88235 -1.67431 0
M  V30 39916 H 3775.1 5.6811 -5.74697 0
M  V30 39917 H 3778.68 4.50497 -3.68162 0
M  V30 39918 H 3777.56 5.39475 -5.69154 0
M  V30 39919 N 3775.07 0.44041 1.51321 0
M  V30 39920 C 3776.31 -0.125027 2.02114 0
M  V30 39921 C 3776.64 -1.42444 1.32439 0
M  V30 39922 O 3775.9 -1.9094 0.429014 0
M  V30 39923 C 3776.2 -0.388017 3.55287 0
M  V30 39924 C 3775.86 0.825954 4.43271 0
M  V30 39925 C 3774.52 1.15887 4.67037 0
M  V30 39926 C 3776.88 1.63566 4.94869 0
M  V30 39927 C 3774.2 2.3021 5.39648 0
M  V30 39928 C 3776.56 2.76991 5.68734 0
M  V30 39929 C 3775.22 3.10733 5.90763 0
M  V30 39930 H 3774.49 -0.0457505 0.739586 0
M  V30 39931 H 3777.14 0.588233 1.82242 0
M  V30 39932 H 3775.44 -1.1832 3.73507 0
M  V30 39933 H 3777.14 -0.838986 3.92125 0
M  V30 39934 H 3773.73 0.556543 4.24971 0
M  V30 39935 H 3777.91 1.39166 4.76389 0
M  V30 39936 H 3773.17 2.56662 5.54918 0
M  V30 39937 H 3777.34 3.401 6.07705 0
M  V30 39938 H 3774.97 3.99431 6.46807 0
M  V30 39939 N 3776.55 -1.5666 0.171876 0
M  V30 39940 C 3777.79 -1.97192 -0.473634 0
M  V30 39941 C 3778.12 -1.05787 -1.62858 0
M  V30 39942 O 3777.4 -0.105118 -1.94216 0
M  V30 39943 C 3777.68 -3.47176 -0.956073 0
M  V30 39944 C 3777.54 -4.49359 0.199086 0
M  V30 39945 C 3778.85 -4.0027 -1.82954 0
M  V30 39946 H 3775.97 -0.716961 -0.170691 0
M  V30 39947 H 3778.62 -1.88238 0.258123 0
M  V30 39948 H 3776.77 -3.54937 -1.57962 0
M  V30 39949 H 3778.44 -4.53658 0.836188 0
M  V30 39950 H 3776.68 -4.25301 0.854494 0
M  V30 39951 H 3777.35 -5.51704 -0.180607 0
M  V30 39952 H 3779.83 -3.95143 -1.30387 0
M  V30 39953 H 3778.7 -5.05629 -2.13612 0
M  V30 39954 H 3778.96 -3.44119 -2.77551 0
M  V30 39955 N 3778.02 0.101846 -1.57271 0
M  V30 39956 C 3778.93 1.14254 -2.04898 0
M  V30 39957 C 3779.95 1.4428 -0.972586 0
M  V30 39958 O 3781.13 1.55056 -1.28529 0
M  V30 39959 C 3778.19 2.44484 -2.45822 0
M  V30 39960 C 3777.25 2.217 -3.67624 0
M  V30 39961 C 3776.48 3.45721 -4.06587 0
M  V30 39962 O 3776.71 4.53696 -3.4571 0
M  V30 39963 O 3775.64 3.35708 -4.99584 0
M  V30 39964 H 3779.47 0.768033 -2.93828 0
M  V30 39965 H 3777.05 0.313876 -1.46066 0
M  V30 39966 H 3778.93 3.21181 -2.72802 0
M  V30 39967 H 3777.61 2.81374 -1.60033 0
M  V30 39968 H 3776.52 1.42806 -3.45771 0
M  V30 39969 H 3777.85 1.89706 -4.54172 0
M  V30 39970 N 3779.5 1.53135 0.372494 0
M  V30 39971 C 3780.92 1.42753 0.713702 0
M  V30 39972 C 3781.12 0.561085 1.93531 0
M  V30 39973 O 3780.17 0.0408639 2.52467 0
M  V30 39974 C 3781.49 2.85847 0.933367 0
M  V30 39975 C 3783.03 2.95434 1.03381 0
M  V30 39976 C 3783.51 4.39575 1.286 0
M  V30 39977 N 3785 4.42973 1.35385 0
M  V30 39978 C 3785.74 5.51603 1.56594 0
M  V30 39979 N 3785.23 6.7029 1.75166 0
M  V30 39980 N 3787.02 5.3917 1.58908 0
M  V30 39981 H 3779.18 2.07979 -0.431104 0
M  V30 39982 H 3781.44 0.938937 -0.130774 0
M  V30 39983 H 3781.14 3.51535 0.107645 0
M  V30 39984 H 3781.02 3.29086 1.84342 0
M  V30 39985 H 3783.41 2.29904 1.85008 0
M  V30 39986 H 3783.49 2.55599 0.101301 0
M  V30 39987 H 3783.13 5.05676 0.474761 0
M  V30 39988 H 3783.06 4.76977 2.23161 0
M  V30 39989 H 3785.55 3.57434 1.22675 0
M  V30 39990 H 3785.86 7.4885 1.90903 0
M  V30 39991 H 3784.21 6.73289 1.72358 0
M  V30 39992 H 3787.4 4.45413 1.43962 0
M  V30 39993 H 3787.57 6.23895 1.75097 0
M  V30 39994 N 3780.98 -0.6319 1.44377 0
M  V30 39995 C 3781.93 -1.7651 1.51483 0
M  V30 39996 C 3782.92 -1.6493 0.386591 0
M  V30 39997 O 3784.13 -1.71018 0.561503 0
M  V30 39998 H 3780.5 -0.582724 0.475328 0
M  V30 39999 H 3782.47 -1.6764 2.46859 0
M  V30 40000 C 3781.22 -3.14842 1.47545 0
M  V30 40001 H 3780.55 -3.24401 2.33676 0
M  V30 40002 H 3781.99 -3.9403 1.56577 0
M  V30 40003 C 3780.44 -3.36329 0.196102 0
M  V30 40004 O 3780.97 -3.94937 -0.734014 0
M  V30 40005 N 3779.18 -2.9043 0.0994842 0
M  V30 40006 H 3778.73 -2.42919 0.857219 0
M  V30 40007 H 3778.69 -3.05181 -0.755761 0
M  V30 40008 N 3782.46 -1.31262 -0.872235 0
M  V30 40009 C 3783.39 -1.13051 -1.98229 0
M  V30 40010 C 3784.37 -0.0346264 -1.62563 0
M  V30 40011 O 3785.55 -0.190619 -1.87534 0
M  V30 40012 C 3782.68 -0.726899 -3.30808 0
M  V30 40013 C 3781.73 -1.82549 -3.85458 0
M  V30 40014 S 3782.56 -3.43049 -4.11191 0
M  V30 40015 C 3783.71 -3.04619 -5.4677 0
M  V30 40016 H 3783.95 -2.07024 -2.13373 0
M  V30 40017 H 3781.48 -1.15722 -1.02215 0
M  V30 40018 H 3783.44 -0.500779 -4.07434 0
M  V30 40019 H 3782.1 0.193686 -3.13502 0
M  V30 40020 H 3781.29 -1.49567 -4.81296 0
M  V30 40021 H 3780.89 -2.00655 -3.15616 0
M  V30 40022 H 3783.19 -2.53372 -6.28338 0
M  V30 40023 H 3784.13 -3.99412 -5.84701 0
M  V30 40024 H 3784.54 -2.42125 -5.09937 0
M  V30 40025 N 3783.94 1.08625 -1.14186 0
M  V30 40026 C 3785.18 1.81235 -0.910042 0
M  V30 40027 C 3785.51 1.85887 0.562101 0
M  V30 40028 O 3784.79 1.3331 1.41629 0
M  V30 40029 C 3785.07 3.26964 -1.50885 0
M  V30 40030 C 3784.93 3.30535 -3.05069 0
M  V30 40031 C 3786.24 4.23878 -1.18386 0
M  V30 40032 H 3783.36 0.657967 -0.332037 0
M  V30 40033 H 3786.01 1.27192 -1.41146 0
M  V30 40034 H 3784.16 3.73116 -1.08243 0
M  V30 40035 H 3785.83 2.92724 -3.56525 0
M  V30 40036 H 3784.07 2.69874 -3.39633 0
M  V30 40037 H 3784.74 4.33233 -3.42071 0
M  V30 40038 H 3787.22 3.86053 -1.55249 0
M  V30 40039 H 3786.09 5.24164 -1.62921 0
M  V30 40040 H 3786.35 4.4199 -0.0988162 0
M  V30 40041 N 3785.41 0.936635 1.26747 0
M  V30 40042 C 3786.66 0.577558 1.93254 0
M  V30 40043 C 3786.98 -0.886875 1.74338 0
M  V30 40044 O 3788.18 -1.35513 2.35263 0
M  V30 40045 C 3786.64 0.982179 3.46239 0
M  V30 40046 C 3786.25 2.46791 3.73896 0
M  V30 40047 C 3787.99 0.694779 4.18776 0
M  V30 40048 C 3785.9 2.81147 5.20298 0
M  V30 40049 H 3784.83 0.212289 0.723498 0
M  V30 40050 H 3787.48 1.13866 1.43899 0
M  V30 40051 H 3785.86 0.349647 3.94453 0
M  V30 40052 H 3787.03 3.14911 3.36404 0
M  V30 40053 H 3785.35 2.72813 3.14582 0
M  V30 40054 H 3787.95 0.927848 5.26588 0
M  V30 40055 H 3788.29 -0.368319 4.14667 0
M  V30 40056 H 3788.82 1.28682 3.76412 0
M  V30 40057 H 3785.56 3.86401 5.29504 0
M  V30 40058 H 3785.08 2.17685 5.58904 0
M  V30 40059 H 3786.76 2.69368 5.8826 0
M  V30 40060 N 3786.89 -1.41045 0.703143 0
M  V30 40061 C 3788.3 -1.84088 0.3112 0
M  V30 40062 C 3788.65 -1.5882 -1.15199 0
M  V30 40063 O 3787.78 -1.06257 -1.88516 0
M  V30 40064 C 3788.37 -3.34173 0.558044 0
M  V30 40065 C 3786.93 -3.75757 0.219941 0
M  V30 40066 C 3786.08 -2.64379 0.83659 0
M  V30 40067 H 3789.03 -1.30489 0.903234 0
M  V30 40068 H 3789.05 -3.8007 -0.180799 0
M  V30 40069 H 3788.56 -3.52532 1.62305 0
M  V30 40070 H 3786.67 -3.62996 -0.840495 0
M  V30 40071 H 3786.78 -4.74246 0.680248 0
M  V30 40072 H 3785.14 -2.53311 0.265591 0
M  V30 40073 H 3785.93 -2.85555 1.90561 0
M  V30 40074 N 3788.37 -0.448429 -1.51086 0
M  V30 40075 C 3789.28 0.363283 -2.3177 0
M  V30 40076 C 3790.3 1.01733 -1.41161 0
M  V30 40077 O 3791.47 1.01028 -1.74228 0
M  V30 40078 C 3788.54 1.44364 -3.15214 0
M  V30 40079 C 3787.6 0.808569 -4.21617 0
M  V30 40080 C 3786.83 1.83745 -5.01072 0
M  V30 40081 O 3787.05 3.06113 -4.81302 0
M  V30 40082 O 3785.99 1.42183 -5.84865 0
M  V30 40083 H 3789.81 -0.295706 -3.02257 0
M  V30 40084 H 3787.4 -0.210729 -1.47906 0
M  V30 40085 H 3789.28 2.06996 -3.67057 0
M  V30 40086 H 3787.96 2.08651 -2.4748 0
M  V30 40087 H 3786.86 0.143909 -3.73823 0
M  V30 40088 H 3788.2 0.209012 -4.91756 0
M  V30 40089 N 3789.85 1.56567 -0.180181 0
M  V30 40090 C 3791.1 1.96759 0.461572 0
M  V30 40091 C 3791.42 1.06763 1.63177 0
M  V30 40092 O 3790.69 0.135797 1.95429 0
M  V30 40093 H 3789.27 0.726569 0.173513 0
M  V30 40094 H 3791.93 1.93111 -0.263434 0
M  V30 40095 H 3791.03 3.01253 0.815676 0
M  V30 40096 N 3791.33 -0.0935042 1.57322 0
M  V30 40097 C 3792.74 -0.447755 1.5319 0
M  V30 40098 C 3792.94 -1.80426 0.897139 0
M  V30 40099 O 3792 -2.47693 0.490329 0
M  V30 40100 C 3793.31 -0.40878 2.97909 0
M  V30 40101 C 3794.86 -0.490522 3.09132 0
M  V30 40102 C 3795.33 -0.481679 4.5546 0
M  V30 40103 N 3796.83 -0.542387 4.60013 0
M  V30 40104 C 3797.56 -0.557409 5.70684 0
M  V30 40105 N 3797.06 -0.528542 6.90781 0
M  V30 40106 N 3798.85 -0.60234 5.58863 0
M  V30 40107 H 3791 0.795 1.96961 0
M  V30 40108 H 3793.26 0.29608 0.900578 0
M  V30 40109 H 3792.97 0.520827 3.47822 0
M  V30 40110 H 3792.84 -1.22716 3.5668 0
M  V30 40111 H 3795.23 -1.41055 2.59206 0
M  V30 40112 H 3795.31 0.356027 2.5331 0
M  V30 40113 H 3794.96 0.434409 5.06039 0
M  V30 40114 H 3794.89 -1.34546 5.09122 0
M  V30 40115 H 3797.38 -0.569826 3.73579 0
M  V30 40116 H 3797.69 -0.543332 7.70888 0
M  V30 40117 H 3796.03 -0.495566 6.93231 0
M  V30 40118 H 3799.23 -0.622432 4.63943 0
M  V30 40119 H 3799.4 -0.610578 6.45117 0
M  V30 40120 N 3792.8 -1.5333 -0.364368 0
M  V30 40121 C 3794.05 -1.69822 -1.10852 0
M  V30 40122 C 3794.38 -0.449324 -1.8893 0
M  V30 40123 O 3793.66 0.553404 -1.86461 0
M  V30 40124 C 3793.94 -2.94885 -2.06676 0
M  V30 40125 C 3793.79 -4.29935 -1.32198 0
M  V30 40126 C 3795.11 -3.15551 -3.06782 0
M  V30 40127 H 3792.23 -0.61796 -0.401615 0
M  V30 40128 H 3794.87 -1.85971 -0.389212 0
M  V30 40129 H 3793.02 -2.81248 -2.68014 0
M  V30 40130 H 3794.7 -4.55385 -0.73634 0
M  V30 40131 H 3792.94 -4.29291 -0.62384 0
M  V30 40132 H 3793.61 -5.13578 -2.02341 0
M  V30 40133 H 3796.09 -3.28382 -2.55548 0
M  V30 40134 H 3794.96 -4.0449 -3.71051 0
M  V30 40135 H 3795.22 -2.30887 -3.77019 0
M  V30 40136 N 3794.28 0.624234 -1.4471 0
M  V30 40137 C 3795.53 1.37966 -1.47134 0
M  V30 40138 C 3795.84 1.95287 -0.110541 0
M  V30 40139 O 3797.05 2.71497 -0.012337 0
M  V30 40140 C 3795.51 2.49828 -2.59063 0
M  V30 40141 C 3795.11 1.9899 -4.01381 0
M  V30 40142 C 3796.86 3.26976 -2.70715 0
M  V30 40143 C 3794.77 3.08236 -5.04722 0
M  V30 40144 H 3793.7 0.518491 -0.547433 0
M  V30 40145 H 3796.35 0.670833 -1.70798 0
M  V30 40146 H 3794.73 3.23318 -2.28651 0
M  V30 40147 H 3795.9 1.3232 -4.41393 0
M  V30 40148 H 3794.22 1.34637 -3.94033 0
M  V30 40149 H 3796.81 4.08429 -3.45094 0
M  V30 40150 H 3797.16 3.76906 -1.7677 0
M  V30 40151 H 3797.69 2.6058 -3.00571 0
M  V30 40152 H 3794.43 2.63242 -6.0032 0
M  V30 40153 H 3793.95 3.73525 -4.69296 0
M  V30 40154 H 3795.63 3.72897 -5.28731 0
M  V30 40155 N 3795.76 1.31723 0.865262 0
M  V30 40156 C 3797.04 1.12309 1.60144 0
M  V30 40157 C 3797.42 -0.320472 2.08653 0
M  V30 40158 O 3796.77 -1.31536 1.86843 0
M  V30 40159 C 3796.98 2.14143 2.75579 0
M  V30 40160 C 3798.32 2.46915 3.45425 0
M  V30 40161 O 3799.35 2.12607 2.85792 0
M  V30 40162 O 3798.21 3.05684 4.53011 0
M  V30 40163 H 3795.3 0.432686 0.704778 0
M  V30 40164 H 3797.85 1.43218 0.910314 0
M  V30 40165 H 3796.62 3.11224 2.37182 0
M  V30 40166 H 3796.24 1.84168 3.52375 0
M  V30 40167 N 3797.24 -1.08018 1.14761 0
M  V30 40168 C 3798.17 -2.17046 0.861016 0
M  V30 40169 C 3799.15 -1.69084 -0.185623 0
M  V30 40170 O 3800.33 -1.94156 -0.0414456 0
M  V30 40171 C 3797.46 -3.45611 0.342079 0
M  V30 40172 C 3796.42 -4.06986 1.32462 0
M  V30 40173 C 3795.74 -5.30551 0.664814 0
M  V30 40174 C 3797.04 -4.47805 2.68827 0
M  V30 40175 H 3798.74 -2.41277 1.77273 0
M  V30 40176 H 3796.28 -1.1596 0.853778 0
M  V30 40177 H 3798.24 -4.21202 0.129167 0
M  V30 40178 H 3796.96 -3.20946 -0.605081 0
M  V30 40179 H 3795.62 -3.33432 1.52377 0
M  V30 40180 H 3795.27 -5.02173 -0.288279 0
M  V30 40181 H 3794.97 -5.72571 1.32046 0
M  V30 40182 H 3796.49 -6.08853 0.461519 0
M  V30 40183 H 3797.91 -5.14555 2.52797 0
M  V30 40184 H 3796.3 -5.00755 3.30702 0
M  V30 40185 H 3797.37 -3.595 3.25404 0
M  V30 40186 N 3798.72 -0.943344 -1.26249 0
M  V30 40187 C 3799.96 -0.590897 -1.93269 0
M  V30 40188 C 3800.29 0.873182 -1.74358 0
M  V30 40189 O 3799.56 1.62068 -1.10048 0
M  V30 40190 H 3798.14 -0.215548 -0.715226 0
M  V30 40191 H 3800.8 -1.19914 -1.53645 0
M  V30 40192 H 3799.89 -0.810528 -3.01392 0
M  V30 40193 N 3800.2 1.4067 -0.710613 0
M  V30 40194 C 3801.44 2.02836 -0.252339 0
M  V30 40195 C 3801.8 1.55115 1.13152 0
M  V30 40196 O 3803 2.0931 1.68649 0
M  V30 40197 C 3801.27 3.55929 -0.323964 0
M  V30 40198 S 3802.83 4.38762 0.0580545 0
M  V30 40199 H 3799.65 0.703867 -0.100461 0
M  V30 40200 H 3802.25 1.71869 -0.931729 0
M  V30 40201 H 3800.95 3.88153 -1.33286 0
M  V30 40202 H 3800.49 3.91617 0.374071 0
M  V30 40203 H 3802.5 4.79365 1.28153 0
M  V30 40204 N 3801.67 0.456435 1.50846 0
M  V30 40205 C 3802.92 -0.103378 2.01835 0
M  V30 40206 C 3803.24 -1.41528 1.34145 0
M  V30 40207 O 3802.51 -1.89877 0.482048 0
M  V30 40208 H 3801.09 -0.0411943 0.745863 0
M  V30 40209 H 3803.75 0.603509 1.85321 0
M  V30 40210 H 3802.85 -0.265508 3.10969 0
M  V30 40211 N 3803.15 -1.56469 0.188482 0
M  V30 40212 C 3804.57 -1.58719 -0.16746 0
M  V30 40213 C 3804.77 -1.20444 -1.61541 0
M  V30 40214 O 3803.82 -0.924082 -2.34983 0
M  V30 40215 C 3805.14 -3.00424 0.128907 0
M  V30 40216 C 3806.68 -3.12925 0.0684851 0
M  V30 40217 C 3807.16 -4.56751 0.338072 0
M  V30 40218 N 3808.65 -4.62313 0.286454 0
M  V30 40219 C 3809.39 -5.71479 0.468987 0
M  V30 40220 N 3808.88 -6.89137 0.71151 0
M  V30 40221 N 3810.67 -5.60648 0.403701 0
M  V30 40222 H 3802.83 -1.79631 1.13342 0
M  V30 40223 H 3805.09 -0.833361 0.451899 0
M  V30 40224 H 3804.79 -3.32964 1.13261 0
M  V30 40225 H 3804.67 -3.72844 -0.571579 0
M  V30 40226 H 3807.06 -2.80201 -0.925815 0
M  V30 40227 H 3807.14 -2.42904 0.801946 0
M  V30 40228 H 3806.78 -4.90186 1.32966 0
M  V30 40229 H 3806.71 -5.24953 -0.416201 0
M  V30 40230 H 3809.2 -3.77753 0.105352 0
M  V30 40231 H 3809.51 -7.68224 0.839778 0
M  V30 40232 H 3807.86 -6.9096 0.748326 0
M  V30 40233 H 3811.05 -4.67607 0.214698 0
M  V30 40234 H 3811.22 -6.45667 0.549375 0
M  V30 40235 N 3804.63 0.0851597 -1.5737 0
M  V30 40236 C 3805.88 0.785267 -1.8622 0
M  V30 40237 C 3806.2 1.78781 -0.778602 0
M  V30 40238 O 3805.47 1.94936 0.194142 0
M  V30 40239 H 3804.05 0.293001 -0.687139 0
M  V30 40240 H 3806.71 0.0644255 -1.94793 0
M  V30 40241 H 3805.81 1.30973 -2.83289 0
M  V30 40242 N 3806.11 1.53521 0.356231 0
M  V30 40243 C 3807.36 1.6982 1.09571 0
M  V30 40244 C 3807.68 0.457439 1.89559 0
M  V30 40245 O 3806.95 -0.528583 1.88634 0
M  V30 40246 H 3805.53 0.626061 0.407501 0
M  V30 40247 H 3808.19 1.90739 0.400578 0
M  V30 40248 H 3807.28 2.56346 1.78025 0
M  V30 40249 N 3807.59 -0.616551 1.45039 0
M  V30 40250 C 3808.83 -1.37593 1.49799 0
M  V30 40251 C 3809.19 -1.91931 0.134277 0
M  V30 40252 O 3808.48 -1.71585 -0.852583 0
M  V30 40253 C 3808.67 -2.54872 2.5055 0
M  V30 40254 C 3808.5 -2.12017 3.96584 0
M  V30 40255 C 3807.27 -1.98609 4.64631 0
M  V30 40256 C 3809.47 -1.70032 4.8538 0
M  V30 40257 N 3807.45 -1.4947 5.95426 0
M  V30 40258 C 3808.82 -1.32245 6.05732 0
M  V30 40259 C 3810.88 -1.57544 4.72318 0
M  V30 40260 C 3809.58 -0.832154 7.1447 0
M  V30 40261 C 3811.61 -1.09919 5.81095 0
M  V30 40262 C 3810.97 -0.730899 7.00598 0
M  V30 40263 H 3807.07 -0.497741 0.60314 0
M  V30 40264 H 3809.65 -0.705788 1.81457 0
M  V30 40265 H 3807.82 -3.19494 2.20858 0
M  V30 40266 H 3809.56 -3.21722 2.45514 0
M  V30 40267 H 3806.31 -2.19517 4.19654 0
M  V30 40268 H 3806.73 -1.27159 6.64951 0
M  V30 40269 H 3811.38 -1.84645 3.8035 0
M  V30 40270 H 3809.09 -0.548674 8.06235 0
M  V30 40271 H 3812.68 -1.00694 5.7302 0
M  V30 40272 H 3811.56 -0.368039 7.83336 0
M  V30 40273 N 3809.06 -1.3218 -0.858264 0
M  V30 40274 C 3810.29 -1.25665 -1.64994 0
M  V30 40275 C 3810.71 0.172989 -1.87303 0
M  V30 40276 O 3810.07 1.12314 -1.42321 0
M  V30 40277 C 3810.12 -2.01792 -2.98852 0
M  V30 40278 O 3809.22 -1.36326 -3.89216 0
M  V30 40279 H 3808.56 -0.433272 -0.503161 0
M  V30 40280 H 3811.09 -1.74438 -1.06923 0
M  V30 40281 H 3811.1 -2.1183 -3.48701 0
M  V30 40282 H 3809.78 -3.05753 -2.81936 0
M  V30 40283 H 3808.36 -1.34813 -3.47678 0
M  V30 40284 N 3810.54 1.07407 -1.15332 0
M  V30 40285 C 3811.77 1.83447 -0.950295 0
M  V30 40286 C 3812.18 1.82343 0.504729 0
M  V30 40287 O 3811.52 1.2329 1.36181 0
M  V30 40288 C 3811.58 3.31684 -1.38657 0
M  V30 40289 C 3811.25 3.56509 -2.8592 0
M  V30 40290 C 3812.25 3.50499 -3.83987 0
M  V30 40291 C 3809.93 3.84193 -3.23575 0
M  V30 40292 C 3811.92 3.71822 -5.17714 0
M  V30 40293 C 3809.61 4.05167 -4.57474 0
M  V30 40294 C 3810.61 3.98977 -5.54352 0
M  V30 40295 O 3810.3 4.19391 -6.85833 0
M  V30 40296 H 3810.03 0.585649 -0.337626 0
M  V30 40297 H 3812.58 1.3649 -1.53491 0
M  V30 40298 H 3810.81 3.79449 -0.745349 0
M  V30 40299 H 3812.5 3.89187 -1.15274 0
M  V30 40300 H 3813.27 3.29114 -3.56242 0
M  V30 40301 H 3809.15 3.88126 -2.48755 0
M  V30 40302 H 3812.69 3.66906 -5.93318 0
M  V30 40303 H 3808.59 4.26039 -4.84934 0
M  V30 40304 H 3809.36 4.36741 -6.92242 0
M  V30 40305 N 3812.02 0.950026 1.25747 0
M  V30 40306 C 3813.25 0.618467 1.97126 0
M  V30 40307 C 3813.66 -0.81269 1.70857 0
M  V30 40308 O 3813 -1.55464 0.978609 0
M  V30 40309 C 3813.06 0.791608 3.50676 0
M  V30 40310 C 3812.73 2.19906 4.00613 0
M  V30 40311 C 3813.72 3.17533 4.11666 0
M  V30 40312 C 3811.41 2.52201 4.34396 0
M  V30 40313 C 3813.4 4.45551 4.5581 0
M  V30 40314 C 3811.09 3.8045 4.78227 0
M  V30 40315 C 3812.09 4.76937 4.88897 0
M  V30 40316 O 3811.78 6.02901 5.31757 0
M  V30 40317 H 3811.51 0.231174 0.635244 0
M  V30 40318 H 3814.06 1.27553 1.60995 0
M  V30 40319 H 3812.29 0.0773977 3.86623 0
M  V30 40320 H 3813.98 0.46179 4.03265 0
M  V30 40321 H 3814.75 2.93908 3.85802 0
M  V30 40322 H 3810.63 1.77829 4.25321 0
M  V30 40323 H 3814.17 5.20865 4.64053 0
M  V30 40324 H 3810.07 4.03883 5.03536 0
M  V30 40325 H 3810.83 6.0621 5.49956 0
M  V30 40326 N 3813.5 -1.40291 0.718063 0
M  V30 40327 C 3814.74 -2.027 0.263092 0
M  V30 40328 C 3815.1 -1.55713 -1.12327 0
M  V30 40329 O 3816.3 -2.10202 -1.67537 0
M  V30 40330 C 3814.57 -3.55752 0.342835 0
M  V30 40331 S 3816.13 -4.38786 -0.0347851 0
M  V30 40332 H 3812.95 -0.703324 0.104192 0
M  V30 40333 H 3815.55 -1.71373 0.940831 0
M  V30 40334 H 3814.26 -3.87441 1.35343 0
M  V30 40335 H 3813.79 -3.9181 -0.353298 0
M  V30 40336 H 3815.8 -4.80038 -1.25609 0
M  V30 40337 N 3814.98 -0.464428 -1.50602 0
M  V30 40338 C 3815.94 0.32181 -2.2693 0
M  V30 40339 C 3816.94 0.926266 -1.31442 0
M  V30 40340 O 3818.13 0.796484 -1.54925 0
M  V30 40341 C 3815.26 1.4578 -3.08158 0
M  V30 40342 H 3816.45 -0.347488 -2.9788 0
M  V30 40343 H 3814.01 -0.218305 -1.54768 0
M  V30 40344 H 3814.74 2.16235 -2.41688 0
M  V30 40345 H 3814.53 1.03024 -3.78323 0
M  V30 40346 H 3816.02 2.01259 -3.65902 0
M  V30 40347 N 3816.45 1.56367 -0.196777 0
M  V30 40348 C 3817.7 1.97237 0.440677 0
M  V30 40349 C 3818.02 1.08487 1.62035 0
M  V30 40350 O 3817.29 0.156517 1.95274 0
M  V30 40351 H 3815.87 0.728368 0.165797 0
M  V30 40352 H 3818.54 1.92821 -0.283901 0
M  V30 40353 H 3817.63 3.02101 0.783678 0
M  V30 40354 N 3817.93 -0.0768128 1.57413 0
M  V30 40355 C 3818.86 -1.09223 2.0638 0
M  V30 40356 C 3819.84 -1.40673 0.956294 0
M  V30 40357 O 3821.03 -1.50388 1.22871 0
M  V30 40358 C 3818.16 -2.40708 2.50354 0
M  V30 40359 C 3817.11 -2.23622 3.64935 0
M  V30 40360 C 3816.44 -3.60446 3.94946 0
M  V30 40361 C 3817.74 -1.6616 4.95165 0
M  V30 40362 H 3819.43 -0.684775 2.91464 0
M  V30 40363 H 3816.98 -0.327949 1.40216 0
M  V30 40364 H 3818.93 -3.12031 2.83222 0
M  V30 40365 H 3817.66 -2.83424 1.62292 0
M  V30 40366 H 3816.31 -1.54741 3.32341 0
M  V30 40367 H 3815.96 -4.00723 3.04023 0
M  V30 40368 H 3815.66 -3.49855 4.72097 0
M  V30 40369 H 3817.19 -4.33208 4.30306 0
M  V30 40370 H 3818.6 -2.27344 5.26296 0
M  V30 40371 H 3817 -1.66278 5.76603 0
M  V30 40372 H 3818.07 -0.622626 4.80886 0
M  V30 40373 N 3819.41 -1.53708 -0.348084 0
M  V30 40374 C 3820.36 -1.81378 -1.42726 0
M  V30 40375 C 3821.33 -0.659186 -1.5246 0
M  V30 40376 O 3822.51 -0.903159 -1.6807 0
M  V30 40377 C 3819.65 -2.02503 -2.7944 0
M  V30 40378 C 3818.77 -3.30216 -2.78534 0
M  V30 40379 C 3817.9 -3.41434 -4.06936 0
M  V30 40380 C 3816.94 -4.63114 -4.0024 0
M  V30 40381 N 3816.08 -4.71389 -5.20324 0
M  V30 40382 H 3820.92 -2.73456 -1.18431 0
M  V30 40383 H 3818.45 -1.35448 -0.573786 0
M  V30 40384 H 3820.41 -2.12739 -3.58884 0
M  V30 40385 H 3819.04 -1.13743 -3.02097 0
M  V30 40386 H 3818.09 -3.28844 -1.91221 0
M  V30 40387 H 3819.41 -4.19751 -2.69463 0
M  V30 40388 H 3818.56 -3.51078 -4.94802 0
M  V30 40389 H 3817.3 -2.49946 -4.18782 0
M  V30 40390 H 3816.3 -4.53551 -3.10759 0
M  V30 40391 H 3817.53 -5.5596 -3.89981 0
M  V30 40392 H 3815.47 -3.82809 -5.32722 0
M  V30 40393 H 3815.39 -5.54853 -5.13492 0
M  V30 40394 H 3816.66 -4.85337 -6.09974 0
M  V30 40395 N 3820.89 0.608851 -1.45364 0
M  V30 40396 C 3821.84 1.71963 -1.53939 0
M  V30 40397 C 3822.81 1.61567 -0.38538 0
M  V30 40398 O 3823.99 1.81165 -0.598654 0
M  V30 40399 C 3821.13 3.1027 -1.51085 0
M  V30 40400 C 3820.24 3.31481 -2.77028 0
M  V30 40401 C 3819.38 4.59886 -2.65854 0
M  V30 40402 C 3818.42 4.74351 -3.86856 0
M  V30 40403 N 3817.55 5.94054 -3.74224 0
M  V30 40404 H 3822.39 1.6397 -2.48833 0
M  V30 40405 H 3819.93 0.799544 -1.23474 0
M  V30 40406 H 3821.89 3.90287 -1.47418 0
M  V30 40407 H 3820.52 3.17223 -0.59743 0
M  V30 40408 H 3819.57 2.45248 -2.90788 0
M  V30 40409 H 3820.88 3.38042 -3.66782 0
M  V30 40410 H 3820.04 5.48096 -2.60146 0
M  V30 40411 H 3818.78 4.5572 -1.73697 0
M  V30 40412 H 3817.78 3.84565 -3.92925 0
M  V30 40413 H 3819.01 4.80315 -4.80077 0
M  V30 40414 H 3816.95 5.90935 -2.84836 0
M  V30 40415 H 3816.87 6.0177 -4.57612 0
M  V30 40416 H 3818.14 6.84766 -3.72446 0
M  V30 40417 N 3822.37 1.32633 0.851242 0
M  V30 40418 C 3823.61 1.23571 1.60805 0
M  V30 40419 C 3823.95 -0.201205 1.93155 0
M  V30 40420 O 3823.22 -1.13926 1.57642 0
M  V30 40421 C 3823.5 2.09877 2.92615 0
M  V30 40422 C 3823.36 3.61964 2.67025 0
M  V30 40423 C 3824.68 1.96251 3.93921 0
M  V30 40424 H 3821.79 0.450239 0.583484 0
M  V30 40425 H 3824.44 1.62613 0.982702 0
M  V30 40426 H 3822.59 1.7671 3.45985 0
M  V30 40427 H 3824.26 4.05361 2.20182 0
M  V30 40428 H 3822.5 3.8446 2.00931 0
M  V30 40429 H 3823.17 4.17683 3.60895 0
M  V30 40430 H 3825.65 2.25313 3.49819 0
M  V30 40431 H 3824.52 2.58911 4.84 0
M  V30 40432 H 3824.79 0.931141 4.32183 0
M  V30 40433 N 3823.84 -1.06794 1.159 0
M  V30 40434 C 3825.07 -1.83206 0.961405 0
M  V30 40435 C 3825.49 -1.82321 -0.49036 0
M  V30 40436 O 3824.84 -1.23872 -1.34022 0
M  V30 40437 C 3824.9 -3.30043 1.47492 0
M  V30 40438 O 3824.62 -3.31018 2.86982 0
M  V30 40439 C 3826.12 -4.23203 1.31962 0
M  V30 40440 H 3823.34 -0.577834 0.3411 0
M  V30 40441 H 3825.88 -1.34772 1.53807 0
M  V30 40442 H 3824.04 -3.75806 0.940652 0
M  V30 40443 H 3824.45 -4.228 3.10388 0
M  V30 40444 H 3825.92 -5.24279 1.7273 0
M  V30 40445 H 3826.4 -4.38403 0.264516 0
M  V30 40446 H 3827.01 -3.83281 1.84325 0
M  V30 40447 N 3825.32 -0.956681 -1.25241 0
M  V30 40448 C 3826.23 -0.48519 -2.29528 0
M  V30 40449 C 3827.25 0.448464 -1.68121 0
M  V30 40450 O 3828.42 0.324208 -1.98773 0
M  V30 40451 C 3825.49 0.22755 -3.45952 0
M  V30 40452 C 3824.55 -0.744569 -4.22794 0
M  V30 40453 C 3823.78 -0.0657477 -5.3366 0
M  V30 40454 O 3824.01 1.14819 -5.58724 0
M  V30 40455 O 3822.94 -0.752325 -5.9718 0
M  V30 40456 H 3826.77 -1.35186 -2.71953 0
M  V30 40457 H 3824.35 -0.723226 -1.30728 0
M  V30 40458 H 3826.23 0.628401 -4.16688 0
M  V30 40459 H 3824.91 1.06936 -3.05526 0
M  V30 40460 H 3823.82 -1.19567 -3.54478 0
M  V30 40461 H 3825.15 -1.55446 -4.67009 0
M  V30 40462 N 3826.8 1.39908 -0.725493 0
M  V30 40463 C 3828.05 2.00999 -0.269685 0
M  V30 40464 C 3828.38 1.57418 1.13724 0
M  V30 40465 O 3827.65 0.798724 1.77343 0
M  V30 40466 C 3827.94 3.58287 -0.360847 0
M  V30 40467 C 3827.79 4.11913 -1.80686 0
M  V30 40468 C 3829.11 4.39318 0.26225 0
M  V30 40469 H 3826.23 0.730257 -0.0994675 0
M  V30 40470 H 3828.87 1.66249 -0.919859 0
M  V30 40471 H 3827.02 3.88022 0.192711 0
M  V30 40472 H 3828.69 3.92937 -2.41656 0
M  V30 40473 H 3826.94 3.6583 -2.33133 0
M  V30 40474 H 3827.61 5.21064 -1.82198 0
M  V30 40475 H 3830.08 4.15572 -0.209525 0
M  V30 40476 H 3828.96 5.48643 0.16807 0
M  V30 40477 H 3829.22 4.21077 1.34708 0
M  V30 40478 N 3828.28 0.472408 1.50353 0
M  V30 40479 C 3829.69 0.126641 1.59097 0
M  V30 40480 C 3829.89 -1.36695 1.48043 0
M  V30 40481 O 3828.95 -2.14035 1.33959 0
M  V30 40482 C 3830.26 0.678008 2.92957 0
M  V30 40483 C 3831.81 0.641553 3.06355 0
M  V30 40484 C 3832.29 1.17049 4.42791 0
M  V30 40485 N 3833.78 1.12996 4.49206 0
M  V30 40486 C 3834.51 1.50971 5.53168 0
M  V30 40487 N 3834.01 1.96402 6.64378 0
M  V30 40488 N 3835.8 1.42566 5.4372 0
M  V30 40489 H 3827.95 1.44381 1.55782 0
M  V30 40490 H 3830.22 0.597151 0.736284 0
M  V30 40491 H 3829.92 1.72438 3.06526 0
M  V30 40492 H 3829.8 0.122313 3.77002 0
M  V30 40493 H 3832.18 -0.395912 2.92432 0
M  V30 40494 H 3832.26 1.23407 2.24063 0
M  V30 40495 H 3831.91 2.20659 4.57462 0
M  V30 40496 H 3831.84 0.554178 5.23676 0
M  V30 40497 H 3834.33 0.796757 3.69405 0
M  V30 40498 H 3834.64 2.23524 7.39768 0
M  V30 40499 H 3832.99 2.00356 6.65494 0
M  V30 40500 H 3836.18 1.06913 4.55727 0
M  V30 40501 H 3836.35 1.72487 6.24622 0
M  V30 40502 N 3829.76 -1.5626 0.205067 0
M  V30 40503 C 3831.01 -1.97468 -0.430211 0
M  V30 40504 C 3831.33 -1.09345 -1.61458 0
M  V30 40505 O 3830.6 -0.166871 -1.95188 0
M  V30 40506 H 3829.18 -0.729237 -0.161932 0
M  V30 40507 H 3831.84 -1.92668 0.294123 0
M  V30 40508 H 3830.93 -3.02512 -0.767646 0
M  V30 40509 N 3831.24 0.0684638 -1.57451 0
M  V30 40510 C 3832.47 0.778691 -1.91363 0
M  V30 40511 C 3832.87 1.71473 -0.799609 0
M  V30 40512 O 3832.22 1.82182 0.235695 0
M  V30 40513 C 3832.28 1.62317 -3.2077 0
M  V30 40514 C 3831.94 0.856151 -4.48909 0
M  V30 40515 C 3832.94 0.173901 -5.19609 0
M  V30 40516 C 3830.62 0.82234 -4.95523 0
M  V30 40517 C 3832.62 -0.531896 -6.35177 0
M  V30 40518 C 3830.31 0.112773 -6.10996 0
M  V30 40519 C 3831.3 -0.563141 -6.80674 0
M  V30 40520 O 3830.99 -1.26127 -7.93944 0
M  V30 40521 H 3830.72 0.226364 -0.636973 0
M  V30 40522 H 3833.28 0.042012 -2.05357 0
M  V30 40523 H 3831.51 2.40273 -3.02995 0
M  V30 40524 H 3833.2 2.21238 -3.40307 0
M  V30 40525 H 3833.96 0.191308 -4.84623 0
M  V30 40526 H 3829.84 1.33791 -4.41159 0
M  V30 40527 H 3833.39 -1.06003 -6.89499 0
M  V30 40528 H 3829.28 0.0933048 -6.45433 0
M  V30 40529 H 3830.05 -1.17088 -8.10082 0
M  V30 40530 N 3832.71 1.5389 0.339928 0
M  V30 40531 C 3833.94 1.75253 1.09972 0
M  V30 40532 C 3834.36 0.493387 1.82239 0
M  V30 40533 O 3833.71 -0.535143 1.74478 0
M  V30 40534 C 3833.76 2.93501 2.11043 0
M  V30 40535 O 3833.49 4.14546 1.41714 0
M  V30 40536 C 3834.99 3.26945 2.99369 0
M  V30 40537 H 3832.21 0.585481 0.3278 0
M  V30 40538 H 3834.75 2.00727 0.391033 0
M  V30 40539 H 3832.91 2.70349 2.77471 0
M  V30 40540 H 3833.32 4.80946 2.09262 0
M  V30 40541 H 3834.79 4.13026 3.66216 0
M  V30 40542 H 3835.27 2.43403 3.65584 0
M  V30 40543 H 3835.88 3.52116 2.38525 0
M  V30 40544 N 3834.19 -0.601133 1.45685 0
M  V30 40545 C 3835.14 -1.71144 1.54849 0
M  V30 40546 C 3836.11 -1.61361 0.393943 0
M  V30 40547 O 3837.29 -1.80845 0.608254 0
M  V30 40548 C 3834.43 -3.09464 1.52728 0
M  V30 40549 C 3833.55 -3.30007 2.78782 0
M  V30 40550 C 3832.68 -4.5847 2.68289 0
M  V30 40551 C 3831.72 -4.72292 3.89367 0
M  V30 40552 N 3830.86 -5.92061 3.77369 0
M  V30 40553 H 3835.7 -1.62648 2.49699 0
M  V30 40554 H 3833.23 -0.792984 1.23896 0
M  V30 40555 H 3835.19 -3.895 1.49486 0
M  V30 40556 H 3833.82 -3.16902 0.614244 0
M  V30 40557 H 3832.87 -2.43703 2.92084 0
M  V30 40558 H 3834.19 -3.36093 3.68569 0
M  V30 40559 H 3833.34 -5.46709 2.63049 0
M  V30 40560 H 3832.08 -4.54792 1.76111 0
M  V30 40561 H 3831.08 -3.82476 3.94959 0
M  V30 40562 H 3832.31 -4.77762 4.82618 0
M  V30 40563 H 3830.26 -5.89417 2.87965 0
M  V30 40564 H 3830.17 -5.99335 4.60796 0
M  V30 40565 H 3831.44 -6.82781 3.76073 0
M  V30 40566 N 3835.67 -1.33083 -0.844196 0
M  V30 40567 C 3836.92 -1.23992 -1.59594 0
M  V30 40568 C 3837.24 0.195626 -1.94016 0
M  V30 40569 O 3836.51 1.12303 -1.60514 0
M  V30 40570 H 3835.09 -0.455936 -0.591719 0
M  V30 40571 H 3837.75 -1.66736 -1.00921 0
M  V30 40572 H 3836.85 -1.82991 -2.52826 0
M  V30 40573 N 3837.15 1.06178 -1.16464 0
M  V30 40574 C 3838.4 1.78645 -0.945007 0
M  V30 40575 C 3838.72 1.87703 0.528453 0
M  V30 40576 O 3837.99 1.38656 1.38389 0
M  V30 40577 H 3836.57 0.661698 -0.346648 0
M  V30 40578 H 3839.23 1.28254 -1.46754 0
M  V30 40579 H 3838.32 2.8068 -1.36474 0
M  V30 40580 N 3838.63 0.96331 1.24732 0
M  V30 40581 C 3840.04 0.662277 1.74559 0
M  V30 40582 C 3840.39 -0.822138 1.78144 0
M  V30 40583 O 3839.51 -1.64332 1.40797 0
M  V30 40584 C 3840.11 1.19548 3.17007 0
M  V30 40585 C 3838.67 0.944435 3.64359 0
M  V30 40586 C 3837.81 1.33339 2.43138 0
M  V30 40587 H 3840.76 1.13913 1.10496 0
M  V30 40588 H 3840.79 0.559667 3.76362 0
M  V30 40589 H 3840.3 2.27587 3.14366 0
M  V30 40590 H 3838.4 -0.120616 3.72405 0
M  V30 40591 H 3838.51 1.58699 4.52052 0
M  V30 40592 H 3836.88 0.751772 2.43353 0
M  V30 40593 H 3837.66 2.42318 2.4318 0
M  V30 40594 N 3840.1 -1.39522 0.732902 0
M  V30 40595 C 3841.35 -2.0016 0.279373 0
M  V30 40596 C 3841.67 -1.58443 -1.1367 0
M  V30 40597 O 3840.94 -0.831712 -1.77368 0
M  V30 40598 H 3839.52 -0.740236 0.100301 0
M  V30 40599 H 3842.18 -1.70602 0.942393 0
M  V30 40600 H 3841.28 -3.10392 0.326107 0
M  V30 40601 N 3841.58 -0.480375 -1.501 0
M  V30 40602 C 3842.53 0.327783 -2.25632 0
M  V30 40603 C 3843.52 0.95347 -1.29606 0
M  V30 40604 O 3844.71 0.864482 -1.54453 0
M  V30 40605 C 3841.84 1.4038 -3.13286 0
M  V30 40606 C 3840.92 0.785388 -4.16764 0
M  V30 40607 N 3841.31 -0.0998155 -5.05702 0
M  V30 40608 C 3839.61 1.0483 -4.33505 0
M  V30 40609 C 3840.31 -0.451732 -5.79943 0
M  V30 40610 N 3839.29 0.17536 -5.43317 0
M  V30 40611 H 3843.09 -0.35398 -2.91761 0
M  V30 40612 H 3840.6 -0.295114 -1.59696 0
M  V30 40613 H 3842.6 1.99603 -3.66011 0
M  V30 40614 H 3841.26 2.08746 -2.48707 0
M  V30 40615 H 3842.27 -0.469274 -5.1577 0
M  V30 40616 H 3838.95 1.72625 -3.80141 0
M  V30 40617 H 3840.34 -1.1747 -6.61552 0
M  V30 40618 N 3843.06 1.56149 -0.213351 0
M  V30 40619 C 3843.97 2.23545 0.711663 0
M  V30 40620 C 3844.99 1.2404 1.22025 0
M  V30 40621 O 3846.16 1.5683 1.26358 0
M  V30 40622 C 3843.23 2.89581 1.9064 0
M  V30 40623 C 3842.29 4.04407 1.44059 0
M  V30 40624 C 3841.52 4.67285 2.57838 0
M  V30 40625 O 3841.74 4.29128 3.75773 0
M  V30 40626 O 3840.68 5.56426 2.29508 0
M  V30 40627 H 3844.5 3.03237 0.167582 0
M  V30 40628 H 3842.09 1.49391 0.0167447 0
M  V30 40629 H 3843.97 3.31292 2.60429 0
M  V30 40630 H 3842.65 2.12855 2.43874 0
M  V30 40631 H 3841.55 3.67282 0.710959 0
M  V30 40632 H 3842.89 4.82852 0.954724 0
M  V30 40633 N 3844.54 -0.0601128 1.57485 0
M  V30 40634 C 3845.45 -1.08781 2.07855 0
M  V30 40635 C 3846.46 -1.41651 1.0105 0
M  V30 40636 O 3847.64 -1.51594 1.32595 0
M  V30 40637 C 3844.71 -2.3788 2.52218 0
M  V30 40638 C 3843.77 -2.11875 3.73373 0
M  V30 40639 C 3843 -3.34819 4.1561 0
M  V30 40640 O 3843.22 -4.44371 3.57618 0
M  V30 40641 O 3842.16 -3.22344 5.08309 0
M  V30 40642 H 3845.98 -0.68986 2.95761 0
M  V30 40643 H 3843.57 -0.275039 1.46846 0
M  V30 40644 H 3845.45 -3.13835 2.81221 0
M  V30 40645 H 3844.12 -2.77032 1.67437 0
M  V30 40646 H 3843.03 -1.33588 3.49435 0
M  V30 40647 H 3844.36 -1.77598 4.59042 0
M  V30 40648 N 3846.02 -1.54068 -0.331762 0
M  V30 40649 C 3847.43 -1.63205 -0.906691 0
M  V30 40650 C 3847.78 -0.52087 -1.8916 0
M  V30 40651 O 3846.9 0.34754 -2.13591 0
M  V30 40652 C 3847.5 -2.95835 -1.65127 0
M  V30 40653 C 3846.06 -3.07195 -2.17504 0
M  V30 40654 C 3845.2 -2.58725 -0.997834 0
M  V30 40655 H 3848.16 -1.58321 -0.109567 0
M  V30 40656 H 3848.18 -2.85536 -2.51495 0
M  V30 40657 H 3847.69 -3.76689 -0.934189 0
M  V30 40658 H 3845.79 -2.31 -2.92352 0
M  V30 40659 H 3845.9 -4.12862 -2.43067 0
M  V30 40660 H 3844.27 -2.14419 -1.37465 0
M  V30 40661 H 3845.05 -3.42028 -0.295201 0
M  V30 40662 N 3847.49 0.593399 -1.46002 0
M  V30 40663 C 3848.74 1.35398 -1.50981 0
M  V30 40664 C 3849.07 1.93567 -0.15666 0
M  V30 40665 O 3848.35 1.75871 0.830639 0
M  V30 40666 C 3848.63 2.49133 -2.60009 0
M  V30 40667 C 3848.48 1.96068 -4.04818 0
M  V30 40668 C 3849.8 3.51218 -2.65205 0
M  V30 40669 H 3846.92 0.490955 -0.549665 0
M  V30 40670 H 3849.56 0.667612 -1.77885 0
M  V30 40671 H 3847.71 3.07683 -2.37199 0
M  V30 40672 H 3849.39 1.42058 -4.38882 0
M  V30 40673 H 3847.63 1.26969 -4.14803 0
M  V30 40674 H 3848.3 2.7812 -4.76816 0
M  V30 40675 H 3850.78 3.02532 -2.85681 0
M  V30 40676 H 3849.65 4.2827 -3.4333 0
M  V30 40677 H 3849.91 4.07757 -1.7084 0
M  V30 40678 N 3848.97 1.33529 0.837127 0
M  V30 40679 C 3850.38 1.22518 1.40876 0
M  V30 40680 C 3850.73 -0.155202 1.95585 0
M  V30 40681 O 3849.86 -1.05488 1.88948 0
M  V30 40682 C 3850.45 2.21819 2.56089 0
M  V30 40683 C 3849.01 2.14643 3.09201 0
M  V30 40684 C 3848.16 2.09209 1.82008 0
M  V30 40685 H 3851.11 1.45102 0.642741 0
M  V30 40686 H 3851.13 1.82693 3.33772 0
M  V30 40687 H 3850.64 3.22276 2.16241 0
M  V30 40688 H 3848.75 1.17495 3.5359 0
M  V30 40689 H 3848.86 3.05265 3.69256 0
M  V30 40690 H 3847.22 1.54711 2.02328 0
M  V30 40691 H 3848.01 3.11475 1.44353 0
M  V30 40692 N 3850.45 -1.05559 1.17026 0
M  V30 40693 C 3851.38 -2.12685 0.827057 0
M  V30 40694 C 3852.36 -1.61308 -0.204544 0
M  V30 40695 O 3853.55 -1.88299 -0.0869247 0
M  V30 40696 C 3850.67 -3.37897 0.233077 0
M  V30 40697 C 3849.72 -4.08092 1.23947 0
M  V30 40698 S 3850.55 -4.57122 2.78926 0
M  V30 40699 C 3851.71 -5.85586 2.20998 0
M  V30 40700 H 3851.94 -2.41469 1.73435 0
M  V30 40701 H 3849.47 -1.18105 0.994518 0
M  V30 40702 H 3851.43 -4.1037 -0.103149 0
M  V30 40703 H 3850.09 -3.07256 -0.6521 0
M  V30 40704 H 3849.29 -4.98045 0.772447 0
M  V30 40705 H 3848.89 -3.41667 1.52116 0
M  V30 40706 H 3851.18 -6.58741 1.58324 0
M  V30 40707 H 3852.12 -6.3703 3.09191 0
M  V30 40708 H 3852.53 -5.39972 1.64592 0
M  V30 40709 N 3851.93 -0.969911 -1.2422 0
M  V30 40710 C 3853.15 -0.650296 -1.96941 0
M  V30 40711 C 3853.58 0.773988 -1.71438 0
M  V30 40712 O 3852.94 1.52566 -0.979455 0
M  V30 40713 C 3852.98 -0.933743 -3.48301 0
M  V30 40714 O 3852.09 -0.020315 -4.12395 0
M  V30 40715 H 3851.43 -0.245629 -0.616897 0
M  V30 40716 H 3853.96 -1.30066 -1.57937 0
M  V30 40717 H 3853.97 -0.866176 -3.987 0
M  V30 40718 H 3852.64 -1.97173 -3.66191 0
M  V30 40719 H 3851.22 -0.141392 -3.72632 0
M  V30 40720 N 3853.41 1.39131 -0.740291 0
M  V30 40721 C 3854.63 2.04699 -0.300966 0
M  V30 40722 C 3855.05 1.55821 1.06607 0
M  V30 40723 O 3854.41 0.725417 1.67463 0
M  V30 40724 C 3854.46 3.60256 -0.299637 0
M  V30 40725 O 3854.18 4.07336 -1.61272 0
M  V30 40726 C 3855.68 4.43028 0.155201 0
M  V30 40727 H 3852.9 0.658155 -0.130664 0
M  V30 40728 H 3855.44 1.78077 -1.00542 0
M  V30 40729 H 3853.6 3.85761 0.355973 0
M  V30 40730 H 3854.01 5.01693 -1.52986 0
M  V30 40731 H 3855.49 5.519 0.104971 0
M  V30 40732 H 3855.96 4.22456 1.20116 0
M  V30 40733 H 3856.57 4.22683 -0.47104 0
M  V30 40734 N 3854.88 0.488329 1.49844 0
M  V30 40735 C 3856.11 -0.0577605 2.06519 0
M  V30 40736 C 3856.52 -1.32516 1.35041 0
M  V30 40737 O 3855.87 -1.78869 0.4185 0
M  V30 40738 C 3855.93 -0.394515 3.57329 0
M  V30 40739 C 3855.59 0.773338 4.50409 0
M  V30 40740 C 3856.59 1.66028 4.92677 0
M  V30 40741 C 3854.27 0.968552 4.92874 0
M  V30 40742 C 3856.27 2.72669 5.76134 0
M  V30 40743 C 3853.95 2.03816 5.76109 0
M  V30 40744 C 3854.95 2.91558 6.17643 0
M  V30 40745 O 3854.64 3.96675 6.99217 0
M  V30 40746 H 3854.37 0.0115176 0.675902 0
M  V30 40747 H 3856.93 0.681183 1.93776 0
M  V30 40748 H 3855.16 -1.18688 3.68035 0
M  V30 40749 H 3856.85 -0.877716 3.96297 0
M  V30 40750 H 3857.61 1.52122 4.60526 0
M  V30 40751 H 3853.49 0.295017 4.60055 0
M  V30 40752 H 3857.03 3.41185 6.08472 0
M  V30 40753 H 3852.93 2.17722 6.07674 0
M  V30 40754 H 3853.7 3.93873 7.175 0
M  V30 40755 N 3856.36 -1.56034 0.221629 0
M  V30 40756 C 3857.61 -1.97913 -0.409242 0
M  V30 40757 C 3857.93 -1.11052 -1.60289 0
M  V30 40758 O 3857.2 -0.187563 -1.95 0
M  V30 40759 H 3855.78 -0.730914 -0.154189 0
M  V30 40760 H 3858.44 -1.92345 0.314542 0
M  V30 40761 H 3857.54 -3.03309 -0.735517 0
M  V30 40762 N 3857.84 0.0517601 -1.57515 0
M  V30 40763 C 3859.09 0.742819 -1.89351 0
M  V30 40764 C 3859.44 1.7416 -0.817675 0
M  V30 40765 O 3858.73 1.90789 0.176123 0
M  V30 40766 C 3858.93 1.47314 -3.25628 0
M  V30 40767 C 3858.76 0.546598 -4.46366 0
M  V30 40768 C 3857.53 0.176054 -5.04993 0
M  V30 40769 C 3859.73 -0.165326 -5.14034 0
M  V30 40770 N 3857.71 -0.754117 -6.09251 0
M  V30 40771 C 3859.08 -0.951958 -6.12648 0
M  V30 40772 C 3861.13 -0.23468 -4.97347 0
M  V30 40773 C 3859.84 -1.80153 -6.96374 0
M  V30 40774 C 3861.86 -1.0713 -5.81616 0
M  V30 40775 C 3861.22 -1.84592 -6.79783 0
M  V30 40776 H 3857.32 0.246621 -0.742093 0
M  V30 40777 H 3859.91 0.00359926 -1.947 0
M  V30 40778 H 3858.08 2.18296 -3.2125 0
M  V30 40779 H 3859.81 2.11479 -3.45049 0
M  V30 40780 H 3856.57 0.533317 -4.70588 0
M  V30 40781 H 3856.99 -1.21304 -6.66044 0
M  V30 40782 H 3861.63 0.349883 -4.2135 0
M  V30 40783 H 3859.35 -2.39699 -7.71732 0
M  V30 40784 H 3862.94 -1.1282 -5.70756 0
M  V30 40785 H 3861.82 -2.48284 -7.43858 0
M  V30 40786 N 3859.32 1.54242 0.323587 0
M  V30 40787 C 3860.27 1.84351 1.41837 0
M  V30 40788 C 3861.26 0.715411 1.53552 0
M  V30 40789 O 3862.47 0.899073 1.55938 0
M  V30 40790 H 3858.84 0.58436 0.473315 0
M  V30 40791 H 3860.81 2.75903 1.13667 0
M  V30 40792 C 3859.56 2.0876 2.78055 0
M  V30 40793 H 3858.89 2.95026 2.69814 0
M  V30 40794 H 3860.33 2.3378 3.53727 0
M  V30 40795 C 3858.78 0.879134 3.25227 0
M  V30 40796 O 3859.31 0.0883831 4.01603 0
M  V30 40797 N 3857.52 0.690775 2.82271 0
M  V30 40798 H 3857.07 1.33545 2.2028 0
M  V30 40799 H 3857.03 -0.116289 3.14185 0
M  V30 40800 N 3860.8 -0.585648 1.46314 0
M  V30 40801 C 3862.05 -1.34016 1.5074 0
M  V30 40802 C 3862.36 -1.94926 0.162279 0
M  V30 40803 O 3863.57 -2.71369 0.0843153 0
M  V30 40804 C 3862.02 -2.42872 2.65596 0
M  V30 40805 C 3861.63 -1.88278 4.06516 0
M  V30 40806 C 3863.37 -3.19684 2.79289 0
M  V30 40807 C 3861.28 -2.94745 5.12717 0
M  V30 40808 H 3860.21 -0.503794 0.560988 0
M  V30 40809 H 3862.86 -0.625313 1.72517 0
M  V30 40810 H 3861.24 -3.17142 2.37143 0
M  V30 40811 H 3862.42 -1.2057 4.44746 0
M  V30 40812 H 3860.73 -1.24143 3.97464 0
M  V30 40813 H 3863.33 -3.99136 3.55802 0
M  V30 40814 H 3863.67 -3.72087 1.86701 0
M  V30 40815 H 3864.21 -2.52519 3.07374 0
M  V30 40816 H 3860.94 -2.47233 6.07088 0
M  V30 40817 H 3860.46 -3.60951 4.79035 0
M  V30 40818 H 3862.14 -3.58747 5.38432 0
M  V30 40819 N 3862.28 -1.33971 -0.830033 0
M  V30 40820 C 3863.52 -1.26113 -1.58818 0
M  V30 40821 C 3863.85 0.17045 -1.93451 0
M  V30 40822 O 3863.13 1.11404 -1.59435 0
M  V30 40823 C 3863.41 -2.14506 -2.89239 0
M  V30 40824 C 3863.27 -3.66166 -2.61232 0
M  V30 40825 C 3864.58 -2.02493 -3.90749 0
M  V30 40826 H 3861.7 -0.459465 -0.576247 0
M  V30 40827 H 3864.35 -1.64156 -0.956707 0
M  V30 40828 H 3862.5 -1.82192 -3.4313 0
M  V30 40829 H 3864.17 -4.08812 -2.13706 0
M  V30 40830 H 3862.41 -3.87607 -1.94789 0
M  V30 40831 H 3863.08 -4.23371 -3.54204 0
M  V30 40832 H 3865.56 -2.3085 -3.4619 0
M  V30 40833 H 3864.43 -2.66578 -4.7982 0
M  V30 40834 H 3864.69 -0.99978 -4.30647 0
M  V30 40835 N 3863.75 1.04937 -1.17584 0
M  V30 40836 C 3864.7 2.12745 -0.894892 0
M  V30 40837 C 3865.67 1.65306 0.162232 0
M  V30 40838 O 3866.86 1.90784 0.0244732 0
M  V30 40839 C 3864 3.4257 -0.417145 0
M  V30 40840 C 3863.11 4.03669 -1.53868 0
M  V30 40841 C 3862.24 5.21421 -1.01455 0
M  V30 40842 C 3861.28 5.74533 -2.11137 0
M  V30 40843 N 3860.42 6.83583 -1.60181 0
M  V30 40844 H 3865.26 2.36115 -1.81807 0
M  V30 40845 H 3862.8 1.1583 -0.906736 0
M  V30 40846 H 3864.75 4.17022 -0.121693 0
M  V30 40847 H 3863.38 3.19374 0.469063 0
M  V30 40848 H 3862.44 3.26629 -1.94981 0
M  V30 40849 H 3863.75 4.39124 -2.36583 0
M  V30 40850 H 3862.9 6.02955 -0.673098 0
M  V30 40851 H 3861.64 4.87448 -0.156881 0
M  V30 40852 H 3860.65 4.91627 -2.46136 0
M  V30 40853 H 3861.87 6.10553 -2.97324 0
M  V30 40854 H 3859.82 6.51502 -0.766897 0
M  V30 40855 H 3859.73 7.18055 -2.36501 0
M  V30 40856 H 3861 7.68762 -1.28937 0
M  V30 40857 N 3865.23 0.976485 1.23703 0
M  V30 40858 C 3866.16 0.532849 2.27339 0
M  V30 40859 C 3867.14 -0.431983 1.64523 0
M  V30 40860 O 3868.33 -0.326199 1.91441 0
M  V30 40861 C 3865.46 -0.169313 3.46887 0
M  V30 40862 C 3864.41 0.71241 4.22029 0
M  V30 40863 C 3863.74 -0.121744 5.34561 0
M  V30 40864 C 3865.04 2.00131 4.82436 0
M  V30 40865 H 3866.73 1.39908 2.647 0
M  V30 40866 H 3864.28 0.674178 1.27243 0
M  V30 40867 H 3866.23 -0.490954 4.1853 0
M  V30 40868 H 3864.95 -1.06997 3.08576 0
M  V30 40869 H 3863.61 1.01745 3.52198 0
M  V30 40870 H 3863.26 -1.02281 4.92491 0
M  V30 40871 H 3862.96 0.465065 5.85757 0
M  V30 40872 H 3864.49 -0.437856 6.09028 0
M  V30 40873 H 3865.9 1.74469 5.46107 0
M  V30 40874 H 3864.3 2.53557 5.43901 0
M  V30 40875 H 3865.37 2.69066 4.034 0
M  V30 40876 N 3866.71 -1.38737 0.747659 0
M  V30 40877 C 3867.64 -2.28109 0.0645393 0
M  V30 40878 C 3868.62 -1.45064 -0.734529 0
M  V30 40879 O 3869.8 -1.74437 -0.714413 0
M  V30 40880 C 3866.93 -3.26091 -0.915538 0
M  V30 40881 C 3865.98 -4.26015 -0.203424 0
M  V30 40882 S 3866.81 -5.24256 1.0916 0
M  V30 40883 C 3867.97 -6.25795 0.114444 0
M  V30 40884 H 3868.2 -2.85698 0.822422 0
M  V30 40885 H 3865.73 -1.4465 0.539987 0
M  V30 40886 H 3867.69 -3.83059 -1.47568 0
M  V30 40887 H 3866.35 -2.67496 -1.64635 0
M  V30 40888 H 3865.54 -4.95052 -0.945485 0
M  V30 40889 H 3865.15 -3.72912 0.285032 0
M  V30 40890 H 3867.44 -6.73646 -0.721618 0
M  V30 40891 H 3868.38 -7.03876 0.772312 0
M  V30 40892 H 3868.79 -5.63884 -0.263607 0
M  V30 40893 N 3868.19 -0.496268 -1.49583 0
M  V30 40894 C 3869.41 0.0490621 -2.07342 0
M  V30 40895 C 3869.84 1.30491 -1.35476 0
M  V30 40896 O 3869.2 1.76602 -0.410036 0
M  V30 40897 C 3869.24 0.290538 -3.59428 0
M  V30 40898 O 3868.35 1.36619 -3.89113 0
M  V30 40899 H 3867.69 -0.0241258 -0.663562 0
M  V30 40900 H 3870.22 -0.694534 -1.92451 0
M  V30 40901 H 3870.23 0.523478 -4.04628 0
M  V30 40902 H 3868.9 -0.627031 -4.11146 0
M  V30 40903 H 3867.48 1.11858 -3.55728 0
M  V30 40904 N 3869.67 1.55914 -0.2299 0
M  V30 40905 C 3870.91 1.98127 0.398741 0
M  V30 40906 C 3871.23 1.119 1.59698 0
M  V30 40907 O 3870.5 0.197902 1.94898 0
M  V30 40908 H 3869.08 0.731721 0.15031 0
M  V30 40909 H 3871.75 1.92176 -0.324738 0
M  V30 40910 H 3870.84 3.03695 0.719421 0
M  V30 40911 N 3871.14 -0.043406 1.5754 0
M  V30 40912 C 3872.09 -1.04844 2.05612 0
M  V30 40913 C 3873.06 -1.36783 0.942323 0
M  V30 40914 O 3874.25 -1.47366 1.21194 0
M  V30 40915 C 3871.39 -2.34866 2.52848 0
M  V30 40916 C 3870.5 -2.09211 3.77961 0
M  V30 40917 C 3869.63 -3.33 4.13865 0
M  V30 40918 C 3868.67 -3.02836 5.31937 0
M  V30 40919 N 3867.81 -4.19035 5.63342 0
M  V30 40920 H 3872.65 -0.63154 2.91231 0
M  V30 40921 H 3870.19 -0.300233 1.44004 0
M  V30 40922 H 3872.14 -3.10817 2.78296 0
M  V30 40923 H 3870.77 -2.74305 1.70166 0
M  V30 40924 H 3869.83 -1.23822 3.59684 0
M  V30 40925 H 3871.14 -1.8295 4.64037 0
M  V30 40926 H 3870.29 -4.17329 4.40366 0
M  V30 40927 H 3869.03 -3.62362 3.26412 0
M  V30 40928 H 3868.04 -2.16907 5.05204 0
M  V30 40929 H 3869.26 -2.74766 6.21032 0
M  V30 40930 H 3867.21 -4.48375 4.78848 0
M  V30 40931 H 3867.12 -3.96147 6.43897 0
M  V30 40932 H 3868.39 -5.04278 5.9441 0
M  V30 40933 N 3872.62 -1.54412 -0.315402 0
M  V30 40934 C 3873.9 -1.63667 -1.0711 0
M  V30 40935 C 3874.28 -0.475724 -2.0567 0
M  V30 40936 O 3873.63 0.529141 -2.22289 0
M  V30 40937 C 3873.84 -3.01033 -1.76578 0
M  V30 40938 C 3875.18 -3.57359 -2.29303 0
M  V30 40939 O 3876.21 -3.03392 -1.86633 0
M  V30 40940 O 3875.07 -4.51819 -3.07444 0
M  V30 40941 H 3872.16 -0.663092 -0.494205 0
M  V30 40942 H 3874.71 -1.66758 -0.314641 0
M  V30 40943 H 3873.48 -3.76968 -1.04933 0
M  V30 40944 H 3873.1 -3.01657 -2.59015 0
M  V30 40945 N 3874.1 0.57788 -1.46623 0
M  V30 40946 C 3875.35 1.33789 -1.52408 0
M  V30 40947 C 3875.68 1.9339 -0.177181 0
M  V30 40948 O 3874.95 1.76742 0.811939 0
M  V30 40949 C 3875.24 2.46361 -2.62637 0
M  V30 40950 C 3875.09 1.91764 -4.06874 0
M  V30 40951 C 3876.41 3.48386 -2.68915 0
M  V30 40952 H 3873.53 0.485097 -0.554842 0
M  V30 40953 H 3876.17 0.648708 -1.78583 0
M  V30 40954 H 3874.32 3.0515 -2.40449 0
M  V30 40955 H 3875.99 1.37395 -4.40364 0
M  V30 40956 H 3874.24 1.22562 -4.16126 0
M  V30 40957 H 3874.91 2.73047 -4.79739 0
M  V30 40958 H 3877.38 2.99485 -2.88873 0
M  V30 40959 H 3876.26 4.24605 -3.47854 0
M  V30 40960 H 3876.52 4.05922 -1.75156 0
M  V30 40961 N 3875.58 1.34409 0.822917 0
M  V30 40962 C 3876.83 1.26766 1.57913 0
M  V30 40963 C 3877.15 -0.162374 1.93821 0
M  V30 40964 O 3876.41 -1.12363 1.60228 0
M  V30 40965 C 3876.71 2.10393 2.88911 0
M  V30 40966 C 3876.37 3.59397 2.72295 0
M  V30 40967 C 3875.04 4.00016 2.67472 0
M  V30 40968 C 3877.39 4.54013 2.55972 0
M  V30 40969 C 3874.72 5.33443 2.44245 0
M  V30 40970 C 3877.07 5.87619 2.34278 0
M  V30 40971 C 3875.73 6.27402 2.27866 0
M  V30 40972 H 3875 0.46387 0.577846 0
M  V30 40973 H 3877.65 1.66152 0.952151 0
M  V30 40974 H 3875.95 1.63836 3.55901 0
M  V30 40975 H 3877.65 2.01826 3.46508 0
M  V30 40976 H 3874.24 3.27154 2.7689 0
M  V30 40977 H 3878.42 4.23529 2.58722 0
M  V30 40978 H 3873.68 5.63285 2.37739 0
M  V30 40979 H 3877.85 6.60525 2.20634 0
M  V30 40980 H 3875.48 7.30725 2.0963 0
M  V30 40981 N 3877.06 -1.04312 1.18139 0
M  V30 40982 C 3878.29 -1.80863 0.998599 0
M  V30 40983 C 3878.69 -1.83618 -0.456206 0
M  V30 40984 O 3878.04 -1.26857 -1.32864 0
M  V30 40985 C 3878.1 -3.27891 1.47402 0
M  V30 40986 C 3877.76 -3.48803 2.95272 0
M  V30 40987 C 3878.76 -3.40196 3.93145 0
M  V30 40988 C 3876.45 -3.75479 3.33648 0
M  V30 40989 C 3878.44 -3.57965 5.2739 0
M  V30 40990 C 3876.13 -3.92896 4.68056 0
M  V30 40991 C 3877.12 -3.84139 5.64736 0
M  V30 40992 O 3876.81 -4.01059 6.96711 0
M  V30 40993 H 3876.54 -0.576492 0.353035 0
M  V30 40994 H 3879.1 -1.32373 1.57056 0
M  V30 40995 H 3877.33 -3.77339 0.845691 0
M  V30 40996 H 3879.02 -3.85994 1.25552 0
M  V30 40997 H 3879.78 -3.19554 3.64843 0
M  V30 40998 H 3875.66 -3.81395 2.58958 0
M  V30 40999 H 3879.21 -3.51046 6.02837 0
M  V30 41000 H 3875.1 -4.13032 4.9606 0
M  V30 41001 H 3875.87 -4.18234 7.03578 0
M  V30 41002 N 3878.53 -0.983032 -1.23184 0
M  V30 41003 C 3879.46 -0.544898 -2.27053 0
M  V30 41004 C 3880.45 0.423252 -1.6475 0
M  V30 41005 O 3881.63 0.316042 -1.91611 0
M  V30 41006 C 3878.76 0.150915 -3.46972 0
M  V30 41007 C 3877.71 -0.734781 -4.21646 0
M  V30 41008 C 3877.04 0.0933934 -5.34618 0
M  V30 41009 C 3878.34 -2.02687 -4.81368 0
M  V30 41010 H 3880.03 -1.4131 -2.63954 0
M  V30 41011 H 3877.58 -0.680917 -1.26884 0
M  V30 41012 H 3879.53 0.468751 -4.18785 0
M  V30 41013 H 3878.26 1.05359 -3.09139 0
M  V30 41014 H 3876.92 -1.03611 -3.51654 0
M  V30 41015 H 3876.56 0.996681 -4.93027 0
M  V30 41016 H 3876.26 -0.496122 -5.85502 0
M  V30 41017 H 3877.79 0.405551 -6.09252 0
M  V30 41018 H 3879.2 -1.77363 -5.45175 0
M  V30 41019 H 3877.6 -2.56438 -5.42549 0
M  V30 41020 H 3878.67 -2.71201 -4.01968 0
M  V30 41021 N 3880.01 1.38338 -0.755006 0
M  V30 41022 C 3881.42 1.82806 -0.379308 0
M  V30 41023 C 3881.77 1.62986 1.09225 0
M  V30 41024 O 3880.9 1.13181 1.84443 0
M  V30 41025 C 3881.49 3.31871 -0.681686 0
M  V30 41026 C 3880.05 3.74682 -0.359249 0
M  V30 41027 C 3879.2 2.61092 -0.934136 0
M  V30 41028 H 3882.15 1.27047 -0.951042 0
M  V30 41029 H 3882.17 3.80479 0.0396134 0
M  V30 41030 H 3881.68 3.46265 -1.75277 0
M  V30 41031 H 3879.79 3.65866 0.705192 0
M  V30 41032 H 3879.9 4.71395 -0.855793 0
M  V30 41033 H 3878.26 2.52151 -0.359423 0
M  V30 41034 H 3879.05 2.78285 -2.01028 0
M  V30 41035 N 3881.49 0.504194 1.49317 0
M  V30 41036 C 3882.9 0.0572057 1.86612 0
M  V30 41037 C 3883.25 -1.35784 1.41623 0
M  V30 41038 O 3882.38 -2.01247 0.795516 0
M  V30 41039 C 3882.97 0.0970369 3.38661 0
M  V30 41040 C 3881.53 -0.294626 3.75245 0
M  V30 41041 C 3880.68 0.468173 2.73319 0
M  V30 41042 H 3883.63 0.716813 1.41589 0
M  V30 41043 H 3883.65 -0.697503 3.74052 0
M  V30 41044 H 3883.16 1.12704 3.71375 0
M  V30 41045 H 3881.26 -1.32775 3.4814 0
M  V30 41046 H 3881.38 0.0270463 4.79092 0
M  V30 41047 H 3879.74 -0.0823931 2.54567 0
M  V30 41048 H 3880.52 1.49832 3.08877 0
M  V30 41049 N 3882.97 -1.5579 0.238166 0
M  V30 41050 C 3883.88 -2.24649 -0.676009 0
M  V30 41051 C 3884.89 -1.25966 -1.20036 0
M  V30 41052 O 3886.07 -1.5882 -1.23847 0
M  V30 41053 C 3883.14 -2.92578 -1.86009 0
M  V30 41054 C 3882.2 -4.06648 -1.37607 0
M  V30 41055 C 3881.43 -4.71328 -2.50371 0
M  V30 41056 O 3881.65 -4.35052 -3.68899 0
M  V30 41057 O 3880.59 -5.60007 -2.20627 0
M  V30 41058 H 3884.41 -3.03466 -0.119319 0
M  V30 41059 H 3882 -1.49398 0.00702415 0
M  V30 41060 H 3883.88 -3.35394 -2.55126 0
M  V30 41061 H 3882.55 -2.16708 -2.40456 0
M  V30 41062 H 3881.46 -3.68367 -0.652438 0
M  V30 41063 H 3882.79 -4.8431 -0.877786 0
M  V30 41064 N 3884.45 0.0350506 -1.57561 0
M  V30 41065 C 3885.39 1.03752 -2.06165 0
M  V30 41066 C 3886.36 1.36281 -0.949564 0
M  V30 41067 O 3887.55 1.46721 -1.21974 0
M  V30 41068 C 3884.69 2.33522 -2.5409 0
M  V30 41069 C 3883.8 2.07204 -3.79066 0
M  V30 41070 C 3882.94 3.308 -4.15625 0
M  V30 41071 C 3881.98 3.0001 -5.33536 0
M  V30 41072 N 3881.11 4.16041 -5.65556 0
M  V30 41073 H 3885.95 0.616086 -2.91562 0
M  V30 41074 H 3883.49 0.292592 -1.44161 0
M  V30 41075 H 3885.45 3.09337 -2.7994 0
M  V30 41076 H 3884.08 2.73399 -1.71618 0
M  V30 41077 H 3883.13 1.21913 -3.60335 0
M  V30 41078 H 3884.44 1.80486 -4.65001 0
M  V30 41079 H 3883.6 4.14987 -4.42573 0
M  V30 41080 H 3882.33 3.60626 -3.28329 0
M  V30 41081 H 3881.34 2.14225 -5.06347 0
M  V30 41082 H 3882.56 2.71469 -6.2248 0
M  V30 41083 H 3880.51 4.4583 -4.81219 0
M  V30 41084 H 3880.43 3.92727 -6.45989 0
M  V30 41085 H 3881.7 5.01119 -5.97076 0
M  V30 41086 N 3885.92 1.54577 0.307209 0
M  V30 41087 C 3887.16 1.75296 1.05122 0
M  V30 41088 C 3887.53 0.524346 1.84701 0
M  V30 41089 O 3888.73 0.609167 2.61806 0
M  V30 41090 C 3887 3.00279 1.93822 0
M  V30 41091 S 3888.56 3.41974 2.74953 0
M  V30 41092 H 3885.38 0.616246 0.35463 0
M  V30 41093 H 3887.98 1.92774 0.325328 0
M  V30 41094 H 3886.68 3.8783 1.34223 0
M  V30 41095 H 3886.21 2.85371 2.70789 0
M  V30 41096 H 3888.23 2.98557 3.96331 0
M  V30 41097 N 3887.4 -0.570096 1.46927 0
M  V30 41098 C 3888.68 -1.33061 1.43367 0
M  V30 41099 C 3889.06 -2.10737 0.123775 0
M  V30 41100 O 3888.41 -2.10254 -0.894729 0
M  V30 41101 C 3888.62 -2.246 2.67126 0
M  V30 41102 C 3889.97 -2.8603 3.13803 0
M  V30 41103 O 3890.99 -2.34907 2.67763 0
M  V30 41104 O 3889.85 -3.78916 3.93808 0
M  V30 41105 H 3886.94 -0.598489 0.570736 0
M  V30 41106 H 3889.49 -0.590067 1.59111 0
M  V30 41107 H 3888.26 -1.66716 3.54008 0
M  V30 41108 H 3887.88 -3.05971 2.53904 0
M  V30 41109 N 3888.88 -1.34844 -0.815777 0
M  V30 41110 C 3890.11 -1.30695 -1.60394 0
M  V30 41111 C 3890.52 0.117503 -1.88434 0
M  V30 41112 O 3889.88 1.06673 -1.48078 0
M  V30 41113 C 3889.93 -2.10257 -2.94065 0
M  V30 41114 O 3889.65 -3.47148 -2.67245 0
M  V30 41115 C 3891.15 -2.13588 -3.88452 0
M  V30 41116 H 3888.37 -0.449328 -0.498343 0
M  V30 41117 H 3890.92 -1.77563 -1.01447 0
M  V30 41118 H 3889.07 -1.67012 -3.49551 0
M  V30 41119 H 3889.49 -3.8836 -3.52529 0
M  V30 41120 H 3890.96 -2.73666 -4.79386 0
M  V30 41121 H 3891.44 -1.13217 -4.24357 0
M  V30 41122 H 3892.04 -2.56953 -3.38903 0
M  V30 41123 N 3890.36 1.03684 -1.1869 0
M  V30 41124 C 3891.29 2.137 -0.940977 0
M  V30 41125 C 3892.27 1.69657 0.12274 0
M  V30 41126 O 3893.46 1.94176 -0.0306426 0
M  V30 41127 C 3890.59 3.44103 -0.470115 0
M  V30 41128 C 3889.54 4.0179 -1.47475 0
M  V30 41129 C 3888.87 5.27718 -0.861267 0
M  V30 41130 C 3890.17 4.37519 -2.85262 0
M  V30 41131 H 3891.86 2.34531 -1.86106 0
M  V30 41132 H 3889.41 1.12711 -0.896227 0
M  V30 41133 H 3891.36 4.20432 -0.285404 0
M  V30 41134 H 3890.08 3.22971 0.485547 0
M  V30 41135 H 3888.74 3.27547 -1.64647 0
M  V30 41136 H 3888.39 5.02897 0.101702 0
M  V30 41137 H 3888.09 5.67276 -1.53206 0
M  V30 41138 H 3889.61 6.06721 -0.687173 0
M  V30 41139 H 3891.03 5.04818 -2.7172 0
M  V30 41140 H 3889.42 4.88137 -3.4906 0
M  V30 41141 H 3890.49 3.47175 -3.38522 0
M  V30 41142 N 3891.84 0.989551 1.22661 0
M  V30 41143 C 3892.77 0.556931 2.26761 0
M  V30 41144 C 3893.75 -0.414509 1.64972 0
M  V30 41145 O 3894.93 -0.305876 1.91776 0
M  V30 41146 C 3892.06 -0.132512 3.47047 0
M  V30 41147 C 3891.02 0.757132 4.2125 0
M  V30 41148 C 3890.34 -0.06504 5.3466 0
M  V30 41149 C 3891.64 2.05237 4.80286 0
M  V30 41150 H 3893.34 1.42708 2.63201 0
M  V30 41151 H 3890.88 0.687636 1.26521 0
M  V30 41152 H 3892.84 -0.446536 4.19027 0
M  V30 41153 H 3891.56 -1.03718 3.09694 0
M  V30 41154 H 3890.22 1.05475 3.51099 0
M  V30 41155 H 3889.87 -0.970521 4.93548 0
M  V30 41156 H 3889.57 0.527166 5.8523 0
M  V30 41157 H 3891.09 -0.373235 6.09458 0
M  V30 41158 H 3892.51 1.80252 5.44226 0
M  V30 41159 H 3890.9 2.59312 5.41182 0
M  V30 41160 H 3891.97 2.73329 4.00524 0
M  V30 41161 N 3893.32 -1.37936 0.762332 0
M  V30 41162 C 3894.56 -2.0176 0.327447 0
M  V30 41163 C 3894.92 -1.59208 -1.07317 0
M  V30 41164 O 3896.12 -2.15425 -1.60765 0
M  V30 41165 C 3894.39 -3.54481 0.455842 0
M  V30 41166 S 3895.95 -4.38675 0.104829 0
M  V30 41167 H 3892.77 -0.699653 0.126515 0
M  V30 41168 H 3895.37 -1.68293 0.994875 0
M  V30 41169 H 3894.07 -3.82939 1.476 0
M  V30 41170 H 3893.61 -3.92736 -0.228467 0
M  V30 41171 H 3895.62 -4.83791 -1.10274 0
M  V30 41172 N 3894.79 -0.512106 -1.49048 0
M  V30 41173 C 3896.07 0.0919987 -1.95384 0
M  V30 41174 C 3896.45 1.5305 -1.45392 0
M  V30 41175 O 3895.8 2.18379 -0.672523 0
M  V30 41176 C 3896.01 -0.00680036 -3.48999 0
M  V30 41177 C 3897.36 0.161528 -4.24293 0
M  V30 41178 O 3898.38 0.0678572 -3.56135 0
M  V30 41179 O 3897.24 0.355256 -5.45344 0
M  V30 41180 H 3894.33 0.0891848 -0.822177 0
M  V30 41181 H 3896.88 -0.575434 -1.59646 0
M  V30 41182 H 3895.65 -1.00954 -3.78053 0
M  V30 41183 H 3895.27 0.700285 -3.91384 0
M  V30 41184 N 3896.27 1.55662 -0.246424 0
M  V30 41185 C 3897.52 1.98108 0.378938 0
M  V30 41186 C 3897.83 1.13778 1.59104 0
M  V30 41187 O 3899.04 1.46236 2.28752 0
M  V30 41188 C 3897.5 3.5251 0.725572 0
M  V30 41189 C 3897.1 4.45579 -0.465102 0
M  V30 41190 C 3898.85 4.03614 1.31515 0
M  V30 41191 C 3896.75 5.91324 -0.0946487 0
M  V30 41192 H 3895.68 0.739856 0.145357 0
M  V30 41193 H 3898.34 1.80198 -0.346565 0
M  V30 41194 H 3896.72 3.66114 1.50919 0
M  V30 41195 H 3897.89 4.43734 -1.24244 0
M  V30 41196 H 3896.21 4.04955 -0.969578 0
M  V30 41197 H 3898.8 5.10023 1.60564 0
M  V30 41198 H 3899.15 3.50933 2.23946 0
M  V30 41199 H 3899.68 3.93333 0.594446 0
M  V30 41200 H 3896.42 6.48041 -0.986079 0
M  V30 41201 H 3895.94 5.96306 0.646496 0
M  V30 41202 H 3897.62 6.46192 0.323334 0
M  V30 41203 N 3897.75 -0.0266943 1.57577 0
M  V30 41204 C 3899 -0.715612 1.89006 0
M  V30 41205 C 3899.32 -1.75769 0.844419 0
M  V30 41206 O 3898.59 -1.95522 -0.121659 0
M  V30 41207 H 3897.17 -0.267296 0.69754 0
M  V30 41208 H 3899.83 0.00791522 1.94898 0
M  V30 41209 H 3898.93 -1.20369 2.87954 0
M  V30 41210 N 3899.23 -1.54738 -0.299007 0
M  V30 41211 C 3900.14 -1.88886 -1.39137 0
M  V30 41212 C 3901.15 -0.783231 -1.55375 0
M  V30 41213 O 3902.33 -1.07988 -1.70002 0
M  V30 41214 C 3899.39 -2.13091 -2.73483 0
M  V30 41215 C 3898.46 -3.36792 -2.66213 0
M  V30 41216 C 3897.69 -3.59833 -3.94152 0
M  V30 41217 O 3897.91 -2.85849 -4.93605 0
M  V30 41218 O 3896.85 -4.53351 -3.95925 0
M  V30 41219 H 3900.67 -2.81823 -1.13179 0
M  V30 41220 H 3898.26 -1.40953 -0.495246 0
M  V30 41221 H 3900.14 -2.30201 -3.52966 0
M  V30 41222 H 3898.81 -1.23341 -2.9928 0
M  V30 41223 H 3897.72 -3.25044 -1.85195 0
M  V30 41224 H 3899.05 -4.26679 -2.45368 0
M  V30 41225 N 3900.71 0.562296 -1.47228 0
M  V30 41226 C 3901.93 1.35006 -1.57443 0
M  V30 41227 C 3902.36 1.8677 -0.223255 0
M  V30 41228 O 3901.71 1.62693 0.800049 0
M  V30 41229 C 3901.76 2.49944 -2.59924 0
M  V30 41230 O 3900.87 3.52018 -2.14842 0
M  V30 41231 H 3900.21 0.401223 -0.529071 0
M  V30 41232 H 3902.74 0.68005 -1.92968 0
M  V30 41233 H 3902.75 2.96583 -2.80183 0
M  V30 41234 H 3901.42 2.11623 -3.58034 0
M  V30 41235 H 3900 3.11719 -2.04661 0
M  V30 41236 N 3902.18 1.35274 0.808615 0
M  V30 41237 C 3903.41 1.31702 1.60217 0
M  V30 41238 C 3903.83 -0.103353 1.87816 0
M  V30 41239 O 3903.19 -1.06955 1.46391 0
M  V30 41240 C 3903.24 2.12745 2.91156 0
M  V30 41241 O 3902.34 1.50677 3.83888 0
M  V30 41242 H 3901.68 0.451648 0.486734 0
M  V30 41243 H 3904.21 1.78286 1.00375 0
M  V30 41244 H 3904.22 2.24626 3.40598 0
M  V30 41245 H 3902.9 3.16007 2.70394 0
M  V30 41246 H 3901.48 1.47624 3.42435 0
M  V30 41247 N 3903.66 -1.03053 1.19239 0
M  V30 41248 C 3905.07 -1.57876 0.996596 0
M  V30 41249 C 3905.42 -1.90947 -0.450954 0
M  V30 41250 O 3904.55 -1.707 -1.33006 0
M  V30 41251 C 3905.14 -2.86855 1.80277 0
M  V30 41252 C 3903.7 -3.38257 1.65103 0
M  V30 41253 C 3902.85 -2.11718 1.79083 0
M  V30 41254 H 3905.8 -0.856013 1.33634 0
M  V30 41255 H 3905.82 -3.57681 1.29787 0
M  V30 41256 H 3905.33 -2.62754 2.85626 0
M  V30 41257 H 3903.44 -3.67349 0.623332 0
M  V30 41258 H 3903.55 -4.114 2.45534 0
M  V30 41259 H 3901.91 -2.2351 1.22128 0
M  V30 41260 H 3902.7 -1.9006 2.85888 0
M  V30 41261 N 3905.14 -0.996042 -1.22134 0
M  V30 41262 C 3906.37 -0.691924 -1.95518 0
M  V30 41263 C 3906.79 0.737449 -1.73041 0
M  V30 41264 O 3906.15 1.50454 -1.0116 0
M  V30 41265 C 3906.2 -1.00741 -3.46242 0
M  V30 41266 O 3905.3 -0.107786 -4.12259 0
M  V30 41267 H 3904.64 -0.258659 -0.611549 0
M  V30 41268 H 3907.17 -1.33387 -1.55142 0
M  V30 41269 H 3907.18 -0.950551 -3.96773 0
M  V30 41270 H 3905.86 -2.04896 -3.61926 0
M  V30 41271 H 3904.43 -0.220401 -3.72248 0
M  V30 41272 N 3906.62 1.37529 -0.769636 0
M  V30 41273 C 3908.03 1.82394 -0.398676 0
M  V30 41274 C 3908.38 1.64135 1.0749 0
M  V30 41275 O 3907.51 1.1513 1.83232 0
M  V30 41276 C 3908.1 3.31129 -0.716847 0
M  V30 41277 C 3906.66 3.7428 -0.398969 0
M  V30 41278 C 3905.81 2.60087 -0.961776 0
M  V30 41279 H 3908.76 1.26031 -0.964463 0
M  V30 41280 H 3908.78 3.805 -0.000743762 0
M  V30 41281 H 3908.29 3.44387 -1.78939 0
M  V30 41282 H 3906.39 3.66593 0.666348 0
M  V30 41283 H 3906.5 4.70461 -0.905743 0
M  V30 41284 H 3904.87 2.51756 -0.386147 0
M  V30 41285 H 3905.65 2.76137 -2.03968 0
M  V30 41286 N 3908.1 0.520003 1.48774 0
M  V30 41287 C 3909.32 -0.0139619 2.06895 0
M  V30 41288 C 3909.74 -1.29073 1.37789 0
M  V30 41289 O 3909.1 -1.7655 0.462199 0
M  V30 41290 C 3909.15 -0.251935 3.60621 0
M  V30 41291 O 3908.87 0.974233 4.2713 0
M  V30 41292 C 3910.37 -0.827407 4.3551 0
M  V30 41293 H 3907.59 0.0290129 0.670372 0
M  V30 41294 H 3910.13 0.722796 1.91301 0
M  V30 41295 H 3908.29 -0.938717 3.75855 0
M  V30 41296 H 3908.7 0.748789 5.19128 0
M  V30 41297 H 3910.18 -0.943396 5.43879 0
M  V30 41298 H 3910.65 -1.82989 3.99264 0
M  V30 41299 H 3911.26 -0.177504 4.24929 0
M  V30 41300 N 3909.57 -1.55529 0.254676 0
M  V30 41301 C 3910.82 -1.99425 -0.368442 0
M  V30 41302 C 3911.15 -1.14271 -1.57021 0
M  V30 41303 O 3910.43 -0.20792 -1.93385 0
M  V30 41304 C 3910.71 -3.51756 -0.770698 0
M  V30 41305 C 3910.56 -4.47672 0.437002 0
M  V30 41306 C 3911.88 -4.09405 -1.6148 0
M  V30 41307 H 3909 -0.725001 -0.132446 0
M  V30 41308 H 3911.64 -1.86606 0.357541 0
M  V30 41309 H 3909.79 -3.62811 -1.38926 0
M  V30 41310 H 3911.47 -4.48588 1.07549 0
M  V30 41311 H 3909.71 -4.20173 1.07874 0
M  V30 41312 H 3910.38 -5.51886 0.112093 0
M  V30 41313 H 3912.86 -4.01499 -1.09258 0
M  V30 41314 H 3911.73 -5.16242 -1.8651 0
M  V30 41315 H 3911.99 -3.58348 -2.58919 0
M  V30 41316 N 3911.05 0.0183372 -1.57589 0
M  V30 41317 C 3911.96 1.03232 -2.10666 0
M  V30 41318 C 3912.98 1.38922 -1.0477 0
M  V30 41319 O 3914.15 1.48025 -1.36567 0
M  V30 41320 C 3911.22 2.3111 -2.58436 0
M  V30 41321 C 3910.28 2.01902 -3.78859 0
M  V30 41322 C 3909.51 3.23682 -4.24341 0
M  V30 41323 O 3909.74 4.34733 -3.69274 0
M  V30 41324 O 3908.67 3.08754 -5.16677 0
M  V30 41325 H 3912.5 0.611201 -2.97486 0
M  V30 41326 H 3910.08 0.236009 -1.47524 0
M  V30 41327 H 3911.96 3.06269 -2.89443 0
M  V30 41328 H 3910.64 2.72495 -1.74723 0
M  V30 41329 H 3909.55 1.24276 -3.52854 0
M  V30 41330 H 3910.88 1.65365 -4.6359 0
M  V30 41331 N 3912.53 1.54894 0.290797 0
M  V30 41332 C 3913.44 1.89621 1.38134 0
M  V30 41333 C 3914.46 0.79146 1.54958 0
M  V30 41334 O 3915.63 1.08888 1.69426 0
M  V30 41335 C 3912.7 2.14539 2.72349 0
M  V30 41336 C 3911.76 3.38199 2.64423 0
M  V30 41337 C 3910.99 3.61919 3.92238 0
M  V30 41338 O 3911.21 2.88463 4.92083 0
M  V30 41339 O 3910.15 4.55445 3.93515 0
M  V30 41340 H 3913.97 2.82419 1.11683 0
M  V30 41341 H 3911.56 1.41213 0.487764 0
M  V30 41342 H 3913.44 2.3207 3.51741 0
M  V30 41343 H 3912.12 1.24926 2.98622 0
M  V30 41344 H 3911.02 3.26022 1.83469 0
M  V30 41345 H 3912.36 4.27975 2.43102 0
M  V30 41346 N 3914.01 -0.55448 1.47524 0
M  V30 41347 C 3915.23 -1.34169 1.58157 0
M  V30 41348 C 3915.66 -1.86649 0.233157 0
M  V30 41349 O 3915.02 -1.63115 -0.79141 0
M  V30 41350 C 3915.06 -2.48562 2.61246 0
M  V30 41351 O 3914.17 -3.50874 2.16706 0
M  V30 41352 H 3913.51 -0.398412 0.531191 0
M  V30 41353 H 3916.04 -0.669807 1.93325 0
M  V30 41354 H 3916.05 -2.95093 2.81752 0
M  V30 41355 H 3914.72 -2.09721 3.59152 0
M  V30 41356 H 3913.3 -3.10629 2.06311 0
M  V30 41357 N 3915.49 -1.35701 -0.80143 0
M  V30 41358 C 3916.9 -1.15852 -1.09774 0
M  V30 41359 C 3917.1 0.0255299 -2.01484 0
M  V30 41360 O 3916.16 0.694571 -2.42759 0
M  V30 41361 C 3917.47 -2.46388 -1.72376 0
M  V30 41362 C 3919.02 -2.52642 -1.84773 0
M  V30 41363 C 3919.49 -3.83234 -2.50791 0
M  V30 41364 N 3920.99 -3.84513 -2.58271 0
M  V30 41365 C 3921.72 -4.82292 -3.10133 0
M  V30 41366 N 3921.22 -5.9046 -3.62393 0
M  V30 41367 N 3923.01 -4.69723 -3.08733 0
M  V30 41368 H 3915.16 -2.11531 -0.191889 0
M  V30 41369 H 3917.42 -0.936419 -0.147726 0
M  V30 41370 H 3917.13 -3.33236 -1.12456 0
M  V30 41371 H 3917 -2.61315 -2.72019 0
M  V30 41372 H 3919.39 -1.66219 -2.43835 0
M  V30 41373 H 3919.47 -2.41625 -0.839703 0
M  V30 41374 H 3919.12 -4.70057 -1.92377 0
M  V30 41375 H 3919.05 -3.91541 -3.5214 0
M  V30 41376 H 3921.54 -3.0636 -2.21251 0
M  V30 41377 H 3921.85 -6.61056 -4.00281 0
M  V30 41378 H 3920.19 -5.94145 -3.60578 0
M  V30 41379 H 3923.39 -3.84355 -2.67186 0
M  V30 41380 H 3923.56 -5.46087 -3.48845 0
M  V30 41381 N 3916.96 1.02419 -1.19783 0
M  V30 41382 C 3918.19 1.79512 -1.02874 0
M  V30 41383 C 3918.61 1.84015 0.422355 0
M  V30 41384 O 3917.96 1.28761 1.29333 0
M  V30 41385 C 3918.02 3.24341 -1.5964 0
M  V30 41386 O 3917.74 3.20139 -2.9907 0
M  V30 41387 C 3919.24 4.18014 -1.47578 0
M  V30 41388 H 3916.46 0.564776 -0.362311 0
M  V30 41389 H 3919 1.28971 -1.58703 0
M  V30 41390 H 3917.16 3.72056 -1.07948 0
M  V30 41391 H 3917.57 4.10989 -3.25866 0
M  V30 41392 H 3919.04 5.17507 -1.9207 0
M  V30 41393 H 3919.52 4.37119 -0.427044 0
M  V30 41394 H 3920.13 3.76176 -1.98424 0
M  V30 41395 N 3918.44 1.0025 1.21604 0
M  V30 41396 C 3919.69 0.679185 1.89921 0
M  V30 41397 C 3920.01 -0.793215 1.78794 0
M  V30 41398 O 3921.21 -1.22852 2.42115 0
M  V30 41399 C 3919.67 1.16433 3.40546 0
M  V30 41400 C 3919.28 2.66263 3.60288 0
M  V30 41401 C 3921.02 0.915786 4.14504 0
M  V30 41402 C 3918.93 3.08332 5.04664 0
M  V30 41403 H 3917.86 0.250342 0.711228 0
M  V30 41404 H 3920.51 1.21334 1.3766 0
M  V30 41405 H 3918.89 0.558246 3.92045 0
M  V30 41406 H 3920.06 3.323 3.19239 0
M  V30 41407 H 3918.38 2.89105 2.99678 0
M  V30 41408 H 3920.98 1.20568 5.20929 0
M  V30 41409 H 3921.32 -0.147995 4.16037 0
M  V30 41410 H 3921.85 1.48454 3.69061 0
M  V30 41411 H 3918.59 4.13926 5.08277 0
M  V30 41412 H 3918.11 2.47005 5.46579 0
M  V30 41413 H 3919.79 3.00172 5.73154 0
M  V30 41414 N 3919.92 -1.37119 0.776919 0
M  V30 41415 C 3921.34 -1.52913 0.457142 0
M  V30 41416 C 3921.54 -1.73395 -1.02647 0
M  V30 41417 O 3920.59 -1.75828 -1.81221 0
M  V30 41418 C 3921.91 -2.72251 1.27671 0
M  V30 41419 C 3923.45 -2.86115 1.26914 0
M  V30 41420 C 3923.93 -4.08442 2.07217 0
M  V30 41421 N 3925.42 -4.15565 2.04598 0
M  V30 41422 C 3926.16 -5.09264 2.63511 0
M  V30 41423 N 3925.65 -6.08487 3.31233 0
M  V30 41424 N 3927.44 -5.01786 2.53313 0
M  V30 41425 H 3919.6 -1.22077 1.73813 0
M  V30 41426 H 3921.86 -0.59484 0.738153 0
M  V30 41427 H 3921.56 -2.63597 2.32829 0
M  V30 41428 H 3921.44 -3.66073 0.909428 0
M  V30 41429 H 3923.83 -2.94237 0.225528 0
M  V30 41430 H 3923.91 -1.93237 1.6761 0
M  V30 41431 H 3923.55 -4.01082 3.11602 0
M  V30 41432 H 3923.48 -5.00444 1.639 0
M  V30 41433 H 3925.97 -3.44515 1.55299 0
M  V30 41434 H 3926.28 -6.76522 3.73547 0
M  V30 41435 H 3924.63 -6.0875 3.35333 0
M  V30 41436 H 3927.82 -4.23215 2.00017 0
M  V30 41437 H 3927.99 -5.74623 2.9952 0
M  V30 41438 N 3921.4 -0.527886 -1.48496 0
M  V30 41439 C 3922.65 0.00698632 -2.02799 0
M  V30 41440 C 3922.98 1.34132 -1.40436 0
M  V30 41441 O 3922.25 1.8658 -0.549373 0
M  V30 41442 C 3922.54 0.131209 -3.59861 0
M  V30 41443 C 3922.39 -1.22815 -4.32708 0
M  V30 41444 C 3923.71 0.859004 -4.31635 0
M  V30 41445 H 3920.83 0.00106492 -0.736999 0
M  V30 41446 H 3923.47 -0.684509 -1.77241 0
M  V30 41447 H 3921.62 0.720149 -3.81767 0
M  V30 41448 H 3923.29 -1.85804 -4.22226 0
M  V30 41449 H 3921.53 -1.81057 -3.94209 0
M  V30 41450 H 3922.21 -1.09425 -5.41045 0
M  V30 41451 H 3924.68 0.35925 -4.14546 0
M  V30 41452 H 3923.56 0.914816 -5.41223 0
M  V30 41453 H 3923.82 1.90882 -3.98769 0
M  V30 41454 N 3922.88 1.55391 -0.26292 0
M  V30 41455 C 3923.81 2.25016 0.623692 0
M  V30 41456 C 3924.79 1.236 1.16863 0
M  V30 41457 O 3925.97 1.52292 1.20502 0
M  V30 41458 C 3923.1 2.96193 1.81348 0
M  V30 41459 C 3922.06 4.04434 1.40062 0
M  V30 41460 C 3921.38 4.6312 2.67253 0
M  V30 41461 C 3922.68 5.19291 0.559813 0
M  V30 41462 H 3924.38 2.99369 0.043078 0
M  V30 41463 H 3921.92 1.43987 0.019279 0
M  V30 41464 H 3923.88 3.43607 2.43952 0
M  V30 41465 H 3922.6 2.19355 2.41973 0
M  V30 41466 H 3921.26 3.57813 0.797842 0
M  V30 41467 H 3920.91 3.82964 3.2611 0
M  V30 41468 H 3920.61 5.36198 2.40345 0
M  V30 41469 H 3922.13 5.13276 3.30726 0
M  V30 41470 H 3923.55 5.62832 1.09054 0
M  V30 41471 H 3921.94 5.98856 0.386129 0
M  V30 41472 H 3923.01 4.8304 -0.424284 0
M  V30 41473 N 3924.36 -0.00997961 1.57597 0
M  V30 41474 C 3925.3 -1.00459 2.0779 0
M  V30 41475 C 3926.27 -1.34753 0.971124 0
M  V30 41476 O 3927.46 -1.44762 1.24292 0
M  V30 41477 C 3924.6 -2.2945 2.57773 0
M  V30 41478 C 3923.71 -2.01147 3.82314 0
M  V30 41479 C 3922.85 -3.24146 4.20836 0
M  V30 41480 C 3921.88 -2.91484 5.38241 0
M  V30 41481 N 3921.02 -4.06991 5.72104 0
M  V30 41482 H 3925.86 -0.569623 2.92505 0
M  V30 41483 H 3923.4 -0.26962 1.44608 0
M  V30 41484 H 3925.36 -3.04844 2.84826 0
M  V30 41485 H 3923.99 -2.70634 1.75946 0
M  V30 41486 H 3923.04 -1.16165 3.62229 0
M  V30 41487 H 3924.35 -1.73066 4.67814 0
M  V30 41488 H 3923.5 -4.07894 4.49119 0
M  V30 41489 H 3922.24 -3.55357 3.34025 0
M  V30 41490 H 3921.25 -2.06142 5.09692 0
M  V30 41491 H 3922.47 -2.61532 6.2672 0
M  V30 41492 H 3920.42 -4.38117 4.88251 0
M  V30 41493 H 3920.34 -3.824 6.52155 0
M  V30 41494 H 3921.6 -4.91556 6.04973 0
M  V30 41495 N 3925.83 -1.55046 -0.282578 0
M  V30 41496 C 3926.77 -1.82179 -1.37426 0
M  V30 41497 C 3927.74 -0.674165 -1.47965 0
M  V30 41498 O 3928.93 -0.916132 -1.6474 0
M  V30 41499 C 3926.06 -1.97491 -2.75164 0
M  V30 41500 C 3925.1 -3.20004 -2.81957 0
M  V30 41501 S 3925.93 -4.7761 -2.42175 0
M  V30 41502 C 3927.09 -4.95882 -3.81906 0
M  V30 41503 H 3927.32 -2.7449 -1.14205 0
M  V30 41504 H 3924.86 -1.46694 -0.481697 0
M  V30 41505 H 3926.81 -2.06997 -3.54489 0
M  V30 41506 H 3925.48 -1.06086 -2.95643 0
M  V30 41507 H 3924.67 -3.27575 -3.83028 0
M  V30 41508 H 3924.27 -3.09039 -2.10644 0
M  V30 41509 H 3926.56 -4.81036 -4.77086 0
M  V30 41510 H 3927.51 -5.97949 -3.79293 0
M  V30 41511 H 3927.91 -4.23919 -3.72764 0
M  V30 41512 N 3927.31 0.546649 -1.47816 0
M  V30 41513 C 3928.56 1.30526 -1.55212 0
M  V30 41514 C 3928.89 1.92971 -0.218162 0
M  V30 41515 O 3928.17 1.78425 0.774266 0
M  V30 41516 C 3928.45 2.40735 -2.67804 0
M  V30 41517 C 3928.3 1.8309 -4.1085 0
M  V30 41518 C 3929.62 3.42603 -2.76244 0
M  V30 41519 H 3926.74 0.473219 -0.565007 0
M  V30 41520 H 3929.38 0.610682 -1.79919 0
M  V30 41521 H 3927.53 2.99981 -2.46868 0
M  V30 41522 H 3929.2 1.28023 -4.43179 0
M  V30 41523 H 3927.45 1.13708 -4.18632 0
M  V30 41524 H 3928.12 2.6281 -4.85423 0
M  V30 41525 H 3930.59 2.9329 -2.95161 0
M  V30 41526 H 3929.47 4.17131 -3.56782 0
M  V30 41527 H 3929.73 4.02116 -1.83726 0
M  V30 41528 N 3928.79 1.36124 0.794222 0
M  V30 41529 C 3929.7 1.322 1.93805 0
M  V30 41530 C 3930.72 0.22493 1.7254 0
M  V30 41531 O 3931.89 0.456466 1.96159 0
M  V30 41532 C 3928.96 1.10584 3.28591 0
M  V30 41533 C 3928.02 2.29721 3.62666 0
M  V30 41534 C 3927.25 2.09126 4.91021 0
M  V30 41535 O 3927.47 1.06399 5.60389 0
M  V30 41536 O 3926.41 2.96788 5.23641 0
M  V30 41537 H 3930.23 2.28491 2.00064 0
M  V30 41538 H 3927.82 1.16622 0.933787 0
M  V30 41539 H 3929.7 1.00427 4.09258 0
M  V30 41540 H 3928.38 0.173527 3.23235 0
M  V30 41541 H 3927.28 2.45445 2.82325 0
M  V30 41542 H 3928.62 3.21442 3.72741 0
M  V30 41543 N 3930.27 -1.01782 1.20325 0
M  V30 41544 C 3931.68 -1.5681 1.01329 0
M  V30 41545 C 3932.03 -1.91415 -0.430676 0
M  V30 41546 O 3931.15 -1.72101 -1.31188 0
M  V30 41547 C 3931.75 -2.84927 1.83309 0
M  V30 41548 C 3930.31 -3.36487 1.68682 0
M  V30 41549 C 3929.46 -2.09807 1.81318 0
M  V30 41550 H 3932.41 -0.841791 1.34535 0
M  V30 41551 H 3932.43 -3.56284 1.33573 0
M  V30 41552 H 3931.94 -2.59709 2.88397 0
M  V30 41553 H 3930.04 -3.66667 0.662259 0
M  V30 41554 H 3930.15 -4.08772 2.49884 0
M  V30 41555 H 3928.52 -2.22202 1.24492 0
M  V30 41556 H 3929.3 -1.87017 2.87888 0
M  V30 41557 N 3931.75 -1.00894 -1.21071 0
M  V30 41558 C 3932.99 -0.704606 -1.90806 0
M  V30 41559 C 3933.35 0.756773 -1.76892 0
M  V30 41560 O 3932.64 1.5419 -1.13736 0
M  V30 41561 C 3932.83 -1.06556 -3.41146 0
M  V30 41562 C 3932.66 -2.56048 -3.69688 0
M  V30 41563 C 3931.43 -3.22711 -3.88826 0
M  V30 41564 C 3933.63 -3.54217 -3.72873 0
M  V30 41565 N 3931.61 -4.61513 -4.0482 0
M  V30 41566 C 3932.98 -4.78547 -3.94199 0
M  V30 41567 C 3935.04 -3.48298 -3.55799 0
M  V30 41568 C 3933.74 -5.97675 -4.00221 0
M  V30 41569 C 3935.77 -4.6682 -3.63088 0
M  V30 41570 C 3935.13 -5.89956 -3.84879 0
M  V30 41571 H 3931.23 -0.309377 -0.718199 0
M  V30 41572 H 3933.81 -1.29221 -1.45637 0
M  V30 41573 H 3931.98 -0.506371 -3.85085 0
M  V30 41574 H 3933.72 -0.715555 -3.98324 0
M  V30 41575 H 3930.47 -2.73149 -3.86893 0
M  V30 41576 H 3930.89 -5.33556 -4.1671 0
M  V30 41577 H 3935.54 -2.54101 -3.37924 0
M  V30 41578 H 3933.25 -6.92261 -4.16894 0
M  V30 41579 H 3936.84 -4.63847 -3.51194 0
M  V30 41580 H 3935.72 -6.80134 -3.90368 0
M  V30 41581 N 3933.22 1.36705 -0.78418 0
M  V30 41582 C 3934.15 2.327 -0.193122 0
M  V30 41583 C 3935.14 1.56393 0.668972 0
M  V30 41584 O 3936.32 1.84572 0.603875 0
M  V30 41585 C 3933.45 3.40637 0.677032 0
M  V30 41586 C 3932.4 4.27916 -0.084747 0
M  V30 41587 C 3931.73 5.26974 0.905661 0
M  V30 41588 C 3933.03 5.06601 -1.27094 0
M  V30 41589 H 3934.72 2.8238 -0.995078 0
M  V30 41590 H 3932.27 1.35766 -0.479953 0
M  V30 41591 H 3934.22 4.06778 1.10042 0
M  V30 41592 H 3932.95 2.89512 1.51164 0
M  V30 41593 H 3931.61 3.63323 -0.489056 0
M  V30 41594 H 3931.25 4.72124 1.73516 0
M  V30 41595 H 3930.95 5.86234 0.400421 0
M  V30 41596 H 3932.48 5.9599 1.32773 0
M  V30 41597 H 3933.89 5.65812 -0.923569 0
M  V30 41598 H 3932.29 5.75247 -1.70911 0
M  V30 41599 H 3933.36 4.38548 -2.0689 0
M  V30 41600 N 3934.7 0.535753 1.48214 0
M  V30 41601 C 3935.65 -0.223851 2.29712 0
M  V30 41602 C 3936.62 -0.928447 1.37728 0
M  V30 41603 O 3937.8 -0.928346 1.66692 0
M  V30 41604 C 3934.94 -1.26125 3.21227 0
M  V30 41605 C 3934.06 -0.56491 4.28291 0
M  V30 41606 C 3933.19 -1.58574 5.06979 0
M  V30 41607 C 3932.23 -0.873181 6.0584 0
M  V30 41608 N 3931.37 -1.83982 6.77565 0
M  V30 41609 H 3936.21 0.477293 2.94153 0
M  V30 41610 H 3933.75 0.247212 1.45008 0
M  V30 41611 H 3935.7 -1.87508 3.72689 0
M  V30 41612 H 3934.33 -1.9307 2.58696 0
M  V30 41613 H 3933.39 0.162983 3.80051 0
M  V30 41614 H 3934.7 -0.00569464 4.988 0
M  V30 41615 H 3933.85 -2.27369 5.62484 0
M  V30 41616 H 3932.59 -2.17885 4.36322 0
M  V30 41617 H 3931.6 -0.171189 5.49533 0
M  V30 41618 H 3932.82 -0.286099 6.78497 0
M  V30 41619 H 3930.77 -2.42191 6.09655 0
M  V30 41620 H 3930.68 -1.3322 7.4417 0
M  V30 41621 H 3931.95 -2.51958 7.37657 0
M  V30 41622 N 3936.18 -1.5525 0.271158 0
M  V30 41623 C 3937.13 -2.23791 -0.634047 0
M  V30 41624 C 3938.12 -1.23359 -1.16098 0
M  V30 41625 O 3939.33 -1.41302 -1.11507 0
M  V30 41626 H 3935.7 -0.718171 -0.223011 0
M  V30 41627 H 3937.67 -2.98382 -0.033078 0
M  V30 41628 C 3936.42 -2.96951 -1.80874 0
M  V30 41629 H 3935.75 -3.74018 -1.41245 0
M  V30 41630 H 3937.19 -3.48237 -2.41882 0
M  V30 41631 C 3935.65 -2.02197 -2.69478 0
M  V30 41632 O 3936.18 -1.57062 -3.69722 0
M  V30 41633 N 3934.38 -1.6878 -2.36562 0
M  V30 41634 H 3933.93 -2.0568 -1.55092 0
M  V30 41635 H 3933.89 -1.05651 -2.96117 0
M  V30 41636 N 3937.66 0.00162173 -1.576 0
M  V30 41637 C 3938.61 1.01179 -2.09441 0
M  V30 41638 C 3939.6 1.35696 -1.01405 0
M  V30 41639 O 3940.81 1.34279 -1.19871 0
M  V30 41640 H 3937.18 0.343938 -0.668738 0
M  V30 41641 H 3939.15 0.548982 -2.93307 0
M  V30 41642 C 3937.9 2.29537 -2.61167 0
M  V30 41643 H 3937.22 2.03844 -3.43929 0
M  V30 41644 H 3938.66 2.985 -3.0112 0
M  V30 41645 C 3937.12 3.00405 -1.52507 0
M  V30 41646 O 3937.65 3.91325 -0.907051 0
M  V30 41647 N 3935.86 2.62203 -1.25292 0
M  V30 41648 H 3935.41 1.88348 -1.75735 0
M  V30 41649 H 3935.36 3.09933 -0.528089 0
M  V30 41650 N 3939.14 1.55194 0.274352 0
M  V30 41651 C 3940.07 1.8439 1.36136 0
M  V30 41652 C 3941.08 0.72832 1.456 0
M  V30 41653 O 3942.27 1.00615 1.47441 0
M  V30 41654 C 3939.37 1.99065 2.74274 0
M  V30 41655 C 3938.54 3.29711 2.87418 0
M  V30 41656 C 3937.6 3.34468 4.06223 0
M  V30 41657 O 3936.63 4.07852 3.97046 0
M  V30 41658 N 3937.83 2.61773 5.18126 0
M  V30 41659 H 3940.6 2.78213 1.11436 0
M  V30 41660 H 3938.16 1.55095 0.464465 0
M  V30 41661 H 3940.15 1.99619 3.52043 0
M  V30 41662 H 3938.72 1.12115 2.91803 0
M  V30 41663 H 3937.94 3.41707 1.96545 0
M  V30 41664 H 3939.23 4.15876 2.93129 0
M  V30 41665 H 3938.62 2.01833 5.28469 0
M  V30 41666 H 3937.18 2.68052 5.94131 0
M  V30 41667 N 3940.61 -0.538802 1.48104 0
M  V30 41668 C 3941.86 -1.29509 1.55671 0
M  V30 41669 C 3942.19 -1.93173 0.226814 0
M  V30 41670 O 3941.44 -1.79393 -0.782088 0
M  V30 41671 C 3941.74 -2.41232 2.63708 0
M  V30 41672 C 3941.41 -1.9528 4.06419 0
M  V30 41673 C 3940.07 -1.82464 4.45264 0
M  V30 41674 C 3942.42 -1.60443 4.9589 0
M  V30 41675 C 3939.75 -1.33135 5.71395 0
M  V30 41676 C 3942.1 -1.1258 6.22502 0
M  V30 41677 C 3940.77 -0.983745 6.60211 0
M  V30 41678 H 3940.04 -0.473909 0.569642 0
M  V30 41679 H 3942.68 -0.602243 1.81784 0
M  V30 41680 H 3940.99 -3.16151 2.31422 0
M  V30 41681 H 3942.69 -2.99381 2.66781 0
M  V30 41682 H 3939.28 -2.06202 3.75737 0
M  V30 41683 H 3943.46 -1.69208 4.66564 0
M  V30 41684 H 3938.72 -1.20817 5.99344 0
M  V30 41685 H 3942.89 -0.846924 6.91231 0
M  V30 41686 H 3940.52 -0.5993 7.57834 0
M  V30 41687 N 3942.09 -1.36544 -0.786992 0
M  V30 41688 C 3943.33 -1.32292 -1.55814 0
M  V30 41689 C 3943.7 0.0960822 -1.91759 0
M  V30 41690 O 3944.9 0.263173 -2.67509 0
M  V30 41691 C 3943.17 -2.22203 -2.7993 0
M  V30 41692 S 3944.73 -2.35658 -3.7015 0
M  V30 41693 H 3941.55 -0.469857 -0.533625 0
M  V30 41694 H 3944.15 -1.7214 -0.926725 0
M  V30 41695 H 3942.85 -3.24248 -2.51578 0
M  V30 41696 H 3942.38 -1.83384 -3.48043 0
M  V30 41697 H 3944.4 -1.55587 -4.71176 0
M  V30 41698 N 3943.57 1.01143 -1.20863 0
M  V30 41699 C 3944.82 1.74233 -1.01617 0
M  V30 41700 C 3945.13 1.90314 0.45165 0
M  V30 41701 O 3946.34 2.60548 0.763362 0
M  V30 41702 C 3944.79 3.13397 -1.76948 0
M  V30 41703 C 3944.4 3.0531 -3.27857 0
M  V30 41704 C 3946.15 3.9066 -1.66087 0
M  V30 41705 C 3944.05 4.39514 -3.95704 0
M  V30 41706 H 3942.98 0.653212 -0.376604 0
M  V30 41707 H 3945.63 1.13058 -1.44535 0
M  V30 41708 H 3944.02 3.75144 -1.26819 0
M  V30 41709 H 3945.19 2.52839 -3.85239 0
M  V30 41710 H 3943.51 2.41537 -3.39188 0
M  V30 41711 H 3946.1 4.89959 -2.14113 0
M  V30 41712 H 3946.45 4.11688 -0.617964 0
M  V30 41713 H 3946.98 3.35552 -2.13657 0
M  V30 41714 H 3943.72 4.23689 -5.00168 0
M  V30 41715 H 3943.24 4.91971 -3.4311 0
M  V30 41716 H 3944.92 5.08339 -4.00251 0
M  V30 41717 N 3945.05 1.01535 1.20534 0
M  V30 41718 C 3946 0.584525 2.23275 0
M  V30 41719 C 3946.97 -0.394745 1.61341 0
M  V30 41720 O 3948.15 -0.294465 1.88514 0
M  V30 41721 C 3945.29 -0.0722968 3.45024 0
M  V30 41722 C 3944.4 0.951388 4.21394 0
M  V30 41723 C 3943.54 0.265749 5.30535 0
M  V30 41724 C 3942.58 1.27628 5.98646 0
M  V30 41725 N 3941.71 0.617393 6.9938 0
M  V30 41726 H 3946.55 1.46529 2.59487 0
M  V30 41727 H 3944.09 0.733525 1.27506 0
M  V30 41728 H 3946.05 -0.47023 4.14542 0
M  V30 41729 H 3944.68 -0.916714 3.0951 0
M  V30 41730 H 3943.73 1.46749 3.50954 0
M  V30 41731 H 3945.04 1.71997 4.68208 0
M  V30 41732 H 3944.2 -0.18775 6.06409 0
M  V30 41733 H 3942.94 -0.535152 4.84755 0
M  V30 41734 H 3941.94 1.74018 5.21534 0
M  V30 41735 H 3943.17 2.07844 6.46512 0
M  V30 41736 H 3941.11 -0.163662 6.55796 0
M  V30 41737 H 3941.03 1.32407 7.44315 0
M  V30 41738 H 3942.3 0.187443 7.79275 0
M  V30 41739 N 3946.53 -1.36288 0.791419 0
M  V30 41740 C 3947.77 -1.99483 0.365277 0
M  V30 41741 C 3948.11 -1.62665 -1.06084 0
M  V30 41742 O 3947.38 -0.882427 -1.73331 0
M  V30 41743 C 3947.66 -3.56158 0.531379 0
M  V30 41744 C 3947.52 -4.02823 2.00133 0
M  V30 41745 C 3948.84 -4.40069 -0.0523475 0
M  V30 41746 H 3945.95 -0.72468 0.134196 0
M  V30 41747 H 3948.6 -1.6167 0.998131 0
M  V30 41748 H 3946.75 -3.88499 -0.00736101 0
M  V30 41749 H 3948.42 -3.8096 2.60129 0
M  V30 41750 H 3946.66 -3.5429 2.50322 0
M  V30 41751 H 3947.33 -5.11778 2.06851 0
M  V30 41752 H 3949.81 -4.14099 0.407562 0
M  V30 41753 H 3948.68 -5.4882 0.0938863 0
M  V30 41754 H 3948.95 -4.27025 -1.14465 0
M  V30 41755 N 3948.01 -0.543606 -1.47928 0
M  V30 41756 C 3948.94 0.200187 -2.3264 0
M  V30 41757 C 3949.92 0.921975 -1.42946 0
M  V30 41758 O 3951.1 0.905099 -1.71819 0
M  V30 41759 C 3948.23 1.23916 -3.24441 0
M  V30 41760 C 3947.19 0.634679 -4.23268 0
M  V30 41761 C 3946.51 1.7773 -5.04298 0
M  V30 41762 C 3947.81 -0.402615 -5.20746 0
M  V30 41763 H 3949.51 -0.507009 -2.95076 0
M  V30 41764 H 3947.05 -0.245271 -1.41896 0
M  V30 41765 H 3949 1.76756 -3.82538 0
M  V30 41766 H 3947.73 1.97612 -2.60033 0
M  V30 41767 H 3946.39 0.127692 -3.66378 0
M  V30 41768 H 3946.04 2.50297 -4.36303 0
M  V30 41769 H 3945.74 1.37869 -5.71197 0
M  V30 41770 H 3947.26 2.30922 -5.6525 0
M  V30 41771 H 3948.67 0.0392042 -5.73287 0
M  V30 41772 H 3947.07 -0.719356 -5.95773 0
M  V30 41773 H 3948.14 -1.30348 -4.67052 0
M  V30 41774 N 3949.48 1.55104 -0.279387 0
M  V30 41775 C 3950.43 2.24125 0.62217 0
M  V30 41776 C 3951.43 1.23973 1.15443 0
M  V30 41777 O 3952.63 1.41891 1.10756 0
M  V30 41778 H 3949.01 0.719344 0.219199 0
M  V30 41779 H 3950.98 2.98395 0.0172536 0
M  V30 41780 C 3949.73 2.97906 1.79296 0
M  V30 41781 H 3949.05 3.74762 1.3926 0
M  V30 41782 H 3950.49 3.49515 2.40032 0
M  V30 41783 C 3948.95 2.03623 2.68401 0
M  V30 41784 O 3949.48 1.59021 3.68884 0
M  V30 41785 N 3947.68 1.70033 2.35663 0
M  V30 41786 H 3947.23 2.06499 1.53999 0
M  V30 41787 H 3947.19 1.0722 2.95552 0
M  V30 41788 N 3950.96 0.0067362 1.57599 0
M  V30 41789 C 3952.37 -0.535171 1.78865 0
M  V30 41790 C 3952.72 -1.73567 0.914823 0
M  V30 41791 O 3951.85 -2.16072 0.119113 0
M  V30 41792 C 3952.44 -0.977652 3.24388 0
M  V30 41793 C 3951 -1.46482 3.46728 0
M  V30 41794 C 3950.15 -0.419123 2.74114 0
M  V30 41795 H 3953.1 0.23288 1.56982 0
M  V30 41796 H 3953.12 -1.8433 3.3287 0
M  V30 41797 H 3952.63 -0.10371 3.87961 0
M  V30 41798 H 3950.73 -2.35943 2.88377 0
M  V30 41799 H 3950.85 -1.48764 4.55419 0
M  V30 41800 H 3949.21 -0.882269 2.38931 0
M  V30 41801 H 3949.99 0.445968 3.40391 0
M  V30 41802 N 3952.44 -1.55337 -0.266118 0
M  V30 41803 C 3953.67 -1.80039 -1.01338 0
M  V30 41804 C 3954.08 -0.5774 -1.80174 0
M  V30 41805 O 3953.42 0.463149 -1.77766 0
M  V30 41806 C 3953.48 -2.97786 -2.01404 0
M  V30 41807 C 3953.15 -4.34561 -1.41442 0
M  V30 41808 C 3954.14 -5.13287 -0.826599 0
M  V30 41809 C 3951.83 -4.8123 -1.43956 0
M  V30 41810 C 3953.82 -6.3682 -0.271892 0
M  V30 41811 C 3951.51 -6.04716 -0.880994 0
M  V30 41812 C 3952.51 -6.82349 -0.298167 0
M  V30 41813 O 3952.2 -8.03505 0.251825 0
M  V30 41814 H 3951.93 -0.603412 -0.304746 0
M  V30 41815 H 3954.48 -2.03195 -0.30018 0
M  V30 41816 H 3952.71 -2.70339 -2.76503 0
M  V30 41817 H 3954.4 -3.0975 -2.62316 0
M  V30 41818 H 3955.17 -4.78359 -0.799826 0
M  V30 41819 H 3951.05 -4.20808 -1.88259 0
M  V30 41820 H 3954.59 -6.97358 0.183661 0
M  V30 41821 H 3950.49 -6.39124 -0.905029 0
M  V30 41822 H 3951.25 -8.18377 0.141844 0
M  V30 41823 N 3953.92 0.53094 -1.48387 0
M  V30 41824 C 3954.85 1.65221 -1.57407 0
M  V30 41825 C 3955.83 1.56959 -0.424583 0
M  V30 41826 O 3957.01 1.77445 -0.636052 0
M  V30 41827 C 3954.14 3.03616 -1.50117 0
M  V30 41828 C 3953.19 3.3024 -2.69896 0
M  V30 41829 S 3954.02 3.16617 -4.31873 0
M  V30 41830 C 3955.17 4.57459 -4.27179 0
M  V30 41831 H 3955.41 1.5732 -2.52265 0
M  V30 41832 H 3952.94 0.713827 -1.36908 0
M  V30 41833 H 3954.9 3.83431 -1.46598 0
M  V30 41834 H 3953.56 3.08959 -0.565988 0
M  V30 41835 H 3952.75 4.31197 -2.60931 0
M  V30 41836 H 3952.35 2.58094 -2.70673 0
M  V30 41837 H 3954.65 5.48958 -3.97053 0
M  V30 41838 H 3955.59 4.71478 -5.28312 0
M  V30 41839 H 3956 4.36737 -3.57661 0
M  V30 41840 N 3955.4 1.36959 0.779739 0
M  V30 41841 C 3956.81 1.28383 1.35553 0
M  V30 41842 C 3957.16 -0.0721077 1.96067 0
M  V30 41843 O 3956.28 -0.973791 1.93252 0
M  V30 41844 C 3956.88 2.32481 2.4645 0
M  V30 41845 C 3955.44 2.27564 2.99819 0
M  V30 41846 C 3954.58 2.1674 1.72971 0
M  V30 41847 H 3957.53 1.47697 0.58062 0
M  V30 41848 H 3957.56 1.96685 3.25723 0
M  V30 41849 H 3957.07 3.31157 2.02377 0
M  V30 41850 H 3955.17 1.32386 3.48288 0
M  V30 41851 H 3955.28 3.20652 3.55976 0
M  V30 41852 H 3953.65 1.63153 1.95584 0
M  V30 41853 H 3954.43 3.17318 1.31013 0
M  V30 41854 N 3956.87 -1.00501 1.21398 0
M  V30 41855 C 3958.1 -1.77853 1.05717 0
M  V30 41856 C 3958.52 -1.84664 -0.393026 0
M  V30 41857 O 3957.87 -1.30802 -1.27268 0
M  V30 41858 C 3957.92 -3.21761 1.6478 0
M  V30 41859 O 3957.65 -3.1534 3.04125 0
M  V30 41860 C 3959.15 -4.15613 1.5421 0
M  V30 41861 H 3956.37 -0.55894 0.37125 0
M  V30 41862 H 3958.91 -1.2643 1.60735 0
M  V30 41863 H 3957.07 -3.70292 1.13854 0
M  V30 41864 H 3957.48 -4.05752 3.32363 0
M  V30 41865 H 3958.95 -5.14386 2.00278 0
M  V30 41866 H 3959.43 -4.36384 0.496532 0
M  V30 41867 H 3960.04 -3.72971 2.04383 0
M  V30 41868 N 3958.35 -1.02172 -1.19994 0
M  V30 41869 C 3959.6 -0.715081 -1.89775 0
M  V30 41870 C 3959.93 0.753831 -1.78972 0
M  V30 41871 O 3959.21 1.54821 -1.17732 0
M  V30 41872 C 3959.49 -1.15785 -3.40978 0
M  V30 41873 C 3959.34 -2.68746 -3.60688 0
M  V30 41874 C 3960.66 -0.733084 -4.33951 0
M  V30 41875 H 3957.78 -0.261248 -0.689143 0
M  V30 41876 H 3960.42 -1.27038 -1.41285 0
M  V30 41877 H 3958.57 -0.685407 -3.82406 0
M  V30 41878 H 3960.24 -3.23882 -3.28479 0
M  V30 41879 H 3958.49 -3.09477 -3.03984 0
M  V30 41880 H 3959.16 -2.94781 -4.66699 0
M  V30 41881 H 3961.63 -1.13932 -4.00198 0
M  V30 41882 H 3960.51 -1.07087 -5.38353 0
M  V30 41883 H 3960.77 0.36497 -4.40591 0
M  V30 41884 N 3959.83 1.35866 -0.798635 0
M  V30 41885 C 3961.08 1.98243 -0.37183 0
M  V30 41886 C 3961.39 1.64083 1.06471 0
M  V30 41887 O 3962.6 2.19764 1.59424 0
M  V30 41888 C 3961.05 3.54626 -0.613883 0
M  V30 41889 C 3960.66 3.97702 -2.06244 0
M  V30 41890 C 3962.41 4.23751 -0.252041 0
M  V30 41891 C 3960.31 5.46899 -2.25067 0
M  V30 41892 H 3959.24 0.741763 -0.135291 0
M  V30 41893 H 3961.89 1.5504 -0.981571 0
M  V30 41894 H 3960.28 3.95945 0.0656992 0
M  V30 41895 H 3961.45 3.67557 -2.77918 0
M  V30 41896 H 3959.76 3.41442 -2.3834 0
M  V30 41897 H 3962.36 5.33413 -0.37083 0
M  V30 41898 H 3962.7 4.08523 0.800897 0
M  V30 41899 H 3963.24 3.87826 -0.885223 0
M  V30 41900 H 3959.98 5.67086 -3.28777 0
M  V30 41901 H 3959.5 5.78641 -1.57908 0
M  V30 41902 H 3961.18 6.13252 -2.0623 0
M  V30 41903 N 3961.31 0.551443 1.47638 0
M  V30 41904 C 3962.22 -0.202758 2.33722 0
M  V30 41905 C 3963.23 -0.917673 1.47834 0
M  V30 41906 O 3964.41 -0.887853 1.80774 0
M  V30 41907 C 3961.47 -1.22307 3.2441 0
M  V30 41908 C 3960.54 -0.516205 4.26185 0
M  V30 41909 C 3959.77 -1.48791 5.1254 0
M  V30 41910 O 3959.99 -2.7223 5.01246 0
M  V30 41911 O 3958.93 -1.01555 5.93271 0
M  V30 41912 H 3962.75 0.503222 2.99502 0
M  V30 41913 H 3960.34 0.312118 1.46103 0
M  V30 41914 H 3962.22 -1.81218 3.80444 0
M  V30 41915 H 3960.89 -1.91107 2.61265 0
M  V30 41916 H 3959.8 0.113951 3.73926 0
M  V30 41917 H 3961.13 0.130245 4.92028 0
M  V30 41918 N 3962.79 -1.54953 0.287609 0
M  V30 41919 C 3963.74 -2.19711 -0.6092 0
M  V30 41920 C 3964.72 -1.16573 -1.10903 0
M  V30 41921 O 3965.91 -1.42342 -1.05203 0
M  V30 41922 C 3963.04 -2.93123 -1.787 0
M  V30 41923 C 3962.13 -4.03563 -1.30376 0
M  V30 41924 N 3962.52 -5.02935 -0.537553 0
M  V30 41925 C 3960.82 -4.16861 -1.58565 0
M  V30 41926 C 3961.52 -5.81017 -0.281891 0
M  V30 41927 N 3960.49 -5.36788 -0.857889 0
M  V30 41928 H 3964.3 -2.93896 -0.0161021 0
M  V30 41929 H 3961.81 -1.62141 0.0917416 0
M  V30 41930 H 3963.81 -3.37974 -2.44089 0
M  V30 41931 H 3962.47 -2.20452 -2.38393 0
M  V30 41932 H 3963.48 -5.17574 -0.183706 0
M  V30 41933 H 3960.15 -3.55387 -2.19104 0
M  V30 41934 H 3961.54 -6.71076 0.332597 0
M  V30 41935 N 3964.26 -0.0150939 -1.57593 0
M  V30 41936 C 3965.19 0.970044 -2.12397 0
M  V30 41937 C 3966.18 1.34859 -1.03668 0
M  V30 41938 O 3967.36 1.42968 -1.3143 0
M  V30 41939 C 3964.49 2.25702 -2.63962 0
M  V30 41940 C 3963.44 2.01965 -3.77352 0
M  V30 41941 C 3962.77 3.36807 -4.15289 0
M  V30 41942 C 3964.07 1.37008 -5.0401 0
M  V30 41943 H 3965.76 0.513679 -2.94961 0
M  V30 41944 H 3963.31 0.245641 -1.41889 0
M  V30 41945 H 3965.26 2.94988 -3.00932 0
M  V30 41946 H 3963.99 2.73479 -1.7854 0
M  V30 41947 H 3962.65 1.35101 -3.40798 0
M  V30 41948 H 3962.29 3.82316 -3.26869 0
M  V30 41949 H 3961.99 3.21735 -4.91691 0
M  V30 41950 H 3963.52 4.07383 -4.54831 0
M  V30 41951 H 3964.93 1.96272 -5.38656 0
M  V30 41952 H 3963.33 1.32378 -5.85317 0
M  V30 41953 H 3964.4 0.341196 -4.83698 0
M  V30 41954 N 3965.74 1.55476 0.257876 0
M  V30 41955 C 3966.65 1.92509 1.3408 0
M  V30 41956 C 3967.67 0.82415 1.53244 0
M  V30 41957 O 3968.84 1.12457 1.67079 0
M  V30 41958 C 3965.91 2.20267 2.67737 0
M  V30 41959 C 3964.97 3.43732 2.5719 0
M  V30 41960 C 3964.2 3.70157 3.84473 0
M  V30 41961 O 3964.43 2.98836 4.85853 0
M  V30 41962 O 3963.36 4.63689 3.83766 0
M  V30 41963 H 3967.19 2.84725 1.05667 0
M  V30 41964 H 3964.77 1.42216 0.457701 0
M  V30 41965 H 3966.65 2.39479 3.46739 0
M  V30 41966 H 3965.33 1.31232 2.95905 0
M  V30 41967 H 3964.24 3.2984 1.76512 0
M  V30 41968 H 3965.57 4.33035 2.33969 0
M  V30 41969 N 3967.22 -0.523064 1.48667 0
M  V30 41970 C 3968.64 -0.852244 1.34941 0
M  V30 41971 C 3968.84 -1.98154 0.365673 0
M  V30 41972 O 3967.89 -2.5162 -0.210627 0
M  V30 41973 C 3969.21 -1.21324 2.75138 0
M  V30 41974 C 3970.75 -1.32273 2.83677 0
M  V30 41975 C 3971.23 -1.71713 4.24592 0
M  V30 41976 N 3972.72 -1.78803 4.27298 0
M  V30 41977 C 3973.45 -2.10719 5.33278 0
M  V30 41978 N 3972.95 -2.41012 6.49527 0
M  V30 41979 N 3974.74 -2.11784 5.20676 0
M  V30 41980 H 3966.89 0.221956 2.11237 0
M  V30 41981 H 3969.16 0.0366691 0.947291 0
M  V30 41982 H 3968.86 -0.457004 3.48718 0
M  V30 41983 H 3968.74 -2.16181 3.09104 0
M  V30 41984 H 3971.12 -2.06973 2.10348 0
M  V30 41985 H 3971.21 -0.355203 2.53322 0
M  V30 41986 H 3970.85 -0.975717 4.9844 0
M  V30 41987 H 3970.78 -2.69528 4.52396 0
M  V30 41988 H 3973.27 -1.57642 3.43449 0
M  V30 41989 H 3973.58 -2.6449 7.2613 0
M  V30 41990 H 3971.93 -2.38516 6.5279 0
M  V30 41991 H 3975.12 -1.8758 4.28872 0
M  V30 41992 H 3975.29 -2.36325 6.03369 0
M  V30 41993 N 3968.7 -1.37371 -0.772465 0
M  V30 41994 C 3969.63 -1.35775 -1.89967 0
M  V30 41995 C 3970.61 -0.226482 -1.68585 0
M  V30 41996 O 3971.79 -0.426725 -1.89454 0
M  V30 41997 C 3968.92 -1.16325 -3.2724 0
M  V30 41998 C 3967.88 -2.26456 -3.63183 0
M  V30 41999 C 3967.2 -1.9213 -4.98989 0
M  V30 42000 C 3968.5 -3.68636 -3.70006 0
M  V30 42001 H 3970.2 -2.30098 -1.9156 0
M  V30 42002 H 3967.74 -1.10761 -0.920222 0
M  V30 42003 H 3969.7 -1.13839 -4.05732 0
M  V30 42004 H 3968.42 -0.18457 -3.26078 0
M  V30 42005 H 3967.08 -2.28097 -2.86997 0
M  V30 42006 H 3966.73 -0.927935 -4.94367 0
M  V30 42007 H 3966.43 -2.65876 -5.24007 0
M  V30 42008 H 3967.95 -1.9123 -5.79882 0
M  V30 42009 H 3969.37 -3.69129 -4.38653 0
M  V30 42010 H 3967.76 -4.4143 -4.06521 0
M  V30 42011 H 3968.83 -4.02314 -2.70687 0
M  V30 42012 N 3970.18 0.998553 -1.21929 0
M  V30 42013 C 3971.11 2.08942 -0.942113 0
M  V30 42014 C 3972.12 1.62617 0.0771397 0
M  V30 42015 O 3973.31 1.77816 -0.156165 0
M  V30 42016 C 3970.41 3.36599 -0.39426 0
M  V30 42017 C 3969.58 4.1198 -1.46939 0
M  V30 42018 C 3968.64 5.17923 -0.929622 0
M  V30 42019 O 3967.67 5.45822 -1.61454 0
M  V30 42020 N 3968.87 5.79953 0.251863 0
M  V30 42021 H 3971.64 2.33302 -1.88123 0
M  V30 42022 H 3969.2 1.16388 -1.12541 0
M  V30 42023 H 3971.19 4.04696 -0.0186127 0
M  V30 42024 H 3969.76 3.09347 0.44983 0
M  V30 42025 H 3968.98 3.38594 -2.0186 0
M  V30 42026 H 3970.27 4.59117 -2.19292 0
M  V30 42027 H 3969.66 5.59648 0.825234 0
M  V30 42028 H 3968.22 6.49312 0.568954 0
M  V30 42029 N 3971.65 1.02807 1.1945 0
M  V30 42030 C 3973.07 0.744994 1.41145 0
M  V30 42031 C 3973.27 -0.670731 1.90009 0
M  V30 42032 O 3972.33 -1.43684 2.07632 0
M  V30 42033 C 3973.64 1.78043 2.42325 0
M  V30 42034 C 3975.19 1.79988 2.56073 0
M  V30 42035 C 3975.66 2.82489 3.60505 0
M  V30 42036 N 3977.15 2.81301 3.68 0
M  V30 42037 C 3977.89 3.57266 4.48496 0
M  V30 42038 N 3977.38 4.42943 5.32704 0
M  V30 42039 N 3979.18 3.45811 4.43138 0
M  V30 42040 H 3971.33 1.94187 0.860535 0
M  V30 42041 H 3973.59 0.839492 0.440406 0
M  V30 42042 H 3973.3 2.79526 2.13443 0
M  V30 42043 H 3973.17 1.60205 3.41488 0
M  V30 42044 H 3975.56 0.791832 2.84278 0
M  V30 42045 H 3975.64 2.01901 1.57066 0
M  V30 42046 H 3975.28 3.83465 3.33042 0
M  V30 42047 H 3975.21 2.57835 4.59161 0
M  V30 42048 H 3977.7 2.19159 3.0786 0
M  V30 42049 H 3978.02 4.97648 5.91242 0
M  V30 42050 H 3976.36 4.47016 5.32167 0
M  V30 42051 H 3979.55 2.7829 3.76394 0
M  V30 42052 H 3979.73 4.05265 5.05633 0
M  V30 42053 N 3973.13 -1.35441 0.805829 0
M  V30 42054 C 3974.08 -2.29809 0.213672 0
M  V30 42055 C 3975.05 -1.52775 -0.651851 0
M  V30 42056 O 3976.23 -1.81217 -0.597092 0
M  V30 42057 C 3973.37 -3.39256 -0.632385 0
M  V30 42058 C 3972.49 -4.31256 0.253489 0
M  V30 42059 C 3971.62 -5.27795 -0.6005 0
M  V30 42060 C 3970.66 -6.11432 0.285819 0
M  V30 42061 N 3969.8 -7.00111 -0.528099 0
M  V30 42062 H 3974.64 -2.7986 1.02383 0
M  V30 42063 H 3972.18 -1.37737 0.516422 0
M  V30 42064 H 3974.13 -4.01378 -1.13807 0
M  V30 42065 H 3972.76 -2.90483 -1.40781 0
M  V30 42066 H 3971.82 -3.70146 0.877267 0
M  V30 42067 H 3973.13 -4.89945 0.935718 0
M  V30 42068 H 3972.28 -5.95285 -1.17134 0
M  V30 42069 H 3971.02 -4.69601 -1.3163 0
M  V30 42070 H 3970.03 -5.4289 0.868939 0
M  V30 42071 H 3971.25 -6.71705 0.999467 0
M  V30 42072 H 3969.2 -6.44406 -1.22789 0
M  V30 42073 H 3969.11 -7.55939 0.0960987 0
M  V30 42074 H 3970.38 -7.71951 -1.08224 0
M  V30 42075 N 3974.61 -0.559265 -1.47343 0
M  V30 42076 C 3975.56 0.20772 -2.27052 0
M  V30 42077 C 3976.54 0.883428 -1.34478 0
M  V30 42078 O 3977.74 0.781395 -1.58818 0
M  V30 42079 C 3974.87 1.23576 -3.20287 0
M  V30 42080 C 3973.95 0.563366 -4.20342 0
M  V30 42081 N 3974.34 -0.367736 -5.04461 0
M  V30 42082 C 3972.64 0.817034 -4.38452 0
M  V30 42083 C 3973.34 -0.758512 -5.76733 0
M  V30 42084 N 3972.32 -0.112887 -5.43483 0
M  V30 42085 H 3976.12 -0.508138 -2.89474 0
M  V30 42086 H 3973.63 -0.37935 -1.57907 0
M  V30 42087 H 3975.63 1.79921 -3.76077 0
M  V30 42088 H 3974.29 1.95269 -2.59422 0
M  V30 42089 H 3975.3 -0.742013 -5.12557 0
M  V30 42090 H 3971.98 1.52232 -3.88757 0
M  V30 42091 H 3973.37 -1.52372 -6.54395 0
M  V30 42092 N 3976.09 1.54799 -0.295822 0
M  V30 42093 C 3977.34 1.9964 0.314349 0
M  V30 42094 C 3977.66 1.18573 1.54808 0
M  V30 42095 O 3976.93 0.280387 1.93883 0
M  V30 42096 H 3975.51 0.737438 0.11914 0
M  V30 42097 H 3978.17 1.90625 -0.405954 0
M  V30 42098 H 3977.27 3.06473 0.589967 0
M  V30 42099 N 3977.57 0.0234513 1.57583 0
M  V30 42100 C 3978.82 -0.655119 1.91187 0
M  V30 42101 C 3979.14 -1.72993 0.899911 0
M  V30 42102 O 3978.41 -1.9581 -0.0593934 0
M  V30 42103 H 3976.99 -0.244969 0.705691 0
M  V30 42104 H 3979.65 0.0699167 1.94775 0
M  V30 42105 H 3978.74 -1.11147 2.91638 0
M  V30 42106 N 3979.05 -1.5561 -0.249627 0
M  V30 42107 C 3979.98 -1.85053 -1.33531 0
M  V30 42108 C 3980.96 -0.705399 -1.46502 0
M  V30 42109 O 3982.14 -0.95087 -1.6276 0
M  V30 42110 C 3979.27 -2.03283 -2.70913 0
M  V30 42111 C 3978.31 -3.25913 -2.75105 0
M  V30 42112 S 3979.15 -4.8264 -2.3199 0
M  V30 42113 C 3980.3 -5.03871 -3.71301 0
M  V30 42114 H 3980.54 -2.7685 -1.08357 0
M  V30 42115 H 3978.07 -1.47682 -0.450472 0
M  V30 42116 H 3980.03 -2.1447 -3.50018 0
M  V30 42117 H 3978.69 -1.12333 -2.93326 0
M  V30 42118 H 3977.88 -3.35626 -3.75993 0
M  V30 42119 H 3977.48 -3.13438 -2.04041 0
M  V30 42120 H 3979.77 -4.91047 -4.66775 0
M  V30 42121 H 3980.72 -6.05859 -3.66524 0
M  V30 42122 H 3981.13 -4.31731 -3.63688 0
M  V30 42123 N 3980.52 0.515172 -1.48942 0
M  V30 42124 C 3981.45 1.62716 -1.67468 0
M  V30 42125 C 3982.43 1.61847 -0.523422 0
M  V30 42126 O 3983.62 1.7881 -0.757663 0
M  V30 42127 C 3980.75 3.01257 -1.72804 0
M  V30 42128 C 3979.7 3.16989 -2.87579 0
M  V30 42129 C 3979.03 4.5674 -2.78016 0
M  V30 42130 C 3980.33 2.98355 -4.28698 0
M  V30 42131 H 3982.02 1.47467 -2.60565 0
M  V30 42132 H 3979.57 0.708005 -1.25393 0
M  V30 42133 H 3981.52 3.78936 -1.84352 0
M  V30 42134 H 3980.25 3.17563 -0.762973 0
M  V30 42135 H 3978.91 2.41732 -2.7561 0
M  V30 42136 H 3978.55 4.69902 -1.79447 0
M  V30 42137 H 3978.25 4.68209 -3.55041 0
M  V30 42138 H 3979.78 5.36498 -2.91552 0
M  V30 42139 H 3981.19 3.65813 -4.41422 0
M  V30 42140 H 3979.59 3.21306 -5.06836 0
M  V30 42141 H 3980.66 1.94622 -4.44129 0
M  V30 42142 N 3982 1.37779 0.765169 0
M  V30 42143 C 3983.25 1.33547 1.5262 0
M  V30 42144 C 3983.58 -0.0779579 1.94043 0
M  V30 42145 O 3982.86 -1.0367 1.64568 0
M  V30 42146 C 3983.14 2.28061 2.78675 0
M  V30 42147 C 3982.99 3.78213 2.43465 0
M  V30 42148 C 3984.31 2.20906 3.80642 0
M  V30 42149 H 3981.43 0.486435 0.553669 0
M  V30 42150 H 3984.07 1.68533 0.877297 0
M  V30 42151 H 3982.22 1.98356 3.34047 0
M  V30 42152 H 3983.89 4.18543 1.93957 0
M  V30 42153 H 3982.14 3.9646 1.76074 0
M  V30 42154 H 3982.81 4.39789 3.33601 0
M  V30 42155 H 3985.28 2.47105 3.34781 0
M  V30 42156 H 3984.16 2.89167 4.66555 0
M  V30 42157 H 3984.42 1.20411 4.25386 0
M  V30 42158 N 3983.48 -0.992073 1.22457 0
M  V30 42159 C 3984.9 -1.25602 0.984704 0
M  V30 42160 C 3985.1 -1.98923 -0.32122 0
M  V30 42161 O 3984.15 -2.29923 -1.04363 0
M  V30 42162 C 3985.46 -2.06699 2.18394 0
M  V30 42163 C 3987.01 -2.1988 2.22759 0
M  V30 42164 C 3987.49 -3.04365 3.42237 0
M  V30 42165 N 3988.98 -3.11952 3.42404 0
M  V30 42166 C 3989.71 -3.77614 4.31503 0
M  V30 42167 N 3989.21 -4.45197 5.30821 0
M  V30 42168 N 3991 -3.74384 4.19277 0
M  V30 42169 H 3983.15 -0.500534 2.06418 0
M  V30 42170 H 3985.42 -0.283678 0.904561 0
M  V30 42171 H 3985.12 -1.60187 3.13102 0
M  V30 42172 H 3985 -3.07454 2.18522 0
M  V30 42173 H 3987.38 -2.65606 1.28598 0
M  V30 42174 H 3987.46 -1.18553 2.26669 0
M  V30 42175 H 3987.11 -2.59339 4.36699 0
M  V30 42176 H 3987.04 -4.05835 3.35567 0
M  V30 42177 H 3989.53 -2.63854 2.70536 0
M  V30 42178 H 3989.84 -4.93044 5.95086 0
M  V30 42179 H 3988.19 -4.43943 5.34733 0
M  V30 42180 H 3991.38 -3.20747 3.40938 0
M  V30 42181 H 3991.55 -4.25277 4.8892 0
M  V30 42182 N 3984.96 -1.03439 -1.18904 0
M  V30 42183 C 3985.91 -0.613597 -2.24361 0
M  V30 42184 C 3986.9 0.356512 -1.65606 0
M  V30 42185 O 3988.11 0.224488 -1.78595 0
M  V30 42186 H 3984.48 -0.180183 -0.730095 0
M  V30 42187 H 3986.45 -1.51355 -2.57166 0
M  V30 42188 C 3985.2 0.0140514 -3.47697 0
M  V30 42189 H 3984.52 -0.723463 -3.932 0
M  V30 42190 H 3985.96 0.271349 -4.23131 0
M  V30 42191 C 3984.42 1.26226 -3.1236 0
M  V30 42192 O 3984.95 2.35373 -3.25519 0
M  V30 42193 N 3983.16 1.15314 -2.66742 0
M  V30 42194 H 3982.71 0.264965 -2.56234 0
M  V30 42195 H 3982.66 1.98922 -2.43469 0
M  V30 42196 N 3986.44 1.35011 -0.813001 0
M  V30 42197 C 3987.85 1.81033 -0.456502 0
M  V30 42198 C 3988.2 1.67472 1.02214 0
M  V30 42199 O 3987.32 1.20902 1.79476 0
M  V30 42200 C 3987.92 3.28681 -0.82183 0
M  V30 42201 C 3986.48 3.72821 -0.517841 0
M  V30 42202 C 3985.62 2.56895 -1.04403 0
M  V30 42203 H 3988.57 1.22899 -1.00407 0
M  V30 42204 H 3988.6 3.80305 -0.121797 0
M  V30 42205 H 3988.11 3.3852 -1.89805 0
M  V30 42206 H 3986.21 3.68528 0.549381 0
M  V30 42207 H 3986.32 4.67341 -1.05496 0
M  V30 42208 H 3984.69 2.504 -0.466046 0
M  V30 42209 H 3985.47 2.69509 -2.1265 0
M  V30 42210 N 3987.91 0.567071 1.47044 0
M  V30 42211 C 3988.84 -0.16315 2.32929 0
M  V30 42212 C 3989.82 -0.899117 1.44395 0
M  V30 42213 O 3991.01 -0.87765 1.73237 0
M  V30 42214 C 3988.14 -1.18739 3.26372 0
M  V30 42215 C 3987.09 -0.56726 4.24224 0
M  V30 42216 C 3986.42 -1.69684 5.07061 0
M  V30 42217 C 3987.72 0.48541 5.20039 0
M  V30 42218 H 3989.41 0.553889 2.94232 0
M  V30 42219 H 3986.96 0.267814 1.41488 0
M  V30 42220 H 3988.91 -1.70648 3.85302 0
M  V30 42221 H 3987.64 -1.9345 2.63144 0
M  V30 42222 H 3986.3 -0.0693881 3.66534 0
M  V30 42223 H 3985.94 -2.43324 4.4023 0
M  V30 42224 H 3985.64 -1.28764 5.73318 0
M  V30 42225 H 3987.17 -2.219 5.68852 0
M  V30 42226 H 3988.58 0.0520056 5.73276 0
M  V30 42227 H 3986.98 0.814047 5.94553 0
M  V30 42228 H 3988.05 1.37762 4.64919 0
M  V30 42229 N 3989.39 -1.5464 0.304027 0
M  V30 42230 C 3990.62 -2.05075 -0.309673 0
M  V30 42231 C 3991.04 -1.17972 -1.46507 0
M  V30 42232 O 3990.4 -0.184469 -1.80359 0
M  V30 42233 C 3990.45 -3.52911 -0.740672 0
M  V30 42234 O 3989.55 -3.6882 -1.84514 0
M  V30 42235 H 3988.89 -0.66132 -0.0595949 0
M  V30 42236 H 3991.42 -1.99663 0.446753 0
M  V30 42237 H 3991.43 -3.9482 -1.02866 0
M  V30 42238 H 3990.11 -4.15769 0.104495 0
M  V30 42239 H 3988.68 -3.38818 -1.55747 0
M  V30 42240 N 3990.87 -0.0318079 -1.57568 0
M  V30 42241 C 3992.29 0.324606 -1.56264 0
M  V30 42242 C 3992.49 1.72727 -1.03768 0
M  V30 42243 O 3991.54 2.43014 -0.685608 0
M  V30 42244 C 3992.85 0.170754 -3.00215 0
M  V30 42245 C 3994.4 0.243318 -3.12053 0
M  V30 42246 C 3994.88 0.118224 -4.57847 0
M  V30 42247 N 3996.37 0.175122 -4.62869 0
M  V30 42248 C 3997.1 0.102151 -5.73309 0
M  V30 42249 N 3996.6 -0.0220591 -6.92796 0
M  V30 42250 N 3998.39 0.156333 -5.61883 0
M  V30 42251 H 3990.54 -0.949001 -1.9002 0
M  V30 42252 H 3992.81 -0.366708 -0.874202 0
M  V30 42253 H 3992.51 -0.795577 -3.42584 0
M  V30 42254 H 3992.39 0.939843 -3.65304 0
M  V30 42255 H 3994.77 1.20011 -2.69595 0
M  V30 42256 H 3994.85 -0.556194 -2.4968 0
M  V30 42257 H 3994.5 -0.83516 -5.00987 0
M  V30 42258 H 3994.43 0.936635 -5.18203 0
M  V30 42259 H 3996.92 0.271159 -3.76926 0
M  V30 42260 H 3997.23 -0.0709734 -7.72767 0
M  V30 42261 H 3995.58 -0.0568786 -6.94977 0
M  V30 42262 H 3998.77 0.251791 -4.67422 0
M  V30 42263 H 3998.94 0.0960038 -6.47929 0
M  V30 42264 N 3992.35 1.55741 0.241371 0
M  V30 42265 C 3993.3 1.9161 1.31865 0
M  V30 42266 C 3994.29 0.7958 1.49544 0
M  V30 42267 O 3995.5 0.980468 1.50953 0
M  V30 42268 H 3991.87 0.608628 0.441674 0
M  V30 42269 H 3993.84 2.8154 0.98882 0
M  V30 42270 C 3992.59 2.23205 2.66598 0
M  V30 42271 H 3991.91 3.08914 2.53796 0
M  V30 42272 H 3993.35 2.52202 3.40837 0
M  V30 42273 C 3991.81 1.05029 3.2011 0
M  V30 42274 O 3992.34 0.30114 4.0057 0
M  V30 42275 N 3990.55 0.83943 2.78212 0
M  V30 42276 H 3990.1 1.45034 2.12892 0
M  V30 42277 H 3990.05 0.0504173 3.1436 0
M  V30 42278 N 3993.83 -0.507266 1.49213 0
M  V30 42279 C 3995.05 -1.29069 1.62345 0
M  V30 42280 C 3995.48 -1.85813 0.29242 0
M  V30 42281 O 3994.83 -1.6555 -0.739116 0
M  V30 42282 C 3994.88 -2.40125 2.69021 0
M  V30 42283 O 3993.99 -3.43802 2.27759 0
M  V30 42284 H 3993.33 -0.38131 0.543598 0
M  V30 42285 H 3995.86 -0.607963 1.95359 0
M  V30 42286 H 3995.87 -2.8598 2.90997 0
M  V30 42287 H 3994.54 -1.98189 3.65642 0
M  V30 42288 H 3993.12 -3.03908 2.16089 0
M  V30 42289 N 3995.3 -1.38182 -0.757851 0
M  V30 42290 C 3996.53 -1.37381 -1.54707 0
M  V30 42291 C 3996.95 0.0374755 -1.88763 0
M  V30 42292 O 3996.3 1.00297 -1.52469 0
M  V30 42293 C 3996.36 -2.2254 -2.84883 0
M  V30 42294 O 3996.08 -3.5817 -2.52281 0
M  V30 42295 C 3997.58 -2.29871 -3.79044 0
M  V30 42296 H 3994.8 -0.47006 -0.478837 0
M  V30 42297 H 3997.34 -1.81706 -0.938251 0
M  V30 42298 H 3995.5 -1.81688 -3.42153 0
M  V30 42299 H 3995.91 -4.02963 -3.3574 0
M  V30 42300 H 3997.38 -2.93752 -4.67348 0
M  V30 42301 H 3997.86 -1.31113 -4.19173 0
M  V30 42302 H 3998.47 -2.71096 -3.277 0
M  V30 42303 N 3996.78 0.985565 -1.22981 0
M  V30 42304 C 3997.73 2.06166 -0.973628 0
M  V30 42305 C 3998.72 1.60708 0.0784789 0
M  V30 42306 O 3999.91 1.765 -0.132989 0
M  V30 42307 C 3997.04 3.38682 -0.561188 0
M  V30 42308 C 3996.12 3.90753 -1.64842 0
M  V30 42309 N 3996.51 4.15962 -2.87765 0
M  V30 42310 C 3994.81 4.19234 -1.5218 0
M  V30 42311 C 3995.51 4.58393 -3.58121 0
M  V30 42312 N 3994.49 4.62519 -2.85617 0
M  V30 42313 H 3998.29 2.23608 -1.90727 0
M  V30 42314 H 3995.81 1.16791 -1.12843 0
M  V30 42315 H 3997.8 4.15352 -0.358947 0
M  V30 42316 H 3996.46 3.22637 0.365467 0
M  V30 42317 H 3997.47 4.03938 -3.24122 0
M  V30 42318 H 3994.15 4.1222 -0.661879 0
M  V30 42319 H 3995.54 4.86459 -4.63473 0
M  V30 42320 N 3998.26 1.04068 1.18353 0
M  V30 42321 C 3999.17 0.642155 2.2564 0
M  V30 42322 C 4000.19 -0.331584 1.70811 0
M  V30 42323 O 4001.36 -0.186507 2.00535 0
M  V30 42324 C 3998.43 0.0113094 3.46698 0
M  V30 42325 C 3997.49 1.03405 4.1666 0
M  V30 42326 C 3996.72 0.433218 5.31939 0
M  V30 42327 O 3996.94 -0.760569 5.65307 0
M  V30 42328 O 3995.88 1.16192 5.90579 0
M  V30 42329 H 3999.7 1.53599 2.61994 0
M  V30 42330 H 3997.29 0.811564 1.25435 0
M  V30 42331 H 3999.17 -0.33986 4.20027 0
M  V30 42332 H 3997.85 -0.856351 3.12167 0
M  V30 42333 H 3996.75 1.43702 3.45399 0
M  V30 42334 H 3998.09 1.87248 4.55191 0
M  V30 42335 N 3999.74 -1.34578 0.820149 0
M  V30 42336 C 4000.67 -2.27446 0.185364 0
M  V30 42337 C 4001.65 -1.48753 -0.656601 0
M  V30 42338 O 4002.83 -1.77979 -0.620943 0
M  V30 42339 C 3999.96 -3.30486 -0.741397 0
M  V30 42340 C 3999.01 -4.26494 0.0226826 0
M  V30 42341 S 3999.84 -5.17733 1.36796 0
M  V30 42342 C 4001 -6.24309 0.446003 0
M  V30 42343 H 4001.23 -2.80937 0.972708 0
M  V30 42344 H 3998.76 -1.41584 0.615904 0
M  V30 42345 H 4000.72 -3.90342 -1.27055 0
M  V30 42346 H 3999.38 -2.75847 -1.50224 0
M  V30 42347 H 3998.57 -4.99368 -0.681739 0
M  V30 42348 H 3998.18 -3.70877 0.482304 0
M  V30 42349 H 4000.47 -6.76524 -0.363519 0
M  V30 42350 H 4001.41 -6.98792 1.14434 0
M  V30 42351 H 4001.82 -5.64489 0.0356668 0
M  V30 42352 N 4001.22 -0.574861 -1.46742 0
M  V30 42353 C 4002.45 -0.0627444 -2.06505 0
M  V30 42354 C 4002.85 1.24417 -1.42537 0
M  V30 42355 O 4002.2 1.76125 -0.522074 0
M  V30 42356 C 4002.26 0.185511 -3.59021 0
M  V30 42357 C 4001.92 -1.03462 -4.45134 0
M  V30 42358 C 4002.92 -1.9447 -4.82159 0
M  V30 42359 C 4000.61 -1.25426 -4.86388 0
M  V30 42360 C 4002.6 -3.05795 -5.59257 0
M  V30 42361 C 4000.29 -2.37058 -5.63246 0
M  V30 42362 C 4001.28 -3.27073 -5.99594 0
M  V30 42363 O 4000.97 -4.36767 -6.749 0
M  V30 42364 H 4000.7 -0.050905 -0.674081 0
M  V30 42365 H 4003.26 -0.793001 -1.89475 0
M  V30 42366 H 4001.49 0.970288 -3.74329 0
M  V30 42367 H 4003.18 0.645171 -4.0074 0
M  V30 42368 H 4003.94 -1.78713 -4.50873 0
M  V30 42369 H 3999.82 -0.56274 -4.57552 0
M  V30 42370 H 4003.37 -3.7608 -5.87545 0
M  V30 42371 H 3999.26 -2.52781 -5.93946 0
M  V30 42372 H 4000.03 -4.35036 -6.93315 0
M  V30 42373 N 4002.69 1.54476 -0.312224 0
M  V30 42374 C 4003.94 2.01365 0.28699 0
M  V30 42375 C 4004.3 1.19663 1.50661 0
M  V30 42376 O 4003.59 0.267796 1.89719 0
M  V30 42377 C 4003.78 3.50794 0.683996 0
M  V30 42378 C 4003.61 4.46961 -0.495599 0
M  V30 42379 C 4002.38 4.95484 -0.99115 0
M  V30 42380 C 4004.58 4.96424 -1.34417 0
M  V30 42381 N 4002.56 5.75529 -2.13634 0
M  V30 42382 C 4003.93 5.74281 -2.33669 0
M  V30 42383 C 4005.99 4.78588 -1.37325 0
M  V30 42384 C 4004.69 6.36202 -3.35618 0
M  V30 42385 C 4006.72 5.41335 -2.38139 0
M  V30 42386 C 4006.08 6.19035 -3.36118 0
M  V30 42387 H 4002.18 0.778935 0.0691704 0
M  V30 42388 H 4004.76 1.89554 -0.444689 0
M  V30 42389 H 4002.93 3.62873 1.38483 0
M  V30 42390 H 4004.66 3.84464 1.26371 0
M  V30 42391 H 4001.42 4.70226 -0.564282 0
M  V30 42392 H 4001.84 6.20233 -2.71367 0
M  V30 42393 H 4006.49 4.18088 -0.629446 0
M  V30 42394 H 4004.2 6.95829 -4.10911 0
M  V30 42395 H 4007.79 5.29458 -2.41176 0
M  V30 42396 H 4006.67 6.66727 -4.1285 0
M  V30 42397 N 4004.17 0.0401637 1.57549 0
M  V30 42398 C 4005.42 -0.635462 1.91428 0
M  V30 42399 C 4005.73 -1.7265 0.919308 0
M  V30 42400 O 4006.94 -2.45953 1.14975 0
M  V30 42401 C 4005.4 -1.18158 3.39951 0
M  V30 42402 C 4005 -0.123241 4.4783 0
M  V30 42403 C 4006.75 -1.83309 3.82881 0
M  V30 42404 C 4004.66 -0.681624 5.87459 0
M  V30 42405 H 4003.59 -0.241125 0.714405 0
M  V30 42406 H 4006.24 0.107263 1.83186 0
M  V30 42407 H 4004.62 -1.97627 3.43161 0
M  V30 42408 H 4005.79 0.6498 4.56195 0
M  V30 42409 H 4004.11 0.430152 4.14172 0
M  V30 42410 H 4006.7 -2.26061 4.84562 0
M  V30 42411 H 4007.05 -2.68033 3.18534 0
M  V30 42412 H 4007.58 -1.10512 3.82141 0
M  V30 42413 H 4004.32 0.127731 6.55376 0
M  V30 42414 H 4003.84 -1.4229 5.82678 0
M  V30 42415 H 4005.52 -1.16795 6.36371 0
M  V30 42416 N 4005.65 -1.55866 -0.233109 0
M  V30 42417 C 4006.88 -1.82756 -0.98057 0
M  V30 42418 C 4007.3 -0.619019 -1.77623 0
M  V30 42419 O 4006.66 0.432117 -1.76075 0
M  V30 42420 C 4006.71 -3.07523 -1.88314 0
M  V30 42421 O 4005.81 -2.85406 -2.97687 0
M  V30 42422 H 4005.15 -0.602872 -0.278284 0
M  V30 42423 H 4007.68 -2.03068 -0.24992 0
M  V30 42424 H 4007.69 -3.37322 -2.29517 0
M  V30 42425 H 4006.37 -3.95119 -1.29824 0
M  V30 42426 H 4004.94 -2.6681 -2.60513 0
M  V30 42427 N 4007.13 0.499346 -1.4948 0
M  V30 42428 C 4008.08 1.62155 -1.66759 0
M  V30 42429 C 4009.07 1.60779 -0.533513 0
M  V30 42430 O 4010.28 1.65268 -0.713196 0
M  V30 42431 H 4006.65 0.537562 -0.525862 0
M  V30 42432 H 4008.62 1.44734 -2.6095 0
M  V30 42433 C 4007.37 3.0028 -1.75293 0
M  V30 42434 H 4006.7 3.02044 -2.61934 0
M  V30 42435 H 4008.14 3.78332 -1.91417 0
M  V30 42436 C 4006.59 3.33197 -0.498114 0
M  V30 42437 O 4007.12 3.99942 0.375457 0
M  V30 42438 N 4005.33 2.88354 -0.360564 0
M  V30 42439 H 4004.88 2.34214 -1.07245 0
M  V30 42440 H 4004.84 3.10746 0.477926 0
M  V30 42441 N 4008.61 1.38582 0.750513 0
M  V30 42442 C 4009.86 1.34692 1.50673 0
M  V30 42443 C 4010.18 -0.0615072 1.94903 0
M  V30 42444 O 4009.45 -1.00979 1.67869 0
M  V30 42445 H 4008.03 0.495615 0.558905 0
M  V30 42446 H 4010.69 1.73293 0.891948 0
M  V30 42447 H 4009.78 1.99973 2.39619 0
M  V30 42448 N 4010.09 -0.979029 1.23502 0
M  V30 42449 C 4011.31 -1.7557 1.09465 0
M  V30 42450 C 4011.73 -1.85456 -0.353768 0
M  V30 42451 O 4011.09 -1.33472 -1.24465 0
M  V30 42452 C 4011.14 -3.18193 1.71568 0
M  V30 42453 O 4010.86 -3.08818 3.10746 0
M  V30 42454 C 4012.36 -4.12249 1.62991 0
M  V30 42455 H 4009.58 -0.55094 0.383023 0
M  V30 42456 H 4012.12 -1.22992 1.63381 0
M  V30 42457 H 4010.28 -3.67794 1.21682 0
M  V30 42458 H 4010.69 -3.98611 3.40895 0
M  V30 42459 H 4012.17 -5.10022 2.11144 0
M  V30 42460 H 4012.64 -4.35233 0.588984 0
M  V30 42461 H 4013.25 -3.68552 2.12248 0
M  V30 42462 N 4011.56 -1.04695 -1.178 0
M  V30 42463 C 4012.81 -0.752567 -1.87566 0
M  V30 42464 C 4013.13 0.722271 -1.8113 0
M  V30 42465 O 4012.4 1.52159 -1.23388 0
M  V30 42466 H 4010.98 -0.275388 -0.694385 0
M  V30 42467 H 4013.64 -1.32504 -1.42929 0
M  V30 42468 H 4012.74 -1.06304 -2.93438 0
M  V30 42469 N 4013.04 1.34141 -0.827275 0
M  V30 42470 C 4013.99 2.31352 -0.240593 0
M  V30 42471 C 4014.98 1.57605 0.621062 0
M  V30 42472 O 4016.19 1.72567 0.511916 0
M  V30 42473 H 4012.56 0.749677 -0.0590626 0
M  V30 42474 H 4014.54 2.78355 -1.07522 0
M  V30 42475 C 4013.28 3.42841 0.579261 0
M  V30 42476 H 4012.61 3.99731 -0.0744449 0
M  V30 42477 H 4014.05 4.13087 0.955798 0
M  V30 42478 C 4012.51 2.87676 1.7534 0
M  V30 42479 O 4013.04 2.82912 2.85173 0
M  V30 42480 N 4011.24 2.4444 1.57154 0
M  V30 42481 H 4010.79 2.48515 0.678104 0
M  V30 42482 H 4010.75 2.07881 2.35866 0
M  V30 42483 N 4014.52 0.582635 1.46435 0
M  V30 42484 C 4015.77 0.0658997 2.01592 0
M  V30 42485 C 4016.08 -1.30195 1.45975 0
M  V30 42486 O 4017.29 -1.91003 1.92952 0
M  V30 42487 C 4015.74 0.067218 3.59837 0
M  V30 42488 C 4015.35 1.43338 4.2445 0
M  V30 42489 C 4017.1 -0.395577 4.22653 0
M  V30 42490 C 4015 1.39243 5.74774 0
M  V30 42491 H 4013.93 0.0208665 0.753711 0
M  V30 42492 H 4016.58 0.734271 1.68169 0
M  V30 42493 H 4014.97 -0.667316 3.90337 0
M  V30 42494 H 4016.14 2.18764 4.0556 0
M  V30 42495 H 4014.45 1.83619 3.73728 0
M  V30 42496 H 4017.05 -0.445008 5.32845 0
M  V30 42497 H 4017.39 -1.41309 3.91583 0
M  V30 42498 H 4017.93 0.284891 3.96779 0
M  V30 42499 H 4014.67 2.38675 6.10504 0
M  V30 42500 H 4014.19 0.680373 5.95929 0
M  V30 42501 H 4015.87 1.10531 6.37489 0
M  V30 42502 N 4016 -1.54309 0.320412 0
M  V30 42503 C 4017.24 -2.00808 -0.283527 0
M  V30 42504 C 4017.58 -1.20828 -1.52033 0
M  V30 42505 O 4016.85 -0.289754 -1.9233 0
M  V30 42506 C 4017.13 -3.54708 -0.620813 0
M  V30 42507 C 4016.99 -4.45416 0.626481 0
M  V30 42508 C 4018.31 -4.15885 -1.4397 0
M  V30 42509 H 4015.43 -0.729966 -0.101577 0
M  V30 42510 H 4018.07 -1.84921 0.436365 0
M  V30 42511 H 4016.22 -3.68377 -1.23413 0
M  V30 42512 H 4017.89 -4.43623 1.26478 0
M  V30 42513 H 4016.13 -4.1522 1.25597 0
M  V30 42514 H 4016.8 -5.50914 0.346066 0
M  V30 42515 H 4019.28 -4.05772 -0.92131 0
M  V30 42516 H 4018.16 -5.23687 -1.64446 0
M  V30 42517 H 4018.42 -3.69007 -2.43488 0
M  V30 42518 N 4017.48 -0.0485183 -1.57525 0
M  V30 42519 C 4018.7 0.639027 -1.9731 0
M  V30 42520 C 4019.13 1.6374 -0.925782 0
M  V30 42521 O 4018.48 1.80958 0.111272 0
M  V30 42522 C 4018.53 1.30469 -3.3617 0
M  V30 42523 O 4017.64 2.42032 -3.33907 0
M  V30 42524 H 4016.98 0.16634 -0.642827 0
M  V30 42525 H 4019.51 -0.116131 -2.0427 0
M  V30 42526 H 4019.52 1.65699 -3.72838 0
M  V30 42527 H 4018.19 0.572985 -4.11934 0
M  V30 42528 H 4016.77 2.0877 -3.08982 0
M  V30 42529 N 4018.95 1.55988 0.224839 0
M  V30 42530 C 4020.18 1.83273 0.970864 0
M  V30 42531 C 4020.6 0.62843 1.77292 0
M  V30 42532 O 4019.96 -0.422773 1.76302 0
M  V30 42533 C 4020.01 3.08517 1.8668 0
M  V30 42534 O 4019.11 2.86981 2.96169 0
M  V30 42535 H 4018.45 0.604339 0.275083 0
M  V30 42536 H 4020.98 2.03198 0.239147 0
M  V30 42537 H 4020.99 3.38534 2.27725 0
M  V30 42538 H 4019.67 3.95801 1.27726 0
M  V30 42539 H 4018.25 2.68188 2.59094 0
M  V30 42540 N 4020.43 -0.491412 1.49743 0
M  V30 42541 C 4021.68 -1.24676 1.59949 0
M  V30 42542 C 4022.01 -1.92028 0.289632 0
M  V30 42543 O 4021.29 -1.81175 -0.707512 0
M  V30 42544 C 4021.57 -2.3063 2.76554 0
M  V30 42545 C 4021.42 -1.67716 4.17363 0
M  V30 42546 C 4022.74 -3.32115 2.8877 0
M  V30 42547 H 4019.86 -0.451923 0.582181 0
M  V30 42548 H 4022.5 -0.543485 1.82061 0
M  V30 42549 H 4020.65 -2.90612 2.57831 0
M  V30 42550 H 4022.32 -1.11487 4.47625 0
M  V30 42551 H 4020.57 -0.980926 4.22564 0
M  V30 42552 H 4021.24 -2.44612 4.94842 0
M  V30 42553 H 4023.71 -2.82134 3.05843 0
M  V30 42554 H 4022.59 -4.03602 3.72017 0
M  V30 42555 H 4022.85 -3.9502 1.98524 0
M  V30 42556 N 4021.91 -1.38978 -0.743153 0
M  V30 42557 C 4022.86 -1.37177 -1.87844 0
M  V30 42558 C 4023.85 -0.256089 -1.67453 0
M  V30 42559 O 4025.06 -0.425689 -1.74894 0
M  V30 42560 H 4021.43 -0.428177 -0.618198 0
M  V30 42561 H 4023.4 -2.32955 -1.86479 0
M  V30 42562 C 4022.15 -1.22406 -3.25441 0
M  V30 42563 H 4021.48 -2.07522 -3.41723 0
M  V30 42564 H 4022.92 -1.25202 -4.05093 0
M  V30 42565 C 4021.38 0.0681977 -3.36831 0
M  V30 42566 O 4021.91 1.0414 -3.87966 0
M  V30 42567 N 4020.11 0.128531 -2.90316 0
M  V30 42568 H 4019.66 -0.664121 -2.48892 0
M  V30 42569 H 4019.62 0.992709 -2.98316 0
M  V30 42570 N 4023.39 0.972465 -1.2402 0
M  V30 42571 C 4024.32 2.06483 -0.971606 0
M  V30 42572 C 4025.3 1.62334 0.0929366 0
M  V30 42573 O 4026.48 1.88451 -0.0429973 0
M  V30 42574 C 4023.61 3.35489 -0.465294 0
M  V30 42575 C 4022.66 3.98584 -1.51766 0
M  V30 42576 S 4023.49 4.36822 -3.09753 0
M  V30 42577 C 4024.65 5.68971 -2.60813 0
M  V30 42578 H 4024.88 2.28948 -1.89658 0
M  V30 42579 H 4022.41 1.10973 -1.07352 0
M  V30 42580 H 4024.37 4.10106 -0.179792 0
M  V30 42581 H 4023.03 3.11019 0.438889 0
M  V30 42582 H 4022.22 4.91541 -1.1137 0
M  V30 42583 H 4021.83 3.30377 -1.75292 0
M  V30 42584 H 4024.12 6.4627 -2.03327 0
M  V30 42585 H 4025.06 6.14217 -3.5234 0
M  V30 42586 H 4025.47 5.27351 -2.01399 0
M  V30 42587 N 4024.87 1.05318 1.17243 0
M  V30 42588 C 4026.11 0.765145 1.87812 0
M  V30 42589 C 4026.45 -0.706115 1.80908 0
M  V30 42590 O 4025.72 -1.51645 1.21795 0
M  V30 42591 C 4026 1.24785 3.37788 0
M  V30 42592 C 4025.86 2.78214 3.53436 0
M  V30 42593 C 4027.18 0.847881 4.31855 0
M  V30 42594 H 4024.29 0.279427 0.681975 0
M  V30 42595 H 4026.94 1.30739 1.37867 0
M  V30 42596 H 4025.09 0.786554 3.80454 0
M  V30 42597 H 4026.76 3.32477 3.19776 0
M  V30 42598 H 4025 3.17428 2.95672 0
M  V30 42599 H 4025.67 3.07051 4.5872 0
M  V30 42600 H 4028.15 1.24503 3.97037 0
M  V30 42601 H 4027.02 1.21322 5.35324 0
M  V30 42602 H 4027.29 -0.248027 4.41404 0
M  V30 42603 N 4026.34 -1.33701 0.834377 0
M  V30 42604 C 4027.57 -2.02672 0.440304 0
M  V30 42605 C 4027.99 -1.62382 -0.949407 0
M  V30 42606 O 4027.35 -0.814159 -1.61991 0
M  V30 42607 C 4027.4 -3.56169 0.563552 0
M  V30 42608 O 4026.5 -4.10337 -0.412021 0
M  V30 42609 H 4025.85 -0.639244 0.17962 0
M  V30 42610 H 4028.38 -1.70699 1.12797 0
M  V30 42611 H 4028.39 -4.05582 0.443535 0
M  V30 42612 H 4027.06 -3.84839 1.57707 0
M  V30 42613 H 4025.64 -3.72061 -0.249936 0
M  V30 42614 N 4027.82 -0.590393 -1.46124 0
M  V30 42615 C 4029.24 -0.252667 -1.57587 0
M  V30 42616 C 4029.44 1.24499 -1.58437 0
M  V30 42617 O 4028.49 2.02713 -1.50544 0
M  V30 42618 C 4029.81 -0.908662 -2.86642 0
M  V30 42619 C 4031.36 -0.88297 -3.00288 0
M  V30 42620 C 4031.83 -1.51865 -4.32089 0
M  V30 42621 N 4033.32 -1.48334 -4.38806 0
M  V30 42622 C 4034.06 -1.94451 -5.39422 0
M  V30 42623 N 4033.55 -2.48576 -6.4667 0
M  V30 42624 N 4035.35 -1.85322 -5.30671 0
M  V30 42625 H 4027.5 -1.56303 -1.43816 0
M  V30 42626 H 4029.76 -0.653771 -0.686503 0
M  V30 42627 H 4029.47 -1.96251 -2.91854 0
M  V30 42628 H 4029.34 -0.421511 -3.74837 0
M  V30 42629 H 4031.73 0.162279 -2.94653 0
M  V30 42630 H 4031.81 -1.40822 -2.13548 0
M  V30 42631 H 4031.45 -2.56314 -4.38481 0
M  V30 42632 H 4031.38 -0.968565 -5.17616 0
M  V30 42633 H 4033.87 -1.08779 -3.61906 0
M  V30 42634 H 4034.19 -2.81603 -7.19666 0
M  V30 42635 H 4032.53 -2.52606 -6.47468 0
M  V30 42636 H 4035.72 -1.4279 -4.4579 0
M  V30 42637 H 4035.89 -2.21578 -6.0894 0
M  V30 42638 N 4029.3 1.54136 -0.328591 0
M  V30 42639 C 4030.23 2.27459 0.527694 0
M  V30 42640 C 4031.21 1.28446 1.11516 0
M  V30 42641 O 4032.4 1.57266 1.13935 0
M  V30 42642 C 4029.53 3.03618 1.68622 0
M  V30 42643 C 4028.48 4.1001 1.22782 0
M  V30 42644 C 4027.81 4.74038 2.4737 0
M  V30 42645 C 4029.11 5.21198 0.33906 0
M  V30 42646 H 4030.8 2.99282 -0.0839334 0
M  V30 42647 H 4028.35 1.43939 -0.0418082 0
M  V30 42648 H 4030.3 3.53644 2.29159 0
M  V30 42649 H 4029.02 2.2942 2.32452 0
M  V30 42650 H 4027.68 3.60875 0.645364 0
M  V30 42651 H 4027.33 3.96451 3.09574 0
M  V30 42652 H 4027.03 5.45909 2.17387 0
M  V30 42653 H 4028.55 5.26842 3.08659 0
M  V30 42654 H 4029.97 5.66951 0.850847 0
M  V30 42655 H 4028.37 5.99955 0.131786 0
M  V30 42656 H 4029.44 4.80806 -0.628776 0
M  V30 42657 N 4030.78 0.0568716 1.57497 0
M  V30 42658 C 4031.71 -0.91339 2.14894 0
M  V30 42659 C 4032.69 -1.32063 1.07208 0
M  V30 42660 O 4033.87 -1.39433 1.35174 0
M  V30 42661 C 4031 -2.18624 2.69853 0
M  V30 42662 C 4029.96 -1.91889 3.82574 0
M  V30 42663 C 4029.28 -3.25678 4.24073 0
M  V30 42664 C 4030.58 -1.23597 5.07465 0
M  V30 42665 H 4032.28 -0.435295 2.96219 0
M  V30 42666 H 4029.82 -0.207935 1.42491 0
M  V30 42667 H 4031.78 -2.86905 3.08648 0
M  V30 42668 H 4030.5 -2.6865 1.85728 0
M  V30 42669 H 4029.16 -1.26018 3.4426 0
M  V30 42670 H 4028.81 -3.73515 3.36891 0
M  V30 42671 H 4028.51 -3.08586 5.00049 0
M  V30 42672 H 4030.03 -3.95181 4.65473 0
M  V30 42673 H 4031.45 -1.81922 5.4367 0
M  V30 42674 H 4029.84 -1.16813 5.88621 0
M  V30 42675 H 4030.91 -0.212832 4.84433 0
M  V30 42676 N 4032.26 -1.56105 -0.216564 0
M  V30 42677 C 4033.19 -1.95843 -1.27152 0
M  V30 42678 C 4034.17 -0.827339 -1.48624 0
M  V30 42679 O 4035.35 -1.09003 -1.60723 0
M  V30 42680 C 4032.48 -2.27944 -2.62028 0
M  V30 42681 C 4031.44 -3.43591 -2.55205 0
M  V30 42682 C 4030.76 -3.6131 -3.94157 0
M  V30 42683 C 4032.06 -4.78417 -2.09558 0
M  V30 42684 H 4033.76 -2.84215 -0.941385 0
M  V30 42685 H 4031.3 -1.36742 -0.451403 0
M  V30 42686 H 4033.26 -2.54336 -3.35993 0
M  V30 42687 H 4031.98 -1.36431 -2.96739 0
M  V30 42688 H 4030.64 -3.17255 -1.83697 0
M  V30 42689 H 4030.29 -2.67164 -4.26184 0
M  V30 42690 H 4029.99 -4.39097 -3.90471 0
M  V30 42691 H 4031.51 -3.90055 -4.69776 0
M  V30 42692 H 4032.92 -5.03981 -2.73268 0
M  V30 42693 H 4031.32 -5.59522 -2.16921 0
M  V30 42694 H 4032.39 -4.73439 -1.04802 0
M  V30 42695 N 4033.73 0.483463 -1.50001 0
M  V30 42696 C 4034.68 1.60377 -1.6847 0
M  V30 42697 C 4035.68 1.60204 -0.550536 0
M  V30 42698 O 4036.88 1.64502 -0.730685 0
M  V30 42699 H 4033.26 0.531954 -0.531534 0
M  V30 42700 H 4035.23 1.41958 -2.6247 0
M  V30 42701 C 4033.98 2.98403 -1.78468 0
M  V30 42702 H 4033.3 2.99249 -2.65122 0
M  V30 42703 H 4034.74 3.76281 -1.95419 0
M  V30 42704 C 4033.2 3.3265 -0.533426 0
M  V30 42705 O 4033.73 4.00317 0.333017 0
M  V30 42706 N 4031.94 2.87956 -0.391128 0
M  V30 42707 H 4031.48 2.33064 -1.09723 0
M  V30 42708 H 4031.44 3.11236 0.44494 0
M  V30 42709 N 4035.21 1.39371 0.735772 0
M  V30 42710 C 4036.63 1.20958 1.04122 0
M  V30 42711 C 4036.83 0.0706298 2.01376 0
M  V30 42712 O 4035.88 -0.577956 2.45796 0
M  V30 42713 C 4037.2 2.54331 1.60424 0
M  V30 42714 C 4038.75 2.6117 1.72509 0
M  V30 42715 C 4039.22 3.94763 2.3222 0
M  V30 42716 N 4040.71 3.96398 2.39631 0
M  V30 42717 C 4041.45 4.96539 2.86769 0
M  V30 42718 N 4040.94 6.07078 3.33809 0
M  V30 42719 N 4042.74 4.83919 2.85971 0
M  V30 42720 H 4034.89 2.12206 0.0907461 0
M  V30 42721 H 4037.15 0.942401 0.10288 0
M  V30 42722 H 4036.86 3.38222 0.964292 0
M  V30 42723 H 4036.73 2.73995 2.59242 0
M  V30 42724 H 4039.12 1.77663 2.35626 0
M  V30 42725 H 4039.2 2.45356 0.723464 0
M  V30 42726 H 4038.84 4.787 1.69731 0
M  V30 42727 H 4038.77 4.07897 3.33058 0
M  V30 42728 H 4041.26 3.16567 2.06382 0
M  V30 42729 H 4041.58 6.79401 3.68285 0
M  V30 42730 H 4039.92 6.10672 3.3182 0
M  V30 42731 H 4043.11 3.96665 2.48544 0
M  V30 42732 H 4043.28 5.62109 3.22393 0
M  V30 42733 N 4036.69 -0.965875 1.24534 0
M  V30 42734 C 4037.94 -1.70908 1.08612 0
M  V30 42735 C 4038.27 -1.90856 -0.374747 0
M  V30 42736 O 4037.52 -1.46885 -1.29319 0
M  V30 42737 C 4037.82 -3.10316 1.77311 0
M  V30 42738 C 4037.49 -3.10203 3.27238 0
M  V30 42739 C 4036.15 -3.0988 3.68141 0
M  V30 42740 C 4038.5 -3.04395 4.23076 0
M  V30 42741 C 4035.83 -3.01483 5.03314 0
M  V30 42742 C 4038.18 -2.9754 5.58259 0
M  V30 42743 C 4036.84 -2.95546 5.98505 0
M  V30 42744 H 4036.11 -0.625397 0.397441 0
M  V30 42745 H 4038.76 -1.12927 1.5466 0
M  V30 42746 H 4037.07 -3.71773 1.23662 0
M  V30 42747 H 4038.76 -3.66619 1.62455 0
M  V30 42748 H 4035.35 -3.11221 2.94686 0
M  V30 42749 H 4039.54 -3.03772 3.92474 0
M  V30 42750 H 4034.79 -2.98301 5.33691 0
M  V30 42751 H 4038.97 -2.92005 6.32223 0
M  V30 42752 H 4036.59 -2.88795 7.03208 0
M  V30 42753 N 4038.17 -1.05938 -1.16683 0
M  V30 42754 C 4039.4 -0.794586 -1.91034 0
M  V30 42755 C 4039.81 0.650632 -1.77235 0
M  V30 42756 O 4039.17 1.44512 -1.11456 0
M  V30 42757 C 4039.22 -1.17542 -3.41857 0
M  V30 42758 O 4038.94 -2.56392 -3.55239 0
M  V30 42759 C 4040.44 -0.93785 -4.33266 0
M  V30 42760 H 4037.66 -0.288336 -0.605891 0
M  V30 42761 H 4040.21 -1.41206 -1.47923 0
M  V30 42762 H 4038.36 -0.602553 -3.82685 0
M  V30 42763 H 4038.78 -2.71539 -4.48739 0
M  V30 42764 H 4040.25 -1.25398 -5.37568 0
M  V30 42765 H 4040.73 0.126596 -4.39018 0
M  V30 42766 H 4041.33 -1.49493 -3.98161 0
M  V30 42767 N 4039.65 1.33256 -0.841456 0
M  V30 42768 C 4040.58 2.27122 -0.221525 0
M  V30 42769 C 4041.56 1.49779 0.632853 0
M  V30 42770 O 4042.74 1.78944 0.59255 0
M  V30 42771 C 4039.87 3.31624 0.688725 0
M  V30 42772 C 4038.92 4.26404 -0.0905313 0
M  V30 42773 S 4039.75 5.15491 -1.45016 0
M  V30 42774 C 4040.9 6.2352 -0.545269 0
M  V30 42775 H 4041.14 2.79354 -1.01728 0
M  V30 42776 H 4038.67 1.40586 -0.63835 0
M  V30 42777 H 4040.63 3.92314 1.20829 0
M  V30 42778 H 4039.29 2.78202 1.45817 0
M  V30 42779 H 4038.48 5.00389 0.602208 0
M  V30 42780 H 4038.08 3.70063 -0.541246 0
M  V30 42781 H 4040.38 6.77017 0.255843 0
M  V30 42782 H 4041.32 6.96883 -1.25536 0
M  V30 42783 H 4041.73 5.64361 -0.125468 0
M  V30 42784 N 4041.13 0.598134 1.45809 0
M  V30 42785 C 4042.35 0.0957284 2.06678 0
M  V30 42786 C 4042.77 -1.21587 1.44437 0
M  V30 42787 O 4042.13 -1.73852 0.555134 0
M  V30 42788 C 4042.18 -0.0604238 3.61449 0
M  V30 42789 O 4041.9 1.19928 4.21366 0
M  V30 42790 C 4043.4 -0.595389 4.39284 0
M  V30 42791 H 4040.62 0.0645071 0.667892 0
M  V30 42792 H 4043.16 0.823184 1.872 0
M  V30 42793 H 4041.32 -0.738165 3.80302 0
M  V30 42794 H 4041.73 1.02291 5.14429 0
M  V30 42795 H 4043.21 -0.653772 5.48115 0
M  V30 42796 H 4043.68 -1.61568 4.08402 0
M  V30 42797 H 4044.29 0.0479919 4.25273 0
M  V30 42798 N 4042.6 -1.5396 0.33676 0
M  V30 42799 C 4043.55 -2.21538 -0.538992 0
M  V30 42800 C 4044.54 -1.20042 -1.07138 0
M  V30 42801 O 4045.73 -1.45617 -1.00621 0
M  V30 42802 C 4042.86 -2.9866 -1.69284 0
M  V30 42803 C 4041.94 -4.07506 -1.17471 0
M  V30 42804 N 4042.34 -5.04391 -0.377276 0
M  V30 42805 C 4040.63 -4.21695 -1.45223 0
M  V30 42806 C 4041.33 -5.81619 -0.0969021 0
M  V30 42807 N 4040.31 -5.39245 -0.68668 0
M  V30 42808 H 4044.11 -2.93798 0.0774067 0
M  V30 42809 H 4041.63 -1.61767 0.143279 0
M  V30 42810 H 4043.62 -3.45568 -2.33213 0
M  V30 42811 H 4042.28 -2.27924 -2.31259 0
M  V30 42812 H 4043.29 -5.17897 -0.0189509 0
M  V30 42813 H 4039.97 -3.62178 -2.07686 0
M  V30 42814 H 4041.36 -6.69678 0.545926 0
M  V30 42815 N 4044.08 -0.0652232 -1.57465 0
M  V30 42816 C 4045.5 0.291387 -1.56917 0
M  V30 42817 C 4045.7 1.70487 -1.07408 0
M  V30 42818 O 4044.75 2.41505 -0.737001 0
M  V30 42819 C 4046.07 0.107035 -3.00509 0
M  V30 42820 C 4047.61 0.177072 -3.12499 0
M  V30 42821 C 4048.09 0.0210811 -4.57995 0
M  V30 42822 N 4049.58 0.076901 -4.63136 0
M  V30 42823 C 4050.32 -0.0194791 -5.73397 0
M  V30 42824 N 4049.81 -0.169007 -6.92594 0
M  V30 42825 N 4051.6 0.0371145 -5.62088 0
M  V30 42826 H 4043.76 -0.989094 -1.87965 0
M  V30 42827 H 4046.02 -0.385169 -0.866227 0
M  V30 42828 H 4045.72 -0.868065 -3.40819 0
M  V30 42829 H 4045.6 0.862145 -3.67215 0
M  V30 42830 H 4047.99 1.14265 -2.7208 0
M  V30 42831 H 4048.07 -0.60903 -2.48444 0
M  V30 42832 H 4047.71 -0.941238 -4.99102 0
M  V30 42833 H 4047.64 0.826505 -5.20074 0
M  V30 42834 H 4050.13 0.191147 -3.77416 0
M  V30 42835 H 4050.44 -0.234873 -7.72443 0
M  V30 42836 H 4048.79 -0.204281 -6.947 0
M  V30 42837 H 4051.98 0.152587 -4.67851 0
M  V30 42838 H 4052.15 -0.0414531 -6.47987 0
M  V30 42839 N 4045.56 1.56218 0.208282 0
M  V30 42840 C 4046.98 1.49507 0.558563 0
M  V30 42841 C 4047.18 0.762817 1.86503 0
M  V30 42842 O 4046.23 0.307912 2.50616 0
M  V30 42843 C 4047.54 2.94122 0.625505 0
M  V30 42844 C 4049.09 3.04719 0.715235 0
M  V30 42845 C 4049.57 4.50719 0.813405 0
M  V30 42846 N 4051.06 4.54816 0.87728 0
M  V30 42847 C 4051.79 5.65081 0.97318 0
M  V30 42848 N 4051.29 6.85067 1.0322 0
M  V30 42849 N 4053.08 5.52963 1.00935 0
M  V30 42850 H 4045.23 2.02246 -0.648862 0
M  V30 42851 H 4047.5 0.919816 -0.229441 0
M  V30 42852 H 4047.2 3.50699 -0.265118 0
M  V30 42853 H 4047.08 3.46753 1.48467 0
M  V30 42854 H 4049.46 2.48198 1.59629 0
M  V30 42855 H 4049.54 2.55235 -0.169863 0
M  V30 42856 H 4049.19 5.07861 -0.0632495 0
M  V30 42857 H 4049.12 4.97921 1.71411 0
M  V30 42858 H 4051.61 3.68413 0.841448 0
M  V30 42859 H 4051.92 7.64852 1.10552 0
M  V30 42860 H 4050.27 6.87752 1.0011 0
M  V30 42861 H 4053.46 4.58151 0.959985 0
M  V30 42862 H 4053.63 6.38926 1.08063 0
M  V30 42863 N 4047.04 -0.475502 1.50256 0
M  V30 42864 C 4048.45 -1.05648 1.53933 0
M  V30 42865 C 4048.8 -1.93227 0.340259 0
M  V30 42866 O 4047.92 -2.09364 -0.547312 0
M  V30 42867 C 4048.52 -1.92276 2.78954 0
M  V30 42868 C 4047.08 -2.4549 2.85327 0
M  V30 42869 C 4046.23 -1.23725 2.48168 0
M  V30 42870 H 4049.18 -0.258305 1.56584 0
M  V30 42871 H 4049.2 -2.77288 2.6056 0
M  V30 42872 H 4048.71 -1.28508 3.66207 0
M  V30 42873 H 4046.81 -3.12824 2.02416 0
M  V30 42874 H 4046.92 -2.80899 3.88114 0
M  V30 42875 H 4045.29 -1.57063 2.00508 0
M  V30 42876 H 4046.07 -0.616264 3.37723 0
M  V30 42877 N 4048.52 -1.39759 -0.72837 0
M  V30 42878 C 4049.74 -1.40631 -1.51758 0
M  V30 42879 C 4050.16 -0.00257228 -1.888 0
M  V30 42880 O 4049.52 0.9704 -1.54562 0
M  V30 42881 C 4049.57 -2.28533 -2.80098 0
M  V30 42882 O 4049.29 -3.63441 -2.44627 0
M  V30 42883 C 4050.79 -2.3786 -3.74082 0
M  V30 42884 H 4048.01 -0.480111 -0.468758 0
M  V30 42885 H 4050.55 -1.83655 -0.899497 0
M  V30 42886 H 4048.71 -1.88904 -3.38222 0
M  V30 42887 H 4049.12 -4.09994 -3.27117 0
M  V30 42888 H 4050.6 -3.03599 -4.61011 0
M  V30 42889 H 4051.07 -1.39975 -4.16298 0
M  V30 42890 H 4051.68 -2.77986 -3.21875 0
M  V30 42891 N 4049.99 0.959257 -1.25044 0
M  V30 42892 C 4051.24 1.69766 -1.08915 0
M  V30 42893 C 4051.56 1.92059 0.370524 0
M  V30 42894 O 4052.76 2.63551 0.652168 0
M  V30 42895 C 4051.22 3.0561 -1.90081 0
M  V30 42896 C 4050.83 2.9113 -3.40511 0
M  V30 42897 C 4052.57 3.83264 -1.82507 0
M  V30 42898 C 4050.48 4.22335 -4.13989 0
M  V30 42899 H 4049.41 0.636651 -0.40397 0
M  V30 42900 H 4052.06 1.06826 -1.492 0
M  V30 42901 H 4050.44 3.69428 -1.42616 0
M  V30 42902 H 4051.61 2.36272 -3.95616 0
M  V30 42903 H 4049.93 2.26934 -3.49127 0
M  V30 42904 H 4052.53 4.80437 -2.34701 0
M  V30 42905 H 4052.87 4.08696 -0.792019 0
M  V30 42906 H 4053.4 3.26188 -2.27697 0
M  V30 42907 H 4050.14 4.02094 -5.17688 0
M  V30 42908 H 4049.66 4.76976 -3.63668 0
M  V30 42909 H 4051.34 4.90905 -4.21451 0
M  V30 42910 N 4051.47 1.06556 1.16119 0
M  V30 42911 C 4052.38 0.689872 2.24227 0
M  V30 42912 C 4053.4 -0.295277 1.71476 0
M  V30 42913 O 4054.57 -0.143928 2.00885 0
M  V30 42914 C 4051.64 0.0848467 3.46596 0
M  V30 42915 C 4050.7 1.1222 4.14373 0
M  V30 42916 C 4049.93 0.545953 5.309 0
M  V30 42917 O 4050.16 -0.640488 5.66793 0
M  V30 42918 O 4049.09 1.28693 5.87981 0
M  V30 42919 H 4052.92 1.59122 2.58677 0
M  V30 42920 H 4050.5 0.837988 1.23686 0
M  V30 42921 H 4052.38 -0.25069 4.20654 0
M  V30 42922 H 4051.06 -0.789943 3.13913 0
M  V30 42923 H 4049.97 1.50996 3.42273 0
M  V30 42924 H 4051.3 1.96861 4.51117 0
M  V30 42925 N 4052.95 -1.32808 0.848511 0
M  V30 42926 C 4053.9 -2.29013 0.286676 0
M  V30 42927 C 4054.87 -1.54771 -0.602917 0
M  V30 42928 O 4056.05 -1.83024 -0.539137 0
M  V30 42929 C 4053.19 -3.41097 -0.524133 0
M  V30 42930 C 4052.31 -4.30231 0.390562 0
M  V30 42931 C 4051.44 -5.29438 -0.432283 0
M  V30 42932 C 4050.48 -6.10214 0.480197 0
M  V30 42933 N 4049.62 -7.01437 -0.305097 0
M  V30 42934 H 4054.46 -2.76461 1.11234 0
M  V30 42935 H 4051.99 -1.36024 0.55998 0
M  V30 42936 H 4053.95 -4.04795 -1.00979 0
M  V30 42937 H 4052.58 -2.94815 -1.31468 0
M  V30 42938 H 4051.63 -3.67168 0.994582 0
M  V30 42939 H 4052.95 -4.8672 1.09112 0
M  V30 42940 H 4052.1 -5.9871 -0.981366 0
M  V30 42941 H 4050.84 -4.73551 -1.16623 0
M  V30 42942 H 4049.84 -5.39851 1.04122 0
M  V30 42943 H 4051.07 -6.68185 1.21266 0
M  V30 42944 H 4049.01 -6.47986 -1.02225 0
M  V30 42945 H 4048.93 -7.55251 0.336546 0
M  V30 42946 H 4050.2 -7.75003 -0.836106 0
M  V30 42947 N 4054.43 -0.605858 -1.45489 0
M  V30 42948 C 4055.71 -0.0324441 -1.95573 0
M  V30 42949 C 4056.09 1.43494 -1.54831 0
M  V30 42950 O 4055.43 2.1366 -0.810043 0
M  V30 42951 C 4055.64 -0.228737 -3.4825 0
M  V30 42952 C 4056.99 -0.108634 -4.24461 0
M  V30 42953 O 4058.02 -0.158769 -3.55846 0
M  V30 42954 O 4056.87 0.00771798 -5.46499 0
M  V30 42955 H 4053.97 0.0367169 -0.826185 0
M  V30 42956 H 4056.51 -0.675798 -1.55663 0
M  V30 42957 H 4055.29 -1.24793 -3.70867 0
M  V30 42958 H 4054.91 0.449961 -3.95046 0
M  V30 42959 N 4055.91 1.53779 -0.34492 0
M  V30 42960 C 4057.15 2.01234 0.251544 0
M  V30 42961 C 4057.49 1.23232 1.50092 0
M  V30 42962 O 4056.76 0.320316 1.91844 0
M  V30 42963 C 4057.04 3.55651 0.564303 0
M  V30 42964 C 4056.9 4.44363 -0.697264 0
M  V30 42965 C 4058.22 4.18123 1.37336 0
M  V30 42966 H 4055.33 0.73149 0.0899515 0
M  V30 42967 H 4057.98 1.84204 -0.465729 0
M  V30 42968 H 4056.13 3.70294 1.17537 0
M  V30 42969 H 4057.8 4.41554 -1.3352 0
M  V30 42970 H 4056.04 4.13169 -1.32187 0
M  V30 42971 H 4056.71 5.50294 -0.433668 0
M  V30 42972 H 4059.19 4.07187 0.856638 0
M  V30 42973 H 4058.06 5.26237 1.56094 0
M  V30 42974 H 4058.33 3.72834 2.37586 0
M  V30 42975 N 4057.38 0.0735731 1.57428 0
M  V30 42976 C 4058.66 -0.636232 1.84963 0
M  V30 42977 C 4059.04 -1.87682 0.966374 0
M  V30 42978 O 4058.39 -2.28476 0.0331239 0
M  V30 42979 C 4058.6 -0.972192 3.35186 0
M  V30 42980 C 4059.95 -1.34491 4.02737 0
M  V30 42981 O 4060.97 -1.06387 3.39942 0
M  V30 42982 O 4059.83 -1.87034 5.13498 0
M  V30 42983 H 4056.92 -0.316174 0.764175 0
M  V30 42984 H 4059.47 0.104639 1.69377 0
M  V30 42985 H 4058.24 -0.0911631 3.91194 0
M  V30 42986 H 4057.87 -1.76977 3.56041 0
M  V30 42987 N 4058.86 -1.56326 -0.199995 0
M  V30 42988 C 4059.79 -1.97181 -1.25068 0
M  V30 42989 C 4060.77 -0.843056 -1.47738 0
M  V30 42990 O 4061.96 -1.10702 -1.59558 0
M  V30 42991 C 4059.09 -2.3071 -2.59596 0
M  V30 42992 C 4058.04 -3.46278 -2.51546 0
M  V30 42993 C 4057.37 -3.6547 -3.90302 0
M  V30 42994 C 4058.67 -4.80613 -2.04472 0
M  V30 42995 H 4060.36 -2.85198 -0.911188 0
M  V30 42996 H 4057.91 -1.37213 -0.436875 0
M  V30 42997 H 4059.86 -2.57885 -3.33276 0
M  V30 42998 H 4058.59 -1.39571 -2.95275 0
M  V30 42999 H 4057.24 -3.19186 -1.80322 0
M  V30 43000 H 4056.89 -2.71669 -4.23326 0
M  V30 43001 H 4056.59 -4.43213 -3.85792 0
M  V30 43002 H 4058.12 -3.95016 -4.65612 0
M  V30 43003 H 4059.53 -5.06851 -2.67908 0
M  V30 43004 H 4057.93 -5.61791 -2.10975 0
M  V30 43005 H 4059 -4.74524 -0.997745 0
M  V30 43006 N 4060.34 0.467527 -1.50506 0
M  V30 43007 C 4061.59 1.21694 -1.61354 0
M  V30 43008 C 4061.91 1.92396 -0.317617 0
M  V30 43009 O 4061.18 1.84264 0.66509 0
M  V30 43010 H 4059.76 0.452185 -0.59459 0
M  V30 43011 H 4062.42 0.538967 -1.873 0
M  V30 43012 H 4061.52 1.96292 -2.42644 0
M  V30 43013 N 4061.82 1.40143 0.720948 0
M  V30 43014 C 4062.78 1.3974 1.81674 0
M  V30 43015 C 4063.78 0.292096 1.58125 0
M  V30 43016 O 4064.97 0.550729 1.65265 0
M  V30 43017 C 4062.1 1.18387 3.19683 0
M  V30 43018 H 4063.3 2.37262 1.83431 0
M  V30 43019 H 4060.85 1.25913 0.926042 0
M  V30 43020 H 4061.58 0.216037 3.2358 0
M  V30 43021 H 4061.37 1.98445 3.38175 0
M  V30 43022 H 4062.86 1.2088 3.99722 0
M  V30 43023 N 4063.3 -0.952612 1.25551 0
M  V30 43024 C 4064.54 -1.69411 1.10201 0
M  V30 43025 C 4064.87 -1.91698 -0.357312 0
M  V30 43026 O 4064.14 -1.50552 -1.25343 0
M  V30 43027 H 4062.72 -0.6278 0.404816 0
M  V30 43028 H 4065.38 -1.14521 1.57705 0
M  V30 43029 H 4064.47 -2.67253 1.6119 0
M  V30 43030 N 4064.77 -1.0717 -1.15553 0
M  V30 43031 C 4066 -0.814803 -1.9018 0
M  V30 43032 C 4066.42 0.631798 -1.77915 0
M  V30 43033 O 4065.77 1.43322 -1.12983 0
M  V30 43034 C 4065.83 -1.21161 -3.40591 0
M  V30 43035 O 4065.55 -2.60146 -3.525 0
M  V30 43036 C 4067.05 -0.983751 -4.32247 0
M  V30 43037 H 4064.27 -0.294746 -0.602798 0
M  V30 43038 H 4066.81 -1.42767 -1.46417 0
M  V30 43039 H 4064.97 -0.643108 -3.82025 0
M  V30 43040 H 4065.38 -2.76283 -4.45834 0
M  V30 43041 H 4066.85 -1.31093 -5.36208 0
M  V30 43042 H 4067.33 0.080025 -4.39127 0
M  V30 43043 H 4067.94 -1.53707 -3.96553 0
M  V30 43044 N 4066.25 1.32356 -0.855542 0
M  V30 43045 C 4067.67 1.49988 -0.545517 0
M  V30 43046 C 4067.87 1.79085 0.923625 0
M  V30 43047 O 4066.93 1.86094 1.70661 0
M  V30 43048 C 4068.24 2.64344 -1.43327 0
M  V30 43049 C 4069.79 2.78229 -1.43379 0
M  V30 43050 C 4070.26 3.95666 -2.30678 0
M  V30 43051 N 4071.75 4.02929 -2.28479 0
M  V30 43052 C 4072.49 4.93034 -2.92754 0
M  V30 43053 N 4071.98 5.8814 -3.66146 0
M  V30 43054 N 4073.78 4.86163 -2.82138 0
M  V30 43055 H 4065.93 1.11735 -1.80635 0
M  V30 43056 H 4068.19 0.550792 -0.771578 0
M  V30 43057 H 4067.9 2.49574 -2.47802 0
M  V30 43058 H 4067.77 3.60148 -1.12131 0
M  V30 43059 H 4070.16 2.92422 -0.396693 0
M  V30 43060 H 4070.24 1.83136 -1.78591 0
M  V30 43061 H 4069.88 3.82232 -3.34456 0
M  V30 43062 H 4069.81 4.90037 -1.92798 0
M  V30 43063 H 4072.3 3.34875 -1.75121 0
M  V30 43064 H 4072.62 6.53592 -4.12355 0
M  V30 43065 H 4070.96 5.88164 -3.70254 0
M  V30 43066 H 4074.15 4.10833 -2.24351 0
M  V30 43067 H 4074.33 5.56183 -3.32512 0
M  V30 43068 N 4067.73 0.613565 1.45166 0
M  V30 43069 C 4068.68 -0.123308 2.27666 0
M  V30 43070 C 4069.67 -0.832908 1.37664 0
M  V30 43071 O 4070.86 -0.721912 1.61609 0
M  V30 43072 C 4067.99 -1.11604 3.24653 0
M  V30 43073 C 4067.07 -0.406971 4.22143 0
M  V30 43074 N 4067.46 0.554711 5.02749 0
M  V30 43075 C 4065.76 -0.653742 4.41183 0
M  V30 43076 C 4066.46 0.97204 5.73521 0
M  V30 43077 N 4065.44 0.31452 5.42689 0
M  V30 43078 H 4069.24 0.615225 2.87389 0
M  V30 43079 H 4066.75 0.437695 1.56391 0
M  V30 43080 H 4068.75 -1.65839 3.82496 0
M  V30 43081 H 4067.41 -1.85506 2.66491 0
M  V30 43082 H 4068.42 0.931734 5.0945 0
M  V30 43083 H 4065.1 -1.37698 3.94139 0
M  V30 43084 H 4066.49 1.76555 6.48289 0
M  V30 43085 N 4069.21 -1.53594 0.353071 0
M  V30 43086 C 4070.46 -2.01365 -0.240869 0
M  V30 43087 C 4070.79 -1.24026 -1.49436 0
M  V30 43088 O 4070.06 -0.330485 -1.91672 0
M  V30 43089 C 4070.35 -3.55945 -0.545434 0
M  V30 43090 C 4070.2 -4.43987 0.72082 0
M  V30 43091 C 4071.52 -4.18846 -1.35116 0
M  V30 43092 H 4068.64 -0.731957 -0.0860709 0
M  V30 43093 H 4071.28 -1.83954 0.475491 0
M  V30 43094 H 4069.43 -3.70912 -1.15571 0
M  V30 43095 H 4071.1 -4.4084 1.35859 0
M  V30 43096 H 4069.34 -4.12463 1.34377 0
M  V30 43097 H 4070.02 -5.50056 0.462845 0
M  V30 43098 H 4072.49 -4.07635 -0.835032 0
M  V30 43099 H 4071.37 -5.27058 -1.53301 0
M  V30 43100 H 4071.63 -3.74089 -2.35606 0
M  V30 43101 N 4070.69 -0.0819208 -1.57387 0
M  V30 43102 C 4071.64 0.899348 -2.1451 0
M  V30 43103 C 4072.63 1.3013 -1.08455 0
M  V30 43104 O 4073.84 1.27736 -1.2682 0
M  V30 43105 H 4070.21 0.308006 -0.686029 0
M  V30 43106 H 4072.18 0.392734 -2.95804 0
M  V30 43107 C 4070.93 2.1537 -2.72967 0
M  V30 43108 H 4070.25 1.85327 -3.54251 0
M  V30 43109 H 4071.69 2.82119 -3.1652 0
M  V30 43110 C 4070.15 2.91898 -1.68217 0
M  V30 43111 O 4070.68 3.85967 -1.11321 0
M  V30 43112 N 4068.89 2.55192 -1.39015 0
M  V30 43113 H 4068.44 1.78768 -1.85472 0
M  V30 43114 H 4068.39 3.06698 -0.691636 0
M  V30 43115 N 4072.17 1.5643 0.191702 0
M  V30 43116 C 4073.13 1.93954 1.22124 0
M  V30 43117 C 4074.13 0.821009 1.38261 0
M  V30 43118 O 4075.32 1.08838 1.36015 0
M  V30 43119 C 4072.45 2.21655 2.59001 0
M  V30 43120 H 4073.64 2.86064 0.900408 0
M  V30 43121 H 4071.2 1.50172 0.433356 0
M  V30 43122 H 4071.93 1.32194 2.96134 0
M  V30 43123 H 4071.72 3.03168 2.4866 0
M  V30 43124 H 4073.21 2.51679 3.33237 0
M  V30 43125 N 4073.64 -0.459538 1.50751 0
M  V30 43126 C 4074.55 -1.58168 1.73263 0
M  V30 43127 C 4075.57 -1.62729 0.616071 0
M  V30 43128 O 4076.75 -1.80383 0.895758 0
M  V30 43129 C 4073.81 -2.94311 1.83254 0
M  V30 43130 C 4072.87 -3.00046 3.07036 0
M  V30 43131 C 4072.1 -4.29694 3.16541 0
M  V30 43132 O 4072.33 -5.20846 2.32541 0
M  V30 43133 O 4071.26 -4.41259 4.09358 0
M  V30 43134 H 4075.09 -1.42093 2.68409 0
M  V30 43135 H 4072.67 -0.640249 1.34986 0
M  V30 43136 H 4074.55 -3.75149 1.9194 0
M  V30 43137 H 4073.23 -3.10559 0.912941 0
M  V30 43138 H 4072.14 -2.18242 3.03844 0
M  V30 43139 H 4073.47 -2.88736 3.98613 0
M  V30 43140 N 4075.12 -1.40523 -0.713506 0
M  V30 43141 C 4076.53 -1.34704 -1.29273 0
M  V30 43142 C 4076.88 -0.0215207 -1.96188 0
M  V30 43143 O 4076.01 0.880479 -1.97678 0
M  V30 43144 C 4076.6 -2.43975 -2.35078 0
M  V30 43145 C 4075.16 -2.4161 -2.8862 0
M  V30 43146 C 4074.31 -2.24746 -1.62433 0
M  V30 43147 H 4077.26 -1.50299 -0.50949 0
M  V30 43148 H 4077.28 -2.12002 -3.15968 0
M  V30 43149 H 4076.79 -3.40436 -1.86347 0
M  V30 43150 H 4074.89 -1.48853 -3.41575 0
M  V30 43151 H 4075.01 -3.37271 -3.40272 0
M  V30 43152 H 4073.37 -1.72299 -1.87577 0
M  V30 43153 H 4074.15 -3.23207 -1.15724 0
M  V30 43154 N 4076.6 0.94594 -1.26054 0
M  V30 43155 C 4077.51 2.0776 -1.08962 0
M  V30 43156 C 4078.53 1.73983 -0.0244032 0
M  V30 43157 O 4079.7 2.00115 -0.227149 0
M  V30 43158 C 4076.77 3.39154 -0.719425 0
M  V30 43159 C 4075.83 3.86744 -1.86354 0
M  V30 43160 C 4075.06 5.11866 -1.51091 0
M  V30 43161 O 4075.28 5.68921 -0.410477 0
M  V30 43162 O 4074.22 5.54381 -2.34405 0
M  V30 43163 H 4078.04 2.25085 -2.03888 0
M  V30 43164 H 4075.63 1.06208 -1.05073 0
M  V30 43165 H 4077.51 4.18111 -0.525485 0
M  V30 43166 H 4076.19 3.23079 0.200484 0
M  V30 43167 H 4075.09 3.08753 -2.11241 0
M  V30 43168 H 4076.43 4.07332 -2.763 0
M  V30 43169 N 4078.08 1.07781 1.14983 0
M  V30 43170 C 4079.31 0.824878 1.89746 0
M  V30 43171 C 4079.72 -0.622353 1.78248 0
M  V30 43172 O 4079.08 -1.42721 1.13741 0
M  V30 43173 C 4079.13 1.22966 3.39944 0
M  V30 43174 O 4078.85 2.62011 3.51115 0
M  V30 43175 C 4080.35 1.00666 4.31719 0
M  V30 43176 H 4077.57 0.297938 0.601227 0
M  V30 43177 H 4080.11 1.43541 1.45657 0
M  V30 43178 H 4078.27 0.663359 3.81678 0
M  V30 43179 H 4078.68 2.78643 4.44363 0
M  V30 43180 H 4080.16 1.33935 5.35505 0
M  V30 43181 H 4080.63 -0.0567359 4.39163 0
M  V30 43182 H 4081.24 1.55808 3.95732 0
M  V30 43183 N 4079.56 -1.31901 0.862549 0
M  V30 43184 C 4080.97 -1.79214 0.523376 0
M  V30 43185 C 4081.32 -1.7115 -0.95928 0
M  V30 43186 O 4080.44 -1.27479 -1.74866 0
M  V30 43187 C 4081.04 -3.25405 0.943252 0
M  V30 43188 C 4079.6 -3.70642 0.655854 0
M  V30 43189 C 4078.74 -2.52844 1.13866 0
M  V30 43190 H 4081.69 -1.19088 1.04899 0
M  V30 43191 H 4081.72 -3.79591 0.26286 0
M  V30 43192 H 4081.23 -3.31242 2.02238 0
M  V30 43193 H 4079.33 -3.70313 -0.412226 0
M  V30 43194 H 4079.44 -4.63103 1.22768 0
M  V30 43195 H 4077.81 -2.48498 0.558659 0
M  V30 43196 H 4078.59 -2.61431 2.22506 0
M  V30 43197 N 4081.03 -0.621255 -1.44838 0
M  V30 43198 C 4081.98 0.10186 -2.32377 0
M  V30 43199 C 4082.98 0.845836 -1.46772 0
M  V30 43200 O 4084.18 0.759854 -1.63175 0
M  V30 43201 H 4080.56 0.0517011 -0.750221 0
M  V30 43202 H 4082.53 -0.654675 -2.9113 0
M  V30 43203 C 4081.28 1.07659 -3.30613 0
M  V30 43204 H 4080.6 0.513542 -3.96488 0
M  V30 43205 H 4082.04 1.55223 -3.94565 0
M  V30 43206 C 4080.5 2.15696 -2.58799 0
M  V30 43207 O 4081.03 3.23638 -2.37953 0
M  V30 43208 N 4079.24 1.91356 -2.18703 0
M  V30 43209 H 4078.78 1.0358 -2.35858 0
M  V30 43210 H 4078.74 2.63844 -1.70979 0
M  V30 43211 N 4082.51 1.53405 -0.361211 0
M  V30 43212 C 4083.45 2.21941 0.530792 0
M  V30 43213 C 4084.42 1.20975 1.08645 0
M  V30 43214 O 4085.61 1.49862 1.1434 0
M  V30 43215 C 4082.73 2.9107 1.73193 0
M  V30 43216 C 4081.78 4.06073 1.30412 0
M  V30 43217 S 4082.61 5.34607 0.309076 0
M  V30 43218 C 4083.77 6.07247 1.51664 0
M  V30 43219 H 4084 2.97256 -0.0512835 0
M  V30 43220 H 4081.54 1.53715 -0.145308 0
M  V30 43221 H 4083.49 3.31514 2.42092 0
M  V30 43222 H 4082.15 2.15489 2.28525 0
M  V30 43223 H 4081.35 4.53441 2.20016 0
M  V30 43224 H 4080.95 3.67497 0.69439 0
M  V30 43225 H 4083.24 6.31713 2.44836 0
M  V30 43226 H 4084.18 6.99747 1.08442 0
M  V30 43227 H 4084.59 5.37635 1.72071 0
M  V30 43228 N 4083.99 0.0902663 1.57341 0
M  V30 43229 C 4085.27 -0.616579 1.85628 0
M  V30 43230 C 4085.65 -1.86646 0.986226 0
M  V30 43231 O 4085 -2.28428 0.0573549 0
M  V30 43232 C 4085.21 -0.936586 3.36198 0
M  V30 43233 C 4086.55 -1.30212 4.04141 0
M  V30 43234 O 4087.58 -1.02775 3.41051 0
M  V30 43235 O 4086.44 -1.81577 5.15453 0
M  V30 43236 H 4083.53 -0.308051 0.767485 0
M  V30 43237 H 4086.08 0.122598 1.69257 0
M  V30 43238 H 4084.85 -0.0496666 3.91268 0
M  V30 43239 H 4084.47 -1.7319 3.57898 0
M  V30 43240 N 4085.47 -1.56529 -0.183403 0
M  V30 43241 C 4086.71 -1.81572 -0.9033 0
M  V30 43242 C 4087.05 -0.666199 -1.82416 0
M  V30 43243 O 4086.32 0.332587 -1.91635 0
M  V30 43244 C 4086.61 -3.16939 -1.70944 0
M  V30 43245 C 4086.46 -4.424 -0.812517 0
M  V30 43246 C 4087.78 -3.49118 -2.67964 0
M  V30 43247 H 4084.9 -0.66051 -0.32695 0
M  V30 43248 H 4087.54 -1.89237 -0.170082 0
M  V30 43249 H 4085.69 -3.10535 -2.33453 0
M  V30 43250 H 4087.36 -4.60861 -0.201232 0
M  V30 43251 H 4085.6 -4.33634 -0.119873 0
M  V30 43252 H 4086.27 -5.3364 -1.41181 0
M  V30 43253 H 4088.75 -3.55897 -2.15584 0
M  V30 43254 H 4087.63 -4.44933 -3.21443 0
M  V30 43255 H 4087.89 -2.73205 -3.47579 0
M  V30 43256 N 4086.95 0.451537 -1.50993 0
M  V30 43257 C 4088.2 1.199 -1.62194 0
M  V30 43258 C 4088.51 1.92673 -0.337119 0
M  V30 43259 O 4089.71 2.69508 -0.328296 0
M  V30 43260 C 4088.17 2.17973 -2.86384 0
M  V30 43261 C 4087.78 1.50913 -4.21816 0
M  V30 43262 C 4089.52 2.9324 -3.06937 0
M  V30 43263 C 4087.43 2.47387 -5.37172 0
M  V30 43264 H 4086.36 0.451241 -0.604068 0
M  V30 43265 H 4089.01 0.467451 -1.77446 0
M  V30 43266 H 4087.39 2.94503 -2.64734 0
M  V30 43267 H 4088.57 0.800386 -4.53796 0
M  V30 43268 H 4086.88 0.878533 -4.07027 0
M  V30 43269 H 4089.48 3.65481 -3.90292 0
M  V30 43270 H 4089.82 3.53766 -2.19443 0
M  V30 43271 H 4090.35 2.2382 -3.28861 0
M  V30 43272 H 4087.09 1.91571 -6.26882 0
M  V30 43273 H 4086.61 3.16356 -5.09587 0
M  V30 43274 H 4088.29 3.08814 -5.68545 0
M  V30 43275 N 4088.42 1.409 0.706044 0
M  V30 43276 C 4089.67 1.39417 1.46312 0
M  V30 43277 C 4089.99 0.000530869 1.95 0
M  V30 43278 O 4089.26 -0.955874 1.70997 0
M  V30 43279 H 4087.84 0.513145 0.542854 0
M  V30 43280 H 4090.51 1.76042 0.836365 0
M  V30 43281 H 4089.6 2.07495 2.33136 0
M  V30 43282 N 4089.9 -0.939242 1.26554 0
M  V30 43283 C 4090.81 -2.0718 1.10063 0
M  V30 43284 C 4091.83 -1.73967 0.0336296 0
M  V30 43285 O 4093 -1.99992 0.237758 0
M  V30 43286 C 4090.07 -3.38767 0.737401 0
M  V30 43287 C 4089.13 -3.8575 1.88402 0
M  V30 43288 C 4088.36 -5.11058 1.53803 0
M  V30 43289 O 4088.59 -5.68695 0.440643 0
M  V30 43290 O 4087.52 -5.5313 2.37342 0
M  V30 43291 H 4091.35 -2.24001 2.05079 0
M  V30 43292 H 4088.93 -1.05649 1.05634 0
M  V30 43293 H 4090.81 -4.17826 0.547651 0
M  V30 43294 H 4089.49 -3.2318 -0.183347 0
M  V30 43295 H 4088.4 -3.07628 2.12875 0
M  V30 43296 H 4089.73 -4.05861 2.78456 0
M  V30 43297 N 4091.38 -1.08389 -1.14409 0
M  V30 43298 C 4092.8 -0.811488 -1.3743 0
M  V30 43299 C 4093 0.579312 -1.92993 0
M  V30 43300 O 4092.05 1.33614 -2.14251 0
M  V30 43301 C 4093.37 -1.89402 -2.33554 0
M  V30 43302 C 4094.91 -1.92001 -2.47194 0
M  V30 43303 C 4095.39 -2.99367 -3.46617 0
M  V30 43304 N 4096.88 -2.98538 -3.5416 0
M  V30 43305 C 4097.61 -3.78257 -4.3094 0
M  V30 43306 N 4097.11 -4.67855 -5.10964 0
M  V30 43307 N 4098.9 -3.6656 -4.26134 0
M  V30 43308 H 4091.05 -1.98072 -0.766906 0
M  V30 43309 H 4093.32 -0.859548 -0.399851 0
M  V30 43310 H 4093.02 -2.89392 -1.99863 0
M  V30 43311 H 4092.9 -1.76316 -3.33456 0
M  V30 43312 H 4095.28 -0.926563 -2.80176 0
M  V30 43313 H 4095.37 -2.09165 -1.47254 0
M  V30 43314 H 4095.01 -3.98918 -3.14367 0
M  V30 43315 H 4094.94 -2.79448 -4.46337 0
M  V30 43316 H 4097.43 -2.33598 -2.97053 0
M  V30 43317 H 4097.74 -5.2529 -5.66825 0
M  V30 43318 H 4096.09 -4.71897 -5.10233 0
M  V30 43319 H 4099.28 -2.95931 -3.62688 0
M  V30 43320 H 4099.45 -4.28928 -4.85721 0
M  V30 43321 N 4092.86 1.31442 -0.869532 0
M  V30 43322 C 4094.11 1.95993 -0.476392 0
M  V30 43323 C 4094.42 1.69496 0.976238 0
M  V30 43324 O 4095.63 2.27906 1.47551 0
M  V30 43325 C 4094.08 3.50873 -0.800999 0
M  V30 43326 C 4093.69 3.86211 -2.27036 0
M  V30 43327 C 4095.43 4.21819 -0.476308 0
M  V30 43328 C 4093.34 5.342 -2.5374 0
M  V30 43329 H 4092.27 0.733549 -0.17442 0
M  V30 43330 H 4094.92 1.49619 -1.06237 0
M  V30 43331 H 4093.3 3.95737 -0.144275 0
M  V30 43332 H 4094.48 3.52308 -2.97011 0
M  V30 43333 H 4092.79 3.28329 -2.56104 0
M  V30 43334 H 4095.39 5.30697 -0.653059 0
M  V30 43335 H 4095.73 4.12194 0.583221 0
M  V30 43336 H 4096.27 3.82588 -1.08956 0
M  V30 43337 H 4093.01 5.48861 -3.58375 0
M  V30 43338 H 4092.53 5.69457 -1.88359 0
M  V30 43339 H 4094.2 6.01458 -2.38447 0
M  V30 43340 N 4094.34 0.628927 1.44507 0
M  V30 43341 C 4095.28 -0.0773092 2.3067 0
M  V30 43342 C 4096.25 -0.838978 1.43354 0
M  V30 43343 O 4097.44 -0.820457 1.72259 0
M  V30 43344 C 4094.58 -1.05441 3.28597 0
M  V30 43345 C 4093.69 -0.291389 4.31016 0
M  V30 43346 C 4092.83 -1.26011 5.16037 0
M  V30 43347 C 4091.87 -0.486122 6.10167 0
M  V30 43348 N 4091 -1.40519 6.87894 0
M  V30 43349 H 4095.84 0.663397 2.90522 0
M  V30 43350 H 4093.38 0.338931 1.43142 0
M  V30 43351 H 4095.34 -1.63426 3.83859 0
M  V30 43352 H 4093.97 -1.76227 2.70451 0
M  V30 43353 H 4093.02 0.404351 3.78245 0
M  V30 43354 H 4094.33 0.311535 4.97826 0
M  V30 43355 H 4093.49 -1.91137 5.75805 0
M  V30 43356 H 4092.22 -1.89696 4.49296 0
M  V30 43357 H 4091.23 0.17864 5.4951 0
M  V30 43358 H 4092.45 0.145979 6.78943 0
M  V30 43359 H 4090.4 -2.02929 6.23823 0
M  V30 43360 H 4090.32 -0.856237 7.51136 0
M  V30 43361 H 4091.59 -2.04536 7.52187 0
M  V30 43362 N 4095.82 -1.53211 0.369342 0
M  V30 43363 C 4097.23 -1.59589 0.0184396 0
M  V30 43364 C 4097.43 -1.3843 -1.46422 0
M  V30 43365 O 4096.49 -1.19134 -2.22628 0
M  V30 43366 C 4097.8 -2.96881 0.477745 0
M  V30 43367 C 4099.35 -3.1 0.432287 0
M  V30 43368 C 4099.82 -4.4971 0.867465 0
M  V30 43369 N 4101.31 -4.55836 0.822674 0
M  V30 43370 C 4102.05 -5.62134 1.13104 0
M  V30 43371 N 4101.55 -6.76169 1.50888 0
M  V30 43372 N 4103.34 -5.52138 1.05359 0
M  V30 43373 H 4095.49 -1.65216 1.33482 0
M  V30 43374 H 4097.75 -0.775091 0.545836 0
M  V30 43375 H 4097.46 -3.17516 1.5125 0
M  V30 43376 H 4097.33 -3.76963 -0.133675 0
M  V30 43377 H 4099.72 -2.89073 -0.593346 0
M  V30 43378 H 4099.8 -2.31918 1.07925 0
M  V30 43379 H 4099.44 -4.71375 1.89123 0
M  V30 43380 H 4099.37 -5.26229 0.197712 0
M  V30 43381 H 4101.87 -3.73959 0.544369 0
M  V30 43382 H 4102.18 -7.53225 1.72834 0
M  V30 43383 H 4100.52 -6.77551 1.54757 0
M  V30 43384 H 4103.71 -4.61929 0.757568 0
M  V30 43385 H 4103.89 -6.34882 1.29724 0
M  V30 43386 N 4097.29 -0.0986092 -1.57291 0
M  V30 43387 C 4098.54 0.563977 -1.93655 0
M  V30 43388 C 4098.86 1.69119 -0.982752 0
M  V30 43389 O 4100.06 2.41517 -1.24024 0
M  V30 43390 C 4098.52 1.0546 -3.44102 0
M  V30 43391 C 4098.13 -0.043053 -4.47979 0
M  V30 43392 C 4099.87 1.68972 -3.89421 0
M  V30 43393 C 4097.78 0.463123 -5.89584 0
M  V30 43394 H 4096.71 0.214444 -0.722862 0
M  V30 43395 H 4099.36 -0.175178 -1.82662 0
M  V30 43396 H 4097.74 1.84755 -3.50259 0
M  V30 43397 H 4098.91 -0.818667 -4.53469 0
M  V30 43398 H 4097.23 -0.583573 -4.1229 0
M  V30 43399 H 4099.83 2.07921 -4.92618 0
M  V30 43400 H 4100.17 2.56026 -3.28263 0
M  V30 43401 H 4100.7 0.962534 -3.85979 0
M  V30 43402 H 4097.44 -0.370882 -6.5445 0
M  V30 43403 H 4096.96 1.20566 -5.87557 0
M  V30 43404 H 4098.64 0.930959 -6.40267 0
M  V30 43405 N 4098.77 1.56624 0.175099 0
M  V30 43406 C 4099.72 1.96116 1.21684 0
M  V30 43407 C 4100.69 0.824544 1.44189 0
M  V30 43408 O 4101.87 1.08435 1.56992 0
M  V30 43409 C 4099.01 2.32305 2.55203 0
M  V30 43410 C 4098.13 3.59126 2.40109 0
M  V30 43411 C 4097.26 3.84545 3.66468 0
M  V30 43412 C 4096.3 5.04727 3.46291 0
M  V30 43413 N 4095.44 5.26297 4.64711 0
M  V30 43414 H 4100.28 2.84924 0.873056 0
M  V30 43415 H 4097.81 1.40986 0.419696 0
M  V30 43416 H 4099.77 2.51307 3.33017 0
M  V30 43417 H 4098.4 1.46613 2.87584 0
M  V30 43418 H 4097.45 3.48059 1.5349 0
M  V30 43419 H 4098.77 4.47098 2.21143 0
M  V30 43420 H 4097.92 4.03894 4.52719 0
M  V30 43421 H 4096.66 2.94941 3.88409 0
M  V30 43422 H 4095.66 4.85279 2.58427 0
M  V30 43423 H 4096.89 5.95858 3.25777 0
M  V30 43424 H 4094.84 4.39644 4.86877 0
M  V30 43425 H 4094.75 6.08485 4.48645 0
M  V30 43426 H 4096.02 5.50122 5.52255 0
M  V30 43427 N 4100.25 -0.443523 1.5123 0
M  V30 43428 C 4101.16 -1.56321 1.74931 0
M  V30 43429 C 4102.18 -1.62066 0.633296 0
M  V30 43430 O 4103.35 -1.79423 0.91484 0
M  V30 43431 C 4100.42 -2.9235 1.86366 0
M  V30 43432 C 4099.48 -2.96772 3.10201 0
M  V30 43433 C 4098.71 -4.26313 3.21081 0
M  V30 43434 O 4098.93 -5.18351 2.38052 0
M  V30 43435 O 4097.87 -4.36892 4.14015 0
M  V30 43436 H 4101.69 -1.39239 2.69901 0
M  V30 43437 H 4099.28 -0.625896 1.35657 0
M  V30 43438 H 4101.16 -3.73093 1.95908 0
M  V30 43439 H 4099.84 -3.09574 0.945829 0
M  V30 43440 H 4098.74 -2.15007 3.06142 0
M  V30 43441 H 4100.08 -2.84492 4.01653 0
M  V30 43442 N 4101.73 -1.41272 -0.698562 0
M  V30 43443 C 4102.64 -1.45237 -1.84237 0
M  V30 43444 C 4103.65 -0.343255 -1.70581 0
M  V30 43445 O 4104.83 -0.590511 -1.92549 0
M  V30 43446 C 4101.89 -1.32957 -3.20193 0
M  V30 43447 C 4100.96 -2.54159 -3.4598 0
M  V30 43448 C 4100.19 -2.42455 -4.75449 0
M  V30 43449 O 4100.41 -1.4475 -5.51728 0
M  V30 43450 O 4099.35 -3.32156 -5.01952 0
M  V30 43451 H 4103.17 -2.4173 -1.83848 0
M  V30 43452 H 4100.76 -1.22778 -0.85123 0
M  V30 43453 H 4102.64 -1.28381 -4.01368 0
M  V30 43454 H 4101.31 -0.395784 -3.21271 0
M  V30 43455 H 4100.22 -2.64311 -2.64746 0
M  V30 43456 H 4101.55 -3.46355 -3.49712 0
M  V30 43457 N 4103.21 0.932517 -1.27051 0
M  V30 43458 C 4104.16 2.01851 -1.06019 0
M  V30 43459 C 4105.14 1.60897 0.0102463 0
M  V30 43460 O 4106.33 1.75777 -0.207729 0
M  V30 43461 C 4103.46 3.35997 -0.70433 0
M  V30 43462 C 4102.55 3.8341 -1.81267 0
M  V30 43463 N 4102.94 4.03383 -3.05149 0
M  V30 43464 C 4101.24 4.12402 -1.69825 0
M  V30 43465 C 4101.94 4.42791 -3.77241 0
M  V30 43466 N 4100.91 4.49989 -3.04977 0
M  V30 43467 H 4104.71 2.15317 -2.00039 0
M  V30 43468 H 4102.23 1.119 -1.17695 0
M  V30 43469 H 4104.23 4.13456 -0.534788 0
M  V30 43470 H 4102.89 3.23896 0.228297 0
M  V30 43471 H 4103.9 3.89827 -3.40962 0
M  V30 43472 H 4100.57 4.09042 -0.83612 0
M  V30 43473 H 4101.96 4.66364 -4.83688 0
M  V30 43474 N 4104.68 1.08995 1.13833 0
M  V30 43475 C 4105.91 0.845105 1.89401 0
M  V30 43476 C 4106.33 -0.59761 1.78354 0
M  V30 43477 O 4105.69 -1.4194 1.12796 0
M  V30 43478 C 4105.74 1.27937 3.37142 0
M  V30 43479 O 4104.84 0.435047 4.10099 0
M  V30 43480 H 4104.18 0.306438 0.58906 0
M  V30 43481 H 4106.71 1.45293 1.44052 0
M  V30 43482 H 4106.72 1.26284 3.87964 0
M  V30 43483 H 4105.4 2.33008 3.445 0
M  V30 43484 H 4103.98 0.515512 3.69319 0
M  V30 43485 N 4106.16 -1.30979 0.87649 0
M  V30 43486 C 4107.39 -2.01169 0.50456 0
M  V30 43487 C 4107.81 -1.6532 -0.897266 0
M  V30 43488 O 4107.17 -0.865283 -1.59319 0
M  V30 43489 C 4107.22 -3.54196 0.676579 0
M  V30 43490 O 4106.32 -4.1144 -0.281267 0
M  V30 43491 H 4105.66 -0.633206 0.199866 0
M  V30 43492 H 4108.19 -1.67024 1.1817 0
M  V30 43493 H 4108.2 -4.03966 0.572344 0
M  V30 43494 H 4106.88 -3.79627 1.6987 0
M  V30 43495 H 4105.45 -3.72668 -0.131441 0
M  V30 43496 N 4107.64 -0.636582 -1.44171 0
M  V30 43497 C 4108.87 -0.150492 -2.06352 0
M  V30 43498 C 4109.28 1.17715 -1.4761 0
M  V30 43499 O 4108.64 1.72319 -0.601033 0
M  V30 43500 C 4108.69 -0.0354294 -3.61483 0
M  V30 43501 O 4108.41 -1.31057 -4.18038 0
M  V30 43502 C 4109.91 0.478712 -4.40708 0
M  V30 43503 H 4107.13 -0.0821924 -0.665947 0
M  V30 43504 H 4109.68 -0.872528 -1.84952 0
M  V30 43505 H 4107.83 0.637075 -3.82126 0
M  V30 43506 H 4108.25 -1.15895 -5.11536 0
M  V30 43507 H 4109.72 0.508219 -5.49655 0
M  V30 43508 H 4110.2 1.50683 -4.12542 0
M  V30 43509 H 4110.8 -0.160729 -4.24996 0
M  V30 43510 N 4109.12 1.53013 -0.377462 0
M  V30 43511 C 4110.36 2.02401 0.201326 0
M  V30 43512 C 4110.72 1.25945 1.4545 0
M  V30 43513 O 4110.01 0.348021 1.88413 0
M  V30 43514 C 4110.21 3.53379 0.534597 0
M  V30 43515 C 4110.03 4.44457 -0.684725 0
M  V30 43516 C 4108.8 4.90834 -1.20041 0
M  V30 43517 C 4111 4.90276 -1.55352 0
M  V30 43518 N 4108.98 5.6595 -2.37852 0
M  V30 43519 C 4110.36 5.63854 -2.57816 0
M  V30 43520 C 4112.41 4.72333 -1.575 0
M  V30 43521 C 4111.11 6.21395 -3.62299 0
M  V30 43522 C 4113.14 5.30748 -2.60884 0
M  V30 43523 C 4112.5 6.04222 -3.62071 0
M  V30 43524 H 4108.6 0.781168 0.0360709 0
M  V30 43525 H 4111.18 1.87497 -0.524685 0
M  V30 43526 H 4109.36 3.6842 1.22967 0
M  V30 43527 H 4111.09 3.89478 1.09951 0
M  V30 43528 H 4107.84 4.6741 -0.763213 0
M  V30 43529 H 4108.27 6.08165 -2.97429 0
M  V30 43530 H 4112.91 4.15042 -0.806205 0
M  V30 43531 H 4110.63 6.77774 -4.40054 0
M  V30 43532 H 4114.21 5.18752 -2.63415 0
M  V30 43533 H 4113.09 6.48617 -4.40756 0
M  V30 43534 N 4110.6 0.106949 1.57237 0
M  V30 43535 C 4111.55 -0.85857 2.11217 0
M  V30 43536 C 4112.53 -1.2361 1.03002 0
M  V30 43537 O 4113.72 -1.2092 1.29257 0
M  V30 43538 C 4110.85 -2.11319 2.70553 0
M  V30 43539 C 4109.94 -1.76057 3.8583 0
M  V30 43540 N 4110.33 -1.1141 4.93378 0
M  V30 43541 C 4108.63 -2.05592 3.95788 0
M  V30 43542 C 4109.33 -0.950214 5.73887 0
M  V30 43543 N 4108.3 -1.47135 5.23309 0
M  V30 43544 H 4112.11 -0.355004 2.91748 0
M  V30 43545 H 4109.62 -0.0959007 1.62117 0
M  V30 43546 H 4111.62 -2.81445 3.07562 0
M  V30 43547 H 4110.28 -2.62231 1.91481 0
M  V30 43548 H 4111.29 -0.779504 5.12 0
M  V30 43549 H 4107.96 -2.58635 3.27741 0
M  V30 43550 H 4109.35 -0.443712 6.70433 0
M  V30 43551 N 4112.07 -1.56715 -0.166791 0
M  V30 43552 C 4113.3 -1.86119 -0.896834 0
M  V30 43553 C 4113.71 -0.690815 -1.76137 0
M  V30 43554 O 4113.06 0.349159 -1.80351 0
M  V30 43555 C 4113.12 -3.09992 -1.82059 0
M  V30 43556 C 4112.78 -4.42676 -1.1352 0
M  V30 43557 C 4113.78 -5.17505 -0.498494 0
M  V30 43558 C 4111.46 -4.89411 -1.1306 0
M  V30 43559 C 4113.46 -6.3726 0.133652 0
M  V30 43560 C 4111.14 -6.09095 -0.494634 0
M  V30 43561 C 4112.14 -6.82864 0.136385 0
M  V30 43562 O 4111.83 -8.00277 0.762315 0
M  V30 43563 H 4111.56 -0.621571 -0.265754 0
M  V30 43564 H 4114.12 -2.04692 -0.170348 0
M  V30 43565 H 4112.35 -2.87376 -2.5875 0
M  V30 43566 H 4114.04 -3.25806 -2.42086 0
M  V30 43567 H 4114.8 -4.82478 -0.493988 0
M  V30 43568 H 4110.68 -4.31929 -1.61116 0
M  V30 43569 H 4114.22 -6.94779 0.626783 0
M  V30 43570 H 4110.12 -6.43586 -0.496738 0
M  V30 43571 H 4110.89 -8.15818 0.662014 0
M  V30 43572 N 4113.55 0.435497 -1.51463 0
M  V30 43573 C 4114.83 1.19612 -1.54765 0
M  V30 43574 C 4115.21 2.08767 -0.313006 0
M  V30 43575 O 4114.56 2.17456 0.701796 0
M  V30 43576 C 4114.77 1.99637 -2.86262 0
M  V30 43577 C 4116.12 2.56615 -3.38281 0
M  V30 43578 O 4117.14 2.09846 -2.87825 0
M  V30 43579 O 4116 3.41922 -4.26324 0
M  V30 43580 H 4113.09 0.544673 -0.622303 0
M  V30 43581 H 4115.64 0.444417 -1.63777 0
M  V30 43582 H 4114.41 1.34166 -3.6758 0
M  V30 43583 H 4114.03 2.81869 -2.80421 0
M  V30 43584 N 4115.03 1.41641 0.69106 0
M  V30 43585 C 4116.31 1.31729 1.44592 0
M  V30 43586 C 4116.69 -0.0530253 2.11033 0
M  V30 43587 O 4116.04 -1.06755 2.02029 0
M  V30 43588 C 4116.25 2.47392 2.46167 0
M  V30 43589 C 4117.59 2.88764 3.11288 0
M  V30 43590 O 4118.62 2.47164 2.56492 0
M  V30 43591 O 4117.48 3.60715 4.10545 0
M  V30 43592 H 4114.57 0.518647 0.644154 0
M  V30 43593 H 4117.12 1.53615 0.721157 0
M  V30 43594 H 4115.89 3.38813 1.95758 0
M  V30 43595 H 4115.51 2.27407 3.26147 0
M  V30 43596 N 4116.51 -0.925766 1.27543 0
M  V30 43597 C 4117.42 -2.06001 1.12254 0
M  V30 43598 C 4118.43 -1.73922 0.0520793 0
M  V30 43599 O 4119.61 -1.99728 0.258956 0
M  V30 43600 C 4116.68 -3.37966 0.77329 0
M  V30 43601 C 4115.74 -3.8373 1.92483 0
M  V30 43602 C 4114.97 -5.09398 1.59215 0
M  V30 43603 O 4115.19 -5.68196 0.500936 0
M  V30 43604 O 4114.13 -5.50581 2.43195 0
M  V30 43605 H 4117.95 -2.21813 2.07443 0
M  V30 43606 H 4115.54 -1.04523 1.06749 0
M  V30 43607 H 4117.42 -4.17222 0.591936 0
M  V30 43608 H 4116.09 -3.23357 -0.149059 0
M  V30 43609 H 4115 -3.05353 2.16126 0
M  V30 43610 H 4116.33 -4.02884 2.82746 0
M  V30 43611 N 4117.99 -1.09597 -1.13253 0
M  V30 43612 C 4118.93 -0.731663 -2.20793 0
M  V30 43613 C 4119.93 0.268227 -1.67263 0
M  V30 43614 O 4121.13 0.129503 -1.79534 0
M  V30 43615 H 4117.51 -0.21863 -0.719517 0
M  V30 43616 H 4119.48 -1.64774 -2.48781 0
M  V30 43617 C 4118.23 -0.170275 -3.47283 0
M  V30 43618 H 4117.55 -0.930873 -3.88812 0
M  V30 43619 H 4118.99 0.0466754 -4.23974 0
M  V30 43620 C 4117.45 1.09491 -3.18611 0
M  V30 43621 O 4117.98 2.17787 -3.37538 0
M  V30 43622 N 4116.19 1.01012 -2.72479 0
M  V30 43623 H 4115.73 0.128768 -2.57278 0
M  V30 43624 H 4115.69 1.85737 -2.53671 0
M  V30 43625 N 4119.46 1.30512 -0.883424 0
M  V30 43626 C 4120.88 1.78359 -0.551821 0
M  V30 43627 C 4121.23 1.72654 0.93193 0
M  V30 43628 O 4120.35 1.30245 1.72815 0
M  V30 43629 C 4120.95 3.23863 -0.994902 0
M  V30 43630 C 4119.51 3.69552 -0.714737 0
M  V30 43631 C 4118.65 2.51 -1.17874 0
M  V30 43632 H 4121.6 1.17404 -1.0678 0
M  V30 43633 H 4121.62 3.79125 -0.323217 0
M  V30 43634 H 4121.14 3.27983 -2.07483 0
M  V30 43635 H 4119.24 3.70922 0.353261 0
M  V30 43636 H 4119.35 4.61092 -1.3012 0
M  V30 43637 H 4117.71 2.47577 -0.598122 0
M  V30 43638 H 4118.5 2.57858 -2.26637 0
M  V30 43639 N 4120.94 0.644219 1.43832 0
M  V30 43640 C 4122.17 0.161199 2.0597 0
M  V30 43641 C 4122.58 -1.17475 1.48311 0
M  V30 43642 O 4121.92 -1.73434 0.605511 0
M  V30 43643 C 4121.99 -0.0140058 3.59497 0
M  V30 43644 C 4121.65 1.24582 4.39691 0
M  V30 43645 C 4122.65 2.17253 4.72332 0
M  V30 43646 C 4120.33 1.4849 4.7985 0
M  V30 43647 C 4122.33 3.3213 5.4403 0
M  V30 43648 C 4120.01 2.63662 5.51295 0
M  V30 43649 C 4121.01 3.55308 5.83306 0
M  V30 43650 O 4120.7 4.6847 6.53293 0
M  V30 43651 H 4120.43 0.0830083 0.670884 0
M  V30 43652 H 4122.98 0.882499 1.85475 0
M  V30 43653 H 4121.21 -0.790586 3.78532 0
M  V30 43654 H 4122.9 -0.453238 4.03362 0
M  V30 43655 H 4123.67 2.00022 4.41833 0
M  V30 43656 H 4119.55 0.780404 4.54346 0
M  V30 43657 H 4123.09 4.03684 5.68933 0
M  V30 43658 H 4118.99 2.80831 5.81209 0
M  V30 43659 H 4119.76 4.67619 6.7177 0
M  V30 43660 N 4122.42 -1.52811 0.385571 0
M  V30 43661 C 4123.37 -2.26343 -0.451378 0
M  V30 43662 C 4124.34 -1.27803 -1.06092 0
M  V30 43663 O 4125.52 -1.56625 -1.08965 0
M  V30 43664 C 4122.66 -3.07078 -1.57471 0
M  V30 43665 C 4121.78 -4.20541 -0.988394 0
M  V30 43666 C 4120.91 -4.88678 -2.08248 0
M  V30 43667 C 4119.95 -5.9414 -1.47185 0
M  V30 43668 N 4119.09 -6.55888 -2.50509 0
M  V30 43669 H 4123.93 -2.97443 0.182144 0
M  V30 43670 H 4121.46 -1.46748 0.101654 0
M  V30 43671 H 4123.42 -3.52175 -2.23671 0
M  V30 43672 H 4122.05 -2.38195 -2.1786 0
M  V30 43673 H 4121.1 -3.79786 -0.216101 0
M  V30 43674 H 4122.42 -4.96266 -0.502136 0
M  V30 43675 H 4121.57 -5.3706 -2.82226 0
M  V30 43676 H 4120.31 -4.12469 -2.60232 0
M  V30 43677 H 4119.31 -5.45101 -0.717305 0
M  V30 43678 H 4120.54 -6.7228 -0.960006 0
M  V30 43679 H 4118.48 -5.82522 -3.01669 0
M  V30 43680 H 4118.4 -7.27215 -2.06628 0
M  V30 43681 H 4119.67 -7.08915 -3.24128 0
M  V30 43682 N 4123.9 -0.115287 -1.57178 0
M  V30 43683 C 4125.13 0.551435 -1.99416 0
M  V30 43684 C 4125.54 1.6046 -0.99489 0
M  V30 43685 O 4124.9 1.82496 0.0127511 0
M  V30 43686 C 4124.95 1.18093 -3.41667 0
M  V30 43687 O 4124.67 0.169867 -4.37771 0
M  V30 43688 C 4126.17 1.93133 -3.99017 0
M  V30 43689 H 4123.39 0.14629 -0.654859 0
M  V30 43690 H 4125.94 -0.20053 -2.03514 0
M  V30 43691 H 4124.09 1.8837 -3.3852 0
M  V30 43692 H 4124.5 0.626762 -5.20742 0
M  V30 43693 H 4125.98 2.3251 -5.00643 0
M  V30 43694 H 4126.46 2.80509 -3.37952 0
M  V30 43695 H 4127.06 1.27627 -4.05699 0
M  V30 43696 N 4125.38 1.56801 0.158477 0
M  V30 43697 C 4126.62 1.83877 0.869538 0
M  V30 43698 C 4126.98 0.697666 1.79305 0
M  V30 43699 O 4126.27 -0.305122 1.89155 0
M  V30 43700 C 4126.47 3.14886 1.69061 0
M  V30 43701 C 4126.29 4.4163 0.848093 0
M  V30 43702 C 4125.06 5.02636 0.518167 0
M  V30 43703 C 4127.26 5.13972 0.183705 0
M  V30 43704 N 4125.24 6.12962 -0.339149 0
M  V30 43705 C 4126.62 6.17694 -0.53423 0
M  V30 43706 C 4128.67 4.97793 0.103192 0
M  V30 43707 C 4127.37 7.0699 -1.32506 0
M  V30 43708 C 4129.4 5.87543 -0.674341 0
M  V30 43709 C 4128.76 6.90738 -1.3806 0
M  V30 43710 H 4124.86 0.723657 0.296386 0
M  V30 43711 H 4127.44 1.94227 0.135648 0
M  V30 43712 H 4125.62 3.05704 2.39582 0
M  V30 43713 H 4127.35 3.2991 2.34396 0
M  V30 43714 H 4124.1 4.65887 0.851271 0
M  V30 43715 H 4124.53 6.72738 -0.758493 0
M  V30 43716 H 4129.17 4.18006 0.634863 0
M  V30 43717 H 4126.89 7.86213 -1.86803 0
M  V30 43718 H 4130.47 5.77094 -0.738477 0
M  V30 43719 H 4129.35 7.58985 -1.97259 0
M  V30 43720 N 4126.86 -0.427458 1.51692 0
M  V30 43721 C 4127.82 -1.5021 1.73117 0
M  V30 43722 C 4128.82 -1.49142 0.601105 0
M  V30 43723 O 4130.01 -1.5099 0.868777 0
M  V30 43724 C 4127.14 -2.89708 1.79671 0
M  V30 43725 H 4128.33 -1.32514 2.69036 0
M  V30 43726 H 4125.89 -0.65678 1.41831 0
M  V30 43727 H 4126.62 -3.12798 0.856023 0
M  V30 43728 H 4126.41 -2.91888 2.61808 0
M  V30 43729 H 4127.9 -3.67648 1.98052 0
M  V30 43730 N 4128.33 -1.42005 -0.683539 0
M  V30 43731 C 4129.56 -1.45177 -1.46994 0
M  V30 43732 C 4129.97 -0.0589869 -1.89108 0
M  V30 43733 O 4129.31 0.934709 -1.58142 0
M  V30 43734 C 4129.38 -2.30821 -2.75612 0
M  V30 43735 C 4129.04 -3.78818 -2.55628 0
M  V30 43736 C 4130.04 -4.70687 -2.20794 0
M  V30 43737 C 4127.72 -4.22991 -2.70894 0
M  V30 43738 C 4129.72 -6.04718 -2.01481 0
M  V30 43739 C 4127.4 -5.57084 -2.51198 0
M  V30 43740 C 4128.4 -6.47764 -2.16543 0
M  V30 43741 O 4128.09 -7.79381 -1.97029 0
M  V30 43742 H 4127.82 -0.496179 -0.459111 0
M  V30 43743 H 4130.38 -1.87075 -0.848056 0
M  V30 43744 H 4128.61 -1.83757 -3.4025 0
M  V30 43745 H 4130.29 -2.25551 -3.37463 0
M  V30 43746 H 4131.06 -4.37847 -2.08603 0
M  V30 43747 H 4126.94 -3.52707 -2.96848 0
M  V30 43748 H 4130.48 -6.7546 -1.74355 0
M  V30 43749 H 4126.38 -5.895 -2.62982 0
M  V30 43750 H 4127.15 -7.90649 -2.11697 0
M  V30 43751 N 4129.81 0.918989 -1.28033 0
M  V30 43752 C 4130.76 2.00715 -1.08154 0
M  V30 43753 C 4131.75 1.60899 -0.00681952 0
M  V30 43754 O 4132.94 1.75547 -0.22636 0
M  V30 43755 C 4130.07 3.35231 -0.739927 0
M  V30 43756 C 4129.15 3.81466 -1.85323 0
M  V30 43757 N 4129.54 4.00124 -3.0941 0
M  V30 43758 C 4127.84 4.10578 -1.74189 0
M  V30 43759 C 4128.54 4.38765 -3.81916 0
M  V30 43760 N 4127.52 4.46729 -3.09733 0
M  V30 43761 H 4131.32 2.13183 -2.02312 0
M  V30 43762 H 4128.83 1.10646 -1.18875 0
M  V30 43763 H 4130.83 4.12865 -0.578611 0
M  V30 43764 H 4129.49 3.2412 0.193931 0
M  V30 43765 H 4130.5 3.86189 -3.45078 0
M  V30 43766 H 4127.18 4.08132 -0.879458 0
M  V30 43767 H 4128.57 4.61207 -4.88608 0
M  V30 43768 N 4131.29 1.10196 1.12671 0
M  V30 43769 C 4132.54 0.8412 1.83761 0
M  V30 43770 C 4132.86 -0.635029 1.8437 0
M  V30 43771 O 4132.13 -1.46098 1.30507 0
M  V30 43772 H 4130.71 0.308204 0.680455 0
M  V30 43773 H 4133.37 1.39172 1.36444 0
M  V30 43774 H 4132.47 1.20184 2.88032 0
M  V30 43775 N 4132.77 -1.30042 0.890333 0
M  V30 43776 C 4133.99 -2.00623 0.525868 0
M  V30 43777 C 4134.42 -1.66263 -0.879681 0
M  V30 43778 O 4133.78 -0.882132 -1.58392 0
M  V30 43779 C 4133.82 -3.53458 0.714108 0
M  V30 43780 O 4132.93 -4.11715 -0.237613 0
M  V30 43781 H 4132.27 -0.63105 0.206571 0
M  V30 43782 H 4134.8 -1.65761 1.19935 0
M  V30 43783 H 4134.81 -4.03336 0.615157 0
M  V30 43784 H 4133.48 -3.77804 1.73887 0
M  V30 43785 H 4132.06 -3.72787 -0.0919067 0
M  V30 43786 N 4134.25 -0.651838 -1.43488 0
M  V30 43787 C 4135.48 -0.17212 -2.05882 0
M  V30 43788 C 4135.88 1.16687 -1.48932 0
M  V30 43789 O 4135.23 1.7311 -0.6147 0
M  V30 43790 C 4135.29 -0.00505943 -3.595 0
M  V30 43791 C 4134.95 -1.26913 -4.39024 0
M  V30 43792 C 4135.95 -2.19755 -4.71173 0
M  V30 43793 C 4133.63 -1.51032 -4.79056 0
M  V30 43794 C 4135.63 -3.3501 -5.42261 0
M  V30 43795 C 4133.32 -2.66582 -5.49889 0
M  V30 43796 C 4134.31 -3.58396 -5.81413 0
M  V30 43797 O 4134 -4.71928 -6.50799 0
M  V30 43798 H 4133.73 -0.086565 -0.670435 0
M  V30 43799 H 4136.29 -0.892323 -1.85005 0
M  V30 43800 H 4134.52 0.7705 -3.78946 0
M  V30 43801 H 4136.21 0.431841 -4.03596 0
M  V30 43802 H 4136.97 -2.02362 -4.40766 0
M  V30 43803 H 4132.85 -0.804488 -4.53926 0
M  V30 43804 H 4136.4 -4.06696 -5.66784 0
M  V30 43805 H 4132.29 -2.83909 -5.79712 0
M  V30 43806 H 4133.06 -4.71175 -6.6928 0
M  V30 43807 N 4135.72 1.52604 -0.39367 0
M  V30 43808 C 4136.63 2.3031 0.446602 0
M  V30 43809 C 4137.65 1.37401 1.06756 0
M  V30 43810 O 4138.83 1.70473 1.07243 0
M  V30 43811 C 4135.89 3.09805 1.55634 0
M  V30 43812 C 4134.95 4.18428 0.96004 0
M  V30 43813 C 4134.18 4.94122 2.0169 0
M  V30 43814 O 4134.41 4.69953 3.23265 0
M  V30 43815 O 4133.34 5.79359 1.63175 0
M  V30 43816 H 4137.17 3.03127 -0.186548 0
M  V30 43817 H 4134.75 1.4857 -0.157271 0
M  V30 43818 H 4136.63 3.59356 2.20094 0
M  V30 43819 H 4135.31 2.39797 2.17438 0
M  V30 43820 H 4134.22 3.73061 0.278582 0
M  V30 43821 H 4135.55 4.90683 0.386159 0
M  V30 43822 N 4137.2 0.12362 1.57114 0
M  V30 43823 C 4138.45 -0.534048 1.95642 0
M  V30 43824 C 4138.78 -1.66034 1.00729 0
M  V30 43825 O 4138.06 -1.94447 0.0453462 0
M  V30 43826 C 4138.34 -1.06238 3.44072 0
M  V30 43827 C 4138.19 0.0608111 4.49759 0
M  V30 43828 C 4139.51 -1.95176 3.94454 0
M  V30 43829 H 4136.63 -0.192657 0.711373 0
M  V30 43830 H 4139.27 0.200116 1.88943 0
M  V30 43831 H 4137.42 -1.68802 3.49912 0
M  V30 43832 H 4139.09 0.69629 4.56015 0
M  V30 43833 H 4137.34 0.723308 4.27727 0
M  V30 43834 H 4138.01 -0.350174 5.50888 0
M  V30 43835 H 4140.48 -1.42477 3.90947 0
M  V30 43836 H 4139.36 -2.2906 4.98821 0
M  V30 43837 H 4139.62 -2.88001 3.35422 0
M  V30 43838 N 4138.68 -1.56883 -0.15016 0
M  V30 43839 C 4139.63 -1.98028 -1.18548 0
M  V30 43840 C 4140.6 -0.847378 -1.42859 0
M  V30 43841 O 4141.78 -1.10919 -1.55247 0
M  V30 43842 C 4138.92 -2.36335 -2.51475 0
M  V30 43843 C 4138.03 -3.62901 -2.34365 0
M  V30 43844 C 4137.17 -3.90326 -3.60304 0
M  V30 43845 C 4136.21 -5.10172 -3.38217 0
M  V30 43846 N 4135.35 -5.33623 -4.56279 0
M  V30 43847 H 4140.19 -2.86277 -0.827616 0
M  V30 43848 H 4137.72 -1.41636 -0.397213 0
M  V30 43849 H 4139.68 -2.56574 -3.28977 0
M  V30 43850 H 4138.31 -1.51169 -2.85215 0
M  V30 43851 H 4137.36 -3.50457 -1.47933 0
M  V30 43852 H 4138.67 -4.5056 -2.14002 0
M  V30 43853 H 4137.83 -4.11046 -4.46236 0
M  V30 43854 H 4136.57 -3.01083 -3.83667 0
M  V30 43855 H 4135.57 -4.89329 -2.50674 0
M  V30 43856 H 4136.8 -6.00965 -3.16256 0
M  V30 43857 H 4134.74 -4.47334 -4.79821 0
M  V30 43858 H 4134.66 -6.15545 -4.38908 0
M  V30 43859 H 4135.93 -5.58838 -5.43434 0
M  V30 43860 N 4140.16 0.419408 -1.51917 0
M  V30 43861 C 4141.12 1.4929 -1.73911 0
M  V30 43862 C 4142.12 1.48821 -0.609006 0
M  V30 43863 O 4143.31 1.50527 -0.876772 0
M  V30 43864 C 4140.44 2.88752 -1.81205 0
M  V30 43865 H 4141.64 1.31085 -2.69735 0
M  V30 43866 H 4139.19 0.649249 -1.42178 0
M  V30 43867 H 4139.92 3.1234 -0.872599 0
M  V30 43868 H 4139.71 2.90496 -2.63353 0
M  V30 43869 H 4141.2 3.66593 -1.99999 0
M  V30 43870 N 4141.64 1.42366 0.675998 0
M  V30 43871 C 4142.86 1.46167 1.46434 0
M  V30 43872 C 4143.28 0.0726423 1.8866 0
M  V30 43873 O 4142.64 -0.912367 1.58057 0
M  V30 43874 C 4142.69 2.38771 2.71423 0
M  V30 43875 O 4142.41 3.7227 2.3097 0
M  V30 43876 C 4143.91 2.5158 3.64997 0
M  V30 43877 H 4141.13 0.497178 0.450616 0
M  V30 43878 H 4143.67 1.86867 0.830715 0
M  V30 43879 H 4141.83 2.01327 3.30978 0
M  V30 43880 H 4142.24 4.21852 3.11675 0
M  V30 43881 H 4143.72 3.205 4.49426 0
M  V30 43882 H 4144.19 1.55329 4.10816 0
M  V30 43883 H 4144.8 2.89741 3.11336 0
M  V30 43884 N 4143.11 -0.912187 1.28518 0
M  V30 43885 C 4144.36 -1.6582 1.15535 0
M  V30 43886 C 4144.68 -1.92738 -0.296143 0
M  V30 43887 O 4143.95 -1.54464 -1.2049 0
M  V30 43888 H 4142.53 -0.614604 0.424584 0
M  V30 43889 H 4145.2 -1.09446 1.61269 0
M  V30 43890 H 4144.29 -2.6199 1.69611 0
M  V30 43891 N 4144.59 -1.10792 -1.12085 0
M  V30 43892 C 4145.82 -0.87513 -1.88033 0
M  V30 43893 C 4146.24 0.56916 -1.79282 0
M  V30 43894 O 4145.6 1.40127 -1.15039 0
M  V30 43895 C 4145.65 -1.33284 -3.35064 0
M  V30 43896 O 4144.75 -0.500235 -4.09355 0
M  V30 43897 H 4144.09 -0.31577 -0.584111 0
M  V30 43898 H 4146.62 -1.47567 -1.41722 0
M  V30 43899 H 4146.63 -1.3244 -3.85906 0
M  V30 43900 H 4145.31 -2.38459 -3.40749 0
M  V30 43901 H 4143.89 -0.574202 -3.68453 0
M  V30 43902 N 4146.07 1.29568 -0.897217 0
M  V30 43903 C 4147.03 2.26062 -0.377946 0
M  V30 43904 C 4148.03 1.53265 0.486468 0
M  V30 43905 O 4149.22 1.71737 0.291875 0
M  V30 43906 C 4146.36 3.37782 0.459986 0
M  V30 43907 H 4147.55 2.7351 -1.23014 0
M  V30 43908 H 4145.1 1.40967 -0.675139 0
M  V30 43909 H 4145.84 2.95671 1.33227 0
M  V30 43910 H 4145.62 3.91776 -0.159362 0
M  V30 43911 H 4147.11 4.09576 0.814681 0
M  V30 43912 N 4147.55 0.659438 1.4314 0
M  V30 43913 C 4148.77 0.181679 2.06603 0
M  V30 43914 C 4149.2 -1.14626 1.49139 0
M  V30 43915 O 4148.56 -1.70951 0.603769 0
M  V30 43916 C 4148.6 0.110725 3.6043 0
M  V30 43917 O 4147.71 -0.925273 4.01886 0
M  V30 43918 H 4147.05 0.0977236 0.656769 0
M  V30 43919 H 4149.58 0.904118 1.8354 0
M  V30 43920 H 4149.59 -0.0705372 4.07939 0
M  V30 43921 H 4148.26 1.08009 4.0163 0
M  V30 43922 H 4146.84 -0.716296 3.65956 0
M  V30 43923 N 4149.03 -1.52393 0.401757 0
M  V30 43924 C 4150.25 -2.06629 -0.178626 0
M  V30 43925 C 4150.68 -1.27051 -1.38707 0
M  V30 43926 O 4150.03 -0.298797 -1.78821 0
M  V30 43927 C 4150.08 -3.56907 -0.514734 0
M  V30 43928 O 4149.19 -3.79808 -1.60685 0
M  V30 43929 H 4148.53 -0.663772 -0.0174167 0
M  V30 43930 H 4151.06 -1.96418 0.572827 0
M  V30 43931 H 4151.07 -4.00562 -0.775484 0
M  V30 43932 H 4149.74 -4.14263 0.368697 0
M  V30 43933 H 4148.32 -3.48037 -1.33884 0
M  V30 43934 N 4150.5 -0.131951 -1.57047 0
M  V30 43935 C 4151.44 0.851051 -2.11737 0
M  V30 43936 C 4152.42 1.25237 -1.03704 0
M  V30 43937 O 4153.6 1.35113 -1.3144 0
M  V30 43938 C 4150.73 2.1407 -2.62472 0
M  V30 43939 C 4149.77 1.88647 -3.82511 0
M  V30 43940 S 4150.61 1.09103 -5.24268 0
M  V30 43941 C 4151.76 2.39219 -5.78381 0
M  V30 43942 H 4151.99 0.385923 -2.94785 0
M  V30 43943 H 4149.53 0.0820662 -1.54182 0
M  V30 43944 H 4151.49 2.88164 -2.92356 0
M  V30 43945 H 4150.15 2.577 -1.79582 0
M  V30 43946 H 4149.34 2.84237 -4.16203 0
M  V30 43947 H 4148.94 1.22669 -3.53311 0
M  V30 43948 H 4151.23 3.34975 -5.88896 0
M  V30 43949 H 4152.18 2.10054 -6.76227 0
M  V30 43950 H 4152.58 2.4918 -5.06527 0
M  V30 43951 N 4151.98 1.5696 0.141838 0
M  V30 43952 C 4153.23 1.8282 0.852034 0
M  V30 43953 C 4153.54 0.714019 1.82102 0
M  V30 43954 O 4154.75 0.858366 2.57574 0
M  V30 43955 C 4153.21 3.24052 1.56583 0
M  V30 43956 C 4152.81 4.4342 0.638993 0
M  V30 43957 C 4154.56 3.59181 2.26251 0
M  V30 43958 C 4152.47 5.75675 1.35471 0
M  V30 43959 H 4151.4 0.681823 0.321922 0
M  V30 43960 H 4154.05 1.83201 0.104759 0
M  V30 43961 H 4152.43 3.18074 2.35892 0
M  V30 43962 H 4153.6 4.60646 -0.11924 0
M  V30 43963 H 4151.92 4.16369 0.0504681 0
M  V30 43964 H 4154.51 4.55251 2.80447 0
M  V30 43965 H 4154.86 2.85491 3.02987 0
M  V30 43966 H 4155.39 3.66843 1.53855 0
M  V30 43967 H 4152.13 6.52474 0.629099 0
M  V30 43968 H 4151.65 5.62375 2.08552 0
M  V30 43969 H 4153.33 6.18651 1.89421 0
M  V30 43970 N 4153.46 -0.411345 1.52137 0
M  V30 43971 C 4154.41 -1.52156 1.7593 0
M  V30 43972 C 4155.4 -1.57395 0.626344 0
M  V30 43973 O 4156.61 -1.60829 0.808339 0
M  V30 43974 H 4152.98 -0.505988 0.556309 0
M  V30 43975 H 4154.95 -1.29273 2.68944 0
M  V30 43976 C 4153.7 -2.89549 1.92502 0
M  V30 43977 H 4153.03 -2.86259 2.79098 0
M  V30 43978 H 4154.47 -3.66529 2.1315 0
M  V30 43979 C 4152.93 -3.29726 0.69153 0
M  V30 43980 O 4153.46 -4.0145 -0.141641 0
M  V30 43981 N 4151.66 -2.85762 0.52807 0
M  V30 43982 H 4151.21 -2.27563 1.20717 0
M  V30 43983 H 4151.17 -3.13004 -0.295939 0
M  V30 43984 N 4154.94 -1.42722 -0.668439 0
M  V30 43985 C 4156.19 -1.43247 -1.42564 0
M  V30 43986 C 4156.51 -0.0522315 -1.9493 0
M  V30 43987 O 4155.78 0.910201 -1.73471 0
M  V30 43988 H 4154.36 -0.527358 -0.529058 0
M  V30 43989 H 4157.02 -1.78198 -0.789397 0
M  V30 43990 H 4156.12 -2.13603 -2.27552 0
M  V30 43991 N 4156.42 0.905358 -1.29 0
M  V30 43992 C 4157.66 1.65777 -1.16816 0
M  V30 43993 C 4158 1.92158 0.280902 0
M  V30 43994 O 4157.27 1.52796 1.20348 0
M  V30 43995 C 4157.55 3.01043 -1.97598 0
M  V30 43996 C 4157.41 2.81764 -3.50613 0
M  V30 43997 C 4158.73 4.01699 -1.79795 0
M  V30 43998 H 4155.85 0.601603 -0.425727 0
M  V30 43999 H 4158.49 1.0491 -1.5841 0
M  V30 44000 H 4156.64 3.52996 -1.62253 0
M  V30 44001 H 4158.31 2.36756 -3.95909 0
M  V30 44002 H 4156.55 2.16657 -3.75822 0
M  V30 44003 H 4157.22 3.77858 -4.02402 0
M  V30 44004 H 4159.7 3.58836 -2.10656 0
M  V30 44005 H 4158.58 4.94292 -2.38676 0
M  V30 44006 H 4158.84 4.35664 -0.751636 0
M  V30 44007 N 4157.9 1.11385 1.11495 0
M  V30 44008 C 4159.14 0.863624 1.83492 0
M  V30 44009 C 4159.47 -0.609227 1.84396 0
M  V30 44010 O 4158.75 -1.44976 1.29662 0
M  V30 44011 C 4159.03 1.42515 3.30698 0
M  V30 44012 C 4158.89 2.96558 3.38192 0
M  V30 44013 C 4160.2 1.07561 4.26754 0
M  V30 44014 H 4157.32 0.315185 0.666204 0
M  V30 44015 H 4159.97 1.37863 1.30743 0
M  V30 44016 H 4158.12 0.987119 3.7575 0
M  V30 44017 H 4159.79 3.4896 3.01702 0
M  V30 44018 H 4158.03 3.32655 2.7843 0
M  V30 44019 H 4158.7 3.30935 4.41799 0
M  V30 44020 H 4161.18 1.45374 3.89879 0
M  V30 44021 H 4160.05 1.49528 5.28141 0
M  V30 44022 H 4160.31 -0.0136996 4.42098 0
M  V30 44023 N 4159.37 -1.2909 0.904076 0
M  V30 44024 C 4160.32 -2.27591 0.38355 0
M  V30 44025 C 4161.29 -1.57189 -0.536731 0
M  V30 44026 O 4162.48 -1.85146 -0.461025 0
M  V30 44027 C 4159.62 -3.43013 -0.37899 0
M  V30 44028 C 4158.73 -4.28187 0.572686 0
M  V30 44029 C 4157.86 -5.30795 -0.207341 0
M  V30 44030 C 4156.9 -6.07628 0.738577 0
M  V30 44031 N 4156.04 -7.021 -0.00731897 0
M  V30 44032 H 4160.88 -2.71495 1.2286 0
M  V30 44033 H 4158.42 -1.33527 0.617169 0
M  V30 44034 H 4160.37 -4.08714 -0.837198 0
M  V30 44035 H 4159 -3.00126 -1.18846 0
M  V30 44036 H 4158.06 -3.62619 1.14942 0
M  V30 44037 H 4159.37 -4.81654 1.29657 0
M  V30 44038 H 4158.52 -6.02334 -0.72655 0
M  V30 44039 H 4157.26 -4.78071 -0.964333 0
M  V30 44040 H 4156.27 -5.34949 1.26925 0
M  V30 44041 H 4157.49 -6.62441 1.49497 0
M  V30 44042 H 4155.44 -6.51739 -0.746498 0
M  V30 44043 H 4155.35 -7.53144 0.656571 0
M  V30 44044 H 4156.62 -7.77852 -0.506648 0
M  V30 44045 N 4160.85 -0.66702 -1.42789 0
M  V30 44046 C 4161.78 0.00230257 -2.335 0
M  V30 44047 C 4162.76 0.79751 -1.50246 0
M  V30 44048 O 4163.95 0.756226 -1.78871 0
M  V30 44049 C 4161.08 0.959737 -3.33776 0
M  V30 44050 C 4160.03 0.273674 -4.27124 0
M  V30 44051 C 4159.36 1.34351 -5.17546 0
M  V30 44052 C 4160.66 -0.842501 -5.1546 0
M  V30 44053 H 4162.35 -0.755263 -2.89717 0
M  V30 44054 H 4159.9 -0.364646 -1.39307 0
M  V30 44055 H 4161.85 1.437 -3.96142 0
M  V30 44056 H 4160.57 1.74863 -2.75845 0
M  V30 44057 H 4159.23 -0.183274 -3.66142 0
M  V30 44058 H 4158.88 2.12419 -4.55946 0
M  V30 44059 H 4158.58 0.889636 -5.80826 0
M  V30 44060 H 4160.11 1.82186 -5.82787 0
M  V30 44061 H 4161.52 -0.4468 -5.71556 0
M  V30 44062 H 4159.92 -1.22169 -5.87533 0
M  V30 44063 H 4160.99 -1.69462 -4.54324 0
M  V30 44064 N 4162.33 1.52178 -0.409833 0
M  V30 44065 C 4163.26 2.29937 0.406381 0
M  V30 44066 C 4164.24 1.34176 1.0455 0
M  V30 44067 O 4165.43 1.63084 1.05438 0
M  V30 44068 C 4162.56 3.12129 1.52291 0
M  V30 44069 C 4161.51 4.15942 1.00876 0
M  V30 44070 C 4160.84 4.86484 2.21894 0
M  V30 44071 C 4162.14 5.22263 0.0623078 0
M  V30 44072 H 4163.83 2.98417 -0.242458 0
M  V30 44073 H 4161.38 1.43515 -0.118048 0
M  V30 44074 H 4163.33 3.65294 2.10091 0
M  V30 44075 H 4162.05 2.41419 2.19964 0
M  V30 44076 H 4160.71 3.63788 0.453165 0
M  V30 44077 H 4160.36 4.12303 2.88123 0
M  V30 44078 H 4160.06 5.56665 1.88144 0
M  V30 44079 H 4161.58 5.42462 2.80298 0
M  V30 44080 H 4163 5.70664 0.549122 0
M  V30 44081 H 4161.39 5.9981 -0.186422 0
M  V30 44082 H 4162.46 4.76797 -0.882757 0
M  V30 44083 N 4163.81 0.140278 1.56974 0
M  V30 44084 C 4165.04 -0.51964 2.00268 0
M  V30 44085 C 4165.45 -1.58857 1.02029 0
M  V30 44086 O 4164.81 -1.82493 0.016284 0
M  V30 44087 C 4164.86 -1.12642 3.43502 0
M  V30 44088 O 4164.58 -0.1002 4.37985 0
M  V30 44089 C 4166.08 -1.8676 4.02039 0
M  V30 44090 H 4163.3 -0.135853 0.657103 0
M  V30 44091 H 4165.84 0.232882 2.0317 0
M  V30 44092 H 4164 -1.82961 3.41474 0
M  V30 44093 H 4164.41 -0.543837 5.21673 0
M  V30 44094 H 4165.89 -2.24516 5.04278 0
M  V30 44095 H 4166.36 -2.75097 3.42372 0
M  V30 44096 H 4166.97 -1.21156 4.07678 0
M  V30 44097 N 4165.29 -1.57033 -0.133512 0
M  V30 44098 C 4166.23 -1.99274 -1.16441 0
M  V30 44099 C 4167.2 -0.862483 -1.41952 0
M  V30 44100 O 4168.39 -1.1256 -1.54062 0
M  V30 44101 C 4165.53 -2.38989 -2.48954 0
M  V30 44102 C 4164.64 -3.65366 -2.30503 0
M  V30 44103 C 4163.78 -3.94126 -3.56144 0
M  V30 44104 C 4162.81 -5.1373 -3.32787 0
M  V30 44105 N 4161.95 -5.38433 -4.50594 0
M  V30 44106 H 4166.79 -2.87139 -0.797206 0
M  V30 44107 H 4164.33 -1.42049 -0.382169 0
M  V30 44108 H 4166.29 -2.60048 -3.26237 0
M  V30 44109 H 4164.92 -1.54186 -2.83596 0
M  V30 44110 H 4163.97 -3.52006 -1.44207 0
M  V30 44111 H 4165.28 -4.52805 -2.09212 0
M  V30 44112 H 4164.43 -4.15755 -4.41851 0
M  V30 44113 H 4163.17 -3.05135 -3.80452 0
M  V30 44114 H 4162.18 -4.9196 -2.4547 0
M  V30 44115 H 4163.4 -6.04286 -3.09864 0
M  V30 44116 H 4161.35 -4.52398 -4.7505 0
M  V30 44117 H 4161.27 -6.20166 -4.32355 0
M  V30 44118 H 4162.53 -5.64571 -5.37476 0
M  V30 44119 N 4166.76 0.403271 -1.52353 0
M  V30 44120 C 4168.17 0.981836 -1.58798 0
M  V30 44121 C 4168.53 1.91384 -0.432063 0
M  V30 44122 O 4167.65 2.11737 0.446798 0
M  V30 44123 C 4168.25 1.78747 -2.8781 0
M  V30 44124 C 4166.8 2.31597 -2.96715 0
M  V30 44125 C 4165.95 1.11744 -2.53788 0
M  V30 44126 H 4168.9 0.183302 -1.57638 0
M  V30 44127 H 4168.92 2.64541 -2.73493 0
M  V30 44128 H 4168.44 1.10889 -3.71921 0
M  V30 44129 H 4166.54 3.0281 -2.17111 0
M  V30 44130 H 4166.65 2.62061 -4.01074 0
M  V30 44131 H 4165.01 1.47317 -2.07773 0
M  V30 44132 H 4165.8 0.45443 -3.40279 0
M  V30 44133 N 4168.24 1.43075 0.66086 0
M  V30 44134 C 4169.49 1.45497 1.42134 0
M  V30 44135 C 4169.84 0.0751936 1.92253 0
M  V30 44136 O 4169.14 -0.904943 1.68883 0
M  V30 44137 C 4169.33 2.42594 2.62456 0
M  V30 44138 C 4169.16 3.89877 2.24112 0
M  V30 44139 C 4167.93 4.58304 2.12803 0
M  V30 44140 C 4170.13 4.79922 1.84878 0
M  V30 44141 N 4168.11 5.90548 1.67709 0
M  V30 44142 C 4169.48 6.01379 1.50809 0
M  V30 44143 C 4171.53 4.6725 1.71993 0
M  V30 44144 C 4170.24 7.11573 1.05146 0
M  V30 44145 C 4172.26 5.7744 1.27736 0
M  V30 44146 C 4171.63 6.98019 0.945991 0
M  V30 44147 H 4167.72 0.587549 0.516053 0
M  V30 44148 H 4170.31 1.79201 0.761253 0
M  V30 44149 H 4168.48 2.10929 3.26134 0
M  V30 44150 H 4170.21 2.35504 3.2912 0
M  V30 44151 H 4166.97 4.12705 2.32318 0
M  V30 44152 H 4167.39 6.60726 1.47546 0
M  V30 44153 H 4172.03 3.74492 1.96254 0
M  V30 44154 H 4169.75 8.04167 0.796336 0
M  V30 44155 H 4173.34 5.69653 1.18267 0
M  V30 44156 H 4172.22 7.81834 0.608745 0
M  V30 44157 N 4169.72 -0.898504 1.29478 0
M  V30 44158 C 4171 -1.6295 1.08197 0
M  V30 44159 C 4171.38 -2.0777 -0.373469 0
M  V30 44160 O 4170.73 -1.83435 -1.36249 0
M  V30 44161 C 4170.94 -2.80939 2.07061 0
M  V30 44162 C 4172.28 -3.51597 2.38044 0
M  V30 44163 O 4173.31 -2.9111 2.05265 0
M  V30 44164 O 4172.17 -4.60644 2.94056 0
M  V30 44165 H 4169.26 -0.715561 0.414609 0
M  V30 44166 H 4171.81 -0.946467 1.40855 0
M  V30 44167 H 4170.58 -2.45025 3.05087 0
M  V30 44168 H 4170.2 -3.56948 1.7514 0
M  V30 44169 N 4171.2 -1.11974 -1.10903 0
M  V30 44170 C 4172.44 -0.873343 -1.83032 0
M  V30 44171 C 4172.78 0.599439 -1.84717 0
M  V30 44172 O 4172.05 1.44286 -1.30429 0
M  V30 44173 C 4172.34 -1.44267 -3.29938 0
M  V30 44174 C 4172.19 -2.98347 -3.36614 0
M  V30 44175 C 4173.51 -1.09822 -4.26177 0
M  V30 44176 H 4170.63 -0.318713 -0.664523 0
M  V30 44177 H 4173.27 -1.38555 -1.3001 0
M  V30 44178 H 4171.42 -1.00703 -3.75221 0
M  V30 44179 H 4173.09 -3.50555 -2.99848 0
M  V30 44180 H 4171.33 -3.34127 -2.76662 0
M  V30 44181 H 4172 -3.33273 -4.40037 0
M  V30 44182 H 4174.48 -1.47439 -3.89103 0
M  V30 44183 H 4173.36 -1.52327 -5.2734 0
M  V30 44184 H 4173.62 -0.00974609 -4.42099 0
M  V30 44185 N 4172.68 1.28609 -0.910909 0
M  V30 44186 C 4173.92 1.95384 -0.543395 0
M  V30 44187 C 4174.26 1.71555 0.910079 0
M  V30 44188 O 4173.53 1.0349 1.64682 0
M  V30 44189 C 4173.81 3.49927 -0.849883 0
M  V30 44190 C 4173.67 3.83169 -2.35588 0
M  V30 44191 C 4174.99 4.38753 -0.344074 0
M  V30 44192 H 4172.1 0.709654 -0.198896 0
M  V30 44193 H 4174.75 1.52027 -1.13963 0
M  V30 44194 H 4172.9 3.86988 -0.342448 0
M  V30 44195 H 4174.57 3.55993 -2.93372 0
M  V30 44196 H 4172.81 3.30314 -2.81203 0
M  V30 44197 H 4173.48 4.91076 -2.52088 0
M  V30 44198 H 4175.96 4.08748 -0.778734 0
M  V30 44199 H 4174.83 5.45746 -0.587626 0
M  V30 44200 H 4175.1 4.35596 0.755532 0
M  V30 44201 N 4174.15 0.674583 1.42433 0
M  V30 44202 C 4175.57 0.274047 1.84678 0
M  V30 44203 C 4175.92 -1.18375 1.56466 0
M  V30 44204 O 4175.04 -1.90619 1.02437 0
M  V30 44205 C 4175.64 0.490604 3.35229 0
M  V30 44206 C 4174.2 0.14419 3.76124 0
M  V30 44207 C 4173.34 0.783154 2.66011 0
M  V30 44208 H 4176.29 0.87676 1.32282 0
M  V30 44209 H 4176.31 -0.257337 3.79629 0
M  V30 44210 H 4175.83 1.55169 3.55731 0
M  V30 44211 H 4173.93 -0.913459 3.61229 0
M  V30 44212 H 4174.04 0.584561 4.7552 0
M  V30 44213 H 4172.4 0.214501 2.53795 0
M  V30 44214 H 4173.19 1.84769 2.89336 0
M  V30 44215 N 4175.63 -1.51958 0.417898 0
M  V30 44216 C 4176.57 -2.23758 -0.448054 0
M  V30 44217 C 4177.54 -1.24924 -1.0408 0
M  V30 44218 O 4178.73 -1.54002 -1.08699 0
M  V30 44219 C 4175.85 -2.97298 -1.6227 0
M  V30 44220 C 4174.9 -4.10633 -1.15251 0
M  V30 44221 S 4175.73 -5.35386 -0.110447 0
M  V30 44222 C 4176.89 -6.12458 -1.29022 0
M  V30 44223 H 4177.12 -2.96861 0.161573 0
M  V30 44224 H 4174.66 -1.5307 0.202258 0
M  V30 44225 H 4176.61 -3.40271 -2.29622 0
M  V30 44226 H 4175.27 -2.23822 -2.20369 0
M  V30 44227 H 4174.47 -4.61294 -2.03035 0
M  V30 44228 H 4174.07 -3.69821 -0.557517 0
M  V30 44229 H 4176.36 -6.40365 -2.21222 0
M  V30 44230 H 4177.3 -7.0329 -0.823962 0
M  V30 44231 H 4177.71 -5.43651 -1.51998 0
M  V30 44232 N 4177.11 -0.1486 -1.56898 0
M  V30 44233 C 4178.36 0.502856 -1.96467 0
M  V30 44234 C 4178.69 1.6441 -1.03358 0
M  V30 44235 O 4177.96 1.9435 -0.0762753 0
M  V30 44236 C 4178.25 1.00751 -3.45719 0
M  V30 44237 C 4178.1 -0.132356 -4.49605 0
M  V30 44238 C 4179.42 1.88876 -3.97509 0
M  V30 44239 H 4176.54 0.181316 -0.714348 0
M  V30 44240 H 4179.18 -0.23015 -1.88601 0
M  V30 44241 H 4177.33 1.63214 -3.52553 0
M  V30 44242 H 4179 -0.76875 -4.54849 0
M  V30 44243 H 4177.25 -0.791264 -4.26523 0
M  V30 44244 H 4177.92 0.262488 -5.51376 0
M  V30 44245 H 4180.39 1.36239 -3.93164 0
M  V30 44246 H 4179.27 2.21095 -5.02402 0
M  V30 44247 H 4179.53 2.82629 -3.39961 0
M  V30 44248 N 4178.59 1.57102 0.125182 0
M  V30 44249 C 4179.82 1.88705 0.848403 0
M  V30 44250 C 4180.23 0.739189 1.73728 0
M  V30 44251 O 4179.59 -0.290247 1.80177 0
M  V30 44252 C 4179.64 3.19723 1.68699 0
M  V30 44253 O 4179.36 4.3009 0.833903 0
M  V30 44254 C 4180.86 3.64989 2.5159 0
M  V30 44255 H 4178.08 0.62498 0.244216 0
M  V30 44256 H 4180.63 2.04196 0.111426 0
M  V30 44257 H 4178.78 3.05921 2.37679 0
M  V30 44258 H 4179.19 5.05145 1.41171 0
M  V30 44259 H 4180.67 4.59441 3.0597 0
M  V30 44260 H 4181.15 2.91342 3.28659 0
M  V30 44261 H 4181.75 3.81559 1.87863 0
M  V30 44262 N 4180.07 -0.395186 1.52565 0
M  V30 44263 C 4181 -1.50174 1.73149 0
M  V30 44264 C 4182.01 -1.50862 0.611921 0
M  V30 44265 O 4183.2 -1.54876 0.887456 0
M  V30 44266 C 4180.3 -2.89038 1.76948 0
M  V30 44267 C 4179.47 -3.12384 3.06162 0
M  V30 44268 C 4178.53 -4.31197 3.01589 0
M  V30 44269 O 4177.56 -4.27801 3.75467 0
M  V30 44270 N 4178.76 -5.37056 2.20344 0
M  V30 44271 H 4181.53 -1.32906 2.68619 0
M  V30 44272 H 4179.09 -0.584636 1.50976 0
M  V30 44273 H 4181.08 -3.6661 1.71403 0
M  V30 44274 H 4179.65 -2.99695 0.888909 0
M  V30 44275 H 4178.87 -2.22731 3.25245 0
M  V30 44276 H 4180.16 -3.24834 3.91613 0
M  V30 44277 H 4179.55 -5.42667 1.59777 0
M  V30 44278 H 4178.11 -6.13318 2.20644 0
M  V30 44279 N 4181.54 -1.43423 -0.653263 0
M  V30 44280 C 4182.48 -1.43028 -1.77815 0
M  V30 44281 C 4183.46 -0.291734 -1.59961 0
M  V30 44282 O 4184.64 -0.485317 -1.82145 0
M  V30 44283 C 4181.77 -1.24181 -3.15114 0
M  V30 44284 C 4180.81 -2.41311 -3.51669 0
M  V30 44285 S 4181.65 -4.0386 -3.51649 0
M  V30 44286 C 4182.8 -3.87396 -4.91605 0
M  V30 44287 H 4183.03 -2.38214 -1.7788 0
M  V30 44288 H 4180.57 -1.30454 -0.825901 0
M  V30 44289 H 4182.53 -1.13994 -3.94355 0
M  V30 44290 H 4181.19 -0.305435 -3.12611 0
M  V30 44291 H 4180.38 -2.23928 -4.51522 0
M  V30 44292 H 4179.98 -2.48123 -2.79841 0
M  V30 44293 H 4182.27 -3.49718 -5.80262 0
M  V30 44294 H 4183.22 -4.87001 -5.14039 0
M  V30 44295 H 4183.62 -3.19856 -4.65137 0
M  V30 44296 N 4183.02 0.891625 -1.29953 0
M  V30 44297 C 4183.99 1.97819 -1.1576 0
M  V30 44298 C 4184.99 1.60544 -0.0907257 0
M  V30 44299 O 4186.18 1.70883 -0.338313 0
M  V30 44300 C 4183.31 3.32043 -0.772034 0
M  V30 44301 H 4184.5 2.11838 -2.12285 0
M  V30 44302 H 4182.05 1.07717 -1.13255 0
M  V30 44303 H 4182.79 3.23725 0.193002 0
M  V30 44304 H 4182.57 3.60465 -1.54297 0
M  V30 44305 H 4184.06 4.11759 -0.696014 0
M  V30 44306 N 4184.5 1.12561 1.10308 0
M  V30 44307 C 4185.43 0.738403 2.15923 0
M  V30 44308 C 4186.41 -0.271071 1.60325 0
M  V30 44309 O 4187.6 -0.164713 1.87779 0
M  V30 44310 C 4184.72 0.0931571 3.38572 0
M  V30 44311 C 4183.77 1.06967 4.12868 0
M  V30 44312 S 4184.6 2.59785 4.68265 0
M  V30 44313 C 4185.76 1.96595 5.94223 0
M  V30 44314 H 4185.99 1.63302 2.48434 0
M  V30 44315 H 4183.52 0.944831 1.22116 0
M  V30 44316 H 4185.48 -0.27275 4.09593 0
M  V30 44317 H 4184.14 -0.778594 3.04297 0
M  V30 44318 H 4183.34 0.565844 5.00814 0
M  V30 44319 H 4182.94 1.37858 3.47665 0
M  V30 44320 H 4185.23 1.3095 6.64724 0
M  V30 44321 H 4186.17 2.82585 6.4927 0
M  V30 44322 H 4186.58 1.42124 5.46316 0
M  V30 44323 N 4185.98 -1.28124 0.917717 0
M  V30 44324 C 4187.21 -1.98924 0.568924 0
M  V30 44325 C 4187.62 -1.68547 -0.85073 0
M  V30 44326 O 4186.98 -0.940427 -1.56404 0
M  V30 44327 C 4187.03 -3.53133 0.773243 0
M  V30 44328 O 4186.75 -3.82443 2.13704 0
M  V30 44329 C 4188.25 -4.41192 0.431816 0
M  V30 44330 H 4185.47 -0.635106 0.216521 0
M  V30 44331 H 4188.02 -1.63223 1.23201 0
M  V30 44332 H 4186.17 -3.87081 0.157102 0
M  V30 44333 H 4186.59 -4.77066 2.17964 0
M  V30 44334 H 4188.06 -5.48444 0.625527 0
M  V30 44335 H 4188.54 -4.34627 -0.632159 0
M  V30 44336 H 4189.14 -4.12747 1.02567 0
M  V30 44337 N 4187.46 -0.682127 -1.42073 0
M  V30 44338 C 4188.73 -0.136068 -1.95126 0
M  V30 44339 C 4189.11 1.35085 -1.6222 0
M  V30 44340 O 4188.46 2.09066 -0.92216 0
M  V30 44341 C 4188.67 -0.413015 -3.46548 0
M  V30 44342 C 4190.02 -0.333479 -4.23288 0
M  V30 44343 O 4191.04 -0.347172 -3.54504 0
M  V30 44344 O 4189.9 -0.28198 -5.45772 0
M  V30 44345 H 4187 -0.007129 -0.826969 0
M  V30 44346 H 4189.54 -0.757362 -1.51862 0
M  V30 44347 H 4188.32 -1.44276 -3.63731 0
M  V30 44348 H 4187.94 0.239923 -3.96875 0
M  V30 44349 N 4188.94 1.51735 -0.425951 0
M  V30 44350 C 4190.16 2.06403 0.143315 0
M  V30 44351 C 4190.58 1.29448 1.37436 0
M  V30 44352 O 4189.94 0.35089 1.79095 0
M  V30 44353 C 4189.99 3.5834 0.476954 0
M  V30 44354 O 4189.71 4.32387 -0.705224 0
M  V30 44355 C 4191.21 4.29483 1.09813 0
M  V30 44356 H 4188.43 0.670875 0.0129651 0
M  V30 44357 H 4190.97 1.95446 -0.601753 0
M  V30 44358 H 4189.13 3.69249 1.17192 0
M  V30 44359 H 4189.54 5.22794 -0.422691 0
M  V30 44360 H 4191.02 5.36915 1.28166 0
M  V30 44361 H 4191.49 3.87039 2.07599 0
M  V30 44362 H 4192.1 4.22988 0.442882 0
M  V30 44363 N 4190.41 0.156919 1.56817 0
M  V30 44364 C 4191.64 -0.49837 2.00808 0
M  V30 44365 C 4192.06 -1.57766 1.03708 0
M  V30 44366 O 4191.41 -1.82465 0.0356389 0
M  V30 44367 C 4191.46 -1.08993 3.44678 0
M  V30 44368 O 4191.19 -0.05374 4.38067 0
M  V30 44369 C 4192.69 -1.82486 4.03997 0
M  V30 44370 H 4189.91 -0.128876 0.658507 0
M  V30 44371 H 4192.45 0.254418 2.02911 0
M  V30 44372 H 4190.61 -1.79328 3.43395 0
M  V30 44373 H 4191.02 -0.488476 5.2222 0
M  V30 44374 H 4192.49 -2.19155 5.06631 0
M  V30 44375 H 4192.97 -2.7145 3.4527 0
M  V30 44376 H 4193.58 -1.16826 4.0894 0
M  V30 44377 N 4191.89 -1.57166 -0.116849 0
M  V30 44378 C 4193.3 -1.74119 -0.673762 0
M  V30 44379 C 4193.65 -0.775923 -1.80205 0
M  V30 44380 O 4192.78 0.0506638 -2.16341 0
M  V30 44381 C 4193.37 -3.15724 -1.22898 0
M  V30 44382 C 4191.93 -3.34175 -1.73216 0
M  V30 44383 C 4191.08 -2.69984 -0.63275 0
M  V30 44384 H 4194.03 -1.58325 0.109083 0
M  V30 44385 H 4194.05 -3.17393 -2.09861 0
M  V30 44386 H 4193.56 -3.85954 -0.407569 0
M  V30 44387 H 4191.66 -2.68991 -2.57827 0
M  V30 44388 H 4191.78 -4.42353 -1.84012 0
M  V30 44389 H 4190.14 -2.31278 -1.06689 0
M  V30 44390 H 4190.92 -3.4284 0.177714 0
M  V30 44391 N 4193.37 0.38709 -1.52772 0
M  V30 44392 C 4194.62 1.13193 -1.67909 0
M  V30 44393 C 4194.94 1.89912 -0.41998 0
M  V30 44394 O 4194.2 1.8635 0.597667 0
M  V30 44395 C 4194.5 2.13482 -2.86636 0
M  V30 44396 C 4194.16 1.53407 -4.24001 0
M  V30 44397 C 4192.83 1.36749 -4.6136 0
M  V30 44398 C 4195.18 1.09747 -5.09514 0
M  V30 44399 C 4192.51 0.749825 -5.81889 0
M  V30 44400 C 4194.86 0.493901 -6.30669 0
M  V30 44401 C 4193.52 0.314638 -6.66758 0
M  V30 44402 H 4192.79 0.414204 -0.614424 0
M  V30 44403 H 4195.44 0.416329 -1.8692 0
M  V30 44404 H 4193.74 2.91268 -2.6205 0
M  V30 44405 H 4195.44 2.71027 -2.95543 0
M  V30 44406 H 4192.03 1.6736 -3.94574 0
M  V30 44407 H 4196.22 1.21418 -4.81219 0
M  V30 44408 H 4191.47 0.599152 -6.08457 0
M  V30 44409 H 4195.65 0.147307 -6.96244 0
M  V30 44410 H 4193.27 -0.166058 -7.60019 0
M  V30 44411 N 4194.85 1.43768 0.645648 0
M  V30 44412 C 4196.1 1.45497 1.40267 0
M  V30 44413 C 4196.42 0.0832366 1.94822 0
M  V30 44414 O 4195.69 -0.882488 1.74897 0
M  V30 44415 H 4194.27 0.535708 0.520602 0
M  V30 44416 H 4196.93 1.79431 0.760947 0
M  V30 44417 H 4196.02 2.17196 2.24125 0
M  V30 44418 N 4196.33 -0.884721 1.30424 0
M  V30 44419 C 4197.26 -1.99612 1.12641 0
M  V30 44420 C 4198.27 -1.62651 0.0695835 0
M  V30 44421 O 4199.46 -1.75687 0.315624 0
M  V30 44422 C 4196.56 -3.31682 0.69571 0
M  V30 44423 C 4195.73 -3.97078 1.83434 0
M  V30 44424 C 4194.79 -5.0745 1.39215 0
M  V30 44425 O 4193.82 -5.29069 2.09941 0
M  V30 44426 N 4195.02 -5.79866 0.271312 0
M  V30 44427 H 4197.78 -2.15417 2.08364 0
M  V30 44428 H 4195.35 -1.05782 1.22563 0
M  V30 44429 H 4197.34 -4.02885 0.382899 0
M  V30 44430 H 4195.91 -3.1214 -0.169488 0
M  V30 44431 H 4195.13 -3.19045 2.31525 0
M  V30 44432 H 4196.42 -4.37509 2.59737 0
M  V30 44433 H 4195.81 -5.64805 -0.318012 0
M  V30 44434 H 4194.37 -6.51798 0.0179552 0
M  V30 44435 N 4197.8 -1.13144 -1.09709 0
M  V30 44436 C 4198.74 -0.763944 -2.16094 0
M  V30 44437 C 4199.75 0.212964 -1.61401 0
M  V30 44438 O 4200.94 -0.00680269 -1.78499 0
M  V30 44439 C 4198.04 -0.111177 -3.38718 0
M  V30 44440 C 4197.21 -1.11944 -4.22832 0
M  V30 44441 C 4196.27 -0.49291 -5.23886 0
M  V30 44442 O 4195.3 -1.15208 -5.57419 0
M  V30 44443 N 4196.5 0.736343 -5.75811 0
M  V30 44444 H 4199.26 -1.67938 -2.48228 0
M  V30 44445 H 4196.82 -1.02406 -1.25398 0
M  V30 44446 H 4198.82 0.320143 -4.03432 0
M  V30 44447 H 4197.39 0.707144 -3.04497 0
M  V30 44448 H 4196.61 -1.72815 -3.543 0
M  V30 44449 H 4197.89 -1.80099 -4.75859 0
M  V30 44450 H 4197.29 1.29071 -5.50779 0
M  V30 44451 H 4195.85 1.11037 -6.42273 0
M  V30 44452 N 4199.28 1.27635 -0.924498 0
M  V30 44453 C 4200.7 1.46885 -0.624256 0
M  V30 44454 C 4200.9 1.83729 0.827397 0
M  V30 44455 O 4199.95 1.94879 1.60557 0
M  V30 44456 C 4201.27 2.56375 -1.57138 0
M  V30 44457 C 4202.82 2.70238 -1.57926 0
M  V30 44458 C 4203.29 3.82882 -2.51327 0
M  V30 44459 N 4204.78 3.90251 -2.49516 0
M  V30 44460 C 4205.52 4.76822 -3.18478 0
M  V30 44461 N 4205.01 5.67905 -3.96807 0
M  V30 44462 N 4206.81 4.70524 -3.07512 0
M  V30 44463 H 4198.96 1.02003 -1.86304 0
M  V30 44464 H 4201.22 0.509118 -0.799689 0
M  V30 44465 H 4200.93 2.36088 -2.60683 0
M  V30 44466 H 4200.8 3.53698 -1.31064 0
M  V30 44467 H 4203.19 2.89908 -0.551141 0
M  V30 44468 H 4203.27 1.73412 -1.88048 0
M  V30 44469 H 4202.91 3.63966 -3.54247 0
M  V30 44470 H 4202.84 4.79128 -2.18503 0
M  V30 44471 H 4205.33 3.25121 -1.92626 0
M  V30 44472 H 4205.65 6.30816 -4.46421 0
M  V30 44473 H 4203.99 5.67711 -4.00911 0
M  V30 44474 H 4207.18 3.98364 -2.45813 0
M  V30 44475 H 4207.35 5.37775 -3.61527 0
M  V30 44476 N 4200.76 0.689652 1.41709 0
M  V30 44477 C 4202.01 0.218445 2.0162 0
M  V30 44478 C 4202.34 -1.17694 1.54473 0
M  V30 44479 O 4201.61 -1.79319 0.753332 0
M  V30 44480 C 4201.9 0.269548 3.5909 0
M  V30 44481 C 4201.75 1.70145 4.16378 0
M  V30 44482 C 4203.07 -0.373969 4.38508 0
M  V30 44483 H 4200.19 0.0808507 0.732552 0
M  V30 44484 H 4202.83 0.877252 1.68536 0
M  V30 44485 H 4200.98 -0.291398 3.87406 0
M  V30 44486 H 4202.65 2.31578 3.9896 0
M  V30 44487 H 4200.9 2.23748 3.71644 0
M  V30 44488 H 4201.57 1.68878 5.25532 0
M  V30 44489 H 4204.04 0.103697 4.15971 0
M  V30 44490 H 4202.92 -0.307642 5.48037 0
M  V30 44491 H 4203.18 -1.45381 4.17513 0
M  V30 44492 N 4202.24 -1.51507 0.433991 0
M  V30 44493 C 4203.49 -2.02059 -0.133593 0
M  V30 44494 C 4203.81 -1.31834 -1.43004 0
M  V30 44495 O 4203.07 -0.420917 -1.9112 0
M  V30 44496 C 4203.37 -3.5512 -0.403074 0
M  V30 44497 C 4203.03 -4.43617 0.807156 0
M  V30 44498 C 4201.7 -4.67524 1.13906 0
M  V30 44499 C 4204.05 -4.95558 1.61466 0
M  V30 44500 C 4201.38 -5.40619 2.2792 0
M  V30 44501 C 4203.73 -5.69903 2.74578 0
M  V30 44502 C 4202.39 -5.92075 3.08226 0
M  V30 44503 H 4201.66 -0.739386 -0.0488853 0
M  V30 44504 H 4204.31 -1.8249 0.580502 0
M  V30 44505 H 4202.61 -3.73002 -1.19902 0
M  V30 44506 H 4204.31 -3.91766 -0.855601 0
M  V30 44507 H 4200.9 -4.25203 0.538523 0
M  V30 44508 H 4205.08 -4.76975 1.37146 0
M  V30 44509 H 4200.34 -5.56001 2.54308 0
M  V30 44510 H 4204.51 -6.09141 3.37521 0
M  V30 44511 H 4202.14 -6.48494 3.96686 0
M  V30 44512 N 4203.72 -0.165233 -1.56731 0
M  V30 44513 C 4204.66 0.767433 -2.17667 0
M  V30 44514 C 4205.63 1.23125 -1.11487 0
M  V30 44515 O 4206.82 1.30052 -1.39611 0
M  V30 44516 C 4203.96 1.9938 -2.81677 0
M  V30 44517 C 4203.07 1.57411 -4.02301 0
M  V30 44518 C 4202.21 2.75367 -4.54254 0
M  V30 44519 C 4201.25 2.29859 -5.67302 0
M  V30 44520 N 4200.38 3.40887 -6.13792 0
M  V30 44521 H 4205.22 0.241008 -2.97024 0
M  V30 44522 H 4202.76 0.107234 -1.46709 0
M  V30 44523 H 4204.72 2.713 -3.16942 0
M  V30 44524 H 4203.35 2.49403 -2.04934 0
M  V30 44525 H 4202.4 0.751874 -3.72895 0
M  V30 44526 H 4203.71 1.20001 -4.8415 0
M  V30 44527 H 4202.87 3.55452 -4.91669 0
M  V30 44528 H 4201.6 3.16033 -3.71449 0
M  V30 44529 H 4200.61 1.48219 -5.29444 0
M  V30 44530 H 4201.83 1.90259 -6.51904 0
M  V30 44531 H 4199.78 3.8114 -5.33918 0
M  V30 44532 H 4199.7 3.07551 -6.90614 0
M  V30 44533 H 4200.97 4.21275 -6.55856 0
M  V30 44534 N 4205.19 1.57226 0.108512 0
M  V30 44535 C 4206.1 2.04412 1.15121 0
M  V30 44536 C 4207.12 0.966461 1.44691 0
M  V30 44537 O 4208.3 1.2787 1.55599 0
M  V30 44538 C 4205.36 2.44784 2.45524 0
M  V30 44539 C 4204.42 3.66681 2.23257 0
M  V30 44540 C 4203.66 4.05118 3.47441 0
M  V30 44541 O 4203.88 3.43784 4.55158 0
M  V30 44542 O 4202.81 4.98156 3.37822 0
M  V30 44543 H 4206.64 2.935 0.780482 0
M  V30 44544 H 4204.22 1.45931 0.320065 0
M  V30 44545 H 4206.11 2.71438 3.22335 0
M  V30 44546 H 4204.78 1.58838 2.8205 0
M  V30 44547 H 4203.69 3.45162 1.4427 0
M  V30 44548 H 4205.02 4.53364 1.9163 0
M  V30 44549 N 4206.67 -0.378982 1.52975 0
M  V30 44550 C 4207.62 -1.46352 1.78465 0
M  V30 44551 C 4208.59 -1.53757 0.628335 0
M  V30 44552 O 4209.77 -1.69856 0.869114 0
M  V30 44553 C 4206.91 -2.83463 1.96832 0
M  V30 44554 C 4206.03 -2.8513 3.24538 0
M  V30 44555 C 4205.16 -4.13732 3.33165 0
M  V30 44556 C 4204.2 -4.0949 4.54956 0
M  V30 44557 N 4203.34 -5.29716 4.6081 0
M  V30 44558 H 4208.18 -1.23916 2.71014 0
M  V30 44559 H 4205.72 -0.600958 1.34264 0
M  V30 44560 H 4207.67 -3.63097 2.05466 0
M  V30 44561 H 4206.3 -3.04327 1.07633 0
M  V30 44562 H 4205.36 -1.97808 3.24925 0
M  V30 44563 H 4206.67 -2.77865 4.14237 0
M  V30 44564 H 4205.82 -5.01775 3.41037 0
M  V30 44565 H 4204.56 -4.23732 2.41458 0
M  V30 44566 H 4203.57 -3.19834 4.47198 0
M  V30 44567 H 4204.79 -4.01103 5.4799 0
M  V30 44568 H 4202.74 -5.40327 3.71999 0
M  V30 44569 H 4202.65 -5.24567 5.44395 0
M  V30 44570 H 4203.92 -6.19628 4.72949 0
M  V30 44571 N 4208.15 -1.44108 -0.638015 0
M  V30 44572 C 4209.4 -1.46746 -1.39977 0
M  V30 44573 C 4209.73 -0.0970628 -1.93957 0
M  V30 44574 O 4209 0.884327 -1.73234 0
M  V30 44575 C 4209.29 -2.52225 -2.57011 0
M  V30 44576 C 4209.14 -3.98597 -2.08424 0
M  V30 44577 C 4210.46 -2.54279 -3.59207 0
M  V30 44578 H 4207.58 -0.534308 -0.507625 0
M  V30 44579 H 4210.22 -1.75748 -0.721997 0
M  V30 44580 H 4208.37 -2.27626 -3.14831 0
M  V30 44581 H 4210.04 -4.34306 -1.55487 0
M  V30 44582 H 4208.29 -4.10702 -1.39664 0
M  V30 44583 H 4208.96 -4.68038 -2.92651 0
M  V30 44584 H 4211.43 -2.76242 -3.11174 0
M  V30 44585 H 4210.31 -3.29999 -4.38625 0
M  V30 44586 H 4210.57 -1.58221 -4.12818 0
M  V30 44587 N 4209.63 0.877792 -1.30891 0
M  V30 44588 C 4210.91 1.61208 -1.10776 0
M  V30 44589 C 4211.29 2.08338 0.340367 0
M  V30 44590 O 4210.63 1.8558 1.33313 0
M  V30 44591 C 4210.84 2.7761 -2.11504 0
M  V30 44592 C 4212.19 3.47765 -2.43608 0
M  V30 44593 O 4213.22 2.87807 -2.0987 0
M  V30 44594 O 4212.07 4.55908 -3.01348 0
M  V30 44595 H 4209.17 0.708875 -0.425941 0
M  V30 44596 H 4211.71 0.923939 -1.42343 0
M  V30 44597 H 4210.49 2.40141 -3.08947 0
M  V30 44598 H 4210.11 3.54116 -1.80797 0
M  V30 44599 N 4211.11 1.13725 1.09108 0
M  V30 44600 C 4212.33 0.924298 1.85106 0
M  V30 44601 C 4212.75 -0.526993 1.81296 0
M  V30 44602 O 4212.11 -1.36491 1.21147 0
M  V30 44603 C 4212.16 1.40813 3.32947 0
M  V30 44604 O 4211.88 2.80255 3.36733 0
M  V30 44605 C 4213.38 1.23409 4.25776 0
M  V30 44606 H 4210.6 0.329389 0.584589 0
M  V30 44607 H 4213.14 1.51061 1.37844 0
M  V30 44608 H 4211.3 0.864746 3.77625 0
M  V30 44609 H 4211.71 3.01806 4.28968 0
M  V30 44610 H 4213.19 1.62132 5.27652 0
M  V30 44611 H 4213.66 0.176135 4.38847 0
M  V30 44612 H 4214.27 1.76566 3.86917 0
M  V30 44613 N 4212.58 -1.27143 0.931254 0
M  V30 44614 C 4214 -1.46552 0.632037 0
M  V30 44615 C 4214.2 -1.84165 -0.817642 0
M  V30 44616 O 4213.26 -1.95728 -1.59521 0
M  V30 44617 C 4214.57 -2.55538 1.58495 0
M  V30 44618 C 4216.12 -2.69396 1.59357 0
M  V30 44619 C 4216.59 -3.81544 2.53354 0
M  V30 44620 N 4218.08 -3.88923 2.51582 0
M  V30 44621 C 4218.82 -4.75127 3.21002 0
M  V30 44622 N 4218.31 -5.65792 3.99813 0
M  V30 44623 N 4220.11 -4.68887 3.10002 0
M  V30 44624 H 4212.26 -1.01014 1.86842 0
M  V30 44625 H 4214.52 -0.50487 0.802378 0
M  V30 44626 H 4214.23 -2.34702 2.61931 0
M  V30 44627 H 4214.1 -3.52998 1.32938 0
M  V30 44628 H 4216.49 -2.89611 0.566508 0
M  V30 44629 H 4216.57 -1.72412 1.88965 0
M  V30 44630 H 4216.21 -3.62082 3.56173 0
M  V30 44631 H 4216.14 -4.77963 2.21041 0
M  V30 44632 H 4218.63 -3.24095 1.94347 0
M  V30 44633 H 4218.95 -6.28439 4.4976 0
M  V30 44634 H 4217.29 -5.65577 4.03916 0
M  V30 44635 H 4220.48 -3.97054 2.47922 0
M  V30 44636 H 4220.66 -5.35851 3.64374 0
M  V30 44637 N 4214.06 -0.697157 -1.41342 0
M  V30 44638 C 4215.29 -0.237877 -2.05528 0
M  V30 44639 C 4215.71 1.11348 -1.5247 0
M  V30 44640 O 4215.06 1.69615 -0.673578 0
M  V30 44641 C 4215.11 -0.188715 -3.61007 0
M  V30 44642 O 4214.84 -1.4867 -4.12103 0
M  V30 44643 C 4216.34 0.291362 -4.42341 0
M  V30 44644 H 4213.56 -0.110364 -0.661862 0
M  V30 44645 H 4216.1 -0.950187 -1.81085 0
M  V30 44646 H 4214.26 0.474429 -3.84484 0
M  V30 44647 H 4214.67 -1.37486 -5.0616 0
M  V30 44648 H 4216.14 0.274634 -5.51316 0
M  V30 44649 H 4216.62 1.3305 -4.18562 0
M  V30 44650 H 4217.23 -0.340839 -4.23932 0
M  V30 44651 N 4215.54 1.51274 -0.44202 0
M  V30 44652 C 4216.95 1.86689 0.0200077 0
M  V30 44653 C 4217.3 1.35887 1.41524 0
M  V30 44654 O 4216.43 0.711619 2.04365 0
M  V30 44655 C 4217.02 3.38773 0.0430831 0
M  V30 44656 C 4215.58 3.73706 0.449538 0
M  V30 44657 C 4214.73 2.75021 -0.354755 0
M  V30 44658 H 4217.68 1.44432 -0.657653 0
M  V30 44659 H 4217.7 3.70848 0.851578 0
M  V30 44660 H 4217.21 3.75718 -0.972516 0
M  V30 44661 H 4215.31 3.42352 1.47057 0
M  V30 44662 H 4215.43 4.78794 0.171082 0
M  V30 44663 H 4213.79 2.54008 0.187586 0
M  V30 44664 H 4214.57 3.14809 -1.36932 0
M  V30 44665 N 4217.02 0.173543 1.56642 0
M  V30 44666 C 4218.44 -0.182597 1.58552 0
M  V30 44667 C 4218.64 -1.62683 1.18898 0
M  V30 44668 O 4217.69 -2.35854 0.901618 0
M  V30 44669 C 4219 0.100234 3.00533 0
M  V30 44670 C 4220.55 0.038622 3.12976 0
M  V30 44671 C 4221.03 0.294472 4.57052 0
M  V30 44672 N 4222.52 0.242326 4.62566 0
M  V30 44673 C 4223.25 0.414434 5.719 0
M  V30 44674 N 4222.75 0.645718 6.89784 0
M  V30 44675 N 4224.54 0.350184 5.61008 0
M  V30 44676 H 4216.69 1.11623 1.80704 0
M  V30 44677 H 4218.96 0.443926 0.837636 0
M  V30 44678 H 4218.66 1.10079 3.34029 0
M  V30 44679 H 4218.54 -0.60713 3.72282 0
M  V30 44680 H 4220.92 -0.95251 2.79305 0
M  V30 44681 H 4221 0.778731 2.43658 0
M  V30 44682 H 4220.65 1.28282 4.91433 0
M  V30 44683 H 4220.58 -0.466274 5.24532 0
M  V30 44684 H 4223.07 0.0693015 3.77836 0
M  V30 44685 H 4223.38 0.766435 7.6899 0
M  V30 44686 H 4221.73 0.682359 6.91642 0
M  V30 44687 H 4224.92 0.170068 4.67791 0
M  V30 44688 H 4225.09 0.487739 6.46162 0
M  V30 44689 N 4218.5 -1.57281 -0.100172 0
M  V30 44690 C 4219.91 -1.74824 -0.655256 0
M  V30 44691 C 4220.26 -0.794993 -1.79372 0
M  V30 44692 O 4219.38 0.0277152 -2.16382 0
M  V30 44693 C 4219.98 -3.1701 -1.19542 0
M  V30 44694 C 4218.54 -3.35994 -1.69662 0
M  V30 44695 C 4217.69 -2.7064 -0.604079 0
M  V30 44696 H 4220.64 -1.582 0.125869 0
M  V30 44697 H 4220.66 -3.19601 -2.06483 0
M  V30 44698 H 4220.17 -3.86365 -0.366611 0
M  V30 44699 H 4218.27 -2.7171 -2.5496 0
M  V30 44700 H 4218.38 -4.4428 -1.7931 0
M  V30 44701 H 4216.75 -2.32397 -1.04229 0
M  V30 44702 H 4217.53 -3.42632 0.214066 0
M  V30 44703 N 4219.98 0.370864 -1.53174 0
M  V30 44704 C 4220.91 1.47629 -1.74014 0
M  V30 44705 C 4221.89 1.51582 -0.588364 0
M  V30 44706 O 4223.07 1.69714 -0.820332 0
M  V30 44707 C 4220.2 2.86017 -1.81416 0
M  V30 44708 C 4219.24 2.99812 -3.0334 0
M  V30 44709 S 4220.08 2.69116 -4.62965 0
M  V30 44710 C 4221.23 4.09664 -4.73208 0
M  V30 44711 H 4221.47 1.29729 -2.67502 0
M  V30 44712 H 4219 0.564875 -1.43696 0
M  V30 44713 H 4220.96 3.65756 -1.86367 0
M  V30 44714 H 4219.62 3.0123 -0.889891 0
M  V30 44715 H 4218.81 4.0115 -3.05114 0
M  V30 44716 H 4218.41 2.27988 -2.96475 0
M  V30 44717 H 4220.7 5.03838 -4.52938 0
M  V30 44718 H 4221.65 4.12898 -5.75257 0
M  V30 44719 H 4222.06 3.96418 -4.01887 0
M  V30 44720 N 4221.45 1.44444 0.630363 0
M  V30 44721 C 4222.86 1.42012 1.212 0
M  V30 44722 C 4223.22 0.135867 1.95729 0
M  V30 44723 O 4222.34 -0.763729 2.02475 0
M  V30 44724 C 4222.94 2.57266 2.20453 0
M  V30 44725 C 4221.49 2.58026 2.74043 0
M  V30 44726 C 4220.64 2.33834 1.49054 0
M  V30 44727 H 4223.59 1.53014 0.420995 0
M  V30 44728 H 4223.61 2.30063 3.0307 0
M  V30 44729 H 4223.13 3.50721 1.66181 0
M  V30 44730 H 4221.23 1.68514 3.32316 0
M  V30 44731 H 4221.34 3.56536 3.20029 0
M  V30 44732 H 4219.7 1.82942 1.77213 0
M  V30 44733 H 4220.49 3.29404 0.966832 0
M  V30 44734 N 4222.93 -0.870838 1.31355 0
M  V30 44735 C 4224.18 -1.6206 1.20752 0
M  V30 44736 C 4224.5 -1.93583 -0.234675 0
M  V30 44737 O 4223.77 -1.58219 -1.15515 0
M  V30 44738 H 4222.35 -0.600785 0.443922 0
M  V30 44739 H 4225.01 -1.0426 1.64669 0
M  V30 44740 H 4224.11 -2.56461 1.7786 0
M  V30 44741 N 4224.41 -1.14302 -1.08503 0
M  V30 44742 C 4225.64 -0.934102 -1.84614 0
M  V30 44743 C 4226.05 0.517371 -1.81573 0
M  V30 44744 O 4225.41 1.35846 -1.21869 0
M  V30 44745 C 4225.46 -1.42577 -3.32196 0
M  V30 44746 O 4225.18 -2.82037 -3.35242 0
M  V30 44747 C 4226.68 -1.25665 -4.25115 0
M  V30 44748 H 4223.9 -0.332485 -0.582834 0
M  V30 44749 H 4226.45 -1.5179 -1.37041 0
M  V30 44750 H 4224.6 -0.88476 -3.77161 0
M  V30 44751 H 4225.02 -3.04077 -4.27361 0
M  V30 44752 H 4226.49 -1.64928 -5.26785 0
M  V30 44753 H 4226.97 -0.199405 -4.38747 0
M  V30 44754 H 4227.57 -1.78615 -3.85975 0
M  V30 44755 N 4225.89 1.26648 -0.937984 0
M  V30 44756 C 4227.3 1.46215 -0.6398 0
M  V30 44757 C 4227.5 1.84596 0.807863 0
M  V30 44758 O 4226.56 1.96571 1.58481 0
M  V30 44759 C 4227.87 2.54694 -1.59848 0
M  V30 44760 C 4229.42 2.68547 -1.60783 0
M  V30 44761 C 4229.9 3.80195 -2.55374 0
M  V30 44762 N 4231.39 3.87583 -2.53641 0
M  V30 44763 C 4232.12 4.73418 -3.23517 0
M  V30 44764 N 4231.62 5.63664 -4.02808 0
M  V30 44765 N 4233.41 4.67236 -3.12485 0
M  V30 44766 H 4225.56 1.00021 -1.87375 0
M  V30 44767 H 4227.82 0.500607 -0.805044 0
M  V30 44768 H 4227.53 2.3331 -2.63172 0
M  V30 44769 H 4227.4 3.52288 -1.34808 0
M  V30 44770 H 4229.79 2.89307 -0.581859 0
M  V30 44771 H 4229.87 1.71408 -1.89876 0
M  V30 44772 H 4229.52 3.60188 -3.58088 0
M  V30 44773 H 4229.45 4.76784 -2.23572 0
M  V30 44774 H 4231.94 3.2306 -1.96063 0
M  V30 44775 H 4232.25 6.26045 -4.53086 0
M  V30 44776 H 4230.6 5.63427 -4.0691 0
M  V30 44777 H 4233.79 3.95734 -2.50025 0
M  V30 44778 H 4233.96 5.33911 -3.6721 0
M  V30 44779 N 4227.37 0.704643 1.4097 0
M  V30 44780 C 4228.31 0.0450729 2.30756 0
M  V30 44781 C 4229.28 -0.761809 1.476 0
M  V30 44782 O 4230.47 -0.727992 1.76366 0
M  V30 44783 C 4227.61 -0.878744 3.33725 0
M  V30 44784 C 4226.72 -0.0625072 4.31955 0
M  V30 44785 C 4225.86 -0.984797 5.21992 0
M  V30 44786 C 4224.89 -0.162003 6.11886 0
M  V30 44787 N 4224.03 -1.03858 6.94376 0
M  V30 44788 H 4228.87 0.816464 2.86597 0
M  V30 44789 H 4226.41 0.414331 1.41144 0
M  V30 44790 H 4228.37 -1.42849 3.91982 0
M  V30 44791 H 4227 -1.61643 2.79412 0
M  V30 44792 H 4226.05 0.604282 3.7557 0
M  V30 44793 H 4227.36 0.574984 4.95475 0
M  V30 44794 H 4226.51 -1.60346 5.85127 0
M  V30 44795 H 4225.25 -1.65613 4.5872 0
M  V30 44796 H 4224.26 0.469672 5.4779 0
M  V30 44797 H 4225.48 0.505666 6.77215 0
M  V30 44798 H 4223.43 -1.69576 6.33703 0
M  V30 44799 H 4223.35 -0.456873 7.54618 0
M  V30 44800 H 4224.61 -1.64377 7.61971 0
M  V30 44801 N 4228.84 -1.51038 0.450036 0
M  V30 44802 C 4230.09 -2.02489 -0.112321 0
M  V30 44803 C 4230.42 -1.33279 -1.41246 0
M  V30 44804 O 4229.7 -0.451712 -1.89182 0
M  V30 44805 C 4229.98 -3.58693 -0.317962 0
M  V30 44806 C 4229.83 -4.38504 1.00172 0
M  V30 44807 C 4231.15 -4.26591 -1.08206 0
M  V30 44808 H 4228.27 -0.735949 -0.039347 0
M  V30 44809 H 4230.91 -1.80558 0.591517 0
M  V30 44810 H 4229.06 -3.77511 -0.917486 0
M  V30 44811 H 4230.74 -4.31307 1.6362 0
M  V30 44812 H 4228.98 -4.03082 1.60336 0
M  V30 44813 H 4229.65 -5.45999 0.811723 0
M  V30 44814 H 4232.13 -4.1212 -0.574101 0
M  V30 44815 H 4231 -5.3574 -1.19472 0
M  V30 44816 H 4231.26 -3.88315 -2.11338 0
M  V30 44817 N 4230.32 -0.181847 -1.56547 0
M  V30 44818 C 4231.26 0.783258 -2.14337 0
M  V30 44819 C 4232.23 1.21874 -1.07636 0
M  V30 44820 O 4233.42 1.30863 -1.35672 0
M  V30 44821 C 4230.54 2.05612 -2.6915 0
M  V30 44822 C 4229.59 1.76382 -3.88319 0
M  V30 44823 S 4230.42 0.923685 -5.27474 0
M  V30 44824 C 4231.58 2.20698 -5.85699 0
M  V30 44825 H 4231.81 0.291944 -2.95863 0
M  V30 44826 H 4229.35 0.0329729 -1.54365 0
M  V30 44827 H 4231.3 2.78717 -3.01376 0
M  V30 44828 H 4229.96 2.51856 -1.8769 0
M  V30 44829 H 4229.16 2.70852 -4.25035 0
M  V30 44830 H 4228.76 1.11366 -3.57034 0
M  V30 44831 H 4231.05 3.1607 -5.99254 0
M  V30 44832 H 4231.99 1.88434 -6.82567 0
M  V30 44833 H 4232.4 2.32939 -5.14198 0
M  V30 44834 N 4231.8 1.57332 0.09183 0
M  V30 44835 C 4232.71 2.05622 1.12947 0
M  V30 44836 C 4233.73 0.981753 1.43658 0
M  V30 44837 O 4234.9 1.29514 1.54234 0
M  V30 44838 C 4231.97 2.47374 2.42914 0
M  V30 44839 C 4231.03 3.69028 2.19355 0
M  V30 44840 C 4230.26 4.0878 3.43125 0
M  V30 44841 O 4230.48 3.48592 4.51486 0
M  V30 44842 O 4229.42 5.01711 3.3252 0
M  V30 44843 H 4233.24 2.94311 0.749308 0
M  V30 44844 H 4230.83 1.46263 0.304569 0
M  V30 44845 H 4232.71 2.74841 3.19438 0
M  V30 44846 H 4231.39 1.61821 2.80349 0
M  V30 44847 H 4230.29 3.46673 1.40601 0
M  V30 44848 H 4231.63 4.55371 1.8681 0
M  V30 44849 N 4233.28 -0.362736 1.53369 0
M  V30 44850 C 4234.53 -1.1024 1.68908 0
M  V30 44851 C 4234.84 -1.9038 0.448879 0
M  V30 44852 O 4236.05 -2.67135 0.484868 0
M  V30 44853 C 4234.5 -2.00905 2.98605 0
M  V30 44854 C 4234.11 -1.26064 4.29898 0
M  V30 44855 C 4235.85 -2.74846 3.23512 0
M  V30 44856 C 4233.76 -2.15647 5.50682 0
M  V30 44857 H 4232.69 -0.415254 0.629349 0
M  V30 44858 H 4235.34 -0.363199 1.7987 0
M  V30 44859 H 4233.72 -2.78567 2.81454 0
M  V30 44860 H 4234.9 -0.534449 4.5769 0
M  V30 44861 H 4233.21 -0.63973 4.11456 0
M  V30 44862 H 4235.81 -3.42104 4.10937 0
M  V30 44863 H 4236.15 -3.4037 2.39695 0
M  V30 44864 H 4236.69 -2.04265 3.41351 0
M  V30 44865 H 4233.43 -1.54696 6.36985 0
M  V30 44866 H 4232.95 -2.86108 5.27164 0
M  V30 44867 H 4234.62 -2.7514 5.85582 0
M  V30 44868 N 4234.76 -1.44777 -0.622694 0
M  V30 44869 C 4235.98 -1.51501 -1.40908 0
M  V30 44870 C 4236.4 -0.142612 -1.88261 0
M  V30 44871 O 4235.76 0.853077 -1.61335 0
M  V30 44872 C 4235.81 -2.4868 -2.62375 0
M  V30 44873 O 4235.53 -3.80585 -2.16994 0
M  V30 44874 C 4237.03 -2.64953 -3.55408 0
M  V30 44875 H 4234.25 -0.51356 -0.431853 0
M  V30 44876 H 4236.79 -1.89822 -0.760788 0
M  V30 44877 H 4234.95 -2.13472 -3.23277 0
M  V30 44878 H 4235.36 -4.33129 -2.95803 0
M  V30 44879 H 4236.84 -3.36959 -4.37221 0
M  V30 44880 H 4237.31 -1.70469 -4.04768 0
M  V30 44881 H 4237.92 -3.01096 -3.00368 0
M  V30 44882 N 4236.23 0.863859 -1.31815 0
M  V30 44883 C 4237.2 1.95319 -1.1993 0
M  V30 44884 C 4238.2 1.60315 -0.124759 0
M  V30 44885 O 4239.39 1.70127 -0.374484 0
M  V30 44886 C 4236.52 3.30331 -0.842292 0
M  V30 44887 H 4237.71 2.07287 -2.1673 0
M  V30 44888 H 4235.27 1.05291 -1.15514 0
M  V30 44889 H 4236 3.24062 0.124292 0
M  V30 44890 H 4235.79 3.57111 -1.61908 0
M  V30 44891 H 4237.28 4.1019 -0.783197 0
M  V30 44892 N 4237.71 1.14875 1.07895 0
M  V30 44893 C 4238.62 0.854298 2.18492 0
M  V30 44894 C 4239.64 -0.167267 1.73194 0
M  V30 44895 O 4240.81 0.00547977 2.01399 0
M  V30 44896 C 4237.88 0.341709 3.45012 0
M  V30 44897 C 4236.94 1.42648 4.04907 0
M  V30 44898 C 4236.17 0.938258 5.25388 0
M  V30 44899 O 4236.4 -0.218291 5.69982 0
M  V30 44900 O 4235.33 1.71954 5.76815 0
M  V30 44901 H 4239.16 1.77872 2.46161 0
M  V30 44902 H 4236.74 0.927426 1.17129 0
M  V30 44903 H 4238.62 0.0620314 4.21354 0
M  V30 44904 H 4237.3 -0.554913 3.18908 0
M  V30 44905 H 4236.21 1.75969 3.3013 0
M  V30 44906 H 4237.54 2.29782 4.35271 0
M  V30 44907 N 4239.19 -1.26148 0.944687 0
M  V30 44908 C 4240.44 -1.94208 0.60454 0
M  V30 44909 C 4240.79 -1.72722 -0.847638 0
M  V30 44910 O 4240.08 -1.05573 -1.5989 0
M  V30 44911 C 4240.28 -3.4622 0.886913 0
M  V30 44912 C 4240.11 -3.8249 2.36499 0
M  V30 44913 C 4238.88 -4.05064 3.02078 0
M  V30 44914 C 4241.08 -3.9077 3.3437 0
M  V30 44915 N 4239.06 -4.28246 4.39862 0
M  V30 44916 C 4240.43 -4.18525 4.57424 0
M  V30 44917 C 4242.48 -3.73411 3.29346 0
M  V30 44918 C 4241.19 -4.30727 5.76079 0
M  V30 44919 C 4243.21 -3.86847 4.47329 0
M  V30 44920 C 4242.57 -4.15004 5.69167 0
M  V30 44921 H 4238.67 -0.7333 0.271652 0
M  V30 44922 H 4241.26 -1.52152 1.21482 0
M  V30 44923 H 4239.43 -3.87195 0.305654 0
M  V30 44924 H 4241.16 -4.01503 0.507679 0
M  V30 44925 H 4237.92 -4.0056 2.52683 0
M  V30 44926 H 4238.34 -4.43863 5.1119 0
M  V30 44927 H 4242.98 -3.50667 2.36204 0
M  V30 44928 H 4240.7 -4.52291 6.69671 0
M  V30 44929 H 4244.29 -3.74814 4.44978 0
M  V30 44930 H 4243.17 -4.25171 6.58938 0
M  V30 44931 N 4240.67 -0.712109 -1.40594 0
M  V30 44932 C 4241.6 -0.0719848 -2.33389 0
M  V30 44933 C 4242.58 0.749307 -1.52707 0
M  V30 44934 O 4243.76 0.698936 -1.81186 0
M  V30 44935 C 4240.89 0.853063 -3.3666 0
M  V30 44936 C 4239.85 0.137649 -4.27779 0
M  V30 44937 C 4239.17 1.17818 -5.21558 0
M  V30 44938 C 4240.47 -1.00606 -5.12519 0
M  V30 44939 H 4242.17 -0.847052 -2.87168 0
M  V30 44940 H 4239.71 -0.408781 -1.38076 0
M  V30 44941 H 4241.67 1.31024 -4.00513 0
M  V30 44942 H 4240.39 1.65999 -2.81269 0
M  V30 44943 H 4239.05 -0.299667 -3.65373 0
M  V30 44944 H 4238.7 1.97806 -4.62474 0
M  V30 44945 H 4238.4 0.7044 -5.83363 0
M  V30 44946 H 4239.92 1.63553 -5.88288 0
M  V30 44947 H 4241.34 -0.62841 -5.69846 0
M  V30 44948 H 4239.73 -1.40799 -5.83349 0
M  V30 44949 H 4240.8 -1.8383 -4.48703 0
M  V30 44950 N 4242.15 1.50797 -0.45804 0
M  V30 44951 C 4243.39 2.03184 0.0937549 0
M  V30 44952 C 4243.75 1.33478 1.38569 0
M  V30 44953 O 4243.04 0.447406 1.86303 0
M  V30 44954 C 4243.23 3.55716 0.346527 0
M  V30 44955 C 4243.06 4.40202 -0.919359 0
M  V30 44956 C 4241.83 4.83781 -1.4589 0
M  V30 44957 C 4244.03 4.81352 -1.81122 0
M  V30 44958 N 4242.01 5.52547 -2.67517 0
M  V30 44959 C 4243.38 5.49395 -2.87342 0
M  V30 44960 C 4245.44 4.6332 -1.82316 0
M  V30 44961 C 4244.14 6.01317 -3.94729 0
M  V30 44962 C 4246.17 5.16173 -2.88651 0
M  V30 44963 C 4245.53 5.8418 -3.93591 0
M  V30 44964 H 4241.63 0.781981 -0.0053878 0
M  V30 44965 H 4244.21 1.84452 -0.623336 0
M  V30 44966 H 4242.38 3.74421 1.03265 0
M  V30 44967 H 4244.12 3.94758 0.891507 0
M  V30 44968 H 4240.87 4.62707 -1.0099 0
M  V30 44969 H 4241.3 5.91544 -3.29248 0
M  V30 44970 H 4245.94 4.10185 -1.02508 0
M  V30 44971 H 4243.66 6.53495 -4.75363 0
M  V30 44972 H 4247.24 5.0406 -2.90543 0
M  V30 44973 H 4246.12 6.24341 -4.74518 0
M  V30 44974 N 4243.63 0.190147 1.56449 0
M  V30 44975 C 4245.04 -0.16577 1.58737 0
M  V30 44976 C 4245.24 -1.61412 1.20616 0
M  V30 44977 O 4244.3 -2.34884 0.926582 0
M  V30 44978 C 4245.61 0.132104 3.0041 0
M  V30 44979 C 4247.16 0.0718151 3.12918 0
M  V30 44980 C 4247.63 0.342932 4.56714 0
M  V30 44981 N 4249.12 0.291374 4.62283 0
M  V30 44982 C 4249.86 0.475068 5.71429 0
M  V30 44983 N 4249.36 0.718843 6.89061 0
M  V30 44984 N 4251.15 0.409667 5.60605 0
M  V30 44985 H 4243.3 1.13533 1.7951 0
M  V30 44986 H 4245.56 0.452786 0.83288 0
M  V30 44987 H 4245.27 1.13615 3.32843 0
M  V30 44988 H 4245.14 -0.567611 3.72905 0
M  V30 44989 H 4247.53 -0.922833 2.80299 0
M  V30 44990 H 4247.61 0.804531 2.42819 0
M  V30 44991 H 4247.25 1.33487 4.90044 0
M  V30 44992 H 4247.18 -0.410614 5.24997 0
M  V30 44993 H 4249.68 0.109372 3.77742 0
M  V30 44994 H 4249.99 0.847953 7.68134 0
M  V30 44995 H 4248.33 0.755679 6.9088 0
M  V30 44996 H 4251.52 0.219674 4.67584 0
M  V30 44997 H 4251.7 0.556246 6.45608 0
M  V30 44998 N 4245.1 -1.57379 -0.083485 0
M  V30 44999 C 4246.33 -1.90888 -0.798073 0
M  V30 45000 C 4246.75 -0.78499 -1.71707 0
M  V30 45001 O 4246.1 0.242374 -1.80883 0
M  V30 45002 C 4246.15 -3.24084 -1.60162 0
M  V30 45003 O 4245.88 -4.3215 -0.719579 0
M  V30 45004 C 4247.38 -3.71532 -2.41825 0
M  V30 45005 H 4244.6 -0.631235 -0.22756 0
M  V30 45006 H 4247.14 -2.0442 -0.0572475 0
M  V30 45007 H 4245.3 -3.12115 -2.29484 0
M  V30 45008 H 4245.71 -5.0871 -1.27728 0
M  V30 45009 H 4247.18 -4.67392 -2.93681 0
M  V30 45010 H 4247.66 -2.99953 -3.20819 0
M  V30 45011 H 4248.27 -3.86406 -1.77681 0
M  V30 45012 N 4246.58 0.354597 -1.53559 0
M  V30 45013 C 4247.51 1.44073 -1.83754 0
M  V30 45014 C 4248.49 1.55396 -0.691822 0
M  V30 45015 O 4249.68 1.69784 -0.942705 0
M  V30 45016 C 4246.81 2.8127 -2.03726 0
M  V30 45017 C 4245.76 2.84763 -3.19522 0
M  V30 45018 C 4245.09 4.2474 -3.24807 0
M  V30 45019 C 4246.39 2.51293 -4.57874 0
M  V30 45020 H 4248.08 1.19053 -2.74712 0
M  V30 45021 H 4245.63 0.571277 -1.32183 0
M  V30 45022 H 4247.58 3.57289 -2.23433 0
M  V30 45023 H 4246.3 3.07701 -1.09488 0
M  V30 45024 H 4244.96 2.11196 -2.99653 0
M  V30 45025 H 4244.61 4.48264 -2.28185 0
M  V30 45026 H 4244.31 4.27991 -4.02614 0
M  V30 45027 H 4245.84 5.02617 -3.46711 0
M  V30 45028 H 4247.25 3.17026 -4.77669 0
M  V30 45029 H 4245.65 2.65844 -5.38003 0
M  V30 45030 H 4246.72 1.4651 -4.62237 0
M  V30 45031 N 4248.06 1.45105 0.615008 0
M  V30 45032 C 4249.31 1.4844 1.3715 0
M  V30 45033 C 4249.63 0.124543 1.94602 0
M  V30 45034 O 4248.9 -0.845191 1.7673 0
M  V30 45035 H 4247.48 0.54663 0.509121 0
M  V30 45036 H 4250.14 1.81005 0.722716 0
M  V30 45037 H 4249.24 2.21901 2.19468 0
M  V30 45038 N 4249.54 -0.856857 1.32271 0
M  V30 45039 C 4250.95 -1.14471 1.11214 0
M  V30 45040 C 4251.15 -2.01206 -0.108822 0
M  V30 45041 O 4250.21 -2.39679 -0.794358 0
M  V30 45042 C 4251.52 -1.82417 2.39049 0
M  V30 45043 C 4253.07 -1.95062 2.44785 0
M  V30 45044 C 4253.55 -2.66423 3.72536 0
M  V30 45045 N 4255.04 -2.73949 3.73505 0
M  V30 45046 C 4255.77 -3.2981 4.69055 0
M  V30 45047 N 4255.27 -3.86499 5.7497 0
M  V30 45048 N 4257.06 -3.27893 4.56555 0
M  V30 45049 H 4249.21 -0.279194 2.10557 0
M  V30 45050 H 4251.47 -0.186321 0.92951 0
M  V30 45051 H 4251.18 -1.2614 3.28301 0
M  V30 45052 H 4251.05 -2.82592 2.49843 0
M  V30 45053 H 4253.44 -2.50499 1.55994 0
M  V30 45054 H 4253.52 -0.938897 2.37946 0
M  V30 45055 H 4253.17 -2.1165 4.617 0
M  V30 45056 H 4253.1 -3.6803 3.76646 0
M  V30 45057 H 4255.59 -2.3373 2.96949 0
M  V30 45058 H 4255.9 -4.27273 6.43939 0
M  V30 45059 H 4254.25 -3.84837 5.78727 0
M  V30 45060 H 4257.44 -2.82851 3.72978 0
M  V30 45061 H 4257.61 -3.71127 5.31196 0
M  V30 45062 N 4251.02 -1.15446 -1.07285 0
M  V30 45063 C 4251.96 -0.847672 -2.16604 0
M  V30 45064 C 4252.96 0.179187 -1.6845 0
M  V30 45065 O 4254.16 0.0341546 -1.79968 0
M  V30 45066 H 4250.54 -0.256463 -0.706916 0
M  V30 45067 H 4252.51 -1.7773 -2.39697 0
M  V30 45068 C 4251.26 -0.354123 -3.45892 0
M  V30 45069 H 4250.58 -1.13567 -3.83331 0
M  V30 45070 H 4252.02 -0.17813 -4.23626 0
M  V30 45071 C 4250.48 0.924487 -3.23967 0
M  V30 45072 O 4251.01 1.99588 -3.48608 0
M  V30 45073 N 4249.22 0.864266 -2.77451 0
M  V30 45074 H 4248.76 -0.00779009 -2.57599 0
M  V30 45075 H 4248.72 1.72029 -2.6316 0
M  V30 45076 N 4252.49 1.25646 -0.951364 0
M  V30 45077 C 4253.44 2.2601 -0.467755 0
M  V30 45078 C 4254.41 1.59073 0.478021 0
M  V30 45079 O 4255.6 1.8673 0.391991 0
M  V30 45080 C 4252.74 3.44183 0.251422 0
M  V30 45081 C 4251.85 4.25767 -0.73121 0
M  V30 45082 C 4250.98 5.31199 0.0101967 0
M  V30 45083 C 4250.02 6.04468 -0.963585 0
M  V30 45084 N 4249.16 7.01643 -0.253266 0
M  V30 45085 H 4254 2.66748 -1.32852 0
M  V30 45086 H 4251.54 1.31144 -0.666301 0
M  V30 45087 H 4253.49 4.11539 0.68493 0
M  V30 45088 H 4252.12 3.0433 1.07625 0
M  V30 45089 H 4251.18 3.58103 -1.28321 0
M  V30 45090 H 4252.49 4.7651 -1.47444 0
M  V30 45091 H 4251.64 6.04615 0.502497 0
M  V30 45092 H 4250.38 4.81321 0.786236 0
M  V30 45093 H 4249.39 5.29869 -1.46692 0
M  V30 45094 H 4250.61 6.56436 -1.7398 0
M  V30 45095 H 4248.56 6.5406 0.504095 0
M  V30 45096 H 4248.47 7.50188 -0.935643 0
M  V30 45097 H 4249.74 7.79196 0.217605 0
M  V30 45098 N 4253.97 0.719555 1.40215 0
M  V30 45099 C 4255.39 0.393522 1.54672 0
M  V30 45100 C 4255.59 -1.09729 1.69003 0
M  V30 45101 O 4254.64 -1.88336 1.68184 0
M  V30 45102 C 4255.96 1.16305 2.77297 0
M  V30 45103 C 4257.5 1.14974 2.91118 0
M  V30 45104 C 4257.98 1.90151 4.16661 0
M  V30 45105 N 4259.47 1.87239 4.23669 0
M  V30 45106 C 4260.21 2.42228 5.19724 0
M  V30 45107 N 4259.7 3.05789 6.21663 0
M  V30 45108 N 4261.49 2.32347 5.11831 0
M  V30 45109 H 4253.65 1.68617 1.2916 0
M  V30 45110 H 4255.91 0.712925 0.624854 0
M  V30 45111 H 4255.61 2.2173 2.72999 0
M  V30 45112 H 4255.49 0.757278 3.6952 0
M  V30 45113 H 4257.88 0.103667 2.94918 0
M  V30 45114 H 4257.96 1.59476 2.00002 0
M  V30 45115 H 4257.6 2.94751 4.13623 0
M  V30 45116 H 4257.53 1.43066 5.06794 0
M  V30 45117 H 4260.02 1.4092 3.50642 0
M  V30 45118 H 4260.33 3.45254 6.9139 0
M  V30 45119 H 4258.68 3.09874 6.22096 0
M  V30 45120 H 4261.87 1.82346 4.31124 0
M  V30 45121 H 4262.04 2.75503 5.86517 0
M  V30 45122 N 4255.45 -1.50552 0.466031 0
M  V30 45123 C 4256.86 -1.86697 0.00969546 0
M  V30 45124 C 4257.21 -1.38121 -1.39345 0
M  V30 45125 O 4256.34 -0.744042 -2.03207 0
M  V30 45126 C 4256.93 -3.38798 0.0108182 0
M  V30 45127 C 4255.49 -3.74374 -0.390028 0
M  V30 45128 C 4254.64 -2.74422 0.398463 0
M  V30 45129 H 4257.59 -1.43368 0.680547 0
M  V30 45130 H 4257.61 -3.72156 -0.792471 0
M  V30 45131 H 4257.12 -3.74123 1.03217 0
M  V30 45132 H 4255.22 -3.44648 -1.41592 0
M  V30 45133 H 4255.34 -4.79006 -0.0948887 0
M  V30 45134 H 4253.7 -2.54275 -0.147152 0
M  V30 45135 H 4254.48 -3.1259 1.41923 0
M  V30 45136 N 4256.93 -0.198441 -1.56346 0
M  V30 45137 C 4258.34 0.15735 -1.58822 0
M  V30 45138 C 4258.54 1.6077 -1.21471 0
M  V30 45139 O 4257.6 2.3439 -0.939026 0
M  V30 45140 C 4258.91 -0.148033 -3.00335 0
M  V30 45141 C 4260.46 -0.0884089 -3.12875 0
M  V30 45142 C 4260.94 -0.367148 -4.56526 0
M  V30 45143 N 4262.43 -0.315886 -4.62122 0
M  V30 45144 C 4263.16 -0.505366 -5.71169 0
M  V30 45145 N 4262.66 -0.755375 -6.8867 0
M  V30 45146 N 4264.45 -0.439391 -5.6038 0
M  V30 45147 H 4256.6 -1.14484 -1.78906 0
M  V30 45148 H 4258.86 -0.457196 -0.830467 0
M  V30 45149 H 4258.57 -1.15379 -3.32236 0
M  V30 45150 H 4258.44 0.547827 -3.73201 0
M  V30 45151 H 4260.83 0.907955 -2.80785 0
M  V30 45152 H 4260.91 -0.817396 -2.42389 0
M  V30 45153 H 4260.56 -1.36084 -4.8933 0
M  V30 45154 H 4260.49 0.382767 -5.25207 0
M  V30 45155 H 4262.98 -0.129403 -3.77678 0
M  V30 45156 H 4263.29 -0.888677 -7.67673 0
M  V30 45157 H 4261.64 -0.792307 -6.90469 0
M  V30 45158 H 4264.83 -0.244468 -4.67461 0
M  V30 45159 H 4265 -0.590476 -6.45304 0
M  V30 45160 N 4258.41 1.57421 0.0751377 0
M  V30 45161 C 4259.34 2.06496 1.09003 0
M  V30 45162 C 4260.32 0.957791 1.40572 0
M  V30 45163 O 4261.5 1.23031 1.50257 0
M  V30 45164 C 4258.63 2.5061 2.40441 0
M  V30 45165 C 4257.59 3.65172 2.23234 0
M  V30 45166 C 4256.91 3.9533 3.60026 0
M  V30 45167 C 4258.21 4.95341 1.65633 0
M  V30 45168 H 4259.91 2.91537 0.681673 0
M  V30 45169 H 4257.45 1.40251 0.326457 0
M  V30 45170 H 4259.41 2.83554 3.11729 0
M  V30 45171 H 4258.13 1.62593 2.83251 0
M  V30 45172 H 4256.79 3.32506 1.54387 0
M  V30 45173 H 4256.44 3.0445 4.00399 0
M  V30 45174 H 4256.14 4.72469 3.49352 0
M  V30 45175 H 4257.66 4.30767 4.3275 0
M  V30 45176 H 4259.07 5.26538 2.26783 0
M  V30 45177 H 4257.47 5.7678 1.65665 0
M  V30 45178 H 4258.54 4.80952 0.617508 0
M  V30 45179 N 4259.88 -0.346449 1.53745 0
M  V30 45180 C 4261.12 -1.09549 1.72564 0
M  V30 45181 C 4261.49 -1.85976 0.47717 0
M  V30 45182 O 4262.69 -2.63272 0.542341 0
M  V30 45183 C 4260.96 -2.01401 2.9525 0
M  V30 45184 S 4262.52 -2.83567 3.34866 0
M  V30 45185 H 4259.34 -0.370198 0.607021 0
M  V30 45186 H 4261.94 -0.374282 1.91884 0
M  V30 45187 H 4260.64 -1.4405 3.84289 0
M  V30 45188 H 4260.17 -2.77964 2.78387 0
M  V30 45189 H 4262.19 -4.03801 2.88374 0
M  V30 45190 N 4261.36 -1.45429 -0.607304 0
M  V30 45191 C 4262.59 -1.52987 -1.39293 0
M  V30 45192 C 4263.01 -0.162572 -1.88099 0
M  V30 45193 O 4262.36 0.835917 -1.6223 0
M  V30 45194 C 4262.41 -2.51449 -2.59722 0
M  V30 45195 O 4262.13 -3.82865 -2.12945 0
M  V30 45196 C 4263.64 -2.68708 -3.52578 0
M  V30 45197 H 4260.86 -0.518111 -0.426382 0
M  V30 45198 H 4263.4 -1.90618 -0.740612 0
M  V30 45199 H 4261.55 -2.16889 -3.20995 0
M  V30 45200 H 4261.97 -4.36242 -2.91193 0
M  V30 45201 H 4263.44 -3.41578 -4.33623 0
M  V30 45202 H 4263.92 -1.74753 -4.02937 0
M  V30 45203 H 4264.53 -3.04265 -2.97158 0
M  V30 45204 N 4262.84 0.84983 -1.32724 0
M  V30 45205 C 4264.26 1.1388 -1.1182 0
M  V30 45206 C 4264.46 2.01261 0.09815 0
M  V30 45207 O 4263.51 2.40097 0.781636 0
M  V30 45208 C 4264.83 1.81147 -2.40013 0
M  V30 45209 C 4266.37 1.93761 -2.45816 0
M  V30 45210 C 4266.85 2.64443 -3.73943 0
M  V30 45211 N 4268.34 2.71965 -3.74953 0
M  V30 45212 C 4269.07 3.27318 -4.70798 0
M  V30 45213 N 4268.57 3.83444 -5.77012 0
M  V30 45214 N 4270.36 3.25467 -4.58288 0
M  V30 45215 H 4262.51 0.268023 -2.10702 0
M  V30 45216 H 4264.78 0.181389 -0.930485 0
M  V30 45217 H 4264.48 1.24397 -3.28966 0
M  V30 45218 H 4264.36 2.81263 -2.51338 0
M  V30 45219 H 4266.74 2.49668 -1.5732 0
M  V30 45220 H 4266.83 0.926265 -2.38441 0
M  V30 45221 H 4266.47 2.09198 -4.62816 0
M  V30 45222 H 4266.4 3.66027 -3.78592 0
M  V30 45223 H 4268.89 2.32152 -2.98184 0
M  V30 45224 H 4269.2 4.23852 -6.46196 0
M  V30 45225 H 4267.55 3.81763 -5.8076 0
M  V30 45226 H 4270.74 2.80869 -3.74473 0
M  V30 45227 H 4270.91 3.68305 -5.33156 0
M  V30 45228 N 4264.32 1.16013 1.06671 0
M  V30 45229 C 4265.23 0.877424 2.17574 0
M  V30 45230 C 4266.24 -0.148888 1.73362 0
M  V30 45231 O 4267.42 0.0268405 2.01382 0
M  V30 45232 C 4264.49 0.378283 3.4463 0
M  V30 45233 C 4263.55 1.46935 4.03372 0
M  V30 45234 C 4262.78 0.993929 5.24363 0
M  V30 45235 O 4263 -0.157824 5.70182 0
M  V30 45236 O 4261.94 1.78062 5.74959 0
M  V30 45237 H 4265.76 1.80472 2.44261 0
M  V30 45238 H 4263.35 0.939797 1.16139 0
M  V30 45239 H 4265.23 0.106718 4.21265 0
M  V30 45240 H 4263.9 -0.521057 3.19479 0
M  V30 45241 H 4262.81 1.79461 3.28245 0
M  V30 45242 H 4264.14 2.34385 4.3281 0
M  V30 45243 N 4265.8 -1.25139 0.958014 0
M  V30 45244 C 4266.71 -2.29476 0.487633 0
M  V30 45245 C 4267.72 -1.68169 -0.446675 0
M  V30 45246 O 4268.9 -1.98808 -0.322092 0
M  V30 45247 C 4265.96 -3.45976 -0.223869 0
M  V30 45248 C 4265.02 -4.22714 0.749068 0
M  V30 45249 C 4264.26 -5.33652 0.0714267 0
M  V30 45250 O 4264.48 -5.58846 -1.14224 0
M  V30 45251 O 4263.41 -5.97099 0.75868 0
M  V30 45252 H 4267.24 -2.71809 1.35475 0
M  V30 45253 H 4264.83 -1.30651 0.724617 0
M  V30 45254 H 4266.71 -4.16755 -0.623966 0
M  V30 45255 H 4265.38 -3.0564 -1.06611 0
M  V30 45256 H 4264.29 -3.54351 1.19944 0
M  V30 45257 H 4265.62 -4.66843 1.55943 0
M  V30 45258 N 4267.27 -0.726981 -1.39831 0
M  V30 45259 C 4268.52 -0.271422 -2.00673 0
M  V30 45260 C 4268.85 1.1389 -1.57669 0
M  V30 45261 O 4268.1 1.78911 -0.793046 0
M  V30 45262 C 4268.4 -0.312113 -3.56035 0
M  V30 45263 C 4268.07 -1.67432 -4.18661 0
M  V30 45264 C 4266.73 -2.04718 -4.35481 0
M  V30 45265 C 4269.08 -2.56909 -4.53484 0
M  V30 45266 C 4266.41 -3.31005 -4.8441 0
M  V30 45267 C 4268.76 -3.82559 -5.03817 0
M  V30 45268 C 4267.43 -4.19948 -5.18845 0
M  V30 45269 H 4266.7 -0.0993202 -0.734314 0
M  V30 45270 H 4269.34 -0.932251 -1.67276 0
M  V30 45271 H 4267.65 0.432292 -3.89408 0
M  V30 45272 H 4269.35 0.0583834 -4.00957 0
M  V30 45273 H 4265.94 -1.3744 -4.05966 0
M  V30 45274 H 4270.12 -2.29375 -4.40115 0
M  V30 45275 H 4265.38 -3.59926 -4.9423 0
M  V30 45276 H 4269.55 -4.52054 -5.29736 0
M  V30 45277 H 4267.18 -5.1787 -5.5652 0
M  V30 45278 N 4268.75 1.50303 -0.474008 0
M  V30 45279 C 4269.98 2.06755 0.0775768 0
M  V30 45280 C 4270.4 1.33754 1.33249 0
M  V30 45281 O 4269.75 0.40769 1.77888 0
M  V30 45282 C 4269.8 3.59676 0.362709 0
M  V30 45283 O 4269.52 4.29924 -0.842428 0
M  V30 45284 C 4271.03 4.3276 0.960937 0
M  V30 45285 H 4268.25 0.670948 -0.00838484 0
M  V30 45286 H 4270.79 1.93433 -0.663628 0
M  V30 45287 H 4268.94 3.7279 1.05385 0
M  V30 45288 H 4269.36 5.21185 -0.5888 0
M  V30 45289 H 4270.83 5.4072 1.1102 0
M  V30 45290 H 4271.31 3.93448 1.9518 0
M  V30 45291 H 4271.92 4.24183 0.308088 0
M  V30 45292 N 4270.23 0.20673 1.56238 0
M  V30 45293 C 4271.18 -0.709452 2.19626 0
M  V30 45294 C 4272.15 -1.20126 1.14712 0
M  V30 45295 O 4273.33 -1.26304 1.4301 0
M  V30 45296 C 4270.47 -1.91842 2.86864 0
M  V30 45297 C 4269.59 -1.46689 4.06333 0
M  V30 45298 C 4268.72 -2.63227 4.61395 0
M  V30 45299 C 4267.76 -2.14737 5.73197 0
M  V30 45300 N 4266.9 -3.24494 6.22614 0
M  V30 45301 H 4271.74 -0.162173 2.97558 0
M  V30 45302 H 4269.27 -0.0682994 1.46941 0
M  V30 45303 H 4271.23 -2.62802 3.24023 0
M  V30 45304 H 4269.86 -2.43882 2.11475 0
M  V30 45305 H 4268.91 -0.652743 3.74758 0
M  V30 45306 H 4270.23 -1.07123 4.87161 0
M  V30 45307 H 4269.38 -3.42292 5.0092 0
M  V30 45308 H 4268.12 -3.06073 3.79698 0
M  V30 45309 H 4267.12 -1.34129 5.33188 0
M  V30 45310 H 4268.35 -1.72908 6.56719 0
M  V30 45311 H 4266.29 -3.6685 5.43836 0
M  V30 45312 H 4266.21 -2.89133 6.98526 0
M  V30 45313 H 4267.48 -4.03738 6.66795 0
M  V30 45314 N 4271.71 -1.57458 -0.0667882 0
M  V30 45315 C 4272.66 -2.04033 -1.07885 0
M  V30 45316 C 4273.63 -0.921914 -1.38166 0
M  V30 45317 O 4274.81 -1.18993 -1.49149 0
M  V30 45318 C 4271.95 -2.49333 -2.38594 0
M  V30 45319 C 4271.06 -3.74814 -2.14799 0
M  V30 45320 C 4270.2 -4.08876 -3.39107 0
M  V30 45321 C 4269.24 -5.27383 -3.10699 0
M  V30 45322 N 4268.37 -5.57059 -4.27352 0
M  V30 45323 H 4273.21 -2.90262 -0.674704 0
M  V30 45324 H 4270.75 -1.43542 -0.321577 0
M  V30 45325 H 4272.71 -2.73651 -3.14914 0
M  V30 45326 H 4271.34 -1.66075 -2.76801 0
M  V30 45327 H 4270.39 -3.57806 -1.29148 0
M  V30 45328 H 4271.7 -4.6127 -1.89818 0
M  V30 45329 H 4270.86 -4.34122 -4.2382 0
M  V30 45330 H 4269.6 -3.20997 -3.67168 0
M  V30 45331 H 4268.6 -5.01929 -2.24383 0
M  V30 45332 H 4269.83 -6.16884 -2.83955 0
M  V30 45333 H 4267.77 -4.72139 -4.55434 0
M  V30 45334 H 4267.69 -6.37945 -4.05662 0
M  V30 45335 H 4268.96 -5.86859 -5.13047 0
M  V30 45336 N 4273.19 0.33829 -1.53926 0
M  V30 45337 C 4274.43 1.07954 -1.71679 0
M  V30 45338 C 4274.77 1.88141 -0.481327 0
M  V30 45339 O 4274.04 1.87373 0.521676 0
M  V30 45340 C 4274.32 2.01641 -2.9835 0
M  V30 45341 C 4274.18 1.24882 -4.32116 0
M  V30 45342 C 4275.5 3.01382 -3.20713 0
M  V30 45343 H 4272.62 0.391069 -0.624687 0
M  V30 45344 H 4275.26 0.35759 -1.86605 0
M  V30 45345 H 4273.41 2.63202 -2.85757 0
M  V30 45346 H 4275.08 0.658941 -4.56569 0
M  V30 45347 H 4273.32 0.550886 -4.30288 0
M  V30 45348 H 4273.99 1.93595 -5.16938 0
M  V30 45349 H 4276.47 2.49937 -3.32672 0
M  V30 45350 H 4275.35 3.64133 -4.10729 0
M  V30 45351 H 4275.61 3.73046 -2.37253 0
M  V30 45352 N 4274.67 1.45749 0.599583 0
M  V30 45353 C 4276.08 1.30331 0.921189 0
M  V30 45354 C 4276.28 0.262248 1.99786 0
M  V30 45355 O 4275.34 -0.341046 2.50186 0
M  V30 45356 C 4276.65 2.68464 1.35453 0
M  V30 45357 C 4278.2 2.76423 1.4683 0
M  V30 45358 C 4278.67 4.15099 1.93537 0
M  V30 45359 N 4280.16 4.17433 2.00758 0
M  V30 45360 C 4280.9 5.21612 2.38136 0
M  V30 45361 N 4280.4 6.36131 2.74426 0
M  V30 45362 N 4282.19 5.08972 2.38545 0
M  V30 45363 H 4274.34 2.12105 -0.111929 0
M  V30 45364 H 4276.6 0.947916 0.0125875 0
M  V30 45365 H 4276.31 3.45873 0.637529 0
M  V30 45366 H 4276.18 2.97457 2.31946 0
M  V30 45367 H 4278.57 1.99313 2.1762 0
M  V30 45368 H 4278.65 2.51135 0.486312 0
M  V30 45369 H 4278.29 4.92698 1.23331 0
M  V30 45370 H 4278.22 4.37785 2.92664 0
M  V30 45371 H 4280.72 3.34797 1.7527 0
M  V30 45372 H 4281.03 7.11411 3.01852 0
M  V30 45373 H 4279.37 6.39519 2.72103 0
M  V30 45374 H 4282.56 4.18549 2.09605 0
M  V30 45375 H 4282.74 5.90279 2.67348 0
M  V30 45376 N 4276.14 -0.84278 1.33173 0
M  V30 45377 C 4277.37 -1.62995 1.27437 0
M  V30 45378 C 4277.79 -1.88159 -0.155444 0
M  V30 45379 O 4277.14 -1.45899 -1.09635 0
M  V30 45380 C 4277.19 -2.98242 2.0429 0
M  V30 45381 O 4276.92 -2.74185 3.41693 0
M  V30 45382 C 4278.42 -3.92677 2.05718 0
M  V30 45383 H 4275.64 -0.507294 0.439196 0
M  V30 45384 H 4278.18 -1.05004 1.75483 0
M  V30 45385 H 4276.34 -3.52845 1.59936 0
M  V30 45386 H 4276.75 -3.60282 3.81179 0
M  V30 45387 H 4278.22 -4.84802 2.63952 0
M  V30 45388 H 4278.7 -4.26552 1.04644 0
M  V30 45389 H 4279.31 -3.44011 2.50073 0
M  V30 45390 N 4277.62 -1.16577 -1.06054 0
M  V30 45391 C 4278.57 -0.870598 -2.15693 0
M  V30 45392 C 4279.56 0.161311 -1.6863 0
M  V30 45393 O 4280.77 0.0150647 -1.79994 0
M  V30 45394 H 4277.14 -0.263946 -0.704157 0
M  V30 45395 H 4279.12 -1.80262 -2.37798 0
M  V30 45396 C 4277.86 -0.390789 -3.45497 0
M  V30 45397 H 4277.19 -1.17626 -3.82105 0
M  V30 45398 H 4278.63 -0.223051 -4.23413 0
M  V30 45399 C 4277.09 0.890074 -3.2493 0
M  V30 45400 O 4277.62 1.9588 -3.50705 0
M  V30 45401 N 4275.82 0.83479 -2.78352 0
M  V30 45402 H 4275.37 -0.0351115 -2.57576 0
M  V30 45403 H 4275.33 1.69228 -2.6497 0
M  V30 45404 N 4279.1 1.2463 -0.964637 0
M  V30 45405 C 4280.06 2.23741 -0.497245 0
M  V30 45406 C 4281.06 1.55628 0.404542 0
M  V30 45407 O 4282.25 1.73043 0.20043 0
M  V30 45408 C 4279.38 3.39746 0.280288 0
M  V30 45409 H 4280.58 2.66605 -1.37339 0
M  V30 45410 H 4278.13 1.3719 -0.748913 0
M  V30 45411 H 4278.87 3.02317 1.17367 0
M  V30 45412 H 4278.65 3.9038 -0.366809 0
M  V30 45413 H 4280.14 4.13319 0.596429 0
M  V30 45414 N 4280.58 0.734386 1.39444 0
M  V30 45415 C 4281.54 0.102517 2.28971 0
M  V30 45416 C 4282.54 -0.667779 1.46278 0
M  V30 45417 O 4283.73 -0.496888 1.66963 0
M  V30 45418 C 4280.86 -0.864049 3.29768 0
M  V30 45419 H 4282.06 0.891258 2.8635 0
M  V30 45420 H 4279.61 0.50018 1.48081 0
M  V30 45421 H 4280.34 -1.67917 2.77443 0
M  V30 45422 H 4280.13 -0.314349 3.90838 0
M  V30 45423 H 4281.62 -1.30275 3.9676 0
M  V30 45424 N 4282.06 -1.50049 0.481972 0
M  V30 45425 C 4282.99 -2.25457 -0.352747 0
M  V30 45426 C 4283.97 -1.29226 -0.986879 0
M  V30 45427 O 4285.15 -1.58474 -1.0207 0
M  V30 45428 C 4282.28 -3.03913 -1.49515 0
M  V30 45429 C 4281.32 -4.15152 -0.977308 0
M  V30 45430 S 4282.16 -5.35373 0.116728 0
M  V30 45431 C 4283.31 -6.17379 -1.02929 0
M  V30 45432 H 4283.55 -2.95908 0.287336 0
M  V30 45433 H 4281.08 -1.52074 0.266998 0
M  V30 45434 H 4283.04 -3.49704 -2.14983 0
M  V30 45435 H 4281.7 -2.32967 -2.10678 0
M  V30 45436 H 4280.89 -4.69491 -1.83288 0
M  V30 45437 H 4280.49 -3.71853 -0.400162 0
M  V30 45438 H 4282.78 -6.49171 -1.93863 0
M  V30 45439 H 4283.73 -7.06152 -0.524931 0
M  V30 45440 H 4284.14 -5.49609 -1.28803 0
M  V30 45441 N 4283.53 -0.215012 -1.56126 0
M  V30 45442 C 4284.78 0.417628 -1.97738 0
M  V30 45443 C 4285.1 1.60758 -1.10371 0
M  V30 45444 O 4284.37 1.95078 -0.179296 0
M  V30 45445 H 4282.95 0.157286 -0.730254 0
M  V30 45446 H 4285.61 -0.306385 -1.92477 0
M  V30 45447 H 4284.71 0.748368 -3.02995 0
M  V30 45448 N 4285.01 1.57492 0.0584368 0
M  V30 45449 C 4285.97 2.03607 1.05247 0
M  V30 45450 C 4286.97 0.935232 1.30805 0
M  V30 45451 O 4288.16 1.19973 1.26301 0
M  V30 45452 C 4285.3 2.42808 2.39284 0
M  V30 45453 H 4286.49 2.92666 0.654727 0
M  V30 45454 H 4284.04 1.53305 0.304525 0
M  V30 45455 H 4284.78 1.56816 2.83865 0
M  V30 45456 H 4284.56 3.23151 2.22071 0
M  V30 45457 H 4286.05 2.79016 3.10709 0
M  V30 45458 N 4286.49 -0.330122 1.54104 0
M  V30 45459 C 4287.74 -1.07042 1.72249 0
M  V30 45460 C 4288.07 -1.87883 0.491298 0
M  V30 45461 O 4287.34 -1.87647 -0.511731 0
M  V30 45462 C 4287.63 -2.00056 2.99416 0
M  V30 45463 C 4287.48 -1.22588 4.32773 0
M  V30 45464 C 4288.8 -2.99677 3.22307 0
M  V30 45465 H 4285.92 -0.38775 0.626752 0
M  V30 45466 H 4288.56 -0.347689 1.86792 0
M  V30 45467 H 4286.71 -2.61683 2.87149 0
M  V30 45468 H 4288.38 -0.634719 4.56912 0
M  V30 45469 H 4286.62 -0.528059 4.30574 0
M  V30 45470 H 4287.3 -1.90851 5.17958 0
M  V30 45471 H 4289.77 -2.4817 3.33993 0
M  V30 45472 H 4288.65 -3.61949 4.12655 0
M  V30 45473 H 4288.91 -3.71783 2.39228 0
M  V30 45474 N 4287.97 -1.46065 -0.591845 0
M  V30 45475 C 4289.22 -1.50901 -1.35037 0
M  V30 45476 C 4289.54 -0.157026 -1.93865 0
M  V30 45477 O 4288.8 0.846253 -1.76457 0
M  V30 45478 C 4289.1 -2.5484 -2.50582 0
M  V30 45479 C 4288.76 -3.99115 -2.09804 0
M  V30 45480 C 4287.43 -4.38397 -1.98398 0
M  V30 45481 C 4289.78 -4.89784 -1.78216 0
M  V30 45482 C 4287.11 -5.66224 -1.53648 0
M  V30 45483 C 4289.46 -6.18039 -1.34948 0
M  V30 45484 C 4288.12 -6.56235 -1.22112 0
M  V30 45485 H 4287.39 -0.552187 -0.494137 0
M  V30 45486 H 4290.04 -1.79494 -0.667386 0
M  V30 45487 H 4288.34 -2.19874 -3.24288 0
M  V30 45488 H 4290.04 -2.55814 -3.08804 0
M  V30 45489 H 4286.63 -3.68059 -2.19614 0
M  V30 45490 H 4290.81 -4.60161 -1.85918 0
M  V30 45491 H 4286.07 -5.94599 -1.42345 0
M  V30 45492 H 4290.24 -6.87728 -1.09557 0
M  V30 45493 H 4287.87 -7.55181 -0.872116 0
M  V30 45494 N 4289.45 0.835705 -1.33618 0
M  V30 45495 C 4290.67 1.62317 -1.283 0
M  V30 45496 C 4291.09 1.88239 0.145463 0
M  V30 45497 O 4290.45 1.46478 1.0886 0
M  V30 45498 C 4290.5 2.97154 -2.05868 0
M  V30 45499 O 4290.22 2.72369 -3.43142 0
M  V30 45500 C 4291.72 3.9158 -2.07798 0
M  V30 45501 H 4288.94 0.504958 -0.441881 0
M  V30 45502 H 4291.48 1.04072 -1.76038 0
M  V30 45503 H 4289.64 3.51991 -1.61805 0
M  V30 45504 H 4290.05 3.58255 -3.83084 0
M  V30 45505 H 4291.53 4.83396 -2.66519 0
M  V30 45506 H 4292 4.25991 -1.06905 0
M  V30 45507 H 4292.61 3.4268 -2.51894 0
M  V30 45508 N 4290.92 1.17138 1.05434 0
M  V30 45509 C 4291.83 0.900451 2.16631 0
M  V30 45510 C 4292.85 -0.130492 1.7351 0
M  V30 45511 O 4294.03 0.0481983 2.01342 0
M  V30 45512 C 4291.09 0.414815 3.44209 0
M  V30 45513 C 4290.15 1.51205 4.0179 0
M  V30 45514 C 4289.39 1.04949 5.23279 0
M  V30 45515 O 4289.61 -0.0973402 5.70317 0
M  V30 45516 O 4288.54 1.8415 5.73038 0
M  V30 45517 H 4292.37 1.83053 2.42333 0
M  V30 45518 H 4289.95 0.952062 1.15135 0
M  V30 45519 H 4291.84 0.151393 4.21128 0
M  V30 45520 H 4290.51 -0.487143 3.20013 0
M  V30 45521 H 4289.42 1.82932 3.26323 0
M  V30 45522 H 4290.75 2.38963 4.303 0
M  V30 45523 N 4292.4 -1.24116 0.971232 0
M  V30 45524 C 4293.31 -2.28946 0.511944 0
M  V30 45525 C 4294.33 -1.68633 -0.428813 0
M  V30 45526 O 4295.5 -1.99138 -0.300988 0
M  V30 45527 C 4292.57 -3.46194 -0.187161 0
M  V30 45528 C 4291.63 -4.21896 0.793861 0
M  V30 45529 C 4290.86 -5.33546 0.128024 0
M  V30 45530 O 4291.09 -5.60026 -1.08291 0
M  V30 45531 O 4290.02 -5.96261 0.821968 0
M  V30 45532 H 4293.85 -2.70357 1.38351 0
M  V30 45533 H 4291.43 -1.29875 0.738433 0
M  V30 45534 H 4293.31 -4.17393 -0.579729 0
M  V30 45535 H 4291.99 -3.06754 -1.03363 0
M  V30 45536 H 4290.9 -3.53058 1.23695 0
M  V30 45537 H 4292.23 -4.65163 1.60886 0
M  V30 45538 N 4293.88 -0.741771 -1.39052 0
M  V30 45539 C 4294.83 -0.0954475 -2.32404 0
M  V30 45540 C 4295.82 0.718403 -1.53412 0
M  V30 45541 O 4297.03 0.618828 -1.69028 0
M  V30 45542 H 4293.4 -0.0120665 -0.751903 0
M  V30 45543 H 4295.37 -0.899053 -2.84534 0
M  V30 45544 C 4294.12 0.79252 -3.38547 0
M  V30 45545 H 4293.45 0.175669 -3.99414 0
M  V30 45546 H 4294.89 1.21225 -4.06301 0
M  V30 45547 C 4293.35 1.92986 -2.76148 0
M  V30 45548 O 4293.88 3.02307 -2.64525 0
M  V30 45549 N 4292.08 1.72132 -2.34134 0
M  V30 45550 H 4291.63 0.832184 -2.43788 0
M  V30 45551 H 4291.59 2.48404 -1.92725 0
M  V30 45552 N 4295.36 1.49792 -0.489923 0
M  V30 45553 C 4296.29 2.26798 0.330943 0
M  V30 45554 C 4297.3 1.32886 0.940481 0
M  V30 45555 O 4298.49 1.58255 0.825696 0
M  V30 45556 C 4295.59 3.04881 1.47988 0
M  V30 45557 C 4294.77 4.26287 0.979692 0
M  V30 45558 C 4293.82 4.86507 2.00492 0
M  V30 45559 O 4292.85 5.46891 1.57792 0
M  V30 45560 N 4294.05 4.75174 3.33452 0
M  V30 45561 H 4296.82 2.97885 -0.329312 0
M  V30 45562 H 4294.38 1.58669 -0.321809 0
M  V30 45563 H 4296.37 3.42044 2.16306 0
M  V30 45564 H 4294.94 2.36473 2.04449 0
M  V30 45565 H 4294.16 3.94012 0.121777 0
M  V30 45566 H 4295.45 5.04962 0.623728 0
M  V30 45567 H 4294.85 4.27194 3.70839 0
M  V30 45568 H 4293.4 5.16552 3.97514 0
M  V30 45569 N 4296.84 0.223289 1.5601 0
M  V30 45570 C 4298.08 -0.401782 1.99392 0
M  V30 45571 C 4298.44 -1.57263 1.10843 0
M  V30 45572 O 4297.73 -1.90941 0.158761 0
M  V30 45573 C 4297.92 -0.88367 3.46303 0
M  V30 45574 C 4297.75 0.238944 4.49065 0
M  V30 45575 C 4296.52 0.705908 5.00345 0
M  V30 45576 C 4298.72 1.05782 5.03304 0
M  V30 45577 N 4296.7 1.8034 5.86814 0
M  V30 45578 C 4298.07 2.00413 5.86715 0
M  V30 45579 C 4300.13 1.09705 4.85664 0
M  V30 45580 C 4298.83 2.98651 6.5437 0
M  V30 45581 C 4300.86 2.06762 5.54079 0
M  V30 45582 C 4300.22 3.00133 6.37259 0
M  V30 45583 H 4296.32 -0.113644 0.773698 0
M  V30 45584 H 4298.9 0.335459 1.91788 0
M  V30 45585 H 4297.07 -1.59027 3.54352 0
M  V30 45586 H 4298.81 -1.48171 3.766 0
M  V30 45587 H 4295.56 0.294197 4.72685 0
M  V30 45588 H 4295.99 2.3542 6.34749 0
M  V30 45589 H 4300.63 0.389098 4.21006 0
M  V30 45590 H 4298.35 3.70408 7.18209 0
M  V30 45591 H 4301.93 2.10474 5.42395 0
M  V30 45592 H 4300.81 3.74009 6.89266 0
M  V30 45593 N 4298.31 -1.5752 -0.0500839 0
M  V30 45594 C 4299.59 -1.79406 -0.779293 0
M  V30 45595 C 4299.97 -0.816248 -1.94681 0
M  V30 45596 O 4299.32 0.146113 -2.28032 0
M  V30 45597 C 4299.53 -3.26531 -1.232 0
M  V30 45598 C 4300.88 -3.90953 -1.65654 0
M  V30 45599 O 4301.9 -3.30554 -1.32712 0
M  V30 45600 O 4300.76 -4.97253 -2.26719 0
M  V30 45601 H 4297.85 -0.737033 -0.375115 0
M  V30 45602 H 4300.4 -1.69676 -0.0284819 0
M  V30 45603 H 4299.17 -3.89275 -0.397595 0
M  V30 45604 H 4298.8 -3.41069 -2.04347 0
M  V30 45605 N 4299.79 0.321945 -1.54277 0
M  V30 45606 C 4301.02 1.08357 -1.76843 0
M  V30 45607 C 4301.44 1.80875 -0.516332 0
M  V30 45608 O 4300.8 1.73313 0.532195 0
M  V30 45609 C 4300.85 2.05608 -2.96239 0
M  V30 45610 O 4299.95 3.13535 -2.67898 0
M  V30 45611 H 4299.29 0.312336 -0.585954 0
M  V30 45612 H 4301.82 0.365747 -2.01304 0
M  V30 45613 H 4301.83 2.48449 -3.23631 0
M  V30 45614 H 4300.51 1.52228 -3.8704 0
M  V30 45615 H 4299.09 2.75358 -2.51461 0
M  V30 45616 N 4301.27 1.46377 0.58409 0
M  V30 45617 C 4302.23 1.5642 1.67527 0
M  V30 45618 C 4303.23 0.441481 1.54621 0
M  V30 45619 O 4304.42 0.705742 1.59264 0
M  V30 45620 C 4301.56 1.48318 3.06944 0
M  V30 45621 H 4302.75 2.53665 1.59981 0
M  V30 45622 H 4300.3 1.34166 0.801813 0
M  V30 45623 H 4301.04 0.52347 3.20047 0
M  V30 45624 H 4300.82 2.29774 3.1772 0
M  V30 45625 H 4302.31 1.58428 3.86381 0
M  V30 45626 N 4302.75 -0.828607 1.34059 0
M  V30 45627 C 4304.17 -1.12086 1.13617 0
M  V30 45628 C 4304.37 -2.01391 -0.0661187 0
M  V30 45629 O 4303.42 -2.4131 -0.74334 0
M  V30 45630 C 4304.73 -1.77305 2.42865 0
M  V30 45631 C 4306.28 -1.89826 2.48868 0
M  V30 45632 C 4306.76 -2.58461 3.78103 0
M  V30 45633 N 4308.25 -2.65965 3.79232 0
M  V30 45634 C 4308.98 -3.19787 4.75945 0
M  V30 45635 N 4308.48 -3.74216 5.83039 0
M  V30 45636 N 4310.27 -3.18135 4.63408 0
M  V30 45637 H 4302.42 -0.234468 2.11102 0
M  V30 45638 H 4304.69 -0.166562 0.933253 0
M  V30 45639 H 4304.39 -1.19147 3.30903 0
M  V30 45640 H 4304.27 -2.77229 2.55781 0
M  V30 45641 H 4306.65 -2.47134 1.61273 0
M  V30 45642 H 4306.73 -0.888214 2.39884 0
M  V30 45643 H 4306.38 -2.01809 4.66086 0
M  V30 45644 H 4306.31 -3.59958 3.84367 0
M  V30 45645 H 4308.8 -2.27379 3.0184 0
M  V30 45646 H 4309.11 -4.13518 6.52857 0
M  V30 45647 H 4307.46 -3.72475 5.8676 0
M  V30 45648 H 4310.65 -2.74876 3.78894 0
M  V30 45649 H 4310.82 -3.59776 5.38948 0
M  V30 45650 N 4304.23 -1.17696 -1.04812 0
M  V30 45651 C 4305.19 -0.899376 -2.10817 0
M  V30 45652 C 4306.19 0.112088 -1.60409 0
M  V30 45653 O 4307.38 -0.120515 -1.73783 0
M  V30 45654 C 4304.51 -0.34792 -3.3912 0
M  V30 45655 H 4305.71 -1.8393 -2.36875 0
M  V30 45656 H 4303.26 -0.987944 -1.21117 0
M  V30 45657 H 4303.99 0.59897 -3.18721 0
M  V30 45658 H 4303.78 -1.07695 -3.7702 0
M  V30 45659 H 4305.27 -0.172158 -4.17245 0
M  V30 45660 N 4305.71 1.23599 -0.977801 0
M  V30 45661 C 4306.67 2.23201 -0.520948 0
M  V30 45662 C 4307.67 1.56048 0.388012 0
M  V30 45663 O 4308.86 1.73246 0.182066 0
M  V30 45664 C 4305.99 3.40024 0.244238 0
M  V30 45665 H 4307.18 2.65133 -1.40159 0
M  V30 45666 H 4304.74 1.36388 -0.763421 0
M  V30 45667 H 4305.47 3.03545 1.14153 0
M  V30 45668 H 4305.26 3.89969 -0.408194 0
M  V30 45669 H 4306.75 4.13928 0.552557 0
M  V30 45670 N 4307.18 0.749135 1.38657 0
M  V30 45671 C 4308.43 0.303762 2.00512 0
M  V30 45672 C 4308.76 -1.11036 1.59326 0
M  V30 45673 O 4308.04 -1.75962 0.828709 0
M  V30 45674 C 4308.32 0.421608 3.57623 0
M  V30 45675 C 4308.17 1.87652 4.08787 0
M  V30 45676 C 4309.49 -0.187646 4.397 0
M  V30 45677 H 4306.61 0.111848 0.728463 0
M  V30 45678 H 4309.25 0.947944 1.64663 0
M  V30 45679 H 4307.4 -0.126823 3.88293 0
M  V30 45680 H 4309.08 2.48291 3.88779 0
M  V30 45681 H 4307.32 2.39309 3.6182 0
M  V30 45682 H 4307.99 1.91016 5.17897 0
M  V30 45683 H 4310.47 0.280031 4.15157 0
M  V30 45684 H 4309.34 -0.0749234 5.48849 0
M  V30 45685 H 4309.6 -1.27542 4.23303 0
M  V30 45686 N 4308.66 -1.4953 0.49786 0
M  V30 45687 C 4309.57 -2.32839 -0.286885 0
M  V30 45688 C 4310.59 -1.44429 -0.970371 0
M  V30 45689 O 4311.76 -1.77455 -0.952447 0
M  V30 45690 C 4308.83 -3.1979 -1.33923 0
M  V30 45691 C 4307.89 -4.24047 -0.669513 0
M  V30 45692 C 4307.12 -5.06843 -1.67172 0
M  V30 45693 O 4307.35 -4.91106 -2.90123 0
M  V30 45694 O 4306.28 -5.89224 -1.22877 0
M  V30 45695 H 4310.11 -3.01121 0.394922 0
M  V30 45696 H 4307.69 -1.47134 0.259244 0
M  V30 45697 H 4309.57 -3.73664 -1.94816 0
M  V30 45698 H 4308.25 -2.54206 -2.00402 0
M  V30 45699 H 4307.15 -3.74094 -0.0209264 0
M  V30 45700 H 4308.49 -4.92177 -0.0472201 0
M  V30 45701 N 4310.14 -0.23156 -1.5589 0
M  V30 45702 C 4311.42 0.446948 -1.90425 0
M  V30 45703 C 4311.8 1.77009 -1.15026 0
M  V30 45704 O 4311.14 2.26984 -0.262784 0
M  V30 45705 C 4311.35 0.630092 -3.43265 0
M  V30 45706 C 4312.7 0.932973 -4.14223 0
M  V30 45707 O 4313.73 0.716516 -3.48919 0
M  V30 45708 O 4312.59 1.34432 -5.29708 0
M  V30 45709 H 4309.68 0.237701 -0.792103 0
M  V30 45710 H 4312.23 -0.274488 -1.67465 0
M  V30 45711 H 4311 -0.302808 -3.90127 0
M  V30 45712 H 4310.62 1.40264 -3.72037 0
M  V30 45713 N 4311.62 1.57545 0.0417295 0
M  V30 45714 C 4312.53 2.09111 1.06348 0
M  V30 45715 C 4313.54 1.02696 1.40462 0
M  V30 45716 O 4314.72 1.34355 1.50036 0
M  V30 45717 C 4311.78 2.54977 2.34921 0
M  V30 45718 C 4310.85 3.7582 2.07504 0
M  V30 45719 C 4310.08 4.19489 3.29946 0
M  V30 45720 O 4310.3 3.62779 4.40167 0
M  V30 45721 O 4309.24 5.12036 3.1639 0
M  V30 45722 H 4313.06 2.96546 0.655296 0
M  V30 45723 H 4310.65 1.47157 0.257883 0
M  V30 45724 H 4312.53 2.84865 3.10532 0
M  V30 45725 H 4311.2 1.70658 2.75059 0
M  V30 45726 H 4310.11 3.50971 1.29501 0
M  V30 45727 H 4311.44 4.61084 1.72229 0
M  V30 45728 N 4313.1 -0.313759 1.54445 0
M  V30 45729 C 4314.01 -1.40933 1.8755 0
M  V30 45730 C 4315.02 -1.56116 0.768369 0
M  V30 45731 O 4316.2 -1.71024 1.06361 0
M  V30 45732 C 4313.26 -2.75504 2.10472 0
M  V30 45733 C 4312.32 -2.69415 3.34237 0
M  V30 45734 C 4311.56 -3.97567 3.56056 0
M  V30 45735 O 4311.78 -4.96311 2.81126 0
M  V30 45736 O 4310.71 -4.00232 4.49553 0
M  V30 45737 H 4314.54 -1.15863 2.8073 0
M  V30 45738 H 4312.12 -0.508674 1.40474 0
M  V30 45739 H 4314.01 -3.55147 2.26823 0
M  V30 45740 H 4312.68 -3.00444 1.20479 0
M  V30 45741 H 4311.59 -1.88288 3.23262 0
M  V30 45742 H 4312.92 -2.49428 4.24319 0
M  V30 45743 N 4314.57 -1.46684 -0.576319 0
M  V30 45744 C 4315.82 -1.52325 -1.33429 0
M  V30 45745 C 4316.15 -0.177579 -1.93688 0
M  V30 45746 O 4315.4 0.827489 -1.77345 0
M  V30 45747 C 4315.7 -2.57483 -2.47865 0
M  V30 45748 C 4315.37 -4.01318 -2.05559 0
M  V30 45749 C 4314.03 -4.40476 -1.93737 0
M  V30 45750 C 4316.38 -4.91647 -1.73012 0
M  V30 45751 C 4313.71 -5.67821 -1.47634 0
M  V30 45752 C 4316.06 -6.19435 -1.28385 0
M  V30 45753 C 4314.73 -6.57494 -1.15145 0
M  V30 45754 H 4314 -0.557396 -0.488252 0
M  V30 45755 H 4316.64 -1.80192 -0.648311 0
M  V30 45756 H 4314.95 -2.23301 -3.21938 0
M  V30 45757 H 4316.65 -2.59075 -3.06074 0
M  V30 45758 H 4313.24 -3.70368 -2.15698 0
M  V30 45759 H 4317.42 -4.62107 -1.81027 0
M  V30 45760 H 4312.68 -5.96075 -1.36031 0
M  V30 45761 H 4316.85 -6.88852 -1.02256 0
M  V30 45762 H 4314.48 -7.56063 -0.79197 0
M  V30 45763 N 4316.05 0.821486 -1.34497 0
M  V30 45764 C 4317.3 1.57968 -1.28131 0
M  V30 45765 C 4317.65 1.91837 0.147073 0
M  V30 45766 O 4316.95 1.57317 1.09371 0
M  V30 45767 C 4317.14 2.88687 -2.107 0
M  V30 45768 C 4316.97 2.67588 -3.61423 0
M  V30 45769 C 4315.74 2.64248 -4.30698 0
M  V30 45770 C 4317.94 2.39003 -4.55392 0
M  V30 45771 N 4315.92 2.3471 -5.6726 0
M  V30 45772 C 4317.29 2.19171 -5.79969 0
M  V30 45773 C 4319.34 2.24743 -4.44292 0
M  V30 45774 C 4318.05 1.86525 -6.94695 0
M  V30 45775 C 4320.07 1.93491 -5.58852 0
M  V30 45776 C 4319.44 1.74484 -6.82447 0
M  V30 45777 H 4315.53 0.580382 -0.5241 0
M  V30 45778 H 4318.12 0.962881 -1.69224 0
M  V30 45779 H 4316.29 3.48288 -1.71902 0
M  V30 45780 H 4318.02 3.54088 -1.95968 0
M  V30 45781 H 4314.78 2.78373 -3.83152 0
M  V30 45782 H 4315.2 2.22776 -6.39296 0
M  V30 45783 H 4319.84 2.38142 -3.49354 0
M  V30 45784 H 4317.56 1.71863 -7.89613 0
M  V30 45785 H 4321.15 1.83187 -5.52208 0
M  V30 45786 H 4320.03 1.50653 -7.69593 0
M  V30 45787 N 4317.53 1.1825 1.04186 0
M  V30 45788 C 4318.48 0.90842 2.12171 0
M  V30 45789 C 4319.45 -0.151703 1.65406 0
M  V30 45790 O 4320.63 -0.0123247 1.90796 0
M  V30 45791 C 4317.77 0.43895 3.42297 0
M  V30 45792 C 4316.89 1.56436 4.02681 0
M  V30 45793 C 4316.02 1.04773 5.20765 0
M  V30 45794 C 4315.06 2.14791 5.73177 0
M  V30 45795 N 4314.2 1.64531 6.8255 0
M  V30 45796 H 4319.04 1.83306 2.34953 0
M  V30 45797 H 4316.57 0.914093 1.15251 0
M  V30 45798 H 4318.53 0.148244 4.16937 0
M  V30 45799 H 4317.16 -0.448718 3.19666 0
M  V30 45800 H 4316.21 1.97057 3.25381 0
M  V30 45801 H 4317.53 2.39374 4.37609 0
M  V30 45802 H 4316.68 0.711477 6.02514 0
M  V30 45803 H 4315.42 0.187915 4.87338 0
M  V30 45804 H 4314.42 2.49262 4.9005 0
M  V30 45805 H 4315.65 3.01205 6.08648 0
M  V30 45806 H 4313.59 0.808365 6.51 0
M  V30 45807 H 4313.51 2.41068 7.16535 0
M  V30 45808 H 4314.78 1.33829 7.67926 0
M  V30 45809 N 4319.01 -1.23079 0.984342 0
M  V30 45810 C 4319.94 -2.26995 0.547314 0
M  V30 45811 C 4320.92 -1.64795 -0.421499 0
M  V30 45812 O 4322.1 -1.91645 -0.314003 0
M  V30 45813 C 4319.23 -3.46988 -0.147222 0
M  V30 45814 C 4318.19 -4.21567 0.739268 0
M  V30 45815 C 4317.51 -5.34628 -0.0877041 0
M  V30 45816 C 4318.81 -4.81152 2.03199 0
M  V30 45817 H 4320.51 -2.63804 1.41591 0
M  V30 45818 H 4318.05 -1.26811 0.682267 0
M  V30 45819 H 4320.01 -4.18834 -0.464295 0
M  V30 45820 H 4318.73 -3.09251 -1.0503 0
M  V30 45821 H 4317.39 -3.51543 1.03986 0
M  V30 45822 H 4317.04 -4.93132 -0.991434 0
M  V30 45823 H 4316.74 -5.85449 0.502353 0
M  V30 45824 H 4318.26 -6.09295 -0.399067 0
M  V30 45825 H 4319.68 -5.44985 1.77943 0
M  V30 45826 H 4318.07 -5.42276 2.57015 0
M  V30 45827 H 4319.14 -4.01679 2.71629 0
M  V30 45828 N 4320.49 -0.756478 -1.38258 0
M  V30 45829 C 4321.73 -0.314391 -2.00348 0
M  V30 45830 C 4322.07 1.10189 -1.59912 0
M  V30 45831 O 4321.34 1.7552 -0.83803 0
M  V30 45832 C 4321.62 -0.440567 -3.57395 0
M  V30 45833 C 4321.48 -1.89817 -4.07786 0
M  V30 45834 C 4322.8 0.164325 -4.39793 0
M  V30 45835 H 4319.91 -0.11571 -0.72786 0
M  V30 45836 H 4322.56 -0.956663 -1.64158 0
M  V30 45837 H 4320.71 0.106229 -3.88355 0
M  V30 45838 H 4322.38 -2.50349 -3.87457 0
M  V30 45839 H 4320.62 -2.41224 -3.60546 0
M  V30 45840 H 4321.29 -1.93759 -5.16876 0
M  V30 45841 H 4323.77 -0.302044 -4.15002 0
M  V30 45842 H 4322.64 0.0458156 -5.48881 0
M  V30 45843 H 4322.91 1.25295 -4.23974 0
M  V30 45844 N 4321.96 1.49264 -0.505783 0
M  V30 45845 C 4323.24 1.95343 0.10028 0
M  V30 45846 C 4323.62 1.44742 1.53665 0
M  V30 45847 O 4322.97 0.66326 2.18662 0
M  V30 45848 C 4323.18 3.48999 0.00799408 0
M  V30 45849 C 4324.53 4.2422 0.179512 0
M  V30 45850 O 4325.55 3.56103 0.0829535 0
M  V30 45851 O 4324.41 5.45189 0.37837 0
M  V30 45852 H 4321.5 0.821792 0.0926693 0
M  V30 45853 H 4324.05 1.59888 -0.568662 0
M  V30 45854 H 4322.82 3.78477 -0.993508 0
M  V30 45855 H 4322.45 3.91084 0.716869 0
M  V30 45856 N 4323.44 0.239823 1.55765 0
M  V30 45857 C 4324.86 -0.115186 1.59184 0
M  V30 45858 C 4325.06 -1.57493 1.2569 0
M  V30 45859 O 4324.11 -2.31818 1.00084 0
M  V30 45860 C 4325.43 0.22761 2.99837 0
M  V30 45861 C 4326.98 0.171331 3.12531 0
M  V30 45862 C 4327.45 0.488059 4.55392 0
M  V30 45863 N 4328.94 0.438298 4.61122 0
M  V30 45864 C 4329.68 0.656623 5.69628 0
M  V30 45865 N 4329.17 0.937698 6.86425 0
M  V30 45866 N 4330.97 0.587812 5.59018 0
M  V30 45867 H 4323.12 1.19187 1.75808 0
M  V30 45868 H 4325.38 0.479054 0.818053 0
M  V30 45869 H 4325.09 1.24147 3.2906 0
M  V30 45870 H 4324.96 -0.448687 3.74522 0
M  V30 45871 H 4327.35 -0.83319 2.83094 0
M  V30 45872 H 4327.43 0.881374 2.40136 0
M  V30 45873 H 4327.07 1.4901 4.8555 0
M  V30 45874 H 4327 -0.243383 5.26037 0
M  V30 45875 H 4329.49 0.229492 3.77203 0
M  V30 45876 H 4329.81 1.0919 7.65047 0
M  V30 45877 H 4328.15 0.975094 6.88126 0
M  V30 45878 H 4331.34 0.368321 4.66649 0
M  V30 45879 H 4331.51 0.761359 6.43512 0
M  V30 45880 N 4324.92 -1.57565 -0.0333739 0
M  V30 45881 C 4325.83 -2.09672 -1.05237 0
M  V30 45882 C 4326.85 -1.03439 -1.39915 0
M  V30 45883 O 4328.02 -1.35149 -1.49321 0
M  V30 45884 C 4325.09 -2.56219 -2.33565 0
M  V30 45885 C 4324.15 -3.76915 -2.05508 0
M  V30 45886 C 4323.38 -4.21233 -3.27717 0
M  V30 45887 O 4323.6 -3.65109 -4.38237 0
M  V30 45888 O 4322.54 -5.13707 -3.1367 0
M  V30 45889 H 4326.36 -2.96889 -0.63956 0
M  V30 45890 H 4323.95 -1.47292 -0.250075 0
M  V30 45891 H 4325.83 -2.86507 -3.09017 0
M  V30 45892 H 4324.51 -1.72115 -2.7415 0
M  V30 45893 H 4323.41 -3.51652 -1.27638 0
M  V30 45894 H 4324.75 -4.61991 -1.69781 0
M  V30 45895 N 4326.4 0.305564 -1.54609 0
M  V30 45896 C 4327.81 0.650963 -1.45721 0
M  V30 45897 C 4328.01 1.90908 -0.644695 0
M  V30 45898 O 4327.07 2.52051 -0.150589 0
M  V30 45899 C 4328.38 0.808208 -2.89635 0
M  V30 45900 C 4329.93 0.904389 -2.99649 0
M  V30 45901 C 4330.41 1.09367 -4.4475 0
M  V30 45902 N 4331.9 1.15998 -4.4844 0
M  V30 45903 C 4332.63 1.32464 -5.5789 0
M  V30 45904 N 4332.13 1.45858 -6.77272 0
M  V30 45905 N 4333.92 1.35316 -5.45569 0
M  V30 45906 H 4326.07 -0.521119 -2.05908 0
M  V30 45907 H 4328.34 -0.171472 -0.932363 0
M  V30 45908 H 4328.04 -0.0452921 -3.51671 0
M  V30 45909 H 4327.92 1.6986 -3.3679 0
M  V30 45910 H 4330.3 1.74838 -2.3773 0
M  V30 45911 H 4330.38 -0.00992095 -2.55798 0
M  V30 45912 H 4330.03 0.254461 -5.07262 0
M  V30 45913 H 4329.96 2.02213 -4.86228 0
M  V30 45914 H 4332.45 1.07019 -3.6243 0
M  V30 45915 H 4332.76 1.58165 -7.56441 0
M  V30 45916 H 4331.11 1.42922 -6.80146 0
M  V30 45917 H 4334.3 1.24461 -4.51251 0
M  V30 45918 H 4334.47 1.47806 -6.30918 0
M  V30 45919 N 4327.88 1.46988 0.568532 0
M  V30 45920 C 4328.79 1.61235 1.70413 0
M  V30 45921 C 4329.8 0.495441 1.66797 0
M  V30 45922 O 4330.98 0.761471 1.8645 0
M  V30 45923 C 4328.04 1.61245 3.06922 0
M  V30 45924 C 4327.1 2.84276 3.21692 0
M  V30 45925 C 4326.34 2.84276 4.51689 0
M  V30 45926 O 4326.56 1.93836 5.36455 0
M  V30 45927 O 4325.49 3.75999 4.70009 0
M  V30 45928 H 4329.32 2.57301 1.61338 0
M  V30 45929 H 4326.91 1.29943 0.737232 0
M  V30 45930 H 4328.79 1.63996 3.88179 0
M  V30 45931 H 4327.46 0.683428 3.16403 0
M  V30 45932 H 4326.37 2.87074 2.39874 0
M  V30 45933 H 4327.7 3.76435 3.17109 0
M  V30 45934 N 4329.35 -0.814342 1.3493 0
M  V30 45935 C 4330.28 -1.94052 1.29869 0
M  V30 45936 C 4331.27 -1.69202 0.174534 0
M  V30 45937 O 4332.45 -1.90676 0.368265 0
M  V30 45938 C 4329.58 -3.30662 1.06207 0
M  V30 45939 C 4328.53 -3.69975 2.15181 0
M  V30 45940 C 4327.86 -5.04661 1.76695 0
M  V30 45941 C 4329.16 -3.81167 3.57084 0
M  V30 45942 H 4330.85 -1.98545 2.24099 0
M  V30 45943 H 4328.4 -0.953846 1.07879 0
M  V30 45944 H 4330.35 -4.09041 1.01308 0
M  V30 45945 H 4329.08 -3.26491 0.0842123 0
M  V30 45946 H 4327.74 -2.93876 2.19163 0
M  V30 45947 H 4327.38 -4.96986 0.775475 0
M  V30 45948 H 4327.08 -5.31935 2.49637 0
M  V30 45949 H 4328.61 -5.85489 1.73307 0
M  V30 45950 H 4330.02 -4.49796 3.55466 0
M  V30 45951 H 4328.42 -4.19903 4.2872 0
M  V30 45952 H 4329.49 -2.8293 3.938 0
M  V30 45953 N 4330.83 -1.18801 -1.03557 0
M  V30 45954 C 4331.78 -0.887546 -2.10016 0
M  V30 45955 C 4332.77 0.144865 -1.60247 0
M  V30 45956 O 4333.96 -0.0598919 -1.76899 0
M  V30 45957 C 4331.09 -0.420663 -3.40713 0
M  V30 45958 C 4330.17 -1.48543 -3.97235 0
M  V30 45959 N 4330.56 -2.70319 -4.27506 0
M  V30 45960 C 4328.86 -1.34715 -4.25168 0
M  V30 45961 C 4329.56 -3.3886 -4.72809 0
M  V30 45962 N 4328.54 -2.66247 -4.73934 0
M  V30 45963 H 4332.34 -1.81318 -2.31303 0
M  V30 45964 H 4329.86 -1.07917 -1.21358 0
M  V30 45965 H 4331.85 -0.186891 -4.16481 0
M  V30 45966 H 4330.51 0.498565 -3.2085 0
M  V30 45967 H 4331.52 -3.07141 -4.16995 0
M  V30 45968 H 4328.2 -0.49086 -4.14604 0
M  V30 45969 H 4329.59 -4.42962 -5.05208 0
M  V30 45970 N 4332.31 1.22555 -0.990855 0
M  V30 45971 C 4333.26 2.24408 -0.539422 0
M  V30 45972 C 4334.23 1.60513 0.427171 0
M  V30 45973 O 4335.41 1.87883 0.332386 0
M  V30 45974 C 4332.55 3.44809 0.141796 0
M  V30 45975 C 4331.67 4.23225 -0.866295 0
M  V30 45976 C 4330.8 5.30963 -0.158805 0
M  V30 45977 C 4329.84 6.01096 -1.1554 0
M  V30 45978 N 4328.98 7.00482 -0.47636 0
M  V30 45979 H 4333.82 2.62386 -1.41271 0
M  V30 45980 H 4331.35 1.28958 -0.707687 0
M  V30 45981 H 4333.31 4.1351 0.553655 0
M  V30 45982 H 4331.94 3.076 0.978887 0
M  V30 45983 H 4330.99 3.5384 -1.39649 0
M  V30 45984 H 4332.31 4.71578 -1.62529 0
M  V30 45985 H 4331.46 6.05908 0.309889 0
M  V30 45986 H 4330.2 4.83578 0.632709 0
M  V30 45987 H 4329.2 5.24934 -1.63475 0
M  V30 45988 H 4330.43 6.50568 -1.94776 0
M  V30 45989 H 4328.38 6.55333 0.295755 0
M  V30 45990 H 4328.29 7.46831 -1.17384 0
M  V30 45991 H 4329.56 7.79494 -0.0304008 0
M  V30 45992 N 4333.79 0.763799 1.37855 0
M  V30 45993 C 4334.72 0.158556 2.32961 0
M  V30 45994 C 4335.7 -0.692115 1.55383 0
M  V30 45995 O 4336.89 -0.631209 1.83656 0
M  V30 45996 C 4334.02 -0.727526 3.39594 0
M  V30 45997 C 4332.97 0.0212132 4.27995 0
M  V30 45998 C 4332.3 -0.983791 5.25572 0
M  V30 45999 C 4333.6 1.19559 5.08432 0
M  V30 46000 H 4335.29 0.953049 2.83826 0
M  V30 46001 H 4332.84 0.459745 1.36464 0
M  V30 46002 H 4334.79 -1.16069 4.051 0
M  V30 46003 H 4333.51 -1.55445 2.87236 0
M  V30 46004 H 4332.17 0.435066 3.64009 0
M  V30 46005 H 4331.82 -1.80505 4.69496 0
M  V30 46006 H 4331.52 -0.487404 5.85575 0
M  V30 46007 H 4333.04 -1.41606 5.93953 0
M  V30 46008 H 4334.46 0.839472 5.67121 0
M  V30 46009 H 4332.85 1.62352 5.77721 0
M  V30 46010 H 4333.92 2.00357 4.41571 0
M  V30 46011 N 4335.27 -1.48993 0.513692 0
M  V30 46012 C 4336.52 -2.02083 -0.0262466 0
M  V30 46013 C 4336.84 -1.3945 -1.36303 0
M  V30 46014 O 4336.11 -0.554187 -1.87898 0
M  V30 46015 H 4334.69 -0.746892 -0.0126889 0
M  V30 46016 H 4337.35 -1.82882 0.673821 0
M  V30 46017 H 4336.44 -3.11756 -0.146593 0
M  V30 46018 N 4336.75 -0.248081 -1.55635 0
M  V30 46019 C 4337.69 0.650973 -2.21429 0
M  V30 46020 C 4338.66 1.17043 -1.17857 0
M  V30 46021 O 4339.85 1.22468 -1.46308 0
M  V30 46022 C 4336.99 1.84169 -2.91849 0
M  V30 46023 C 4336.1 1.35864 -4.10079 0
M  V30 46024 C 4335.24 2.50901 -4.68212 0
M  V30 46025 C 4334.27 1.99465 -5.78688 0
M  V30 46026 N 4333.41 3.07872 -6.30999 0
M  V30 46027 H 4338.25 0.0832235 -2.97884 0
M  V30 46028 H 4335.79 0.0293165 -1.47071 0
M  V30 46029 H 4337.75 2.54118 -3.30877 0
M  V30 46030 H 4336.38 2.38189 -2.17866 0
M  V30 46031 H 4335.43 0.553153 -3.76357 0
M  V30 46032 H 4336.74 0.94169 -4.8983 0
M  V30 46033 H 4335.89 3.2889 -5.0982 0
M  V30 46034 H 4334.63 2.95899 -3.87679 0
M  V30 46035 H 4333.64 1.19946 -5.36557 0
M  V30 46036 H 4334.86 1.55435 -6.61072 0
M  V30 46037 H 4332.81 3.52302 -5.53371 0
M  V30 46038 H 4332.73 2.70511 -7.05946 0
M  V30 46039 H 4333.99 3.85918 -6.77265 0
M  V30 46040 N 4338.22 1.5758 0.0250174 0
M  V30 46041 C 4339.46 1.91306 0.719809 0
M  V30 46042 C 4339.83 0.84708 1.72304 0
M  V30 46043 O 4341.03 1.0688 2.46637 0
M  V30 46044 C 4339.3 3.30171 1.36829 0
M  V30 46045 S 4340.86 3.85739 2.09167 0
M  V30 46046 H 4337.68 0.669853 0.238365 0
M  V30 46047 H 4340.28 1.95483 -0.0256593 0
M  V30 46048 H 4338.98 4.05614 0.624957 0
M  V30 46049 H 4338.51 3.29307 2.15222 0
M  V30 46050 H 4340.53 3.64793 3.36364 0
M  V30 46051 N 4339.7 -0.29736 1.54769 0
M  V30 46052 C 4340.95 -1.03007 1.73879 0
M  V30 46053 C 4341.27 -1.87674 0.529475 0
M  V30 46054 O 4340.54 -1.90515 -0.456181 0
M  V30 46055 H 4339.12 -0.383302 0.641162 0
M  V30 46056 H 4341.78 -0.327466 1.92129 0
M  V30 46057 H 4340.88 -1.68109 2.62956 0
M  V30 46058 N 4341.18 -1.47287 -0.560729 0
M  V30 46059 C 4342.4 -1.57586 -1.34838 0
M  V30 46060 C 4342.83 -0.225243 -1.86747 0
M  V30 46061 O 4342.19 0.798317 -1.62778 0
M  V30 46062 C 4342.24 -2.6019 -2.49667 0
M  V30 46063 O 4341.34 -2.15217 -3.51789 0
M  V30 46064 H 4340.68 -0.529498 -0.40066 0
M  V30 46065 H 4343.21 -1.9304 -0.677996 0
M  V30 46066 H 4343.22 -2.80498 -2.96285 0
M  V30 46067 H 4341.9 -3.58259 -2.11242 0
M  V30 46068 H 4340.47 -2.04992 -3.11501 0
M  V30 46069 N 4342.66 0.807175 -1.3536 0
M  V30 46070 C 4343.9 1.57761 -1.29965 0
M  V30 46071 C 4344.26 1.91596 0.124538 0
M  V30 46072 O 4345.46 2.67088 0.302856 0
M  V30 46073 C 4343.73 2.83198 -2.18023 0
M  V30 46074 S 4345.29 3.73607 -2.30137 0
M  V30 46075 H 4342.11 0.540541 -0.461883 0
M  V30 46076 H 4344.71 0.952177 -1.70745 0
M  V30 46077 H 4343.42 2.56364 -3.20478 0
M  V30 46078 H 4342.95 3.50727 -1.78197 0
M  V30 46079 H 4344.96 4.73434 -1.48575 0
M  V30 46080 N 4344.14 1.19348 1.02926 0
M  V30 46081 C 4345.38 0.997355 1.76581 0
M  V30 46082 C 4345.71 -0.470767 1.88408 0
M  V30 46083 O 4344.99 -1.34958 1.40059 0
M  V30 46084 C 4345.27 1.66653 3.19216 0
M  V30 46085 C 4345.13 3.20827 3.15262 0
M  V30 46086 C 4346.44 1.3892 4.17599 0
M  V30 46087 H 4343.56 0.363734 0.640989 0
M  V30 46088 H 4346.21 1.47182 1.20156 0
M  V30 46089 H 4344.36 1.26312 3.67393 0
M  V30 46090 H 4346.03 3.70379 2.74986 0
M  V30 46091 H 4344.27 3.52391 2.52988 0
M  V30 46092 H 4344.94 3.62795 4.16034 0
M  V30 46093 H 4347.42 1.73894 3.78021 0
M  V30 46094 H 4346.29 1.88292 5.15594 0
M  V30 46095 H 4346.55 0.314276 4.40982 0
M  V30 46096 N 4345.61 -1.22028 0.997341 0
M  V30 46097 C 4346.84 -1.94621 0.693274 0
M  V30 46098 C 4347.25 -1.73835 -0.746869 0
M  V30 46099 O 4346.59 -1.03725 -1.51614 0
M  V30 46100 C 4346.66 -3.47398 0.924911 0
M  V30 46101 C 4346.32 -3.91925 2.3504 0
M  V30 46102 C 4347.32 -3.99243 3.33018 0
M  V30 46103 C 4345 -4.24451 2.68601 0
M  V30 46104 C 4347 -4.38468 4.62628 0
M  V30 46105 C 4344.68 -4.63354 3.9843 0
M  V30 46106 C 4345.68 -4.70332 4.95254 0
M  V30 46107 O 4345.37 -5.08352 6.22762 0
M  V30 46108 H 4345.1 -0.625955 0.255258 0
M  V30 46109 H 4347.66 -1.56008 1.33607 0
M  V30 46110 H 4345.89 -3.86045 0.224945 0
M  V30 46111 H 4347.57 -4.01208 0.615411 0
M  V30 46112 H 4348.34 -3.743 3.08422 0
M  V30 46113 H 4344.22 -4.18222 1.93937 0
M  V30 46114 H 4347.76 -4.43829 5.38202 0
M  V30 46115 H 4343.66 -4.8775 4.22813 0
M  V30 46116 H 4344.43 -5.26411 6.26765 0
M  V30 46117 N 4347.09 -0.771099 -1.37448 0
M  V30 46118 C 4348.04 -0.144722 -2.32149 0
M  V30 46119 C 4349.03 0.685701 -1.54902 0
M  V30 46120 O 4350.24 0.582835 -1.70303 0
M  V30 46121 H 4346.62 -0.0280128 -0.751478 0
M  V30 46122 H 4348.59 -0.959205 -2.82563 0
M  V30 46123 C 4347.34 0.720531 -3.40152 0
M  V30 46124 H 4346.66 0.0909081 -3.99697 0
M  V30 46125 H 4348.1 1.12579 -4.08781 0
M  V30 46126 C 4346.56 1.87085 -2.8018 0
M  V30 46127 O 4347.09 2.96628 -2.70878 0
M  V30 46128 N 4345.29 1.67127 -2.37733 0
M  V30 46129 H 4344.84 0.780286 -2.45498 0
M  V30 46130 H 4344.8 2.4426 -1.97951 0
M  V30 46131 N 4348.57 1.48719 -0.521586 0
M  V30 46132 C 4349.5 2.26313 0.292847 0
M  V30 46133 C 4350.48 1.31797 0.95227 0
M  V30 46134 O 4351.67 1.61125 0.97832 0
M  V30 46135 C 4348.79 3.0777 1.41405 0
M  V30 46136 C 4347.84 4.17597 0.866895 0
M  V30 46137 S 4348.67 5.34875 -0.258631 0
M  V30 46138 C 4349.83 6.19891 0.865244 0
M  V30 46139 H 4350.06 2.95042 -0.36569 0
M  V30 46140 H 4347.59 1.51313 -0.307224 0
M  V30 46141 H 4349.55 3.5528 2.05636 0
M  V30 46142 H 4348.21 2.38471 2.04427 0
M  V30 46143 H 4347.41 4.74185 1.70776 0
M  V30 46144 H 4347.01 3.72783 0.301431 0
M  V30 46145 H 4349.3 6.54083 1.76583 0
M  V30 46146 H 4350.24 7.07295 0.337523 0
M  V30 46147 H 4350.65 5.52831 1.14186 0
M  V30 46148 N 4350.05 0.256331 1.55501 0
M  V30 46149 C 4350.98 -0.680103 2.1783 0
M  V30 46150 C 4351.96 -1.166 1.13328 0
M  V30 46151 O 4353.14 -1.24241 1.41762 0
M  V30 46152 C 4350.27 -1.92536 2.78653 0
M  V30 46153 C 4349.32 -1.57654 3.96292 0
M  V30 46154 S 4350.15 -0.670968 5.3128 0
M  V30 46155 C 4351.31 -1.92502 5.95562 0
M  V30 46156 H 4351.54 -0.150452 2.96919 0
M  V30 46157 H 4349.07 0.0407141 1.54346 0
M  V30 46158 H 4351.03 -2.6402 3.1433 0
M  V30 46159 H 4349.69 -2.42614 1.99492 0
M  V30 46160 H 4348.88 -2.50265 4.37474 0
M  V30 46161 H 4348.49 -0.94205 3.61941 0
M  V30 46162 H 4350.78 -2.87119 6.13652 0
M  V30 46163 H 4351.72 -1.55653 6.90781 0
M  V30 46164 H 4352.13 -2.0814 5.24726 0
M  V30 46165 N 4351.53 -1.57591 -0.0166602 0
M  V30 46166 C 4352.77 -1.89458 -0.703563 0
M  V30 46167 C 4353.1 -0.855594 -1.75227 0
M  V30 46168 O 4352.37 0.109207 -1.95595 0
M  V30 46169 H 4350.95 -0.699228 -0.262849 0
M  V30 46170 H 4353.61 -1.94889 0.020325 0
M  V30 46171 H 4352.7 -2.88715 -1.18533 0
M  V30 46172 N 4353 0.289148 -1.54925 0
M  V30 46173 C 4353.95 1.35698 -1.86694 0
M  V30 46174 C 4354.92 1.49832 -0.716911 0
M  V30 46175 O 4356.11 1.645 -0.966666 0
M  V30 46176 C 4353.25 2.71505 -2.13023 0
M  V30 46177 C 4352.36 2.65724 -3.40609 0
M  V30 46178 C 4351.49 3.93604 -3.56721 0
M  V30 46179 C 4350.53 3.82268 -4.78056 0
M  V30 46180 N 4349.67 5.01948 -4.9091 0
M  V30 46181 H 4354.51 1.07904 -2.77778 0
M  V30 46182 H 4352.05 0.521656 -1.3754 0
M  V30 46183 H 4354.01 3.505 -2.26286 0
M  V30 46184 H 4352.64 2.97534 -1.25193 0
M  V30 46185 H 4351.69 1.78527 -3.35905 0
M  V30 46186 H 4353 2.53242 -4.29733 0
M  V30 46187 H 4352.15 4.81038 -3.69712 0
M  V30 46188 H 4350.89 4.08934 -2.65752 0
M  V30 46189 H 4349.9 2.93217 -4.65085 0
M  V30 46190 H 4351.12 3.68472 -5.70443 0
M  V30 46191 H 4349.07 5.17719 -4.02868 0
M  V30 46192 H 4348.99 4.91934 -5.74053 0
M  V30 46193 H 4350.25 5.91 -5.08271 0
M  V30 46194 N 4354.48 1.47583 0.55291 0
M  V30 46195 C 4355.9 1.33196 0.879258 0
M  V30 46196 C 4356.1 0.325675 1.98851 0
M  V30 46197 O 4355.15 -0.261279 2.51145 0
M  V30 46198 C 4356.47 2.72638 1.26843 0
M  V30 46199 C 4358.02 2.80955 1.37962 0
M  V30 46200 C 4358.49 4.21047 1.80233 0
M  V30 46201 N 4359.98 4.23609 1.87376 0
M  V30 46202 C 4360.72 5.28924 2.21421 0
M  V30 46203 N 4360.21 6.44539 2.54049 0
M  V30 46204 N 4362.01 5.16304 2.22231 0
M  V30 46205 H 4354.16 2.11641 -0.179352 0
M  V30 46206 H 4356.42 0.947837 -0.0175761 0
M  V30 46207 H 4356.13 3.47727 0.527169 0
M  V30 46208 H 4356 3.04686 2.22365 0
M  V30 46209 H 4358.39 2.06135 2.11169 0
M  V30 46210 H 4358.47 2.52555 0.406169 0
M  V30 46211 H 4358.11 4.96373 1.07594 0
M  V30 46212 H 4358.04 4.46874 2.78588 0
M  V30 46213 H 4360.53 3.40204 1.6453 0
M  V30 46214 H 4360.85 7.20654 2.79066 0
M  V30 46215 H 4359.19 6.47852 2.5162 0
M  V30 46216 H 4362.38 4.25006 1.96183 0
M  V30 46217 H 4362.55 5.98485 2.48434 0
M  V30 46218 N 4355.96 -0.799985 1.35787 0
M  V30 46219 C 4356.87 -1.94363 1.31378 0
M  V30 46220 C 4357.89 -1.72634 0.217614 0
M  V30 46221 O 4359.06 -1.96351 0.448146 0
M  V30 46222 C 4356.13 -3.29057 1.0919 0
M  V30 46223 C 4355.19 -3.63637 2.28181 0
M  V30 46224 C 4354.42 -4.91903 2.07043 0
M  V30 46225 O 4354.64 -5.60835 1.04022 0
M  V30 46226 O 4353.58 -5.24895 2.94566 0
M  V30 46227 H 4357.4 -2.01031 2.27641 0
M  V30 46228 H 4354.99 -0.938722 1.16225 0
M  V30 46229 H 4356.87 -4.0968 0.986912 0
M  V30 46230 H 4355.55 -3.23305 0.159823 0
M  V30 46231 H 4354.45 -2.83363 2.44246 0
M  V30 46232 H 4355.79 -3.74101 3.19859 0
M  V30 46233 N 4357.44 -1.19892 -1.02292 0
M  V30 46234 C 4358.39 -0.94206 -2.10699 0
M  V30 46235 C 4359.36 0.125369 -1.65626 0
M  V30 46236 O 4360.54 -0.0180308 -1.90791 0
M  V30 46237 C 4357.68 -0.493351 -3.41555 0
M  V30 46238 C 4356.79 -1.62822 -4.00141 0
M  V30 46239 C 4355.93 -1.13045 -5.19032 0
M  V30 46240 C 4354.97 -2.23882 -5.69687 0
M  V30 46241 N 4354.1 -1.75369 -6.79846 0
M  V30 46242 H 4358.94 -1.87021 -2.32007 0
M  V30 46243 H 4356.48 -0.932313 -1.13782 0
M  V30 46244 H 4358.44 -0.214556 -4.16648 0
M  V30 46245 H 4357.07 0.397805 -3.20339 0
M  V30 46246 H 4356.12 -2.02208 -3.22205 0
M  V30 46247 H 4357.43 -2.46306 -4.33745 0
M  V30 46248 H 4356.59 -0.807242 -6.01306 0
M  V30 46249 H 4355.33 -0.265423 -4.86977 0
M  V30 46250 H 4354.33 -2.57026 -4.86022 0
M  V30 46251 H 4355.56 -3.1085 -6.03779 0
M  V30 46252 H 4353.5 -0.911832 -6.49632 0
M  V30 46253 H 4353.42 -2.52437 -7.12609 0
M  V30 46254 H 4354.69 -1.46029 -7.657 0
M  V30 46255 N 4358.92 1.21498 -1.0038 0
M  V30 46256 C 4359.86 2.23823 -0.563193 0
M  V30 46257 C 4360.83 1.60957 0.410123 0
M  V30 46258 O 4362.02 1.88224 0.31244 0
M  V30 46259 C 4359.16 3.4494 0.105216 0
M  V30 46260 C 4358.27 4.22282 -0.911134 0
M  V30 46261 C 4357.41 5.30764 -0.215112 0
M  V30 46262 C 4356.45 5.99837 -1.21909 0
M  V30 46263 N 4355.58 6.99937 -0.550629 0
M  V30 46264 H 4360.42 2.60873 -1.44046 0
M  V30 46265 H 4357.96 1.282 -0.721324 0
M  V30 46266 H 4359.92 4.14074 0.509766 0
M  V30 46267 H 4358.55 3.08621 0.946206 0
M  V30 46268 H 4357.6 3.52338 -1.43394 0
M  V30 46269 H 4358.91 4.69828 -1.67522 0
M  V30 46270 H 4358.07 6.06203 0.245606 0
M  V30 46271 H 4356.8 4.84222 0.581384 0
M  V30 46272 H 4355.81 5.23171 -1.69033 0
M  V30 46273 H 4357.03 6.48466 -2.01665 0
M  V30 46274 H 4354.98 6.5561 0.226232 0
M  V30 46275 H 4354.9 7.45544 -1.25298 0
M  V30 46276 H 4356.17 7.79418 -0.113075 0
M  V30 46277 N 4360.39 0.778378 1.37037 0
M  V30 46278 C 4361.32 0.183256 2.3278 0
M  V30 46279 C 4362.31 -0.675595 1.56108 0
M  V30 46280 O 4363.49 -0.611694 1.84315 0
M  V30 46281 C 4360.62 -0.691466 3.40347 0
M  V30 46282 C 4359.57 0.0666066 4.27948 0
M  V30 46283 C 4358.9 -0.927992 5.26586 0
M  V30 46284 C 4360.2 1.24945 5.07135 0
M  V30 46285 H 4361.89 0.983099 2.82799 0
M  V30 46286 H 4359.44 0.474193 1.35968 0
M  V30 46287 H 4361.39 -1.11766 4.06308 0
M  V30 46288 H 4360.12 -1.5239 2.88868 0
M  V30 46289 H 4358.78 0.47365 3.63527 0
M  V30 46290 H 4358.42 -1.75516 4.71384 0
M  V30 46291 H 4358.12 -0.425268 5.86059 0
M  V30 46292 H 4359.65 -1.35298 5.95421 0
M  V30 46293 H 4361.06 0.899575 5.66198 0
M  V30 46294 H 4359.46 1.68471 5.75967 0
M  V30 46295 H 4360.53 2.05029 4.39421 0
M  V30 46296 N 4361.87 -1.4844 0.529465 0
M  V30 46297 C 4363.12 -2.02099 -0.00481152 0
M  V30 46298 C 4363.44 -1.40888 -1.34817 0
M  V30 46299 O 4362.71 -0.574085 -1.87299 0
M  V30 46300 H 4361.29 -0.746985 -0.0047664 0
M  V30 46301 H 4363.95 -1.82157 0.69318 0
M  V30 46302 H 4363.05 -3.11893 -0.113519 0
M  V30 46303 N 4363.35 -0.264574 -1.55363 0
M  V30 46304 C 4364.26 0.637782 -2.25764 0
M  V30 46305 C 4365.28 1.17881 -1.27985 0
M  V30 46306 O 4366.45 1.21134 -1.60899 0
M  V30 46307 C 4363.52 1.81016 -2.95693 0
M  V30 46308 C 4362.58 1.30685 -4.08925 0
M  V30 46309 C 4361.81 2.42335 -4.75509 0
M  V30 46310 O 4362.04 3.61461 -4.4125 0
M  V30 46311 O 4360.97 2.1109 -5.63671 0
M  V30 46312 H 4364.8 0.0677937 -3.03624 0
M  V30 46313 H 4362.38 -0.0323808 -1.49365 0
M  V30 46314 H 4364.26 2.49396 -3.39676 0
M  V30 46315 H 4362.94 2.36744 -2.20758 0
M  V30 46316 H 4361.84 0.58982 -3.69421 0
M  V30 46317 H 4363.18 0.795457 -4.8573 0
M  V30 46318 N 4364.83 1.57598 0.00830251 0
M  V30 46319 C 4366.08 1.90204 0.694878 0
M  V30 46320 C 4366.4 0.8644 1.74237 0
M  V30 46321 O 4365.66 -0.131942 1.95255 0
M  V30 46322 C 4365.96 3.29566 1.38278 0
M  V30 46323 C 4365.62 4.48451 0.469293 0
M  V30 46324 C 4364.29 4.80707 0.217756 0
M  V30 46325 C 4366.64 5.20954 -0.160149 0
M  V30 46326 C 4363.97 5.82843 -0.671656 0
M  V30 46327 C 4366.32 6.24036 -1.03739 0
M  V30 46328 C 4364.98 6.54754 -1.29818 0
M  V30 46329 H 4364.25 0.696007 0.254274 0
M  V30 46330 H 4366.9 1.91446 -0.0454423 0
M  V30 46331 H 4365.2 3.2441 2.19694 0
M  V30 46332 H 4366.9 3.52051 1.91992 0
M  V30 46333 H 4363.49 4.23243 0.675509 0
M  V30 46334 H 4367.68 4.96295 0.0211826 0
M  V30 46335 H 4362.93 6.05008 -0.881805 0
M  V30 46336 H 4367.11 6.79351 -1.53152 0
M  V30 46337 H 4364.73 7.33717 -1.98907 0
M  V30 46338 N 4366.31 -0.280928 1.55076 0
M  V30 46339 C 4367.56 -1.01157 1.74962 0
M  V30 46340 C 4367.88 -1.87102 0.549351 0
M  V30 46341 O 4367.15 -1.90988 -0.435949 0
M  V30 46342 H 4365.73 -0.37648 0.645191 0
M  V30 46343 H 4368.39 -0.30707 1.92466 0
M  V30 46344 H 4367.48 -1.6531 2.64724 0
M  V30 46345 N 4367.79 -1.47874 -0.545076 0
M  V30 46346 C 4368.73 -1.6127 -1.65108 0
M  V30 46347 C 4369.7 -0.45526 -1.59739 0
M  V30 46348 O 4370.89 -0.676853 -1.78391 0
M  V30 46349 C 4368.03 -1.64431 -3.03408 0
M  V30 46350 C 4367.14 -2.91178 -3.19123 0
M  V30 46351 C 4366.28 -2.85597 -4.47893 0
M  V30 46352 C 4365.31 -4.07114 -4.57083 0
M  V30 46353 N 4364.45 -3.99698 -5.77223 0
M  V30 46354 H 4369.29 -2.55726 -1.52997 0
M  V30 46355 H 4366.83 -1.26833 -0.745106 0
M  V30 46356 H 4368.79 -1.64247 -3.83509 0
M  V30 46357 H 4367.42 -0.734783 -3.14326 0
M  V30 46358 H 4366.47 -3.01175 -2.32374 0
M  V30 46359 H 4367.78 -3.81132 -3.21776 0
M  V30 46360 H 4366.93 -2.83729 -5.36267 0
M  V30 46361 H 4365.67 -1.93346 -4.47737 0
M  V30 46362 H 4364.68 -4.09273 -3.67118 0
M  V30 46363 H 4365.9 -5.00506 -4.58989 0
M  V30 46364 H 4363.85 -3.10258 -5.77993 0
M  V30 46365 H 4363.77 -4.83342 -5.81306 0
M  V30 46366 H 4365.03 -4.01866 -6.67925 0
M  V30 46367 N 4369.26 0.792773 -1.36209 0
M  V30 46368 C 4370.23 1.88687 -1.30115 0
M  V30 46369 C 4371.23 1.59429 -0.209563 0
M  V30 46370 O 4372.42 1.67903 -0.464138 0
M  V30 46371 C 4369.55 3.25401 -1.01621 0
M  V30 46372 H 4370.74 1.95507 -2.27413 0
M  V30 46373 H 4368.29 0.990198 -1.20933 0
M  V30 46374 H 4369.03 3.24265 -0.0476613 0
M  V30 46375 H 4368.81 3.48026 -1.8061 0
M  V30 46376 H 4370.3 4.05462 -0.999529 0
M  V30 46377 N 4370.74 1.20433 1.01654 0
M  V30 46378 C 4371.69 0.953221 2.10196 0
M  V30 46379 C 4372.66 -0.116583 1.6569 0
M  V30 46380 O 4373.84 0.0281487 1.90779 0
M  V30 46381 C 4370.98 0.511457 3.41289 0
M  V30 46382 C 4370.1 1.64942 3.99272 0
M  V30 46383 C 4369.23 1.15796 5.18425 0
M  V30 46384 C 4368.27 2.269 5.68492 0
M  V30 46385 N 4367.41 1.78972 6.78906 0
M  V30 46386 H 4372.25 1.88249 2.31012 0
M  V30 46387 H 4369.78 0.938334 1.13286 0
M  V30 46388 H 4371.74 0.236649 4.16528 0
M  V30 46389 H 4370.37 -0.380811 3.20546 0
M  V30 46390 H 4369.42 2.03914 3.21128 0
M  V30 46391 H 4370.74 2.48602 4.32433 0
M  V30 46392 H 4369.89 0.839119 6.00869 0
M  V30 46393 H 4368.63 0.291245 4.8683 0
M  V30 46394 H 4367.63 2.596 4.84652 0
M  V30 46395 H 4368.86 3.14048 6.02122 0
M  V30 46396 H 4366.81 0.94627 6.49139 0
M  V30 46397 H 4366.72 2.56213 7.1126 0
M  V30 46398 H 4367.99 1.50088 7.64914 0
M  V30 46399 N 4372.22 -1.20963 1.01023 0
M  V30 46400 C 4373.47 -1.89791 0.694534 0
M  V30 46401 C 4373.79 -1.78824 -0.777628 0
M  V30 46402 O 4373.06 -1.18651 -1.55881 0
M  V30 46403 H 4371.64 -0.702525 0.253905 0
M  V30 46404 H 4374.3 -1.46936 1.28046 0
M  V30 46405 H 4373.4 -2.96568 0.972306 0
M  V30 46406 N 4373.7 -0.785634 -1.36622 0
M  V30 46407 C 4374.92 -0.366952 -2.04128 0
M  V30 46408 C 4375.35 1.00733 -1.58854 0
M  V30 46409 O 4374.71 1.64821 -0.755231 0
M  V30 46410 C 4374.75 -0.434783 -3.57969 0
M  V30 46411 O 4373.86 0.559683 -4.08585 0
M  V30 46412 H 4373.2 -0.156458 -0.645304 0
M  V30 46413 H 4375.73 -1.06569 -1.74654 0
M  V30 46414 H 4375.74 -0.297031 -4.06917 0
M  V30 46415 H 4374.41 -1.4373 -3.90275 0
M  V30 46416 H 4372.99 0.383905 -3.70919 0
M  V30 46417 N 4375.18 1.48157 -0.53733 0
M  V30 46418 C 4376.59 1.58396 -0.195691 0
M  V30 46419 C 4376.79 1.53846 1.3013 0
M  V30 46420 O 4375.85 1.43138 2.08009 0
M  V30 46421 C 4377.16 2.89732 -0.804735 0
M  V30 46422 C 4378.71 3.03276 -0.774139 0
M  V30 46423 C 4379.18 4.37283 -1.36189 0
M  V30 46424 N 4380.67 4.43869 -1.32419 0
M  V30 46425 C 4381.41 5.46082 -1.74878 0
M  V30 46426 N 4380.91 6.55211 -2.25102 0
M  V30 46427 N 4382.7 5.37008 -1.6607 0
M  V30 46428 H 4374.85 1.49357 -1.51017 0
M  V30 46429 H 4377.11 0.709626 -0.628597 0
M  V30 46430 H 4376.82 2.98739 -1.85602 0
M  V30 46431 H 4376.69 3.76113 -0.286105 0
M  V30 46432 H 4379.08 2.93877 0.268398 0
M  V30 46433 H 4379.16 2.18486 -1.33032 0
M  V30 46434 H 4378.8 4.47436 -2.4034 0
M  V30 46435 H 4378.73 5.20771 -0.78133 0
M  V30 46436 H 4381.23 3.65592 -0.956608 0
M  V30 46437 H 4381.54 7.2935 -2.55475 0
M  V30 46438 H 4379.88 6.56154 -2.291 0
M  V30 46439 H 4383.07 4.50648 -1.26626 0
M  V30 46440 H 4383.25 6.16532 -1.99481 0
M  V30 46441 N 4376.65 0.272809 1.55221 0
M  V30 46442 C 4377.62 -0.602555 2.21138 0
M  V30 46443 C 4378.62 -1.08309 1.18852 0
M  V30 46444 O 4379.81 -0.983638 1.43771 0
M  V30 46445 C 4376.94 -1.83105 2.87551 0
M  V30 46446 H 4378.13 -0.0270541 2.99888 0
M  V30 46447 H 4375.69 0.023411 1.56282 0
M  V30 46448 H 4376.42 -2.44712 2.12806 0
M  V30 46449 H 4376.21 -1.49442 3.62504 0
M  V30 46450 H 4377.7 -2.45359 3.37918 0
M  V30 46451 N 4378.13 -1.576 5.54043e-05 0
M  V30 46452 C 4379.38 -1.89749 -0.683974 0
M  V30 46453 C 4379.69 -0.875071 -1.74934 0
M  V30 46454 O 4380.9 -1.08678 -2.488 0
M  V30 46455 C 4379.36 -3.36834 -1.26772 0
M  V30 46456 C 4378.96 -4.47372 -0.237172 0
M  V30 46457 C 4380.71 -3.78092 -1.92993 0
M  V30 46458 C 4378.62 -5.85534 -0.830908 0
M  V30 46459 H 4377.55 -0.708037 -0.259228 0
M  V30 46460 H 4380.2 -1.834 0.0606085 0
M  V30 46461 H 4378.58 -3.3802 -2.06297 0
M  V30 46462 H 4379.75 -4.57701 0.533491 0
M  V30 46463 H 4378.07 -4.15133 0.324609 0
M  V30 46464 H 4380.66 -4.78652 -2.3832 0
M  V30 46465 H 4381.01 -3.1161 -2.76052 0
M  V30 46466 H 4381.54 -3.79205 -1.20202 0
M  V30 46467 H 4378.28 -6.55488 -0.0390993 0
M  V30 46468 H 4377.8 -5.78868 -1.57073 0
M  V30 46469 H 4379.48 -6.33192 -1.32952 0
M  V30 46470 N 4379.61 0.2727 -1.55223 0
M  V30 46471 C 4380.86 1.00165 -1.77027 0
M  V30 46472 C 4381.21 1.83926 -0.564697 0
M  V30 46473 O 4380.5 1.86418 0.442609 0
M  V30 46474 C 4380.7 1.91632 -3.01682 0
M  V30 46475 C 4380.53 1.16873 -4.34247 0
M  V30 46476 C 4379.3 0.884289 -4.97502 0
M  V30 46477 C 4381.5 0.55901 -5.11253 0
M  V30 46478 N 4379.48 0.109935 -6.13802 0
M  V30 46479 C 4380.85 -0.0811649 -6.19947 0
M  V30 46480 C 4382.9 0.466884 -4.95706 0
M  V30 46481 C 4381.61 -0.804587 -7.14786 0
M  V30 46482 C 4383.63 -0.242947 -5.90901 0
M  V30 46483 C 4382.99 -0.871859 -6.98984 0
M  V30 46484 H 4379.09 0.348504 -0.700049 0
M  V30 46485 H 4381.68 0.277297 -1.92715 0
M  V30 46486 H 4379.85 2.61293 -2.87368 0
M  V30 46487 H 4381.58 2.5789 -3.11889 0
M  V30 46488 H 4378.34 1.18963 -4.58415 0
M  V30 46489 H 4378.76 -0.264582 -6.76483 0
M  V30 46490 H 4383.4 0.938795 -4.12246 0
M  V30 46491 H 4381.12 -1.28818 -7.97767 0
M  V30 46492 H 4384.71 -0.314551 -5.80949 0
M  V30 46493 H 4383.59 -1.41237 -7.71377 0
M  V30 46494 N 4381.09 1.48161 0.537226 0
M  V30 46495 C 4382.32 1.59227 1.31644 0
M  V30 46496 C 4382.73 0.248915 1.87555 0
M  V30 46497 O 4382.07 -0.770891 1.66742 0
M  V30 46498 C 4382.13 2.57374 2.50996 0
M  V30 46499 C 4381.8 4.02611 2.16225 0
M  V30 46500 C 4382.79 4.90509 1.72327 0
M  V30 46501 C 4380.48 4.48096 2.26971 0
M  V30 46502 C 4382.47 6.21918 1.3963 0
M  V30 46503 C 4380.16 5.79527 1.93885 0
M  V30 46504 C 4381.16 6.66261 1.50285 0
M  V30 46505 O 4380.84 7.95247 1.17631 0
M  V30 46506 H 4380.58 0.539845 0.40687 0
M  V30 46507 H 4383.13 1.94657 0.655573 0
M  V30 46508 H 4381.36 2.17051 3.2004 0
M  V30 46509 H 4383.05 2.58353 3.13063 0
M  V30 46510 H 4383.82 4.5661 1.63501 0
M  V30 46511 H 4379.69 3.80778 2.59863 0
M  V30 46512 H 4383.24 6.89572 1.05525 0
M  V30 46513 H 4379.14 6.12964 2.02349 0
M  V30 46514 H 4379.9 8.07934 1.31091 0
M  V30 46515 N 4382.57 -0.785538 1.36627 0
M  V30 46516 C 4383.5 -1.90505 1.25631 0
M  V30 46517 C 4384.48 -1.61999 0.139664 0
M  V30 46518 O 4385.66 -1.85909 0.311476 0
M  V30 46519 C 4382.79 -3.25416 0.939273 0
M  V30 46520 C 4381.83 -3.72848 2.0709 0
M  V30 46521 S 4382.67 -3.8815 3.68918 0
M  V30 46522 C 4383.82 -5.2593 3.39335 0
M  V30 46523 H 4384.06 -1.99541 2.20388 0
M  V30 46524 H 4381.59 -0.945183 1.22089 0
M  V30 46525 H 4383.55 -4.03343 0.763171 0
M  V30 46526 H 4382.21 -3.14099 0.00942444 0
M  V30 46527 H 4381.4 -4.70618 1.80373 0
M  V30 46528 H 4381 -3.01982 2.20642 0
M  V30 46529 H 4383.3 -6.10641 2.93469 0
M  V30 46530 H 4384.24 -5.57652 4.36382 0
M  V30 46531 H 4384.65 -4.93214 2.7459 0
M  V30 46532 N 4384.04 -1.20971 -1.01014 0
M  V30 46533 C 4385.29 -1.03537 -1.75076 0
M  V30 46534 C 4385.65 0.427274 -1.87596 0
M  V30 46535 O 4384.94 1.31293 -1.39544 0
M  V30 46536 C 4385.13 -1.66008 -3.16506 0
M  V30 46537 C 4384.96 -3.18195 -3.17776 0
M  V30 46538 C 4383.73 -3.8721 -3.24649 0
M  V30 46539 C 4385.93 -4.15344 -3.03304 0
M  V30 46540 N 4383.91 -5.2663 -3.15491 0
M  V30 46541 C 4385.28 -5.41483 -3.01988 0
M  V30 46542 C 4387.34 -4.06459 -2.87568 0
M  V30 46543 C 4386.04 -6.5976 -2.86548 0
M  V30 46544 C 4388.07 -5.24367 -2.73484 0
M  V30 46545 C 4387.43 -6.49414 -2.72839 0
M  V30 46546 H 4383.53 -0.43316 -0.651073 0
M  V30 46547 H 4386.11 -1.53244 -1.20102 0
M  V30 46548 H 4384.28 -1.18876 -3.69761 0
M  V30 46549 H 4386.01 -1.41829 -3.79034 0
M  V30 46550 H 4382.77 -3.38105 -3.31636 0
M  V30 46551 H 4383.19 -5.99637 -3.14268 0
M  V30 46552 H 4387.84 -3.10583 -2.86876 0
M  V30 46553 H 4385.55 -7.55802 -2.85988 0
M  V30 46554 H 4389.14 -5.19309 -2.62316 0
M  V30 46555 H 4388.02 -7.39115 -2.62067 0
M  V30 46556 N 4385.52 1.20426 -1.01663 0
M  V30 46557 C 4386.45 2.25464 -0.607305 0
M  V30 46558 C 4387.43 1.65855 0.377658 0
M  V30 46559 O 4388.62 1.9241 0.263081 0
M  V30 46560 C 4385.75 3.47256 0.0551728 0
M  V30 46561 C 4384.7 4.19459 -0.850779 0
M  V30 46562 C 4384.03 5.34673 -0.0540739 0
M  V30 46563 C 4385.33 4.75596 -2.15885 0
M  V30 46564 H 4387.02 2.59957 -1.48535 0
M  V30 46565 H 4384.57 1.24958 -0.715649 0
M  V30 46566 H 4386.52 4.19918 0.353085 0
M  V30 46567 H 4385.25 3.11927 0.967936 0
M  V30 46568 H 4383.9 3.48663 -1.1327 0
M  V30 46569 H 4383.55 4.95588 0.86034 0
M  V30 46570 H 4383.25 5.83911 -0.657397 0
M  V30 46571 H 4384.78 6.10138 0.237383 0
M  V30 46572 H 4386.19 5.40076 -1.9233 0
M  V30 46573 H 4384.59 5.35271 -2.71302 0
M  V30 46574 H 4385.66 3.94336 -2.82183 0
M  V30 46575 N 4387 0.792868 1.36203 0
M  V30 46576 C 4388.25 0.366132 1.98756 0
M  V30 46577 C 4388.57 -1.06674 1.63235 0
M  V30 46578 O 4387.84 -1.73584 0.908039 0
M  V30 46579 H 4386.42 0.13239 0.735175 0
M  V30 46580 H 4389.08 1.01567 1.66343 0
M  V30 46581 H 4388.18 0.460747 3.0868 0
M  V30 46582 N 4388.48 -1.4787 0.54518 0
M  V30 46583 C 4389.44 -2.28338 -0.198637 0
M  V30 46584 C 4390.44 -1.36258 -0.85384 0
M  V30 46585 O 4391.63 -1.59005 -0.71155 0
M  V30 46586 C 4388.76 -3.15589 -1.28904 0
M  V30 46587 H 4389.96 -2.95565 0.508045 0
M  V30 46588 H 4387.51 -1.53361 0.30167 0
M  V30 46589 H 4388.24 -2.53026 -2.0285 0
M  V30 46590 H 4388.03 -3.8334 -0.824174 0
M  V30 46591 H 4389.52 -3.76249 -1.81181 0
M  V30 46592 N 4389.96 -0.281037 -1.55074 0
M  V30 46593 C 4391.37 0.0729404 -1.59433 0
M  V30 46594 C 4391.57 1.54106 -1.29822 0
M  V30 46595 O 4390.63 2.29083 -1.06195 0
M  V30 46596 C 4391.94 -0.307026 -2.99128 0
M  V30 46597 C 4393.49 -0.254133 -3.11967 0
M  V30 46598 C 4393.96 -0.608626 -4.53938 0
M  V30 46599 N 4395.46 -0.560402 -4.59797 0
M  V30 46600 C 4396.19 -0.807419 -5.67687 0
M  V30 46601 N 4395.69 -1.11936 -6.83697 0
M  V30 46602 N 4397.48 -0.735819 -5.57263 0
M  V30 46603 H 4389.63 -1.23806 -1.72586 0
M  V30 46604 H 4391.89 -0.500575 -0.805064 0
M  V30 46605 H 4391.6 -1.32828 -3.25653 0
M  V30 46606 H 4391.47 0.349231 -3.7558 0
M  V30 46607 H 4393.86 0.75784 -2.85203 0
M  V30 46608 H 4393.94 -0.944732 -2.37715 0
M  V30 46609 H 4393.59 -1.61831 -4.81428 0
M  V30 46610 H 4393.52 0.103828 -5.26498 0
M  V30 46611 H 4396.01 -0.32942 -3.76461 0
M  V30 46612 H 4396.32 -1.29435 -7.61883 0
M  V30 46613 H 4394.66 -1.1572 -6.85298 0
M  V30 46614 H 4397.86 -0.491916 -4.65508 0
M  V30 46615 H 4398.03 -0.931708 -6.41267 0
M  V30 46616 N 4391.44 1.57598 -0.00841331 0
M  V30 46617 C 4392.67 1.94934 0.684428 0
M  V30 46618 C 4393.07 0.882292 1.67369 0
M  V30 46619 O 4392.42 -0.146557 1.83114 0
M  V30 46620 C 4392.48 3.28305 1.46479 0
M  V30 46621 C 4392.14 4.5255 0.636181 0
M  V30 46622 C 4393.14 5.19839 -0.0797413 0
M  V30 46623 C 4390.82 4.98944 0.579674 0
M  V30 46624 C 4392.82 6.31827 -0.841065 0
M  V30 46625 C 4390.51 6.10819 -0.18537 0
M  V30 46626 C 4391.5 6.77118 -0.894465 0
M  V30 46627 O 4391.19 7.86847 -1.64701 0
M  V30 46628 H 4390.92 0.647256 0.195027 0
M  V30 46629 H 4393.48 2.05318 -0.0581993 0
M  V30 46630 H 4391.71 3.14353 2.25209 0
M  V30 46631 H 4393.4 3.50692 2.04376 0
M  V30 46632 H 4394.16 4.84979 -0.0452907 0
M  V30 46633 H 4390.04 4.47159 1.12114 0
M  V30 46634 H 4393.59 6.83508 -1.39507 0
M  V30 46635 H 4389.48 6.45119 -0.221611 0
M  V30 46636 H 4390.25 8.03407 -1.5646 0
M  V30 46637 N 4392.91 -0.264465 1.55365 0
M  V30 46638 C 4393.84 -1.33114 1.91841 0
M  V30 46639 C 4394.82 -1.51098 0.781245 0
M  V30 46640 O 4396.01 -1.63999 1.04009 0
M  V30 46641 C 4393.14 -2.68914 2.19779 0
M  V30 46642 C 4392.09 -2.6565 3.35581 0
M  V30 46643 C 4391.42 -4.05081 3.49018 0
M  V30 46644 C 4392.72 -2.2417 4.71747 0
M  V30 46645 H 4394.41 -1.02834 2.81186 0
M  V30 46646 H 4391.96 -0.493239 1.35289 0
M  V30 46647 H 4393.91 -3.43655 2.43884 0
M  V30 46648 H 4392.64 -3.00794 1.27242 0
M  V30 46649 H 4391.3 -1.93366 3.11457 0
M  V30 46650 H 4390.94 -4.34198 2.53932 0
M  V30 46651 H 4390.64 -4.03789 4.26882 0
M  V30 46652 H 4392.17 -4.81548 3.75425 0
M  V30 46653 H 4393.58 -2.88637 4.9534 0
M  V30 46654 H 4391.98 -2.34024 5.52587 0
M  V30 46655 H 4393.05 -1.19311 4.69992 0
M  V30 46656 N 4394.39 -1.48444 -0.529361 0
M  V30 46657 C 4395.3 -1.65696 -1.66078 0
M  V30 46658 C 4396.32 -0.53949 -1.65425 0
M  V30 46659 O 4397.49 -0.810637 -1.84365 0
M  V30 46660 C 4394.56 -1.69326 -3.02539 0
M  V30 46661 C 4393.62 -2.92705 -3.14042 0
M  V30 46662 C 4392.85 -2.96152 -4.43993 0
M  V30 46663 O 4393.08 -2.07991 -5.31127 0
M  V30 46664 O 4392.01 -3.88329 -4.59874 0
M  V30 46665 H 4395.84 -2.61488 -1.54459 0
M  V30 46666 H 4393.42 -1.31852 -0.70252 0
M  V30 46667 H 4395.3 -1.74231 -3.83695 0
M  V30 46668 H 4393.98 -0.767077 -3.1448 0
M  V30 46669 H 4392.88 -2.93332 -2.32179 0
M  V30 46670 H 4394.22 -3.8471 -3.07017 0
M  V30 46671 N 4395.87 0.778281 -1.37042 0
M  V30 46672 C 4397.12 1.5366 -1.31889 0
M  V30 46673 C 4397.44 1.9425 0.098562 0
M  V30 46674 O 4396.7 1.63835 1.07035 0
M  V30 46675 C 4397 2.81838 -2.19778 0
M  V30 46676 C 4396.66 2.60332 -3.68155 0
M  V30 46677 C 4395.33 2.54175 -4.08593 0
M  V30 46678 C 4397.68 2.40907 -4.62183 0
M  V30 46679 C 4395.01 2.26575 -5.41185 0
M  V30 46680 C 4397.36 2.14832 -5.95004 0
M  V30 46681 C 4396.02 2.07115 -6.34555 0
M  V30 46682 H 4395.29 0.562282 -0.482617 0
M  V30 46683 H 4397.94 0.897009 -1.69192 0
M  V30 46684 H 4396.24 3.50322 -1.75448 0
M  V30 46685 H 4397.94 3.39685 -2.13109 0
M  V30 46686 H 4394.53 2.65984 -3.36081 0
M  V30 46687 H 4398.72 2.44658 -4.31806 0
M  V30 46688 H 4393.97 2.19091 -5.70797 0
M  V30 46689 H 4398.15 1.98799 -6.67422 0
M  V30 46690 H 4395.77 1.85492 -7.37222 0
M  V30 46691 N 4397.35 1.21505 1.00371 0
M  V30 46692 C 4398.26 0.991521 2.12617 0
M  V30 46693 C 4399.27 -0.0567834 1.73907 0
M  V30 46694 O 4400.45 0.133551 2.00957 0
M  V30 46695 C 4397.51 0.560432 3.4214 0
M  V30 46696 C 4396.58 1.6811 3.95016 0
M  V30 46697 C 4395.81 1.27049 5.18357 0
M  V30 46698 O 4396.03 0.144638 5.70217 0
M  V30 46699 O 4394.97 2.08289 5.64712 0
M  V30 46700 H 4398.79 1.93166 2.34351 0
M  V30 46701 H 4396.38 1.00004 1.10994 0
M  V30 46702 H 4398.26 0.329871 4.20107 0
M  V30 46703 H 4396.93 -0.350976 3.21792 0
M  V30 46704 H 4395.84 1.96608 3.18271 0
M  V30 46705 H 4397.17 2.56998 4.19777 0
M  V30 46706 N 4398.83 -1.19885 1.023 0
M  V30 46707 C 4399.79 -2.21114 0.603428 0
M  V30 46708 C 4400.79 -1.57381 -0.329829 0
M  V30 46709 O 4401.98 -1.73802 -0.117641 0
M  V30 46710 C 4399.11 -3.40696 -0.117872 0
M  V30 46711 H 4400.3 -2.59748 1.49903 0
M  V30 46712 H 4397.86 -1.3346 0.813515 0
M  V30 46713 H 4398.59 -3.07572 -1.02809 0
M  V30 46714 H 4398.38 -3.88186 0.552647 0
M  V30 46715 H 4399.87 -4.15694 -0.39855 0
M  V30 46716 N 4400.3 -0.80008 -1.35781 0
M  V30 46717 C 4401.23 -0.220266 -2.32459 0
M  V30 46718 C 4402.21 0.650675 -1.57163 0
M  V30 46719 O 4403.4 0.582294 -1.85265 0
M  V30 46720 C 4400.53 0.637233 -3.41404 0
M  V30 46721 C 4399.48 -0.134681 -4.27788 0
M  V30 46722 C 4398.81 0.8441 -5.27995 0
M  V30 46723 C 4400.11 -1.32997 -5.05083 0
M  V30 46724 H 4401.8 -1.02797 -2.812 0
M  V30 46725 H 4399.35 -0.495764 -1.35197 0
M  V30 46726 H 4401.3 1.05288 -4.08035 0
M  V30 46727 H 4400.03 1.47775 -2.91256 0
M  V30 46728 H 4398.69 -0.531424 -3.62728 0
M  V30 46729 H 4398.33 1.67994 -4.74117 0
M  V30 46730 H 4398.03 0.331977 -5.86661 0
M  V30 46731 H 4399.56 1.25809 -5.97499 0
M  V30 46732 H 4400.97 -0.989539 -5.64696 0
M  V30 46733 H 4399.37 -1.77613 -5.73214 0
M  V30 46734 H 4400.44 -2.11994 -4.36104 0
M  V30 46735 N 4401.78 1.47579 -0.553014 0
M  V30 46736 C 4403.03 2.02082 -0.0273414 0
M  V30 46737 C 4403.35 1.43015 1.32558 0
M  V30 46738 O 4402.62 0.60381 1.86362 0
M  V30 46739 H 4401.2 0.746966 -0.00711808 0
M  V30 46740 H 4403.86 1.81031 -0.722071 0
M  V30 46741 H 4402.96 3.12035 0.0638854 0
M  V30 46742 N 4403.26 0.289257 1.54923 0
M  V30 46743 C 4404.51 -0.323448 1.999 0
M  V30 46744 C 4404.83 -1.54793 1.17768 0
M  V30 46745 O 4404.09 -1.94236 0.238904 0
M  V30 46746 C 4404.39 -0.735996 3.4974 0
M  V30 46747 C 4404.05 0.385433 4.4925 0
M  V30 46748 C 4402.72 0.693323 4.76179 0
M  V30 46749 C 4405.07 1.14039 5.08571 0
M  V30 46750 C 4402.4 1.7595 5.59695 0
M  V30 46751 C 4404.75 2.1964 5.93246 0
M  V30 46752 C 4403.41 2.51048 6.18491 0
M  V30 46753 H 4402.68 -0.118358 0.731486 0
M  V30 46754 H 4405.33 0.405913 1.87149 0
M  V30 46755 H 4403.63 -1.54526 3.6004 0
M  V30 46756 H 4405.33 -1.22105 3.81957 0
M  V30 46757 H 4401.92 0.135352 4.28386 0
M  V30 46758 H 4406.11 0.915782 4.87778 0
M  V30 46759 H 4401.36 2.0077 5.77496 0
M  V30 46760 H 4405.54 2.78604 6.38242 0
M  V30 46761 H 4403.16 3.33796 6.82996 0
M  V30 46762 N 4404.74 -1.57591 0.016771 0
M  V30 46763 C 4405.67 -2.125 -0.967783 0
M  V30 46764 C 4406.65 -1.03812 -1.34748 0
M  V30 46765 O 4407.83 -1.31582 -1.42828 0
M  V30 46766 C 4404.96 -2.64202 -2.25421 0
M  V30 46767 C 4403.92 -3.77566 -2.01563 0
M  V30 46768 C 4403.24 -4.15648 -3.36365 0
M  V30 46769 C 4404.54 -5.04155 -1.36472 0
M  V30 46770 H 4406.24 -2.95015 -0.51054 0
M  V30 46771 H 4403.78 -1.41915 -0.244131 0
M  V30 46772 H 4405.74 -3.01246 -2.94667 0
M  V30 46773 H 4404.46 -1.78831 -2.73289 0
M  V30 46774 H 4403.12 -3.40941 -1.34739 0
M  V30 46775 H 4402.77 -3.27276 -3.81968 0
M  V30 46776 H 4402.47 -4.92033 -3.21212 0
M  V30 46777 H 4403.99 -4.55265 -4.06899 0
M  V30 46778 H 4405.41 -5.38864 -1.95699 0
M  V30 46779 H 4403.8 -5.85458 -1.31755 0
M  V30 46780 H 4404.87 -4.83734 -0.336049 0
M  V30 46781 N 4406.22 0.256222 -1.55503 0
M  V30 46782 C 4407.16 1.33687 -1.90343 0
M  V30 46783 C 4408.16 1.50296 -0.781494 0
M  V30 46784 O 4409.36 1.51882 -0.966019 0
M  V30 46785 H 4405.74 0.447462 -0.604385 0
M  V30 46786 H 4407.71 1.01564 -2.80584 0
M  V30 46787 C 4406.46 2.68716 -2.20651 0
M  V30 46788 H 4405.78 2.56732 -3.06478 0
M  V30 46789 H 4407.22 3.43228 -2.48938 0
M  V30 46790 C 4405.68 3.21098 -1.0197 0
M  V30 46791 O 4406.21 4.00839 -0.262903 0
M  V30 46792 N 4404.42 2.79 -0.812844 0
M  V30 46793 H 4403.96 2.14266 -1.42996 0
M  V30 46794 H 4403.92 3.14393 -0.0204181 0
M  V30 46795 N 4407.69 1.48722 0.521481 0
M  V30 46796 C 4408.6 1.66575 1.65197 0
M  V30 46797 C 4409.62 0.548255 1.65137 0
M  V30 46798 O 4410.8 0.820403 1.83933 0
M  V30 46799 C 4407.86 1.70928 3.01636 0
M  V30 46800 C 4406.92 2.94367 3.12485 0
M  V30 46801 C 4406.16 2.98503 4.42416 0
M  V30 46802 O 4406.38 2.10805 5.30016 0
M  V30 46803 O 4405.31 3.90762 4.57809 0
M  V30 46804 H 4409.14 2.62303 1.53071 0
M  V30 46805 H 4406.72 1.32223 0.695518 0
M  V30 46806 H 4408.61 1.76263 3.82765 0
M  V30 46807 H 4407.28 0.783744 3.14069 0
M  V30 46808 H 4406.19 2.9456 2.3062 0
M  V30 46809 H 4407.52 3.86333 3.04972 0
M  V30 46810 N 4409.17 -0.771003 1.37453 0
M  V30 46811 C 4410.45 -1.51895 1.23236 0
M  V30 46812 C 4410.83 -2.10384 -0.173735 0
M  V30 46813 O 4410.18 -1.95587 -1.18144 0
M  V30 46814 C 4410.39 -2.59925 2.32895 0
M  V30 46815 C 4411.74 -3.27307 2.70472 0
M  V30 46816 O 4412.76 -2.7022 2.32077 0
M  V30 46817 O 4411.62 -4.30519 3.36623 0
M  V30 46818 H 4408.71 -0.672786 0.480925 0
M  V30 46819 H 4411.26 -0.807904 1.49235 0
M  V30 46820 H 4410.03 -2.14831 3.27053 0
M  V30 46821 H 4409.65 -3.38629 2.08365 0
M  V30 46822 N 4410.65 -1.22035 -0.997255 0
M  V30 46823 C 4411.6 -0.953911 -2.07086 0
M  V30 46824 C 4412.58 0.0938105 -1.60626 0
M  V30 46825 O 4413.78 -0.116141 -1.76619 0
M  V30 46826 C 4410.91 -0.528845 -3.39202 0
M  V30 46827 C 4409.99 -1.61106 -3.92308 0
M  V30 46828 N 4410.38 -2.83783 -4.18689 0
M  V30 46829 C 4408.68 -1.48173 -4.20667 0
M  V30 46830 C 4409.38 -3.53731 -4.61789 0
M  V30 46831 N 4408.36 -2.8119 -4.65223 0
M  V30 46832 H 4412.16 -1.88584 -2.25418 0
M  V30 46833 H 4409.67 -1.11723 -1.17863 0
M  V30 46834 H 4411.67 -0.319296 -4.15675 0
M  V30 46835 H 4410.33 0.396237 -3.22273 0
M  V30 46836 H 4411.34 -3.20252 -4.07012 0
M  V30 46837 H 4408.02 -0.622514 -4.12833 0
M  V30 46838 H 4409.41 -4.5881 -4.90859 0
M  V30 46839 N 4412.13 1.19341 -1.02934 0
M  V30 46840 C 4413.37 1.89582 -0.73689 0
M  V30 46841 C 4413.73 1.78151 0.72664 0
M  V30 46842 O 4413.02 1.16337 1.52237 0
M  V30 46843 C 4413.22 3.39288 -1.12331 0
M  V30 46844 C 4413.05 3.65289 -2.62286 0
M  V30 46845 C 4411.82 3.83293 -3.29264 0
M  V30 46846 C 4414.01 3.66807 -3.60495 0
M  V30 46847 N 4412 3.96928 -4.68318 0
M  V30 46848 C 4413.37 3.8602 -4.85169 0
M  V30 46849 C 4415.42 3.49836 -3.54287 0
M  V30 46850 C 4414.12 3.90019 -6.04382 0
M  V30 46851 C 4416.15 3.55112 -4.72916 0
M  V30 46852 C 4415.51 3.7481 -5.96403 0
M  V30 46853 H 4411.61 0.712845 -0.321522 0
M  V30 46854 H 4414.2 1.43422 -1.31674 0
M  V30 46855 H 4412.37 3.8417 -0.571659 0
M  V30 46856 H 4414.1 3.97052 -0.78306 0
M  V30 46857 H 4410.85 3.82201 -2.79677 0
M  V30 46858 H 4411.28 4.07594 -5.40552 0
M  V30 46859 H 4415.92 3.33562 -2.598 0
M  V30 46860 H 4413.64 4.05084 -6.99237 0
M  V30 46861 H 4417.22 3.4327 -4.69741 0
M  V30 46862 H 4416.1 3.78768 -6.86662 0
M  V30 46863 N 4413.61 0.80727 1.35355 0
M  V30 46864 C 4414.85 0.387958 1.98749 0
M  V30 46865 C 4415.18 -1.04503 1.6404 0
M  V30 46866 O 4414.44 -1.73983 0.896007 0
M  V30 46867 C 4414.74 0.51916 3.53609 0
M  V30 46868 C 4414.4 1.91557 4.08187 0
M  V30 46869 C 4413.06 2.2976 4.22805 0
M  V30 46870 C 4415.42 2.82911 4.37734 0
M  V30 46871 C 4412.74 3.58684 4.64287 0
M  V30 46872 C 4415.1 4.11282 4.80656 0
M  V30 46873 C 4413.76 4.49483 4.93478 0
M  V30 46874 H 4413.03 0.141964 0.727274 0
M  V30 46875 H 4415.68 1.02819 1.61556 0
M  V30 46876 H 4413.98 -0.204521 3.91266 0
M  V30 46877 H 4415.68 0.175486 4.00616 0
M  V30 46878 H 4412.27 1.60876 3.97262 0
M  V30 46879 H 4416.45 2.54644 4.25993 0
M  V30 46880 H 4411.71 3.88129 4.72404 0
M  V30 46881 H 4415.88 4.8217 5.02479 0
M  V30 46882 H 4413.51 5.49436 5.2538 0
M  V30 46883 N 4415.08 -1.47283 0.560833 0
M  V30 46884 C 4416.31 -2.07359 0.0411295 0
M  V30 46885 C 4416.73 -1.41021 -1.24478 0
M  V30 46886 O 4416.09 -0.486429 -1.74653 0
M  V30 46887 C 4416.14 -3.60351 -0.133996 0
M  V30 46888 O 4415.24 -3.94685 -1.19573 0
M  V30 46889 H 4414.59 -0.661885 0.0529524 0
M  V30 46890 H 4417.12 -1.89249 0.777548 0
M  V30 46891 H 4417.13 -4.06521 -0.347064 0
M  V30 46892 H 4415.8 -4.08031 0.805191 0
M  V30 46893 H 4414.38 -3.60255 -0.962861 0
M  V30 46894 N 4416.56 -0.297469 -1.54767 0
M  V30 46895 C 4417.98 0.0560262 -1.59502 0
M  V30 46896 C 4418.18 1.5272 -1.31449 0
M  V30 46897 O 4417.23 2.27943 -1.08619 0
M  V30 46898 C 4418.55 -0.338736 -2.98786 0
M  V30 46899 C 4420.1 -0.287207 -3.1168 0
M  V30 46900 C 4420.57 -0.656738 -4.53267 0
M  V30 46901 N 4422.06 -0.609139 -4.59177 0
M  V30 46902 C 4422.8 -0.867585 -5.66798 0
M  V30 46903 N 4422.29 -1.19181 -6.82472 0
M  V30 46904 N 4424.09 -0.794883 -5.56451 0
M  V30 46905 H 4416.24 -1.2563 -1.71263 0
M  V30 46906 H 4418.5 -0.509085 -0.79971 0
M  V30 46907 H 4418.21 -1.36274 -3.24226 0
M  V30 46908 H 4418.08 0.309376 -3.75929 0
M  V30 46909 H 4420.47 0.727548 -2.85991 0
M  V30 46910 H 4420.55 -0.969892 -2.367 0
M  V30 46911 H 4420.19 -1.66928 -4.79685 0
M  V30 46912 H 4420.12 0.0479798 -5.26578 0
M  V30 46913 H 4422.61 -0.369331 -3.76091 0
M  V30 46914 H 4422.93 -1.37509 -7.60468 0
M  V30 46915 H 4421.27 -1.22982 -6.84033 0
M  V30 46916 H 4424.46 -0.541261 -4.6496 0
M  V30 46917 H 4424.63 -0.99967 -6.40243 0
M  V30 46918 N 4418.04 1.5758 -0.0251282 0
M  V30 46919 C 4418.95 2.13433 0.97383 0
M  V30 46920 C 4419.97 1.08561 1.3598 0
M  V30 46921 O 4421.14 1.40597 1.44202 0
M  V30 46922 C 4418.21 2.64711 2.23895 0
M  V30 46923 C 4417.27 3.84283 1.91377 0
M  V30 46924 C 4416.5 4.33106 3.11857 0
M  V30 46925 O 4416.72 3.81122 4.24384 0
M  V30 46926 O 4415.66 5.24995 2.94388 0
M  V30 46927 H 4419.48 2.99059 0.528931 0
M  V30 46928 H 4417.07 1.48119 0.195236 0
M  V30 46929 H 4418.95 2.97779 2.9817 0
M  V30 46930 H 4417.63 1.82171 2.67573 0
M  V30 46931 H 4416.53 3.56147 1.14498 0
M  V30 46932 H 4417.87 4.67974 1.52517 0
M  V30 46933 N 4419.52 -0.247971 1.55637 0
M  V30 46934 C 4420.47 -1.32676 1.91049 0
M  V30 46935 C 4421.46 -1.4988 0.789454 0
M  V30 46936 O 4422.67 -1.51367 0.97406 0
M  V30 46937 H 4419.04 -0.44425 0.60675 0
M  V30 46938 H 4421.01 -1.00075 2.81119 0
M  V30 46939 C 4419.76 -2.67542 2.22073 0
M  V30 46940 H 4419.08 -2.55103 3.07835 0
M  V30 46941 H 4420.52 -3.41903 2.50755 0
M  V30 46942 C 4418.98 -3.20552 1.03671 0
M  V30 46943 O 4419.51 -4.00694 0.284156 0
M  V30 46944 N 4417.72 -2.78565 0.827628 0
M  V30 46945 H 4417.27 -2.13505 1.4413 0
M  V30 46946 H 4417.22 -3.14378 0.0370908 0
M  V30 46947 N 4421 -1.48997 -0.513587 0
M  V30 46948 C 4422.22 -1.61796 -1.29756 0
M  V30 46949 C 4422.65 -0.284541 -1.85935 0
M  V30 46950 O 4422.01 0.746127 -1.65235 0
M  V30 46951 C 4422.05 -2.68001 -2.41263 0
M  V30 46952 O 4421.16 -2.263 -3.44764 0
M  V30 46953 H 4420.5 -0.541976 -0.383611 0
M  V30 46954 H 4423.03 -1.95099 -0.616239 0
M  V30 46955 H 4423.04 -2.89782 -2.87211 0
M  V30 46956 H 4421.71 -3.64799 -1.99737 0
M  V30 46957 H 4420.29 -2.14799 -3.04821 0
M  V30 46958 N 4422.48 0.763702 -1.3786 0
M  V30 46959 C 4423.71 1.55063 -1.36525 0
M  V30 46960 C 4424.11 1.89136 0.0493562 0
M  V30 46961 O 4423.46 1.52532 1.0237 0
M  V30 46962 C 4423.52 2.88373 -2.14666 0
M  V30 46963 C 4423.18 2.76892 -3.63565 0
M  V30 46964 C 4424.18 2.47374 -4.57277 0
M  V30 46965 C 4421.86 2.94662 -4.06792 0
M  V30 46966 C 4423.86 2.35765 -5.92194 0
M  V30 46967 C 4421.55 2.82673 -5.41792 0
M  V30 46968 C 4422.54 2.53266 -6.34307 0
M  V30 46969 O 4422.23 2.41318 -7.66825 0
M  V30 46970 H 4421.96 0.486759 -0.469086 0
M  V30 46971 H 4424.52 0.953749 -1.81914 0
M  V30 46972 H 4422.75 3.50211 -1.63979 0
M  V30 46973 H 4424.44 3.49821 -2.05865 0
M  V30 46974 H 4425.2 2.33324 -4.25188 0
M  V30 46975 H 4421.08 3.16551 -3.35137 0
M  V30 46976 H 4424.63 2.12733 -6.64372 0
M  V30 46977 H 4420.52 2.96294 -5.73481 0
M  V30 46978 H 4421.29 2.56607 -7.77236 0
M  V30 46979 N 4423.95 1.22562 0.990769 0
M  V30 46980 C 4425.18 1.07868 1.77142 0
M  V30 46981 C 4425.6 -0.366382 1.84497 0
M  V30 46982 O 4424.96 -1.26474 1.299 0
M  V30 46983 C 4425.01 1.69697 3.18175 0
M  V30 46984 O 4424.11 0.952087 4.01259 0
M  V30 46985 H 4423.45 0.378731 0.545398 0
M  V30 46986 H 4425.98 1.62403 1.24444 0
M  V30 46987 H 4425.99 1.74509 3.68796 0
M  V30 46988 H 4424.67 2.74852 3.12136 0
M  V30 46989 H 4423.25 0.980138 3.59788 0
M  V30 46990 N 4425.43 -1.18793 1.03566 0
M  V30 46991 C 4426.68 -1.88275 0.734635 0
M  V30 46992 C 4427 -1.80433 -0.739522 0
M  V30 46993 O 4426.27 -1.2193 -1.53329 0
M  V30 46994 H 4424.85 -0.696981 0.268749 0
M  V30 46995 H 4427.51 -1.44187 1.31134 0
M  V30 46996 H 4426.61 -2.94439 1.03499 0
M  V30 46997 N 4426.91 -0.814437 -1.34925 0
M  V30 46998 C 4428.16 -0.399083 -1.98835 0
M  V30 46999 C 4428.49 1.03308 -1.64442 0
M  V30 47000 O 4427.76 1.71808 -0.911719 0
M  V30 47001 C 4428.05 -0.591754 -3.55205 0
M  V30 47002 C 4427.9 -2.06942 -3.99369 0
M  V30 47003 C 4429.22 -0.0223537 -4.40094 0
M  V30 47004 H 4426.34 -0.146477 -0.722297 0
M  V30 47005 H 4428.98 -1.02543 -1.59953 0
M  V30 47006 H 4427.13 -0.0585807 -3.88456 0
M  V30 47007 H 4428.8 -2.66557 -3.7649 0
M  V30 47008 H 4427.04 -2.56299 -3.4999 0
M  V30 47009 H 4427.72 -2.15508 -5.08193 0
M  V30 47010 H 4430.19 -0.477789 -4.13348 0
M  V30 47011 H 4429.07 -0.187025 -5.48581 0
M  V30 47012 H 4429.33 1.072 -4.28906 0
M  V30 47013 N 4428.39 1.46984 -0.568636 0
M  V30 47014 C 4429.3 2.33943 0.175468 0
M  V30 47015 C 4430.31 1.48894 0.900357 0
M  V30 47016 O 4431.49 1.81798 0.866696 0
M  V30 47017 C 4428.55 3.25815 1.18513 0
M  V30 47018 C 4427.62 4.26759 0.466432 0
M  V30 47019 C 4426.85 5.14241 1.42799 0
M  V30 47020 O 4427.07 5.04389 2.66361 0
M  V30 47021 O 4426.01 5.94416 0.946244 0
M  V30 47022 H 4429.83 2.98894 -0.538141 0
M  V30 47023 H 4427.42 1.45729 -0.329148 0
M  V30 47024 H 4429.3 3.82533 1.76766 0
M  V30 47025 H 4427.97 2.63478 1.88045 0
M  V30 47026 H 4426.88 3.73768 -0.157583 0
M  V30 47027 H 4428.21 4.91842 -0.187658 0
M  V30 47028 N 4429.87 0.305673 1.54607 0
M  V30 47029 C 4431.11 -0.301631 1.99836 0
M  V30 47030 C 4431.43 -1.5405 1.19556 0
M  V30 47031 O 4430.7 -1.93701 0.292726 0
M  V30 47032 H 4429.28 -0.114442 0.738182 0
M  V30 47033 H 4431.95 0.418083 1.90363 0
M  V30 47034 H 4431.04 -0.57044 3.06843 0
M  V30 47035 N 4431.34 -1.57564 0.0334847 0
M  V30 47036 C 4432.25 -2.13947 -0.962497 0
M  V30 47037 C 4433.27 -1.09281 -1.35402 0
M  V30 47038 O 4434.45 -1.4136 -1.43455 0
M  V30 47039 C 4431.51 -2.65895 -2.22488 0
M  V30 47040 C 4430.57 -3.85292 -1.89336 0
M  V30 47041 C 4429.8 -4.34754 -3.09556 0
M  V30 47042 O 4430.03 -3.83367 -4.22357 0
M  V30 47043 O 4428.96 -5.26548 -2.916 0
M  V30 47044 H 4432.79 -2.99335 -0.513064 0
M  V30 47045 H 4430.37 -1.4822 -0.187378 0
M  V30 47046 H 4432.25 -2.99356 -2.96587 0
M  V30 47047 H 4430.93 -1.83587 -2.66603 0
M  V30 47048 H 4429.84 -3.5675 -1.12608 0
M  V30 47049 H 4431.17 -4.68776 -1.50034 0
M  V30 47050 N 4432.82 0.239714 -1.55766 0
M  V30 47051 C 4434.07 0.964829 -1.77582 0
M  V30 47052 C 4434.39 1.8558 -0.598764 0
M  V30 47053 O 4433.66 1.92076 0.385159 0
M  V30 47054 H 4432.24 0.359242 -0.654946 0
M  V30 47055 H 4434.9 0.255933 -1.93212 0
M  V30 47056 H 4434 1.58233 -2.69014 0
M  V30 47057 N 4434.3 1.49267 0.505678 0
M  V30 47058 C 4435.23 1.68501 1.61647 0
M  V30 47059 C 4436.21 0.533717 1.6151 0
M  V30 47060 O 4437.4 0.769033 1.78324 0
M  V30 47061 C 4434.53 1.74719 3.00151 0
M  V30 47062 C 4433.48 2.89592 3.15152 0
M  V30 47063 C 4432.81 2.80919 4.5496 0
M  V30 47064 C 4434.11 4.30589 2.95619 0
M  V30 47065 H 4435.8 2.61498 1.45805 0
M  V30 47066 H 4433.35 1.25841 0.700006 0
M  V30 47067 H 4435.3 1.86761 3.77754 0
M  V30 47068 H 4434.02 0.783178 3.17071 0
M  V30 47069 H 4432.68 2.77144 2.39972 0
M  V30 47070 H 4432.33 1.82435 4.6875 0
M  V30 47071 H 4432.03 3.58015 4.65939 0
M  V30 47072 H 4433.55 2.94962 5.3463 0
M  V30 47073 H 4434.97 4.43743 3.62995 0
M  V30 47074 H 4433.36 5.08871 3.18073 0
M  V30 47075 H 4434.43 4.45359 1.9179 0
M  V30 47076 N 4435.78 -0.756381 1.38263 0
M  V30 47077 C 4436.73 -1.86065 1.31772 0
M  V30 47078 C 4437.71 -1.5962 0.202539 0
M  V30 47079 O 4438.9 -1.71488 0.438271 0
M  V30 47080 C 4436.03 -3.23738 1.14232 0
M  V30 47081 C 4435.12 -3.56083 2.3036 0
M  V30 47082 N 4435.51 -3.59504 3.55796 0
M  V30 47083 C 4433.81 -3.86333 2.22851 0
M  V30 47084 C 4434.51 -3.89036 4.32465 0
M  V30 47085 N 4433.49 -4.05724 3.61786 0
M  V30 47086 H 4437.29 -1.86984 2.26747 0
M  V30 47087 H 4434.8 -0.953596 1.31455 0
M  V30 47088 H 4436.8 -4.02758 1.07666 0
M  V30 47089 H 4435.46 -3.24072 0.201877 0
M  V30 47090 H 4436.47 -3.41333 3.89503 0
M  V30 47091 H 4433.15 -3.94399 1.36951 0
M  V30 47092 H 4434.54 -3.9833 5.41094 0
M  V30 47093 N 4437.26 -1.23086 -0.984255 0
M  V30 47094 C 4438.2 -1.00862 -2.07595 0
M  V30 47095 C 4439.17 0.0726126 -1.65941 0
M  V30 47096 O 4440.36 -0.0787205 -1.90638 0
M  V30 47097 C 4437.5 -0.601764 -3.39813 0
M  V30 47098 C 4436.61 -1.7547 -3.94759 0
M  V30 47099 C 4435.75 -1.295 -5.15173 0
M  V30 47100 C 4434.79 -2.41893 -5.62276 0
M  V30 47101 N 4433.92 -1.96909 -6.73922 0
M  V30 47102 H 4438.76 -1.94307 -2.25939 0
M  V30 47103 H 4436.3 -0.96804 -1.10758 0
M  V30 47104 H 4438.26 -0.347001 -4.15754 0
M  V30 47105 H 4436.89 0.29569 -3.21443 0
M  V30 47106 H 4435.94 -2.12357 -3.15609 0
M  V30 47107 H 4437.25 -2.5998 -4.2569 0
M  V30 47108 H 4436.41 -0.998134 -5.98433 0
M  V30 47109 H 4435.14 -0.420216 -4.85886 0
M  V30 47110 H 4434.15 -2.72359 -4.77599 0
M  V30 47111 H 4435.37 -3.29902 -5.93584 0
M  V30 47112 H 4433.32 -1.11805 -6.46402 0
M  V30 47113 H 4433.24 -2.7498 -7.04217 0
M  V30 47114 H 4434.51 -1.70315 -7.60666 0
M  V30 47115 N 4438.73 1.18243 -1.04194 0
M  V30 47116 C 4439.66 2.24125 -0.654993 0
M  V30 47117 C 4440.65 1.66618 0.342393 0
M  V30 47118 O 4441.83 1.92925 0.222209 0
M  V30 47119 C 4438.96 3.47295 -0.0184978 0
M  V30 47120 C 4437.91 4.1756 -0.939561 0
M  V30 47121 C 4437.24 5.34438 -0.167474 0
M  V30 47122 C 4438.54 4.70909 -2.25924 0
M  V30 47123 H 4440.23 2.56748 -1.54016 0
M  V30 47124 H 4437.78 1.23412 -0.741993 0
M  V30 47125 H 4439.73 4.20573 0.263935 0
M  V30 47126 H 4438.46 3.1391 0.901554 0
M  V30 47127 H 4437.12 3.46181 -1.2064 0
M  V30 47128 H 4436.76 4.97301 0.755025 0
M  V30 47129 H 4436.46 5.82385 -0.781106 0
M  V30 47130 H 4437.99 6.10505 0.107911 0
M  V30 47131 H 4439.4 5.35875 -2.03742 0
M  V30 47132 H 4437.8 5.29396 -2.82595 0
M  V30 47133 H 4438.87 3.88262 -2.90484 0
M  V30 47134 N 4440.21 0.821581 1.34491 0
M  V30 47135 C 4441.46 0.408208 1.97935 0
M  V30 47136 C 4441.78 -1.03187 1.65461 0
M  V30 47137 O 4441.05 -1.71619 0.944655 0
M  V30 47138 H 4439.63 0.147954 0.732201 0
M  V30 47139 H 4442.29 1.05073 1.64151 0
M  V30 47140 H 4441.39 0.526119 3.07634 0
M  V30 47141 N 4441.69 -1.4668 0.576422 0
M  V30 47142 C 4442.92 -2.06498 0.0649419 0
M  V30 47143 C 4443.33 -1.4267 -1.24266 0
M  V30 47144 O 4442.67 -0.523948 -1.7607 0
M  V30 47145 C 4442.73 -3.59041 -0.18169 0
M  V30 47146 C 4442.4 -4.45024 1.03936 0
M  V30 47147 C 4443.39 -4.81952 1.94983 0
M  V30 47148 C 4441.08 -4.86254 1.25944 0
M  V30 47149 C 4443.07 -5.58931 3.0639 0
M  V30 47150 C 4440.76 -5.62994 2.37658 0
M  V30 47151 C 4441.76 -5.99245 3.27711 0
M  V30 47152 O 4441.45 -6.74435 4.37485 0
M  V30 47153 H 4441.18 -0.674026 0.0516224 0
M  V30 47154 H 4443.73 -1.8939 0.795017 0
M  V30 47155 H 4441.96 -3.74432 -0.966304 0
M  V30 47156 H 4443.65 -4.00808 -0.640906 0
M  V30 47157 H 4444.42 -4.50683 1.79193 0
M  V30 47158 H 4440.3 -4.57492 0.567609 0
M  V30 47159 H 4443.84 -5.87145 3.76705 0
M  V30 47160 H 4439.74 -5.93677 2.53413 0
M  V30 47161 H 4440.51 -6.92852 4.35773 0
M  V30 47162 N 4443.17 -0.313868 -1.54443 0
M  V30 47163 C 4444.42 0.292449 -1.99569 0
M  V30 47164 C 4444.73 1.54006 -1.20588 0
M  V30 47165 O 4445.94 2.22177 -1.56043 0
M  V30 47166 C 4444.39 0.571627 -3.55331 0
M  V30 47167 C 4444 -0.658385 -4.43136 0
M  V30 47168 C 4445.74 1.13843 -4.0895 0
M  V30 47169 C 4443.65 -0.351647 -5.90354 0
M  V30 47170 H 4442.58 0.113053 -0.745476 0
M  V30 47171 H 4445.23 -0.424581 -1.7852 0
M  V30 47172 H 4443.61 1.34859 -3.72329 0
M  V30 47173 H 4444.79 -1.43418 -4.37913 0
M  V30 47174 H 4443.1 -1.14472 -4.00356 0
M  V30 47175 H 4445.7 1.38238 -5.16521 0
M  V30 47176 H 4446.04 2.08477 -3.60338 0
M  V30 47177 H 4446.58 0.422876 -3.95546 0
M  V30 47178 H 4443.32 -1.26689 -6.43141 0
M  V30 47179 H 4442.84 0.386632 -5.98553 0
M  V30 47180 H 4444.51 0.042086 -6.46986 0
M  V30 47181 N 4444.65 1.57544 -0.0418402 0
M  V30 47182 C 4445.58 2.14013 0.933854 0
M  V30 47183 C 4446.56 1.05942 1.3308 0
M  V30 47184 O 4447.74 1.33837 1.40717 0
M  V30 47185 C 4444.87 2.67755 2.21189 0
M  V30 47186 C 4443.83 3.80725 1.95531 0
M  V30 47187 C 4443.15 4.20946 3.29709 0
M  V30 47188 C 4444.45 5.06263 1.28434 0
M  V30 47189 H 4446.15 2.9579 0.463541 0
M  V30 47190 H 4443.69 1.42286 0.221523 0
M  V30 47191 H 4445.65 3.05896 2.89837 0
M  V30 47192 H 4444.37 1.83156 2.7041 0
M  V30 47193 H 4443.03 3.43042 1.29298 0
M  V30 47194 H 4442.68 3.33312 3.76713 0
M  V30 47195 H 4442.38 4.97081 3.13343 0
M  V30 47196 H 4443.9 4.6168 3.99604 0
M  V30 47197 H 4445.31 5.4191 1.87101 0
M  V30 47198 H 4443.71 5.8748 1.22424 0
M  V30 47199 H 4444.78 4.84208 0.259048 0
M  V30 47200 N 4446.12 -0.23145 1.55891 0
M  V30 47201 C 4447.54 -0.580696 1.48661 0
M  V30 47202 C 4447.74 -1.87615 0.735046 0
M  V30 47203 O 4446.8 -2.51045 0.270674 0
M  V30 47204 C 4448.11 -0.669099 2.93161 0
M  V30 47205 C 4449.66 -0.760392 3.03623 0
M  V30 47206 C 4450.13 -0.880225 4.49462 0
M  V30 47207 N 4451.62 -0.944702 4.53464 0
M  V30 47208 C 4452.36 -1.05696 5.63574 0
M  V30 47209 N 4451.85 -1.13379 6.8346 0
M  V30 47210 N 4453.65 -1.09132 5.51404 0
M  V30 47211 H 4445.8 0.618767 2.03187 0
M  V30 47212 H 4448.06 0.215761 0.92312 0
M  V30 47213 H 4447.77 0.213027 3.51054 0
M  V30 47214 H 4447.64 -1.53598 3.44511 0
M  V30 47215 H 4450.03 -1.63296 2.45801 0
M  V30 47216 H 4450.11 0.131954 2.55459 0
M  V30 47217 H 4449.75 -0.0121499 5.07899 0
M  V30 47218 H 4449.68 -1.78784 4.95322 0
M  V30 47219 H 4452.17 -0.896047 3.67123 0
M  V30 47220 H 4452.49 -1.21894 7.63126 0
M  V30 47221 H 4450.83 -1.10309 6.8619 0
M  V30 47222 H 4454.02 -1.02789 4.56675 0
M  V30 47223 H 4454.2 -1.17536 6.37251 0
M  V30 47224 N 4447.6 -1.49533 -0.497755 0
M  V30 47225 C 4448.88 -1.49687 -1.2591 0
M  V30 47226 C 4449.26 -0.226413 -2.09882 0
M  V30 47227 O 4448.61 0.791114 -2.14368 0
M  V30 47228 C 4448.82 -2.77762 -2.11303 0
M  V30 47229 C 4450.17 -3.2738 -2.70384 0
M  V30 47230 O 4451.19 -2.78902 -2.21568 0
M  V30 47231 O 4450.05 -4.1182 -3.59258 0
M  V30 47232 H 4447.14 -0.599248 -0.569939 0
M  V30 47233 H 4449.69 -1.618 -0.511759 0
M  V30 47234 H 4448.46 -3.61718 -1.49251 0
M  V30 47235 H 4448.08 -2.68525 -2.93223 0
M  V30 47236 N 4449.08 0.749038 -1.38662 0
M  V30 47237 C 4450.33 1.50367 -1.34435 0
M  V30 47238 C 4450.64 1.95503 0.061571 0
M  V30 47239 O 4451.85 2.70554 0.226394 0
M  V30 47240 C 4450.3 2.71636 -2.36097 0
M  V30 47241 C 4449.91 2.33506 -3.82333 0
M  V30 47242 C 4451.66 3.4951 -2.40921 0
M  V30 47243 C 4449.56 3.51414 -4.7567 0
M  V30 47244 H 4448.49 0.56461 -0.499731 0
M  V30 47245 H 4451.14 0.818391 -1.6424 0
M  V30 47246 H 4449.53 3.42168 -1.99342 0
M  V30 47247 H 4450.7 1.70612 -4.28052 0
M  V30 47248 H 4449.02 1.68756 -3.80671 0
M  V30 47249 H 4451.61 4.37186 -3.07852 0
M  V30 47250 H 4451.96 3.90987 -1.4295 0
M  V30 47251 H 4452.49 2.85995 -2.76499 0
M  V30 47252 H 4449.23 3.14999 -5.74853 0
M  V30 47253 H 4448.75 4.13337 -4.34641 0
M  V30 47254 H 4450.43 4.17936 -4.93901 0
M  V30 47255 N 4450.56 1.23606 0.977714 0
M  V30 47256 C 4451.78 1.09741 1.75988 0
M  V30 47257 C 4452.21 -0.346793 1.84876 0
M  V30 47258 O 4451.57 -1.25089 1.31234 0
M  V30 47259 C 4451.62 1.73062 3.16357 0
M  V30 47260 O 4450.72 0.994593 4.00227 0
M  V30 47261 H 4450.06 0.384495 0.54135 0
M  V30 47262 H 4452.59 1.63714 1.22715 0
M  V30 47263 H 4452.6 1.78411 3.66925 0
M  V30 47264 H 4451.28 2.78148 3.09203 0
M  V30 47265 H 4449.85 1.01824 3.58729 0
M  V30 47266 N 4452.04 -1.17688 1.0482 0
M  V30 47267 C 4452.98 -2.21579 0.645875 0
M  V30 47268 C 4453.95 -1.62368 -0.350102 0
M  V30 47269 O 4455.14 -1.89254 -0.242366 0
M  V30 47270 C 4452.28 -3.45092 0.0228781 0
M  V30 47271 C 4451.39 -4.1861 1.06723 0
M  V30 47272 C 4450.53 -5.296 0.411954 0
M  V30 47273 C 4449.57 -5.94899 1.44088 0
M  V30 47274 N 4448.7 -6.97412 0.810027 0
M  V30 47275 H 4453.54 -2.55347 1.53629 0
M  V30 47276 H 4451.08 -1.25435 0.768408 0
M  V30 47277 H 4453.04 -4.15681 -0.355733 0
M  V30 47278 H 4451.67 -3.1192 -0.831012 0
M  V30 47279 H 4450.72 -3.46774 1.56372 0
M  V30 47280 H 4452.03 -4.63286 1.84843 0
M  V30 47281 H 4451.19 -6.06697 -0.0204491 0
M  V30 47282 H 4449.93 -4.86046 -0.401267 0
M  V30 47283 H 4448.93 -5.16537 1.88334 0
M  V30 47284 H 4450.16 -6.40534 2.25593 0
M  V30 47285 H 4448.1 -6.55998 0.0172492 0
M  V30 47286 H 4448.02 -7.4038 1.52882 0
M  V30 47287 H 4449.29 -7.78461 0.402273 0
M  V30 47288 N 4453.52 -0.828702 -1.34053 0
M  V30 47289 C 4454.76 -0.415897 -1.97366 0
M  V30 47290 C 4455.08 1.0279 -1.66414 0
M  V30 47291 O 4456.28 1.54489 -2.23261 0
M  V30 47292 C 4454.74 -0.692725 -3.5317 0
M  V30 47293 C 4454.35 -2.15052 -3.9301 0
M  V30 47294 C 4456.09 -0.346371 -4.23085 0
M  V30 47295 C 4454 -2.37193 -5.4175 0
M  V30 47296 H 4452.93 -0.151781 -0.738565 0
M  V30 47297 H 4455.58 -1.01586 -1.52815 0
M  V30 47298 H 4453.96 -0.0225156 -3.95994 0
M  V30 47299 H 4455.14 -2.86037 -3.61275 0
M  V30 47300 H 4453.45 -2.45887 -3.36049 0
M  V30 47301 H 4456.05 -0.489557 -5.32454 0
M  V30 47302 H 4456.39 0.709698 -4.10206 0
M  V30 47303 H 4456.92 -0.971393 -3.85757 0
M  V30 47304 H 4453.66 -3.41327 -5.59621 0
M  V30 47305 H 4453.18 -1.70759 -5.7498 0
M  V30 47306 H 4454.86 -2.19839 -6.08506 0
M  V30 47307 N 4454.99 1.46373 -0.584193 0
M  V30 47308 C 4456.4 1.8603 -0.158024 0
M  V30 47309 C 4456.76 1.48758 1.27928 0
M  V30 47310 O 4455.88 0.903167 1.96652 0
M  V30 47311 C 4456.48 3.37641 -0.280011 0
M  V30 47312 C 4455.03 3.76289 0.0912977 0
M  V30 47313 C 4454.18 2.70388 -0.615273 0
M  V30 47314 H 4457.13 1.37506 -0.792322 0
M  V30 47315 H 4457.15 3.77277 0.494231 0
M  V30 47316 H 4456.67 3.64738 -1.3262 0
M  V30 47317 H 4454.77 3.5481 1.13756 0
M  V30 47318 H 4454.88 4.78245 -0.286054 0
M  V30 47319 H 4453.24 2.5464 -0.0553728 0
M  V30 47320 H 4454.03 3.00324 -1.66314 0
M  V30 47321 N 4456.47 0.322054 1.54274 0
M  V30 47322 C 4457.72 -0.280419 2.00145 0
M  V30 47323 C 4458.04 -1.52773 1.21183 0
M  V30 47324 O 4457.31 -1.93379 0.313255 0
M  V30 47325 H 4455.89 -0.106606 0.739354 0
M  V30 47326 H 4458.55 0.43825 1.89909 0
M  V30 47327 H 4457.65 -0.537863 3.0743 0
M  V30 47328 N 4457.95 -1.5752 0.0501946 0
M  V30 47329 C 4459.2 -1.92272 -0.622574 0
M  V30 47330 C 4459.52 -0.929144 -1.71441 0
M  V30 47331 O 4458.79 0.0261497 -1.95883 0
M  V30 47332 H 4457.37 -0.709747 -0.232956 0
M  V30 47333 H 4460.03 -1.94628 0.102966 0
M  V30 47334 H 4459.13 -2.93483 -1.06181 0
M  V30 47335 N 4459.43 0.223179 -1.56012 0
M  V30 47336 C 4460.39 1.26007 -1.91454 0
M  V30 47337 C 4461.39 1.39887 -0.792986 0
M  V30 47338 O 4462.58 1.3818 -1.06075 0
M  V30 47339 C 4459.71 2.63415 -2.16392 0
M  V30 47340 H 4460.91 0.95786 -2.84192 0
M  V30 47341 H 4458.46 0.463524 -1.49269 0
M  V30 47342 H 4459.19 2.98737 -1.26201 0
M  V30 47343 H 4458.98 2.54717 -2.98096 0
M  V30 47344 H 4460.47 3.38241 -2.44914 0
M  V30 47345 N 4460.91 1.49795 0.489818 0
M  V30 47346 C 4461.84 1.61904 1.60818 0
M  V30 47347 C 4462.82 0.467706 1.55728 0
M  V30 47348 O 4464 0.684744 1.75623 0
M  V30 47349 C 4461.13 1.58433 2.9936 0
M  V30 47350 C 4460.17 2.789 3.22672 0
M  V30 47351 S 4461.01 4.4044 3.04586 0
M  V30 47352 C 4462.16 4.39632 4.45505 0
M  V30 47353 H 4462.4 2.56508 1.50303 0
M  V30 47354 H 4459.93 1.38825 0.6758 0
M  V30 47355 H 4461.89 1.57116 3.79242 0
M  V30 47356 H 4460.55 0.650974 3.0728 0
M  V30 47357 H 4459.74 2.72723 4.23838 0
M  V30 47358 H 4459.34 2.77687 2.50531 0
M  V30 47359 H 4461.63 4.12041 5.378 0
M  V30 47360 H 4462.58 5.41113 4.5673 0
M  V30 47361 H 4462.99 3.69569 4.26707 0
M  V30 47362 N 4462.38 -0.741673 1.39057 0
M  V30 47363 C 4463.61 -1.52871 1.38975 0
M  V30 47364 C 4464.02 -1.8919 -0.0192601 0
M  V30 47365 O 4463.36 -1.54142 -0.999302 0
M  V30 47366 C 4463.43 -2.84921 2.19226 0
M  V30 47367 C 4463.09 -2.71073 3.67924 0
M  V30 47368 C 4464.09 -2.40068 4.61154 0
M  V30 47369 C 4461.77 -2.88153 4.11428 0
M  V30 47370 C 4463.77 -2.26314 5.9587 0
M  V30 47371 C 4461.45 -2.74018 5.46221 0
M  V30 47372 C 4462.45 -2.43143 6.38256 0
M  V30 47373 O 4462.14 -2.29088 7.70567 0
M  V30 47374 H 4461.87 -0.479235 0.47677 0
M  V30 47375 H 4464.43 -0.924687 1.83409 0
M  V30 47376 H 4462.66 -3.47558 1.6953 0
M  V30 47377 H 4464.34 -3.46501 2.11404 0
M  V30 47378 H 4465.11 -2.2653 4.28846 0
M  V30 47379 H 4460.99 -3.11179 3.4013 0
M  V30 47380 H 4464.53 -2.02137 6.67672 0
M  V30 47381 H 4460.43 -2.87133 5.78122 0
M  V30 47382 H 4461.2 -2.44209 7.8122 0
M  V30 47383 N 4463.86 -1.24123 -0.971145 0
M  V30 47384 C 4464.82 -1.03163 -2.04671 0
M  V30 47385 C 4465.82 0.00984669 -1.60797 0
M  V30 47386 O 4467.01 -0.23079 -1.72664 0
M  V30 47387 C 4464.15 -0.562883 -3.36221 0
M  V30 47388 H 4465.34 -1.98622 -2.24698 0
M  V30 47389 H 4462.89 -1.06297 -1.14589 0
M  V30 47390 H 4463.63 0.395063 -3.21885 0
M  V30 47391 H 4463.41 -1.31454 -3.69408 0
M  V30 47392 H 4464.9 -0.437161 -4.15306 0
M  V30 47393 N 4465.34 1.17131 -1.05443 0
M  V30 47394 C 4466.62 1.83408 -0.679763 0
M  V30 47395 C 4467 1.93683 0.839658 0
M  V30 47396 O 4466.35 1.47331 1.74659 0
M  V30 47397 C 4466.56 3.20913 -1.3717 0
M  V30 47398 C 4467.9 3.9679 -1.51137 0
M  V30 47399 O 4468.93 3.30401 -1.33091 0
M  V30 47400 O 4467.79 5.15772 -1.8067 0
M  V30 47401 H 4464.88 0.791532 -0.239597 0
M  V30 47402 H 4467.43 1.24406 -1.15417 0
M  V30 47403 H 4466.2 3.08419 -2.40818 0
M  V30 47404 H 4465.82 3.87584 -0.88681 0
M  V30 47405 N 4466.82 0.835799 1.33612 0
M  V30 47406 C 4468.1 0.352085 1.92405 0
M  V30 47407 C 4468.48 -1.16219 1.76228 0
M  V30 47408 O 4467.82 -1.97522 1.1488 0
M  V30 47409 C 4468.03 0.795604 3.3981 0
M  V30 47410 C 4469.38 0.801849 4.1696 0
M  V30 47411 O 4470.41 0.739012 3.4845 0
M  V30 47412 O 4469.26 0.886797 5.39257 0
M  V30 47413 H 4466.36 0.098993 0.821054 0
M  V30 47414 H 4468.9 0.921447 1.42504 0
M  V30 47415 H 4467.68 1.83807 3.45443 0
M  V30 47416 H 4467.3 0.202645 3.97083 0
M  V30 47417 N 4468.3 -1.46061 0.591947 0
M  V30 47418 C 4469.52 -2.06717 0.0869663 0
M  V30 47419 C 4469.94 -1.4392 -1.22198 0
M  V30 47420 O 4469.3 -0.547759 -1.74086 0
M  V30 47421 C 4469.35 -3.61421 -0.0757454 0
M  V30 47422 O 4469.07 -4.2187 1.1814 0
M  V30 47423 C 4470.57 -4.39027 -0.614005 0
M  V30 47424 H 4467.79 -0.66816 0.0616753 0
M  V30 47425 H 4470.33 -1.87548 0.815241 0
M  V30 47426 H 4468.49 -3.79986 -0.754279 0
M  V30 47427 H 4468.9 -5.14858 1.0011 0
M  V30 47428 H 4470.38 -5.47833 -0.677001 0
M  V30 47429 H 4470.85 -4.07714 -1.63298 0
M  V30 47430 H 4471.46 -4.25289 0.0299637 0
M  V30 47431 N 4469.77 -0.330231 -1.54101 0
M  V30 47432 C 4470.74 0.520066 -2.23222 0
M  V30 47433 C 4471.74 1.03823 -1.2279 0
M  V30 47434 O 4472.93 0.9296 -1.47323 0
M  V30 47435 C 4470.06 1.72306 -2.94148 0
M  V30 47436 H 4471.25 -0.0842659 -2.99782 0
M  V30 47437 H 4468.81 -0.0813981 -1.56088 0
M  V30 47438 H 4469.54 2.36645 -2.21742 0
M  V30 47439 H 4469.33 1.35885 -3.67801 0
M  V30 47440 H 4470.82 2.32648 -3.46792 0
M  V30 47441 N 4471.25 1.57491 -0.0585476 0
M  V30 47442 C 4472.5 1.92599 0.612369 0
M  V30 47443 C 4472.82 0.938222 1.70946 0
M  V30 47444 O 4472.09 -0.0157612 1.95894 0
M  V30 47445 H 4470.67 0.710972 0.229189 0
M  V30 47446 H 4473.33 1.9457 -0.113286 0
M  V30 47447 H 4472.43 2.94042 1.04623 0
M  V30 47448 N 4472.73 -0.214903 1.56128 0
M  V30 47449 C 4473.98 -0.935262 1.80622 0
M  V30 47450 C 4474.33 -1.81704 0.632571 0
M  V30 47451 O 4473.62 -1.87932 -0.373116 0
M  V30 47452 C 4473.82 -1.80303 3.08586 0
M  V30 47453 C 4473.65 -1.00675 4.38286 0
M  V30 47454 C 4472.42 -0.699035 5.00441 0
M  V30 47455 C 4474.62 -0.368877 5.12975 0
M  V30 47456 N 4472.6 0.11795 6.13787 0
M  V30 47457 C 4473.97 0.311198 6.19219 0
M  V30 47458 C 4476.02 -0.282584 4.97097 0
M  V30 47459 C 4474.73 1.06932 7.11307 0
M  V30 47460 C 4476.75 0.462088 5.89592 0
M  V30 47461 C 4476.11 1.13068 6.95266 0
M  V30 47462 H 4472.21 -0.322282 0.712501 0
M  V30 47463 H 4474.8 -0.205581 1.93612 0
M  V30 47464 H 4472.97 -2.50447 2.96868 0
M  V30 47465 H 4474.7 -2.46137 3.21246 0
M  V30 47466 H 4471.46 -1.01867 4.62515 0
M  V30 47467 H 4471.88 0.515472 6.75035 0
M  V30 47468 H 4476.52 -0.785146 4.15446 0
M  V30 47469 H 4474.24 1.58338 7.92436 0
M  V30 47470 H 4477.83 0.52995 5.79381 0
M  V30 47471 H 4476.71 1.69769 7.65603 0
M  V30 47472 N 4474.21 -1.50053 -0.481867 0
M  V30 47473 C 4475.49 -1.51014 -1.24315 0
M  V30 47474 C 4475.87 -0.248661 -2.0963 0
M  V30 47475 O 4475.21 0.768333 -2.15195 0
M  V30 47476 C 4475.42 -2.79988 -2.08345 0
M  V30 47477 C 4476.77 -3.3023 -2.66896 0
M  V30 47478 O 4477.8 -2.81236 -2.18597 0
M  V30 47479 O 4476.65 -4.15608 -3.5487 0
M  V30 47480 H 4473.75 -0.605259 -0.563551 0
M  V30 47481 H 4476.29 -1.62333 -0.49457 0
M  V30 47482 H 4475.07 -3.63281 -1.45406 0
M  V30 47483 H 4474.69 -2.7162 -2.90359 0
M  V30 47484 N 4475.69 0.734288 -1.39449 0
M  V30 47485 C 4476.91 1.52353 -1.39987 0
M  V30 47486 C 4477.33 1.88799 0.00543113 0
M  V30 47487 O 4476.69 1.54149 0.976944 0
M  V30 47488 C 4476.74 2.81064 -2.27343 0
M  V30 47489 O 4476.46 2.46166 -3.62401 0
M  V30 47490 C 4477.96 3.75087 -2.36272 0
M  V30 47491 H 4475.18 0.470789 -0.47812 0
M  V30 47492 H 4477.72 0.907275 -1.83272 0
M  V30 47493 H 4475.88 3.39019 -1.87469 0
M  V30 47494 H 4476.29 3.28852 -4.08603 0
M  V30 47495 H 4477.77 4.62294 -3.01642 0
M  V30 47496 H 4478.24 4.16887 -1.38209 0
M  V30 47497 H 4478.85 3.23051 -2.76619 0
M  V30 47498 N 4477.16 1.24636 0.964549 0
M  V30 47499 C 4478.58 1.01244 1.23377 0
M  V30 47500 C 4478.78 -0.27683 1.99589 0
M  V30 47501 O 4477.84 -0.992159 2.32191 0
M  V30 47502 C 4479.15 2.22944 2.01783 0
M  V30 47503 C 4480.7 2.27602 2.14864 0
M  V30 47504 C 4481.17 3.48932 2.96666 0
M  V30 47505 N 4482.66 3.49268 3.04247 0
M  V30 47506 C 4483.4 4.39808 3.67909 0
M  V30 47507 N 4482.89 5.40607 4.33262 0
M  V30 47508 N 4484.69 4.27512 3.64951 0
M  V30 47509 H 4476.84 2.07482 0.454429 0
M  V30 47510 H 4479.1 0.910656 0.263458 0
M  V30 47511 H 4478.81 3.16593 1.53173 0
M  V30 47512 H 4478.68 2.25316 3.0251 0
M  V30 47513 H 4481.07 1.34483 2.62676 0
M  V30 47514 H 4481.15 2.29254 1.13474 0
M  V30 47515 H 4480.79 4.42367 2.49547 0
M  V30 47516 H 4480.72 3.44524 3.9826 0
M  V30 47517 H 4483.21 2.76346 2.57762 0
M  V30 47518 H 4483.53 6.05921 4.79666 0
M  V30 47519 H 4481.87 5.4449 4.31921 0
M  V30 47520 H 4485.06 3.47998 3.13073 0
M  V30 47521 H 4485.24 4.98272 4.14281 0
M  V30 47522 N 4478.64 -1.1657 1.06062 0
M  V30 47523 C 4479.89 -1.86382 0.771009 0
M  V30 47524 C 4480.2 -1.82451 -0.705065 0
M  V30 47525 O 4481.41 -2.47819 -1.10896 0
M  V30 47526 C 4479.87 -3.34461 1.32904 0
M  V30 47527 C 4479.47 -3.46873 2.83519 0
M  V30 47528 C 4481.22 -4.09544 1.11687 0
M  V30 47529 C 4479.13 -4.89025 3.32579 0
M  V30 47530 H 4478.06 -0.698171 0.284733 0
M  V30 47531 H 4480.71 -1.31579 1.27904 0
M  V30 47532 H 4479.09 -3.88856 0.748799 0
M  V30 47533 H 4480.26 -3.02651 3.47475 0
M  V30 47534 H 4478.58 -2.85221 3.03378 0
M  V30 47535 H 4481.17 -5.14429 1.45832 0
M  V30 47536 H 4481.52 -4.16264 0.0550998 0
M  V30 47537 H 4482.05 -3.61381 1.66278 0
M  V30 47538 H 4478.79 -4.87483 4.38224 0
M  V30 47539 H 4478.31 -5.33881 2.7337 0
M  V30 47540 H 4479.99 -5.57831 3.2777 0
M  V30 47541 N 4480.12 -0.842873 -1.33167 0
M  V30 47542 C 4481.35 -0.454126 -2.01855 0
M  V30 47543 C 4481.76 0.945813 -1.63401 0
M  V30 47544 O 4481.12 1.61531 -0.849358 0
M  V30 47545 C 4481.17 -0.56984 -3.5698 0
M  V30 47546 O 4480.89 -1.91462 -3.94048 0
M  V30 47547 C 4482.39 -0.178568 -4.4294 0
M  V30 47548 H 4479.61 -0.179812 -0.646458 0
M  V30 47549 H 4482.16 -1.13656 -1.70008 0
M  V30 47550 H 4480.31 0.0647225 -3.87346 0
M  V30 47551 H 4480.73 -1.90299 -4.8876 0
M  V30 47552 H 4482.2 -0.31057 -5.51126 0
M  V30 47553 H 4482.68 0.879905 -4.30296 0
M  V30 47554 H 4483.28 -0.787726 -4.17941 0
M  V30 47555 N 4481.6 1.45745 -0.599685 0
M  V30 47556 C 4482.51 2.34262 0.125806 0
M  V30 47557 C 4483.53 1.50771 0.868572 0
M  V30 47558 O 4484.7 1.83595 0.827939 0
M  V30 47559 C 4481.77 3.28256 1.11575 0
M  V30 47560 C 4480.83 4.27652 0.375806 0
M  V30 47561 C 4480.06 5.17155 1.31859 0
M  V30 47562 O 4480.28 5.09925 2.55603 0
M  V30 47563 O 4479.22 5.96289 0.819947 0
M  V30 47564 H 4483.04 2.97685 -0.60142 0
M  V30 47565 H 4480.63 1.44998 -0.359985 0
M  V30 47566 H 4482.51 3.86197 1.68612 0
M  V30 47567 H 4481.19 2.67407 1.82414 0
M  V30 47568 H 4480.09 3.7335 -0.236829 0
M  V30 47569 H 4481.43 4.91333 -0.291943 0
M  V30 47570 N 4483.08 0.338398 1.53924 0
M  V30 47571 C 4484.35 -0.314706 1.93052 0
M  V30 47572 C 4484.73 -1.68664 1.26947 0
M  V30 47573 O 4484.08 -2.24634 0.418524 0
M  V30 47574 C 4484.29 -0.392127 3.4679 0
M  V30 47575 C 4485.64 -0.645407 4.19666 0
M  V30 47576 O 4486.66 -0.474451 3.53026 0
M  V30 47577 O 4485.52 -0.976219 5.3771 0
M  V30 47578 H 4482.62 -0.18257 0.806596 0
M  V30 47579 H 4485.16 0.389199 1.65177 0
M  V30 47580 H 4483.94 0.570838 3.87114 0
M  V30 47581 H 4483.56 -1.14302 3.80816 0
M  V30 47582 N 4484.56 -1.57458 0.0668989 0
M  V30 47583 C 4485.83 -1.84692 -0.644068 0
M  V30 47584 C 4486.21 -0.958409 -1.8809 0
M  V30 47585 O 4485.56 -0.0234383 -2.28488 0
M  V30 47586 C 4485.77 -3.34771 -0.986392 0
M  V30 47587 C 4487.12 -4.02163 -1.36197 0
M  V30 47588 O 4488.14 -3.39488 -1.07827 0
M  V30 47589 O 4487 -5.12701 -1.89209 0
M  V30 47590 H 4484.1 -0.762828 -0.319411 0
M  V30 47591 H 4486.64 -1.6942 0.0974582 0
M  V30 47592 H 4485.41 -3.91152 -0.107745 0
M  V30 47593 H 4485.04 -3.55287 -1.78484 0
M  V30 47594 N 4486.03 0.20662 -1.5624 0
M  V30 47595 C 4486.96 1.25902 -1.96649 0
M  V30 47596 C 4487.94 1.48094 -0.836786 0
M  V30 47597 O 4489.13 1.60026 -1.10024 0
M  V30 47598 C 4486.26 2.60572 -2.29608 0
M  V30 47599 C 4485.21 2.53012 -3.45209 0
M  V30 47600 C 4484.54 3.91848 -3.63812 0
M  V30 47601 C 4485.84 2.06507 -4.79742 0
M  V30 47602 H 4487.53 0.923269 -2.84809 0
M  V30 47603 H 4485.08 0.442687 -1.37027 0
M  V30 47604 H 4487.03 3.34366 -2.5647 0
M  V30 47605 H 4485.76 2.95864 -1.38318 0
M  V30 47606 H 4484.42 1.81673 -3.18419 0
M  V30 47607 H 4484.06 4.24474 -2.69872 0
M  V30 47608 H 4483.76 3.87667 -4.41574 0
M  V30 47609 H 4485.29 4.67282 -3.93039 0
M  V30 47610 H 4486.7 2.70054 -5.05711 0
M  V30 47611 H 4485.1 2.13354 -5.60892 0
M  V30 47612 H 4486.17 1.01785 -4.74097 0
M  V30 47613 N 4487.51 1.50306 0.473902 0
M  V30 47614 C 4488.46 1.65353 1.56979 0
M  V30 47615 C 4489.45 0.50823 1.52662 0
M  V30 47616 O 4490.64 0.762502 1.59734 0
M  V30 47617 C 4487.77 1.74842 2.9544 0
M  V30 47618 C 4486.85 2.95039 3.04652 0
M  V30 47619 N 4487.24 4.18757 2.83684 0
M  V30 47620 C 4485.54 2.93539 3.35784 0
M  V30 47621 C 4486.24 4.99697 2.97788 0
M  V30 47622 N 4485.22 4.33596 3.27864 0
M  V30 47623 H 4489.02 2.58703 1.39463 0
M  V30 47624 H 4486.53 1.47451 0.680577 0
M  V30 47625 H 4488.53 1.83725 3.74234 0
M  V30 47626 H 4487.19 0.826486 3.14005 0
M  V30 47627 H 4488.2 4.483 2.59321 0
M  V30 47628 H 4484.88 2.10833 3.60355 0
M  V30 47629 H 4486.27 6.08067 2.8584 0
M  V30 47630 N 4488.99 -0.726883 1.39836 0
M  V30 47631 C 4489.94 -1.8623 1.3936 0
M  V30 47632 C 4490.93 -1.67143 0.275614 0
M  V30 47633 O 4492.14 -1.74385 0.446071 0
M  V30 47634 H 4488.51 -0.613159 0.435362 0
M  V30 47635 H 4490.48 -1.83747 2.35116 0
M  V30 47636 C 4489.23 -3.23991 1.26196 0
M  V30 47637 H 4488.56 -3.39278 2.11496 0
M  V30 47638 H 4490 -4.03604 1.29921 0
M  V30 47639 C 4488.45 -3.36888 -0.0288834 0
M  V30 47640 O 4488.98 -3.89155 -0.996053 0
M  V30 47641 N 4487.19 -2.90446 -0.0946415 0
M  V30 47642 H 4486.74 -2.481 0.693123 0
M  V30 47643 H 4486.7 -2.99455 -0.957827 0
M  V30 47644 N 4490.47 -1.25146 -0.957926 0
M  V30 47645 C 4491.38 -1.06975 -2.08791 0
M  V30 47646 C 4492.39 -0.00780028 -1.73998 0
M  V30 47647 O 4493.57 -0.208043 -2.00323 0
M  V30 47648 C 4490.63 -0.68703 -3.39825 0
M  V30 47649 C 4489.7 -1.82655 -3.88504 0
M  V30 47650 C 4488.93 -1.462 -5.13285 0
M  V30 47651 O 4489.15 -0.356171 -5.69287 0
M  V30 47652 O 4488.09 -2.29104 -5.56592 0
M  V30 47653 H 4491.91 -2.01731 -2.2702 0
M  V30 47654 H 4489.5 -1.04054 -1.07206 0
M  V30 47655 H 4491.38 -0.485564 -4.18593 0
M  V30 47656 H 4490.05 0.231303 -3.22873 0
M  V30 47657 H 4488.96 -2.08285 -3.10754 0
M  V30 47658 H 4490.29 -2.72401 -4.0995 0
M  V30 47659 N 4491.95 1.16006 -1.06679 0
M  V30 47660 C 4492.86 2.24154 -0.692258 0
M  V30 47661 C 4493.87 1.71508 0.293452 0
M  V30 47662 O 4495.05 2.009 0.141791 0
M  V30 47663 C 4492.11 3.46587 -0.088535 0
M  V30 47664 C 4491.17 4.14254 -1.12661 0
M  V30 47665 C 4490.41 5.30842 -0.551602 0
M  V30 47666 O 4490.63 5.6686 0.634456 0
M  V30 47667 O 4489.56 5.87844 -1.29319 0
M  V30 47668 H 4493.39 2.58508 -1.59397 0
M  V30 47669 H 4490.97 1.23596 -0.839304 0
M  V30 47670 H 4492.86 4.2068 0.246213 0
M  V30 47671 H 4491.53 3.13997 0.786602 0
M  V30 47672 H 4490.44 3.42112 -1.5136 0
M  V30 47673 H 4491.77 4.50907 -1.97341 0
M  V30 47674 N 4493.42 0.849923 1.32718 0
M  V30 47675 C 4494.37 0.289113 2.28982 0
M  V30 47676 C 4495.34 -0.601269 1.54835 0
M  V30 47677 O 4496.53 -0.537189 1.83082 0
M  V30 47678 C 4493.67 -0.520503 3.41152 0
M  V30 47679 C 4492.78 0.39514 4.30189 0
M  V30 47680 C 4491.91 -0.426648 5.29484 0
M  V30 47681 C 4490.95 0.48669 6.10162 0
M  V30 47682 N 4490.09 -0.297632 7.01469 0
M  V30 47683 H 4494.93 1.11529 2.76343 0
M  V30 47684 H 4492.47 0.561427 1.35965 0
M  V30 47685 H 4494.42 -1.00549 4.04902 0
M  V30 47686 H 4493.05 -1.31155 2.94955 0
M  V30 47687 H 4492.11 0.998489 3.67062 0
M  V30 47688 H 4493.42 1.09629 4.86603 0
M  V30 47689 H 4492.57 -0.974994 5.98814 0
M  V30 47690 H 4491.31 -1.16119 4.73675 0
M  V30 47691 H 4490.32 1.04696 5.3974 0
M  V30 47692 H 4491.54 1.21977 6.68056 0
M  V30 47693 H 4489.49 -1.01535 6.48095 0
M  V30 47694 H 4489.4 0.344583 7.55214 0
M  V30 47695 H 4490.67 -0.827858 7.75091 0
M  V30 47696 N 4494.9 -1.45425 0.607406 0
M  V30 47697 C 4496.15 -2.01451 0.100107 0
M  V30 47698 C 4496.46 -1.48164 -1.27699 0
M  V30 47699 O 4497.67 -1.96166 -1.877 0
M  V30 47700 C 4496.13 -3.59671 0.128284 0
M  V30 47701 C 4495.73 -4.21956 1.50522 0
M  V30 47702 C 4497.48 -4.23263 -0.323783 0
M  V30 47703 C 4495.39 -5.72328 1.48979 0
M  V30 47704 H 4494.32 -0.753248 0.0336564 0
M  V30 47705 H 4496.97 -1.66898 0.762709 0
M  V30 47706 H 4495.35 -3.91413 -0.600967 0
M  V30 47707 H 4496.52 -4.01789 2.25616 0
M  V30 47708 H 4494.84 -3.70558 1.89936 0
M  V30 47709 H 4497.43 -5.33524 -0.354503 0
M  V30 47710 H 4497.78 -3.93925 -1.34642 0
M  V30 47711 H 4498.31 -3.96238 0.352196 0
M  V30 47712 H 4495.05 -6.06365 2.49002 0
M  V30 47713 H 4494.57 -5.94688 0.781423 0
M  V30 47714 H 4496.25 -6.35521 1.21335 0
M  V30 47715 N 4496.38 -0.346557 -1.53742 0
M  V30 47716 C 4497.61 0.250338 -2.0538 0
M  V30 47717 C 4498.02 1.43975 -1.22134 0
M  V30 47718 O 4497.38 1.80676 -0.257385 0
M  V30 47719 C 4497.43 0.66245 -3.55378 0
M  V30 47720 O 4497.15 -0.479668 -4.35466 0
M  V30 47721 C 4498.65 1.31974 -4.23199 0
M  V30 47722 H 4495.87 0.0477963 -0.669296 0
M  V30 47723 H 4498.42 -0.499416 -1.98308 0
M  V30 47724 H 4496.57 1.36214 -3.62663 0
M  V30 47725 H 4496.99 -0.150554 -5.24284 0
M  V30 47726 H 4498.46 1.55883 -5.29532 0
M  V30 47727 H 4498.94 2.27423 -3.75733 0
M  V30 47728 H 4499.54 0.662006 -4.20116 0
M  V30 47729 N 4497.86 1.5742 -0.0752483 0
M  V30 47730 C 4498.79 2.09907 0.920409 0
M  V30 47731 C 4499.8 1.03196 1.25914 0
M  V30 47732 O 4500.99 1.30699 1.21573 0
M  V30 47733 C 4498.09 2.54734 2.23525 0
M  V30 47734 C 4497.27 3.85057 2.07485 0
M  V30 47735 C 4496.32 4.1594 3.22304 0
M  V30 47736 O 4495.35 4.85484 2.97142 0
M  V30 47737 N 4496.55 3.69761 4.47501 0
M  V30 47738 H 4499.32 2.95956 0.472255 0
M  V30 47739 H 4496.88 1.61523 0.110387 0
M  V30 47740 H 4498.87 2.72454 2.99251 0
M  V30 47741 H 4497.44 1.73804 2.59828 0
M  V30 47742 H 4496.66 3.76683 1.16206 0
M  V30 47743 H 4497.95 4.70354 1.94021 0
M  V30 47744 H 4497.35 3.13586 4.70829 0
M  V30 47745 H 4495.9 3.92674 5.20241 0
M  V30 47746 N 4499.34 -0.198331 1.56347 0
M  V30 47747 C 4500.27 -1.2698 1.90811 0
M  V30 47748 C 4501.28 -1.41874 0.798468 0
M  V30 47749 O 4502.47 -1.42358 1.07687 0
M  V30 47750 C 4499.57 -2.64239 2.12205 0
M  V30 47751 C 4498.74 -2.70995 3.43338 0
M  V30 47752 C 4497.8 -3.89426 3.53883 0
M  V30 47753 O 4496.83 -3.7668 4.26732 0
M  V30 47754 N 4498.03 -5.04742 2.86733 0
M  V30 47755 H 4500.8 -0.977333 2.83317 0
M  V30 47756 H 4498.36 -0.388266 1.57175 0
M  V30 47757 H 4500.35 -3.41888 2.16552 0
M  V30 47758 H 4498.92 -2.85988 1.26214 0
M  V30 47759 H 4498.14 -1.79644 3.50887 0
M  V30 47760 H 4499.43 -2.72497 4.29678 0
M  V30 47761 H 4498.82 -5.17996 2.27368 0
M  V30 47762 H 4497.38 -5.8035 2.96711 0
M  V30 47763 N 4500.81 -1.50555 -0.465925 0
M  V30 47764 C 4501.75 -1.64442 -1.58222 0
M  V30 47765 C 4502.73 -0.492422 -1.54964 0
M  V30 47766 O 4503.91 -0.712597 -1.74512 0
M  V30 47767 C 4501.04 -1.63176 -2.96802 0
M  V30 47768 C 4500.08 -2.83998 -3.18194 0
M  V30 47769 S 4500.92 -4.4523 -2.97541 0
M  V30 47770 C 4502.07 -4.46664 -4.38454 0
M  V30 47771 H 4502.3 -2.58866 -1.46204 0
M  V30 47772 H 4499.84 -1.39882 -0.653629 0
M  V30 47773 H 4501.8 -1.6313 -3.76695 0
M  V30 47774 H 4500.46 -0.699778 -3.06206 0
M  V30 47775 H 4499.65 -2.79431 -4.19445 0
M  V30 47776 H 4499.25 -2.81638 -2.46082 0
M  V30 47777 H 4501.54 -4.20545 -5.31176 0
M  V30 47778 H 4502.49 -5.48311 -4.48063 0
M  V30 47779 H 4502.89 -3.76311 -4.20774 0
M  V30 47780 N 4502.29 0.719457 -1.4022 0
M  V30 47781 C 4503.57 1.47217 -1.28789 0
M  V30 47782 C 4503.95 2.10884 0.0955326 0
M  V30 47783 O 4503.3 1.99837 1.10804 0
M  V30 47784 C 4503.51 2.51102 -2.42382 0
M  V30 47785 C 4504.86 3.17043 -2.82434 0
M  V30 47786 O 4505.88 2.6142 -2.41946 0
M  V30 47787 O 4504.74 4.17729 -3.5237 0
M  V30 47788 H 4501.83 0.654473 -0.505563 0
M  V30 47789 H 4504.38 0.75196 -1.5213 0
M  V30 47790 H 4503.15 2.02545 -3.34801 0
M  V30 47791 H 4502.77 3.30663 -2.20789 0
M  V30 47792 N 4503.77 1.25652 0.951275 0
M  V30 47793 C 4505.18 1.09659 1.51102 0
M  V30 47794 C 4505.53 -0.326547 1.93463 0
M  V30 47795 O 4504.66 -1.21691 1.78942 0
M  V30 47796 C 4505.25 1.98447 2.74598 0
M  V30 47797 C 4503.81 1.86629 3.26874 0
M  V30 47798 C 4502.96 1.92398 1.99696 0
M  V30 47799 H 4505.91 1.38889 0.767816 0
M  V30 47800 H 4505.93 1.52643 3.48541 0
M  V30 47801 H 4505.44 3.02017 2.43736 0
M  V30 47802 H 4503.54 0.859549 3.6255 0
M  V30 47803 H 4503.66 2.71621 3.94663 0
M  V30 47804 H 4502.02 1.36324 2.15146 0
M  V30 47805 H 4502.8 2.97579 1.71177 0
M  V30 47806 N 4505.25 -1.15438 1.07293 0
M  V30 47807 C 4506.16 -2.23784 0.704135 0
M  V30 47808 C 4507.17 -1.71661 -0.284353 0
M  V30 47809 O 4508.35 -2.00973 -0.131134 0
M  V30 47810 C 4505.42 -3.46535 0.106914 0
M  V30 47811 C 4504.48 -4.1365 1.14856 0
M  V30 47812 C 4503.71 -5.30542 0.579746 0
M  V30 47813 O 4503.93 -5.67189 -0.604386 0
M  V30 47814 O 4502.87 -5.8715 1.32434 0
M  V30 47815 H 4506.69 -2.57659 1.60766 0
M  V30 47816 H 4504.28 -1.2315 0.845846 0
M  V30 47817 H 4506.16 -4.20805 -0.2239 0
M  V30 47818 H 4504.83 -3.1441 -0.769939 0
M  V30 47819 H 4503.74 -3.41305 1.53172 0
M  V30 47820 H 4505.07 -4.49854 1.9973 0
M  V30 47821 N 4506.73 -0.85695 -1.32265 0
M  V30 47822 C 4507.68 -0.274978 -2.26336 0
M  V30 47823 C 4508.66 0.580491 -1.50064 0
M  V30 47824 O 4509.85 0.429498 -1.7171 0
M  V30 47825 C 4506.98 0.533721 -3.39126 0
M  V30 47826 C 4506.07 -0.334263 -4.22781 0
M  V30 47827 N 4506.46 -1.4216 -4.85411 0
M  V30 47828 C 4504.76 -0.124413 -4.45826 0
M  V30 47829 C 4505.46 -1.95578 -5.47836 0
M  V30 47830 N 4504.43 -1.25462 -5.28924 0
M  V30 47831 H 4508.24 -1.10622 -2.72287 0
M  V30 47832 H 4505.75 -0.70331 -1.46381 0
M  V30 47833 H 4507.75 0.967078 -4.05528 0
M  V30 47834 H 4506.41 1.36273 -2.9472 0
M  V30 47835 H 4507.42 -1.80453 -4.85445 0
M  V30 47836 H 4504.09 0.669692 -4.12094 0
M  V30 47837 H 4505.48 -2.86735 -6.07645 0
M  V30 47838 N 4508.2 1.45101 -0.61511 0
M  V30 47839 C 4509.62 1.57136 -0.279378 0
M  V30 47840 C 4509.82 1.60527 1.21792 0
M  V30 47841 O 4508.88 1.53963 2.00129 0
M  V30 47842 C 4510.19 2.85059 -0.957184 0
M  V30 47843 C 4511.74 2.98746 -0.933811 0
M  V30 47844 C 4512.21 4.29449 -1.59177 0
M  V30 47845 N 4513.7 4.36226 -1.55761 0
M  V30 47846 C 4514.44 5.36044 -2.03579 0
M  V30 47847 N 4513.93 6.42357 -2.59516 0
M  V30 47848 N 4515.73 5.2745 -1.94302 0
M  V30 47849 H 4507.88 1.41142 -1.58722 0
M  V30 47850 H 4510.14 0.675308 -0.665329 0
M  V30 47851 H 4509.85 2.88481 -2.01176 0
M  V30 47852 H 4509.72 3.74068 -0.485072 0
M  V30 47853 H 4512.11 2.94886 0.112243 0
M  V30 47854 H 4512.19 2.11127 -1.44426 0
M  V30 47855 H 4511.83 4.34067 -2.63719 0
M  V30 47856 H 4511.76 5.15898 -1.05628 0
M  V30 47857 H 4514.25 3.60007 -1.14906 0
M  V30 47858 H 4514.57 7.14783 -2.93778 0
M  V30 47859 H 4512.91 6.43088 -2.63559 0
M  V30 47860 H 4516.1 4.43302 -1.50335 0
M  V30 47861 H 4516.28 6.05091 -2.31881 0
M  V30 47862 N 4509.68 0.354705 1.53557 0
M  V30 47863 C 4510.62 -0.531421 2.22954 0
M  V30 47864 C 4511.63 -1.05498 1.23992 0
M  V30 47865 O 4512.82 -0.963226 1.5028 0
M  V30 47866 C 4509.92 -1.74528 2.90505 0
M  V30 47867 C 4509.09 -1.35509 4.1588 0
M  V30 47868 C 4508.15 -2.42983 4.6674 0
M  V30 47869 O 4507.18 -2.05825 5.30683 0
M  V30 47870 N 4508.38 -3.74407 4.43621 0
M  V30 47871 H 4511.14 0.0629669 2.99634 0
M  V30 47872 H 4508.7 0.179359 1.60903 0
M  V30 47873 H 4510.7 -2.45881 3.21442 0
M  V30 47874 H 4509.27 -2.24678 2.17344 0
M  V30 47875 H 4508.49 -0.47186 3.91366 0
M  V30 47876 H 4509.77 -1.07054 4.9741 0
M  V30 47877 H 4509.17 -4.07377 3.92505 0
M  V30 47878 H 4507.73 -4.41897 4.79135 0
M  V30 47879 N 4511.16 -1.57378 0.0835957 0
M  V30 47880 C 4512.09 -2.16413 -0.876784 0
M  V30 47881 C 4513.07 -1.09434 -1.30224 0
M  V30 47882 O 4514.26 -1.37521 -1.37119 0
M  V30 47883 C 4511.39 -2.73525 -2.14013 0
M  V30 47884 C 4510.34 -3.85775 -1.85368 0
M  V30 47885 C 4509.67 -4.2954 -3.18433 0
M  V30 47886 C 4510.97 -5.0949 -1.14966 0
M  V30 47887 H 4512.66 -2.96915 -0.384954 0
M  V30 47888 H 4510.21 -1.42823 -0.18372 0
M  V30 47889 H 4512.16 -3.13473 -2.81625 0
M  V30 47890 H 4510.88 -1.90261 -2.65458 0
M  V30 47891 H 4509.54 -3.46349 -1.20157 0
M  V30 47892 H 4509.19 -3.43182 -3.67743 0
M  V30 47893 H 4508.89 -5.05214 -3.00054 0
M  V30 47894 H 4510.42 -4.72113 -3.87223 0
M  V30 47895 H 4511.83 -5.4668 -1.72668 0
M  V30 47896 H 4510.23 -5.90519 -1.06805 0
M  V30 47897 H 4511.3 -4.84724 -0.130578 0
M  V30 47898 N 4512.64 0.190037 -1.5645 0
M  V30 47899 C 4513.6 1.21918 -1.94084 0
M  V30 47900 C 4514.6 1.38173 -0.82248 0
M  V30 47901 O 4515.79 1.35899 -1.08982 0
M  V30 47902 C 4512.92 2.58765 -2.21931 0
M  V30 47903 H 4514.12 0.897363 -2.8616 0
M  V30 47904 H 4511.67 0.431757 -1.50218 0
M  V30 47905 H 4512.41 2.95993 -1.32509 0
M  V30 47906 H 4512.19 2.48337 -3.03432 0
M  V30 47907 H 4513.68 3.32969 -2.52034 0
M  V30 47908 N 4514.12 1.508 0.457934 0
M  V30 47909 C 4515.07 1.71167 1.57494 0
M  V30 47910 C 4516.06 0.577648 1.59247 0
M  V30 47911 O 4517.27 0.758501 1.63238 0
M  V30 47912 H 4513.64 0.540486 0.522856 0
M  V30 47913 H 4515.61 2.64842 1.37482 0
M  V30 47914 C 4514.36 1.83507 2.95331 0
M  V30 47915 H 4513.68 2.70163 2.94706 0
M  V30 47916 H 4515.12 2.01778 3.7291 0
M  V30 47917 C 4513.58 0.589811 3.31697 0
M  V30 47918 O 4514.11 -0.265022 4.00825 0
M  V30 47919 N 4512.32 0.439946 2.8725 0
M  V30 47920 H 4511.87 1.13663 2.31168 0
M  V30 47921 H 4511.82 -0.39205 3.11946 0
M  V30 47922 N 4515.6 -0.71201 1.40599 0
M  V30 47923 C 4516.56 -1.8078 1.40894 0
M  V30 47924 C 4517.56 -1.57936 0.302158 0
M  V30 47925 O 4518.75 -1.64911 0.56124 0
M  V30 47926 C 4515.88 -3.18923 1.2042 0
M  V30 47927 H 4517.07 -1.81916 2.38425 0
M  V30 47928 H 4514.63 -0.918006 1.265 0
M  V30 47929 H 4515.36 -3.23436 0.236636 0
M  V30 47930 H 4515.15 -3.36904 2.00594 0
M  V30 47931 H 4516.64 -3.98944 1.23422 0
M  V30 47932 N 4517.07 -1.26155 -0.944598 0
M  V30 47933 C 4518.32 -1.10889 -1.68483 0
M  V30 47934 C 4518.64 0.348085 -1.92478 0
M  V30 47935 O 4519.84 0.621366 -2.64294 0
M  V30 47936 C 4518.3 -1.93634 -3.03371 0
M  V30 47937 C 4517.91 -3.43885 -2.87136 0
M  V30 47938 C 4519.65 -1.86967 -3.81108 0
M  V30 47939 C 4517.56 -4.1889 -4.17475 0
M  V30 47940 H 4516.49 -0.411373 -0.631893 0
M  V30 47941 H 4519.14 -1.50436 -1.05077 0
M  V30 47942 H 4517.52 -1.46917 -3.67738 0
M  V30 47943 H 4518.69 -3.98346 -2.31639 0
M  V30 47944 H 4517.01 -3.51752 -2.22844 0
M  V30 47945 H 4519.61 -2.40292 -4.77665 0
M  V30 47946 H 4519.95 -0.839662 -4.07744 0
M  V30 47947 H 4520.48 -2.31488 -3.23509 0
M  V30 47948 H 4517.22 -5.22345 -3.96025 0
M  V30 47949 H 4516.74 -3.6921 -4.72699 0
M  V30 47950 H 4518.42 -4.27152 -4.85953 0
M  V30 47951 N 4518.55 1.14868 -1.07903 0
M  V30 47952 C 4519.8 1.85786 -0.805597 0
M  V30 47953 C 4520.13 1.82651 0.668497 0
M  V30 47954 O 4519.38 1.24863 1.50691 0
M  V30 47955 C 4519.68 3.34219 -1.2662 0
M  V30 47956 C 4519.35 3.57545 -2.74722 0
M  V30 47957 C 4518.01 3.6362 -3.15173 0
M  V30 47958 C 4520.36 3.6679 -3.7029 0
M  V30 47959 C 4517.69 3.76457 -4.49996 0
M  V30 47960 C 4520.04 3.81152 -5.04882 0
M  V30 47961 C 4518.7 3.85474 -5.44946 0
M  V30 47962 H 4517.97 0.679839 -0.294789 0
M  V30 47963 H 4520.62 1.35716 -1.35106 0
M  V30 47964 H 4518.93 3.86534 -0.640239 0
M  V30 47965 H 4520.62 3.87507 -1.03146 0
M  V30 47966 H 4517.21 3.53461 -2.42411 0
M  V30 47967 H 4521.4 3.61392 -3.40161 0
M  V30 47968 H 4516.65 3.78064 -4.80498 0
M  V30 47969 H 4520.83 3.87248 -5.78802 0
M  V30 47970 H 4518.45 3.95174 -6.49416 0
M  V30 47971 N 4520.03 0.863952 1.31809 0
M  V30 47972 C 4520.98 0.313383 2.28663 0
M  V30 47973 C 4521.95 -0.584813 1.55464 0
M  V30 47974 O 4523.13 -0.51774 1.83641 0
M  V30 47975 C 4520.27 -0.48429 3.41685 0
M  V30 47976 C 4519.38 0.440745 4.29746 0
M  V30 47977 C 4518.52 -0.370465 5.29907 0
M  V30 47978 C 4517.56 0.551379 6.09612 0
M  V30 47979 N 4516.7 -0.223215 7.01745 0
M  V30 47980 H 4521.54 1.14453 2.75144 0
M  V30 47981 H 4519.07 0.575817 1.35362 0
M  V30 47982 H 4521.03 -0.962484 4.05946 0
M  V30 47983 H 4519.66 -1.28019 2.96329 0
M  V30 47984 H 4518.71 1.03736 3.65982 0
M  V30 47985 H 4520.02 1.14784 4.85413 0
M  V30 47986 H 4519.18 -0.911427 5.99815 0
M  V30 47987 H 4517.92 -1.11089 4.7488 0
M  V30 47988 H 4516.92 1.10415 5.38599 0
M  V30 47989 H 4518.15 1.29056 6.66724 0
M  V30 47990 H 4516.09 -0.946558 6.49135 0
M  V30 47991 H 4516.01 0.424664 7.54806 0
M  V30 47992 H 4517.28 -0.745603 7.75926 0
M  V30 47993 N 4521.51 -1.44772 0.622796 0
M  V30 47994 C 4522.44 -2.33382 -0.0741041 0
M  V30 47995 C 4523.42 -1.47722 -0.843335 0
M  V30 47996 O 4524.6 -1.76461 -0.810872 0
M  V30 47997 C 4521.73 -3.30667 -1.06192 0
M  V30 47998 C 4520.69 -4.26081 -0.404887 0
M  V30 47999 C 4520.01 -5.1317 -1.50202 0
M  V30 48000 C 4521.31 -5.17807 0.683596 0
M  V30 48001 H 4523.01 -2.91903 0.665816 0
M  V30 48002 H 4520.55 -1.40362 0.321636 0
M  V30 48003 H 4522.51 -3.91536 -1.55813 0
M  V30 48004 H 4521.23 -2.70337 -1.83263 0
M  V30 48005 H 4519.89 -3.66532 0.0705971 0
M  V30 48006 H 4519.54 -4.49199 -2.26339 0
M  V30 48007 H 4519.24 -5.77816 -1.06782 0
M  V30 48008 H 4520.76 -5.76909 -2.00021 0
M  V30 48009 H 4522.18 -5.7266 0.270832 0
M  V30 48010 H 4520.57 -5.91012 1.04044 0
M  V30 48011 H 4521.64 -4.59321 1.55411 0
M  V30 48012 N 4522.99 -0.362844 -1.53366 0
M  V30 48013 C 4524.21 0.22854 -2.05634 0
M  V30 48014 C 4524.63 1.42672 -1.23654 0
M  V30 48015 O 4523.99 1.80393 -0.276533 0
M  V30 48016 C 4524.04 0.62472 -3.56061 0
M  V30 48017 O 4523.76 -0.525828 -4.34933 0
M  V30 48018 C 4525.26 1.27478 -4.24575 0
M  V30 48019 H 4522.48 0.0406948 -0.669765 0
M  V30 48020 H 4525.02 -0.520421 -1.97767 0
M  V30 48021 H 4523.18 1.3236 -3.64087 0
M  V30 48022 H 4523.59 -0.206153 -5.24095 0
M  V30 48023 H 4525.07 1.50258 -5.31156 0
M  V30 48024 H 4525.54 2.23425 -3.78124 0
M  V30 48025 H 4526.15 0.61741 -4.20795 0
M  V30 48026 N 4524.46 1.57332 -0.0919406 0
M  V30 48027 C 4525.69 1.98288 0.580135 0
M  V30 48028 C 4526.1 0.96977 1.62456 0
M  V30 48029 O 4525.45 -0.0492855 1.83634 0
M  V30 48030 C 4525.51 3.35608 1.2887 0
M  V30 48031 C 4525.17 4.55286 0.395399 0
M  V30 48032 C 4526.17 5.18685 -0.355184 0
M  V30 48033 C 4523.85 5.01315 0.314379 0
M  V30 48034 C 4525.85 6.2648 -1.1748 0
M  V30 48035 C 4523.53 6.08977 -0.508891 0
M  V30 48036 C 4524.53 6.71424 -1.25213 0
M  V30 48037 O 4524.22 7.77011 -2.06178 0
M  V30 48038 H 4523.95 0.656684 0.160443 0
M  V30 48039 H 4526.51 2.0472 -0.166952 0
M  V30 48040 H 4524.74 3.25849 2.08229 0
M  V30 48041 H 4526.43 3.61033 1.855 0
M  V30 48042 H 4527.19 4.84057 -0.302304 0
M  V30 48043 H 4523.07 4.52474 0.882538 0
M  V30 48044 H 4526.61 6.75152 -1.75542 0
M  V30 48045 H 4522.51 6.43038 -0.563263 0
M  V30 48046 H 4523.28 7.93984 -1.98827 0
M  V30 48047 N 4525.94 -0.181737 1.56549 0
M  V30 48048 C 4526.87 -1.24949 1.92147 0
M  V30 48049 C 4527.89 -1.41019 0.813471 0
M  V30 48050 O 4529.08 -1.41208 1.09191 0
M  V30 48051 C 4526.18 -2.61973 2.14996 0
M  V30 48052 C 4525.35 -2.67338 3.46193 0
M  V30 48053 C 4524.41 -3.85651 3.57994 0
M  V30 48054 O 4523.43 -3.72133 4.30704 0
M  V30 48055 N 4524.64 -5.01672 2.9207 0
M  V30 48056 H 4527.4 -0.947229 2.84337 0
M  V30 48057 H 4524.96 -0.371574 1.57578 0
M  V30 48058 H 4526.95 -3.39572 2.20166 0
M  V30 48059 H 4525.52 -2.84633 1.2924 0
M  V30 48060 H 4524.74 -1.75912 3.52773 0
M  V30 48061 H 4526.03 -2.67924 4.32544 0
M  V30 48062 H 4525.43 -5.15556 2.3285 0
M  V30 48063 H 4523.99 -5.7717 3.0285 0
M  V30 48064 N 4527.42 -1.51041 -0.44993 0
M  V30 48065 C 4528.37 -1.72 -1.56584 0
M  V30 48066 C 4529.36 -0.586085 -1.58938 0
M  V30 48067 O 4530.57 -0.767147 -1.62834 0
M  V30 48068 H 4526.94 -0.543252 -0.519982 0
M  V30 48069 H 4528.91 -2.65567 -1.36076 0
M  V30 48070 C 4527.66 -1.8507 -2.94354 0
M  V30 48071 H 4526.99 -2.71723 -2.93269 0
M  V30 48072 H 4528.43 -2.03753 -3.71834 0
M  V30 48073 C 4526.89 -0.607393 -3.31379 0
M  V30 48074 O 4527.42 0.243762 -4.0096 0
M  V30 48075 N 4525.62 -0.455174 -2.87013 0
M  V30 48076 H 4525.17 -1.14887 -2.30562 0
M  V30 48077 H 4525.13 0.375501 -3.1215 0
M  V30 48078 N 4528.9 0.704544 -1.40975 0
M  V30 48079 C 4529.85 1.81857 -1.42115 0
M  V30 48080 C 4530.82 1.6378 -0.27665 0
M  V30 48081 O 4532 1.84758 -0.476365 0
M  V30 48082 C 4529.14 3.19665 -1.30033 0
M  V30 48083 C 4528.25 3.49237 -2.54279 0
M  V30 48084 C 4527.39 4.7661 -2.34557 0
M  V30 48085 C 4526.43 4.99121 -3.54323 0
M  V30 48086 N 4525.56 6.17714 -3.33728 0
M  V30 48087 H 4530.4 1.80217 -2.3733 0
M  V30 48088 H 4527.94 0.880196 -1.1786 0
M  V30 48089 H 4529.9 3.99258 -1.21032 0
M  V30 48090 H 4528.53 3.20504 -0.384304 0
M  V30 48091 H 4527.58 2.64115 -2.73765 0
M  V30 48092 H 4528.89 3.61776 -3.43394 0
M  V30 48093 H 4528.05 5.64241 -2.22972 0
M  V30 48094 H 4526.79 4.663 -1.42884 0
M  V30 48095 H 4525.79 4.0994 -3.66373 0
M  V30 48096 H 4527.02 5.11295 -4.46938 0
M  V30 48097 H 4524.96 6.08634 -2.44747 0
M  V30 48098 H 4524.88 6.3098 -4.16414 0
M  V30 48099 H 4526.15 7.08104 -3.25897 0
M  V30 48100 N 4530.38 1.26654 0.937895 0
M  V30 48101 C 4531.62 1.12559 1.68696 0
M  V30 48102 C 4531.96 -0.329714 1.91381 0
M  V30 48103 O 4531.23 -1.24197 1.49684 0
M  V30 48104 C 4531.51 1.89872 3.05975 0
M  V30 48105 C 4531.37 3.43329 2.90595 0
M  V30 48106 C 4532.69 1.69514 4.06144 0
M  V30 48107 H 4529.8 0.410279 0.612242 0
M  V30 48108 H 4532.45 1.55689 1.08908 0
M  V30 48109 H 4530.6 1.53217 3.57011 0
M  V30 48110 H 4532.27 3.89756 2.46755 0
M  V30 48111 H 4530.51 3.70187 2.26151 0
M  V30 48112 H 4531.18 3.92656 3.87976 0
M  V30 48113 H 4533.66 2.01455 3.64081 0
M  V30 48114 H 4532.53 2.26019 5.00207 0
M  V30 48115 H 4532.8 0.640519 4.37435 0
M  V30 48116 N 4531.85 -1.14294 1.08511 0
M  V30 48117 C 4533.1 -1.85631 0.816647 0
M  V30 48118 C 4533.43 -1.82786 -0.655957 0
M  V30 48119 O 4532.71 -1.25931 -1.48229 0
M  V30 48120 C 4532.99 -3.34218 1.34053 0
M  V30 48121 C 4532.84 -3.45629 2.87855 0
M  V30 48122 C 4534.16 -4.29353 0.966651 0
M  V30 48123 H 4531.28 -0.674009 0.298128 0
M  V30 48124 H 4533.92 -1.34209 1.34491 0
M  V30 48125 H 4532.07 -3.78141 0.891173 0
M  V30 48126 H 4533.75 -3.10486 3.41169 0
M  V30 48127 H 4531.99 -2.86806 3.25461 0
M  V30 48128 H 4532.66 -4.50078 3.19584 0
M  V30 48129 H 4535.14 -3.93452 1.35405 0
M  V30 48130 H 4534.01 -5.31775 1.36039 0
M  V30 48131 H 4534.27 -4.4192 -0.126207 0
M  V30 48132 N 4533.33 -0.87093 -1.31349 0
M  V30 48133 C 4534.28 -0.325506 -2.28493 0
M  V30 48134 C 4535.25 0.57656 -1.55772 0
M  V30 48135 O 4536.43 0.507994 -1.83913 0
M  V30 48136 C 4533.57 0.466162 -3.41937 0
M  V30 48137 C 4532.69 -0.463529 -4.29506 0
M  V30 48138 C 4531.82 0.342358 -5.30096 0
M  V30 48139 C 4530.86 -0.5837 -6.09311 0
M  V30 48140 N 4530 0.185997 -7.01854 0
M  V30 48141 H 4534.84 -1.15911 -2.74534 0
M  V30 48142 H 4532.38 -0.582987 -1.35054 0
M  V30 48143 H 4534.33 0.940942 -4.06451 0
M  V30 48144 H 4532.96 1.26446 -2.97004 0
M  V30 48145 H 4532.02 -1.05676 -3.65427 0
M  V30 48146 H 4533.33 -1.17357 -4.84798 0
M  V30 48147 H 4532.48 0.879605 -6.0029 0
M  V30 48148 H 4531.22 1.08569 -4.75462 0
M  V30 48149 H 4530.23 -1.13269 -5.38006 0
M  V30 48150 H 4531.45 -1.3259 -6.66031 0
M  V30 48151 H 4529.4 0.91212 -6.49628 0
M  V30 48152 H 4529.31 -0.464688 -7.54571 0
M  V30 48153 H 4530.58 0.704443 -7.7631 0
M  V30 48154 N 4534.81 1.4444 -0.630465 0
M  V30 48155 C 4536.06 2.02351 -0.134888 0
M  V30 48156 C 4536.39 1.49474 1.2398 0
M  V30 48157 O 4535.66 0.678539 1.8228 0
M  V30 48158 C 4535.95 3.59897 -0.120833 0
M  V30 48159 C 4535.8 4.23058 -1.52782 0
M  V30 48160 C 4537.12 4.36587 0.554973 0
M  V30 48161 H 4534.24 0.735268 -0.0504904 0
M  V30 48162 H 4536.88 1.72019 -0.806812 0
M  V30 48163 H 4535.03 3.85869 0.451341 0
M  V30 48164 H 4536.7 4.08195 -2.14883 0
M  V30 48165 H 4534.95 3.80578 -2.08189 0
M  V30 48166 H 4535.62 5.32066 -1.47003 0
M  V30 48167 H 4538.09 4.16044 0.0683966 0
M  V30 48168 H 4536.97 5.46296 0.533993 0
M  V30 48169 H 4537.23 4.11144 1.62521 0
M  V30 48170 N 4536.29 0.370972 1.53172 0
M  V30 48171 C 4537.22 -0.507744 2.23505 0
M  V30 48172 C 4538.23 -1.04177 1.25104 0
M  V30 48173 O 4539.42 -0.947232 1.51294 0
M  V30 48174 C 4536.52 -1.71437 2.9234 0
M  V30 48175 C 4535.7 -1.3109 4.17294 0
M  V30 48176 C 4534.75 -2.38019 4.6929 0
M  V30 48177 O 4533.78 -2.00185 5.32836 0
M  V30 48178 N 4534.98 -3.69681 4.47567 0
M  V30 48179 H 4537.75 0.0947435 2.9955 0
M  V30 48180 H 4535.31 0.196415 1.60704 0
M  V30 48181 H 4537.3 -2.42458 3.24032 0
M  V30 48182 H 4535.87 -2.2236 2.19715 0
M  V30 48183 H 4535.09 -0.430324 3.91844 0
M  V30 48184 H 4536.38 -1.01772 4.98518 0
M  V30 48185 H 4535.78 -4.03191 3.96804 0
M  V30 48186 H 4534.33 -4.3679 4.83795 0
M  V30 48187 N 4537.77 -1.57281 0.100283 0
M  V30 48188 C 4539.18 -1.57528 -0.25636 0
M  V30 48189 C 4539.38 -1.11179 -1.68052 0
M  V30 48190 O 4538.44 -0.790614 -2.39803 0
M  V30 48191 C 4539.75 -3.00673 -0.040069 0
M  V30 48192 C 4541.3 -3.12816 -0.107418 0
M  V30 48193 C 4541.77 -4.57928 0.0809444 0
M  V30 48194 N 4543.27 -4.63193 0.0262835 0
M  V30 48195 C 4544 -5.73211 0.147201 0
M  V30 48196 N 4543.5 -6.92046 0.323243 0
M  V30 48197 N 4545.29 -5.62031 0.088102 0
M  V30 48198 H 4537.44 -1.85715 1.03072 0
M  V30 48199 H 4539.7 -0.857432 0.404369 0
M  V30 48200 H 4539.41 -3.38801 0.943769 0
M  V30 48201 H 4539.28 -3.69044 -0.780133 0
M  V30 48202 H 4541.67 -2.74558 -1.08176 0
M  V30 48203 H 4541.75 -2.47026 0.664221 0
M  V30 48204 H 4541.4 -4.96882 1.05218 0
M  V30 48205 H 4541.33 -5.21786 -0.710452 0
M  V30 48206 H 4543.82 -3.77748 -0.107028 0
M  V30 48207 H 4544.13 -7.71728 0.406879 0
M  V30 48208 H 4542.47 -6.94072 0.358977 0
M  V30 48209 H 4545.67 -4.68075 -0.0483334 0
M  V30 48210 H 4545.84 -6.47734 0.185784 0
M  V30 48211 N 4539.25 0.173432 -1.56643 0
M  V30 48212 C 4540.66 0.736095 -1.71577 0
M  V30 48213 C 4541.01 1.82885 -0.710453 0
M  V30 48214 O 4540.13 2.16017 0.128624 0
M  V30 48215 C 4540.73 1.342 -3.11088 0
M  V30 48216 C 4539.29 1.85151 -3.27714 0
M  V30 48217 C 4538.43 0.729671 -2.67528 0
M  V30 48218 H 4541.38 -0.0519343 -1.58615 0
M  V30 48219 H 4541.41 2.21167 -3.09621 0
M  V30 48220 H 4540.92 0.546444 -3.84234 0
M  V30 48221 H 4539.02 2.67357 -2.59521 0
M  V30 48222 H 4539.13 1.9984 -4.35432 0
M  V30 48223 H 4537.5 1.14957 -2.27282 0
M  V30 48224 H 4538.28 -0.0540013 -3.43258 0
M  V30 48225 N 4540.72 1.51278 0.441914 0
M  V30 48226 C 4541.95 1.6752 1.21428 0
M  V30 48227 C 4542.37 0.370615 1.85127 0
M  V30 48228 O 4541.72 -0.650438 1.70516 0
M  V30 48229 C 4541.77 2.78756 2.30168 0
M  V30 48230 O 4541.5 4.0416 1.69075 0
M  V30 48231 C 4543 3.06228 3.2053 0
M  V30 48232 H 4540.22 0.562289 0.366158 0
M  V30 48233 H 4542.76 1.97668 0.524174 0
M  V30 48234 H 4540.92 2.5122 2.94902 0
M  V30 48235 H 4541.33 4.65902 2.40906 0
M  V30 48236 H 4542.8 3.87654 3.92974 0
M  V30 48237 H 4543.28 2.18452 3.81019 0
M  V30 48238 H 4543.89 3.35406 2.61501 0
M  V30 48239 N 4542.2 -0.697058 1.41347 0
M  V30 48240 C 4543.61 -1.27693 1.36204 0
M  V30 48241 C 4543.96 -1.9615 0.0444153 0
M  V30 48242 O 4543.09 -1.98692 -0.857349 0
M  V30 48243 C 4543.68 -2.32214 2.46702 0
M  V30 48244 C 4542.24 -2.85781 2.44962 0
M  V30 48245 C 4541.39 -1.598 2.26626 0
M  V30 48246 H 4544.34 -0.491915 1.50884 0
M  V30 48247 H 4544.36 -3.13472 2.15675 0
M  V30 48248 H 4543.87 -1.82361 3.42587 0
M  V30 48249 H 4541.97 -3.39815 1.52829 0
M  V30 48250 H 4542.09 -3.36313 3.41219 0
M  V30 48251 H 4540.45 -1.85554 1.74476 0
M  V30 48252 H 4541.23 -1.11944 3.24536 0
M  V30 48253 N 4543.68 -1.2715 -0.931165 0
M  V30 48254 C 4544.63 -1.09576 -2.0313 0
M  V30 48255 C 4545.6 0.00216594 -1.661 0
M  V30 48256 O 4546.78 -0.159506 -1.90132 0
M  V30 48257 C 4543.92 -0.745349 -3.36955 0
M  V30 48258 C 4543.03 -1.92055 -3.86961 0
M  V30 48259 C 4542.17 -1.51234 -5.09217 0
M  V30 48260 C 4541.21 -2.65523 -5.5151 0
M  V30 48261 N 4540.35 -2.25315 -6.64964 0
M  V30 48262 H 4545.19 -2.03715 -2.17495 0
M  V30 48263 H 4542.72 -1.01415 -1.06553 0
M  V30 48264 H 4544.68 -0.523024 -4.13909 0
M  V30 48265 H 4543.31 0.159089 -3.22408 0
M  V30 48266 H 4542.36 -2.25552 -3.06318 0
M  V30 48267 H 4543.67 -2.77801 -4.1428 0
M  V30 48268 H 4542.83 -1.25105 -5.93661 0
M  V30 48269 H 4541.57 -0.625919 -4.83667 0
M  V30 48270 H 4540.57 -2.9237 -4.65617 0
M  V30 48271 H 4541.8 -3.54781 -5.79057 0
M  V30 48272 H 4539.74 -1.3912 -6.41078 0
M  V30 48273 H 4539.66 -3.04601 -6.91921 0
M  V30 48274 H 4540.93 -2.02424 -7.52758 0
M  V30 48275 N 4545.16 1.13717 -1.09116 0
M  V30 48276 C 4546.41 1.84556 -0.823627 0
M  V30 48277 C 4546.73 1.83756 0.652593 0
M  V30 48278 O 4546 1.29107 1.47337 0
M  V30 48279 H 4544.58 0.683365 -0.301697 0
M  V30 48280 H 4547.24 1.37766 -1.37864 0
M  V30 48281 H 4546.33 2.89166 -1.1743 0
M  V30 48282 N 4546.64 0.877884 1.30885 0
M  V30 48283 C 4547.86 0.507485 2.0058 0
M  V30 48284 C 4548.28 -0.902157 1.65851 0
M  V30 48285 O 4547.64 -1.59222 0.891887 0
M  V30 48286 C 4547.69 0.664287 3.55344 0
M  V30 48287 O 4547.41 2.01842 3.88833 0
M  V30 48288 C 4548.91 0.295943 4.42311 0
M  V30 48289 H 4546.13 0.196889 0.641464 0
M  V30 48290 H 4548.67 1.18123 1.66935 0
M  V30 48291 H 4546.83 0.0379981 3.87381 0
M  V30 48292 H 4547.24 2.03191 4.83543 0
M  V30 48293 H 4548.72 0.456582 5.50108 0
M  V30 48294 H 4549.19 -0.76551 4.32477 0
M  V30 48295 H 4549.8 0.898259 4.15706 0
M  V30 48296 N 4548.11 -1.44104 0.638116 0
M  V30 48297 C 4549.36 -2.02277 0.145617 0
M  V30 48298 C 4549.69 -1.5013 -1.23186 0
M  V30 48299 O 4548.97 -0.688197 -1.81918 0
M  V30 48300 C 4549.25 -3.59828 0.139918 0
M  V30 48301 C 4549.1 -4.22241 1.55023 0
M  V30 48302 C 4550.42 -4.36875 -0.531812 0
M  V30 48303 H 4547.54 -0.73499 0.054389 0
M  V30 48304 H 4550.18 -1.71589 0.815923 0
M  V30 48305 H 4548.33 -3.86103 -0.430871 0
M  V30 48306 H 4550.01 -4.07049 2.17045 0
M  V30 48307 H 4548.25 -3.79469 2.10204 0
M  V30 48308 H 4548.92 -5.31279 1.49822 0
M  V30 48309 H 4551.4 -4.16074 -0.0463318 0
M  V30 48310 H 4550.27 -5.46572 -0.505014 0
M  V30 48311 H 4550.53 -4.12 -1.60338 0
M  V30 48312 N 4549.59 -0.37909 -1.52973 0
M  V30 48313 C 4550.52 0.504854 -2.22545 0
M  V30 48314 C 4551.5 1.07226 -1.22235 0
M  V30 48315 O 4552.69 1.12583 -1.51186 0
M  V30 48316 C 4549.81 1.69784 -2.93072 0
M  V30 48317 C 4548.86 1.25664 -4.07567 0
M  V30 48318 S 4549.69 0.246664 -5.34932 0
M  V30 48319 C 4550.85 1.44567 -6.08976 0
M  V30 48320 H 4551.08 -0.0859711 -2.97176 0
M  V30 48321 H 4548.61 -0.163237 -1.53535 0
M  V30 48322 H 4550.57 2.38207 -3.34317 0
M  V30 48323 H 4549.23 2.25994 -2.18141 0
M  V30 48324 H 4548.43 2.14709 -4.55978 0
M  V30 48325 H 4548.03 0.651454 -3.68283 0
M  V30 48326 H 4550.32 2.37447 -6.34527 0
M  V30 48327 H 4551.26 1.00268 -7.00965 0
M  V30 48328 H 4551.67 1.65785 -5.39607 0
M  V30 48329 N 4551.07 1.57225 -0.108623 0
M  V30 48330 C 4552.35 1.86335 0.594873 0
M  V30 48331 C 4552.73 1.00794 1.85483 0
M  V30 48332 O 4552.07 0.0840096 2.28346 0
M  V30 48333 C 4552.28 3.37268 0.897287 0
M  V30 48334 C 4553.63 4.05633 1.25487 0
M  V30 48335 O 4554.66 3.42227 0.987878 0
M  V30 48336 O 4553.52 5.17537 1.75549 0
M  V30 48337 H 4550.61 0.771028 0.299073 0
M  V30 48338 H 4553.16 1.69102 -0.142343 0
M  V30 48339 H 4551.93 3.913 0.0040005 0
M  V30 48340 H 4551.55 3.59895 1.69002 0
M  V30 48341 N 4552.55 -0.165123 1.56733 0
M  V30 48342 C 4553.8 -0.87908 1.81535 0
M  V30 48343 C 4554.11 -1.83142 0.686907 0
M  V30 48344 O 4555.32 -2.5882 0.820034 0
M  V30 48345 C 4553.77 -1.61376 3.21692 0
M  V30 48346 C 4553.38 -0.704748 4.42422 0
M  V30 48347 C 4555.12 -2.31558 3.55783 0
M  V30 48348 C 4553.03 -1.44002 5.736 0
M  V30 48349 H 4551.96 -0.332009 0.676968 0
M  V30 48350 H 4554.61 -0.131944 1.83025 0
M  V30 48351 H 4552.99 -2.40588 3.14537 0
M  V30 48352 H 4554.17 0.0508435 4.60772 0
M  V30 48353 H 4552.48 -0.112273 4.16249 0
M  V30 48354 H 4555.08 -2.87174 4.51038 0
M  V30 48355 H 4555.42 -3.07191 2.80961 0
M  V30 48356 H 4555.96 -1.59284 3.64518 0
M  V30 48357 H 4552.69 -0.725891 6.51468 0
M  V30 48358 H 4552.21 -2.16878 5.59217 0
M  V30 48359 H 4553.89 -1.98584 6.15771 0
M  V30 48360 N 4554.03 -1.5151 -0.433885 0
M  V30 48361 C 4555.28 -1.63582 -1.17999 0
M  V30 48362 C 4555.59 -0.359581 -1.92266 0
M  V30 48363 O 4556.79 -0.359726 -2.69106 0
M  V30 48364 C 4555.25 -2.88908 -2.14616 0
M  V30 48365 C 4554.86 -4.23549 -1.4598 0
M  V30 48366 C 4556.6 -3.10339 -2.89638 0
M  V30 48367 C 4554.51 -5.40023 -2.41101 0
M  V30 48368 H 4553.44 -0.609293 -0.44416 0
M  V30 48369 H 4556.09 -1.7798 -0.44671 0
M  V30 48370 H 4554.47 -2.68153 -2.91394 0
M  V30 48371 H 4555.65 -4.54699 -0.747372 0
M  V30 48372 H 4553.96 -4.08024 -0.830971 0
M  V30 48373 H 4556.56 -3.94531 -3.60901 0
M  V30 48374 H 4556.9 -2.23557 -3.51181 0
M  V30 48375 H 4557.43 -3.31451 -2.19967 0
M  V30 48376 H 4554.17 -6.29075 -1.84242 0
M  V30 48377 H 4553.69 -5.13244 -3.10388 0
M  V30 48378 H 4555.37 -5.7211 -3.02157 0
M  V30 48379 N 4555.5 0.689552 -1.41714 0
M  V30 48380 C 4556.73 1.48324 -1.44964 0
M  V30 48381 C 4557.15 1.8801 -0.0581944 0
M  V30 48382 O 4556.51 1.55029 0.93998 0
M  V30 48383 C 4556.56 2.71827 -2.36944 0
M  V30 48384 O 4555.66 3.69542 -1.83063 0
M  V30 48385 H 4555.01 0.446182 -0.49175 0
M  V30 48386 H 4557.54 0.847062 -1.86242 0
M  V30 48387 H 4557.55 3.20067 -2.53024 0
M  V30 48388 H 4556.22 2.42279 -3.38044 0
M  V30 48389 H 4554.8 3.28504 -1.76464 0
M  V30 48390 N 4556.98 1.27642 0.924409 0
M  V30 48391 C 4558.4 1.05118 1.20093 0
M  V30 48392 C 4558.6 -0.213192 2.00369 0
M  V30 48393 O 4557.65 -0.917787 2.3523 0
M  V30 48394 C 4558.97 2.29251 1.94588 0
M  V30 48395 C 4560.52 2.34322 2.07514 0
M  V30 48396 C 4560.99 3.58193 2.85415 0
M  V30 48397 N 4562.48 3.5877 2.92981 0
M  V30 48398 C 4563.22 4.5129 3.5373 0
M  V30 48399 N 4562.71 5.54117 4.15844 0
M  V30 48400 N 4564.51 4.38907 3.51166 0
M  V30 48401 H 4556.66 2.08823 0.388191 0
M  V30 48402 H 4558.92 0.918577 0.234353 0
M  V30 48403 H 4558.63 3.21306 1.43023 0
M  V30 48404 H 4558.5 2.34827 2.95189 0
M  V30 48405 H 4560.89 1.42771 2.58264 0
M  V30 48406 H 4560.97 2.32748 1.06123 0
M  V30 48407 H 4560.61 4.50083 2.35347 0
M  V30 48408 H 4560.54 3.5702 3.87098 0
M  V30 48409 H 4563.03 2.84407 2.4884 0
M  V30 48410 H 4563.35 6.20875 4.60146 0
M  V30 48411 H 4561.69 5.57955 4.1438 0
M  V30 48412 H 4564.88 3.57782 3.01844 0
M  V30 48413 H 4565.05 5.112 3.98219 0
M  V30 48414 N 4558.46 -1.13137 1.09717 0
M  V30 48415 C 4559.41 -2.1864 0.739273 0
M  V30 48416 C 4560.38 -1.63707 -0.280921 0
M  V30 48417 O 4561.56 -1.90112 -0.161879 0
M  V30 48418 C 4558.7 -3.44685 0.169223 0
M  V30 48419 C 4557.82 -4.13707 1.24382 0
M  V30 48420 C 4556.95 -5.27376 0.636204 0
M  V30 48421 C 4555.99 -5.88253 1.6919 0
M  V30 48422 N 4555.13 -6.93348 1.10509 0
M  V30 48423 H 4559.97 -2.48601 1.64321 0
M  V30 48424 H 4557.5 -1.22063 0.820918 0
M  V30 48425 H 4559.46 -4.16815 -0.179109 0
M  V30 48426 H 4558.09 -3.15164 -0.697968 0
M  V30 48427 H 4557.14 -3.39829 1.70939 0
M  V30 48428 H 4558.46 -4.5503 2.04327 0
M  V30 48429 H 4557.61 -6.06237 0.23689 0
M  V30 48430 H 4556.35 -4.87311 -0.194757 0
M  V30 48431 H 4555.35 -5.08084 2.10072 0
M  V30 48432 H 4556.58 -6.3039 2.52558 0
M  V30 48433 H 4554.52 -6.55334 0.295465 0
M  V30 48434 H 4554.44 -7.3323 1.84147 0
M  V30 48435 H 4555.71 -7.76055 0.732083 0
M  V30 48436 N 4559.94 -0.884812 -1.30418 0
M  V30 48437 C 4561.22 -0.423252 -1.90966 0
M  V30 48438 C 4561.6 1.09598 -1.8042 0
M  V30 48439 O 4560.94 1.93122 -1.22132 0
M  V30 48440 C 4561.15 -0.921175 -3.36623 0
M  V30 48441 C 4562.5 -0.956049 -4.13697 0
M  V30 48442 O 4563.53 -0.867827 -3.45467 0
M  V30 48443 O 4562.38 -1.08633 -5.35594 0
M  V30 48444 H 4559.48 -0.129398 -0.816814 0
M  V30 48445 H 4562.02 -0.973702 -1.38986 0
M  V30 48446 H 4560.8 -1.96501 -3.38383 0
M  V30 48447 H 4560.42 -0.34988 -3.96058 0
M  V30 48448 N 4561.42 1.43763 -0.645749 0
M  V30 48449 C 4562.35 2.29027 0.08898 0
M  V30 48450 C 4563.36 1.42096 0.794513 0
M  V30 48451 O 4564.55 1.66107 0.653517 0
M  V30 48452 C 4561.65 3.18835 1.1488 0
M  V30 48453 C 4560.82 4.34263 0.522891 0
M  V30 48454 C 4559.88 5.04999 1.4786 0
M  V30 48455 O 4558.91 5.60523 0.99008 0
M  V30 48456 N 4560.11 5.07805 2.81273 0
M  V30 48457 H 4562.88 2.92725 -0.642822 0
M  V30 48458 H 4560.44 1.54371 -0.487978 0
M  V30 48459 H 4562.43 3.63021 1.78879 0
M  V30 48460 H 4561 2.56788 1.78266 0
M  V30 48461 H 4560.22 3.93087 -0.296034 0
M  V30 48462 H 4561.51 5.08728 0.0856359 0
M  V30 48463 H 4560.9 4.64053 3.23529 0
M  V30 48464 H 4559.46 5.55733 3.40594 0
M  V30 48465 N 4562.89 0.387197 1.5277 0
M  V30 48466 C 4564.31 0.0370631 1.59557 0
M  V30 48467 C 4564.51 -1.44796 1.4013 0
M  V30 48468 O 4563.57 -2.21223 1.21724 0
M  V30 48469 C 4564.88 0.51236 2.96303 0
M  V30 48470 C 4566.43 0.468436 3.09475 0
M  V30 48471 C 4566.9 0.919889 4.48667 0
M  V30 48472 N 4568.39 0.875816 4.54845 0
M  V30 48473 C 4569.13 1.19657 5.60776 0
M  V30 48474 N 4568.62 1.58769 6.74362 0
M  V30 48475 N 4570.42 1.11796 5.5087 0
M  V30 48476 H 4562.57 1.35401 1.63647 0
M  V30 48477 H 4564.83 0.554845 0.768668 0
M  V30 48478 H 4564.54 1.54946 3.15729 0
M  V30 48479 H 4564.41 -0.0896724 3.77093 0
M  V30 48480 H 4566.8 -0.55957 2.89746 0
M  V30 48481 H 4566.88 1.10624 2.30642 0
M  V30 48482 H 4566.52 1.94611 4.69136 0
M  V30 48483 H 4566.45 0.259112 5.25962 0
M  V30 48484 H 4568.94 0.587974 3.73298 0
M  V30 48485 H 4569.26 1.81613 7.51157 0
M  V30 48486 H 4567.6 1.62653 6.75699 0
M  V30 48487 H 4570.79 0.811426 4.61014 0
M  V30 48488 H 4570.97 1.37125 6.33325 0
M  V30 48489 N 4564.37 -1.57165 0.116959 0
M  V30 48490 C 4565.62 -1.94739 -0.540465 0
M  V30 48491 C 4565.94 -1.00102 -1.67346 0
M  V30 48492 O 4565.21 -0.0569543 -1.95817 0
M  V30 48493 H 4563.79 -0.718989 -0.202644 0
M  V30 48494 H 4566.45 -1.94016 0.185422 0
M  V30 48495 H 4565.55 -2.97722 -0.936379 0
M  V30 48496 N 4565.85 0.156809 -1.56818 0
M  V30 48497 C 4567.08 0.890266 -1.87321 0
M  V30 48498 C 4567.5 1.74392 -0.704916 0
M  V30 48499 O 4566.86 1.77973 0.345724 0
M  V30 48500 C 4566.91 1.73091 -3.16342 0
M  V30 48501 O 4566.01 2.83412 -2.99586 0
M  V30 48502 H 4565.35 0.248548 -0.615727 0
M  V30 48503 H 4567.88 0.150578 -2.04045 0
M  V30 48504 H 4567.89 2.12791 -3.48115 0
M  V30 48505 H 4566.57 1.10397 -4.0098 0
M  V30 48506 H 4565.14 2.47189 -2.79199 0
M  V30 48507 N 4567.33 1.51738 0.425844 0
M  V30 48508 C 4568.58 1.64648 1.17198 0
M  V30 48509 C 4568.9 0.370553 1.91447 0
M  V30 48510 O 4568.17 -0.614023 1.86028 0
M  V30 48511 H 4566.75 0.606834 0.435616 0
M  V30 48512 H 4569.41 1.88715 0.487111 0
M  V30 48513 H 4568.51 2.47965 1.89526 0
M  V30 48514 N 4568.81 -0.682027 1.42078 0
M  V30 48515 C 4569.74 -1.8075 1.40933 0
M  V30 48516 C 4570.75 -1.59832 0.309454 0
M  V30 48517 O 4571.94 -1.69084 0.572074 0
M  V30 48518 C 4569.04 -3.17739 1.17877 0
M  V30 48519 C 4568.21 -3.6557 2.40161 0
M  V30 48520 C 4567.27 -4.81269 2.12758 0
M  V30 48521 O 4566.3 -4.92186 2.85904 0
M  V30 48522 N 4567.5 -5.6947 1.12622 0
M  V30 48523 H 4570.27 -1.8222 2.37941 0
M  V30 48524 H 4567.83 -0.864855 1.36864 0
M  V30 48525 H 4569.82 -3.92786 0.974738 0
M  V30 48526 H 4568.39 -3.11213 0.294178 0
M  V30 48527 H 4567.61 -2.81281 2.76179 0
M  V30 48528 H 4568.9 -3.94267 3.21607 0
M  V30 48529 H 4568.3 -5.63295 0.521097 0
M  V30 48530 H 4566.85 -6.44359 0.982069 0
M  V30 48531 N 4570.29 -1.2813 -0.917626 0
M  V30 48532 C 4571.53 -1.15229 -1.66884 0
M  V30 48533 C 4571.86 0.299226 -1.91881 0
M  V30 48534 O 4571.14 1.218 -1.51641 0
M  V30 48535 C 4571.42 -1.94716 -3.02915 0
M  V30 48536 C 4571.28 -3.47908 -2.85096 0
M  V30 48537 C 4572.59 -1.75954 -4.03396 0
M  V30 48538 H 4569.71 -0.419967 -0.605638 0
M  V30 48539 H 4572.36 -1.57402 -1.06417 0
M  V30 48540 H 4570.51 -1.58877 -3.54528 0
M  V30 48541 H 4572.18 -3.93632 -2.40523 0
M  V30 48542 H 4570.42 -3.73738 -2.20233 0
M  V30 48543 H 4571.09 -3.98778 -3.8168 0
M  V30 48544 H 4573.57 -2.07222 -3.6083 0
M  V30 48545 H 4572.44 -2.33948 -4.96547 0
M  V30 48546 H 4572.7 -0.71003 -4.36361 0
M  V30 48547 N 4571.76 1.12553 -1.10316 0
M  V30 48548 C 4573.01 1.83672 -0.843155 0
M  V30 48549 C 4573.33 1.84438 0.633067 0
M  V30 48550 O 4572.6 1.30662 1.45959 0
M  V30 48551 H 4571.18 0.680127 -0.308928 0
M  V30 48552 H 4573.84 1.36296 -1.39317 0
M  V30 48553 H 4572.94 2.87904 -1.2049 0
M  V30 48554 N 4573.24 0.891716 1.29947 0
M  V30 48555 C 4574.47 0.52873 2.0003 0
M  V30 48556 C 4574.88 -0.884516 1.66799 0
M  V30 48557 O 4574.24 -1.58267 0.908724 0
M  V30 48558 C 4574.29 0.701938 3.5462 0
M  V30 48559 O 4574.01 2.05955 3.86671 0
M  V30 48560 C 4575.51 0.342839 4.41972 0
M  V30 48561 H 4572.73 0.203681 0.639339 0
M  V30 48562 H 4575.28 1.19887 1.65672 0
M  V30 48563 H 4573.43 0.079083 3.87319 0
M  V30 48564 H 4573.85 2.08308 4.81361 0
M  V30 48565 H 4575.32 0.514902 5.49593 0
M  V30 48566 H 4575.8 -0.719597 4.33265 0
M  V30 48567 H 4576.4 0.9423 4.1473 0
M  V30 48568 N 4574.72 -1.43419 0.653364 0
M  V30 48569 C 4575.95 -2.05863 0.174311 0
M  V30 48570 C 4576.36 -1.49056 -1.16528 0
M  V30 48571 O 4575.7 -0.616542 -1.73045 0
M  V30 48572 C 4575.76 -3.59499 0.00888511 0
M  V30 48573 C 4575.43 -4.38889 1.2738 0
M  V30 48574 C 4576.42 -4.70939 2.20256 0
M  V30 48575 C 4574.11 -4.78895 1.51542 0
M  V30 48576 C 4576.1 -5.41904 3.35587 0
M  V30 48577 C 4573.79 -5.49605 2.67167 0
M  V30 48578 C 4574.79 -5.81031 3.59015 0
M  V30 48579 O 4574.48 -6.50296 4.7262 0
M  V30 48580 H 4574.21 -0.670342 0.0872784 0
M  V30 48581 H 4576.76 -1.8491 0.894291 0
M  V30 48582 H 4574.99 -3.79028 -0.766467 0
M  V30 48583 H 4576.68 -4.03642 -0.427546 0
M  V30 48584 H 4577.45 -4.4055 2.02831 0
M  V30 48585 H 4573.33 -4.5384 0.809318 0
M  V30 48586 H 4576.87 -5.66351 4.07299 0
M  V30 48587 H 4572.77 -5.79409 2.84526 0
M  V30 48588 H 4573.53 -6.68779 4.71887 0
M  V30 48589 N 4576.2 -0.395293 -1.52562 0
M  V30 48590 C 4577.45 0.184608 -2.01255 0
M  V30 48591 C 4577.77 1.46817 -1.28334 0
M  V30 48592 O 4577.04 1.91664 -0.405162 0
M  V30 48593 H 4575.62 0.0712094 -0.743598 0
M  V30 48594 H 4578.28 -0.528359 -1.87602 0
M  V30 48595 H 4577.37 0.390572 -3.09646 0
M  V30 48596 N 4577.68 1.57101 -0.125292 0
M  V30 48597 C 4578.61 2.18662 0.819097 0
M  V30 48598 C 4579.59 1.12848 1.27277 0
M  V30 48599 O 4580.77 1.41108 1.33424 0
M  V30 48600 C 4577.9 2.79103 2.06685 0
M  V30 48601 C 4576.86 3.90555 1.75075 0
M  V30 48602 C 4576.18 4.37832 3.06932 0
M  V30 48603 C 4577.48 5.12359 1.01417 0
M  V30 48604 H 4579.18 2.97831 0.306097 0
M  V30 48605 H 4576.72 1.4326 0.145789 0
M  V30 48606 H 4578.67 3.2083 2.73215 0
M  V30 48607 H 4577.4 1.97233 2.60321 0
M  V30 48608 H 4576.06 3.49413 1.10932 0
M  V30 48609 H 4575.71 3.52812 3.58515 0
M  V30 48610 H 4575.41 5.12992 2.86553 0
M  V30 48611 H 4576.93 4.82214 3.7457 0
M  V30 48612 H 4578.34 5.51066 1.58113 0
M  V30 48613 H 4576.74 5.93143 0.91111 0
M  V30 48614 H 4577.81 4.849 0.00201634 0
M  V30 48615 N 4579.15 -0.14849 1.56899 0
M  V30 48616 C 4580.1 -1.20258 1.991 0
M  V30 48617 C 4581.1 -1.44556 0.883174 0
M  V30 48618 O 4582.3 -1.44866 1.06835 0
M  V30 48619 H 4578.68 -0.404764 0.633774 0
M  V30 48620 H 4580.65 -0.81994 2.86914 0
M  V30 48621 C 4579.4 -2.52877 2.38638 0
M  V30 48622 H 4578.72 -2.3501 3.23435 0
M  V30 48623 H 4580.16 -3.25264 2.71991 0
M  V30 48624 C 4578.62 -3.1331 1.23848 0
M  V30 48625 O 4579.15 -3.98075 0.538408 0
M  V30 48626 N 4577.35 -2.72738 1.00311 0
M  V30 48627 H 4576.9 -2.03906 1.57417 0
M  V30 48628 H 4576.86 -3.13506 0.236949 0
M  V30 48629 N 4580.63 -1.51961 -0.417791 0
M  V30 48630 C 4581.86 -1.69431 -1.18747 0
M  V30 48631 C 4582.27 -0.40002 -1.84514 0
M  V30 48632 O 4581.63 0.623228 -1.71529 0
M  V30 48633 C 4581.68 -2.82383 -2.25704 0
M  V30 48634 O 4581.4 -4.06799 -1.62624 0
M  V30 48635 C 4582.9 -3.11289 -3.15617 0
M  V30 48636 H 4580.12 -0.568043 -0.357166 0
M  V30 48637 H 4582.67 -1.98477 -0.492661 0
M  V30 48638 H 4580.82 -2.5588 -2.90868 0
M  V30 48639 H 4581.24 -4.69676 -2.33463 0
M  V30 48640 H 4582.71 -3.93857 -3.86757 0
M  V30 48641 H 4583.19 -2.24486 -3.77495 0
M  V30 48642 H 4583.79 -3.39524 -2.56132 0
M  V30 48643 N 4582.11 0.674483 -1.42438 0
M  V30 48644 C 4583.36 1.43454 -1.42924 0
M  V30 48645 C 4583.68 1.94446 -0.0457995 0
M  V30 48646 O 4582.94 1.71324 0.94587 0
M  V30 48647 C 4583.24 2.64759 -2.40078 0
M  V30 48648 C 4582.9 2.32306 -3.86451 0
M  V30 48649 C 4581.57 2.23167 -4.26322 0
M  V30 48650 C 4583.92 2.0596 -4.7878 0
M  V30 48651 C 4581.25 1.85807 -5.565 0
M  V30 48652 C 4583.6 1.70104 -6.09301 0
M  V30 48653 C 4582.26 1.59475 -6.4817 0
M  V30 48654 H 4581.53 0.524934 -0.522997 0
M  V30 48655 H 4584.18 0.769035 -1.7538 0
M  V30 48656 H 4582.48 3.36342 -2.00951 0
M  V30 48657 H 4584.18 3.22941 -2.37719 0
M  V30 48658 H 4580.77 2.40322 -3.54885 0
M  V30 48659 H 4584.96 2.11953 -4.48764 0
M  V30 48660 H 4580.21 1.76147 -5.85476 0
M  V30 48661 H 4584.39 1.48743 -6.8033 0
M  V30 48662 H 4582.01 1.30296 -7.48951 0
M  V30 48663 N 4583.59 1.28615 0.910818 0
M  V30 48664 C 4584.82 1.18798 1.69395 0
M  V30 48665 C 4585.23 -0.252973 1.87098 0
M  V30 48666 O 4584.59 -1.17066 1.40007 0
M  V30 48667 C 4584.64 1.88522 3.08451 0
M  V30 48668 O 4584.36 3.26989 2.91564 0
M  V30 48669 C 4585.86 1.85043 4.02832 0
M  V30 48670 H 4583.08 0.412252 0.529423 0
M  V30 48671 H 4585.63 1.69792 1.13978 0
M  V30 48672 H 4583.78 1.41391 3.60676 0
M  V30 48673 H 4584.19 3.61949 3.79596 0
M  V30 48674 H 4585.67 2.38413 4.97859 0
M  V30 48675 H 4586.15 0.823454 4.31411 0
M  V30 48676 H 4586.75 2.31866 3.56537 0
M  V30 48677 N 4585.07 -1.11967 1.10911 0
M  V30 48678 C 4586.01 -2.19924 0.757381 0
M  V30 48679 C 4587.01 -1.67565 -0.248688 0
M  V30 48680 O 4588.21 -1.79672 -0.108542 0
M  V30 48681 H 4584.59 -0.716917 0.227012 0
M  V30 48682 H 4586.56 -2.46841 1.67666 0
M  V30 48683 C 4585.31 -3.4706 0.210793 0
M  V30 48684 H 4584.63 -3.87699 0.976186 0
M  V30 48685 H 4586.07 -4.24 0.00280745 0
M  V30 48686 C 4584.53 -3.19868 -1.05766 0
M  V30 48687 O 4585.06 -3.40057 -2.13833 0
M  V30 48688 N 4583.27 -2.7364 -0.978253 0
M  V30 48689 H 4582.81 -2.57411 -0.0987341 0
M  V30 48690 H 4582.77 -2.55822 -1.82764 0
M  V30 48691 N 4586.54 -0.898595 -1.29472 0
M  V30 48692 C 4587.48 -0.320061 -2.25944 0
M  V30 48693 C 4588.46 0.567135 -1.52389 0
M  V30 48694 O 4589.64 0.51419 -1.81351 0
M  V30 48695 C 4586.77 0.543895 -3.34304 0
M  V30 48696 C 4585.81 -0.275832 -4.25607 0
M  V30 48697 S 4586.65 -1.6729 -5.08699 0
M  V30 48698 C 4587.8 -0.815839 -6.2056 0
M  V30 48699 H 4588.03 -1.13777 -2.74667 0
M  V30 48700 H 4585.57 -0.698869 -1.37678 0
M  V30 48701 H 4587.53 1.03659 -3.97197 0
M  V30 48702 H 4586.19 1.33583 -2.84279 0
M  V30 48703 H 4585.38 0.384086 -5.02534 0
M  V30 48704 H 4584.98 -0.701625 -3.6736 0
M  V30 48705 H 4587.27 -0.0387424 -6.77489 0
M  V30 48706 H 4588.22 -1.55716 -6.90766 0
M  V30 48707 H 4588.62 -0.370714 -5.63281 0
M  V30 48708 N 4588.02 1.4307 -0.660961 0
M  V30 48709 C 4588.93 2.34585 0.0263338 0
M  V30 48710 C 4589.95 1.54319 0.803843 0
M  V30 48711 O 4591.12 1.86941 0.749325 0
M  V30 48712 C 4588.19 3.32693 0.975522 0
M  V30 48713 C 4587.25 4.28861 0.194086 0
M  V30 48714 C 4586.48 5.22282 1.09806 0
M  V30 48715 O 4586.71 5.20307 2.33745 0
M  V30 48716 O 4585.64 5.9923 0.566303 0
M  V30 48717 H 4589.47 2.94867 -0.727137 0
M  V30 48718 H 4587.05 1.43341 -0.42116 0
M  V30 48719 H 4588.93 3.93001 1.5208 0
M  V30 48720 H 4587.61 2.74904 1.70908 0
M  V30 48721 H 4586.52 3.72009 -0.394966 0
M  V30 48722 H 4587.85 4.89653 -0.500071 0
M  V30 48723 N 4589.5 0.403378 1.5235 0
M  V30 48724 C 4590.46 -0.412971 2.25449 0
M  V30 48725 C 4591.46 -0.978468 1.27603 0
M  V30 48726 O 4592.65 -0.858252 1.5159 0
M  V30 48727 C 4589.79 -1.58076 3.02034 0
M  V30 48728 H 4590.98 0.2272 2.99038 0
M  V30 48729 H 4588.53 0.155777 1.55522 0
M  V30 48730 H 4589.27 -2.25796 2.3278 0
M  V30 48731 H 4589.05 -1.18182 3.73866 0
M  V30 48732 H 4590.54 -2.15837 3.57497 0
M  V30 48733 N 4590.98 -1.57033 0.133622 0
M  V30 48734 C 4591.91 -2.13179 -0.841869 0
M  V30 48735 C 4592.92 -1.07798 -1.21998 0
M  V30 48736 O 4594.11 -1.35121 -1.16638 0
M  V30 48737 C 4591.21 -2.62855 -2.13917 0
M  V30 48738 C 4590.39 -3.92492 -1.9305 0
M  V30 48739 C 4589.44 -4.27616 -3.06645 0
M  V30 48740 O 4588.47 -4.96178 -2.78919 0
M  V30 48741 N 4589.67 -3.86115 -4.33469 0
M  V30 48742 H 4592.44 -2.97505 -0.362088 0
M  V30 48743 H 4590 -1.61822 -0.0503631 0
M  V30 48744 H 4591.99 -2.83373 -2.88932 0
M  V30 48745 H 4590.56 -1.83328 -2.53199 0
M  V30 48746 H 4589.78 -3.80736 -1.02146 0
M  V30 48747 H 4591.07 -4.77231 -1.76431 0
M  V30 48748 H 4590.47 -3.30844 -4.58866 0
M  V30 48749 H 4589.02 -4.11712 -5.05309 0
M  V30 48750 N 4592.46 0.140167 -1.56975 0
M  V30 48751 C 4593.39 1.17448 -2.01812 0
M  V30 48752 C 4594.37 1.44412 -0.898845 0
M  V30 48753 O 4595.55 1.55216 -1.16712 0
M  V30 48754 C 4592.68 2.50599 -2.40453 0
M  V30 48755 C 4591.64 2.38143 -3.55629 0
M  V30 48756 C 4590.96 3.76065 -3.80104 0
M  V30 48757 C 4592.26 1.85974 -4.88069 0
M  V30 48758 H 4593.96 0.801641 -2.88468 0
M  V30 48759 H 4591.5 0.384171 -1.38781 0
M  V30 48760 H 4593.46 3.23188 -2.70421 0
M  V30 48761 H 4592.18 2.89732 -1.50742 0
M  V30 48762 H 4590.84 1.68005 -3.25837 0
M  V30 48763 H 4590.49 4.12646 -2.87633 0
M  V30 48764 H 4590.19 3.6859 -4.57619 0
M  V30 48765 H 4591.71 4.50192 -4.12504 0
M  V30 48766 H 4593.12 2.48362 -5.1671 0
M  V30 48767 H 4591.52 1.89373 -5.69436 0
M  V30 48768 H 4592.59 0.815854 -4.77987 0
M  V30 48769 N 4593.93 1.52181 0.409726 0
M  V30 48770 C 4595.18 1.65438 1.15382 0
M  V30 48771 C 4595.5 0.390124 1.9167 0
M  V30 48772 O 4596.7 0.402493 2.685 0
M  V30 48773 C 4595.16 2.92286 2.09992 0
M  V30 48774 C 4594.77 4.25818 1.39224 0
M  V30 48775 C 4596.51 3.14907 2.84664 0
M  V30 48776 C 4594.42 5.4379 2.32479 0
M  V30 48777 H 4593.35 0.616282 0.434411 0
M  V30 48778 H 4596 1.78668 0.418339 0
M  V30 48779 H 4594.38 2.72754 2.87091 0
M  V30 48780 H 4595.55 4.5583 0.674939 0
M  V30 48781 H 4593.87 4.09295 0.765953 0
M  V30 48782 H 4596.47 4.00223 3.54578 0
M  V30 48783 H 4596.81 2.29115 3.4758 0
M  V30 48784 H 4597.34 3.34908 2.14666 0
M  V30 48785 H 4594.08 6.31926 1.74211 0
M  V30 48786 H 4593.6 5.18117 3.02183 0
M  V30 48787 H 4595.28 5.76845 2.93017 0
M  V30 48788 N 4595.41 -0.666919 1.42793 0
M  V30 48789 C 4596.83 -0.980983 1.25892 0
M  V30 48790 C 4597.03 -2.00792 0.168765 0
M  V30 48791 O 4596.08 -2.48323 -0.457383 0
M  V30 48792 C 4597.4 -1.47829 2.61853 0
M  V30 48793 C 4598.95 -1.59565 2.69273 0
M  V30 48794 C 4599.42 -2.1269 4.05619 0
M  V30 48795 N 4600.91 -2.20012 4.07614 0
M  V30 48796 C 4601.65 -2.62209 5.09935 0
M  V30 48797 N 4601.14 -3.03802 6.22637 0
M  V30 48798 N 4602.94 -2.62028 4.97291 0
M  V30 48799 H 4595.09 0.0128638 2.12396 0
M  V30 48800 H 4597.35 -0.0567925 0.946297 0
M  V30 48801 H 4597.06 -0.798179 3.42523 0
M  V30 48802 H 4596.93 -2.45569 2.86314 0
M  V30 48803 H 4599.32 -2.2668 1.88944 0
M  V30 48804 H 4599.4 -0.602932 2.48593 0
M  V30 48805 H 4599.04 -1.46181 4.86409 0
M  V30 48806 H 4598.97 -3.12767 4.23656 0
M  V30 48807 H 4601.46 -1.90696 3.26256 0
M  V30 48808 H 4601.78 -3.3471 6.96555 0
M  V30 48809 H 4600.12 -3.0164 6.2613 0
M  V30 48810 H 4603.31 -2.28901 4.08316 0
M  V30 48811 H 4603.48 -2.94593 5.77165 0
M  V30 48812 N 4596.89 -1.29096 -0.903985 0
M  V30 48813 C 4597.82 -1.09665 -2.01262 0
M  V30 48814 C 4598.84 -0.0454301 -1.62737 0
M  V30 48815 O 4600.02 -0.289508 -1.76137 0
M  V30 48816 C 4597.12 -0.646395 -3.32678 0
M  V30 48817 C 4596.3 -1.77519 -3.99757 0
M  V30 48818 C 4595.36 -1.31667 -5.09461 0
M  V30 48819 O 4594.38 -2.02063 -5.32127 0
M  V30 48820 N 4595.58 -0.185201 -5.80204 0
M  V30 48821 H 4598.35 -2.05143 -2.18487 0
M  V30 48822 H 4595.91 -1.20979 -1.0759 0
M  V30 48823 H 4597.9 -0.323048 -4.03409 0
M  V30 48824 H 4596.47 0.215806 -3.11854 0
M  V30 48825 H 4595.69 -2.26763 -3.22447 0
M  V30 48826 H 4596.98 -2.53214 -4.41316 0
M  V30 48827 H 4596.38 0.401823 -5.64271 0
M  V30 48828 H 4594.94 0.0788067 -6.51752 0
M  V30 48829 N 4598.37 1.11377 -1.11503 0
M  V30 48830 C 4599.3 2.16618 -0.717766 0
M  V30 48831 C 4600.28 1.60059 0.286357 0
M  V30 48832 O 4601.46 1.87613 0.182623 0
M  V30 48833 C 4598.59 3.38645 -0.0608455 0
M  V30 48834 C 4597.64 4.1387 -1.03022 0
M  V30 48835 S 4598.47 4.70722 -2.55305 0
M  V30 48836 C 4599.63 5.96072 -1.90916 0
M  V30 48837 H 4599.86 2.49981 -1.60924 0
M  V30 48838 H 4597.39 1.23012 -0.933136 0
M  V30 48839 H 4599.35 4.09314 0.311821 0
M  V30 48840 H 4598.01 3.0354 0.807595 0
M  V30 48841 H 4597.2 5.01331 -0.518029 0
M  V30 48842 H 4596.81 3.48965 -1.34534 0
M  V30 48843 H 4599.1 6.65944 -1.24601 0
M  V30 48844 H 4600.04 6.51937 -2.76377 0
M  V30 48845 H 4600.45 5.47647 -1.36904 0
M  V30 48846 N 4599.85 0.905449 1.28994 0
M  V30 48847 C 4600.76 0.392327 2.31296 0
M  V30 48848 C 4601.77 -0.515831 1.66178 0
M  V30 48849 O 4602.95 -0.404024 1.97306 0
M  V30 48850 C 4600.01 -0.366739 3.44755 0
M  V30 48851 C 4599.08 0.573634 4.2545 0
M  V30 48852 C 4598.31 -0.149301 5.33491 0
M  V30 48853 O 4598.53 -1.37235 5.53645 0
M  V30 48854 O 4597.47 0.511129 5.99726 0
M  V30 48855 H 4601.29 1.2412 2.77178 0
M  V30 48856 H 4598.88 0.669973 1.33535 0
M  V30 48857 H 4600.76 -0.795761 4.13818 0
M  V30 48858 H 4599.43 -1.19158 3.0097 0
M  V30 48859 H 4598.34 1.05189 3.59007 0
M  V30 48860 H 4599.67 1.36505 4.72892 0
M  V30 48861 N 4601.33 -1.42718 0.668539 0
M  V30 48862 C 4602.57 -2.01225 0.187839 0
M  V30 48863 C 4602.89 -1.53097 -1.20774 0
M  V30 48864 O 4602.16 -0.749994 -1.80975 0
M  V30 48865 H 4600.74 -0.744038 0.0664533 0
M  V30 48866 H 4603.41 -1.7472 0.863644 0
M  V30 48867 H 4602.5 -3.11556 0.184275 0
M  V30 48868 N 4602.8 -0.411452 -1.52134 0
M  V30 48869 C 4603.71 0.419693 -2.30815 0
M  V30 48870 C 4604.73 1.05145 -1.38638 0
M  V30 48871 O 4605.91 1.05246 -1.71713 0
M  V30 48872 C 4602.97 1.52008 -3.116 0
M  V30 48873 C 4602.03 0.911142 -4.1952 0
M  V30 48874 C 4601.26 1.95909 -4.96443 0
M  V30 48875 O 4601.49 3.17758 -4.73694 0
M  V30 48876 O 4600.42 1.56403 -5.81224 0
M  V30 48877 H 4604.25 -0.221911 -3.02888 0
M  V30 48878 H 4601.83 -0.174599 -1.48376 0
M  V30 48879 H 4603.71 2.15885 -3.619 0
M  V30 48880 H 4602.39 2.14624 -2.42318 0
M  V30 48881 H 4601.3 0.235025 -3.73361 0
M  V30 48882 H 4602.63 0.328867 -4.911 0
M  V30 48883 N 4604.28 1.56959 -0.141948 0
M  V30 48884 C 4605.53 1.95574 0.509415 0
M  V30 48885 C 4605.85 1.02752 1.65732 0
M  V30 48886 O 4605.12 0.0880999 1.95702 0
M  V30 48887 H 4603.7 0.722121 0.191179 0
M  V30 48888 H 4606.36 1.93696 -0.216264 0
M  V30 48889 H 4605.46 2.99174 0.888895 0
M  V30 48890 N 4605.76 -0.13184 1.57048 0
M  V30 48891 C 4607.01 -0.843115 1.84444 0
M  V30 48892 C 4607.34 -1.80127 0.725813 0
M  V30 48893 O 4606.61 -1.92625 -0.269402 0
M  V30 48894 C 4606.9 -1.60431 3.22388 0
M  V30 48895 C 4606.75 -0.666626 4.44833 0
M  V30 48896 C 4608.07 -2.56341 3.57739 0
M  V30 48897 H 4605.19 -0.305057 0.670902 0
M  V30 48898 H 4607.83 -0.107773 1.89694 0
M  V30 48899 H 4605.98 -2.23117 3.18043 0
M  V30 48900 H 4607.65 -0.0496025 4.61273 0
M  V30 48901 H 4605.89 0.0227615 4.33794 0
M  V30 48902 H 4606.57 -1.2356 5.37993 0
M  V30 48903 H 4609.04 -2.03767 3.62792 0
M  V30 48904 H 4607.92 -3.06641 4.55261 0
M  V30 48905 H 4608.18 -3.38409 2.84485 0
M  V30 48906 N 4607.24 -1.52396 -0.40165 0
M  V30 48907 C 4608.17 -1.79236 -1.49655 0
M  V30 48908 C 4609.15 -0.64371 -1.5745 0
M  V30 48909 O 4610.33 -0.89005 -1.72603 0
M  V30 48910 C 4607.46 -1.94981 -2.87402 0
M  V30 48911 C 4606.42 -3.10614 -2.94454 0
M  V30 48912 C 4605.74 -3.11593 -4.34528 0
M  V30 48913 C 4607.04 -4.4993 -2.65254 0
M  V30 48914 H 4608.74 -2.70921 -1.27444 0
M  V30 48915 H 4606.28 -1.30364 -0.611654 0
M  V30 48916 H 4608.24 -2.1234 -3.63991 0
M  V30 48917 H 4606.96 -0.999741 -3.10922 0
M  V30 48918 H 4605.62 -2.93017 -2.2031 0
M  V30 48919 H 4605.27 -2.14293 -4.55069 0
M  V30 48920 H 4604.97 -3.89262 -4.40169 0
M  V30 48921 H 4606.49 -3.31091 -5.13041 0
M  V30 48922 H 4607.91 -4.67694 -3.31564 0
M  V30 48923 H 4606.3 -5.29574 -2.82262 0
M  V30 48924 H 4607.37 -4.57513 -1.60654 0
M  V30 48925 N 4608.72 0.659337 -1.43145 0
M  V30 48926 C 4609.94 1.45216 -1.48078 0
M  V30 48927 C 4610.37 1.87844 -0.098061 0
M  V30 48928 O 4609.72 1.56988 0.906885 0
M  V30 48929 C 4609.77 2.6674 -2.42657 0
M  V30 48930 O 4608.88 3.65576 -1.9086 0
M  V30 48931 H 4608.22 0.435651 -0.501103 0
M  V30 48932 H 4610.75 0.807366 -1.87997 0
M  V30 48933 H 4610.76 3.14628 -2.59756 0
M  V30 48934 H 4609.43 2.35055 -3.43107 0
M  V30 48935 H 4608.01 3.24687 -1.83392 0
M  V30 48936 N 4610.19 1.29574 0.897126 0
M  V30 48937 C 4611.14 1.14923 2.00153 0
M  V30 48938 C 4612.11 0.0418733 1.66047 0
M  V30 48939 O 4613.3 0.20986 1.89642 0
M  V30 48940 C 4610.44 0.834425 3.3486 0
M  V30 48941 C 4609.55 2.02247 3.81733 0
M  V30 48942 C 4608.68 1.64682 5.05028 0
M  V30 48943 C 4607.72 2.80052 5.44277 0
M  V30 48944 N 4606.86 2.42866 6.58757 0
M  V30 48945 H 4611.7 2.0941 2.12017 0
M  V30 48946 H 4609.24 1.04204 1.03827 0
M  V30 48947 H 4611.19 0.632581 4.12376 0
M  V30 48948 H 4609.82 -0.0735522 3.22716 0
M  V30 48949 H 4608.88 2.33594 3.0023 0
M  V30 48950 H 4610.19 2.88688 4.06769 0
M  V30 48951 H 4609.34 1.40801 5.90136 0
M  V30 48952 H 4608.08 0.753935 4.81837 0
M  V30 48953 H 4607.09 3.04613 4.57702 0
M  V30 48954 H 4608.31 3.70009 5.69447 0
M  V30 48955 H 4606.26 1.56068 6.37165 0
M  V30 48956 H 4606.17 3.22839 6.83601 0
M  V30 48957 H 4607.44 2.22311 7.47126 0
M  V30 48958 N 4611.67 -1.10784 1.12092 0
M  V30 48959 C 4612.63 -2.15204 0.788653 0
M  V30 48960 C 4613.63 -1.5961 -0.195261 0
M  V30 48961 O 4614.82 -1.74174 0.0300805 0
M  V30 48962 C 4611.96 -3.40469 0.171294 0
M  V30 48963 H 4613.15 -2.4611 1.71377 0
M  V30 48964 H 4610.7 -1.26085 0.923696 0
M  V30 48965 H 4611.44 -3.15179 -0.763721 0
M  V30 48966 H 4611.22 -3.82105 0.879648 0
M  V30 48967 H 4612.71 -4.17576 -0.0448132 0
M  V30 48968 N 4613.15 -0.912277 -1.28512 0
M  V30 48969 C 4614.43 -0.463664 -1.90025 0
M  V30 48970 C 4614.81 1.05747 -1.82704 0
M  V30 48971 O 4614.16 1.90488 -1.26201 0
M  V30 48972 C 4614.37 -0.99237 -3.34594 0
M  V30 48973 C 4615.71 -1.04358 -4.11576 0
M  V30 48974 O 4616.74 -0.940911 -3.43548 0
M  V30 48975 O 4615.6 -1.19969 -5.33169 0
M  V30 48976 H 4612.69 -0.146694 -0.813886 0
M  V30 48977 H 4615.24 -1.00296 -1.36889 0
M  V30 48978 H 4614.01 -2.03634 -3.34139 0
M  V30 48979 H 4613.63 -0.433811 -3.95226 0
M  V30 48980 N 4614.63 1.42361 -0.676098 0
M  V30 48981 C 4615.56 2.33497 -0.0125653 0
M  V30 48982 C 4616.54 1.5075 0.787928 0
M  V30 48983 O 4617.72 1.79349 0.744821 0
M  V30 48984 C 4614.85 3.3438 0.938465 0
M  V30 48985 C 4613.81 4.2729 0.246472 0
M  V30 48986 C 4613.13 5.18391 1.31053 0
M  V30 48987 C 4614.43 5.14913 -0.875306 0
M  V30 48988 H 4616.13 2.89231 -0.773695 0
M  V30 48989 H 4613.67 1.39072 -0.373509 0
M  V30 48990 H 4615.63 3.97049 1.41174 0
M  V30 48991 H 4614.35 2.76953 1.73103 0
M  V30 48992 H 4613.01 3.66017 -0.206584 0
M  V30 48993 H 4612.66 4.5729 2.09512 0
M  V30 48994 H 4612.36 5.81381 0.852635 0
M  V30 48995 H 4613.88 5.83935 1.78471 0
M  V30 48996 H 4615.3 5.7126 -0.483184 0
M  V30 48997 H 4613.69 5.86743 -1.25907 0
M  V30 48998 H 4614.76 4.53236 -1.72351 0
M  V30 48999 N 4616.11 0.419515 1.51914 0
M  V30 49000 C 4617.02 -0.407447 2.31035 0
M  V30 49001 C 4618.03 -1.04409 1.39194 0
M  V30 49002 O 4619.21 -1.04334 1.72268 0
M  V30 49003 C 4616.27 -1.50354 3.12401 0
M  V30 49004 C 4615.33 -0.888881 4.19997 0
M  V30 49005 C 4614.57 -1.93274 4.97474 0
M  V30 49006 O 4614.79 -3.15242 4.75372 0
M  V30 49007 O 4613.72 -1.53318 5.82046 0
M  V30 49008 H 4617.55 0.237971 3.02766 0
M  V30 49009 H 4615.14 0.182465 1.48282 0
M  V30 49010 H 4617.02 -2.13963 3.6304 0
M  V30 49011 H 4615.69 -2.13336 2.43453 0
M  V30 49012 H 4614.6 -0.215222 3.7348 0
M  V30 49013 H 4615.93 -0.302819 4.91268 0
M  V30 49014 N 4617.58 -1.56882 0.15027 0
M  V30 49015 C 4618.53 -2.18217 -0.805236 0
M  V30 49016 C 4619.53 -1.1401 -1.25292 0
M  V30 49017 O 4620.73 -1.32254 -1.22102 0
M  V30 49018 H 4617.11 -0.698772 -0.277889 0
M  V30 49019 H 4619.08 -2.97232 -0.263757 0
M  V30 49020 C 4617.83 -2.82072 -2.03299 0
M  V30 49021 H 4617.15 -3.61974 -1.6975 0
M  V30 49022 H 4618.59 -3.28486 -2.68091 0
M  V30 49023 C 4617.05 -1.80749 -2.84309 0
M  V30 49024 O 4617.58 -1.27996 -3.80762 0
M  V30 49025 N 4615.79 -1.49978 -2.48907 0
M  V30 49026 H 4615.33 -1.93068 -1.70535 0
M  V30 49027 H 4615.29 -0.824324 -3.03401 0
M  V30 49028 N 4619.06 0.12351 -1.57115 0
M  V30 49029 C 4620.47 0.681137 -1.73832 0
M  V30 49030 C 4620.82 1.80532 -0.768277 0
M  V30 49031 O 4619.95 2.16317 0.0598343 0
M  V30 49032 C 4620.54 1.24235 -3.152 0
M  V30 49033 C 4619.1 1.74631 -3.33438 0
M  V30 49034 C 4618.25 0.644189 -2.69714 0
M  V30 49035 H 4621.2 -0.10237 -1.58369 0
M  V30 49036 H 4621.22 2.11205 -3.16501 0
M  V30 49037 H 4620.73 0.423927 -3.85778 0
M  V30 49038 H 4618.84 2.58965 -2.67895 0
M  V30 49039 H 4618.95 1.85886 -4.41569 0
M  V30 49040 H 4617.31 1.07668 -2.30824 0
M  V30 49041 H 4618.1 -0.163179 -3.42912 0
M  V30 49042 N 4620.54 1.52607 0.393562 0
M  V30 49043 C 4621.49 1.73441 1.47994 0
M  V30 49044 C 4622.47 0.588439 1.49754 0
M  V30 49045 O 4623.67 0.846101 1.55467 0
M  V30 49046 C 4620.8 1.90257 2.85757 0
M  V30 49047 C 4619.88 3.10773 2.88584 0
M  V30 49048 N 4620.27 4.33205 2.61088 0
M  V30 49049 C 4618.57 3.10925 3.19752 0
M  V30 49050 C 4619.27 5.1478 2.70881 0
M  V30 49051 N 4618.25 4.50366 3.04419 0
M  V30 49052 H 4622.05 2.65732 1.25554 0
M  V30 49053 H 4619.56 1.50852 0.60146 0
M  V30 49054 H 4621.56 2.03304 3.63969 0
M  V30 49055 H 4620.22 0.991771 3.09183 0
M  V30 49056 H 4621.23 4.61416 2.35193 0
M  V30 49057 H 4617.91 2.29639 3.48672 0
M  V30 49058 H 4619.3 6.22364 2.53206 0
M  V30 49059 N 4622.02 -0.651737 1.43493 0
M  V30 49060 C 4623.43 -1.23295 1.40197 0
M  V30 49061 C 4623.78 -1.95909 0.106796 0
M  V30 49062 O 4622.91 -2.01319 -0.793702 0
M  V30 49063 C 4623.5 -2.24248 2.53965 0
M  V30 49064 C 4622.06 -2.77843 2.5393 0
M  V30 49065 C 4621.21 -1.52509 2.31595 0
M  V30 49066 H 4624.16 -0.443664 1.52372 0
M  V30 49067 H 4624.18 -3.06452 2.25538 0
M  V30 49068 H 4623.69 -1.7137 3.48216 0
M  V30 49069 H 4621.79 -3.34781 1.63563 0
M  V30 49070 H 4621.9 -3.25287 3.51746 0
M  V30 49071 H 4620.27 -1.79909 1.80291 0
M  V30 49072 H 4621.05 -1.01563 3.27933 0
M  V30 49073 N 4623.5 -1.30048 -0.890242 0
M  V30 49074 C 4624.43 -1.18548 -2.01168 0
M  V30 49075 C 4625.41 -0.0773953 -1.69924 0
M  V30 49076 O 4626.59 -0.258518 -1.92472 0
M  V30 49077 C 4623.72 -0.871059 -3.36199 0
M  V30 49078 C 4622.68 -1.9365 -3.81685 0
M  V30 49079 C 4622 -1.47518 -5.13948 0
M  V30 49080 C 4623.3 -3.3468 -4.00982 0
M  V30 49081 H 4625 -2.12367 -2.11047 0
M  V30 49082 H 4622.54 -1.02242 -1.01403 0
M  V30 49083 H 4624.5 -0.777286 -4.14169 0
M  V30 49084 H 4623.22 0.102811 -3.26438 0
M  V30 49085 H 4621.88 -2.01982 -3.05939 0
M  V30 49086 H 4621.53 -0.489727 -5.0061 0
M  V30 49087 H 4621.23 -2.1878 -5.45352 0
M  V30 49088 H 4622.75 -1.3951 -5.94449 0
M  V30 49089 H 4624.16 -3.29137 -4.69406 0
M  V30 49090 H 4622.56 -4.03982 -4.43755 0
M  V30 49091 H 4623.63 -3.76959 -3.05008 0
M  V30 49092 N 4624.97 1.10188 -1.12678 0
M  V30 49093 C 4625.88 2.20169 -0.810104 0
M  V30 49094 C 4626.9 1.72822 0.202127 0
M  V30 49095 O 4628.08 2.01369 0.0350983 0
M  V30 49096 C 4625.14 3.4563 -0.272129 0
M  V30 49097 C 4624.2 4.07699 -1.34461 0
M  V30 49098 C 4623.44 5.27172 -0.832214 0
M  V30 49099 O 4623.66 5.69427 0.333084 0
M  V30 49100 O 4622.59 5.80162 -1.60297 0
M  V30 49101 H 4626.42 2.49695 -1.72876 0
M  V30 49102 H 4624 1.18974 -0.903639 0
M  V30 49103 H 4625.89 4.21394 0.0228737 0
M  V30 49104 H 4624.56 3.17725 0.619053 0
M  V30 49105 H 4623.47 3.33608 -1.69282 0
M  V30 49106 H 4624.8 4.39813 -2.20965 0
M  V30 49107 N 4626.45 0.919079 1.28026 0
M  V30 49108 C 4627.4 0.410085 2.27128 0
M  V30 49109 C 4628.37 -0.518349 1.57805 0
M  V30 49110 O 4629.55 -0.439386 1.85672 0
M  V30 49111 C 4626.69 -0.338934 3.43432 0
M  V30 49112 C 4625.81 0.622618 4.2749 0
M  V30 49113 C 4624.94 -0.14538 5.31001 0
M  V30 49114 C 4623.98 0.80944 6.06724 0
M  V30 49115 N 4623.12 0.0746196 7.0206 0
M  V30 49116 H 4627.96 1.2602 2.70042 0
M  V30 49117 H 4625.5 0.63271 1.32798 0
M  V30 49118 H 4627.45 -0.789442 4.09663 0
M  V30 49119 H 4626.08 -1.15335 3.01492 0
M  V30 49120 H 4625.14 1.19166 3.61253 0
M  V30 49121 H 4626.45 1.35269 4.80108 0
M  V30 49122 H 4625.6 -0.656205 6.03141 0
M  V30 49123 H 4624.34 -0.908474 4.79164 0
M  V30 49124 H 4623.35 1.33159 5.33431 0
M  V30 49125 H 4624.57 1.57218 6.60651 0
M  V30 49126 H 4622.52 -0.670386 6.52566 0
M  V30 49127 H 4622.43 0.744421 7.52326 0
M  V30 49128 H 4623.7 -0.415835 7.7839 0
M  V30 49129 N 4627.93 -1.42001 0.683638 0
M  V30 49130 C 4628.88 -2.30797 0.010812 0
M  V30 49131 C 4629.85 -1.46453 -0.783637 0
M  V30 49132 O 4631.03 -1.75266 -0.754094 0
M  V30 49133 C 4628.17 -3.32383 -0.928189 0
M  V30 49134 C 4627.29 -4.31814 -0.126624 0
M  V30 49135 C 4626.42 -5.20472 -1.06218 0
M  V30 49136 C 4625.46 -6.11578 -0.25282 0
M  V30 49137 N 4624.6 -6.92758 -1.14155 0
M  V30 49138 H 4629.44 -2.87778 0.773828 0
M  V30 49139 H 4626.97 -1.41744 0.393332 0
M  V30 49140 H 4628.93 -3.89818 -1.48652 0
M  V30 49141 H 4627.56 -2.76982 -1.65774 0
M  V30 49142 H 4626.61 -3.76425 0.548462 0
M  V30 49143 H 4627.93 -4.96274 0.501367 0
M  V30 49144 H 4627.08 -5.82683 -1.69015 0
M  V30 49145 H 4625.82 -4.5621 -1.72404 0
M  V30 49146 H 4624.82 -5.48427 0.3883 0
M  V30 49147 H 4626.05 -6.77891 0.405077 0
M  V30 49148 H 4624 -6.31116 -1.78965 0
M  V30 49149 H 4623.91 -7.53857 -0.568846 0
M  V30 49150 H 4625.18 -7.59447 -1.7567 0
M  V30 49151 N 4629.41 -0.427565 -1.51689 0
M  V30 49152 C 4630.66 0.143608 -2.01188 0
M  V30 49153 C 4630.97 1.44637 -1.31679 0
M  V30 49154 O 4632.18 2.0999 -1.72094 0
M  V30 49155 C 4630.63 0.306476 -3.58593 0
M  V30 49156 C 4630.24 -0.985279 -4.37031 0
M  V30 49157 C 4631.99 0.831945 -4.16268 0
M  V30 49158 C 4629.89 -0.788588 -5.86119 0
M  V30 49159 H 4628.82 0.0574436 -0.751809 0
M  V30 49160 H 4631.47 -0.555833 -1.74879 0
M  V30 49161 H 4629.86 1.06869 -3.81307 0
M  V30 49162 H 4631.03 -1.75507 -4.26068 0
M  V30 49163 H 4629.34 -1.43854 -3.90762 0
M  V30 49164 H 4631.94 0.995433 -5.25352 0
M  V30 49165 H 4632.28 1.81173 -3.74809 0
M  V30 49166 H 4632.82 0.128304 -3.97593 0
M  V30 49167 H 4629.56 -1.74047 -6.31971 0
M  V30 49168 H 4629.08 -0.0584251 -5.99772 0
M  V30 49169 H 4630.76 -0.437949 -6.45516 0
M  V30 49170 N 4630.89 1.568 -0.158588 0
M  V30 49171 C 4632.12 2.00861 0.496232 0
M  V30 49172 C 4632.53 1.03876 1.57655 0
M  V30 49173 O 4631.89 0.0375806 1.82461 0
M  V30 49174 C 4631.94 3.44794 1.08626 0
M  V30 49175 O 4631.66 4.38073 0.0490782 0
M  V30 49176 C 4633.16 4.04191 1.82056 0
M  V30 49177 H 4630.38 0.658644 0.128175 0
M  V30 49178 H 4632.92 2.02884 -0.256577 0
M  V30 49179 H 4631.08 3.43586 1.78963 0
M  V30 49180 H 4631.49 5.22272 0.482919 0
M  V30 49181 H 4632.97 5.06864 2.18615 0
M  V30 49182 H 4633.44 3.45559 2.71082 0
M  V30 49183 H 4634.05 4.09064 1.1639 0
M  V30 49184 N 4632.37 -0.115176 1.57179 0
M  V30 49185 C 4633.3 -1.16687 1.97273 0
M  V30 49186 C 4634.31 -1.37442 0.87255 0
M  V30 49187 O 4635.5 -1.3645 1.15082 0
M  V30 49188 C 4632.6 -2.52619 2.25914 0
M  V30 49189 C 4631.77 -2.52414 3.5722 0
M  V30 49190 C 4630.83 -3.7012 3.74029 0
M  V30 49191 O 4629.86 -3.53531 4.461 0
M  V30 49192 N 4631.06 -4.88833 3.13085 0
M  V30 49193 H 4633.82 -0.825779 2.88099 0
M  V30 49194 H 4631.39 -0.304405 1.59013 0
M  V30 49195 H 4633.38 -3.29928 2.3437 0
M  V30 49196 H 4631.95 -2.78895 1.41196 0
M  V30 49197 H 4631.17 -1.60792 3.59916 0
M  V30 49198 H 4632.46 -2.49337 4.43518 0
M  V30 49199 H 4631.85 -5.05216 2.54507 0
M  V30 49200 H 4630.41 -5.63806 3.27057 0
M  V30 49201 N 4633.84 -1.52813 -0.385464 0
M  V30 49202 C 4635.09 -1.69229 -1.12841 0
M  V30 49203 C 4635.44 -0.428706 -1.87563 0
M  V30 49204 O 4634.74 0.577726 -1.82682 0
M  V30 49205 C 4634.93 -2.86863 -2.13177 0
M  V30 49206 C 4634.76 -4.2454 -1.4831 0
M  V30 49207 C 4633.53 -4.89705 -1.24568 0
M  V30 49208 C 4635.73 -5.05797 -0.931323 0
M  V30 49209 N 4633.71 -6.11355 -0.558429 0
M  V30 49210 C 4635.08 -6.18881 -0.372334 0
M  V30 49211 C 4637.14 -4.90966 -0.828076 0
M  V30 49212 C 4635.84 -7.18756 0.279808 0
M  V30 49213 C 4637.87 -5.91096 -0.189748 0
M  V30 49214 C 4637.23 -7.03487 0.358454 0
M  V30 49215 H 4633.33 -0.672694 -0.398756 0
M  V30 49216 H 4635.91 -1.90172 -0.417461 0
M  V30 49217 H 4634.08 -2.67494 -2.81605 0
M  V30 49218 H 4635.81 -2.92198 -2.80004 0
M  V30 49219 H 4632.57 -4.4849 -1.52162 0
M  V30 49220 H 4632.99 -6.76607 -0.230745 0
M  V30 49221 H 4637.63 -4.04278 -1.2377 0
M  V30 49222 H 4635.35 -8.0505 0.701435 0
M  V30 49223 H 4638.94 -5.81694 -0.111059 0
M  V30 49224 H 4637.82 -7.79639 0.844588 0
M  V30 49225 N 4635.32 0.644118 -1.43836 0
M  V30 49226 C 4636.25 1.76809 -1.52515 0
M  V30 49227 C 4637.23 1.65821 -0.37911 0
M  V30 49228 O 4638.42 1.84779 -0.597531 0
M  V30 49229 C 4635.55 3.15283 -1.45651 0
M  V30 49230 C 4634.5 3.41044 -2.58598 0
M  V30 49231 C 4633.83 4.79413 -2.36786 0
M  V30 49232 C 4635.13 3.34888 -4.00808 0
M  V30 49233 H 4636.82 1.69803 -2.46591 0
M  V30 49234 H 4634.37 0.815501 -1.18683 0
M  V30 49235 H 4636.32 3.93675 -1.50325 0
M  V30 49236 H 4635.04 3.23041 -0.480838 0
M  V30 49237 H 4633.7 2.65026 -2.53292 0
M  V30 49238 H 4633.35 4.83858 -1.37441 0
M  V30 49239 H 4633.05 4.97609 -3.12505 0
M  V30 49240 H 4634.58 5.60052 -2.43258 0
M  V30 49241 H 4635.99 4.03204 -4.07553 0
M  V30 49242 H 4634.39 3.6462 -4.76626 0
M  V30 49243 H 4635.46 2.32913 -4.25299 0
M  V30 49244 N 4636.8 1.30518 0.883332 0
M  V30 49245 C 4637.71 1.18966 2.02198 0
M  V30 49246 C 4638.73 0.109233 1.73657 0
M  V30 49247 O 4639.9 0.324483 1.98769 0
M  V30 49248 C 4636.97 0.883988 3.35241 0
M  V30 49249 C 4636.03 2.04995 3.77194 0
M  V30 49250 C 4635.26 1.75877 5.03888 0
M  V30 49251 O 4635.48 0.687476 5.66242 0
M  V30 49252 O 4634.42 2.61165 5.42288 0
M  V30 49253 H 4638.24 2.14624 2.14873 0
M  V30 49254 H 4635.83 1.10128 1.00957 0
M  V30 49255 H 4637.71 0.72879 4.1505 0
M  V30 49256 H 4636.39 -0.042666 3.23672 0
M  V30 49257 H 4635.29 2.26048 2.98082 0
M  V30 49258 H 4636.63 2.95839 3.9337 0
M  V30 49259 N 4638.28 -1.09589 1.13261 0
M  V30 49260 C 4639.51 -1.85496 0.916443 0
M  V30 49261 C 4639.92 -1.81071 -0.534674 0
M  V30 49262 O 4639.28 -1.20567 -1.37003 0
M  V30 49263 C 4639.33 -3.33541 1.394 0
M  V30 49264 O 4639.05 -3.37918 2.78825 0
M  V30 49265 C 4640.55 -4.26295 1.21603 0
M  V30 49266 H 4637.77 -0.58598 0.326908 0
M  V30 49267 H 4640.31 -1.38483 1.50475 0
M  V30 49268 H 4638.47 -3.77989 0.84873 0
M  V30 49269 H 4638.88 -4.30243 2.99985 0
M  V30 49270 H 4640.36 -5.28335 1.59894 0
M  V30 49271 H 4640.83 -4.38917 0.15753 0
M  V30 49272 H 4641.44 -3.87662 1.74924 0
M  V30 49273 N 4639.76 -0.925856 -1.27537 0
M  V30 49274 C 4640.7 -0.422124 -2.26907 0
M  V30 49275 C 4641.67 0.509973 -1.58077 0
M  V30 49276 O 4642.86 0.429533 -1.85902 0
M  V30 49277 C 4640 0.320716 -3.43606 0
M  V30 49278 C 4639.11 -0.64528 -4.27154 0
M  V30 49279 C 4638.25 0.117218 -5.31071 0
M  V30 49280 C 4637.28 -0.841604 -6.06287 0
M  V30 49281 N 4636.42 -0.111851 -7.02011 0
M  V30 49282 H 4641.26 -1.2745 -2.6937 0
M  V30 49283 H 4638.8 -0.639744 -1.3246 0
M  V30 49284 H 4640.76 0.767706 -4.10076 0
M  V30 49285 H 4639.39 1.13735 -3.021 0
M  V30 49286 H 4638.44 -1.2108 -3.60616 0
M  V30 49287 H 4639.75 -1.37813 -4.79384 0
M  V30 49288 H 4638.9 0.62421 -6.0348 0
M  V30 49289 H 4637.64 0.88305 -4.79639 0
M  V30 49290 H 4636.65 -1.35986 -5.32717 0
M  V30 49291 H 4637.87 -1.60719 -6.59808 0
M  V30 49292 H 4635.82 0.63577 -6.52912 0
M  V30 49293 H 4635.74 -0.784309 -7.51921 0
M  V30 49294 H 4637 0.374549 -7.786 0
M  V30 49295 N 4641.23 1.41636 -0.691159 0
M  V30 49296 C 4642.48 2.00901 -0.219829 0
M  V30 49297 C 4642.8 1.54999 1.18323 0
M  V30 49298 O 4642.07 0.778691 1.79759 0
M  V30 49299 H 4640.65 0.742887 -0.0782819 0
M  V30 49300 H 4643.31 1.73324 -0.891332 0
M  V30 49301 H 4642.41 3.11223 -0.233818 0
M  V30 49302 N 4642.71 0.435603 1.5146 0
M  V30 49303 C 4643.96 -0.131638 2.02372 0
M  V30 49304 C 4644.29 -1.42512 1.31925 0
M  V30 49305 O 4643.57 -1.89604 0.433639 0
M  V30 49306 C 4643.85 -0.352175 3.58374 0
M  V30 49307 C 4643.7 0.959831 4.3944 0
M  V30 49308 C 4645.02 -1.12272 4.25539 0
M  V30 49309 H 4642.14 -0.0463678 0.73554 0
M  V30 49310 H 4644.78 0.574261 1.81114 0
M  V30 49311 H 4642.93 -0.953468 3.76618 0
M  V30 49312 H 4644.6 1.59497 4.32849 0
M  V30 49313 H 4642.85 1.56482 4.04593 0
M  V30 49314 H 4643.52 0.759586 5.46749 0
M  V30 49315 H 4645.99 -0.6134 4.11554 0
M  V30 49316 H 4644.87 -1.24579 5.34576 0
M  V30 49317 H 4645.13 -2.15034 3.86281 0
M  V30 49318 N 4644.19 -1.56714 0.166901 0
M  V30 49319 C 4645.1 -2.21334 -0.777713 0
M  V30 49320 C 4646.12 -1.20363 -1.25653 0
M  V30 49321 O 4647.29 -1.53009 -1.30958 0
M  V30 49322 C 4644.36 -2.83794 -1.99153 0
M  V30 49323 C 4643.42 -3.99953 -1.56001 0
M  V30 49324 C 4642.65 -4.59425 -2.71597 0
M  V30 49325 O 4642.87 -4.17783 -3.88347 0
M  V30 49326 O 4641.81 -5.49367 -2.45925 0
M  V30 49327 H 4645.63 -3.02606 -0.25753 0
M  V30 49328 H 4643.22 -1.49275 -0.0610868 0
M  V30 49329 H 4645.1 -3.23415 -2.70149 0
M  V30 49330 H 4643.78 -2.05522 -2.50085 0
M  V30 49331 H 4642.68 -3.6501 -0.819681 0
M  V30 49332 H 4644.02 -4.79805 -1.09765 0
M  V30 49333 N 4645.67 0.106839 -1.57237 0
M  V30 49334 C 4647.08 0.460726 -1.52805 0
M  V30 49335 C 4647.28 1.8118 -0.88181 0
M  V30 49336 O 4646.34 2.481 -0.469312 0
M  V30 49337 C 4647.65 0.434022 -2.97551 0
M  V30 49338 C 4649.2 0.516713 -3.08705 0
M  V30 49339 C 4649.68 0.520276 -4.55035 0
M  V30 49340 N 4651.17 0.581368 -4.59537 0
M  V30 49341 C 4651.9 0.605772 -5.70191 0
M  V30 49342 N 4651.4 0.587088 -6.90308 0
M  V30 49343 N 4653.19 0.649699 -5.58333 0
M  V30 49344 H 4645.34 -0.778273 -1.97628 0
M  V30 49345 H 4647.61 -0.288434 -0.903056 0
M  V30 49346 H 4647.31 -0.491319 -3.48251 0
M  V30 49347 H 4647.19 1.25736 -3.55627 0
M  V30 49348 H 4649.57 1.43247 -2.58 0
M  V30 49349 H 4649.65 -0.334538 -2.53603 0
M  V30 49350 H 4649.3 -0.391491 -5.06389 0
M  V30 49351 H 4649.23 1.38858 -5.07963 0
M  V30 49352 H 4651.72 0.601478 -3.73083 0
M  V30 49353 H 4652.03 0.608669 -7.70399 0
M  V30 49354 H 4650.38 0.554321 -6.92786 0
M  V30 49355 H 4653.57 0.661744 -4.63399 0
M  V30 49356 H 4653.74 0.66525 -6.44576 0
M  V30 49357 N 4647.15 1.53016 0.377354 0
M  V30 49358 C 4648.08 1.81595 1.46784 0
M  V30 49359 C 4649.06 0.668677 1.56406 0
M  V30 49360 O 4650.24 0.917397 1.71165 0
M  V30 49361 C 4647.37 1.99528 2.84263 0
M  V30 49362 C 4646.33 3.15259 2.89475 0
M  V30 49363 C 4645.65 3.18466 4.29515 0
M  V30 49364 C 4646.95 4.54093 2.58063 0
M  V30 49365 H 4648.65 2.72915 1.23118 0
M  V30 49366 H 4646.19 1.31321 0.590837 0
M  V30 49367 H 4648.15 2.18104 3.60567 0
M  V30 49368 H 4646.87 1.04908 3.09293 0
M  V30 49369 H 4645.53 2.96485 2.15621 0
M  V30 49370 H 4645.18 2.21506 4.51602 0
M  V30 49371 H 4644.88 3.96216 4.3392 0
M  V30 49372 H 4646.4 3.39211 5.07709 0
M  V30 49373 H 4647.81 4.7291 3.24082 0
M  V30 49374 H 4646.21 5.33997 2.73801 0
M  V30 49375 H 4647.28 4.60011 1.53356 0
M  V30 49376 N 4648.62 -0.636481 1.44176 0
M  V30 49377 C 4649.57 -1.74869 1.5063 0
M  V30 49378 C 4650.54 -1.62273 0.354477 0
M  V30 49379 O 4651.73 -1.82274 0.563973 0
M  V30 49380 C 4648.87 -3.13097 1.45136 0
M  V30 49381 C 4647.98 -3.36707 2.70652 0
M  V30 49382 C 4647.11 -4.64876 2.57029 0
M  V30 49383 C 4646.15 -4.81647 3.77734 0
M  V30 49384 N 4645.29 -6.01088 3.62819 0
M  V30 49385 H 4650.13 -1.68689 2.45658 0
M  V30 49386 H 4647.67 -0.822961 1.21925 0
M  V30 49387 H 4649.63 -3.93029 1.39943 0
M  V30 49388 H 4648.26 -3.18306 0.536783 0
M  V30 49389 H 4647.31 -2.50753 2.86054 0
M  V30 49390 H 4648.62 -3.4498 3.60264 0
M  V30 49391 H 4647.77 -5.52961 2.49639 0
M  V30 49392 H 4646.51 -4.58952 1.64969 0
M  V30 49393 H 4645.52 -3.91993 3.85515 0
M  V30 49394 H 4646.74 -4.89389 4.70824 0
M  V30 49395 H 4644.69 -5.96264 2.73506 0
M  V30 49396 H 4644.61 -6.10394 4.46044 0
M  V30 49397 H 4645.87 -6.91749 3.59311 0
M  V30 49398 N 4650.1 -1.30985 -0.876398 0
M  V30 49399 C 4651.52 -1.09502 -1.16109 0
M  V30 49400 C 4651.72 0.138679 -2.01022 0
M  V30 49401 O 4650.77 0.829851 -2.38474 0
M  V30 49402 C 4652.09 -2.36315 -1.85946 0
M  V30 49403 C 4653.64 -2.41863 -1.98674 0
M  V30 49404 C 4654.11 -3.6854 -2.71924 0
M  V30 49405 N 4655.6 -3.69397 -2.79464 0
M  V30 49406 C 4656.34 -4.64107 -3.36737 0
M  V30 49407 N 4655.83 -5.69169 -3.94992 0
M  V30 49408 N 4657.63 -4.51638 -3.34634 0
M  V30 49409 H 4649.78 -2.10119 -0.31042 0
M  V30 49410 H 4652.04 -0.926642 -0.200099 0
M  V30 49411 H 4651.75 -3.26392 -1.30999 0
M  V30 49412 H 4651.62 -2.4562 -2.8627 0
M  V30 49413 H 4654.01 -1.52258 -2.52787 0
M  V30 49414 H 4654.09 -2.36526 -0.974117 0
M  V30 49415 H 4653.73 -4.58507 -2.1848 0
M  V30 49416 H 4653.66 -3.71141 -3.7358 0
M  V30 49417 H 4656.15 -2.93446 -2.38112 0
M  V30 49418 H 4656.47 -6.37525 -4.36786 0
M  V30 49419 H 4654.81 -5.7295 -3.93386 0
M  V30 49420 H 4658 -3.68738 -2.88357 0
M  V30 49421 H 4658.17 -5.25628 -3.78972 0
M  V30 49422 N 4651.58 1.08987 -1.13841 0
M  V30 49423 C 4652.51 2.15047 -0.763552 0
M  V30 49424 C 4653.49 1.6063 0.252342 0
M  V30 49425 O 4654.68 1.87958 0.142787 0
M  V30 49426 C 4651.8 3.3844 -0.132664 0
M  V30 49427 C 4650.85 4.11592 -1.11778 0
M  V30 49428 S 4651.68 4.65201 -2.65232 0
M  V30 49429 C 4652.84 5.91888 -2.03516 0
M  V30 49430 H 4653.07 2.46512 -1.66191 0
M  V30 49431 H 4650.6 1.21005 -0.959018 0
M  V30 49432 H 4652.56 4.09883 0.22493 0
M  V30 49433 H 4651.22 3.05185 0.743028 0
M  V30 49434 H 4650.42 5.00119 -0.624252 0
M  V30 49435 H 4650.02 3.46033 -1.41906 0
M  V30 49436 H 4652.31 6.63151 -1.38698 0
M  V30 49437 H 4653.25 6.45928 -2.90143 0
M  V30 49438 H 4653.66 5.4462 -1.4849 0
M  V30 49439 N 4653.06 0.932607 1.27044 0
M  V30 49440 C 4654.02 0.440143 2.24934 0
M  V30 49441 C 4655.02 -0.444017 1.54548 0
M  V30 49442 O 4656.21 -0.244404 1.72477 0
M  V30 49443 C 4653.34 -0.366661 3.38922 0
M  V30 49444 H 4654.54 1.3051 2.70013 0
M  V30 49445 H 4652.09 0.713756 1.39051 0
M  V30 49446 H 4652.82 -1.25022 2.99232 0
M  V30 49447 H 4652.61 0.267341 3.91188 0
M  V30 49448 H 4654.1 -0.701423 4.11667 0
M  V30 49449 N 4654.54 -1.41267 0.698661 0
M  V30 49450 C 4655.79 -2.00407 0.22802 0
M  V30 49451 C 4656.1 -1.55985 -1.18017 0
M  V30 49452 O 4657.3 -2.07706 -1.74845 0
M  V30 49453 C 4655.76 -3.58127 0.356762 0
M  V30 49454 C 4655.37 -4.1153 1.77052 0
M  V30 49455 C 4657.11 -4.24466 -0.0539477 0
M  V30 49456 C 4655.02 -5.61695 1.85075 0
M  V30 49457 H 4653.95 -0.749583 0.081492 0
M  V30 49458 H 4656.6 -1.6171 0.867306 0
M  V30 49459 H 4654.98 -3.94443 -0.350827 0
M  V30 49460 H 4656.16 -3.86627 2.50712 0
M  V30 49461 H 4654.47 -3.57729 2.13118 0
M  V30 49462 H 4657.07 -5.34698 -0.0144843 0
M  V30 49463 H 4657.41 -4.01691 -1.09318 0
M  V30 49464 H 4657.94 -3.93196 0.603475 0
M  V30 49465 H 4654.68 -5.89302 2.87061 0
M  V30 49466 H 4654.2 -5.88515 1.15804 0
M  V30 49467 H 4655.88 -6.26518 1.61506 0
M  V30 49468 N 4656.01 -0.44363 -1.51227 0
M  V30 49469 C 4657.24 0.121576 -2.07043 0
M  V30 49470 C 4657.66 1.35151 -1.30827 0
M  V30 49471 O 4657.02 1.77929 -0.347997 0
M  V30 49472 C 4657.07 0.416114 -3.58191 0
M  V30 49473 O 4656.17 1.5015 -3.84095 0
M  V30 49474 H 4655.52 -0.00089471 -0.663999 0
M  V30 49475 H 4658.05 -0.626775 -1.94763 0
M  V30 49476 H 4658.06 0.664726 -4.02549 0
M  V30 49477 H 4656.73 -0.482798 -4.13088 0
M  V30 49478 H 4655.31 1.24235 -3.51596 0
M  V30 49479 N 4657.49 1.56623 -0.175209 0
M  V30 49480 C 4658.74 1.96611 0.467816 0
M  V30 49481 C 4659.06 1.06244 1.63515 0
M  V30 49482 O 4658.33 0.129591 1.95471 0
M  V30 49483 H 4656.91 0.726014 0.175819 0
M  V30 49484 H 4659.57 1.93194 -0.257302 0
M  V30 49485 H 4658.67 3.00992 0.825236 0
M  V30 49486 N 4658.97 -0.0984986 1.57292 0
M  V30 49487 C 4660.25 -0.834093 1.76924 0
M  V30 49488 C 4660.63 -1.97099 0.755997 0
M  V30 49489 O 4659.98 -2.27475 -0.216165 0
M  V30 49490 C 4660.19 -1.33183 3.22589 0
M  V30 49491 C 4661.53 -1.77597 3.85674 0
M  V30 49492 O 4662.56 -1.42814 3.26317 0
M  V30 49493 O 4661.42 -2.41902 4.90046 0
M  V30 49494 H 4658.51 -0.397602 0.725149 0
M  V30 49495 H 4661.06 -0.0806448 1.69508 0
M  V30 49496 H 4659.83 -0.517111 3.87868 0
M  V30 49497 H 4659.45 -2.14738 3.34624 0
M  V30 49498 N 4660.45 -1.53214 -0.369234 0
M  V30 49499 C 4661.73 -1.59819 -1.12771 0
M  V30 49500 C 4662.11 -0.403474 -2.07208 0
M  V30 49501 O 4661.45 0.60659 -2.20301 0
M  V30 49502 C 4661.66 -2.94671 -1.87003 0
M  V30 49503 C 4663.01 -3.49118 -2.41665 0
M  V30 49504 O 4664.04 -2.96676 -1.97134 0
M  V30 49505 O 4662.9 -4.40786 -3.23063 0
M  V30 49506 H 4659.99 -0.645395 -0.517102 0
M  V30 49507 H 4662.54 -1.65555 -0.372792 0
M  V30 49508 H 4661.31 -3.73066 -1.18058 0
M  V30 49509 H 4660.93 -2.9241 -2.69411 0
M  V30 49510 N 4661.93 0.628826 -1.44511 0
M  V30 49511 C 4663.17 1.39988 -1.48939 0
M  V30 49512 C 4663.53 1.91627 -0.119671 0
M  V30 49513 O 4664.73 2.68772 -0.0386228 0
M  V30 49514 C 4663 2.53232 -2.52207 0
M  V30 49515 S 4664.56 3.41373 -2.75699 0
M  V30 49516 H 4661.38 0.47754 -0.526761 0
M  V30 49517 H 4663.98 0.72774 -1.8145 0
M  V30 49518 H 4662.69 2.1361 -3.50427 0
M  V30 49519 H 4662.22 3.2527 -2.21275 0
M  V30 49520 H 4664.23 4.50745 -2.07469 0
M  V30 49521 N 4663.41 1.31448 0.869439 0
M  V30 49522 C 4664.65 1.21343 1.62492 0
M  V30 49523 C 4664.98 -0.227804 1.92859 0
M  V30 49524 O 4664.26 -1.16088 1.56057 0
M  V30 49525 C 4664.54 2.05825 2.9548 0
M  V30 49526 C 4664.4 3.5825 2.71988 0
M  V30 49527 C 4665.71 1.90804 3.96588 0
M  V30 49528 H 4662.83 0.442155 0.589633 0
M  V30 49529 H 4665.48 1.61243 1.00502 0
M  V30 49530 H 4663.63 1.71925 3.48388 0
M  V30 49531 H 4665.3 4.02288 2.25748 0
M  V30 49532 H 4663.54 3.81654 2.0621 0
M  V30 49533 H 4664.21 4.12669 3.66617 0
M  V30 49534 H 4666.69 2.20471 3.5289 0
M  V30 49535 H 4665.56 2.52216 4.87522 0
M  V30 49536 H 4665.82 0.871494 4.33425 0
M  V30 49537 N 4664.88 -1.08381 1.14417 0
M  V30 49538 C 4666.13 -1.81041 0.913897 0
M  V30 49539 C 4666.46 -1.86006 -0.558144 0
M  V30 49540 O 4665.74 -1.33611 -1.41345 0
M  V30 49541 C 4666.02 -3.26643 1.51581 0
M  V30 49542 C 4665.87 -3.29885 3.05771 0
M  V30 49543 C 4667.19 -4.23625 1.19288 0
M  V30 49544 H 4664.31 -0.657259 0.333437 0
M  V30 49545 H 4666.95 -1.26891 1.41416 0
M  V30 49546 H 4665.1 -3.72885 1.09036 0
M  V30 49547 H 4666.78 -2.91964 3.57148 0
M  V30 49548 H 4665.02 -2.69151 3.40206 0
M  V30 49549 H 4665.69 -4.32504 3.42993 0
M  V30 49550 H 4668.17 -3.85722 1.5607 0
M  V30 49551 H 4667.04 -5.23816 1.64036 0
M  V30 49552 H 4667.3 -4.41968 0.108223 0
M  V30 49553 N 4666.36 -0.939331 -1.26548 0
M  V30 49554 C 4667.31 -0.446167 -2.26446 0
M  V30 49555 C 4668.28 0.493178 -1.58609 0
M  V30 49556 O 4669.46 0.409792 -1.86347 0
M  V30 49557 C 4666.6 0.284254 -3.43927 0
M  V30 49558 C 4665.72 -0.690549 -4.26445 0
M  V30 49559 C 4664.85 0.0608844 -5.31165 0
M  V30 49560 C 4663.89 -0.905862 -6.0536 0
M  V30 49561 N 4663.03 -0.186302 -7.01853 0
M  V30 49562 H 4667.87 -1.303 -2.68003 0
M  V30 49563 H 4665.4 -0.653757 -1.31774 0
M  V30 49564 H 4667.36 0.724169 -4.10867 0
M  V30 49565 H 4665.99 1.10524 -3.03289 0
M  V30 49566 H 4665.04 -1.24898 -3.59311 0
M  V30 49567 H 4666.36 -1.4289 -4.77895 0
M  V30 49568 H 4665.51 0.560168 -6.04108 0
M  V30 49569 H 4664.25 0.832128 -4.80549 0
M  V30 49570 H 4663.25 -1.41629 -5.31245 0
M  V30 49571 H 4664.48 -1.67708 -6.58066 0
M  V30 49572 H 4662.43 0.566484 -6.5355 0
M  V30 49573 H 4662.34 -0.864016 -7.51046 0
M  V30 49574 H 4663.61 0.291947 -7.78953 0
M  V30 49575 N 4667.84 1.40895 -0.706143 0
M  V30 49576 C 4669.25 1.84021 -0.315117 0
M  V30 49577 C 4669.6 1.59064 1.14861 0
M  V30 49578 O 4668.73 1.06658 1.8829 0
M  V30 49579 C 4669.32 3.34053 -0.565155 0
M  V30 49580 C 4667.88 3.75709 -0.227938 0
M  V30 49581 C 4667.03 2.64201 -0.842215 0
M  V30 49582 H 4669.98 1.30296 -0.906009 0
M  V30 49583 H 4670 3.80108 0.172709 0
M  V30 49584 H 4669.51 3.52186 -1.63055 0
M  V30 49585 H 4667.61 3.63175 0.832767 0
M  V30 49586 H 4667.73 4.741 -0.69034 0
M  V30 49587 H 4666.09 2.53254 -0.270982 0
M  V30 49588 H 4666.87 2.85148 -1.91168 0
M  V30 49589 N 4669.32 0.451643 1.5099 0
M  V30 49590 C 4670.57 -0.111582 2.01391 0
M  V30 49591 C 4670.88 -1.42524 1.33964 0
M  V30 49592 O 4672.09 -2.07226 1.75413 0
M  V30 49593 C 4670.54 -0.249388 3.59035 0
M  V30 49594 C 4670.15 1.05468 4.35408 0
M  V30 49595 C 4671.89 -0.765615 4.17539 0
M  V30 49596 C 4669.8 0.881735 5.8479 0
M  V30 49597 H 4668.73 -0.0454757 0.752627 0
M  V30 49598 H 4671.38 0.583585 1.73973 0
M  V30 49599 H 4669.76 -1.00789 3.82959 0
M  V30 49600 H 4670.94 1.82263 4.23222 0
M  V30 49601 H 4669.25 1.50053 3.88424 0
M  V30 49602 H 4671.85 -0.911728 5.2687 0
M  V30 49603 H 4672.19 -1.75187 3.77644 0
M  V30 49604 H 4672.73 -0.0650345 3.97747 0
M  V30 49605 H 4669.46 1.84079 6.29123 0
M  V30 49606 H 4668.98 0.153836 5.99603 0
M  V30 49607 H 4670.66 0.540589 6.44738 0
M  V30 49608 N 4670.8 -1.56528 0.183513 0
M  V30 49609 C 4672.07 -1.88961 -0.505293 0
M  V30 49610 C 4672.45 -1.09529 -1.80462 0
M  V30 49611 O 4671.8 -0.19286 -2.27685 0
M  V30 49612 C 4672.01 -3.41165 -0.73535 0
M  V30 49613 C 4673.36 -4.11158 -1.05991 0
M  V30 49614 O 4674.38 -3.46551 -0.823472 0
M  V30 49615 O 4673.24 -5.25323 -1.50657 0
M  V30 49616 H 4670.34 -0.784419 -0.261946 0
M  V30 49617 H 4672.88 -1.6823 0.222861 0
M  V30 49618 H 4671.65 -3.90873 0.182698 0
M  V30 49619 H 4671.28 -3.67548 -1.51638 0
M  V30 49620 N 4672.27 0.0901557 -1.57342 0
M  V30 49621 C 4673.55 0.824698 -1.77364 0
M  V30 49622 C 4673.93 1.96695 -0.766439 0
M  V30 49623 O 4673.28 2.27587 0.204099 0
M  V30 49624 C 4673.49 1.3147 -3.2329 0
M  V30 49625 C 4674.84 1.7555 -3.8661 0
M  V30 49626 O 4675.86 1.41081 -3.2707 0
M  V30 49627 O 4674.72 2.393 -4.91322 0
M  V30 49628 H 4671.81 0.393751 -0.727248 0
M  V30 49629 H 4674.36 0.0716542 -1.69549 0
M  V30 49630 H 4673.13 0.496535 -3.88137 0
M  V30 49631 H 4672.76 2.12961 -3.35758 0
M  V30 49632 N 4673.75 1.53407 0.361103 0
M  V30 49633 C 4675.17 1.4328 0.703073 0
M  V30 49634 C 4675.37 0.575452 1.93108 0
M  V30 49635 O 4674.42 0.0596249 2.5243 0
M  V30 49636 C 4675.74 2.86533 0.912099 0
M  V30 49637 C 4677.29 2.96194 1.01183 0
M  V30 49638 C 4677.76 4.40519 1.25329 0
M  V30 49639 N 4679.25 4.43967 1.32089 0
M  V30 49640 C 4679.99 5.52751 1.52491 0
M  V30 49641 N 4679.48 6.71573 1.7018 0
M  V30 49642 N 4681.28 5.40336 1.54897 0
M  V30 49643 H 4673.43 2.07653 -0.446548 0
M  V30 49644 H 4675.69 0.937939 -0.137748 0
M  V30 49645 H 4675.4 3.51606 0.0815178 0
M  V30 49646 H 4675.27 3.30447 1.81891 0
M  V30 49647 H 4677.66 2.31273 1.83295 0
M  V30 49648 H 4677.74 2.55668 0.082303 0
M  V30 49649 H 4677.38 5.06015 0.437168 0
M  V30 49650 H 4677.31 4.78622 2.1961 0
M  V30 49651 H 4679.8 3.58336 1.20015 0
M  V30 49652 H 4680.12 7.50248 1.85333 0
M  V30 49653 H 4678.46 6.74551 1.67349 0
M  V30 49654 H 4681.65 4.4647 1.40648 0
M  V30 49655 H 4681.82 6.25179 1.70455 0
M  V30 49656 N 4675.23 -0.621153 1.44843 0
M  V30 49657 C 4676.48 -1.3805 1.4815 0
M  V30 49658 C 4676.81 -1.94142 0.117935 0
M  V30 49659 O 4676.06 -1.74716 -0.881633 0
M  V30 49660 C 4676.36 -2.55666 2.49739 0
M  V30 49661 C 4676.03 -2.17803 3.94807 0
M  V30 49662 C 4674.69 -2.0719 4.34311 0
M  V30 49663 C 4677.04 -1.88048 4.86094 0
M  V30 49664 C 4674.37 -1.65025 5.63013 0
M  V30 49665 C 4676.72 -1.47373 6.15194 0
M  V30 49666 C 4675.38 -1.35309 6.53642 0
M  V30 49667 H 4674.65 -0.505162 0.542119 0
M  V30 49668 H 4677.3 -0.703414 1.78113 0
M  V30 49669 H 4675.61 -3.28652 2.13295 0
M  V30 49670 H 4677.3 -3.13896 2.49541 0
M  V30 49671 H 4673.89 -2.26985 3.6356 0
M  V30 49672 H 4678.08 -1.95152 4.56322 0
M  V30 49673 H 4673.33 -1.54296 5.9161 0
M  V30 49674 H 4677.51 -1.23391 6.85381 0
M  V30 49675 H 4675.13 -1.02409 7.53271 0
M  V30 49676 N 4676.71 -1.31907 -0.862456 0
M  V30 49677 C 4677.67 -1.20138 -1.95191 0
M  V30 49678 C 4678.67 -0.126465 -1.60302 0
M  V30 49679 O 4679.86 -0.376294 -1.70087 0
M  V30 49680 C 4676.99 -0.845807 -3.30241 0
M  V30 49681 H 4678.19 -2.16951 -2.07057 0
M  V30 49682 H 4675.74 -1.15626 -1.05168 0
M  V30 49683 H 4676.47 0.120843 -3.24075 0
M  V30 49684 H 4676.26 -1.62288 -3.56938 0
M  V30 49685 H 4677.75 -0.787562 -4.10106 0
M  V30 49686 N 4678.19 1.07773 -1.1499 0
M  V30 49687 C 4679.13 2.16961 -0.838482 0
M  V30 49688 C 4680.13 1.68372 0.186326 0
M  V30 49689 O 4681.33 1.79951 0.0417832 0
M  V30 49690 H 4677.71 0.707997 -0.253464 0
M  V30 49691 H 4679.68 2.40448 -1.76712 0
M  V30 49692 C 4678.43 3.46039 -0.339457 0
M  V30 49693 H 4677.75 3.83809 -1.11941 0
M  V30 49694 H 4679.19 4.23697 -0.16017 0
M  V30 49695 C 4677.65 3.23573 0.938212 0
M  V30 49696 O 4678.18 3.47759 2.01064 0
M  V30 49697 N 4676.39 2.77082 0.876019 0
M  V30 49698 H 4675.93 2.576 0.00312981 0
M  V30 49699 H 4675.89 2.62429 1.73143 0
M  V30 49700 N 4679.66 0.946029 1.26048 0
M  V30 49701 C 4680.63 0.463976 2.24455 0
M  V30 49702 C 4681.63 -0.4276 1.5501 0
M  V30 49703 O 4682.82 -0.226097 1.72726 0
M  V30 49704 C 4679.95 -0.330693 3.39292 0
M  V30 49705 H 4681.14 1.33366 2.68614 0
M  V30 49706 H 4678.7 0.728464 1.38286 0
M  V30 49707 H 4679.43 -1.21842 3.00541 0
M  V30 49708 H 4679.22 0.308817 3.90882 0
M  V30 49709 H 4680.71 -0.65772 4.12388 0
M  V30 49710 N 4681.14 -1.40518 0.713605 0
M  V30 49711 C 4682.07 -2.33381 0.0744684 0
M  V30 49712 C 4683.05 -1.52787 -0.747682 0
M  V30 49713 O 4684.24 -1.81261 -0.697008 0
M  V30 49714 C 4681.37 -3.36751 -0.84948 0
M  V30 49715 C 4680.32 -4.27793 -0.133097 0
M  V30 49716 C 4679.65 -5.21683 -1.17263 0
M  V30 49717 C 4680.95 -5.12412 1.01152 0
M  V30 49718 H 4682.64 -2.87078 0.850108 0
M  V30 49719 H 4680.19 -1.38032 0.41025 0
M  V30 49720 H 4682.14 -4.00652 -1.30598 0
M  V30 49721 H 4680.87 -2.81445 -1.65699 0
M  V30 49722 H 4679.52 -3.65341 0.303555 0
M  V30 49723 H 4679.17 -4.62684 -1.97314 0
M  V30 49724 H 4678.87 -5.83437 -0.698192 0
M  V30 49725 H 4680.4 -5.88462 -1.62926 0
M  V30 49726 H 4681.81 -5.69778 0.634474 0
M  V30 49727 H 4680.21 -5.83199 1.4142 0
M  V30 49728 H 4681.28 -4.48507 1.84307 0
M  V30 49729 N 4682.62 -0.459644 -1.50748 0
M  V30 49730 C 4683.55 0.330563 -2.31148 0
M  V30 49731 C 4684.53 1.00082 -1.37541 0
M  V30 49732 O 4685.72 1.00019 -1.66462 0
M  V30 49733 C 4682.85 1.41947 -3.16967 0
M  V30 49734 C 4681.8 0.87146 -4.19034 0
M  V30 49735 C 4681.13 2.0578 -4.93517 0
M  V30 49736 C 4682.43 -0.109435 -5.22185 0
M  V30 49737 H 4684.12 -0.34044 -2.97458 0
M  V30 49738 H 4681.67 -0.165169 -1.4305 0
M  V30 49739 H 4683.62 1.97967 -3.72004 0
M  V30 49740 H 4682.34 2.11908 -2.48521 0
M  V30 49741 H 4681 0.333314 -3.65082 0
M  V30 49742 H 4680.65 2.74412 -4.21553 0
M  V30 49743 H 4680.35 1.6974 -5.6255 0
M  V30 49744 H 4681.87 2.62312 -5.51385 0
M  V30 49745 H 4683.29 0.361203 -5.72161 0
M  V30 49746 H 4681.69 -0.383526 -5.98873 0
M  V30 49747 H 4682.76 -1.03904 -4.73637 0
M  V30 49748 N 4684.1 1.56428 -0.191812 0
M  V30 49749 C 4685.06 2.17709 0.716611 0
M  V30 49750 C 4686.06 1.13065 1.14337 0
M  V30 49751 O 4687.25 1.38468 1.05699 0
M  V30 49752 C 4684.38 2.77651 1.97794 0
M  V30 49753 H 4685.58 2.99342 0.182795 0
M  V30 49754 H 4683.13 1.56193 0.0578017 0
M  V30 49755 H 4683.86 1.99808 2.55436 0
M  V30 49756 H 4683.65 3.54252 1.68071 0
M  V30 49757 H 4685.14 3.24717 2.62581 0
M  V30 49758 N 4685.58 -0.0818102 1.57388 0
M  V30 49759 C 4686.51 -1.09877 2.06032 0
M  V30 49760 C 4687.49 -1.40976 0.951823 0
M  V30 49761 O 4688.67 -1.50777 1.22393 0
M  V30 49762 C 4685.8 -2.41502 2.49588 0
M  V30 49763 C 4684.76 -2.24779 3.64223 0
M  V30 49764 C 4684.08 -3.61698 3.938 0
M  V30 49765 C 4685.38 -1.67732 4.94635 0
M  V30 49766 H 4687.08 -0.694026 2.91245 0
M  V30 49767 H 4684.62 -0.332399 1.40111 0
M  V30 49768 H 4686.58 -3.12929 2.8223 0
M  V30 49769 H 4685.3 -2.83937 1.61391 0
M  V30 49770 H 4683.96 -1.55796 3.31848 0
M  V30 49771 H 4683.61 -4.01686 3.0275 0
M  V30 49772 H 4683.31 -3.51352 4.70984 0
M  V30 49773 H 4684.83 -4.34572 4.28929 0
M  V30 49774 H 4686.24 -2.29013 5.25572 0
M  V30 49775 H 4684.64 -1.68108 5.76073 0
M  V30 49776 H 4685.71 -0.637891 4.80686 0
M  V30 49777 N 4687.06 -1.53597 -0.352963 0
M  V30 49778 C 4688 -1.8161 -1.45329 0
M  V30 49779 C 4689 -0.685978 -1.54889 0
M  V30 49780 O 4690.2 -0.86915 -1.57625 0
M  V30 49781 H 4686.58 -0.575221 -0.484381 0
M  V30 49782 H 4688.55 -2.73683 -1.18911 0
M  V30 49783 C 4687.3 -2.03416 -2.81988 0
M  V30 49784 H 4686.62 -2.89823 -2.75395 0
M  V30 49785 H 4688.06 -2.26987 -3.58124 0
M  V30 49786 C 4686.52 -0.816908 -3.26846 0
M  V30 49787 O 4687.05 -0.0117268 -4.01698 0
M  V30 49788 N 4685.26 -0.636782 -2.83537 0
M  V30 49789 H 4684.8 -1.29317 -2.22789 0
M  V30 49790 H 4684.76 0.176225 -3.13906 0
M  V30 49791 N 4688.53 0.613463 -1.4517 0
M  V30 49792 C 4689.81 1.37258 -1.39354 0
M  V30 49793 C 4690.19 2.11011 -0.061159 0
M  V30 49794 O 4689.54 2.07505 0.956752 0
M  V30 49795 C 4689.75 2.32431 -2.6034 0
M  V30 49796 C 4691.1 2.95219 -3.05173 0
M  V30 49797 O 4692.12 2.42753 -2.60671 0
M  V30 49798 O 4690.98 3.9044 -3.82385 0
M  V30 49799 H 4688.07 0.615168 -0.552718 0
M  V30 49800 H 4690.62 0.637042 -1.57289 0
M  V30 49801 H 4689.39 1.77152 -3.48902 0
M  V30 49802 H 4689.01 3.13374 -2.44709 0
M  V30 49803 N 4690.01 1.32363 0.855449 0
M  V30 49804 C 4690.94 1.15566 1.96773 0
M  V30 49805 C 4691.92 0.0553253 1.62506 0
M  V30 49806 O 4693.11 0.214485 1.87276 0
M  V30 49807 C 4690.23 0.768967 3.29855 0
M  V30 49808 C 4689.28 1.87443 3.83102 0
M  V30 49809 S 4690.11 3.48257 4.06789 0
M  V30 49810 C 4691.27 3.11558 5.42847 0
M  V30 49811 H 4691.5 2.09725 2.1072 0
M  V30 49812 H 4689.03 1.17014 1.00733 0
M  V30 49813 H 4690.99 0.552623 4.06763 0
M  V30 49814 H 4689.65 -0.153747 3.13723 0
M  V30 49815 H 4688.85 1.55684 4.79352 0
M  V30 49816 H 4688.45 2.04658 3.13035 0
M  V30 49817 H 4690.74 2.61353 6.25061 0
M  V30 49818 H 4691.68 4.06826 5.79567 0
M  V30 49819 H 4692.09 2.486 5.06812 0
M  V30 49820 N 4691.49 -1.07162 1.1556 0
M  V30 49821 C 4692.74 -1.7944 0.929827 0
M  V30 49822 C 4693.06 -1.87248 -0.544348 0
M  V30 49823 O 4692.33 -1.37478 -1.39559 0
M  V30 49824 H 4690.91 -0.664613 0.341026 0
M  V30 49825 H 4693.57 -1.29494 1.45662 0
M  V30 49826 H 4692.67 -2.81827 1.34089 0
M  V30 49827 N 4692.97 -0.9527 -1.25544 0
M  V30 49828 C 4693.91 -0.47016 -2.2596 0
M  V30 49829 C 4694.88 0.476328 -1.59124 0
M  V30 49830 O 4696.07 0.390004 -1.86772 0
M  V30 49831 C 4693.21 0.24776 -3.44209 0
M  V30 49832 C 4692.32 -0.735741 -4.25689 0
M  V30 49833 C 4691.46 0.00454386 -5.312 0
M  V30 49834 C 4690.5 -0.970017 -6.04365 0
M  V30 49835 N 4689.63 -0.260732 -7.01616 0
M  V30 49836 H 4694.47 -1.33136 -2.66606 0
M  V30 49837 H 4692.01 -0.667696 -1.31073 0
M  V30 49838 H 4693.97 0.68055 -4.11612 0
M  V30 49839 H 4692.6 1.07301 -3.04444 0
M  V30 49840 H 4691.65 -1.28702 -3.57966 0
M  V30 49841 H 4692.96 -1.47951 -4.76353 0
M  V30 49842 H 4692.12 0.496062 -6.04669 0
M  V30 49843 H 4690.86 0.781113 -4.81404 0
M  V30 49844 H 4689.86 -1.47255 -5.29713 0
M  V30 49845 H 4691.09 -1.74678 -6.5625 0
M  V30 49846 H 4689.03 0.497134 -6.54114 0
M  V30 49847 H 4688.95 -0.943626 -7.50088 0
M  V30 49848 H 4690.22 0.209313 -7.79219 0
M  V30 49849 N 4694.45 1.40138 -0.721047 0
M  V30 49850 C 4695.69 2.01083 -0.263302 0
M  V30 49851 C 4696.02 1.57056 1.14223 0
M  V30 49852 O 4695.3 0.793089 1.77596 0
M  V30 49853 C 4695.58 3.584 -0.34947 0
M  V30 49854 C 4695.44 4.12485 -1.79377 0
M  V30 49855 C 4696.75 4.39232 0.276197 0
M  V30 49856 H 4693.87 0.730569 -0.0971485 0
M  V30 49857 H 4696.52 1.6654 -0.914576 0
M  V30 49858 H 4694.67 3.87959 0.205029 0
M  V30 49859 H 4696.34 3.93703 -2.40408 0
M  V30 49860 H 4694.58 3.66568 -2.31971 0
M  V30 49861 H 4695.25 5.2164 -1.80542 0
M  V30 49862 H 4697.73 4.15637 -0.19633 0
M  V30 49863 H 4696.6 5.48587 0.185488 0
M  V30 49864 H 4696.86 4.20648 1.36044 0
M  V30 49865 N 4695.92 0.467632 1.50502 0
M  V30 49866 C 4697.34 0.121589 1.59136 0
M  V30 49867 C 4697.54 -1.37165 1.47608 0
M  V30 49868 O 4696.6 -2.1446 1.33279 0
M  V30 49869 C 4697.91 0.668704 2.9317 0
M  V30 49870 C 4699.46 0.631824 3.06557 0
M  V30 49871 C 4699.93 1.15642 4.4316 0
M  V30 49872 N 4701.42 1.11569 4.49563 0
M  V30 49873 C 4702.16 1.49214 5.53645 0
M  V30 49874 N 4701.65 1.94292 6.64998 0
M  V30 49875 N 4703.45 1.40839 5.4417 0
M  V30 49876 H 4695.6 1.43885 1.5624 0
M  V30 49877 H 4697.86 0.59481 0.738177 0
M  V30 49878 H 4697.57 1.71464 3.07072 0
M  V30 49879 H 4697.44 0.110343 3.77039 0
M  V30 49880 H 4699.83 -0.405195 2.92305 0
M  V30 49881 H 4699.91 1.22695 2.24454 0
M  V30 49882 H 4699.55 2.19206 4.58161 0
M  V30 49883 H 4699.48 0.537549 5.23849 0
M  V30 49884 H 4701.97 0.785025 3.69656 0
M  V30 49885 H 4702.29 2.21174 7.40474 0
M  V30 49886 H 4700.63 1.98242 6.66127 0
M  V30 49887 H 4703.82 1.05466 4.56064 0
M  V30 49888 H 4704 1.70503 6.25166 0
M  V30 49889 N 4697.4 -1.56324 0.200105 0
M  V30 49890 C 4698.35 -2.19323 -0.718756 0
M  V30 49891 C 4699.32 -1.14202 -1.20611 0
M  V30 49892 O 4700.5 -1.42473 -1.26909 0
M  V30 49893 C 4697.64 -2.86048 -1.93056 0
M  V30 49894 C 4696.76 -4.05707 -1.4841 0
M  V30 49895 C 4695.89 -4.60275 -2.6518 0
M  V30 49896 C 4694.93 -5.72281 -2.17165 0
M  V30 49897 N 4694.07 -6.21233 -3.2713 0
M  V30 49898 H 4698.91 -2.97487 -0.174785 0
M  V30 49899 H 4696.44 -1.46911 -0.0745278 0
M  V30 49900 H 4698.4 -3.22906 -2.64173 0
M  V30 49901 H 4697.03 -2.10439 -2.44776 0
M  V30 49902 H 4696.08 -3.74478 -0.668624 0
M  V30 49903 H 4697.4 -4.86703 -1.09187 0
M  V30 49904 H 4696.55 -4.99465 -3.44412 0
M  V30 49905 H 4695.29 -3.78397 -3.0768 0
M  V30 49906 H 4694.29 -5.32615 -1.36388 0
M  V30 49907 H 4695.52 -6.5598 -1.7569 0
M  V30 49908 H 4693.47 -5.42276 -3.69152 0
M  V30 49909 H 4693.38 -6.97294 -2.92091 0
M  V30 49910 H 4694.65 -6.65077 -4.06561 0
M  V30 49911 N 4698.88 0.0734624 -1.57429 0
M  V30 49912 C 4700.16 0.80584 -1.78229 0
M  V30 49913 C 4700.54 1.95871 -0.787258 0
M  V30 49914 O 4699.88 2.2779 0.179949 0
M  V30 49915 C 4700.09 1.28034 -3.24667 0
M  V30 49916 C 4701.44 1.71439 -3.8845 0
M  V30 49917 O 4702.47 1.37604 -3.28548 0
M  V30 49918 O 4701.33 2.34076 -4.93833 0
M  V30 49919 H 4698.42 0.386015 -0.731383 0
M  V30 49920 H 4700.97 0.0536673 -1.69615 0
M  V30 49921 H 4699.74 0.45534 -3.88642 0
M  V30 49922 H 4699.36 2.09388 -3.37998 0
M  V30 49923 N 4700.36 1.53782 0.344812 0
M  V30 49924 C 4701.61 1.70183 1.08261 0
M  V30 49925 C 4701.92 0.471067 1.89843 0
M  V30 49926 O 4703.13 0.516011 2.66551 0
M  V30 49927 C 4701.58 3.0093 1.97407 0
M  V30 49928 C 4701.19 4.3134 1.21038 0
M  V30 49929 C 4702.93 3.26697 2.71052 0
M  V30 49930 C 4700.84 5.53161 2.09206 0
M  V30 49931 H 4699.77 0.634152 0.407881 0
M  V30 49932 H 4702.42 1.80281 0.342183 0
M  V30 49933 H 4700.8 2.84686 2.75264 0
M  V30 49934 H 4701.98 4.58283 0.480998 0
M  V30 49935 H 4700.29 4.12175 0.591668 0
M  V30 49936 H 4702.89 4.14901 3.37285 0
M  V30 49937 H 4703.23 2.43651 3.3755 0
M  V30 49938 H 4703.77 3.43712 2.00268 0
M  V30 49939 H 4700.5 6.38747 1.47252 0
M  V30 49940 H 4700.02 5.30468 2.79936 0
M  V30 49941 H 4701.7 5.88754 2.68288 0
M  V30 49942 N 4701.84 -0.605756 1.45494 0
M  V30 49943 C 4703.25 -1.18772 1.44049 0
M  V30 49944 C 4703.6 -1.9547 0.169069 0
M  V30 49945 O 4702.72 -2.03742 -0.729253 0
M  V30 49946 C 4703.32 -2.16055 2.60971 0
M  V30 49947 C 4701.88 -2.69624 2.6264 0
M  V30 49948 C 4701.02 -1.45063 2.3633 0
M  V30 49949 H 4703.98 -0.394963 1.53707 0
M  V30 49950 H 4704 -2.99121 2.35174 0
M  V30 49951 H 4703.51 -1.60205 3.53491 0
M  V30 49952 H 4701.61 -3.29407 1.74131 0
M  V30 49953 H 4701.72 -3.13932 3.61917 0
M  V30 49954 H 4700.09 -1.74082 1.85924 0
M  V30 49955 H 4700.87 -0.910783 3.30998 0
M  V30 49956 N 4703.31 -1.32814 -0.848417 0
M  V30 49957 C 4704.25 -1.18102 -1.96429 0
M  V30 49958 C 4705.26 -0.114411 -1.62397 0
M  V30 49959 O 4706.45 -0.363953 -1.7475 0
M  V30 49960 C 4703.55 -0.786914 -3.29637 0
M  V30 49961 C 4702.72 -1.94314 -3.91868 0
M  V30 49962 C 4701.78 -1.53156 -5.03418 0
M  V30 49963 O 4700.81 -2.24451 -5.23078 0
M  V30 49964 N 4702.01 -0.431119 -5.78897 0
M  V30 49965 H 4704.77 -2.14225 -2.09589 0
M  V30 49966 H 4702.33 -1.25434 -1.02362 0
M  V30 49967 H 4704.33 -0.493857 -4.01675 0
M  V30 49968 H 4702.9 0.0833442 -3.12489 0
M  V30 49969 H 4702.12 -2.40235 -3.12539 0
M  V30 49970 H 4703.4 -2.71704 -4.3018 0
M  V30 49971 H 4702.8 0.162134 -5.65468 0
M  V30 49972 H 4701.36 -0.197695 -6.515 0
M  V30 49973 N 4704.79 1.06547 -1.16127 0
M  V30 49974 C 4706.04 1.79716 -0.952569 0
M  V30 49975 C 4706.39 1.85398 0.514319 0
M  V30 49976 O 4705.69 1.33268 1.3766 0
M  V30 49977 C 4705.88 3.23905 -1.51063 0
M  V30 49978 C 4705.71 3.32274 -3.03025 0
M  V30 49979 C 4704.48 3.42358 -3.71644 0
M  V30 49980 C 4706.68 3.22349 -4.00744 0
M  V30 49981 N 4704.66 3.39714 -5.11339 0
M  V30 49982 C 4706.03 3.26918 -5.26806 0
M  V30 49983 C 4708.09 3.06216 -3.92602 0
M  V30 49984 C 4706.79 3.17013 -6.45674 0
M  V30 49985 C 4708.81 2.97647 -5.11038 0
M  V30 49986 C 4708.18 3.02836 -6.35979 0
M  V30 49987 H 4704.28 0.670571 -0.402317 0
M  V30 49988 H 4706.86 1.27119 -1.47475 0
M  V30 49989 H 4705.03 3.74904 -1.01497 0
M  V30 49990 H 4706.76 3.85237 -1.23993 0
M  V30 49991 H 4703.52 3.47047 -3.22266 0
M  V30 49992 H 4703.94 3.41898 -5.84324 0
M  V30 49993 H 4708.58 3.01052 -2.96863 0
M  V30 49994 H 4706.3 3.20934 -7.41638 0
M  V30 49995 H 4709.89 2.86255 -5.06507 0
M  V30 49996 H 4708.77 2.9626 -7.26085 0
M  V30 49997 N 4706.27 0.959345 1.25037 0
M  V30 49998 C 4707.2 0.440622 2.24925 0
M  V30 49999 C 4708.22 -0.446076 1.56569 0
M  V30 50000 O 4709.4 -0.253595 1.76689 0
M  V30 50001 C 4706.5 -0.384002 3.36717 0
M  V30 50002 C 4705.68 0.490811 4.34638 0
M  V30 50003 C 4704.74 -0.276402 5.25474 0
M  V30 50004 O 4703.76 0.326813 5.68261 0
M  V30 50005 N 4704.96 -1.56824 5.58915 0
M  V30 50006 H 4707.73 1.2994 2.70066 0
M  V30 50007 H 4705.29 0.83023 1.38992 0
M  V30 50008 H 4707.28 -0.905089 3.94449 0
M  V30 50009 H 4705.85 -1.14367 2.90928 0
M  V30 50010 H 4705.07 1.19296 3.75716 0
M  V30 50011 H 4706.36 1.08774 4.97037 0
M  V30 50012 H 4705.76 -2.08017 5.26066 0
M  V30 50013 H 4704.32 -2.03519 6.19212 0
M  V30 50014 N 4707.75 -1.39754 0.728469 0
M  V30 50015 C 4709.16 -1.83497 0.344353 0
M  V30 50016 C 4709.51 -1.60872 -1.12315 0
M  V30 50017 O 4708.64 -1.0964 -1.86569 0
M  V30 50018 C 4709.23 -3.33112 0.618229 0
M  V30 50019 C 4707.79 -3.75299 0.287681 0
M  V30 50020 C 4706.94 -2.62827 0.88414 0
M  V30 50021 H 4709.89 -1.28839 0.926623 0
M  V30 50022 H 4709.91 -3.80334 -0.112215 0
M  V30 50023 H 4709.42 -3.49547 1.68637 0
M  V30 50024 H 4707.52 -3.64453 -0.774884 0
M  V30 50025 H 4707.63 -4.72942 0.765678 0
M  V30 50026 H 4706 -2.52791 0.311238 0
M  V30 50027 H 4706.78 -2.82071 1.95681 0
M  V30 50028 N 4709.23 -0.475607 -1.50252 0
M  V30 50029 C 4710.45 0.0776313 -2.07255 0
M  V30 50030 C 4710.88 1.32346 -1.33665 0
M  V30 50031 O 4710.23 1.77151 -0.38566 0
M  V30 50032 C 4710.28 0.340043 -3.58993 0
M  V30 50033 O 4709.39 1.41969 -3.87193 0
M  V30 50034 H 4708.73 -0.0149789 -0.663831 0
M  V30 50035 H 4711.26 -0.667946 -1.9339 0
M  V30 50036 H 4711.27 0.57919 -4.03868 0
M  V30 50037 H 4709.94 -0.570312 -4.11971 0
M  V30 50038 H 4708.52 1.16749 -3.54153 0
M  V30 50039 N 4710.7 1.56216 -0.208392 0
M  V30 50040 C 4711.65 2.19701 0.707115 0
M  V30 50041 C 4712.62 1.1484 1.20004 0
M  V30 50042 O 4713.81 1.43144 1.26152 0
M  V30 50043 C 4710.95 2.87068 1.91536 0
M  V30 50044 C 4710.06 4.06489 1.46257 0
M  V30 50045 C 4709.19 4.61675 2.62735 0
M  V30 50046 C 4708.23 5.73425 2.14127 0
M  V30 50047 N 4707.37 6.22959 3.23831 0
M  V30 50048 H 4712.21 2.97575 0.159006 0
M  V30 50049 H 4709.75 1.46949 0.0667357 0
M  V30 50050 H 4711.71 3.24303 2.62457 0
M  V30 50051 H 4710.34 2.11734 2.43657 0
M  V30 50052 H 4709.39 3.74827 0.648755 0
M  V30 50053 H 4710.7 4.87275 1.06604 0
M  V30 50054 H 4709.85 5.01284 3.41759 0
M  V30 50055 H 4708.59 3.80023 3.05669 0
M  V30 50056 H 4707.6 5.3333 1.33562 0
M  V30 50057 H 4708.82 6.56903 1.72209 0
M  V30 50058 H 4706.77 5.44226 3.66271 0
M  V30 50059 H 4706.69 6.98833 2.88389 0
M  V30 50060 H 4707.95 6.67224 4.03029 0
M  V30 50061 N 4712.18 -0.0651125 1.57465 0
M  V30 50062 C 4713.43 -0.76149 1.87205 0
M  V30 50063 C 4713.75 -1.77775 0.801306 0
M  V30 50064 O 4713.02 -1.95167 -0.169302 0
M  V30 50065 H 4711.6 -0.284227 0.690814 0
M  V30 50066 H 4714.26 -0.0396142 1.9486 0
M  V30 50067 H 4713.36 -1.27355 2.84933 0
M  V30 50068 N 4713.66 -1.53962 -0.336652 0
M  V30 50069 C 4714.91 -1.72733 -1.074 0
M  V30 50070 C 4715.26 -0.48816 -1.86104 0
M  V30 50071 O 4714.55 0.519314 -1.84428 0
M  V30 50072 C 4714.75 -2.935 -2.03942 0
M  V30 50073 C 4714.58 -4.29043 -1.34729 0
M  V30 50074 C 4713.35 -4.9342 -1.08925 0
M  V30 50075 C 4715.55 -5.08504 -0.769936 0
M  V30 50076 N 4713.53 -6.12822 -0.363649 0
M  V30 50077 C 4714.9 -6.19752 -0.175254 0
M  V30 50078 C 4716.95 -4.93352 -0.67146 0
M  V30 50079 C 4715.66 -7.17502 0.508333 0
M  V30 50080 C 4717.68 -5.914 -0.00159969 0
M  V30 50081 C 4717.04 -7.01991 0.582082 0
M  V30 50082 H 4713.14 -0.68504 -0.377153 0
M  V30 50083 H 4715.73 -1.91404 -0.356748 0
M  V30 50084 H 4713.9 -2.76318 -2.72952 0
M  V30 50085 H 4715.63 -3.00959 -2.70566 0
M  V30 50086 H 4712.39 -4.53104 -1.37817 0
M  V30 50087 H 4712.81 -6.76998 -0.0153712 0
M  V30 50088 H 4717.45 -4.08011 -1.10846 0
M  V30 50089 H 4715.17 -8.02411 0.957201 0
M  V30 50090 H 4718.76 -5.81753 0.0740583 0
M  V30 50091 H 4717.64 -7.76557 1.0922 0
M  V30 50092 N 4715.14 0.598031 -1.45813 0
M  V30 50093 C 4716.09 1.70267 -1.51635 0
M  V30 50094 C 4717.07 1.5638 -0.378684 0
M  V30 50095 O 4718.26 1.65555 -0.626146 0
M  V30 50096 C 4715.39 3.09037 -1.49504 0
M  V30 50097 C 4714.48 3.28275 -2.68508 0
M  V30 50098 N 4714.87 3.17734 -3.93546 0
M  V30 50099 C 4713.17 3.59172 -2.64407 0
M  V30 50100 C 4713.87 3.38563 -4.73022 0
M  V30 50101 N 4712.85 3.63002 -4.04636 0
M  V30 50102 H 4716.65 1.60625 -2.46124 0
M  V30 50103 H 4714.16 0.801592 -1.41238 0
M  V30 50104 H 4716.16 3.88297 -1.51761 0
M  V30 50105 H 4714.82 3.19821 -0.560795 0
M  V30 50106 H 4715.83 2.9593 -4.25025 0
M  V30 50107 H 4712.51 3.76735 -1.79936 0
M  V30 50108 H 4713.9 3.35726 -5.82012 0
M  V30 50109 N 4716.62 1.33262 0.841362 0
M  V30 50110 C 4717.89 1.1518 1.58092 0
M  V30 50111 C 4718.27 -0.282785 2.09197 0
M  V30 50112 O 4717.62 -1.28145 1.89186 0
M  V30 50113 C 4717.83 2.19079 2.71671 0
M  V30 50114 C 4719.18 2.53105 3.40915 0
M  V30 50115 O 4720.2 2.17727 2.8191 0
M  V30 50116 O 4719.06 3.13806 4.47424 0
M  V30 50117 H 4716.16 0.445327 0.696859 0
M  V30 50118 H 4718.7 1.44837 0.884334 0
M  V30 50119 H 4717.48 3.15452 2.3153 0
M  V30 50120 H 4717.1 1.90493 3.48996 0
M  V30 50121 N 4718.1 -1.0593 1.1669 0
M  V30 50122 C 4719.34 -1.79208 0.962086 0
M  V30 50123 C 4719.7 -1.85668 -0.50448 0
M  V30 50124 O 4718.99 -1.33996 -1.36951 0
M  V30 50125 C 4719.18 -3.231 1.52779 0
M  V30 50126 C 4719.01 -3.30662 3.04783 0
M  V30 50127 C 4717.78 -3.40382 3.73454 0
M  V30 50128 C 4719.98 -3.2022 4.02447 0
M  V30 50129 N 4717.96 -3.36997 5.13134 0
M  V30 50130 C 4719.33 -3.2412 5.28532 0
M  V30 50131 C 4721.39 -3.0413 3.9422 0
M  V30 50132 C 4720.09 -3.13584 6.47347 0
M  V30 50133 C 4722.12 -2.94933 5.1261 0
M  V30 50134 C 4721.48 -2.99459 6.37576 0
M  V30 50135 H 4717.58 -0.668428 0.405867 0
M  V30 50136 H 4720.16 -1.26335 1.48147 0
M  V30 50137 H 4718.33 -3.7436 1.03484 0
M  V30 50138 H 4720.07 -3.84574 1.26035 0
M  V30 50139 H 4716.82 -3.45333 3.24102 0
M  V30 50140 H 4717.24 -3.38795 5.86129 0
M  V30 50141 H 4721.89 -2.99474 2.98455 0
M  V30 50142 H 4719.6 -3.16996 7.4333 0
M  V30 50143 H 4723.19 -2.83565 5.08018 0
M  V30 50144 H 4722.07 -2.92406 7.27646 0
M  V30 50145 N 4719.57 -0.965962 -1.24527 0
M  V30 50146 C 4720.51 -0.452544 -2.24688 0
M  V30 50147 C 4721.52 0.437766 -1.56804 0
M  V30 50148 O 4722.71 0.244221 -1.76821 0
M  V30 50149 C 4719.81 0.366139 -3.36916 0
M  V30 50150 C 4718.98 -0.513854 -4.34371 0
M  V30 50151 C 4718.04 0.248531 -5.25613 0
M  V30 50152 O 4717.07 -0.356945 -5.6808 0
M  V30 50153 N 4718.27 1.53858 -5.59739 0
M  V30 50154 H 4721.03 -1.31371 -2.69373 0
M  V30 50155 H 4718.59 -0.837589 -1.3855 0
M  V30 50156 H 4720.59 0.884158 -3.94924 0
M  V30 50157 H 4719.16 1.12822 -2.9153 0
M  V30 50158 H 4718.38 -1.21286 -3.75078 0
M  V30 50159 H 4719.66 -1.11408 -4.96453 0
M  V30 50160 H 4719.06 2.05224 -5.27162 0
M  V30 50161 H 4717.62 2.00233 -6.20282 0
M  V30 50162 N 4721.05 1.39365 -0.73587 0
M  V30 50163 C 4721.98 2.29129 -0.0568529 0
M  V30 50164 C 4723 1.46861 0.702537 0
M  V30 50165 O 4724.19 1.69926 0.546556 0
M  V30 50166 C 4721.29 3.25496 0.943708 0
M  V30 50167 C 4720.46 4.3671 0.245657 0
M  V30 50168 C 4719.52 5.1338 1.15445 0
M  V30 50169 O 4718.54 5.65685 0.631605 0
M  V30 50170 N 4719.75 5.24665 2.48409 0
M  V30 50171 H 4722.51 2.88044 -0.827683 0
M  V30 50172 H 4720.07 1.50955 -0.585165 0
M  V30 50173 H 4722.06 3.73662 1.5543 0
M  V30 50174 H 4720.63 2.67605 1.61574 0
M  V30 50175 H 4719.85 3.90408 -0.545424 0
M  V30 50176 H 4721.14 5.08243 -0.238069 0
M  V30 50177 H 4720.54 4.83689 2.93362 0
M  V30 50178 H 4719.1 5.76268 3.04562 0
M  V30 50179 N 4722.53 0.483569 1.49998 0
M  V30 50180 C 4723.78 -0.0671879 2.02689 0
M  V30 50181 C 4724.11 -1.38242 1.36392 0
M  V30 50182 O 4723.38 -1.88129 0.493741 0
M  V30 50183 C 4723.67 -0.237983 3.59313 0
M  V30 50184 C 4723.52 1.09915 4.36164 0
M  V30 50185 C 4724.84 -0.986765 4.28895 0
M  V30 50186 H 4721.96 -0.0229437 0.736643 0
M  V30 50187 H 4724.6 0.63159 1.79195 0
M  V30 50188 H 4722.75 -0.833167 3.79461 0
M  V30 50189 H 4724.42 1.73187 4.27556 0
M  V30 50190 H 4722.66 1.69275 3.9941 0
M  V30 50191 H 4723.34 0.933146 5.44056 0
M  V30 50192 H 4725.81 -0.482157 4.13297 0
M  V30 50193 H 4724.69 -1.07509 5.38269 0
M  V30 50194 H 4724.95 -2.02636 3.92926 0
M  V30 50195 N 4724.01 -1.56103 0.216674 0
M  V30 50196 C 4725.42 -1.84401 -0.292064 0
M  V30 50197 C 4725.77 -1.13794 -1.59829 0
M  V30 50198 O 4724.89 -0.405963 -2.12558 0
M  V30 50199 C 4725.49 -3.34522 -0.536692 0
M  V30 50200 C 4724.05 -3.63154 -0.989749 0
M  V30 50201 C 4723.2 -2.77255 -0.0501328 0
M  V30 50202 H 4726.15 -1.52479 0.43998 0
M  V30 50203 H 4726.17 -3.54464 -1.38332 0
M  V30 50204 H 4725.68 -3.85884 0.414167 0
M  V30 50205 H 4723.78 -3.17245 -1.95414 0
M  V30 50206 H 4723.89 -4.7118 -0.867533 0
M  V30 50207 H 4722.26 -2.48557 -0.556029 0
M  V30 50208 H 4723.04 -3.31413 0.895556 0
M  V30 50209 N 4725.49 0.0567608 -1.57498 0
M  V30 50210 C 4726.73 0.753038 -1.87978 0
M  V30 50211 C 4727.06 1.76812 -0.810412 0
M  V30 50212 O 4726.32 1.94757 0.191922 0
M  V30 50213 C 4726.61 1.48347 -3.25158 0
M  V30 50214 C 4726.28 0.606973 -4.46796 0
M  V30 50215 C 4724.94 0.365473 -4.7981 0
M  V30 50216 C 4727.29 0.000122751 -5.212 0
M  V30 50217 C 4724.62 -0.492111 -5.84632 0
M  V30 50218 C 4726.97 -0.845002 -6.26931 0
M  V30 50219 C 4725.64 -1.09623 -6.58437 0
M  V30 50220 H 4724.91 0.275556 -0.687859 0
M  V30 50221 H 4727.56 0.01345 -1.91495 0
M  V30 50222 H 4725.86 2.29566 -3.17501 0
M  V30 50223 H 4727.56 2.02727 -3.45981 0
M  V30 50224 H 4724.15 0.805339 -4.20966 0
M  V30 50225 H 4728.33 0.173786 -4.95996 0
M  V30 50226 H 4723.59 -0.695344 -6.07433 0
M  V30 50227 H 4727.76 -1.32189 -6.83739 0
M  V30 50228 H 4725.39 -1.7625 -7.39486 0
M  V30 50229 N 4726.96 1.54139 0.328482 0
M  V30 50230 C 4728.2 1.73831 1.07528 0
M  V30 50231 C 4728.57 0.498842 1.85406 0
M  V30 50232 O 4729.77 0.573029 2.62621 0
M  V30 50233 C 4728.04 2.9758 1.97942 0
M  V30 50234 S 4729.6 3.38152 2.7964 0
M  V30 50235 H 4726.42 0.6113 0.363088 0
M  V30 50236 H 4729.02 1.92307 0.351863 0
M  V30 50237 H 4727.72 3.85944 1.39555 0
M  V30 50238 H 4727.25 2.81612 2.74696 0
M  V30 50239 H 4729.27 2.93067 4.00408 0
M  V30 50240 N 4728.44 -0.59029 1.46128 0
M  V30 50241 C 4729.67 -1.37986 1.54838 0
M  V30 50242 C 4730.09 -1.87162 0.187572 0
M  V30 50243 O 4729.45 -1.61136 -0.830951 0
M  V30 50244 C 4729.5 -2.54858 2.55107 0
M  V30 50245 O 4728.6 -3.56054 2.08085 0
M  V30 50246 H 4727.94 -0.411247 0.521318 0
M  V30 50247 H 4730.47 -0.716751 1.91635 0
M  V30 50248 H 4730.48 -3.01876 2.74472 0
M  V30 50249 H 4729.16 -2.18417 3.53931 0
M  V30 50250 H 4727.73 -3.15567 1.98675 0
M  V30 50251 N 4729.92 -1.33707 -0.834283 0
M  V30 50252 C 4730.87 -1.20906 -1.93302 0
M  V30 50253 C 4731.85 -0.110839 -1.60518 0
M  V30 50254 O 4733.05 -0.339392 -1.73716 0
M  V30 50255 C 4730.17 -0.955134 -3.29745 0
M  V30 50256 C 4729.26 -2.096 -3.68685 0
M  V30 50257 N 4729.65 -3.34634 -3.79281 0
M  V30 50258 C 4727.95 -2.00372 -3.98456 0
M  V30 50259 C 4728.65 -4.09487 -4.13153 0
M  V30 50260 N 4727.63 -3.37969 -4.25767 0
M  V30 50261 H 4731.43 -2.15672 -1.99656 0
M  V30 50262 H 4728.94 -1.25781 -1.02728 0
M  V30 50263 H 4730.94 -0.844352 -4.0826 0
M  V30 50264 H 4729.6 -0.0160458 -3.24696 0
M  V30 50265 H 4730.61 -3.69326 -3.63069 0
M  V30 50266 H 4727.29 -1.14151 -4.01592 0
M  V30 50267 H 4728.68 -5.17406 -4.2865 0
M  V30 50268 N 4731.4 1.0531 -1.1725 0
M  V30 50269 C 4732.35 2.1131 -0.856271 0
M  V30 50270 C 4733.33 1.60014 0.168638 0
M  V30 50271 O 4734.52 1.76968 -0.0336246 0
M  V30 50272 C 4731.65 3.413 -0.370037 0
M  V30 50273 C 4730.74 3.99396 -1.4263 0
M  V30 50274 N 4731.13 4.31472 -2.63943 0
M  V30 50275 C 4729.43 4.27121 -1.28388 0
M  V30 50276 C 4730.13 4.77787 -3.31804 0
M  V30 50277 N 4729.11 4.77834 -2.59182 0
M  V30 50278 H 4732.91 2.33969 -1.77864 0
M  V30 50279 H 4730.42 1.22946 -1.06104 0
M  V30 50280 H 4732.42 4.16712 -0.125043 0
M  V30 50281 H 4731.08 3.20074 0.546141 0
M  V30 50282 H 4732.09 4.21508 -3.00917 0
M  V30 50283 H 4728.77 4.15287 -0.429257 0
M  V30 50284 H 4730.16 5.11728 -4.35413 0
M  V30 50285 N 4732.88 0.972553 1.24013 0
M  V30 50286 C 4734.12 0.637102 1.92217 0
M  V30 50287 C 4734.45 -0.828357 1.75979 0
M  V30 50288 O 4733.71 -1.61203 1.10961 0
M  V30 50289 C 4734.01 0.963815 3.44159 0
M  V30 50290 C 4733.67 2.4182 3.8057 0
M  V30 50291 C 4732.33 2.8157 3.9022 0
M  V30 50292 C 4734.69 3.36186 3.98281 0
M  V30 50293 C 4732.01 4.14717 4.15002 0
M  V30 50294 C 4734.37 4.68967 4.24561 0
M  V30 50295 C 4733.03 5.08487 4.32431 0
M  V30 50296 H 4732.3 0.233132 0.703371 0
M  V30 50297 H 4734.95 1.22495 1.47198 0
M  V30 50298 H 4733.25 0.293787 3.90697 0
M  V30 50299 H 4734.95 0.682588 3.95148 0
M  V30 50300 H 4731.54 2.10001 3.73628 0
M  V30 50301 H 4735.72 3.06658 3.90224 0
M  V30 50302 H 4730.98 4.44954 4.19316 0
M  V30 50303 H 4735.15 5.42052 4.3721 0
M  V30 50304 H 4732.78 6.11681 4.51387 0
M  V30 50305 N 4734.35 -1.38973 0.74325 0
M  V30 50306 C 4735.3 -2.27843 0.0845931 0
M  V30 50307 C 4736.29 -1.44679 -0.704043 0
M  V30 50308 O 4737.48 -1.67513 -0.571696 0
M  V30 50309 C 4734.61 -3.33469 -0.815664 0
M  V30 50310 C 4733.7 -4.24095 -0.0207353 0
M  V30 50311 N 4734.09 -4.95606 1.01037 0
M  V30 50312 C 4732.38 -4.45304 -0.249136 0
M  V30 50313 C 4733.09 -5.62282 1.49044 0
M  V30 50314 N 4732.06 -5.37568 0.807566 0
M  V30 50315 H 4735.86 -2.80589 0.874458 0
M  V30 50316 H 4733.38 -1.51753 0.578336 0
M  V30 50317 H 4735.37 -3.96012 -1.30307 0
M  V30 50318 H 4734.03 -2.82281 -1.6046 0
M  V30 50319 H 4735.05 -4.98844 1.39193 0
M  V30 50320 H 4731.72 -4.05044 -1.01222 0
M  V30 50321 H 4733.11 -6.2951 2.34875 0
M  V30 50322 N 4735.83 -0.491517 -1.49739 0
M  V30 50323 C 4736.74 0.296753 -2.32716 0
M  V30 50324 C 4737.76 0.976485 -1.44017 0
M  V30 50325 O 4738.93 0.959961 -1.7705 0
M  V30 50326 C 4736 1.35277 -3.19219 0
M  V30 50327 C 4735.06 0.687483 -4.2376 0
M  V30 50328 C 4734.29 1.69319 -5.06129 0
M  V30 50329 O 4734.52 2.92202 -4.89871 0
M  V30 50330 O 4733.45 1.25374 -5.88698 0
M  V30 50331 H 4737.28 -0.382154 -3.01286 0
M  V30 50332 H 4734.86 -0.253004 -1.47242 0
M  V30 50333 H 4736.74 1.96398 -3.72835 0
M  V30 50334 H 4735.42 2.01478 -2.53354 0
M  V30 50335 H 4734.33 0.0367844 -3.74082 0
M  V30 50336 H 4735.66 0.0680835 -4.92153 0
M  V30 50337 N 4737.31 1.55986 -0.224949 0
M  V30 50338 C 4738.24 2.23428 0.678378 0
M  V30 50339 C 4739.22 1.20714 1.19842 0
M  V30 50340 O 4740.41 1.49308 1.2418 0
M  V30 50341 C 4737.54 2.91682 1.88517 0
M  V30 50342 C 4736.49 4.00898 1.49882 0
M  V30 50343 C 4735.82 4.56465 2.78467 0
M  V30 50344 C 4737.12 5.17772 0.686279 0
M  V30 50345 H 4738.81 2.99175 0.116068 0
M  V30 50346 H 4736.36 1.43897 0.0543854 0
M  V30 50347 H 4738.31 3.37556 2.52258 0
M  V30 50348 H 4737.03 2.13389 2.47251 0
M  V30 50349 H 4735.69 3.55761 0.88486 0
M  V30 50350 H 4735.34 3.74898 3.35352 0
M  V30 50351 H 4735.04 5.30177 2.53349 0
M  V30 50352 H 4736.56 5.05059 3.43144 0
M  V30 50353 H 4737.98 5.60005 1.22747 0
M  V30 50354 H 4736.38 5.97737 0.532049 0
M  V30 50355 H 4737.45 4.83931 -0.306366 0
M  V30 50356 N 4738.79 -0.0484076 1.57526 0
M  V30 50357 C 4740.04 -0.741999 1.87556 0
M  V30 50358 C 4740.35 -1.77542 0.820864 0
M  V30 50359 O 4741.56 -2.52024 1.00976 0
M  V30 50360 C 4740.01 -1.3707 3.32776 0
M  V30 50361 C 4739.62 -0.374629 4.46431 0
M  V30 50362 C 4741.36 -2.04529 3.71979 0
M  V30 50363 C 4739.27 -1.01057 5.82702 0
M  V30 50364 H 4738.2 -0.280878 0.699731 0
M  V30 50365 H 4740.85 0.00418328 1.835 0
M  V30 50366 H 4739.23 -2.16593 3.31517 0
M  V30 50367 H 4740.41 0.392493 4.59125 0
M  V30 50368 H 4738.72 0.196799 4.15935 0
M  V30 50369 H 4741.32 -2.52926 4.71097 0
M  V30 50370 H 4741.66 -2.85504 3.02974 0
M  V30 50371 H 4742.2 -1.31806 3.75329 0
M  V30 50372 H 4738.94 -0.240647 6.55058 0
M  V30 50373 H 4738.46 -1.74799 5.73764 0
M  V30 50374 H 4740.13 -1.52361 6.28805 0
M  V30 50375 N 4740.27 -1.54311 -0.320303 0
M  V30 50376 C 4741.2 -1.78774 -1.41828 0
M  V30 50377 C 4742.18 -0.637882 -1.49565 0
M  V30 50378 O 4743.36 -0.875687 -1.66925 0
M  V30 50379 C 4740.49 -1.90722 -2.79898 0
M  V30 50380 C 4739.53 -3.13033 -2.89676 0
M  V30 50381 S 4740.37 -4.71563 -2.5375 0
M  V30 50382 C 4741.52 -4.86421 -3.93885 0
M  V30 50383 H 4741.76 -2.71623 -1.20864 0
M  V30 50384 H 4739.29 -1.45475 -0.517325 0
M  V30 50385 H 4741.25 -1.98291 -3.59431 0
M  V30 50386 H 4739.91 -0.988448 -2.98142 0
M  V30 50387 H 4739.1 -3.18138 -3.90902 0
M  V30 50388 H 4738.7 -3.03811 -2.18117 0
M  V30 50389 H 4741 -4.69259 -4.88674 0
M  V30 50390 H 4741.94 -5.88521 -3.93761 0
M  V30 50391 H 4742.35 -4.14703 -3.82991 0
M  V30 50392 N 4741.74 0.582532 -1.46439 0
M  V30 50393 C 4742.69 1.69158 -1.57016 0
M  V30 50394 C 4743.66 1.60846 -0.414459 0
M  V30 50395 O 4744.85 1.80056 -0.631234 0
M  V30 50396 C 4741.99 3.07494 -1.56657 0
M  V30 50397 C 4741.1 3.2643 -2.82962 0
M  V30 50398 C 4740.23 4.55016 -2.74106 0
M  V30 50399 C 4739.27 4.67296 -3.95349 0
M  V30 50400 N 4738.41 5.87208 -3.84878 0
M  V30 50401 H 4743.25 1.59455 -2.5175 0
M  V30 50402 H 4740.79 0.777142 -1.24896 0
M  V30 50403 H 4742.75 3.87564 -1.54434 0
M  V30 50404 H 4741.38 3.16094 -0.654551 0
M  V30 50405 H 4740.43 2.39963 -2.95164 0
M  V30 50406 H 4741.74 3.31372 -3.72819 0
M  V30 50407 H 4740.89 5.43314 -2.69989 0
M  V30 50408 H 4739.63 4.52513 -1.81889 0
M  V30 50409 H 4738.64 3.77415 -3.99797 0
M  V30 50410 H 4739.86 4.71578 -4.88663 0
M  V30 50411 H 4737.81 5.85702 -2.95448 0
M  V30 50412 H 4737.73 5.93419 -4.68391 0
M  V30 50413 H 4738.99 6.77936 -3.84737 0
M  V30 50414 N 4743.22 1.34147 0.82718 0
M  V30 50415 C 4744.5 1.1685 1.56861 0
M  V30 50416 C 4744.88 -0.26058 2.09486 0
M  V30 50417 O 4744.23 -1.26131 1.90534 0
M  V30 50418 C 4744.44 2.21948 2.69333 0
M  V30 50419 C 4745.79 2.56707 3.38211 0
M  V30 50420 O 4746.81 2.20705 2.79585 0
M  V30 50421 O 4745.67 3.18533 4.44071 0
M  V30 50422 H 4742.76 0.452693 0.692097 0
M  V30 50423 H 4745.31 1.45766 0.868922 0
M  V30 50424 H 4744.08 3.1789 2.28171 0
M  V30 50425 H 4743.7 1.94184 3.46956 0
M  V30 50426 N 4744.7 -1.04686 1.17807 0
M  V30 50427 C 4745.95 -1.77427 0.96768 0
M  V30 50428 C 4746.27 -1.88361 -0.504507 0
M  V30 50429 O 4745.54 -1.40407 -1.36612 0
M  V30 50430 H 4744.12 -0.65723 0.355047 0
M  V30 50431 H 4746.78 -1.26375 1.48376 0
M  V30 50432 H 4745.88 -2.7892 1.40037 0
M  V30 50433 N 4746.18 -0.979116 -1.23495 0
M  V30 50434 C 4747.6 -0.687526 -1.44032 0
M  V30 50435 C 4747.8 0.746735 -1.87153 0
M  V30 50436 O 4746.85 1.51932 -2.01675 0
M  V30 50437 C 4748.16 -1.68136 -2.49301 0
M  V30 50438 C 4749.71 -1.69526 -2.63116 0
M  V30 50439 C 4750.19 -2.67736 -3.71593 0
M  V30 50440 N 4751.68 -2.66247 -3.79034 0
M  V30 50441 C 4752.41 -3.38907 -4.62525 0
M  V30 50442 N 4751.91 -4.21123 -5.50116 0
M  V30 50443 N 4753.7 -3.27678 -4.5671 0
M  V30 50444 H 4745.85 -1.90562 -0.938068 0
M  V30 50445 H 4748.12 -0.821068 -0.473869 0
M  V30 50446 H 4747.82 -2.707 -2.24531 0
M  V30 50447 H 4747.7 -1.46318 -3.47665 0
M  V30 50448 H 4750.08 -0.676662 -2.87237 0
M  V30 50449 H 4750.16 -1.95409 -1.65072 0
M  V30 50450 H 4749.81 -3.69736 -3.4822 0
M  V30 50451 H 4749.74 -2.39127 -4.69176 0
M  V30 50452 H 4752.23 -2.06579 -3.16439 0
M  V30 50453 H 4752.54 -4.73424 -6.1081 0
M  V30 50454 H 4750.89 -4.25214 -5.49744 0
M  V30 50455 H 4754.08 -2.629 -3.873 0
M  V30 50456 H 4754.25 -3.84566 -5.21549 0
M  V30 50457 N 4747.66 1.38577 -0.75061 0
M  V30 50458 C 4748.6 2.30483 -0.120916 0
M  V30 50459 C 4749.57 1.50025 0.71287 0
M  V30 50460 O 4750.76 1.78664 0.669614 0
M  V30 50461 C 4747.9 3.36433 0.768547 0
M  V30 50462 C 4747.01 4.31927 -0.079544 0
M  V30 50463 C 4746.15 5.24947 0.812645 0
M  V30 50464 C 4745.19 6.12087 -0.0392598 0
M  V30 50465 N 4744.32 6.97415 0.809723 0
M  V30 50466 H 4749.16 2.83758 -0.91025 0
M  V30 50467 H 4746.7 1.39706 -0.460512 0
M  V30 50468 H 4748.66 3.96467 1.29884 0
M  V30 50469 H 4747.29 2.84576 1.5237 0
M  V30 50470 H 4746.34 3.7338 -0.727435 0
M  V30 50471 H 4747.65 4.93317 -0.737574 0
M  V30 50472 H 4746.81 5.90083 1.41022 0
M  V30 50473 H 4745.55 4.63917 1.50442 0
M  V30 50474 H 4744.55 5.4595 -0.64952 0
M  V30 50475 H 4745.78 6.75186 -0.728047 0
M  V30 50476 H 4743.72 6.38936 1.4865 0
M  V30 50477 H 4743.64 7.55712 0.208524 0
M  V30 50478 H 4744.91 7.66964 1.39236 0
M  V30 50479 N 4749.14 0.499451 1.49477 0
M  V30 50480 C 4750.07 -0.269162 2.31943 0
M  V30 50481 C 4751.05 -0.964005 1.40146 0
M  V30 50482 O 4752.23 -0.955708 1.69056 0
M  V30 50483 C 4749.36 -1.33493 3.2062 0
M  V30 50484 C 4748.32 -0.760054 4.21197 0
M  V30 50485 C 4747.64 -1.92623 4.98799 0
M  V30 50486 C 4748.94 0.247844 5.21712 0
M  V30 50487 H 4750.64 0.419186 2.96451 0
M  V30 50488 H 4748.18 0.203038 1.42561 0
M  V30 50489 H 4750.13 -1.88034 3.77122 0
M  V30 50490 H 4748.86 -2.05244 2.54052 0
M  V30 50491 H 4747.52 -0.236402 3.65837 0
M  V30 50492 H 4747.17 -2.63139 4.28681 0
M  V30 50493 H 4746.87 -1.54765 5.66852 0
M  V30 50494 H 4748.39 -2.476 5.58145 0
M  V30 50495 H 4749.8 -0.209378 5.72918 0
M  V30 50496 H 4748.2 0.542172 5.97646 0
M  V30 50497 H 4749.27 1.16425 4.70716 0
M  V30 50498 N 4750.61 -1.55865 0.233218 0
M  V30 50499 C 4751.86 -1.98898 -0.395889 0
M  V30 50500 C 4752.19 -1.12097 -1.58581 0
M  V30 50501 O 4751.47 -0.18125 -1.93654 0
M  V30 50502 C 4751.75 -3.5066 -0.8191 0
M  V30 50503 C 4751.6 -4.48232 0.375266 0
M  V30 50504 C 4752.92 -4.07141 -1.67107 0
M  V30 50505 H 4750.04 -0.723107 -0.142425 0
M  V30 50506 H 4752.68 -1.87081 0.331791 0
M  V30 50507 H 4750.83 -3.60862 -1.43913 0
M  V30 50508 H 4752.51 -4.50027 1.01356 0
M  V30 50509 H 4750.75 -4.2162 1.02073 0
M  V30 50510 H 4751.42 -5.51988 0.0360269 0
M  V30 50511 H 4753.9 -3.99956 -1.14781 0
M  V30 50512 H 4752.77 -5.13622 -1.93606 0
M  V30 50513 H 4753.03 -3.54746 -2.63833 0
M  V30 50514 N 4752.09 0.0400529 -1.57549 0
M  V30 50515 C 4753.34 0.734145 -1.89045 0
M  V30 50516 C 4753.67 1.75589 -0.829597 0
M  V30 50517 O 4752.95 1.93868 0.156637 0
M  V30 50518 C 4753.23 1.41362 -3.31193 0
M  V30 50519 C 4753.08 0.406142 -4.47963 0
M  V30 50520 C 4754.4 2.35048 -3.72076 0
M  V30 50521 H 4751.52 0.265423 -0.687546 0
M  V30 50522 H 4754.16 -0.00300767 -1.9 0
M  V30 50523 H 4752.31 2.04195 -3.3051 0
M  V30 50524 H 4753.98 -0.219417 -4.60778 0
M  V30 50525 H 4752.23 -0.275637 -4.32923 0
M  V30 50526 H 4752.9 0.919831 -5.44282 0
M  V30 50527 H 4755.37 1.82268 -3.74055 0
M  V30 50528 H 4754.25 2.79576 -4.72365 0
M  V30 50529 H 4754.51 3.21247 -3.03731 0
M  V30 50530 N 4753.57 1.54478 0.312115 0
M  V30 50531 C 4754.98 1.64347 0.885834 0
M  V30 50532 C 4755.33 0.544916 1.88481 0
M  V30 50533 O 4754.46 -0.320312 2.14016 0
M  V30 50534 C 4755.05 2.97914 1.61346 0
M  V30 50535 C 4753.61 3.0994 2.13574 0
M  V30 50536 C 4752.76 2.59975 0.964806 0
M  V30 50537 H 4755.71 1.58448 0.0893971 0
M  V30 50538 H 4755.73 2.88715 2.47838 0
M  V30 50539 H 4755.24 3.77848 0.886144 0
M  V30 50540 H 4753.34 2.34704 2.89387 0
M  V30 50541 H 4753.46 4.15924 2.37789 0
M  V30 50542 H 4751.82 2.16152 1.34723 0
M  V30 50543 H 4752.6 3.42377 0.251621 0
M  V30 50544 N 4755.05 -0.574758 1.46746 0
M  V30 50545 C 4756.29 -1.34364 1.54032 0
M  V30 50546 C 4756.65 -1.91051 0.19071 0
M  V30 50547 O 4757.85 -2.68444 0.138349 0
M  V30 50548 C 4756.12 -2.43697 2.61431 0
M  V30 50549 S 4757.68 -3.30905 2.88179 0
M  V30 50550 H 4754.5 -0.45766 0.544121 0
M  V30 50551 H 4757.1 -0.659895 1.84026 0
M  V30 50552 H 4755.81 -2.00457 3.58113 0
M  V30 50553 H 4755.34 -3.16834 2.33195 0
M  V30 50554 H 4757.35 -4.42735 2.24055 0
M  V30 50555 N 4756.53 -1.34584 -0.820054 0
M  V30 50556 C 4757.94 -1.14328 -1.1136 0
M  V30 50557 C 4758.14 0.053294 -2.0143 0
M  V30 50558 O 4757.2 0.727959 -2.41779 0
M  V30 50559 C 4758.51 -2.43989 -1.75755 0
M  V30 50560 C 4760.06 -2.50072 -1.88237 0
M  V30 50561 C 4760.53 -3.79741 -2.56048 0
M  V30 50562 N 4762.02 -3.80918 -2.63545 0
M  V30 50563 C 4762.76 -4.77972 -3.1675 0
M  V30 50564 N 4762.26 -5.8541 -3.70496 0
M  V30 50565 N 4764.05 -4.65424 -3.15177 0
M  V30 50566 H 4756.2 -2.11247 -0.221022 0
M  V30 50567 H 4758.46 -0.934295 -0.160617 0
M  V30 50568 H 4758.17 -3.31655 -1.17038 0
M  V30 50569 H 4758.04 -2.57541 -2.75595 0
M  V30 50570 H 4760.43 -1.62843 -2.46102 0
M  V30 50571 H 4760.51 -2.40445 -0.872921 0
M  V30 50572 H 4760.15 -4.67361 -1.98837 0
M  V30 50573 H 4760.08 -3.86651 -3.57503 0
M  V30 50574 H 4762.58 -3.03282 -2.25452 0
M  V30 50575 H 4762.89 -6.55477 -4.09353 0
M  V30 50576 H 4761.23 -5.8912 -3.68732 0
M  V30 50577 H 4764.42 -3.80637 -2.72458 0
M  V30 50578 H 4764.6 -5.41228 -3.56337 0
M  V30 50579 N 4758 1.0406 -1.18361 0
M  V30 50580 C 4759.41 1.58715 -0.983176 0
M  V30 50581 C 4759.77 1.90558 0.467126 0
M  V30 50582 O 4758.89 1.69566 1.34448 0
M  V30 50583 C 4759.49 2.88373 -1.77838 0
M  V30 50584 C 4758.04 3.39645 -1.6223 0
M  V30 50585 C 4757.19 2.13229 -1.77282 0
M  V30 50586 H 4760.14 0.867312 -1.32904 0
M  V30 50587 H 4760.16 3.58768 -1.2675 0
M  V30 50588 H 4759.68 2.65166 -2.83388 0
M  V30 50589 H 4757.78 3.67864 -0.592165 0
M  V30 50590 H 4757.89 4.13467 -2.42038 0
M  V30 50591 H 4756.25 2.24538 -1.20229 0
M  V30 50592 H 4757.04 1.92477 -2.84266 0
M  V30 50593 N 4759.48 0.985651 1.22974 0
M  V30 50594 C 4760.41 0.488233 2.2394 0
M  V30 50595 C 4761.43 -0.412765 1.5748 0
M  V30 50596 O 4762.62 -0.216059 1.77188 0
M  V30 50597 C 4759.72 -0.312493 3.37456 0
M  V30 50598 C 4758.89 0.582894 4.33499 0
M  V30 50599 C 4757.95 -0.164879 5.25942 0
M  V30 50600 O 4756.97 0.447277 5.6744 0
M  V30 50601 N 4758.18 -1.44933 5.62116 0
M  V30 50602 H 4760.94 1.35639 2.67249 0
M  V30 50603 H 4758.5 0.859525 1.372 0
M  V30 50604 H 4760.49 -0.821217 3.9628 0
M  V30 50605 H 4759.06 -1.0817 2.93288 0
M  V30 50606 H 4758.28 1.27238 3.73101 0
M  V30 50607 H 4759.57 1.19292 4.94618 0
M  V30 50608 H 4758.97 -1.96812 5.3036 0
M  V30 50609 H 4757.53 -1.90339 6.23389 0
M  V30 50610 N 4760.96 -1.38177 0.757949 0
M  V30 50611 C 4762.24 -1.94105 0.241374 0
M  V30 50612 C 4762.62 -1.69287 -1.26116 0
M  V30 50613 O 4761.97 -1.03385 -2.03774 0
M  V30 50614 C 4762.18 -3.43807 0.599791 0
M  V30 50615 C 4763.52 -4.20866 0.561865 0
M  V30 50616 O 4764.55 -3.52108 0.538346 0
M  V30 50617 O 4763.41 -5.43449 0.576669 0
M  V30 50618 H 4760.5 -0.825374 0.0518332 0
M  V30 50619 H 4763.05 -1.47545 0.838367 0
M  V30 50620 H 4761.82 -3.55398 1.63732 0
M  V30 50621 H 4761.44 -3.97592 -0.02498 0
M  V30 50622 N 4762.44 -0.507371 -1.4921 0
M  V30 50623 C 4763.35 0.272054 -2.33017 0
M  V30 50624 C 4764.36 0.961155 -1.45044 0
M  V30 50625 O 4765.54 0.941128 -1.78058 0
M  V30 50626 C 4762.61 1.31884 -3.20636 0
M  V30 50627 C 4761.67 0.642499 -4.24465 0
M  V30 50628 C 4760.9 1.63941 -5.07897 0
M  V30 50629 O 4761.12 2.8699 -4.92943 0
M  V30 50630 O 4760.06 1.19123 -5.89994 0
M  V30 50631 H 4763.88 -0.414088 -3.00864 0
M  V30 50632 H 4761.47 -0.268607 -1.46966 0
M  V30 50633 H 4763.35 1.92432 -3.74897 0
M  V30 50634 H 4762.02 1.98779 -2.55477 0
M  V30 50635 H 4760.93 -0.00289403 -3.741 0
M  V30 50636 H 4762.26 0.0158803 -4.92197 0
M  V30 50637 N 4763.92 1.55739 -0.241481 0
M  V30 50638 C 4764.85 2.24135 0.654643 0
M  V30 50639 C 4765.83 1.21978 1.18555 0
M  V30 50640 O 4767.01 1.50617 1.2259 0
M  V30 50641 C 4764.14 2.93665 1.85413 0
M  V30 50642 C 4763.1 4.02465 1.45622 0
M  V30 50643 C 4762.42 4.59393 2.7361 0
M  V30 50644 C 4763.72 5.1847 0.631324 0
M  V30 50645 H 4765.42 2.99281 0.08433 0
M  V30 50646 H 4762.96 1.43947 0.0391201 0
M  V30 50647 H 4764.92 3.40212 2.48664 0
M  V30 50648 H 4763.64 2.15999 2.44973 0
M  V30 50649 H 4762.3 3.56679 0.847077 0
M  V30 50650 H 4761.95 3.78433 3.31357 0
M  V30 50651 H 4761.65 5.32835 2.47711 0
M  V30 50652 H 4763.17 5.0867 3.37768 0
M  V30 50653 H 4764.58 5.61276 1.16801 0
M  V30 50654 H 4762.98 5.98267 0.468621 0
M  V30 50655 H 4764.05 4.83579 -0.357676 0
M  V30 50656 N 4765.39 -0.0316971 1.57568 0
M  V30 50657 C 4766.64 -0.722065 1.88332 0
M  V30 50658 C 4766.96 -1.76661 0.839649 0
M  V30 50659 O 4768.16 -2.50939 1.03644 0
M  V30 50660 C 4766.62 -1.33532 3.34211 0
M  V30 50661 C 4766.23 -0.327258 4.46803 0
M  V30 50662 C 4767.97 -2.00572 3.74127 0
M  V30 50663 C 4765.88 -0.94871 5.83741 0
M  V30 50664 H 4764.81 -0.273441 0.702671 0
M  V30 50665 H 4767.46 0.0236456 1.83485 0
M  V30 50666 H 4765.84 -2.13065 3.33795 0
M  V30 50667 H 4767.01 0.441167 4.58683 0
M  V30 50668 H 4765.33 0.240904 4.15703 0
M  V30 50669 H 4767.93 -2.47915 4.73753 0
M  V30 50670 H 4768.27 -2.82274 3.05985 0
M  V30 50671 H 4768.8 -1.27818 3.76706 0
M  V30 50672 H 4765.54 -0.171156 6.55277 0
M  V30 50673 H 4765.06 -1.68704 5.75586 0
M  V30 50674 H 4766.74 -1.45683 6.30385 0
M  V30 50675 N 4766.87 -1.54642 -0.303919 0
M  V30 50676 C 4768.12 -1.73441 -1.03743 0
M  V30 50677 C 4768.44 -0.521515 -1.87897 0
M  V30 50678 O 4767.71 0.464253 -1.90319 0
M  V30 50679 H 4766.29 -0.639531 -0.386017 0
M  V30 50680 H 4768.95 -1.91989 -0.335608 0
M  V30 50681 H 4768.05 -2.62241 -1.69222 0
M  V30 50682 N 4768.35 0.566968 -1.47048 0
M  V30 50683 C 4769.77 0.891928 -1.32351 0
M  V30 50684 C 4769.97 1.99152 -0.306686 0
M  V30 50685 O 4769.02 2.50884 0.285232 0
M  V30 50686 C 4770.34 1.29439 -2.71415 0
M  V30 50687 C 4771.88 1.40636 -2.79625 0
M  V30 50688 C 4772.36 1.84242 -4.19308 0
M  V30 50689 N 4773.85 1.91409 -4.21802 0
M  V30 50690 C 4774.58 2.26458 -5.26787 0
M  V30 50691 N 4774.08 2.60188 -6.42086 0
M  V30 50692 N 4775.87 2.27148 -5.1416 0
M  V30 50693 H 4768.02 -0.159148 -2.11803 0
M  V30 50694 H 4770.29 -0.00853085 -0.947962 0
M  V30 50695 H 4769.99 0.560326 -3.47208 0
M  V30 50696 H 4769.87 2.25262 -3.0255 0
M  V30 50697 H 4772.25 2.13126 -2.04111 0
M  V30 50698 H 4772.34 0.43025 -2.52156 0
M  V30 50699 H 4771.98 1.12326 -4.95323 0
M  V30 50700 H 4771.91 2.82839 -4.44195 0
M  V30 50701 H 4774.4 1.67768 -3.38618 0
M  V30 50702 H 4774.71 2.8593 -7.17958 0
M  V30 50703 H 4773.06 2.5779 -6.45422 0
M  V30 50704 H 4776.25 2.00229 -4.23114 0
M  V30 50705 H 4776.42 2.54133 -5.96088 0
M  V30 50706 N 4769.83 1.35017 0.812906 0
M  V30 50707 C 4770.79 1.27299 1.90598 0
M  V30 50708 C 4771.79 0.185873 1.59722 0
M  V30 50709 O 4772.98 0.439161 1.68573 0
M  V30 50710 C 4770.11 0.967791 3.26874 0
M  V30 50711 H 4771.31 2.24486 1.98862 0
M  V30 50712 H 4768.86 1.1945 1.00804 0
M  V30 50713 H 4769.59 -0.000481393 3.243 0
M  V30 50714 H 4769.38 1.75424 3.50669 0
M  V30 50715 H 4770.87 0.939228 4.06901 0
M  V30 50716 N 4771.31 -1.03431 1.18911 0
M  V30 50717 C 4772.72 -1.2897 0.940156 0
M  V30 50718 C 4772.92 -1.97678 -0.390622 0
M  V30 50719 O 4771.98 -2.26131 -1.12344 0
M  V30 50720 C 4773.29 -2.14214 2.11028 0
M  V30 50721 C 4774.84 -2.27539 2.1493 0
M  V30 50722 C 4775.31 -3.16152 3.31378 0
M  V30 50723 N 4776.81 -3.2374 3.3128 0
M  V30 50724 C 4777.54 -3.9248 4.18027 0
M  V30 50725 N 4777.04 -4.63497 5.1492 0
M  V30 50726 N 4778.83 -3.88824 4.05921 0
M  V30 50727 H 4770.98 -0.572448 2.0454 0
M  V30 50728 H 4773.24 -0.315152 0.894082 0
M  V30 50729 H 4772.95 -1.71043 3.07306 0
M  V30 50730 H 4772.82 -3.14911 2.07631 0
M  V30 50731 H 4775.21 -2.69943 1.19226 0
M  V30 50732 H 4775.29 -1.26411 2.22383 0
M  V30 50733 H 4774.94 -2.74459 4.27358 0
M  V30 50734 H 4774.87 -4.17328 3.21162 0
M  V30 50735 H 4777.36 -2.73157 2.61139 0
M  V30 50736 H 4777.67 -5.13563 5.77472 0
M  V30 50737 H 4776.01 -4.6238 5.18874 0
M  V30 50738 H 4779.21 -3.3248 3.29507 0
M  V30 50739 H 4779.38 -4.42123 4.73742 0
M  V30 50740 N 4772.78 -0.992159 -1.2245 0
M  V30 50741 C 4774.03 -0.663059 -1.9049 0
M  V30 50742 C 4774.35 0.808345 -1.78116 0
M  V30 50743 O 4775.55 1.249 -2.41065 0
M  V30 50744 C 4774.01 -1.13542 -3.41521 0
M  V30 50745 C 4773.62 -2.63199 -3.62533 0
M  V30 50746 C 4775.36 -0.880611 -4.15266 0
M  V30 50747 C 4773.27 -3.04042 -5.0726 0
M  V30 50748 H 4772.2 -0.244303 -0.713325 0
M  V30 50749 H 4774.85 -1.20162 -1.38684 0
M  V30 50750 H 4773.23 -0.524988 -3.92505 0
M  V30 50751 H 4774.4 -3.29582 -3.22044 0
M  V30 50752 H 4772.72 -2.86554 -3.02119 0
M  V30 50753 H 4775.32 -1.16147 -5.21933 0
M  V30 50754 H 4775.66 0.183262 -4.15896 0
M  V30 50755 H 4776.19 -1.4532 -3.70307 0
M  V30 50756 H 4772.93 -4.09602 -5.11768 0
M  V30 50757 H 4772.45 -2.42362 -5.48653 0
M  V30 50758 H 4774.13 -2.95302 -5.75679 0
M  V30 50759 N 4774.26 1.37773 -0.765266 0
M  V30 50760 C 4775.49 2.0465 -0.336609 0
M  V30 50761 C 4775.91 1.57341 1.0308 0
M  V30 50762 O 4775.27 0.730679 1.65924 0
M  V30 50763 C 4775.32 3.58575 -0.381594 0
M  V30 50764 O 4774.42 4.07709 0.620276 0
M  V30 50765 H 4773.76 0.647555 -0.146861 0
M  V30 50766 H 4776.29 1.76217 -1.03965 0
M  V30 50767 H 4776.3 4.07313 -0.236591 0
M  V30 50768 H 4774.98 3.92365 -1.37921 0
M  V30 50769 H 4773.56 3.70308 0.438926 0
M  V30 50770 N 4775.74 0.515277 1.48938 0
M  V30 50771 C 4776.67 -0.292401 2.27327 0
M  V30 50772 C 4777.69 -0.91779 1.34464 0
M  V30 50773 O 4778.88 -0.798716 1.59633 0
M  V30 50774 C 4775.98 -1.42792 3.07349 0
M  V30 50775 C 4775.15 -0.907196 4.27889 0
M  V30 50776 C 4774.21 -1.92205 4.8984 0
M  V30 50777 O 4773.23 -1.48487 5.49491 0
M  V30 50778 N 4774.44 -3.25338 4.80765 0
M  V30 50779 H 4777.2 0.379825 2.97283 0
M  V30 50780 H 4774.76 0.348694 1.581 0
M  V30 50781 H 4776.75 -2.10469 3.45666 0
M  V30 50782 H 4775.32 -2.00406 2.39909 0
M  V30 50783 H 4774.54 -0.0548832 3.94162 0
M  V30 50784 H 4775.83 -0.53793 5.05948 0
M  V30 50785 H 4775.23 -3.63535 4.33427 0
M  V30 50786 H 4773.79 -3.88689 5.23225 0
M  V30 50787 N 4777.22 -1.55609 0.249737 0
M  V30 50788 C 4778.47 -1.98619 -0.373478 0
M  V30 50789 C 4778.79 -1.13925 -1.5826 0
M  V30 50790 O 4778.06 -0.222705 -1.9463 0
M  V30 50791 H 4776.64 -0.733576 -0.14098 0
M  V30 50792 H 4779.3 -1.91746 0.349184 0
M  V30 50793 H 4778.4 -3.04587 -0.680689 0
M  V30 50794 N 4778.7 0.0233405 -1.57583 0
M  V30 50795 C 4779.66 1.00686 -2.05901 0
M  V30 50796 C 4780.66 1.2869 -0.964137 0
M  V30 50797 O 4781.85 1.23598 -1.22757 0
M  V30 50798 C 4778.98 2.33816 -2.48078 0
M  V30 50799 H 4780.18 0.589372 -2.94052 0
M  V30 50800 H 4777.73 0.2703 -1.53945 0
M  V30 50801 H 4778.46 2.80301 -1.631 0
M  V30 50802 H 4778.25 2.14818 -3.28018 0
M  V30 50803 H 4779.74 3.04416 -2.85868 0
M  V30 50804 N 4780.18 1.54801 0.295713 0
M  V30 50805 C 4781.42 1.73989 1.02822 0
M  V30 50806 C 4781.74 0.531472 1.87618 0
M  V30 50807 O 4781.01 -0.454154 1.90563 0
M  V30 50808 H 4779.59 0.641569 0.38262 0
M  V30 50809 H 4782.26 1.92164 0.325422 0
M  V30 50810 H 4781.35 2.63135 1.67829 0
M  V30 50811 N 4781.65 -0.559161 1.47347 0
M  V30 50812 C 4782.9 -1.31608 1.55083 0
M  V30 50813 C 4783.25 -1.91256 0.209489 0
M  V30 50814 O 4782.55 -1.74799 -0.784594 0
M  V30 50815 C 4782.74 -2.44844 2.60358 0
M  V30 50816 C 4782.57 -1.96291 4.04598 0
M  V30 50817 C 4781.34 -1.80224 4.72067 0
M  V30 50818 C 4783.54 -1.50855 4.91678 0
M  V30 50819 N 4781.52 -1.2599 6.00832 0
M  V30 50820 C 4782.89 -1.08373 6.10455 0
M  V30 50821 C 4784.95 -1.38888 4.78137 0
M  V30 50822 C 4783.65 -0.551147 7.17185 0
M  V30 50823 C 4785.68 -0.870313 5.84961 0
M  V30 50824 C 4785.04 -0.455414 7.02926 0
M  V30 50825 H 4781.14 -0.47369 0.622207 0
M  V30 50826 H 4783.72 -0.634038 1.84087 0
M  V30 50827 H 4781.89 -3.10581 2.33226 0
M  V30 50828 H 4783.62 -3.1184 2.57949 0
M  V30 50829 H 4780.38 -2.0288 4.27945 0
M  V30 50830 H 4780.8 -1.00967 6.69429 0
M  V30 50831 H 4785.44 -1.69578 3.87303 0
M  V30 50832 H 4783.16 -0.231875 8.07767 0
M  V30 50833 H 4786.75 -0.781304 5.7653 0
M  V30 50834 H 4785.63 -0.0603658 7.84177 0
M  V30 50835 N 4783.13 -1.35446 -0.805734 0
M  V30 50836 C 4784.36 -1.32043 -1.59936 0
M  V30 50837 C 4784.78 0.0993555 -1.87837 0
M  V30 50838 O 4784.14 1.06643 -1.46619 0
M  V30 50839 C 4784.19 -2.13364 -2.90703 0
M  V30 50840 O 4783.29 -1.51494 -3.83567 0
M  V30 50841 H 4782.63 -0.452683 -0.485771 0
M  V30 50842 H 4785.16 -1.78499 -0.999956 0
M  V30 50843 H 4785.17 -2.2535 -3.4012 0
M  V30 50844 H 4783.85 -3.16581 -2.6972 0
M  V30 50845 H 4782.42 -1.48352 -3.4212 0
M  V30 50846 N 4784.61 1.02799 -1.19458 0
M  V30 50847 C 4785.54 2.12995 -0.956833 0
M  V30 50848 C 4786.52 1.69743 0.110129 0
M  V30 50849 O 4787.71 1.94148 -0.045072 0
M  V30 50850 C 4784.84 3.43745 -0.495674 0
M  V30 50851 C 4783.79 4.00683 -1.50457 0
M  V30 50852 C 4783.12 5.27063 -0.900461 0
M  V30 50853 C 4784.42 4.35387 -2.88506 0
M  V30 50854 H 4786.11 2.33142 -1.87844 0
M  V30 50855 H 4783.66 1.12042 -0.904578 0
M  V30 50856 H 4785.61 4.20209 -0.316641 0
M  V30 50857 H 4784.33 3.23323 0.461532 0
M  V30 50858 H 4782.99 3.26314 -1.67077 0
M  V30 50859 H 4782.64 5.02959 0.0643261 0
M  V30 50860 H 4782.34 5.66122 -1.57417 0
M  V30 50861 H 4783.86 6.06194 -0.732243 0
M  V30 50862 H 4785.28 5.02785 -2.75464 0
M  V30 50863 H 4783.67 4.85529 -3.52678 0
M  V30 50864 H 4784.74 3.4465 -3.41093 0
M  V30 50865 N 4786.09 0.998639 1.21922 0
M  V30 50866 C 4787.5 0.710353 1.4292 0
M  V30 50867 C 4787.7 -0.716867 1.88317 0
M  V30 50868 O 4786.76 -1.48704 2.04067 0
M  V30 50869 C 4788.07 1.72081 2.46594 0
M  V30 50870 C 4789.62 1.7369 2.60386 0
M  V30 50871 C 4790.1 2.73614 3.67287 0
M  V30 50872 N 4791.59 2.72243 3.74751 0
M  V30 50873 C 4792.32 3.46223 4.57075 0
M  V30 50874 N 4791.82 4.29821 5.43347 0
M  V30 50875 N 4793.61 3.34902 4.51439 0
M  V30 50876 H 4785.76 1.92031 0.907632 0
M  V30 50877 H 4788.02 0.828503 0.460746 0
M  V30 50878 H 4787.73 2.74238 2.20196 0
M  V30 50879 H 4787.6 1.5183 3.45293 0
M  V30 50880 H 4789.99 0.722273 2.86124 0
M  V30 50881 H 4790.07 1.98011 1.61942 0
M  V30 50882 H 4789.72 3.75229 3.42294 0
M  V30 50883 H 4789.65 2.46561 4.65312 0
M  V30 50884 H 4792.14 2.11587 3.13112 0
M  V30 50885 H 4792.45 4.83082 6.03201 0
M  V30 50886 H 4790.8 4.33906 5.42909 0
M  V30 50887 H 4793.99 2.69029 3.83068 0
M  V30 50888 H 4794.16 3.92814 5.15365 0
M  V30 50889 N 4787.57 -1.37365 0.772562 0
M  V30 50890 C 4788.48 -2.34053 0.160163 0
M  V30 50891 C 4789.49 -1.60219 -0.678671 0
M  V30 50892 O 4790.67 -1.92305 -0.598402 0
M  V30 50893 C 4787.73 -3.39393 -0.708062 0
M  V30 50894 C 4786.79 -4.29047 0.147323 0
M  V30 50895 C 4786.03 -5.29356 -0.679558 0
M  V30 50896 O 4786.25 -5.37236 -1.91659 0
M  V30 50897 O 4785.18 -6.01835 -0.0883328 0
M  V30 50898 H 4789.01 -2.88156 0.959154 0
M  V30 50899 H 4786.59 -1.39541 0.533734 0
M  V30 50900 H 4788.48 -4.03843 -1.2037 0
M  V30 50901 H 4787.15 -2.87616 -1.48523 0
M  V30 50902 H 4786.06 -3.67694 0.689335 0
M  V30 50903 H 4787.39 -4.84131 0.887593 0
M  V30 50904 N 4789.04 -0.523168 -1.48663 0
M  V30 50905 C 4790.27 0.00955847 -2.06898 0
M  V30 50906 C 4790.69 1.28779 -1.38063 0
M  V30 50907 O 4790.04 1.76451 -0.465955 0
M  V30 50908 C 4790.09 0.24426 -3.60674 0
M  V30 50909 O 4789.82 -0.983322 -4.26922 0
M  V30 50910 C 4791.32 0.818136 -4.35685 0
M  V30 50911 H 4788.54 -0.0304396 -0.670309 0
M  V30 50912 H 4791.08 -0.726866 -1.91146 0
M  V30 50913 H 4789.24 0.930715 -3.76054 0
M  V30 50914 H 4789.65 -0.759836 -5.18967 0
M  V30 50915 H 4791.12 0.931818 -5.44078 0
M  V30 50916 H 4791.6 1.82139 -3.99652 0
M  V30 50917 H 4792.21 0.168459 -4.24966 0
M  V30 50918 N 4790.52 1.55474 -0.257986 0
M  V30 50919 C 4791.49 2.20553 0.623629 0
M  V30 50920 C 4792.49 1.17813 1.09438 0
M  V30 50921 O 4793.68 1.42826 0.997312 0
M  V30 50922 C 4790.81 2.8579 1.8584 0
M  V30 50923 H 4792 2.99848 0.0556689 0
M  V30 50924 H 4789.55 1.56298 -0.00849715 0
M  V30 50925 H 4790.29 2.10462 2.46731 0
M  V30 50926 H 4790.07 3.61062 1.52894 0
M  V30 50927 H 4791.56 3.35562 2.48572 0
M  V30 50928 N 4792 -0.0149831 1.57593 0
M  V30 50929 C 4793.24 -0.707613 1.91761 0
M  V30 50930 C 4793.6 -1.71761 0.858034 0
M  V30 50931 O 4794.81 -2.45952 1.08449 0
M  V30 50932 C 4793.08 -1.34724 3.31035 0
M  V30 50933 S 4794.64 -2.06707 3.87063 0
M  V30 50934 H 4791.45 -0.234095 0.671357 0
M  V30 50935 H 4794.06 0.038106 1.95463 0
M  V30 50936 H 4792.76 -0.599117 4.06003 0
M  V30 50937 H 4792.29 -2.13121 3.30671 0
M  V30 50938 H 4794.31 -3.34034 3.66927 0
M  V30 50939 N 4793.48 -1.54955 -0.2875 0
M  V30 50940 C 4794.41 -1.89844 -1.35947 0
M  V30 50941 C 4795.39 -0.758729 -1.52241 0
M  V30 50942 O 4796.57 -1.01563 -1.65525 0
M  V30 50943 C 4793.7 -2.15762 -2.72147 0
M  V30 50944 C 4792.66 -3.316 -2.70602 0
M  V30 50945 C 4791.98 -3.42966 -4.10217 0
M  V30 50946 C 4793.28 -4.68367 -2.31149 0
M  V30 50947 H 4794.98 -2.79628 -1.06997 0
M  V30 50948 H 4792.52 -1.34542 -0.513268 0
M  V30 50949 H 4794.48 -2.38755 -3.47237 0
M  V30 50950 H 4793.2 -1.22762 -3.0265 0
M  V30 50951 H 4791.86 -3.08552 -1.97968 0
M  V30 50952 H 4791.51 -2.47458 -4.37919 0
M  V30 50953 H 4791.21 -4.20841 -4.10082 0
M  V30 50954 H 4792.73 -3.68235 -4.87068 0
M  V30 50955 H 4794.15 -4.91001 -2.95958 0
M  V30 50956 H 4792.54 -5.49052 -2.42202 0
M  V30 50957 H 4793.61 -4.6817 -1.26275 0
M  V30 50958 N 4794.96 0.551339 -1.47641 0
M  V30 50959 C 4796.2 1.30566 -1.54262 0
M  V30 50960 C 4796.53 1.93876 -0.209031 0
M  V30 50961 O 4795.8 1.80237 0.767556 0
M  V30 50962 H 4794.38 0.484874 -0.568248 0
M  V30 50963 H 4797.04 0.643337 -1.83976 0
M  V30 50964 H 4796.13 2.09613 -2.31233 0
M  V30 50965 N 4796.43 1.35872 0.79854 0
M  V30 50966 C 4797.38 1.29453 1.91077 0
M  V30 50967 C 4798.35 0.164928 1.65279 0
M  V30 50968 O 4799.54 0.349954 1.87563 0
M  V30 50969 C 4796.68 1.08052 3.27748 0
M  V30 50970 C 4795.79 2.30006 3.65679 0
M  V30 50971 C 4794.92 2.0169 4.91421 0
M  V30 50972 C 4793.96 3.19654 5.22004 0
M  V30 50973 N 4793.1 2.91062 6.38927 0
M  V30 50974 H 4797.94 2.2456 1.959 0
M  V30 50975 H 4795.48 1.11618 0.958109 0
M  V30 50976 H 4797.44 0.936729 4.06548 0
M  V30 50977 H 4796.07 0.166033 3.22373 0
M  V30 50978 H 4795.12 2.55221 2.82076 0
M  V30 50979 H 4796.43 3.18065 3.84234 0
M  V30 50980 H 4795.58 1.84188 5.78065 0
M  V30 50981 H 4794.32 1.10927 4.74917 0
M  V30 50982 H 4793.33 3.37725 4.33846 0
M  V30 50983 H 4794.55 4.1123 5.40432 0
M  V30 50984 H 4792.5 2.02902 6.23832 0
M  V30 50985 H 4792.42 3.72658 6.57771 0
M  V30 50986 H 4793.68 2.77119 7.28578 0
M  V30 50987 N 4797.91 -1.02164 1.20001 0
M  V30 50988 C 4798.88 -2.08761 0.946113 0
M  V30 50989 C 4799.88 -1.60619 -0.0763281 0
M  V30 50990 O 4801.07 -1.73471 0.159196 0
M  V30 50991 C 4798.2 -3.38261 0.423374 0
M  V30 50992 H 4799.39 -2.32719 1.89161 0
M  V30 50993 H 4796.94 -1.18886 1.01468 0
M  V30 50994 H 4797.68 -3.19976 -0.527825 0
M  V30 50995 H 4797.46 -3.74528 1.16066 0
M  V30 50996 H 4798.95 -4.16758 0.265058 0
M  V30 50997 N 4799.39 -1.00509 -1.21391 0
M  V30 50998 C 4800.62 -0.705652 -1.94175 0
M  V30 50999 C 4801.03 0.735785 -1.74307 0
M  V30 51000 O 4800.37 1.50951 -1.04688 0
M  V30 51001 C 4800.43 -0.947012 -3.46802 0
M  V30 51002 C 4800.1 -2.37531 -3.90421 0
M  V30 51003 C 4801.09 -3.35553 -3.97115 0
M  V30 51004 C 4798.78 -2.71298 -4.22732 0
M  V30 51005 C 4800.77 -4.6541 -4.35513 0
M  V30 51006 C 4798.46 -4.01372 -4.60808 0
M  V30 51007 C 4799.46 -4.98239 -4.67169 0
M  V30 51008 O 4799.15 -6.25987 -5.04377 0
M  V30 51009 H 4798.88 -0.259238 -0.624317 0
M  V30 51010 H 4801.43 -1.34597 -1.55154 0
M  V30 51011 H 4799.66 -0.249522 -3.85894 0
M  V30 51012 H 4801.35 -0.640945 -4.00808 0
M  V30 51013 H 4802.12 -3.10799 -3.72329 0
M  V30 51014 H 4798 -1.96596 -4.16978 0
M  V30 51015 H 4801.54 -5.41017 -4.40393 0
M  V30 51016 H 4797.44 -4.2591 -4.85048 0
M  V30 51017 H 4798.21 -6.30104 -5.22409 0
M  V30 51018 N 4800.87 1.36954 -0.779835 0
M  V30 51019 C 4801.83 2.2851 -0.177743 0
M  V30 51020 C 4802.83 1.48395 0.619325 0
M  V30 51021 O 4804.02 1.68506 0.441725 0
M  V30 51022 C 4801.15 3.32431 0.755162 0
M  V30 51023 H 4802.35 2.83265 -0.984922 0
M  V30 51024 H 4799.9 1.46356 -0.548596 0
M  V30 51025 H 4800.63 2.82813 1.58704 0
M  V30 51026 H 4800.42 3.9166 0.18568 0
M  V30 51027 H 4801.91 4.00828 1.1716 0
M  V30 51028 N 4802.35 0.531045 1.48384 0
M  V30 51029 C 4803.28 -0.268273 2.27625 0
M  V30 51030 C 4804.29 -0.903477 1.35429 0
M  V30 51031 O 4805.48 -0.78174 1.60471 0
M  V30 51032 C 4802.58 -1.39524 3.08846 0
M  V30 51033 C 4801.75 -0.861762 4.28827 0
M  V30 51034 C 4800.81 -1.86999 4.91851 0
M  V30 51035 O 4799.84 -1.42651 5.51035 0
M  V30 51036 N 4801.04 -3.20221 4.84189 0
M  V30 51037 H 4803.81 0.411335 2.96864 0
M  V30 51038 H 4801.37 0.365443 1.57722 0
M  V30 51039 H 4803.36 -2.06791 3.47879 0
M  V30 51040 H 4801.93 -1.9785 2.42021 0
M  V30 51041 H 4801.15 -0.013074 3.94198 0
M  V30 51042 H 4802.44 -0.484237 5.0649 0
M  V30 51043 H 4801.83 -3.58917 4.37259 0
M  V30 51044 H 4800.39 -3.83117 5.27318 0
M  V30 51045 N 4803.82 -1.55335 0.266227 0
M  V30 51046 C 4804.76 -2.18258 -0.66622 0
M  V30 51047 C 4805.74 -1.14068 -1.15876 0
M  V30 51048 O 4806.92 -1.4255 -1.23336 0
M  V30 51049 C 4804.05 -2.79873 -1.90758 0
M  V30 51050 C 4803.09 -3.97288 -1.55127 0
M  V30 51051 S 4803.93 -5.31696 -0.637126 0
M  V30 51052 C 4805.08 -5.96775 -1.88706 0
M  V30 51053 H 4805.31 -2.97009 -0.131543 0
M  V30 51054 H 4802.85 -1.54317 0.0505411 0
M  V30 51055 H 4804.81 -3.16005 -2.62013 0
M  V30 51056 H 4803.47 -2.01033 -2.41339 0
M  V30 51057 H 4802.66 -4.39059 -2.47474 0
M  V30 51058 H 4802.26 -3.62534 -0.918985 0
M  V30 51059 H 4804.55 -6.15468 -2.83206 0
M  V30 51060 H 4805.5 -6.91758 -1.51251 0
M  V30 51061 H 4805.9 -5.26041 -2.04795 0
M  V30 51062 N 4805.3 0.0066254 -1.57599 0
M  V30 51063 C 4806.55 0.688282 -1.91401 0
M  V30 51064 C 4806.9 1.71747 -0.867221 0
M  V30 51065 O 4806.2 1.91215 0.121408 0
M  V30 51066 C 4806.39 1.37928 -3.29713 0
M  V30 51067 C 4806.22 0.418532 -4.47748 0
M  V30 51068 C 4804.99 0.0313483 -5.0529 0
M  V30 51069 C 4807.19 -0.312482 -5.1335 0
M  V30 51070 N 4805.17 -0.928301 -6.06841 0
M  V30 51071 C 4806.54 -1.12703 -6.0967 0
M  V30 51072 C 4808.6 -0.377027 -4.9647 0
M  V30 51073 C 4807.3 -2.00024 -6.90929 0
M  V30 51074 C 4809.33 -1.23744 -5.78309 0
M  V30 51075 C 4808.69 -2.03986 -6.74218 0
M  V30 51076 H 4804.79 0.225266 -0.748852 0
M  V30 51077 H 4807.37 -0.0521657 -1.9463 0
M  V30 51078 H 4805.54 2.09005 -3.2737 0
M  V30 51079 H 4807.27 2.0151 -3.50964 0
M  V30 51080 H 4804.03 0.398319 -4.71922 0
M  V30 51081 H 4804.45 -1.4033 -6.62296 0
M  V30 51082 H 4809.09 0.229062 -4.22179 0
M  V30 51083 H 4806.81 -2.61703 -7.6455 0
M  V30 51084 H 4810.4 -1.2912 -5.67291 0
M  V30 51085 H 4809.28 -2.69487 -7.36442 0
M  V30 51086 N 4806.78 1.55106 0.279278 0
M  V30 51087 C 4808.01 1.79434 1.0301 0
M  V30 51088 C 4808.42 0.56452 1.80163 0
M  V30 51089 O 4807.78 -0.466264 1.76443 0
M  V30 51090 C 4807.83 3.01557 1.99363 0
M  V30 51091 O 4807.55 4.19788 1.25338 0
M  V30 51092 C 4809.05 3.3844 2.86309 0
M  V30 51093 H 4806.27 0.597893 0.304573 0
M  V30 51094 H 4808.82 2.02106 0.311964 0
M  V30 51095 H 4806.97 2.81029 2.66649 0
M  V30 51096 H 4807.39 4.88788 1.90228 0
M  V30 51097 H 4808.86 4.27078 3.49726 0
M  V30 51098 H 4809.34 2.57562 3.55751 0
M  V30 51099 H 4809.94 3.61205 2.24524 0
M  V30 51100 N 4808.26 -0.543502 1.47932 0
M  V30 51101 C 4809.19 -1.65882 1.64333 0
M  V30 51102 C 4810.17 -1.62816 0.49244 0
M  V30 51103 O 4811.36 -1.80224 0.723401 0
M  V30 51104 C 4808.49 -3.045 1.67024 0
M  V30 51105 C 4807.44 -3.2242 2.81477 0
M  V30 51106 C 4806.77 -4.61962 2.69249 0
M  V30 51107 C 4808.07 -3.06481 4.22926 0
M  V30 51108 H 4809.76 -1.52412 2.57703 0
M  V30 51109 H 4807.31 -0.731805 1.24019 0
M  V30 51110 H 4809.26 -3.82385 1.77087 0
M  V30 51111 H 4807.98 -3.18961 0.702232 0
M  V30 51112 H 4806.64 -2.46948 2.70947 0
M  V30 51113 H 4806.29 -4.73241 1.70447 0
M  V30 51114 H 4805.99 -4.74899 3.46041 0
M  V30 51115 H 4807.51 -5.41964 2.81261 0
M  V30 51116 H 4808.93 -3.74171 4.34361 0
M  V30 51117 H 4807.32 -3.3092 5.00612 0
M  V30 51118 H 4808.39 -2.03062 4.40334 0
M  V30 51119 N 4809.74 -1.36293 -0.791323 0
M  V30 51120 C 4810.67 -1.24823 -1.91036 0
M  V30 51121 C 4811.65 -0.132796 -1.62057 0
M  V30 51122 O 4812.83 -0.303592 -1.86039 0
M  V30 51123 C 4809.96 -0.92547 -3.25811 0
M  V30 51124 C 4809.01 -2.05508 -3.73723 0
M  V30 51125 S 4809.84 -3.67269 -3.8971 0
M  V30 51126 C 4810.99 -3.37103 -5.27364 0
M  V30 51127 H 4811.23 -2.1954 -2.00473 0
M  V30 51128 H 4808.76 -1.21687 -0.95035 0
M  V30 51129 H 4810.72 -0.746066 -4.03663 0
M  V30 51130 H 4809.38 0.00389056 -3.141 0
M  V30 51131 H 4808.57 -1.78377 -4.71379 0
M  V30 51132 H 4808.17 -2.1936 -3.02914 0
M  V30 51133 H 4810.47 -2.90878 -6.11879 0
M  V30 51134 H 4811.41 -4.34015 -5.59497 0
M  V30 51135 H 4811.82 -2.72497 -4.94374 0
M  V30 51136 N 4811.22 1.01526 -1.20541 0
M  V30 51137 C 4812.45 1.78483 -1.04054 0
M  V30 51138 C 4812.85 1.84632 0.413227 0
M  V30 51139 O 4812.2 1.29924 1.29867 0
M  V30 51140 C 4812.26 3.24362 -1.55015 0
M  V30 51141 C 4811.92 3.41816 -3.03332 0
M  V30 51142 C 4812.92 3.30927 -4.00978 0
M  V30 51143 C 4810.6 3.6759 -3.4232 0
M  V30 51144 C 4812.6 3.45558 -5.35601 0
M  V30 51145 C 4810.29 3.81865 -4.77098 0
M  V30 51146 C 4811.28 3.70854 -5.73547 0
M  V30 51147 O 4810.97 3.84689 -7.05882 0
M  V30 51148 H 4810.7 0.568095 -0.366393 0
M  V30 51149 H 4813.26 1.28671 -1.60103 0
M  V30 51150 H 4811.49 3.75263 -0.933529 0
M  V30 51151 H 4813.18 3.82959 -1.34527 0
M  V30 51152 H 4813.94 3.10951 -3.72202 0
M  V30 51153 H 4809.82 3.75247 -2.67789 0
M  V30 51154 H 4813.37 3.3688 -6.10866 0
M  V30 51155 H 4809.26 4.01341 -5.05564 0
M  V30 51156 H 4810.03 4.01699 -7.13148 0
M  V30 51157 N 4812.69 1.01151 1.20856 0
M  V30 51158 C 4813.94 0.697932 1.90093 0
M  V30 51159 C 4814.27 -0.771951 1.78525 0
M  V30 51160 O 4813.52 -1.57591 1.16033 0
M  V30 51161 C 4813.82 1.07282 3.40918 0
M  V30 51162 C 4813.49 2.53806 3.72684 0
M  V30 51163 C 4812.15 2.93842 3.81065 0
M  V30 51164 C 4814.5 3.48687 3.87384 0
M  V30 51165 C 4811.83 4.2771 4.01598 0
M  V30 51166 C 4814.18 4.82237 4.09427 0
M  V30 51167 C 4812.85 5.21987 4.16035 0
M  V30 51168 H 4812.12 0.255391 0.695598 0
M  V30 51169 H 4814.76 1.27116 1.43227 0
M  V30 51170 H 4813.07 0.417936 3.89565 0
M  V30 51171 H 4814.77 0.807956 3.92776 0
M  V30 51172 H 4811.36 2.21781 3.66758 0
M  V30 51173 H 4815.54 3.18918 3.8027 0
M  V30 51174 H 4810.8 4.58069 4.04948 0
M  V30 51175 H 4814.97 5.55687 4.19744 0
M  V30 51176 H 4812.6 6.25732 4.31699 0
M  V30 51177 N 4814.17 -1.36538 0.787088 0
M  V30 51178 C 4815.12 -2.27459 0.157037 0
M  V30 51179 C 4816.11 -1.46846 -0.657658 0
M  V30 51180 O 4817.3 -1.69247 -0.518113 0
M  V30 51181 C 4814.43 -3.35896 -0.70916 0
M  V30 51182 C 4813.51 -4.23946 0.114198 0
M  V30 51183 N 4813.9 -4.9214 1.16754 0
M  V30 51184 C 4812.2 -4.45871 -0.10734 0
M  V30 51185 C 4812.9 -5.57255 1.66857 0
M  V30 51186 N 4811.88 -5.34727 0.97818 0
M  V30 51187 H 4815.68 -2.77665 0.963283 0
M  V30 51188 H 4813.19 -1.49836 0.626323 0
M  V30 51189 H 4815.19 -3.99957 -1.17642 0
M  V30 51190 H 4813.85 -2.87243 -1.51398 0
M  V30 51191 H 4814.86 -4.94163 1.54993 0
M  V30 51192 H 4811.54 -4.08059 -0.88285 0
M  V30 51193 H 4812.93 -6.21719 2.54784 0
M  V30 51194 N 4815.65 -0.538906 -1.481 0
M  V30 51195 C 4817.07 -0.197376 -1.58375 0
M  V30 51196 C 4817.27 1.29966 -1.53984 0
M  V30 51197 O 4816.32 2.07856 -1.4336 0
M  V30 51198 C 4817.63 -0.807817 -2.89646 0
M  V30 51199 C 4819.18 -0.777366 -3.03193 0
M  V30 51200 C 4819.66 -1.36654 -4.37138 0
M  V30 51201 N 4821.15 -1.32891 -4.43728 0
M  V30 51202 C 4821.88 -1.75459 -5.45895 0
M  V30 51203 N 4821.38 -2.25799 -6.54971 0
M  V30 51204 N 4823.17 -1.66642 -5.3683 0
M  V30 51205 H 4815.32 -1.51176 -1.49197 0
M  V30 51206 H 4817.59 -0.629352 -0.708957 0
M  V30 51207 H 4817.29 -1.85919 -2.98541 0
M  V30 51208 H 4817.17 -0.290107 -3.76083 0
M  V30 51209 H 4819.55 0.265271 -2.93905 0
M  V30 51210 H 4819.63 -1.33264 -2.18345 0
M  V30 51211 H 4819.28 -2.40816 -4.4718 0
M  V30 51212 H 4819.21 -0.786872 -5.20688 0
M  V30 51213 H 4821.7 -0.960498 -3.6549 0
M  V30 51214 H 4822.01 -2.56251 -7.29078 0
M  V30 51215 H 4820.36 -2.29798 -6.5591 0
M  V30 51216 H 4823.55 -1.27105 -4.50513 0
M  V30 51217 H 4823.72 -2.00137 -6.16319 0
M  V30 51218 N 4817.13 1.55192 -0.274461 0
M  V30 51219 C 4818.54 1.59401 0.0796982 0
M  V30 51220 C 4818.74 1.29168 1.54654 0
M  V30 51221 O 4817.8 1.05223 2.29531 0
M  V30 51222 C 4819.11 2.99256 -0.294343 0
M  V30 51223 C 4820.66 3.12072 -0.240906 0
M  V30 51224 C 4821.14 4.54192 -0.589378 0
M  V30 51225 N 4822.63 4.60031 -0.540906 0
M  V30 51226 C 4823.36 5.68024 -0.783347 0
M  V30 51227 N 4822.86 6.84166 -1.09037 0
M  V30 51228 N 4824.65 5.5757 -0.712189 0
M  V30 51229 H 4816.8 1.73109 -1.23073 0
M  V30 51230 H 4819.06 0.807179 -0.497158 0
M  V30 51231 H 4818.77 3.26213 -1.31446 0
M  V30 51232 H 4818.64 3.75428 0.365149 0
M  V30 51233 H 4821.03 2.84879 0.769923 0
M  V30 51234 H 4821.11 2.38113 -0.934647 0
M  V30 51235 H 4820.76 4.8211 -1.59789 0
M  V30 51236 H 4820.69 5.26449 0.126146 0
M  V30 51237 H 4823.18 3.76598 -0.313459 0
M  V30 51238 H 4823.49 7.62425 -1.26205 0
M  V30 51239 H 4821.84 6.85783 -1.12814 0
M  V30 51240 H 4825.03 4.65712 -0.472178 0
M  V30 51241 H 4825.2 6.41656 -0.904515 0
M  V30 51242 N 4818.61 0.00173253 1.576 0
M  V30 51243 C 4819.88 -0.719887 1.81871 0
M  V30 51244 C 4820.26 -1.91892 0.879814 0
M  V30 51245 O 4819.61 -2.28389 -0.071062 0
M  V30 51246 C 4819.82 -1.12398 3.30405 0
M  V30 51247 C 4821.17 -1.52711 3.96188 0
M  V30 51248 O 4822.19 -1.21772 3.34739 0
M  V30 51249 O 4821.05 -2.10248 5.04439 0
M  V30 51250 H 4818.15 -0.35068 0.748967 0
M  V30 51251 H 4820.69 0.0273194 1.69678 0
M  V30 51252 H 4819.46 -0.269395 3.90372 0
M  V30 51253 H 4819.09 -1.93023 3.47603 0
M  V30 51254 N 4820.08 -1.55252 -0.271048 0
M  V30 51255 C 4821.01 -1.91275 -1.33926 0
M  V30 51256 C 4822 -0.774833 -1.51428 0
M  V30 51257 O 4823.18 -1.03313 -1.64439 0
M  V30 51258 C 4820.31 -2.18637 -2.69843 0
M  V30 51259 C 4819.26 -3.34451 -2.6707 0
M  V30 51260 C 4818.59 -3.47298 -4.06557 0
M  V30 51261 C 4819.89 -4.70792 -2.26168 0
M  V30 51262 H 4821.58 -2.80748 -1.04025 0
M  V30 51263 H 4819.13 -1.35079 -0.498969 0
M  V30 51264 H 4821.08 -2.42425 -3.44686 0
M  V30 51265 H 4819.81 -1.25965 -3.01331 0
M  V30 51266 H 4818.47 -3.10634 -1.94685 0
M  V30 51267 H 4818.11 -2.52089 -4.3527 0
M  V30 51268 H 4817.81 -4.25166 -4.05595 0
M  V30 51269 H 4819.34 -3.7338 -4.83135 0
M  V30 51270 H 4820.75 -4.94112 -2.90734 0
M  V30 51271 H 4819.15 -5.5159 -2.36365 0
M  V30 51272 H 4820.22 -4.69483 -1.21302 0
M  V30 51273 N 4821.56 0.535649 -1.48218 0
M  V30 51274 C 4822.98 0.863654 -1.34213 0
M  V30 51275 C 4823.18 1.98457 -0.34886 0
M  V30 51276 O 4822.23 2.51432 0.231952 0
M  V30 51277 C 4823.55 1.23653 -2.74099 0
M  V30 51278 C 4825.1 1.34673 -2.82546 0
M  V30 51279 C 4825.57 1.75307 -4.23121 0
M  V30 51280 N 4827.06 1.82419 -4.25767 0
M  V30 51281 C 4827.8 2.15233 -5.31472 0
M  V30 51282 N 4827.29 2.4651 -6.4746 0
M  V30 51283 N 4829.09 2.16191 -5.18862 0
M  V30 51284 H 4821.24 -0.204039 -2.11418 0
M  V30 51285 H 4823.5 -0.0286366 -0.947567 0
M  V30 51286 H 4823.21 0.486552 -3.48318 0
M  V30 51287 H 4823.08 2.18794 -3.0726 0
M  V30 51288 H 4825.47 2.08749 -2.08586 0
M  V30 51289 H 4825.55 0.376667 -2.53012 0
M  V30 51290 H 4825.19 1.01794 -4.97595 0
M  V30 51291 H 4825.12 2.73354 -4.50095 0
M  V30 51292 H 4827.61 1.60548 -3.421 0
M  V30 51293 H 4827.93 2.70637 -7.23861 0
M  V30 51294 H 4826.27 2.44042 -6.50745 0
M  V30 51295 H 4829.46 1.91209 -4.27266 0
M  V30 51296 H 4829.63 2.41432 -6.01344 0
M  V30 51297 N 4823.04 1.36711 0.784084 0
M  V30 51298 C 4823.97 1.34159 1.91111 0
M  V30 51299 C 4824.95 0.212181 1.68771 0
M  V30 51300 O 4826.14 0.410648 1.89809 0
M  V30 51301 C 4823.27 1.13547 3.28214 0
M  V30 51302 C 4822.22 2.23369 3.6509 0
M  V30 51303 C 4821.55 1.87893 5.006 0
M  V30 51304 C 4822.85 3.65486 3.73118 0
M  V30 51305 H 4824.54 2.28466 1.93504 0
M  V30 51306 H 4822.09 1.09976 0.929579 0
M  V30 51307 H 4824.04 1.10395 4.06683 0
M  V30 51308 H 4822.76 0.156919 3.26223 0
M  V30 51309 H 4821.42 2.25655 2.88921 0
M  V30 51310 H 4821.07 0.885989 4.95136 0
M  V30 51311 H 4820.77 2.61424 5.26242 0
M  V30 51312 H 4822.29 1.86306 5.81483 0
M  V30 51313 H 4823.71 3.65397 4.41767 0
M  V30 51314 H 4822.11 4.37967 4.10249 0
M  V30 51315 H 4823.18 4.00005 2.74088 0
M  V30 51316 N 4824.52 -1.00885 1.21078 0
M  V30 51317 C 4825.48 -2.07746 0.968202 0
M  V30 51318 C 4826.48 -1.60691 -0.0592881 0
M  V30 51319 O 4827.67 -1.73292 0.177586 0
M  V30 51320 C 4824.8 -3.37793 0.459227 0
M  V30 51321 H 4826 -2.307 1.91618 0
M  V30 51322 H 4823.55 -1.17803 1.02723 0
M  V30 51323 H 4824.28 -3.20518 -0.493858 0
M  V30 51324 H 4824.07 -3.73276 1.20032 0
M  V30 51325 H 4825.56 -4.16453 0.309246 0
M  V30 51326 N 4826 -1.01791 -1.20318 0
M  V30 51327 C 4827.22 -0.727078 -1.94238 0
M  V30 51328 C 4827.65 0.706118 -1.74343 0
M  V30 51329 O 4827 1.48605 -1.03857 0
M  V30 51330 C 4827.05 -1.0697 -3.44369 0
M  V30 51331 O 4826.16 -0.182128 -4.11998 0
M  V30 51332 H 4825.5 -0.269647 -0.606784 0
M  V30 51333 H 4828.03 -1.36163 -1.52711 0
M  V30 51334 H 4828.04 -1.02196 -3.94994 0
M  V30 51335 H 4826.71 -2.1139 -3.58172 0
M  V30 51336 H 4825.29 -0.287508 -3.7179 0
M  V30 51337 N 4827.47 1.36119 -0.794317 0
M  V30 51338 C 4828.42 2.3187 -0.184105 0
M  V30 51339 C 4829.42 1.56043 0.65931 0
M  V30 51340 O 4830.62 1.71267 0.553846 0
M  V30 51341 H 4827 0.750894 -0.0407637 0
M  V30 51342 H 4828.97 2.80894 -1.00703 0
M  V30 51343 C 4827.72 3.41326 0.662693 0
M  V30 51344 H 4827.04 3.99793 0.0230539 0
M  V30 51345 H 4828.48 4.10633 1.05625 0
M  V30 51346 C 4826.94 2.83315 1.82303 0
M  V30 51347 O 4827.47 2.75874 2.91987 0
M  V30 51348 N 4825.68 2.40535 1.63068 0
M  V30 51349 H 4825.22 2.46787 0.738504 0
M  V30 51350 H 4825.18 2.02068 2.40865 0
M  V30 51351 N 4828.95 0.546753 1.47812 0
M  V30 51352 C 4829.92 -0.196207 2.28359 0
M  V30 51353 C 4830.92 -0.852389 1.36349 0
M  V30 51354 O 4832.11 -0.709858 1.59081 0
M  V30 51355 C 4829.24 -1.28568 3.15726 0
M  V30 51356 H 4830.43 0.51119 2.95511 0
M  V30 51357 H 4827.98 0.303302 1.53329 0
M  V30 51358 H 4828.72 -2.02581 2.53242 0
M  V30 51359 H 4828.5 -0.820094 3.83428 0
M  V30 51360 H 4829.99 -1.8078 3.76442 0
M  V30 51361 N 4830.43 -1.55044 0.282687 0
M  V30 51362 C 4831.68 -1.98939 -0.332598 0
M  V30 51363 C 4831.99 -1.1746 -1.56405 0
M  V30 51364 O 4833.2 -1.51535 -2.25276 0
M  V30 51365 C 4831.65 -3.54108 -0.643101 0
M  V30 51366 C 4831.26 -4.44372 0.568971 0
M  V30 51367 C 4833.01 -4.06573 -1.22059 0
M  V30 51368 C 4830.91 -5.90942 0.232634 0
M  V30 51369 H 4829.84 -0.743047 -0.128049 0
M  V30 51370 H 4832.49 -1.7934 0.388527 0
M  V30 51371 H 4830.88 -3.69537 -1.42333 0
M  V30 51372 H 4832.05 -4.40714 1.34566 0
M  V30 51373 H 4830.37 -4.02581 1.06383 0
M  V30 51374 H 4832.96 -5.13631 -1.48617 0
M  V30 51375 H 4833.31 -3.56064 -2.15694 0
M  V30 51376 H 4833.84 -3.94614 -0.502483 0
M  V30 51377 H 4830.58 -6.45563 1.13706 0
M  V30 51378 H 4830.1 -5.97652 -0.507147 0
M  V30 51379 H 4831.78 -6.4677 -0.172429 0
M  V30 51380 N 4831.91 -0.0100904 -1.57597 0
M  V30 51381 C 4833.15 0.677016 -1.92862 0
M  V30 51382 C 4833.51 1.70374 -0.885251 0
M  V30 51383 O 4834.71 2.44195 -1.12348 0
M  V30 51384 C 4832.98 1.2944 -3.33137 0
M  V30 51385 S 4834.54 2.00523 -3.90302 0
M  V30 51386 H 4831.36 0.223385 -0.674996 0
M  V30 51387 H 4833.96 -0.0691976 -1.95377 0
M  V30 51388 H 4832.67 0.53445 -4.06905 0
M  V30 51389 H 4832.2 2.07833 -3.34019 0
M  V30 51390 H 4834.21 3.28155 -3.72195 0
M  V30 51391 N 4833.39 1.55393 0.262811 0
M  V30 51392 C 4834.61 1.80851 1.01527 0
M  V30 51393 C 4835.04 0.585009 1.78772 0
M  V30 51394 O 4834.39 -0.46564 1.75218 0
M  V30 51395 C 4834.44 3.03873 1.94148 0
M  V30 51396 O 4833.55 2.79673 3.03079 0
M  V30 51397 H 4832.89 0.597451 0.289738 0
M  V30 51398 H 4835.42 2.02554 0.288627 0
M  V30 51399 H 4835.43 3.3288 2.35912 0
M  V30 51400 H 4834.1 3.92569 1.3734 0
M  V30 51401 H 4832.68 2.6179 2.65557 0
M  V30 51402 N 4834.87 -0.527781 1.485 0
M  V30 51403 C 4835.83 -1.61433 1.62702 0
M  V30 51404 C 4836.83 -1.52823 0.50019 0
M  V30 51405 O 4838.02 -1.56453 0.766031 0
M  V30 51406 C 4835.15 -3.01058 1.59928 0
M  V30 51407 H 4836.34 -1.5018 2.59588 0
M  V30 51408 H 4833.9 -0.750007 1.3713 0
M  V30 51409 H 4834.63 -3.17816 0.645275 0
M  V30 51410 H 4834.42 -3.08717 2.41736 0
M  V30 51411 H 4835.91 -3.80051 1.73064 0
M  V30 51412 N 4836.34 -1.37125 -0.776822 0
M  V30 51413 C 4837.59 -1.32248 -1.53747 0
M  V30 51414 C 4837.92 0.0944063 -1.9397 0
M  V30 51415 O 4837.2 1.05062 -1.63683 0
M  V30 51416 C 4837.48 -2.25691 -2.80599 0
M  V30 51417 C 4837.33 -3.76135 -2.46662 0
M  V30 51418 C 4838.65 -2.17671 -3.82501 0
M  V30 51419 H 4835.77 -0.481724 -0.557774 0
M  V30 51420 H 4838.41 -1.67784 -0.891553 0
M  V30 51421 H 4836.56 -1.95517 -3.35716 0
M  V30 51422 H 4838.24 -4.16884 -1.97499 0
M  V30 51423 H 4836.48 -3.94953 -1.79429 0
M  V30 51424 H 4837.15 -4.36945 -3.37318 0
M  V30 51425 H 4839.63 -2.44257 -3.36864 0
M  V30 51426 H 4838.5 -2.85201 -4.6899 0
M  V30 51427 H 4838.76 -1.168 -4.26392 0
M  V30 51428 N 4837.82 1.00242 -1.21611 0
M  V30 51429 C 4839.23 1.55507 -1.03317 0
M  V30 51430 C 4839.58 1.91948 0.406265 0
M  V30 51431 O 4838.71 1.73757 1.28986 0
M  V30 51432 C 4839.3 2.82569 -1.86922 0
M  V30 51433 C 4837.86 3.34311 -1.72953 0
M  V30 51434 C 4837.01 2.07481 -1.83975 0
M  V30 51435 H 4839.96 0.824591 -1.35596 0
M  V30 51436 H 4839.98 3.54554 -1.381 0
M  V30 51437 H 4839.49 2.56016 -2.91681 0
M  V30 51438 H 4837.59 3.65794 -0.708899 0
M  V30 51439 H 4837.71 4.05557 -2.55069 0
M  V30 51440 H 4836.07 2.20599 -1.27311 0
M  V30 51441 H 4836.85 1.83336 -2.90246 0
M  V30 51442 N 4839.3 1.02428 1.19776 0
M  V30 51443 C 4840.55 0.719118 1.89622 0
M  V30 51444 C 4840.88 -0.75002 1.79132 0
M  V30 51445 O 4840.15 -1.5457 1.18061 0
M  V30 51446 C 4840.44 1.16511 3.4073 0
M  V30 51447 C 4840.29 2.69513 3.60115 0
M  V30 51448 C 4841.61 0.742318 4.33794 0
M  V30 51449 H 4838.73 0.262714 0.688586 0
M  V30 51450 H 4841.37 1.27338 1.41014 0
M  V30 51451 H 4839.52 0.693544 3.82259 0
M  V30 51452 H 4841.19 3.2458 3.27788 0
M  V30 51453 H 4839.43 3.10123 3.03325 0
M  V30 51454 H 4840.11 2.95774 4.66071 0
M  V30 51455 H 4842.58 1.14784 3.99955 0
M  V30 51456 H 4841.46 1.08232 5.38124 0
M  V30 51457 H 4841.72 -0.355592 4.40668 0
M  V30 51458 N 4840.78 -1.35696 0.801525 0
M  V30 51459 C 4841.73 -2.27279 0.181153 0
M  V30 51460 C 4842.71 -1.47535 -0.642046 0
M  V30 51461 O 4843.9 -1.69787 -0.500133 0
M  V30 51462 C 4841.03 -3.36629 -0.673494 0
M  V30 51463 C 4840.12 -4.23801 0.159157 0
M  V30 51464 N 4840.51 -4.90874 1.21967 0
M  V30 51465 C 4838.81 -4.4596 -0.0600437 0
M  V30 51466 C 4839.51 -5.55454 1.72758 0
M  V30 51467 N 4838.48 -5.33659 1.03484 0
M  V30 51468 H 4842.29 -2.76628 0.992679 0
M  V30 51469 H 4839.8 -1.49164 0.64218 0
M  V30 51470 H 4841.8 -4.01183 -1.13394 0
M  V30 51471 H 4840.46 -2.88833 -1.48343 0
M  V30 51472 H 4841.47 -4.92492 1.60226 0
M  V30 51473 H 4838.15 -4.08972 -0.83952 0
M  V30 51474 H 4839.54 -6.18982 2.61364 0
M  V30 51475 N 4842.26 -0.554584 -1.4752 0
M  V30 51476 C 4843.5 -0.0378164 -2.03365 0
M  V30 51477 C 4843.86 1.29649 -1.42158 0
M  V30 51478 O 4843.15 1.8302 -0.56693 0
M  V30 51479 C 4843.34 0.115802 -3.57212 0
M  V30 51480 C 4843.17 -1.20206 -4.33337 0
M  V30 51481 C 4841.94 -1.76865 -4.73336 0
M  V30 51482 C 4844.14 -2.11866 -4.68633 0
M  V30 51483 N 4842.12 -3.02684 -5.34093 0
M  V30 51484 C 4843.49 -3.22263 -5.29666 0
M  V30 51485 C 4845.55 -2.11892 -4.50562 0
M  V30 51486 C 4844.25 -4.32783 -5.74536 0
M  V30 51487 C 4846.28 -3.21422 -4.96429 0
M  V30 51488 C 4845.64 -4.30539 -5.57508 0
M  V30 51489 H 4841.74 -0.0559381 -0.779997 0
M  V30 51490 H 4844.32 -0.741295 -1.80036 0
M  V30 51491 H 4842.49 0.788399 -3.80314 0
M  V30 51492 H 4844.23 0.634398 -3.99697 0
M  V30 51493 H 4840.98 -1.30697 -4.55209 0
M  V30 51494 H 4841.4 -3.66808 -5.69018 0
M  V30 51495 H 4846.05 -1.28815 -4.02699 0
M  V30 51496 H 4843.76 -5.16622 -6.21392 0
M  V30 51497 H 4847.35 -3.22526 -4.84219 0
M  V30 51498 H 4846.23 -5.13894 -5.92353 0
M  V30 51499 N 4843.73 1.54892 -0.290906 0
M  V30 51500 C 4844.98 2.00231 0.321797 0
M  V30 51501 C 4845.31 1.17905 1.54312 0
M  V30 51502 O 4844.59 0.252998 1.92848 0
M  V30 51503 C 4844.87 3.53459 0.688391 0
M  V30 51504 C 4844.72 4.4653 -0.541366 0
M  V30 51505 C 4846.04 4.13062 1.51881 0
M  V30 51506 H 4843.16 0.727895 0.115489 0
M  V30 51507 H 4845.8 1.8572 -0.400996 0
M  V30 51508 H 4843.95 3.65955 1.3042 0
M  V30 51509 H 4845.63 4.45955 -1.17989 0
M  V30 51510 H 4843.87 4.17541 -1.17651 0
M  V30 51511 H 4844.54 5.51474 -0.240869 0
M  V30 51512 H 4847.02 4.0394 0.998578 0
M  V30 51513 H 4845.89 5.20454 1.7441 0
M  V30 51514 H 4846.15 3.64293 2.50485 0
M  V30 51515 N 4845.21 0.018448 1.57589 0
M  V30 51516 C 4846.62 -0.521864 1.79258 0
M  V30 51517 C 4846.97 -1.72882 0.927697 0
M  V30 51518 O 4846.1 -2.15977 0.135167 0
M  V30 51519 C 4846.69 -0.953518 3.25105 0
M  V30 51520 C 4845.25 -1.43901 3.47807 0
M  V30 51521 C 4844.4 -0.398741 2.74418 0
M  V30 51522 H 4847.35 0.24454 1.56805 0
M  V30 51523 H 4847.37 -1.81852 3.34231 0
M  V30 51524 H 4846.88 -0.0748759 3.88028 0
M  V30 51525 H 4844.98 -2.33794 2.90123 0
M  V30 51526 H 4845.1 -1.45375 4.56512 0
M  V30 51527 H 4843.46 -0.864488 2.3958 0
M  V30 51528 H 4844.24 0.471252 3.4005 0
M  V30 51529 N 4846.69 -1.5553 -0.254567 0
M  V30 51530 C 4847.92 -1.8105 -1.00143 0
M  V30 51531 C 4848.33 -0.59311 -1.79242 0
M  V30 51532 O 4847.69 0.438134 -1.77163 0
M  V30 51533 C 4847.74 -3.0469 -1.9454 0
M  V30 51534 O 4847.46 -4.21729 -1.18643 0
M  V30 51535 C 4848.96 -3.42953 -2.80889 0
M  V30 51536 H 4846.18 -0.602663 -0.295023 0
M  V30 51537 H 4848.73 -2.02577 -0.279771 0
M  V30 51538 H 4846.88 -2.85235 -2.62144 0
M  V30 51539 H 4847.3 -4.91752 -1.82428 0
M  V30 51540 H 4848.77 -4.32588 -3.42887 0
M  V30 51541 H 4849.25 -2.63189 -3.51608 0
M  V30 51542 H 4849.85 -3.64731 -2.18749 0
M  V30 51543 N 4848.17 0.519898 -1.48778 0
M  V30 51544 C 4849.39 1.30441 -1.61245 0
M  V30 51545 C 4849.82 1.86054 -0.276656 0
M  V30 51546 O 4849.18 1.64917 0.753125 0
M  V30 51547 C 4849.22 2.42397 -2.66976 0
M  V30 51548 O 4848.33 3.4572 -2.24836 0
M  V30 51549 H 4847.67 0.385905 -0.540345 0
M  V30 51550 H 4850.2 0.624504 -1.94836 0
M  V30 51551 H 4850.21 2.88437 -2.88562 0
M  V30 51552 H 4848.88 2.01282 -3.63949 0
M  V30 51553 H 4847.46 3.05729 -2.13505 0
M  V30 51554 N 4849.65 1.37535 0.769539 0
M  V30 51555 C 4851.06 1.18383 1.07041 0
M  V30 51556 C 4851.26 0.021502 2.01489 0
M  V30 51557 O 4850.32 -0.637723 2.44314 0
M  V30 51558 C 4851.63 2.50344 1.66579 0
M  V30 51559 C 4853.18 2.56886 1.78826 0
M  V30 51560 C 4853.65 3.88983 2.41778 0
M  V30 51561 N 4855.15 3.90436 2.49226 0
M  V30 51562 C 4855.88 4.89399 2.98792 0
M  V30 51563 N 4855.38 5.98757 3.48514 0
M  V30 51564 N 4857.17 4.76801 2.97686 0
M  V30 51565 H 4849.32 2.11922 0.142467 0
M  V30 51566 H 4851.58 0.939612 0.12583 0
M  V30 51567 H 4851.29 3.3577 1.04648 0
M  V30 51568 H 4851.16 2.67592 2.65846 0
M  V30 51569 H 4853.55 1.71865 2.39889 0
M  V30 51570 H 4853.63 2.43519 0.78308 0
M  V30 51571 H 4853.28 4.74419 1.81354 0
M  V30 51572 H 4853.21 3.99654 3.42906 0
M  V30 51573 H 4855.7 3.1144 2.14041 0
M  V30 51574 H 4856.01 6.70218 3.84743 0
M  V30 51575 H 4854.35 6.02399 3.46613 0
M  V30 51576 H 4857.55 3.90487 2.58143 0
M  V30 51577 H 4857.72 5.5408 3.36004 0
M  V30 51578 N 4851.12 -0.995956 1.22141 0
M  V30 51579 C 4852.35 -1.77062 1.07035 0
M  V30 51580 C 4852.77 -1.84951 -0.379292 0
M  V30 51581 O 4852.12 -1.31744 -1.26292 0
M  V30 51582 C 4852.18 -3.20527 1.67166 0
M  V30 51583 O 4851.9 -3.13071 3.0646 0
M  V30 51584 C 4853.4 -4.14456 1.57294 0
M  V30 51585 H 4850.62 -0.556166 0.375394 0
M  V30 51586 H 4853.16 -1.25232 1.6167 0
M  V30 51587 H 4851.32 -3.69436 1.16602 0
M  V30 51588 H 4851.73 -4.03271 3.35369 0
M  V30 51589 H 4853.2 -5.12883 2.04096 0
M  V30 51590 H 4853.68 -4.36003 0.528948 0
M  V30 51591 H 4854.29 -3.71442 2.07149 0
M  V30 51592 N 4852.6 -1.03061 -1.19231 0
M  V30 51593 C 4853.83 -0.747765 -1.92915 0
M  V30 51594 C 4854.25 0.693659 -1.75596 0
M  V30 51595 O 4853.6 1.47187 -1.07899 0
M  V30 51596 C 4853.65 -1.09171 -3.44621 0
M  V30 51597 O 4853.37 -2.47653 -3.61386 0
M  V30 51598 C 4854.88 -0.831917 -4.35424 0
M  V30 51599 H 4852.1 -0.273475 -0.612742 0
M  V30 51600 H 4854.64 -1.37557 -1.51322 0
M  V30 51601 H 4852.79 -0.509054 -3.84041 0
M  V30 51602 H 4853.21 -2.60515 -4.55227 0
M  V30 51603 H 4854.68 -1.12252 -5.40466 0
M  V30 51604 H 4855.16 0.233615 -4.38578 0
M  V30 51605 H 4855.77 -1.39739 -4.01688 0
M  V30 51606 N 4854.08 1.35269 -0.80871 0
M  V30 51607 C 4855.33 1.99432 -0.399787 0
M  V30 51608 C 4855.68 1.62996 1.02226 0
M  V30 51609 O 4854.97 0.884151 1.6998 0
M  V30 51610 C 4855.17 3.53554 -0.522923 0
M  V30 51611 C 4855 4.04962 -1.95539 0
M  V30 51612 C 4853.77 4.34219 -2.58422 0
M  V30 51613 C 4855.97 4.23352 -2.92024 0
M  V30 51614 N 4853.95 4.71571 -3.93057 0
M  V30 51615 C 4855.32 4.63724 -4.11534 0
M  V30 51616 C 4857.37 4.05565 -2.88827 0
M  V30 51617 C 4856.08 4.8817 -5.28282 0
M  V30 51618 C 4858.1 4.3117 -4.0478 0
M  V30 51619 C 4857.46 4.71816 -5.23038 0
M  V30 51620 H 4853.56 0.757527 -0.194106 0
M  V30 51621 H 4856.15 1.63935 -1.0504 0
M  V30 51622 H 4854.32 3.88277 0.0977106 0
M  V30 51623 H 4856.05 4.04603 -0.0883801 0
M  V30 51624 H 4852.81 4.24614 -2.09761 0
M  V30 51625 H 4853.23 4.94503 -4.6238 0
M  V30 51626 H 4857.87 3.73281 -1.98548 0
M  V30 51627 H 4855.59 5.19328 -6.19132 0
M  V30 51628 H 4859.18 4.18958 -4.0369 0
M  V30 51629 H 4858.06 4.91241 -6.11271 0
M  V30 51630 N 4855.56 0.5624 1.47224 0
M  V30 51631 C 4856.78 0.0433361 2.07355 0
M  V30 51632 C 4857.21 -1.24327 1.41153 0
M  V30 51633 O 4856.57 -1.74601 0.488288 0
M  V30 51634 C 4856.61 -0.130161 3.60365 0
M  V30 51635 O 4855.72 -1.19153 3.94812 0
M  V30 51636 H 4855.06 0.0536567 0.661828 0
M  V30 51637 H 4857.59 0.779562 1.89167 0
M  V30 51638 H 4857.6 -0.342738 4.06558 0
M  V30 51639 H 4856.27 0.809532 4.07945 0
M  V30 51640 H 4854.85 -0.959026 3.60357 0
M  V30 51641 N 4857.04 -1.54735 0.299116 0
M  V30 51642 C 4858.29 -1.9928 -0.311479 0
M  V30 51643 C 4858.6 -1.19113 -1.5515 0
M  V30 51644 O 4859.8 -1.53916 -2.23656 0
M  V30 51645 C 4858.26 -3.5477 -0.605507 0
M  V30 51646 C 4857.87 -4.43744 0.61607 0
M  V30 51647 C 4859.61 -4.07845 -1.1774 0
M  V30 51648 C 4857.52 -5.90662 0.295298 0
M  V30 51649 H 4856.45 -0.744364 -0.120161 0
M  V30 51650 H 4859.1 -1.78917 0.407527 0
M  V30 51651 H 4857.48 -3.71025 -1.38406 0
M  V30 51652 H 4858.66 -4.39262 1.39233 0
M  V30 51653 H 4856.97 -4.0143 1.10647 0
M  V30 51654 H 4859.57 -5.15179 -1.43161 0
M  V30 51655 H 4859.91 -3.58332 -2.11906 0
M  V30 51656 H 4860.44 -3.95124 -0.4606 0
M  V30 51657 H 4857.18 -6.4432 1.20547 0
M  V30 51658 H 4856.7 -5.98156 -0.443729 0
M  V30 51659 H 4858.38 -6.46917 -0.103821 0
M  V30 51660 N 4858.51 -0.0268051 -1.57577 0
M  V30 51661 C 4859.46 0.96493 -2.06575 0
M  V30 51662 C 4860.45 1.28691 -0.965792 0
M  V30 51663 O 4861.64 1.2734 -1.22937 0
M  V30 51664 C 4858.77 2.24812 -2.59451 0
M  V30 51665 C 4857.86 1.95461 -3.76372 0
M  V30 51666 N 4858.25 1.3637 -4.8707 0
M  V30 51667 C 4856.54 2.25464 -3.84814 0
M  V30 51668 C 4857.25 1.24099 -5.68308 0
M  V30 51669 N 4856.22 1.73572 -5.15145 0
M  V30 51670 H 4860.02 0.502993 -2.89564 0
M  V30 51671 H 4857.54 0.178265 -1.61419 0
M  V30 51672 H 4859.53 2.9673 -2.92843 0
M  V30 51673 H 4858.19 2.71634 -1.77891 0
M  V30 51674 H 4859.21 1.03901 -5.07371 0
M  V30 51675 H 4855.88 2.74976 -3.14157 0
M  V30 51676 H 4857.27 0.78427 -6.67307 0
M  V30 51677 N 4859.99 1.55663 0.246315 0
M  V30 51678 C 4860.96 1.89563 1.28836 0
M  V30 51679 C 4861.96 0.772132 1.41049 0
M  V30 51680 O 4863.15 1.04012 1.39739 0
M  V30 51681 C 4860.28 2.12458 2.66598 0
M  V30 51682 H 4861.47 2.82739 0.999943 0
M  V30 51683 H 4859.02 1.48564 0.485632 0
M  V30 51684 H 4859.76 1.21752 3.00578 0
M  V30 51685 H 4859.54 2.94282 2.59115 0
M  V30 51686 H 4861.03 2.39866 3.41839 0
M  V30 51687 N 4861.47 -0.512001 1.49051 0
M  V30 51688 C 4862.42 -1.61136 1.61304 0
M  V30 51689 C 4863.4 -1.53906 0.469214 0
M  V30 51690 O 4864.6 -1.61623 0.721604 0
M  V30 51691 C 4861.73 -2.99794 1.67267 0
M  V30 51692 C 4860.81 -3.12062 2.8719 0
M  V30 51693 N 4861.2 -2.94249 4.11401 0
M  V30 51694 C 4859.5 -3.43146 2.84898 0
M  V30 51695 C 4860.2 -3.10408 4.91957 0
M  V30 51696 N 4859.18 -3.38793 4.25112 0
M  V30 51697 H 4862.98 -1.46002 2.5507 0
M  V30 51698 H 4860.49 -0.717883 1.45672 0
M  V30 51699 H 4862.49 -3.78788 1.74141 0
M  V30 51700 H 4861.15 -3.16007 0.746306 0
M  V30 51701 H 4862.16 -2.70646 4.41555 0
M  V30 51702 H 4858.84 -3.65604 2.01594 0
M  V30 51703 H 4860.23 -3.01222 6.00595 0
M  V30 51704 N 4862.95 -1.37941 -0.762235 0
M  V30 51705 C 4863.9 -1.30983 -1.86621 0
M  V30 51706 C 4864.88 -0.195771 -1.59705 0
M  V30 51707 O 4866.07 -0.430998 -1.71672 0
M  V30 51708 C 4863.2 -1.12858 -3.24219 0
M  V30 51709 C 4862.29 -2.28849 -3.57056 0
M  V30 51710 N 4862.68 -3.54268 -3.61009 0
M  V30 51711 C 4860.98 -2.21211 -3.87274 0
M  V30 51712 C 4861.68 -4.30812 -3.90866 0
M  V30 51713 N 4860.66 -3.60063 -4.07254 0
M  V30 51714 H 4864.46 -2.25953 -1.87943 0
M  V30 51715 H 4861.97 -1.31049 -0.95916 0
M  V30 51716 H 4863.97 -1.05957 -4.0321 0
M  V30 51717 H 4862.63 -0.188138 -3.24154 0
M  V30 51718 H 4863.64 -3.88052 -3.42981 0
M  V30 51719 H 4860.32 -1.35278 -3.94976 0
M  V30 51720 H 4861.71 -5.394 -4.0062 0
M  V30 51721 N 4864.43 0.989464 -1.22668 0
M  V30 51722 C 4865.36 2.08236 -0.957615 0
M  V30 51723 C 4866.37 1.6267 0.0650526 0
M  V30 51724 O 4867.56 1.77695 -0.169375 0
M  V30 51725 C 4864.66 3.36297 -0.419263 0
M  V30 51726 C 4863.83 4.10877 -1.49996 0
M  V30 51727 C 4862.89 5.17218 -0.968086 0
M  V30 51728 O 4861.92 5.44607 -1.65506 0
M  V30 51729 N 4863.12 5.80125 0.208756 0
M  V30 51730 H 4865.89 2.31898 -1.89851 0
M  V30 51731 H 4863.45 1.15548 -1.13403 0
M  V30 51732 H 4865.44 4.04671 -0.0486873 0
M  V30 51733 H 4864.01 3.09672 0.426828 0
M  V30 51734 H 4863.23 3.37085 -2.04371 0
M  V30 51735 H 4864.52 4.57475 -2.22698 0
M  V30 51736 H 4863.92 5.60246 0.783621 0
M  V30 51737 H 4862.47 6.49717 0.520684 0
M  V30 51738 N 4865.91 1.03692 1.18683 0
M  V30 51739 C 4867.15 0.748947 1.89109 0
M  V30 51740 C 4867.51 -0.715282 1.7861 0
M  V30 51741 O 4866.8 -1.51494 1.17304 0
M  V30 51742 C 4866.99 1.14489 3.38566 0
M  V30 51743 C 4866.82 2.64607 3.63612 0
M  V30 51744 C 4865.59 3.31698 3.81188 0
M  V30 51745 C 4867.79 3.62824 3.64505 0
M  V30 51746 N 4865.77 4.70836 3.93938 0
M  V30 51747 C 4867.14 4.87617 3.82923 0
M  V30 51748 C 4869.2 3.56507 3.47573 0
M  V30 51749 C 4867.9 6.06853 3.86162 0
M  V30 51750 C 4869.93 4.75167 3.52094 0
M  V30 51751 C 4869.29 5.98778 3.71005 0
M  V30 51752 H 4865.39 0.326055 0.710783 0
M  V30 51753 H 4867.97 1.32585 1.42581 0
M  V30 51754 H 4866.14 0.596109 3.83798 0
M  V30 51755 H 4867.88 0.808326 3.96545 0
M  V30 51756 H 4864.63 2.82105 3.80413 0
M  V30 51757 H 4865.05 5.43136 4.04143 0
M  V30 51758 H 4869.7 2.61918 3.31901 0
M  V30 51759 H 4867.41 7.01802 4.00623 0
M  V30 51760 H 4871 4.71917 3.40272 0
M  V30 51761 H 4869.88 6.8906 3.74388 0
M  V30 51762 N 4867.38 -1.34838 0.815872 0
M  V30 51763 C 4868.32 -2.27504 0.178142 0
M  V30 51764 C 4869.29 -1.48544 -0.66132 0
M  V30 51765 O 4870.48 -1.77781 -0.626591 0
M  V30 51766 C 4867.61 -3.30249 -0.751886 0
M  V30 51767 C 4866.65 -4.26499 0.00914166 0
M  V30 51768 S 4867.48 -5.18164 1.35152 0
M  V30 51769 C 4868.64 -6.24447 0.42618 0
M  V30 51770 H 4868.87 -2.81245 0.963783 0
M  V30 51771 H 4866.41 -1.41779 0.611405 0
M  V30 51772 H 4868.36 -3.89937 -1.28294 0
M  V30 51773 H 4867.03 -2.75369 -1.51099 0
M  V30 51774 H 4866.22 -4.99149 -0.69759 0
M  V30 51775 H 4865.82 -3.71028 0.470526 0
M  V30 51776 H 4868.11 -6.76405 -0.384996 0
M  V30 51777 H 4869.06 -6.99152 1.12214 0
M  V30 51778 H 4869.46 -5.64497 0.0177446 0
M  V30 51779 N 4868.86 -0.570199 -1.46923 0
M  V30 51780 C 4870.09 -0.0562693 -2.06823 0
M  V30 51781 C 4870.5 1.24321 -1.4209 0
M  V30 51782 O 4869.86 1.7488 -0.521856 0
M  V30 51783 C 4869.91 0.12939 -3.61268 0
M  V30 51784 O 4869.63 -1.11865 -4.23578 0
M  V30 51785 C 4871.13 0.679112 -4.38067 0
M  V30 51786 H 4868.35 -0.0517496 -0.669001 0
M  V30 51787 H 4870.9 -0.78731 -1.88737 0
M  V30 51788 H 4869.05 0.810605 -3.78824 0
M  V30 51789 H 4869.47 -0.924556 -5.16287 0
M  V30 51790 H 4870.94 0.758252 -5.46767 0
M  V30 51791 H 4871.42 1.69332 -4.05245 0
M  V30 51792 H 4872.02 0.0331742 -4.25287 0
M  V30 51793 N 4870.34 1.54575 -0.307318 0
M  V30 51794 C 4871.57 2.04676 0.302525 0
M  V30 51795 C 4871.98 1.1843 1.47037 0
M  V30 51796 O 4871.34 0.211321 1.81272 0
M  V30 51797 C 4871.39 3.53577 0.752677 0
M  V30 51798 O 4871.11 4.36546 -0.368689 0
M  V30 51799 C 4872.61 4.19704 1.42702 0
M  V30 51800 H 4869.83 0.667862 0.064814 0
M  V30 51801 H 4872.38 1.99515 -0.448786 0
M  V30 51802 H 4870.53 3.59079 1.454 0
M  V30 51803 H 4870.95 5.24497 -0.0170781 0
M  V30 51804 H 4872.42 5.25394 1.69309 0
M  V30 51805 H 4872.9 3.69824 2.36912 0
M  V30 51806 H 4873.5 4.18295 0.768709 0
M  V30 51807 N 4871.82 0.0351614 1.57561 0
M  V30 51808 C 4872.73 -0.96022 2.14049 0
M  V30 51809 C 4873.74 -1.35286 1.09425 0
M  V30 51810 O 4874.92 -1.43304 1.41513 0
M  V30 51811 C 4871.98 -2.22205 2.66131 0
M  V30 51812 C 4871.05 -1.88926 3.85494 0
M  V30 51813 C 4870.28 -3.09093 4.35083 0
M  V30 51814 O 4870.5 -4.21949 3.83816 0
M  V30 51815 O 4869.44 -2.91039 5.26858 0
M  V30 51816 H 4873.26 -0.509878 2.99389 0
M  V30 51817 H 4870.85 -0.185801 1.4824 0
M  V30 51818 H 4872.73 -2.96268 2.99672 0
M  V30 51819 H 4871.4 -2.66408 1.83871 0
M  V30 51820 H 4870.31 -1.12228 3.56869 0
M  V30 51821 H 4871.64 -1.49535 4.68935 0
M  V30 51822 N 4873.3 -1.55792 -0.238056 0
M  V30 51823 C 4874.57 -1.68802 -0.988201 0
M  V30 51824 C 4874.95 -0.577633 -2.03043 0
M  V30 51825 O 4874.3 0.417701 -2.2465 0
M  V30 51826 C 4874.51 -3.09459 -1.61356 0
M  V30 51827 C 4875.86 -3.68343 -2.11208 0
M  V30 51828 O 4876.88 -3.12316 -1.71281 0
M  V30 51829 O 4875.74 -4.6658 -2.84544 0
M  V30 51830 H 4872.84 -0.686897 -0.460544 0
M  V30 51831 H 4875.38 -1.68118 -0.231143 0
M  V30 51832 H 4874.15 -3.81729 -0.860161 0
M  V30 51833 H 4873.78 -3.14191 -2.43659 0
M  V30 51834 N 4874.77 0.504089 -1.49321 0
M  V30 51835 C 4875.71 1.62355 -1.60362 0
M  V30 51836 C 4876.68 1.56167 -0.452824 0
M  V30 51837 O 4877.87 1.76269 -0.667954 0
M  V30 51838 C 4875 3.00859 -1.55569 0
M  V30 51839 C 4874.04 3.25318 -2.75808 0
M  V30 51840 S 4874.87 3.08775 -4.37513 0
M  V30 51841 C 4876.03 4.49679 -4.35361 0
M  V30 51842 H 4876.26 1.52744 -2.55062 0
M  V30 51843 H 4873.8 0.689016 -1.38174 0
M  V30 51844 H 4875.75 3.80724 -1.5349 0
M  V30 51845 H 4874.42 3.07887 -0.621623 0
M  V30 51846 H 4873.61 4.26421 -2.68666 0
M  V30 51847 H 4873.21 2.53169 -2.75284 0
M  V30 51848 H 4875.5 5.41707 -4.0689 0
M  V30 51849 H 4876.45 4.61872 -5.36731 0
M  V30 51850 H 4876.85 4.30214 -3.6548 0
M  V30 51851 N 4876.25 1.38343 0.754909 0
M  V30 51852 C 4877.18 1.38183 1.88223 0
M  V30 51853 C 4878.16 0.247932 1.68283 0
M  V30 51854 O 4879.35 0.450817 1.88895 0
M  V30 51855 C 4876.48 1.20483 3.25732 0
M  V30 51856 C 4875.43 2.31063 3.60269 0
M  V30 51857 C 4874.76 1.98469 4.96502 0
M  V30 51858 C 4876.06 3.73318 3.65282 0
M  V30 51859 H 4877.75 2.32519 1.88614 0
M  V30 51860 H 4875.3 1.11923 0.906043 0
M  V30 51861 H 4877.25 1.18996 4.0425 0
M  V30 51862 H 4875.97 0.22608 3.25817 0
M  V30 51863 H 4874.63 2.31733 2.84069 0
M  V30 51864 H 4874.28 0.990815 4.93145 0
M  V30 51865 H 4873.98 2.72528 5.20579 0
M  V30 51866 H 4875.51 1.98599 5.774 0
M  V30 51867 H 4876.92 3.74686 4.33917 0
M  V30 51868 H 4875.32 4.46571 4.00867 0
M  V30 51869 H 4876.39 4.05729 2.65542 0
M  V30 51870 N 4877.73 -0.982945 1.23191 0
M  V30 51871 C 4878.96 -1.75917 1.08907 0
M  V30 51872 C 4879.37 -1.85343 -0.359654 0
M  V30 51873 O 4878.73 -1.33076 -1.24888 0
M  V30 51874 C 4878.78 -3.18736 1.70557 0
M  V30 51875 O 4878.5 -3.09803 3.09764 0
M  V30 51876 C 4880 -4.12764 1.61681 0
M  V30 51877 H 4877.22 -0.552153 0.381272 0
M  V30 51878 H 4879.77 -1.2351 1.62989 0
M  V30 51879 H 4877.92 -3.68178 1.20514 0
M  V30 51880 H 4878.34 -3.99692 3.39628 0
M  V30 51881 H 4879.81 -5.10689 2.09524 0
M  V30 51882 H 4880.29 -4.35418 0.575162 0
M  V30 51883 H 4880.89 -3.69224 2.11077 0
M  V30 51884 N 4879.21 -1.0432 -1.18132 0
M  V30 51885 C 4880.45 -0.749194 -1.88454 0
M  V30 51886 C 4880.79 0.721427 -1.80303 0
M  V30 51887 O 4880.06 1.52672 -1.20505 0
M  V30 51888 C 4880.35 -1.21917 -3.38834 0
M  V30 51889 C 4880.2 -2.75208 -3.55782 0
M  V30 51890 C 4881.52 -0.811237 -4.32559 0
M  V30 51891 H 4878.64 -0.273636 -0.684319 0
M  V30 51892 H 4881.28 -1.29566 -1.3897 0
M  V30 51893 H 4879.43 -0.754271 -3.81108 0
M  V30 51894 H 4881.1 -3.29754 -3.22583 0
M  V30 51895 H 4879.34 -3.1491 -2.98353 0
M  V30 51896 H 4880.01 -3.03151 -4.61306 0
M  V30 51897 H 4882.49 -1.21132 -3.98078 0
M  V30 51898 H 4881.37 -1.16779 -5.36334 0
M  V30 51899 H 4881.63 0.285441 -4.41178 0
M  V30 51900 N 4880.69 1.34403 -0.823012 0
M  V30 51901 C 4881.93 1.98997 -0.420917 0
M  V30 51902 C 4882.29 1.64071 1.00492 0
M  V30 51903 O 4881.58 0.90213 1.69033 0
M  V30 51904 C 4881.77 3.52979 -0.560392 0
M  V30 51905 C 4881.6 4.02866 -1.99823 0
M  V30 51906 C 4880.37 4.31454 -2.63013 0
M  V30 51907 C 4882.57 4.20231 -2.96497 0
M  V30 51908 N 4880.55 4.67376 -3.98037 0
M  V30 51909 C 4881.92 4.59333 -4.16429 0
M  V30 51910 C 4883.98 4.02479 -2.93113 0
M  V30 51911 C 4882.68 4.8254 -5.3343 0
M  V30 51912 C 4884.71 4.26852 -4.0933 0
M  V30 51913 C 4884.07 4.66242 -5.28013 0
M  V30 51914 H 4880.17 0.755425 -0.20213 0
M  V30 51915 H 4882.75 1.62812 -1.06773 0
M  V30 51916 H 4880.92 3.88359 0.0565231 0
M  V30 51917 H 4882.66 4.04487 -0.131289 0
M  V30 51918 H 4879.41 4.22365 -2.14253 0
M  V30 51919 H 4879.84 4.89571 -4.67599 0
M  V30 51920 H 4884.48 3.71154 -2.02496 0
M  V30 51921 H 4882.2 5.12732 -6.24605 0
M  V30 51922 H 4885.78 4.14653 -4.08111 0
M  V30 51923 H 4884.66 4.8473 -6.16446 0
M  V30 51924 N 4882.16 0.577983 1.46619 0
M  V30 51925 C 4883.11 -0.1708 2.31972 0
M  V30 51926 C 4884.11 -0.889035 1.44196 0
M  V30 51927 O 4885.31 -0.807961 1.60848 0
M  V30 51928 H 4881.69 -0.07395 0.748355 0
M  V30 51929 H 4883.66 0.567959 2.92945 0
M  V30 51930 C 4882.41 -1.17426 3.27271 0
M  V30 51931 H 4881.73 -0.631021 3.94789 0
M  V30 51932 H 4883.17 -1.66868 3.89783 0
M  V30 51933 C 4881.63 -2.23283 2.52282 0
M  V30 51934 O 4882.16 -3.30559 2.2824 0
M  V30 51935 N 4880.37 -1.97764 2.12926 0
M  V30 51936 H 4879.91 -1.10536 2.32679 0
M  V30 51937 H 4879.87 -2.68803 1.63071 0
M  V30 51938 N 4883.64 -1.54409 0.315511 0
M  V30 51939 C 4885.06 -1.59556 -0.0374079 0
M  V30 51940 C 4885.26 -1.33222 -1.51175 0
M  V30 51941 O 4884.31 -1.11272 -2.2666 0
M  V30 51942 C 4885.63 -2.9837 0.373582 0
M  V30 51943 C 4887.18 -3.11323 0.323562 0
M  V30 51944 C 4887.65 -4.5247 0.709592 0
M  V30 51945 N 4889.14 -4.58435 0.662685 0
M  V30 51946 C 4889.88 -5.65747 0.933673 0
M  V30 51947 N 4889.37 -6.81034 1.27138 0
M  V30 51948 N 4891.17 -5.55486 0.859769 0
M  V30 51949 H 4883.32 -1.69785 1.2762 0
M  V30 51950 H 4885.58 -0.793714 0.518384 0
M  V30 51951 H 4885.29 -3.22613 1.40049 0
M  V30 51952 H 4885.16 -3.76265 -0.265483 0
M  V30 51953 H 4887.55 -2.8682 -0.694122 0
M  V30 51954 H 4887.63 -2.35552 0.99745 0
M  V30 51955 H 4887.27 -4.77704 1.72515 0
M  V30 51956 H 4887.2 -5.26598 0.0134775 0
M  V30 51957 H 4889.69 -3.75634 0.413197 0
M  V30 51958 H 4890.01 -7.58811 1.46375 0
M  V30 51959 H 4888.35 -6.82551 1.30956 0
M  V30 51960 H 4891.54 -4.64297 0.595487 0
M  V30 51961 H 4891.71 -6.39032 1.07432 0
M  V30 51962 N 4885.12 -0.0435168 -1.5754 0
M  V30 51963 C 4886.37 0.632904 -1.92671 0
M  V30 51964 C 4886.7 1.70944 -0.921506 0
M  V30 51965 O 4885.97 1.94426 0.0536519 0
M  V30 51966 C 4886.26 1.23608 -3.38221 0
M  V30 51967 C 4886.11 0.168116 -4.49486 0
M  V30 51968 C 4887.43 2.14994 -3.84012 0
M  V30 51969 H 4884.55 0.228604 -0.700649 0
M  V30 51970 H 4887.19 -0.103718 -1.89717 0
M  V30 51971 H 4885.34 1.86388 -3.40869 0
M  V30 51972 H 4887.01 -0.463357 -4.58967 0
M  V30 51973 H 4885.26 -0.504733 -4.30854 0
M  V30 51974 H 4885.93 0.630026 -5.48393 0
M  V30 51975 H 4888.4 1.62184 -3.83191 0
M  V30 51976 H 4887.28 2.54144 -4.8652 0
M  V30 51977 H 4887.54 3.04695 -3.20333 0
M  V30 51978 N 4886.6 1.55916 0.229791 0
M  V30 51979 C 4887.84 1.79722 0.952454 0
M  V30 51980 C 4888.2 0.615204 1.82299 0
M  V30 51981 O 4887.49 -0.391032 1.87567 0
M  V30 51982 C 4887.69 3.06852 1.83239 0
M  V30 51983 C 4887.52 4.37305 1.04853 0
M  V30 51984 C 4886.29 4.99752 0.746756 0
M  V30 51985 C 4888.48 5.126 0.417809 0
M  V30 51986 N 4886.47 6.13871 -0.0593754 0
M  V30 51987 C 4887.84 6.19487 -0.252097 0
M  V30 51988 C 4889.89 4.96805 0.330005 0
M  V30 51989 C 4888.59 7.12295 -1.0014 0
M  V30 51990 C 4890.62 5.90006 -0.405807 0
M  V30 51991 C 4889.98 6.96313 -1.06429 0
M  V30 51992 H 4886.08 0.709394 0.329066 0
M  V30 51993 H 4888.67 1.93407 0.224046 0
M  V30 51994 H 4886.84 2.94465 2.53269 0
M  V30 51995 H 4888.57 3.18882 2.49191 0
M  V30 51996 H 4885.32 4.61522 1.06276 0
M  V30 51997 H 4885.75 6.75496 -0.451035 0
M  V30 51998 H 4890.39 4.14678 0.824753 0
M  V30 51999 H 4888.11 7.93911 -1.50769 0
M  V30 52000 H 4891.69 5.79861 -0.47464 0
M  V30 52001 H 4890.57 7.67188 -1.62456 0
M  V30 52002 N 4888.08 -0.496163 1.49586 0
M  V30 52003 C 4889.33 -1.24663 1.58563 0
M  V30 52004 C 4889.64 -1.93589 0.279771 0
M  V30 52005 O 4890.84 -2.70364 0.248143 0
M  V30 52006 C 4889.3 -2.26379 2.79787 0
M  V30 52007 C 4888.91 -1.63369 4.1715 0
M  V30 52008 C 4890.65 -3.02223 2.98097 0
M  V30 52009 C 4888.56 -2.63225 5.29591 0
M  V30 52010 H 4887.49 -0.468975 0.590406 0
M  V30 52011 H 4890.14 -0.519923 1.7598 0
M  V30 52012 H 4888.52 -3.02232 2.55874 0
M  V30 52013 H 4889.7 -0.934751 4.5122 0
M  V30 52014 H 4888.01 -0.998979 4.04239 0
M  V30 52015 H 4890.61 -3.76906 3.7927 0
M  V30 52016 H 4890.95 -3.60125 2.08844 0
M  V30 52017 H 4891.48 -2.33484 3.22072 0
M  V30 52018 H 4888.22 -2.10097 6.20918 0
M  V30 52019 H 4887.74 -3.31345 4.99971 0
M  V30 52020 H 4889.42 -3.25556 5.59126 0
M  V30 52021 N 4889.55 -1.38742 -0.747561 0
M  V30 52022 C 4890.46 -1.38702 -1.89206 0
M  V30 52023 C 4891.48 -0.283363 -1.71677 0
M  V30 52024 O 4892.66 -0.522782 -1.94497 0
M  V30 52025 C 4889.72 -1.21673 -3.24648 0
M  V30 52026 C 4888.78 -2.41898 -3.5466 0
M  V30 52027 C 4888.02 -2.25672 -4.8364 0
M  V30 52028 O 4888.24 -1.25358 -5.56454 0
M  V30 52029 O 4887.17 -3.1439 -5.13266 0
M  V30 52030 H 4891 -2.3515 -1.92193 0
M  V30 52031 H 4888.58 -1.19725 -0.893666 0
M  V30 52032 H 4890.47 -1.1426 -4.05614 0
M  V30 52033 H 4889.14 -0.283137 -3.22459 0
M  V30 52034 H 4888.05 -2.54886 -2.73832 0
M  V30 52035 H 4889.38 -3.33908 -3.61616 0
M  V30 52036 N 4891.03 0.976398 -1.2371 0
M  V30 52037 C 4892.31 1.69293 -0.979759 0
M  V30 52038 C 4892.69 2.05081 0.500483 0
M  V30 52039 O 4892.04 1.74713 1.47267 0
M  V30 52040 C 4892.25 2.93136 -1.89399 0
M  V30 52041 C 4893.6 3.65565 -2.15981 0
M  V30 52042 O 4894.62 3.03177 -1.86981 0
M  V30 52043 O 4893.48 4.77849 -2.65184 0
M  V30 52044 H 4890.57 0.739695 -0.369838 0
M  V30 52045 H 4893.12 1.03126 -1.3477 0
M  V30 52046 H 4891.89 2.63316 -2.89448 0
M  V30 52047 H 4891.51 3.67039 -1.52867 0
M  V30 52048 N 4892.51 1.04945 1.17577 0
M  V30 52049 C 4893.46 0.642118 2.23561 0
M  V30 52050 C 4894.45 -0.335394 1.66047 0
M  V30 52051 O 4895.66 -0.201727 1.78866 0
M  V30 52052 H 4892.03 0.189466 0.727741 0
M  V30 52053 H 4894 1.54618 2.55217 0
M  V30 52054 C 4892.75 0.0302274 3.47687 0
M  V30 52055 H 4892.08 0.773477 3.92247 0
M  V30 52056 H 4893.52 -0.217444 4.23442 0
M  V30 52057 C 4891.98 -1.22238 3.13942 0
M  V30 52058 O 4892.51 -2.31208 3.2849 0
M  V30 52059 N 4890.71 -1.11907 2.68189 0
M  V30 52060 H 4890.26 -0.232313 2.5655 0
M  V30 52061 H 4890.22 -1.95806 2.45983 0
M  V30 52062 N 4893.99 -1.33965 0.830128 0
M  V30 52063 C 4895.4 -1.80437 0.479518 0
M  V30 52064 C 4895.75 -1.6876 -1.00073 0
M  V30 52065 O 4894.88 -1.23177 -1.77922 0
M  V30 52066 C 4895.47 -3.27608 0.86362 0
M  V30 52067 C 4894.03 -3.72131 0.565276 0
M  V30 52068 C 4893.18 -2.55545 1.07666 0
M  V30 52069 H 4896.13 -1.2161 1.01964 0
M  V30 52070 H 4896.15 -3.80119 0.170217 0
M  V30 52071 H 4895.66 -3.36075 1.94101 0
M  V30 52072 H 4893.76 -3.69197 -0.502407 0
M  V30 52073 H 4893.88 -4.6596 1.11439 0
M  V30 52074 H 4892.24 -2.49786 0.497895 0
M  V30 52075 H 4893.02 -2.66779 2.16065 0
M  V30 52076 N 4895.47 -0.585751 -1.4631 0
M  V30 52077 C 4896.71 -0.0809446 -2.03239 0
M  V30 52078 C 4897.07 1.26604 -1.44876 0
M  V30 52079 O 4896.36 1.81777 -0.605623 0
M  V30 52080 C 4896.56 0.0400055 -3.57378 0
M  V30 52081 C 4896.38 -1.29371 -4.30689 0
M  V30 52082 C 4895.15 -1.86866 -4.69478 0
M  V30 52083 C 4897.35 -2.21759 -4.64034 0
M  V30 52084 N 4895.33 -3.13945 -5.27553 0
M  V30 52085 C 4896.71 -3.33426 -5.22711 0
M  V30 52086 C 4898.76 -2.21401 -4.45966 0
M  V30 52087 C 4897.46 -4.44872 -5.65227 0
M  V30 52088 C 4899.49 -3.3188 -4.895 0
M  V30 52089 C 4898.85 -4.42268 -5.48251 0
M  V30 52090 H 4894.95 -0.0724704 -0.778635 0
M  V30 52091 H 4897.53 -0.779316 -1.78423 0
M  V30 52092 H 4895.71 0.707551 -3.81901 0
M  V30 52093 H 4897.44 0.549474 -4.00952 0
M  V30 52094 H 4894.19 -1.40323 -4.52334 0
M  V30 52095 H 4894.62 -3.78795 -5.61109 0
M  V30 52096 H 4899.26 -1.37328 -3.99876 0
M  V30 52097 H 4896.98 -5.29686 -6.10293 0
M  V30 52098 H 4900.56 -3.32725 -4.77269 0
M  V30 52099 H 4899.44 -5.26343 -5.81319 0
M  V30 52100 N 4896.95 1.5424 -0.323695 0
M  V30 52101 C 4897.88 2.20581 0.584755 0
M  V30 52102 C 4898.86 1.1829 1.11563 0
M  V30 52103 O 4900.04 1.47029 1.1796 0
M  V30 52104 C 4897.17 2.8676 1.80239 0
M  V30 52105 C 4896.21 4.02772 1.40275 0
M  V30 52106 S 4897.05 5.33695 0.439351 0
M  V30 52107 C 4898.2 6.03368 1.66427 0
M  V30 52108 H 4898.44 2.97292 0.0212193 0
M  V30 52109 H 4895.97 1.54023 -0.10778 0
M  V30 52110 H 4897.93 3.25512 2.50105 0
M  V30 52111 H 4896.59 2.09852 2.33711 0
M  V30 52112 H 4895.78 4.47941 2.31008 0
M  V30 52113 H 4895.38 3.65695 0.7838 0
M  V30 52114 H 4897.67 6.25555 2.60168 0
M  V30 52115 H 4898.62 6.96895 1.25473 0
M  V30 52116 H 4899.03 5.3328 1.8513 0
M  V30 52117 N 4898.42 0.0518709 1.57515 0
M  V30 52118 C 4899.33 -0.937463 2.15055 0
M  V30 52119 C 4900.35 -1.34118 1.10853 0
M  V30 52120 O 4901.53 -1.41795 1.43025 0
M  V30 52121 C 4898.59 -2.19369 2.68473 0
M  V30 52122 C 4897.65 -1.84827 3.87476 0
M  V30 52123 C 4896.88 -3.04461 4.38337 0
M  V30 52124 O 4897.11 -4.17855 3.8827 0
M  V30 52125 O 4896.04 -2.85435 5.29916 0
M  V30 52126 H 4899.87 -0.478095 2.99913 0
M  V30 52127 H 4897.45 -0.170068 1.48429 0
M  V30 52128 H 4899.33 -2.93073 3.02797 0
M  V30 52129 H 4898.01 -2.64443 1.86686 0
M  V30 52130 H 4896.92 -1.08437 3.58039 0
M  V30 52131 H 4898.25 -1.44552 4.70495 0
M  V30 52132 N 4899.9 -1.56035 -0.221519 0
M  V30 52133 C 4901.18 -1.6984 -0.970242 0
M  V30 52134 C 4901.56 -0.599136 -2.02419 0
M  V30 52135 O 4900.91 0.39385 -2.2508 0
M  V30 52136 C 4901.12 -3.11153 -1.58065 0
M  V30 52137 C 4902.46 -3.70562 -2.07289 0
M  V30 52138 O 4903.49 -3.14115 -1.67959 0
M  V30 52139 O 4902.35 -4.69572 -2.79579 0
M  V30 52140 H 4899.44 -0.691743 -0.453233 0
M  V30 52141 H 4901.99 -1.68354 -0.213298 0
M  V30 52142 H 4900.76 -3.8262 -0.819625 0
M  V30 52143 H 4900.38 -3.16757 -2.40313 0
M  V30 52144 N 4901.38 0.488223 -1.49847 0
M  V30 52145 C 4902.33 1.5883 -1.67456 0
M  V30 52146 C 4903.3 1.57885 -0.515912 0
M  V30 52147 O 4904.48 1.75677 -0.744465 0
M  V30 52148 C 4901.62 2.96909 -1.75895 0
M  V30 52149 C 4900.73 3.07774 -3.03149 0
M  V30 52150 C 4899.87 4.36663 -3.02488 0
M  V30 52151 C 4898.91 4.41207 -4.24267 0
M  V30 52152 N 4898.05 5.61542 -4.21444 0
M  V30 52153 H 4902.89 1.43122 -2.61381 0
M  V30 52154 H 4900.42 0.69614 -1.29585 0
M  V30 52155 H 4902.38 3.76958 -1.78769 0
M  V30 52156 H 4901.01 3.11292 -0.85425 0
M  V30 52157 H 4900.06 2.20706 -3.09827 0
M  V30 52158 H 4901.37 3.06991 -3.93139 0
M  V30 52159 H 4900.53 5.25044 -3.03996 0
M  V30 52160 H 4899.27 4.40029 -2.10299 0
M  V30 52161 H 4898.27 3.51225 -4.2299 0
M  V30 52162 H 4899.5 4.39546 -5.17664 0
M  V30 52163 H 4897.44 5.65727 -3.32098 0
M  V30 52164 H 4897.36 5.62429 -5.05182 0
M  V30 52165 H 4898.63 6.52096 -4.27072 0
M  V30 52166 N 4902.86 1.39136 0.740193 0
M  V30 52167 C 4904.09 1.3934 1.52945 0
M  V30 52168 C 4904.5 -0.0134344 1.88795 0
M  V30 52169 O 4903.86 -0.983469 1.53734 0
M  V30 52170 C 4903.91 2.2615 2.82026 0
M  V30 52171 O 4903.63 3.61354 2.477 0
M  V30 52172 C 4905.13 2.3468 3.76086 0
M  V30 52173 H 4902.35 0.47612 0.472812 0
M  V30 52174 H 4904.89 1.82886 0.915036 0
M  V30 52175 H 4903.05 1.8603 3.39811 0
M  V30 52176 H 4903.46 4.07206 3.30581 0
M  V30 52177 H 4904.94 2.9968 4.63569 0
M  V30 52178 H 4905.41 1.36441 4.17469 0
M  V30 52179 H 4906.02 2.75247 3.24221 0
M  V30 52180 N 4904.34 -0.969824 1.24226 0
M  V30 52181 C 4905.75 -1.52713 1.07404 0
M  V30 52182 C 4906.1 -1.92957 -0.355231 0
M  V30 52183 O 4905.22 -1.77116 -1.24334 0
M  V30 52184 C 4905.82 -2.77514 1.94349 0
M  V30 52185 C 4904.38 -3.29608 1.81756 0
M  V30 52186 C 4903.52 -2.0253 1.89412 0
M  V30 52187 H 4906.47 -0.78835 1.37734 0
M  V30 52188 H 4906.5 -3.50768 1.47452 0
M  V30 52189 H 4906.01 -2.48192 2.98366 0
M  V30 52190 H 4904.11 -3.63786 0.805633 0
M  V30 52191 H 4904.22 -3.98652 2.65732 0
M  V30 52192 H 4902.59 -2.17146 1.33116 0
M  V30 52193 H 4903.37 -1.75576 2.95005 0
M  V30 52194 N 4905.81 -1.05567 -1.17018 0
M  V30 52195 C 4907.06 -0.76914 -1.87649 0
M  V30 52196 C 4907.39 0.702263 -1.81058 0
M  V30 52197 O 4906.67 1.51385 -1.22118 0
M  V30 52198 C 4906.95 -1.25504 -3.37522 0
M  V30 52199 C 4906.8 -2.78966 -3.52843 0
M  V30 52200 C 4908.12 -0.85707 -4.31674 0
M  V30 52201 H 4905.24 -0.280878 -0.681378 0
M  V30 52202 H 4907.88 -1.31032 -1.37588 0
M  V30 52203 H 4906.03 -0.79465 -3.80286 0
M  V30 52204 H 4907.71 -3.33157 -3.19068 0
M  V30 52205 H 4905.95 -3.18057 -2.94996 0
M  V30 52206 H 4906.62 -3.08027 -4.58065 0
M  V30 52207 H 4909.1 -1.25348 -3.96771 0
M  V30 52208 H 4907.97 -1.22461 -5.35065 0
M  V30 52209 H 4908.23 0.238632 -4.41456 0
M  V30 52210 N 4907.29 1.33523 -0.837221 0
M  V30 52211 C 4908.52 2.02045 -0.445565 0
M  V30 52212 C 4908.93 1.62998 0.952731 0
M  V30 52213 O 4908.29 0.842503 1.61889 0
M  V30 52214 C 4908.34 3.57219 -0.554702 0
M  V30 52215 O 4908.06 3.94856 -1.8979 0
M  V30 52216 C 4909.56 4.43012 -0.159789 0
M  V30 52217 H 4906.78 0.647215 -0.17707 0
M  V30 52218 H 4909.33 1.70488 -1.12934 0
M  V30 52219 H 4907.48 3.87315 0.0811419 0
M  V30 52220 H 4907.9 4.89562 -1.88225 0
M  V30 52221 H 4909.37 5.51252 -0.287204 0
M  V30 52222 H 4909.85 4.29919 0.898138 0
M  V30 52223 H 4910.45 4.18272 -0.770002 0
M  V30 52224 N 4908.77 0.593501 1.45998 0
M  V30 52225 C 4910 0.089166 2.06708 0
M  V30 52226 C 4910.41 -1.22045 1.4405 0
M  V30 52227 O 4909.77 -1.74027 0.549612 0
M  V30 52228 C 4909.82 -0.0718992 3.61428 0
M  V30 52229 O 4909.54 1.18589 4.21744 0
M  V30 52230 C 4911.04 -0.609333 4.39092 0
M  V30 52231 H 4908.26 0.0623863 0.668094 0
M  V30 52232 H 4910.81 0.817237 1.87461 0
M  V30 52233 H 4908.96 -0.750235 3.80066 0
M  V30 52234 H 4909.38 1.00658 5.14751 0
M  V30 52235 H 4910.85 -0.67117 5.47904 0
M  V30 52236 H 4911.33 -1.62864 4.07887 0
M  V30 52237 H 4911.93 0.0344895 4.25286 0
M  V30 52238 N 4910.25 -1.54066 0.33187 0
M  V30 52239 C 4911.49 -2.01714 -0.261324 0
M  V30 52240 C 4911.85 -1.21572 -1.49124 0
M  V30 52241 O 4911.14 -0.291934 -1.89363 0
M  V30 52242 C 4911.34 -3.51636 -0.639268 0
M  V30 52243 C 4911.17 -4.46293 0.552478 0
M  V30 52244 C 4909.94 -4.94182 1.05417 0
M  V30 52245 C 4912.13 -4.94672 1.40728 0
M  V30 52246 N 4910.12 -5.72762 2.20946 0
M  V30 52247 C 4911.49 -5.71259 2.40963 0
M  V30 52248 C 4913.54 -4.768 1.43409 0
M  V30 52249 C 4912.24 -6.31877 3.43692 0
M  V30 52250 C 4914.27 -5.38259 2.45013 0
M  V30 52251 C 4913.63 -6.14704 3.43974 0
M  V30 52252 H 4909.73 -0.779753 -0.0592455 0
M  V30 52253 H 4912.32 -1.88972 0.468792 0
M  V30 52254 H 4910.49 -3.64607 -1.3385 0
M  V30 52255 H 4912.22 -3.86042 -1.21465 0
M  V30 52256 H 4908.97 -4.6947 0.624117 0
M  V30 52257 H 4909.4 -6.16727 2.79243 0
M  V30 52258 H 4914.04 -4.17253 0.682636 0
M  V30 52259 H 4911.76 -6.90539 4.19739 0
M  V30 52260 H 4915.34 -5.26343 2.47899 0
M  V30 52261 H 4914.22 -6.61415 4.21307 0
M  V30 52262 N 4911.73 -0.0602235 -1.57485 0
M  V30 52263 C 4912.64 0.926045 -2.15549 0
M  V30 52264 C 4913.65 1.33528 -1.11563 0
M  V30 52265 O 4914.83 1.41035 -1.43775 0
M  V30 52266 C 4911.89 2.17943 -2.69633 0
M  V30 52267 C 4910.95 1.8277 -3.88451 0
M  V30 52268 C 4910.19 3.02132 -4.39945 0
M  V30 52269 O 4910.41 4.1579 -3.90481 0
M  V30 52270 O 4909.34 2.8262 -5.31422 0
M  V30 52271 H 4913.17 0.462183 -3.00163 0
M  V30 52272 H 4910.76 0.162194 -1.48517 0
M  V30 52273 H 4912.64 2.91463 -3.04347 0
M  V30 52274 H 4911.31 2.63449 -1.88086 0
M  V30 52275 H 4910.22 1.06537 -3.5861 0
M  V30 52276 H 4911.55 1.42055 -4.71255 0
M  V30 52277 N 4913.2 1.56151 0.213241 0
M  V30 52278 C 4914.48 1.70352 0.961221 0
M  V30 52279 C 4914.86 0.609862 2.02099 0
M  V30 52280 O 4914.21 -0.381908 2.25286 0
M  V30 52281 C 4914.42 3.11987 1.56413 0
M  V30 52282 C 4915.77 3.71656 2.05321 0
M  V30 52283 O 4916.79 3.15001 1.66291 0
M  V30 52284 O 4915.65 4.71048 2.77085 0
M  V30 52285 H 4912.74 0.694137 0.449558 0
M  V30 52286 H 4915.29 1.68465 0.204367 0
M  V30 52287 H 4914.06 3.83049 0.799322 0
M  V30 52288 H 4913.69 3.18027 2.3863 0
M  V30 52289 N 4914.68 -0.48027 1.50104 0
M  V30 52290 C 4915.93 -1.23484 1.60871 0
M  V30 52291 C 4916.26 -1.91808 0.303895 0
M  V30 52292 O 4915.54 -1.81696 -0.694028 0
M  V30 52293 C 4915.82 -2.28568 2.7826 0
M  V30 52294 C 4915.67 -1.64609 4.18597 0
M  V30 52295 C 4916.99 -3.29959 2.9123 0
M  V30 52296 H 4914.11 -0.447584 0.585523 0
M  V30 52297 H 4916.75 -0.52994 1.8246 0
M  V30 52298 H 4914.9 -2.88688 2.59984 0
M  V30 52299 H 4916.57 -1.08157 4.48441 0
M  V30 52300 H 4914.82 -0.949496 4.23281 0
M  V30 52301 H 4915.49 -2.40928 4.96646 0
M  V30 52302 H 4917.96 -2.79853 3.07931 0
M  V30 52303 H 4916.84 -4.00826 3.75007 0
M  V30 52304 H 4917.1 -3.93533 2.01454 0
M  V30 52305 N 4916.16 -1.39527 -0.732804 0
M  V30 52306 C 4917.57 -1.3291 -1.31117 0
M  V30 52307 C 4917.92 0.0055181 -1.96199 0
M  V30 52308 O 4917.05 0.907637 -1.96446 0
M  V30 52309 C 4917.64 -2.40712 -2.38418 0
M  V30 52310 C 4916.2 -2.37609 -2.91922 0
M  V30 52311 C 4915.35 -2.22486 -1.65515 0
M  V30 52312 H 4918.3 -1.49583 -0.530155 0
M  V30 52313 H 4918.32 -2.07627 -3.18859 0
M  V30 52314 H 4917.83 -3.37835 -1.91021 0
M  V30 52315 H 4915.93 -1.44131 -3.43594 0
M  V30 52316 H 4916.05 -3.3255 -3.44888 0
M  V30 52317 H 4914.41 -1.69697 -1.89934 0
M  V30 52318 H 4915.19 -3.21582 -1.20167 0
M  V30 52319 N 4917.64 0.963222 -1.24739 0
M  V30 52320 C 4918.87 1.7391 -1.1153 0
M  V30 52321 C 4919.28 1.86219 0.334546 0
M  V30 52322 O 4918.62 1.35315 1.2424 0
M  V30 52323 C 4918.68 3.17495 -1.68633 0
M  V30 52324 C 4918.35 3.28643 -3.17557 0
M  V30 52325 C 4919.34 3.13622 -4.14653 0
M  V30 52326 C 4917.03 3.5274 -3.57603 0
M  V30 52327 C 4919.02 3.22531 -5.49775 0
M  V30 52328 C 4916.71 3.61286 -4.92865 0
M  V30 52329 C 4917.71 3.46194 -5.8876 0
M  V30 52330 O 4917.39 3.54404 -7.21563 0
M  V30 52331 H 4917.13 0.552044 -0.390159 0
M  V30 52332 H 4919.68 1.21765 -1.65416 0
M  V30 52333 H 4917.91 3.70966 -1.09185 0
M  V30 52334 H 4919.6 3.76908 -1.50649 0
M  V30 52335 H 4920.37 2.94885 -3.85055 0
M  V30 52336 H 4916.24 3.63551 -2.83463 0
M  V30 52337 H 4919.79 3.10668 -6.24605 0
M  V30 52338 H 4915.69 3.79538 -5.22132 0
M  V30 52339 H 4916.45 3.71091 -7.29544 0
M  V30 52340 N 4919.12 1.06186 1.16457 0
M  V30 52341 C 4920.05 0.692939 2.22981 0
M  V30 52342 C 4921.03 -0.314063 1.67176 0
M  V30 52343 O 4922.21 -0.189431 1.93274 0
M  V30 52344 C 4919.34 0.077442 3.47214 0
M  V30 52345 C 4918.3 1.0103 4.15905 0
M  V30 52346 C 4917.62 0.258161 5.34076 0
M  V30 52347 C 4918.92 2.33884 4.67007 0
M  V30 52348 H 4920.62 1.58352 2.54097 0
M  V30 52349 H 4918.16 0.762833 1.22135 0
M  V30 52350 H 4920.12 -0.192512 4.2096 0
M  V30 52351 H 4918.84 -0.848143 3.15395 0
M  V30 52352 H 4917.5 1.26498 3.44084 0
M  V30 52353 H 4917.15 -0.670508 4.98511 0
M  V30 52354 H 4916.85 0.879842 5.80976 0
M  V30 52355 H 4918.37 -0.00427322 6.106 0
M  V30 52356 H 4919.78 2.12809 5.3234 0
M  V30 52357 H 4918.18 2.9154 5.24523 0
M  V30 52358 H 4919.25 2.97032 3.83275 0
M  V30 52359 N 4920.59 -1.33077 0.84429 0
M  V30 52360 C 4921.84 -1.97213 0.441745 0
M  V30 52361 C 4922.16 -1.67189 -1.00364 0
M  V30 52362 O 4921.43 -0.973648 -1.69991 0
M  V30 52363 H 4920.01 -0.729585 0.16036 0
M  V30 52364 H 4922.68 -1.62344 1.07844 0
M  V30 52365 H 4921.77 -3.06696 0.578258 0
M  V30 52366 N 4922.07 -0.601236 -1.45681 0
M  V30 52367 C 4923.02 0.121315 -2.30481 0
M  V30 52368 C 4923.99 0.866182 -1.41727 0
M  V30 52369 O 4925.17 0.85318 -1.70662 0
M  V30 52370 C 4922.31 1.11692 -3.26525 0
M  V30 52371 C 4921.43 0.373589 -4.30382 0
M  V30 52372 C 4920.56 1.35836 -5.13539 0
M  V30 52373 C 4919.6 0.602475 -6.09128 0
M  V30 52374 N 4918.74 1.53621 -6.85088 0
M  V30 52375 H 4923.58 -0.607835 -2.91735 0
M  V30 52376 H 4921.12 -0.311553 -1.43763 0
M  V30 52377 H 4923.07 1.70722 -3.8067 0
M  V30 52378 H 4921.7 1.81356 -2.67039 0
M  V30 52379 H 4920.76 -0.332095 -3.78948 0
M  V30 52380 H 4922.07 -0.216475 -4.9833 0
M  V30 52381 H 4921.22 2.0209 -5.72053 0
M  V30 52382 H 4919.96 1.98235 -4.45594 0
M  V30 52383 H 4918.97 -0.0737414 -5.49751 0
M  V30 52384 H 4920.19 -0.0163854 -6.79098 0
M  V30 52385 H 4918.14 2.14797 -6.19837 0
M  V30 52386 H 4918.05 0.999425 -7.49365 0
M  V30 52387 H 4919.32 2.18853 -7.48147 0
M  V30 52388 N 4923.55 1.53888 -0.340036 0
M  V30 52389 C 4924.97 1.59595 0.0120191 0
M  V30 52390 C 4925.17 1.35611 1.49037 0
M  V30 52391 O 4924.22 1.14863 2.24861 0
M  V30 52392 C 4925.54 2.97738 -0.421003 0
M  V30 52393 C 4927.08 3.10769 -0.37305 0
M  V30 52394 C 4927.56 4.51283 -0.781486 0
M  V30 52395 N 4929.05 4.57323 -0.735534 0
M  V30 52396 C 4929.79 5.6419 -1.02356 0
M  V30 52397 N 4929.28 6.78925 -1.37957 0
M  V30 52398 N 4931.07 5.54048 -0.948033 0
M  V30 52399 H 4923.23 1.67733 -1.30305 0
M  V30 52400 H 4925.49 0.785367 -0.530945 0
M  V30 52401 H 4925.19 3.20344 -1.45164 0
M  V30 52402 H 4925.07 3.76639 0.205588 0
M  V30 52403 H 4927.46 2.87888 0.648404 0
M  V30 52404 H 4927.54 2.33935 -1.0348 0
M  V30 52405 H 4927.18 4.74899 -1.80093 0
M  V30 52406 H 4927.11 5.2651 -0.097253 0
M  V30 52407 H 4929.6 3.74929 -0.472905 0
M  V30 52408 H 4929.91 7.56386 -1.58428 0
M  V30 52409 H 4928.26 6.80381 -1.41798 0
M  V30 52410 H 4931.45 4.63291 -0.669278 0
M  V30 52411 H 4931.62 6.37242 -1.17585 0
M  V30 52412 N 4925.03 0.0685745 1.57451 0
M  V30 52413 C 4925.94 -0.914601 2.16038 0
M  V30 52414 C 4926.96 -1.32934 1.1227 0
M  V30 52415 O 4928.13 -1.4027 1.44521 0
M  V30 52416 C 4925.2 -2.1651 2.70785 0
M  V30 52417 C 4924.26 -1.80707 3.89414 0
M  V30 52418 C 4923.49 -2.99795 4.41541 0
M  V30 52419 O 4923.71 -4.13713 3.9268 0
M  V30 52420 O 4922.65 -2.79798 5.32913 0
M  V30 52421 H 4926.47 -0.446258 3.00403 0
M  V30 52422 H 4924.06 -0.154315 1.48601 0
M  V30 52423 H 4925.94 -2.89845 3.05888 0
M  V30 52424 H 4924.62 -2.62448 1.8948 0
M  V30 52425 H 4923.52 -1.04633 3.59169 0
M  V30 52426 H 4924.86 -1.39554 4.72002 0
M  V30 52427 N 4926.51 -1.56262 -0.204957 0
M  V30 52428 C 4927.78 -1.7086 -0.952173 0
M  V30 52429 C 4928.16 -0.620571 -2.01772 0
M  V30 52430 O 4927.51 0.369955 -2.25485 0
M  V30 52431 C 4927.72 -3.12812 -1.54756 0
M  V30 52432 C 4929.07 -3.7274 -2.03347 0
M  V30 52433 O 4930.09 -3.15879 -1.64618 0
M  V30 52434 O 4928.95 -4.72511 -2.74583 0
M  V30 52435 H 4926.05 -0.696512 -0.445871 0
M  V30 52436 H 4928.59 -1.68571 -0.19543 0
M  V30 52437 H 4927.37 -3.83468 -0.778997 0
M  V30 52438 H 4926.99 -3.19288 -2.3694 0
M  V30 52439 N 4927.99 0.472303 -1.50356 0
M  V30 52440 C 4928.92 1.58789 -1.65283 0
M  V30 52441 C 4929.93 1.5378 -0.534367 0
M  V30 52442 O 4931.12 1.59191 -0.807502 0
M  V30 52443 C 4928.22 2.97667 -1.62012 0
M  V30 52444 C 4927.39 3.27558 -2.8987 0
M  V30 52445 C 4926.45 4.45984 -2.79258 0
M  V30 52446 O 4925.48 4.46351 -3.53213 0
M  V30 52447 N 4926.68 5.47571 -1.92732 0
M  V30 52448 H 4929.44 1.46401 -2.61509 0
M  V30 52449 H 4927.01 0.660699 -1.47805 0
M  V30 52450 H 4929 3.74857 -1.52527 0
M  V30 52451 H 4927.57 3.0383 -0.735266 0
M  V30 52452 H 4926.79 2.38992 -3.13491 0
M  V30 52453 H 4928.08 3.44339 -3.74577 0
M  V30 52454 H 4927.47 5.50094 -1.31958 0
M  V30 52455 H 4926.03 6.23751 -1.89152 0
M  V30 52456 N 4929.46 1.39914 0.725394 0
M  V30 52457 C 4930.71 1.38867 1.48619 0
M  V30 52458 C 4931.06 -0.0125237 1.92396 0
M  V30 52459 O 4930.36 -0.980988 1.64582 0
M  V30 52460 C 4930.55 2.30378 2.73242 0
M  V30 52461 C 4930.38 3.79255 2.41652 0
M  V30 52462 C 4929.15 4.48127 2.33474 0
M  V30 52463 C 4931.35 4.70995 2.06563 0
M  V30 52464 N 4929.33 5.82289 1.94455 0
M  V30 52465 C 4930.7 5.93879 1.78066 0
M  V30 52466 C 4932.76 4.58924 1.93114 0
M  V30 52467 C 4931.46 7.06041 1.37474 0
M  V30 52468 C 4933.49 5.71017 1.53926 0
M  V30 52469 C 4932.85 6.92981 1.2632 0
M  V30 52470 H 4928.95 0.563413 0.5423 0
M  V30 52471 H 4931.53 1.75545 0.842151 0
M  V30 52472 H 4929.7 1.95843 3.3541 0
M  V30 52473 H 4931.43 2.20257 3.39513 0
M  V30 52474 H 4928.19 4.01686 2.5089 0
M  V30 52475 H 4928.61 6.53313 1.77512 0
M  V30 52476 H 4933.25 3.65156 2.13121 0
M  V30 52477 H 4930.97 7.99701 1.16209 0
M  V30 52478 H 4934.56 5.63669 1.44112 0
M  V30 52479 H 4933.44 7.78246 0.964514 0
M  V30 52480 N 4930.94 -0.956593 1.25248 0
M  V30 52481 C 4932.18 -1.71581 1.11082 0
M  V30 52482 C 4932.55 -1.88917 -0.342703 0
M  V30 52483 O 4933.75 -2.61877 -0.606135 0
M  V30 52484 C 4932.02 -3.0626 1.84226 0
M  V30 52485 S 4933.58 -3.97462 1.85928 0
M  V30 52486 H 4930.39 -0.589789 0.397076 0
M  V30 52487 H 4933 -1.14109 1.58743 0
M  V30 52488 H 4931.7 -2.91312 2.89077 0
M  V30 52489 H 4931.23 -3.68795 1.36944 0
M  V30 52490 H 4933.25 -4.87313 0.934911 0
M  V30 52491 N 4932.42 -1.06802 -1.15892 0
M  V30 52492 C 4933.67 -0.786276 -1.86178 0
M  V30 52493 C 4933.99 0.689483 -1.82404 0
M  V30 52494 O 4933.26 1.49908 -1.26112 0
M  V30 52495 H 4931.84 -0.287868 -0.689305 0
M  V30 52496 H 4934.5 -1.3506 -1.40516 0
M  V30 52497 H 4933.6 -1.1158 -2.91473 0
M  V30 52498 N 4933.9 1.32627 -0.851335 0
M  V30 52499 C 4935.12 2.02095 -0.466078 0
M  V30 52500 C 4935.55 1.63578 0.928651 0
M  V30 52501 O 4934.91 0.834722 1.60941 0
M  V30 52502 C 4934.95 3.55423 -0.608862 0
M  V30 52503 O 4934.06 4.10828 0.359733 0
M  V30 52504 H 4933.4 0.636905 -0.187746 0
M  V30 52505 H 4935.93 1.69249 -1.14961 0
M  V30 52506 H 4935.94 4.04984 -0.495148 0
M  V30 52507 H 4934.61 3.828 -1.62595 0
M  V30 52508 H 4933.19 3.7235 0.202535 0
M  V30 52509 N 4935.38 0.608953 1.4536 0
M  V30 52510 C 4936.31 -0.0963706 2.33301 0
M  V30 52511 C 4937.29 -0.857392 1.46911 0
M  V30 52512 O 4938.47 -0.827673 1.75679 0
M  V30 52513 C 4935.6 -1.09343 3.29638 0
M  V30 52514 C 4934.56 -0.445527 4.25675 0
M  V30 52515 C 4933.88 -1.55092 5.11713 0
M  V30 52516 C 4935.18 0.634155 5.18436 0
M  V30 52517 H 4936.88 0.637932 2.92525 0
M  V30 52518 H 4934.42 0.308228 1.40663 0
M  V30 52519 H 4936.37 -1.59542 3.90031 0
M  V30 52520 H 4935.1 -1.85834 2.68576 0
M  V30 52521 H 4933.76 0.0356186 3.66583 0
M  V30 52522 H 4933.41 -2.30615 4.47019 0
M  V30 52523 H 4933.11 -1.12291 5.76771 0
M  V30 52524 H 4934.63 -2.05516 5.74974 0
M  V30 52525 H 4936.04 0.216175 5.72892 0
M  V30 52526 H 4934.44 0.983998 5.91978 0
M  V30 52527 H 4935.51 1.51021 4.60783 0
M  V30 52528 N 4936.85 -1.53705 0.348193 0
M  V30 52529 C 4938.1 -2.00171 -0.247921 0
M  V30 52530 C 4938.42 -1.23988 -1.51282 0
M  V30 52531 O 4939.62 -1.60953 -2.18646 0
M  V30 52532 C 4938.08 -3.56517 -0.492333 0
M  V30 52533 C 4937.69 -4.41559 0.756932 0
M  V30 52534 C 4939.43 -4.11384 -1.04705 0
M  V30 52535 C 4937.34 -5.89424 0.483063 0
M  V30 52536 H 4936.27 -0.74781 -0.0964189 0
M  V30 52537 H 4938.92 -1.7753 0.464242 0
M  V30 52538 H 4937.3 -3.75241 -1.26532 0
M  V30 52539 H 4938.47 -4.3461 1.53137 0
M  V30 52540 H 4936.79 -3.97707 1.23362 0
M  V30 52541 H 4939.39 -5.19472 -1.26698 0
M  V30 52542 H 4939.73 -3.64892 -2.00398 0
M  V30 52543 H 4940.26 -3.9639 -0.334661 0
M  V30 52544 H 4937 -6.40159 1.40984 0
M  V30 52545 H 4936.52 -5.99265 -0.253206 0
M  V30 52546 H 4938.2 -6.4692 0.102043 0
M  V30 52547 N 4938.33 -0.0769235 -1.57412 0
M  V30 52548 C 4939.58 0.58985 -1.93301 0
M  V30 52549 C 4939.9 1.69839 -0.958109 0
M  V30 52550 O 4939.17 1.95899 -0.00710148 0
M  V30 52551 H 4937.75 0.220876 -0.713599 0
M  V30 52552 H 4940.41 -0.135986 -1.94425 0
M  V30 52553 H 4939.51 1.01184 -2.95242 0
M  V30 52554 N 4939.81 1.56368 0.196667 0
M  V30 52555 C 4940.74 1.97447 1.24648 0
M  V30 52556 C 4941.72 0.846199 1.47558 0
M  V30 52557 O 4942.91 1.11041 1.59322 0
M  V30 52558 C 4940.04 2.31262 2.59104 0
M  V30 52559 C 4938.99 3.46813 2.50808 0
M  V30 52560 C 4938.32 3.663 3.89524 0
M  V30 52561 C 4939.62 4.81047 2.03448 0
M  V30 52562 H 4941.31 2.85391 0.905116 0
M  V30 52563 H 4938.86 1.37306 0.433953 0
M  V30 52564 H 4940.81 2.58594 3.32727 0
M  V30 52565 H 4939.53 1.40199 2.94978 0
M  V30 52566 H 4938.19 3.19569 1.79642 0
M  V30 52567 H 4937.84 2.72569 4.22747 0
M  V30 52568 H 4937.54 4.44034 3.84848 0
M  V30 52569 H 4939.06 3.96006 4.6477 0
M  V30 52570 H 4940.48 5.07421 2.66828 0
M  V30 52571 H 4938.88 5.62239 2.09779 0
M  V30 52572 H 4939.95 4.74735 0.987643 0
M  V30 52573 N 4941.29 -0.464322 1.50605 0
M  V30 52574 C 4942.52 -1.23901 1.65699 0
M  V30 52575 C 4942.93 -1.85656 0.343092 0
M  V30 52576 O 4942.29 -1.69531 -0.675679 0
M  V30 52577 C 4942.34 -2.3428 2.75309 0
M  V30 52578 O 4942.06 -1.75056 4.01606 0
M  V30 52579 C 4943.56 -3.2504 3.01436 0
M  V30 52580 H 4940.78 -0.374465 0.556791 0
M  V30 52581 H 4943.33 -0.55346 1.96868 0
M  V30 52582 H 4941.48 -2.98599 2.46815 0
M  V30 52583 H 4941.89 -2.47795 4.62274 0
M  V30 52584 H 4943.37 -3.98685 3.81777 0
M  V30 52585 H 4943.85 -3.8422 2.12772 0
M  V30 52586 H 4944.45 -2.66452 3.31487 0
M  V30 52587 N 4942.77 -1.40296 -0.717964 0
M  V30 52588 C 4943.99 -1.41947 -1.51215 0
M  V30 52589 C 4944.42 -0.0203032 -1.88089 0
M  V30 52590 O 4943.77 0.971024 -1.53104 0
M  V30 52591 C 4943.82 -2.31419 -2.76545 0
M  V30 52592 O 4942.93 -1.75581 -3.73156 0
M  V30 52593 H 4942.27 -0.48266 -0.455999 0
M  V30 52594 H 4944.8 -1.84497 -0.884413 0
M  V30 52595 H 4944.81 -2.46524 -3.251 0
M  V30 52596 H 4943.48 -3.33094 -2.49041 0
M  V30 52597 H 4942.06 -1.6981 -3.31993 0
M  V30 52598 N 4944.24 0.949938 -1.25754 0
M  V30 52599 C 4945.66 1.22187 -1.02677 0
M  V30 52600 C 4945.86 1.99899 0.253518 0
M  V30 52601 O 4944.92 2.33333 0.964994 0
M  V30 52602 C 4946.23 1.99167 -2.25284 0
M  V30 52603 C 4947.78 2.12193 -2.30094 0
M  V30 52604 C 4948.25 2.92573 -3.5237 0
M  V30 52605 N 4949.74 3.0015 -3.52795 0
M  V30 52606 C 4950.48 3.62751 -4.44071 0
M  V30 52607 N 4949.97 4.26924 -5.45626 0
M  V30 52608 N 4951.77 3.59937 -4.31742 0
M  V30 52609 H 4943.92 0.430184 -2.07998 0
M  V30 52610 H 4946.18 0.252812 -0.913668 0
M  V30 52611 H 4945.89 1.49467 -3.18359 0
M  V30 52612 H 4945.76 2.9986 -2.28832 0
M  V30 52613 H 4948.15 2.61088 -1.37539 0
M  V30 52614 H 4948.23 1.10791 -2.30562 0
M  V30 52615 H 4947.87 2.44367 -4.45249 0
M  V30 52616 H 4947.8 3.94212 -3.49148 0
M  V30 52617 H 4950.29 2.54519 -2.79336 0
M  V30 52618 H 4950.61 4.72562 -6.11478 0
M  V30 52619 H 4948.95 4.25537 -5.49493 0
M  V30 52620 H 4952.14 3.08991 -3.51628 0
M  V30 52621 H 4952.32 4.08438 -5.03073 0
M  V30 52622 N 4945.72 1.07416 1.15324 0
M  V30 52623 C 4946.69 0.698991 2.18281 0
M  V30 52624 C 4947.69 -0.261093 1.58666 0
M  V30 52625 O 4948.88 -0.0419665 1.74149 0
M  V30 52626 C 4946.01 0.0303625 3.40886 0
M  V30 52627 H 4947.2 1.61054 2.52986 0
M  V30 52628 H 4944.75 0.87077 1.29797 0
M  V30 52629 H 4945.49 -0.893395 3.11751 0
M  V30 52630 H 4945.27 0.720895 3.85416 0
M  V30 52631 H 4946.76 -0.217443 4.17034 0
M  V30 52632 N 4947.2 -1.32174 0.858357 0
M  V30 52633 C 4948.43 -2.01311 0.477652 0
M  V30 52634 C 4948.84 -1.64493 -0.926679 0
M  V30 52635 O 4948.2 -0.868152 -1.60528 0
M  V30 52636 C 4948.25 -3.56291 0.611462 0
M  V30 52637 O 4947.97 -3.91787 1.96048 0
M  V30 52638 C 4949.47 -4.42702 0.230248 0
M  V30 52639 H 4946.69 -0.644316 0.187345 0
M  V30 52640 H 4949.24 -1.6867 1.15632 0
M  V30 52641 H 4947.39 -3.87395 -0.0195132 0
M  V30 52642 H 4947.81 -4.86506 1.9599 0
M  V30 52643 H 4949.28 -5.50726 0.374867 0
M  V30 52644 H 4949.76 -4.31293 -0.829628 0
M  V30 52645 H 4950.36 -4.16994 0.836448 0
M  V30 52646 N 4948.68 -0.616653 -1.45035 0
M  V30 52647 C 4949.92 -0.124036 -2.03021 0
M  V30 52648 C 4950.28 1.23503 -1.47529 0
M  V30 52649 O 4949.57 1.80451 -0.644045 0
M  V30 52650 C 4949.77 -0.0358086 -3.57382 0
M  V30 52651 C 4949.6 -1.38477 -4.27848 0
M  V30 52652 C 4948.37 -1.96782 -4.65408 0
M  V30 52653 C 4950.56 -2.31552 -4.59226 0
M  V30 52654 N 4948.55 -3.25064 -5.20775 0
M  V30 52655 C 4949.92 -3.44438 -5.15521 0
M  V30 52656 C 4951.97 -2.30811 -4.4117 0
M  V30 52657 C 4950.67 -4.56762 -5.55663 0
M  V30 52658 C 4952.7 -3.42188 -4.8235 0
M  V30 52659 C 4952.06 -4.53797 -5.38746 0
M  V30 52660 H 4948.16 -0.0889701 -0.776922 0
M  V30 52661 H 4950.75 -0.816987 -1.7673 0
M  V30 52662 H 4948.92 0.626385 -3.83316 0
M  V30 52663 H 4950.65 0.464302 -4.02028 0
M  V30 52664 H 4947.4 -1.49886 -4.49256 0
M  V30 52665 H 4947.83 -3.90612 -5.52948 0
M  V30 52666 H 4952.47 -1.45779 -3.96873 0
M  V30 52667 H 4950.19 -5.42512 -5.98921 0
M  V30 52668 H 4953.77 -3.42774 -4.70104 0
M  V30 52669 H 4952.65 -5.38556 -5.70024 0
M  V30 52670 N 4950.16 1.53519 -0.356339 0
M  V30 52671 C 4951.12 2.24072 0.482103 0
M  V30 52672 C 4952.12 1.24534 1.01724 0
M  V30 52673 O 4953.31 1.4888 0.904461 0
M  V30 52674 C 4950.44 2.97031 1.67289 0
M  V30 52675 H 4951.63 2.99595 -0.135136 0
M  V30 52676 H 4949.19 1.55927 -0.107879 0
M  V30 52677 H 4949.92 2.25727 2.32847 0
M  V30 52678 H 4949.71 3.70055 1.29623 0
M  V30 52679 H 4951.2 3.50691 2.26728 0
M  V30 52680 N 4951.63 0.0852704 1.57369 0
M  V30 52681 C 4952.57 -0.907025 2.10489 0
M  V30 52682 C 4953.58 -1.25255 1.03995 0
M  V30 52683 O 4954.77 -1.20738 1.31471 0
M  V30 52684 C 4951.87 -2.21899 2.56152 0
M  V30 52685 C 4951.04 -2.05028 3.8637 0
M  V30 52686 C 4950.1 -3.19649 4.17984 0
M  V30 52687 O 4949.13 -2.94045 4.87366 0
M  V30 52688 N 4950.33 -4.45138 3.72603 0
M  V30 52689 H 4953.09 -0.453401 2.96251 0
M  V30 52690 H 4950.65 -0.1001 1.6159 0
M  V30 52691 H 4952.65 -2.9751 2.74354 0
M  V30 52692 H 4951.22 -2.58716 1.75455 0
M  V30 52693 H 4950.44 -1.13805 3.77415 0
M  V30 52694 H 4951.72 -1.91022 4.7158 0
M  V30 52695 H 4951.12 -4.68823 3.16578 0
M  V30 52696 H 4949.68 -5.1773 3.95978 0
M  V30 52697 N 4953.11 -1.5647 -0.188372 0
M  V30 52698 C 4954.06 -1.95975 -1.25286 0
M  V30 52699 C 4955.06 -0.846099 -1.46757 0
M  V30 52700 O 4956.26 -1.03114 -1.47538 0
M  V30 52701 H 4952.64 -0.623268 -0.420762 0
M  V30 52702 H 4954.61 -2.84734 -0.892692 0
M  V30 52703 C 4953.36 -2.32126 -2.58869 0
M  V30 52704 H 4952.68 -3.1735 -2.43165 0
M  V30 52705 H 4954.12 -2.63625 -3.32081 0
M  V30 52706 C 4952.58 -1.15834 -3.16361 0
M  V30 52707 O 4953.11 -0.436925 -3.99317 0
M  V30 52708 N 4951.31 -0.933375 -2.75203 0
M  V30 52709 H 4950.86 -1.52176 -2.07846 0
M  V30 52710 H 4950.82 -0.157086 -3.14007 0
M  V30 52711 N 4954.59 0.456329 -1.50849 0
M  V30 52712 C 4955.84 1.20415 -1.61812 0
M  V30 52713 C 4956.15 1.92779 -0.331 0
M  V30 52714 O 4957.36 2.69611 -0.319738 0
M  V30 52715 C 4955.82 2.18881 -2.85691 0
M  V30 52716 C 4955.42 1.52252 -4.21335 0
M  V30 52717 C 4957.17 2.94213 -3.06005 0
M  V30 52718 C 4955.07 2.49091 -5.36384 0
M  V30 52719 H 4954 0.453156 -0.602632 0
M  V30 52720 H 4956.66 0.473082 -1.77297 0
M  V30 52721 H 4955.04 2.95342 -2.63797 0
M  V30 52722 H 4956.21 0.81479 -4.53539 0
M  V30 52723 H 4954.53 0.891451 -4.06746 0
M  V30 52724 H 4957.12 3.66718 -3.8913 0
M  V30 52725 H 4957.47 3.54461 -2.18319 0
M  V30 52726 H 4958 2.24863 -3.28149 0
M  V30 52727 H 4954.74 1.9356 -6.2627 0
M  V30 52728 H 4954.26 3.17973 -5.0858 0
M  V30 52729 H 4955.94 3.10617 -5.67561 0
M  V30 52730 N 4956.07 1.40675 0.710514 0
M  V30 52731 C 4957 1.44101 1.83731 0
M  V30 52732 C 4957.98 0.301345 1.67409 0
M  V30 52733 O 4959.17 0.510684 1.87365 0
M  V30 52734 C 4956.3 1.30785 3.21734 0
M  V30 52735 C 4955.25 2.42407 3.52736 0
M  V30 52736 C 4954.58 2.14164 4.89936 0
M  V30 52737 C 4955.88 3.8475 3.5322 0
M  V30 52738 H 4957.57 2.38402 1.81121 0
M  V30 52739 H 4955.12 1.14749 0.869976 0
M  V30 52740 H 4957.07 1.31797 4.00259 0
M  V30 52741 H 4955.79 0.329622 3.24932 0
M  V30 52742 H 4954.45 2.40653 2.76553 0
M  V30 52743 H 4954.1 1.1472 4.89743 0
M  V30 52744 H 4953.8 2.88952 5.11645 0
M  V30 52745 H 4955.32 2.16868 5.7079 0
M  V30 52746 H 4956.74 3.88301 4.21777 0
M  V30 52747 H 4955.13 4.59098 3.86457 0
M  V30 52748 H 4956.2 4.13971 2.52499 0
M  V30 52749 N 4957.55 -0.943255 1.26256 0
M  V30 52750 C 4958.78 -1.72363 1.14449 0
M  V30 52751 C 4959.19 -1.86393 -0.300506 0
M  V30 52752 O 4958.55 -1.36982 -1.20591 0
M  V30 52753 C 4958.6 -3.13149 1.80611 0
M  V30 52754 O 4958.32 -2.99792 3.19463 0
M  V30 52755 C 4959.82 -4.07411 1.74731 0
M  V30 52756 H 4957.04 -0.539744 0.398645 0
M  V30 52757 H 4959.58 -1.18262 1.66836 0
M  V30 52758 H 4957.74 -3.64158 1.32166 0
M  V30 52759 H 4958.15 -3.88684 3.52172 0
M  V30 52760 H 4959.63 -5.03765 2.25665 0
M  V30 52761 H 4960.1 -4.33367 0.713396 0
M  V30 52762 H 4960.71 -3.62322 2.22717 0
M  V30 52763 N 4959.03 -1.08026 -1.14753 0
M  V30 52764 C 4959.99 -0.710557 -2.17908 0
M  V30 52765 C 4960.99 0.252675 -1.58802 0
M  V30 52766 O 4962.18 0.0327303 -1.74169 0
M  V30 52767 C 4959.31 -0.0484401 -3.40866 0
M  V30 52768 H 4960.5 -1.62393 -2.52128 0
M  V30 52769 H 4958.06 -0.877641 -1.29334 0
M  V30 52770 H 4958.79 0.87685 -3.12221 0
M  V30 52771 H 4958.58 -0.741324 -3.85028 0
M  V30 52772 H 4960.07 0.195324 -4.17143 0
M  V30 52773 N 4960.5 1.31717 -0.865354 0
M  V30 52774 C 4961.75 1.96144 -0.470167 0
M  V30 52775 C 4962.07 1.69185 0.981614 0
M  V30 52776 O 4963.27 2.27436 1.48273 0
M  V30 52777 C 4961.73 3.51126 -0.789855 0
M  V30 52778 C 4961.34 3.8693 -2.25808 0
M  V30 52779 C 4963.08 4.21968 -0.462913 0
M  V30 52780 C 4960.99 5.35003 -2.52043 0
M  V30 52781 H 4959.92 0.734099 -0.172091 0
M  V30 52782 H 4962.57 1.49956 -1.05762 0
M  V30 52783 H 4960.95 3.95781 -0.13171 0
M  V30 52784 H 4962.12 3.53249 -2.95891 0
M  V30 52785 H 4960.44 3.2914 -2.5506 0
M  V30 52786 H 4963.04 5.30902 -0.636206 0
M  V30 52787 H 4963.38 4.12007 0.596305 0
M  V30 52788 H 4963.91 3.82932 -1.0774 0
M  V30 52789 H 4960.65 5.49996 -3.5663 0
M  V30 52790 H 4960.17 5.70052 -1.8655 0
M  V30 52791 H 4961.85 6.02212 -2.36537 0
M  V30 52792 N 4961.98 0.624336 1.44706 0
M  V30 52793 C 4962.91 -0.122969 2.2887 0
M  V30 52794 C 4963.93 -0.81552 1.40901 0
M  V30 52795 O 4965.12 -0.678104 1.65118 0
M  V30 52796 C 4962.22 -1.19601 3.17094 0
M  V30 52797 C 4961.39 -0.5873 4.33439 0
M  V30 52798 C 4960.45 -1.55341 5.02748 0
M  V30 52799 O 4959.47 -1.07318 5.58991 0
M  V30 52800 N 4960.68 -2.8878 5.03574 0
M  V30 52801 H 4963.44 0.599296 2.93647 0
M  V30 52802 H 4961 0.465008 1.55078 0
M  V30 52803 H 4962.99 -1.84248 3.60326 0
M  V30 52804 H 4961.56 -1.82058 2.54113 0
M  V30 52805 H 4960.78 0.237648 3.93483 0
M  V30 52806 H 4962.07 -0.161148 5.08545 0
M  V30 52807 H 4961.47 -3.30382 4.59199 0
M  V30 52808 H 4960.03 -3.48806 5.50615 0
M  V30 52809 N 4963.46 -1.53328 0.364476 0
M  V30 52810 C 4964.39 -2.23288 -0.517214 0
M  V30 52811 C 4965.4 -1.24661 -1.04707 0
M  V30 52812 O 4966.59 -1.50891 -0.953637 0
M  V30 52813 C 4963.69 -2.9161 -1.72675 0
M  V30 52814 C 4962.87 -4.16734 -1.32858 0
M  V30 52815 C 4961.93 -4.68277 -2.40006 0
M  V30 52816 O 4960.95 -5.31983 -2.02442 0
M  V30 52817 N 4962.15 -4.45996 -3.71575 0
M  V30 52818 H 4964.92 -2.99588 0.0820444 0
M  V30 52819 H 4962.48 -1.60786 0.1896 0
M  V30 52820 H 4964.47 -3.23001 -2.43829 0
M  V30 52821 H 4963.04 -2.1877 -2.2329 0
M  V30 52822 H 4962.26 -3.91658 -0.446931 0
M  V30 52823 H 4963.55 -4.98082 -1.03884 0
M  V30 52824 H 4962.95 -3.95091 -4.0487 0
M  V30 52825 H 4961.5 -4.81939 -4.38837 0
M  V30 52826 N 4964.94 -0.0936148 -1.57322 0
M  V30 52827 C 4966.18 0.571286 -1.94587 0
M  V30 52828 C 4966.52 1.67926 -0.975425 0
M  V30 52829 O 4965.79 1.94498 -0.00823043 0
M  V30 52830 C 4966.07 1.12785 -3.41982 0
M  V30 52831 C 4965.93 0.02503 -4.49793 0
M  V30 52832 C 4967.25 2.02669 -3.90658 0
M  V30 52833 H 4964.37 0.206198 -0.707567 0
M  V30 52834 H 4967.01 -0.164023 -1.89291 0
M  V30 52835 H 4965.16 1.75449 -3.46626 0
M  V30 52836 H 4966.83 -0.60914 -4.57261 0
M  V30 52837 H 4965.07 -0.64155 -4.2903 0
M  V30 52838 H 4965.74 0.45524 -5.5012 0
M  V30 52839 H 4968.22 1.49911 -3.88157 0
M  V30 52840 H 4967.1 2.38537 -4.94359 0
M  V30 52841 H 4967.36 2.9435 -3.29864 0
M  V30 52842 N 4966.42 1.56568 0.180071 0
M  V30 52843 C 4967.83 1.5049 0.531506 0
M  V30 52844 C 4968.03 0.796332 1.85097 0
M  V30 52845 O 4967.09 0.353066 2.50019 0
M  V30 52846 C 4968.4 2.95203 0.572352 0
M  V30 52847 C 4969.95 3.05959 0.660156 0
M  V30 52848 C 4970.42 4.52113 0.731976 0
M  V30 52849 N 4971.91 4.56325 0.795102 0
M  V30 52850 C 4972.65 5.66745 0.871097 0
M  V30 52851 N 4972.15 6.86818 0.908466 0
M  V30 52852 N 4973.94 5.54694 0.909444 0
M  V30 52853 H 4966.09 2.01043 -0.685236 0
M  V30 52854 H 4968.35 0.915528 -0.245994 0
M  V30 52855 H 4968.06 3.50164 -0.328331 0
M  V30 52856 H 4967.93 3.49374 1.42188 0
M  V30 52857 H 4970.32 2.51037 1.55127 0
M  V30 52858 H 4970.4 2.54887 -0.215872 0
M  V30 52859 H 4970.04 5.07664 -0.154843 0
M  V30 52860 H 4969.97 5.00932 1.62402 0
M  V30 52861 H 4972.47 3.69871 0.77486 0
M  V30 52862 H 4972.78 7.66721 0.967384 0
M  V30 52863 H 4971.12 6.89446 0.87689 0
M  V30 52864 H 4974.31 4.59808 0.877191 0
M  V30 52865 H 4974.49 6.40771 0.965209 0
M  V30 52866 N 4967.89 -0.448323 1.51089 0
M  V30 52867 C 4969.12 -1.22599 1.67285 0
M  V30 52868 C 4969.54 -1.84523 0.36511 0
M  V30 52869 O 4968.9 -1.68323 -0.673583 0
M  V30 52870 C 4968.95 -2.29383 2.78237 0
M  V30 52871 O 4968.05 -3.34599 2.41075 0
M  V30 52872 H 4967.4 -0.359685 0.558142 0
M  V30 52873 H 4969.93 -0.530834 1.97594 0
M  V30 52874 H 4969.94 -2.74341 3.01995 0
M  V30 52875 H 4968.61 -1.83688 3.73137 0
M  V30 52876 H 4967.19 -2.95194 2.27848 0
M  V30 52877 N 4969.37 -1.4105 -0.703043 0
M  V30 52878 C 4970.3 -1.45074 -1.82964 0
M  V30 52879 C 4971.28 -0.310218 -1.67247 0
M  V30 52880 O 4972.47 -0.520613 -1.87092 0
M  V30 52881 C 4969.6 -1.32489 -3.21036 0
M  V30 52882 C 4968.55 -2.44275 -3.51446 0
M  V30 52883 C 4967.88 -2.1676 -4.88794 0
M  V30 52884 C 4969.18 -3.86618 -3.51175 0
M  V30 52885 H 4970.87 -2.39359 -1.79854 0
M  V30 52886 H 4968.42 -1.15209 -0.863879 0
M  V30 52887 H 4970.37 -1.33918 -3.99555 0
M  V30 52888 H 4969.1 -0.346849 -3.24753 0
M  V30 52889 H 4967.75 -2.42116 -2.75273 0
M  V30 52890 H 4967.4 -1.17316 -4.89128 0
M  V30 52891 H 4967.1 -2.91661 -5.10105 0
M  V30 52892 H 4968.63 -2.19892 -5.69632 0
M  V30 52893 H 4970.04 -3.90532 -4.19711 0
M  V30 52894 H 4968.44 -4.61141 -3.84017 0
M  V30 52895 H 4969.51 -4.15304 -2.503 0
M  V30 52896 N 4970.85 0.936546 -1.26754 0
M  V30 52897 C 4972.1 1.67774 -1.11959 0
M  V30 52898 C 4972.41 1.92696 0.335822 0
M  V30 52899 O 4973.62 2.64684 0.604524 0
M  V30 52900 C 4972.07 3.02132 -1.95562 0
M  V30 52901 C 4971.68 2.8494 -3.45707 0
M  V30 52902 C 4973.43 3.7991 -1.8939 0
M  V30 52903 C 4971.33 4.14799 -4.21539 0
M  V30 52904 H 4970.26 0.629261 -0.415388 0
M  V30 52905 H 4972.91 1.04117 -1.51102 0
M  V30 52906 H 4971.3 3.66795 -1.49256 0
M  V30 52907 H 4972.47 2.29098 -3.99813 0
M  V30 52908 H 4970.79 2.206 -3.53164 0
M  V30 52909 H 4973.38 4.76125 -2.43329 0
M  V30 52910 H 4973.73 4.07201 -0.865607 0
M  V30 52911 H 4974.26 3.22028 -2.33544 0
M  V30 52912 H 4971 3.92691 -5.24857 0
M  V30 52913 H 4970.52 4.70338 -3.72212 0
M  V30 52914 H 4972.2 4.83224 -4.30237 0
M  V30 52915 N 4972.33 1.08633 1.14178 0
M  V30 52916 C 4973.58 0.815796 1.84903 0
M  V30 52917 C 4973.9 -0.660377 1.83478 0
M  V30 52918 O 4973.17 -1.47883 1.28481 0
M  V30 52919 H 4971.75 0.298798 0.684638 0
M  V30 52920 H 4974.41 1.37279 1.38349 0
M  V30 52921 H 4973.51 1.16203 2.89661 0
M  V30 52922 N 4973.81 -1.31256 0.872327 0
M  V30 52923 C 4974.75 -2.30402 0.318978 0
M  V30 52924 C 4975.75 -1.59622 -0.567211 0
M  V30 52925 O 4976.95 -1.74205 -0.45305 0
M  V30 52926 H 4973.33 -0.74724 0.0844736 0
M  V30 52927 H 4975.3 -2.74545 1.16908 0
M  V30 52928 C 4974.05 -3.44609 -0.462562 0
M  V30 52929 H 4973.37 -3.99248 0.210076 0
M  V30 52930 H 4974.81 -4.16093 -0.81504 0
M  V30 52931 C 4973.27 -2.93462 -1.65475 0
M  V30 52932 O 4973.8 -2.92428 -2.75406 0
M  V30 52933 N 4972.01 -2.49633 -1.48767 0
M  V30 52934 H 4971.55 -2.50673 -0.593364 0
M  V30 52935 H 4971.51 -2.15767 -2.28674 0
M  V30 52936 N 4975.28 -0.632002 -1.44373 0
M  V30 52937 C 4976.19 0.0735916 -2.34485 0
M  V30 52938 C 4977.21 0.834772 -1.52668 0
M  V30 52939 O 4978.39 0.786837 -1.85394 0
M  V30 52940 C 4975.45 1.04235 -3.3066 0
M  V30 52941 C 4974.51 0.280451 -4.28383 0
M  V30 52942 C 4973.75 1.20307 -5.19963 0
M  V30 52943 O 4973.97 2.4418 -5.15492 0
M  V30 52944 O 4972.9 0.686918 -5.97967 0
M  V30 52945 H 4976.73 -0.667581 -2.96272 0
M  V30 52946 H 4974.31 -0.392195 -1.4416 0
M  V30 52947 H 4976.2 1.59967 -3.89857 0
M  V30 52948 H 4974.87 1.76412 -2.71404 0
M  V30 52949 H 4973.78 -0.319935 -3.72729 0
M  V30 52950 H 4975.11 -0.401317 -4.90561 0
M  V30 52951 N 4976.76 1.53132 -0.372602 0
M  V30 52952 C 4977.67 2.29673 0.478298 0
M  V30 52953 C 4978.69 1.35917 1.08639 0
M  V30 52954 O 4979.86 1.68979 1.09582 0
M  V30 52955 C 4976.93 3.0763 1.59889 0
M  V30 52956 C 4975.99 4.17065 1.01761 0
M  V30 52957 C 4975.22 4.91296 2.0848 0
M  V30 52958 O 4975.45 4.65453 3.29711 0
M  V30 52959 O 4974.38 5.77056 1.71144 0
M  V30 52960 H 4978.21 3.03355 -0.144756 0
M  V30 52961 H 4975.79 1.48773 -0.136781 0
M  V30 52962 H 4977.67 3.56289 2.25025 0
M  V30 52963 H 4976.35 2.36778 2.20722 0
M  V30 52964 H 4975.26 3.72642 0.329967 0
M  V30 52965 H 4976.59 4.90104 0.453743 0
M  V30 52966 N 4978.24 0.101957 1.5727 0
M  V30 52967 C 4979.49 -0.560129 1.94599 0
M  V30 52968 C 4979.82 -1.67763 0.98416 0
M  V30 52969 O 4979.07 -1.95699 0.00496073 0
M  V30 52970 C 4979.37 -1.14887 3.38431 0
M  V30 52971 C 4979.04 -0.154455 4.50635 0
M  V30 52972 C 4977.7 0.11903 4.81053 0
M  V30 52973 C 4980.05 0.524162 5.18558 0
M  V30 52974 C 4977.38 1.07771 5.76717 0
M  V30 52975 C 4979.73 1.47136 6.15251 0
M  V30 52976 C 4978.39 1.753 6.4407 0
M  V30 52977 H 4977.66 -0.204966 0.712089 0
M  V30 52978 H 4980.31 0.179247 1.90659 0
M  V30 52979 H 4978.62 -1.96464 3.38983 0
M  V30 52980 H 4980.31 -1.66896 3.64619 0
M  V30 52981 H 4976.9 -0.377798 4.26932 0
M  V30 52982 H 4981.09 0.326025 4.95228 0
M  V30 52983 H 4976.34 1.30284 5.97357 0
M  V30 52984 H 4980.52 2.00297 6.66974 0
M  V30 52985 H 4978.14 2.49743 7.18006 0
M  V30 52986 N 4979.72 -1.56661 -0.171765 0
M  V30 52987 C 4980.65 -1.99405 -1.21491 0
M  V30 52988 C 4981.63 -0.869567 -1.46194 0
M  V30 52989 O 4982.81 -1.13561 -1.57535 0
M  V30 52990 C 4979.94 -2.35355 -2.55392 0
M  V30 52991 C 4978.9 -3.50759 -2.45259 0
M  V30 52992 C 4978.22 -3.7245 -3.83647 0
M  V30 52993 C 4979.52 -4.84223 -1.9577 0
M  V30 52994 H 4981.22 -2.86795 -0.859598 0
M  V30 52995 H 4978.76 -1.37979 -0.412054 0
M  V30 52996 H 4980.72 -2.63855 -3.2857 0
M  V30 52997 H 4979.44 -1.44874 -2.9271 0
M  V30 52998 H 4978.1 -3.22386 -1.74535 0
M  V30 52999 H 4977.75 -2.7926 -4.18357 0
M  V30 53000 H 4977.45 -4.501 -3.77735 0
M  V30 53001 H 4978.97 -4.0335 -4.58411 0
M  V30 53002 H 4980.39 -5.11601 -2.58722 0
M  V30 53003 H 4978.78 -5.65505 -2.00807 0
M  V30 53004 H 4979.85 -4.76246 -0.911992 0
M  V30 53005 N 4981.2 0.440304 -1.51324 0
M  V30 53006 C 4982.47 1.20103 -1.54385 0
M  V30 53007 C 4982.85 2.08865 -0.306376 0
M  V30 53008 O 4982.2 2.17232 0.708696 0
M  V30 53009 C 4982.41 2.00545 -2.85627 0
M  V30 53010 C 4983.76 2.57688 -3.37464 0
M  V30 53011 O 4984.78 2.10759 -2.87157 0
M  V30 53012 O 4983.64 3.43274 -4.25236 0
M  V30 53013 H 4980.74 0.546646 -0.62057 0
M  V30 53014 H 4983.28 0.449615 -1.63635 0
M  V30 53015 H 4982.05 1.35333 -3.67152 0
M  V30 53016 H 4981.68 2.82758 -2.79524 0
M  V30 53017 N 4982.68 1.41421 0.695553 0
M  V30 53018 C 4983.91 1.43926 1.48219 0
M  V30 53019 C 4984.31 0.042952 1.89151 0
M  V30 53020 O 4983.66 -0.948083 1.57344 0
M  V30 53021 C 4983.72 2.28476 2.77559 0
M  V30 53022 C 4983.38 3.76638 2.5883 0
M  V30 53023 C 4984.38 4.68798 2.24776 0
M  V30 53024 C 4982.06 4.2068 2.7447 0
M  V30 53025 C 4984.06 6.02988 2.06601 0
M  V30 53026 C 4981.75 5.54935 2.55911 0
M  V30 53027 C 4982.74 6.45905 2.22027 0
M  V30 53028 O 4982.43 7.77683 2.0363 0
M  V30 53029 H 4982.16 0.492269 0.463301 0
M  V30 53030 H 4984.72 1.8635 0.863886 0
M  V30 53031 H 4982.95 1.80865 3.41796 0
M  V30 53032 H 4984.64 2.22682 3.39364 0
M  V30 53033 H 4985.4 4.36062 2.12308 0
M  V30 53034 H 4981.28 3.50177 2.99828 0
M  V30 53035 H 4984.83 6.73957 1.80076 0
M  V30 53036 H 4980.72 5.8725 2.6797 0
M  V30 53037 H 4981.49 7.88826 2.18393 0
M  V30 53038 N 4984.15 -0.929811 1.27249 0
M  V30 53039 C 4985.09 -2.03066 1.04113 0
M  V30 53040 C 4986.06 -1.62556 -0.0377846 0
M  V30 53041 O 4987.25 -1.88196 0.106935 0
M  V30 53042 C 4984.38 -3.33716 0.578895 0
M  V30 53043 C 4983.42 -3.93204 1.65207 0
M  V30 53044 S 4984.25 -4.26056 3.24401 0
M  V30 53045 C 4985.41 -5.5979 2.79974 0
M  V30 53046 H 4985.64 -2.22379 1.97319 0
M  V30 53047 H 4983.18 -1.07265 1.11056 0
M  V30 53048 H 4985.13 -4.0926 0.318884 0
M  V30 53049 H 4983.8 -3.12329 -0.333072 0
M  V30 53050 H 4982.99 -4.87478 1.2799 0
M  V30 53051 H 4982.59 -3.24237 1.86404 0
M  V30 53052 H 4984.88 -6.38996 2.25145 0
M  V30 53053 H 4985.83 -6.01904 3.72984 0
M  V30 53054 H 4986.23 -5.20211 2.19182 0
M  V30 53055 N 4985.63 -1.09237 -1.13601 0
M  V30 53056 C 4987.04 -0.846898 -1.66387 0
M  V30 53057 C 4987.39 0.624966 -1.8598 0
M  V30 53058 O 4986.52 1.48168 -1.57719 0
M  V30 53059 C 4987.11 -1.5308 -3.02245 0
M  V30 53060 C 4985.67 -1.33236 -3.5203 0
M  V30 53061 C 4984.82 -1.58814 -2.27318 0
M  V30 53062 H 4987.77 -1.25179 -0.975497 0
M  V30 53063 H 4987.79 -0.9628 -3.68117 0
M  V30 53064 H 4987.3 -2.60202 -2.87952 0
M  V30 53065 H 4985.4 -0.282222 -3.7153 0
M  V30 53066 H 4985.52 -2.06585 -4.32272 0
M  V30 53067 H 4983.88 -1.01016 -2.33812 0
M  V30 53068 H 4984.66 -2.67161 -2.15592 0
M  V30 53069 N 4987.11 1.30792 -0.879276 0
M  V30 53070 C 4988.33 2.01061 -0.50884 0
M  V30 53071 C 4988.76 1.65511 0.893745 0
M  V30 53072 O 4988.12 0.868672 1.59134 0
M  V30 53073 C 4988.17 3.54051 -0.684116 0
M  V30 53074 O 4987.27 4.11499 0.27251 0
M  V30 53075 H 4986.61 0.632779 -0.201213 0
M  V30 53076 H 4989.14 1.66772 -1.18525 0
M  V30 53077 H 4989.15 4.03843 -0.58094 0
M  V30 53078 H 4987.83 3.79265 -1.70678 0
M  V30 53079 H 4986.4 3.72695 0.123509 0
M  V30 53080 N 4988.59 0.639649 1.44036 0
M  V30 53081 C 4989.52 -0.109655 2.27936 0
M  V30 53082 C 4990.5 -0.843046 1.39038 0
M  V30 53083 O 4991.68 -0.845396 1.68479 0
M  V30 53084 C 4988.81 -1.16162 3.18157 0
M  V30 53085 C 4987.86 -0.527806 4.23222 0
M  V30 53086 S 4988.69 0.688504 5.31055 0
M  V30 53087 C 4989.84 -0.363261 6.24845 0
M  V30 53088 H 4990.08 0.602088 2.91139 0
M  V30 53089 H 4987.61 0.428072 1.48347 0
M  V30 53090 H 4989.57 -1.76359 3.70686 0
M  V30 53091 H 4988.23 -1.8456 2.54158 0
M  V30 53092 H 4987.42 -1.32037 4.86397 0
M  V30 53093 H 4987.02 -0.000264965 3.74 0
M  V30 53094 H 4989.32 -1.23339 6.66178 0
M  V30 53095 H 4990.26 0.233129 7.07716 0
M  V30 53096 H 4990.67 -0.692982 5.6023 0
M  V30 53097 N 4990.07 -1.52932 0.380717 0
M  V30 53098 C 4991.01 -2.26199 -0.458562 0
M  V30 53099 C 4991.98 -1.27466 -1.06497 0
M  V30 53100 O 4993.17 -1.56278 -1.09462 0
M  V30 53101 C 4990.31 -3.06576 -1.58445 0
M  V30 53102 C 4989.42 -4.20225 -1.00174 0
M  V30 53103 C 4988.56 -4.88015 -2.09798 0
M  V30 53104 C 4987.59 -5.9367 -1.49071 0
M  V30 53105 N 4986.73 -6.5509 -2.5259 0
M  V30 53106 H 4991.57 -2.97499 0.1727 0
M  V30 53107 H 4989.11 -1.4678 0.0969942 0
M  V30 53108 H 4991.07 -3.51463 -2.24788 0
M  V30 53109 H 4989.7 -2.37502 -2.18615 0
M  V30 53110 H 4988.75 -3.79715 -0.228158 0
M  V30 53111 H 4990.06 -4.96104 -0.517889 0
M  V30 53112 H 4989.21 -5.36161 -2.83929 0
M  V30 53113 H 4987.95 -4.11641 -2.6154 0
M  V30 53114 H 4986.96 -5.4487 -0.734608 0
M  V30 53115 H 4988.18 -6.71972 -0.981346 0
M  V30 53116 H 4986.13 -5.81561 -3.03517 0
M  V30 53117 H 4986.05 -7.26555 -2.08935 0
M  V30 53118 H 4987.31 -7.07883 -3.26377 0
M  V30 53119 N 4991.54 -0.110296 -1.57214 0
M  V30 53120 C 4992.96 0.246325 -1.57688 0
M  V30 53121 C 4993.16 1.67341 -1.12247 0
M  V30 53122 O 4992.22 2.39295 -0.805867 0
M  V30 53123 C 4993.53 0.0209231 -3.00693 0
M  V30 53124 C 4995.08 0.0874977 -3.12878 0
M  V30 53125 C 4995.55 -0.110101 -4.57868 0
M  V30 53126 N 4997.04 -0.0557763 -4.63166 0
M  V30 53127 C 4997.78 -0.183696 -5.73106 0
M  V30 53128 N 4997.27 -0.367301 -6.91826 0
M  V30 53129 N 4999.07 -0.123887 -5.61963 0
M  V30 53130 H 4991.22 -1.04252 -1.85055 0
M  V30 53131 H 4993.48 -0.40982 -0.85484 0
M  V30 53132 H 4993.19 -0.965322 -3.38193 0
M  V30 53133 H 4993.06 0.756618 -3.69534 0
M  V30 53134 H 4995.45 1.06426 -2.75241 0
M  V30 53135 H 4995.53 -0.679936 -2.46598 0
M  V30 53136 H 4995.17 -1.0838 -4.96202 0
M  V30 53137 H 4995.1 0.677213 -5.22227 0
M  V30 53138 H 4997.59 0.0829733 -3.77809 0
M  V30 53139 H 4997.91 -0.45601 -7.71453 0
M  V30 53140 H 4996.25 -0.403164 -6.9383 0
M  V30 53141 H 4999.44 0.0185283 -4.68096 0
M  V30 53142 H 4999.62 -0.227024 -6.47602 0
M  V30 53143 N 4993.02 1.5675 0.163455 0
M  V30 53144 C 4994.27 1.82437 0.878802 0
M  V30 53145 C 4994.6 0.688621 1.81902 0
M  V30 53146 O 4993.85 -0.323576 1.93006 0
M  V30 53147 C 4994.15 3.14348 1.7006 0
M  V30 53148 C 4993.82 4.4165 0.90862 0
M  V30 53149 C 4992.48 4.76226 0.690068 0
M  V30 53150 C 4994.83 5.19999 0.353633 0
M  V30 53151 C 4992.16 5.86624 -0.0944437 0
M  V30 53152 C 4994.51 6.31219 -0.417832 0
M  V30 53153 C 4993.17 6.64356 -0.647112 0
M  V30 53154 H 4992.44 0.667585 0.321577 0
M  V30 53155 H 4995.09 1.90963 0.143303 0
M  V30 53156 H 4993.4 3.01199 2.50572 0
M  V30 53157 H 4995.09 3.31434 2.25727 0
M  V30 53158 H 4991.68 4.14534 1.08901 0
M  V30 53159 H 4995.87 4.93675 0.509801 0
M  V30 53160 H 4991.12 6.1075 -0.281744 0
M  V30 53161 H 4995.3 6.9113 -0.855092 0
M  V30 53162 H 4992.92 7.49738 -1.25688 0
M  V30 53163 N 4994.5 -0.432272 1.51556 0
M  V30 53164 C 4995.92 -0.769146 1.39844 0
M  V30 53165 C 4996.12 -1.95582 0.484744 0
M  V30 53166 O 4995.17 -2.52433 -0.0581941 0
M  V30 53167 C 4996.48 -1.04477 2.81966 0
M  V30 53168 C 4998.03 -1.1489 2.91152 0
M  V30 53169 C 4998.51 -1.45742 4.34193 0
M  V30 53170 N 5000 -1.52656 4.37322 0
M  V30 53171 C 5000.73 -1.7811 5.45036 0
M  V30 53172 N 5000.23 -2.01322 6.62904 0
M  V30 53173 N 5002.02 -1.79934 5.32523 0
M  V30 53174 H 4994.17 0.349196 2.0951 0
M  V30 53175 H 4996.44 0.0938445 0.943344 0
M  V30 53176 H 4996.14 -0.245447 3.50842 0
M  V30 53177 H 4996.02 -1.97108 3.21603 0
M  V30 53178 H 4998.4 -1.93884 2.22471 0
M  V30 53179 H 4998.48 -0.201478 2.55005 0
M  V30 53180 H 4998.13 -0.67274 5.03425 0
M  V30 53181 H 4998.06 -2.41698 4.67856 0
M  V30 53182 H 5000.55 -1.366 3.52348 0
M  V30 53183 H 5000.86 -2.20129 7.40785 0
M  V30 53184 H 4999.21 -1.98634 6.6601 0
M  V30 53185 H 5002.4 -1.61322 4.39423 0
M  V30 53186 H 5002.57 -1.99433 6.16547 0
M  V30 53187 N 4995.98 -1.41788 -0.688044 0
M  V30 53188 C 4996.92 -1.44228 -1.80186 0
M  V30 53189 C 4997.89 -0.295745 -1.63446 0
M  V30 53190 O 4999.08 -0.497894 -1.84189 0
M  V30 53191 C 4996.22 -1.33755 -3.18125 0
M  V30 53192 C 4995.33 -2.58337 -3.46245 0
M  V30 53193 C 4994.47 -2.40103 -4.7384 0
M  V30 53194 C 4993.51 -3.60124 -4.94951 0
M  V30 53195 N 4992.64 -3.40914 -6.13777 0
M  V30 53196 H 4997.48 -2.39417 -1.77435 0
M  V30 53197 H 4995.02 -1.18879 -0.866381 0
M  V30 53198 H 4996.98 -1.25683 -3.97819 0
M  V30 53199 H 4995.61 -0.421682 -3.20034 0
M  V30 53200 H 4994.66 -2.76829 -2.60902 0
M  V30 53201 H 4995.97 -3.47593 -3.57744 0
M  V30 53202 H 4995.13 -2.29542 -5.61601 0
M  V30 53203 H 4993.87 -1.48316 -4.64601 0
M  V30 53204 H 4992.87 -3.71132 -4.05636 0
M  V30 53205 H 4994.1 -4.52875 -5.06045 0
M  V30 53206 H 4992.04 -2.51833 -6.05736 0
M  V30 53207 H 4991.96 -4.23749 -6.26077 0
M  V30 53208 H 4993.23 -3.34139 -7.04252 0
M  V30 53209 N 4997.46 0.92305 -1.2774 0
M  V30 53210 C 4998.37 2.05761 -1.12692 0
M  V30 53211 C 4999.38 1.73911 -0.0557808 0
M  V30 53212 O 5000.56 1.99673 -0.263207 0
M  V30 53213 C 4997.62 3.37801 -0.780482 0
M  V30 53214 C 4996.68 3.8332 -1.93299 0
M  V30 53215 C 4995.92 5.09058 -1.60299 0
M  V30 53216 O 4996.14 5.68088 -0.513028 0
M  V30 53217 O 4995.07 5.50062 -2.44366 0
M  V30 53218 H 4998.9 2.21371 -2.07915 0
M  V30 53219 H 4996.49 1.04295 -1.06971 0
M  V30 53220 H 4998.37 4.17095 -0.600815 0
M  V30 53221 H 4997.04 3.23388 0.142177 0
M  V30 53222 H 4995.95 3.04892 -2.16775 0
M  V30 53223 H 4997.28 4.02282 -2.83602 0
M  V30 53224 N 4998.93 1.09838 1.1302 0
M  V30 53225 C 4999.84 0.753809 2.2216 0
M  V30 53226 C 5000.86 -0.246044 1.72252 0
M  V30 53227 O 5002.04 -0.0863343 2.01215 0
M  V30 53228 C 4999.1 0.18408 3.46211 0
M  V30 53229 C 4998.16 1.24042 4.10989 0
M  V30 53230 C 4997.4 0.697783 5.29119 0
M  V30 53231 O 4997.62 -0.477892 5.68395 0
M  V30 53232 O 4996.55 1.45481 5.84054 0
M  V30 53233 H 5000.38 1.66465 2.54014 0
M  V30 53234 H 4997.96 0.873069 1.21235 0
M  V30 53235 H 4999.85 -0.130109 4.21199 0
M  V30 53236 H 4998.52 -0.699711 3.16047 0
M  V30 53237 H 4997.43 1.60737 3.37808 0
M  V30 53238 H 4998.76 2.09701 4.45294 0
M  V30 53239 N 5000.41 -1.30324 0.8862 0
M  V30 53240 C 5001.32 -2.31853 0.357948 0
M  V30 53241 C 5002.34 -1.65394 -0.540444 0
M  V30 53242 O 5003.51 -1.96684 -0.43327 0
M  V30 53243 C 5000.58 -3.44172 -0.417878 0
M  V30 53244 C 4999.64 -4.26255 0.510413 0
M  V30 53245 C 4998.87 -5.33211 -0.228481 0
M  V30 53246 O 4999.1 -5.51547 -1.45439 0
M  V30 53247 O 4998.03 -6.00419 0.422043 0
M  V30 53248 H 5001.86 -2.7899 1.19992 0
M  V30 53249 H 4999.44 -1.34515 0.650075 0
M  V30 53250 H 5001.32 -4.12591 -0.857105 0
M  V30 53251 H 5000 -2.99168 -1.23613 0
M  V30 53252 H 4998.91 -3.60529 0.998477 0
M  V30 53253 H 5000.24 -4.74867 1.2947 0
M  V30 53254 N 5001.89 -0.647279 -1.43694 0
M  V30 53255 C 5003.12 -0.164156 -2.06749 0
M  V30 53256 C 5003.54 1.15886 -1.48162 0
M  V30 53257 O 5002.9 1.71457 -0.589254 0
M  V30 53258 C 5002.95 -0.0801635 -3.60511 0
M  V30 53259 O 5002.05 0.959312 -4.01087 0
M  V30 53260 H 5001.39 -0.0921519 -0.657574 0
M  V30 53261 H 5003.92 -0.888525 -1.843 0
M  V30 53262 H 5003.93 0.10512 -4.07865 0
M  V30 53263 H 5002.61 -1.046 -4.02532 0
M  V30 53264 H 5001.18 0.747297 -3.65335 0
M  V30 53265 N 5003.37 1.52728 -0.388822 0
M  V30 53266 C 5004.28 2.30167 0.453912 0
M  V30 53267 C 5005.29 1.37062 1.07192 0
M  V30 53268 O 5006.47 1.70131 1.07784 0
M  V30 53269 C 5003.54 3.09309 1.56617 0
M  V30 53270 C 5002.6 4.18121 0.97332 0
M  V30 53271 C 5001.83 4.9348 2.03258 0
M  V30 53272 O 5002.05 4.68924 3.24755 0
M  V30 53273 O 5000.99 5.78838 1.65014 0
M  V30 53274 H 5004.81 3.03184 -0.176923 0
M  V30 53275 H 5002.4 1.48619 -0.152553 0
M  V30 53276 H 5004.28 3.58655 2.21234 0
M  V30 53277 H 5002.95 2.39105 2.18198 0
M  V30 53278 H 5001.86 3.72971 0.290425 0
M  V30 53279 H 5003.19 4.90558 0.401735 0
M  V30 53280 N 5004.85 0.118632 1.57153 0
M  V30 53281 C 5006.09 -0.538392 1.94797 0
M  V30 53282 C 5006.42 -1.67239 1.0028 0
M  V30 53283 O 5005.69 -1.95811 0.0590381 0
M  V30 53284 H 5004.27 -0.201878 0.719204 0
M  V30 53285 H 5006.93 0.187486 1.93996 0
M  V30 53286 H 5006.02 -0.93321 2.97821 0
M  V30 53287 N 5006.32 -1.56835 -0.15514 0
M  V30 53288 C 5007.29 -1.96752 -1.17564 0
M  V30 53289 C 5008.29 -0.853054 -1.36307 0
M  V30 53290 O 5009.48 -1.11982 -1.33438 0
M  V30 53291 C 5006.61 -2.2764 -2.53757 0
M  V30 53292 H 5007.8 -2.88088 -0.833397 0
M  V30 53293 H 5005.36 -1.51143 -0.398189 0
M  V30 53294 H 5006.09 -1.3907 -2.92968 0
M  V30 53295 H 5005.88 -3.08889 -2.41516 0
M  V30 53296 H 5007.37 -2.59388 -3.27273 0
M  V30 53297 N 5007.8 0.424229 -1.51783 0
M  V30 53298 C 5009.05 1.16955 -1.6433 0
M  V30 53299 C 5009.36 1.92034 -0.371816 0
M  V30 53300 O 5010.57 2.68872 -0.376854 0
M  V30 53301 C 5009.03 2.12772 -2.90269 0
M  V30 53302 C 5008.63 1.43281 -4.2447 0
M  V30 53303 C 5010.38 2.87656 -3.12177 0
M  V30 53304 C 5008.29 2.37657 -5.41547 0
M  V30 53305 H 5007.22 0.440272 -0.612109 0
M  V30 53306 H 5009.87 0.435368 -1.7826 0
M  V30 53307 H 5008.25 2.8968 -2.70003 0
M  V30 53308 H 5009.42 0.718404 -4.55165 0
M  V30 53309 H 5007.74 0.804974 -4.08545 0
M  V30 53310 H 5010.33 3.58381 -3.96821 0
M  V30 53311 H 5010.68 3.49751 -2.25788 0
M  V30 53312 H 5011.21 2.17852 -3.32845 0
M  V30 53313 H 5007.95 1.80233 -6.30235 0
M  V30 53314 H 5007.47 3.07113 -5.1521 0
M  V30 53315 H 5009.15 2.98508 -5.74022 0
M  V30 53316 N 5009.28 1.4215 0.680515 0
M  V30 53317 C 5010.53 1.43525 1.44125 0
M  V30 53318 C 5010.88 0.048692 1.92338 0
M  V30 53319 O 5010.17 -0.928131 1.67619 0
M  V30 53320 C 5010.37 2.38954 2.65774 0
M  V30 53321 C 5010.2 3.86751 2.29463 0
M  V30 53322 C 5008.97 4.55328 2.19099 0
M  V30 53323 C 5011.17 4.77328 1.91474 0
M  V30 53324 N 5009.15 5.88181 1.75832 0
M  V30 53325 C 5010.52 5.99244 1.59082 0
M  V30 53326 C 5012.57 4.64836 1.78416 0
M  V30 53327 C 5011.28 7.10057 1.14943 0
M  V30 53328 C 5013.3 5.75625 1.35681 0
M  V30 53329 C 5012.66 6.96649 1.0421 0
M  V30 53330 H 5008.76 0.580381 0.524101 0
M  V30 53331 H 5011.35 1.78135 0.785877 0
M  V30 53332 H 5009.52 2.06415 3.2901 0
M  V30 53333 H 5011.25 2.30946 3.32334 0
M  V30 53334 H 5008.01 4.09464 2.37983 0
M  V30 53335 H 5008.43 6.5863 1.56638 0
M  V30 53336 H 5013.07 3.71752 2.01396 0
M  V30 53337 H 5010.79 8.02993 0.907083 0
M  V30 53338 H 5014.38 5.67969 1.26106 0
M  V30 53339 H 5013.26 7.80921 0.716432 0
M  V30 53340 O 5010.8 -0.822962 1.38959 0
M  V30 53341 H 5011.49 -1.46628 1.26569 0
M  V30 END ATOM
M  V30 BEGIN BOND
M  V30 END BOND
M  V30 END CTAB
M  END
$$$$
