drugbank_target|P02768 Serum albumin (DB00276; DB00493; DB00545; DB03255; DB06713; DB06728; DB11359; DB11638; DB12965; DB13967)
 OpenBabel12092119343D

  0  0  0     0  0            999 V3000
M  V30 BEGIN CTAB
M  V30 COUNTS 9680 9777 0 0 0
M  V30 BEGIN ATOM
M  V30 1 H -0.908 1.98254 -0.117106 0
M  V30 2 N 0 1.576 0 0
M  V30 3 C 0.933 2.03868 1.02534 0
M  V30 4 C 1.911 0.928543 1.3348 0
M  V30 5 O 3.095 1.19667 1.45644 0
M  V30 6 C 0.222 2.43627 2.35294 0
M  V30 7 C -0.732 3.65373 2.2001 0
M  V30 8 S 0.101 5.13292 1.52614 0
M  V30 9 C 1.257 5.56322 2.86805 0
M  V30 10 H 1.49 2.90518 0.631377 0
M  V30 11 H -0.977 1.52953 0.210867 0
M  V30 12 H 0.981 2.67203 3.11629 0
M  V30 13 H -0.358 1.57376 2.7183 0
M  V30 14 H -1.165 3.90944 3.18086 0
M  V30 15 H -1.563 3.418 1.51819 0
M  V30 16 H 0.729 5.58782 3.83104 0
M  V30 17 H 1.672 6.56266 2.65933 0
M  V30 18 H 2.08 4.83886 2.90714 0
M  V30 19 N 1.4781 -0.272755 1.55222 0
M  V30 20 C 2.4251 -1.33716 1.88119 0
M  V30 21 C 3.3951 -1.49066 0.73271 0
M  V30 22 O 4.5801 -1.63469 0.984002 0
M  V30 23 C 1.7201 -2.69238 2.15882 0
M  V30 24 C 0.8331 -2.62108 3.43399 0
M  V30 25 C -0.0319 -3.89811 3.60861 0
M  V30 26 C -0.9929 -3.77193 4.8207 0
M  V30 27 N -1.8559 -4.9673 4.96189 0
M  V30 28 H 2.9841 -1.04962 2.78903 0
M  V30 29 H 0.5211 -0.507088 1.38083 0
M  V30 30 H 2.4791 -3.48089 2.29978 0
M  V30 31 H 1.1091 -2.96194 1.28331 0
M  V30 32 H 0.1611 -1.74967 3.37773 0
M  V30 33 H 1.4731 -2.48685 4.32386 0
M  V30 34 H 0.6271 -4.77103 3.74777 0
M  V30 35 H -0.6339 -4.06102 2.7006 0
M  V30 36 H -1.6289 -2.88284 4.68159 0
M  V30 37 H -0.4039 -3.62421 5.74307 0
M  V30 38 H -2.4579 -5.13431 4.08319 0
M  V30 39 H -2.5409 -4.85839 5.79221 0
M  V30 40 H -1.2729 -5.85594 5.1449 0
M  V30 41 N 2.9562 -1.48159 -0.537278 0
M  V30 42 C 4.2022 -1.57015 -1.29297 0
M  V30 43 C 4.5572 -0.237791 -1.90925 0
M  V30 44 O 3.8502 0.758621 -1.75942 0
M  V30 45 C 4.0442 -2.63956 -2.40961 0
M  V30 46 C 3.8732 -4.07461 -1.90278 0
M  V30 47 C 2.6432 -4.74685 -1.73213 0
M  V30 48 C 4.8412 -4.93858 -1.43556 0
M  V30 49 N 2.8232 -6.02633 -1.17078 0
M  V30 50 C 4.1942 -6.11993 -0.993204 0
M  V30 51 C 6.2492 -4.80141 -1.31792 0
M  V30 52 C 4.9522 -7.17923 -0.444872 0
M  V30 53 C 6.9782 -5.86186 -0.783585 0
M  V30 54 C 6.3402 -7.03524 -0.351261 0
M  V30 55 H 2.4392 -0.629154 -0.464423 0
M  V30 56 H 5.0232 -1.85006 -0.606705 0
M  V30 57 H 3.1942 -2.378 -3.07093 0
M  V30 58 H 4.9262 -2.62539 -3.07986 0
M  V30 59 H 1.6812 -4.30902 -1.9652 0
M  V30 60 H 2.1052 -6.7085 -0.910421 0
M  V30 61 H 6.7472 -3.89772 -1.63823 0
M  V30 62 H 4.4652 -8.08022 -0.11222 0
M  V30 63 H 8.0512 -5.77624 -0.695835 0
M  V30 64 H 6.9312 -7.8418 0.055777 0
M  V30 65 N 4.4343 0.785586 -1.36625 0
M  V30 66 C 5.6803 1.54591 -1.31261 0
M  V30 67 C 6.0133 1.93906 0.106823 0
M  V30 68 O 5.2883 1.63007 1.06108 0
M  V30 69 C 5.5713 2.82038 -2.23889 0
M  V30 70 C 5.4243 2.49066 -3.74548 0
M  V30 71 C 6.7433 3.83887 -2.15217 0
M  V30 72 H 3.8623 0.560846 -0.478143 0
M  V30 73 H 6.5043 0.902278 -1.67209 0
M  V30 74 H 4.6543 3.36961 -1.93363 0
M  V30 75 H 6.3263 2.00164 -4.15611 0
M  V30 76 H 4.5693 1.81954 -3.93796 0
M  V30 77 H 5.2403 3.40109 -4.34776 0
M  V30 78 H 7.7163 3.38421 -2.42096 0
M  V30 79 H 6.5923 4.70806 -2.82193 0
M  V30 80 H 6.8533 4.27131 -1.14068 0
M  V30 81 N 5.9124 1.20967 1.01018 0
M  V30 82 C 7.1404 1.04956 1.78303 0
M  V30 83 C 7.5554 -0.400915 1.84494 0
M  V30 84 O 6.9124 -1.27826 1.30257 0
M  V30 85 C 6.9634 1.63403 3.22462 0
M  V30 86 O 6.6844 3.02775 3.16637 0
M  V30 87 C 8.1854 1.52432 4.16268 0
M  V30 88 H 5.4054 0.368858 0.560522 0
M  V30 89 H 7.9494 1.60193 1.27116 0
M  V30 90 H 6.1044 1.1227 3.70775 0
M  V30 91 H 6.5184 3.30626 4.07169 0
M  V30 92 H 7.9924 1.98078 5.15237 0
M  V30 93 H 8.4694 0.477875 4.36592 0
M  V30 94 H 9.0754 2.02787 3.73841 0
M  V30 95 N 7.3905 -1.2043 1.01659 0
M  V30 96 C 8.6375 -1.89797 0.705917 0
M  V30 97 C 8.9655 -1.78848 -0.764439 0
M  V30 98 O 8.2205 -1.16694 -1.57102 0
M  V30 99 C 8.5195 -3.40464 1.08714 0
M  V30 100 C 8.1855 -3.71614 2.5537 0
M  V30 101 C 6.8475 -3.79826 2.95441 0
M  V30 102 C 9.1995 -3.85915 3.50313 0
M  V30 103 C 6.5275 -3.99797 4.29394 0
M  V30 104 C 8.8795 -4.07396 4.83954 0
M  V30 105 C 7.5435 -4.13837 5.23732 0
M  V30 106 H 6.8135 -0.694518 0.258313 0
M  V30 107 H 9.4605 -1.42691 1.27717 0
M  V30 108 H 7.7655 -3.89385 0.434309 0
M  V30 109 H 9.4625 -3.92433 0.824461 0
M  V30 110 H 6.0525 -3.65822 2.23321 0
M  V30 111 H 10.2365 -3.78926 3.20513 0
M  V30 112 H 5.4925 -4.03018 4.59768 0
M  V30 113 H 9.6665 -4.17404 5.57447 0
M  V30 114 H 7.2935 -4.29064 6.27541 0
M  V30 115 N 8.8686 -0.792821 -1.36206 0
M  V30 116 C 10.1176 -0.363353 -1.984 0
M  V30 117 C 10.4306 1.07172 -1.63626 0
M  V30 118 O 11.6366 1.60362 -2.19081 0
M  V30 119 C 10.0926 -0.59872 -3.54885 0
M  V30 120 C 9.7006 -2.04543 -3.9858 0
M  V30 121 C 11.4446 -0.233926 -4.23855 0
M  V30 122 C 9.3516 -2.22727 -5.47856 0
M  V30 123 H 8.2816 -0.13212 -0.742334 0
M  V30 124 H 10.9326 -0.974935 -1.55458 0
M  V30 125 H 9.3146 0.0826222 -3.95914 0
M  V30 126 H 10.4886 -2.76345 -3.68741 0
M  V30 127 H 8.8036 -2.36879 -3.42458 0
M  V30 128 H 11.4006 -0.348027 -5.33566 0
M  V30 129 H 11.7436 0.818351 -4.08177 0
M  V30 130 H 12.2766 -0.868639 -3.882 0
M  V30 131 H 9.0156 -3.2635 -5.68486 0
M  V30 132 H 8.5356 -1.55434 -5.7931 0
M  V30 133 H 10.2146 -2.03607 -6.14128 0
M  V30 134 N 10.3467 1.47872 -0.545128 0
M  V30 135 C 11.5717 2.07391 -0.0190611 0
M  V30 136 C 11.9967 1.39688 1.25971 0
M  V30 137 O 11.3547 0.467816 1.7516 0
M  V30 138 C 11.4027 3.60188 0.172335 0
M  V30 139 O 10.5067 3.9339 1.23766 0
M  V30 140 H 9.8477 0.662411 -0.0459059 0
M  V30 141 H 12.3777 1.90066 -0.757365 0
M  V30 142 H 12.3877 4.06129 0.390305 0
M  V30 143 H 11.0627 4.08865 -0.761725 0
M  V30 144 H 9.6397 3.5921 1.00114 0
M  V30 145 N 11.8248 0.280983 1.55075 0
M  V30 146 C 12.7548 -0.597469 2.25727 0
M  V30 147 C 13.7358 -1.15417 1.24952 0
M  V30 148 O 14.9208 -1.18722 1.53684 0
M  V30 149 C 12.0508 -1.7789 2.98283 0
M  V30 150 C 11.0048 -1.35347 4.06036 0
M  V30 151 C 10.3308 -2.61846 4.66198 0
M  V30 152 C 11.6308 -0.499354 5.19907 0
M  V30 153 H 13.3248 -0.00824265 2.99399 0
M  V30 154 H 10.8708 -0.0025244 1.44 0
M  V30 155 H 12.8238 -2.39937 3.46422 0
M  V30 156 H 11.5478 -2.39405 2.22155 0
M  V30 157 H 10.2068 -0.756156 3.58717 0
M  V30 158 H 9.8548 -3.21632 3.86732 0
M  V30 159 H 9.5548 -2.3409 5.38958 0
M  V30 160 H 11.0788 -3.24732 5.1709 0
M  V30 161 H 12.4928 -1.02498 5.64063 0
M  V30 162 H 10.8898 -0.316424 5.99265 0
M  V30 163 H 11.9598 0.480459 4.82514 0
M  V30 164 N 13.3029 -1.57598 0.00835791 0
M  V30 165 C 14.2329 -2.1198 -0.979113 0
M  V30 166 C 15.2139 -1.03091 -1.35301 0
M  V30 167 O 16.3989 -1.30818 -1.43528 0
M  V30 168 C 13.5289 -2.62995 -2.26828 0
M  V30 169 C 12.4829 -3.76485 -2.03576 0
M  V30 170 C 11.8089 -4.13846 -3.38579 0
M  V30 171 C 13.1089 -5.0342 -1.39161 0
M  V30 172 H 14.8029 -2.94738 -0.526281 0
M  V30 173 H 12.3489 -1.41783 -0.251704 0
M  V30 174 H 14.3019 -2.99669 -2.96271 0
M  V30 175 H 13.0259 -1.7737 -2.7424 0
M  V30 176 H 11.6849 -3.40217 -1.36557 0
M  V30 177 H 11.3329 -3.25232 -3.83709 0
M  V30 178 H 11.0329 -4.90312 -3.23834 0
M  V30 179 H 12.5569 -4.53086 -4.09323 0
M  V30 180 H 13.9709 -5.37812 -1.98573 0
M  V30 181 H 12.3679 -5.84746 -1.34878 0
M  V30 182 H 13.4379 -4.83548 -0.361868 0
M  V30 183 N 14.781 0.264519 -1.55364 0
M  V30 184 C 16.028 0.994986 -1.7637 0
M  V30 185 C 16.356 1.85976 -0.5695 0
M  V30 186 O 15.611 1.90509 0.44776 0
M  V30 187 C 15.91 1.9004 -3.02687 0
M  V30 188 C 15.576 1.19243 -4.34847 0
M  V30 189 C 14.238 0.996709 -4.70764 0
M  V30 190 C 16.59 0.689296 -5.16622 0
M  V30 191 C 13.918 0.285261 -5.86006 0
M  V30 192 C 16.27 -0.00860079 -6.32599 0
M  V30 193 C 14.934 -0.215963 -6.67151 0
M  V30 194 H 14.204 0.364091 -0.645383 0
M  V30 195 H 16.851 0.266543 -1.89636 0
M  V30 196 H 15.156 2.69533 -2.84357 0
M  V30 197 H 16.853 2.46695 -3.16137 0
M  V30 198 H 13.443 1.3549 -4.06621 0
M  V30 199 H 17.627 0.828108 -4.89342 0
M  V30 200 H 12.883 0.113961 -6.11294 0
M  V30 201 H 17.057 -0.406186 -6.95214 0
M  V30 202 H 14.684 -0.769217 -7.56298 0
M  V30 203 N 16.2591 1.48442 0.529413 0
M  V30 204 C 17.1891 1.65902 1.64313 0
M  V30 205 C 18.1701 0.507897 1.6234 0
M  V30 206 O 19.3551 0.740503 1.79528 0
M  V30 207 C 16.4851 1.69911 3.02898 0
M  V30 208 C 15.4391 2.8453 3.19729 0
M  V30 209 C 14.7651 2.73629 4.59381 0
M  V30 210 C 16.0651 4.25821 3.02447 0
M  V30 211 H 17.7591 2.5914 1.49955 0
M  V30 212 H 15.3051 1.24709 0.719982 0
M  V30 213 H 17.2581 1.80715 3.80684 0
M  V30 214 H 15.9821 0.732524 3.18279 0
M  V30 215 H 14.6411 2.73283 2.44361 0
M  V30 216 H 14.2891 1.74938 4.71599 0
M  V30 217 H 13.9891 3.50541 4.71588 0
M  V30 218 H 15.5131 2.86401 5.39265 0
M  V30 219 H 16.9271 4.37898 3.70024 0
M  V30 220 H 15.3241 5.03735 3.26146 0
M  V30 221 H 16.3941 4.42244 1.98867 0
M  V30 222 N 17.7372 -0.778329 1.37039 0
M  V30 223 C 18.9842 -1.53665 1.31884 0
M  V30 224 C 19.3122 -1.9425 -0.0986303 0
M  V30 225 O 18.5672 -1.63832 -1.07041 0
M  V30 226 C 18.8662 -2.81845 2.19768 0
M  V30 227 C 18.5322 -2.60345 3.68146 0
M  V30 228 C 17.1942 -2.5419 4.08584 0
M  V30 229 C 19.5462 -2.40923 4.62175 0
M  V30 230 C 16.8742 -2.26594 5.41177 0
M  V30 231 C 19.2262 -2.14852 5.94997 0
M  V30 232 C 17.8902 -2.07137 6.34547 0
M  V30 233 H 17.1602 -0.562299 0.482598 0
M  V30 234 H 19.8072 -0.897069 1.69189 0
M  V30 235 H 18.1122 -3.50328 1.75436 0
M  V30 236 H 19.8092 -3.39692 2.13097 0
M  V30 237 H 16.3992 -2.65996 3.36072 0
M  V30 238 H 20.5832 -2.44673 4.31797 0
M  V30 239 H 15.8392 -2.19111 5.70789 0
M  V30 240 H 20.0132 -1.98822 6.67415 0
M  V30 241 H 17.6402 -1.85518 7.37216 0
M  V30 242 N 19.2153 -1.21501 -1.00376 0
M  V30 243 C 20.4403 -1.05977 -1.78279 0
M  V30 244 C 20.8653 0.385994 -1.84097 0
M  V30 245 O 20.2233 1.27849 -1.28547 0
M  V30 246 C 20.2713 -1.66302 -3.19963 0
M  V30 247 O 19.3753 -0.909333 -4.0225 0
M  V30 248 H 18.7163 -0.372906 -0.549397 0
M  V30 249 H 21.2463 -1.6107 -1.26165 0
M  V30 250 H 21.2563 -1.70574 -3.70632 0
M  V30 251 H 19.9313 -2.71515 -3.15043 0
M  V30 252 H 18.5083 -0.941795 -3.60811 0
M  V30 253 N 20.6934 1.19889 -1.02296 0
M  V30 254 C 21.9184 1.9393 -0.735237 0
M  V30 255 C 22.3434 1.74639 0.698782 0
M  V30 256 O 21.7014 1.04481 1.48167 0
M  V30 257 C 21.7494 3.43916 -1.08417 0
M  V30 258 O 20.8534 4.11917 -0.199446 0
M  V30 259 H 20.1944 0.605645 -0.272196 0
M  V30 260 H 22.7244 1.52137 -1.36804 0
M  V30 261 H 22.7344 3.9456 -1.03856 0
M  V30 262 H 21.4094 3.5728 -2.12894 0
M  V30 263 H 19.9864 3.71666 -0.303136 0
M  V30 264 N 22.1715 0.800033 1.35784 0
M  V30 265 C 23.1345 0.211565 2.28221 0
M  V30 266 C 24.1345 -0.59728 1.49296 0
M  V30 267 O 25.3245 -0.416721 1.69142 0
M  V30 268 C 22.4565 -0.705846 3.33513 0
M  V30 269 H 23.6495 1.02677 2.81776 0
M  V30 270 H 21.2025 0.570211 1.45528 0
M  V30 271 H 21.9375 -1.54498 2.85133 0
M  V30 272 H 21.7225 -0.127655 3.91892 0
M  V30 273 H 23.2125 -1.11211 4.02519 0
M  V30 274 N 23.6496 -1.47581 0.552962 0
M  V30 275 C 24.8796 -2.06575 0.0320091 0
M  V30 276 C 25.2876 -1.4067 -1.26525 0
M  V30 277 O 24.6306 -0.495808 -1.76883 0
M  V30 278 C 24.6926 -3.58705 -0.238913 0
M  V30 279 C 24.3566 -4.46625 0.968272 0
M  V30 280 C 25.3536 -4.85 1.87274 0
M  V30 281 C 23.0386 -4.88201 1.18175 0
M  V30 282 C 25.0326 -5.63745 2.9744 0
M  V30 283 C 22.7196 -5.66712 2.28651 0
M  V30 284 C 23.7176 -6.04394 3.18114 0
M  V30 285 O 23.4056 -6.81324 4.26676 0
M  V30 286 H 23.1376 -0.674763 0.0408689 0
M  V30 287 H 25.6916 -1.90634 0.764719 0
M  V30 288 H 23.9216 -3.72844 -1.02588 0
M  V30 289 H 25.6106 -3.99735 -0.704731 0
M  V30 290 H 26.3766 -4.53482 1.71984 0
M  V30 291 H 22.2556 -4.58339 0.494593 0
M  V30 292 H 25.7996 -5.93077 3.67296 0
M  V30 293 H 21.6966 -5.97642 2.43915 0
M  V30 294 H 22.4646 -6.99712 4.24671 0
M  V30 295 N 25.1277 -0.289203 -1.54924 0
M  V30 296 C 26.3527 0.329299 -2.04769 0
M  V30 297 C 26.7777 1.4763 -1.16564 0
M  V30 298 O 26.1357 1.80527 -0.167186 0
M  V30 299 C 26.1837 0.774438 -3.52186 0
M  V30 300 O 25.2877 1.88038 -3.67036 0
M  V30 301 H 24.6287 0.0659259 -0.660719 0
M  V30 302 H 27.1587 -0.42761 -2.00082 0
M  V30 303 H 27.1687 1.06642 -3.93816 0
M  V30 304 H 25.8437 -0.0646707 -4.1585 0
M  V30 305 H 24.4207 1.58985 -3.3731 0
M  V30 306 N 26.6058 1.57591 -0.0167156 0
M  V30 307 C 28.0218 1.55946 0.339557 0
M  V30 308 C 28.2218 1.02109 1.73713 0
M  V30 309 O 27.2778 0.662303 2.43659 0
M  V30 310 C 28.5908 3.00037 0.199499 0
M  V30 311 C 30.1388 3.11805 0.273193 0
M  V30 312 C 30.6138 4.57713 0.162068 0
M  V30 313 N 32.1048 4.6268 0.219444 0
M  V30 314 C 32.8398 5.73185 0.157054 0
M  V30 315 N 32.3358 6.92786 0.0442936 0
M  V30 316 N 34.1288 5.61707 0.21014 0
M  V30 317 H 26.2798 1.90921 -0.930758 0
M  V30 318 H 28.5428 0.877674 -0.358319 0
M  V30 319 H 28.2488 3.4333 -0.76273 0
M  V30 320 H 28.1228 3.64387 0.974786 0
M  V30 321 H 30.5098 2.68433 1.22587 0
M  V30 322 H 30.5908 2.50201 -0.532256 0
M  V30 323 H 30.2348 5.01763 -0.78714 0
M  V30 324 H 30.1648 5.17283 0.986222 0
M  V30 325 H 32.6558 3.76649 0.307246 0
M  V30 326 H 32.9688 7.728 0.00304069 0
M  V30 327 H 31.3138 6.94999 0.00968457 0
M  V30 328 H 34.5048 4.6716 0.296546 0
M  V30 329 H 34.6778 6.47807 0.158054 0
M  V30 330 N 28.0839 -0.256276 1.55502 0
M  V30 331 C 29.3319 -0.983672 1.76545 0
M  V30 332 C 29.6529 -1.86206 0.578982 0
M  V30 333 O 28.9229 -1.91656 -0.405577 0
M  V30 334 H 27.5029 -0.366191 0.651086 0
M  V30 335 H 30.1649 -0.276479 1.92929 0
M  V30 336 H 29.2609 -1.61087 2.67315 0
M  V30 337 N 29.562 -1.4872 -0.521534 0
M  V30 338 C 30.808 -1.574 -1.27879 0
M  V30 339 C 31.141 -0.250817 -1.92573 0
M  V30 340 O 30.416 0.743934 -1.79711 0
M  V30 341 C 30.699 -2.71843 -2.36164 0
M  V30 342 C 30.552 -4.13893 -1.76105 0
M  V30 343 C 31.871 -2.82008 -3.37875 0
M  V30 344 H 28.99 -0.572941 -0.463581 0
M  V30 345 H 31.632 -1.80927 -0.580119 0
M  V30 346 H 29.782 -2.51914 -2.95756 0
M  V30 347 H 31.454 -4.45284 -1.20499 0
M  V30 348 H 29.697 -4.20498 -1.06601 0
M  V30 349 H 30.368 -4.89804 -2.5455 0
M  V30 350 H 32.844 -3.00086 -2.88249 0
M  V30 351 H 31.72 -3.63796 -4.11028 0
M  V30 352 H 31.981 -1.90511 -3.98946 0
M  V30 353 N 31.0401 0.771051 -1.3745 0
M  V30 354 C 32.2871 1.52963 -1.32697 0
M  V30 355 C 32.6151 1.94299 0.0883274 0
M  V30 356 O 31.8701 1.64397 1.0617 0
M  V30 357 C 32.1691 2.80676 -2.2126 0
M  V30 358 C 31.8351 2.58389 -3.69521 0
M  V30 359 C 30.4971 2.52019 -4.09927 0
M  V30 360 C 32.8491 2.38469 -4.63446 0
M  V30 361 C 30.1771 2.23721 -5.42371 0
M  V30 362 C 32.5291 2.11694 -5.96128 0
M  V30 363 C 31.1931 2.03769 -6.35637 0
M  V30 364 H 30.4631 0.559732 -0.485573 0
M  V30 365 H 33.1101 0.888083 -1.69662 0
M  V30 366 H 31.4151 3.49392 -1.77291 0
M  V30 367 H 33.1121 3.38557 -2.14895 0
M  V30 368 H 29.7021 2.6421 -3.37478 0
M  V30 369 H 33.8861 2.4238 -4.33089 0
M  V30 370 H 29.1421 2.16081 -5.71943 0
M  V30 371 H 33.3161 1.9528 -6.6846 0
M  V30 372 H 30.9431 1.81606 -7.38189 0
M  V30 373 N 32.5182 1.22032 0.997298 0
M  V30 374 C 33.9342 0.979326 1.26021 0
M  V30 375 C 34.1342 -0.32972 1.98784 0
M  V30 376 O 33.1902 -1.05345 2.29475 0
M  V30 377 C 34.5032 2.17509 2.07631 0
M  V30 378 C 36.0512 2.21817 2.2083 0
M  V30 379 C 36.5262 3.40933 3.05825 0
M  V30 380 N 38.0172 3.41067 3.13412 0
M  V30 381 C 38.7522 4.29885 3.79455 0
M  V30 382 N 38.2482 5.28914 4.47462 0
M  V30 383 N 40.0412 4.17673 3.76173 0
M  V30 384 H 32.1922 2.06202 0.509352 0
M  V30 385 H 34.4552 0.90334 0.287541 0
M  V30 386 H 34.1612 3.12415 1.61524 0
M  V30 387 H 34.0352 2.17206 3.08385 0
M  V30 388 H 36.4222 1.27462 2.66153 0
M  V30 389 H 36.5032 2.2616 1.1952 0
M  V30 390 H 36.1472 4.35586 2.61203 0
M  V30 391 H 36.0772 3.33829 4.07266 0
M  V30 392 H 38.5682 2.69406 2.65007 0
M  V30 393 H 38.8812 5.92973 4.95583 0
M  V30 394 H 37.2262 5.32831 4.46224 0
M  V30 395 H 40.4172 3.39564 3.22202 0
M  V30 396 H 40.5902 4.87098 4.27363 0
M  V30 397 N 33.9963 -1.19345 1.0293 0
M  V30 398 C 35.4123 -1.41069 0.746446 0
M  V30 399 C 35.6123 -1.90078 -0.668776 0
M  V30 400 O 34.6683 -2.0778 -1.4347 0
M  V30 401 C 35.9813 -2.42141 1.78292 0
M  V30 402 C 37.5293 -2.55887 1.80252 0
M  V30 403 C 38.0043 -3.60214 2.8286 0
M  V30 404 N 39.4953 -3.67711 2.81679 0
M  V30 405 C 40.2303 -4.48128 3.57727 0
M  V30 406 N 39.7263 -5.32248 4.43491 0
M  V30 407 N 41.5193 -4.42782 3.46267 0
M  V30 408 H 33.6703 -0.858536 1.94275 0
M  V30 409 H 35.9333 -0.439541 0.839945 0
M  V30 410 H 35.6393 -2.13155 2.79746 0
M  V30 411 H 35.5133 -3.41323 1.60557 0
M  V30 412 H 37.9003 -2.84196 0.794757 0
M  V30 413 H 37.9813 -1.56858 2.02062 0
M  V30 414 H 37.6253 -3.32647 3.83807 0
M  V30 415 H 37.5553 -4.58895 2.58307 0
M  V30 416 H 40.0463 -3.07634 2.19476 0
M  V30 417 H 40.3593 -5.90729 4.98256 0
M  V30 418 H 38.7043 -5.31707 4.47564 0
M  V30 419 H 41.8953 -3.76107 2.78677 0
M  V30 420 H 42.0683 -5.05215 4.05785 0
M  V30 421 N 35.4744 -0.807222 -1.35358 0
M  V30 422 C 36.7514 -0.311126 -1.9311 0
M  V30 423 C 37.1314 1.19937 -1.73719 0
M  V30 424 O 36.4794 1.99918 -1.10657 0
M  V30 425 C 36.6894 -0.723226 -3.41424 0
M  V30 426 C 38.0374 -0.713078 -4.18569 0
M  V30 427 O 39.0614 -0.664811 -3.49941 0
M  V30 428 O 37.9204 -0.772022 -5.41019 0
M  V30 429 H 35.0144 -0.081526 -0.822972 0
M  V30 430 H 37.5604 -0.890962 -1.4443 0
M  V30 431 H 36.3324 -1.76426 -3.4927 0
M  V30 432 H 35.9554 -0.118232 -3.97424 0
M  V30 433 N 36.9525 1.47285 -0.560781 0
M  V30 434 C 37.9155 2.28535 0.174488 0
M  V30 435 C 38.9155 1.37153 0.839388 0
M  V30 436 O 40.1055 1.59748 0.694702 0
M  V30 437 C 37.2375 3.16934 1.25561 0
M  V30 438 H 38.4305 2.95012 -0.539262 0
M  V30 439 H 35.9835 1.53034 -0.317865 0
M  V30 440 H 36.7185 2.55157 2.00164 0
M  V30 441 H 36.5035 3.8419 0.783604 0
M  V30 442 H 37.9935 3.78143 1.77193 0
M  V30 443 N 38.4306 0.297415 1.54768 0
M  V30 444 C 39.3806 -0.595275 2.20092 0
M  V30 445 C 40.3646 -1.10163 1.17273 0
M  V30 446 O 41.5566 -1.043 1.43006 0
M  V30 447 C 38.6856 -1.7684 2.94249 0
M  V30 448 C 37.7716 -1.27818 4.0438 0
M  V30 449 N 38.1626 -0.505695 5.03266 0
M  V30 450 C 36.4606 -1.55923 4.17857 0
M  V30 451 C 37.1616 -0.245094 5.81183 0
M  V30 452 N 36.1376 -0.823881 5.3732 0
M  V30 453 H 39.9396 0.00250837 2.939 0
M  V30 454 H 37.4536 0.102007 1.62079 0
M  V30 455 H 39.4506 -2.41944 3.39513 0
M  V30 456 H 38.1106 -2.36992 2.21957 0
M  V30 457 H 39.1216 -0.150928 5.1768 0
M  V30 458 H 35.7986 -2.16849 3.56767 0
M  V30 459 H 37.1886 0.375084 6.70852 0
M  V30 460 N 39.9087 -1.5758 0.0250728 0
M  V30 461 C 40.8557 -2.09973 -0.958129 0
M  V30 462 C 41.8257 -1.00085 -1.3256 0
M  V30 463 O 43.0107 -1.27481 -1.41962 0
M  V30 464 C 40.1507 -2.62812 -2.2366 0
M  V30 465 C 39.2637 -3.86693 -1.92594 0
M  V30 466 C 38.3987 -4.27941 -3.14707 0
M  V30 467 C 37.4377 -5.44591 -2.79442 0
M  V30 468 N 36.5747 -5.81014 -3.94167 0
M  V30 469 H 41.4147 -2.937 -0.504428 0
M  V30 470 H 38.9517 -1.45172 -0.237392 0
M  V30 471 H 40.9097 -2.91536 -2.98434 0
M  V30 472 H 39.5397 -1.81922 -2.66654 0
M  V30 473 H 38.5917 -3.64723 -1.0808 0
M  V30 474 H 39.9037 -4.71547 -1.62619 0
M  V30 475 H 39.0577 -4.58079 -3.97804 0
M  V30 476 H 37.7967 -3.41845 -3.4784 0
M  V30 477 H 36.8017 -5.1415 -1.94755 0
M  V30 478 H 38.0267 -6.32382 -2.47528 0
M  V30 479 H 35.9727 -4.97874 -4.2715 0
M  V30 480 H 35.8897 -6.60498 -3.67801 0
M  V30 481 H 37.1577 -6.15756 -4.7798 0
M  V30 482 N 41.3868 0.248026 -1.55636 0
M  V30 483 C 42.6118 0.998028 -1.81808 0
M  V30 484 C 43.0368 1.78207 -0.601979 0
M  V30 485 O 42.3948 1.75653 0.448961 0
M  V30 486 C 42.4428 1.9125 -3.05705 0
M  V30 487 O 41.5468 3.00406 -2.82542 0
M  V30 488 H 40.8878 0.284045 -0.600179 0
M  V30 489 H 43.4178 0.269357 -2.02819 0
M  V30 490 H 43.4278 2.32737 -3.35108 0
M  V30 491 H 42.1028 1.33602 -3.93857 0
M  V30 492 H 40.6798 2.63056 -2.64303 0
M  V30 493 N 42.8649 1.48995 0.513639 0
M  V30 494 C 43.7749 1.67443 1.64317 0
M  V30 495 C 44.7909 0.556947 1.64846 0
M  V30 496 O 45.9669 0.830082 1.83498 0
M  V30 497 C 43.0319 1.72515 3.00732 0
M  V30 498 C 42.0929 2.96009 3.1093 0
M  V30 499 C 41.3259 3.00829 4.40837 0
M  V30 500 O 41.5489 2.13594 5.28898 0
M  V30 501 O 40.4829 3.93168 4.55744 0
M  V30 502 H 44.3089 2.63106 1.51687 0
M  V30 503 H 41.8939 1.32588 0.688543 0
M  V30 504 H 43.7759 1.78277 3.81831 0
M  V30 505 H 42.4509 0.800278 3.13651 0
M  V30 506 H 41.3579 2.9577 2.29065 0
M  V30 507 H 42.6909 3.87934 3.02933 0
M  V30 508 N 44.343 -0.763751 1.37857 0
M  V30 509 C 45.589 -1.52483 1.33704 0
M  V30 510 C 45.922 -1.94051 -0.0759612 0
M  V30 511 O 45.197 -1.64675 -1.03501 0
M  V30 512 C 45.48 -2.78441 2.28348 0
M  V30 513 C 45.333 -2.43075 3.78463 0
M  V30 514 C 46.652 -3.80415 2.21298 0
M  V30 515 H 43.771 -0.553169 0.487005 0
M  V30 516 H 46.413 -0.875562 1.68624 0
M  V30 517 H 44.563 -3.33842 1.987 0
M  V30 518 H 46.235 -1.93527 4.18742 0
M  V30 519 H 44.478 -1.75666 3.96641 0
M  V30 520 H 45.149 -3.33149 4.40132 0
M  V30 521 H 47.625 -3.34527 2.47449 0
M  V30 522 H 46.501 -4.66257 2.89647 0
M  V30 523 H 46.762 -4.25262 1.20849 0
M  V30 524 N 45.8211 -1.22559 -0.990812 0
M  V30 525 C 46.7841 -0.998863 -2.0629 0
M  V30 526 C 47.7841 0.0354834 -1.60761 0
M  V30 527 O 48.9741 -0.203231 -1.7301 0
M  V30 528 C 46.1061 -0.509203 -3.37076 0
M  V30 529 H 47.2991 -1.95014 -2.27837 0
M  V30 530 H 44.8521 -1.04456 -1.16269 0
M  V30 531 H 45.5871 0.446335 -3.21214 0
M  V30 532 H 45.3721 -1.25547 -3.71457 0
M  V30 533 H 46.8621 -0.370888 -4.1595 0
M  V30 534 N 47.2992 1.18797 -1.03562 0
M  V30 535 C 48.2492 2.20161 -0.592724 0
M  V30 536 C 49.2332 1.56772 0.362133 0
M  V30 537 O 50.4252 1.76062 0.182009 0
M  V30 538 C 47.5542 3.43266 0.0481024 0
M  V30 539 C 46.6402 4.13786 -0.9296 0
M  V30 540 N 47.0312 4.60388 -2.09467 0
M  V30 541 C 45.3292 4.39572 -0.754499 0
M  V30 542 C 46.0302 5.14619 -2.71187 0
M  V30 543 N 45.0062 5.05826 -1.991 0
M  V30 544 H 48.8082 2.53877 -1.48066 0
M  V30 545 H 46.3222 1.34946 -0.903514 0
M  V30 546 H 48.3192 4.15136 0.383058 0
M  V30 547 H 46.9792 3.11048 0.931636 0
M  V30 548 H 47.9902 4.54999 -2.47379 0
M  V30 549 H 44.6672 4.17425 0.0793713 0
M  V30 550 H 46.0572 5.60917 -3.69895 0
M  V30 551 N 48.7773 0.814389 1.34928 0
M  V30 552 C 50.1933 0.499084 1.51596 0
M  V30 553 C 50.3933 -0.978319 1.76157 0
M  V30 554 O 49.4493 -1.76309 1.80752 0
M  V30 555 C 50.7623 1.35121 2.68631 0
M  V30 556 C 52.3103 1.34746 2.82511 0
M  V30 557 C 52.7853 2.18388 4.0258 0
M  V30 558 N 54.2763 2.15966 4.09772 0
M  V30 559 C 55.0113 2.77437 5.01813 0
M  V30 560 N 54.5073 3.47866 5.99134 0
M  V30 561 N 56.3003 2.67037 4.94619 0
M  V30 562 H 48.4513 1.7711 1.17243 0
M  V30 563 H 50.7143 0.754256 0.574284 0
M  V30 564 H 50.4203 2.40001 2.57085 0
M  V30 565 H 50.2943 1.00991 3.63429 0
M  V30 566 H 52.6813 0.30648 2.93504 0
M  V30 567 H 52.7623 1.72869 1.88547 0
M  V30 568 H 52.4063 3.2253 3.92347 0
M  V30 569 H 52.3363 1.77621 4.9574 0
M  V30 570 H 54.8273 1.64729 3.40107 0
M  V30 571 H 55.1403 3.92038 6.65977 0
M  V30 572 H 53.4853 3.51972 5.99284 0
M  V30 573 H 56.6763 2.11597 4.17546 0
M  V30 574 H 56.8493 3.15232 5.66156 0
M  V30 575 N 50.2554 -1.46986 0.568584 0
M  V30 576 C 51.5024 -2.02441 0.0487986 0
M  V30 577 C 51.8304 -1.44169 -1.30559 0
M  V30 578 O 51.0854 -0.591213 -1.86556 0
M  V30 579 C 51.3844 -3.57306 -0.081836 0
M  V30 580 C 51.0504 -4.34552 1.20313 0
M  V30 581 C 49.7124 -4.55376 1.5552 0
M  V30 582 C 52.0644 -4.79016 2.05411 0
M  V30 583 C 49.3924 -5.17913 2.7565 0
M  V30 584 C 51.7444 -5.42879 3.24754 0
M  V30 585 C 50.4084 -5.61933 3.60261 0
M  V30 586 H 49.6784 -0.740785 0.0178567 0
M  V30 587 H 52.3254 -1.76525 0.742384 0
M  V30 588 H 50.6304 -3.8228 -0.858463 0
M  V30 589 H 52.3274 -3.97876 -0.499546 0
M  V30 590 H 48.9174 -4.18631 0.919014 0
M  V30 591 H 53.1014 -4.62696 1.79516 0
M  V30 592 H 48.3574 -5.30858 3.03315 0
M  V30 593 H 52.5314 -5.76293 3.90973 0
M  V30 594 H 50.1584 -6.10161 4.53439 0
M  V30 595 N 51.7335 -0.305618 -1.54608 0
M  V30 596 C 52.6805 0.568421 -2.23691 0
M  V30 597 C 53.6505 1.12592 -1.22116 0
M  V30 598 O 54.8355 1.16959 -1.50749 0
M  V30 599 C 51.9755 1.7322 -2.98477 0
M  V30 600 C 51.0885 1.20566 -4.14835 0
M  V30 601 C 50.2235 2.33368 -4.77193 0
M  V30 602 C 49.2625 1.7787 -5.85686 0
M  V30 603 N 48.3995 2.84263 -6.4198 0
M  V30 604 H 53.2395 -0.0272867 -2.97988 0
M  V30 605 H 50.7765 -0.0252363 -1.47078 0
M  V30 606 H 52.7345 2.41675 -3.40072 0
M  V30 607 H 51.3645 2.29947 -2.26548 0
M  V30 608 H 50.4165 0.413223 -3.78149 0
M  V30 609 H 51.7285 0.759417 -4.92985 0
M  V30 610 H 50.8825 3.09761 -5.21664 0
M  V30 611 H 49.6215 2.8132 -3.98385 0
M  V30 612 H 48.6265 0.99968 -5.40635 0
M  V30 613 H 49.8515 1.30816 -6.66381 0
M  V30 614 H 47.7975 3.31541 -5.66053 0
M  V30 615 H 47.7145 2.44149 -7.15491 0
M  V30 616 H 48.9825 3.6054 -6.91109 0
M  V30 617 N 53.2116 1.57565 -0.0334293 0
M  V30 618 C 54.4886 1.83282 0.683163 0
M  V30 619 C 54.8686 0.91823 1.90084 0
M  V30 620 O 54.2166 -0.025113 2.28486 0
M  V30 621 C 54.4266 3.32599 1.0573 0
M  V30 622 C 55.7746 3.99179 1.44711 0
M  V30 623 O 56.7986 3.3712 1.15015 0
M  V30 624 O 55.6576 5.08565 2.0006 0
M  V30 625 H 52.7516 0.755869 0.335546 0
M  V30 626 H 55.2976 1.69589 -0.0614402 0
M  V30 627 H 54.0696 3.90834 0.190828 0
M  V30 628 H 53.6926 3.51415 1.85993 0
M  V30 629 N 54.6897 -0.239769 1.55765 0
M  V30 630 C 55.6197 -1.30052 1.9393 0
M  V30 631 C 56.6007 -1.49839 0.805132 0
M  V30 632 O 57.7857 -1.62328 1.06599 0
M  V30 633 C 54.9157 -2.65391 2.2402 0
M  V30 634 C 53.8697 -2.60289 3.39755 0
M  V30 635 C 53.1957 -3.99489 3.55405 0
M  V30 636 C 54.4957 -2.16654 4.75246 0
M  V30 637 H 56.1897 -0.983573 2.82783 0
M  V30 638 H 53.7357 -0.471701 1.36055 0
M  V30 639 H 55.6887 -3.3974 2.49308 0
M  V30 640 H 54.4127 -2.98736 1.32 0
M  V30 641 H 53.0717 -1.88398 3.14487 0
M  V30 642 H 52.7197 -4.30112 2.60793 0
M  V30 643 H 52.4197 -3.96962 4.33238 0
M  V30 644 H 53.9437 -4.75528 3.83022 0
M  V30 645 H 55.3577 -2.80737 4.99859 0
M  V30 646 H 53.7547 -2.25223 5.56232 0
M  V30 647 H 54.8247 -1.11835 4.71827 0
M  V30 648 N 56.1678 -1.49265 -0.50573 0
M  V30 649 C 57.4158 -1.582 -1.25766 0
M  V30 650 C 57.7368 -0.268482 -1.93143 0
M  V30 651 O 57.0068 0.711833 -1.8251 0
M  V30 652 H 55.5868 -0.582873 -0.467191 0
M  V30 653 H 58.2488 -1.85865 -0.586525 0
M  V30 654 H 57.3448 -2.37563 -2.02412 0
M  V30 655 N 57.6459 0.756429 -1.3826 0
M  V30 656 C 58.5559 1.9009 -1.37488 0
M  V30 657 C 59.5719 1.71855 -0.272366 0
M  V30 658 O 60.7479 1.94827 -0.510318 0
M  V30 659 C 57.8129 3.25421 -1.19592 0
M  V30 660 C 56.8739 3.56202 -2.39622 0
M  V30 661 C 56.1069 4.85075 -2.2257 0
M  V30 662 O 56.3299 5.57246 -1.21793 0
M  V30 663 O 55.2639 5.15269 -3.11098 0
M  V30 664 H 59.0899 1.93695 -2.33914 0
M  V30 665 H 56.6749 0.901313 -1.1915 0
M  V30 666 H 58.5569 4.06337 -1.11661 0
M  V30 667 H 57.2319 3.22634 -0.262486 0
M  V30 668 H 56.1389 2.75458 -2.53128 0
M  V30 669 H 57.4719 3.63747 -3.31586 0
M  V30 670 N 59.124 1.23083 0.984299 0
M  V30 671 C 60.034 1.02515 2.11016 0
M  V30 672 C 61.05 -0.0291702 1.73976 0
M  V30 673 O 62.226 0.165434 2.00719 0
M  V30 674 C 59.291 0.614673 3.41208 0
M  V30 675 C 58.352 1.74359 3.92297 0
M  V30 676 C 57.585 1.35261 5.16275 0
M  V30 677 O 57.808 0.235136 5.69915 0
M  V30 678 O 56.742 2.17227 5.61334 0
M  V30 679 H 60.568 1.96862 2.31255 0
M  V30 680 H 58.153 1.01753 1.09392 0
M  V30 681 H 60.035 0.396518 4.1953 0
M  V30 682 H 58.71 -0.299851 3.22308 0
M  V30 683 H 57.617 2.01635 3.1511 0
M  V30 684 H 58.95 2.63629 4.15645 0
M  V30 685 N 60.6021 -1.18246 1.0419 0
M  V30 686 C 61.5501 -2.23968 0.627792 0
M  V30 687 C 62.5441 -1.65828 -0.346019 0
M  V30 688 O 63.7501 -1.78733 -0.213175 0
M  V30 689 H 60.1251 -0.728939 0.184802 0
M  V30 690 H 62.0961 -2.56202 1.52981 0
M  V30 691 C 60.8451 -3.47699 0.00796591 0
M  V30 692 H 60.1681 -3.92734 0.748347 0
M  V30 693 H 61.6081 -4.23294 -0.24455 0
M  V30 694 C 60.0671 -3.13153 -1.24246 0
M  V30 695 O 60.5971 -3.27003 -2.33307 0
M  V30 696 N 58.8031 -2.67467 -1.13622 0
M  V30 697 H 58.3501 -2.56396 -0.248734 0
M  V30 698 H 58.3081 -2.44724 -1.97377 0
M  V30 699 N 62.0802 -0.821533 -1.34494 0
M  V30 700 C 63.3272 -0.408946 -1.98328 0
M  V30 701 C 63.6552 1.02764 -1.65136 0
M  V30 702 O 62.9102 1.73026 -0.914349 0
M  V30 703 C 63.2092 -0.556512 -3.53041 0
M  V30 704 C 62.8752 -1.95861 -4.0614 0
M  V30 705 C 61.5372 -2.34217 -4.20352 0
M  V30 706 C 63.8892 -2.87523 -4.34718 0
M  V30 707 C 61.2172 -3.63572 -4.6047 0
M  V30 708 C 63.5692 -4.1634 -4.76281 0
M  V30 709 C 62.2332 -4.54675 -4.88699 0
M  V30 710 H 61.5032 -0.149644 -0.725732 0
M  V30 711 H 64.1502 -1.04521 -1.6046 0
M  V30 712 H 62.4552 0.163148 -3.9146 0
M  V30 713 H 64.1522 -0.217826 -4.00408 0
M  V30 714 H 60.7422 -1.65066 -3.95539 0
M  V30 715 H 64.9262 -2.59133 -4.23277 0
M  V30 716 H 60.1822 -3.93101 -4.68275 0
M  V30 717 H 64.3562 -4.87455 -4.97354 0
M  V30 718 H 61.9832 -5.54959 -5.19542 0
M  V30 719 N 63.5583 1.46682 -0.576371 0
M  V30 720 C 64.5053 2.30241 0.160499 0
M  V30 721 C 65.4753 1.40233 0.890162 0
M  V30 722 O 66.6603 1.69186 0.882084 0
M  V30 723 C 63.8003 3.24578 1.1723 0
M  V30 724 C 62.9133 4.29684 0.446736 0
M  V30 725 C 62.0483 5.11154 1.44551 0
M  V30 726 C 61.0873 6.08015 0.70599 0
M  V30 727 N 60.2243 6.82376 1.65251 0
M  V30 728 H 65.0643 2.92727 -0.558127 0
M  V30 729 H 62.6013 1.44272 -0.287056 0
M  V30 730 H 64.5593 3.77711 1.77172 0
M  V30 731 H 63.1893 2.63916 1.85872 0
M  V30 732 H 62.2413 3.79458 -0.267594 0
M  V30 733 H 63.5533 4.98626 -0.131686 0
M  V30 734 H 62.7073 5.68533 2.11791 0
M  V30 735 H 61.4463 4.42158 2.05786 0
M  V30 736 H 60.4513 5.49796 0.0197725 0
M  V30 737 H 61.6763 6.79028 0.09912 0
M  V30 738 H 59.6223 6.16094 2.25308 0
M  V30 739 H 59.5393 7.47556 1.12673 0
M  V30 740 H 60.8073 7.44316 2.31546 0
M  V30 741 N 65.0364 0.313813 1.54444 0
M  V30 742 C 65.9994 -0.54379 2.22656 0
M  V30 743 C 66.9994 -1.05124 1.21678 0
M  V30 744 O 68.1894 -0.945225 1.46325 0
M  V30 745 C 65.3214 -1.75427 2.92298 0
M  V30 746 H 66.5144 0.0523599 2.99854 0
M  V30 747 H 64.0674 0.0647834 1.56166 0
M  V30 748 H 64.8024 -2.38991 2.19211 0
M  V30 749 H 64.5874 -1.39791 3.66334 0
M  V30 750 H 66.0774 -2.36325 3.44297 0
M  V30 751 N 66.5145 -1.57545 0.0417849 0
M  V30 752 C 67.4445 -2.14009 -0.933929 0
M  V30 753 C 68.4255 -1.05938 -1.33083 0
M  V30 754 O 69.6105 -1.33833 -1.40721 0
M  V30 755 C 66.7405 -2.67747 -2.21199 0
M  V30 756 C 65.6945 -3.80718 -1.95544 0
M  V30 757 C 65.0205 -4.20935 -3.29724 0
M  V30 758 C 66.3205 -5.06258 -1.28452 0
M  V30 759 H 68.0145 -2.95788 -0.463645 0
M  V30 760 H 65.5605 -1.42285 -0.221573 0
M  V30 761 H 67.5135 -3.05886 -2.89848 0
M  V30 762 H 66.2375 -1.83147 -2.70416 0
M  V30 763 H 64.8965 -3.43037 -1.2931 0
M  V30 764 H 64.5445 -3.33298 -3.76724 0
M  V30 765 H 64.2445 -4.9707 -3.13361 0
M  V30 766 H 65.7685 -4.61666 -3.9962 0
M  V30 767 H 67.1825 -5.41903 -1.8712 0
M  V30 768 H 65.5795 -5.87475 -1.22445 0
M  V30 769 H 66.6495 -4.84207 -0.259219 0
M  V30 770 N 67.9926 0.231505 -1.5589 0
M  V30 771 C 69.2386 0.95877 -1.78705 0
M  V30 772 C 69.5716 1.8438 -0.609725 0
M  V30 773 O 68.8466 1.90521 0.391426 0
M  V30 774 C 69.1296 1.8062 -3.11526 0
M  V30 775 C 68.9826 0.948328 -4.39689 0
M  V30 776 C 70.3016 2.78585 -3.40703 0
M  V30 777 H 67.4206 0.347129 -0.650131 0
M  V30 778 H 70.0626 0.228259 -1.88624 0
M  V30 779 H 68.2126 2.42902 -3.03201 0
M  V30 780 H 69.8846 0.343016 -4.60023 0
M  V30 781 H 68.1276 0.253314 -4.3306 0
M  V30 782 H 68.7986 1.57543 -5.29041 0
M  V30 783 H 71.2746 2.26439 -3.49091 0
M  V30 784 H 70.1506 3.34988 -4.34826 0
M  V30 785 H 70.4116 3.55825 -2.62375 0
M  V30 786 N 69.4707 1.49531 0.497807 0
M  V30 787 C 70.4007 1.6935 1.60757 0
M  V30 788 C 71.3817 0.542218 1.61227 0
M  V30 789 O 72.5667 0.778417 1.77917 0
M  V30 790 C 69.6967 1.76298 2.99226 0
M  V30 791 C 68.6507 2.91248 3.13622 0
M  V30 792 C 67.9767 2.83312 4.53474 0
M  V30 793 C 69.2767 4.3214 2.93346 0
M  V30 794 H 70.9707 2.62263 1.44425 0
M  V30 795 H 68.5167 1.26208 0.693367 0
M  V30 796 H 70.4697 1.88749 3.76765 0
M  V30 797 H 69.1937 0.799871 3.16654 0
M  V30 798 H 67.8527 2.78404 2.38509 0
M  V30 799 H 67.5007 1.84902 4.67782 0
M  V30 800 H 67.2007 3.60465 4.64046 0
M  V30 801 H 68.7247 2.97775 5.33069 0
M  V30 802 H 70.1387 4.45649 3.60652 0
M  V30 803 H 68.5357 5.1054 3.15387 0
M  V30 804 H 69.6057 4.46363 1.89441 0
M  V30 805 N 70.9488 -0.749086 1.3866 0
M  V30 806 C 72.1978 -1.50371 1.3443 0
M  V30 807 C 72.5108 -1.95503 -0.0616397 0
M  V30 808 O 73.7168 -2.70554 -0.226489 0
M  V30 809 C 72.1728 -2.71644 2.36088 0
M  V30 810 C 71.7808 -2.3352 3.82325 0
M  V30 811 C 73.5248 -3.49518 2.40909 0
M  V30 812 C 71.4318 -3.51431 4.75658 0
M  V30 813 H 70.3618 -0.564628 0.499712 0
M  V30 814 H 73.0128 -0.818449 1.64237 0
M  V30 815 H 71.3948 -3.42175 1.9933 0
M  V30 816 H 72.5688 -1.70627 4.28046 0
M  V30 817 H 70.8838 -1.6877 3.80665 0
M  V30 818 H 73.4808 -4.37197 3.07836 0
M  V30 819 H 73.8238 -3.90992 1.42937 0
M  V30 820 H 74.3568 -2.86005 2.76489 0
M  V30 821 H 71.0958 -3.15019 5.74842 0
M  V30 822 H 70.6158 -4.13352 4.34627 0
M  V30 823 H 72.2948 -4.17953 4.93887 0
M  V30 824 N 72.4269 -1.23603 -0.977757 0
M  V30 825 C 73.3899 -1.02069 -2.05218 0
M  V30 826 C 74.3899 0.0184305 -1.60789 0
M  V30 827 O 75.5799 -0.221569 -1.72785 0
M  V30 828 C 72.7119 -0.544926 -3.36517 0
M  V30 829 H 73.9049 -1.9742 -2.25755 0
M  V30 830 H 71.4579 -1.05684 -1.15155 0
M  V30 831 H 72.1929 0.412241 -3.21669 0
M  V30 832 H 71.9779 -1.2948 -3.70105 0
M  V30 833 H 73.4679 -0.414985 -4.15533 0
M  V30 834 N 73.905 1.17692 -1.04816 0
M  V30 835 C 75.152 1.87859 -0.75599 0
M  V30 836 C 75.48 1.80812 0.716752 0
M  V30 837 O 74.735 1.20819 1.53952 0
M  V30 838 C 75.034 3.37462 -1.17703 0
M  V30 839 C 74.7 3.64713 -2.65133 0
M  V30 840 C 73.362 3.71859 -3.05408 0
M  V30 841 C 75.714 3.76492 -3.60421 0
M  V30 842 C 73.042 3.88271 -4.39843 0
M  V30 843 C 75.394 3.94421 -4.94585 0
M  V30 844 C 74.058 3.99806 -5.3452 0
M  V30 845 H 73.328 0.687425 -0.276636 0
M  V30 846 H 75.975 1.39255 -1.31455 0
M  V30 847 H 74.28 3.88097 -0.537395 0
M  V30 848 H 75.977 3.90109 -0.928218 0
M  V30 849 H 72.567 3.59772 -2.32942 0
M  V30 850 H 76.751 3.70295 -3.30447 0
M  V30 851 H 72.007 3.90687 -4.70291 0
M  V30 852 H 76.181 4.02477 -5.68318 0
M  V30 853 H 73.808 4.12276 -6.38696 0
M  V30 854 N 75.3831 0.828654 1.34056 0
M  V30 855 C 76.3461 0.259927 2.27721 0
M  V30 856 C 77.3461 -0.565478 1.50529 0
M  V30 857 O 78.5361 -0.38075 1.69988 0
M  V30 858 C 75.6681 -0.634944 3.34935 0
M  V30 859 H 76.8611 1.0863 2.79534 0
M  V30 860 H 74.4141 0.600951 1.44285 0
M  V30 861 H 75.1491 -1.48416 2.88346 0
M  V30 862 H 74.9341 -0.0444999 3.92075 0
M  V30 863 H 76.4241 -1.02648 4.04788 0
M  V30 864 N 76.8612 -1.46375 0.584142 0
M  V30 865 C 77.7932 -2.28443 -0.186119 0
M  V30 866 C 78.8062 -1.38596 -0.854115 0
M  V30 867 O 79.9952 -1.63183 -0.723438 0
M  V30 868 C 77.0952 -3.13671 -1.28311 0
M  V30 869 C 76.2682 -4.31652 -0.706758 0
M  V30 870 C 75.3272 -4.98267 -1.69163 0
M  V30 871 O 74.3532 -5.55815 -1.22712 0
M  V30 872 N 75.5552 -4.95408 -3.02575 0
M  V30 873 H 78.3202 -2.9519 0.517986 0
M  V30 874 H 75.8812 -1.56303 0.42201 0
M  V30 875 H 77.8732 -3.55101 -1.94128 0
M  V30 876 H 76.4432 -2.48989 -1.89005 0
M  V30 877 H 75.6632 -3.93989 0.128908 0
M  V30 878 H 76.9512 -5.07906 -0.301506 0
M  V30 879 H 76.3492 -4.49902 -3.42936 0
M  V30 880 H 74.9062 -5.40774 -3.63877 0
M  V30 881 N 78.3393 -0.321999 -1.54275 0
M  V30 882 C 79.5693 0.282642 -2.04658 0
M  V30 883 C 79.9773 1.46453 -1.19784 0
M  V30 884 O 79.3203 1.82367 -0.220932 0
M  V30 885 C 79.3823 0.781857 -3.50895 0
M  V30 886 C 79.0463 -0.277517 -4.56157 0
M  V30 887 C 80.0433 -1.11307 -5.07845 0
M  V30 888 C 77.7283 -0.425256 -5.00497 0
M  V30 889 C 79.7223 -2.08211 -6.02434 0
M  V30 890 C 77.4093 -1.39771 -5.94901 0
M  V30 891 C 78.4073 -2.2246 -6.45756 0
M  V30 892 O 78.0953 -3.18054 -7.38307 0
M  V30 893 H 77.8273 0.0622636 -0.673126 0
M  V30 894 H 80.3813 -0.465792 -2.00049 0
M  V30 895 H 78.6113 1.58118 -3.52896 0
M  V30 896 H 80.3003 1.30467 -3.84361 0
M  V30 897 H 81.0663 -1.00991 -4.74369 0
M  V30 898 H 76.9453 0.20847 -4.60528 0
M  V30 899 H 80.4893 -2.72791 -6.42052 0
M  V30 900 H 76.3863 -1.50152 -6.27794 0
M  V30 901 H 77.1543 -3.13275 -7.56175 0
M  V30 902 N 79.8174 1.5752 -0.0501392 0
M  V30 903 C 80.7474 2.14502 0.922566 0
M  V30 904 C 81.7284 1.06642 1.3252 0
M  V30 905 O 82.9134 1.34577 1.4001 0
M  V30 906 C 80.0434 2.68916 2.19776 0
M  V30 907 C 78.9974 3.8175 1.93523 0
M  V30 908 C 78.3234 4.22677 3.27487 0
M  V30 909 C 79.6234 5.06932 1.25765 0
M  V30 910 H 81.3174 2.9603 0.447952 0
M  V30 911 H 78.8634 1.42401 0.214024 0
M  V30 912 H 80.8164 3.07419 2.88222 0
M  V30 913 H 79.5404 1.84578 2.69441 0
M  V30 914 H 78.1994 3.43718 1.27489 0
M  V30 915 H 77.8474 3.35291 3.74952 0
M  V30 916 H 77.5474 4.98725 3.1072 0
M  V30 917 H 79.0714 4.63779 3.97166 0
M  V30 918 H 80.4854 5.42888 1.84244 0
M  V30 919 H 78.8824 5.88116 1.19328 0
M  V30 920 H 79.9524 4.84337 0.233536 0
M  V30 921 N 81.2955 -0.223234 1.56011 0
M  V30 922 C 82.2275 -1.30006 1.88762 0
M  V30 923 C 83.2405 -1.43129 0.775746 0
M  V30 924 O 84.4295 -1.44057 1.05403 0
M  V30 925 C 81.5295 -2.67589 2.07965 0
M  V30 926 C 80.7025 -2.76434 3.38973 0
M  V30 927 C 79.7615 -3.95019 3.47629 0
M  V30 928 O 78.7875 -3.83436 4.20672 0
M  V30 929 N 79.9895 -5.09249 2.78649 0
M  V30 930 H 82.7545 -1.02238 2.81722 0
M  V30 931 H 80.3155 -0.413278 1.56536 0
M  V30 932 H 82.3075 -3.45297 2.11073 0
M  V30 933 H 80.8775 -2.87964 1.21638 0
M  V30 934 H 80.0975 -1.85216 3.47978 0
M  V30 935 H 81.3855 -2.79313 4.25278 0
M  V30 936 H 80.7835 -5.21556 2.19081 0
M  V30 937 H 79.3405 -5.85007 2.8742 0
M  V30 938 N 82.7736 -1.49793 -0.48987 0
M  V30 939 C 83.7056 -1.63413 -1.60713 0
M  V30 940 C 84.7186 -0.516329 -1.54395 0
M  V30 941 O 85.9076 -0.788812 -1.60125 0
M  V30 942 C 83.0076 -1.58516 -2.99543 0
M  V30 943 C 82.1806 -2.86016 -3.30928 0
M  V30 944 C 81.2396 -2.74018 -4.49222 0
M  V30 945 O 80.2656 -3.47964 -4.50455 0
M  V30 946 N 81.4676 -1.86309 -5.4979 0
M  V30 947 H 84.2326 -2.59777 -1.49452 0
M  V30 948 H 81.7936 -1.47022 -0.677955 0
M  V30 949 H 83.7856 -1.48128 -3.76617 0
M  V30 950 H 82.3556 -0.69965 -3.0467 0
M  V30 951 H 81.5756 -3.10672 -2.42645 0
M  V30 952 H 82.8636 -3.70521 -3.487 0
M  V30 953 H 82.2616 -1.2551 -5.51601 0
M  V30 954 H 80.8186 -1.81837 -6.25922 0
M  V30 955 N 84.2517 0.741722 -1.39055 0
M  V30 956 C 85.4917 1.51385 -1.37338 0
M  V30 957 C 85.8557 1.91972 0.0330513 0
M  V30 958 O 87.0567 2.68229 0.175174 0
M  V30 959 C 85.3277 2.72481 -2.31276 0
M  V30 960 S 86.8867 3.62211 -2.47687 0
M  V30 961 H 83.7047 0.517906 -0.487129 0
M  V30 962 H 86.3067 0.86969 -1.7509 0
M  V30 963 H 85.0107 2.40793 -3.32336 0
M  V30 964 H 84.5417 3.41832 -1.94716 0
M  V30 965 H 86.5567 4.65812 -1.70978 0
M  V30 966 N 85.7298 1.2412 0.971189 0
M  V30 967 C 87.1408 1.07236 1.52831 0
M  V30 968 C 87.4918 -0.357352 1.92918 0
M  V30 969 O 86.6168 -1.24528 1.76979 0
M  V30 970 C 87.2118 1.94043 2.77728 0
M  V30 971 C 85.7708 1.81394 3.29808 0
M  V30 972 C 84.9178 1.89189 2.02738 0
M  V30 973 H 87.8688 1.37648 0.789864 0
M  V30 974 H 87.8898 1.47066 3.5093 0
M  V30 975 H 87.4018 2.98093 2.4852 0
M  V30 976 H 85.5028 0.801634 3.63874 0
M  V30 977 H 85.6158 2.65294 3.98944 0
M  V30 978 H 83.9798 1.32877 2.17292 0
M  V30 979 H 84.7628 2.94812 1.759 0
M  V30 980 N 87.2079 -1.17134 1.05439 0
M  V30 981 C 88.4549 -1.87456 0.765942 0
M  V30 982 C 88.7829 -1.81189 -0.707153 0
M  V30 983 O 88.0379 -1.21633 -1.5331 0
M  V30 984 C 88.3369 -3.36833 1.19491 0
M  V30 985 C 88.0029 -3.63301 2.67063 0
M  V30 986 C 86.6649 -3.70234 3.07376 0
M  V30 987 C 89.0169 -3.74575 3.62413 0
M  V30 988 C 86.3449 -3.85933 4.41896 0
M  V30 989 C 88.6969 -3.91793 4.9667 0
M  V30 990 C 87.3609 -3.96966 5.36633 0
M  V30 991 H 86.6309 -0.685948 0.280278 0
M  V30 992 H 89.2779 -1.38556 1.32192 0
M  V30 993 H 87.5829 -3.87807 0.557969 0
M  V30 994 H 89.2799 -3.89611 0.948893 0
M  V30 995 H 85.8699 -3.58532 2.34846 0
M  V30 996 H 90.0539 -3.68537 3.32406 0
M  V30 997 H 85.3099 -3.88187 4.72357 0
M  V30 998 H 89.4839 -3.99458 5.70444 0
M  V30 999 H 87.1109 -4.08883 6.40874 0
M  V30 1000 N 88.686 -0.835752 -1.33615 0
M  V30 1001 C 89.596 -0.269088 -2.33052 0
M  V30 1002 C 90.612 0.603251 -1.63208 0
M  V30 1003 O 91.788 0.508112 -1.94885 0
M  V30 1004 C 88.853 0.549091 -3.42324 0
M  V30 1005 C 87.914 -0.347156 -4.27894 0
M  V30 1006 C 87.147 0.43207 -5.31948 0
M  V30 1007 O 87.37 1.66409 -5.45586 0
M  V30 1008 O 86.304 -0.192298 -6.01593 0
M  V30 1009 H 90.13 -1.09243 -2.83372 0
M  V30 1010 H 87.715 -0.598198 -1.36901 0
M  V30 1011 H 89.597 1.01414 -4.09015 0
M  V30 1012 H 88.272 1.34955 -2.94226 0
M  V30 1013 H 87.179 -0.859979 -3.64081 0
M  V30 1014 H 88.512 -1.1123 -4.79467 0
M  V30 1015 N 90.1641 1.46063 -0.591896 0
M  V30 1016 C 91.4411 1.95595 -0.0137119 0
M  V30 1017 C 91.8211 1.5345 1.4497 0
M  V30 1018 O 91.1691 0.789543 2.14426 0
M  V30 1019 C 91.3791 3.48453 -0.195373 0
M  V30 1020 C 92.7271 4.24546 -0.0679765 0
M  V30 1021 O 93.7511 3.55982 -0.124681 0
M  V30 1022 O 92.6101 5.46467 0.0600579 0
M  V30 1023 H 89.7041 0.825795 0.0446279 0
M  V30 1024 H 92.2501 1.56303 -0.660859 0
M  V30 1025 H 91.0221 3.72045 -1.21235 0
M  V30 1026 H 90.6451 3.94597 0.487775 0
M  V30 1027 N 91.6422 0.330177 1.54103 0
M  V30 1028 C 92.5922 -0.548456 2.21305 0
M  V30 1029 C 93.5762 -1.07651 1.19583 0
M  V30 1030 O 94.7682 -1.01243 1.45186 0
M  V30 1031 C 91.8972 -1.70559 2.97934 0
M  V30 1032 C 90.9832 -1.19212 4.07 0
M  V30 1033 N 91.3742 -0.398831 5.04225 0
M  V30 1034 C 89.6722 -1.47024 4.2107 0
M  V30 1035 C 90.3732 -0.121761 5.81573 0
M  V30 1036 N 89.3492 -0.709722 5.38947 0
M  V30 1037 H 93.1512 0.0648483 2.93828 0
M  V30 1038 H 90.6652 0.136363 1.61826 0
M  V30 1039 H 92.6622 -2.34688 3.44568 0
M  V30 1040 H 91.3222 -2.32231 2.26934 0
M  V30 1041 H 92.3332 -0.0410869 5.17884 0
M  V30 1042 H 89.0102 -2.09232 3.61287 0
M  V30 1043 H 90.4002 0.517298 6.69906 0
M  V30 1044 N 93.1203 -1.57491 0.0584922 0
M  V30 1045 C 94.3663 -1.93264 -0.614558 0
M  V30 1046 C 94.6993 -0.937717 -1.7006 0
M  V30 1047 O 93.9743 0.0351652 -1.94468 0
M  V30 1048 C 94.2573 -3.3938 -1.20386 0
M  V30 1049 C 94.1103 -4.49625 -0.125375 0
M  V30 1050 C 95.4293 -3.86039 -2.11334 0
M  V30 1051 H 92.5483 -0.702791 -0.221933 0
M  V30 1052 H 95.1903 -1.8961 0.12175 0
M  V30 1053 H 93.3403 -3.42626 -1.83139 0
M  V30 1054 H 95.0123 -4.58506 0.506971 0
M  V30 1055 H 93.2553 -4.30354 0.545672 0
M  V30 1056 H 93.9263 -5.48967 -0.577861 0
M  V30 1057 H 96.4023 -3.84716 -1.58534 0
M  V30 1058 H 95.2783 -4.88914 -2.49507 0
M  V30 1059 H 95.5393 -3.23215 -3.01636 0
M  V30 1060 N 94.5984 0.214957 -1.56127 0
M  V30 1061 C 95.5454 1.26642 -1.92952 0
M  V30 1062 C 96.5154 1.46244 -0.78753 0
M  V30 1063 O 97.7004 1.59704 -1.04399 0
M  V30 1064 C 94.8404 2.6104 -2.25726 0
M  V30 1065 C 93.9534 2.49183 -3.52891 0
M  V30 1066 C 93.0884 3.76149 -3.7508 0
M  V30 1067 C 92.1274 3.59041 -4.95738 0
M  V30 1068 N 91.2644 4.77972 -5.14283 0
M  V30 1069 H 96.1044 0.945384 -2.82607 0
M  V30 1070 H 93.6414 0.455489 -1.3987 0
M  V30 1071 H 95.5994 3.39313 -2.42739 0
M  V30 1072 H 94.2294 2.91227 -1.39236 0
M  V30 1073 H 93.2814 1.6231 -3.44034 0
M  V30 1074 H 94.5934 2.32466 -4.41318 0
M  V30 1075 H 93.7474 4.62865 -3.92226 0
M  V30 1076 H 92.4864 3.95799 -2.84947 0
M  V30 1077 H 91.4914 2.7071 -4.78535 0
M  V30 1078 H 92.7164 3.40856 -5.87362 0
M  V30 1079 H 90.6624 4.97923 -4.27093 0
M  V30 1080 H 90.5794 4.64006 -5.96853 0
M  V30 1081 H 91.8474 5.66096 -5.35869 0
M  V30 1082 N 96.0765 1.50051 0.48192 0
M  V30 1083 C 97.0065 1.71046 1.58951 0
M  V30 1084 C 97.9875 0.559288 1.60642 0
M  V30 1085 O 99.1725 0.797243 1.77081 0
M  V30 1086 C 96.3025 1.79462 2.97339 0
M  V30 1087 C 95.2565 2.94558 3.10515 0
M  V30 1088 C 94.5825 2.88105 4.50444 0
M  V30 1089 C 95.8825 4.35227 2.88747 0
M  V30 1090 H 97.5765 2.6378 1.41635 0
M  V30 1091 H 95.1225 1.26936 0.679942 0
M  V30 1092 H 97.0755 1.92734 3.74742 0
M  V30 1093 H 95.7995 0.833412 3.15788 0
M  V30 1094 H 94.4585 2.80918 2.35543 0
M  V30 1095 H 94.1065 1.89853 4.65795 0
M  V30 1096 H 93.8065 3.65366 4.60197 0
M  V30 1097 H 95.3305 3.03412 5.29881 0
M  V30 1098 H 96.7445 4.49449 3.55905 0
M  V30 1099 H 95.1415 5.13856 3.09955 0
M  V30 1100 H 96.2115 4.48347 1.84696 0
M  V30 1101 N 97.5546 -0.734337 1.39446 0
M  V30 1102 C 98.8006 -1.49613 1.36908 0
M  V30 1103 C 99.1336 -1.94169 -0.0347829 0
M  V30 1104 O 98.4086 -1.66833 -0.999847 0
M  V30 1105 C 98.6916 -2.73534 2.34203 0
M  V30 1106 C 98.5446 -2.34993 3.83534 0
M  V30 1107 C 99.8636 -3.75635 2.29317 0
M  V30 1108 H 96.9826 -0.542714 0.498629 0
M  V30 1109 H 99.6246 -0.839597 1.70443 0
M  V30 1110 H 97.7746 -3.29553 2.05736 0
M  V30 1111 H 99.4466 -1.84601 4.22753 0
M  V30 1112 H 97.6896 -1.67213 4.00278 0
M  V30 1113 H 98.3606 -3.23738 4.47099 0
M  V30 1114 H 100.837 -3.29203 2.54489 0
M  V30 1115 H 99.7126 -4.60008 2.99472 0
M  V30 1116 H 99.9736 -4.22603 1.29842 0
M  V30 1117 N 99.0327 -1.24633 -0.964593 0
M  V30 1118 C 99.9807 -1.03917 -2.08096 0
M  V30 1119 C 100.975 0.0268581 -1.69379 0
M  V30 1120 O 102.181 -0.127952 -1.79545 0
M  V30 1121 H 98.5557 -0.319044 -0.680966 0
M  V30 1122 H 100.527 -1.98581 -2.22729 0
M  V30 1123 C 99.2757 -0.663983 -3.41301 0
M  V30 1124 H 98.5987 -1.47605 -3.71555 0
M  V30 1125 H 100.039 -0.558663 -4.20303 0
M  V30 1126 C 98.4977 0.629169 -3.30973 0
M  V30 1127 O 99.0277 1.67404 -3.65156 0
M  V30 1128 N 97.2337 0.611057 -2.84103 0
M  V30 1129 H 96.7807 -0.239593 -2.56483 0
M  V30 1130 H 96.7387 1.47647 -2.77575 0
M  V30 1131 N 100.511 1.16574 -1.06058 0
M  V30 1132 C 101.421 2.2452 -0.680282 0
M  V30 1133 C 102.437 1.71348 0.302604 0
M  V30 1134 O 103.613 2.00822 0.152513 0
M  V30 1135 C 100.678 3.46629 -0.0700315 0
M  V30 1136 C 99.7388 4.14849 -1.10448 0
M  V30 1137 C 98.9718 5.31129 -0.523256 0
M  V30 1138 O 99.1948 5.66514 0.664709 0
M  V30 1139 O 98.1288 5.88526 -1.26179 0
M  V30 1140 H 101.955 2.59355 -1.58015 0
M  V30 1141 H 99.5398 1.24043 -0.832694 0
M  V30 1142 H 101.422 4.20543 0.268667 0
M  V30 1143 H 100.097 3.13573 0.803353 0
M  V30 1144 H 99.0038 3.42916 -1.49532 0
M  V30 1145 H 100.337 4.51954 -1.94931 0
M  V30 1146 N 101.989 0.842826 1.3317 0
M  V30 1147 C 103.235 0.441099 1.97945 0
M  V30 1148 C 103.568 -0.998024 1.66593 0
M  V30 1149 O 102.843 -1.69839 0.947898 0
M  V30 1150 C 103.126 0.666841 3.53872 0
M  V30 1151 C 102.979 2.15352 3.94897 0
M  V30 1152 C 104.298 0.115544 4.39948 0
M  V30 1153 H 101.417 0.161739 0.719034 0
M  V30 1154 H 104.059 1.05907 1.57746 0
M  V30 1155 H 102.209 0.140828 3.88245 0
M  V30 1156 H 103.881 2.7447 3.70761 0
M  V30 1157 H 102.124 2.63653 3.44484 0
M  V30 1158 H 102.795 2.26221 5.03516 0
M  V30 1159 H 105.271 0.565213 4.12243 0
M  V30 1160 H 104.147 0.303152 5.48062 0
M  V30 1161 H 104.408 -0.980935 4.3108 0
M  V30 1162 N 103.467 -1.45747 0.599634 0
M  V30 1163 C 104.695 -2.06668 0.0978551 0
M  V30 1164 C 105.11 -1.44562 -1.21439 0
M  V30 1165 O 104.467 -0.556923 -1.73795 0
M  V30 1166 C 104.518 -3.61456 -0.0567044 0
M  V30 1167 O 104.239 -4.21242 1.20361 0
M  V30 1168 C 105.74 -4.39345 -0.590869 0
M  V30 1169 H 102.96 -0.667825 0.0651943 0
M  V30 1170 H 105.504 -1.87115 0.82511 0
M  V30 1171 H 103.659 -3.80378 -0.734251 0
M  V30 1172 H 104.073 -5.14323 1.02821 0
M  V30 1173 H 105.547 -5.48182 -0.648131 0
M  V30 1174 H 106.024 -4.08568 -1.61147 0
M  V30 1175 H 106.63 -4.25268 0.0523679 0
M  V30 1176 N 104.945 -0.338344 -1.53925 0
M  V30 1177 C 105.855 0.529421 -2.28548 0
M  V30 1178 C 106.871 1.11645 -1.3346 0
M  V30 1179 O 108.047 1.13325 -1.66492 0
M  V30 1180 C 105.112 1.66713 -3.03987 0
M  V30 1181 C 104.173 1.11041 -4.14691 0
M  V30 1182 C 103.406 2.19389 -4.86522 0
M  V30 1183 O 103.629 3.40013 -4.57982 0
M  V30 1184 O 102.563 1.83976 -5.73094 0
M  V30 1185 H 106.389 -0.0770399 -3.03602 0
M  V30 1186 H 103.974 -0.103555 -1.49041 0
M  V30 1187 H 105.856 2.32918 -3.5118 0
M  V30 1188 H 104.531 2.25949 -2.31794 0
M  V30 1189 H 103.438 0.413024 -3.71813 0
M  V30 1190 H 104.771 0.562975 -4.8897 0
M  V30 1191 N 106.423 1.57458 -0.0668435 0
M  V30 1192 C 107.67 1.93301 0.603406 0
M  V30 1193 C 107.998 0.946486 1.69917 0
M  V30 1194 O 107.253 -0.0387021 1.95662 0
M  V30 1195 C 107.552 3.35784 1.22409 0
M  V30 1196 C 107.218 4.50179 0.254955 0
M  V30 1197 C 105.88 4.81199 -0.0116746 0
M  V30 1198 C 108.232 5.19598 -0.408338 0
M  V30 1199 C 105.56 5.78978 -0.94877 0
M  V30 1200 C 107.912 6.18381 -1.33372 0
M  V30 1201 C 106.576 6.47821 -1.60887 0
M  V30 1202 H 105.846 0.707338 0.220802 0
M  V30 1203 H 108.493 1.91012 -0.136665 0
M  V30 1204 H 106.798 3.34515 2.03978 0
M  V30 1205 H 108.495 3.60804 1.74989 0
M  V30 1206 H 105.085 4.25983 0.472954 0
M  V30 1207 H 109.269 4.95832 -0.215456 0
M  V30 1208 H 104.525 6.00115 -1.16925 0
M  V30 1209 H 108.699 6.71277 -1.85367 0
M  V30 1210 H 106.326 7.23399 -2.33661 0
M  V30 1211 N 107.901 -0.206675 1.56239 0
M  V30 1212 C 108.864 -1.23976 1.92776 0
M  V30 1213 C 109.864 -1.39041 0.807729 0
M  V30 1214 O 111.054 -1.37051 1.0753 0
M  V30 1215 C 108.186 -2.61112 2.19165 0
M  V30 1216 H 109.379 -0.927764 2.85189 0
M  V30 1217 H 106.932 -0.447718 1.4975 0
M  V30 1218 H 107.667 -2.97386 1.29352 0
M  V30 1219 H 107.452 -2.51552 3.00772 0
M  V30 1220 H 108.942 -3.35633 2.48476 0
M  V30 1221 N 109.379 -1.50304 -0.473955 0
M  V30 1222 C 110.326 -1.68959 -1.57231 0
M  V30 1223 C 111.296 -0.530899 -1.57387 0
M  V30 1224 O 112.481 -0.761133 -1.74961 0
M  V30 1225 C 109.621 -1.7871 -2.95223 0
M  V30 1226 C 108.734 -3.06061 -3.04878 0
M  V30 1227 C 107.869 -3.06626 -4.33767 0
M  V30 1228 C 106.908 -4.28443 -4.37154 0
M  V30 1229 N 106.045 -4.26763 -5.5751 0
M  V30 1230 H 110.885 -2.6273 -1.40631 0
M  V30 1231 H 108.422 -1.30241 -0.683789 0
M  V30 1232 H 110.38 -1.82344 -3.75242 0
M  V30 1233 H 109.01 -0.883806 -3.10465 0
M  V30 1234 H 108.062 -3.11911 -2.17751 0
M  V30 1235 H 109.374 -3.96039 -3.0324 0
M  V30 1236 H 108.528 -3.08973 -5.22131 0
M  V30 1237 H 107.267 -2.14473 -4.3801 0
M  V30 1238 H 106.272 -4.2631 -3.47188 0
M  V30 1239 H 107.497 -5.2182 -4.34605 0
M  V30 1240 H 105.443 -3.37462 -5.62544 0
M  V30 1241 H 105.36 -5.10507 -5.57601 0
M  V30 1242 H 106.628 -4.33253 -6.48006 0
M  V30 1243 N 110.857 0.726932 -1.39834 0
M  V30 1244 C 112.085 1.51613 -1.40787 0
M  V30 1245 C 112.5 1.88799 -0.00451505 0
M  V30 1246 O 111.857 1.54662 0.968809 0
M  V30 1247 C 111.908 2.79863 -2.28821 0
M  V30 1248 O 111.629 2.44253 -3.63692 0
M  V30 1249 C 113.13 3.73837 -2.38245 0
M  V30 1250 H 110.35 0.468264 -0.480593 0
M  V30 1251 H 112.894 0.897607 -1.83748 0
M  V30 1252 H 111.049 3.38027 -1.89252 0
M  V30 1253 H 111.463 3.26695 -4.1033 0
M  V30 1254 H 112.937 4.60699 -3.04073 0
M  V30 1255 H 113.414 4.16153 -1.40403 0
M  V30 1256 H 114.02 3.21589 -2.78317 0
M  V30 1257 N 112.336 1.25143 0.95797 0
M  V30 1258 C 113.576 1.10893 1.71703 0
M  V30 1259 C 113.94 -0.34478 1.88879 0
M  V30 1260 O 115.141 -0.609014 2.6181 0
M  V30 1261 C 113.412 1.83889 3.06463 0
M  V30 1262 S 114.971 1.85491 3.97666 0
M  V30 1263 H 111.789 0.396428 0.590226 0
M  V30 1264 H 114.391 1.58618 1.14283 0
M  V30 1265 H 113.095 2.88756 2.9163 0
M  V30 1266 H 112.626 1.36538 3.68946 0
M  V30 1267 H 114.641 0.929553 4.87415 0
M  V30 1268 N 113.814 -1.1601 1.06675 0
M  V30 1269 C 115.06 -1.86909 0.786945 0
M  V30 1270 C 115.393 -1.81717 -0.685018 0
M  V30 1271 O 114.668 -1.23551 -1.50218 0
M  V30 1272 C 114.951 -3.36313 1.28707 0
M  V30 1273 C 114.804 -3.50175 2.82308 0
M  V30 1274 C 116.123 -4.3084 0.898071 0
M  V30 1275 H 113.242 -0.678677 0.287343 0
M  V30 1276 H 115.884 -1.36336 1.32334 0
M  V30 1277 H 114.034 -3.79513 0.830768 0
M  V30 1278 H 115.706 -3.15886 3.36175 0
M  V30 1279 H 113.949 -2.91959 3.20847 0
M  V30 1280 H 114.62 -4.55116 3.12368 0
M  V30 1281 H 117.096 -3.95561 1.29114 0
M  V30 1282 H 115.972 -5.33876 1.27543 0
M  V30 1283 H 116.233 -4.41662 -0.196651 0
M  V30 1284 N 115.292 -0.849877 -1.32721 0
M  V30 1285 C 116.255 -0.296122 -2.27279 0
M  V30 1286 C 117.255 0.541458 -1.5141 0
M  V30 1287 O 118.445 0.353658 -1.70572 0
M  V30 1288 C 115.577 0.581579 -3.35902 0
M  V30 1289 H 116.77 -1.13064 -2.77771 0
M  V30 1290 H 114.323 -0.62383 -1.43311 0
M  V30 1291 H 115.058 1.43809 -2.9067 0
M  V30 1292 H 114.843 -0.0178814 -3.92096 0
M  V30 1293 H 116.333 0.961951 -4.0637 0
M  V30 1294 N 116.77 1.45427 -0.607355 0
M  V30 1295 C 118.047 1.9557 -0.0344566 0
M  V30 1296 C 118.427 1.54979 1.43334 0
M  V30 1297 O 117.775 0.812241 2.13576 0
M  V30 1298 C 117.985 3.48226 -0.232321 0
M  V30 1299 C 119.333 4.2445 -0.113001 0
M  V30 1300 O 120.357 3.55829 -0.162431 0
M  V30 1301 O 119.216 5.465 0.00209442 0
M  V30 1302 H 116.31 0.826222 0.0358667 0
M  V30 1303 H 118.856 1.55594 -0.6774 0
M  V30 1304 H 117.628 3.70739 -1.25174 0
M  V30 1305 H 117.251 3.95092 0.445896 0
M  V30 1306 N 118.248 0.346503 1.53744 0
M  V30 1307 C 119.158 -0.517293 2.28826 0
M  V30 1308 C 120.174 -1.10935 1.3405 0
M  V30 1309 O 121.35 -1.1244 1.6709 0
M  V30 1310 C 118.415 -1.65098 3.04866 0
M  V30 1311 C 117.476 -1.0884 4.15274 0
M  V30 1312 C 116.709 -2.16806 4.87679 0
M  V30 1313 O 116.932 -3.3758 4.59778 0
M  V30 1314 O 115.866 -1.80934 5.74061 0
M  V30 1315 H 119.692 0.0931396 3.03557 0
M  V30 1316 H 117.277 0.111458 1.48984 0
M  V30 1317 H 119.159 -2.31053 3.5241 0
M  V30 1318 H 117.834 -2.24717 2.32989 0
M  V30 1319 H 116.741 -0.3933 3.72027 0
M  V30 1320 H 118.074 -0.537036 4.89261 0
M  V30 1321 N 119.726 -1.57421 0.075193 0
M  V30 1322 C 120.951 -1.98364 -0.605515 0
M  V30 1323 C 121.376 -0.953383 -1.62149 0
M  V30 1324 O 120.734 0.0806053 -1.81121 0
M  V30 1325 C 120.782 -3.38332 -1.24756 0
M  V30 1326 O 119.886 -3.37959 -2.36342 0
M  V30 1327 H 119.227 -0.645553 -0.155428 0
M  V30 1328 H 121.757 -2.04044 0.150714 0
M  V30 1329 H 121.767 -3.75591 -1.5936 0
M  V30 1330 H 120.442 -4.12846 -0.503129 0
M  V30 1331 H 119.019 -3.12474 -2.03506 0
M  V30 1332 N 121.204 0.198386 -1.56346 0
M  V30 1333 C 122.167 1.22952 -1.93431 0
M  V30 1334 C 123.167 1.38611 -0.815092 0
M  V30 1335 O 124.357 1.36479 -1.08255 0
M  V30 1336 C 121.489 2.59946 -2.20546 0
M  V30 1337 H 122.682 0.912626 -2.85677 0
M  V30 1338 H 120.235 0.43977 -1.49986 0
M  V30 1339 H 120.97 2.96696 -1.30927 0
M  V30 1340 H 120.755 2.49953 -3.02102 0
M  V30 1341 H 122.245 3.3431 -2.50253 0
M  V30 1342 N 122.682 1.50554 0.465978 0
M  V30 1343 C 123.592 1.72585 1.58907 0
M  V30 1344 C 124.608 0.60911 1.6299 0
M  V30 1345 O 125.784 0.88804 1.80765 0
M  V30 1346 C 122.849 1.81995 2.95091 0
M  V30 1347 C 121.91 3.05751 3.01355 0
M  V30 1348 C 121.143 3.14702 4.31043 0
M  V30 1349 O 121.366 2.30313 5.21835 0
M  V30 1350 O 120.3 4.07468 4.43005 0
M  V30 1351 H 124.126 2.67799 1.43239 0
M  V30 1352 H 121.711 1.34711 0.646013 0
M  V30 1353 H 123.593 1.90335 3.75966 0
M  V30 1354 H 122.268 0.899659 3.10947 0
M  V30 1355 H 121.175 3.02908 2.19539 0
M  V30 1356 H 122.508 3.97375 2.90437 0
M  V30 1357 N 124.16 -0.719506 1.40217 0
M  V30 1358 C 125.108 -1.85493 1.40339 0
M  V30 1359 C 126.102 -1.66995 0.284415 0
M  V30 1360 O 127.308 -1.74148 0.455252 0
M  V30 1361 H 123.683 -0.610857 0.438586 0
M  V30 1362 H 125.654 -1.82506 2.36081 0
M  V30 1363 C 124.403 -3.23321 1.27901 0
M  V30 1364 H 123.726 -3.38159 2.1328 0
M  V30 1365 H 125.166 -4.02914 1.32045 0
M  V30 1366 C 123.625 -3.36898 -0.0111355 0
M  V30 1367 O 124.155 -3.89674 -0.975538 0
M  V30 1368 N 122.361 -2.90492 -0.0793393 0
M  V30 1369 H 121.908 -2.47731 0.706183 0
M  V30 1370 H 121.866 -2.99955 -0.942038 0
M  V30 1371 N 125.638 -1.25649 -0.95132 0
M  V30 1372 C 126.878 -1.11802 -1.71113 0
M  V30 1373 C 127.242 0.334758 -1.89059 0
M  V30 1374 O 128.443 0.595121 -2.62129 0
M  V30 1375 C 126.714 -1.85512 -3.05483 0
M  V30 1376 S 128.273 -1.87597 -3.96677 0
M  V30 1377 H 125.091 -0.399552 -0.588115 0
M  V30 1378 H 127.693 -1.59222 -1.1344 0
M  V30 1379 H 126.397 -2.90299 -2.90094 0
M  V30 1380 H 125.928 -1.38493 -3.68216 0
M  V30 1381 H 127.943 -0.955389 -4.86916 0
M  V30 1382 N 127.117 1.15442 -1.07289 0
M  V30 1383 C 128.394 1.82306 -0.708792 0
M  V30 1384 C 128.774 1.94991 0.808807 0
M  V30 1385 O 128.122 1.50085 1.72298 0
M  V30 1386 C 128.332 3.18695 -1.42247 0
M  V30 1387 C 129.68 3.94341 -1.57417 0
M  V30 1388 O 130.704 3.28247 -1.38319 0
M  V30 1389 O 129.563 5.12839 -1.88834 0
M  V30 1390 H 126.657 0.787628 -0.252132 0
M  V30 1391 H 129.203 1.22559 -1.17377 0
M  V30 1392 H 127.975 3.04557 -2.45684 0
M  V30 1393 H 127.598 3.86128 -0.948223 0
M  V30 1394 N 128.595 0.856903 1.32268 0
M  V30 1395 C 129.542 0.301172 2.28827 0
M  V30 1396 C 130.512 -0.593104 1.5515 0
M  V30 1397 O 131.697 -0.527537 1.83362 0
M  V30 1398 C 128.837 -0.502523 3.41422 0
M  V30 1399 C 127.95 0.417797 4.29975 0
M  V30 1400 C 127.085 -0.398749 5.29701 0
M  V30 1401 C 126.124 0.518827 6.09897 0
M  V30 1402 N 125.261 -0.260674 7.01616 0
M  V30 1403 H 130.101 1.12983 2.75751 0
M  V30 1404 H 127.638 0.568582 1.35667 0
M  V30 1405 H 129.596 -0.984141 4.05426 0
M  V30 1406 H 128.226 -1.29599 2.95642 0
M  V30 1407 H 127.278 1.01781 3.66531 0
M  V30 1408 H 128.59 1.12191 4.86019 0
M  V30 1409 H 127.744 -0.943435 5.9932 0
M  V30 1410 H 126.483 -1.13622 4.7428 0
M  V30 1411 H 125.488 1.07538 5.39181 0
M  V30 1412 H 126.713 1.25495 6.67404 0
M  V30 1413 H 124.659 -0.981198 6.4862 0
M  V30 1414 H 124.576 0.384364 7.55022 0
M  V30 1415 H 125.844 -0.787014 7.75517 0
M  V30 1416 N 130.073 -1.45103 0.615059 0
M  V30 1417 C 131.298 -2.07064 0.117988 0
M  V30 1418 C 131.723 -1.4554 -1.19163 0
M  V30 1419 O 131.081 -0.550855 -1.72729 0
M  V30 1420 C 131.129 -3.606 -0.000288387 0
M  V30 1421 O 130.233 -3.98847 -1.04856 0
M  V30 1422 H 129.574 -0.659467 0.0774581 0
M  V30 1423 H 132.104 -1.86236 0.847186 0
M  V30 1424 H 132.114 -4.07529 -0.196091 0
M  V30 1425 H 130.789 -4.04765 0.955932 0
M  V30 1426 H 129.366 -3.63577 -0.828619 0
M  V30 1427 N 131.551 -0.354651 -1.53558 0
M  V30 1428 C 132.481 0.489091 -2.2832 0
M  V30 1429 C 133.462 1.09324 -1.30316 0
M  V30 1430 O 134.647 1.11255 -1.59173 0
M  V30 1431 C 131.777 1.63456 -3.0643 0
M  V30 1432 C 130.731 1.1582 -4.12031 0
M  V30 1433 C 130.057 2.39305 -4.7816 0
M  V30 1434 C 131.357 0.250731 -5.21698 0
M  V30 1435 H 133.051 -0.134614 -2.99097 0
M  V30 1436 H 130.597 -0.0661826 -1.43848 0
M  V30 1437 H 132.55 2.23136 -3.57475 0
M  V30 1438 H 131.274 2.28533 -2.33325 0
M  V30 1439 H 129.933 0.584146 -3.61916 0
M  V30 1440 H 129.581 3.02814 -4.01637 0
M  V30 1441 H 129.281 2.08109 -5.49513 0
M  V30 1442 H 130.805 2.99691 -5.31994 0
M  V30 1443 H 132.219 0.754695 -5.68311 0
M  V30 1444 H 130.616 0.0301468 -6.00092 0
M  V30 1445 H 131.686 -0.710125 -4.79672 0
M  V30 1446 N 133.029 1.57378 -0.0835403 0
M  V30 1447 C 133.979 2.09916 0.889905 0
M  V30 1448 C 134.963 1.01151 1.25129 0
M  V30 1449 O 136.155 1.27443 1.2283 0
M  V30 1450 C 133.284 2.67379 2.15322 0
M  V30 1451 C 132.37 3.83167 1.81779 0
M  V30 1452 N 132.761 4.91665 1.18739 0
M  V30 1453 C 131.059 3.92685 2.11459 0
M  V30 1454 C 131.76 5.72409 1.0355 0
M  V30 1455 N 130.736 5.21062 1.54906 0
M  V30 1456 H 134.538 2.91188 0.398378 0
M  V30 1457 H 132.052 1.61956 0.120013 0
M  V30 1458 H 134.049 3.0334 2.8599 0
M  V30 1459 H 132.709 1.87558 2.65051 0
M  V30 1460 H 133.72 5.10784 0.855604 0
M  V30 1461 H 130.397 3.23856 2.63483 0
M  V30 1462 H 131.787 6.69699 0.543425 0
M  V30 1463 N 134.507 -0.190092 1.56449 0
M  V30 1464 C 135.735 -0.925772 1.85033 0
M  V30 1465 C 136.15 -1.76638 0.666658 0
M  V30 1466 O 135.507 -1.78822 -0.364565 0
M  V30 1467 C 135.558 -1.81786 3.12468 0
M  V30 1468 O 135.279 -1.01118 4.26271 0
M  V30 1469 C 136.78 -2.6648 3.54265 0
M  V30 1470 H 134 -0.269872 0.614337 0
M  V30 1471 H 136.544 -0.195837 2.0356 0
M  V30 1472 H 134.699 -2.50136 2.95822 0
M  V30 1473 H 135.113 -1.61956 4.98869 0
M  V30 1474 H 136.587 -3.24722 4.46385 0
M  V30 1475 H 137.064 -3.40434 2.77491 0
M  V30 1476 H 137.67 -2.03493 3.73458 0
M  V30 1477 N 135.985 -1.50799 -0.457987 0
M  V30 1478 C 136.915 -1.73553 -1.5621 0
M  V30 1479 C 137.896 -0.584774 -1.59732 0
M  V30 1480 O 139.081 -0.825314 -1.7579 0
M  V30 1481 C 136.211 -1.84169 -2.94447 0
M  V30 1482 C 135.165 -2.99461 -3.0579 0
M  V30 1483 C 134.491 -2.95235 -4.45803 0
M  V30 1484 C 135.791 -4.39766 -2.81786 0
M  V30 1485 H 137.485 -2.66 -1.37421 0
M  V30 1486 H 135.031 -1.28002 -0.659662 0
M  V30 1487 H 136.984 -1.98672 -3.71628 0
M  V30 1488 H 135.708 -0.883545 -3.14422 0
M  V30 1489 H 134.367 -2.8463 -2.31044 0
M  V30 1490 H 134.015 -1.97239 -4.62715 0
M  V30 1491 H 133.715 -3.72642 -4.54326 0
M  V30 1492 H 135.239 -3.11803 -5.24987 0
M  V30 1493 H 136.653 -4.55054 -3.4871 0
M  V30 1494 H 135.05 -5.18722 -3.0174 0
M  V30 1495 H 136.12 -4.51229 -1.7754 0
M  V30 1496 N 137.463 0.71206 -1.40597 0
M  V30 1497 C 138.71 1.47197 -1.39065 0
M  V30 1498 C 139.038 1.94499 0.00583891 0
M  V30 1499 O 138.293 1.68752 0.99102 0
M  V30 1500 C 138.592 2.71039 -2.32965 0
M  V30 1501 C 138.258 2.42484 -3.80148 0
M  V30 1502 C 136.92 2.34406 -4.20247 0
M  V30 1503 C 139.272 2.18598 -4.73143 0
M  V30 1504 C 136.6 2.00516 -5.51371 0
M  V30 1505 C 138.952 1.8622 -6.0457 0
M  V30 1506 C 137.616 1.76626 -6.43708 0
M  V30 1507 H 136.886 0.538634 -0.508876 0
M  V30 1508 H 139.533 0.815325 -1.73276 0
M  V30 1509 H 137.838 3.41558 -1.91951 0
M  V30 1510 H 139.535 3.29138 -2.29061 0
M  V30 1511 H 136.125 2.49659 -3.4838 0
M  V30 1512 H 140.309 2.23793 -4.42979 0
M  V30 1513 H 135.565 1.91628 -5.80593 0
M  V30 1514 H 139.739 1.66752 -6.76141 0
M  V30 1515 H 137.366 1.50133 -7.45228 0
M  V30 1516 N 138.941 1.26152 0.944643 0
M  V30 1517 C 140.189 1.11271 1.6871 0
M  V30 1518 C 140.51 -0.345166 1.91921 0
M  V30 1519 O 139.78 -1.24387 1.51343 0
M  V30 1520 H 138.36 0.408783 0.625224 0
M  V30 1521 H 141.022 1.58427 1.1352 0
M  V30 1522 H 140.118 1.62879 2.66227 0
M  V30 1523 N 140.419 -1.14872 1.07899 0
M  V30 1524 C 141.696 -1.81928 0.71845 0
M  V30 1525 C 142.076 -1.95417 -0.798455 0
M  V30 1526 O 141.424 -1.50997 -1.715 0
M  V30 1527 C 141.634 -3.17937 1.43935 0
M  V30 1528 C 142.982 -3.93501 1.59506 0
M  V30 1529 O 144.006 -3.27509 1.40058 0
M  V30 1530 O 142.865 -5.1183 1.91551 0
M  V30 1531 H 139.959 -0.78628 0.256305 0
M  V30 1532 H 142.505 -1.21934 1.18026 0
M  V30 1533 H 141.277 -3.0325 2.47295 0
M  V30 1534 H 140.9 -3.85619 0.968687 0
M  V30 1535 N 141.898 -0.863906 -1.31812 0
M  V30 1536 C 142.845 -0.313303 -2.28664 0
M  V30 1537 C 143.815 0.584868 -1.55462 0
M  V30 1538 O 145 0.517805 -1.83639 0
M  V30 1539 C 142.14 0.48441 -3.41683 0
M  V30 1540 C 141.253 -0.440594 -4.29747 0
M  V30 1541 C 140.388 0.370652 -5.29905 0
M  V30 1542 C 139.427 -0.551164 -6.09613 0
M  V30 1543 N 138.564 0.223462 -7.01744 0
M  V30 1544 H 143.404 -1.14444 -2.75148 0
M  V30 1545 H 140.941 -0.575769 -1.35364 0
M  V30 1546 H 142.899 0.962627 -4.05943 0
M  V30 1547 H 141.529 1.28029 -2.96325 0
M  V30 1548 H 140.581 -1.03724 -3.65986 0
M  V30 1549 H 141.893 -1.14767 -4.85417 0
M  V30 1550 H 141.047 0.911638 -5.99812 0
M  V30 1551 H 139.786 1.11105 -4.74876 0
M  V30 1552 H 138.791 -1.10396 -5.38603 0
M  V30 1553 H 140.016 -1.29032 -6.66729 0
M  V30 1554 H 137.962 0.946787 -6.49132 0
M  V30 1555 H 137.879 -0.424399 -7.54808 0
M  V30 1556 H 139.147 0.745876 -7.75923 0
M  V30 1557 N 143.376 1.44774 -0.622745 0
M  V30 1558 C 144.306 2.33382 0.0741861 0
M  V30 1559 C 145.287 1.47719 0.843387 0
M  V30 1560 O 146.472 1.76458 0.810934 0
M  V30 1561 C 143.602 3.30663 1.06204 0
M  V30 1562 C 142.556 4.26079 0.405037 0
M  V30 1563 C 141.882 5.13165 1.5022 0
M  V30 1564 C 143.182 5.1781 -0.683414 0
M  V30 1565 H 144.876 2.91905 -0.665713 0
M  V30 1566 H 142.422 1.40363 -0.321587 0
M  V30 1567 H 144.375 3.9153 1.55827 0
M  V30 1568 H 143.099 2.70331 1.83272 0
M  V30 1569 H 141.758 3.66532 -0.0704683 0
M  V30 1570 H 141.406 4.49191 2.26355 0
M  V30 1571 H 141.106 5.77812 1.06803 0
M  V30 1572 H 142.63 5.76902 2.00041 0
M  V30 1573 H 144.044 5.72661 -0.270631 0
M  V30 1574 H 142.441 5.91015 -1.04023 0
M  V30 1575 H 143.511 4.59326 -1.55395 0
M  V30 1576 N 144.854 0.36279 1.53368 0
M  V30 1577 C 146.094 -0.227882 2.03126 0
M  V30 1578 C 146.458 -1.4622 1.24434 0
M  V30 1579 O 147.659 -2.12831 1.64184 0
M  V30 1580 C 145.93 -0.515427 3.53664 0
M  V30 1581 S 147.489 -1.08017 4.25297 0
M  V30 1582 H 144.307 -0.0665377 0.70788 0
M  V30 1583 H 146.909 0.50501 1.88865 0
M  V30 1584 H 145.613 0.390436 4.08539 0
M  V30 1585 H 145.144 -1.27747 3.72081 0
M  V30 1586 H 147.159 -2.36462 4.36234 0
M  V30 1587 N 146.332 -1.57332 0.0918853 0
M  V30 1588 C 147.56 -1.98574 -0.581048 0
M  V30 1589 C 147.975 -0.970903 -1.61923 0
M  V30 1590 O 147.332 0.0399054 -1.82456 0
M  V30 1591 C 147.383 -3.39872 -1.23164 0
M  V30 1592 O 147.104 -4.37469 -0.234989 0
M  V30 1593 C 148.605 -3.96099 -1.99049 0
M  V30 1594 H 145.825 -0.65261 -0.156018 0
M  V30 1595 H 148.369 -2.0379 0.170225 0
M  V30 1596 H 146.524 -3.35679 -1.93386 0
M  V30 1597 H 146.938 -5.19751 -0.70418 0
M  V30 1598 H 148.412 -4.97127 -2.39934 0
M  V30 1599 H 148.889 -3.3374 -2.85507 0
M  V30 1600 H 149.495 -4.03755 -1.3365 0
M  V30 1601 N 147.81 0.181792 -1.56548 0
M  V30 1602 C 149.056 0.901431 -1.81665 0
M  V30 1603 C 149.389 1.82347 -0.668075 0
M  V30 1604 O 148.664 1.91669 0.330615 0
M  V30 1605 C 148.947 1.70618 -3.17115 0
M  V30 1606 C 148.8 0.807964 -4.42484 0
M  V30 1607 C 150.119 2.67605 -3.49393 0
M  V30 1608 H 147.238 0.32627 -0.660846 0
M  V30 1609 H 149.88 0.168134 -1.89255 0
M  V30 1610 H 148.03 2.33133 -3.10775 0
M  V30 1611 H 149.702 0.19649 -4.60881 0
M  V30 1612 H 147.945 0.115411 -4.33646 0
M  V30 1613 H 148.616 1.40632 -5.33785 0
M  V30 1614 H 151.092 2.15218 -3.56118 0
M  V30 1615 H 149.968 3.20985 -4.45264 0
M  V30 1616 H 150.229 3.47298 -2.73563 0
M  V30 1617 N 149.288 1.51039 0.449983 0
M  V30 1618 C 150.251 1.70863 1.5277 0
M  V30 1619 C 151.251 0.578846 1.5002 0
M  V30 1620 O 152.441 0.846213 1.52266 0
M  V30 1621 C 149.573 1.75341 2.9235 0
M  V30 1622 H 150.766 2.67034 1.36502 0
M  V30 1623 H 148.319 1.40838 0.677812 0
M  V30 1624 H 149.054 0.809383 3.14037 0
M  V30 1625 H 148.839 2.57436 2.95752 0
M  V30 1626 H 150.329 1.92559 3.70555 0
M  V30 1627 N 150.766 -0.704594 1.40972 0
M  V30 1628 C 151.994 -1.49354 1.43182 0
M  V30 1629 C 152.409 -1.88768 0.0345508 0
M  V30 1630 O 151.766 -1.56184 -0.944081 0
M  V30 1631 C 151.817 -2.76187 2.33244 0
M  V30 1632 O 151.538 -2.38436 3.67532 0
M  V30 1633 C 153.039 -3.7 2.44162 0
M  V30 1634 H 150.259 -0.460559 0.487982 0
M  V30 1635 H 152.803 -0.868261 1.85153 0
M  V30 1636 H 150.958 -3.34974 1.94606 0
M  V30 1637 H 151.372 -3.20126 4.15475 0
M  V30 1638 H 152.846 -4.55803 3.11364 0
M  V30 1639 H 153.323 -4.13867 1.47006 0
M  V30 1640 H 153.929 -3.17121 2.83398 0
M  V30 1641 N 152.244 -1.26651 -0.937939 0
M  V30 1642 C 153.174 -1.10993 -2.05433 0
M  V30 1643 C 154.155 -0.0142161 -1.70094 0
M  V30 1644 O 155.34 -0.186837 -1.93299 0
M  V30 1645 C 152.47 -0.745561 -3.39203 0
M  V30 1646 C 151.424 -1.79337 -3.88616 0
M  V30 1647 C 150.75 -1.28324 -5.19073 0
M  V30 1648 C 152.05 -3.19553 -4.13138 0
M  V30 1649 H 153.744 -2.0438 -2.1879 0
M  V30 1650 H 151.29 -0.984041 -1.05131 0
M  V30 1651 H 153.243 -0.622888 -4.16771 0
M  V30 1652 H 151.967 0.22401 -3.25831 0
M  V30 1653 H 150.626 -1.90477 -3.13231 0
M  V30 1654 H 150.274 -0.303414 -5.02084 0
M  V30 1655 H 149.974 -1.98369 -5.53103 0
M  V30 1656 H 151.498 -1.1733 -5.99221 0
M  V30 1657 H 152.912 -3.11471 -4.81309 0
M  V30 1658 H 151.309 -3.87218 -4.58457 0
M  V30 1659 H 152.379 -3.65368 -3.18801 0
M  V30 1660 N 153.722 1.14298 -1.08507 0
M  V30 1661 C 155.138 1.37347 -0.812901 0
M  V30 1662 C 155.338 1.93052 0.577325 0
M  V30 1663 O 154.394 2.14389 1.33393 0
M  V30 1664 C 155.707 2.33359 -1.89642 0
M  V30 1665 C 157.255 2.46996 -1.92255 0
M  V30 1666 C 157.73 3.46309 -2.99724 0
M  V30 1667 N 159.221 3.53853 -2.98902 0
M  V30 1668 C 159.956 4.3055 -3.787 0
M  V30 1669 N 159.452 5.10482 -4.6838 0
M  V30 1670 N 161.245 4.25757 -3.66998 0
M  V30 1671 H 153.396 0.764867 -1.9815 0
M  V30 1672 H 155.659 0.398966 -0.859959 0
M  V30 1673 H 155.365 1.99565 -2.89597 0
M  V30 1674 H 155.239 3.33274 -1.76659 0
M  V30 1675 H 157.626 2.80081 -0.929445 0
M  V30 1676 H 157.707 1.47039 -2.09316 0
M  V30 1677 H 157.351 3.13957 -3.99241 0
M  V30 1678 H 157.281 4.46049 -2.79907 0
M  V30 1679 H 159.772 2.96812 -2.33904 0
M  V30 1680 H 160.085 5.66284 -5.25873 0
M  V30 1681 H 158.43 5.09747 -4.72422 0
M  V30 1682 H 161.621 3.62383 -2.96304 0
M  V30 1683 H 161.794 4.85279 -4.29427 0
M  V30 1684 N 155.201 0.870884 1.31352 0
M  V30 1685 C 156.111 0.330783 2.32256 0
M  V30 1686 C 157.127 -0.559767 1.6475 0
M  V30 1687 O 158.303 -0.456263 1.96164 0
M  V30 1688 C 155.368 -0.458137 3.4366 0
M  V30 1689 C 154.429 0.460482 4.26823 0
M  V30 1690 C 153.662 -0.290881 5.32907 0
M  V30 1691 O 153.885 -1.51885 5.49806 0
M  V30 1692 O 152.819 0.351732 6.00871 0
M  V30 1693 H 156.645 1.16718 2.80376 0
M  V30 1694 H 154.23 0.634285 1.35267 0
M  V30 1695 H 156.112 -0.905343 4.1156 0
M  V30 1696 H 154.787 -1.27106 2.97701 0
M  V30 1697 H 153.694 0.956207 3.61673 0
M  V30 1698 H 155.027 1.23903 4.7635 0
M  V30 1699 N 156.679 -1.44442 0.630414 0
M  V30 1700 C 157.907 -2.06414 0.141671 0
M  V30 1701 C 158.322 -1.47105 -1.18345 0
M  V30 1702 O 157.679 -0.593662 -1.72574 0
M  V30 1703 C 157.73 -3.61494 0.0199784 0
M  V30 1704 O 157.451 -4.18594 1.29269 0
M  V30 1705 C 158.952 -4.40499 -0.497544 0
M  V30 1706 H 156.172 -0.666292 0.0793452 0
M  V30 1707 H 158.716 -1.85323 0.864614 0
M  V30 1708 H 156.871 -3.8185 -0.653402 0
M  V30 1709 H 157.285 -5.12026 1.13707 0
M  V30 1710 H 158.759 -5.49433 -0.531708 0
M  V30 1711 H 159.236 -4.11895 -1.52445 0
M  V30 1712 H 159.842 -4.25061 0.142562 0
M  V30 1713 N 158.157 -0.370918 -1.53173 0
M  V30 1714 C 159.387 0.217389 -2.05453 0
M  V30 1715 C 159.795 1.42568 -1.24382 0
M  V30 1716 O 159.138 1.81571 -0.278839 0
M  V30 1717 C 159.2 0.669827 -3.53205 0
M  V30 1718 C 158.864 -0.4225 -4.55043 0
M  V30 1719 C 159.861 -1.27407 -5.04047 0
M  V30 1720 C 157.546 -0.58427 -4.9889 0
M  V30 1721 C 159.54 -2.27271 -5.95505 0
M  V30 1722 C 157.227 -1.58627 -5.90153 0
M  V30 1723 C 158.225 -2.42892 -6.38351 0
M  V30 1724 O 157.913 -3.41382 -7.27814 0
M  V30 1725 H 157.645 0.0408171 -0.674767 0
M  V30 1726 H 160.199 -0.5292 -1.98466 0
M  V30 1727 H 158.429 1.4681 -3.57748 0
M  V30 1728 H 160.118 1.18173 -3.88317 0
M  V30 1729 H 160.884 -1.16031 -4.70916 0
M  V30 1730 H 156.763 0.061851 -4.60959 0
M  V30 1731 H 160.307 -2.93079 -6.33049 0
M  V30 1732 H 156.204 -1.70048 -6.22699 0
M  V30 1733 H 156.972 -3.37173 -7.45826 0
M  V30 1734 N 159.635 1.57281 -0.100228 0
M  V30 1735 C 160.883 1.94153 0.561157 0
M  V30 1736 C 161.204 0.983157 1.68401 0
M  V30 1737 O 160.474 0.0361132 1.95867 0
M  V30 1738 H 159.054 0.716791 0.210283 0
M  V30 1739 H 161.716 1.94202 -0.164765 0
M  V30 1740 H 160.812 2.96709 0.968008 0
M  V30 1741 N 161.113 -0.173488 1.56642 0
M  V30 1742 C 162.023 -1.23482 1.99473 0
M  V30 1743 C 163.039 -1.48567 0.905752 0
M  V30 1744 O 164.215 -1.60758 1.21321 0
M  V30 1745 C 161.28 -2.55444 2.34413 0
M  V30 1746 C 160.341 -2.38241 3.57127 0
M  V30 1747 C 159.574 -3.63909 3.90392 0
M  V30 1748 O 159.797 -4.68996 3.24653 0
M  V30 1749 O 158.731 -3.58149 4.83749 0
M  V30 1750 H 162.557 -0.901279 2.90018 0
M  V30 1751 H 160.142 -0.380185 1.44482 0
M  V30 1752 H 162.024 -3.33292 2.57865 0
M  V30 1753 H 160.699 -2.88382 1.4703 0
M  V30 1754 H 159.606 -1.58431 3.38896 0
M  V30 1755 H 160.939 -2.10228 4.45045 0
M  V30 1756 N 162.591 -1.51276 -0.441967 0
M  V30 1757 C 163.524 -1.66933 -1.55591 0
M  V30 1758 C 164.502 -0.516958 -1.54163 0
M  V30 1759 O 165.686 -0.740209 -1.73358 0
M  V30 1760 C 162.813 -1.67866 -2.94174 0
M  V30 1761 C 161.859 -2.89013 -3.13646 0
M  V30 1762 S 162.692 -4.49897 -2.90436 0
M  V30 1763 C 163.848 -4.53568 -4.31308 0
M  V30 1764 H 164.081 -2.61155 -1.42076 0
M  V30 1765 H 161.614 -1.40902 -0.631341 0
M  V30 1766 H 163.572 -1.69089 -3.74058 0
M  V30 1767 H 162.233 -0.748296 -3.05056 0
M  V30 1768 H 161.426 -2.86054 -4.14957 0
M  V30 1769 H 161.028 -2.85509 -2.4158 0
M  V30 1770 H 163.32 -4.28924 -5.24434 0
M  V30 1771 H 164.263 -5.55355 -4.39303 0
M  V30 1772 H 164.671 -3.82943 -4.14747 0
M  V30 1773 N 164.069 0.697108 -1.41344 0
M  V30 1774 C 165.032 1.79281 -1.42797 0
M  V30 1775 C 166.032 1.57607 -0.318837 0
M  V30 1776 O 167.222 1.64309 -0.578642 0
M  V30 1777 C 164.354 3.17632 -1.23785 0
M  V30 1778 H 165.547 1.79385 -2.40335 0
M  V30 1779 H 163.1 0.904582 -1.27464 0
M  V30 1780 H 163.835 3.23167 -0.270814 0
M  V30 1781 H 163.62 3.34765 -2.04144 0
M  V30 1782 H 165.11 3.97617 -1.27633 0
M  V30 1783 N 165.547 1.27147 0.931209 0
M  V30 1784 C 166.824 1.0401 1.65654 0
M  V30 1785 C 167.204 -0.426297 2.06751 0
M  V30 1786 O 166.552 -1.40879 1.79904 0
M  V30 1787 C 166.762 1.99834 2.86125 0
M  V30 1788 C 168.11 2.29007 3.57549 0
M  V30 1789 O 169.134 1.97779 2.96246 0
M  V30 1790 O 167.993 2.82222 4.67989 0
M  V30 1791 H 165.087 0.396239 0.725895 0
M  V30 1792 H 167.633 1.38397 0.982056 0
M  V30 1793 H 166.405 2.98744 2.52721 0
M  V30 1794 H 166.028 1.65987 3.61295 0
M  V30 1795 N 167.025 -1.13721 1.09112 0
M  V30 1796 C 168.265 -1.86576 0.834801 0
M  V30 1797 C 168.629 -1.81435 -0.628122 0
M  V30 1798 O 169.83 -2.49497 -1.00024 0
M  V30 1799 C 168.101 -3.30872 1.35124 0
M  V30 1800 S 169.66 -4.21257 1.22832 0
M  V30 1801 H 166.478 -0.643666 0.302017 0
M  V30 1802 H 169.08 -1.37085 1.39385 0
M  V30 1803 H 167.784 -3.32166 2.41027 0
M  V30 1804 H 167.315 -3.85423 0.788185 0
M  V30 1805 H 169.33 -4.95884 0.177191 0
M  V30 1806 N 168.503 -0.877838 -1.30888 0
M  V30 1807 C 169.743 -0.499301 -1.98208 0
M  V30 1808 C 170.107 0.932649 -1.67826 0
M  V30 1809 O 171.308 1.41694 -2.28421 0
M  V30 1810 C 169.579 -0.758221 -3.49265 0
M  V30 1811 S 171.138 -0.480719 -4.36159 0
M  V30 1812 H 167.956 -0.186062 -0.686223 0
M  V30 1813 H 170.558 -1.13556 -1.59139 0
M  V30 1814 H 169.262 -1.79903 -3.68867 0
M  V30 1815 H 168.793 -0.109247 -3.93248 0
M  V30 1816 H 170.808 0.683698 -4.91467 0
M  V30 1817 N 169.982 1.44106 -0.638065 0
M  V30 1818 C 170.945 2.29138 0.0531013 0
M  V30 1819 C 171.945 1.41409 0.765506 0
M  V30 1820 O 173.135 1.63206 0.609046 0
M  V30 1821 C 170.267 3.23144 1.08584 0
M  V30 1822 H 171.46 2.91739 -0.694883 0
M  V30 1823 H 169.013 1.51134 -0.398538 0
M  V30 1824 H 169.748 2.65408 1.86357 0
M  V30 1825 H 169.533 3.87804 0.578852 0
M  V30 1826 H 171.023 3.87004 1.56899 0
M  V30 1827 N 171.46 0.379036 1.52974 0
M  V30 1828 C 172.407 -0.461048 2.26148 0
M  V30 1829 C 173.377 -1.06637 1.27349 0
M  V30 1830 O 174.562 -1.09633 1.56157 0
M  V30 1831 C 171.702 -1.58782 3.06402 0
M  V30 1832 C 170.815 -1.00636 4.20115 0
M  V30 1833 C 169.95 -2.10334 4.87784 0
M  V30 1834 C 168.989 -1.49724 5.93506 0
M  V30 1835 N 168.126 -2.5331 6.54812 0
M  V30 1836 H 172.966 0.169429 2.97518 0
M  V30 1837 H 170.503 0.0953806 1.4679 0
M  V30 1838 H 172.461 -2.25174 3.51215 0
M  V30 1839 H 171.091 -2.18876 2.37261 0
M  V30 1840 H 170.143 -0.232332 3.7969 0
M  V30 1841 H 171.455 -0.523343 4.96047 0
M  V30 1842 H 170.609 -2.84519 5.35849 0
M  V30 1843 H 169.348 -2.61992 4.11353 0
M  V30 1844 H 168.353 -0.740598 5.44789 0
M  V30 1845 H 169.578 -0.988732 6.71864 0
M  V30 1846 H 167.524 -3.04156 5.81227 0
M  V30 1847 H 167.441 -2.09734 7.26325 0
M  V30 1848 H 168.709 -3.27155 7.07524 0
M  V30 1849 N 172.938 -1.57226 0.108567 0
M  V30 1850 C 173.87 -2.11809 -0.875752 0
M  V30 1851 C 174.883 -1.05839 -1.23701 0
M  V30 1852 O 176.072 -1.33245 -1.18778 0
M  V30 1853 C 173.172 -2.59411 -2.18081 0
M  V30 1854 C 172.345 -3.89364 -1.99284 0
M  V30 1855 C 171.404 -4.22672 -3.13424 0
M  V30 1856 O 170.43 -4.91668 -2.86795 0
M  V30 1857 N 171.632 -3.79154 -4.3957 0
M  V30 1858 H 174.397 -2.9689 -0.409477 0
M  V30 1859 H 171.958 -1.61721 -0.076158 0
M  V30 1860 H 173.95 -2.7873 -2.93414 0
M  V30 1861 H 172.52 -1.79268 -2.5609 0
M  V30 1862 H 171.74 -3.79059 -1.08203 0
M  V30 1863 H 173.028 -4.74358 -1.84017 0
M  V30 1864 H 172.426 -3.23486 -4.64083 0
M  V30 1865 H 170.983 -4.03602 -5.11809 0
M  V30 1866 N 174.416 0.165178 -1.56732 0
M  V30 1867 C 175.326 1.22423 -2.00125 0
M  V30 1868 C 176.342 1.48084 -0.913619 0
M  V30 1869 O 177.518 1.60112 -1.22172 0
M  V30 1870 C 174.583 2.54197 -2.35764 0
M  V30 1871 C 173.644 2.36343 -3.58386 0
M  V30 1872 C 172.877 3.61834 -3.92316 0
M  V30 1873 O 173.1 4.67267 -3.27135 0
M  V30 1874 O 172.034 3.55579 -4.85641 0
M  V30 1875 H 175.86 0.885886 -2.90492 0
M  V30 1876 H 173.445 0.372518 -1.44681 0
M  V30 1877 H 175.327 3.3192 -2.59629 0
M  V30 1878 H 174.002 2.87598 -1.48557 0
M  V30 1879 H 172.909 1.56632 -3.39731 0
M  V30 1880 H 174.242 2.07865 -4.46154 0
M  V30 1881 N 175.894 1.51508 0.433938 0
M  V30 1882 C 177.305 1.56784 1.01369 0
M  V30 1883 C 177.656 0.393349 1.92217 0
M  V30 1884 O 176.781 -0.489441 2.10792 0
M  V30 1885 C 177.376 2.84144 1.8452 0
M  V30 1886 C 175.935 2.9198 2.37539 0
M  V30 1887 C 175.082 2.51482 1.16843 0
M  V30 1888 H 178.033 1.57236 0.215081 0
M  V30 1889 H 178.054 2.68098 2.70007 0
M  V30 1890 H 177.566 3.69607 1.18373 0
M  V30 1891 H 175.667 2.10955 3.0713 0
M  V30 1892 H 175.78 3.95704 2.70103 0
M  V30 1893 H 174.144 2.04758 1.51481 0
M  V30 1894 H 174.927 3.39293 0.523015 0
M  V30 1895 N 177.372 -0.689602 1.41712 0
M  V30 1896 C 178.282 -1.83314 1.46401 0
M  V30 1897 C 179.298 -1.7036 0.35405 0
M  V30 1898 O 180.474 -1.92171 0.602692 0
M  V30 1899 C 177.539 -3.19344 1.34982 0
M  V30 1900 C 176.6 -3.44363 2.56344 0
M  V30 1901 C 175.833 -4.73904 2.45461 0
M  V30 1902 O 176.056 -5.508 1.48241 0
M  V30 1903 O 174.99 -4.99839 3.35328 0
M  V30 1904 H 178.816 -1.82314 2.42889 0
M  V30 1905 H 176.401 -0.843438 1.23315 0
M  V30 1906 H 178.283 -4.00547 1.3092 0
M  V30 1907 H 176.958 -3.21014 0.41612 0
M  V30 1908 H 175.865 -2.63067 2.65982 0
M  V30 1909 H 177.198 -3.47512 3.48563 0
M  V30 1910 N 178.85 -1.27639 -0.924453 0
M  V30 1911 C 180.266 -1.05113 -1.20097 0
M  V30 1912 C 180.466 0.213262 -2.00368 0
M  V30 1913 O 179.522 0.91787 -2.35226 0
M  V30 1914 C 180.835 -2.29244 -1.94596 0
M  V30 1915 C 182.383 -2.34315 -2.07522 0
M  V30 1916 C 182.858 -3.58183 -2.85427 0
M  V30 1917 N 184.349 -3.5876 -2.92994 0
M  V30 1918 C 185.084 -4.51277 -3.53746 0
M  V30 1919 N 184.58 -5.54102 -4.15863 0
M  V30 1920 N 186.373 -4.38894 -3.51181 0
M  V30 1921 H 178.524 -2.08821 -0.388264 0
M  V30 1922 H 180.787 -0.918568 -0.234385 0
M  V30 1923 H 180.493 -3.21301 -1.43034 0
M  V30 1924 H 180.367 -2.34816 -2.95197 0
M  V30 1925 H 182.754 -1.42762 -2.58269 0
M  V30 1926 H 182.835 -2.32744 -1.06131 0
M  V30 1927 H 182.479 -4.50074 -2.35363 0
M  V30 1928 H 182.409 -3.57006 -3.8711 0
M  V30 1929 H 184.9 -2.84398 -2.4885 0
M  V30 1930 H 185.213 -6.20859 -4.60168 0
M  V30 1931 H 183.558 -5.57941 -4.144 0
M  V30 1932 H 186.749 -3.57772 -3.01856 0
M  V30 1933 H 186.922 -5.11186 -3.98237 0
M  V30 1934 N 180.328 1.1314 -1.09713 0
M  V30 1935 C 181.276 2.20717 -0.733934 0
M  V30 1936 C 182.27 1.6729 0.266506 0
M  V30 1937 O 183.476 1.79547 0.127656 0
M  V30 1938 H 179.851 0.719292 -0.21937 0
M  V30 1939 H 181.822 2.48611 -1.6503 0
M  V30 1940 C 180.571 3.47265 -0.173849 0
M  V30 1941 H 179.894 3.88716 -0.934873 0
M  V30 1942 H 181.334 4.23979 0.0423126 0
M  V30 1943 C 179.793 3.18724 1.09164 0
M  V30 1944 O 180.323 3.37762 2.17439 0
M  V30 1945 N 178.529 2.72583 1.00732 0
M  V30 1946 H 178.076 2.57291 0.126121 0
M  V30 1947 H 178.034 2.53862 1.85476 0
M  V30 1948 N 181.806 0.884767 1.30421 0
M  V30 1949 C 182.716 0.355398 2.31892 0
M  V30 1950 C 183.732 -0.542261 1.65335 0
M  V30 1951 O 184.908 -0.435432 1.96637 0
M  V30 1952 C 181.973 -0.421661 3.44126 0
M  V30 1953 C 181.034 0.505727 4.26311 0
M  V30 1954 C 180.267 -0.234343 5.33185 0
M  V30 1955 O 180.49 -1.46045 5.51386 0
M  V30 1956 O 179.424 0.415443 6.00465 0
M  V30 1957 H 183.25 1.19685 2.79122 0
M  V30 1958 H 180.835 0.648596 1.34587 0
M  V30 1959 H 182.717 -0.861641 4.12497 0
M  V30 1960 H 181.392 -1.23942 2.99032 0
M  V30 1961 H 180.299 0.994513 3.60639 0
M  V30 1962 H 181.632 1.28948 4.75009 0
M  V30 1963 N 183.284 -1.43765 0.645699 0
M  V30 1964 C 184.524 -2.03776 0.159542 0
M  V30 1965 C 184.888 -1.49792 -1.2011 0
M  V30 1966 O 186.089 -2.01398 -1.78023 0
M  V30 1967 C 184.36 -3.57036 0.161251 0
M  V30 1968 S 185.919 -4.3804 -0.258159 0
M  V30 1969 H 182.737 -0.707717 0.0682454 0
M  V30 1970 H 185.339 -1.75941 0.852352 0
M  V30 1971 H 184.043 -3.9383 1.15439 0
M  V30 1972 H 183.574 -3.89503 -0.552339 0
M  V30 1973 H 185.589 -4.7302 -1.49889 0
M  V30 1974 N 184.763 -0.387143 -1.52771 0
M  V30 1975 C 186.01 0.195735 -2.01552 0
M  V30 1976 C 186.338 1.46995 -1.27369 0
M  V30 1977 O 185.593 1.92325 -0.361879 0
M  V30 1978 C 185.892 0.512209 -3.53711 0
M  V30 1979 C 185.558 -0.670202 -4.45891 0
M  V30 1980 C 184.22 -0.994586 -4.70809 0
M  V30 1981 C 186.572 -1.46134 -5.00294 0
M  V30 1982 C 183.9 -2.11169 -5.4738 0
M  V30 1983 C 186.252 -2.56903 -5.78086 0
M  V30 1984 C 184.916 -2.89852 -6.01284 0
M  V30 1985 H 184.186 0.0716246 -0.73753 0
M  V30 1986 H 186.833 -0.524046 -1.8419 0
M  V30 1987 H 185.138 1.31329 -3.69134 0
M  V30 1988 H 186.835 0.975804 -3.88946 0
M  V30 1989 H 183.425 -0.407366 -4.2666 0
M  V30 1990 H 187.609 -1.22397 -4.80971 0
M  V30 1991 H 182.865 -2.3707 -5.63567 0
M  V30 1992 H 187.039 -3.18608 -6.19243 0
M  V30 1993 H 184.666 -3.76533 -6.60399 0
M  V30 1994 N 186.241 1.57166 -0.116904 0
M  V30 1995 C 187.171 2.18222 0.830759 0
M  V30 1996 C 188.152 1.12167 1.27877 0
M  V30 1997 O 189.337 1.40394 1.34176 0
M  V30 1998 C 186.467 2.77996 2.08172 0
M  V30 1999 C 185.421 3.89614 1.77157 0
M  V30 2000 C 184.747 4.36187 3.09265 0
M  V30 2001 C 186.047 5.1181 1.04151 0
M  V30 2002 H 187.741 2.97664 0.321992 0
M  V30 2003 H 185.287 1.4318 0.153434 0
M  V30 2004 H 187.24 3.19366 2.74924 0
M  V30 2005 H 185.964 1.9584 2.6137 0
M  V30 2006 H 184.623 3.48816 1.12796 0
M  V30 2007 H 184.271 3.50893 3.60393 0
M  V30 2008 H 183.971 5.11455 2.89288 0
M  V30 2009 H 185.495 4.80207 3.77139 0
M  V30 2010 H 186.909 5.50214 1.61052 0
M  V30 2011 H 185.306 5.92648 0.942762 0
M  V30 2012 H 186.376 4.84892 0.0279022 0
M  V30 2013 N 187.719 -0.156864 1.56817 0
M  V30 2014 C 188.651 -1.21883 1.94106 0
M  V30 2015 C 189.664 -1.3971 0.835754 0
M  V30 2016 O 190.853 -1.39457 1.11418 0
M  V30 2017 C 187.953 -2.58527 2.19127 0
M  V30 2018 C 187.126 -2.61809 3.50393 0
M  V30 2019 C 186.185 -3.7992 3.64071 0
M  V30 2020 O 185.211 -3.65249 4.36557 0
M  V30 2021 N 186.413 -4.96973 2.99997 0
M  V30 2022 H 189.178 -0.901974 2.85805 0
M  V30 2023 H 186.739 -0.346513 1.58148 0
M  V30 2024 H 188.731 -3.36034 2.25529 0
M  V30 2025 H 187.301 -2.82545 1.33742 0
M  V30 2026 H 186.521 -1.7029 3.5552 0
M  V30 2027 H 187.809 -2.61024 4.36742 0
M  V30 2028 H 187.207 -5.11794 2.41004 0
M  V30 2029 H 185.764 -5.7229 3.11974 0
M  V30 2030 N 189.197 -1.51736 -0.425897 0
M  V30 2031 C 190.147 -1.70258 -1.51645 0
M  V30 2032 C 191.131 -0.556488 -1.5097 0
M  V30 2033 O 192.323 -0.812879 -1.5723 0
M  V30 2034 C 189.452 -1.84143 -2.89735 0
M  V30 2035 C 188.538 -3.04572 -2.95122 0
M  V30 2036 N 188.929 -4.2756 -2.70233 0
M  V30 2037 C 187.227 -3.04061 -3.26286 0
M  V30 2038 C 187.928 -5.08908 -2.81757 0
M  V30 2039 N 186.904 -4.43797 -3.13919 0
M  V30 2040 H 190.706 -2.63004 -1.31172 0
M  V30 2041 H 188.22 -1.4954 -0.633375 0
M  V30 2042 H 190.217 -1.95525 -3.68206 0
M  V30 2043 H 188.877 -0.925857 -3.1122 0
M  V30 2044 H 189.888 -4.56315 -2.44943 0
M  V30 2045 H 186.565 -2.22179 -3.53473 0
M  V30 2046 H 187.955 -6.16843 -2.66372 0
M  V30 2047 N 190.675 0.682077 -1.42076 0
M  V30 2048 C 191.622 1.79578 -1.44984 0
M  V30 2049 C 192.592 1.6332 -0.302614 0
M  V30 2050 O 193.777 1.83978 -0.505633 0
M  V30 2051 C 190.917 3.1756 -1.35091 0
M  V30 2052 C 190.03 3.45156 -2.59791 0
M  V30 2053 C 189.165 4.72826 -2.42093 0
M  V30 2054 C 188.204 4.93433 -3.62202 0
M  V30 2055 N 187.341 6.12338 -3.43491 0
M  V30 2056 H 192.181 1.76427 -2.40161 0
M  V30 2057 H 189.718 0.861376 -1.19242 0
M  V30 2058 H 191.676 3.97287 -1.27354 0
M  V30 2059 H 190.306 3.19854 -0.435133 0
M  V30 2060 H 189.358 2.59736 -2.77923 0
M  V30 2061 H 190.67 3.5628 -3.49094 0
M  V30 2062 H 189.824 5.60631 -2.319 0
M  V30 2063 H 188.563 4.63973 -1.50268 0
M  V30 2064 H 187.568 4.04073 -3.72834 0
M  V30 2065 H 188.793 5.04136 -4.54998 0
M  V30 2066 H 186.739 6.04672 -2.54377 0
M  V30 2067 H 186.656 6.2429 -4.26377 0
M  V30 2068 H 187.924 7.02841 -3.37097 0
M  V30 2069 N 192.153 1.28127 0.917671 0
M  V30 2070 C 193.43 1.05761 1.64542 0
M  V30 2071 C 193.81 -0.404344 2.07191 0
M  V30 2072 O 193.158 -1.38963 1.81388 0
M  V30 2073 C 193.368 2.02857 2.83989 0
M  V30 2074 C 194.716 2.32786 3.551 0
M  V30 2075 O 195.74 2.0091 2.94132 0
M  V30 2076 O 194.599 2.87169 4.64969 0
M  V30 2077 H 191.693 0.403916 0.721652 0
M  V30 2078 H 194.239 1.39431 0.967322 0
M  V30 2079 H 193.011 3.01407 2.49538 0
M  V30 2080 H 192.634 1.69809 3.59514 0
M  V30 2081 N 193.631 -1.12557 1.10312 0
M  V30 2082 C 194.908 -1.80363 0.756878 0
M  V30 2083 C 195.288 -1.97067 -0.756824 0
M  V30 2084 O 194.636 -1.54601 -1.68259 0
M  V30 2085 C 194.846 -3.14812 1.50647 0
M  V30 2086 C 196.194 -3.90029 1.67817 0
M  V30 2087 O 197.218 -3.24464 1.46974 0
M  V30 2088 O 196.077 -5.07652 2.02365 0
M  V30 2089 H 193.171 -0.780667 0.272926 0
M  V30 2090 H 195.717 -1.19404 1.20586 0
M  V30 2091 H 194.489 -2.97936 2.53672 0
M  V30 2092 H 194.112 -3.83478 1.05026 0
M  V30 2093 N 195.109 -0.891671 -1.2995 0
M  V30 2094 C 196.057 -0.353066 -2.29905 0
M  V30 2095 C 197.051 0.543509 -1.60444 0
M  V30 2096 O 198.257 0.4272 -1.74857 0
M  V30 2097 H 194.632 -0.095531 -0.745907 0
M  V30 2098 H 196.603 -1.20961 -2.72784 0
M  V30 2099 C 195.352 0.411475 -3.45257 0
M  V30 2100 H 194.675 -0.269182 -3.98893 0
M  V30 2101 H 196.115 0.753328 -4.17254 0
M  V30 2102 C 194.574 1.6111 -2.9588 0
M  V30 2103 O 195.104 2.71045 -2.96475 0
M  V30 2104 N 193.31 1.45054 -2.51809 0
M  V30 2105 H 192.857 0.556175 -2.51524 0
M  V30 2106 H 192.815 2.25453 -2.1913 0
M  V30 2107 N 196.587 1.43421 -0.653314 0
M  V30 2108 C 197.998 1.85065 -0.246537 0
M  V30 2109 C 198.349 1.54688 1.2069 0
M  V30 2110 O 197.474 0.995896 1.92122 0
M  V30 2111 C 198.069 3.35922 -0.440666 0
M  V30 2112 C 196.628 3.76297 -0.0882064 0
M  V30 2113 C 195.775 2.67147 -0.743484 0
M  V30 2114 H 198.726 1.33572 -0.856979 0
M  V30 2115 H 198.747 3.79204 0.313798 0
M  V30 2116 H 198.259 3.58 -1.49858 0
M  V30 2117 H 196.36 3.5983 0.96711 0
M  V30 2118 H 196.473 4.76338 -0.513738 0
M  V30 2119 H 194.837 2.54086 -0.176712 0
M  V30 2120 H 195.62 2.92053 -1.80443 0
M  V30 2121 N 198.065 0.39524 1.52563 0
M  V30 2122 C 199.013 -0.451859 2.28169 0
M  V30 2123 C 200.007 -1.05792 1.32304 0
M  V30 2124 O 201.213 -0.997718 1.49818 0
M  V30 2125 H 197.588 -0.164481 0.733792 0
M  V30 2126 H 199.559 0.207199 2.9768 0
M  V30 2127 C 198.308 -1.56385 3.10546 0
M  V30 2128 H 197.631 -1.10682 3.84174 0
M  V30 2129 H 199.071 -2.13067 3.66577 0
M  V30 2130 C 197.53 -2.52328 2.23231 0
M  V30 2131 O 198.06 -3.5588 1.86312 0
M  V30 2132 N 196.266 -2.22209 1.87274 0
M  V30 2133 H 195.813 -1.38033 2.17496 0
M  V30 2134 H 195.771 -2.86652 1.29143 0
M  V30 2135 N 199.544 -1.57102 0.125237 0
M  V30 2136 C 200.474 -2.18659 -0.819174 0
M  V30 2137 C 201.455 -1.12843 -1.27281 0
M  V30 2138 O 202.64 -1.41104 -1.33429 0
M  V30 2139 C 199.77 -2.79096 -2.06695 0
M  V30 2140 C 198.724 -3.90548 -1.75088 0
M  V30 2141 C 198.05 -4.37821 -3.06948 0
M  V30 2142 C 199.35 -5.12356 -1.01435 0
M  V30 2143 H 201.044 -2.9783 -0.306202 0
M  V30 2144 H 198.59 -1.4326 -0.145839 0
M  V30 2145 H 200.543 -3.2082 -2.73226 0
M  V30 2146 H 199.267 -1.97223 -2.60328 0
M  V30 2147 H 197.926 -3.49409 -1.10944 0
M  V30 2148 H 197.574 -3.52799 -3.58527 0
M  V30 2149 H 197.274 -5.12982 -2.86571 0
M  V30 2150 H 198.798 -4.822 -3.74587 0
M  V30 2151 H 200.212 -5.5106 -1.58132 0
M  V30 2152 H 198.609 -5.9314 -0.911319 0
M  V30 2153 H 199.679 -4.849 -0.00218681 0
M  V30 2154 N 201.022 0.148545 -1.56898 0
M  V30 2155 C 202.433 0.708766 -1.72723 0
M  V30 2156 C 202.784 1.81734 -0.739395 0
M  V30 2157 O 201.909 2.16194 0.0943169 0
M  V30 2158 C 202.504 1.29245 -3.13179 0
M  V30 2159 C 201.063 1.79925 -3.30611 0
M  V30 2160 C 200.21 0.687111 -2.68652 0
M  V30 2161 H 203.161 -0.0771063 -1.58513 0
M  V30 2162 H 203.182 2.16224 -3.13093 0
M  V30 2163 H 202.694 0.485382 -3.85053 0
M  V30 2164 H 200.795 2.63203 -2.63732 0
M  V30 2165 H 200.908 1.92903 -4.38549 0
M  V30 2166 H 199.272 1.11335 -2.29078 0
M  V30 2167 H 200.055 -0.108483 -3.43129 0
M  V30 2168 N 202.5 1.5196 0.417844 0
M  V30 2169 C 203.916 1.40569 0.755816 0
M  V30 2170 C 204.116 0.503316 1.95113 0
M  V30 2171 O 203.172 -0.0341925 2.52477 0
M  V30 2172 C 204.485 2.82947 1.01791 0
M  V30 2173 C 206.033 2.92231 1.12116 0
M  V30 2174 C 206.508 4.35559 1.41608 0
M  V30 2175 N 207.999 4.38753 1.48491 0
M  V30 2176 C 208.734 5.46705 1.7292 0
M  V30 2177 N 208.23 6.64788 1.95011 0
M  V30 2178 N 210.023 5.34209 1.74863 0
M  V30 2179 H 202.174 2.09168 -0.369098 0
M  V30 2180 H 204.437 0.942409 -0.102809 0
M  V30 2181 H 204.143 3.5106 0.212081 0
M  V30 2182 H 204.017 3.23462 1.94042 0
M  V30 2183 H 206.404 2.24304 1.9176 0
M  V30 2184 H 206.485 2.55185 0.177225 0
M  V30 2185 H 206.129 5.04042 0.624848 0
M  V30 2186 H 206.059 4.70133 2.37239 0
M  V30 2187 H 208.55 3.5363 1.33244 0
M  V30 2188 H 208.863 7.42845 2.13076 0
M  V30 2189 H 207.208 6.67869 1.92293 0
M  V30 2190 H 210.399 4.40937 1.57137 0
M  V30 2191 H 210.572 6.18415 1.93563 0
M  V30 2192 N 203.978 -0.674533 1.42435 0
M  V30 2193 C 204.908 -1.80009 1.48724 0
M  V30 2194 C 205.889 -1.6659 0.343793 0
M  V30 2195 O 207.074 -1.86007 0.558137 0
M  V30 2196 C 204.204 -3.18306 1.38919 0
M  V30 2197 C 203.158 -3.46461 2.51294 0
M  V30 2198 C 202.484 -4.84335 2.26547 0
M  V30 2199 C 203.784 -3.43328 3.93603 0
M  V30 2200 H 205.478 -1.75004 2.42928 0
M  V30 2201 H 203.024 -0.840533 1.16923 0
M  V30 2202 H 204.977 -3.9678 1.41927 0
M  V30 2203 H 203.701 -3.2399 0.412094 0
M  V30 2204 H 202.36 -2.70348 2.47604 0
M  V30 2205 H 202.008 -4.86669 1.2713 0
M  V30 2206 H 201.708 -5.04136 3.01861 0
M  V30 2207 H 203.232 -5.65094 2.31304 0
M  V30 2208 H 204.646 -4.11772 3.98894 0
M  V30 2209 H 203.043 -3.74664 4.68771 0
M  V30 2210 H 204.113 -2.41897 4.20255 0
M  V30 2211 N 205.456 -1.28612 -0.910864 0
M  V30 2212 C 206.702 -1.16106 -1.66274 0
M  V30 2213 C 207.035 0.289113 -1.92036 0
M  V30 2214 O 206.31 1.21 -1.52281 0
M  V30 2215 C 206.593 -1.96309 -3.01885 0
M  V30 2216 C 206.446 -3.49405 -2.8326 0
M  V30 2217 C 207.765 -1.78076 -4.02463 0
M  V30 2218 H 204.884 -0.423152 -0.603417 0
M  V30 2219 H 207.526 -1.57961 -1.05586 0
M  V30 2220 H 205.676 -1.60742 -3.53687 0
M  V30 2221 H 207.348 -3.94894 -2.38446 0
M  V30 2222 H 205.591 -3.74893 -2.18261 0
M  V30 2223 H 206.262 -4.00784 -3.79574 0
M  V30 2224 H 208.738 -2.0912 -3.59733 0
M  V30 2225 H 207.614 -2.36561 -4.95308 0
M  V30 2226 H 207.875 -0.733008 -4.35981 0
M  V30 2227 N 206.934 1.1197 -1.10907 0
M  V30 2228 C 208.35 1.35591 -0.841852 0
M  V30 2229 C 208.55 1.94233 0.536246 0
M  V30 2230 O 207.606 2.1717 1.28816 0
M  V30 2231 C 208.919 2.29284 -1.94549 0
M  V30 2232 C 210.467 2.42862 -1.97451 0
M  V30 2233 C 210.942 3.39873 -3.07002 0
M  V30 2234 N 212.433 3.47433 -3.06341 0
M  V30 2235 C 213.168 4.22421 -3.87748 0
M  V30 2236 N 212.664 5.00432 -4.79103 0
M  V30 2237 N 214.457 4.17876 -3.75946 0
M  V30 2238 H 206.608 0.722664 -1.99728 0
M  V30 2239 H 208.871 0.380635 -0.868229 0
M  V30 2240 H 208.577 1.93378 -2.93765 0
M  V30 2241 H 208.451 3.29452 -1.83688 0
M  V30 2242 H 210.838 2.78046 -0.988645 0
M  V30 2243 H 210.919 1.42566 -2.12388 0
M  V30 2244 H 210.563 3.05417 -4.05811 0
M  V30 2245 H 210.493 4.40011 -2.89306 0
M  V30 2246 H 212.984 2.91784 -2.40147 0
M  V30 2247 H 213.297 5.55002 -5.37766 0
M  V30 2248 H 211.642 4.99612 -4.83128 0
M  V30 2249 H 214.833 3.56016 -3.03924 0
M  V30 2250 H 215.006 4.76061 -4.39624 0
M  V30 2251 N 208.412 0.89855 1.29475 0
M  V30 2252 C 209.823 0.572537 1.77705 0
M  V30 2253 C 210.174 -0.911778 1.73727 0
M  V30 2254 O 209.299 -1.71288 1.32247 0
M  V30 2255 C 209.894 1.03252 3.22683 0
M  V30 2256 C 208.453 0.757687 3.68695 0
M  V30 2257 C 207.6 1.20787 2.49612 0
M  V30 2258 H 210.551 1.08139 1.16153 0
M  V30 2259 H 210.572 0.367307 3.78723 0
M  V30 2260 H 210.084 2.11285 3.25546 0
M  V30 2261 H 208.185 -0.310079 3.71308 0
M  V30 2262 H 208.298 1.35476 4.59547 0
M  V30 2263 H 206.662 0.626888 2.46865 0
M  V30 2264 H 207.445 2.29622 2.55203 0
M  V30 2265 N 209.89 -1.43072 0.660911 0
M  V30 2266 C 210.8 -2.34585 -0.0264163 0
M  V30 2267 C 211.816 -1.54316 -0.803898 0
M  V30 2268 O 212.992 -1.86939 -0.749391 0
M  V30 2269 C 210.057 -3.32689 -0.975639 0
M  V30 2270 C 209.118 -4.2886 -0.194236 0
M  V30 2271 C 208.351 -5.22278 -1.09825 0
M  V30 2272 O 208.574 -5.20299 -2.33763 0
M  V30 2273 O 207.508 -5.99228 -0.566513 0
M  V30 2274 H 211.334 -2.94869 0.727034 0
M  V30 2275 H 208.919 -1.43342 0.42111 0
M  V30 2276 H 210.801 -3.92995 -1.52094 0
M  V30 2277 H 209.476 -2.74898 -1.70918 0
M  V30 2278 H 208.383 -3.72011 0.394835 0
M  V30 2279 H 209.716 -4.89655 0.499899 0
M  V30 2280 N 211.368 -0.403325 -1.52352 0
M  V30 2281 C 212.614 0.174605 -2.02047 0
M  V30 2282 C 212.947 1.45282 -1.28867 0
M  V30 2283 O 212.222 1.90483 -0.393257 0
M  V30 2284 C 212.505 0.428238 -3.57545 0
M  V30 2285 C 212.358 -0.866248 -4.4138 0
M  V30 2286 C 213.677 1.21287 -4.23057 0
M  V30 2287 H 210.796 0.0619851 -0.734389 0
M  V30 2288 H 213.438 -0.53565 -1.82293 0
M  V30 2289 H 211.588 1.03327 -3.74507 0
M  V30 2290 H 213.26 -1.50265 -4.3614 0
M  V30 2291 H 211.503 -1.47851 -4.07827 0
M  V30 2292 H 212.174 -0.643249 -5.48239 0
M  V30 2293 H 214.65 0.700703 -4.10158 0
M  V30 2294 H 213.526 1.35909 -5.31808 0
M  V30 2295 H 213.787 2.23193 -3.81625 0
M  V30 2296 N 212.846 1.57033 -0.133567 0
M  V30 2297 C 214.123 1.87256 0.56522 0
M  V30 2298 C 214.503 1.03726 1.83859 0
M  V30 2299 O 213.851 0.120247 2.28183 0
M  V30 2300 C 214.061 3.3865 0.843636 0
M  V30 2301 C 215.409 4.07574 1.19032 0
M  V30 2302 O 216.433 3.43752 0.933429 0
M  V30 2303 O 215.292 5.20259 1.67312 0
M  V30 2304 H 212.386 0.775678 0.286796 0
M  V30 2305 H 214.932 1.68855 -0.169168 0
M  V30 2306 H 213.704 3.91257 -0.0581149 0
M  V30 2307 H 213.327 3.62532 1.63268 0
M  V30 2308 N 214.325 -0.140222 1.56975 0
M  V30 2309 C 215.571 -0.852949 1.83991 0
M  V30 2310 C 215.904 -1.80512 0.716187 0
M  V30 2311 O 215.179 -1.92479 -0.279681 0
M  V30 2312 C 215.462 -1.6215 3.21527 0
M  V30 2313 C 215.315 -0.690363 4.4447 0
M  V30 2314 C 216.634 -2.58247 3.56366 0
M  V30 2315 H 213.753 -0.308634 0.669264 0
M  V30 2316 H 216.395 -0.117898 1.89634 0
M  V30 2317 H 214.545 -2.24812 3.16847 0
M  V30 2318 H 216.217 -0.0742264 4.6124 0
M  V30 2319 H 214.46 -0.000396433 4.338 0
M  V30 2320 H 215.131 -1.2643 5.37326 0
M  V30 2321 H 217.607 -2.05701 3.61699 0
M  V30 2322 H 216.483 -3.09067 4.53617 0
M  V30 2323 H 216.744 -3.39923 2.82674 0
M  V30 2324 N 215.803 -1.52179 -0.40978 0
M  V30 2325 C 216.736 -1.70196 -1.52015 0
M  V30 2326 C 217.714 -0.549542 -1.53032 0
M  V30 2327 O 218.898 -0.776815 -1.71749 0
M  V30 2328 C 216.025 -1.74069 -2.90547 0
M  V30 2329 C 215.071 -2.95601 -3.07445 0
M  V30 2330 S 215.904 -4.55956 -2.80827 0
M  V30 2331 C 217.06 -4.62614 -4.21591 0
M  V30 2332 H 217.293 -2.64109 -1.36504 0
M  V30 2333 H 214.826 -1.4221 -0.601312 0
M  V30 2334 H 216.784 -1.76985 -3.70387 0
M  V30 2335 H 215.445 -0.812835 -3.034 0
M  V30 2336 H 214.638 -2.94791 -4.08796 0
M  V30 2337 H 214.24 -2.90569 -2.35469 0
M  V30 2338 H 216.532 -4.39951 -5.15218 0
M  V30 2339 H 217.475 -5.64548 -4.27424 0
M  V30 2340 H 217.883 -3.91654 -4.06531 0
M  V30 2341 N 217.281 0.66697 -1.42791 0
M  V30 2342 C 218.521 1.43892 -1.4517 0
M  V30 2343 C 218.885 1.91877 -0.0687551 0
M  V30 2344 O 220.086 2.6878 0.0327455 0
M  V30 2345 C 218.357 2.59839 -2.45395 0
M  V30 2346 S 219.916 3.48572 -2.66539 0
M  V30 2347 H 216.734 0.491356 -0.513897 0
M  V30 2348 H 219.336 0.775656 -1.79454 0
M  V30 2349 H 218.04 2.22838 -3.44632 0
M  V30 2350 H 217.571 3.3103 -2.12562 0
M  V30 2351 H 219.586 4.56094 -1.95429 0
M  V30 2352 N 218.759 1.29093 0.90403 0
M  V30 2353 C 219.987 1.19689 1.68766 0
M  V30 2354 C 220.402 -0.243113 1.87228 0
M  V30 2355 O 219.759 -1.16326 1.40621 0
M  V30 2356 C 219.81 1.90144 3.07453 0
M  V30 2357 O 219.531 3.2852 2.89838 0
M  V30 2358 C 221.032 1.87162 4.01852 0
M  V30 2359 H 218.252 0.415035 0.527244 0
M  V30 2360 H 220.796 1.7039 1.13082 0
M  V30 2361 H 218.951 1.43289 3.59926 0
M  V30 2362 H 219.365 3.63944 3.77684 0
M  V30 2363 H 220.839 2.41032 4.96596 0
M  V30 2364 H 221.316 0.84617 4.30972 0
M  V30 2365 H 221.922 2.33741 3.5531 0
M  V30 2366 N 220.237 -1.11381 1.11499 0
M  V30 2367 C 221.2 -2.15622 0.777153 0
M  V30 2368 C 222.2 -1.59504 -0.203779 0
M  V30 2369 O 223.39 -1.74188 0.020782 0
M  V30 2370 C 220.522 -3.40556 0.153116 0
M  V30 2371 H 221.715 -2.47021 1.70061 0
M  V30 2372 H 219.268 -1.26577 0.916952 0
M  V30 2373 H 220.003 -3.14767 -0.780536 0
M  V30 2374 H 219.788 -3.8257 0.859238 0
M  V30 2375 H 221.278 -4.17546 -0.0671044 0
M  V30 2376 N 221.715 -0.905404 -1.28997 0
M  V30 2377 C 222.962 -0.534248 -1.95325 0
M  V30 2378 C 223.29 0.920535 -1.71337 0
M  V30 2379 O 222.545 1.66861 -1.02254 0
M  V30 2380 C 222.844 -0.779906 -3.48787 0
M  V30 2381 C 222.51 -2.21293 -3.92861 0
M  V30 2382 C 221.172 -2.60475 -4.04606 0
M  V30 2383 C 223.524 -3.14587 -4.15553 0
M  V30 2384 C 220.852 -3.9212 -4.36416 0
M  V30 2385 C 223.204 -4.45787 -4.48839 0
M  V30 2386 C 221.868 -4.84834 -4.58794 0
M  V30 2387 H 221.138 -0.195495 -0.714747 0
M  V30 2388 H 223.785 -1.14514 -1.53488 0
M  V30 2389 H 222.09 -0.0861365 -3.91705 0
M  V30 2390 H 223.787 -0.472029 -3.98212 0
M  V30 2391 H 220.377 -1.89887 -3.84241 0
M  V30 2392 H 224.561 -2.85528 -4.0594 0
M  V30 2393 H 219.817 -4.22086 -4.42327 0
M  V30 2394 H 223.991 -5.18098 -4.65346 0
M  V30 2395 H 221.618 -5.86877 -4.83197 0
M  V30 2396 N 223.193 1.4272 -0.668489 0
M  V30 2397 C 224.143 2.27971 0.0363806 0
M  V30 2398 C 225.127 1.40741 0.779794 0
M  V30 2399 O 226.319 1.64245 0.659745 0
M  V30 2400 C 223.448 3.28673 0.991398 0
M  V30 2401 C 222.534 4.23388 0.245658 0
M  V30 2402 N 222.925 5.00267 -0.746069 0
M  V30 2403 C 221.223 4.43355 0.484988 0
M  V30 2404 C 221.924 5.69396 -1.19009 0
M  V30 2405 N 220.9 5.41095 -0.521287 0
M  V30 2406 H 224.702 2.84833 -0.724394 0
M  V30 2407 H 222.216 1.54607 -0.497028 0
M  V30 2408 H 224.213 3.88543 1.51129 0
M  V30 2409 H 222.873 2.73373 1.75207 0
M  V30 2410 H 223.884 5.05525 -1.12537 0
M  V30 2411 H 220.561 3.99104 1.22565 0
M  V30 2412 H 221.951 6.41083 -2.01153 0
M  V30 2413 N 224.671 0.411399 1.52136 0
M  V30 2414 C 225.948 -0.222308 1.94333 0
M  V30 2415 C 226.328 -1.6242 1.34844 0
M  V30 2416 O 225.676 -2.22384 0.525145 0
M  V30 2417 C 225.886 -0.226345 3.48265 0
M  V30 2418 C 227.234 -0.444592 4.22266 0
M  V30 2419 O 228.258 -0.305602 3.54887 0
M  V30 2420 O 227.117 -0.718749 5.41753 0
M  V30 2421 H 224.211 -0.143907 0.814383 0
M  V30 2422 H 226.757 0.467506 1.63133 0
M  V30 2423 H 225.529 0.75475 3.83952 0
M  V30 2424 H 225.152 -0.960163 3.85832 0
M  V30 2425 N 226.149 -1.5696 0.141893 0
M  V30 2426 C 227.097 -2.17784 -0.816874 0
M  V30 2427 C 228.091 -1.1334 -1.25899 0
M  V30 2428 O 229.297 -1.316 -1.22806 0
M  V30 2429 H 225.672 -0.697278 -0.281615 0
M  V30 2430 H 227.643 -2.97087 -0.279621 0
M  V30 2431 C 226.392 -2.80983 -2.04802 0
M  V30 2432 H 225.715 -3.61062 -1.7168 0
M  V30 2433 H 227.155 -3.2705 -2.69841 0
M  V30 2434 C 225.614 -1.79228 -2.8527 0
M  V30 2435 O 226.144 -1.25962 -3.8144 0
M  V30 2436 N 224.35 -1.48647 -2.49704 0
M  V30 2437 H 223.897 -1.92155 -1.71564 0
M  V30 2438 H 223.855 -0.808115 -3.03837 0
M  V30 2439 N 227.627 0.131896 -1.57047 0
M  V30 2440 C 228.537 1.1815 -2.02676 0
M  V30 2441 C 229.553 1.46113 -0.944824 0
M  V30 2442 O 230.729 1.57485 -1.25541 0
M  V30 2443 C 227.794 2.49139 -2.41103 0
M  V30 2444 C 226.855 2.28688 -3.63318 0
M  V30 2445 C 226.088 3.53431 -3.99903 0
M  V30 2446 O 226.311 4.60223 -3.36973 0
M  V30 2447 O 225.245 3.45198 -4.93074 0
M  V30 2448 H 229.071 0.824069 -2.92306 0
M  V30 2449 H 226.656 0.341745 -1.45439 0
M  V30 2450 H 228.538 3.26338 -2.66611 0
M  V30 2451 H 227.213 2.84382 -1.54624 0
M  V30 2452 H 226.12 1.4939 -3.42977 0
M  V30 2453 H 227.453 1.98355 -4.50462 0
M  V30 2454 N 229.106 1.52395 0.401703 0
M  V30 2455 C 230.016 1.7917 1.51444 0
M  V30 2456 C 231.032 0.677691 1.6026 0
M  V30 2457 O 232.208 0.963909 1.76835 0
M  V30 2458 C 229.273 1.94347 2.87107 0
M  V30 2459 C 228.334 3.18257 2.88116 0
M  V30 2460 C 227.567 3.32701 4.17308 0
M  V30 2461 O 227.79 2.52238 5.11598 0
M  V30 2462 O 226.724 4.25891 4.25324 0
M  V30 2463 H 230.55 2.73633 1.31752 0
M  V30 2464 H 228.135 1.3733 0.588296 0
M  V30 2465 H 230.017 2.06109 3.67555 0
M  V30 2466 H 228.692 1.03073 3.06851 0
M  V30 2467 H 227.599 3.11947 2.06494 0
M  V30 2468 H 228.932 4.09336 2.73322 0
M  V30 2469 N 230.584 -0.659388 1.43143 0
M  V30 2470 C 231.812 -1.44723 1.47861 0
M  V30 2471 C 232.227 -1.88563 0.0945886 0
M  V30 2472 O 231.584 -1.59108 -0.893915 0
M  V30 2473 C 231.635 -2.68627 2.41913 0
M  V30 2474 O 231.356 -2.26623 3.74932 0
M  V30 2475 C 232.857 -3.62045 2.55809 0
M  V30 2476 H 230.077 -0.444801 0.502387 0
M  V30 2477 H 232.621 -0.808916 1.87821 0
M  V30 2478 H 230.776 -3.28613 2.05164 0
M  V30 2479 H 231.19 -3.06745 4.2545 0
M  V30 2480 H 232.664 -4.45666 3.25708 0
M  V30 2481 H 233.141 -4.08981 1.60099 0
M  V30 2482 H 233.747 -3.07944 2.93344 0
M  V30 2483 N 232.062 -1.29571 -0.897171 0
M  V30 2484 C 233.309 -1.17689 -1.6479 0
M  V30 2485 C 233.637 0.27107 -1.92602 0
M  V30 2486 O 232.892 1.21193 -1.53658 0
M  V30 2487 C 233.191 -1.9382 -3.00281 0
M  V30 2488 C 232.857 -3.43522 -2.92068 0
M  V30 2489 C 231.519 -3.84348 -2.89535 0
M  V30 2490 C 233.871 -4.38906 -2.81089 0
M  V30 2491 C 231.199 -5.18869 -2.73846 0
M  V30 2492 C 233.551 -5.73521 -2.66939 0
M  V30 2493 C 232.215 -6.13601 -2.62774 0
M  V30 2494 H 231.485 -0.430654 -0.603008 0
M  V30 2495 H 234.132 -1.60536 -1.04404 0
M  V30 2496 H 232.437 -1.4357 -3.64547 0
M  V30 2497 H 234.134 -1.82028 -3.57305 0
M  V30 2498 H 230.724 -3.11072 -2.94842 0
M  V30 2499 H 234.908 -4.08315 -2.82121 0
M  V30 2500 H 230.164 -5.4903 -2.69027 0
M  V30 2501 H 234.338 -6.47078 -2.57416 0
M  V30 2502 H 231.965 -7.17786 -2.50375 0
M  V30 2503 N 233.54 1.10788 -1.12088 0
M  V30 2504 C 234.47 2.19083 -0.807755 0
M  V30 2505 C 235.451 1.6858 0.226859 0
M  V30 2506 O 236.636 1.93997 0.0888475 0
M  V30 2507 C 233.766 3.46344 -0.257576 0
M  V30 2508 C 232.72 4.101 -1.22483 0
M  V30 2509 C 232.046 5.32016 -0.535052 0
M  V30 2510 C 233.346 4.54236 -2.57811 0
M  V30 2511 H 235.04 2.45534 -1.71328 0
M  V30 2512 H 232.586 1.1801 -0.825205 0
M  V30 2513 H 234.539 4.21392 -0.0262679 0
M  V30 2514 H 233.263 3.19373 0.683278 0
M  V30 2515 H 231.922 3.37054 -1.44189 0
M  V30 2516 H 231.57 5.01319 0.410827 0
M  V30 2517 H 231.27 5.75625 -1.18024 0
M  V30 2518 H 232.794 6.09799 -0.312695 0
M  V30 2519 H 234.208 5.20575 -2.40155 0
M  V30 2520 H 232.605 5.08682 -3.18375 0
M  V30 2521 H 233.675 3.6734 -3.16528 0
M  V30 2522 N 235.018 0.912232 1.28515 0
M  V30 2523 C 235.965 0.397954 2.27343 0
M  V30 2524 C 236.935 -0.526766 1.57526 0
M  V30 2525 O 238.12 -0.449292 1.85435 0
M  V30 2526 C 235.26 -0.357263 3.43246 0
M  V30 2527 C 234.373 0.599788 4.27816 0
M  V30 2528 C 233.508 -0.173725 5.30916 0
M  V30 2529 C 232.547 0.777039 6.07148 0
M  V30 2530 N 231.684 0.0371398 7.0209 0
M  V30 2531 H 236.524 1.24577 2.70711 0
M  V30 2532 H 234.061 0.625612 1.33133 0
M  V30 2533 H 236.019 -0.8113 4.09236 0
M  V30 2534 H 234.649 -1.16943 3.00872 0
M  V30 2535 H 233.701 1.17235 3.61884 0
M  V30 2536 H 235.013 1.32704 4.80823 0
M  V30 2537 H 234.167 -0.688394 6.02782 0
M  V30 2538 H 232.906 -0.934041 4.78672 0
M  V30 2539 H 231.911 1.3031 5.34134 0
M  V30 2540 H 233.136 1.53689 6.61481 0
M  V30 2541 H 231.082 -0.705213 6.52198 0
M  V30 2542 H 230.999 0.704249 7.52713 0
M  V30 2543 H 232.267 -0.457383 7.78157 0
M  V30 2544 N 236.496 -1.42363 0.676048 0
M  V30 2545 C 237.443 -2.308 -0.00150904 0
M  V30 2546 C 238.413 -1.46032 -0.791444 0
M  V30 2547 O 239.598 -1.74861 -0.76344 0
M  V30 2548 C 236.738 -3.31883 -0.945919 0
M  V30 2549 C 235.851 -4.31741 -0.149675 0
M  V30 2550 C 234.986 -5.19898 -1.08995 0
M  V30 2551 C 234.025 -6.11434 -0.285465 0
M  V30 2552 N 233.162 -6.92138 -1.17851 0
M  V30 2553 H 238.002 -2.88187 0.758455 0
M  V30 2554 H 235.539 -1.41952 0.38576 0
M  V30 2555 H 237.497 -3.89019 -1.50731 0
M  V30 2556 H 236.127 -2.76093 -1.6725 0
M  V30 2557 H 235.179 -3.76713 0.528359 0
M  V30 2558 H 236.491 -4.96534 0.474866 0
M  V30 2559 H 235.645 -5.81772 -1.72123 0
M  V30 2560 H 234.384 -4.55284 -1.74837 0
M  V30 2561 H 233.389 -5.48627 0.359018 0
M  V30 2562 H 234.614 -6.78097 0.368883 0
M  V30 2563 H 232.56 -6.30152 -1.82332 0
M  V30 2564 H 232.477 -7.53542 -0.609082 0
M  V30 2565 H 233.745 -7.58499 -1.79722 0
M  V30 2566 N 237.974 -0.419461 -1.51915 0
M  V30 2567 C 239.204 0.151915 -2.06041 0
M  V30 2568 C 239.612 1.38539 -1.28855 0
M  V30 2569 O 238.955 1.80592 -0.336463 0
M  V30 2570 C 239.017 0.557119 -3.55157 0
M  V30 2571 C 238.681 -0.567054 -4.53468 0
M  V30 2572 C 239.678 -1.43379 -4.99738 0
M  V30 2573 C 237.363 -0.742693 -4.96779 0
M  V30 2574 C 239.357 -2.46102 -5.87973 0
M  V30 2575 C 237.044 -1.77322 -5.84808 0
M  V30 2576 C 238.042 -2.63078 -6.30301 0
M  V30 2577 O 237.73 -3.64364 -7.16585 0
M  V30 2578 H 237.462 0.0193293 -0.675724 0
M  V30 2579 H 240.016 -0.592073 -1.96682 0
M  V30 2580 H 238.246 1.35355 -3.62238 0
M  V30 2581 H 239.935 1.05759 -3.9188 0
M  V30 2582 H 240.701 -1.30954 -4.66986 0
M  V30 2583 H 236.58 -0.0848307 -4.60922 0
M  V30 2584 H 240.124 -3.13071 -6.23404 0
M  V30 2585 H 236.021 -1.89773 -6.16974 0
M  V30 2586 H 236.789 -3.60731 -7.34721 0
M  V30 2587 N 239.452 1.56882 -0.150215 0
M  V30 2588 C 240.382 2.19935 0.784284 0
M  V30 2589 C 241.363 1.14854 1.25469 0
M  V30 2590 O 242.548 1.43209 1.31168 0
M  V30 2591 C 239.678 2.82349 2.02229 0
M  V30 2592 C 238.632 3.93285 1.68853 0
M  V30 2593 C 237.958 4.42649 2.99944 0
M  V30 2594 C 239.258 5.13904 0.932714 0
M  V30 2595 H 240.952 2.9828 0.258781 0
M  V30 2596 H 238.498 1.43473 0.123029 0
M  V30 2597 H 240.451 3.25126 2.68088 0
M  V30 2598 H 239.175 2.0134 2.57157 0
M  V30 2599 H 237.834 3.5113 1.05371 0
M  V30 2600 H 237.482 3.58458 3.52869 0
M  V30 2601 H 237.182 5.17476 2.78374 0
M  V30 2602 H 238.706 4.88099 3.66868 0
M  V30 2603 H 240.12 5.53506 1.49345 0
M  V30 2604 H 238.517 5.94515 0.81684 0
M  V30 2605 H 239.587 4.84842 -0.0749568 0
M  V30 2606 N 240.93 -0.123565 1.57115 0
M  V30 2607 C 242.16 -0.845233 1.88519 0
M  V30 2608 C 242.568 -1.74168 0.739064 0
M  V30 2609 O 241.911 -1.81244 -0.299355 0
M  V30 2610 C 241.973 -1.73452 3.14888 0
M  V30 2611 C 241.637 -1.01285 4.45635 0
M  V30 2612 C 242.634 -0.355774 5.18681 0
M  V30 2613 C 240.319 -0.99538 4.92339 0
M  V30 2614 C 242.313 0.309114 6.3665 0
M  V30 2615 C 240 -0.32669 6.10226 0
M  V30 2616 C 240.998 0.324406 6.82229 0
M  V30 2617 O 240.686 0.982437 7.97874 0
M  V30 2618 H 240.418 -0.248534 0.628655 0
M  V30 2619 H 242.972 -0.113907 2.05084 0
M  V30 2620 H 241.202 -2.50737 2.94394 0
M  V30 2621 H 242.891 -2.33021 3.32349 0
M  V30 2622 H 243.657 -0.360918 4.83655 0
M  V30 2623 H 239.536 -1.49159 4.36202 0
M  V30 2624 H 243.08 0.8179 6.92789 0
M  V30 2625 H 238.977 -0.319294 6.4471 0
M  V30 2626 H 239.745 0.886454 8.13686 0
M  V30 2627 N 242.408 -1.52605 -0.393616 0
M  V30 2628 C 243.318 -1.79971 -1.50492 0
M  V30 2629 C 244.334 -0.686181 -1.59899 0
M  V30 2630 O 245.51 -0.973274 -1.76322 0
M  V30 2631 C 242.575 -1.95867 -2.86072 0
M  V30 2632 C 241.636 -3.19781 -2.86424 0
M  V30 2633 C 240.869 -3.34909 -4.15538 0
M  V30 2634 O 241.092 -2.54948 -5.10253 0
M  V30 2635 O 240.026 -4.28141 -4.23059 0
M  V30 2636 H 243.852 -2.74328 -1.30299 0
M  V30 2637 H 241.437 -1.3764 -0.581005 0
M  V30 2638 H 243.319 -2.08056 -3.66457 0
M  V30 2639 H 241.994 -1.04699 -3.063 0
M  V30 2640 H 240.901 -3.13038 -2.04837 0
M  V30 2641 H 242.234 -4.1078 -2.71147 0
M  V30 2642 N 243.887 0.651787 -1.4349 0
M  V30 2643 C 245.136 1.40754 -1.44469 0
M  V30 2644 C 245.449 1.95463 -0.0731845 0
M  V30 2645 O 246.655 2.71471 0.0395721 0
M  V30 2646 C 245.111 2.54735 -2.5424 0
M  V30 2647 C 244.719 2.06628 -3.97504 0
M  V30 2648 C 246.463 3.32092 -2.64414 0
M  V30 2649 C 244.37 3.17829 -4.98737 0
M  V30 2650 H 243.3 0.528862 -0.53742 0
M  V30 2651 H 245.951 0.703365 -1.69485 0
M  V30 2652 H 244.333 3.2763 -2.22428 0
M  V30 2653 H 245.507 1.40734 -4.38783 0
M  V30 2654 H 243.822 1.42146 -3.91387 0
M  V30 2655 H 246.419 4.14952 -3.37223 0
M  V30 2656 H 246.762 3.80217 -1.69532 0
M  V30 2657 H 247.295 2.66279 -2.95534 0
M  V30 2658 H 244.034 2.74671 -5.95177 0
M  V30 2659 H 243.554 3.82429 -4.62069 0
M  V30 2660 H 245.233 3.82937 -5.21505 0
M  V30 2661 N 245.365 1.30045 0.890287 0
M  V30 2662 C 246.328 1.15963 1.977 0
M  V30 2663 C 247.328 0.0923777 1.60534 0
M  V30 2664 O 248.518 0.340071 1.70848 0
M  V30 2665 C 245.65 0.775451 3.31963 0
M  V30 2666 H 246.843 2.12502 2.11619 0
M  V30 2667 H 244.396 1.13366 1.07601 0
M  V30 2668 H 245.131 -0.189671 3.23745 0
M  V30 2669 H 244.916 1.54668 3.60306 0
M  V30 2670 H 246.406 0.700251 4.11687 0
M  V30 2671 N 246.843 -1.10192 1.12674 0
M  V30 2672 C 248.259 -1.34235 0.863317 0
M  V30 2673 C 248.459 -1.95062 -0.505277 0
M  V30 2674 O 247.515 -2.19192 -1.25345 0
M  V30 2675 C 248.828 -2.2616 1.98172 0
M  V30 2676 C 250.376 -2.3969 2.0129 0
M  V30 2677 C 250.851 -3.34946 3.1237 0
M  V30 2678 N 252.342 -3.42515 3.11829 0
M  V30 2679 C 253.077 -4.16199 3.94419 0
M  V30 2680 N 252.573 -4.92747 4.87004 0
M  V30 2681 N 254.366 -4.11843 3.82547 0
M  V30 2682 H 246.517 -0.690798 2.00853 0
M  V30 2683 H 248.78 -0.366774 0.874174 0
M  V30 2684 H 248.486 -1.8868 2.96804 0
M  V30 2685 H 248.36 -3.26488 1.88906 0
M  V30 2686 H 250.747 -2.76438 1.03276 0
M  V30 2687 H 250.828 -1.39169 2.14629 0
M  V30 2688 H 250.472 -2.98923 4.10619 0
M  V30 2689 H 250.402 -4.35353 2.96269 0
M  V30 2690 H 252.893 -2.87926 2.44759 0
M  V30 2691 H 253.206 -5.46376 5.46528 0
M  V30 2692 H 251.551 -4.91862 4.91016 0
M  V30 2693 H 254.742 -3.51136 3.0955 0
M  V30 2694 H 254.915 -4.69007 4.47142 0
M  V30 2695 N 248.321 -0.919034 -1.28029 0
M  V30 2696 C 249.737 -0.617972 -1.4715 0
M  V30 2697 C 249.937 0.835242 -1.83374 0
M  V30 2698 O 248.993 1.61388 -1.94191 0
M  V30 2699 C 250.306 -1.56041 -2.57044 0
M  V30 2700 C 251.854 -1.56769 -2.7091 0
M  V30 2701 C 252.329 -2.49688 -3.83953 0
M  V30 2702 N 253.82 -2.47845 -3.91314 0
M  V30 2703 C 254.555 -3.16437 -4.78179 0
M  V30 2704 N 254.051 -3.94376 -5.69596 0
M  V30 2705 N 255.844 -3.05498 -4.71834 0
M  V30 2706 H 247.995 -1.85866 -1.02798 0
M  V30 2707 H 250.258 -0.797506 -0.512531 0
M  V30 2708 H 249.964 -2.59671 -2.372 0
M  V30 2709 H 249.838 -1.29551 -3.54255 0
M  V30 2710 H 252.225 -0.538745 -2.90141 0
M  V30 2711 H 252.306 -1.87305 -1.74214 0
M  V30 2712 H 251.95 -3.52688 -3.65477 0
M  V30 2713 H 251.88 -2.16453 -4.80058 0
M  V30 2714 H 254.371 -1.91234 -3.25941 0
M  V30 2715 H 254.684 -4.43721 -6.32718 0
M  V30 2716 H 253.029 -3.98481 -5.69419 0
M  V30 2717 H 256.22 -2.44108 -3.99411 0
M  V30 2718 H 256.393 -3.59225 -5.39316 0
M  V30 2719 N 249.799 1.42003 -0.683588 0
M  V30 2720 C 250.749 2.27997 0.0121992 0
M  V30 2721 C 251.733 1.4156 0.764822 0
M  V30 2722 O 252.925 1.64935 0.642287 0
M  V30 2723 C 250.054 3.29706 0.956482 0
M  V30 2724 C 249.14 4.23625 0.200739 0
M  V30 2725 N 249.531 4.99448 -0.799087 0
M  V30 2726 C 247.829 4.43845 0.437937 0
M  V30 2727 C 248.53 5.68102 -1.25041 0
M  V30 2728 N 247.506 5.40511 -0.578648 0
M  V30 2729 H 251.308 2.84048 -0.754564 0
M  V30 2730 H 248.822 1.54071 -0.513398 0
M  V30 2731 H 250.819 3.90124 1.47 0
M  V30 2732 H 249.479 2.75216 1.72297 0
M  V30 2733 H 250.49 5.04303 -1.17893 0
M  V30 2734 H 247.167 4.00382 1.18325 0
M  V30 2735 H 248.557 6.38913 -2.07942 0
M  V30 2736 N 251.277 0.427512 1.51691 0
M  V30 2737 C 252.688 -0.0378867 1.86662 0
M  V30 2738 C 253.039 -1.42819 1.34525 0
M  V30 2739 O 252.164 -2.05037 0.692014 0
M  V30 2740 C 252.759 -0.0755266 3.38716 0
M  V30 2741 C 251.318 -0.485309 3.73258 0
M  V30 2742 C 250.465 0.328399 2.75349 0
M  V30 2743 H 253.416 0.64379 1.45055 0
M  V30 2744 H 253.437 -0.887056 3.70016 0
M  V30 2745 H 252.949 0.936487 3.76632 0
M  V30 2746 H 251.05 -1.50329 3.40928 0
M  V30 2747 H 251.163 -0.21693 4.78609 0
M  V30 2748 H 249.527 -0.211905 2.53817 0
M  V30 2749 H 250.31 1.3391 3.16106 0
M  V30 2750 N 252.755 -1.56801 0.158532 0
M  V30 2751 C 253.985 -2.00568 -0.495583 0
M  V30 2752 C 254.393 -1.03774 -1.58201 0
M  V30 2753 O 253.736 -0.0285797 -1.83678 0
M  V30 2754 C 253.798 -3.40768 -1.14532 0
M  V30 2755 C 253.462 -4.56553 -0.202101 0
M  V30 2756 C 254.459 -5.16714 0.574675 0
M  V30 2757 C 252.144 -5.02197 -0.101648 0
M  V30 2758 C 254.138 -6.20939 1.43924 0
M  V30 2759 C 251.825 -6.06274 0.766508 0
M  V30 2760 C 252.823 -6.65515 1.53555 0
M  V30 2761 O 252.511 -7.67575 2.38922 0
M  V30 2762 H 252.243 -0.662893 -0.13247 0
M  V30 2763 H 254.797 -2.03829 0.253559 0
M  V30 2764 H 253.027 -3.34381 -1.94233 0
M  V30 2765 H 254.716 -3.6857 -1.70033 0
M  V30 2766 H 255.482 -4.82341 0.507167 0
M  V30 2767 H 251.361 -4.55807 -0.689994 0
M  V30 2768 H 254.905 -6.67107 2.03996 0
M  V30 2769 H 250.802 -6.40073 0.835266 0
M  V30 2770 H 251.57 -7.84844 2.32296 0
M  V30 2771 N 254.233 0.115231 -1.57178 0
M  V30 2772 C 255.48 0.822351 -1.8505 0
M  V30 2773 C 255.808 1.79701 -0.744168 0
M  V30 2774 O 255.063 1.93909 0.26414 0
M  V30 2775 C 255.362 1.60324 -3.19423 0
M  V30 2776 C 255.028 0.772536 -4.44233 0
M  V30 2777 C 253.69 0.543468 -4.78121 0
M  V30 2778 C 256.042 0.193746 -5.2084 0
M  V30 2779 C 253.37 -0.274583 -5.86057 0
M  V30 2780 C 255.722 -0.611517 -6.29637 0
M  V30 2781 C 254.386 -0.850867 -6.62055 0
M  V30 2782 H 253.656 0.30092 -0.677147 0
M  V30 2783 H 256.303 0.0845802 -1.91313 0
M  V30 2784 H 254.608 2.41203 -3.08753 0
M  V30 2785 H 256.305 2.1544 -3.38211 0
M  V30 2786 H 252.895 0.96117 -4.17683 0
M  V30 2787 H 257.079 0.357926 -4.95008 0
M  V30 2788 H 252.335 -0.469206 -6.09597 0
M  V30 2789 H 256.509 -1.06697 -6.88178 0
M  V30 2790 H 254.136 -1.48657 -7.45523 0
M  V30 2791 N 255.711 1.52812 0.385517 0
M  V30 2792 C 256.941 1.71658 1.14966 0
M  V30 2793 C 257.349 0.436253 1.84102 0
M  V30 2794 O 256.692 -0.599313 1.73649 0
M  V30 2795 C 256.754 2.81309 2.23843 0
M  V30 2796 C 256.418 4.22313 1.74644 0
M  V30 2797 C 257.415 5.05352 1.22129 0
M  V30 2798 C 255.1 4.68648 1.80761 0
M  V30 2799 C 257.094 6.32807 0.763838 0
M  V30 2800 C 254.781 5.96086 1.34627 0
M  V30 2801 C 255.779 6.77996 0.825264 0
M  V30 2802 O 255.467 8.03045 0.370669 0
M  V30 2803 H 255.199 0.578022 0.350523 0
M  V30 2804 H 257.753 2.00263 0.456509 0
M  V30 2805 H 255.983 2.48133 2.96592 0
M  V30 2806 H 257.672 2.88524 2.85497 0
M  V30 2807 H 258.438 4.70736 1.16758 0
M  V30 2808 H 254.317 4.04979 2.20256 0
M  V30 2809 H 257.861 6.96689 0.356494 0
M  V30 2810 H 253.758 6.30205 1.39686 0
M  V30 2811 H 254.526 8.17021 0.491829 0
M  V30 2812 N 257.189 -0.644168 1.43834 0
M  V30 2813 C 258.152 -1.73857 1.49353 0
M  V30 2814 C 259.152 -1.56315 0.377112 0
M  V30 2815 O 260.342 -1.62048 0.639226 0
M  V30 2816 C 257.474 -3.12819 1.35488 0
M  V30 2817 H 258.667 -1.70342 2.46827 0
M  V30 2818 H 256.22 -0.856652 1.30733 0
M  V30 2819 H 256.955 -3.2194 0.390569 0
M  V30 2820 H 256.74 -3.26958 2.16428 0
M  V30 2821 H 258.23 -3.92606 1.42302 0
M  V30 2822 N 258.668 -1.30515 -0.883378 0
M  V30 2823 C 260.079 -1.17509 -1.45081 0
M  V30 2824 C 260.43 0.223605 -1.94922 0
M  V30 2825 O 259.555 1.12041 -1.85137 0
M  V30 2826 C 260.15 -2.12715 -2.63701 0
M  V30 2827 C 258.709 -2.03682 -3.16529 0
M  V30 2828 C 257.856 -2.02706 -1.89224 0
M  V30 2829 H 260.807 -1.42762 -0.693165 0
M  V30 2830 H 260.828 -1.70891 -3.39965 0
M  V30 2831 H 260.34 -3.14505 -2.27395 0
M  V30 2832 H 258.441 -1.05039 -3.57488 0
M  V30 2833 H 258.554 -2.92146 -3.7972 0
M  V30 2834 H 256.918 -1.4753 -2.07622 0
M  V30 2835 H 257.701 -3.06229 -1.55174 0
M  V30 2836 N 260.146 1.09593 -1.13257 0
M  V30 2837 C 261.056 2.19739 -0.821691 0
M  V30 2838 C 262.072 1.72926 0.19302 0
M  V30 2839 O 263.248 2.01385 0.0244895 0
M  V30 2840 C 260.313 3.45482 -0.290333 0
M  V30 2841 C 259.374 4.06985 -1.36607 0
M  V30 2842 C 258.607 5.26726 -0.859975 0
M  V30 2843 O 258.83 5.69594 0.303082 0
M  V30 2844 O 257.764 5.7931 -1.63351 0
M  V30 2845 H 261.59 2.48781 -1.74189 0
M  V30 2846 H 259.175 1.18496 -0.909894 0
M  V30 2847 H 261.057 4.214 0.000674022 0
M  V30 2848 H 259.732 3.18047 0.602306 0
M  V30 2849 H 258.639 3.32712 -1.71037 0
M  V30 2850 H 259.972 4.38643 -2.23279 0
M  V30 2851 N 261.624 0.925811 1.2754 0
M  V30 2852 C 262.554 0.440748 2.29303 0
M  V30 2853 C 263.535 -0.497971 1.62648 0
M  V30 2854 O 264.72 -0.403126 1.8997 0
M  V30 2855 C 261.85 -0.309048 3.45922 0
M  V30 2856 C 260.804 0.54166 4.24559 0
M  V30 2857 C 260.13 -0.337191 5.33636 0
M  V30 2858 C 261.43 1.80516 4.90114 0
M  V30 2859 H 263.124 1.29121 2.70126 0
M  V30 2860 H 260.67 0.622323 1.29858 0
M  V30 2861 H 262.623 -0.659315 4.1621 0
M  V30 2862 H 261.347 -1.19352 3.04011 0
M  V30 2863 H 260.006 0.874609 3.56014 0
M  V30 2864 H 259.654 -1.22056 4.87966 0
M  V30 2865 H 259.354 0.228497 5.87156 0
M  V30 2866 H 260.878 -0.683072 6.06767 0
M  V30 2867 H 262.292 1.52307 5.52698 0
M  V30 2868 H 260.689 2.3142 5.53683 0
M  V30 2869 H 261.759 2.52581 4.13921 0
M  V30 2870 N 263.102 -1.41638 0.69111 0
M  V30 2871 C 264.032 -2.3347 0.037248 0
M  V30 2872 C 265.013 -1.51575 -0.771947 0
M  V30 2873 O 266.198 -1.80126 -0.72582 0
M  V30 2874 C 263.328 -3.35354 -0.903064 0
M  V30 2875 C 262.282 -4.27526 -0.201288 0
M  V30 2876 C 261.608 -5.19747 -1.25565 0
M  V30 2877 C 262.908 -5.13959 0.929689 0
M  V30 2878 H 264.602 -2.88397 0.804227 0
M  V30 2879 H 262.148 -1.38669 0.388189 0
M  V30 2880 H 264.101 -3.98519 -1.36969 0
M  V30 2881 H 262.825 -2.78767 -1.70166 0
M  V30 2882 H 261.484 -3.65779 0.245265 0
M  V30 2883 H 261.132 -4.59479 -2.04666 0
M  V30 2884 H 260.832 -5.8225 -0.791128 0
M  V30 2885 H 262.356 -5.85789 -1.72288 0
M  V30 2886 H 263.77 -5.70718 0.543546 0
M  V30 2887 H 262.167 -5.85379 1.32103 0
M  V30 2888 H 263.237 -4.51389 1.77133 0
M  V30 2889 N 264.58 -0.43555 -1.51462 0
M  V30 2890 C 265.827 0.131514 -2.02072 0
M  V30 2891 C 266.155 1.42868 -1.31981 0
M  V30 2892 O 265.41 1.91076 -0.422883 0
M  V30 2893 C 265.709 0.39942 -3.55161 0
M  V30 2894 C 265.375 -0.81172 -4.43533 0
M  V30 2895 C 264.037 -1.14387 -4.67407 0
M  V30 2896 C 266.389 -1.61976 -4.95392 0
M  V30 2897 C 263.717 -2.28477 -5.40384 0
M  V30 2898 C 266.069 -2.75164 -5.6962 0
M  V30 2899 C 264.733 -3.08835 -5.91758 0
M  V30 2900 H 264.003 0.0481244 -0.739436 0
M  V30 2901 H 266.65 -0.58238 -1.8243 0
M  V30 2902 H 264.955 1.19519 -3.73125 0
M  V30 2903 H 266.652 0.85157 -3.91854 0
M  V30 2904 H 263.242 -0.542898 -4.25148 0
M  V30 2905 H 267.426 -1.37637 -4.76833 0
M  V30 2906 H 262.682 -2.5488 -5.55739 0
M  V30 2907 H 266.856 -3.38147 -6.08793 0
M  V30 2908 H 264.483 -3.97353 -6.48086 0
M  V30 2909 N 266.058 1.56714 -0.166846 0
M  V30 2910 C 267.305 1.96747 0.479252 0
M  V30 2911 C 267.633 1.05263 1.63554 0
M  V30 2912 O 266.888 0.0858098 1.95512 0
M  V30 2913 C 267.187 3.42889 1.00806 0
M  V30 2914 C 266.853 4.50889 -0.0318574 0
M  V30 2915 C 265.515 4.8015 -0.317675 0
M  V30 2916 C 267.867 5.15949 -0.737956 0
M  V30 2917 C 265.195 5.71772 -1.31506 0
M  V30 2918 C 267.547 6.08647 -1.72429 0
M  V30 2919 C 266.211 6.36277 -2.0176 0
M  V30 2920 H 265.481 0.719949 0.175371 0
M  V30 2921 H 268.128 1.89756 -0.257864 0
M  V30 2922 H 266.433 3.4681 1.82291 0
M  V30 2923 H 268.13 3.71203 1.51689 0
M  V30 2924 H 264.72 4.28128 0.201088 0
M  V30 2925 H 268.904 4.93458 -0.530351 0
M  V30 2926 H 264.16 5.91465 -1.54853 0
M  V30 2927 H 268.334 6.58129 -2.27682 0
M  V30 2928 H 265.961 7.07075 -2.79194 0
M  V30 2929 N 267.536 -0.106894 1.57237 0
M  V30 2930 C 268.499 -1.11466 2.0027 0
M  V30 2931 C 269.499 -1.33623 0.894519 0
M  V30 2932 O 270.689 -1.29935 1.16028 0
M  V30 2933 C 267.821 -2.46646 2.35327 0
M  V30 2934 H 269.014 -0.744516 2.90512 0
M  V30 2935 H 266.567 -0.351576 1.52295 0
M  V30 2936 H 267.302 -2.88558 1.48003 0
M  V30 2937 H 267.087 -2.31915 3.16161 0
M  V30 2938 H 268.577 -3.19151 2.69318 0
M  V30 2939 N 269.014 -1.53014 -0.377408 0
M  V30 2940 C 269.961 -1.78616 -1.46168 0
M  V30 2941 C 270.931 -0.629917 -1.53692 0
M  V30 2942 O 272.116 -0.870861 -1.69766 0
M  V30 2943 C 269.256 -1.97123 -2.8326 0
M  V30 2944 C 268.369 -3.24831 -2.84796 0
M  V30 2945 C 267.504 -3.33591 -4.13389 0
M  V30 2946 C 266.543 -4.55377 -4.09021 0
M  V30 2947 N 265.68 -4.61355 -5.29241 0
M  V30 2948 H 270.52 -2.71142 -1.23637 0
M  V30 2949 H 268.057 -1.34326 -0.599577 0
M  V30 2950 H 270.015 -2.05839 -3.62886 0
M  V30 2951 H 268.645 -1.07946 -3.04216 0
M  V30 2952 H 267.697 -3.25128 -1.97474 0
M  V30 2953 H 269.009 -4.14523 -2.77439 0
M  V30 2954 H 268.163 -3.41554 -5.01424 0
M  V30 2955 H 266.902 -2.41894 -4.23484 0
M  V30 2956 H 265.907 -4.47527 -3.19373 0
M  V30 2957 H 267.132 -5.48402 -4.00539 0
M  V30 2958 H 265.078 -3.72554 -5.39944 0
M  V30 2959 H 264.995 -5.44935 -5.24006 0
M  V30 2960 H 266.263 -4.73586 -6.19141 0
M  V30 2961 N 270.492 0.636531 -1.44174 0
M  V30 2962 C 271.908 0.954104 -1.27941 0
M  V30 2963 C 272.108 2.0039 -0.211248 0
M  V30 2964 O 271.164 2.49236 0.404695 0
M  V30 2965 C 272.477 1.4225 -2.64925 0
M  V30 2966 C 274.025 1.53827 -2.72592 0
M  V30 2967 C 274.5 2.04053 -4.10032 0
M  V30 2968 N 275.991 2.11331 -4.12182 0
M  V30 2969 C 276.726 2.51352 -5.15374 0
M  V30 2970 N 276.222 2.90549 -6.2893 0
M  V30 2971 N 278.015 2.51438 -5.02728 0
M  V30 2972 H 270.166 -0.0578386 -2.12321 0
M  V30 2973 H 272.429 0.0367406 -0.947288 0
M  V30 2974 H 272.135 0.725466 -3.44136 0
M  V30 2975 H 272.009 2.39451 -2.9145 0
M  V30 2976 H 274.396 2.22628 -1.93702 0
M  V30 2977 H 274.477 0.550154 -2.49814 0
M  V30 2978 H 274.121 1.35848 -4.89395 0
M  V30 2979 H 274.051 3.03726 -4.30184 0
M  V30 2980 H 276.542 1.83745 -3.30222 0
M  V30 2981 H 276.855 3.19884 -7.03487 0
M  V30 2982 H 275.2 2.88313 -6.32377 0
M  V30 2983 H 278.391 2.20203 -4.13072 0
M  V30 2984 H 278.564 2.82304 -5.83274 0
M  V30 2985 N 271.97 1.30982 0.876444 0
M  V30 2986 C 273.2 1.23063 1.65949 0
M  V30 2987 C 273.608 -0.207537 1.88058 0
M  V30 2988 O 272.951 -1.14781 1.43426 0
M  V30 2989 C 273.013 1.89768 3.05333 0
M  V30 2990 C 272.677 3.39106 3.0636 0
M  V30 2991 C 273.674 4.3496 2.84791 0
M  V30 2992 C 271.359 3.80693 3.27686 0
M  V30 2993 C 273.353 5.70375 2.84519 0
M  V30 2994 C 271.04 5.16223 3.27043 0
M  V30 2995 C 272.038 6.10875 3.05485 0
M  V30 2996 O 271.726 7.43928 3.04674 0
M  V30 2997 H 271.458 0.426685 0.524324 0
M  V30 2998 H 274.012 1.7329 1.10271 0
M  V30 2999 H 272.242 1.34082 3.6271 0
M  V30 3000 H 273.931 1.75853 3.65829 0
M  V30 3001 H 274.697 4.0416 2.68103 0
M  V30 3002 H 270.576 3.07457 3.43499 0
M  V30 3003 H 274.12 6.44228 2.67611 0
M  V30 3004 H 270.017 5.4666 3.43269 0
M  V30 3005 H 270.785 7.53022 3.2078 0
M  V30 3006 N 273.449 -1.08991 1.13837 0
M  V30 3007 C 274.396 -2.15748 0.819835 0
M  V30 3008 C 275.366 -1.64636 -0.220026 0
M  V30 3009 O 276.551 -1.90582 -0.0912757 0
M  V30 3010 C 273.691 -3.4382 0.296913 0
M  V30 3011 C 272.804 -4.0881 1.39636 0
M  V30 3012 C 271.939 -5.24655 0.831314 0
M  V30 3013 C 270.978 -5.81575 1.90886 0
M  V30 3014 N 270.115 -6.88774 1.36142 0
M  V30 3015 H 274.955 -2.42338 1.73426 0
M  V30 3016 H 272.492 -1.18935 0.865613 0
M  V30 3017 H 274.45 -4.17193 -0.0244339 0
M  V30 3018 H 273.08 -3.17535 -0.580628 0
M  V30 3019 H 272.132 -3.33258 1.83422 0
M  V30 3020 H 273.444 -4.47141 2.21058 0
M  V30 3021 H 272.598 -6.04942 0.461515 0
M  V30 3022 H 271.337 -4.87698 -0.013932 0
M  V30 3023 H 270.342 -4.99946 2.28767 0
M  V30 3024 H 271.567 -6.20592 2.75758 0
M  V30 3025 H 269.513 -6.53788 0.538254 0
M  V30 3026 H 269.43 -7.25898 2.11208 0
M  V30 3027 H 270.698 -7.72806 1.01933 0
M  V30 3028 N 274.927 -0.932562 -1.27047 0
M  V30 3029 C 275.89 -0.440064 -2.24936 0
M  V30 3030 C 276.89 0.444071 -1.54547 0
M  V30 3031 O 278.08 0.244465 -1.72476 0
M  V30 3032 C 275.212 0.36678 -3.38921 0
M  V30 3033 H 276.405 -1.305 -2.70018 0
M  V30 3034 H 273.958 -0.713707 -1.39054 0
M  V30 3035 H 274.693 1.25033 -2.99228 0
M  V30 3036 H 274.478 -0.267204 -3.91188 0
M  V30 3037 H 275.968 0.701567 -4.11665 0
M  V30 3038 N 276.405 1.4127 -0.698611 0
M  V30 3039 C 277.368 2.29158 -0.044132 0
M  V30 3040 C 278.368 1.44529 0.704841 0
M  V30 3041 O 279.558 1.65643 0.539276 0
M  V30 3042 C 276.69 3.27459 0.947809 0
M  V30 3043 H 277.883 2.88529 -0.817994 0
M  V30 3044 H 275.436 1.49307 -0.46228 0
M  V30 3045 H 276.171 2.73073 1.74933 0
M  V30 3046 H 275.956 3.8991 0.41385 0
M  V30 3047 H 277.446 3.93311 1.40344 0
M  V30 3048 N 277.883 0.443576 1.51229 0
M  V30 3049 C 279.13 -0.120796 2.02139 0
M  V30 3050 C 279.458 -1.42166 1.32736 0
M  V30 3051 O 278.713 -1.90849 0.43301 0
M  V30 3052 C 279.012 -0.380579 3.55368 0
M  V30 3053 C 278.678 0.83523 4.43097 0
M  V30 3054 C 277.34 1.16864 4.66794 0
M  V30 3055 C 279.692 1.64601 4.94526 0
M  V30 3056 C 277.02 2.31339 5.39165 0
M  V30 3057 C 279.372 2.78181 5.68153 0
M  V30 3058 C 278.036 3.11969 5.90112 0
M  V30 3059 H 277.306 -0.0442023 0.73968 0
M  V30 3060 H 279.953 0.592046 1.82118 0
M  V30 3061 H 278.258 -1.17538 3.73754 0
M  V30 3062 H 279.955 -0.830777 3.923 0
M  V30 3063 H 276.545 0.565437 4.24854 0
M  V30 3064 H 280.729 1.40163 4.76097 0
M  V30 3065 H 275.985 2.57823 5.5438 0
M  V30 3066 H 280.159 3.41371 6.06992 0
M  V30 3067 H 277.786 4.00784 6.45969 0
M  V30 3068 N 279.361 -1.56624 0.175154 0
M  V30 3069 C 280.589 -2.01374 -0.474971 0
M  V30 3070 C 281.004 -1.05537 -1.56548 0
M  V30 3071 O 280.361 -0.0568668 -1.82411 0
M  V30 3072 C 280.412 -3.45923 -1.04975 0
M  V30 3073 O 280.133 -4.381 -0.00276605 0
M  V30 3074 C 281.634 -4.06093 -1.77773 0
M  V30 3075 H 278.854 -0.659962 -0.121206 0
M  V30 3076 H 281.398 -2.02601 0.27801 0
M  V30 3077 H 279.553 -3.45458 -1.75321 0
M  V30 3078 H 279.967 -5.22753 -0.427681 0
M  V30 3079 H 281.441 -5.09147 -2.13245 0
M  V30 3080 H 281.918 -3.48405 -2.67414 0
M  V30 3081 H 282.524 -4.10272 -1.12059 0
M  V30 3082 N 280.839 0.0985539 -1.57292 0
M  V30 3083 C 281.749 1.13824 -2.05137 0
M  V30 3084 C 282.765 1.44076 -0.975604 0
M  V30 3085 O 283.941 1.54786 -1.28853 0
M  V30 3086 C 281.006 2.43969 -2.46333 0
M  V30 3087 C 280.067 2.2093 -3.68087 0
M  V30 3088 C 279.3 3.44869 -4.0731 0
M  V30 3089 O 279.523 4.52972 -3.46659 0
M  V30 3090 O 278.457 3.34661 -5.00285 0
M  V30 3091 H 282.283 0.761881 -2.93988 0
M  V30 3092 H 279.868 0.310818 -1.46131 0
M  V30 3093 H 281.75 3.20609 -2.73473 0
M  V30 3094 H 280.425 2.81038 -1.60621 0
M  V30 3095 H 279.332 1.42081 -3.46069 0
M  V30 3096 H 280.665 1.88755 -4.54568 0
M  V30 3097 N 282.317 1.53212 0.369288 0
M  V30 3098 C 283.557 1.70915 1.12105 0
M  V30 3099 C 283.921 0.449444 1.86665 0
M  V30 3100 O 285.122 0.503105 2.6405 0
M  V30 3101 C 283.393 2.9222 2.05772 0
M  V30 3102 S 284.952 3.30609 2.88519 0
M  V30 3103 H 281.77 0.601445 0.379189 0
M  V30 3104 H 284.372 1.91306 0.402794 0
M  V30 3105 H 283.076 3.82103 1.49752 0
M  V30 3106 H 282.607 2.7422 2.82076 0
M  V30 3107 H 284.622 2.82333 4.08047 0
M  V30 3108 N 283.795 -0.628877 1.44509 0
M  V30 3109 C 285.035 -1.39993 1.48934 0
M  V30 3110 C 285.399 -1.91627 0.119604 0
M  V30 3111 O 286.6 -2.68772 0.0385283 0
M  V30 3112 C 284.871 -2.53241 2.52198 0
M  V30 3113 S 286.43 -3.41383 2.75687 0
M  V30 3114 H 283.248 -0.477558 0.526744 0
M  V30 3115 H 285.85 -0.727804 1.81448 0
M  V30 3116 H 284.554 -2.13622 3.50419 0
M  V30 3117 H 284.085 -3.25278 2.21264 0
M  V30 3118 H 286.1 -4.50752 2.07453 0
M  V30 3119 N 285.273 -1.31445 -0.869486 0
M  V30 3120 C 286.205 -1.14955 -1.98287 0
M  V30 3121 C 287.218 -0.0885037 -1.62559 0
M  V30 3122 O 288.407 -0.336044 -1.75308 0
M  V30 3123 C 285.507 -0.734255 -3.3085 0
M  V30 3124 C 284.68 -1.88042 -3.94917 0
M  V30 3125 C 283.739 -1.4511 -5.05796 0
M  V30 3126 O 282.765 -2.16082 -5.2659 0
M  V30 3127 N 283.967 -0.338763 -5.79511 0
M  V30 3128 H 286.732 -2.10856 -2.12979 0
M  V30 3129 H 284.293 -1.23786 -1.04349 0
M  V30 3130 H 286.285 -0.42975 -4.02412 0
M  V30 3131 H 284.855 0.133158 -3.12316 0
M  V30 3132 H 284.075 -2.35222 -3.1633 0
M  V30 3133 H 285.363 -2.6481 -4.34457 0
M  V30 3134 H 284.761 0.252274 -5.65137 0
M  V30 3135 H 283.318 -0.0937925 -6.51733 0
M  V30 3136 N 286.751 1.08385 -1.14413 0
M  V30 3137 C 287.714 2.13486 -0.834048 0
M  V30 3138 C 288.714 1.59988 0.161418 0
M  V30 3139 O 289.904 1.74071 -0.0669575 0
M  V30 3140 C 287.036 3.4003 -0.243354 0
M  V30 3141 H 288.229 2.42425 -1.7655 0
M  V30 3142 H 285.782 1.24101 -0.950189 0
M  V30 3143 H 286.517 3.16726 0.696807 0
M  V30 3144 H 286.302 3.80157 -0.960367 0
M  V30 3145 H 287.792 4.17577 -0.0436242 0
M  V30 3146 N 288.23 0.939286 1.26551 0
M  V30 3147 C 289.193 0.451987 2.24699 0
M  V30 3148 C 290.193 -0.435869 1.5478 0
M  V30 3149 O 291.383 -0.235314 1.72603 0
M  V30 3150 C 288.515 -0.348801 3.39111 0
M  V30 3151 H 289.708 1.3193 2.69322 0
M  V30 3152 H 287.261 0.721072 1.38673 0
M  V30 3153 H 287.996 -1.23444 2.99887 0
M  V30 3154 H 287.781 0.287945 3.91041 0
M  V30 3155 H 289.271 -0.679726 4.12031 0
M  V30 3156 N 289.708 -1.40897 0.706093 0
M  V30 3157 C 290.985 -1.94868 0.169099 0
M  V30 3158 C 291.365 -1.64485 -1.32318 0
M  V30 3159 O 290.713 -0.95744 -2.07474 0
M  V30 3160 C 290.923 -3.45798 0.471654 0
M  V30 3161 C 292.271 -4.22663 0.405127 0
M  V30 3162 O 293.295 -3.53865 0.407168 0
M  V30 3163 O 292.154 -5.45216 0.374383 0
M  V30 3164 H 289.248 -0.82673 0.0211352 0
M  V30 3165 H 291.794 -1.50558 0.782976 0
M  V30 3166 H 290.566 -3.61235 1.50416 0
M  V30 3167 H 290.189 -3.97225 -0.172666 0
M  V30 3168 N 291.186 -0.45159 -1.50991 0
M  V30 3169 C 292.133 0.352625 -2.2809 0
M  V30 3170 C 293.103 1.0044 -1.32291 0
M  V30 3171 O 294.288 1.02058 -1.6121 0
M  V30 3172 C 291.428 1.43983 -3.13629 0
M  V30 3173 C 290.541 0.804772 -4.24438 0
M  V30 3174 C 289.676 1.86822 -4.97263 0
M  V30 3175 C 288.715 1.21236 -5.99973 0
M  V30 3176 N 287.852 2.2178 -6.66152 0
M  V30 3177 H 292.692 -0.311186 -2.96371 0
M  V30 3178 H 290.229 -0.165308 -1.46168 0
M  V30 3179 H 292.187 2.08161 -3.61559 0
M  V30 3180 H 290.817 2.07307 -2.47434 0
M  V30 3181 H 289.869 0.0509129 -3.80366 0
M  V30 3182 H 291.181 0.286076 -4.97979 0
M  V30 3183 H 290.335 2.58628 -5.48813 0
M  V30 3184 H 289.074 2.42068 -4.23385 0
M  V30 3185 H 288.079 0.479828 -5.47702 0
M  V30 3186 H 289.304 0.667051 -6.75816 0
M  V30 3187 H 287.25 2.76079 -5.95077 0
M  V30 3188 H 287.167 1.74841 -7.35504 0
M  V30 3189 H 288.435 2.93026 -7.22327 0
M  V30 3190 N 292.664 1.56529 -0.183458 0
M  V30 3191 C 293.627 2.17324 0.728223 0
M  V30 3192 C 294.627 1.12453 1.14939 0
M  V30 3193 O 295.817 1.37902 1.06437 0
M  V30 3194 C 292.949 2.76591 1.99274 0
M  V30 3195 H 294.142 2.99241 0.198772 0
M  V30 3196 H 291.695 1.5616 0.0661391 0
M  V30 3197 H 292.43 1.98441 2.56499 0
M  V30 3198 H 292.215 3.5335 1.69959 0
M  V30 3199 H 293.705 3.23311 2.6431 0
M  V30 3200 N 294.142 -0.090211 1.57342 0
M  V30 3201 C 295.105 -1.09335 2.01441 0
M  V30 3202 C 296.105 -1.32666 0.908641 0
M  V30 3203 O 297.295 -1.28697 1.174 0
M  V30 3204 C 294.427 -2.44136 2.3793 0
M  V30 3205 H 295.62 -0.713662 2.91285 0
M  V30 3206 H 293.173 -0.335404 1.52659 0
M  V30 3207 H 293.908 -2.86972 1.51055 0
M  V30 3208 H 293.693 -2.28548 3.18603 0
M  V30 3209 H 295.183 -3.16277 2.72688 0
M  V30 3210 N 295.62 -1.53406 -0.361157 0
M  V30 3211 C 296.86 -1.71507 -1.11197 0
M  V30 3212 C 297.224 -0.459337 -1.86425 0
M  V30 3213 O 298.425 -0.517102 -2.63779 0
M  V30 3214 C 296.696 -2.93307 -2.0422 0
M  V30 3215 S 298.255 -3.32135 -2.86761 0
M  V30 3216 H 295.073 -0.603448 -0.375995 0
M  V30 3217 H 297.675 -1.91516 -0.392642 0
M  V30 3218 H 296.379 -3.82891 -1.47724 0
M  V30 3219 H 295.91 -2.75712 -2.80618 0
M  V30 3220 H 297.925 -2.84493 -4.06544 0
M  V30 3221 N 297.098 0.621204 -1.44841 0
M  V30 3222 C 298.028 1.74366 -1.55303 0
M  V30 3223 C 299.009 1.65199 -0.405385 0
M  V30 3224 O 300.194 1.83807 -0.626787 0
M  V30 3225 C 297.324 3.12931 -1.50637 0
M  V30 3226 C 296.278 3.36896 -2.63979 0
M  V30 3227 C 295.604 4.75594 -2.44366 0
M  V30 3228 C 296.904 3.28483 -4.06074 0
M  V30 3229 H 298.598 1.65867 -2.49256 0
M  V30 3230 H 296.144 0.796558 -1.19962 0
M  V30 3231 H 298.097 3.9124 -1.56555 0
M  V30 3232 H 296.821 3.22237 -0.532057 0
M  V30 3233 H 295.48 2.60972 -2.57467 0
M  V30 3234 H 295.128 4.81616 -1.45105 0
M  V30 3235 H 294.828 4.92586 -3.20364 0
M  V30 3236 H 296.352 5.5612 -2.52117 0
M  V30 3237 H 297.766 3.96684 -4.13902 0
M  V30 3238 H 296.163 3.57008 -4.82354 0
M  V30 3239 H 297.233 2.26133 -4.28943 0
M  V30 3240 N 298.576 1.31904 0.862503 0
M  V30 3241 C 299.506 1.22782 1.98612 0
M  V30 3242 C 300.487 0.113362 1.69722 0
M  V30 3243 O 301.672 0.299218 1.91881 0
M  V30 3244 C 298.802 0.942058 3.34279 0
M  V30 3245 C 297.756 2.0169 3.77499 0
M  V30 3246 C 297.082 1.58369 5.10709 0
M  V30 3247 C 298.382 3.43096 3.93805 0
M  V30 3248 H 300.076 2.16788 2.06502 0
M  V30 3249 H 297.622 1.04366 0.992154 0
M  V30 3250 H 299.575 0.864818 4.1243 0
M  V30 3251 H 298.299 -0.0336603 3.26583 0
M  V30 3252 H 296.958 2.08416 3.01593 0
M  V30 3253 H 296.606 0.595628 4.99461 0
M  V30 3254 H 296.306 2.30279 5.40597 0
M  V30 3255 H 297.83 1.52067 5.91361 0
M  V30 3256 H 299.244 3.39003 4.62331 0
M  V30 3257 H 297.641 4.13288 4.35101 0
M  V30 3258 H 298.711 3.83334 2.96957 0
M  V30 3259 N 300.054 -1.07777 1.14986 0
M  V30 3260 C 301.465 -1.61766 0.932127 0
M  V30 3261 C 301.816 -1.88974 -0.527581 0
M  V30 3262 O 300.941 -1.65198 -1.39781 0
M  V30 3263 C 301.536 -2.93891 1.68563 0
M  V30 3264 C 300.095 -3.44639 1.5133 0
M  V30 3265 C 299.242 -2.18767 1.704 0
M  V30 3266 H 302.193 -0.909201 1.30074 0
M  V30 3267 H 302.214 -3.62623 1.15259 0
M  V30 3268 H 301.726 -2.74057 2.74799 0
M  V30 3269 H 299.827 -3.69564 0.474702 0
M  V30 3270 H 299.94 -4.20966 2.28746 0
M  V30 3271 H 298.304 -2.28253 1.13016 0
M  V30 3272 H 299.087 -2.01433 2.77992 0
M  V30 3273 N 301.532 -0.945985 -1.26051 0
M  V30 3274 C 302.479 -0.45809 -2.26208 0
M  V30 3275 C 303.449 0.484816 -1.58867 0
M  V30 3276 O 304.634 0.399969 -1.86561 0
M  V30 3277 C 301.774 0.266131 -3.44072 0
M  V30 3278 C 300.887 -0.713005 -4.26075 0
M  V30 3279 C 300.022 0.0329013 -5.3119 0
M  V30 3280 C 299.061 -0.93774 -6.04874 0
M  V30 3281 N 298.198 -0.223274 -7.01745 0
M  V30 3282 H 303.038 -1.3171 -2.67313 0
M  V30 3283 H 300.575 -0.66069 -1.31428 0
M  V30 3284 H 302.533 0.702514 -4.11243 0
M  V30 3285 H 301.163 1.08925 -3.03867 0
M  V30 3286 H 300.215 -1.26789 -3.58648 0
M  V30 3287 H 301.527 -1.45406 -4.77136 0
M  V30 3288 H 300.681 0.528335 -6.04395 0
M  V30 3289 H 299.42 0.806801 -4.8098 0
M  V30 3290 H 298.425 -1.44425 -5.30492 0
M  V30 3291 H 299.65 -1.71172 -6.57173 0
M  V30 3292 H 297.596 0.532046 -6.53839 0
M  V30 3293 H 297.513 -0.90357 -7.50581 0
M  V30 3294 H 298.781 0.250907 -7.79096 0
M  V30 3295 N 303.011 1.40521 -0.713556 0
M  V30 3296 C 303.941 2.33381 -0.0743864 0
M  V30 3297 C 304.922 1.52784 0.747735 0
M  V30 3298 O 306.107 1.81258 0.697071 0
M  V30 3299 C 303.237 3.36748 0.849598 0
M  V30 3300 C 302.191 4.27793 0.133247 0
M  V30 3301 C 301.517 5.21679 1.17281 0
M  V30 3302 C 302.817 5.12415 -1.01134 0
M  V30 3303 H 304.511 2.87081 -0.850007 0
M  V30 3304 H 302.057 1.38034 -0.410201 0
M  V30 3305 H 304.01 4.00648 1.30612 0
M  V30 3306 H 302.734 2.81439 1.65709 0
M  V30 3307 H 301.393 3.65342 -0.303426 0
M  V30 3308 H 301.041 4.62677 1.9733 0
M  V30 3309 H 300.741 5.83435 0.698397 0
M  V30 3310 H 302.265 5.88456 1.62947 0
M  V30 3311 H 303.679 5.69781 -0.634274 0
M  V30 3312 H 302.076 5.83203 -1.41399 0
M  V30 3313 H 303.146 4.48514 -1.84292 0
M  V30 3314 N 304.489 0.459591 1.5075 0
M  V30 3315 C 305.766 -0.160371 1.94941 0
M  V30 3316 C 306.146 -1.58048 1.39943 0
M  V30 3317 O 305.494 -2.206 0.595629 0
M  V30 3318 C 305.704 -0.115432 3.48809 0
M  V30 3319 C 307.052 -0.310026 4.23467 0
M  V30 3320 O 308.076 -0.192543 3.55679 0
M  V30 3321 O 306.935 -0.546031 5.43765 0
M  V30 3322 H 304.029 -0.117925 0.818549 0
M  V30 3323 H 306.575 0.519169 1.61563 0
M  V30 3324 H 305.347 0.87652 3.81357 0
M  V30 3325 H 304.97 -0.836928 3.88692 0
M  V30 3326 N 305.967 -1.56429 0.191757 0
M  V30 3327 C 306.877 -2.22541 -0.742481 0
M  V30 3328 C 307.893 -1.22342 -1.23727 0
M  V30 3329 O 309.069 -1.55069 -1.28513 0
M  V30 3330 C 306.134 -2.8692 -1.94623 0
M  V30 3331 C 305.195 -4.02378 -1.49633 0
M  V30 3332 C 304.428 -4.63678 -2.6427 0
M  V30 3333 O 304.651 -4.23895 -3.81666 0
M  V30 3334 O 303.585 -5.53202 -2.37174 0
M  V30 3335 H 307.411 -3.02977 -0.209462 0
M  V30 3336 H 304.996 -1.49353 -0.0373832 0
M  V30 3337 H 306.878 -3.27663 -2.64982 0
M  V30 3338 H 305.553 -2.09466 -2.46791 0
M  V30 3339 H 304.46 -3.66265 -0.761636 0
M  V30 3340 H 305.793 -4.81487 -1.02134 0
M  V30 3341 N 307.445 0.0818655 -1.57387 0
M  V30 3342 C 308.375 1.09885 -2.06028 0
M  V30 3343 C 309.356 1.4098 -0.951774 0
M  V30 3344 O 310.541 1.50781 -1.22387 0
M  V30 3345 C 307.671 2.4151 -2.4958 0
M  V30 3346 C 306.625 2.24792 -3.64215 0
M  V30 3347 C 305.951 3.61712 -3.93787 0
M  V30 3348 C 307.251 1.67749 -4.94629 0
M  V30 3349 H 308.945 0.694128 -2.91243 0
M  V30 3350 H 306.491 0.332448 -1.4011 0
M  V30 3351 H 308.444 3.12939 -2.82219 0
M  V30 3352 H 307.168 2.83943 -1.61381 0
M  V30 3353 H 305.827 1.55807 -3.31843 0
M  V30 3354 H 305.475 4.01697 -3.02735 0
M  V30 3355 H 305.175 3.51368 -4.70971 0
M  V30 3356 H 306.699 4.34587 -4.28913 0
M  V30 3357 H 308.113 2.29032 -5.25564 0
M  V30 3358 H 306.51 1.68128 -5.76067 0
M  V30 3359 H 307.58 0.638059 -4.80684 0
M  V30 3360 N 308.923 1.53595 0.353017 0
M  V30 3361 C 310.339 1.43648 0.695516 0
M  V30 3362 C 310.539 0.585617 1.92802 0
M  V30 3363 O 309.595 0.0729223 2.52395 0
M  V30 3364 C 310.908 2.8701 0.896991 0
M  V30 3365 C 312.456 2.96723 0.996209 0
M  V30 3366 C 312.931 4.41173 1.23007 0
M  V30 3367 N 314.422 4.44657 1.29749 0
M  V30 3368 C 315.157 5.53547 1.49577 0
M  V30 3369 N 314.653 6.72461 1.66639 0
M  V30 3370 N 316.446 5.41145 1.52048 0
M  V30 3371 H 308.597 2.07415 -0.457481 0
M  V30 3372 H 310.86 0.9372 -0.142687 0
M  V30 3373 H 310.566 3.51644 0.0629938 0
M  V30 3374 H 310.44 3.31401 1.80148 0
M  V30 3375 H 312.827 2.32235 1.82074 0
M  V30 3376 H 312.908 2.55707 0.0688331 0
M  V30 3377 H 312.552 5.06238 0.410505 0
M  V30 3378 H 312.482 4.79772 2.17086 0
M  V30 3379 H 314.973 3.58963 1.18126 0
M  V30 3380 H 315.286 7.51214 1.81378 0
M  V30 3381 H 313.631 6.75423 1.63794 0
M  V30 3382 H 316.822 4.47205 1.38294 0
M  V30 3383 H 316.995 6.26068 1.67159 0
M  V30 3384 N 310.401 -0.613514 1.45168 0
M  V30 3385 C 311.678 -1.37263 1.39349 0
M  V30 3386 C 312.058 -2.11012 0.0610848 0
M  V30 3387 O 311.406 -2.07502 -0.956825 0
M  V30 3388 C 311.616 -2.3244 2.60332 0
M  V30 3389 C 312.964 -2.9523 3.05163 0
M  V30 3390 O 313.988 -2.42762 2.60663 0
M  V30 3391 O 312.847 -3.90454 3.82372 0
M  V30 3392 H 309.941 -0.615188 0.552696 0
M  V30 3393 H 312.487 -0.637097 1.57287 0
M  V30 3394 H 311.259 -1.77164 3.48896 0
M  V30 3395 H 310.882 -3.13383 2.44698 0
M  V30 3396 N 311.879 -1.3236 -0.855495 0
M  V30 3397 C 312.789 -1.23221 -1.99634 0
M  V30 3398 C 313.805 -0.145983 -1.73387 0
M  V30 3399 O 314.981 -0.366502 -1.98037 0
M  V30 3400 C 312.046 -0.954782 -3.33294 0
M  V30 3401 C 311.107 -2.12937 -3.72769 0
M  V30 3402 C 310.34 -1.86508 -5.00051 0
M  V30 3403 O 310.563 -0.807231 -5.64659 0
M  V30 3404 O 309.497 -2.72591 -5.36636 0
M  V30 3405 H 313.323 -2.19126 -2.1028 0
M  V30 3406 H 310.908 -1.12241 -0.986018 0
M  V30 3407 H 312.79 -0.816519 -4.13414 0
M  V30 3408 H 311.465 -0.0258854 -3.2369 0
M  V30 3409 H 310.372 -2.3231 -2.93228 0
M  V30 3410 H 311.705 -3.04102 -3.87018 0
M  V30 3411 N 313.357 1.07166 -1.15556 0
M  V30 3412 C 314.605 1.79443 -0.929764 0
M  V30 3413 C 314.926 1.87246 0.544414 0
M  V30 3414 O 314.196 1.37473 1.39564 0
M  V30 3415 H 312.776 0.664625 -0.341003 0
M  V30 3416 H 315.438 1.29499 -1.45657 0
M  V30 3417 H 314.534 2.81832 -1.34079 0
M  V30 3418 N 314.835 0.952656 1.25548 0
M  V30 3419 C 315.782 0.47008 2.25962 0
M  V30 3420 C 316.752 -0.476384 1.59122 0
M  V30 3421 O 317.937 -0.39007 1.8677 0
M  V30 3422 C 315.077 -0.247881 3.44209 0
M  V30 3423 C 314.19 0.735591 4.25691 0
M  V30 3424 C 313.325 -0.0047306 5.312 0
M  V30 3425 C 312.364 0.969805 6.04368 0
M  V30 3426 N 311.501 0.260486 7.01617 0
M  V30 3427 H 316.341 1.33126 2.66611 0
M  V30 3428 H 313.878 0.66765 1.31076 0
M  V30 3429 H 315.836 -0.680695 4.1161 0
M  V30 3430 H 314.466 -1.07312 3.0444 0
M  V30 3431 H 313.518 1.28689 3.57971 0
M  V30 3432 H 314.83 1.47934 4.76358 0
M  V30 3433 H 313.984 -0.496275 6.04667 0
M  V30 3434 H 312.723 -0.781282 4.81401 0
M  V30 3435 H 311.728 1.47237 5.29718 0
M  V30 3436 H 312.953 1.74655 6.56256 0
M  V30 3437 H 310.899 -0.497364 6.54112 0
M  V30 3438 H 310.816 0.943362 7.50091 0
M  V30 3439 H 312.084 -0.209587 7.79218 0
M  V30 3440 N 316.313 -1.40141 0.720998 0
M  V30 3441 C 317.276 -2.29058 0.0805834 0
M  V30 3442 C 318.276 -1.45632 -0.681758 0
M  V30 3443 O 319.466 -1.6648 -0.512856 0
M  V30 3444 C 316.598 -3.28925 -0.895593 0
M  V30 3445 H 317.791 -2.87191 0.863793 0
M  V30 3446 H 315.344 -1.48553 0.485975 0
M  V30 3447 H 316.079 -2.75822 -1.70566 0
M  V30 3448 H 315.864 -3.90519 -0.351766 0
M  V30 3449 H 317.354 -3.95494 -1.34069 0
M  V30 3450 N 317.792 -0.46758 -1.50504 0
M  V30 3451 C 319.017 0.0886943 -2.0721 0
M  V30 3452 C 319.442 1.33057 -1.32956 0
M  V30 3453 O 318.8 1.77354 -0.376197 0
M  V30 3454 C 318.848 0.359202 -3.58806 0
M  V30 3455 O 317.952 1.44034 -3.8643 0
M  V30 3456 H 317.293 -0.0114349 -0.663902 0
M  V30 3457 H 319.823 -0.657613 -1.93744 0
M  V30 3458 H 319.833 0.600742 -4.03553 0
M  V30 3459 H 318.508 -0.548311 -4.1227 0
M  V30 3460 H 317.085 1.18638 -3.53524 0
M  V30 3461 N 319.27 1.56325 -0.20005 0
M  V30 3462 C 320.495 2.02548 0.44597 0
M  V30 3463 C 320.92 1.07922 1.5406 0
M  V30 3464 O 320.278 0.0635775 1.81188 0
M  V30 3465 C 320.326 3.47175 0.974761 0
M  V30 3466 O 319.43 3.55671 2.08739 0
M  V30 3467 H 318.771 0.655862 0.103638 0
M  V30 3468 H 321.301 2.02201 -0.312381 0
M  V30 3469 H 321.311 3.87067 1.2901 0
M  V30 3470 H 319.986 4.15538 0.17347 0
M  V30 3471 H 318.563 3.27657 1.78032 0
M  V30 3472 N 320.748 -0.0735177 1.57428 0
M  V30 3473 C 321.711 -1.07192 2.02589 0
M  V30 3474 C 322.711 -1.31695 0.922661 0
M  V30 3475 O 323.901 -1.27445 1.18758 0
M  V30 3476 C 321.033 -2.41599 2.40506 0
M  V30 3477 H 322.226 -0.682727 2.92025 0
M  V30 3478 H 319.779 -0.319193 1.53006 0
M  V30 3479 H 320.514 -2.85354 1.5409 0
M  V30 3480 H 320.299 -2.25156 3.21009 0
M  V30 3481 H 321.789 -3.13367 2.76027 0
M  V30 3482 N 322.226 -1.5378 -0.344866 0
M  V30 3483 C 323.173 -1.81676 -1.42346 0
M  V30 3484 C 324.143 -0.662376 -1.52321 0
M  V30 3485 O 325.328 -0.906675 -1.67881 0
M  V30 3486 C 322.468 -2.03087 -2.79015 0
M  V30 3487 C 321.581 -3.30799 -2.77842 0
M  V30 3488 C 320.716 -3.42285 -4.0622 0
M  V30 3489 C 319.755 -4.6395 -3.9927 0
M  V30 3490 N 318.892 -4.72477 -5.19336 0
M  V30 3491 H 323.732 -2.73703 -1.17858 0
M  V30 3492 H 321.269 -1.35568 -0.570949 0
M  V30 3493 H 323.227 -2.1349 -3.58438 0
M  V30 3494 H 321.857 -1.14375 -3.01858 0
M  V30 3495 H 320.909 -3.29244 -1.90533 0
M  V30 3496 H 322.221 -4.20314 -2.68584 0
M  V30 3497 H 321.375 -3.52113 -4.94066 0
M  V30 3498 H 320.114 -2.50823 -4.18258 0
M  V30 3499 H 319.119 -4.54201 -3.09809 0
M  V30 3500 H 320.344 -5.56775 -3.88817 0
M  V30 3501 H 318.29 -3.83924 -5.3192 0
M  V30 3502 H 318.207 -5.55927 -5.12329 0
M  V30 3503 H 319.475 -4.86613 -6.08957 0
M  V30 3504 N 323.704 0.605807 -1.45491 0
M  V30 3505 C 324.636 1.73031 -1.5031 0
M  V30 3506 C 325.649 1.57968 -0.393687 0
M  V30 3507 O 326.838 1.65817 -0.660839 0
M  V30 3508 C 323.938 3.11049 -1.34543 0
M  V30 3509 C 323.111 3.52334 -2.59189 0
M  V30 3510 C 322.17 4.69323 -2.37954 0
M  V30 3511 O 321.196 4.7635 -3.11575 0
M  V30 3512 N 322.398 5.62705 -1.4263 0
M  V30 3513 H 325.163 1.6936 -2.4726 0
M  V30 3514 H 322.724 0.79114 -1.41254 0
M  V30 3515 H 324.716 3.87071 -1.18144 0
M  V30 3516 H 323.286 3.09217 -0.458623 0
M  V30 3517 H 322.506 2.66256 -2.90691 0
M  V30 3518 H 323.794 3.76677 -3.42041 0
M  V30 3519 H 323.192 5.59744 -0.818758 0
M  V30 3520 H 321.749 6.38252 -1.32202 0
M  V30 3521 N 325.182 1.32811 0.848464 0
M  V30 3522 C 326.598 1.11937 1.13764 0
M  V30 3523 C 326.798 -0.0960789 2.01271 0
M  V30 3524 O 325.854 -0.779165 2.40178 0
M  V30 3525 C 327.167 2.402 1.809 0
M  V30 3526 C 328.715 2.46016 1.93508 0
M  V30 3527 C 329.19 3.74215 2.64059 0
M  V30 3528 N 330.681 3.75232 2.71579 0
M  V30 3529 C 331.416 4.71134 3.26833 0
M  V30 3530 N 330.912 5.77406 3.8285 0
M  V30 3531 N 332.705 4.58623 3.24995 0
M  V30 3532 H 324.856 2.1073 0.265855 0
M  V30 3533 H 327.119 0.930671 0.180431 0
M  V30 3534 H 326.825 3.29093 1.24058 0
M  V30 3535 H 326.699 2.51628 2.81004 0
M  V30 3536 H 329.086 1.57577 2.49506 0
M  V30 3537 H 329.167 2.38536 0.923811 0
M  V30 3538 H 328.811 4.63031 2.08722 0
M  V30 3539 H 328.741 3.78968 3.65637 0
M  V30 3540 H 331.232 2.98423 2.31845 0
M  V30 3541 H 331.545 6.46632 4.23187 0
M  V30 3542 H 329.89 5.81152 3.81165 0
M  V30 3543 H 333.081 3.74762 2.80484 0
M  V30 3544 H 333.254 5.33535 3.67756 0
M  V30 3545 N 326.66 -1.06551 1.16123 0
M  V30 3546 C 327.59 -2.15935 0.88851 0
M  V30 3547 C 328.571 -1.69306 -0.164135 0
M  V30 3548 O 329.756 -1.94193 -0.0167857 0
M  V30 3549 C 326.886 -3.45149 0.385942 0
M  V30 3550 C 325.84 -4.05271 1.3762 0
M  V30 3551 C 325.166 -5.29664 0.732137 0
M  V30 3552 C 326.466 -4.44355 2.74493 0
M  V30 3553 H 328.16 -2.39006 1.80323 0
M  V30 3554 H 325.706 -1.14866 0.868435 0
M  V30 3555 H 327.659 -4.21004 0.182647 0
M  V30 3556 H 326.383 -3.21689 -0.564274 0
M  V30 3557 H 325.042 -3.3147 1.56599 0
M  V30 3558 H 324.69 -5.02499 -0.224483 0
M  V30 3559 H 324.39 -5.70848 1.39307 0
M  V30 3560 H 325.914 -6.08218 0.538802 0
M  V30 3561 H 327.328 -5.11303 2.59311 0
M  V30 3562 H 325.725 -4.96515 3.37035 0
M  V30 3563 H 326.795 -3.55339 3.29943 0
M  V30 3564 N 328.138 -0.959301 -1.25041 0
M  V30 3565 C 329.085 -0.482057 -2.2571 0
M  V30 3566 C 330.055 0.467939 -1.59372 0
M  V30 3567 O 331.24 0.380159 -1.86974 0
M  V30 3568 C 328.38 0.229623 -3.44335 0
M  V30 3569 C 327.493 -0.758156 -4.25295 0
M  V30 3570 C 326.628 -0.0234403 -5.31195 0
M  V30 3571 C 325.667 -1.00184 -6.03846 0
M  V30 3572 N 324.804 -0.29769 -7.01469 0
M  V30 3573 H 329.644 -1.34538 -2.65901 0
M  V30 3574 H 327.181 -0.674592 -1.3072 0
M  V30 3575 H 329.139 0.658856 -4.11965 0
M  V30 3576 H 327.769 1.05696 -3.05005 0
M  V30 3577 H 326.821 -1.30586 -3.57284 0
M  V30 3578 H 328.133 -1.50458 -4.75567 0
M  V30 3579 H 327.287 0.464201 -6.04922 0
M  V30 3580 H 326.026 0.755741 -4.81809 0
M  V30 3581 H 325.031 -1.50044 -5.2893 0
M  V30 3582 H 326.256 -1.78133 -6.55321 0
M  V30 3583 H 324.202 0.462668 -6.54366 0
M  V30 3584 H 324.119 -0.983128 -7.4958 0
M  V30 3585 H 325.387 0.16826 -7.79318 0
M  V30 3586 N 329.616 1.39756 -0.72842 0
M  V30 3587 C 330.856 2.025 -0.278078 0
M  V30 3588 C 331.22 1.5654 1.11173 0
M  V30 3589 O 332.421 2.11435 1.65978 0
M  V30 3590 C 330.692 3.55489 -0.369139 0
M  V30 3591 S 332.251 4.388 0.00232983 0
M  V30 3592 H 329.069 0.702534 -0.109391 0
M  V30 3593 H 331.671 1.70672 -0.95348 0
M  V30 3594 H 330.375 3.86429 -1.38204 0
M  V30 3595 H 329.906 3.92061 0.324308 0
M  V30 3596 H 331.921 4.80954 1.22055 0
M  V30 3597 N 331.094 0.475555 1.50254 0
M  V30 3598 C 332.057 -0.305016 2.27161 0
M  V30 3599 C 333.057 -0.916519 1.32123 0
M  V30 3600 O 334.247 -0.785003 1.5551 0
M  V30 3601 C 331.379 -1.43496 3.09227 0
M  V30 3602 H 332.572 0.369511 2.97615 0
M  V30 3603 H 330.125 0.229747 1.54602 0
M  V30 3604 H 330.86 -2.14441 2.43281 0
M  V30 3605 H 330.645 -1.00223 3.79075 0
M  V30 3606 H 332.135 -1.98548 3.67381 0
M  V30 3607 N 332.573 -1.56217 0.208337 0
M  V30 3608 C 333.798 -2.02782 -0.435222 0
M  V30 3609 C 334.223 -1.08738 -1.53485 0
M  V30 3610 O 333.581 -0.0731855 -1.81152 0
M  V30 3611 C 333.629 -3.47687 -0.956335 0
M  V30 3612 O 332.733 -3.56773 -2.06849 0
M  V30 3613 H 332.074 -0.656403 -0.100158 0
M  V30 3614 H 334.604 -2.02033 0.3231 0
M  V30 3615 H 334.614 -3.87745 -1.26955 0
M  V30 3616 H 333.289 -4.15624 -0.15143 0
M  V30 3617 H 331.866 -3.28597 -1.76292 0
M  V30 3618 N 334.051 0.0651679 -1.57465 0
M  V30 3619 C 334.981 1.07693 -2.07182 0
M  V30 3620 C 335.962 1.39962 -0.966673 0
M  V30 3621 O 337.147 1.49475 -1.2398 0
M  V30 3622 C 334.277 2.3885 -2.52127 0
M  V30 3623 C 333.231 2.20917 -3.66579 0
M  V30 3624 C 332.557 3.57515 -3.97601 0
M  V30 3625 C 333.857 1.62493 -4.9638 0
M  V30 3626 H 335.551 0.663199 -2.91962 0
M  V30 3627 H 333.097 0.317569 -1.40455 0
M  V30 3628 H 335.05 3.09928 -2.85522 0
M  V30 3629 H 333.774 2.82215 -1.64384 0
M  V30 3630 H 332.433 1.52279 -3.33477 0
M  V30 3631 H 332.081 3.98463 -3.06979 0
M  V30 3632 H 331.781 3.46353 -4.74672 0
M  V30 3633 H 333.305 4.30013 -4.33499 0
M  V30 3634 H 334.719 2.23445 -5.27963 0
M  V30 3635 H 333.116 1.62009 -5.77818 0
M  V30 3636 H 334.186 0.587041 -4.81333 0
M  V30 3637 N 335.529 1.53961 0.336706 0
M  V30 3638 C 336.461 1.78751 1.4346 0
M  V30 3639 C 337.474 0.669019 1.48418 0
M  V30 3640 O 338.663 0.945884 1.51378 0
M  V30 3641 C 335.763 1.87844 2.82078 0
M  V30 3642 C 334.936 3.17854 3.00479 0
M  V30 3643 C 333.995 3.17816 4.19379 0
M  V30 3644 O 333.021 3.91511 4.13168 0
M  V30 3645 N 334.223 2.40669 5.2826 0
M  V30 3646 H 336.988 2.73493 1.22563 0
M  V30 3647 H 334.549 1.53096 0.526625 0
M  V30 3648 H 336.541 1.85261 3.59806 0
M  V30 3649 H 335.111 1.00257 2.96086 0
M  V30 3650 H 334.331 3.33504 2.10163 0
M  V30 3651 H 335.619 4.03718 3.0966 0
M  V30 3652 H 335.017 1.8036 5.36178 0
M  V30 3653 H 333.574 2.43877 6.04456 0
M  V30 3654 N 337.007 -0.598083 1.45811 0
M  V30 3655 C 337.954 -1.7082 1.55207 0
M  V30 3656 C 338.924 -1.61278 0.39732 0
M  V30 3657 O 340.109 -1.80717 0.612038 0
M  V30 3658 C 337.249 -3.09144 1.53376 0
M  V30 3659 C 336.362 -3.29423 2.79472 0
M  V30 3660 C 335.497 -4.57907 2.69248 0
M  V30 3661 C 334.536 -4.71476 3.90354 0
M  V30 3662 N 333.673 -5.9127 3.78608 0
M  V30 3663 H 338.513 -1.62125 2.50039 0
M  V30 3664 H 336.05 -0.790389 1.24062 0
M  V30 3665 H 338.008 -3.89186 1.50301 0
M  V30 3666 H 336.638 -3.16773 0.620876 0
M  V30 3667 H 335.69 -2.43091 2.92594 0
M  V30 3668 H 337.002 -3.3532 3.69272 0
M  V30 3669 H 336.156 -5.46157 2.64192 0
M  V30 3670 H 334.895 -4.54423 1.77063 0
M  V30 3671 H 333.9 -3.81648 3.95759 0
M  V30 3672 H 335.125 -4.76751 4.83617 0
M  V30 3673 H 333.071 -5.88813 2.89199 0
M  V30 3674 H 332.988 -5.98369 4.6205 0
M  V30 3675 H 334.256 -6.81992 3.77501 0
M  V30 3676 N 338.485 -1.33259 -0.841409 0
M  V30 3677 C 339.732 -1.24572 -1.5965 0
M  V30 3678 C 340.06 0.189137 -1.93578 0
M  V30 3679 O 339.315 1.14566 -1.5866 0
M  V30 3680 C 339.614 -2.06381 -2.9179 0
M  V30 3681 C 339.28 -3.556 -2.77235 0
M  V30 3682 C 337.942 -3.96282 -2.72973 0
M  V30 3683 C 340.294 -4.50433 -2.62221 0
M  V30 3684 C 337.622 -5.30017 -2.51592 0
M  V30 3685 C 339.974 -5.84327 -2.42374 0
M  V30 3686 C 338.638 -6.24194 -2.36512 0
M  V30 3687 H 337.908 -0.455842 -0.5842 0
M  V30 3688 H 340.555 -1.6482 -0.975016 0
M  V30 3689 H 338.86 -1.58903 -3.5813 0
M  V30 3690 H 340.557 -1.97019 -3.49263 0
M  V30 3691 H 337.147 -3.23298 -2.81384 0
M  V30 3692 H 341.331 -4.19914 -2.64549 0
M  V30 3693 H 336.587 -5.59947 -2.45499 0
M  V30 3694 H 340.761 -6.57414 -2.29739 0
M  V30 3695 H 338.388 -7.27759 -2.19706 0
M  V30 3696 N 339.963 1.05934 -1.16686 0
M  V30 3697 C 341.211 1.78447 -0.948744 0
M  V30 3698 C 341.532 1.87813 0.524523 0
M  V30 3699 O 340.802 1.38945 1.38098 0
M  V30 3700 H 339.382 0.660971 -0.348033 0
M  V30 3701 H 342.044 1.27947 -1.47022 0
M  V30 3702 H 341.14 2.80394 -1.37061 0
M  V30 3703 N 341.441 0.965919 1.2453 0
M  V30 3704 C 342.351 0.502154 2.29163 0
M  V30 3705 C 343.367 -0.436017 1.68448 0
M  V30 3706 O 344.543 -0.309497 1.99008 0
M  V30 3707 C 341.608 -0.201956 3.46111 0
M  V30 3708 C 340.669 0.775821 4.22232 0
M  V30 3709 C 339.902 0.105217 5.33596 0
M  V30 3710 O 340.125 -1.10683 5.59558 0
M  V30 3711 O 339.059 0.796475 5.96607 0
M  V30 3712 H 342.885 1.37194 2.70946 0
M  V30 3713 H 340.47 0.732875 1.30189 0
M  V30 3714 H 342.352 -0.597564 4.17142 0
M  V30 3715 H 341.027 -1.04673 3.06309 0
M  V30 3716 H 339.934 1.22185 3.53584 0
M  V30 3717 H 341.267 1.58896 4.65846 0
M  V30 3718 N 342.919 -1.39368 0.735821 0
M  V30 3719 C 344.335 -1.54204 0.411492 0
M  V30 3720 C 344.535 -1.70268 -1.07755 0
M  V30 3721 O 343.591 -1.70364 -1.86366 0
M  V30 3722 C 344.904 -2.75925 1.19523 0
M  V30 3723 C 346.452 -2.89761 1.18354 0
M  V30 3724 C 346.927 -4.14421 1.94986 0
M  V30 3725 N 348.418 -4.21462 1.92156 0
M  V30 3726 C 349.153 -5.16871 2.48258 0
M  V30 3727 N 348.649 -6.18063 3.13001 0
M  V30 3728 N 350.442 -5.09093 2.38287 0
M  V30 3729 H 342.593 -1.27189 1.70108 0
M  V30 3730 H 344.856 -0.616517 0.720147 0
M  V30 3731 H 344.562 -2.70401 2.24892 0
M  V30 3732 H 344.436 -3.68614 0.800222 0
M  V30 3733 H 346.823 -2.94777 0.137975 0
M  V30 3734 H 346.904 -1.98133 1.61793 0
M  V30 3735 H 346.548 -4.10166 2.99543 0
M  V30 3736 H 346.478 -5.05095 1.48953 0
M  V30 3737 H 348.969 -3.48979 1.44991 0
M  V30 3738 H 349.282 -6.87326 3.53275 0
M  V30 3739 H 347.627 -6.18448 3.17091 0
M  V30 3740 H 350.818 -4.28973 1.8735 0
M  V30 3741 H 350.991 -5.83272 2.82308 0
M  V30 3742 N 344.397 -0.483516 -1.5 0
M  V30 3743 C 345.36 0.292965 -2.2732 0
M  V30 3744 C 346.36 0.909499 -1.32608 0
M  V30 3745 O 347.55 0.776745 -1.55924 0
M  V30 3746 C 344.682 1.41854 -3.09984 0
M  V30 3747 H 345.875 -0.385289 -2.97415 0
M  V30 3748 H 343.428 -0.237942 -1.54478 0
M  V30 3749 H 344.163 2.13148 -2.44414 0
M  V30 3750 H 343.948 0.982114 -3.79601 0
M  V30 3751 H 345.438 1.96597 -3.68429 0
M  V30 3752 N 345.875 1.56104 -0.216619 0
M  V30 3753 C 347.122 1.98172 0.416416 0
M  V30 3754 C 347.45 1.10413 1.60122 0
M  V30 3755 O 346.705 0.147967 1.9514 0
M  V30 3756 C 347.004 3.45923 0.898464 0
M  V30 3757 C 346.67 4.50559 -0.175288 0
M  V30 3758 C 345.332 4.78897 -0.470271 0
M  V30 3759 C 347.684 5.1334 -0.901728 0
M  V30 3760 C 345.012 5.67299 -1.4963 0
M  V30 3761 C 347.364 6.02853 -1.91705 0
M  V30 3762 C 346.028 6.29537 -2.21901 0
M  V30 3763 H 345.298 0.725164 0.152377 0
M  V30 3764 H 347.945 1.88839 -0.318103 0
M  V30 3765 H 346.25 3.52434 1.71165 0
M  V30 3766 H 347.947 3.75841 1.39803 0
M  V30 3767 H 344.537 4.28551 0.0647806 0
M  V30 3768 H 348.721 4.91521 -0.687072 0
M  V30 3769 H 343.977 5.86239 -1.73592 0
M  V30 3770 H 348.151 6.50552 -2.48505 0
M  V30 3771 H 345.778 6.97835 -3.01548 0
M  V30 3772 N 347.353 -0.0568162 1.57498 0
M  V30 3773 C 348.3 -1.06591 2.04712 0
M  V30 3774 C 349.27 -1.3758 0.930644 0
M  V30 3775 O 350.455 -1.48392 1.19935 0
M  V30 3776 C 347.595 -2.3701 2.50839 0
M  V30 3777 C 346.708 -2.12421 3.76167 0
M  V30 3778 C 345.843 -3.36511 4.11015 0
M  V30 3779 C 344.882 -3.07353 5.2934 0
M  V30 3780 N 344.019 -4.23816 5.59754 0
M  V30 3781 H 348.859 -0.65631 2.90683 0
M  V30 3782 H 346.396 -0.312481 1.43743 0
M  V30 3783 H 348.354 -3.13175 2.7564 0
M  V30 3784 H 346.984 -2.75744 1.67825 0
M  V30 3785 H 346.036 -1.2688 3.58616 0
M  V30 3786 H 347.348 -1.86894 4.62463 0
M  V30 3787 H 346.502 -4.21062 4.36797 0
M  V30 3788 H 345.241 -3.65128 3.23315 0
M  V30 3789 H 344.246 -2.212 5.03339 0
M  V30 3790 H 345.471 -2.80043 6.1867 0
M  V30 3791 H 343.417 -4.52436 4.75014 0
M  V30 3792 H 343.334 -4.01614 6.40501 0
M  V30 3793 H 344.602 -5.0932 5.90096 0
M  V30 3794 N 348.832 -1.54138 -0.328536 0
M  V30 3795 C 349.795 -1.82462 -1.38709 0
M  V30 3796 C 350.795 -0.696229 -1.44946 0
M  V30 3797 O 351.985 -0.964535 -1.4506 0
M  V30 3798 C 349.117 -1.98018 -2.77492 0
M  V30 3799 H 350.31 -2.77037 -1.14851 0
M  V30 3800 H 347.863 -1.45779 -0.563751 0
M  V30 3801 H 348.598 -1.05637 -3.06613 0
M  V30 3802 H 348.383 -2.80124 -2.74359 0
M  V30 3803 H 349.873 -2.21396 -3.54081 0
M  V30 3804 N 350.31 0.590341 -1.46126 0
M  V30 3805 C 351.556 1.34874 -1.52252 0
M  V30 3806 C 351.911 1.91658 -0.168807 0
M  V30 3807 O 351.204 1.73093 0.821556 0
M  V30 3808 C 351.398 2.5032 -2.55097 0
M  V30 3809 C 351.227 2.04843 -4.00337 0
M  V30 3810 C 349.997 1.90213 -4.68132 0
M  V30 3811 C 352.195 1.61267 -4.88362 0
M  V30 3812 N 350.177 1.38727 -5.9802 0
M  V30 3813 C 351.548 1.21319 -6.08015 0
M  V30 3814 C 353.603 1.49015 -4.75078 0
M  V30 3815 C 352.306 0.7034 -7.15852 0
M  V30 3816 C 354.332 0.994401 -5.8298 0
M  V30 3817 C 353.694 0.604659 -7.018 0
M  V30 3818 H 349.793 0.486803 -0.612002 0
M  V30 3819 H 352.377 0.673007 -1.82698 0
M  V30 3820 H 350.548 3.15466 -2.26574 0
M  V30 3821 H 352.28 3.1725 -2.51266 0
M  V30 3822 H 349.035 2.11927 -4.23537 0
M  V30 3823 H 349.459 1.15168 -6.67132 0
M  V30 3824 H 354.101 1.77768 -3.83612 0
M  V30 3825 H 351.819 0.403446 -8.07092 0
M  V30 3826 H 355.405 0.903621 -5.7474 0
M  V30 3827 H 354.285 0.226963 -7.83871 0
M  V30 3828 N 351.788 1.33704 0.83433 0
M  V30 3829 C 352.751 1.24244 1.92603 0
M  V30 3830 C 353.751 0.160383 1.59998 0
M  V30 3831 O 354.941 0.412228 1.69252 0
M  V30 3832 C 352.073 0.91555 3.28376 0
M  V30 3833 H 353.266 2.21287 2.02416 0
M  V30 3834 H 350.819 1.17827 1.02696 0
M  V30 3835 H 351.554 -0.0521886 3.24258 0
M  V30 3836 H 351.339 1.69811 3.53422 0
M  V30 3837 H 352.829 0.874231 4.08347 0
M  V30 3838 N 353.266 -1.05314 1.17247 0
M  V30 3839 C 354.512 -1.78557 0.961513 0
M  V30 3840 C 354.845 -1.87419 -0.508697 0
M  V30 3841 O 354.12 -1.37307 -1.37757 0
M  V30 3842 C 354.403 -3.22514 1.60176 0
M  V30 3843 C 354.256 -3.21673 3.14399 0
M  V30 3844 C 355.575 -4.20318 1.30463 0
M  V30 3845 H 352.694 -0.6482 0.350723 0
M  V30 3846 H 355.336 -1.23102 1.44727 0
M  V30 3847 H 353.486 -3.69867 1.18871 0
M  V30 3848 H 355.158 -2.82405 3.64753 0
M  V30 3849 H 353.401 -2.60048 3.47214 0
M  V30 3850 H 354.072 -4.23271 3.54324 0
M  V30 3851 H 356.548 -3.81454 1.66229 0
M  V30 3852 H 355.424 -5.19289 1.77848 0
M  V30 3853 H 355.685 -4.41526 0.22521 0
M  V30 3854 N 354.744 -0.972509 -1.24016 0
M  V30 3855 C 355.707 -0.511403 -2.23422 0
M  V30 3856 C 356.707 0.394679 -1.55881 0
M  V30 3857 O 357.897 0.189469 -1.73167 0
M  V30 3858 C 355.029 0.258769 -3.39916 0
M  V30 3859 H 356.222 -1.39024 -2.6573 0
M  V30 3860 H 353.775 -0.757585 -1.36713 0
M  V30 3861 H 354.51 1.1545 -3.03054 0
M  V30 3862 H 354.295 -0.391522 -3.9014 0
M  V30 3863 H 355.785 0.570244 -4.13688 0
M  V30 3864 N 356.222 1.38976 -0.743202 0
M  V30 3865 C 357.638 1.53984 -0.419664 0
M  V30 3866 C 357.838 1.70837 1.0685 0
M  V30 3867 O 356.894 1.7135 1.8546 0
M  V30 3868 C 358.207 2.75287 -1.20985 0
M  V30 3869 C 359.755 2.89129 -1.19889 0
M  V30 3870 C 360.23 4.13381 -1.97181 0
M  V30 3871 N 361.721 4.20437 -1.94389 0
M  V30 3872 C 362.456 5.15547 -2.50996 0
M  V30 3873 N 361.952 6.16395 -3.16274 0
M  V30 3874 N 363.745 5.07822 -2.40984 0
M  V30 3875 H 355.896 1.26285 -1.7078 0
M  V30 3876 H 358.159 0.612689 -0.723406 0
M  V30 3877 H 357.865 2.69204 -2.26323 0
M  V30 3878 H 357.739 3.68184 -0.819759 0
M  V30 3879 H 360.126 2.947 -0.153606 0
M  V30 3880 H 360.207 1.97272 -1.62841 0
M  V30 3881 H 359.851 4.08572 -3.01714 0
M  V30 3882 H 359.781 5.04298 -1.51629 0
M  V30 3883 H 362.272 3.48205 -1.46839 0
M  V30 3884 H 362.585 6.85443 -3.56915 0
M  V30 3885 H 360.93 6.16758 -3.20367 0
M  V30 3886 H 364.121 4.27973 -1.89622 0
M  V30 3887 H 364.294 5.81767 -2.85397 0
M  V30 3888 N 357.7 0.491464 1.49741 0
M  V30 3889 C 358.63 -0.28154 2.31796 0
M  V30 3890 C 359.611 -0.971473 1.3963 0
M  V30 3891 O 360.796 -0.964719 1.68543 0
M  V30 3892 C 357.926 -1.35203 3.19902 0
M  V30 3893 C 356.88 -0.782529 4.20786 0
M  V30 3894 C 356.206 -1.95283 4.97764 0
M  V30 3895 C 357.506 0.21999 5.21837 0
M  V30 3896 H 359.2 0.403355 2.96671 0
M  V30 3897 H 356.746 0.195425 1.42668 0
M  V30 3898 H 358.699 -1.90045 3.76113 0
M  V30 3899 H 357.423 -2.06598 2.52953 0
M  V30 3900 H 356.082 -0.255928 3.65706 0
M  V30 3901 H 355.73 -2.65423 4.2727 0
M  V30 3902 H 355.43 -1.57789 5.66018 0
M  V30 3903 H 356.954 -2.50577 5.56816 0
M  V30 3904 H 358.368 -0.23996 5.72798 0
M  V30 3905 H 356.765 0.51026 5.97927 0
M  V30 3906 H 357.835 1.13911 4.7133 0
M  V30 3907 N 359.178 -1.55987 0.224894 0
M  V30 3908 C 360.403 -2.03232 -0.41369 0
M  V30 3909 C 360.828 -1.10359 -1.52323 0
M  V30 3910 O 360.186 -0.092395 -1.81064 0
M  V30 3911 C 360.234 -3.48682 -0.919405 0
M  V30 3912 O 359.338 -3.58947 -2.03054 0
M  V30 3913 H 358.679 -0.657428 -0.0931903 0
M  V30 3914 H 361.209 -2.01679 0.34451 0
M  V30 3915 H 361.219 -3.8907 -1.22835 0
M  V30 3916 H 359.894 -4.15761 -0.107339 0
M  V30 3917 H 358.471 -3.30448 -1.72796 0
M  V30 3918 N 360.656 0.0484629 -1.57525 0
M  V30 3919 C 361.588 1.08222 -2.02041 0
M  V30 3920 C 362.601 1.33621 -0.930012 0
M  V30 3921 O 363.79 1.3145 -1.20761 0
M  V30 3922 C 360.89 2.42818 -2.36416 0
M  V30 3923 C 360.063 2.37049 -3.67596 0
M  V30 3924 C 359.122 3.53937 -3.89378 0
M  V30 3925 O 358.148 3.34308 -4.60681 0
M  V30 3926 N 359.35 4.75126 -3.3352 0
M  V30 3927 H 362.115 0.702946 -2.9134 0
M  V30 3928 H 359.676 0.236745 -1.6016 0
M  V30 3929 H 361.668 3.197 -2.48141 0
M  V30 3930 H 360.238 2.72661 -1.52888 0
M  V30 3931 H 359.458 1.45395 -3.66407 0
M  V30 3932 H 360.746 2.30318 -4.53686 0
M  V30 3933 H 360.144 4.93976 -2.75688 0
M  V30 3934 H 358.701 5.49439 -3.50656 0
M  V30 3935 N 362.134 1.5431 0.320358 0
M  V30 3936 C 363.55 1.45091 0.664889 0
M  V30 3937 C 363.75 0.626382 1.91517 0
M  V30 3938 O 362.806 0.126443 2.52183 0
M  V30 3939 C 364.119 2.88848 0.83591 0
M  V30 3940 C 365.667 2.9877 0.933046 0
M  V30 3941 C 366.142 4.43683 1.13621 0
M  V30 3942 N 367.633 4.47309 1.20287 0
M  V30 3943 C 368.368 5.56595 1.37801 0
M  V30 3944 N 367.864 6.75844 1.52338 0
M  V30 3945 N 369.657 5.44248 1.40535 0
M  V30 3946 H 361.808 2.06398 -0.501374 0
M  V30 3947 H 364.071 0.933963 -0.162534 0
M  V30 3948 H 363.777 3.51698 -0.0116092 0
M  V30 3949 H 363.651 3.35148 1.73078 0
M  V30 3950 H 366.038 2.36045 1.77107 0
M  V30 3951 H 366.119 2.55796 0.0145782 0
M  V30 3952 H 365.763 5.06995 0.303032 0
M  V30 3953 H 365.693 4.84269 2.0686 0
M  V30 3954 H 368.184 3.61388 1.10485 0
M  V30 3955 H 368.497 7.54892 1.65403 0
M  V30 3956 H 366.842 6.78746 1.4943 0
M  V30 3957 H 370.033 4.50038 1.28777 0
M  V30 3958 H 370.206 6.29473 1.53842 0
M  V30 3959 N 363.613 -0.582584 1.46437 0
M  V30 3960 C 364.86 -1.34079 1.51753 0
M  V30 3961 C 365.188 -1.93762 0.169299 0
M  V30 3962 O 364.443 -1.76989 -0.835062 0
M  V30 3963 C 364.742 -2.48964 2.56421 0
M  V30 3964 C 364.408 -2.07273 4.00436 0
M  V30 3965 C 363.07 -1.95618 4.39644 0
M  V30 3966 C 365.422 -1.75111 4.90903 0
M  V30 3967 C 362.75 -1.5006 5.67185 0
M  V30 3968 C 365.102 -1.31032 6.18881 0
M  V30 3969 C 363.766 -1.17954 6.56996 0
M  V30 3970 H 363.036 -0.49063 0.555304 0
M  V30 3971 H 365.683 -0.656007 1.79913 0
M  V30 3972 H 363.988 -3.22889 2.21923 0
M  V30 3973 H 365.685 -3.07178 2.57765 0
M  V30 3974 H 362.275 -2.17279 3.69443 0
M  V30 3975 H 366.459 -1.83001 4.61329 0
M  V30 3976 H 361.715 -1.38577 5.95488 0
M  V30 3977 H 365.889 -1.052 6.88408 0
M  V30 3978 H 363.516 -0.824279 7.55718 0
M  V30 3979 N 365.091 -1.34144 -0.827227 0
M  V30 3980 C 366.502 -1.23557 -1.39966 0
M  V30 3981 C 366.853 0.140731 -1.95695 0
M  V30 3982 O 365.978 1.04087 -1.89723 0
M  V30 3983 C 366.573 -2.23708 -2.54441 0
M  V30 3984 C 365.132 -2.16924 -3.07605 0
M  V30 3985 C 364.279 -2.10549 -1.80456 0
M  V30 3986 H 367.23 -1.45573 -0.631991 0
M  V30 3987 H 367.251 -1.85157 -3.32411 0
M  V30 3988 H 366.763 -3.23866 -2.13851 0
M  V30 3989 H 364.864 -1.20107 -3.52711 0
M  V30 3990 H 364.977 -3.07988 -3.66988 0
M  V30 3991 H 363.341 -1.56203 -2.01178 0
M  V30 3992 H 364.124 -3.12535 -1.42046 0
M  V30 3993 N 366.569 1.04691 -1.17803 0
M  V30 3994 C 367.516 2.12557 -0.899343 0
M  V30 3995 C 368.486 1.65339 0.158771 0
M  V30 3996 O 369.671 1.90789 0.0204797 0
M  V30 3997 C 366.811 3.42481 -0.424315 0
M  V30 3998 C 365.924 4.03346 -1.54713 0
M  V30 3999 C 365.059 5.21208 -1.02546 0
M  V30 4000 C 364.098 5.74089 -2.12339 0
M  V30 4001 N 363.235 6.83247 -1.61612 0
M  V30 4002 H 368.075 2.35734 -1.823 0
M  V30 4003 H 365.612 1.1564 -0.909159 0
M  V30 4004 H 367.57 4.16996 -0.130421 0
M  V30 4005 H 366.2 3.19471 0.462377 0
M  V30 4006 H 365.252 3.2622 -1.95664 0
M  V30 4007 H 366.564 4.38628 -2.37501 0
M  V30 4008 H 365.718 6.02812 -0.685718 0
M  V30 4009 H 364.457 4.87414 -0.167084 0
M  V30 4010 H 363.462 4.91111 -2.47165 0
M  V30 4011 H 364.687 6.0993 -2.98601 0
M  V30 4012 H 362.633 6.5134 -0.780533 0
M  V30 4013 H 362.55 7.17559 -2.38003 0
M  V30 4014 H 363.818 7.68491 -1.30545 0
M  V30 4015 N 368.047 0.979072 1.23499 0
M  V30 4016 C 369.01 0.523244 2.23147 0
M  V30 4017 C 370.01 -0.386406 1.56088 0
M  V30 4018 O 371.2 -0.180283 1.73265 0
M  V30 4019 C 368.332 -0.240739 3.40049 0
M  V30 4020 H 369.525 1.40432 2.64989 0
M  V30 4021 H 367.078 0.764824 1.36309 0
M  V30 4022 H 367.813 -1.13841 3.03662 0
M  V30 4023 H 367.598 0.412207 3.89927 0
M  V30 4024 H 369.088 -0.548297 4.13985 0
M  V30 4025 N 369.525 -1.3858 0.750561 0
M  V30 4026 C 370.435 -2.34278 0.122825 0
M  V30 4027 C 371.451 -1.59116 -0.704131 0
M  V30 4028 O 372.627 -1.91326 -0.628987 0
M  V30 4029 C 369.692 -3.38221 -0.762086 0
M  V30 4030 C 368.753 -4.29227 0.078896 0
M  V30 4031 C 367.986 -5.28205 -0.763874 0
M  V30 4032 O 368.209 -5.34112 -2.00201 0
M  V30 4033 O 367.143 -6.01618 -0.18428 0
M  V30 4034 H 370.969 -2.89649 0.913088 0
M  V30 4035 H 368.554 -1.40374 0.511417 0
M  V30 4036 H 370.436 -4.01872 -1.26793 0
M  V30 4037 H 369.111 -2.85211 -1.5309 0
M  V30 4038 H 368.018 -3.68747 0.630621 0
M  V30 4039 H 369.351 -4.85484 0.810289 0
M  V30 4040 N 371.003 -0.499398 -1.49478 0
M  V30 4041 C 372.25 0.0456899 -2.02448 0
M  V30 4042 C 372.578 1.37142 -1.37921 0
M  V30 4043 O 371.833 1.89111 -0.503544 0
M  V30 4044 C 372.132 0.248424 -3.56536 0
M  V30 4045 C 371.798 -0.999107 -4.39692 0
M  V30 4046 C 370.46 -1.34108 -4.62135 0
M  V30 4047 C 372.812 -1.82842 -4.88076 0
M  V30 4048 C 370.14 -2.51191 -5.30208 0
M  V30 4049 C 372.492 -2.99076 -5.57437 0
M  V30 4050 C 371.156 -3.33655 -5.78127 0
M  V30 4051 H 370.426 0.0167191 -0.740811 0
M  V30 4052 H 373.073 -0.65923 -1.79795 0
M  V30 4053 H 371.378 1.03586 -3.77859 0
M  V30 4054 H 373.075 0.684605 -3.95113 0
M  V30 4055 H 369.665 -0.722729 -4.22463 0
M  V30 4056 H 373.849 -1.57737 -4.70566 0
M  V30 4057 H 369.105 -2.78221 -5.44429 0
M  V30 4058 H 373.279 -3.63664 -5.93904 0
M  V30 4059 H 370.906 -4.24483 -6.30649 0
M  V30 4060 N 372.481 1.55866 -0.233164 0
M  V30 4061 C 373.444 2.1953 0.658715 0
M  V30 4062 C 374.444 1.16053 1.11303 0
M  V30 4063 O 375.634 1.41218 1.01996 0
M  V30 4064 C 372.766 2.82791 1.90373 0
M  V30 4065 H 373.959 2.99721 0.10347 0
M  V30 4066 H 371.512 1.56291 0.0164245 0
M  V30 4067 H 372.247 2.06501 2.50056 0
M  V30 4068 H 372.032 3.58578 1.58632 0
M  V30 4069 H 373.522 3.31556 2.53891 0
M  V30 4070 N 373.959 -0.0401083 1.57549 0
M  V30 4071 C 374.869 -1.06133 2.0922 0
M  V30 4072 C 375.885 -1.40356 1.0284 0
M  V30 4073 O 377.061 -1.49897 1.34509 0
M  V30 4074 C 374.126 -2.34658 2.55218 0
M  V30 4075 C 373.187 -2.07117 3.76033 0
M  V30 4076 C 372.42 -3.29514 4.19829 0
M  V30 4077 O 372.643 -4.39794 3.63232 0
M  V30 4078 O 371.577 -3.15863 5.12362 0
M  V30 4079 H 375.403 -0.652244 2.96613 0
M  V30 4080 H 372.988 -0.256368 1.47184 0
M  V30 4081 H 374.87 -3.10239 2.85184 0
M  V30 4082 H 373.545 -2.74883 1.70941 0
M  V30 4083 H 372.452 -1.29139 3.51104 0
M  V30 4084 H 373.785 -1.71754 4.61261 0
M  V30 4085 N 375.437 -1.54477 -0.31217 0
M  V30 4086 C 376.683 -1.73483 -1.0503 0
M  V30 4087 C 377.016 -0.513125 -1.87298 0
M  V30 4088 O 376.291 0.489864 -1.8823 0
M  V30 4089 C 376.574 -3.01723 -1.96558 0
M  V30 4090 C 376.427 -4.3417 -1.17545 0
M  V30 4091 C 377.746 -3.25772 -2.95907 0
M  V30 4092 H 374.865 -0.631222 -0.380432 0
M  V30 4093 H 377.507 -1.87184 -0.325932 0
M  V30 4094 H 375.657 -2.90174 -2.58324 0
M  V30 4095 H 377.329 -4.5762 -0.581513 0
M  V30 4096 H 375.572 -4.31159 -0.477925 0
M  V30 4097 H 376.243 -5.20143 -1.84811 0
M  V30 4098 H 378.719 -3.36857 -2.44267 0
M  V30 4099 H 377.595 -4.16838 -3.57123 0
M  V30 4100 H 377.856 -2.43537 -3.68974 0
M  V30 4101 N 376.915 0.57481 -1.46744 0
M  V30 4102 C 378.14 1.36341 -1.56288 0
M  V30 4103 C 378.565 1.86954 -0.207347 0
M  V30 4104 O 377.923 1.62006 0.813871 0
M  V30 4105 C 377.971 2.52147 -2.57787 0
M  V30 4106 O 377.075 3.53834 -2.11838 0
M  V30 4107 H 376.416 0.405713 -0.525636 0
M  V30 4108 H 378.946 0.696453 -1.92382 0
M  V30 4109 H 378.956 2.98958 -2.77648 0
M  V30 4110 H 377.631 2.14663 -3.5622 0
M  V30 4111 H 376.208 3.1345 -2.01999 0
M  V30 4112 N 378.394 1.34581 0.820102 0
M  V30 4113 C 379.341 1.2639 1.93117 0
M  V30 4114 C 380.311 0.138554 1.65521 0
M  V30 4115 O 381.496 0.320004 1.88097 0
M  V30 4116 C 378.636 1.02812 3.29429 0
M  V30 4117 C 377.749 2.24146 3.693 0
M  V30 4118 C 376.884 1.93829 4.94574 0
M  V30 4119 C 375.923 3.1129 5.27034 0
M  V30 4120 N 375.06 2.80838 6.43486 0
M  V30 4121 H 379.9 2.21408 1.99455 0
M  V30 4122 H 377.437 1.10077 0.975784 0
M  V30 4123 H 379.395 0.871788 4.0799 0
M  V30 4124 H 378.025 0.114612 3.22596 0
M  V30 4125 H 377.077 2.50691 2.86109 0
M  V30 4126 H 378.389 3.11899 3.89257 0
M  V30 4127 H 377.543 1.74948 5.80929 0
M  V30 4128 H 376.282 1.03341 4.76626 0
M  V30 4129 H 375.287 3.30764 4.39175 0
M  V30 4130 H 376.512 4.02561 5.4692 0
M  V30 4131 H 374.458 1.92929 6.26988 0
M  V30 4132 H 374.375 3.62123 6.63629 0
M  V30 4133 H 375.643 2.65467 7.32903 0
M  V30 4134 N 379.872 -1.04064 1.18357 0
M  V30 4135 C 380.802 -2.14001 0.934113 0
M  V30 4136 C 381.783 -1.69616 -0.128186 0
M  V30 4137 O 382.968 -1.94185 0.0244093 0
M  V30 4138 C 380.098 -3.44253 0.459066 0
M  V30 4139 C 379.052 -4.02261 1.46185 0
M  V30 4140 C 378.378 -5.27992 0.844322 0
M  V30 4141 C 379.678 -4.38432 2.83856 0
M  V30 4142 H 381.372 -2.35127 1.85352 0
M  V30 4143 H 378.918 -1.12998 0.892604 0
M  V30 4144 H 380.871 -4.20522 0.271907 0
M  V30 4145 H 379.595 -3.22813 -0.495912 0
M  V30 4146 H 378.254 -3.28074 1.63595 0
M  V30 4147 H 377.902 -5.02862 -0.117845 0
M  V30 4148 H 377.602 -5.67765 1.51384 0
M  V30 4149 H 379.126 -6.06938 0.667693 0
M  V30 4150 H 380.54 -5.05688 2.70098 0
M  V30 4151 H 378.937 -4.89254 3.47491 0
M  V30 4152 H 380.007 -3.4826 3.37406 0
M  V30 4153 N 381.35 -0.985608 -1.22978 0
M  V30 4154 C 382.596 -0.65836 -1.91816 0
M  V30 4155 C 382.929 0.806692 -1.76653 0
M  V30 4156 O 382.204 1.58252 -1.13078 0
M  V30 4157 C 382.487 -1.056 -3.44268 0
M  V30 4158 C 382.34 -2.57906 -3.68516 0
M  V30 4159 C 383.659 -0.603781 -4.35939 0
M  V30 4160 H 380.778 -0.24065 -0.696604 0
M  V30 4161 H 383.42 -1.22783 -1.44998 0
M  V30 4162 H 381.57 -0.571445 -3.84274 0
M  V30 4163 H 383.242 -3.13976 -3.3796 0
M  V30 4164 H 381.485 -3.00305 -3.13048 0
M  V30 4165 H 382.156 -2.80779 -4.75255 0
M  V30 4166 H 384.632 -1.01987 -4.03408 0
M  V30 4167 H 383.508 -0.910383 -5.41298 0
M  V30 4168 H 383.769 0.495761 -4.39312 0
M  V30 4169 N 382.828 1.3818 -0.7579 0
M  V30 4170 C 384.056 2.04301 -0.326937 0
M  V30 4171 C 384.471 1.57163 1.0462 0
M  V30 4172 O 383.828 0.746626 1.66529 0
M  V30 4173 C 383.879 3.59846 -0.345363 0
M  V30 4174 O 383.6 4.05256 -1.66432 0
M  V30 4175 C 385.101 4.4319 0.098927 0
M  V30 4176 H 382.321 0.656443 -0.139012 0
M  V30 4177 H 384.865 1.76786 -1.02796 0
M  V30 4178 H 383.02 3.86182 0.306955 0
M  V30 4179 H 383.434 4.99709 -1.59345 0
M  V30 4180 H 384.908 5.51989 0.0348745 0
M  V30 4181 H 385.385 4.23947 1.14741 0
M  V30 4182 H 385.991 4.22051 -0.52468 0
M  V30 4183 N 384.306 0.507319 1.49211 0
M  V30 4184 C 385.583 -0.0982702 1.95353 0
M  V30 4185 C 385.963 -1.53516 1.449 0
M  V30 4186 O 385.311 -2.18594 0.66551 0
M  V30 4187 C 385.521 -0.00440283 3.49 0
M  V30 4188 C 386.869 -0.175147 4.24239 0
M  V30 4189 O 387.893 -0.0792891 3.56112 0
M  V30 4190 O 386.752 -0.37276 5.45227 0
M  V30 4191 H 383.846 -0.0918236 0.821887 0
M  V30 4192 H 386.392 0.570307 1.5983 0
M  V30 4193 H 385.164 0.997402 3.78375 0
M  V30 4194 H 384.787 -0.712845 3.91158 0
M  V30 4195 N 385.784 -1.5574 0.241426 0
M  V30 4196 C 386.714 -2.24133 -0.654722 0
M  V30 4197 C 387.695 -1.21974 -1.1856 0
M  V30 4198 O 388.88 -1.50612 -1.22595 0
M  V30 4199 C 386.01 -2.93659 -1.85423 0
M  V30 4200 C 384.964 -4.0246 -1.45636 0
M  V30 4201 C 384.29 -4.59383 -2.73626 0
M  V30 4202 C 385.59 -5.18468 -0.631506 0
M  V30 4203 H 387.284 -2.99281 -0.0844353 0
M  V30 4204 H 384.83 -1.43947 -0.0391707 0
M  V30 4205 H 386.783 -3.40203 -2.48676 0
M  V30 4206 H 385.507 -2.15991 -2.44981 0
M  V30 4207 H 384.166 -3.56676 -0.847202 0
M  V30 4208 H 383.814 -3.78422 -3.3137 0
M  V30 4209 H 383.514 -5.32826 -2.4773 0
M  V30 4210 H 385.038 -5.08658 -3.37786 0
M  V30 4211 H 386.452 -5.61272 -1.1682 0
M  V30 4212 H 384.849 -5.98266 -0.468831 0
M  V30 4213 H 385.919 -4.8358 0.357506 0
M  V30 4214 N 387.262 0.0317525 -1.57568 0
M  V30 4215 C 388.49 0.734949 -1.93407 0
M  V30 4216 C 388.905 1.69036 -0.84096 0
M  V30 4217 O 388.262 1.81582 0.182836 0
M  V30 4218 C 388.313 1.49432 -3.29169 0
M  V30 4219 O 388.034 0.577261 -4.3428 0
M  V30 4220 C 389.535 2.29492 -3.79273 0
M  V30 4221 H 386.755 0.206706 -0.638368 0
M  V30 4222 H 389.299 -0.00992046 -2.04498 0
M  V30 4223 H 387.454 2.1911 -3.19483 0
M  V30 4224 H 387.868 1.10952 -5.1263 0
M  V30 4225 H 389.342 2.78172 -4.76785 0
M  V30 4226 H 389.819 3.10794 -3.10328 0
M  V30 4227 H 390.425 1.64894 -3.92033 0
M  V30 4228 N 388.74 1.54641 0.303973 0
M  V30 4229 C 389.687 1.85386 1.37479 0
M  V30 4230 C 390.657 0.702528 1.50512 0
M  V30 4231 O 391.842 0.950867 1.65418 0
M  V30 4232 C 388.982 2.10413 2.73533 0
M  V30 4233 C 388.095 3.38049 2.68974 0
M  V30 4234 C 387.23 3.52934 3.97002 0
M  V30 4235 C 386.269 4.74373 3.86829 0
M  V30 4236 N 385.406 4.8608 5.06627 0
M  V30 4237 H 390.246 2.76732 1.1056 0
M  V30 4238 H 387.783 1.37034 0.534805 0
M  V30 4239 H 389.741 2.22919 3.52652 0
M  V30 4240 H 388.371 1.22338 2.98719 0
M  V30 4241 H 387.423 3.3418 1.81736 0
M  V30 4242 H 388.735 4.27288 2.57346 0
M  V30 4243 H 387.889 3.65088 4.84557 0
M  V30 4244 H 386.628 2.61824 4.1146 0
M  V30 4245 H 385.633 4.62255 2.97658 0
M  V30 4246 H 386.858 5.66888 3.73918 0
M  V30 4247 H 384.804 3.97891 5.21554 0
M  V30 4248 H 384.721 5.69315 4.9741 0
M  V30 4249 H 385.989 5.02587 5.95841 0
M  V30 4250 N 390.218 -0.567019 1.47046 0
M  V30 4251 C 391.464 -1.32658 1.53394 0
M  V30 4252 C 391.797 -1.93254 0.19148 0
M  V30 4253 O 391.072 -1.77338 -0.798844 0
M  V30 4254 C 391.355 -2.44412 2.64452 0
M  V30 4255 C 391.208 -1.88749 4.08282 0
M  V30 4256 C 392.527 -3.46387 2.71485 0
M  V30 4257 H 389.646 -0.48098 0.558415 0
M  V30 4258 H 392.288 -0.635481 1.79058 0
M  V30 4259 H 390.438 -3.03363 2.427 0
M  V30 4260 H 392.11 -1.34134 4.41368 0
M  V30 4261 H 390.353 -1.19481 4.17021 0
M  V30 4262 H 391.024 -2.69491 4.81745 0
M  V30 4263 H 393.5 -2.9734 2.91081 0
M  V30 4264 H 392.376 -4.2202 3.50985 0
M  V30 4265 H 392.637 -4.04616 1.78153 0
M  V30 4266 N 391.696 -1.35014 -0.812953 0
M  V30 4267 C 392.646 -1.23959 -1.91359 0
M  V30 4268 C 393.63 -0.136306 -1.60322 0
M  V30 4269 O 394.822 -0.366925 -1.73155 0
M  V30 4270 C 391.951 -1.00736 -3.28188 0
M  V30 4271 C 391.037 -2.15426 -3.65311 0
M  V30 4272 N 391.428 -3.40612 -3.73921 0
M  V30 4273 C 389.726 -2.06672 -3.95225 0
M  V30 4274 C 390.427 -4.15994 -4.06601 0
M  V30 4275 N 389.403 -3.44685 -4.20349 0
M  V30 4276 H 393.205 -2.18815 -1.96208 0
M  V30 4277 H 390.719 -1.27395 -1.00718 0
M  V30 4278 H 392.716 -0.909052 -4.06868 0
M  V30 4279 H 391.376 -0.067586 -3.2463 0
M  V30 4280 H 392.387 -3.75043 -3.5716 0
M  V30 4281 H 389.064 -1.20511 -3.99729 0
M  V30 4282 H 390.454 -5.24145 -4.20382 0
M  V30 4283 N 393.175 1.03435 -1.18907 0
M  V30 4284 C 394.403 1.80381 -1.01342 0
M  V30 4285 C 394.818 1.83649 0.438005 0
M  V30 4286 O 394.175 1.27655 1.30424 0
M  V30 4287 C 394.226 3.25689 -1.56873 0
M  V30 4288 O 393.947 3.22673 -2.96334 0
M  V30 4289 C 395.448 4.19255 -1.44014 0
M  V30 4290 H 392.668 0.56784 -0.35749 0
M  V30 4291 H 395.212 1.30317 -1.576 0
M  V30 4292 H 393.367 3.72962 -1.04777 0
M  V30 4293 H 393.781 4.13748 -3.22355 0
M  V30 4294 H 395.255 5.19123 -1.87657 0
M  V30 4295 H 395.732 4.37467 -0.389815 0
M  V30 4296 H 396.338 3.77851 -1.95214 0
M  V30 4297 N 394.653 0.992116 1.22453 0
M  V30 4298 C 395.563 0.55065 2.28046 0
M  V30 4299 C 396.579 -0.400189 1.69335 0
M  V30 4300 O 397.755 -0.267215 1.99619 0
M  V30 4301 C 394.82 -0.128496 3.46462 0
M  V30 4302 C 393.881 0.865208 4.20491 0
M  V30 4303 C 393.114 0.218377 5.33253 0
M  V30 4304 O 393.337 -0.987894 5.6178 0
M  V30 4305 O 392.271 0.922845 5.94783 0
M  V30 4306 H 396.097 1.4291 2.67975 0
M  V30 4307 H 393.682 0.760326 1.28606 0
M  V30 4308 H 395.564 -0.508947 4.18315 0
M  V30 4309 H 394.239 -0.981526 3.0846 0
M  V30 4310 H 393.146 1.29658 3.50913 0
M  V30 4311 H 394.479 1.68741 4.62371 0
M  V30 4312 N 396.131 -1.37776 0.765217 0
M  V30 4313 C 397.371 -2.01691 0.331669 0
M  V30 4314 C 397.735 -1.59432 -1.06983 0
M  V30 4315 O 398.936 -2.15761 -1.60314 0
M  V30 4316 C 397.207 -3.54385 0.463261 0
M  V30 4317 S 398.766 -4.38652 0.114011 0
M  V30 4318 H 395.584 -0.699387 0.127979 0
M  V30 4319 H 398.186 -1.68084 0.998396 0
M  V30 4320 H 396.89 -3.82629 1.48401 0
M  V30 4321 H 396.421 -3.92783 -0.220246 0
M  V30 4322 H 398.436 -4.84021 -1.09261 0
M  V30 4323 N 397.609 -0.515225 -1.4894 0
M  V30 4324 C 398.849 0.0223983 -2.04388 0
M  V30 4325 C 399.213 1.32961 -1.38511 0
M  V30 4326 O 400.414 1.95236 -1.8476 0
M  V30 4327 C 398.685 0.157056 -3.57055 0
M  V30 4328 S 400.244 0.646875 -4.34006 0
M  V30 4329 H 397.062 -0.00500662 -0.710982 0
M  V30 4330 H 399.664 -0.69243 -1.82827 0
M  V30 4331 H 398.368 -0.799412 -4.02539 0
M  V30 4332 H 397.899 0.896704 -3.83044 0
M  V30 4333 H 399.914 1.91381 -4.57808 0
M  V30 4334 N 399.087 1.5561 -0.249682 0
M  V30 4335 C 400.037 2.18157 0.662673 0
M  V30 4336 C 401.021 1.1383 1.13717 0
M  V30 4337 O 402.213 1.39731 1.08648 0
M  V30 4338 C 399.342 2.88672 1.85805 0
M  V30 4339 C 398.428 4.00258 1.40193 0
M  V30 4340 N 398.819 5.01473 0.660213 0
M  V30 4341 C 397.117 4.12864 1.68698 0
M  V30 4342 C 397.818 5.80155 0.423695 0
M  V30 4343 N 396.794 5.34533 0.988721 0
M  V30 4344 H 400.596 2.93769 0.0878688 0
M  V30 4345 H 398.11 1.62316 -0.0521183 0
M  V30 4346 H 400.107 3.31912 2.5227 0
M  V30 4347 H 398.767 2.14564 2.43705 0
M  V30 4348 H 399.778 5.16971 0.310047 0
M  V30 4349 H 396.455 3.4993 2.27717 0
M  V30 4350 H 397.845 6.71688 -0.168616 0
M  V30 4351 N 400.565 -0.0233959 1.57583 0
M  V30 4352 C 401.813 -0.711654 1.89156 0
M  V30 4353 C 402.134 -1.75591 0.848096 0
M  V30 4354 O 401.404 -1.95547 -0.117566 0
M  V30 4355 H 399.984 -0.265835 0.698098 0
M  V30 4356 H 402.646 0.0119948 1.94896 0
M  V30 4357 H 401.742 -1.19766 2.88206 0
M  V30 4358 N 402.043 -1.548 -0.295768 0
M  V30 4359 C 403.32 -1.65014 -1.05023 0
M  V30 4360 C 403.7 -0.501805 -2.05049 0
M  V30 4361 O 403.048 0.500869 -2.22943 0
M  V30 4362 C 403.258 -3.03252 -1.72741 0
M  V30 4363 C 404.606 -3.60242 -2.24746 0
M  V30 4364 O 405.63 -3.05737 -1.82765 0
M  V30 4365 O 404.489 -4.55687 -3.01681 0
M  V30 4366 H 401.583 -0.669314 -0.485744 0
M  V30 4367 H 404.129 -1.67144 -0.293438 0
M  V30 4368 H 402.901 -3.7827 -1.00138 0
M  V30 4369 H 402.524 -3.04922 -2.55163 0
M  V30 4370 N 403.521 0.559213 -1.47345 0
M  V30 4371 C 404.451 1.67622 -1.62558 0
M  V30 4372 C 405.432 1.63331 -0.475087 0
M  V30 4373 O 406.617 1.80983 -0.704182 0
M  V30 4374 C 403.747 3.0626 -1.63774 0
M  V30 4375 C 402.701 3.25397 -2.7803 0
M  V30 4376 C 402.027 4.64801 -2.64318 0
M  V30 4377 C 403.327 3.10965 -4.19641 0
M  V30 4378 H 405.021 1.55146 -2.56067 0
M  V30 4379 H 402.567 0.744961 -1.23233 0
M  V30 4380 H 404.52 3.84247 -1.73008 0
M  V30 4381 H 403.244 3.1969 -0.66825 0
M  V30 4382 H 401.903 2.49817 -2.68304 0
M  V30 4383 H 401.551 4.75028 -1.65401 0
M  V30 4384 H 401.251 4.78555 -3.40968 0
M  V30 4385 H 402.775 5.44926 -2.75478 0
M  V30 4386 H 404.189 3.78772 -4.30354 0
M  V30 4387 H 402.586 3.36229 -4.97062 0
M  V30 4388 H 403.656 2.07736 -4.38148 0
M  V30 4389 N 404.999 1.35443 0.805782 0
M  V30 4390 C 405.929 1.31095 1.93226 0
M  V30 4391 C 406.91 0.185244 1.69088 0
M  V30 4392 O 408.095 0.380332 1.90439 0
M  V30 4393 C 405.225 1.08299 3.29983 0
M  V30 4394 C 404.179 2.17519 3.68605 0
M  V30 4395 C 403.505 1.79887 5.03532 0
M  V30 4396 C 404.805 3.5949 3.78898 0
M  V30 4397 H 406.499 2.25352 1.97122 0
M  V30 4398 H 404.045 1.0848 0.946996 0
M  V30 4399 H 405.998 1.03897 4.08391 0
M  V30 4400 H 404.722 0.104885 3.26432 0
M  V30 4401 H 403.381 2.2102 2.92482 0
M  V30 4402 H 403.029 0.80693 4.96485 0
M  V30 4403 H 402.729 2.53001 5.30344 0
M  V30 4404 H 404.253 1.77011 5.84379 0
M  V30 4405 H 405.667 3.58307 4.47536 0
M  V30 4406 H 404.064 4.31371 4.1718 0
M  V30 4407 H 405.134 3.95584 2.80431 0
M  V30 4408 N 406.477 -1.02803 1.19454 0
M  V30 4409 C 407.387 -2.14575 0.948408 0
M  V30 4410 C 408.403 -1.73757 -0.091871 0
M  V30 4411 O 409.579 -2.01185 0.0929654 0
M  V30 4412 C 406.644 -3.43202 0.491265 0
M  V30 4413 C 405.705 -3.98328 1.60103 0
M  V30 4414 C 404.938 -5.20816 1.16561 0
M  V30 4415 O 405.161 -5.70392 0.0295238 0
M  V30 4416 O 404.095 -5.68801 1.96849 0
M  V30 4417 H 407.921 -2.38202 1.88397 0
M  V30 4418 H 405.506 -1.12989 0.977433 0
M  V30 4419 H 407.388 -4.20687 0.245015 0
M  V30 4420 H 406.063 -3.21018 -0.415851 0
M  V30 4421 H 404.97 -3.22174 1.90144 0
M  V30 4422 H 406.303 -4.24879 2.48473 0
M  V30 4423 N 407.956 -0.998596 -1.21925 0
M  V30 4424 C 409.196 -0.685948 -1.92546 0
M  V30 4425 C 409.56 0.768441 -1.75952 0
M  V30 4426 O 410.761 1.19277 -2.40887 0
M  V30 4427 C 409.032 -1.08767 -3.40448 0
M  V30 4428 S 410.591 -0.894251 -4.29591 0
M  V30 4429 H 407.409 -0.250622 -0.665364 0
M  V30 4430 H 410.011 -1.28207 -1.47591 0
M  V30 4431 H 408.715 -2.14242 -3.50041 0
M  V30 4432 H 408.246 -0.48357 -3.90417 0
M  V30 4433 H 410.261 0.212149 -4.95746 0
M  V30 4434 N 409.434 1.37368 -0.772513 0
M  V30 4435 C 410.397 2.28601 -0.165541 0
M  V30 4436 C 411.397 1.48062 0.627238 0
M  V30 4437 O 412.587 1.68268 0.450715 0
M  V30 4438 C 409.719 3.32023 0.772897 0
M  V30 4439 H 410.912 2.83787 -0.969787 0
M  V30 4440 H 408.465 1.46647 -0.540775 0
M  V30 4441 H 409.2 2.81962 1.60212 0
M  V30 4442 H 408.985 3.91555 0.206585 0
M  V30 4443 H 410.475 4.00197 1.19298 0
M  V30 4444 N 410.912 0.523116 1.48665 0
M  V30 4445 C 412.189 -0.0775449 1.95446 0
M  V30 4446 C 412.569 -1.5197 1.4652 0
M  V30 4447 O 411.917 -2.17876 0.688657 0
M  V30 4448 C 412.127 0.0326135 3.48985 0
M  V30 4449 C 413.475 -0.130141 4.24401 0
M  V30 4450 O 414.499 -0.0415142 3.56176 0
M  V30 4451 O 413.358 -0.31491 5.45592 0
M  V30 4452 H 410.452 -0.0831012 0.822814 0
M  V30 4453 H 412.998 0.587227 1.59216 0
M  V30 4454 H 411.77 1.03748 3.77296 0
M  V30 4455 H 411.393 -0.671317 3.91892 0
M  V30 4456 N 412.39 -1.55475 0.257931 0
M  V30 4457 C 413.667 -1.91155 -0.414629 0
M  V30 4458 C 414.047 -1.18008 -1.75035 0
M  V30 4459 O 413.395 -0.301193 -2.26506 0
M  V30 4460 C 413.605 -3.44283 -0.571859 0
M  V30 4461 C 414.953 -4.15744 -0.862678 0
M  V30 4462 O 415.977 -3.50083 -0.657314 0
M  V30 4463 O 414.836 -5.31909 -1.2544 0
M  V30 4464 H 411.93 -0.796016 -0.22425 0
M  V30 4465 H 414.476 -1.66976 0.302814 0
M  V30 4466 H 413.248 -3.89558 0.368844 0
M  V30 4467 H 412.871 -3.7436 -1.33943 0
M  V30 4468 N 413.868 0.0150385 -1.57593 0
M  V30 4469 C 415.284 0.370907 -1.5523 0
M  V30 4470 C 415.484 1.75735 -0.985882 0
M  V30 4471 O 414.54 2.44944 -0.613077 0
M  V30 4472 C 415.853 0.259908 -2.99575 0
M  V30 4473 C 417.401 0.335959 -3.11192 0
M  V30 4474 C 417.876 0.254253 -4.57294 0
M  V30 4475 N 419.367 0.312618 -4.62144 0
M  V30 4476 C 420.102 0.272505 -5.72752 0
M  V30 4477 N 419.598 0.183864 -6.92556 0
M  V30 4478 N 421.391 0.323267 -5.6117 0
M  V30 4479 H 413.542 -0.892104 -1.92757 0
M  V30 4480 H 415.805 -0.340563 -0.884715 0
M  V30 4481 H 415.511 -0.693403 -3.44797 0
M  V30 4482 H 415.385 1.048 -3.62349 0
M  V30 4483 H 417.772 1.27971 -2.65909 0
M  V30 4484 H 417.853 -0.481739 -2.51223 0
M  V30 4485 H 417.497 -0.685887 -5.03247 0
M  V30 4486 H 417.427 1.09024 -5.15191 0
M  V30 4487 H 419.918 0.38307 -3.75953 0
M  V30 4488 H 420.231 0.15874 -7.72637 0
M  V30 4489 H 418.576 0.149708 -6.94839 0
M  V30 4490 H 421.767 0.390607 -4.66467 0
M  V30 4491 H 421.94 0.288539 -6.47357 0
M  V30 4492 N 415.346 1.54954 0.287554 0
M  V30 4493 C 416.309 1.86076 1.33823 0
M  V30 4494 C 417.309 0.734414 1.43049 0
M  V30 4495 O 418.499 1.00266 1.42452 0
M  V30 4496 C 415.631 2.05305 2.72144 0
M  V30 4497 H 416.824 2.79984 1.07465 0
M  V30 4498 H 414.377 1.47223 0.524902 0
M  V30 4499 H 415.112 1.1373 3.03704 0
M  V30 4500 H 414.897 2.873 2.66836 0
M  V30 4501 H 416.387 2.30706 3.48087 0
M  V30 4502 N 416.824 -0.551391 1.4764 0
M  V30 4503 C 418.101 -1.31229 1.45046 0
M  V30 4504 C 418.481 -2.10563 0.150527 0
M  V30 4505 O 417.829 -2.11374 -0.867956 0
M  V30 4506 C 418.039 -2.21189 2.69956 0
M  V30 4507 C 419.387 -2.82021 3.1741 0
M  V30 4508 O 420.411 -2.31488 2.70724 0
M  V30 4509 O 419.27 -3.73885 3.98588 0
M  V30 4510 H 416.364 -0.591193 0.578291 0
M  V30 4511 H 418.91 -0.569813 1.59847 0
M  V30 4512 H 417.682 -1.62207 3.56096 0
M  V30 4513 H 417.305 -3.02722 2.57769 0
M  V30 4514 N 418.302 -1.35869 -0.798587 0
M  V30 4515 C 419.232 -1.32118 -1.92528 0
M  V30 4516 C 420.213 -0.194209 -1.68988 0
M  V30 4517 O 421.398 -0.390426 -1.90235 0
M  V30 4518 C 418.528 -1.10047 -3.29404 0
M  V30 4519 C 417.482 -2.19471 -3.67446 0
M  V30 4520 C 416.808 -1.82555 -5.02571 0
M  V30 4521 C 418.108 -3.61495 -3.76987 0
M  V30 4522 H 419.802 -2.26394 -1.95924 0
M  V30 4523 H 417.348 -1.08981 -0.94123 0
M  V30 4524 H 419.301 -1.06061 -4.07835 0
M  V30 4525 H 418.025 -0.122195 -3.26371 0
M  V30 4526 H 416.684 -2.22568 -2.91306 0
M  V30 4527 H 416.332 -0.833249 -4.9605 0
M  V30 4528 H 416.032 -2.5581 -5.28995 0
M  V30 4529 H 417.556 -1.80108 -5.83432 0
M  V30 4530 H 418.97 -3.60676 -4.4563 0
M  V30 4531 H 417.367 -4.33577 -4.14887 0
M  V30 4532 H 418.437 -3.97065 -2.78329 0
M  V30 4533 N 419.78 1.02168 -1.19998 0
M  V30 4534 C 420.743 2.08765 -0.94604 0
M  V30 4535 C 421.743 1.60618 0.0763846 0
M  V30 4536 O 422.933 1.73472 -0.159135 0
M  V30 4537 C 420.065 3.38262 -0.423255 0
M  V30 4538 H 421.258 2.32726 -1.89153 0
M  V30 4539 H 418.811 1.1889 -1.01464 0
M  V30 4540 H 419.546 3.19974 0.527938 0
M  V30 4541 H 419.331 3.74532 -1.16053 0
M  V30 4542 H 420.821 4.16759 -0.264911 0
M  V30 4543 N 421.258 1.00505 1.21394 0
M  V30 4544 C 422.205 0.565496 2.23765 0
M  V30 4545 C 423.175 -0.408466 1.60999 0
M  V30 4546 O 424.36 -0.310503 1.88257 0
M  V30 4547 C 421.5 -0.101667 3.4495 0
M  V30 4548 C 420.613 0.915479 4.22188 0
M  V30 4549 C 419.748 0.220574 5.30742 0
M  V30 4550 C 418.787 1.22527 5.99711 0
M  V30 4551 N 417.924 0.557831 6.9988 0
M  V30 4552 H 422.764 1.44314 2.60725 0
M  V30 4553 H 420.301 0.722643 1.28126 0
M  V30 4554 H 422.259 -0.505504 4.14126 0
M  V30 4555 H 420.889 -0.94303 3.08718 0
M  V30 4556 H 419.941 1.43756 3.52191 0
M  V30 4557 H 421.253 1.68005 4.69655 0
M  V30 4558 H 420.407 -0.239368 6.06228 0
M  V30 4559 H 419.146 -0.576401 4.84282 0
M  V30 4560 H 418.151 1.69571 5.22997 0
M  V30 4561 H 419.376 2.02332 6.48258 0
M  V30 4562 H 417.322 -0.219486 6.55633 0
M  V30 4563 H 417.239 1.26065 7.45415 0
M  V30 4564 H 418.507 0.121095 7.79406 0
M  V30 4565 N 422.737 -1.36956 0.779787 0
M  V30 4566 C 423.967 -2.03459 0.358877 0
M  V30 4567 C 424.375 -1.58939 -1.02641 0
M  V30 4568 O 423.718 -0.769777 -1.66794 0
M  V30 4569 C 423.78 -3.5796 0.332393 0
M  V30 4570 C 423.444 -4.25644 1.66362 0
M  V30 4571 C 424.441 -4.49205 2.61746 0
M  V30 4572 C 422.126 -4.63313 1.94027 0
M  V30 4573 C 424.12 -5.09503 3.82996 0
M  V30 4574 C 421.807 -5.2333 3.15546 0
M  V30 4575 C 422.805 -5.46363 4.0985 0
M  V30 4576 O 422.493 -6.05122 5.29228 0
M  V30 4577 H 422.225 -0.659767 0.147254 0
M  V30 4578 H 424.779 -1.76111 1.05708 0
M  V30 4579 H 423.009 -3.84388 -0.422237 0
M  V30 4580 H 424.698 -4.05852 -0.0625389 0
M  V30 4581 H 425.464 -4.20508 2.41657 0
M  V30 4582 H 421.343 -4.44715 1.21448 0
M  V30 4583 H 424.887 -5.27397 4.56617 0
M  V30 4584 H 420.784 -5.51451 3.35517 0
M  V30 4585 H 421.552 -6.23595 5.30161 0
M  V30 4586 N 424.215 -0.530993 -1.48385 0
M  V30 4587 C 425.464 0.00474348 -2.01699 0
M  V30 4588 C 425.777 1.35227 -1.41325 0
M  V30 4589 O 426.983 1.97643 -1.86144 0
M  V30 4590 C 425.439 0.0588473 -3.59852 0
M  V30 4591 C 425.047 -1.28385 -4.2921 0
M  V30 4592 C 426.791 0.543358 -4.21008 0
M  V30 4593 C 424.698 -1.19028 -5.79298 0
M  V30 4594 H 423.628 0.00554317 -0.75398 0
M  V30 4595 H 426.279 -0.674924 -1.70637 0
M  V30 4596 H 424.661 0.803612 -3.8776 0
M  V30 4597 H 425.835 -2.04426 -4.12973 0
M  V30 4598 H 424.15 -1.70418 -3.7993 0
M  V30 4599 H 426.747 0.631351 -5.3096 0
M  V30 4600 H 427.09 1.54937 -3.86394 0
M  V30 4601 H 427.623 -0.145754 -3.97533 0
M  V30 4602 H 424.362 -2.17147 -6.18488 0
M  V30 4603 H 423.882 -0.471246 -5.97946 0
M  V30 4604 H 425.561 -0.881365 -6.40969 0
M  V30 4605 N 425.693 1.55336 -0.266172 0
M  V30 4606 C 426.933 2.01303 0.354459 0
M  V30 4607 C 427.297 1.15046 1.53715 0
M  V30 4608 O 428.498 1.50554 2.22681 0
M  V30 4609 C 426.769 3.49748 0.735579 0
M  V30 4610 S 428.328 4.1771 1.34401 0
M  V30 4611 H 425.146 0.702333 0.110674 0
M  V30 4612 H 427.748 1.91653 -0.385916 0
M  V30 4613 H 426.452 4.10181 -0.134196 0
M  V30 4614 H 425.983 3.63364 1.50764 0
M  V30 4615 H 427.998 4.20594 2.63278 0
M  V30 4616 N 427.171 -0.0066808 1.57599 0
M  V30 4617 C 428.081 -1.01671 2.11424 0
M  V30 4618 C 429.097 -1.38143 1.05795 0
M  V30 4619 O 430.273 -1.47011 1.37658 0
M  V30 4620 C 427.338 -2.29192 2.60139 0
M  V30 4621 C 426.399 -1.99094 3.80342 0
M  V30 4622 C 425.632 -3.20535 4.26724 0
M  V30 4623 O 425.855 -4.3199 3.72479 0
M  V30 4624 O 424.789 -3.04924 5.18946 0
M  V30 4625 H 428.615 -0.589181 2.9793 0
M  V30 4626 H 426.2 -0.225091 1.47695 0
M  V30 4627 H 428.082 -3.0412 2.917 0
M  V30 4628 H 426.757 -2.71195 1.76733 0
M  V30 4629 H 425.664 -1.21663 3.53764 0
M  V30 4630 H 426.997 -1.61931 4.648 0
M  V30 4631 N 428.649 -1.55105 -0.279332 0
M  V30 4632 C 429.597 -1.88333 -1.36505 0
M  V30 4633 C 430.591 -0.759043 -1.51443 0
M  V30 4634 O 431.797 -0.943312 -1.53302 0
M  V30 4635 H 428.172 -0.59766 -0.456406 0
M  V30 4636 H 430.143 -2.79041 -1.05728 0
M  V30 4637 C 428.892 -2.16628 -2.7197 0
M  V30 4638 H 428.215 -3.02624 -2.61264 0
M  V30 4639 H 429.655 -2.43803 -3.46895 0
M  V30 4640 C 428.114 -0.971807 -3.22579 0
M  V30 4641 O 428.644 -0.203228 -4.01186 0
M  V30 4642 N 426.85 -0.771238 -2.80179 0
M  V30 4643 H 426.397 -1.39792 -2.1637 0
M  V30 4644 H 426.355 0.0263667 -3.14389 0
M  V30 4645 N 430.127 0.543554 -1.4793 0
M  V30 4646 C 431.059 1.665 -1.57513 0
M  V30 4647 C 432.072 1.56156 -0.460333 0
M  V30 4648 O 433.261 1.62865 -0.730573 0
M  V30 4649 C 430.361 3.05063 -1.47614 0
M  V30 4650 C 429.534 3.41024 -2.739 0
M  V30 4651 C 428.593 4.58809 -2.57645 0
M  V30 4652 O 427.619 4.62707 -3.31498 0
M  V30 4653 N 428.821 5.56149 -1.66368 0
M  V30 4654 H 431.586 1.5872 -2.5422 0
M  V30 4655 H 429.147 0.730517 -1.44482 0
M  V30 4656 H 431.139 3.81712 -1.34455 0
M  V30 4657 H 429.709 3.06994 -0.589359 0
M  V30 4658 H 428.929 2.53687 -3.01723 0
M  V30 4659 H 430.217 3.61831 -3.57709 0
M  V30 4660 H 429.615 5.55767 -1.05543 0
M  V30 4661 H 428.172 6.32071 -1.59154 0
M  V30 4662 N 431.605 1.3629 0.791371 0
M  V30 4663 C 432.882 1.20962 1.53712 0
M  V30 4664 C 433.262 -0.205021 2.10102 0
M  V30 4665 O 432.61 -1.21042 1.93807 0
M  V30 4666 C 432.82 2.29002 2.63361 0
M  V30 4667 C 434.168 2.65572 3.31295 0
M  V30 4668 O 435.192 2.2803 2.73643 0
M  V30 4669 O 434.051 3.3018 4.35481 0
M  V30 4670 H 431.145 0.47086 0.679867 0
M  V30 4671 H 433.691 1.48016 0.830021 0
M  V30 4672 H 432.463 3.2382 2.19674 0
M  V30 4673 H 432.086 2.03303 3.41692 0
M  V30 4674 N 433.083 -1.0153 1.20538 0
M  V30 4675 C 434.308 -1.79283 1.04271 0
M  V30 4676 C 434.733 -1.8372 -0.403544 0
M  V30 4677 O 434.091 -1.27321 -1.2907 0
M  V30 4678 C 434.139 -3.21535 1.63241 0
M  V30 4679 O 433.243 -4.03099 0.870908 0
M  V30 4680 H 432.584 -0.55293 0.367647 0
M  V30 4681 H 435.114 -1.27696 1.59859 0
M  V30 4682 H 435.124 -3.72243 1.6703 0
M  V30 4683 H 433.799 -3.1762 2.68497 0
M  V30 4684 H 432.376 -3.61693 0.907323 0
M  V30 4685 N 434.561 -1.01147 -1.20859 0
M  V30 4686 C 435.81 -0.693214 -1.89413 0
M  V30 4687 C 436.123 0.779969 -1.79376 0
M  V30 4688 O 437.329 1.21057 -2.43017 0
M  V30 4689 C 435.785 -1.18949 -3.39675 0
M  V30 4690 C 435.393 -2.68921 -3.58309 0
M  V30 4691 C 437.137 -0.94642 -4.13815 0
M  V30 4692 C 435.044 -3.12056 -5.0237 0
M  V30 4693 H 433.974 -0.255595 -0.709357 0
M  V30 4694 H 436.625 -1.22349 -1.36759 0
M  V30 4695 H 435.007 -0.587228 -3.91622 0
M  V30 4696 H 436.181 -3.34652 -3.16772 0
M  V30 4697 H 434.496 -2.91314 -2.97532 0
M  V30 4698 H 437.093 -1.24417 -5.20023 0
M  V30 4699 H 437.436 0.117219 -4.16135 0
M  V30 4700 H 437.969 -1.5118 -3.67953 0
M  V30 4701 H 434.708 -4.17674 -5.05202 0
M  V30 4702 H 434.228 -2.51041 -5.44737 0
M  V30 4703 H 435.907 -3.04403 -5.70918 0
M  V30 4704 N 436.039 1.36541 -0.78704 0
M  V30 4705 C 437.264 2.0409 -0.369053 0
M  V30 4706 C 437.689 1.58957 1.00569 0
M  V30 4707 O 437.047 0.756926 1.64743 0
M  V30 4708 C 437.095 3.57924 -0.438466 0
M  V30 4709 O 436.199 4.08642 0.555479 0
M  V30 4710 H 435.54 0.645142 -0.157122 0
M  V30 4711 H 438.07 1.74545 -1.06749 0
M  V30 4712 H 438.08 4.06887 -0.301218 0
M  V30 4713 H 436.755 3.90127 -1.44132 0
M  V30 4714 H 435.332 3.70958 0.380088 0
M  V30 4715 N 437.518 0.538854 1.48102 0
M  V30 4716 C 438.743 0.0102694 2.07397 0
M  V30 4717 C 439.168 -1.26562 1.39153 0
M  V30 4718 O 438.526 -1.75357 0.460387 0
M  V30 4719 C 438.574 -0.187602 3.60112 0
M  V30 4720 O 437.678 -1.25432 3.92862 0
M  V30 4721 H 437.019 0.0430975 0.6626 0
M  V30 4722 H 439.549 0.749301 1.90385 0
M  V30 4723 H 439.559 -0.407517 4.0596 0
M  V30 4724 H 438.234 0.744386 4.09184 0
M  V30 4725 H 436.811 -1.01636 3.58782 0
M  V30 4726 N 438.996 -1.55193 0.274407 0
M  V30 4727 C 439.943 -2.225 -0.613374 0
M  V30 4728 C 440.913 -1.19823 -1.15029 0
M  V30 4729 O 442.098 -1.48362 -1.19973 0
M  V30 4730 C 439.238 -2.94927 -1.79199 0
M  V30 4731 C 438.351 -4.12322 -1.28899 0
M  V30 4732 C 437.486 -4.72394 -2.42934 0
M  V30 4733 C 436.525 -5.81984 -1.89634 0
M  V30 4734 N 435.662 -6.36123 -2.9714 0
M  V30 4735 H 440.502 -2.97982 -0.032756 0
M  V30 4736 H 438.039 -1.47099 -0.00440146 0
M  V30 4737 H 439.997 -3.35134 -2.48478 0
M  V30 4738 H 438.627 -2.2187 -2.34465 0
M  V30 4739 H 437.679 -3.7724 -0.489327 0
M  V30 4740 H 438.991 -4.91355 -0.858587 0
M  V30 4741 H 438.145 -5.15317 -3.20208 0
M  V30 4742 H 436.884 -3.92636 -2.8929 0
M  V30 4743 H 435.889 -5.38511 -1.1084 0
M  V30 4744 H 437.114 -6.6361 -1.44215 0
M  V30 4745 H 435.06 -5.59259 -3.42878 0
M  V30 4746 H 434.977 -7.10427 -2.58515 0
M  V30 4747 H 436.245 -6.83704 -3.74391 0
M  V30 4748 N 440.474 -0.00167713 -1.576 0
M  V30 4749 C 441.404 0.988091 -2.11563 0
M  V30 4750 C 442.385 1.35736 -1.02517 0
M  V30 4751 O 443.57 1.44082 -1.30208 0
M  V30 4752 C 440.7 2.27941 -2.62031 0
M  V30 4753 C 439.654 2.0517 -3.75619 0
M  V30 4754 C 438.98 3.4033 -4.12407 0
M  V30 4755 C 440.28 1.41294 -5.02825 0
M  V30 4756 H 441.974 0.538771 -2.94513 0
M  V30 4757 H 439.52 0.257712 -1.41675 0
M  V30 4758 H 441.473 2.97539 -2.9841 0
M  V30 4759 H 440.197 2.74989 -1.76205 0
M  V30 4760 H 438.856 1.37998 -3.39635 0
M  V30 4761 H 438.504 3.85085 -3.23603 0
M  V30 4762 H 438.204 3.25909 -4.88935 0
M  V30 4763 H 439.728 4.1124 -4.51347 0
M  V30 4764 H 441.142 2.00851 -5.36965 0
M  V30 4765 H 439.539 1.37356 -5.84169 0
M  V30 4766 H 440.609 0.382362 -4.8339 0
M  V30 4767 N 441.952 1.55251 0.271103 0
M  V30 4768 C 442.899 1.88261 1.33516 0
M  V30 4769 C 443.869 0.734296 1.48988 0
M  V30 4770 O 445.054 0.985741 1.63364 0
M  V30 4771 C 442.194 2.16168 2.69008 0
M  V30 4772 C 441.307 3.43678 2.61743 0
M  V30 4773 C 440.442 3.61276 3.89427 0
M  V30 4774 C 439.481 4.82472 3.7668 0
M  V30 4775 N 438.618 4.96717 4.96202 0
M  V30 4776 H 443.458 2.79015 1.04665 0
M  V30 4777 H 440.995 1.38137 0.505618 0
M  V30 4778 H 442.953 2.30349 3.47844 0
M  V30 4779 H 441.583 1.28646 2.96057 0
M  V30 4780 H 440.635 3.37959 1.74607 0
M  V30 4781 H 441.947 4.3265 2.48224 0
M  V30 4782 H 441.101 3.75284 4.76704 0
M  V30 4783 H 439.84 2.70492 4.05814 0
M  V30 4784 H 438.845 4.68465 2.87786 0
M  V30 4785 H 440.07 5.74692 3.61809 0
M  V30 4786 H 438.016 4.08865 5.12997 0
M  V30 4787 H 437.933 5.79738 4.85222 0
M  V30 4788 H 439.201 5.15113 5.85046 0
M  V30 4789 N 443.43 -0.535701 1.48216 0
M  V30 4790 C 444.34 -1.66785 1.64985 0
M  V30 4791 C 445.356 -1.65654 0.532414 0
M  V30 4792 O 446.532 -1.8471 0.80275 0
M  V30 4793 C 443.597 -3.0326 1.68031 0
M  V30 4794 C 442.658 -3.1529 2.9136 0
M  V30 4795 C 441.891 -4.45255 2.94252 0
M  V30 4796 O 442.114 -5.32011 2.05719 0
M  V30 4797 O 441.048 -4.6153 3.86359 0
M  V30 4798 H 444.874 -1.55576 2.60825 0
M  V30 4799 H 442.459 -0.70815 1.31551 0
M  V30 4800 H 444.341 -3.84436 1.72589 0
M  V30 4801 H 443.016 -3.14805 0.753628 0
M  V30 4802 H 441.923 -2.3343 2.92337 0
M  V30 4803 H 443.256 -3.08658 3.83394 0
M  V30 4804 N 444.908 -1.36708 -0.784132 0
M  V30 4805 C 446.148 -1.32618 -1.55537 0
M  V30 4806 C 446.512 0.0920681 -1.91779 0
M  V30 4807 O 447.713 0.257573 -2.67563 0
M  V30 4808 C 445.984 -2.22788 -2.79464 0
M  V30 4809 S 447.543 -2.36432 -3.69656 0
M  V30 4810 H 444.361 -0.470973 -0.53264 0
M  V30 4811 H 446.963 -1.72333 -0.92312 0
M  V30 4812 H 445.667 -3.24774 -2.50899 0
M  V30 4813 H 445.198 -1.84112 -3.47658 0
M  V30 4814 H 447.213 -1.56573 -4.7085 0
M  V30 4815 N 446.386 1.0089 -1.21074 0
M  V30 4816 C 447.626 1.76142 -1.03699 0
M  V30 4817 C 447.99 1.87292 0.422587 0
M  V30 4818 O 449.191 2.59068 0.716752 0
M  V30 4819 C 447.462 3.13805 -1.7106 0
M  V30 4820 S 449.021 4.04996 -1.68889 0
M  V30 4821 H 445.839 0.606113 -0.371683 0
M  V30 4822 H 448.441 1.20744 -1.53756 0
M  V30 4823 H 447.145 3.0332 -2.76451 0
M  V30 4824 H 446.676 3.74276 -1.21166 0
M  V30 4825 H 448.691 4.90842 -0.727211 0
M  V30 4826 N 447.864 1.01787 1.20321 0
M  V30 4827 C 448.774 0.598898 2.26827 0
M  V30 4828 C 449.79 -0.36418 1.70146 0
M  V30 4829 O 450.966 -0.224812 2.00141 0
M  V30 4830 C 448.031 -0.0549769 3.46656 0
M  V30 4831 C 447.092 0.954205 4.18561 0
M  V30 4832 C 446.325 0.331439 5.3267 0
M  V30 4833 O 446.548 -0.86851 5.63749 0
M  V30 4834 O 445.482 1.0488 5.92692 0
M  V30 4835 H 449.308 1.48562 2.64883 0
M  V30 4836 H 446.893 0.787434 1.26964 0
M  V30 4837 H 448.775 -0.420102 4.19301 0
M  V30 4838 H 447.45 -0.915876 3.10473 0
M  V30 4839 H 446.357 1.37072 3.48083 0
M  V30 4840 H 447.69 1.78511 4.58688 0
M  V30 4841 N 449.342 -1.36122 0.79427 0
M  V30 4842 C 450.289 -2.29982 0.194101 0
M  V30 4843 C 451.259 -1.52214 -0.664833 0
M  V30 4844 O 452.444 -1.80702 -0.612498 0
M  V30 4845 C 449.584 -3.38706 -0.661244 0
M  V30 4846 C 448.697 -4.31456 0.216766 0
M  V30 4847 C 447.832 -5.27265 -0.645411 0
M  V30 4848 C 446.871 -6.11653 0.233756 0
M  V30 4849 N 446.008 -6.99636 -0.587682 0
M  V30 4850 H 450.848 -2.80722 0.999965 0
M  V30 4851 H 448.385 -1.38172 0.504677 0
M  V30 4852 H 450.343 -4.00394 -1.17219 0
M  V30 4853 H 448.973 -2.89274 -1.43249 0
M  V30 4854 H 448.025 -3.7088 0.845724 0
M  V30 4855 H 449.337 -4.90724 0.893973 0
M  V30 4856 H 448.491 -5.94266 -1.22198 0
M  V30 4857 H 447.23 -4.68463 -1.35623 0
M  V30 4858 H 446.235 -5.4361 0.82269 0
M  V30 4859 H 447.46 -6.72531 0.942247 0
M  V30 4860 H 445.406 -6.43337 -1.2827 0
M  V30 4861 H 445.323 -7.55993 0.0317402 0
M  V30 4862 H 446.591 -7.71001 -1.14792 0
M  V30 4863 N 450.82 -0.546701 -1.47814 0
M  V30 4864 C 452.231 -0.110564 -1.86372 0
M  V30 4865 C 452.582 1.31678 -1.45449 0
M  V30 4866 O 451.707 1.98889 -0.852758 0
M  V30 4867 C 452.302 -0.193873 -3.38245 0
M  V30 4868 C 450.861 0.187164 -3.75934 0
M  V30 4869 C 450.008 -0.546166 -2.71868 0
M  V30 4870 H 452.959 -0.757022 -1.39481 0
M  V30 4871 H 452.98 0.590218 -3.75895 0
M  V30 4872 H 452.492 -1.23282 -3.67999 0
M  V30 4873 H 450.593 1.22762 -3.51796 0
M  V30 4874 H 450.706 -0.164083 -4.78819 0
M  V30 4875 H 449.07 0.00953904 -2.54698 0
M  V30 4876 H 449.853 -1.58606 -3.04465 0
M  V30 4877 N 452.299 1.55045 -0.282633 0
M  V30 4878 C 453.229 2.2579 0.595066 0
M  V30 4879 C 454.21 1.25074 1.15284 0
M  V30 4880 O 455.395 1.5381 1.18559 0
M  V30 4881 C 452.525 2.98472 1.77572 0
M  V30 4882 C 451.479 4.0618 1.34914 0
M  V30 4883 C 450.805 4.66477 2.6135 0
M  V30 4884 C 452.105 5.1996 0.493821 0
M  V30 4885 H 453.799 2.994 0.00505653 0
M  V30 4886 H 451.345 1.44 0.000992001 0
M  V30 4887 H 453.298 3.46677 2.39568 0
M  V30 4888 H 452.022 2.2241 2.39168 0
M  V30 4889 H 450.681 3.58797 0.752338 0
M  V30 4890 H 450.329 3.87074 3.2122 0
M  V30 4891 H 450.029 5.39207 2.33516 0
M  V30 4892 H 451.553 5.17435 3.24181 0
M  V30 4893 H 452.967 5.64172 1.01898 0
M  V30 4894 H 451.364 5.99299 0.310047 0
M  V30 4895 H 452.434 4.82462 -0.485593 0
M  V30 4896 N 453.777 0.010035 1.57597 0
M  V30 4897 C 454.707 -0.976857 2.12084 0
M  V30 4898 C 455.688 -1.35191 1.03235 0
M  V30 4899 O 456.873 -1.43389 1.3097 0
M  V30 4900 C 454.003 -2.26548 2.63236 0
M  V30 4901 C 452.957 -2.03175 3.76701 0
M  V30 4902 C 452.283 -3.38138 4.14206 0
M  V30 4903 C 453.583 -1.38625 5.03568 0
M  V30 4904 H 455.277 -0.523145 2.94794 0
M  V30 4905 H 452.823 -0.250195 1.4181 0
M  V30 4906 H 454.776 -2.95952 2.99984 0
M  V30 4907 H 453.5 -2.74051 1.77661 0
M  V30 4908 H 452.159 -1.36195 3.40362 0
M  V30 4909 H 451.807 -3.83363 3.25641 0
M  V30 4910 H 451.507 -3.23312 4.90656 0
M  V30 4911 H 453.031 -4.08841 4.53521 0
M  V30 4912 H 454.445 -1.98 5.38023 0
M  V30 4913 H 452.842 -1.34256 5.84889 0
M  V30 4914 H 453.912 -0.356722 4.83586 0
M  V30 4915 N 455.255 -1.55392 -0.262866 0
M  V30 4916 C 456.165 -1.92077 -1.34698 0
M  V30 4917 C 457.181 -0.819227 -1.53508 0
M  V30 4918 O 458.357 -1.11921 -1.67439 0
M  V30 4919 C 455.422 -2.19407 -2.68443 0
M  V30 4920 C 454.483 -3.42905 -2.58292 0
M  V30 4921 C 453.716 -3.68921 -3.85659 0
M  V30 4922 O 453.939 -2.97275 -4.8681 0
M  V30 4923 O 452.873 -4.62455 -3.85252 0
M  V30 4924 H 456.699 -2.84384 -1.06581 0
M  V30 4925 H 454.284 -1.42069 -0.462264 0
M  V30 4926 H 456.166 -2.38365 -3.47506 0
M  V30 4927 H 454.841 -1.30282 -2.96325 0
M  V30 4928 H 453.748 -3.29272 -1.7757 0
M  V30 4929 H 455.081 -4.32282 -2.35358 0
M  V30 4930 N 456.733 0.527833 -1.48498 0
M  V30 4931 C 457.68 1.6322 -1.6318 0
M  V30 4932 C 458.65 1.59199 -0.473815 0
M  V30 4933 O 459.835 1.77591 -0.697563 0
M  V30 4934 C 456.975 3.01474 -1.67951 0
M  V30 4935 C 456.088 3.15713 -2.94871 0
M  V30 4936 C 455.223 4.44539 -2.90789 0
M  V30 4937 C 454.262 4.52315 -4.12404 0
M  V30 4938 N 453.399 5.72533 -4.06387 0
M  V30 4939 H 458.239 1.50011 -2.57489 0
M  V30 4940 H 455.776 0.730298 -1.27691 0
M  V30 4941 H 457.734 3.81572 -1.68698 0
M  V30 4942 H 456.364 3.1345 -0.771306 0
M  V30 4943 H 455.416 2.28854 -3.03859 0
M  V30 4944 H 456.728 3.1732 -3.8485 0
M  V30 4945 H 455.882 5.3293 -2.89949 0
M  V30 4946 H 454.621 4.45457 -1.98542 0
M  V30 4947 H 453.626 3.62331 -4.13517 0
M  V30 4948 H 454.851 4.53134 -5.05812 0
M  V30 4949 H 452.797 5.74344 -3.16962 0
M  V30 4950 H 452.714 5.75643 -4.90073 0
M  V30 4951 H 453.982 6.63204 -4.0961 0
M  V30 4952 N 458.211 1.37122 0.776871 0
M  V30 4953 C 459.436 1.354 1.57104 0
M  V30 4954 C 459.861 -0.0595562 1.88006 0
M  V30 4955 O 459.219 -1.03514 1.48844 0
M  V30 4956 C 459.267 2.19472 2.8612 0
M  V30 4957 O 458.371 1.59582 3.80273 0
M  V30 4958 H 457.712 0.462869 0.476076 0
M  V30 4959 H 460.242 1.80577 0.961932 0
M  V30 4960 H 460.252 2.32502 3.35271 0
M  V30 4961 H 458.927 3.22222 2.62956 0
M  V30 4962 H 457.504 1.55564 3.38902 0
M  V30 4963 N 459.689 -1.00246 1.21608 0
M  V30 4964 C 460.639 -2.07492 0.945051 0
M  V30 4965 C 461.623 -1.60585 -0.100675 0
M  V30 4966 O 462.815 -1.76667 0.10859 0
M  V30 4967 C 459.944 -3.39425 0.514342 0
M  V30 4968 C 459.03 -3.92993 1.59428 0
M  V30 4969 N 459.421 -4.19898 2.81991 0
M  V30 4970 C 457.719 -4.21297 1.46374 0
M  V30 4971 C 458.42 -4.63297 3.51754 0
M  V30 4972 N 457.396 -4.66421 2.79199 0
M  V30 4973 H 461.198 -2.26222 1.87619 0
M  V30 4974 H 458.712 -1.18339 1.11219 0
M  V30 4975 H 460.709 -4.15808 0.301527 0
M  V30 4976 H 459.369 -3.22101 -0.410008 0
M  V30 4977 H 460.38 -4.08377 3.1851 0
M  V30 4978 H 457.057 -4.13095 0.604863 0
M  V30 4979 H 458.447 -4.92816 4.56708 0
M  V30 4980 N 461.167 -1.02423 -1.1978 0
M  V30 4981 C 462.407 -0.726635 -1.91048 0
M  V30 4982 C 462.771 0.730947 -1.77542 0
M  V30 4983 O 463.972 1.14141 -2.43362 0
M  V30 4984 C 462.243 -1.15964 -3.38064 0
M  V30 4985 S 463.802 -0.985172 -4.27598 0
M  V30 4986 H 460.62 -0.264679 -0.659899 0
M  V30 4987 H 463.222 -1.31309 -1.44838 0
M  V30 4988 H 461.926 -2.21619 -3.45417 0
M  V30 4989 H 461.457 -0.566274 -3.89303 0
M  V30 4990 H 463.472 0.106946 -4.96085 0
M  V30 4991 N 462.645 1.35699 -0.801477 0
M  V30 4992 C 463.894 1.98165 -0.375979 0
M  V30 4993 C 464.207 1.64306 1.06127 0
M  V30 4994 O 465.413 2.20097 1.58964 0
M  V30 4995 C 463.869 3.54497 -0.621305 0
M  V30 4996 C 463.477 3.9727 -2.07076 0
M  V30 4997 C 465.221 4.23697 -0.26091 0
M  V30 4998 C 463.128 5.46427 -2.26211 0
M  V30 4999 H 462.058 0.741478 -0.136844 0
M  V30 5000 H 464.709 1.54834 -0.984814 0
M  V30 5001 H 463.091 3.95958 0.0574112 0
M  V30 5002 H 464.265 3.66974 -2.78687 0
M  V30 5003 H 462.58 3.40943 -2.39054 0
M  V30 5004 H 465.177 5.33334 -0.381994 0
M  V30 5005 H 465.52 4.0869 0.792344 0
M  V30 5006 H 466.053 3.87639 -0.893339 0
M  V30 5007 H 462.792 5.66396 -3.29963 0
M  V30 5008 H 462.312 5.78309 -1.59119 0
M  V30 5009 H 463.991 6.12819 -2.07513 0
M  V30 5010 N 464.123 0.554532 1.47522 0
M  V30 5011 C 465.086 -0.184174 2.28459 0
M  V30 5012 C 466.086 -0.845195 1.36796 0
M  V30 5013 O 467.276 -0.701467 1.59452 0
M  V30 5014 C 464.408 -1.26903 3.16399 0
M  V30 5015 H 465.601 0.526751 2.95238 0
M  V30 5016 H 463.154 0.311375 1.53167 0
M  V30 5017 H 463.889 -2.01244 2.54306 0
M  V30 5018 H 463.674 -0.799883 3.83854 0
M  V30 5019 H 465.164 -1.78794 3.77389 0
M  V30 5020 N 465.601 -1.54893 0.290851 0
M  V30 5021 C 466.511 -2.26812 -0.59945 0
M  V30 5022 C 467.527 -1.29963 -1.15696 0
M  V30 5023 O 468.703 -1.62928 -1.18391 0
M  V30 5024 C 465.768 -2.98716 -1.75982 0
M  V30 5025 C 464.829 -4.1108 -1.2374 0
M  V30 5026 C 464.062 -4.79546 -2.34246 0
M  V30 5027 O 464.285 -4.47309 -3.53936 0
M  V30 5028 O 463.219 -5.67165 -2.01512 0
M  V30 5029 H 467.045 -3.03696 -0.0163561 0
M  V30 5030 H 464.63 -1.49289 0.0576755 0
M  V30 5031 H 466.512 -3.43851 -2.43607 0
M  V30 5032 H 465.187 -2.24737 -2.3297 0
M  V30 5033 H 464.094 -3.70367 -0.527163 0
M  V30 5034 H 465.427 -4.87007 -0.71307 0
M  V30 5035 N 467.08 -0.0183926 -1.57589 0
M  V30 5036 C 468.326 0.663543 -1.91638 0
M  V30 5037 C 468.659 1.72392 -0.894134 0
M  V30 5038 O 467.934 1.94316 0.0846449 0
M  V30 5039 C 468.217 1.28984 -3.36207 0
M  V30 5040 C 468.07 0.239761 -4.49161 0
M  V30 5041 C 469.389 2.2109 -3.80536 0
M  V30 5042 H 466.508 0.239746 -0.696915 0
M  V30 5043 H 469.15 -0.073456 -1.89858 0
M  V30 5044 H 467.3 1.91799 -3.37854 0
M  V30 5045 H 468.972 -0.390119 -4.59647 0
M  V30 5046 H 467.215 -0.435972 -4.31604 0
M  V30 5047 H 467.886 0.717383 -5.47319 0
M  V30 5048 H 470.362 1.68273 -3.80557 0
M  V30 5049 H 469.238 2.61869 -4.82406 0
M  V30 5050 H 469.499 3.09764 -3.15434 0
M  V30 5051 N 468.558 1.5553 0.254621 0
M  V30 5052 C 469.468 1.92789 1.33677 0
M  V30 5053 C 470.484 0.827356 1.53071 0
M  V30 5054 O 471.66 1.12807 1.66843 0
M  V30 5055 C 468.725 2.20827 2.67275 0
M  V30 5056 C 467.786 3.4427 2.5647 0
M  V30 5057 C 467.019 3.70961 3.83697 0
M  V30 5058 O 467.242 2.99852 4.85227 0
M  V30 5059 O 466.176 4.64491 3.82794 0
M  V30 5060 H 470.002 2.84945 1.05071 0
M  V30 5061 H 467.587 1.42312 0.454723 0
M  V30 5062 H 469.469 2.40204 3.46237 0
M  V30 5063 H 468.144 1.31851 2.9563 0
M  V30 5064 H 467.051 3.30209 1.75821 0
M  V30 5065 H 468.384 4.33524 2.33062 0
M  V30 5066 N 470.036 -0.519951 1.48776 0
M  V30 5067 C 470.984 -1.64443 1.64503 0
M  V30 5068 C 471.978 -1.61501 0.511248 0
M  V30 5069 O 473.184 -1.66238 0.690294 0
M  V30 5070 H 469.559 -0.544776 0.518385 0
M  V30 5071 H 471.53 -1.48325 2.58925 0
M  V30 5072 C 470.279 -3.02673 1.71127 0
M  V30 5073 H 469.602 -3.05635 2.57735 0
M  V30 5074 H 471.042 -3.80941 1.86172 0
M  V30 5075 C 469.501 -3.33854 0.452032 0
M  V30 5076 O 470.031 -3.99385 -0.430678 0
M  V30 5077 N 468.237 -2.88825 0.32069 0
M  V30 5078 H 467.784 -2.35674 1.03998 0
M  V30 5079 H 467.742 -3.10056 -0.520814 0
M  V30 5080 N 471.514 -1.37532 -0.769588 0
M  V30 5081 C 472.791 -1.23392 -1.51768 0
M  V30 5082 C 473.171 0.17157 -2.10402 0
M  V30 5083 O 472.519 1.17943 -1.95708 0
M  V30 5084 C 472.729 -2.33163 -2.59685 0
M  V30 5085 C 474.077 -2.70809 -3.27028 0
M  V30 5086 O 475.101 -2.32355 -2.69981 0
M  V30 5087 O 473.96 -3.37066 -4.30173 0
M  V30 5088 H 471.054 -0.481617 -0.67229 0
M  V30 5089 H 473.6 -1.49318 -0.806368 0
M  V30 5090 H 472.372 -3.27273 -2.14494 0
M  V30 5091 H 471.995 -2.08713 -3.38415 0
M  V30 5092 N 472.992 0.995999 -1.22138 0
M  V30 5093 C 473.902 2.11985 -1.00496 0
M  V30 5094 C 474.918 1.7394 0.0457701 0
M  V30 5095 O 476.094 2.00868 -0.146273 0
M  V30 5096 C 473.159 3.41779 -0.582086 0
M  V30 5097 C 472.22 3.93943 -1.70608 0
M  V30 5098 C 471.453 5.17542 -1.30328 0
M  V30 5099 O 471.676 5.70114 -0.180743 0
M  V30 5100 O 470.61 5.63382 -2.11861 0
M  V30 5101 H 474.436 2.33123 -1.94647 0
M  V30 5102 H 472.021 1.10358 -1.00705 0
M  V30 5103 H 473.903 4.1989 -0.356467 0
M  V30 5104 H 472.578 3.22007 0.330592 0
M  V30 5105 H 471.485 3.17019 -1.98619 0
M  V30 5106 H 472.818 4.18141 -2.59651 0
M  V30 5107 N 474.47 1.03057 1.19235 0
M  V30 5108 C 475.403 0.557384 2.21288 0
M  V30 5109 C 476.381 -0.402675 1.57535 0
M  V30 5110 O 477.565 -0.319376 1.85775 0
M  V30 5111 C 474.692 -0.187041 3.38183 0
M  V30 5112 C 473.738 0.72471 4.20298 0
M  V30 5113 S 474.571 2.20187 4.88137 0
M  V30 5114 C 475.727 1.46801 6.08441 0
M  V30 5115 H 475.96 1.42207 2.61083 0
M  V30 5116 H 473.493 0.840651 1.29508 0
M  V30 5117 H 475.451 -0.610405 4.05936 0
M  V30 5118 H 474.112 -1.02748 2.96819 0
M  V30 5119 H 473.305 0.149911 5.03777 0
M  V30 5120 H 472.907 1.08647 3.57871 0
M  V30 5121 H 475.199 0.755522 6.73274 0
M  V30 5122 H 476.142 2.27946 6.70407 0
M  V30 5123 H 476.55 0.964762 5.56195 0
M  V30 5124 N 475.948 -1.35272 0.808662 0
M  V30 5125 C 477.359 -1.81179 0.450688 0
M  V30 5126 C 477.71 -1.67143 -1.02751 0
M  V30 5127 O 476.835 -1.20325 -1.79864 0
M  V30 5128 C 477.43 -3.28943 0.811275 0
M  V30 5129 C 475.989 -3.72985 0.505871 0
M  V30 5130 C 475.136 -2.57229 1.03578 0
M  V30 5131 H 478.087 -1.2322 1.00012 0
M  V30 5132 H 478.108 -3.80342 0.109588 0
M  V30 5133 H 477.62 -3.39127 1.88718 0
M  V30 5134 H 475.721 -3.68349 -0.561209 0
M  V30 5135 H 475.834 -4.67677 1.03995 0
M  V30 5136 H 474.198 -2.50548 0.458005 0
M  V30 5137 H 474.981 -2.7019 2.11784 0
M  V30 5138 N 477.426 -0.562348 -1.47226 0
M  V30 5139 C 478.389 0.172056 -2.28553 0
M  V30 5140 C 479.389 0.837928 -1.37242 0
M  V30 5141 O 480.579 0.693001 -1.59822 0
M  V30 5142 C 477.711 1.25223 -3.17068 0
M  V30 5143 H 478.904 -0.542401 -2.94954 0
M  V30 5144 H 476.457 -0.319493 -1.53 0
M  V30 5145 H 477.192 1.99892 -2.55369 0
M  V30 5146 H 476.977 0.779515 -3.84273 0
M  V30 5147 H 478.467 1.76791 -3.78332 0
M  V30 5148 N 478.904 1.54736 -0.299062 0
M  V30 5149 C 480.181 1.92187 0.363802 0
M  V30 5150 C 480.561 1.22607 1.71845 0
M  V30 5151 O 479.909 0.361141 2.25628 0
M  V30 5152 C 480.119 3.45678 0.480377 0
M  V30 5153 C 481.467 4.17885 0.752147 0
M  V30 5154 O 482.491 3.51702 0.564264 0
M  V30 5155 O 481.35 5.35048 1.11294 0
M  V30 5156 H 478.444 0.801681 0.203066 0
M  V30 5157 H 480.99 1.66115 -0.346978 0
M  V30 5158 H 479.762 3.88443 -0.471999 0
M  V30 5159 H 479.385 3.77779 1.2397 0
M  V30 5160 N 480.382 0.0267497 1.57577 0
M  V30 5161 C 481.312 -0.954308 2.13108 0
M  V30 5162 C 482.293 -1.34088 1.04663 0
M  V30 5163 O 483.478 -1.41992 1.32484 0
M  V30 5164 C 480.608 -2.23744 2.65624 0
M  V30 5165 C 479.562 -1.99168 3.78835 0
M  V30 5166 C 478.888 -3.33726 4.17769 0
M  V30 5167 C 480.188 -1.33277 5.0501 0
M  V30 5168 H 481.882 -0.491848 2.95332 0
M  V30 5169 H 479.428 -0.23514 1.42067 0
M  V30 5170 H 481.381 -2.92754 3.03106 0
M  V30 5171 H 480.105 -2.72151 1.80558 0
M  V30 5172 H 478.764 -1.32577 3.41788 0
M  V30 5173 H 478.412 -3.79888 3.29688 0
M  V30 5174 H 478.112 -3.18089 4.94058 0
M  V30 5175 H 479.636 -4.04008 4.57832 0
M  V30 5176 H 481.05 -1.92283 5.40093 0
M  V30 5177 H 479.447 -1.28045 5.8628 0
M  V30 5178 H 480.517 -0.305411 4.83937 0
M  V30 5179 N 481.861 -1.55662 -0.24637 0
M  V30 5180 C 483.272 -1.67953 -0.81539 0
M  V30 5181 C 483.623 -0.624302 -1.86002 0
M  V30 5182 O 482.748 0.229328 -2.15181 0
M  V30 5183 C 483.343 -3.04484 -1.48576 0
M  V30 5184 C 481.902 -3.18713 -2.00248 0
M  V30 5185 C 481.049 -2.6383 -0.853766 0
M  V30 5186 H 484 -1.58685 -0.0221692 0
M  V30 5187 H 484.021 -2.98959 -2.3538 0
M  V30 5188 H 483.533 -3.81264 -0.725222 0
M  V30 5189 H 481.634 -2.46757 -2.79181 0
M  V30 5190 H 481.747 -4.25628 -2.1995 0
M  V30 5191 H 480.111 -2.21667 -1.25442 0
M  V30 5192 H 480.894 -3.43135 -0.106302 0
M  V30 5193 N 483.339 0.512053 -1.4905 0
M  V30 5194 C 484.564 1.2959 -1.6193 0
M  V30 5195 C 484.989 1.85906 -0.286454 0
M  V30 5196 O 484.347 1.65312 0.744426 0
M  V30 5197 C 484.395 2.40987 -2.68249 0
M  V30 5198 O 483.499 3.44531 -2.26654 0
M  V30 5199 H 482.84 0.383053 -0.542371 0
M  V30 5200 H 485.37 0.614231 -1.95162 0
M  V30 5201 H 485.38 2.86913 -2.90078 0
M  V30 5202 H 484.055 1.99361 -3.65004 0
M  V30 5203 H 482.632 3.046 -2.15112 0
M  V30 5204 N 484.817 1.37938 0.762283 0
M  V30 5205 C 485.747 1.37176 1.88958 0
M  V30 5206 C 486.728 0.238945 1.68413 0
M  V30 5207 O 487.913 0.440726 1.89133 0
M  V30 5208 C 485.043 1.18742 3.2637 0
M  V30 5209 C 483.997 2.29136 3.61498 0
M  V30 5210 C 483.323 1.95816 4.97554 0
M  V30 5211 C 484.623 3.71363 3.6727 0
M  V30 5212 H 486.317 2.31509 1.89853 0
M  V30 5213 H 483.863 1.11438 0.912005 0
M  V30 5214 H 485.816 1.16837 4.04879 0
M  V30 5215 H 484.54 0.208683 3.25933 0
M  V30 5216 H 483.199 2.30213 2.85303 0
M  V30 5217 H 482.847 0.964475 4.93667 0
M  V30 5218 H 482.547 2.69745 5.22026 0
M  V30 5219 H 484.071 1.95513 5.78452 0
M  V30 5220 H 485.485 3.72364 4.35911 0
M  V30 5221 H 483.882 4.44425 4.03245 0
M  V30 5222 H 484.952 4.04305 2.67704 0
M  V30 5223 N 486.295 -0.989507 1.22664 0
M  V30 5224 C 487.258 -2.06183 1.00106 0
M  V30 5225 C 488.258 -1.60765 -0.0337726 0
M  V30 5226 O 489.448 -1.72989 0.205072 0
M  V30 5227 C 486.58 -3.37021 0.51279 0
M  V30 5228 H 487.773 -2.27629 1.95256 0
M  V30 5229 H 485.326 -1.16158 1.0458 0
M  V30 5230 H 486.061 -3.21261 -0.442917 0
M  V30 5231 H 485.846 -3.71323 1.25942 0
M  V30 5232 H 487.336 -4.1591 0.375315 0
M  V30 5233 N 487.773 -1.03688 -1.18687 0
M  V30 5234 C 488.736 -0.629115 -2.20397 0
M  V30 5235 C 489.736 0.311495 -1.57754 0
M  V30 5236 O 490.926 0.0974107 -1.73927 0
M  V30 5237 C 488.058 0.0782231 -3.4081 0
M  V30 5238 H 489.251 -1.52915 -2.57987 0
M  V30 5239 H 486.804 -0.828988 -1.32505 0
M  V30 5240 H 487.539 0.992233 -3.08748 0
M  V30 5241 H 487.324 -0.597776 -3.87517 0
M  V30 5242 H 488.814 0.350156 -4.16129 0
M  V30 5243 N 489.251 1.34841 -0.815825 0
M  V30 5244 C 490.528 1.92908 -0.323416 0
M  V30 5245 C 490.908 1.74479 1.18828 0
M  V30 5246 O 490.256 1.11928 1.99209 0
M  V30 5247 C 490.466 3.40957 -0.744952 0
M  V30 5248 C 491.814 4.18107 -0.739716 0
M  V30 5249 O 492.838 3.49511 -0.68708 0
M  V30 5250 O 491.697 5.40517 -0.806456 0
M  V30 5251 H 488.791 0.822436 -0.0867646 0
M  V30 5252 H 491.337 1.4386 -0.90014 0
M  V30 5253 H 490.109 3.4814 -1.78646 0
M  V30 5254 H 489.732 3.97341 -0.143535 0
M  V30 5255 N 490.729 0.570148 1.46925 0
M  V30 5256 C 491.976 0.0509529 2.02436 0
M  V30 5257 C 492.304 -1.30405 1.44308 0
M  V30 5258 O 491.559 -1.86493 0.593198 0
M  V30 5259 C 491.858 -0.0780336 3.57315 0
M  V30 5260 C 491.524 1.20775 4.34424 0
M  V30 5261 C 490.186 1.56004 4.5521 0
M  V30 5262 C 492.538 2.0592 4.78797 0
M  V30 5263 C 489.866 2.76201 5.17619 0
M  V30 5264 C 492.218 3.25332 5.42533 0
M  V30 5265 C 490.882 3.60859 5.61549 0
M  V30 5266 H 490.152 0.018645 0.740765 0
M  V30 5267 H 492.799 0.744262 1.76445 0
M  V30 5268 H 491.104 -0.854394 3.82371 0
M  V30 5269 H 492.801 -0.495312 3.97929 0
M  V30 5270 H 489.391 0.923469 4.18533 0
M  V30 5271 H 493.575 1.80008 4.62505 0
M  V30 5272 H 488.831 3.0388 5.30535 0
M  V30 5273 H 493.005 3.91586 5.75876 0
M  V30 5274 H 490.632 4.54088 6.09678 0
M  V30 5275 N 492.207 -1.54576 0.307264 0
M  V30 5276 C 493.453 -2.0056 -0.300612 0
M  V30 5277 C 493.786 -1.1953 -1.53057 0
M  V30 5278 O 493.061 -0.27337 -1.92569 0
M  V30 5279 C 493.344 -3.54167 -0.650987 0
M  V30 5280 C 493.197 -4.45933 0.588539 0
M  V30 5281 C 494.516 -4.14645 -1.47506 0
M  V30 5282 H 491.635 -0.729075 -0.107788 0
M  V30 5283 H 494.277 -1.85286 0.420606 0
M  V30 5284 H 492.427 -3.67313 -1.26544 0
M  V30 5285 H 494.099 -4.44683 1.22697 0
M  V30 5286 H 492.342 -4.16274 1.22058 0
M  V30 5287 H 493.013 -5.51189 0.299153 0
M  V30 5288 H 495.489 -4.04973 -0.955821 0
M  V30 5289 H 494.365 -5.22269 -1.68899 0
M  V30 5290 H 494.626 -3.66921 -2.4662 0
M  V30 5291 N 493.685 -0.035106 -1.57561 0
M  V30 5292 C 494.595 0.960295 -2.14046 0
M  V30 5293 C 495.611 1.3529 -1.0942 0
M  V30 5294 O 496.787 1.43309 -1.41508 0
M  V30 5295 C 493.852 2.22214 -2.66124 0
M  V30 5296 C 492.913 1.8894 -3.85487 0
M  V30 5297 C 492.146 3.09109 -4.35072 0
M  V30 5298 O 492.369 4.21963 -3.83802 0
M  V30 5299 O 491.303 2.91058 -5.26848 0
M  V30 5300 H 495.129 0.509983 -2.99387 0
M  V30 5301 H 492.714 0.185853 -1.48239 0
M  V30 5302 H 494.596 2.96279 -2.99661 0
M  V30 5303 H 493.271 2.66414 -1.83862 0
M  V30 5304 H 492.178 1.12241 -3.56865 0
M  V30 5305 H 493.511 1.49551 -4.6893 0
M  V30 5306 N 495.163 1.55791 0.238111 0
M  V30 5307 C 496.388 1.8244 0.986432 0
M  V30 5308 C 496.813 0.613314 1.7782 0
M  V30 5309 O 496.171 -0.437767 1.75935 0
M  V30 5310 C 496.219 3.06917 1.893 0
M  V30 5311 O 495.323 2.84449 2.98601 0
M  V30 5312 H 494.664 0.601975 0.280218 0
M  V30 5313 H 497.194 2.02987 0.256437 0
M  V30 5314 H 497.204 3.36583 2.30598 0
M  V30 5315 H 495.879 3.947 1.31091 0
M  V30 5316 H 494.456 2.65972 2.61368 0
M  V30 5317 N 496.642 -0.504142 1.49319 0
M  V30 5318 C 497.589 -1.60603 1.65756 0
M  V30 5319 C 498.559 -1.58425 0.499082 0
M  V30 5320 O 499.744 -1.76459 0.725728 0
M  V30 5321 C 496.884 -2.98764 1.72726 0
M  V30 5322 C 495.997 -3.10982 2.99857 0
M  V30 5323 C 495.132 -4.39857 2.97824 0
M  V30 5324 C 494.171 -4.45697 4.19548 0
M  V30 5325 N 493.308 -5.65995 4.15444 0
M  V30 5326 H 498.148 -1.45895 2.59843 0
M  V30 5327 H 495.685 -0.709891 1.28837 0
M  V30 5328 H 497.643 -3.78839 1.74747 0
M  V30 5329 H 496.273 -3.12183 0.821075 0
M  V30 5330 H 495.325 -2.23991 3.07461 0
M  V30 5331 H 496.637 -3.11157 3.89849 0
M  V30 5332 H 495.791 -5.2825 2.98391 0
M  V30 5333 H 494.53 -4.42242 2.05604 0
M  V30 5334 H 493.535 -3.55707 4.19229 0
M  V30 5335 H 494.76 -4.4503 5.12957 0
M  V30 5336 H 492.706 -5.69229 3.26059 0
M  V30 5337 H 492.623 -5.67773 4.99169 0
M  V30 5338 H 493.891 -6.56604 4.20109 0
M  V30 5339 N 498.12 -1.38341 -0.754957 0
M  V30 5340 C 499.397 -1.24995 -1.50451 0
M  V30 5341 C 499.777 0.149244 -2.10572 0
M  V30 5342 O 499.125 1.15861 -1.96948 0
M  V30 5343 C 499.335 -2.35904 -2.57197 0
M  V30 5344 C 500.683 -2.74262 -3.24138 0
M  V30 5345 O 501.707 -2.35205 -2.67501 0
M  V30 5346 O 500.566 -3.4161 -4.26574 0
M  V30 5347 H 497.66 -0.48872 -0.667144 0
M  V30 5348 H 500.206 -1.50165 -0.790486 0
M  V30 5349 H 498.978 -3.2953 -2.11011 0
M  V30 5350 H 498.601 -2.12291 -3.36182 0
M  V30 5351 N 499.598 0.982988 -1.23187 0
M  V30 5352 C 500.844 1.72648 -1.06398 0
M  V30 5353 C 501.177 1.90066 0.398561 0
M  V30 5354 O 500.452 1.45105 1.29518 0
M  V30 5355 C 500.735 3.12627 -1.78707 0
M  V30 5356 C 500.588 3.02795 -3.32618 0
M  V30 5357 C 501.907 4.11997 -1.54747 0
M  V30 5358 H 499.026 0.626649 -0.387918 0
M  V30 5359 H 501.668 1.14455 -1.51658 0
M  V30 5360 H 499.818 3.62308 -1.40234 0
M  V30 5361 H 501.49 2.60659 -3.80598 0
M  V30 5362 H 499.733 2.39362 -3.61785 0
M  V30 5363 H 500.404 4.01893 -3.78399 0
M  V30 5364 H 502.88 3.71114 -1.88186 0
M  V30 5365 H 501.756 5.08037 -2.07821 0
M  V30 5366 H 502.017 4.39462 -0.482249 0
M  V30 5367 N 501.076 1.04316 1.18135 0
M  V30 5368 C 502.316 0.756937 1.89868 0
M  V30 5369 C 502.68 -0.702609 1.78682 0
M  V30 5370 O 503.881 -1.10255 2.45148 0
M  V30 5371 C 502.152 1.21327 3.36176 0
M  V30 5372 S 503.711 1.05307 4.25976 0
M  V30 5373 H 500.529 0.275143 0.655604 0
M  V30 5374 H 503.131 1.33597 1.42731 0
M  V30 5375 H 501.835 2.27086 3.41848 0
M  V30 5376 H 501.366 0.628137 3.88353 0
M  V30 5377 H 503.381 -0.0280093 4.96192 0
M  V30 5378 N 502.554 -1.34406 0.822964 0
M  V30 5379 C 503.501 -2.29519 0.24284 0
M  V30 5380 C 504.471 -1.5359 -0.632397 0
M  V30 5381 O 505.656 -1.8196 -0.57403 0
M  V30 5382 C 502.796 -3.40032 -0.58925 0
M  V30 5383 C 501.909 -4.30899 0.308236 0
M  V30 5384 C 501.044 -5.28515 -0.533425 0
M  V30 5385 C 500.083 -6.1102 0.363444 0
M  V30 5386 N 499.22 -7.00725 -0.439147 0
M  V30 5387 H 504.06 -2.78537 1.05929 0
M  V30 5388 H 501.597 -1.3707 0.533872 0
M  V30 5389 H 503.555 -4.0279 -1.087 0
M  V30 5390 H 502.185 -2.92248 -1.37081 0
M  V30 5391 H 501.237 -3.69002 0.924203 0
M  V30 5392 H 502.549 -4.88717 0.997862 0
M  V30 5393 H 501.703 -5.96725 -1.09565 0
M  V30 5394 H 500.442 -4.71235 -1.25656 0
M  V30 5395 H 499.447 -5.41743 0.937812 0
M  V30 5396 H 500.672 -6.70381 1.08469 0
M  V30 5397 H 498.618 -6.45913 -1.14595 0
M  V30 5398 H 498.535 -7.55756 0.19209 0
M  V30 5399 H 499.803 -7.73263 -0.984124 0
M  V30 5400 N 504.032 -0.577932 -1.46621 0
M  V30 5401 C 504.98 0.170882 -2.31971 0
M  V30 5402 C 505.974 0.889086 -1.44193 0
M  V30 5403 O 507.18 0.808017 -1.60845 0
M  V30 5404 H 503.555 0.0739763 -0.748353 0
M  V30 5405 H 505.526 -0.567856 -2.92947 0
M  V30 5406 C 504.275 1.17438 -3.27267 0
M  V30 5407 H 503.598 0.63116 -3.94787 0
M  V30 5408 H 505.038 1.66882 -3.89778 0
M  V30 5409 C 503.497 2.23292 -2.52274 0
M  V30 5410 O 504.027 3.30567 -2.28229 0
M  V30 5411 N 502.233 1.97772 -2.12919 0
M  V30 5412 H 501.78 1.10545 -2.32675 0
M  V30 5413 H 501.738 2.68809 -1.63062 0
M  V30 5414 N 505.51 1.54411 -0.315457 0
M  V30 5415 C 506.74 2.04536 0.291315 0
M  V30 5416 C 507.148 1.19162 1.4696 0
M  V30 5417 O 506.491 0.213199 1.82459 0
M  V30 5418 C 506.553 3.5056 0.796725 0
M  V30 5419 C 506.217 4.5627 -0.258178 0
M  V30 5420 C 507.214 5.08312 -1.09153 0
M  V30 5421 C 504.899 5.00672 -0.404036 0
M  V30 5422 C 506.893 6.03312 -2.05655 0
M  V30 5423 C 504.58 5.95488 -1.37248 0
M  V30 5424 C 505.578 6.46693 -2.19721 0
M  V30 5425 O 505.266 7.39648 -3.14921 0
M  V30 5426 H 504.998 0.672856 0.0651165 0
M  V30 5427 H 507.552 2.00244 -0.457308 0
M  V30 5428 H 505.782 3.52223 1.59612 0
M  V30 5429 H 507.471 3.83804 1.32096 0
M  V30 5430 H 508.237 4.74793 -0.98979 0
M  V30 5431 H 504.116 4.60436 0.22799 0
M  V30 5432 H 507.66 6.43203 -2.70067 0
M  V30 5433 H 503.557 6.28424 -1.47489 0
M  V30 5434 H 504.325 7.57496 -3.10067 0
M  V30 5435 N 506.988 0.0434614 1.5754 0
M  V30 5436 C 507.951 -0.918696 2.09982 0
M  V30 5437 C 508.951 -1.24488 1.01781 0
M  V30 5438 O 510.141 -1.18284 1.27885 0
M  V30 5439 C 507.273 -2.23093 2.57764 0
M  V30 5440 H 508.466 -0.464229 2.96285 0
M  V30 5441 H 506.019 -0.204818 1.54952 0
M  V30 5442 H 506.754 -2.73137 1.74832 0
M  V30 5443 H 506.539 -2.00724 3.36827 0
M  V30 5444 H 508.029 -2.92028 2.98512 0
M  V30 5445 N 508.466 -1.55915 -0.229846 0
M  V30 5446 C 509.376 -1.94891 -1.30593 0
M  V30 5447 C 510.392 -0.851604 -1.51736 0
M  V30 5448 O 511.568 -1.15447 -1.65027 0
M  V30 5449 C 508.633 -2.25052 -2.63728 0
M  V30 5450 C 507.694 -3.48306 -2.5096 0
M  V30 5451 C 506.927 -3.77019 -3.77747 0
M  V30 5452 O 507.15 -3.07534 -4.80395 0
M  V30 5453 O 506.084 -4.70523 -3.75356 0
M  V30 5454 H 509.91 -2.86581 -1.00525 0
M  V30 5455 H 507.495 -1.43017 -0.432025 0
M  V30 5456 H 509.377 -2.45682 -3.42372 0
M  V30 5457 H 508.052 -1.36538 -2.93495 0
M  V30 5458 H 506.959 -3.32964 -1.70546 0
M  V30 5459 H 508.292 -4.37177 -2.26136 0
M  V30 5460 N 509.944 0.496216 -1.49584 0
M  V30 5461 C 510.907 1.57952 -1.66084 0
M  V30 5462 C 511.907 1.51729 -0.53244 0
M  V30 5463 O 513.097 1.54796 -0.79899 0
M  V30 5464 C 510.229 2.97604 -1.66268 0
M  V30 5465 H 511.422 1.44649 -2.6271 0
M  V30 5466 H 508.975 0.7208 -1.38687 0
M  V30 5467 H 509.71 3.16378 -0.712432 0
M  V30 5468 H 509.495 3.03528 -2.4822 0
M  V30 5469 H 510.985 3.76301 -1.81073 0
M  V30 5470 N 511.423 1.38739 0.74761 0
M  V30 5471 C 512.37 1.36449 1.86146 0
M  V30 5472 C 513.34 0.226098 1.64554 0
M  V30 5473 O 514.525 0.41926 1.86137 0
M  V30 5474 C 511.665 1.2013 3.23516 0
M  V30 5475 C 510.778 2.43407 3.56899 0
M  V30 5476 C 509.913 2.19773 4.83605 0
M  V30 5477 C 508.952 3.3879 5.09792 0
M  V30 5478 N 508.089 3.14553 6.27695 0
M  V30 5479 H 512.929 2.3167 1.87438 0
M  V30 5480 H 510.466 1.15094 0.916063 0
M  V30 5481 H 512.424 1.08683 4.02795 0
M  V30 5482 H 511.054 0.285453 3.21535 0
M  V30 5483 H 510.106 2.65504 2.72418 0
M  V30 5484 H 511.418 3.32094 3.72176 0
M  V30 5485 H 510.572 2.05496 5.70838 0
M  V30 5486 H 509.311 1.28461 4.70478 0
M  V30 5487 H 508.316 3.53579 4.21025 0
M  V30 5488 H 509.541 4.30986 5.24812 0
M  V30 5489 H 507.487 2.25893 6.1588 0
M  V30 5490 H 507.404 3.96791 6.435 0
M  V30 5491 H 508.672 3.03943 7.17801 0
M  V30 5492 N 512.901 -0.976442 1.23707 0
M  V30 5493 C 514.178 -1.69296 0.979699 0
M  V30 5494 C 514.558 -2.0508 -0.500555 0
M  V30 5495 O 513.906 -1.74708 -1.47273 0
M  V30 5496 C 514.116 -2.93143 1.89389 0
M  V30 5497 C 515.464 -3.65572 2.15968 0
M  V30 5498 O 516.488 -3.03184 1.86971 0
M  V30 5499 O 515.347 -4.77859 2.65167 0
M  V30 5500 H 512.441 -0.739708 0.369812 0
M  V30 5501 H 514.987 -1.03131 1.34767 0
M  V30 5502 H 513.759 -2.63327 2.89439 0
M  V30 5503 H 513.382 -3.67044 1.52854 0
M  V30 5504 N 514.379 -1.04941 -1.1758 0
M  V30 5505 C 515.625 -0.759112 -1.88057 0
M  V30 5506 C 515.958 0.711918 -1.8068 0
M  V30 5507 O 515.233 1.52035 -1.21308 0
M  V30 5508 C 515.516 -1.237 -3.38187 0
M  V30 5509 C 515.369 -2.77078 -3.54327 0
M  V30 5510 C 516.688 -0.834014 -4.32125 0
M  V30 5511 H 513.807 -0.277237 -0.682868 0
M  V30 5512 H 516.449 -1.30296 -1.38286 0
M  V30 5513 H 514.599 -0.774337 -3.80705 0
M  V30 5514 H 516.271 -3.31449 -3.20842 0
M  V30 5515 H 514.514 -3.16477 -2.96689 0
M  V30 5516 H 515.185 -3.05577 -4.59703 0
M  V30 5517 H 517.661 -1.23228 -3.97434 0
M  V30 5518 H 516.537 -1.19603 -5.35711 0
M  V30 5519 H 516.798 0.262195 -4.41322 0
M  V30 5520 N 515.857 1.33968 -0.830081 0
M  V30 5521 C 517.104 1.98063 -0.421566 0
M  V30 5522 C 517.432 1.65787 1.0171 0
M  V30 5523 O 516.687 0.925348 1.72441 0
M  V30 5524 C 516.986 3.52679 -0.57898 0
M  V30 5525 C 516.652 4.04884 -1.98443 0
M  V30 5526 C 515.314 4.18852 -2.36888 0
M  V30 5527 C 517.666 4.32879 -2.90285 0
M  V30 5528 C 514.994 4.58145 -3.66497 0
M  V30 5529 C 517.346 4.7362 -4.19364 0
M  V30 5530 C 516.01 4.85794 -4.57778 0
M  V30 5531 H 515.28 0.724765 -0.154262 0
M  V30 5532 H 517.927 1.59792 -1.05541 0
M  V30 5533 H 516.232 3.91556 0.138219 0
M  V30 5534 H 517.929 4.00261 -0.243317 0
M  V30 5535 H 514.519 3.9448 -1.67581 0
M  V30 5536 H 518.703 4.21619 -2.61823 0
M  V30 5537 H 513.959 4.65762 -3.96075 0
M  V30 5538 H 518.133 4.9424 -4.90612 0
M  V30 5539 H 515.76 5.15998 -5.58256 0
M  V30 5540 N 517.335 0.585699 1.46312 0
M  V30 5541 C 518.265 -0.133556 2.33118 0
M  V30 5542 C 519.246 -0.880707 1.45525 0
M  V30 5543 O 520.431 -0.855579 1.74337 0
M  V30 5544 C 517.561 -1.14585 3.27853 0
M  V30 5545 C 516.515 -0.513341 4.2491 0
M  V30 5546 C 515.841 -1.63231 5.09175 0
M  V30 5547 C 517.141 0.551413 5.19381 0
M  V30 5548 H 518.835 0.59121 2.93505 0
M  V30 5549 H 516.381 0.285761 1.41136 0
M  V30 5550 H 518.334 -1.65741 3.87438 0
M  V30 5551 H 517.058 -1.90093 2.65579 0
M  V30 5552 H 515.717 -0.0228349 3.66593 0
M  V30 5553 H 515.365 -2.37713 4.43285 0
M  V30 5554 H 515.065 -1.21473 5.74907 0
M  V30 5555 H 516.589 -2.14658 5.71624 0
M  V30 5556 H 518.003 0.124804 5.73164 0
M  V30 5557 H 516.4 0.889486 5.93471 0
M  V30 5558 H 517.47 1.43655 4.63132 0
M  V30 5559 N 518.813 -1.54241 0.323641 0
M  V30 5560 C 520.061 -2.00174 -0.278359 0
M  V30 5561 C 520.382 -1.2134 -1.52648 0
M  V30 5562 O 519.652 -0.315244 -1.93347 0
M  V30 5563 H 518.232 -0.739463 -0.105845 0
M  V30 5564 H 520.894 -1.89864 0.440204 0
M  V30 5565 H 519.99 -3.07486 -0.5347 0
M  V30 5566 N 520.291 -0.0518155 -1.57515 0
M  V30 5567 C 521.224 0.957758 -2.07129 0
M  V30 5568 C 522.202 1.30355 -0.971927 0
M  V30 5569 O 523.386 1.41631 -1.2439 0
M  V30 5570 C 520.513 2.27157 -2.51232 0
M  V30 5571 C 519.559 2.07879 -3.72409 0
M  V30 5572 S 520.392 1.35656 -5.18033 0
M  V30 5573 C 521.548 2.68359 -5.65451 0
M  V30 5574 H 521.781 0.53552 -2.92437 0
M  V30 5575 H 519.314 0.160465 -1.53564 0
M  V30 5576 H 521.272 3.02676 -2.77304 0
M  V30 5577 H 519.933 2.66509 -1.66228 0
M  V30 5578 H 519.126 3.05061 -4.01191 0
M  V30 5579 H 518.728 1.40499 -3.46606 0
M  V30 5580 H 521.02 3.64526 -5.71076 0
M  V30 5581 H 521.963 2.44213 -6.64654 0
M  V30 5582 H 522.371 2.74647 -4.93183 0
M  V30 5583 N 521.769 1.56035 0.221574 0
M  V30 5584 C 523.016 1.79047 0.94597 0
M  V30 5585 C 523.344 0.62057 1.84334 0
M  V30 5586 O 522.599 -0.395053 1.91671 0
M  V30 5587 C 522.898 3.07813 1.8162 0
M  V30 5588 C 522.564 4.3797 1.07206 0
M  V30 5589 C 521.226 4.73334 0.866508 0
M  V30 5590 C 523.578 5.18326 0.546565 0
M  V30 5591 C 520.906 5.8657 0.123549 0
M  V30 5592 C 523.258 6.32335 -0.18305 0
M  V30 5593 C 521.922 6.66301 -0.399861 0
M  V30 5594 H 521.192 0.655178 0.346155 0
M  V30 5595 H 523.839 1.90299 0.214146 0
M  V30 5596 H 522.144 2.91682 2.61589 0
M  V30 5597 H 523.841 3.2282 2.37884 0
M  V30 5598 H 520.431 4.10202 1.24226 0
M  V30 5599 H 524.615 4.9144 0.692847 0
M  V30 5600 H 519.871 6.11376 -0.0546591 0
M  V30 5601 H 524.045 6.9383 -0.59775 0
M  V30 5602 H 521.672 7.53889 -0.977489 0
M  V30 5603 N 523.247 -0.488276 1.49845 0
M  V30 5604 C 524.177 -1.59675 1.70371 0
M  V30 5605 C 525.158 -1.60878 0.552473 0
M  V30 5606 O 526.343 -1.77417 0.78973 0
M  V30 5607 C 523.473 -2.98098 1.782 0
M  V30 5608 C 522.427 -3.11761 2.93239 0
M  V30 5609 C 521.753 -4.51661 2.86193 0
M  V30 5610 C 523.053 -2.90589 4.33999 0
M  V30 5611 H 524.747 -1.42752 2.63177 0
M  V30 5612 H 522.293 -0.685317 1.26647 0
M  V30 5613 H 524.246 -3.75555 1.91144 0
M  V30 5614 H 522.97 -3.16138 0.820018 0
M  V30 5615 H 521.629 -2.36732 2.79917 0
M  V30 5616 H 521.277 -4.66595 1.87877 0
M  V30 5617 H 520.977 -4.61742 3.63412 0
M  V30 5618 H 522.501 -5.31162 3.01163 0
M  V30 5619 H 523.915 -3.57807 4.47936 0
M  V30 5620 H 522.312 -3.1213 5.12538 0
M  V30 5621 H 523.382 -1.86595 4.4756 0
M  V30 5622 N 524.725 -1.39134 -0.740242 0
M  V30 5623 C 525.955 -1.39132 -1.52728 0
M  V30 5624 C 526.363 0.0173133 -1.89192 0
M  V30 5625 O 525.706 0.997715 -1.54244 0
M  V30 5626 C 525.768 -2.1952 -2.84695 0
M  V30 5627 C 525.432 -3.68203 -2.70695 0
M  V30 5628 C 526.429 -4.61401 -2.39593 0
M  V30 5629 C 524.114 -4.11724 -2.8773 0
M  V30 5630 C 526.108 -5.96102 -2.25701 0
M  V30 5631 C 523.795 -5.46503 -2.73456 0
M  V30 5632 C 524.793 -6.38506 -2.42486 0
M  V30 5633 O 524.481 -7.70803 -2.28295 0
M  V30 5634 H 524.213 -0.477263 -0.478744 0
M  V30 5635 H 526.767 -1.83504 -0.922799 0
M  V30 5636 H 524.997 -1.69888 -3.47383 0
M  V30 5637 H 526.686 -2.1176 -3.46284 0
M  V30 5638 H 527.452 -4.29079 -2.26088 0
M  V30 5639 H 523.331 -3.4045 -3.10829 0
M  V30 5640 H 526.875 -6.6788 -2.0145 0
M  V30 5641 H 522.772 -5.78417 -2.86538 0
M  V30 5642 H 523.54 -7.8147 -2.43405 0
M  V30 5643 N 526.204 0.969867 -1.24223 0
M  V30 5644 C 527.114 2.09806 -1.0497 0
M  V30 5645 C 528.13 1.73998 0.00886455 0
M  V30 5646 O 529.306 2.00513 -0.188848 0
M  V30 5647 C 526.371 3.40467 -0.654452 0
M  V30 5648 C 525.432 3.90236 -1.78926 0
M  V30 5649 C 524.665 5.14662 -1.41277 0
M  V30 5650 O 524.888 5.69602 -0.301632 0
M  V30 5651 O 523.822 5.58761 -2.23763 0
M  V30 5652 H 527.648 2.28942 -1.99548 0
M  V30 5653 H 525.233 1.08197 -1.03023 0
M  V30 5654 H 527.115 4.19039 -0.445452 0
M  V30 5655 H 525.79 3.22636 0.262216 0
M  V30 5656 H 524.697 3.12735 -2.05299 0
M  V30 5657 H 526.03 4.1254 -2.68462 0
M  V30 5658 N 527.682 1.05563 1.17022 0
M  V30 5659 C 528.912 0.787307 1.91011 0
M  V30 5660 C 529.32 -0.661256 1.77268 0
M  V30 5661 O 528.663 -1.46379 1.10991 0
M  V30 5662 C 528.725 1.09313 3.42478 0
M  V30 5663 C 528.389 2.53863 3.80004 0
M  V30 5664 C 529.386 3.52081 3.82538 0
M  V30 5665 C 527.071 2.88969 4.10855 0
M  V30 5666 C 529.065 4.83449 4.15399 0
M  V30 5667 C 526.752 4.2054 4.43384 0
M  V30 5668 C 527.75 5.17589 4.45635 0
M  V30 5669 O 527.438 6.46799 4.77395 0
M  V30 5670 H 527.17 0.285463 0.61277 0
M  V30 5671 H 529.724 1.41051 1.49311 0
M  V30 5672 H 527.954 0.412833 3.8449 0
M  V30 5673 H 529.643 0.810224 3.97731 0
M  V30 5674 H 530.409 3.26299 3.58823 0
M  V30 5675 H 526.288 2.1409 4.08272 0
M  V30 5676 H 529.832 5.59194 4.1707 0
M  V30 5677 H 525.729 4.46083 4.66563 0
M  V30 5678 H 526.497 6.51677 4.95237 0
M  V30 5679 N 529.16 -1.33526 0.837174 0
M  V30 5680 C 530.123 -2.27551 0.274421 0
M  V30 5681 C 531.123 -1.50886 -0.555881 0
M  V30 5682 O 532.313 -1.70227 -0.369918 0
M  V30 5683 C 529.445 -3.35332 -0.613605 0
M  V30 5684 H 530.638 -2.78837 1.10408 0
M  V30 5685 H 528.191 -1.439 0.610126 0
M  V30 5686 H 528.926 -2.89285 -1.46577 0
M  V30 5687 H 528.711 -3.92095 -0.0195341 0
M  V30 5688 H 530.201 -4.05433 -1.00068 0
M  V30 5689 N 530.638 -0.59345 -1.46 0
M  V30 5690 C 532.054 -0.255965 -1.57534 0
M  V30 5691 C 532.254 1.24167 -1.58697 0
M  V30 5692 O 531.31 2.02398 -1.50968 0
M  V30 5693 C 532.623 -0.91466 -2.86451 0
M  V30 5694 C 534.171 -0.889253 -3.00102 0
M  V30 5695 C 534.646 -1.52769 -4.3177 0
M  V30 5696 N 536.137 -1.49253 -4.38495 0
M  V30 5697 C 536.872 -1.9558 -5.39014 0
M  V30 5698 N 536.368 -2.49929 -6.46148 0
M  V30 5699 N 538.161 -1.86432 -5.30282 0
M  V30 5700 H 530.312 -1.56604 -1.43489 0
M  V30 5701 H 532.575 -0.655207 -0.685133 0
M  V30 5702 H 532.281 -1.96861 -2.91442 0
M  V30 5703 H 532.155 -0.429356 -3.74748 0
M  V30 5704 H 534.542 0.156111 -2.94687 0
M  V30 5705 H 534.623 -1.41268 -2.13253 0
M  V30 5706 H 534.267 -2.57231 -4.37944 0
M  V30 5707 H 534.197 -0.979398 -5.17412 0
M  V30 5708 H 536.688 -1.09536 -3.61677 0
M  V30 5709 H 537.001 -2.83109 -7.19075 0
M  V30 5710 H 535.346 -2.53961 -6.46938 0
M  V30 5711 H 538.537 -1.43722 -4.4549 0
M  V30 5712 H 538.71 -2.22852 -6.08474 0
M  V30 5713 N 532.116 1.54067 -0.331816 0
M  V30 5714 C 533.532 1.59587 0.0205388 0
M  V30 5715 C 533.732 1.34813 1.49759 0
M  V30 5716 O 532.788 1.13661 2.25471 0
M  V30 5717 C 534.101 2.97959 -0.405103 0
M  V30 5718 C 535.649 3.10964 -0.356454 0
M  V30 5719 C 536.124 4.51694 -0.757384 0
M  V30 5720 N 537.615 4.57709 -0.71111 0
M  V30 5721 C 538.35 5.64729 -0.993427 0
M  V30 5722 N 537.846 6.79652 -1.3433 0
M  V30 5723 N 539.639 5.54546 -0.918442 0
M  V30 5724 H 531.79 1.68426 -1.29407 0
M  V30 5725 H 534.053 0.78819 -0.526745 0
M  V30 5726 H 533.759 3.21115 -1.43451 0
M  V30 5727 H 533.633 3.76524 0.225692 0
M  V30 5728 H 536.02 2.87538 0.663763 0
M  V30 5729 H 536.101 2.34484 -1.02229 0
M  V30 5730 H 535.745 4.75853 -1.77555 0
M  V30 5731 H 535.675 5.26555 -0.0691444 0
M  V30 5732 H 538.166 3.75176 -0.452883 0
M  V30 5733 H 538.479 7.57221 -1.54388 0
M  V30 5734 H 536.824 6.81128 -1.38164 0
M  V30 5735 H 540.015 4.63641 -0.644536 0
M  V30 5736 H 540.188 6.37861 -1.14181 0
M  V30 5737 N 533.594 0.0601682 1.57485 0
M  V30 5738 C 534.544 -0.920969 2.08572 0
M  V30 5739 C 535.528 -1.26617 0.992827 0
M  V30 5740 O 536.72 -1.24708 1.25606 0
M  V30 5741 C 533.849 -2.19267 2.64153 0
M  V30 5742 C 532.935 -1.87447 3.80427 0
M  V30 5743 N 533.326 -1.26025 4.89848 0
M  V30 5744 C 531.624 -2.17265 3.89502 0
M  V30 5745 C 532.325 -1.12036 5.70809 0
M  V30 5746 N 531.301 -1.62624 5.18705 0
M  V30 5747 H 535.103 -0.441561 2.90564 0
M  V30 5748 H 532.617 -0.144043 1.6176 0
M  V30 5749 H 534.614 -2.90462 2.99061 0
M  V30 5750 H 533.274 -2.67806 1.83603 0
M  V30 5751 H 534.285 -0.931336 5.09457 0
M  V30 5752 H 530.962 -2.68262 3.19909 0
M  V30 5753 H 532.352 -0.642783 6.68818 0
M  V30 5754 N 535.072 -1.5615 -0.213296 0
M  V30 5755 C 536.483 -1.69645 -0.779582 0
M  V30 5756 C 536.834 -0.663615 -1.84636 0
M  V30 5757 O 535.959 0.183633 -2.15619 0
M  V30 5758 C 536.554 -3.07567 -1.42084 0
M  V30 5759 C 535.113 -3.22889 -1.93442 0
M  V30 5760 C 534.26 -2.65581 -0.797612 0
M  V30 5761 H 537.211 -1.58696 0.0114951 0
M  V30 5762 H 537.232 -3.03884 -2.28986 0
M  V30 5763 H 536.744 -3.82716 -0.644187 0
M  V30 5764 H 534.845 -2.52623 -2.73884 0
M  V30 5765 H 534.958 -4.30197 -2.10872 0
M  V30 5766 H 533.322 -2.24278 -1.20712 0
M  V30 5767 H 534.105 -3.43284 -0.033494 0
M  V30 5768 N 536.55 0.480323 -1.50102 0
M  V30 5769 C 537.827 1.24159 -1.51142 0
M  V30 5770 C 538.207 2.09605 -0.250818 0
M  V30 5771 O 537.555 2.15274 0.766118 0
M  V30 5772 C 537.765 2.08057 -2.80202 0
M  V30 5773 C 539.113 2.66556 -3.30504 0
M  V30 5774 O 540.137 2.18308 -2.81461 0
M  V30 5775 O 538.996 3.54442 -4.15973 0
M  V30 5776 H 536.09 0.562928 -0.605839 0
M  V30 5777 H 538.636 0.492899 -1.62384 0
M  V30 5778 H 537.408 1.45032 -3.6343 0
M  V30 5779 H 537.031 2.90079 -2.71919 0
M  V30 5780 N 538.028 1.39524 0.732853 0
M  V30 5781 C 539.258 1.3994 1.51988 0
M  V30 5782 C 539.666 -0.00727973 1.89199 0
M  V30 5783 O 539.009 -0.989521 1.54771 0
M  V30 5784 C 539.071 2.21026 2.83527 0
M  V30 5785 C 538.735 3.69633 2.68738 0
M  V30 5786 C 539.732 4.62665 2.37143 0
M  V30 5787 C 537.417 4.13244 2.85542 0
M  V30 5788 C 539.411 5.97291 2.22536 0
M  V30 5789 C 537.098 5.47945 2.70554 0
M  V30 5790 C 538.096 6.39783 2.39097 0
M  V30 5791 O 537.784 7.72002 2.24204 0
M  V30 5792 H 537.516 0.479795 0.476206 0
M  V30 5793 H 540.07 1.8399 0.913054 0
M  V30 5794 H 538.3 1.71728 3.46477 0
M  V30 5795 H 539.989 2.13594 3.45156 0
M  V30 5796 H 540.755 4.30272 2.2381 0
M  V30 5797 H 536.634 3.42094 3.09019 0
M  V30 5798 H 540.178 6.68939 1.97905 0
M  V30 5799 H 536.075 5.79928 2.83466 0
M  V30 5800 H 536.843 7.8275 2.39258 0
M  V30 5801 N 539.506 -0.963266 1.24736 0
M  V30 5802 C 540.731 -1.74699 1.11781 0
M  V30 5803 C 541.156 -1.85267 -0.325258 0
M  V30 5804 O 540.514 -1.32681 -1.23553 0
M  V30 5805 C 540.562 -3.14322 1.76731 0
M  V30 5806 O 539.666 -3.99043 1.04109 0
M  V30 5807 H 539.007 -0.53684 0.390767 0
M  V30 5808 H 541.537 -1.20801 1.65131 0
M  V30 5809 H 541.547 -3.64824 1.82668 0
M  V30 5810 H 540.222 -3.05946 2.81726 0
M  V30 5811 H 538.799 -3.5752 1.05991 0
M  V30 5812 N 540.985 -1.06182 -1.16461 0
M  V30 5813 C 542.231 -0.779015 -1.87241 0
M  V30 5814 C 542.564 0.692715 -1.81425 0
M  V30 5815 O 541.839 1.5074 -1.22913 0
M  V30 5816 C 542.122 -1.2728 -3.36856 0
M  V30 5817 C 541.975 -2.80821 -3.51368 0
M  V30 5818 C 543.294 -0.879799 -4.31216 0
M  V30 5819 H 540.413 -0.284464 -0.679889 0
M  V30 5820 H 543.055 -1.31755 -1.36896 0
M  V30 5821 H 541.205 -0.814673 -3.79862 0
M  V30 5822 H 542.877 -3.34833 -3.17308 0
M  V30 5823 H 541.12 -3.19606 -2.93316 0
M  V30 5824 H 541.791 -3.10435 -4.56436 0
M  V30 5825 H 544.267 -1.27436 -3.96105 0
M  V30 5826 H 543.143 -1.25278 -5.34412 0
M  V30 5827 H 543.404 0.215372 -4.41575 0
M  V30 5828 N 542.463 1.3308 -0.844243 0
M  V30 5829 C 543.709 1.97898 -0.443206 0
M  V30 5830 C 544.042 1.66699 0.99625 0
M  V30 5831 O 543.317 0.949704 1.69738 0
M  V30 5832 C 543.6 3.53801 -0.670606 0
M  V30 5833 C 543.453 3.94667 -2.15772 0
M  V30 5834 C 544.772 4.39936 -0.120226 0
M  V30 5835 H 541.891 0.718861 -0.162504 0
M  V30 5836 H 544.533 1.57633 -1.06075 0
M  V30 5837 H 542.683 3.88229 -0.14496 0
M  V30 5838 H 544.355 3.70469 -2.74865 0
M  V30 5839 H 542.598 3.44203 -2.6402 0
M  V30 5840 H 543.269 5.03275 -2.26757 0
M  V30 5841 H 545.745 4.12183 -0.5696 0
M  V30 5842 H 544.621 5.4803 -0.308984 0
M  V30 5843 H 544.882 4.31184 0.976347 0
M  V30 5844 N 543.941 0.601185 1.45683 0
M  V30 5845 C 544.871 -0.108824 2.33246 0
M  V30 5846 C 545.852 -0.865223 1.46451 0
M  V30 5847 O 547.037 -0.83704 1.75235 0
M  V30 5848 C 544.167 -1.11101 3.2905 0
M  V30 5849 C 543.121 -0.468244 4.25431 0
M  V30 5850 C 542.447 -1.57822 5.10878 0
M  V30 5851 C 543.747 0.606469 5.18767 0
M  V30 5852 H 545.441 0.622306 2.92861 0
M  V30 5853 H 542.987 0.300714 1.40825 0
M  V30 5854 H 544.94 -1.61622 3.89174 0
M  V30 5855 H 543.664 -1.87265 2.67581 0
M  V30 5856 H 542.323 0.0160484 3.66596 0
M  V30 5857 H 541.971 -2.32998 4.45781 0
M  V30 5858 H 541.671 -1.15369 5.76163 0
M  V30 5859 H 543.195 -2.08583 5.73869 0
M  V30 5860 H 544.609 0.185589 5.73 0
M  V30 5861 H 543.006 0.952381 5.92494 0
M  V30 5862 H 544.076 1.48559 4.61582 0
M  V30 5863 N 545.419 -1.53889 0.339982 0
M  V30 5864 C 546.349 -2.27843 -0.510856 0
M  V30 5865 C 547.33 -1.29267 -1.10563 0
M  V30 5866 O 548.515 -1.58104 -1.12768 0
M  V30 5867 C 545.645 -3.04857 -1.66372 0
M  V30 5868 C 544.599 -4.10907 -1.19746 0
M  V30 5869 C 543.925 -4.75855 -2.43857 0
M  V30 5870 C 545.225 -5.21435 -0.300501 0
M  V30 5871 H 546.919 -2.99212 0.106067 0
M  V30 5872 H 544.465 -1.43904 0.0524533 0
M  V30 5873 H 546.418 -3.5533 -2.26537 0
M  V30 5874 H 545.142 -2.31133 -2.30749 0
M  V30 5875 H 543.801 -3.61342 -0.618654 0
M  V30 5876 H 543.449 -3.9873 -3.06633 0
M  V30 5877 H 543.149 -5.47502 -2.13343 0
M  V30 5878 H 544.673 -5.2911 -3.04754 0
M  V30 5879 H 546.087 -5.67565 -0.80889 0
M  V30 5880 H 544.484 -6.00036 -0.0874076 0
M  V30 5881 H 545.554 -4.80328 0.664321 0
M  V30 5882 N 546.897 -0.0685191 -1.57451 0
M  V30 5883 C 547.827 0.89747 -2.15564 0
M  V30 5884 C 548.808 1.31266 -1.08181 0
M  V30 5885 O 549.993 1.38429 -1.36202 0
M  V30 5886 C 547.123 2.16623 -2.71463 0
M  V30 5887 C 546.077 1.89054 -3.83982 0
M  V30 5888 C 545.403 3.22532 -4.26471 0
M  V30 5889 C 546.703 1.1984 -5.08366 0
M  V30 5890 H 548.397 0.413373 -2.96533 0
M  V30 5891 H 545.943 0.197391 -1.42641 0
M  V30 5892 H 547.896 2.84614 -3.10761 0
M  V30 5893 H 546.62 2.67269 -1.8771 0
M  V30 5894 H 545.279 1.23469 -3.45183 0
M  V30 5895 H 544.927 3.71013 -3.39644 0
M  V30 5896 H 544.627 3.04879 -5.02317 0
M  V30 5897 H 546.151 3.91727 -4.68383 0
M  V30 5898 H 547.565 1.77896 -5.45001 0
M  V30 5899 H 545.962 1.12456 -5.89469 0
M  V30 5900 H 547.032 0.176996 -4.84577 0
M  V30 5901 N 548.375 1.56261 0.205012 0
M  V30 5902 C 549.791 1.49623 0.555433 0
M  V30 5903 C 549.991 0.766719 1.86343 0
M  V30 5904 O 549.047 0.313158 2.50551 0
M  V30 5905 C 550.36 2.94253 0.619347 0
M  V30 5906 C 551.908 3.04868 0.708855 0
M  V30 5907 C 552.383 4.50888 0.803969 0
M  V30 5908 N 553.874 4.54999 0.867758 0
M  V30 5909 C 554.609 5.65284 0.96135 0
M  V30 5910 N 554.105 6.85282 1.01786 0
M  V30 5911 N 555.898 5.53174 0.997771 0
M  V30 5912 H 548.049 2.0211 -0.653094 0
M  V30 5913 H 550.312 0.919333 -0.231366 0
M  V30 5914 H 550.018 3.50643 -0.272458 0
M  V30 5915 H 549.892 3.47063 1.47741 0
M  V30 5916 H 552.279 2.48532 1.5911 0
M  V30 5917 H 552.36 2.55199 -0.175205 0
M  V30 5918 H 552.004 5.07846 -0.0738798 0
M  V30 5919 H 551.934 4.98279 1.70369 0
M  V30 5920 H 554.425 3.68588 0.833735 0
M  V30 5921 H 554.738 7.65081 1.08951 0
M  V30 5922 H 553.083 6.8796 0.986706 0
M  V30 5923 H 556.274 4.5835 0.950392 0
M  V30 5924 H 556.447 6.39151 1.06725 0
M  V30 5925 N 549.853 -0.472356 1.50355 0
M  V30 5926 C 550.783 -1.57859 1.72055 0
M  V30 5927 C 551.764 -1.60283 0.569505 0
M  V30 5928 O 552.949 -1.7657 0.808503 0
M  V30 5929 C 550.079 -2.96191 1.81351 0
M  V30 5930 C 549.033 -3.08633 2.96529 0
M  V30 5931 C 548.359 -4.486 2.90968 0
M  V30 5932 C 549.659 -2.85969 4.37057 0
M  V30 5933 H 551.353 -1.39953 2.64676 0
M  V30 5934 H 548.899 -0.671846 1.27367 0
M  V30 5935 H 550.852 -3.73507 1.95117 0
M  V30 5936 H 549.576 -3.15251 0.853502 0
M  V30 5937 H 548.235 -2.33749 2.82413 0
M  V30 5938 H 547.883 -4.64577 1.92815 0
M  V30 5939 H 547.583 -4.57861 3.68289 0
M  V30 5940 H 549.107 -5.27938 3.0678 0
M  V30 5941 H 550.521 -3.53036 4.51706 0
M  V30 5942 H 548.918 -3.06677 5.15819 0
M  V30 5943 H 549.988 -1.81838 4.49514 0
M  V30 5944 N 551.331 -1.39911 -0.725443 0
M  V30 5945 C 552.294 -1.39156 -1.82121 0
M  V30 5946 C 553.294 -0.287018 -1.58218 0
M  V30 5947 O 554.484 -0.545421 -1.65441 0
M  V30 5948 C 551.616 -1.1736 -3.20062 0
M  V30 5949 H 552.809 -2.36672 -1.84191 0
M  V30 5950 H 550.362 -1.25615 -0.930079 0
M  V30 5951 H 551.097 -0.205648 -3.23647 0
M  V30 5952 H 550.882 -1.97358 -3.3881 0
M  V30 5953 H 552.372 -1.19596 -4.00108 0
M  V30 5954 N 552.809 0.956637 -1.25245 0
M  V30 5955 C 553.756 2.053 -1.05454 0
M  V30 5956 C 554.726 1.66062 0.0356889 0
M  V30 5957 O 555.911 1.90415 -0.121099 0
M  V30 5958 C 553.051 3.38391 -0.677191 0
M  V30 5959 C 552.164 3.90758 -1.84206 0
M  V30 5960 C 551.299 5.12165 -1.40926 0
M  V30 5961 C 550.338 5.56757 -2.54338 0
M  V30 5962 N 549.475 6.69376 -2.11848 0
M  V30 5963 H 554.315 2.21562 -1.99284 0
M  V30 5964 H 551.852 1.08578 -0.992434 0
M  V30 5965 H 553.81 4.1488 -0.43938 0
M  V30 5966 H 552.44 3.22021 0.224127 0
M  V30 5967 H 551.492 3.10808 -2.19323 0
M  V30 5968 H 552.804 4.19802 -2.69383 0
M  V30 5969 H 551.958 5.96065 -1.13098 0
M  V30 5970 H 550.697 4.84832 -0.528175 0
M  V30 5971 H 549.702 4.71423 -2.82913 0
M  V30 5972 H 550.927 5.861 -3.43022 0
M  V30 5973 H 548.873 6.43756 -1.26153 0
M  V30 5974 H 548.79 6.97927 -2.90574 0
M  V30 5975 H 550.058 7.5669 -1.87191 0
M  V30 5976 N 554.287 1.06798 1.15896 0
M  V30 5977 C 555.515 0.808694 1.90441 0
M  V30 5978 C 555.93 -0.637506 1.77711 0
M  V30 5979 O 555.287 -1.43684 1.12522 0
M  V30 5980 C 555.338 1.20068 3.40978 0
M  V30 5981 O 555.059 2.59013 3.53333 0
M  V30 5982 C 556.56 0.96987 4.3256 0
M  V30 5983 H 553.78 0.292809 0.603742 0
M  V30 5984 H 556.324 1.42296 1.46874 0
M  V30 5985 H 554.479 0.630842 3.82229 0
M  V30 5986 H 554.893 2.7485 4.46719 0
M  V30 5987 H 556.367 1.29371 5.36626 0
M  V30 5988 H 556.844 -0.0941209 4.39099 0
M  V30 5989 H 557.45 1.52433 3.97044 0
M  V30 5990 N 555.766 -1.3263 0.851289 0
M  V30 5991 C 556.996 -2.01271 0.466222 0
M  V30 5992 C 557.404 -1.64156 -0.940714 0
M  V30 5993 O 556.747 -0.857109 -1.62479 0
M  V30 5994 C 556.809 -3.55695 0.521672 0
M  V30 5995 C 556.473 -4.16227 1.88691 0
M  V30 5996 C 557.47 -4.34699 2.85189 0
M  V30 5997 C 555.155 -4.52377 2.18313 0
M  V30 5998 C 557.149 -4.88484 4.09465 0
M  V30 5999 C 554.836 -5.05868 3.42843 0
M  V30 6000 C 555.834 -5.23869 4.38235 0
M  V30 6001 O 555.522 -5.76218 5.6056 0
M  V30 6002 H 555.254 -0.651034 0.18202 0
M  V30 6003 H 557.808 -1.7026 1.14894 0
M  V30 6004 H 556.038 -3.86086 -0.217888 0
M  V30 6005 H 557.727 -4.05613 0.152682 0
M  V30 6006 H 558.493 -4.07107 2.63607 0
M  V30 6007 H 554.372 -4.37652 1.44851 0
M  V30 6008 H 557.916 -5.02451 4.83931 0
M  V30 6009 H 553.813 -5.32891 3.64277 0
M  V30 6010 H 554.581 -5.94616 5.62471 0
M  V30 6011 N 557.244 -0.608902 -1.45362 0
M  V30 6012 C 558.154 0.110969 -2.34337 0
M  V30 6013 C 559.17 0.859007 -1.51318 0
M  V30 6014 O 560.346 0.816296 -1.84116 0
M  V30 6015 C 557.411 1.09494 -3.28956 0
M  V30 6016 C 556.472 0.348718 -4.27881 0
M  V30 6017 C 555.705 1.28582 -5.17979 0
M  V30 6018 O 555.928 2.52369 -5.11533 0
M  V30 6019 O 554.862 0.782172 -5.96796 0
M  V30 6020 H 558.688 -0.620258 -2.97299 0
M  V30 6021 H 556.273 -0.36916 -1.44767 0
M  V30 6022 H 558.155 1.66163 -3.87257 0
M  V30 6023 H 556.83 1.80717 -2.68557 0
M  V30 6024 H 555.737 -0.260465 -3.73192 0
M  V30 6025 H 557.07 -0.323049 -4.91139 0
M  V30 6026 N 558.722 1.53707 -0.348139 0
M  V30 6027 C 559.95 2.05406 0.248224 0
M  V30 6028 C 560.365 1.22282 1.43849 0
M  V30 6029 O 559.722 0.259244 1.80649 0
M  V30 6030 C 559.773 3.55446 0.658793 0
M  V30 6031 O 559.494 4.35417 -0.484149 0
M  V30 6032 C 560.995 4.23335 1.31539 0
M  V30 6033 H 558.215 0.669344 0.0471075 0
M  V30 6034 H 560.759 1.98257 -0.501456 0
M  V30 6035 H 558.914 3.62803 1.35841 0
M  V30 6036 H 559.328 5.24268 -0.155949 0
M  V30 6037 H 560.802 5.29692 1.55338 0
M  V30 6038 H 561.279 3.75967 2.27036 0
M  V30 6039 H 561.885 4.20184 0.657683 0
M  V30 6040 N 560.2 0.0768682 1.57412 0
M  V30 6041 C 561.428 -0.59997 1.9801 0
M  V30 6042 C 561.843 -1.62842 0.955408 0
M  V30 6043 O 561.2 -1.8241 -0.057314 0
M  V30 6044 C 561.251 -1.26401 3.38681 0
M  V30 6045 O 560.972 -0.276723 4.37225 0
M  V30 6046 C 562.473 -2.0282 3.94182 0
M  V30 6047 H 559.693 -0.162239 0.651091 0
M  V30 6048 H 562.237 0.150771 2.03943 0
M  V30 6049 H 560.392 -1.96581 3.33819 0
M  V30 6050 H 560.806 -0.753744 5.19056 0
M  V30 6051 H 562.28 -2.44667 4.94815 0
M  V30 6052 H 562.757 -2.88678 3.31001 0
M  V30 6053 H 563.363 -1.37496 4.02461 0
M  V30 6054 N 561.678 -1.56367 -0.196722 0
M  V30 6055 C 562.608 -1.97442 -1.24655 0
M  V30 6056 C 563.589 -0.846147 -1.47561 0
M  V30 6057 O 564.774 -1.11035 -1.59326 0
M  V30 6058 C 561.904 -2.31253 -2.59112 0
M  V30 6059 C 560.858 -3.46804 -2.50821 0
M  V30 6060 C 560.184 -3.66286 -3.89536 0
M  V30 6061 C 561.484 -4.8104 -2.03465 0
M  V30 6062 H 563.178 -2.85388 -0.905216 0
M  V30 6063 H 560.724 -1.37304 -0.434002 0
M  V30 6064 H 562.677 -2.58583 -3.32736 0
M  V30 6065 H 561.401 -1.40188 -2.94983 0
M  V30 6066 H 560.06 -3.19563 -1.79653 0
M  V30 6067 H 559.708 -2.72555 -4.22756 0
M  V30 6068 H 559.408 -4.4402 -3.84864 0
M  V30 6069 H 560.932 -3.9599 -4.64784 0
M  V30 6070 H 562.346 -5.07411 -2.66846 0
M  V30 6071 H 560.743 -5.62232 -2.09798 0
M  V30 6072 H 561.813 -4.74732 -0.98781 0
M  V30 6073 N 563.156 0.464375 -1.50603 0
M  V30 6074 C 564.066 1.58723 -1.72754 0
M  V30 6075 C 565.082 1.62925 -0.610844 0
M  V30 6076 O 566.258 1.8067 -0.889963 0
M  V30 6077 C 563.323 2.94897 -1.82309 0
M  V30 6078 C 562.384 3.0103 -3.06071 0
M  V30 6079 C 561.617 4.30708 -3.1516 0
M  V30 6080 O 561.84 5.2159 -2.30868 0
M  V30 6081 O 560.774 4.42571 -4.0794 0
M  V30 6082 H 564.6 1.42954 -2.67951 0
M  V30 6083 H 562.185 0.644579 -1.3478 0
M  V30 6084 H 564.067 3.75764 -1.90735 0
M  V30 6085 H 562.742 3.10851 -0.902967 0
M  V30 6086 H 561.649 2.19217 -3.03142 0
M  V30 6087 H 562.982 2.90014 -3.97684 0
M  V30 6088 N 564.634 1.40294 0.718013 0
M  V30 6089 C 565.581 1.40367 1.8321 0
M  V30 6090 C 566.551 0.260952 1.64037 0
M  V30 6091 O 567.736 0.458648 1.85205 0
M  V30 6092 C 564.876 1.26965 3.20895 0
M  V30 6093 C 563.989 2.50922 3.51656 0
M  V30 6094 C 563.124 2.29981 4.78834 0
M  V30 6095 C 562.163 3.49527 5.02491 0
M  V30 6096 N 561.3 3.27796 6.20882 0
M  V30 6097 H 566.14 2.35593 1.82482 0
M  V30 6098 H 563.677 1.17012 0.891444 0
M  V30 6099 H 565.635 1.17202 4.00399 0
M  V30 6100 H 564.265 0.353591 3.20858 0
M  V30 6101 H 563.317 2.71223 2.66725 0
M  V30 6102 H 564.629 3.39913 3.65048 0
M  V30 6103 H 563.783 2.17558 5.66351 0
M  V30 6104 H 562.522 1.38411 4.67647 0
M  V30 6105 H 561.527 3.6243 4.1343 0
M  V30 6106 H 562.752 4.42021 5.15553 0
M  V30 6107 H 560.698 2.38906 6.1095 0
M  V30 6108 H 560.615 4.10351 6.34939 0
M  V30 6109 H 561.883 3.19101 7.11193 0
M  V30 6110 N 566.112 -0.949982 1.2575 0
M  V30 6111 C 567.352 -1.70994 1.11984 0
M  V30 6112 C 567.716 -1.89095 -0.332746 0
M  V30 6113 O 568.917 -2.62192 -0.592331 0
M  V30 6114 C 567.188 -3.05286 1.85837 0
M  V30 6115 S 568.747 -3.96477 1.88019 0
M  V30 6116 H 565.565 -0.587689 0.400178 0
M  V30 6117 H 568.167 -1.13271 1.59342 0
M  V30 6118 H 566.871 -2.89785 2.90608 0
M  V30 6119 H 566.402 -3.68069 1.38885 0
M  V30 6120 H 568.417 -4.86814 0.96057 0
M  V30 6121 N 567.59 -1.07411 -1.15328 0
M  V30 6122 C 568.83 -0.807011 -1.87794 0
M  V30 6123 C 569.194 0.654987 -1.80482 0
M  V30 6124 O 570.395 1.03716 -2.47985 0
M  V30 6125 C 568.666 -1.30198 -3.32841 0
M  V30 6126 S 570.225 -1.16564 -4.23034 0
M  V30 6127 H 567.043 -0.292429 -0.648079 0
M  V30 6128 H 569.645 -1.37334 -1.39139 0
M  V30 6129 H 568.349 -2.3607 -3.35707 0
M  V30 6130 H 567.88 -0.730881 -3.86551 0
M  V30 6131 H 569.895 -0.103557 -4.96092 0
M  V30 6132 N 569.068 1.32177 -0.85831 0
M  V30 6133 C 570.031 2.27086 -0.310588 0
M  V30 6134 C 571.031 1.51751 0.531806 0
M  V30 6135 O 572.221 1.70794 0.34279 0
M  V30 6136 C 569.353 3.36266 0.560179 0
M  V30 6137 H 570.546 2.77045 -1.1483 0
M  V30 6138 H 568.099 1.42911 -0.632942 0
M  V30 6139 H 568.834 2.9158 1.41956 0
M  V30 6140 H 568.619 3.92077 -0.0428473 0
M  V30 6141 H 570.109 4.06974 0.936056 0
M  V30 6142 N 570.547 0.616602 1.45037 0
M  V30 6143 C 571.51 -0.0871112 2.29034 0
M  V30 6144 C 572.51 -0.786414 1.40258 0
M  V30 6145 O 573.7 -0.633207 1.62284 0
M  V30 6146 C 570.832 -1.13369 3.21497 0
M  V30 6147 H 572.025 0.651497 2.92738 0
M  V30 6148 H 569.578 0.376058 1.51709 0
M  V30 6149 H 570.313 -1.90277 2.62612 0
M  V30 6150 H 570.098 -0.636358 3.86902 0
M  V30 6151 H 571.588 -1.62627 3.84633 0
M  V30 6152 N 572.025 -1.5352 0.356285 0
M  V30 6153 C 572.988 -2.24071 -0.482182 0
M  V30 6154 C 573.988 -1.24531 -1.01729 0
M  V30 6155 O 575.178 -1.48876 -0.904513 0
M  V30 6156 C 572.31 -2.97025 -1.67299 0
M  V30 6157 H 573.503 -2.99596 0.135031 0
M  V30 6158 H 571.056 -1.55928 0.107825 0
M  V30 6159 H 571.791 -2.25719 -2.32855 0
M  V30 6160 H 571.576 -3.7005 -1.29636 0
M  V30 6161 H 573.066 -3.50683 -2.26741 0
M  V30 6162 N 573.503 -0.0852151 -1.57369 0
M  V30 6163 C 574.78 0.622534 -1.85429 0
M  V30 6164 C 575.16 1.86962 -0.980229 0
M  V30 6165 O 574.508 2.28445 -0.0500219 0
M  V30 6166 C 574.718 0.947374 -3.35896 0
M  V30 6167 C 576.066 1.31509 -4.03721 0
M  V30 6168 O 577.09 1.03869 -3.40719 0
M  V30 6169 O 575.949 1.83231 -5.14868 0
M  V30 6170 H 573.043 0.310513 -0.766492 0
M  V30 6171 H 575.589 -0.117164 -1.69295 0
M  V30 6172 H 574.361 0.0622264 -3.91251 0
M  V30 6173 H 573.984 1.74338 -3.5734 0
M  V30 6174 N 574.981 1.5647 0.188427 0
M  V30 6175 C 576.392 1.70864 0.752494 0
M  V30 6176 C 576.743 0.692905 1.83557 0
M  V30 6177 O 575.868 -0.149307 2.15884 0
M  V30 6178 C 576.463 3.09789 1.37173 0
M  V30 6179 C 575.022 3.25925 1.88281 0
M  V30 6180 C 574.169 2.66817 0.755259 0
M  V30 6181 H 577.12 1.58657 -0.0367408 0
M  V30 6182 H 577.141 3.07489 2.24122 0
M  V30 6183 H 576.653 3.83693 0.583219 0
M  V30 6184 H 574.754 2.56948 2.6983 0
M  V30 6185 H 574.867 4.33498 2.04001 0
M  V30 6186 H 573.231 2.2617 1.17128 0
M  V30 6187 H 574.014 3.43294 -0.0211237 0
M  V30 6188 N 576.459 -0.456382 1.50847 0
M  V30 6189 C 577.409 -1.55045 1.67168 0
M  V30 6190 C 578.393 -1.52061 0.525958 0
M  V30 6191 O 579.585 -1.58836 0.781036 0
M  V30 6192 C 576.714 -2.93386 1.78268 0
M  V30 6193 C 575.8 -3.01198 2.98564 0
M  V30 6194 N 576.191 -2.78792 4.22029 0
M  V30 6195 C 574.489 -3.32346 2.97426 0
M  V30 6196 C 575.19 -2.91953 5.03128 0
M  V30 6197 N 574.166 -3.22797 4.37382 0
M  V30 6198 H 577.968 -1.36444 2.60308 0
M  V30 6199 H 575.482 -0.663375 1.48233 0
M  V30 6200 H 577.479 -3.72071 1.88067 0
M  V30 6201 H 576.139 -3.13022 0.862965 0
M  V30 6202 H 577.15 -2.54087 4.51287 0
M  V30 6203 H 573.827 -3.57877 2.15012 0
M  V30 6204 H 575.217 -2.78745 6.11351 0
M  V30 6205 N 577.937 -1.40673 -0.710563 0
M  V30 6206 C 578.847 -1.43663 -1.85467 0
M  V30 6207 C 579.863 -0.328721 -1.70867 0
M  V30 6208 O 581.039 -0.574098 -1.93044 0
M  V30 6209 C 578.104 -1.30226 -3.21313 0
M  V30 6210 C 577.165 -2.51204 -3.48131 0
M  V30 6211 C 576.398 -2.38398 -4.77495 0
M  V30 6212 O 576.621 -1.40048 -5.5294 0
M  V30 6213 O 575.555 -3.2787 -5.04762 0
M  V30 6214 H 579.381 -2.40156 -1.859 0
M  V30 6215 H 576.966 -1.22049 -0.861652 0
M  V30 6216 H 578.848 -1.2496 -4.02446 0
M  V30 6217 H 577.523 -0.368419 -3.21597 0
M  V30 6218 H 576.43 -2.62048 -2.66987 0
M  V30 6219 H 577.763 -3.43366 -3.52648 0
M  V30 6220 N 579.415 0.9433 -1.26252 0
M  V30 6221 C 580.655 1.70397 -1.1289 0
M  V30 6222 C 581.019 1.89268 0.322713 0
M  V30 6223 O 582.22 2.62503 0.578418 0
M  V30 6224 C 580.491 3.04296 -1.87453 0
M  V30 6225 S 582.05 3.95475 -1.90119 0
M  V30 6226 H 578.868 0.585559 -0.403289 0
M  V30 6227 H 581.47 1.12424 -1.59941 0
M  V30 6228 H 580.174 2.8824 -2.9214 0
M  V30 6229 H 579.705 3.67327 -1.40835 0
M  V30 6230 H 581.72 4.86297 -0.986373 0
M  V30 6231 N 580.893 1.08022 1.14757 0
M  V30 6232 C 582.123 0.827646 1.89298 0
M  V30 6233 C 582.531 -0.623506 1.78631 0
M  V30 6234 O 581.874 -1.43991 1.14071 0
M  V30 6235 C 581.936 1.16553 3.40082 0
M  V30 6236 C 581.6 2.61866 3.74533 0
M  V30 6237 C 582.597 3.60116 3.74984 0
M  V30 6238 C 580.282 2.97619 4.04633 0
M  V30 6239 C 582.276 4.92151 4.05051 0
M  V30 6240 C 579.963 4.2985 4.34364 0
M  V30 6241 C 580.961 5.26926 4.34555 0
M  V30 6242 O 580.649 6.5678 4.63568 0
M  V30 6243 H 580.381 0.298396 0.606577 0
M  V30 6244 H 582.935 1.44187 1.46285 0
M  V30 6245 H 581.165 0.494296 3.83528 0
M  V30 6246 H 582.854 0.894407 3.95923 0
M  V30 6247 H 583.62 3.33837 3.51821 0
M  V30 6248 H 579.499 2.22702 4.03639 0
M  V30 6249 H 583.043 5.67915 4.05115 0
M  V30 6250 H 578.94 4.55879 4.56995 0
M  V30 6251 H 579.708 6.62035 4.81303 0
M  V30 6252 N 582.371 -1.3172 0.865308 0
M  V30 6253 C 583.334 -2.26918 0.322627 0
M  V30 6254 C 584.334 -1.52031 -0.523751 0
M  V30 6255 O 585.524 -1.70973 -0.333727 0
M  V30 6256 C 582.656 -3.36558 -0.542338 0
M  V30 6257 H 583.849 -2.76432 1.16298 0
M  V30 6258 H 581.402 -1.42573 0.640512 0
M  V30 6259 H 582.137 -2.92329 -1.40407 0
M  V30 6260 H 581.922 -3.92048 0.0636395 0
M  V30 6261 H 583.412 -4.07465 -0.91446 0
M  V30 6262 N 583.85 -0.624285 -1.44708 0
M  V30 6263 C 584.797 0.0847135 -2.30644 0
M  V30 6264 C 585.767 0.843575 -1.43084 0
M  V30 6265 O 586.952 0.825982 -1.71995 0
M  V30 6266 C 584.091 1.06495 -3.28257 0
M  V30 6267 C 583.205 0.305224 -4.3092 0
M  V30 6268 C 582.34 1.27667 -5.1563 0
M  V30 6269 C 581.379 0.505706 -6.10007 0
M  V30 6270 N 580.516 1.42727 -6.8744 0
M  V30 6271 H 585.356 -0.654068 -2.90733 0
M  V30 6272 H 582.893 -0.334334 -1.4325 0
M  V30 6273 H 584.851 1.64658 -3.83332 0
M  V30 6274 H 583.481 1.77094 -2.69884 0
M  V30 6275 H 582.533 -0.392207 -3.78373 0
M  V30 6276 H 583.845 -0.295553 -4.97924 0
M  V30 6277 H 582.999 1.92984 -5.75189 0
M  V30 6278 H 581.738 1.91137 -4.48685 0
M  V30 6279 H 580.743 -0.160999 -5.49564 0
M  V30 6280 H 581.968 -0.124183 -6.78986 0
M  V30 6281 H 579.913 2.04931 -6.23169 0
M  V30 6282 H 579.831 0.880345 -7.50857 0
M  V30 6283 H 581.099 2.0695 -7.51526 0
M  V30 6284 N 585.328 1.53329 -0.364422 0
M  V30 6285 C 586.574 2.01537 0.225969 0
M  V30 6286 C 586.907 1.25128 1.48515 0
M  V30 6287 O 586.182 0.344653 1.91422 0
M  V30 6288 C 586.465 3.56339 0.519092 0
M  V30 6289 C 586.318 4.43441 -0.753639 0
M  V30 6290 C 587.637 4.19833 1.32015 0
M  V30 6291 H 584.756 0.732573 0.0806548 0
M  V30 6292 H 587.398 1.83597 -0.489084 0
M  V30 6293 H 585.548 3.71756 1.12825 0
M  V30 6294 H 587.22 4.39823 -1.39116 0
M  V30 6295 H 585.463 4.11457 -1.37424 0
M  V30 6296 H 586.134 5.49699 -0.503517 0
M  V30 6297 H 588.61 4.08242 0.804859 0
M  V30 6298 H 587.486 5.28177 1.49399 0
M  V30 6299 H 587.747 3.75821 2.32832 0
M  V30 6300 N 586.806 0.0935595 1.57322 0
M  V30 6301 C 588.053 -0.570509 1.94297 0
M  V30 6302 C 588.381 -1.68286 0.97519 0
M  V30 6303 O 587.636 -1.95699 -0.00548655 0
M  V30 6304 C 587.935 -1.16692 3.37813 0
M  V30 6305 C 587.601 -0.178509 4.50547 0
M  V30 6306 C 586.263 0.0933475 4.81109 0
M  V30 6307 C 588.615 0.496472 5.1883 0
M  V30 6308 C 585.943 1.0469 5.77284 0
M  V30 6309 C 588.295 1.43849 6.16028 0
M  V30 6310 C 586.959 1.71859 6.44997 0
M  V30 6311 H 586.229 -0.208764 0.710984 0
M  V30 6312 H 588.876 0.169066 1.90752 0
M  V30 6313 H 587.181 -1.98271 3.37929 0
M  V30 6314 H 588.878 -1.6884 3.63722 0
M  V30 6315 H 585.468 -0.400584 4.26724 0
M  V30 6316 H 589.652 0.299584 4.95395 0
M  V30 6317 H 584.908 1.27094 5.98044 0
M  V30 6318 H 589.082 1.96734 6.68034 0
M  V30 6319 H 586.709 2.45906 7.19329 0
M  V30 6320 N 588.284 -1.56567 -0.180126 0
M  V30 6321 C 589.561 -1.7235 -0.924931 0
M  V30 6322 C 589.941 -0.652523 -2.00762 0
M  V30 6323 O 589.289 0.334115 -2.26044 0
M  V30 6324 C 589.499 -3.1523 -1.49771 0
M  V30 6325 C 590.847 -3.75921 -1.97405 0
M  V30 6326 O 591.871 -3.18452 -1.59583 0
M  V30 6327 O 590.73 -4.7681 -2.67048 0
M  V30 6328 H 587.824 -0.703502 -0.434758 0
M  V30 6329 H 590.37 -1.6886 -0.168647 0
M  V30 6330 H 589.142 -3.84656 -0.718027 0
M  V30 6331 H 588.765 -3.23009 -2.31842 0
M  V30 6332 N 589.762 0.448376 -1.51087 0
M  V30 6333 C 590.672 1.56882 -1.74428 0
M  V30 6334 C 591.688 1.62268 -0.62809 0
M  V30 6335 O 592.864 1.79716 -0.909075 0
M  V30 6336 C 589.929 2.92947 -1.85426 0
M  V30 6337 C 588.99 2.97766 -3.09247 0
M  V30 6338 C 588.223 4.27341 -3.19711 0
M  V30 6339 O 588.446 5.19112 -2.36387 0
M  V30 6340 O 587.38 4.38219 -4.12611 0
M  V30 6341 H 591.206 1.40104 -2.69452 0
M  V30 6342 H 588.791 0.630247 -1.35456 0
M  V30 6343 H 590.673 3.73719 -1.94709 0
M  V30 6344 H 589.348 3.09876 -0.935887 0
M  V30 6345 H 588.255 2.15989 -3.0545 0
M  V30 6346 H 589.588 2.8578 -4.00738 0
M  V30 6347 N 591.24 1.41047 0.703093 0
M  V30 6348 C 592.487 1.4 1.46309 0
M  V30 6349 C 592.815 0.00654574 1.94499 0
M  V30 6350 O 592.07 -0.980255 1.6938 0
M  V30 6351 C 592.369 2.34686 2.6955 0
M  V30 6352 C 592.035 3.81684 2.40058 0
M  V30 6353 C 590.697 4.21731 2.31725 0
M  V30 6354 C 593.049 4.74525 2.15581 0
M  V30 6355 C 590.377 5.52637 1.97001 0
M  V30 6356 C 592.729 6.05744 1.82366 0
M  V30 6357 C 591.393 6.44819 1.72524 0
M  V30 6358 H 590.663 0.512295 0.535382 0
M  V30 6359 H 593.31 1.73792 0.804275 0
M  V30 6360 H 591.615 1.94122 3.40329 0
M  V30 6361 H 593.312 2.31152 3.27673 0
M  V30 6362 H 589.902 3.49963 2.47435 0
M  V30 6363 H 594.086 4.44395 2.20968 0
M  V30 6364 H 589.342 5.81802 1.87928 0
M  V30 6365 H 593.516 6.77189 1.62444 0
M  V30 6366 H 591.143 7.46168 1.45385 0
M  V30 6367 N 592.718 -0.936591 1.26751 0
M  V30 6368 C 593.665 -2.03597 1.08706 0
M  V30 6369 C 594.635 -1.66097 -0.00926542 0
M  V30 6370 O 595.82 -1.90199 0.151377 0
M  V30 6371 C 592.96 -3.3727 0.73094 0
M  V30 6372 C 592.073 -3.87778 1.90399 0
M  V30 6373 C 591.208 -5.09859 1.49056 0
M  V30 6374 C 590.247 -5.5264 2.63164 0
M  V30 6375 N 589.384 -6.65921 2.22471 0
M  V30 6376 H 594.224 -2.18364 2.02784 0
M  V30 6377 H 591.761 -1.06985 1.00958 0
M  V30 6378 H 593.719 -4.14128 0.505328 0
M  V30 6379 H 592.349 -3.22337 -0.172868 0
M  V30 6380 H 591.401 -3.07279 2.2424 0
M  V30 6381 H 592.713 -4.15464 2.76028 0
M  V30 6382 H 591.867 -5.9419 1.22567 0
M  V30 6383 H 590.606 -4.8393 0.60524 0
M  V30 6384 H 589.611 -4.66863 2.90377 0
M  V30 6385 H 590.836 -5.80568 3.52303 0
M  V30 6386 H 588.782 -6.41667 1.36379 0
M  V30 6387 H 588.699 -6.93216 3.01641 0
M  V30 6388 H 589.967 -7.53616 1.99205 0
M  V30 6389 N 594.196 -1.08629 -1.14182 0
M  V30 6390 C 595.607 -0.838003 -1.66836 0
M  V30 6391 C 595.958 0.634885 -1.85644 0
M  V30 6392 O 595.083 1.49008 -1.56926 0
M  V30 6393 C 595.678 -1.51465 -3.03058 0
M  V30 6394 C 594.237 -1.31355 -3.52736 0
M  V30 6395 C 593.384 -1.57599 -2.28162 0
M  V30 6396 H 596.335 -1.24656 -0.982165 0
M  V30 6397 H 596.356 -0.943134 -3.68626 0
M  V30 6398 H 595.868 -2.58661 -2.89337 0
M  V30 6399 H 593.969 -0.262384 -3.71675 0
M  V30 6400 H 594.082 -2.04275 -4.33369 0
M  V30 6401 H 592.446 -0.997659 -2.34348 0
M  V30 6402 H 593.229 -2.66006 -2.17015 0
M  V30 6403 N 595.674 1.31259 -0.872281 0
M  V30 6404 C 596.604 2.30929 -0.345554 0
M  V30 6405 C 597.585 1.60449 0.5648 0
M  V30 6406 O 598.77 1.8814 0.481335 0
M  V30 6407 C 595.9 3.44348 0.451823 0
M  V30 6408 C 594.854 4.26435 -0.365641 0
M  V30 6409 C 594.18 5.31785 0.557562 0
M  V30 6410 C 595.48 4.97159 -1.60095 0
M  V30 6411 H 597.174 2.75234 -1.17841 0
M  V30 6412 H 594.72 1.3232 -0.568094 0
M  V30 6413 H 596.673 4.13128 0.830854 0
M  V30 6414 H 595.397 2.98816 1.31821 0
M  V30 6415 H 594.056 3.59326 -0.726649 0
M  V30 6416 H 593.704 4.82502 1.4213 0
M  V30 6417 H 593.404 5.87598 0.0144878 0
M  V30 6418 H 594.928 6.03424 0.933387 0
M  V30 6419 H 596.342 5.58523 -1.29323 0
M  V30 6420 H 594.739 5.62779 -2.08327 0
M  V30 6421 H 595.809 4.24012 -2.35249 0
M  V30 6422 N 597.152 0.631951 1.44375 0
M  V30 6423 C 598.398 0.13697 2.02337 0
M  V30 6424 C 598.731 -1.23826 1.49602 0
M  V30 6425 O 598.006 -1.8221 0.680415 0
M  V30 6426 C 598.289 0.124536 3.59885 0
M  V30 6427 C 598.142 1.53217 4.229 0
M  V30 6428 C 599.461 -0.550481 4.36644 0
M  V30 6429 H 596.58 0.051247 0.735216 0
M  V30 6430 H 599.222 0.808581 1.71936 0
M  V30 6431 H 597.372 -0.44737 3.85916 0
M  V30 6432 H 599.044 2.15303 4.07973 0
M  V30 6433 H 597.287 2.0858 3.80364 0
M  V30 6434 H 597.958 1.4755 5.31914 0
M  V30 6435 H 600.434 -0.0641154 4.16051 0
M  V30 6436 H 599.31 -0.528371 5.46351 0
M  V30 6437 H 599.571 -1.62097 4.11311 0
M  V30 6438 N 598.631 -1.53133 0.372548 0
M  V30 6439 C 599.541 -2.29671 -0.478379 0
M  V30 6440 C 600.557 -1.35913 -1.08644 0
M  V30 6441 O 601.733 -1.68975 -1.09588 0
M  V30 6442 C 598.798 -3.07625 -1.599 0
M  V30 6443 C 597.859 -4.17061 -1.01776 0
M  V30 6444 C 597.092 -4.91289 -2.08497 0
M  V30 6445 O 597.315 -4.65442 -3.29727 0
M  V30 6446 O 596.249 -5.7705 -1.71164 0
M  V30 6447 H 600.075 -3.03355 0.144649 0
M  V30 6448 H 597.66 -1.48773 0.136729 0
M  V30 6449 H 599.542 -3.56281 -2.25038 0
M  V30 6450 H 598.217 -2.3677 -2.2073 0
M  V30 6451 H 597.124 -3.72641 -0.330098 0
M  V30 6452 H 598.457 -4.90102 -0.453915 0
M  V30 6453 N 600.109 -0.101901 -1.5727 0
M  V30 6454 C 601.019 0.868647 -2.17926 0
M  V30 6455 C 602.035 1.30527 -1.1506 0
M  V30 6456 O 603.211 1.37178 -1.47459 0
M  V30 6457 C 600.276 2.10727 -2.75309 0
M  V30 6458 C 599.337 1.7242 -3.93154 0
M  V30 6459 C 598.57 2.90377 -4.47791 0
M  V30 6460 O 598.793 4.05305 -4.01353 0
M  V30 6461 O 597.727 2.6845 -5.38719 0
M  V30 6462 H 601.553 0.382544 -3.01281 0
M  V30 6463 H 599.138 0.122812 -1.48894 0
M  V30 6464 H 601.02 2.83303 -3.11958 0
M  V30 6465 H 599.695 2.58376 -1.94996 0
M  V30 6466 H 598.602 0.970039 -3.61305 0
M  V30 6467 H 599.935 1.29528 -4.74851 0
M  V30 6468 N 601.587 1.56661 0.17182 0
M  V30 6469 C 602.998 1.71652 0.734329 0
M  V30 6470 C 603.349 0.712335 1.82812 0
M  V30 6471 O 602.474 -0.126401 2.16031 0
M  V30 6472 C 603.069 3.11226 1.3388 0
M  V30 6473 C 601.628 3.27904 1.84813 0
M  V30 6474 C 600.775 2.67603 0.726917 0
M  V30 6475 H 603.726 1.5861 -0.0535665 0
M  V30 6476 H 603.747 3.09849 2.20849 0
M  V30 6477 H 603.259 3.8429 0.54249 0
M  V30 6478 H 601.36 2.59796 2.6709 0
M  V30 6479 H 601.473 4.35637 1.99392 0
M  V30 6480 H 599.837 2.274 1.14723 0
M  V30 6481 H 600.62 3.43252 -0.0575334 0
M  V30 6482 N 603.065 -0.440357 1.51323 0
M  V30 6483 C 603.997 -1.55254 1.68609 0
M  V30 6484 C 605.01 -1.52614 0.566812 0
M  V30 6485 O 606.199 -1.57445 0.841032 0
M  V30 6486 C 603.299 -2.94169 1.68279 0
M  V30 6487 C 602.472 -3.21346 2.96742 0
M  V30 6488 C 601.531 -4.3997 2.8864 0
M  V30 6489 O 600.557 -4.38771 3.62586 0
M  V30 6490 N 601.759 -5.43367 2.04285 0
M  V30 6491 H 604.524 -1.40831 2.6455 0
M  V30 6492 H 602.085 -0.629251 1.49171 0
M  V30 6493 H 604.077 -3.71543 1.60431 0
M  V30 6494 H 602.647 -3.02205 0.799441 0
M  V30 6495 H 601.867 -2.32299 3.18482 0
M  V30 6496 H 603.155 -3.3633 3.81785 0
M  V30 6497 H 602.553 -5.47176 1.43578 0
M  V30 6498 H 601.11 -6.19605 2.02318 0
M  V30 6499 N 604.543 -1.41418 -0.695603 0
M  V30 6500 C 605.491 -1.43467 -1.83084 0
M  V30 6501 C 606.485 -0.312719 -1.66489 0
M  V30 6502 O 607.691 -0.484744 -1.7335 0
M  V30 6503 H 604.066 -0.448891 -0.603325 0
M  V30 6504 H 606.037 -2.39144 -1.78473 0
M  V30 6505 C 604.786 -1.3337 -3.21104 0
M  V30 6506 H 604.109 -2.18989 -3.3449 0
M  V30 6507 H 605.549 -1.38865 -4.00615 0
M  V30 6508 C 604.008 -0.0460484 -3.36869 0
M  V30 6509 O 604.538 0.909258 -3.91274 0
M  V30 6510 N 602.744 0.0300222 -2.90584 0
M  V30 6511 H 602.291 -0.748129 -2.46497 0
M  V30 6512 H 602.249 0.890991 -3.01511 0
M  V30 6513 N 606.021 0.929856 -1.27246 0
M  V30 6514 C 606.951 2.04722 -1.12299 0
M  V30 6515 C 607.932 1.70082 -0.0250464 0
M  V30 6516 O 609.117 1.93176 -0.199141 0
M  V30 6517 C 606.247 3.38721 -0.767145 0
M  V30 6518 C 605.201 3.87466 -1.81808 0
M  V30 6519 C 604.527 5.18246 -1.31626 0
M  V30 6520 C 605.827 4.11095 -3.22177 0
M  V30 6521 H 607.521 2.17485 -2.05769 0
M  V30 6522 H 605.067 1.04503 -0.990715 0
M  V30 6523 H 607.02 4.16366 -0.649413 0
M  V30 6524 H 605.744 3.25967 0.203259 0
M  V30 6525 H 604.403 3.12012 -1.92468 0
M  V30 6526 H 604.051 5.01881 -0.335378 0
M  V30 6527 H 603.751 5.51829 -2.01887 0
M  V30 6528 H 605.275 5.98462 -1.21143 0
M  V30 6529 H 606.689 4.79316 -3.1453 0
M  V30 6530 H 605.086 4.55982 -3.90129 0
M  V30 6531 H 606.156 3.16468 -3.67391 0
M  V30 6532 N 607.499 1.09233 1.13605 0
M  V30 6533 C 608.748 0.82205 1.84188 0
M  V30 6534 C 609.061 -0.654548 1.84323 0
M  V30 6535 O 610.267 -1.04029 2.50779 0
M  V30 6536 C 608.723 1.42066 3.30674 0
M  V30 6537 C 608.331 2.92965 3.38933 0
M  V30 6538 C 610.075 1.22924 4.06313 0
M  V30 6539 C 607.982 3.45922 4.79679 0
M  V30 6540 H 606.912 0.303854 0.690064 0
M  V30 6541 H 609.563 1.31479 1.28006 0
M  V30 6542 H 607.945 0.855613 3.86646 0
M  V30 6543 H 609.119 3.55679 2.92966 0
M  V30 6544 H 607.434 3.11118 2.76757 0
M  V30 6545 H 610.031 1.59945 5.10217 0
M  V30 6546 H 610.374 0.169726 4.15954 0
M  V30 6547 H 610.907 1.76168 3.56665 0
M  V30 6548 H 607.646 4.51484 4.75229 0
M  V30 6549 H 607.166 2.87971 5.26149 0
M  V30 6550 H 608.845 3.43009 5.48592 0
M  V30 6551 N 608.977 -1.30795 0.87923 0
M  V30 6552 C 609.924 -2.28282 0.339968 0
M  V30 6553 C 610.894 -1.56134 -0.566685 0
M  V30 6554 O 612.079 -1.84231 -0.496338 0
M  V30 6555 C 609.219 -3.42225 -0.444501 0
M  V30 6556 C 608.332 -4.29204 0.490717 0
M  V30 6557 C 607.467 -5.30302 -0.308784 0
M  V30 6558 C 606.506 -6.08929 0.622272 0
M  V30 6559 N 605.643 -7.01957 -0.14155 0
M  V30 6560 H 610.483 -2.73794 1.17647 0
M  V30 6561 H 608.02 -1.34682 0.591527 0
M  V30 6562 H 609.978 -4.07038 -0.915186 0
M  V30 6563 H 608.608 -2.97799 -1.24562 0
M  V30 6564 H 607.66 -3.6475 1.07988 0
M  V30 6565 H 608.972 -4.84045 1.20425 0
M  V30 6566 H 608.126 -6.00835 -0.841575 0
M  V30 6567 H 606.865 -4.7614 -1.05556 0
M  V30 6568 H 605.87 -5.37278 1.16674 0
M  V30 6569 H 607.095 -6.65178 1.36804 0
M  V30 6570 H 605.041 -6.50192 -0.870966 0
M  V30 6571 H 604.958 -7.54261 0.51246 0
M  V30 6572 H 606.226 -7.76741 -0.655271 0
M  V30 6573 N 610.455 -0.639598 -1.44038 0
M  V30 6574 C 611.387 0.0987684 -2.28987 0
M  V30 6575 C 612.4 0.80058 -1.41755 0
M  V30 6576 O 613.589 0.660611 -1.65826 0
M  V30 6577 C 610.689 1.16242 -3.18341 0
M  V30 6578 C 609.862 0.541447 -4.34036 0
M  V30 6579 C 608.921 1.50017 -5.04362 0
M  V30 6580 O 607.947 1.01403 -5.60095 0
M  V30 6581 N 609.149 2.83441 -5.06598 0
M  V30 6582 H 611.914 -0.630305 -2.92997 0
M  V30 6583 H 609.475 -0.481376 -1.54578 0
M  V30 6584 H 611.467 1.80429 -3.62253 0
M  V30 6585 H 610.037 1.79362 -2.56024 0
M  V30 6586 H 609.257 -0.27923 -3.9321 0
M  V30 6587 H 610.545 0.107379 -5.08687 0
M  V30 6588 H 609.943 3.2551 -4.62666 0
M  V30 6589 H 608.5 3.42966 -5.54272 0
M  V30 6590 N 611.933 1.52934 -0.380664 0
M  V30 6591 C 612.881 2.27727 0.47361 0
M  V30 6592 C 613.875 1.31288 1.0705 0
M  V30 6593 O 615.081 1.4886 1.01197 0
M  V30 6594 H 611.456 0.732189 0.171475 0
M  V30 6595 H 613.427 2.97864 -0.178785 0
M  V30 6596 C 612.176 3.0904 1.59341 0
M  V30 6597 H 611.499 3.831 1.14343 0
M  V30 6598 H 612.939 3.64527 2.16555 0
M  V30 6599 C 611.398 2.20813 2.54447 0
M  V30 6600 O 611.928 1.82907 3.57642 0
M  V30 6601 N 610.134 1.85145 2.23986 0
M  V30 6602 H 609.681 2.16169 1.40103 0
M  V30 6603 H 609.639 1.26402 2.87871 0
M  V30 6604 N 613.412 0.11024 1.57214 0
M  V30 6605 C 614.652 -0.553061 1.96775 0
M  V30 6606 C 615.016 -1.64403 0.991753 0
M  V30 6607 O 616.217 -2.36561 1.27642 0
M  V30 6608 C 614.488 -1.08004 3.4069 0
M  V30 6609 S 616.047 -1.75309 4.02259 0
M  V30 6610 H 612.865 -0.18003 0.68783 0
M  V30 6611 H 615.467 0.193242 1.94543 0
M  V30 6612 H 614.171 -0.274735 4.09479 0
M  V30 6613 H 613.702 -1.86182 3.46554 0
M  V30 6614 H 615.717 -3.03834 3.923 0
M  V30 6615 N 614.89 -1.56749 -0.16351 0
M  V30 6616 C 615.8 -2.00255 -1.2221 0
M  V30 6617 C 616.816 -0.915194 -1.47987 0
M  V30 6618 O 617.992 -1.22342 -1.59982 0
M  V30 6619 C 615.057 -2.36035 -2.53946 0
M  V30 6620 C 614.118 -3.58637 -2.35962 0
M  V30 6621 C 613.351 -3.92701 -3.61416 0
M  V30 6622 O 613.574 -3.27632 -4.66919 0
M  V30 6623 O 612.508 -4.86019 -3.55062 0
M  V30 6624 H 616.334 -2.90586 -0.882794 0
M  V30 6625 H 613.919 -1.44721 -0.370978 0
M  V30 6626 H 615.801 -2.59982 -3.31643 0
M  V30 6627 H 614.476 -1.48863 -2.8744 0
M  V30 6628 H 613.383 -3.39898 -1.5627 0
M  V30 6629 H 614.716 -4.46374 -2.0739 0
M  V30 6630 N 616.368 0.432326 -1.51554 0
M  V30 6631 C 617.298 1.53242 -1.76179 0
M  V30 6632 C 618.279 1.58717 -0.611801 0
M  V30 6633 O 619.464 1.74364 -0.855033 0
M  V30 6634 C 616.594 2.91278 -1.89141 0
M  V30 6635 C 615.548 3.00663 -3.04608 0
M  V30 6636 C 614.874 4.40728 -3.02759 0
M  V30 6637 C 616.174 2.74281 -4.44485 0
M  V30 6638 H 617.868 1.32886 -2.68294 0
M  V30 6639 H 615.414 0.637841 -1.29103 0
M  V30 6640 H 617.367 3.68203 -2.04951 0
M  V30 6641 H 616.091 3.12877 -0.936785 0
M  V30 6642 H 614.75 2.26179 -2.88511 0
M  V30 6643 H 614.398 4.59301 -2.05065 0
M  V30 6644 H 614.098 4.47936 -3.80299 0
M  V30 6645 H 615.622 5.19619 -3.20669 0
M  V30 6646 H 617.036 3.40936 -4.60907 0
M  V30 6647 H 615.433 2.92893 -5.23769 0
M  V30 6648 H 616.503 1.69856 -4.54177 0
M  V30 6649 N 617.846 1.41785 0.688094 0
M  V30 6650 C 619.093 1.41544 1.44816 0
M  V30 6651 C 619.421 0.0271746 1.94481 0
M  V30 6652 O 618.676 -0.962235 1.7041 0
M  V30 6653 C 618.975 2.37532 2.67046 0
M  V30 6654 C 618.641 3.84209 2.35996 0
M  V30 6655 C 617.303 4.24165 2.27239 0
M  V30 6656 C 619.655 4.76785 2.10536 0
M  V30 6657 C 616.983 5.54695 1.91128 0
M  V30 6658 C 619.335 6.07644 1.75931 0
M  V30 6659 C 617.999 6.46613 1.65675 0
M  V30 6660 H 617.269 0.517945 0.529919 0
M  V30 6661 H 619.916 1.74635 0.785797 0
M  V30 6662 H 618.221 1.9772 3.38251 0
M  V30 6663 H 619.918 2.34615 3.25203 0
M  V30 6664 H 616.508 3.52567 2.4371 0
M  V30 6665 H 620.692 4.46714 2.16242 0
M  V30 6666 H 615.948 5.83762 1.81746 0
M  V30 6667 H 620.122 6.78874 1.55252 0
M  V30 6668 H 617.749 7.47668 1.37463 0
M  V30 6669 N 619.324 -0.923095 1.27737 0
M  V30 6670 C 620.234 -2.05765 1.12685 0
M  V30 6671 C 621.25 -1.73911 0.0557197 0
M  V30 6672 O 622.426 -1.99674 0.263137 0
M  V30 6673 C 619.491 -3.37804 0.780363 0
M  V30 6674 C 618.552 -3.83326 1.93286 0
M  V30 6675 C 617.785 -5.09064 1.60281 0
M  V30 6676 O 618.008 -5.6809 0.512828 0
M  V30 6677 O 616.942 -5.50071 2.44347 0
M  V30 6678 H 620.768 -2.21378 2.07907 0
M  V30 6679 H 618.353 -1.04299 1.06968 0
M  V30 6680 H 620.235 -4.17097 0.600668 0
M  V30 6681 H 618.91 -3.23387 -0.142291 0
M  V30 6682 H 617.817 -3.049 2.16764 0
M  V30 6683 H 619.15 -4.02292 2.83588 0
M  V30 6684 N 620.802 -1.09834 -1.13024 0
M  V30 6685 C 621.734 -0.699379 -2.18269 0
M  V30 6686 C 622.747 0.260841 -1.60697 0
M  V30 6687 O 623.936 0.0462538 -1.7844 0
M  V30 6688 C 621.036 -0.0104537 -3.38898 0
M  V30 6689 C 620.209 -0.993275 -4.25973 0
M  V30 6690 C 619.268 -0.336982 -5.2512 0
M  V30 6691 O 618.294 -0.985892 -5.60597 0
M  V30 6692 N 619.496 0.90716 -5.73368 0
M  V30 6693 H 622.261 -1.60486 -2.5311 0
M  V30 6694 H 619.822 -0.986337 -1.28386 0
M  V30 6695 H 621.814 0.43991 -4.02302 0
M  V30 6696 H 620.384 0.797335 -3.0226 0
M  V30 6697 H 619.604 -1.62208 -3.5928 0
M  V30 6698 H 620.892 -1.65876 -4.81002 0
M  V30 6699 H 620.29 1.45384 -5.46699 0
M  V30 6700 H 618.847 1.30077 -6.38689 0
M  V30 6701 N 622.28 1.30327 -0.886154 0
M  V30 6702 C 623.21 2.30549 -0.370028 0
M  V30 6703 C 624.191 1.61039 0.547751 0
M  V30 6704 O 625.376 1.8864 0.461353 0
M  V30 6705 C 622.506 3.44808 0.415275 0
M  V30 6706 C 621.46 4.26024 -0.41085 0
M  V30 6707 C 620.786 5.32347 0.501128 0
M  V30 6708 C 622.086 4.95433 -1.65359 0
M  V30 6709 H 623.78 2.73969 -1.20754 0
M  V30 6710 H 621.326 1.3171 -0.582097 0
M  V30 6711 H 623.279 4.13986 0.78699 0
M  V30 6712 H 622.003 3.00197 1.28644 0
M  V30 6713 H 620.662 3.58535 -0.764719 0
M  V30 6714 H 620.31 4.83982 1.37004 0
M  V30 6715 H 620.01 5.87581 -0.0478356 0
M  V30 6716 H 621.534 6.0438 0.869333 0
M  V30 6717 H 622.948 5.5712 -1.35239 0
M  V30 6718 H 621.345 5.60537 -2.14284 0
M  V30 6719 H 622.415 4.21493 -2.39733 0
M  V30 6720 N 623.758 0.647228 1.43697 0
M  V30 6721 C 625.006 0.157876 2.01482 0
M  V30 6722 C 625.327 -1.23039 1.51282 0
M  V30 6723 O 624.597 -1.82071 0.722982 0
M  V30 6724 H 623.177 0.0553745 0.744945 0
M  V30 6725 H 625.839 0.83755 1.75986 0
M  V30 6726 H 624.935 0.137895 3.11795 0
M  V30 6727 N 625.236 -1.5273 0.388769 0
M  V30 6728 C 626.146 -2.30165 -0.453993 0
M  V30 6729 C 627.162 -1.37058 -1.07197 0
M  V30 6730 O 628.338 -1.70127 -1.0779 0
M  V30 6731 C 625.403 -3.09303 -1.56628 0
M  V30 6732 C 624.464 -4.18117 -0.973467 0
M  V30 6733 C 623.697 -4.93472 -2.03275 0
M  V30 6734 O 623.92 -4.68913 -3.24772 0
M  V30 6735 O 622.854 -5.78833 -1.65034 0
M  V30 6736 H 626.68 -3.03185 0.176816 0
M  V30 6737 H 624.265 -1.4862 0.152501 0
M  V30 6738 H 626.147 -3.58648 -2.21246 0
M  V30 6739 H 624.822 -2.39098 -2.18206 0
M  V30 6740 H 623.729 -3.7297 -0.290556 0
M  V30 6741 H 625.062 -4.90556 -0.401908 0
M  V30 6742 N 626.714 -0.118576 -1.57153 0
M  V30 6743 C 627.944 0.546466 -1.99242 0
M  V30 6744 C 628.352 1.60791 -0.997148 0
M  V30 6745 O 627.695 1.83691 0.0181745 0
M  V30 6746 C 627.757 1.23167 -3.37743 0
M  V30 6747 C 627.421 0.318226 -4.55891 0
M  V30 6748 C 628.418 -0.442988 -5.18009 0
M  V30 6749 C 626.103 0.229421 -5.01776 0
M  V30 6750 C 628.097 -1.28074 -6.244 0
M  V30 6751 C 625.784 -0.611966 -6.08028 0
M  V30 6752 C 626.782 -1.36568 -6.69207 0
M  V30 6753 O 626.47 -2.1931 -7.73407 0
M  V30 6754 H 626.202 0.149297 -0.659307 0
M  V30 6755 H 628.756 -0.201603 -2.04408 0
M  V30 6756 H 626.986 2.0268 -3.29329 0
M  V30 6757 H 628.675 1.79358 -3.64123 0
M  V30 6758 H 629.441 -0.38425 -4.83475 0
M  V30 6759 H 625.32 0.805771 -4.53903 0
M  V30 6760 H 628.864 -1.86952 -6.72082 0
M  V30 6761 H 624.761 -0.6721 -6.41991 0
M  V30 6762 H 625.529 -2.12247 -7.90502 0
M  V30 6763 N 628.193 1.56834 0.155195 0
M  V30 6764 C 629.14 1.97646 1.19184 0
M  V30 6765 C 630.11 0.842788 1.4313 0
M  V30 6766 O 631.295 1.1042 1.55602 0
M  V30 6767 C 628.435 2.35527 2.52232 0
M  V30 6768 C 627.548 3.62147 2.35529 0
M  V30 6769 C 626.683 3.89167 3.61555 0
M  V30 6770 C 625.722 5.09084 3.39853 0
M  V30 6771 N 624.859 5.32156 4.5799 0
M  V30 6772 H 629.699 2.8601 0.836802 0
M  V30 6773 H 627.236 1.41507 0.401758 0
M  V30 6774 H 629.194 2.55516 3.29799 0
M  V30 6775 H 627.824 1.50253 2.85699 0
M  V30 6776 H 626.876 3.4998 1.49057 0
M  V30 6777 H 628.188 4.49871 2.15448 0
M  V30 6778 H 627.342 4.09611 4.47553 0
M  V30 6779 H 626.081 2.9985 3.84632 0
M  V30 6780 H 625.086 4.88522 2.52243 0
M  V30 6781 H 626.311 5.99947 3.18183 0
M  V30 6782 H 624.257 4.45791 4.81255 0
M  V30 6783 H 624.174 6.14133 4.40882 0
M  V30 6784 H 625.442 5.57091 5.45225 0
M  V30 6785 N 629.671 -0.424282 1.51781 0
M  V30 6786 C 630.918 -1.1726 1.65095 0
M  V30 6787 C 631.246 -1.90881 0.373477 0
M  V30 6788 O 630.501 -1.84835 -0.642997 0
M  V30 6789 C 630.8 -2.20418 2.81337 0
M  V30 6790 C 630.466 -1.63715 4.20129 0
M  V30 6791 C 629.128 -1.47975 4.57883 0
M  V30 6792 C 631.48 -1.22157 5.06682 0
M  V30 6793 C 628.808 -0.891703 5.79884 0
M  V30 6794 C 631.16 -0.647767 6.29275 0
M  V30 6795 C 629.824 -0.477371 6.65791 0
M  V30 6796 H 629.094 -0.429085 0.604125 0
M  V30 6797 H 631.741 -0.461852 1.85847 0
M  V30 6798 H 630.046 -2.97581 2.54859 0
M  V30 6799 H 631.743 -2.78163 2.88836 0
M  V30 6800 H 628.333 -1.76946 3.90369 0
M  V30 6801 H 632.517 -1.33133 4.7811 0
M  V30 6802 H 627.773 -0.747563 6.06813 0
M  V30 6803 H 631.947 -0.317291 6.95677 0
M  V30 6804 H 629.574 -0.0195936 7.60197 0
M  V30 6805 N 631.149 -1.42148 -0.680565 0
M  V30 6806 C 632.081 -1.41119 -1.80605 0
M  V30 6807 C 633.094 -0.311099 -1.598 0
M  V30 6808 O 634.283 -0.573813 -1.69026 0
M  V30 6809 C 631.383 -1.18204 -3.17618 0
M  V30 6810 C 630.556 -2.40537 -3.65322 0
M  V30 6811 C 629.615 -2.13254 -4.8105 0
M  V30 6812 O 628.641 -2.8641 -4.91892 0
M  V30 6813 N 629.843 -1.13208 -5.69354 0
M  V30 6814 H 632.608 -2.38128 -1.81975 0
M  V30 6815 H 630.169 -1.36953 -0.863446 0
M  V30 6816 H 632.161 -0.97878 -3.92686 0
M  V30 6817 H 630.731 -0.29738 -3.11182 0
M  V30 6818 H 629.951 -2.76468 -2.80996 0
M  V30 6819 H 631.239 -3.22012 -3.93936 0
M  V30 6820 H 630.637 -0.526893 -5.63241 0
M  V30 6821 H 629.194 -0.988699 -6.44258 0
M  V30 6822 N 632.627 0.916307 -1.28225 0
M  V30 6823 C 633.575 2.03977 -1.11786 0
M  V30 6824 C 634.569 1.69358 -0.0378265 0
M  V30 6825 O 635.775 1.78925 -0.196405 0
M  V30 6826 H 632.15 0.66829 -0.344809 0
M  V30 6827 H 634.121 2.14985 -2.06939 0
M  V30 6828 C 632.87 3.38518 -0.7938 0
M  V30 6829 H 632.193 3.65649 -1.61682 0
M  V30 6830 H 633.633 4.17864 -0.718719 0
M  V30 6831 C 632.092 3.33134 0.502353 0
M  V30 6832 O 632.622 3.71281 1.53341 0
M  V30 6833 N 630.828 2.86229 0.502147 0
M  V30 6834 H 630.375 2.55382 -0.337338 0
M  V30 6835 H 630.333 2.83009 1.36942 0
M  V30 6836 N 634.105 1.10431 1.1244 0
M  V30 6837 C 635.068 0.756542 2.16354 0
M  V30 6838 C 636.068 -0.21899 1.59302 0
M  V30 6839 O 637.258 0.00415969 1.742 0
M  V30 6840 C 634.39 0.120612 3.40687 0
M  V30 6841 H 635.583 1.67696 2.48632 0
M  V30 6842 H 633.136 0.904832 1.27446 0
M  V30 6843 H 633.871 -0.810536 3.14008 0
M  V30 6844 H 633.656 0.822693 3.83372 0
M  V30 6845 H 635.146 -0.106945 4.17463 0
M  V30 6846 N 635.583 -1.29855 0.893053 0
M  V30 6847 C 636.513 -2.3035 0.382249 0
M  V30 6848 C 637.494 -1.61328 -0.539203 0
M  V30 6849 O 638.679 -1.88882 -0.451342 0
M  V30 6850 C 635.809 -3.45024 -0.396983 0
M  V30 6851 C 634.763 -4.258 0.433437 0
M  V30 6852 C 634.089 -5.32605 -0.472889 0
M  V30 6853 C 635.389 -4.94549 1.67984 0
M  V30 6854 H 637.083 -2.73325 1.22205 0
M  V30 6855 H 634.629 -1.314 0.589073 0
M  V30 6856 H 636.582 -4.14398 -0.765024 0
M  V30 6857 H 635.306 -3.00875 -1.2705 0
M  V30 6858 H 633.965 -3.58125 0.783723 0
M  V30 6859 H 633.613 -4.84702 -1.34435 0
M  V30 6860 H 633.313 -5.87547 0.0789958 0
M  V30 6861 H 634.837 -6.04832 -0.837269 0
M  V30 6862 H 636.251 -5.56395 1.38192 0
M  V30 6863 H 634.648 -5.59393 2.17254 0
M  V30 6864 H 635.718 -4.20215 2.41965 0
M  V30 6865 N 637.061 -0.65484 -1.43351 0
M  V30 6866 C 637.991 0.0221809 -2.33489 0
M  V30 6867 C 638.972 0.810272 -1.49561 0
M  V30 6868 O 640.157 0.771426 -1.78221 0
M  V30 6869 C 637.287 0.988117 -3.32947 0
M  V30 6870 C 636.241 0.310026 -4.26876 0
M  V30 6871 C 635.567 1.38752 -5.16384 0
M  V30 6872 C 636.867 -0.798589 -5.16159 0
M  V30 6873 H 638.561 -0.730571 -2.9035 0
M  V30 6874 H 636.107 -0.352773 -1.39612 0
M  V30 6875 H 638.06 1.47067 -3.94904 0
M  V30 6876 H 636.784 1.77205 -2.74346 0
M  V30 6877 H 635.443 -0.152097 -3.66284 0
M  V30 6878 H 635.091 2.16293 -4.54121 0
M  V30 6879 H 634.791 0.939051 -5.80048 0
M  V30 6880 H 636.315 1.87141 -5.81215 0
M  V30 6881 H 637.729 -0.398126 -5.71916 0
M  V30 6882 H 636.126 -1.17163 -5.88552 0
M  V30 6883 H 637.196 -1.65588 -4.55751 0
M  V30 6884 N 638.539 1.52521 -0.396863 0
M  V30 6885 C 639.785 2.01971 0.183169 0
M  V30 6886 C 640.118 1.2825 1.45827 0
M  V30 6887 O 639.393 0.385179 1.90648 0
M  V30 6888 C 639.676 3.5736 0.443391 0
M  V30 6889 C 639.529 4.41743 -0.84753 0
M  V30 6890 C 640.848 4.22539 1.2308 0
M  V30 6891 H 637.967 0.734119 0.0650976 0
M  V30 6892 H 640.609 1.82519 -0.527918 0
M  V30 6893 H 638.759 3.74066 1.04914 0
M  V30 6894 H 640.431 4.36773 -1.48414 0
M  V30 6895 H 638.674 4.0845 -1.4612 0
M  V30 6896 H 639.345 5.48507 -0.620003 0
M  V30 6897 H 641.821 4.09857 0.718084 0
M  V30 6898 H 640.697 5.31227 1.38162 0
M  V30 6899 H 640.958 3.80675 2.24808 0
M  V30 6900 N 640.017 0.126909 1.57088 0
M  V30 6901 C 641.433 -0.229641 1.57939 0
M  V30 6902 C 641.633 -1.66145 1.1401 0
M  V30 6903 O 640.689 -2.3843 0.831119 0
M  V30 6904 C 642.002 0.0108648 3.00698 0
M  V30 6905 C 643.55 -0.054418 3.12953 0
M  V30 6906 C 644.025 0.158497 4.57726 0
M  V30 6907 N 645.516 0.104735 4.63082 0
M  V30 6908 C 646.251 0.24427 5.72879 0
M  V30 6909 N 645.747 0.440415 6.91399 0
M  V30 6910 N 647.54 0.183286 5.61801 0
M  V30 6911 H 639.691 1.06203 1.83942 0
M  V30 6912 H 641.954 0.418834 0.85046 0
M  V30 6913 H 641.66 1.00102 3.37154 0
M  V30 6914 H 641.534 -0.717512 3.70313 0
M  V30 6915 H 643.921 -1.0351 2.7635 0
M  V30 6916 H 644.002 0.705967 2.45865 0
M  V30 6917 H 643.646 1.13619 4.95028 0
M  V30 6918 H 643.576 -0.62197 5.22914 0
M  V30 6919 H 646.067 -0.0430298 3.77876 0
M  V30 6920 H 646.38 0.537536 7.70928 0
M  V30 6921 H 644.725 0.476488 6.93365 0
M  V30 6922 H 647.916 0.0309561 4.6809 0
M  V30 6923 H 648.089 0.295471 6.47326 0
M  V30 6924 N 641.495 -1.56914 -0.146875 0
M  V30 6925 C 642.725 -1.87243 -0.873126 0
M  V30 6926 C 643.133 -0.713127 -1.75246 0
M  V30 6927 O 642.476 0.326228 -1.8078 0
M  V30 6928 C 642.538 -3.12279 -1.78107 0
M  V30 6929 C 642.202 -4.44082 -1.07889 0
M  V30 6930 C 643.199 -5.18096 -0.432734 0
M  V30 6931 C 640.884 -4.90807 -1.06836 0
M  V30 6932 C 642.878 -6.37039 0.214569 0
M  V30 6933 C 640.565 -6.09674 -0.417243 0
M  V30 6934 C 641.563 -6.82636 0.223093 0
M  V30 6935 O 641.251 -7.99245 0.863884 0
M  V30 6936 H 640.983 -0.624896 -0.257839 0
M  V30 6937 H 643.537 -2.04892 -0.14434 0
M  V30 6938 H 641.767 -2.90639 -2.5508 0
M  V30 6939 H 643.456 -3.28854 -2.37929 0
M  V30 6940 H 644.222 -4.83066 -0.432677 0
M  V30 6941 H 640.101 -4.3394 -1.55618 0
M  V30 6942 H 643.645 -6.93927 0.714965 0
M  V30 6943 H 639.542 -6.44165 -0.414967 0
M  V30 6944 H 640.31 -8.14912 0.765564 0
M  V30 6945 N 642.974 0.416227 -1.52004 0
M  V30 6946 C 644.202 1.18573 -1.69553 0
M  V30 6947 C 644.617 1.84472 -0.401919 0
M  V30 6948 O 643.974 1.71593 0.621463 0
M  V30 6949 C 644.025 2.25413 -2.82615 0
M  V30 6950 O 643.746 1.62205 -4.06966 0
M  V30 6951 C 645.247 3.15297 -3.11613 0
M  V30 6952 H 642.467 0.356582 -0.56841 0
M  V30 6953 H 645.011 0.490618 -1.98528 0
M  V30 6954 H 643.166 2.90604 -2.56179 0
M  V30 6955 H 643.58 2.3298 -4.69916 0
M  V30 6956 H 645.054 3.86351 -3.94255 0
M  V30 6957 H 645.531 3.77264 -2.24874 0
M  V30 6958 H 646.137 2.55783 -3.39787 0
M  V30 6959 N 644.452 1.42507 0.673017 0
M  V30 6960 C 645.399 1.46124 1.78651 0
M  V30 6961 C 646.369 0.313007 1.63124 0
M  V30 6962 O 647.554 0.517337 1.83653 0
M  V30 6963 C 644.694 1.3711 3.16694 0
M  V30 6964 C 643.807 2.61983 3.43495 0
M  V30 6965 C 642.942 2.45098 4.71275 0
M  V30 6966 C 641.981 3.65336 4.91117 0
M  V30 6967 N 641.118 3.47383 6.10139 0
M  V30 6968 H 645.958 2.4128 1.74895 0
M  V30 6969 H 643.495 1.19788 0.853766 0
M  V30 6970 H 645.453 1.29881 3.96468 0
M  V30 6971 H 644.083 0.45549 3.1957 0
M  V30 6972 H 643.135 2.79571 2.57961 0
M  V30 6973 H 644.447 3.51355 3.5405 0
M  V30 6974 H 643.601 2.35466 5.59143 0
M  V30 6975 H 642.34 1.53219 4.63007 0
M  V30 6976 H 641.345 3.754 4.0169 0
M  V30 6977 H 642.57 4.58199 5.01229 0
M  V30 6978 H 640.516 2.58222 6.0304 0
M  V30 6979 H 640.433 4.30344 6.21563 0
M  V30 6980 H 641.701 3.41565 7.00681 0
M  V30 6981 N 645.93 -0.909495 1.28709 0
M  V30 6982 C 646.877 -2.01245 1.13 0
M  V30 6983 C 647.847 -1.6608 0.0259684 0
M  V30 6984 O 649.032 -1.89835 0.191687 0
M  V30 6985 C 646.172 -3.35644 0.802315 0
M  V30 6986 C 645.285 -3.83653 1.98582 0
M  V30 6987 C 644.42 -5.06582 1.59837 0
M  V30 6988 C 643.459 -5.46934 2.74827 0
M  V30 6989 N 642.596 -6.61053 2.36546 0
M  V30 6990 H 647.436 -2.14013 2.0737 0
M  V30 6991 H 644.973 -1.0482 1.03205 0
M  V30 6992 H 646.931 -4.12963 0.593057 0
M  V30 6993 H 645.561 -3.22631 -0.104457 0
M  V30 6994 H 644.613 -3.02454 2.30708 0
M  V30 6995 H 645.925 -4.09515 2.84779 0
M  V30 6996 H 645.079 -5.91457 1.35143 0
M  V30 6997 H 643.818 -4.82537 0.707753 0
M  V30 6998 H 642.823 -4.60599 3.00215 0
M  V30 6999 H 644.048 -5.72965 3.64538 0
M  V30 7000 H 641.994 -6.3863 1.49959 0
M  V30 7001 H 641.911 -6.86662 3.16277 0
M  V30 7002 H 643.179 -7.49221 2.15146 0
M  V30 7003 N 647.408 -1.11026 -1.11852 0
M  V30 7004 C 648.654 -0.857729 -1.83768 0
M  V30 7005 C 648.987 0.615143 -1.842 0
M  V30 7006 O 648.262 1.45391 -1.29196 0
M  V30 7007 C 648.545 -1.41453 -3.31154 0
M  V30 7008 C 648.398 -2.95471 -3.39142 0
M  V30 7009 C 649.717 -1.0619 -4.27097 0
M  V30 7010 H 646.836 -0.313044 -0.667212 0
M  V30 7011 H 649.478 -1.37443 -1.31185 0
M  V30 7012 H 647.628 -0.975052 -3.76065 0
M  V30 7013 H 649.3 -3.4799 -3.02821 0
M  V30 7014 H 647.543 -3.31759 -2.79497 0
M  V30 7015 H 648.214 -3.29515 -4.42859 0
M  V30 7016 H 650.69 -1.44122 -3.90344 0
M  V30 7017 H 649.566 -1.47832 -5.28618 0
M  V30 7018 H 649.827 0.0278912 -4.42091 0
M  V30 7019 N 648.886 1.2938 -0.899927 0
M  V30 7020 C 650.297 1.77644 -0.574427 0
M  V30 7021 C 650.648 1.73824 0.909928 0
M  V30 7022 O 649.773 1.32429 1.71147 0
M  V30 7023 C 650.368 3.22573 -1.03595 0
M  V30 7024 C 648.927 3.68614 -0.76161 0
M  V30 7025 C 648.074 2.49483 -1.21052 0
M  V30 7026 H 651.025 1.16038 -1.08263 0
M  V30 7027 H 651.046 3.78684 -0.371337 0
M  V30 7028 H 650.558 3.25321 -2.11631 0
M  V30 7029 H 648.659 3.7134 0.306127 0
M  V30 7030 H 648.772 4.59402 -1.35965 0
M  V30 7031 H 647.136 2.46798 -0.629515 0
M  V30 7032 H 647.919 2.54959 -2.29893 0
M  V30 7033 N 650.364 0.662433 1.43002 0
M  V30 7034 C 651.296 -0.062326 2.29115 0
M  V30 7035 C 652.309 -0.777926 1.43011 0
M  V30 7036 O 653.498 -0.634146 1.66856 0
M  V30 7037 C 650.598 -1.11163 3.2015 0
M  V30 7038 C 649.771 -0.472327 4.34842 0
M  V30 7039 C 648.83 -1.41974 5.06685 0
M  V30 7040 O 647.856 -0.924795 5.61637 0
M  V30 7041 N 649.058 -2.75345 5.11043 0
M  V30 7042 H 651.823 0.676838 2.91957 0
M  V30 7043 H 649.384 0.505907 1.53793 0
M  V30 7044 H 651.376 -1.74643 3.65078 0
M  V30 7045 H 649.946 -1.75266 2.58845 0
M  V30 7046 H 649.166 0.341751 3.92716 0
M  V30 7047 H 650.454 -0.0264381 5.08793 0
M  V30 7048 H 649.852 -3.18108 4.67786 0
M  V30 7049 H 648.409 -3.34105 5.59658 0
M  V30 7050 N 651.842 -1.52309 0.404946 0
M  V30 7051 C 653.088 -2.02065 -0.172455 0
M  V30 7052 C 653.421 -1.29022 -1.45145 0
M  V30 7053 O 652.696 -0.395284 -1.90441 0
M  V30 7054 C 652.979 -3.5759 -0.424433 0
M  V30 7055 C 652.832 -4.41287 0.870945 0
M  V30 7056 C 654.151 -4.23186 -1.20837 0
M  V30 7057 H 651.27 -0.734454 -0.0612035 0
M  V30 7058 H 653.912 -1.82236 0.53759 0
M  V30 7059 H 652.062 -3.74617 -1.02929 0
M  V30 7060 H 653.734 -4.3598 1.50729 0
M  V30 7061 H 651.977 -4.07669 1.48284 0
M  V30 7062 H 652.648 -5.48171 0.649083 0
M  V30 7063 H 655.124 -4.10232 -0.696338 0
M  V30 7064 H 654 -5.31953 -1.35343 0
M  V30 7065 H 654.261 -3.81862 -2.22786 0
M  V30 7066 N 653.32 -0.135238 -1.57019 0
M  V30 7067 C 654.545 0.529343 -2.00531 0
M  V30 7068 C 654.97 1.58391 -1.01459 0
M  V30 7069 O 654.328 1.81296 0.0113986 0
M  V30 7070 C 654.376 1.11748 -3.42848 0
M  V30 7071 O 653.48 2.23267 -3.46736 0
M  V30 7072 H 652.821 0.130669 -0.651016 0
M  V30 7073 H 655.351 -0.228503 -2.0332 0
M  V30 7074 H 655.361 1.44905 -3.81401 0
M  V30 7075 H 654.036 0.345147 -4.14465 0
M  V30 7076 H 652.613 1.91428 -3.20015 0
M  V30 7077 N 654.798 1.5699 0.138552 0
M  V30 7078 C 656.026 1.87976 0.864437 0
M  V30 7079 C 656.441 0.724372 1.74351 0
M  V30 7080 O 655.798 -0.305575 1.79924 0
M  V30 7081 C 655.849 3.18276 1.71414 0
M  V30 7082 O 655.57 4.29365 0.870487 0
M  V30 7083 C 657.071 3.62834 2.54688 0
M  V30 7084 H 654.291 0.622878 0.249528 0
M  V30 7085 H 656.835 2.04094 0.128805 0
M  V30 7086 H 654.99 3.03886 2.40274 0
M  V30 7087 H 655.404 5.03924 1.45466 0
M  V30 7088 H 656.878 4.5682 3.0987 0
M  V30 7089 H 657.355 2.88533 3.31127 0
M  V30 7090 H 657.961 3.79946 1.91105 0
M  V30 7091 N 656.276 -0.40816 1.52223 0
M  V30 7092 C 657.687 -0.986929 1.58482 0
M  V30 7093 C 658.038 -1.91521 0.425917 0
M  V30 7094 O 657.163 -2.11593 -0.453593 0
M  V30 7095 C 657.758 -1.7967 2.87235 0
M  V30 7096 C 656.317 -2.32549 2.9597 0
M  V30 7097 C 655.464 -1.12558 2.53428 0
M  V30 7098 H 658.415 -0.188362 1.57578 0
M  V30 7099 H 658.436 -2.65417 2.72642 0
M  V30 7100 H 657.948 -1.12082 3.71563 0
M  V30 7101 H 656.049 -3.03505 2.16137 0
M  V30 7102 H 656.162 -2.63348 4.00231 0
M  V30 7103 H 654.526 -1.47984 2.07299 0
M  V30 7104 H 655.309 -0.465351 3.40131 0
M  V30 7105 N 657.755 -1.42862 -0.66545 0
M  V30 7106 C 658.983 -1.47246 -1.45349 0
M  V30 7107 C 659.398 -0.0865944 -1.88601 0
M  V30 7108 O 658.755 0.900652 -1.58728 0
M  V30 7109 C 658.806 -2.40772 -2.6965 0
M  V30 7110 O 658.527 -3.73968 -2.2821 0
M  V30 7111 C 660.028 -2.54272 -3.63126 0
M  V30 7112 H 657.248 -0.500497 -0.446927 0
M  V30 7113 H 659.792 -1.87477 -0.816871 0
M  V30 7114 H 657.947 -2.0377 -3.29479 0
M  V30 7115 H 658.361 -4.24146 -3.08546 0
M  V30 7116 H 659.835 -3.23815 -4.47043 0
M  V30 7117 H 660.312 -1.58364 -4.09656 0
M  V30 7118 H 660.918 -2.92036 -3.09185 0
M  V30 7119 N 659.233 0.902656 -1.29189 0
M  V30 7120 C 660.163 2.02294 -1.16616 0
M  V30 7121 C 661.144 1.6999 -0.0611175 0
M  V30 7122 O 662.329 1.9271 -0.240072 0
M  V30 7123 C 659.459 3.37018 -0.83882 0
M  V30 7124 C 658.413 3.83522 -1.89986 0
M  V30 7125 C 657.739 5.15337 -1.42589 0
M  V30 7126 C 659.039 4.04169 -3.30824 0
M  V30 7127 H 660.733 2.13071 -2.10336 0
M  V30 7128 H 658.279 1.02378 -1.01266 0
M  V30 7129 H 660.232 4.14895 -0.737584 0
M  V30 7130 H 658.956 3.26325 0.134071 0
M  V30 7131 H 657.615 3.07859 -1.99043 0
M  V30 7132 H 657.263 5.01056 -0.441759 0
M  V30 7133 H 656.963 5.47423 -2.13547 0
M  V30 7134 H 658.487 5.95758 -1.3381 0
M  V30 7135 H 659.901 4.72537 -3.24626 0
M  V30 7136 H 658.298 4.47604 -3.99713 0
M  V30 7137 H 659.368 3.08604 -3.74021 0
M  V30 7138 N 660.711 1.11618 1.11262 0
M  V30 7139 C 661.957 0.867463 1.83311 0
M  V30 7140 C 662.29 -0.605366 1.84524 0
M  V30 7141 O 661.565 -1.44704 1.29965 0
M  V30 7142 C 661.848 1.43207 3.30399 0
M  V30 7143 C 661.701 2.97265 3.3757 0
M  V30 7144 C 663.02 1.08454 4.26528 0
M  V30 7145 H 660.139 0.316578 0.665543 0
M  V30 7146 H 662.781 1.38137 1.30454 0
M  V30 7147 H 660.931 0.994982 3.75543 0
M  V30 7148 H 662.603 3.49591 3.00971 0
M  V30 7149 H 660.846 3.33237 2.77733 0
M  V30 7150 H 661.517 3.31859 4.41105 0
M  V30 7151 H 663.993 1.4619 3.89574 0
M  V30 7152 H 662.869 1.50633 5.27826 0
M  V30 7153 H 663.13 -0.00444568 4.421 0
M  V30 7154 N 662.189 -1.289 0.906776 0
M  V30 7155 C 663.099 -2.31256 0.394707 0
M  V30 7156 C 664.115 -1.66231 -0.514121 0
M  V30 7157 O 665.291 -1.97347 -0.401994 0
M  V30 7158 C 662.356 -3.44792 -0.363191 0
M  V30 7159 C 661.417 -4.25391 0.578012 0
M  V30 7160 C 660.65 -5.33506 -0.143811 0
M  V30 7161 O 660.873 -5.53786 -1.36665 0
M  V30 7162 O 659.807 -5.99673 0.5173 0
M  V30 7163 H 663.633 -2.77051 1.24405 0
M  V30 7164 H 661.218 -1.33466 0.671346 0
M  V30 7165 H 663.1 -4.139 -0.791503 0
M  V30 7166 H 661.775 -3.01093 -1.18848 0
M  V30 7167 H 660.682 -3.58899 1.05558 0
M  V30 7168 H 662.015 -4.72752 1.36992 0
M  V30 7169 N 663.667 -0.670007 -1.42649 0
M  V30 7170 C 664.913 -0.190568 -2.01903 0
M  V30 7171 C 665.246 1.19817 -1.52832 0
M  V30 7172 O 664.521 1.80342 -0.728485 0
M  V30 7173 C 664.804 -0.21991 -3.59428 0
M  V30 7174 C 664.657 -1.64376 -4.18689 0
M  V30 7175 C 665.976 0.434519 -4.3795 0
M  V30 7176 H 663.095 -0.0707219 -0.733599 0
M  V30 7177 H 665.737 -0.853883 -1.69732 0
M  V30 7178 H 663.887 0.344894 -3.86966 0
M  V30 7179 H 665.559 -2.26044 -4.02122 0
M  V30 7180 H 663.802 -2.18591 -3.747 0
M  V30 7181 H 664.473 -1.61601 -5.27815 0
M  V30 7182 H 666.949 -0.0462156 -4.16074 0
M  V30 7183 H 665.825 0.38333 -5.4756 0
M  V30 7184 H 666.086 1.51135 -4.15464 0
M  V30 7185 N 665.145 1.52092 -0.413018 0
M  V30 7186 C 666.37 2.06756 0.163338 0
M  V30 7187 C 666.795 1.28073 1.37764 0
M  V30 7188 O 666.153 0.312015 1.78595 0
M  V30 7189 C 666.201 3.57278 0.488322 0
M  V30 7190 O 665.305 3.80986 1.57871 0
M  V30 7191 H 664.646 0.663882 0.0125068 0
M  V30 7192 H 667.176 1.95988 -0.587339 0
M  V30 7193 H 667.186 4.01125 0.745836 0
M  V30 7194 H 665.861 4.13978 -0.399327 0
M  V30 7195 H 664.438 3.49017 1.31306 0
M  V30 7196 N 666.623 0.143563 1.56945 0
M  V30 7197 C 668.039 -0.212877 1.58174 0
M  V30 7198 C 668.239 -1.64926 1.15766 0
M  V30 7199 O 667.295 -2.37535 0.856361 0
M  V30 7200 C 668.608 0.0427573 3.0067 0
M  V30 7201 C 670.156 -0.0212221 3.12993 0
M  V30 7202 C 670.631 0.207036 4.57532 0
M  V30 7203 N 672.122 0.153845 4.62944 0
M  V30 7204 C 672.857 0.305018 5.72588 0
M  V30 7205 N 672.353 0.513722 6.90893 0
M  V30 7206 N 674.146 0.242862 5.61575 0
M  V30 7207 H 666.297 1.08148 1.82805 0
M  V30 7208 H 668.56 0.427831 0.84597 0
M  V30 7209 H 668.266 1.03672 3.36073 0
M  V30 7210 H 668.14 -0.678195 3.71053 0
M  V30 7211 H 670.527 -1.00574 2.77433 0
M  V30 7212 H 670.608 0.732004 2.45103 0
M  V30 7213 H 670.252 1.18863 4.93795 0
M  V30 7214 H 670.182 -0.566473 5.23544 0
M  V30 7215 H 672.673 -0.00294866 3.779 0
M  V30 7216 H 672.986 0.619273 7.70315 0
M  V30 7217 H 671.331 0.550001 6.9282 0
M  V30 7218 H 674.522 0.0806015 4.68031 0
M  V30 7219 H 674.695 0.364112 6.46976 0
M  V30 7220 N 668.101 -1.57061 -0.130224 0
M  V30 7221 C 669.049 -2.00486 -1.17933 0
M  V30 7222 C 670.043 -0.899933 -1.43519 0
M  V30 7223 O 671.249 -1.08514 -1.43613 0
M  V30 7224 H 667.624 -0.638441 -0.397363 0
M  V30 7225 H 669.595 -2.87848 -0.786501 0
M  V30 7226 C 668.344 -2.41565 -2.50084 0
M  V30 7227 H 667.667 -3.26148 -2.31231 0
M  V30 7228 H 669.107 -2.75757 -3.22078 0
M  V30 7229 C 667.566 -1.27485 -3.11848 0
M  V30 7230 O 668.096 -0.584688 -3.97422 0
M  V30 7231 N 666.302 -1.03478 -2.71552 0
M  V30 7232 H 665.849 -1.59779 -2.02061 0
M  V30 7233 H 665.807 -0.27341 -3.13209 0
M  V30 7234 N 669.579 0.400081 -1.52437 0
M  V30 7235 C 670.509 1.4947 -1.7939 0
M  V30 7236 C 671.49 1.57383 -0.645329 0
M  V30 7237 O 672.675 1.72511 -0.891826 0
M  V30 7238 C 669.805 2.87201 -1.95276 0
M  V30 7239 C 668.759 2.94134 -3.10917 0
M  V30 7240 C 668.085 4.34207 -3.1204 0
M  V30 7241 C 669.385 2.64791 -4.50203 0
M  V30 7242 H 671.079 1.27165 -2.71052 0
M  V30 7243 H 668.625 0.610312 -1.30427 0
M  V30 7244 H 670.578 3.63772 -2.12715 0
M  V30 7245 H 669.302 3.10819 -1.00294 0
M  V30 7246 H 667.961 2.20009 -2.93243 0
M  V30 7247 H 667.609 4.54848 -2.14761 0
M  V30 7248 H 667.309 4.39768 -3.89715 0
M  V30 7249 H 668.833 5.127 -3.31619 0
M  V30 7250 H 670.247 3.31083 -4.68035 0
M  V30 7251 H 668.644 2.81717 -5.29864 0
M  V30 7252 H 669.714 1.60184 -4.57678 0
M  V30 7253 N 671.057 1.43213 0.657864 0
M  V30 7254 C 672.305 1.44298 1.41501 0
M  V30 7255 C 672.626 0.0666478 1.94886 0
M  V30 7256 O 671.896 -0.897345 1.74139 0
M  V30 7257 H 670.476 0.531257 0.525143 0
M  V30 7258 H 673.138 1.78777 0.776195 0
M  V30 7259 H 672.234 2.1528 2.25966 0
M  V30 7260 N 672.536 -0.895792 1.29666 0
M  V30 7261 C 673.483 -2.00035 1.15129 0
M  V30 7262 C 674.453 -1.66043 0.0435819 0
M  V30 7263 O 675.638 -1.89621 0.211811 0
M  V30 7264 C 672.778 -3.34774 0.83787 0
M  V30 7265 C 671.891 -3.81525 2.0264 0
M  V30 7266 C 671.026 -5.04858 1.65201 0
M  V30 7267 C 670.065 -5.43988 2.80612 0
M  V30 7268 N 669.202 -6.58507 2.43544 0
M  V30 7269 H 674.042 -2.11802 2.09628 0
M  V30 7270 H 671.579 -1.03719 1.04311 0
M  V30 7271 H 673.537 -4.12311 0.636824 0
M  V30 7272 H 672.167 -3.22724 -0.0702314 0
M  V30 7273 H 671.219 -2.9999 2.33903 0
M  V30 7274 H 672.531 -4.06472 2.89106 0
M  V30 7275 H 671.685 -5.8999 1.41408 0
M  V30 7276 H 670.424 -4.81759 0.758893 0
M  V30 7277 H 669.429 -4.57388 3.05083 0
M  V30 7278 H 670.654 -5.69066 3.70595 0
M  V30 7279 H 668.6 -6.37004 1.56724 0
M  V30 7280 H 668.517 -6.83269 3.23542 0
M  V30 7281 H 669.785 -7.46897 2.2308 0
M  V30 7282 N 674.014 -1.12206 -1.10668 0
M  V30 7283 C 675.26 -0.877172 -1.82848 0
M  V30 7284 C 675.593 0.595571 -1.84842 0
M  V30 7285 O 674.868 1.44013 -1.30731 0
M  V30 7286 C 675.151 -1.44957 -3.29635 0
M  V30 7287 C 675.004 -2.99051 -3.35989 0
M  V30 7288 C 676.323 -1.10714 -4.25946 0
M  V30 7289 H 673.442 -0.320103 -0.663854 0
M  V30 7290 H 676.084 -1.38827 -1.2972 0
M  V30 7291 H 674.234 -1.01488 -3.7501 0
M  V30 7292 H 675.906 -3.51182 -2.99113 0
M  V30 7293 H 674.149 -3.34705 -2.75962 0
M  V30 7294 H 674.82 -3.34194 -4.39339 0
M  V30 7295 H 677.296 -1.48254 -3.88793 0
M  V30 7296 H 676.172 -1.5343 -5.2702 0
M  V30 7297 H 676.433 -0.019 -4.42096 0
M  V30 7298 N 675.492 1.28418 -0.913599 0
M  V30 7299 C 676.74 1.94596 -0.545594 0
M  V30 7300 C 677.061 1.7227 0.913668 0
M  V30 7301 O 676.331 1.06233 1.64595 0
M  V30 7302 H 674.911 0.720065 -0.198783 0
M  V30 7303 H 677.573 1.56404 -1.16292 0
M  V30 7304 H 676.669 3.03202 -0.739911 0
M  V30 7305 N 676.97 0.677563 1.42291 0
M  V30 7306 C 678.195 0.207901 2.06355 0
M  V30 7307 C 678.62 -1.12723 1.50583 0
M  V30 7308 O 677.978 -1.70171 0.62543 0
M  V30 7309 C 678.026 0.156489 3.6026 0
M  V30 7310 O 677.13 -0.874162 4.03029 0
M  V30 7311 H 676.471 0.106056 0.655475 0
M  V30 7312 H 679.001 0.927354 1.82377 0
M  V30 7313 H 679.011 -0.0187258 4.07996 0
M  V30 7314 H 677.686 1.13101 4.00226 0
M  V30 7315 H 676.263 -0.669764 3.66836 0
M  V30 7316 N 678.448 -1.51871 0.421078 0
M  V30 7317 C 679.395 -2.27334 -0.398508 0
M  V30 7318 C 680.365 -1.30241 -1.03085 0
M  V30 7319 O 681.55 -1.59121 -1.05285 0
M  V30 7320 C 678.69 -3.10664 -1.50272 0
M  V30 7321 C 677.803 -4.2273 -0.890122 0
M  V30 7322 C 676.938 -4.93399 -1.96803 0
M  V30 7323 C 675.977 -5.97409 -1.333 0
M  V30 7324 N 675.114 -6.61548 -2.35156 0
M  V30 7325 H 679.954 -2.96938 0.251411 0
M  V30 7326 H 677.491 -1.46472 0.135825 0
M  V30 7327 H 679.449 -3.57292 -2.15403 0
M  V30 7328 H 678.079 -2.43207 -2.1225 0
M  V30 7329 H 677.131 -3.80186 -0.127537 0
M  V30 7330 H 678.443 -4.97302 -0.386349 0
M  V30 7331 H 677.597 -5.43491 -2.69633 0
M  V30 7332 H 676.336 -4.18421 -2.50549 0
M  V30 7333 H 675.341 -5.46624 -0.59008 0
M  V30 7334 H 676.566 -6.74335 -0.803076 0
M  V30 7335 H 674.512 -5.89394 -2.88012 0
M  V30 7336 H 674.429 -7.31832 -1.89624 0
M  V30 7337 H 675.697 -7.16276 -3.0752 0
M  V30 7338 N 679.926 -0.151884 -1.56866 0
M  V30 7339 C 681.166 0.500695 -1.98173 0
M  V30 7340 C 681.53 1.61715 -1.03499 0
M  V30 7341 O 682.731 2.33093 -1.33869 0
M  V30 7342 C 681.002 0.989333 -3.43434 0
M  V30 7343 S 682.561 1.64583 -4.06765 0
M  V30 7344 H 679.379 0.16173 -0.692361 0
M  V30 7345 H 681.981 -0.244754 -1.93962 0
M  V30 7346 H 680.685 0.166072 -4.10064 0
M  V30 7347 H 680.216 1.76929 -3.51368 0
M  V30 7348 H 682.231 2.93326 -4.00218 0
M  V30 7349 N 681.404 1.57128 0.121893 0
M  V30 7350 C 682.644 1.86517 0.836113 0
M  V30 7351 C 683.008 0.739497 1.77188 0
M  V30 7352 O 684.209 0.91508 2.52744 0
M  V30 7353 C 682.48 3.21129 1.56878 0
M  V30 7354 S 684.039 3.72143 2.32497 0
M  V30 7355 H 680.857 0.653923 0.279115 0
M  V30 7356 H 683.459 1.95271 0.0946254 0
M  V30 7357 H 682.163 4.01002 0.873255 0
M  V30 7358 H 681.694 3.15446 2.35069 0
M  V30 7359 H 683.709 3.43413 3.58164 0
M  V30 7360 N 682.882 -0.391992 1.52647 0
M  V30 7361 C 683.829 -1.47866 1.77213 0
M  V30 7362 C 684.799 -1.54286 0.615223 0
M  V30 7363 O 685.984 -1.7059 0.854622 0
M  V30 7364 C 683.124 -2.85129 1.94411 0
M  V30 7365 C 682.237 -2.87883 3.22098 0
M  V30 7366 C 681.372 -4.16553 3.29631 0
M  V30 7367 C 680.411 -4.13348 4.51453 0
M  V30 7368 N 679.548 -5.33619 4.56284 0
M  V30 7369 H 684.388 -1.26219 2.6995 0
M  V30 7370 H 681.925 -0.612367 1.33748 0
M  V30 7371 H 683.883 -3.64833 2.02367 0
M  V30 7372 H 682.513 -3.05232 1.05038 0
M  V30 7373 H 681.565 -2.00567 3.23229 0
M  V30 7374 H 682.877 -2.81382 4.11856 0
M  V30 7375 H 682.031 -5.0466 3.36753 0
M  V30 7376 H 680.77 -4.25773 2.37842 0
M  V30 7377 H 679.775 -3.23629 4.44459 0
M  V30 7378 H 681 -4.05754 5.44555 0
M  V30 7379 H 678.946 -5.43474 3.67385 0
M  V30 7380 H 678.863 -5.29182 5.3991 0
M  V30 7381 H 680.131 -6.23632 4.67657 0
M  V30 7382 N 684.36 -1.4356 -0.65026 0
M  V30 7383 C 685.31 -1.45392 -1.75628 0
M  V30 7384 C 686.294 -0.322006 -1.57645 0
M  V30 7385 O 687.486 -0.565996 -1.67707 0
M  V30 7386 C 684.615 -1.38254 -3.1423 0
M  V30 7387 C 683.701 -2.56487 -3.3775 0
M  V30 7388 N 684.092 -3.81824 -3.31729 0
M  V30 7389 C 682.39 -2.51274 -3.6848 0
M  V30 7390 C 683.091 -4.60497 -3.55412 0
M  V30 7391 N 682.067 -3.91274 -3.77367 0
M  V30 7392 H 685.869 -2.40167 -1.69402 0
M  V30 7393 H 683.383 -1.38254 -0.852037 0
M  V30 7394 H 685.38 -1.3765 -3.9352 0
M  V30 7395 H 684.04 -0.445019 -3.21636 0
M  V30 7396 H 685.051 -4.14069 -3.11074 0
M  V30 7397 H 681.728 -1.66223 -3.82983 0
M  V30 7398 H 683.118 -5.69518 -3.5651 0
M  V30 7399 N 685.838 0.888903 -1.30139 0
M  V30 7400 C 687.249 1.45578 -1.16893 0
M  V30 7401 C 687.6 1.94825 0.231866 0
M  V30 7402 O 686.725 1.84661 1.12824 0
M  V30 7403 C 687.32 2.646 -2.11595 0
M  V30 7404 C 685.879 3.17389 -2.02339 0
M  V30 7405 C 685.026 1.90081 -2.01902 0
M  V30 7406 H 687.977 0.69921 -1.42467 0
M  V30 7407 H 687.998 3.40687 -1.69449 0
M  V30 7408 H 687.51 2.28726 -3.13538 0
M  V30 7409 H 685.611 3.5793 -1.03523 0
M  V30 7410 H 685.724 3.80955 -2.90534 0
M  V30 7411 H 684.088 2.08246 -1.46648 0
M  V30 7412 H 684.871 1.5647 -3.05568 0
M  V30 7413 N 687.317 1.12792 1.10072 0
M  V30 7414 C 688.227 0.812369 2.20086 0
M  V30 7415 C 689.243 -0.200349 1.72843 0
M  V30 7416 O 690.419 -0.0330262 2.01373 0
M  V30 7417 C 687.484 0.275685 3.45602 0
M  V30 7418 C 686.545 1.34881 4.07561 0
M  V30 7419 C 685.778 0.837639 5.27086 0
M  V30 7420 O 686.001 -0.327224 5.69461 0
M  V30 7421 O 684.935 1.60894 5.79997 0
M  V30 7422 H 688.761 1.73133 2.49517 0
M  V30 7423 H 686.346 0.904863 1.18881 0
M  V30 7424 H 688.228 -0.0185375 4.21396 0
M  V30 7425 H 686.903 -0.615783 3.17789 0
M  V30 7426 H 685.81 1.69625 3.33434 0
M  V30 7427 H 687.143 2.21418 4.39585 0
M  V30 7428 N 688.795 -1.27931 0.920396 0
M  V30 7429 C 689.758 -2.25345 0.41858 0
M  V30 7430 C 690.758 -1.54116 -0.458798 0
M  V30 7431 O 691.948 -1.72235 -0.260912 0
M  V30 7432 C 689.08 -3.38556 -0.399104 0
M  V30 7433 H 690.273 -2.71251 1.27918 0
M  V30 7434 H 687.826 -1.39728 0.700406 0
M  V30 7435 H 688.561 -2.98021 -1.27882 0
M  V30 7436 H 688.346 -3.91426 0.229863 0
M  V30 7437 H 689.836 -4.10976 -0.740817 0
M  V30 7438 N 690.273 -0.685099 -1.4193 0
M  V30 7439 C 691.22 -0.0131869 -2.30796 0
M  V30 7440 C 692.19 0.782129 -1.46533 0
M  V30 7441 O 693.375 0.75229 -1.75343 0
M  V30 7442 C 690.515 0.924768 -3.32479 0
M  V30 7443 C 689.628 0.122181 -4.31827 0
M  V30 7444 C 688.763 1.05682 -5.20581 0
M  V30 7445 C 687.802 0.246526 -6.11603 0
M  V30 7446 N 686.939 1.13442 -6.92875 0
M  V30 7447 H 691.779 -0.776789 -2.87698 0
M  V30 7448 H 689.316 -0.394791 -1.41703 0
M  V30 7449 H 691.274 1.48251 -3.89971 0
M  V30 7450 H 689.904 1.65488 -2.77152 0
M  V30 7451 H 688.956 -0.552335 -3.76369 0
M  V30 7452 H 690.268 -0.506473 -4.96222 0
M  V30 7453 H 689.422 1.68415 -5.82856 0
M  V30 7454 H 688.161 1.71935 -4.56388 0
M  V30 7455 H 687.166 -0.393944 -5.48387 0
M  V30 7456 H 688.391 -0.412053 -6.77849 0
M  V30 7457 H 686.337 1.78316 -6.313 0
M  V30 7458 H 686.254 0.561089 -7.53915 0
M  V30 7459 H 687.522 1.74889 -7.59628 0
M  V30 7460 N 691.751 1.51645 -0.429126 0
M  V30 7461 C 693.167 1.59394 -0.080994 0
M  V30 7462 C 693.367 1.44064 1.40882 0
M  V30 7463 O 692.423 1.27771 2.17786 0
M  V30 7464 C 693.736 2.94779 -0.593773 0
M  V30 7465 C 695.284 3.08067 -0.553494 0
M  V30 7466 C 695.759 4.45963 -1.04311 0
M  V30 7467 N 697.25 4.5226 -1.00076 0
M  V30 7468 C 697.985 5.57268 -1.35056 0
M  V30 7469 N 697.481 6.69734 -1.77282 0
M  V30 7470 N 699.274 5.47582 -1.26925 0
M  V30 7471 H 691.425 1.59856 -1.39857 0
M  V30 7472 H 693.688 0.753095 -0.575805 0
M  V30 7473 H 693.394 3.11342 -1.63583 0
M  V30 7474 H 693.268 3.77197 -0.0142202 0
M  V30 7475 H 695.655 2.91177 0.479556 0
M  V30 7476 H 695.736 2.27508 -1.16935 0
M  V30 7477 H 695.38 4.63598 -2.07459 0
M  V30 7478 H 695.31 5.25049 -0.403873 0
M  V30 7479 H 697.801 3.71537 -0.690564 0
M  V30 7480 H 698.114 7.4587 -2.02232 0
M  V30 7481 H 696.459 6.70963 -1.81202 0
M  V30 7482 H 699.65 4.58604 -0.93809 0
M  V30 7483 H 699.823 6.29308 -1.54516 0
M  V30 7484 N 693.229 0.160201 1.56784 0
M  V30 7485 C 694.162 -0.812797 2.13234 0
M  V30 7486 C 695.14 -1.2335 1.05942 0
M  V30 7487 O 696.324 -1.32725 1.33852 0
M  V30 7488 C 693.451 -2.09311 2.66283 0
M  V30 7489 C 692.497 -1.8173 3.85845 0
M  V30 7490 S 693.33 -0.996473 5.26147 0
M  V30 7491 C 694.486 -2.28769 5.82594 0
M  V30 7492 H 694.719 -0.332794 2.95432 0
M  V30 7493 H 692.252 -0.0542971 1.54304 0
M  V30 7494 H 694.21 -2.82854 2.97496 0
M  V30 7495 H 692.871 -2.54425 1.84192 0
M  V30 7496 H 692.064 -2.76699 4.21253 0
M  V30 7497 H 691.666 -1.16289 3.55462 0
M  V30 7498 H 693.958 -3.24319 5.9483 0
M  V30 7499 H 694.901 -1.97846 6.79899 0
M  V30 7500 H 695.309 -2.40021 5.10931 0
M  V30 7501 N 694.707 -1.5719 -0.113559 0
M  V30 7502 C 696.118 -1.74259 -0.670116 0
M  V30 7503 C 696.469 -0.779694 -1.80042 0
M  V30 7504 O 695.594 0.0461353 -2.16351 0
M  V30 7505 C 696.189 -3.15981 -1.22236 0
M  V30 7506 C 694.748 -3.34537 -1.72516 0
M  V30 7507 C 693.895 -2.70116 -0.627098 0
M  V30 7508 H 696.846 -1.58301 0.112396 0
M  V30 7509 H 696.867 -3.17832 -2.09197 0
M  V30 7510 H 696.379 -3.86038 -0.39949 0
M  V30 7511 H 694.48 -2.6953 -2.57263 0
M  V30 7512 H 694.593 -4.42737 -1.83086 0
M  V30 7513 H 692.957 -2.31501 -1.06204 0
M  V30 7514 H 693.74 -3.42802 0.184889 0
M  V30 7515 N 696.185 0.383891 -1.52853 0
M  V30 7516 C 697.425 1.13731 -1.69837 0
M  V30 7517 C 697.789 1.87086 -0.431611 0
M  V30 7518 O 698.99 2.64518 -0.477886 0
M  V30 7519 C 697.261 2.08551 -2.90243 0
M  V30 7520 S 698.82 2.9166 -3.27841 0
M  V30 7521 H 695.638 0.384911 -0.5978 0
M  V30 7522 H 698.24 0.42103 -1.90913 0
M  V30 7523 H 696.944 1.53392 -3.80656 0
M  V30 7524 H 696.475 2.8468 -2.71516 0
M  V30 7525 H 698.49 4.10723 -2.78426 0
M  V30 7526 N 697.663 1.43903 0.642637 0
M  V30 7527 C 698.626 1.49538 1.73698 0
M  V30 7528 C 699.626 0.378776 1.56275 0
M  V30 7529 O 700.816 0.64095 1.6198 0
M  V30 7530 C 697.948 1.35821 3.12675 0
M  V30 7531 H 699.141 2.47008 1.70079 0
M  V30 7532 H 696.694 1.30824 0.85526 0
M  V30 7533 H 697.429 0.393994 3.21898 0
M  V30 7534 H 697.214 2.16776 3.26727 0
M  V30 7535 H 698.704 1.4272 3.92455 0
M  V30 7536 N 699.141 -0.881989 1.30609 0
M  V30 7537 C 700.051 -2.02076 1.19174 0
M  V30 7538 C 701.067 -1.73645 0.11102 0
M  V30 7539 O 702.243 -1.98735 0.326528 0
M  V30 7540 C 699.308 -3.3515 0.887438 0
M  V30 7541 C 698.369 -3.76983 2.05383 0
M  V30 7542 C 697.602 -5.03707 1.76395 0
M  V30 7543 O 697.825 -5.66171 0.693302 0
M  V30 7544 O 696.759 -5.42019 2.61723 0
M  V30 7545 H 700.585 -2.14652 2.14845 0
M  V30 7546 H 698.17 -1.00843 1.10232 0
M  V30 7547 H 700.052 -4.14975 0.73306 0
M  V30 7548 H 698.727 -3.23676 -0.0393354 0
M  V30 7549 H 697.634 -2.97849 2.26355 0
M  V30 7550 H 698.967 -3.93066 2.96243 0
M  V30 7551 N 700.619 -1.13374 -1.09472 0
M  V30 7552 C 701.896 -0.806329 -1.78207 0
M  V30 7553 C 702.276 0.702191 -1.99079 0
M  V30 7554 O 701.624 1.63931 -1.59182 0
M  V30 7555 C 701.834 -1.59271 -3.10538 0
M  V30 7556 C 703.182 -1.78509 -3.85253 0
M  V30 7557 O 704.206 -1.55866 -3.20288 0
M  V30 7558 O 703.065 -2.16287 -5.01879 0
M  V30 7559 H 700.159 -0.29435 -0.772843 0
M  V30 7560 H 702.705 -1.23833 -1.16033 0
M  V30 7561 H 701.477 -2.61792 -2.90828 0
M  V30 7562 H 701.1 -1.15562 -3.80436 0
M  V30 7563 N 702.098 1.27442 -0.927168 0
M  V30 7564 C 703.328 1.9821 -0.582775 0
M  V30 7565 C 703.736 1.69361 0.843406 0
M  V30 7566 O 703.079 0.950381 1.57205 0
M  V30 7567 C 703.141 3.52048 -0.728165 0
M  V30 7568 C 702.805 4.04518 -2.12637 0
M  V30 7569 C 703.802 4.17332 -3.10048 0
M  V30 7570 C 701.487 4.38879 -2.44317 0
M  V30 7571 C 703.481 4.6378 -4.37249 0
M  V30 7572 C 701.168 4.85018 -3.71753 0
M  V30 7573 C 702.166 4.97428 -4.68033 0
M  V30 7574 O 701.854 5.42556 -5.93202 0
M  V30 7575 H 701.586 0.639314 -0.219667 0
M  V30 7576 H 704.14 1.63272 -1.24626 0
M  V30 7577 H 702.37 3.86699 -0.00758143 0
M  V30 7578 H 704.059 4.04033 -0.388906 0
M  V30 7579 H 704.825 3.91046 -2.86894 0
M  V30 7580 H 700.704 4.28462 -1.70121 0
M  V30 7581 H 704.248 4.73382 -5.12402 0
M  V30 7582 H 700.145 5.10746 -3.94726 0
M  V30 7583 H 700.913 5.60811 -5.96182 0
M  V30 7584 N 703.576 0.692616 1.41565 0
M  V30 7585 C 704.506 0.0397325 2.33466 0
M  V30 7586 C 705.487 -0.770334 1.51657 0
M  V30 7587 O 706.672 -0.723903 1.80203 0
M  V30 7588 C 703.802 -0.899495 3.3545 0
M  V30 7589 C 702.756 -0.196738 4.27548 0
M  V30 7590 C 702.082 -1.25012 5.19881 0
M  V30 7591 C 703.382 0.935158 5.1386 0
M  V30 7592 H 705.076 0.807296 2.88311 0
M  V30 7593 H 702.622 0.389665 1.38628 0
M  V30 7594 H 704.575 -1.36545 3.98665 0
M  V30 7595 H 703.299 -1.69869 2.78948 0
M  V30 7596 H 701.958 0.249158 3.65752 0
M  V30 7597 H 701.606 -2.04177 4.59696 0
M  V30 7598 H 701.306 -0.784931 5.82334 0
M  V30 7599 H 702.83 -1.71665 5.85972 0
M  V30 7600 H 704.244 0.549619 5.70659 0
M  V30 7601 H 702.641 1.32726 5.85238 0
M  V30 7602 H 703.711 1.77613 4.512 0
M  V30 7603 N 705.054 -1.51416 0.437162 0
M  V30 7604 C 706.279 -2.0699 -0.130424 0
M  V30 7605 C 706.704 -1.30249 -1.35709 0
M  V30 7606 O 706.062 -0.340388 -1.78076 0
M  V30 7607 C 706.11 -3.5801 -0.43142 0
M  V30 7608 O 705.214 -3.8345 -1.5179 0
M  V30 7609 H 704.555 -0.663997 -0.00194339 0
M  V30 7610 H 707.085 -1.95029 0.618445 0
M  V30 7611 H 707.095 -4.02261 -0.681926 0
M  V30 7612 H 705.77 -4.13291 0.465137 0
M  V30 7613 H 704.347 -3.51062 -1.25737 0
M  V30 7614 N 706.532 -0.168513 -1.56696 0
M  V30 7615 C 707.778 0.477865 -1.9709 0
M  V30 7616 C 708.111 1.63084 -1.05438 0
M  V30 7617 O 707.386 1.94238 -0.10095 0
M  V30 7618 C 707.669 0.963521 -3.4697 0
M  V30 7619 C 707.522 -0.189443 -4.49401 0
M  V30 7620 C 708.841 1.83813 -3.99876 0
M  V30 7621 H 705.96 0.172229 -0.716593 0
M  V30 7622 H 708.602 -0.254083 -1.88293 0
M  V30 7623 H 706.752 1.58724 -3.54597 0
M  V30 7624 H 708.424 -0.826451 -4.53836 0
M  V30 7625 H 706.667 -0.845366 -4.25483 0
M  V30 7626 H 707.338 0.192446 -5.51664 0
M  V30 7627 H 709.814 1.31235 -3.94863 0
M  V30 7628 H 708.69 2.14697 -5.0517 0
M  V30 7629 H 708.951 2.78289 -3.43523 0
M  V30 7630 N 708.01 1.57248 0.105221 0
M  V30 7631 C 709.256 1.85845 0.811753 0
M  V30 7632 C 709.589 0.756219 1.78871 0
M  V30 7633 O 708.864 -0.236736 1.93054 0
M  V30 7634 C 709.147 3.25059 1.54947 0
M  V30 7635 C 709 4.45898 0.591185 0
M  V30 7636 C 710.319 3.6203 2.50245 0
M  V30 7637 H 707.438 0.675973 0.293649 0
M  V30 7638 H 710.08 1.89849 0.0756269 0
M  V30 7639 H 708.23 3.21776 2.17698 0
M  V30 7640 H 709.902 4.61291 -0.0285352 0
M  V30 7641 H 708.145 4.33693 -0.0962343 0
M  V30 7642 H 708.816 5.40009 1.1443 0
M  V30 7643 H 711.292 3.66192 1.97593 0
M  V30 7644 H 710.168 4.60389 2.98886 0
M  V30 7645 H 710.429 2.90176 3.33542 0
M  V30 7646 N 709.488 -0.375779 1.53054 0
M  V30 7647 C 710.418 -1.46598 1.81745 0
M  V30 7648 C 711.399 -1.56337 0.670286 0
M  V30 7649 O 712.584 -1.71071 0.919158 0
M  V30 7650 C 709.714 -2.84058 1.99821 0
M  V30 7651 C 708.668 -2.8915 3.15557 0
M  V30 7652 C 707.994 -4.29187 3.18908 0
M  V30 7653 C 709.294 -2.57595 4.54359 0
M  V30 7654 H 710.988 -1.22837 2.73041 0
M  V30 7655 H 708.534 -0.589485 1.31381 0
M  V30 7656 H 710.487 -3.60342 2.18475 0
M  V30 7657 H 709.211 -3.09184 1.05226 0
M  V30 7658 H 707.87 -2.15316 2.96706 0
M  V30 7659 H 707.518 -4.51374 2.2197 0
M  V30 7660 H 707.218 -4.33512 3.96662 0
M  V30 7661 H 708.742 -5.07359 3.39734 0
M  V30 7662 H 710.156 -3.23595 4.73243 0
M  V30 7663 H 708.553 -2.73252 5.34279 0
M  V30 7664 H 709.623 -1.52882 4.60169 0
M  V30 7665 N 710.966 -1.44241 -0.634997 0
M  V30 7666 C 711.914 -1.51103 -1.76835 0
M  V30 7667 C 712.908 -0.383051 -1.65012 0
M  V30 7668 O 714.114 -0.557832 -1.71138 0
M  V30 7669 H 710.489 -0.474076 -0.583743 0
M  V30 7670 H 712.46 -2.46499 -1.68169 0
M  V30 7671 C 711.209 -1.4687 -3.15158 0
M  V30 7672 H 710.532 -2.32979 -3.24901 0
M  V30 7673 H 711.972 -1.55731 -3.94365 0
M  V30 7674 C 710.431 -0.188884 -3.3637 0
M  V30 7675 O 710.961 0.742487 -3.94778 0
M  V30 7676 N 709.167 -0.0932516 -2.9045 0
M  V30 7677 H 708.714 -0.852004 -2.43102 0
M  V30 7678 H 708.672 0.762308 -3.05018 0
M  V30 7679 N 712.444 0.87505 -1.31075 0
M  V30 7680 C 713.376 1.98773 -1.14114 0
M  V30 7681 C 714.389 1.62595 -0.0816119 0
M  V30 7682 O 715.578 1.75449 -0.32861 0
M  V30 7683 C 712.678 3.31159 -0.720224 0
M  V30 7684 C 711.851 3.9571 -1.86366 0
M  V30 7685 C 710.91 5.06407 -1.42965 0
M  V30 7686 O 709.936 5.27501 -2.13848 0
M  V30 7687 N 711.138 5.79649 -0.314194 0
M  V30 7688 H 713.903 2.1387 -2.09951 0
M  V30 7689 H 711.464 1.04873 -1.23342 0
M  V30 7690 H 713.456 4.0259 -0.412687 0
M  V30 7691 H 712.026 3.12257 0.146396 0
M  V30 7692 H 711.246 3.17324 -2.33879 0
M  V30 7693 H 712.534 4.35576 -2.62966 0
M  V30 7694 H 711.932 5.65025 0.276228 0
M  V30 7695 H 710.489 6.51766 -0.0661641 0
M  V30 7696 N 713.922 1.13953 1.08869 0
M  V30 7697 C 714.852 0.844824 2.17681 0
M  V30 7698 C 715.833 -0.198213 1.68941 0
M  V30 7699 O 717.018 -0.0559073 1.9412 0
M  V30 7700 C 714.148 0.316325 3.45856 0
M  V30 7701 C 713.102 1.29426 4.07962 0
M  V30 7702 C 712.428 0.625275 5.31031 0
M  V30 7703 C 713.728 2.65484 4.49795 0
M  V30 7704 H 715.422 1.75471 2.42591 0
M  V30 7705 H 712.968 0.845116 1.16592 0
M  V30 7706 H 714.921 0.0977876 4.21287 0
M  V30 7707 H 713.645 -0.628972 3.20486 0
M  V30 7708 H 712.304 1.49889 3.34558 0
M  V30 7709 H 711.952 -0.325678 5.01945 0
M  V30 7710 H 711.652 1.27777 5.73539 0
M  V30 7711 H 713.176 0.416152 6.0918 0
M  V30 7712 H 714.59 2.48957 5.16424 0
M  V30 7713 H 712.987 3.26963 5.03205 0
M  V30 7714 H 714.057 3.22717 3.61914 0
M  V30 7715 N 715.4 -1.26948 0.933913 0
M  V30 7716 C 716.64 -1.9585 0.585003 0
M  V30 7717 C 717.004 -1.71722 -0.858802 0
M  V30 7718 O 718.205 -2.34366 -1.31629 0
M  V30 7719 C 716.476 -3.45638 0.909352 0
M  V30 7720 S 718.035 -4.33656 0.669892 0
M  V30 7721 H 714.853 -0.677485 0.215721 0
M  V30 7722 H 717.455 -1.54051 1.20368 0
M  V30 7723 H 716.159 -3.60697 1.9577 0
M  V30 7724 H 715.69 -3.92401 0.280115 0
M  V30 7725 H 717.705 -4.93975 -0.469378 0
M  V30 7726 N 716.879 -0.700114 -1.41195 0
M  V30 7727 C 718.125 -0.233351 -2.01453 0
M  V30 7728 C 718.458 1.16548 -1.55339 0
M  V30 7729 O 717.733 1.78756 -0.766575 0
M  V30 7730 C 718.016 -0.2961 -3.58881 0
M  V30 7731 C 717.869 -1.7322 -4.15108 0
M  V30 7732 C 719.188 0.341525 -4.38773 0
M  V30 7733 H 716.307 -0.0862667 -0.731934 0
M  V30 7734 H 718.949 -0.889693 -1.67882 0
M  V30 7735 H 717.099 0.262736 -3.87611 0
M  V30 7736 H 718.771 -2.34523 -3.97236 0
M  V30 7737 H 717.014 -2.2649 -3.69979 0
M  V30 7738 H 717.685 -1.7276 -5.24269 0
M  V30 7739 H 720.161 -0.134461 -4.15883 0
M  V30 7740 H 719.037 0.267098 -5.4825 0
M  V30 7741 H 719.298 1.42289 -4.18577 0
M  V30 7742 N 718.357 1.51182 -0.445186 0
M  V30 7743 C 719.287 2.30821 0.352686 0
M  V30 7744 C 720.268 1.36576 1.01395 0
M  V30 7745 O 721.453 1.65497 1.01609 0
M  V30 7746 C 718.583 3.15593 1.44976 0
M  V30 7747 C 717.537 4.1818 0.911553 0
M  V30 7748 C 716.863 4.91523 2.10497 0
M  V30 7749 C 718.163 5.22266 -0.059418 0
M  V30 7750 H 719.857 2.97771 -0.311936 0
M  V30 7751 H 717.403 1.43201 -0.151461 0
M  V30 7752 H 719.356 3.70091 2.01521 0
M  V30 7753 H 718.08 2.4648 2.14278 0
M  V30 7754 H 716.739 3.64746 0.368264 0
M  V30 7755 H 716.387 4.18906 2.78437 0
M  V30 7756 H 716.087 5.60898 1.7512 0
M  V30 7757 H 717.611 5.48847 2.6758 0
M  V30 7758 H 719.025 5.71789 0.415985 0
M  V30 7759 H 717.422 5.99213 -0.326152 0
M  V30 7760 H 718.492 4.7461 -0.993631 0
M  V30 7761 N 719.835 0.176821 1.56605 0
M  V30 7762 C 720.785 -0.763718 2.14829 0
M  V30 7763 C 721.769 -1.18903 1.08401 0
M  V30 7764 O 722.961 -1.15048 1.3451 0
M  V30 7765 C 720.09 -1.99069 2.7969 0
M  V30 7766 C 719.176 -1.58711 3.93283 0
M  V30 7767 N 719.567 -0.893423 4.97847 0
M  V30 7768 C 717.865 -1.87774 4.04545 0
M  V30 7769 C 718.566 -0.693866 5.77547 0
M  V30 7770 N 717.542 -1.23699 5.29339 0
M  V30 7771 H 721.344 -0.224811 2.93039 0
M  V30 7772 H 718.858 -0.0236563 1.62383 0
M  V30 7773 H 720.855 -2.67478 3.19783 0
M  V30 7774 H 719.515 -2.53449 2.02962 0
M  V30 7775 H 720.526 -0.550868 5.14962 0
M  V30 7776 H 717.203 -2.43793 3.38927 0
M  V30 7777 H 718.593 -0.144899 6.71744 0
M  V30 7778 N 721.313 -1.57302 -0.09688 0
M  V30 7779 C 722.223 -2.05258 -1.13606 0
M  V30 7780 C 723.239 -0.977137 -1.43972 0
M  V30 7781 O 724.415 -1.29018 -1.54649 0
M  V30 7782 C 721.48 -2.46593 -2.43706 0
M  V30 7783 C 720.541 -3.68322 -2.20538 0
M  V30 7784 C 719.774 -4.07676 -3.44435 0
M  V30 7785 O 719.997 -3.47141 -4.52603 0
M  V30 7786 O 718.931 -5.00641 -3.34129 0
M  V30 7787 H 722.757 -2.94069 -0.758752 0
M  V30 7788 H 720.342 -1.46164 -0.309263 0
M  V30 7789 H 722.224 -2.73814 -3.20318 0
M  V30 7790 H 720.899 -1.6092 -2.80867 0
M  V30 7791 H 719.806 -3.4622 -1.41713 0
M  V30 7792 H 721.139 -4.54769 -1.88271 0
M  V30 7793 N 722.791 0.367657 -1.53252 0
M  V30 7794 C 723.738 1.45028 -1.79543 0
M  V30 7795 C 724.708 1.53288 -0.63969 0
M  V30 7796 O 725.893 1.69209 -0.881653 0
M  V30 7797 C 723.033 2.82 -1.98923 0
M  V30 7798 C 722.146 2.82722 -3.26638 0
M  V30 7799 C 721.281 4.11257 -3.36216 0
M  V30 7800 C 720.32 4.06113 -4.57972 0
M  V30 7801 N 719.457 5.26293 -4.64715 0
M  V30 7802 H 724.297 1.21908 -2.71923 0
M  V30 7803 H 721.834 0.591011 -1.34705 0
M  V30 7804 H 723.792 3.61568 -2.08146 0
M  V30 7805 H 722.422 3.03523 -1.09881 0
M  V30 7806 H 721.474 1.95399 -3.26379 0
M  V30 7807 H 722.786 2.74794 -4.16281 0
M  V30 7808 H 721.94 4.99239 -3.44739 0
M  V30 7809 H 720.679 4.21935 -2.44586 0
M  V30 7810 H 719.684 3.16517 -4.49552 0
M  V30 7811 H 720.909 3.97039 -5.50942 0
M  V30 7812 H 718.855 5.37561 -3.75985 0
M  V30 7813 H 718.772 5.20526 -5.4826 0
M  V30 7814 H 720.04 6.16113 -4.77519 0
M  V30 7815 N 724.269 1.44576 0.627338 0
M  V30 7816 C 725.497 1.51048 1.41394 0
M  V30 7817 C 725.912 0.136568 1.88305 0
M  V30 7818 O 725.269 -0.858251 1.6106 0
M  V30 7819 C 725.32 2.47837 2.63172 0
M  V30 7820 O 725.041 3.79887 2.18215 0
M  V30 7821 C 726.542 2.63811 3.56257 0
M  V30 7822 H 723.762 0.512171 0.4335 0
M  V30 7823 H 726.306 1.89576 0.766878 0
M  V30 7824 H 724.461 2.12433 3.23961 0
M  V30 7825 H 724.875 4.32177 2.97192 0
M  V30 7826 H 726.349 3.35554 4.38301 0
M  V30 7827 H 726.826 1.69169 4.05313 0
M  V30 7828 H 727.432 3.0013 3.01333 0
M  V30 7829 N 725.747 -0.868086 1.31537 0
M  V30 7830 C 727.158 -1.437 1.19195 0
M  V30 7831 C 727.509 -1.95169 -0.200842 0
M  V30 7832 O 726.634 -1.86432 -1.09872 0
M  V30 7833 C 727.229 -2.612 2.15778 0
M  V30 7834 C 725.788 -3.1413 2.07363 0
M  V30 7835 C 724.935 -1.86845 2.049 0
M  V30 7836 H 727.886 -0.676457 1.43561 0
M  V30 7837 H 727.907 -3.37948 1.74847 0
M  V30 7838 H 727.419 -2.23709 3.17137 0
M  V30 7839 H 725.52 -3.56238 1.09204 0
M  V30 7840 H 725.633 -3.76285 2.96557 0
M  V30 7841 H 723.997 -2.05886 1.49943 0
M  V30 7842 H 724.78 -1.51589 3.08019 0
M  V30 7843 N 727.225 -1.14528 -1.08264 0
M  V30 7844 C 728.471 -0.91576 -1.80947 0
M  V30 7845 C 728.804 0.55623 -1.86064 0
M  V30 7846 O 728.079 1.41207 -1.33756 0
M  V30 7847 C 728.362 -1.51917 -3.26486 0
M  V30 7848 C 728.215 -3.06111 -3.2957 0
M  V30 7849 C 729.534 -1.19724 -4.23502 0
M  V30 7850 H 726.653 -0.334113 -0.656915 0
M  V30 7851 H 729.295 -1.41547 -1.26746 0
M  V30 7852 H 727.445 -1.0942 -3.72773 0
M  V30 7853 H 729.117 -3.57448 -2.91597 0
M  V30 7854 H 727.36 -3.40483 -2.688 0
M  V30 7855 H 728.031 -3.43438 -4.32151 0
M  V30 7856 H 730.507 -1.56467 -3.85561 0
M  V30 7857 H 729.383 -1.64575 -5.23647 0
M  V30 7858 H 729.644 -0.112771 -4.41956 0
M  V30 7859 N 728.703 1.26451 -0.940633 0
M  V30 7860 C 729.928 1.98407 -0.60412 0
M  V30 7861 C 730.353 1.69584 0.81382 0
M  V30 7862 O 729.711 0.943553 1.54812 0
M  V30 7863 C 729.759 3.50387 -0.852136 0
M  V30 7864 O 728.863 4.1233 0.076013 0
M  V30 7865 H 728.204 0.622466 -0.231153 0
M  V30 7866 H 730.734 1.60932 -1.26342 0
M  V30 7867 H 730.744 4.00614 -0.772816 0
M  V30 7868 H 729.419 3.70696 -1.88566 0
M  V30 7869 H 727.996 3.7286 -0.0543187 0
M  V30 7870 N 730.181 0.707592 1.40822 0
M  V30 7871 C 731.458 0.171172 1.9485 0
M  V30 7872 C 731.838 -1.32143 1.64625 0
M  V30 7873 O 731.186 -2.07372 0.959647 0
M  V30 7874 C 731.396 0.475334 3.45748 0
M  V30 7875 C 732.744 0.409625 4.22619 0
M  V30 7876 O 733.768 0.410934 3.53822 0
M  V30 7877 O 732.627 0.380185 5.45176 0
M  V30 7878 H 729.721 0.022015 0.826707 0
M  V30 7879 H 732.267 0.784577 1.50474 0
M  V30 7880 H 731.039 1.50801 3.61075 0
M  V30 7881 H 730.662 -0.168439 3.97243 0
M  V30 7882 N 731.66 -1.50943 0.453197 0
M  V30 7883 C 733.076 -1.59245 0.106342 0
M  V30 7884 C 733.276 -1.46287 -1.38572 0
M  V30 7885 O 732.332 -1.31219 -2.15726 0
M  V30 7886 C 733.645 -2.93797 0.640595 0
M  V30 7887 C 735.193 -3.07148 0.602435 0
M  V30 7888 C 735.668 -4.44247 1.11393 0
M  V30 7889 N 737.159 -4.50611 1.07258 0
M  V30 7890 C 737.894 -5.55049 1.43905 0
M  V30 7891 N 737.39 -6.66828 1.87914 0
M  V30 7892 N 739.183 -5.45494 1.35621 0
M  V30 7893 H 731.334 -1.5761 1.42382 0
M  V30 7894 H 733.597 -0.74384 0.587713 0
M  V30 7895 H 733.303 -3.087 1.68515 0
M  V30 7896 H 733.177 -3.77127 0.0742272 0
M  V30 7897 H 735.564 -2.91903 -0.433171 0
M  V30 7898 H 735.645 -2.25619 1.20539 0
M  V30 7899 H 735.289 -4.60239 2.14808 0
M  V30 7900 H 735.219 -5.2434 0.487353 0
M  V30 7901 H 737.71 -3.70391 0.749585 0
M  V30 7902 H 738.023 -7.42558 2.14072 0
M  V30 7903 H 736.368 -6.67995 1.91853 0
M  V30 7904 H 739.559 -4.57053 1.01093 0
M  V30 7905 H 739.732 -6.2677 1.64508 0
M  V30 7906 N 733.138 -0.185124 -1.56509 0
M  V30 7907 C 734.384 0.456934 -1.97585 0
M  V30 7908 C 734.717 1.61957 -1.07161 0
M  V30 7909 O 733.992 1.9412 -0.121546 0
M  V30 7910 C 734.275 0.926666 -3.47973 0
M  V30 7911 C 734.128 -0.237097 -4.49175 0
M  V30 7912 C 735.447 1.79561 -4.01803 0
M  V30 7913 H 732.566 0.164619 -0.71838 0
M  V30 7914 H 735.208 -0.274039 -1.88013 0
M  V30 7915 H 733.358 1.54954 -3.56261 0
M  V30 7916 H 735.03 -0.87454 -4.52934 0
M  V30 7917 H 733.273 -0.890446 -4.24563 0
M  V30 7918 H 733.944 0.133924 -5.51838 0
M  V30 7919 H 736.42 1.27039 -3.96232 0
M  V30 7920 H 735.296 2.09327 -5.07418 0
M  V30 7921 H 735.557 2.74629 -3.46455 0
M  V30 7922 N 734.616 1.57351 0.0885366 0
M  V30 7923 C 735.844 1.90631 0.804196 0
M  V30 7924 C 736.259 0.779474 1.71958 0
M  V30 7925 O 735.616 -0.248179 1.80805 0
M  V30 7926 C 735.667 3.23568 1.61202 0
M  V30 7927 O 735.388 4.31917 0.733447 0
M  V30 7928 C 736.889 3.70753 2.43016 0
M  V30 7929 H 734.109 0.630501 0.229585 0
M  V30 7930 H 736.653 2.044 0.0638092 0
M  V30 7931 H 734.808 3.11377 2.30485 0
M  V30 7932 H 735.222 5.08297 1.29361 0
M  V30 7933 H 736.696 4.66447 2.9518 0
M  V30 7934 H 737.173 2.98922 3.2178 0
M  V30 7935 H 737.779 3.85834 1.7892 0
M  V30 7936 N 736.094 -0.359525 1.53444 0
M  V30 7937 C 737.041 -1.44073 1.8031 0
M  V30 7938 C 738.011 -1.52946 0.647811 0
M  V30 7939 O 739.196 -1.68739 0.890614 0
M  V30 7940 C 736.336 -2.80941 2.00416 0
M  V30 7941 C 735.449 -2.80986 3.28132 0
M  V30 7942 C 734.584 -4.09468 3.38393 0
M  V30 7943 C 733.623 -4.03679 4.60119 0
M  V30 7944 N 732.76 -5.23821 4.675 0
M  V30 7945 H 737.6 -1.20464 2.72566 0
M  V30 7946 H 735.137 -0.583859 1.35017 0
M  V30 7947 H 737.095 -3.60459 2.1006 0
M  V30 7948 H 735.725 -3.02936 1.11489 0
M  V30 7949 H 734.777 -1.93666 3.27411 0
M  V30 7950 H 736.089 -2.72583 4.17732 0
M  V30 7951 H 735.243 -4.97404 3.47382 0
M  V30 7952 H 733.982 -4.20632 2.4682 0
M  V30 7953 H 732.987 -3.14129 4.51224 0
M  V30 7954 H 734.212 -3.94112 5.5304 0
M  V30 7955 H 732.158 -5.35559 3.7883 0
M  V30 7956 H 732.075 -5.17611 5.51013 0
M  V30 7957 H 733.343 -6.13572 4.8078 0
M  V30 7958 N 737.572 -1.44907 -0.619662 0
M  V30 7959 C 738.812 -1.49822 -1.39042 0
M  V30 7960 C 739.176 -0.131803 -1.91547 0
M  V30 7961 O 740.377 -0.0556413 -2.68742 0
M  V30 7962 C 738.648 -2.53805 -2.5163 0
M  V30 7963 S 740.207 -2.77855 -3.3962 0
M  V30 7964 H 737.025 -0.529774 -0.474195 0
M  V30 7965 H 739.627 -1.81907 -0.716236 0
M  V30 7966 H 738.331 -3.51772 -2.11387 0
M  V30 7967 H 737.862 -2.23331 -3.23863 0
M  V30 7968 H 739.877 -2.10319 -4.49422 0
M  V30 7969 N 739.05 0.861098 -1.31996 0
M  V30 7970 C 740.29 1.62873 -1.23498 0
M  V30 7971 C 740.654 1.90938 0.201692 0
M  V30 7972 O 741.855 2.6565 0.410305 0
M  V30 7973 C 740.126 2.91759 -2.06426 0
M  V30 7974 S 741.685 3.82583 -2.14885 0
M  V30 7975 H 738.503 0.558726 -0.439712 0
M  V30 7976 H 741.105 1.02025 -1.66767 0
M  V30 7977 H 739.809 2.69077 -3.0988 0
M  V30 7978 H 739.34 3.57627 -1.6391 0
M  V30 7979 H 741.355 4.7904 -1.29364 0
M  V30 7980 N 740.528 1.15101 1.07655 0
M  V30 7981 C 741.756 0.947731 1.83918 0
M  V30 7982 C 742.171 -0.503927 1.81951 0
M  V30 7983 O 741.528 -1.34941 1.2287 0
M  V30 7984 C 741.579 1.4503 3.31132 0
M  V30 7985 O 741.3 2.84508 3.33146 0
M  V30 7986 C 742.801 1.28806 4.24174 0
M  V30 7987 H 740.021 0.336786 0.580358 0
M  V30 7988 H 742.565 1.52799 1.35914 0
M  V30 7989 H 740.72 0.912632 3.76497 0
M  V30 7990 H 741.134 3.0723 4.251 0
M  V30 7991 H 742.608 1.6882 5.25551 0
M  V30 7992 H 743.085 0.231851 4.38588 0
M  V30 7993 H 743.691 1.81465 3.84643 0
M  V30 7994 N 742.006 -1.2595 0.947325 0
M  V30 7995 C 742.916 -2.29883 0.468079 0
M  V30 7996 C 743.932 -1.67783 -0.460975 0
M  V30 7997 O 745.108 -1.98526 -0.339006 0
M  V30 7998 C 742.173 -3.45773 -0.253315 0
M  V30 7999 C 741.234 -4.23337 0.713054 0
M  V30 8000 C 740.467 -5.33694 0.025993 0
M  V30 8001 O 740.69 -5.57853 -1.18978 0
M  V30 8002 O 739.624 -5.97724 0.70782 0
M  V30 8003 H 743.45 -2.72952 1.33156 0
M  V30 8004 H 741.035 -1.31263 0.713468 0
M  V30 8005 H 742.917 -4.16209 -0.659423 0
M  V30 8006 H 741.592 -3.04721 -1.09209 0
M  V30 8007 H 740.499 -3.55359 1.16923 0
M  V30 8008 H 741.832 -4.68154 1.51963 0
M  V30 8009 N 743.484 -0.715051 -1.40445 0
M  V30 8010 C 744.709 -0.26254 -2.05732 0
M  V30 8011 C 745.134 1.08691 -1.53519 0
M  V30 8012 O 744.492 1.68453 -0.670328 0
M  V30 8013 C 744.54 -0.25195 -3.59719 0
M  V30 8014 O 743.644 0.766998 -4.05205 0
M  V30 8015 H 742.985 -0.123398 -0.652433 0
M  V30 8016 H 745.515 -0.975382 -1.79854 0
M  V30 8017 H 745.525 -0.0894537 -4.07902 0
M  V30 8018 H 744.2 -1.23672 -3.97087 0
M  V30 8019 H 742.777 0.572269 -3.68483 0
M  V30 8020 N 744.962 1.50701 -0.461195 0
M  V30 8021 C 745.892 2.31182 0.328184 0
M  V30 8022 C 746.873 1.37644 0.999408 0
M  V30 8023 O 748.058 1.66565 0.99848 0
M  V30 8024 C 745.188 3.17113 1.41621 0
M  V30 8025 C 744.142 4.19124 0.867148 0
M  V30 8026 C 743.468 4.93728 2.05272 0
M  V30 8027 C 744.768 5.22174 -0.114808 0
M  V30 8028 H 746.462 2.97423 -0.343501 0
M  V30 8029 H 744.008 1.43033 -0.166641 0
M  V30 8030 H 745.961 3.72208 1.97584 0
M  V30 8031 H 744.685 2.48739 2.11652 0
M  V30 8032 H 743.344 3.65116 0.329557 0
M  V30 8033 H 742.992 4.21835 2.73978 0
M  V30 8034 H 742.692 5.62724 1.69161 0
M  V30 8035 H 744.216 5.51654 2.61744 0
M  V30 8036 H 745.63 5.72198 0.355316 0
M  V30 8037 H 744.027 5.98833 -0.389689 0
M  V30 8038 H 745.097 4.7353 -1.04391 0
M  V30 8039 N 746.441 0.193421 1.56409 0
M  V30 8040 C 747.687 -0.446449 1.97825 0
M  V30 8041 C 748.02 -1.61386 1.08019 0
M  V30 8042 O 747.295 -1.94053 0.131839 0
M  V30 8043 C 747.578 -0.908199 3.48459 0
M  V30 8044 C 747.431 0.260914 4.49043 0
M  V30 8045 C 748.75 -1.77428 4.0275 0
M  V30 8046 H 745.869 -0.160807 0.719243 0
M  V30 8047 H 748.511 0.284006 1.87865 0
M  V30 8048 H 746.661 -1.53062 3.57077 0
M  V30 8049 H 748.333 0.898548 4.52464 0
M  V30 8050 H 746.576 0.912949 4.24085 0
M  V30 8051 H 747.247 -0.104657 5.51901 0
M  V30 8052 H 749.723 -1.24936 3.96901 0
M  V30 8053 H 748.599 -2.06633 5.08521 0
M  V30 8054 H 748.86 -2.72788 3.47907 0
M  V30 8055 N 747.919 -1.57396 -0.0801906 0
M  V30 8056 C 748.867 -2.04136 -1.11495 0
M  V30 8057 C 749.861 -0.945137 -1.40583 0
M  V30 8058 O 751.067 -1.13028 -1.40088 0
M  V30 8059 H 747.442 -0.65076 -0.37685 0
M  V30 8060 H 749.413 -2.90205 -0.694526 0
M  V30 8061 C 748.162 -2.49399 -2.42272 0
M  V30 8062 H 747.485 -3.33339 -2.20737 0
M  V30 8063 H 748.925 -2.85864 -3.13142 0
M  V30 8064 C 747.384 -1.37341 -3.07635 0
M  V30 8065 O 747.914 -0.710829 -3.95361 0
M  V30 8066 N 746.12 -1.12064 -2.68123 0
M  V30 8067 H 745.667 -1.66126 -1.96875 0
M  V30 8068 H 745.625 -0.372916 -3.12181 0
M  V30 8069 N 749.397 0.351382 -1.53633 0
M  V30 8070 C 750.813 0.693987 -1.43722 0
M  V30 8071 C 751.013 1.9274 -0.587669 0
M  V30 8072 O 750.069 2.52387 -0.0756082 0
M  V30 8073 C 751.382 0.893937 -2.87105 0
M  V30 8074 C 752.93 0.993051 -2.96829 0
M  V30 8075 C 753.405 1.22537 -4.41303 0
M  V30 8076 N 754.896 1.29275 -4.44795 0
M  V30 8077 C 755.631 1.48988 -5.53706 0
M  V30 8078 N 755.127 1.65924 -6.72637 0
M  V30 8079 N 756.92 1.51472 -5.41306 0
M  V30 8080 H 749.071 -0.459688 -2.07366 0
M  V30 8081 H 751.334 -0.143684 -0.937048 0
M  V30 8082 H 751.04 0.0592517 -3.5165 0
M  V30 8083 H 750.914 1.79795 -3.31592 0
M  V30 8084 H 753.301 1.81827 -2.32429 0
M  V30 8085 H 753.382 0.0661119 -2.55715 0
M  V30 8086 H 753.026 0.405117 -5.06282 0
M  V30 8087 H 752.956 2.16575 -4.80003 0
M  V30 8088 H 755.447 1.17743 -3.59089 0
M  V30 8089 H 755.76 1.80578 -7.51406 0
M  V30 8090 H 754.105 1.63075 -6.75597 0
M  V30 8091 H 757.296 1.37818 -4.47352 0
M  V30 8092 H 757.469 1.66493 -6.26246 0
M  V30 8093 N 750.875 1.45233 0.611969 0
M  V30 8094 C 752.291 1.29542 0.932251 0
M  V30 8095 C 752.491 0.24523 2.00002 0
M  V30 8096 O 751.547 -0.362333 2.49887 0
M  V30 8097 C 752.86 2.67301 1.37733 0
M  V30 8098 C 754.408 2.75163 1.49178 0
M  V30 8099 C 754.883 4.13437 1.97064 0
M  V30 8100 N 756.374 4.15709 2.04304 0
M  V30 8101 C 757.109 5.19566 2.42568 0
M  V30 8102 N 756.605 6.33771 2.79832 0
M  V30 8103 N 758.398 5.06923 2.42869 0
M  V30 8104 H 750.549 2.12192 -0.0938679 0
M  V30 8105 H 752.812 0.947775 0.0206569 0
M  V30 8106 H 752.518 3.45318 0.666951 0
M  V30 8107 H 752.392 2.95472 2.3447 0
M  V30 8108 H 754.779 1.97453 2.19309 0
M  V30 8109 H 754.86 2.50712 0.507674 0
M  V30 8110 H 754.504 4.91631 1.27521 0
M  V30 8111 H 754.434 4.35277 2.9638 0
M  V30 8112 H 756.925 3.33293 1.78113 0
M  V30 8113 H 757.238 7.08815 3.07898 0
M  V30 8114 H 755.583 6.37179 2.77538 0
M  V30 8115 H 758.774 4.1675 2.1316 0
M  V30 8116 H 758.947 5.87981 2.72364 0
M  V30 8117 N 752.353 -0.854086 1.3245 0
M  V30 8118 C 753.764 -1.42427 1.20712 0
M  V30 8119 C 754.115 -1.95371 -0.18013 0
M  V30 8120 O 753.24 -1.87587 -1.07889 0
M  V30 8121 C 753.835 -2.58897 2.18536 0
M  V30 8122 C 752.394 -3.11913 2.10683 0
M  V30 8123 C 751.541 -1.84661 2.06871 0
M  V30 8124 H 754.492 -0.661192 1.4427 0
M  V30 8125 H 754.513 -3.36074 1.78422 0
M  V30 8126 H 754.025 -2.20333 3.19492 0
M  V30 8127 H 752.126 -3.55059 1.12977 0
M  V30 8128 H 752.239 -3.73119 3.00532 0
M  V30 8129 H 750.603 -2.04285 1.52118 0
M  V30 8130 H 751.386 -1.48314 3.09609 0
M  V30 8131 N 753.831 -1.1567 -1.07043 0
M  V30 8132 C 755.071 -0.944089 -1.81291 0
M  V30 8133 C 755.435 0.519305 -1.84844 0
M  V30 8134 O 756.636 0.850357 -2.54995 0
M  V30 8135 C 754.907 -1.54528 -3.22267 0
M  V30 8136 S 756.466 -1.47623 -4.13223 0
M  V30 8137 H 753.284 -0.339696 -0.624602 0
M  V30 8138 H 755.886 -1.47277 -1.28568 0
M  V30 8139 H 754.59 -2.60321 -3.17271 0
M  V30 8140 H 754.121 -1.0156 -3.80065 0
M  V30 8141 H 756.136 -0.471261 -4.93957 0
M  V30 8142 N 755.309 1.25446 -0.953992 0
M  V30 8143 C 756.556 1.93143 -0.608429 0
M  V30 8144 C 756.884 1.74727 0.854451 0
M  V30 8145 O 756.139 1.0855 1.62836 0
M  V30 8146 C 756.438 3.45555 -0.912496 0
M  V30 8147 C 756.104 3.84126 -2.36131 0
M  V30 8148 C 754.766 3.94367 -2.75732 0
M  V30 8149 C 757.118 4.0324 -3.30223 0
M  V30 8150 C 754.446 4.21127 -4.08496 0
M  V30 8151 C 756.798 4.31493 -4.62598 0
M  V30 8152 C 755.462 4.3995 -5.01996 0
M  V30 8153 H 754.732 0.706762 -0.22264 0
M  V30 8154 H 757.379 1.49005 -1.20291 0
M  V30 8155 H 755.684 3.91091 -0.235618 0
M  V30 8156 H 757.381 3.9612 -0.623714 0
M  V30 8157 H 753.971 3.76711 -2.04418 0
M  V30 8158 H 758.155 3.94744 -3.00817 0
M  V30 8159 H 753.411 4.2589 -4.38665 0
M  V30 8160 H 757.585 4.45227 -5.35486 0
M  V30 8161 H 755.212 4.60439 -6.04896 0
M  V30 8162 N 756.787 0.722489 1.40064 0
M  V30 8163 C 758.012 0.273446 2.05589 0
M  V30 8164 C 758.437 -1.07875 1.54093 0
M  V30 8165 O 757.795 -1.68095 0.679252 0
M  V30 8166 C 757.843 0.271023 3.5958 0
M  V30 8167 O 756.947 -0.745499 4.05606 0
M  V30 8168 H 756.288 0.126856 0.65177 0
M  V30 8169 H 758.818 0.984906 1.79334 0
M  V30 8170 H 758.828 0.111084 4.07849 0
M  V30 8171 H 757.503 1.25776 3.96425 0
M  V30 8172 H 756.08 -0.552719 3.68781 0
M  V30 8173 N 758.265 -1.50454 0.469181 0
M  V30 8174 C 759.228 -2.2703 -0.314643 0
M  V30 8175 C 760.228 -1.31734 -0.922111 0
M  V30 8176 O 761.418 -1.55176 -0.791588 0
M  V30 8177 C 758.55 -3.08616 -1.44806 0
M  V30 8178 H 759.743 -2.97769 0.356892 0
M  V30 8179 H 757.296 -1.54698 0.223191 0
M  V30 8180 H 758.031 -2.42369 -2.1547 0
M  V30 8181 H 757.816 -3.78647 -1.01829 0
M  V30 8182 H 759.306 -3.66536 -2.00103 0
M  V30 8183 N 759.743 -0.201713 -1.56304 0
M  V30 8184 C 760.673 0.71155 -2.22394 0
M  V30 8185 C 761.654 1.21625 -1.18917 0
M  V30 8186 O 762.839 1.26388 -1.47444 0
M  V30 8187 C 759.969 1.92837 -2.88845 0
M  V30 8188 C 758.923 1.55831 -3.98623 0
M  V30 8189 C 758.249 2.85228 -4.52271 0
M  V30 8190 C 759.549 0.763249 -5.16693 0
M  V30 8191 H 761.243 0.160573 -2.98969 0
M  V30 8192 H 758.789 0.0757916 -1.438 0
M  V30 8193 H 760.742 2.57253 -3.33764 0
M  V30 8194 H 759.466 2.50398 -2.09686 0
M  V30 8195 H 758.125 0.9377 -3.54405 0
M  V30 8196 H 757.773 3.40893 -3.69866 0
M  V30 8197 H 757.473 2.6121 -5.26349 0
M  V30 8198 H 758.997 3.50622 -4.99897 0
M  V30 8199 H 760.411 1.31066 -5.58117 0
M  V30 8200 H 758.808 0.620935 -5.96879 0
M  V30 8201 H 759.878 -0.234322 -4.84334 0
M  V30 8202 N 761.222 1.57436 0.0718424 0
M  V30 8203 C 762.132 2.07039 1.10326 0
M  V30 8204 C 763.148 0.999918 1.424 0
M  V30 8205 O 764.324 1.31462 1.52577 0
M  V30 8206 C 761.389 2.50439 2.39752 0
M  V30 8207 C 760.45 3.71784 2.14651 0
M  V30 8208 C 759.683 4.13104 3.37906 0
M  V30 8209 O 759.906 3.54298 4.47023 0
M  V30 8210 O 758.84 5.05894 3.26121 0
M  V30 8211 H 762.666 2.95239 0.711872 0
M  V30 8212 H 760.251 1.46638 0.28597 0
M  V30 8213 H 762.133 2.78876 3.15921 0
M  V30 8214 H 760.808 1.65368 2.78271 0
M  V30 8215 H 759.715 3.48431 1.36187 0
M  V30 8216 H 761.048 4.57707 1.81012 0
M  V30 8217 N 762.7 -0.34323 1.53817 0
M  V30 8218 C 763.946 -1.08504 1.71332 0
M  V30 8219 C 764.279 -1.88294 0.475285 0
M  V30 8220 O 763.554 -1.87205 -0.527688 0
M  V30 8221 C 763.837 -2.02597 2.97702 0
M  V30 8222 C 763.69 -1.26268 4.31713 0
M  V30 8223 C 765.009 -3.0241 3.19744 0
M  V30 8224 H 762.128 -0.393072 0.623429 0
M  V30 8225 H 764.77 -0.363579 1.86489 0
M  V30 8226 H 762.92 -2.64118 2.8491 0
M  V30 8227 H 764.592 -0.673594 4.56356 0
M  V30 8228 H 762.835 -0.564696 4.30109 0
M  V30 8229 H 763.506 -1.95253 5.16314 0
M  V30 8230 H 765.982 -2.51004 3.31868 0
M  V30 8231 H 764.858 -3.65449 4.09558 0
M  V30 8232 H 765.119 -3.73806 2.36054 0
M  V30 8233 N 764.178 -1.45556 -0.604258 0
M  V30 8234 C 765.455 -1.40221 -1.36373 0
M  V30 8235 C 765.835 -0.0745195 -2.10968 0
M  V30 8236 O 765.183 0.943594 -2.08107 0
M  V30 8237 C 765.393 -2.61807 -2.30777 0
M  V30 8238 C 766.741 -3.07037 -2.93281 0
M  V30 8239 O 767.765 -2.62203 -2.41097 0
M  V30 8240 O 766.624 -3.8485 -3.88011 0
M  V30 8241 H 763.718 -0.556602 -0.611656 0
M  V30 8242 H 766.264 -1.57689 -0.627069 0
M  V30 8243 H 765.036 -3.50017 -1.74939 0
M  V30 8244 H 764.659 -2.46688 -3.11818 0
M  V30 8245 N 765.656 0.84705 -1.32902 0
M  V30 8246 C 766.566 1.98845 -1.2449 0
M  V30 8247 C 767.582 1.7329 -0.15702 0
M  V30 8248 O 768.758 1.978 -0.379104 0
M  V30 8249 C 765.823 3.32679 -0.975985 0
M  V30 8250 C 764.884 3.71405 -2.15306 0
M  V30 8251 C 764.117 4.98853 -1.89688 0
M  V30 8252 O 764.34 5.64134 -0.843168 0
M  V30 8253 O 763.274 5.34889 -2.76002 0
M  V30 8254 H 767.1 2.0888 -2.2046 0
M  V30 8255 H 764.685 0.978852 -1.12867 0
M  V30 8256 H 766.567 4.12885 -0.842826 0
M  V30 8257 H 765.242 3.23667 -0.0464954 0
M  V30 8258 H 764.149 2.91743 -2.34172 0
M  V30 8259 H 765.482 3.85073 -3.06561 0
M  V30 8260 N 767.134 1.16236 1.06428 0
M  V30 8261 C 768.362 0.967184 1.82902 0
M  V30 8262 C 768.777 -0.484601 1.82475 0
M  V30 8263 O 768.134 -1.33631 1.24294 0
M  V30 8264 C 768.185 1.48534 3.29576 0
M  V30 8265 O 767.906 2.88026 3.3011 0
M  V30 8266 C 769.407 1.33298 4.22784 0
M  V30 8267 H 766.627 0.342923 0.576754 0
M  V30 8268 H 769.171 1.54232 1.34286 0
M  V30 8269 H 767.326 0.952513 3.75508 0
M  V30 8270 H 767.74 3.11721 4.21818 0
M  V30 8271 H 769.214 1.74385 5.23731 0
M  V30 8272 H 769.691 0.278356 4.38317 0
M  V30 8273 H 770.297 1.85535 3.82697 0
M  V30 8274 N 768.612 -1.24939 0.960631 0
M  V30 8275 C 769.842 -1.96595 0.635123 0
M  V30 8276 C 770.25 -1.71538 -0.798206 0
M  V30 8277 O 769.593 -0.991727 -1.5463 0
M  V30 8278 C 769.655 -3.49994 0.821248 0
M  V30 8279 C 769.319 -3.98738 2.23287 0
M  V30 8280 C 770.316 -4.08965 3.21004 0
M  V30 8281 C 768.001 -4.32247 2.55867 0
M  V30 8282 C 769.995 -4.52025 4.49391 0
M  V30 8283 C 767.682 -4.74991 3.84482 0
M  V30 8284 C 768.68 -4.84844 4.81056 0
M  V30 8285 O 768.368 -5.26638 6.07378 0
M  V30 8286 H 768.1 -0.633265 0.23654 0
M  V30 8287 H 770.654 -1.5991 1.28911 0
M  V30 8288 H 768.884 -3.86543 0.110105 0
M  V30 8289 H 770.573 -4.02859 0.495892 0
M  V30 8290 H 771.339 -3.83302 2.97161 0
M  V30 8291 H 767.218 -4.23801 1.81421 0
M  V30 8292 H 770.762 -4.5963 5.24773 0
M  V30 8293 H 766.659 -5.00101 4.08129 0
M  V30 8294 H 767.427 -5.44807 6.10842 0
M  V30 8295 N 770.09 -0.729906 -1.39679 0
M  V30 8296 C 771.336 -0.27603 -2.00913 0
M  V30 8297 C 771.669 1.13227 -1.57776 0
M  V30 8298 O 770.944 1.7709 -0.804319 0
M  V30 8299 C 771.227 -0.372157 -3.58172 0
M  V30 8300 C 771.08 -1.81986 -4.11341 0
M  V30 8301 C 772.399 0.248378 -4.39399 0
M  V30 8302 H 769.518 -0.101773 -0.729939 0
M  V30 8303 H 772.16 -0.925104 -1.65957 0
M  V30 8304 H 770.31 0.180459 -3.88081 0
M  V30 8305 H 771.982 -2.42896 -3.92172 0
M  V30 8306 H 770.225 -2.34287 -3.65092 0
M  V30 8307 H 770.896 -1.83842 -5.20486 0
M  V30 8308 H 773.372 -0.222645 -4.15504 0
M  V30 8309 H 772.248 0.150746 -5.48693 0
M  V30 8310 H 772.509 1.33378 -4.21501 0
M  V30 8311 N 771.568 1.50203 -0.477153 0
M  V30 8312 C 772.979 1.86685 -0.0235041 0
M  V30 8313 C 773.33 1.39148 1.38319 0
M  V30 8314 O 772.455 0.759051 2.02651 0
M  V30 8315 C 773.05 3.38781 -0.0358767 0
M  V30 8316 C 771.609 3.74652 0.362327 0
M  V30 8317 C 770.756 2.7412 -0.41875 0
M  V30 8318 H 773.707 1.4286 -0.691133 0
M  V30 8319 H 773.728 3.72732 0.764924 0
M  V30 8320 H 773.24 3.73349 -1.05981 0
M  V30 8321 H 771.341 3.45686 1.39039 0
M  V30 8322 H 771.454 4.79063 0.059457 0
M  V30 8323 H 769.818 2.54376 0.128341 0
M  V30 8324 H 770.601 3.11532 -1.44231 0
M  V30 8325 N 773.046 0.209999 1.56195 0
M  V30 8326 C 773.993 -0.704854 2.19774 0
M  V30 8327 C 774.963 -1.19886 1.14964 0
M  V30 8328 O 776.148 -1.26005 1.43274 0
M  V30 8329 C 773.288 -1.91241 2.87265 0
M  V30 8330 C 772.401 -1.45838 4.06639 0
M  V30 8331 C 771.536 -2.6226 4.61945 0
M  V30 8332 C 770.575 -2.13537 5.73645 0
M  V30 8333 N 769.712 -3.2319 6.23292 0
M  V30 8334 H 774.552 -0.155944 2.97592 0
M  V30 8335 H 772.089 -0.0652235 1.46955 0
M  V30 8336 H 774.047 -2.62123 3.24573 0
M  V30 8337 H 772.677 -2.43439 2.11985 0
M  V30 8338 H 771.729 -0.644897 3.74894 0
M  V30 8339 H 773.041 -1.06103 4.87384 0
M  V30 8340 H 772.195 -3.41243 5.01636 0
M  V30 8341 H 770.934 -3.05278 3.80338 0
M  V30 8342 H 769.939 -1.33013 5.33468 0
M  V30 8343 H 771.164 -1.71533 6.57079 0
M  V30 8344 H 769.11 -3.65711 5.44602 0
M  V30 8345 H 769.027 -2.8767 6.99129 0
M  V30 8346 H 770.295 -4.02342 6.67639 0
M  V30 8347 N 774.524 -1.57472 -0.0634922 0
M  V30 8348 C 775.434 -2.07621 -1.09227 0
M  V30 8349 C 776.45 -1.00746 -1.41867 0
M  V30 8350 O 777.626 -1.32269 -1.51878 0
M  V30 8351 C 774.691 -2.51707 -2.38421 0
M  V30 8352 C 773.752 -3.72917 -2.12676 0
M  V30 8353 C 772.985 -4.14891 -3.3571 0
M  V30 8354 O 773.208 -3.56663 -4.45137 0
M  V30 8355 O 772.142 -5.07616 -3.23434 0
M  V30 8356 H 775.968 -2.95612 -0.696205 0
M  V30 8357 H 773.553 -1.46787 -0.27819 0
M  V30 8358 H 775.435 -2.80547 -3.14438 0
M  V30 8359 H 774.11 -1.66842 -2.77391 0
M  V30 8360 H 773.017 -3.49148 -1.34337 0
M  V30 8361 H 774.35 -4.5866 -1.78583 0
M  V30 8362 N 776.003 0.335068 -1.53997 0
M  V30 8363 C 777.25 1.07435 -1.71651 0
M  V30 8364 C 777.578 1.88378 -0.48413 0
M  V30 8365 O 776.833 1.8827 0.534139 0
M  V30 8366 C 777.132 2.0364 -2.9371 0
M  V30 8367 C 776.798 1.38942 -4.28959 0
M  V30 8368 C 775.46 1.21027 -4.65732 0
M  V30 8369 C 777.812 0.924083 -5.12943 0
M  V30 8370 C 775.14 0.552097 -5.84097 0
M  V30 8371 C 777.492 0.27978 -6.31981 0
M  V30 8372 C 776.156 0.0883843 -6.67441 0
M  V30 8373 H 775.426 0.393133 -0.628114 0
M  V30 8374 H 778.073 0.352712 -1.88224 0
M  V30 8375 H 776.378 2.82215 -2.71775 0
M  V30 8376 H 778.075 2.6085 -3.04562 0
M  V30 8377 H 774.665 1.53885 -4.00022 0
M  V30 8378 H 778.849 1.05032 -4.85059 0
M  V30 8379 H 774.105 0.392502 -6.10139 0
M  V30 8380 H 778.279 -0.0888479 -6.96343 0
M  V30 8381 H 775.906 -0.423657 -7.59019 0
M  V30 8382 N 777.481 1.45874 0.596531 0
M  V30 8383 C 778.429 1.55739 1.72766 0
M  V30 8384 C 779.423 0.426666 1.63939 0
M  V30 8385 O 780.629 0.60301 1.69599 0
M  V30 8386 H 777.004 0.489386 0.570968 0
M  V30 8387 H 778.975 2.50871 1.61575 0
M  V30 8388 C 777.724 1.55174 3.11153 0
M  V30 8389 H 777.047 2.41511 3.1861 0
M  V30 8390 H 778.487 1.66133 3.90097 0
M  V30 8391 C 776.946 0.278001 3.35751 0
M  V30 8392 O 777.476 -0.637557 3.96608 0
M  V30 8393 N 775.682 0.170227 2.90101 0
M  V30 8394 H 775.229 0.916159 2.40758 0
M  V30 8395 H 775.187 -0.68117 3.06932 0
M  V30 8396 N 778.959 -0.83999 1.33349 0
M  V30 8397 C 779.922 -1.93128 1.23426 0
M  V30 8398 C 780.922 -1.60065 0.153599 0
M  V30 8399 O 782.112 -1.69425 0.405049 0
M  V30 8400 C 779.244 -3.28761 0.901622 0
M  V30 8401 H 780.437 -2.03352 2.20427 0
M  V30 8402 H 777.99 -1.03194 1.17391 0
M  V30 8403 H 778.725 -3.24233 -0.0659337 0
M  V30 8404 H 778.51 -3.54138 1.68311 0
M  V30 8405 H 780 -4.08714 0.856913 0
M  V30 8406 N 780.437 -1.16799 -1.0581 0
M  V30 8407 C 781.347 -0.893492 -2.16919 0
M  V30 8408 C 782.363 0.136061 -1.73467 0
M  V30 8409 O 783.539 -0.0417348 -2.01357 0
M  V30 8410 C 780.604 -0.403763 -3.44341 0
M  V30 8411 C 779.665 -1.49914 -4.02274 0
M  V30 8412 C 778.898 -1.03269 -5.23614 0
M  V30 8413 O 779.121 0.115647 -5.70283 0
M  V30 8414 O 778.055 -1.8231 -5.73626 0
M  V30 8415 H 781.881 -1.82274 -2.42919 0
M  V30 8416 H 779.466 -0.948361 -1.1544 0
M  V30 8417 H 781.348 -0.137874 -4.21174 0
M  V30 8418 H 780.023 0.497413 -3.19855 0
M  V30 8419 H 778.93 -1.81883 -3.26909 0
M  V30 8420 H 780.263 -2.3758 -4.31064 0
M  V30 8421 N 781.915 1.24427 -0.967243 0
M  V30 8422 C 783.143 1.96541 -0.646477 0
M  V30 8423 C 783.558 1.71753 0.783996 0
M  V30 8424 O 782.915 1.00102 1.52597 0
M  V30 8425 C 782.966 3.4983 -0.911098 0
M  V30 8426 O 782.687 3.7377 -2.28534 0
M  V30 8427 C 784.188 4.3916 -0.604458 0
M  V30 8428 H 781.408 0.626129 -0.241255 0
M  V30 8429 H 783.952 1.58268 -1.29505 0
M  V30 8430 H 782.107 3.86168 -0.308741 0
M  V30 8431 H 782.521 4.68154 -2.365 0
M  V30 8432 H 783.995 5.4557 -0.840069 0
M  V30 8433 H 784.472 4.36771 0.461273 0
M  V30 8434 H 785.078 4.08409 -1.1867 0
M  V30 8435 N 783.393 0.737304 1.3929 0
M  V30 8436 C 784.64 0.286257 2.00467 0
M  V30 8437 C 784.968 -1.1272 1.58507 0
M  V30 8438 O 784.223 -1.7832 0.806257 0
M  V30 8439 C 784.522 0.338438 3.55794 0
M  V30 8440 C 784.188 1.70524 4.17411 0
M  V30 8441 C 782.85 2.07934 4.33955 0
M  V30 8442 C 785.202 2.60256 4.51571 0
M  V30 8443 C 782.53 3.34578 4.81948 0
M  V30 8444 C 784.882 3.86275 5.00974 0
M  V30 8445 C 783.546 4.23774 5.15725 0
M  V30 8446 H 782.816 0.104749 0.733559 0
M  V30 8447 H 785.463 0.944598 1.66582 0
M  V30 8448 H 783.768 -0.403478 3.89717 0
M  V30 8449 H 785.465 -0.0287255 4.0099 0
M  V30 8450 H 782.055 1.40439 4.04938 0
M  V30 8451 H 786.239 2.32624 4.38406 0
M  V30 8452 H 781.495 3.63572 4.91554 0
M  V30 8453 H 785.669 4.5596 5.26378 0
M  V30 8454 H 783.296 5.21972 5.52674 0
M  V30 8455 N 784.871 -1.49948 0.485112 0
M  V30 8456 C 786.099 -2.06806 -0.0622824 0
M  V30 8457 C 786.514 -1.34736 -1.32256 0
M  V30 8458 O 785.871 -0.420836 -1.77582 0
M  V30 8459 C 785.922 -3.59934 -0.336096 0
M  V30 8460 O 785.643 -4.29289 0.874203 0
M  V30 8461 C 787.144 -4.33459 -0.928903 0
M  V30 8462 H 784.364 -0.670867 0.0133472 0
M  V30 8463 H 786.908 -1.92937 0.677917 0
M  V30 8464 H 785.063 -3.7356 -1.02625 0
M  V30 8465 H 785.477 -5.20735 0.627332 0
M  V30 8466 H 786.951 -5.41527 -1.07017 0
M  V30 8467 H 787.428 -3.94881 -1.92265 0
M  V30 8468 H 788.034 -4.24399 -0.276705 0
M  V30 8469 N 786.349 -0.21828 -1.56081 0
M  V30 8470 C 787.596 0.414307 -1.98216 0
M  V30 8471 C 787.924 1.60005 -1.10584 0
M  V30 8472 O 787.179 1.95124 -0.150043 0
M  V30 8473 C 787.478 0.894782 -3.46018 0
M  V30 8474 C 787.144 -0.180083 -4.5054 0
M  V30 8475 C 785.806 -0.475367 -4.78846 0
M  V30 8476 C 788.158 -0.907191 -5.13244 0
M  V30 8477 C 785.486 -1.50233 -5.67139 0
M  V30 8478 C 787.838 -1.92347 -6.02649 0
M  V30 8479 C 786.502 -2.22571 -6.293 0
M  V30 8480 H 785.772 0.151606 -0.725325 0
M  V30 8481 H 788.419 -0.320113 -1.88806 0
M  V30 8482 H 786.724 1.7079 -3.52616 0
M  V30 8483 H 788.421 1.39403 -3.75989 0
M  V30 8484 H 785.011 0.06022 -4.28558 0
M  V30 8485 H 789.195 -0.692303 -4.91448 0
M  V30 8486 H 784.451 -1.74215 -5.86054 0
M  V30 8487 H 788.625 -2.49197 -6.50288 0
M  V30 8488 H 786.252 -3.0229 -6.97513 0
M  V30 8489 N 787.827 1.57504 0.0551401 0
M  V30 8490 C 788.777 2.0128 1.071 0
M  V30 8491 C 789.761 0.897592 1.33537 0
M  V30 8492 O 790.953 1.16151 1.33558 0
M  V30 8493 C 788.082 2.47414 2.37994 0
M  V30 8494 C 787.168 3.65703 2.14761 0
M  V30 8495 N 787.559 4.79323 1.61504 0
M  V30 8496 C 785.857 3.72574 2.45162 0
M  V30 8497 C 786.558 5.61089 1.53472 0
M  V30 8498 N 785.534 5.05426 2.00114 0
M  V30 8499 H 789.336 2.86558 0.652829 0
M  V30 8500 H 786.85 1.60274 0.26193 0
M  V30 8501 H 788.847 2.77023 3.11551 0
M  V30 8502 H 787.507 1.6353 2.80514 0
M  V30 8503 H 788.518 5.01284 1.30134 0
M  V30 8504 H 785.195 2.99439 2.90934 0
M  V30 8505 H 786.585 6.62328 1.13008 0
M  V30 8506 N 789.305 -0.326896 1.54172 0
M  V30 8507 C 790.268 -1.38515 1.8261 0
M  V30 8508 C 791.268 -1.44872 0.697771 0
M  V30 8509 O 792.458 -1.44957 0.966078 0
M  V30 8510 C 789.59 -2.77281 1.98313 0
M  V30 8511 H 790.783 -1.14556 2.77159 0
M  V30 8512 H 788.336 -0.562199 1.45839 0
M  V30 8513 H 789.071 -3.065 1.05964 0
M  V30 8514 H 788.856 -2.74061 2.80416 0
M  V30 8515 H 790.346 -3.53845 2.21773 0
M  V30 8516 N 790.784 -1.46188 -0.588786 0
M  V30 8517 C 792.061 -1.41659 -1.34878 0
M  V30 8518 C 792.441 -0.0968913 -2.10878 0
M  V30 8519 O 791.789 0.921468 -2.09096 0
M  V30 8520 C 791.999 -2.6424 -2.27988 0
M  V30 8521 C 793.347 -3.1013 -2.90008 0
M  V30 8522 O 794.371 -2.64745 -2.38303 0
M  V30 8523 O 793.23 -3.88944 -3.83908 0
M  V30 8524 H 790.324 -0.563058 -0.605718 0
M  V30 8525 H 792.87 -1.58346 -0.610309 0
M  V30 8526 H 791.642 -3.51853 -1.71217 0
M  V30 8527 H 791.265 -2.49982 -3.09184 0
M  V30 8528 N 792.262 0.832906 -1.33792 0
M  V30 8529 C 793.511 1.58351 -1.24932 0
M  V30 8530 C 793.824 1.94754 0.181703 0
M  V30 8531 O 795.03 2.6865 0.392375 0
M  V30 8532 C 793.486 2.85643 -2.18943 0
M  V30 8533 C 793.094 2.56581 -3.67247 0
M  V30 8534 C 794.838 3.63667 -2.18968 0
M  V30 8535 C 792.745 3.80006 -4.53155 0
M  V30 8536 H 791.675 0.594278 -0.464058 0
M  V30 8537 H 794.326 0.91786 -1.58895 0
M  V30 8538 H 792.708 3.53781 -1.77919 0
M  V30 8539 H 793.882 1.96617 -4.16747 0
M  V30 8540 H 792.197 1.91851 -3.6957 0
M  V30 8541 H 794.794 4.55293 -2.80379 0
M  V30 8542 H 795.137 3.99039 -1.18631 0
M  V30 8543 H 795.67 3.0246 -2.58384 0
M  V30 8544 H 792.409 3.4976 -5.5439 0
M  V30 8545 H 791.929 4.39288 -4.08395 0
M  V30 8546 H 793.608 4.47523 -4.6726 0
M  V30 8547 N 793.74 1.17359 1.05189 0
M  V30 8548 C 794.98 0.972812 1.79766 0
M  V30 8549 C 795.344 -0.489832 1.85647 0
M  V30 8550 O 796.545 -0.809682 2.56315 0
M  V30 8551 C 794.816 1.59636 3.19767 0
M  V30 8552 S 796.375 1.54178 4.10822 0
M  V30 8553 H 793.193 0.34959 0.619119 0
M  V30 8554 H 795.795 1.49304 1.26209 0
M  V30 8555 H 794.499 2.65336 3.13089 0
M  V30 8556 H 794.03 1.07594 3.78401 0
M  V30 8557 H 796.045 0.549785 4.93145 0
M  V30 8558 N 795.218 -1.23913 0.973828 0
M  V30 8559 C 796.446 -1.96195 0.656891 0
M  V30 8560 C 796.861 -1.72166 -0.774876 0
M  V30 8561 O 796.218 -1.0091 -1.52064 0
M  V30 8562 C 796.269 -3.49342 0.929638 0
M  V30 8563 O 795.99 -3.72553 2.30512 0
M  V30 8564 C 797.491 -4.38833 0.627739 0
M  V30 8565 H 794.711 -0.624841 0.244572 0
M  V30 8566 H 797.255 -1.57579 1.30343 0
M  V30 8567 H 795.41 -3.85999 0.329216 0
M  V30 8568 H 795.824 -4.66893 2.3898 0
M  V30 8569 H 797.298 -5.45117 0.868991 0
M  V30 8570 H 797.775 -4.37009 -0.438104 0
M  V30 8571 H 798.381 -4.07773 1.20834 0
M  V30 8572 N 796.696 -0.74468 -1.38897 0
M  V30 8573 C 797.626 -0.126355 -2.33158 0
M  V30 8574 C 798.607 0.713517 -1.54412 0
M  V30 8575 O 799.792 0.656523 -1.82766 0
M  V30 8576 C 796.922 0.774375 -3.38557 0
M  V30 8577 C 795.876 0.0379214 -4.27983 0
M  V30 8578 C 795.202 1.05631 -5.24162 0
M  V30 8579 C 796.502 -1.12523 -5.10035 0
M  V30 8580 H 798.196 -0.913744 -2.85116 0
M  V30 8581 H 795.742 -0.440847 -1.37086 0
M  V30 8582 H 797.695 1.21655 -4.03458 0
M  V30 8583 H 796.419 1.59399 -2.85061 0
M  V30 8584 H 795.078 -0.384733 -3.64576 0
M  V30 8585 H 794.726 1.86975 -4.66958 0
M  V30 8586 H 794.426 0.568261 -5.84846 0
M  V30 8587 H 795.95 1.49799 -5.9194 0
M  V30 8588 H 797.364 -0.761037 -5.68226 0
M  V30 8589 H 795.761 -1.54355 -5.79909 0
M  V30 8590 H 796.831 -1.94237 -4.44297 0
M  V30 8591 N 798.174 1.49689 -0.493057 0
M  V30 8592 C 799.399 2.07331 0.0535114 0
M  V30 8593 C 799.824 1.35196 1.30781 0
M  V30 8594 O 799.182 0.406246 1.7669 0
M  V30 8595 C 799.23 3.59364 0.29825 0
M  V30 8596 O 798.334 3.88819 1.37454 0
M  V30 8597 H 797.675 0.663612 -0.0227018 0
M  V30 8598 H 800.205 1.926 -0.690402 0
M  V30 8599 H 800.215 4.04515 0.532159 0
M  V30 8600 H 798.89 4.1128 -0.618207 0
M  V30 8601 H 797.467 3.55487 1.12621 0
M  V30 8602 N 799.652 0.226554 1.55963 0
M  V30 8603 C 800.562 -0.692725 2.24139 0
M  V30 8604 C 801.578 -1.20971 1.25068 0
M  V30 8605 O 802.754 -1.25027 1.57893 0
M  V30 8606 C 799.819 -1.88183 2.91184 0
M  V30 8607 C 798.88 -1.40633 4.05612 0
M  V30 8608 C 798.113 -2.53875 4.6945 0
M  V30 8609 O 798.336 -3.72129 4.32292 0
M  V30 8610 O 797.27 -2.24792 5.58348 0
M  V30 8611 H 801.096 -0.141921 3.03368 0
M  V30 8612 H 798.681 -0.0041049 1.49399 0
M  V30 8613 H 800.563 -2.57617 3.33484 0
M  V30 8614 H 799.238 -2.42064 2.14911 0
M  V30 8615 H 798.145 -0.67986 3.67871 0
M  V30 8616 H 799.478 -0.913838 4.83642 0
M  V30 8617 N 801.13 -1.57531 -0.0467866 0
M  V30 8618 C 802.077 -2.05387 -1.05285 0
M  V30 8619 C 803.047 -0.939385 -1.36985 0
M  V30 8620 O 804.232 -1.20877 -1.47626 0
M  V30 8621 C 801.372 -2.52343 -2.35408 0
M  V30 8622 C 800.485 -3.77512 -2.10022 0
M  V30 8623 C 799.62 -4.1315 -3.33887 0
M  V30 8624 C 798.659 -5.31286 -3.03976 0
M  V30 8625 N 797.796 -5.62441 -4.20243 0
M  V30 8626 H 802.636 -2.91095 -0.637788 0
M  V30 8627 H 800.173 -1.43939 -0.303322 0
M  V30 8628 H 802.131 -2.77628 -3.11413 0
M  V30 8629 H 800.761 -1.69577 -2.7467 0
M  V30 8630 H 799.813 -3.59417 -1.24594 0
M  V30 8631 H 801.125 -4.63644 -1.83945 0
M  V30 8632 H 800.279 -4.39469 -4.18273 0
M  V30 8633 H 799.018 -3.25634 -3.63062 0
M  V30 8634 H 798.023 -5.04738 -2.17991 0
M  V30 8635 H 799.248 -6.20441 -2.76098 0
M  V30 8636 H 797.194 -4.77885 -4.49402 0
M  V30 8637 H 797.111 -6.43046 -3.97528 0
M  V30 8638 H 798.379 -5.93327 -5.05553 0
M  V30 8639 N 802.608 0.318715 -1.54344 0
M  V30 8640 C 803.518 1.41535 -1.87097 0
M  V30 8641 C 804.534 1.56361 -0.763353 0
M  V30 8642 O 805.71 1.71365 -1.05811 0
M  V30 8643 C 802.775 2.76178 -2.09587 0
M  V30 8644 C 801.836 2.70486 -3.3337 0
M  V30 8645 C 801.069 3.98708 -3.54778 0
M  V30 8646 O 801.292 4.9721 -2.79532 0
M  V30 8647 O 800.226 4.01674 -4.48266 0
M  V30 8648 H 804.052 1.16764 -2.80357 0
M  V30 8649 H 801.637 0.51318 -1.4031 0
M  V30 8650 H 803.519 3.55873 -2.25682 0
M  V30 8651 H 802.194 3.00829 -1.19514 0
M  V30 8652 H 801.101 1.89325 -3.22656 0
M  V30 8653 H 802.434 2.50789 -4.23516 0
M  V30 8654 N 804.086 1.46499 0.581025 0
M  V30 8655 C 805.502 1.31491 0.904563 0
M  V30 8656 C 805.702 0.287598 1.99437 0
M  V30 8657 O 804.758 -0.309247 2.50599 0
M  V30 8658 C 806.071 2.70163 1.32032 0
M  V30 8659 C 807.619 2.78266 1.43308 0
M  V30 8660 C 808.094 4.17524 1.8825 0
M  V30 8661 N 809.585 4.19949 1.9544 0
M  V30 8662 C 810.32 5.24594 2.31493 0
M  V30 8663 N 809.816 6.39564 2.66326 0
M  V30 8664 N 811.609 5.11961 2.32062 0
M  V30 8665 H 803.76 2.11946 -0.138856 0
M  V30 8666 H 806.023 0.948 0.000548528 0
M  V30 8667 H 805.729 3.46655 0.593554 0
M  V30 8668 H 805.603 3.00379 2.2815 0
M  V30 8669 H 807.99 2.02061 2.15071 0
M  V30 8670 H 808.071 2.51732 0.45438 0
M  V30 8671 H 807.715 4.94225 1.17065 0
M  V30 8672 H 807.645 4.41466 2.87081 0
M  V30 8673 H 810.136 3.36996 1.71004 0
M  V30 8674 H 810.449 7.15187 2.92793 0
M  V30 8675 H 808.794 6.42923 2.6396 0
M  V30 8676 H 811.985 4.21177 2.04272 0
M  V30 8677 H 812.158 5.93626 2.5983 0
M  V30 8678 N 805.565 -0.825799 1.34232 0
M  V30 8679 C 806.497 -1.94401 1.21413 0
M  V30 8680 C 807.51 -1.6218 0.141902 0
M  V30 8681 O 808.699 -1.74109 0.3935 0
M  V30 8682 C 805.799 -3.28257 0.842635 0
M  V30 8683 C 804.972 -3.88521 2.00924 0
M  V30 8684 C 804.031 -5.00752 1.61661 0
M  V30 8685 O 803.057 -5.19201 2.33279 0
M  V30 8686 N 804.259 -5.78084 0.52911 0
M  V30 8687 H 807.024 -2.05931 2.17744 0
M  V30 8688 H 804.585 -1.00223 1.27149 0
M  V30 8689 H 806.577 -4.00781 0.561822 0
M  V30 8690 H 805.147 -3.12585 -0.0304029 0
M  V30 8691 H 804.367 -3.08425 2.45495 0
M  V30 8692 H 805.655 -4.25516 2.78951 0
M  V30 8693 H 805.053 -5.65661 -0.0663322 0
M  V30 8694 H 803.61 -6.51072 0.308017 0
M  V30 8695 N 807.043 -1.17915 -1.04565 0
M  V30 8696 C 808.292 -0.965816 -1.77073 0
M  V30 8697 C 808.605 0.506005 -1.88942 0
M  V30 8698 O 809.811 0.837717 -2.58253 0
M  V30 8699 C 808.267 -1.67894 -3.18339 0
M  V30 8700 C 807.875 -3.18972 -3.1458 0
M  V30 8701 C 809.619 -1.54823 -3.9526 0
M  V30 8702 C 807.526 -3.82946 -4.50674 0
M  V30 8703 H 806.456 -0.357729 -0.663736 0
M  V30 8704 H 809.107 -1.41235 -1.17153 0
M  V30 8705 H 807.489 -1.16016 -3.78624 0
M  V30 8706 H 808.663 -3.77835 -2.63776 0
M  V30 8707 H 806.978 -3.32127 -2.51159 0
M  V30 8708 H 809.575 -1.99984 -4.95894 0
M  V30 8709 H 809.918 -0.499727 -4.1329 0
M  V30 8710 H 810.451 -2.03953 -3.41538 0
M  V30 8711 H 807.19 -4.8782 -4.37849 0
M  V30 8712 H 806.71 -3.2887 -5.01602 0
M  V30 8713 H 808.389 -3.85518 -5.196 0
M  V30 8714 N 808.521 1.23394 -0.980386 0
M  V30 8715 C 809.468 2.24859 -0.520298 0
M  V30 8716 C 810.438 1.60144 0.440821 0
M  V30 8717 O 811.623 1.87593 0.348369 0
M  V30 8718 C 808.763 3.44675 0.171145 0
M  V30 8719 C 807.876 4.23947 -0.830233 0
M  V30 8720 C 807.011 5.31079 -0.113597 0
M  V30 8721 C 806.05 6.02058 -1.10419 0
M  V30 8722 N 805.187 7.00862 -0.416709 0
M  V30 8723 H 810.027 2.63579 -1.39032 0
M  V30 8724 H 807.564 1.29556 -0.696682 0
M  V30 8725 H 809.522 4.13024 0.588838 0
M  V30 8726 H 808.152 3.06755 1.00504 0
M  V30 8727 H 807.204 3.55016 -1.36631 0
M  V30 8728 H 808.516 4.72945 -1.58508 0
M  V30 8729 H 807.67 6.05622 0.36146 0
M  V30 8730 H 806.409 4.83022 0.673854 0
M  V30 8731 H 805.414 5.26307 -1.59 0
M  V30 8732 H 806.639 6.52203 -1.8923 0
M  V30 8733 H 804.585 6.55057 0.351535 0
M  V30 8734 H 804.502 7.47804 -1.11021 0
M  V30 8735 H 805.77 7.79492 0.0359606 0
M  V30 8736 N 809.999 0.752036 1.385 0
M  V30 8737 C 810.946 0.123288 2.3047 0
M  V30 8738 C 811.916 -0.711326 1.50098 0
M  V30 8739 O 813.101 -0.667775 1.78733 0
M  V30 8740 C 810.241 -0.765085 3.36512 0
M  V30 8741 C 809.354 0.0839885 4.31918 0
M  V30 8742 C 808.489 -0.807243 5.25031 0
M  V30 8743 C 807.528 0.0455583 6.12083 0
M  V30 8744 N 806.665 -0.802547 6.97498 0
M  V30 8745 H 811.505 0.913169 2.83664 0
M  V30 8746 H 809.042 0.46195 1.39658 0
M  V30 8747 H 811 -1.29476 3.966 0
M  V30 8748 H 809.63 -1.52077 2.84732 0
M  V30 8749 H 808.682 0.731276 3.73305 0
M  V30 8750 H 809.994 0.74265 4.9324 0
M  V30 8751 H 809.148 -1.40414 5.90228 0
M  V30 8752 H 807.887 -1.49964 4.64071 0
M  V30 8753 H 806.892 0.655137 5.45883 0
M  V30 8754 H 808.117 0.734994 6.75111 0
M  V30 8755 H 806.063 -1.47992 6.39089 0
M  V30 8756 H 805.98 -0.200747 7.55733 0
M  V30 8757 H 807.248 -1.38447 7.67107 0
M  V30 8758 N 811.477 -1.49425 0.500989 0
M  V30 8759 C 812.409 -2.27037 -0.314159 0
M  V30 8760 C 813.422 -1.33578 -0.930626 0
M  V30 8761 O 814.611 -1.58861 -0.813968 0
M  V30 8762 C 811.711 -3.05968 -1.45729 0
M  V30 8763 C 810.884 -4.27 -0.948135 0
M  V30 8764 C 809.943 -4.87977 -1.96888 0
M  V30 8765 O 808.969 -5.48044 -1.53743 0
M  V30 8766 N 810.171 -4.77627 -3.29928 0
M  V30 8767 H 812.936 -2.97634 0.351336 0
M  V30 8768 H 810.497 -1.58427 0.333536 0
M  V30 8769 H 812.489 -3.43634 -2.1377 0
M  V30 8770 H 811.059 -2.37978 -2.02695 0
M  V30 8771 H 810.279 -3.94091 -0.0926311 0
M  V30 8772 H 811.567 -5.0541 -0.586362 0
M  V30 8773 H 810.965 -4.29926 -3.67669 0
M  V30 8774 H 809.522 -5.19478 -3.93682 0
M  V30 8775 N 812.955 -0.234822 -1.55841 0
M  V30 8776 C 814.183 0.397745 -2.03041 0
M  V30 8777 C 814.598 1.52405 -1.11437 0
M  V30 8778 O 813.955 1.82061 -0.126466 0
M  V30 8779 C 814.006 0.916919 -3.49678 0
M  V30 8780 O 813.727 -0.164493 -4.37791 0
M  V30 8781 C 815.228 1.62139 -4.12584 0
M  V30 8782 H 812.448 0.0959214 -0.664108 0
M  V30 8783 H 814.992 -0.355156 -2.01392 0
M  V30 8784 H 813.147 1.62004 -3.519 0
M  V30 8785 H 813.561 0.227794 -5.24005 0
M  V30 8786 H 815.035 1.93651 -5.16917 0
M  V30 8787 H 815.512 2.53918 -3.58361 0
M  V30 8788 H 816.118 0.963145 -4.14251 0
M  V30 8789 N 814.433 1.57553 0.0384317 0
M  V30 8790 C 815.396 2.04927 1.02653 0
M  V30 8791 C 816.396 0.951768 1.29607 0
M  V30 8792 O 817.586 1.21568 1.24768 0
M  V30 8793 C 814.718 2.45828 2.36181 0
M  V30 8794 H 815.911 2.93474 0.617508 0
M  V30 8795 H 813.464 1.53679 0.285031 0
M  V30 8796 H 814.199 1.60408 2.8185 0
M  V30 8797 H 813.984 3.25945 2.1795 0
M  V30 8798 H 815.474 2.82939 3.0714 0
M  V30 8799 N 815.911 -0.310526 1.54511 0
M  V30 8800 C 816.841 -1.38757 1.878 0
M  V30 8801 C 817.822 -1.53353 0.735991 0
M  V30 8802 O 819.007 -1.67018 0.990887 0
M  V30 8803 C 816.137 -2.75327 2.11689 0
M  V30 8804 C 815.091 -2.75506 3.27537 0
M  V30 8805 C 814.417 -4.15275 3.36824 0
M  V30 8806 C 815.717 -2.38093 4.64875 0
M  V30 8807 H 817.411 -1.11146 2.78005 0
M  V30 8808 H 814.957 -0.533232 1.33763 0
M  V30 8809 H 816.91 -3.50752 2.33562 0
M  V30 8810 H 815.634 -3.04443 1.18245 0
M  V30 8811 H 814.293 -2.02538 3.05572 0
M  V30 8812 H 813.941 -4.41553 2.40915 0
M  V30 8813 H 813.641 -4.16299 4.14692 0
M  V30 8814 H 815.165 -4.92493 3.60947 0
M  V30 8815 H 816.579 -3.03232 4.86542 0
M  V30 8816 H 814.976 -2.50345 5.45387 0
M  V30 8817 H 816.046 -1.33227 4.66239 0
M  V30 8818 N 817.389 -1.46805 -0.573248 0
M  V30 8819 C 818.635 -1.5283 -1.33307 0
M  V30 8820 C 818.968 -0.183287 -1.93333 0
M  V30 8821 O 818.243 0.806354 -1.76998 0
M  V30 8822 C 818.526 -2.63414 -2.45531 0
M  V30 8823 C 818.379 -4.07478 -1.90478 0
M  V30 8824 C 819.698 -2.70014 -3.47535 0
M  V30 8825 H 816.817 -0.556371 -0.483343 0
M  V30 8826 H 819.459 -1.78787 -0.643066 0
M  V30 8827 H 817.609 -2.41412 -3.04389 0
M  V30 8828 H 819.281 -4.40795 -1.36004 0
M  V30 8829 H 817.524 -4.16511 -1.21248 0
M  V30 8830 H 818.195 -4.80598 -2.71531 0
M  V30 8831 H 820.671 -2.89817 -2.98572 0
M  V30 8832 H 819.547 -3.49192 -4.23504 0
M  V30 8833 H 819.808 -1.76436 -4.05367 0
M  V30 8834 N 818.867 0.818669 -1.34668 0
M  V30 8835 C 819.777 1.9616 -1.2868 0
M  V30 8836 C 820.793 1.72918 -0.193742 0
M  V30 8837 O 821.969 1.96951 -0.420975 0
M  V30 8838 C 819.034 3.30534 -1.04633 0
M  V30 8839 C 818.095 3.66755 -2.23136 0
M  V30 8840 C 817.328 4.94717 -2.00227 0
M  V30 8841 O 817.551 5.62218 -0.96264 0
M  V30 8842 O 816.485 5.28915 -2.87286 0
M  V30 8843 H 820.311 2.04157 -2.24842 0
M  V30 8844 H 817.896 0.954691 -1.14917 0
M  V30 8845 H 819.778 4.11005 -0.930216 0
M  V30 8846 H 818.453 3.23495 -0.115139 0
M  V30 8847 H 817.36 2.8671 -2.40308 0
M  V30 8848 H 818.693 3.78484 -3.1466 0
M  V30 8849 N 820.346 1.18468 1.03938 0
M  V30 8850 C 821.276 0.936389 2.13902 0
M  V30 8851 C 822.257 -0.126381 1.6963 0
M  V30 8852 O 823.442 0.0264757 1.94182 0
M  V30 8853 C 820.572 0.462729 3.44204 0
M  V30 8854 C 819.526 1.46613 4.02105 0
M  V30 8855 C 818.852 0.84994 5.27902 0
M  V30 8856 C 820.152 2.84323 4.3813 0
M  V30 8857 H 821.846 1.85602 2.3493 0
M  V30 8858 H 819.392 0.893806 1.12903 0
M  V30 8859 H 821.345 0.276382 4.20493 0
M  V30 8860 H 820.069 -0.492477 3.22866 0
M  V30 8861 H 818.728 1.63944 3.27899 0
M  V30 8862 H 818.376 -0.112493 5.02874 0
M  V30 8863 H 818.076 1.51988 5.67603 0
M  V30 8864 H 819.6 0.674152 6.06867 0
M  V30 8865 H 821.014 2.70636 5.054 0
M  V30 8866 H 819.411 3.48012 4.88884 0
M  V30 8867 H 820.481 3.37776 3.47901 0
M  V30 8868 N 821.824 -1.22873 0.986916 0
M  V30 8869 C 823.07 -1.91746 0.660401 0
M  V30 8870 C 823.403 -1.76738 -0.804812 0
M  V30 8871 O 822.678 -1.13246 -1.58131 0
M  V30 8872 C 822.961 -3.44156 1.05966 0
M  V30 8873 C 822.814 -3.68242 2.58298 0
M  V30 8874 C 824.133 -4.35874 0.60842 0
M  V30 8875 H 821.252 -0.696347 0.241391 0
M  V30 8876 H 823.894 -1.44867 1.22937 0
M  V30 8877 H 822.044 -3.84213 0.575534 0
M  V30 8878 H 823.716 -3.37626 3.14335 0
M  V30 8879 H 821.959 -3.12728 3.00638 0
M  V30 8880 H 822.63 -4.74956 2.81285 0
M  V30 8881 H 825.106 -4.03299 1.02417 0
M  V30 8882 H 823.982 -5.41201 0.916142 0
M  V30 8883 H 824.243 -4.39364 -0.491086 0
M  V30 8884 N 823.302 -0.75937 -1.38099 0
M  V30 8885 C 824.249 -0.135508 -2.30402 0
M  V30 8886 C 825.219 0.703356 -1.50473 0
M  V30 8887 O 826.404 0.658287 -1.79084 0
M  V30 8888 C 823.544 0.747228 -3.36913 0
M  V30 8889 C 822.657 -0.106893 -4.31868 0
M  V30 8890 C 821.792 0.779388 -5.25451 0
M  V30 8891 C 820.831 -0.0780179 -6.1205 0
M  V30 8892 N 819.968 0.765545 -6.97914 0
M  V30 8893 H 824.808 -0.9282 -2.83176 0
M  V30 8894 H 822.345 -0.46935 -1.39411 0
M  V30 8895 H 824.303 1.27371 -3.97281 0
M  V30 8896 H 822.933 1.50565 -2.85535 0
M  V30 8897 H 821.985 -0.751063 -3.72912 0
M  V30 8898 H 823.297 -0.768798 -4.9284 0
M  V30 8899 H 822.451 1.37282 -5.90964 0
M  V30 8900 H 821.19 1.47501 -4.6486 0
M  V30 8901 H 820.195 -0.684078 -5.45528 0
M  V30 8902 H 821.42 -0.770786 -6.74712 0
M  V30 8903 H 819.366 1.44601 -6.39864 0
M  V30 8904 H 819.283 0.160666 -7.55829 0
M  V30 8905 H 820.551 1.34377 -7.6783 0
M  V30 8906 N 824.78 1.49157 -0.508906 0
M  V30 8907 C 825.73 2.26215 0.284705 0
M  V30 8908 C 826.714 1.31401 0.928586 0
M  V30 8909 O 827.906 1.56073 0.834877 0
M  V30 8910 C 825.035 3.15906 1.34382 0
M  V30 8911 C 824.121 4.18186 0.705785 0
M  V30 8912 N 824.512 5.05419 -0.196214 0
M  V30 8913 C 822.81 4.35425 0.965457 0
M  V30 8914 C 823.511 5.78977 -0.562222 0
M  V30 8915 N 822.487 5.43553 0.0717389 0
M  V30 8916 H 826.289 2.91033 -0.409543 0
M  V30 8917 H 823.803 1.59104 -0.325508 0
M  V30 8918 H 825.8 3.6975 1.92589 0
M  V30 8919 H 824.46 2.52642 2.03966 0
M  V30 8920 H 825.471 5.14781 -0.567526 0
M  V30 8921 H 822.148 3.83363 1.65346 0
M  V30 8922 H 823.538 6.59192 -1.30062 0
M  V30 8923 N 826.258 0.243083 1.55714 0
M  V30 8924 C 827.205 -0.658078 2.21219 0
M  V30 8925 C 828.175 -1.1742 1.17481 0
M  V30 8926 O 829.36 -1.22937 1.45915 0
M  V30 8927 C 826.5 -1.85104 2.91257 0
M  V30 8928 C 825.613 -1.3718 4.09641 0
M  V30 8929 C 824.748 -2.52403 4.67404 0
M  V30 8930 C 823.787 -2.01321 5.78045 0
M  V30 8931 N 822.924 -3.09896 6.30007 0
M  V30 8932 H 827.764 -0.0927854 2.97856 0
M  V30 8933 H 825.301 -0.0340375 1.47061 0
M  V30 8934 H 827.259 -2.55179 3.3006 0
M  V30 8935 H 825.889 -2.38887 2.17101 0
M  V30 8936 H 824.941 -0.565232 3.76177 0
M  V30 8937 H 826.253 -0.957409 4.89525 0
M  V30 8938 H 825.407 -3.30525 5.08761 0
M  V30 8939 H 824.146 -2.97142 3.86728 0
M  V30 8940 H 823.151 -1.21667 5.36169 0
M  V30 8941 H 824.376 -1.57556 6.6057 0
M  V30 8942 H 822.322 -3.54077 5.52237 0
M  V30 8943 H 822.239 -2.72776 7.05074 0
M  V30 8944 H 823.507 -3.8809 6.76023 0
M  V30 8945 N 827.736 -1.57571 -0.0300757 0
M  V30 8946 C 829.147 -1.77567 -0.576802 0
M  V30 8947 C 829.498 -0.874034 -1.75656 0
M  V30 8948 O 828.623 -0.0686124 -2.16291 0
M  V30 8949 C 829.218 -3.22016 -1.05315 0
M  V30 8950 C 827.777 -3.43212 -1.5454 0
M  V30 8951 C 826.924 -2.73061 -0.483033 0
M  V30 8952 H 829.875 -1.57483 0.196151 0
M  V30 8953 H 829.896 -3.28474 -1.92055 0
M  V30 8954 H 829.408 -3.87613 -0.194298 0
M  V30 8955 H 827.509 -2.82788 -2.42615 0
M  V30 8956 H 827.622 -4.5182 -1.5936 0
M  V30 8957 H 825.986 -2.36805 -0.937835 0
M  V30 8958 H 826.769 -3.4134 0.366341 0
M  V30 8959 N 829.214 0.302327 -1.54673 0
M  V30 8960 C 830.161 1.37282 -1.85532 0
M  V30 8961 C 831.131 1.50437 -0.704129 0
M  V30 8962 O 832.316 1.65317 -0.952627 0
M  V30 8963 C 829.456 2.73309 -2.10704 0
M  V30 8964 C 828.569 2.68614 -3.38335 0
M  V30 8965 C 827.704 3.96626 -3.53357 0
M  V30 8966 C 826.743 3.86324 -4.74784 0
M  V30 8967 N 825.88 5.06109 -4.86619 0
M  V30 8968 H 830.72 1.10265 -2.76849 0
M  V30 8969 H 828.257 0.533346 -1.37091 0
M  V30 8970 H 830.215 3.52414 -2.23294 0
M  V30 8971 H 828.845 2.98589 -1.22656 0
M  V30 8972 H 827.897 1.81381 -3.34373 0
M  V30 8973 H 829.209 2.56891 -4.27561 0
M  V30 8974 H 828.363 4.84168 -3.65604 0
M  V30 8975 H 827.102 4.11182 -2.62261 0
M  V30 8976 H 826.107 2.97166 -4.62572 0
M  V30 8977 H 827.332 3.73315 -5.67286 0
M  V30 8978 H 825.278 5.2113 -3.98446 0
M  V30 8979 H 825.195 4.96804 -5.69844 0
M  V30 8980 H 826.463 5.95306 -5.03221 0
M  V30 8981 N 830.692 1.47107 0.565454 0
M  V30 8982 C 831.655 1.58535 1.65527 0
M  V30 8983 C 832.655 0.461081 1.54048 0
M  V30 8984 O 833.845 0.725911 1.58355 0
M  V30 8985 C 830.977 1.52204 3.05036 0
M  V30 8986 H 832.17 2.55676 1.56747 0
M  V30 8987 H 829.723 1.35174 0.78471 0
M  V30 8988 H 830.458 0.564071 3.19357 0
M  V30 8989 H 830.243 2.3379 3.14777 0
M  V30 8990 H 831.733 1.63322 3.84338 0
M  V30 8991 N 832.17 -0.811516 1.35101 0
M  V30 8992 C 833.398 -1.59981 1.31201 0
M  V30 8993 C 833.813 -1.8847 -0.111552 0
M  V30 8994 O 833.17 -1.48414 -1.06205 0
M  V30 8995 C 833.221 -2.934 2.11184 0
M  V30 8996 O 832.942 -2.66148 3.4799 0
M  V30 8997 C 834.443 -3.87776 2.14813 0
M  V30 8998 H 831.663 -0.496921 0.450899 0
M  V30 8999 H 834.207 -1.00886 1.77883 0
M  V30 9000 H 832.362 -3.49022 1.68115 0
M  V30 9001 H 832.776 -3.51301 3.89471 0
M  V30 9002 H 834.25 -4.7852 2.75178 0
M  V30 9003 H 834.727 -4.23997 1.14556 0
M  V30 9004 H 835.333 -3.3809 2.58022 0
M  V30 9005 N 833.648 -1.19017 -1.03309 0
M  V30 9006 C 834.595 -0.924088 -2.11493 0
M  V30 9007 C 835.565 0.139464 -1.65513 0
M  V30 9008 O 836.75 -0.00178761 -1.908 0
M  V30 9009 C 833.89 -0.464255 -3.41963 0
M  V30 9010 C 833.003 -1.5941 -4.01513 0
M  V30 9011 C 832.138 -1.08622 -5.19976 0
M  V30 9012 C 831.177 -2.19024 -5.71572 0
M  V30 9013 N 830.314 -1.69575 -6.81314 0
M  V30 9014 H 835.154 -1.85039 -2.33591 0
M  V30 9015 H 832.691 -0.922593 -1.14572 0
M  V30 9016 H 834.649 -0.179078 -4.16815 0
M  V30 9017 H 833.279 0.425062 -3.19989 0
M  V30 9018 H 832.331 -1.99458 -3.23915 0
M  V30 9019 H 833.643 -2.42604 -4.35826 0
M  V30 9020 H 832.797 -0.756022 -6.01971 0
M  V30 9021 H 831.536 -0.223955 -4.87186 0
M  V30 9022 H 830.541 -2.5288 -4.88193 0
M  V30 9023 H 831.766 -3.05699 -6.06403 0
M  V30 9024 H 829.712 -0.856494 -6.50385 0
M  V30 9025 H 829.629 -2.46361 -7.14732 0
M  V30 9026 H 830.897 -1.39505 -7.66915 0
M  V30 9027 N 835.127 1.22348 -0.993418 0
M  V30 9028 C 836.037 2.27987 -0.553076 0
M  V30 9029 C 837.053 1.69378 0.398386 0
M  V30 9030 O 838.229 1.99648 0.26509 0
M  V30 9031 C 835.294 3.46475 0.124809 0
M  V30 9032 C 834.355 4.20399 -0.869682 0
M  V30 9033 C 833.588 5.33229 -0.224052 0
M  V30 9034 O 833.811 5.61885 0.981915 0
M  V30 9035 O 832.745 5.94685 -0.929174 0
M  V30 9036 H 836.571 2.67822 -1.43195 0
M  V30 9037 H 834.156 1.28525 -0.761694 0
M  V30 9038 H 836.038 4.18369 0.504496 0
M  V30 9039 H 834.713 3.08565 0.978243 0
M  V30 9040 H 833.62 3.50774 -1.30031 0
M  V30 9041 H 834.953 4.62191 -1.69233 0
M  V30 9042 N 836.605 0.766683 1.37694 0
M  V30 9043 C 837.537 0.107798 2.28946 0
M  V30 9044 C 838.55 -0.669701 1.48387 0
M  V30 9045 O 839.739 -0.508629 1.711 0
M  V30 9046 C 836.839 -0.871084 3.27514 0
M  V30 9047 C 836.012 -0.148471 4.37148 0
M  V30 9048 C 835.071 -1.03998 5.1582 0
M  V30 9049 O 834.097 -0.505639 5.6695 0
M  V30 9050 N 835.299 -2.36679 5.3006 0
M  V30 9051 H 838.064 0.89154 2.86132 0
M  V30 9052 H 835.625 0.618593 1.49616 0
M  V30 9053 H 837.617 -1.47081 3.77027 0
M  V30 9054 H 836.187 -1.55582 2.71133 0
M  V30 9055 H 835.407 0.632117 3.89099 0
M  V30 9056 H 836.695 0.351045 5.07588 0
M  V30 9057 H 836.093 -2.82532 4.90094 0
M  V30 9058 H 834.65 -2.9167 5.82899 0
M  V30 9059 N 838.083 -1.48885 0.516809 0
M  V30 9060 C 839.013 -2.32241 -0.242157 0
M  V30 9061 C 839.994 -1.41258 -0.947633 0
M  V30 9062 O 841.179 -1.70156 -0.935973 0
M  V30 9063 C 838.309 -3.22151 -1.29754 0
M  V30 9064 C 837.263 -4.22053 -0.710995 0
M  V30 9065 C 836.589 -5.01007 -1.86806 0
M  V30 9066 C 837.889 -5.21388 0.30853 0
M  V30 9067 H 839.583 -2.95943 0.453651 0
M  V30 9068 H 837.129 -1.42316 0.219612 0
M  V30 9069 H 839.082 -3.79284 -1.83634 0
M  V30 9070 H 837.806 -2.56423 -2.02274 0
M  V30 9071 H 836.465 -3.66087 -0.193819 0
M  V30 9072 H 836.113 -4.31713 -2.58133 0
M  V30 9073 H 835.813 -5.68615 -1.48159 0
M  V30 9074 H 837.337 -5.60989 -2.4109 0
M  V30 9075 H 838.751 -5.73122 -0.142703 0
M  V30 9076 H 837.148 -5.96975 0.611673 0
M  V30 9077 H 838.218 -4.69329 1.21894 0
M  V30 9078 N 839.561 -0.251338 -1.55583 0
M  V30 9079 C 840.508 0.646337 -2.21565 0
M  V30 9080 C 841.478 1.16796 -1.18102 0
M  V30 9081 O 842.663 1.22162 -1.46564 0
M  V30 9082 C 839.803 1.83557 -2.92234 0
M  V30 9083 C 838.916 1.35006 -4.10363 0
M  V30 9084 C 838.051 2.4992 -4.68736 0
M  V30 9085 C 837.09 1.98253 -5.79105 0
M  V30 9086 N 836.227 3.06551 -6.31642 0
M  V30 9087 H 841.067 0.0769881 -2.97901 0
M  V30 9088 H 838.604 0.026238 -1.47077 0
M  V30 9089 H 840.562 2.53425 -3.31408 0
M  V30 9090 H 839.192 2.37733 -2.18364 0
M  V30 9091 H 838.244 0.545274 -3.76472 0
M  V30 9092 H 839.556 0.931435 -4.90026 0
M  V30 9093 H 838.71 3.27823 -5.10507 0
M  V30 9094 H 837.449 2.95086 -3.88298 0
M  V30 9095 H 836.454 1.18822 -5.36807 0
M  V30 9096 H 837.679 1.54051 -6.61396 0
M  V30 9097 H 835.625 3.51143 -5.54107 0
M  V30 9098 H 835.542 2.69033 -7.06511 0
M  V30 9099 H 836.81 3.84499 -6.78071 0
M  V30 9100 N 841.039 1.57585 0.0217189 0
M  V30 9101 C 842.002 2.06004 1.00474 0
M  V30 9102 C 843.002 0.965461 1.2859 0
M  V30 9103 O 844.192 1.22884 1.23471 0
M  V30 9104 C 841.324 2.48319 2.33561 0
M  V30 9105 H 842.517 2.94112 0.586346 0
M  V30 9106 H 840.07 1.53973 0.268716 0
M  V30 9107 H 840.805 1.63389 2.80133 0
M  V30 9108 H 840.59 3.28239 2.1448 0
M  V30 9109 H 842.08 2.86181 3.04122 0
M  V30 9110 N 842.517 -0.29412 1.54831 0
M  V30 9111 C 843.763 -1.02999 1.74697 0
M  V30 9112 C 844.096 -1.86687 0.534949 0
M  V30 9113 O 843.371 -1.88789 -0.467863 0
M  V30 9114 C 843.654 -1.93024 3.03996 0
M  V30 9115 C 843.507 -1.1247 4.35512 0
M  V30 9116 C 844.826 -2.92085 3.29203 0
M  V30 9117 H 841.945 -0.373039 0.635618 0
M  V30 9118 H 844.587 -0.304065 1.87551 0
M  V30 9119 H 842.737 -2.5492 2.93169 0
M  V30 9120 H 844.409 -0.528067 4.58268 0
M  V30 9121 H 842.652 -0.427574 4.31688 0
M  V30 9122 H 843.323 -1.78728 5.22265 0
M  V30 9123 H 845.799 -2.40319 3.39685 0
M  V30 9124 H 844.675 -3.52234 4.20978 0
M  V30 9125 H 844.936 -3.66107 2.47827 0
M  V30 9126 N 843.995 -1.47404 -0.557645 0
M  V30 9127 C 844.928 -1.54399 -1.68036 0
M  V30 9128 C 845.906 -0.396175 -1.577 0
M  V30 9129 O 847.09 -0.603911 -1.78564 0
M  V30 9130 C 844.217 -1.44611 -3.06277 0
M  V30 9131 C 843.263 -2.63889 -3.35059 0
M  V30 9132 S 844.096 -4.26086 -3.24362 0
M  V30 9133 C 845.252 -4.1885 -4.65097 0
M  V30 9134 H 845.485 -2.49384 -1.61849 0
M  V30 9135 H 843.018 -1.35597 -0.738429 0
M  V30 9136 H 844.976 -1.39651 -3.86015 0
M  V30 9137 H 843.637 -0.510114 -3.0993 0
M  V30 9138 H 842.83 -2.53103 -4.35838 0
M  V30 9139 H 842.432 -2.65969 -2.62938 0
M  V30 9140 H 844.724 -3.87077 -5.56037 0
M  V30 9141 H 845.667 -5.19714 -4.8094 0
M  V30 9142 H 846.075 -3.49717 -4.43123 0
M  V30 9143 N 845.473 0.80434 -1.35529 0
M  V30 9144 C 846.75 1.5486 -1.1949 0
M  V30 9145 C 847.13 2.09897 0.22506 0
M  V30 9146 O 846.478 1.92643 1.22886 0
M  V30 9147 C 846.688 2.65535 -2.26478 0
M  V30 9148 C 848.036 3.33814 -2.62399 0
M  V30 9149 O 849.06 2.75807 -2.25409 0
M  V30 9150 O 847.919 4.38612 -3.26009 0
M  V30 9151 H 845.013 0.68433 -0.464351 0
M  V30 9152 H 847.559 0.844107 -1.47217 0
M  V30 9153 H 846.331 2.22754 -3.21709 0
M  V30 9154 H 845.954 3.43617 -2.00033 0
M  V30 9155 N 846.951 1.19563 1.02676 0
M  V30 9156 C 848.228 0.908857 1.73203 0
M  V30 9157 C 848.608 -0.584928 2.02834 0
M  V30 9158 O 847.956 -1.54372 1.68469 0
M  V30 9159 C 848.166 1.77105 3.00724 0
M  V30 9160 C 849.514 2.00667 3.7419 0
M  V30 9161 O 850.538 1.74274 3.10656 0
M  V30 9162 O 849.397 2.4518 4.88415 0
M  V30 9163 H 846.491 0.338909 0.754367 0
M  V30 9164 H 849.037 1.30387 1.08616 0
M  V30 9165 H 847.809 2.78303 2.7507 0
M  V30 9166 H 847.432 1.37546 3.73051 0
M  V30 9167 N 848.429 -1.21819 0.999893 0
M  V30 9168 C 849.676 -1.90752 0.679694 0
M  V30 9169 C 850.004 -1.77777 -0.789014 0
M  V30 9170 O 849.259 -1.14518 -1.58695 0
M  V30 9171 C 849.558 -3.4193 1.04012 0
M  V30 9172 C 849.224 -3.75098 2.50225 0
M  V30 9173 C 847.886 -3.83861 2.90179 0
M  V30 9174 C 850.238 -3.90706 3.44961 0
M  V30 9175 C 847.566 -4.05676 4.23844 0
M  V30 9176 C 849.918 -4.14027 4.78294 0
M  V30 9177 C 848.582 -4.21016 5.17979 0
M  V30 9178 H 847.852 -0.698012 0.248718 0
M  V30 9179 H 850.499 -1.44437 1.25738 0
M  V30 9180 H 848.804 -3.89947 0.380606 0
M  V30 9181 H 850.501 -3.93532 0.770301 0
M  V30 9182 H 847.091 -3.68865 2.18258 0
M  V30 9183 H 851.275 -3.83307 3.15261 0
M  V30 9184 H 846.531 -4.09316 4.5417 0
M  V30 9185 H 850.705 -4.25046 5.51642 0
M  V30 9186 H 848.332 -4.37672 6.21568 0
M  V30 9187 N 849.908 -0.773975 -1.37286 0
M  V30 9188 C 850.871 -0.167974 -2.28584 0
M  V30 9189 C 851.871 0.625662 -1.48129 0
M  V30 9190 O 853.061 0.448924 -1.68316 0
M  V30 9191 C 850.193 0.769364 -3.32105 0
M  V30 9192 H 851.386 -0.972806 -2.83684 0
M  V30 9193 H 848.939 -0.542335 -1.46589 0
M  V30 9194 H 849.674 1.59912 -2.82132 0
M  V30 9195 H 849.459 0.202419 -3.91577 0
M  V30 9196 H 850.949 1.18872 -4.00324 0
M  V30 9197 N 851.386 1.48609 -0.524698 0
M  V30 9198 C 852.349 2.28041 0.230166 0
M  V30 9199 C 853.349 1.35065 0.872584 0
M  V30 9200 O 854.539 1.58007 0.73345 0
M  V30 9201 C 851.671 3.13778 1.33252 0
M  V30 9202 H 852.864 2.96239 -0.467161 0
M  V30 9203 H 850.417 1.53763 -0.280452 0
M  V30 9204 H 851.152 2.502 2.06327 0
M  V30 9205 H 850.937 3.82165 0.877058 0
M  V30 9206 H 852.427 3.7371 1.86362 0
M  V30 9207 N 852.864 0.259585 1.55447 0
M  V30 9208 C 854.111 -0.361607 1.99245 0
M  V30 9209 C 854.439 -1.57017 1.14787 0
M  V30 9210 O 853.694 -1.94658 0.201724 0
M  V30 9211 C 853.993 -0.802727 3.48269 0
M  V30 9212 C 853.659 0.299472 4.49904 0
M  V30 9213 C 852.321 0.602157 4.77418 0
M  V30 9214 C 854.673 1.04295 5.10658 0
M  V30 9215 C 852.001 1.65217 5.62957 0
M  V30 9216 C 854.353 2.08257 5.97337 0
M  V30 9217 C 853.017 2.39177 6.23178 0
M  V30 9218 H 852.287 -0.132322 0.72909 0
M  V30 9219 H 854.934 0.370059 1.8789 0
M  V30 9220 H 853.239 -1.61381 3.5702 0
M  V30 9221 H 854.936 -1.29385 3.79553 0
M  V30 9222 H 851.526 0.0534256 4.28567 0
M  V30 9223 H 855.71 0.822358 4.89439 0
M  V30 9224 H 850.966 1.89692 5.81229 0
M  V30 9225 H 855.14 2.6635 6.43452 0
M  V30 9226 H 852.767 3.20677 6.89253 0
M  V30 9227 N 854.342 -1.57594 -0.0133615 0
M  V30 9228 C 855.588 -1.90262 -0.702019 0
M  V30 9229 C 855.921 -0.859219 -1.74158 0
M  V30 9230 O 855.196 0.123778 -1.94106 0
M  V30 9231 C 855.479 -3.3354 -1.35732 0
M  V30 9232 C 855.332 -4.48586 -0.330208 0
M  V30 9233 C 856.651 -3.76004 -2.28712 0
M  V30 9234 H 853.77 -0.691943 -0.253739 0
M  V30 9235 H 856.412 -1.89967 0.0351894 0
M  V30 9236 H 854.562 -3.33921 -1.98567 0
M  V30 9237 H 856.234 -4.6034 0.297433 0
M  V30 9238 H 854.477 -4.32394 0.348926 0
M  V30 9239 H 855.148 -5.45762 -0.827508 0
M  V30 9240 H 857.624 -3.77089 -1.75906 0
M  V30 9241 H 856.5 -4.77032 -2.71535 0
M  V30 9242 H 856.761 -3.09129 -3.16056 0
M  V30 9243 N 855.82 0.285905 -1.54985 0
M  V30 9244 C 856.73 1.37534 -1.90057 0
M  V30 9245 C 857.746 1.54707 -0.796348 0
M  V30 9246 O 858.922 1.69082 -1.09423 0
M  V30 9247 C 855.987 2.7167 -2.15398 0
M  V30 9248 C 855.048 2.63354 -3.39033 0
M  V30 9249 C 854.281 3.91093 -3.63155 0
M  V30 9250 O 854.504 4.91169 -2.90015 0
M  V30 9251 O 853.438 3.92075 -4.56685 0
M  V30 9252 H 857.264 1.10791 -2.8277 0
M  V30 9253 H 854.849 0.483303 -1.41367 0
M  V30 9254 H 856.731 3.51006 -2.33179 0
M  V30 9255 H 855.406 2.98226 -1.25868 0
M  V30 9256 H 854.313 1.82438 -3.26599 0
M  V30 9257 H 855.646 2.41749 -4.2874 0
M  V30 9258 N 857.298 1.47698 0.54982 0
M  V30 9259 C 858.245 1.60739 1.65625 0
M  V30 9260 C 859.215 0.450129 1.59884 0
M  V30 9261 O 860.4 0.671123 1.78607 0
M  V30 9262 C 857.54 1.63457 3.03934 0
M  V30 9263 C 856.653 2.90152 3.20056 0
M  V30 9264 C 855.788 2.84157 4.48807 0
M  V30 9265 C 854.827 4.05644 4.58387 0
M  V30 9266 N 853.964 3.97843 5.78503 0
M  V30 9267 H 858.804 2.55234 1.53817 0
M  V30 9268 H 856.341 1.26593 0.749173 0
M  V30 9269 H 858.299 1.63015 3.84034 0
M  V30 9270 H 856.929 0.724689 3.1456 0
M  V30 9271 H 855.981 3.00428 2.33339 0
M  V30 9272 H 857.293 3.80097 3.22998 0
M  V30 9273 H 856.447 2.82006 5.37175 0
M  V30 9274 H 855.186 1.91908 4.48356 0
M  V30 9275 H 854.191 4.08092 3.6843 0
M  V30 9276 H 855.416 4.9903 4.60593 0
M  V30 9277 H 853.362 3.08401 5.78986 0
M  V30 9278 H 853.279 4.81473 5.82855 0
M  V30 9279 H 854.547 3.99719 6.69212 0
M  V30 9280 N 858.776 -0.797141 1.35954 0
M  V30 9281 C 860.016 -1.56795 1.31128 0
M  V30 9282 C 860.38 -1.91683 -0.110364 0
M  V30 9283 O 861.581 -2.67305 -0.283093 0
M  V30 9284 C 859.852 -2.81577 2.20111 0
M  V30 9285 S 861.411 -3.71895 2.32894 0
M  V30 9286 H 858.229 -0.53711 0.465869 0
M  V30 9287 H 860.831 -0.939522 1.71445 0
M  V30 9288 H 859.535 -2.53986 3.22365 0
M  V30 9289 H 859.066 -3.49399 1.80786 0
M  V30 9290 H 861.081 -4.72322 1.52073 0
M  V30 9291 N 860.254 -1.20106 -1.0204 0
M  V30 9292 C 861.494 -1.02013 -1.77123 0
M  V30 9293 C 861.858 0.440439 -1.8688 0
M  V30 9294 O 863.059 0.74144 -2.58372 0
M  V30 9295 C 861.33 -1.68058 -3.15423 0
M  V30 9296 S 862.889 -1.65016 -4.0659 0
M  V30 9297 H 859.707 -0.365882 -0.609632 0
M  V30 9298 H 862.309 -1.52597 -1.22206 0
M  V30 9299 H 861.013 -2.73544 -3.05944 0
M  V30 9300 H 860.544 -1.17589 -3.75415 0
M  V30 9301 H 862.559 -0.680341 -4.91514 0
M  V30 9302 N 861.732 1.21287 -1.00634 0
M  V30 9303 C 862.679 2.23705 -0.567876 0
M  V30 9304 C 863.649 1.61043 0.406753 0
M  V30 9305 O 864.834 1.88289 0.308499 0
M  V30 9306 C 861.974 3.44961 0.097996 0
M  V30 9307 C 861.087 4.22091 -0.919972 0
M  V30 9308 C 860.222 5.30718 -0.226222 0
M  V30 9309 C 859.261 5.99581 -1.23165 0
M  V30 9310 N 858.398 6.99821 -0.565278 0
M  V30 9311 H 863.238 2.60571 -1.44592 0
M  V30 9312 H 860.775 1.28049 -0.724006 0
M  V30 9313 H 862.733 4.1418 0.501097 0
M  V30 9314 H 861.363 3.08818 0.939744 0
M  V30 9315 H 860.415 3.52038 -1.44131 0
M  V30 9316 H 861.727 4.69476 -1.68505 0
M  V30 9317 H 860.881 6.06253 0.232917 0
M  V30 9318 H 859.62 4.84343 0.571247 0
M  V30 9319 H 858.625 5.22816 -1.70128 0
M  V30 9320 H 859.85 6.48042 -2.03022 0
M  V30 9321 H 857.796 6.55656 0.212508 0
M  V30 9322 H 857.713 7.4528 -1.26858 0
M  V30 9323 H 858.981 7.79393 -0.129389 0
M  V30 9324 N 863.21 0.781244 1.36873 0
M  V30 9325 C 864.173 0.180094 2.28491 0
M  V30 9326 C 865.173 -0.617798 1.48458 0
M  V30 9327 O 866.363 -0.439991 1.68552 0
M  V30 9328 C 863.495 -0.751741 3.32508 0
M  V30 9329 H 864.688 0.987837 2.83164 0
M  V30 9330 H 862.241 0.550102 1.463 0
M  V30 9331 H 862.976 -1.58413 2.82977 0
M  V30 9332 H 862.761 -0.181649 3.91679 0
M  V30 9333 H 864.251 -1.16748 4.00949 0
M  V30 9334 N 864.689 -1.48329 0.532571 0
M  V30 9335 C 865.966 -1.95492 -0.0650985 0
M  V30 9336 C 866.346 -1.47485 -1.51034 0
M  V30 9337 O 865.694 -0.702516 -2.17433 0
M  V30 9338 C 865.904 -3.48957 0.0548341 0
M  V30 9339 C 867.252 -4.24475 -0.103115 0
M  V30 9340 O 868.276 -3.56195 -0.0188343 0
M  V30 9341 O 867.135 -5.45781 -0.280164 0
M  V30 9342 H 864.229 -0.823327 -0.0778603 0
M  V30 9343 H 866.775 -1.58839 0.597353 0
M  V30 9344 H 865.547 -3.76628 1.06148 0
M  V30 9345 H 865.17 -3.92311 -0.64635 0
M  V30 9346 N 866.167 -0.267825 -1.55308 0
M  V30 9347 C 867.444 0.402449 -1.91415 0
M  V30 9348 C 867.824 1.7428 -1.1912 0
M  V30 9349 O 867.172 2.2631 -0.315609 0
M  V30 9350 C 867.382 0.549926 -3.4464 0
M  V30 9351 C 868.73 0.836188 -4.16285 0
M  V30 9352 O 869.754 0.635009 -3.50494 0
M  V30 9353 O 868.613 1.22051 -5.32697 0
M  V30 9354 H 865.707 0.219177 -0.797427 0
M  V30 9355 H 868.253 -0.313439 -1.6678 0
M  V30 9356 H 867.025 -0.393641 -3.89315 0
M  V30 9357 H 866.648 1.31556 -3.75205 0
M  V30 9358 N 867.645 1.57599 0.00500368 0
M  V30 9359 C 868.592 2.08106 0.998025 0
M  V30 9360 C 869.562 0.975374 1.34446 0
M  V30 9361 O 870.747 1.24749 1.44369 0
M  V30 9362 C 867.887 2.58496 2.28635 0
M  V30 9363 C 867 3.82947 1.99939 0
M  V30 9364 C 866.135 4.21857 3.22816 0
M  V30 9365 C 865.174 5.39159 2.89783 0
M  V30 9366 N 864.311 5.73386 4.05183 0
M  V30 9367 H 869.151 2.92684 0.560385 0
M  V30 9368 H 866.688 1.44692 0.265053 0
M  V30 9369 H 868.646 2.85787 3.03943 0
M  V30 9370 H 867.276 1.768 2.70077 0
M  V30 9371 H 866.328 3.62594 1.1502 0
M  V30 9372 H 867.64 4.68358 1.71588 0
M  V30 9373 H 866.794 4.50404 4.06474 0
M  V30 9374 H 865.533 3.35145 3.54301 0
M  V30 9375 H 864.538 5.1034 2.04532 0
M  V30 9376 H 865.763 6.27543 2.59551 0
M  V30 9377 H 863.709 4.89632 4.36574 0
M  V30 9378 H 863.626 6.53359 3.80339 0
M  V30 9379 H 864.894 6.06522 4.89644 0
M  V30 9380 N 869.123 -0.277682 1.55134 0
M  V30 9381 C 870.033 -1.36524 1.90783 0
M  V30 9382 C 871.049 -1.54283 0.804542 0
M  V30 9383 O 872.225 -1.68499 1.10318 0
M  V30 9384 C 869.29 -2.70524 2.16835 0
M  V30 9385 C 868.351 -2.61552 3.40424 0
M  V30 9386 C 867.584 -3.89162 3.65224 0
M  V30 9387 O 867.807 -4.89624 2.92616 0
M  V30 9388 O 866.741 -3.89647 4.58758 0
M  V30 9389 H 870.567 -1.0929 2.83354 0
M  V30 9390 H 868.152 -0.475799 1.41621 0
M  V30 9391 H 870.034 -3.49765 2.35038 0
M  V30 9392 H 868.709 -2.97555 1.27448 0
M  V30 9393 H 867.616 -1.80704 3.27562 0
M  V30 9394 H 868.949 -2.39472 4.30016 0
M  V30 9395 N 870.601 -1.47988 -0.541979 0
M  V30 9396 C 871.829 -1.59034 -1.32347 0
M  V30 9397 C 872.244 -0.246123 -1.87189 0
M  V30 9398 O 871.601 0.762889 -1.6579 0
M  V30 9399 C 871.652 -2.62759 -2.48274 0
M  V30 9400 O 871.373 -3.91963 -1.95695 0
M  V30 9401 C 872.874 -2.84133 -3.4027 0
M  V30 9402 H 870.094 -0.536574 -0.402901 0
M  V30 9403 H 872.638 -1.93725 -0.655045 0
M  V30 9404 H 870.793 -2.3096 -3.11025 0
M  V30 9405 H 871.207 -4.48769 -2.7149 0
M  V30 9406 H 872.681 -3.60538 -4.17991 0
M  V30 9407 H 873.158 -1.92512 -3.9476 0
M  V30 9408 H 873.764 -3.17188 -2.83322 0
M  V30 9409 N 872.079 0.78992 -1.36375 0
M  V30 9410 C 873.319 1.56098 -1.31958 0
M  V30 9411 C 873.683 1.91738 0.100197 0
M  V30 9412 O 874.884 2.67451 0.268913 0
M  V30 9413 C 873.155 2.80406 -2.21601 0
M  V30 9414 S 874.714 3.70655 -2.34863 0
M  V30 9415 H 871.532 0.534632 -0.46871 0
M  V30 9416 H 874.134 0.930417 -1.7194 0
M  V30 9417 H 872.838 2.52273 -3.23707 0
M  V30 9418 H 872.369 3.48436 -1.82637 0
M  V30 9419 H 874.384 4.71509 -1.54575 0
M  V30 9420 N 873.557 1.20646 1.01402 0
M  V30 9421 C 874.804 1.01819 1.7504 0
M  V30 9422 C 875.132 -0.449386 1.89237 0
M  V30 9423 O 874.387 -1.34985 1.41695 0
M  V30 9424 C 874.686 1.64991 3.17037 0
M  V30 9425 C 874.352 3.14808 3.22811 0
M  V30 9426 C 873.014 3.55692 3.24094 0
M  V30 9427 C 875.366 4.108 3.2077 0
M  V30 9428 C 872.694 4.9109 3.2101 0
M  V30 9429 C 875.046 5.46147 3.19227 0
M  V30 9430 C 873.71 5.86441 3.18815 0
M  V30 9431 H 872.98 0.372582 0.640518 0
M  V30 9432 H 875.627 1.50108 1.18911 0
M  V30 9433 H 873.932 1.08971 3.76341 0
M  V30 9434 H 875.629 1.47937 3.72714 0
M  V30 9435 H 872.219 2.8224 3.2255 0
M  V30 9436 H 876.403 3.80246 3.18946 0
M  V30 9437 H 871.659 5.21569 3.19023 0
M  V30 9438 H 875.833 6.20272 3.166 0
M  V30 9439 H 873.46 6.91328 3.16179 0
M  V30 9440 N 875.035 -1.20752 1.01276 0
M  V30 9441 C 875.998 -2.2162 0.584583 0
M  V30 9442 C 876.998 -1.57094 -0.343215 0
M  V30 9443 O 878.188 -1.73696 -0.132433 0
M  V30 9444 C 875.32 -3.40583 -0.146872 0
M  V30 9445 H 876.513 -2.61015 1.47686 0
M  V30 9446 H 874.066 -1.34148 0.802123 0
M  V30 9447 H 874.801 -3.06686 -1.05424 0
M  V30 9448 H 874.586 -3.88642 0.51958 0
M  V30 9449 H 876.076 -4.15339 -0.433924 0
M  V30 9450 N 876.513 -0.788492 -1.36457 0
M  V30 9451 C 877.423 -0.187385 -2.3385 0
M  V30 9452 C 878.439 0.659984 -1.60998 0
M  V30 9453 O 879.615 0.575986 -1.92988 0
M  V30 9454 C 876.68 0.668525 -3.40194 0
M  V30 9455 C 875.741 -0.197234 -4.28847 0
M  V30 9456 C 874.974 0.61792 -5.30111 0
M  V30 9457 O 875.197 1.85396 -5.3943 0
M  V30 9458 O 874.131 0.0183016 -6.01897 0
M  V30 9459 H 877.957 -0.992617 -2.87021 0
M  V30 9460 H 875.542 -0.549934 -1.3891 0
M  V30 9461 H 877.424 1.15663 -4.05216 0
M  V30 9462 H 876.099 1.45166 -2.89324 0
M  V30 9463 H 875.006 -0.73207 -3.66867 0
M  V30 9464 H 876.339 -0.943863 -4.83065 0
M  V30 9465 N 877.991 1.48044 -0.54043 0
M  V30 9466 C 878.901 2.33565 0.220163 0
M  V30 9467 C 879.917 1.47146 0.928659 0
M  V30 9468 O 881.093 1.80107 0.901295 0
M  V30 9469 C 878.158 3.2349 1.2472 0
M  V30 9470 C 877.219 4.25789 0.547938 0
M  V30 9471 C 876.452 5.11417 1.52605 0
M  V30 9472 O 876.675 4.99204 2.75956 0
M  V30 9473 O 875.609 5.92498 1.05972 0
M  V30 9474 H 879.435 2.99868 -0.480898 0
M  V30 9475 H 877.02 1.46332 -0.301226 0
M  V30 9476 H 878.902 3.79084 1.84047 0
M  V30 9477 H 877.577 2.59835 1.93048 0
M  V30 9478 H 876.484 3.74001 -0.0860941 0
M  V30 9479 H 877.817 4.92111 -0.0935896 0
M  V30 9480 N 879.47 0.276058 1.55163 0
M  V30 9481 C 880.718 -0.339782 1.99223 0
M  V30 9482 C 881.039 -1.56307 1.16589 0
M  V30 9483 O 880.309 -1.94225 0.25564 0
M  V30 9484 H 878.889 -0.128534 0.735859 0
M  V30 9485 H 881.551 0.381612 1.91128 0
M  V30 9486 H 880.647 -0.629 3.05696 0
M  V30 9487 N 880.948 -1.576 0.00335426 0
M  V30 9488 C 881.895 -2.08632 -0.986975 0
M  V30 9489 C 882.865 -0.982491 -1.33927 0
M  V30 9490 O 884.05 -1.25513 -1.43705 0
M  V30 9491 C 881.19 -2.59705 -2.27261 0
M  V30 9492 C 880.303 -3.84002 -1.97905 0
M  V30 9493 C 879.438 -4.23563 -3.20574 0
M  V30 9494 C 878.477 -5.40688 -2.8692 0
M  V30 9495 N 877.614 -5.75526 -4.02136 0
M  V30 9496 H 882.454 -2.92977 -0.544855 0
M  V30 9497 H 879.991 -1.44831 -0.257376 0
M  V30 9498 H 881.949 -2.87395 -3.02423 0
M  V30 9499 H 880.579 -1.7823 -2.69136 0
M  V30 9500 H 879.631 -3.63199 -1.13096 0
M  V30 9501 H 880.943 -4.69261 -1.69102 0
M  V30 9502 H 880.097 -4.52554 -4.04079 0
M  V30 9503 H 878.836 -3.37019 -3.52518 0
M  V30 9504 H 877.841 -5.11417 -2.01822 0
M  V30 9505 H 879.066 -6.2891 -2.5622 0
M  V30 9506 H 877.012 -4.9194 -4.33971 0
M  V30 9507 H 876.929 -6.55367 -3.76869 0
M  V30 9508 H 878.197 -6.0911 -4.8642 0
M  V30 9509 N 882.426 0.269451 -1.5528 0
M  V30 9510 C 883.373 1.33316 -1.88403 0
M  V30 9511 C 884.343 1.48909 -0.735881 0
M  V30 9512 O 885.528 1.63259 -0.987479 0
M  V30 9513 C 882.668 2.68778 -2.16454 0
M  V30 9514 C 881.781 2.61377 -3.43956 0
M  V30 9515 C 880.916 3.89042 -3.6169 0
M  V30 9516 C 879.955 3.76166 -4.82872 0
M  V30 9517 N 879.092 4.95673 -4.97245 0
M  V30 9518 H 883.932 1.04368 -2.79126 0
M  V30 9519 H 881.469 0.504147 -1.38191 0
M  V30 9520 H 883.427 3.47599 -2.30719 0
M  V30 9521 H 882.057 2.9592 -1.28961 0
M  V30 9522 H 881.109 1.74247 -3.38145 0
M  V30 9523 H 882.421 2.47764 -4.32914 0
M  V30 9524 H 881.575 4.76304 -3.75791 0
M  V30 9525 H 880.314 4.05526 -2.70924 0
M  V30 9526 H 879.319 2.87287 -4.68771 0
M  V30 9527 H 880.544 3.61198 -5.75077 0
M  V30 9528 H 878.49 5.12561 -4.09411 0
M  V30 9529 H 878.407 4.84605 -5.80254 0
M  V30 9530 H 879.675 5.84498 -5.15735 0
M  V30 9531 N 883.904 1.48273 0.534124 0
M  V30 9532 C 884.834 1.6538 1.64839 0
M  V30 9533 C 885.815 0.502741 1.62501 0
M  V30 9534 O 887 0.734799 1.79762 0
M  V30 9535 C 884.13 1.68949 3.03436 0
M  V30 9536 C 883.084 2.83513 3.20631 0
M  V30 9537 C 882.41 2.72169 4.60248 0
M  V30 9538 C 883.71 4.24858 3.03797 0
M  V30 9539 H 885.404 2.58663 1.50777 0
M  V30 9540 H 882.95 1.24479 0.723937 0
M  V30 9541 H 884.903 1.79505 3.81256 0
M  V30 9542 H 883.627 0.722415 3.1851 0
M  V30 9543 H 882.286 2.72505 2.45227 0
M  V30 9544 H 881.934 1.7344 4.72152 0
M  V30 9545 H 881.634 3.49042 4.72698 0
M  V30 9546 H 883.158 2.84687 5.40172 0
M  V30 9547 H 884.572 4.36721 3.71413 0
M  V30 9548 H 882.969 5.02697 3.27743 0
M  V30 9549 H 884.039 4.41611 2.0027 0
M  V30 9550 N 885.382 -0.782676 1.36792 0
M  V30 9551 C 886.628 -1.54311 1.3159 0
M  V30 9552 C 886.961 -1.93928 -0.102696 0
M  V30 9553 O 886.236 -1.63233 -1.05761 0
M  V30 9554 C 886.519 -2.81561 2.24489 0
M  V30 9555 C 886.372 -2.48268 3.75078 0
M  V30 9556 C 887.691 -3.83428 2.16034 0
M  V30 9557 H 884.81 -0.559828 0.479335 0
M  V30 9558 H 887.452 -0.898717 1.67401 0
M  V30 9559 H 885.602 -3.36549 1.9408 0
M  V30 9560 H 887.274 -1.99279 4.16036 0
M  V30 9561 H 885.517 -1.81116 3.94182 0
M  V30 9562 H 886.188 -3.39183 4.35499 0
M  V30 9563 H 888.664 -3.37905 2.42815 0
M  V30 9564 H 887.54 -4.70204 2.83194 0
M  V30 9565 H 887.801 -4.26887 1.14976 0
M  V30 9566 N 886.86 -1.21182 -1.00761 0
M  V30 9567 C 887.823 -0.970339 -2.07646 0
M  V30 9568 C 888.823 0.0576345 -1.60697 0
M  V30 9569 O 890.013 -0.179369 -1.73274 0
M  V30 9570 C 887.145 -0.462703 -3.37745 0
M  V30 9571 H 888.338 -1.91856 -2.30502 0
M  V30 9572 H 885.891 -1.02844 -1.17698 0
M  V30 9573 H 886.626 0.490559 -3.20568 0
M  V30 9574 H 886.411 -1.20416 -3.73152 0
M  V30 9575 H 887.901 -0.313531 -4.16421 0
M  V30 9576 N 888.338 1.20213 -1.01915 0
M  V30 9577 C 889.301 2.21307 -0.596327 0
M  V30 9578 C 890.301 1.57274 0.334879 0
M  V30 9579 O 891.491 1.73764 0.12322 0
M  V30 9580 C 888.623 3.40657 0.128808 0
M  V30 9581 H 889.816 2.60228 -1.49068 0
M  V30 9582 H 887.369 1.33721 -0.809226 0
M  V30 9583 H 888.104 3.07241 1.03796 0
M  V30 9584 H 887.889 3.88361 -0.540183 0
M  V30 9585 H 889.379 4.15564 0.411892 0
M  V30 9586 N 889.816 0.795718 1.36037 0
M  V30 9587 C 891.041 0.38204 2.03851 0
M  V30 9588 C 891.466 -0.995553 1.59594 0
M  V30 9589 O 890.824 -1.64258 0.767401 0
M  V30 9590 C 890.872 0.461248 3.57638 0
M  V30 9591 O 889.976 -0.529448 4.08987 0
M  V30 9592 H 889.317 0.161227 0.644129 0
M  V30 9593 H 891.847 1.07858 1.73861 0
M  V30 9594 H 891.857 0.32712 4.06687 0
M  V30 9595 H 890.532 1.46613 3.89201 0
M  V30 9596 H 889.109 -0.35646 3.71192 0
M  V30 9597 N 891.294 -1.47756 0.548274 0
M  V30 9598 C 892.226 -2.27921 -0.24177 0
M  V30 9599 C 893.239 -1.36471 -0.887658 0
M  V30 9600 O 894.428 -1.6137 -0.763016 0
M  V30 9601 C 891.528 -3.10449 -1.35922 0
M  V30 9602 C 890.701 -4.298 -0.811808 0
M  V30 9603 C 889.76 -4.93994 -1.81264 0
M  V30 9604 O 888.786 -5.52657 -1.3623 0
M  V30 9605 N 889.988 -4.87882 -3.14566 0
M  V30 9606 H 892.753 -2.96365 0.445848 0
M  V30 9607 H 890.314 -1.57286 0.383769 0
M  V30 9608 H 892.306 -3.50261 -2.02729 0
M  V30 9609 H 890.876 -2.44306 -1.95021 0
M  V30 9610 H 890.096 -3.94186 0.0327929 0
M  V30 9611 H 891.384 -5.0702 -0.425272 0
M  V30 9612 H 890.782 -4.41405 -3.53805 0
M  V30 9613 H 889.339 -5.3174 -3.76956 0
M  V30 9614 N 892.772 -0.284283 -1.55015 0
M  V30 9615 C 893.735 0.586182 -2.21577 0
M  V30 9616 C 894.735 1.07427 -1.1965 0
M  V30 9617 O 895.925 0.972977 -1.44495 0
M  V30 9618 C 893.057 1.80973 -2.88897 0
M  V30 9619 H 894.25 0.00487253 -2.999 0
M  V30 9620 H 891.803 -0.0349696 -1.56261 0
M  V30 9621 H 892.538 2.43131 -2.14611 0
M  V30 9622 H 892.323 1.46757 -3.636 0
M  V30 9623 H 893.813 2.42853 -3.39724 0
M  V30 9624 N 894.251 1.57596 -0.0117121 0
M  V30 9625 C 895.214 2.08089 0.960816 0
M  V30 9626 C 896.214 0.992519 1.26514 0
M  V30 9627 O 897.404 1.25475 1.20837 0
M  V30 9628 C 894.536 2.53217 2.28241 0
M  V30 9629 H 895.729 2.9529 0.523829 0
M  V30 9630 H 893.282 1.54508 0.235995 0
M  V30 9631 H 894.017 1.69294 2.76604 0
M  V30 9632 H 893.802 3.32714 2.0747 0
M  V30 9633 H 895.292 2.92568 2.97983 0
M  V30 9634 N 895.729 -0.261212 1.5542 0
M  V30 9635 C 896.659 -1.32712 1.92119 0
M  V30 9636 C 897.64 -1.50934 0.784406 0
M  V30 9637 O 898.825 -1.63781 1.04352 0
M  V30 9638 C 895.955 -2.68453 2.20341 0
M  V30 9639 C 894.909 -2.64947 3.36136 0
M  V30 9640 C 894.235 -4.04349 3.49865 0
M  V30 9641 C 895.535 -2.23182 4.72215 0
M  V30 9642 H 897.229 -1.02245 2.81401 0
M  V30 9643 H 894.775 -0.490406 1.35392 0
M  V30 9644 H 896.728 -3.43144 2.44603 0
M  V30 9645 H 895.452 -3.00527 1.27871 0
M  V30 9646 H 894.111 -1.92714 3.11861 0
M  V30 9647 H 893.759 -4.33665 2.5484 0
M  V30 9648 H 893.459 -4.02895 4.27726 0
M  V30 9649 H 894.983 -4.80761 3.76432 0
M  V30 9650 H 896.397 -2.87599 4.95943 0
M  V30 9651 H 894.794 -2.32867 5.53076 0
M  V30 9652 H 895.864 -1.18327 4.70241 0
M  V30 9653 N 897.207 -1.48554 -0.526253 0
M  V30 9654 C 898.455 -1.56452 -1.27935 0
M  V30 9655 C 898.776 -0.24184 -1.93495 0
M  V30 9656 O 898.046 0.736917 -1.81511 0
M  V30 9657 H 896.626 -0.576379 -0.47518 0
M  V30 9658 H 899.288 -1.85039 -0.612083 0
M  V30 9659 H 898.384 -2.34751 -2.05666 0
M  V30 9660 N 898.685 0.775411 -1.37205 0
M  V30 9661 C 899.615 1.90258 -1.35367 0
M  V30 9662 C 900.596 1.68634 -0.222864 0
M  V30 9663 O 901.781 1.89545 -0.422659 0
M  V30 9664 C 898.911 3.27488 -1.15623 0
M  V30 9665 C 897.865 3.63668 -2.25676 0
M  V30 9666 C 897.191 4.994 -1.91059 0
M  V30 9667 C 898.491 3.70797 -3.67841 0
M  V30 9668 H 900.185 1.92053 -2.29687 0
M  V30 9669 H 897.731 0.922597 -1.10563 0
M  V30 9670 H 899.684 4.05976 -1.12968 0
M  V30 9671 H 898.408 3.26117 -0.177573 0
M  V30 9672 H 897.067 2.87486 -2.2748 0
M  V30 9673 H 896.715 4.94565 -0.917324 0
M  V30 9674 H 896.415 5.24576 -2.64751 0
M  V30 9675 H 897.939 5.80291 -1.89985 0
M  V30 9676 H 899.353 4.39444 -3.68187 0
M  V30 9677 H 897.75 4.07468 -4.40556 0
M  V30 9678 H 898.82 2.71549 -4.01732 0
M  V30 9679 O 900.202 1.33054 0.915364 0
M  V30 9680 H 900.893 1.16327 1.5488 0
M  V30 END ATOM
M  V30 BEGIN BOND
M  V30 END BOND
M  V30 END CTAB
M  END
$$$$
