drugbank_target|P13956 rRNA adenine N-6-methyltransferase (DB01752; DB01910)
 OpenBabel12092120223D

  0  0  0     0  0            999 V3000
M  V30 BEGIN CTAB
M  V30 COUNTS 4999 5295 0 0 0
M  V30 BEGIN ATOM
M  V30 1 H -2.588 8.49073 -0.0679273 0
M  V30 2 O -1.492 9.37262 0.0843559 0
M  V30 3 P 0 8.791 0 0
M  V30 4 O 1.422 9.31096 0.027933 0
M  V30 5 O -0.36 7.77869 -1.04071 0
M  V30 6 O -0.323 8.09533 1.41463 0
M  V30 7 C -0.483 9.0349 2.53943 0
M  V30 8 C 0.057 8.35226 3.79016 0
M  V30 9 O -0.999 7.57992 4.15078 0
M  V30 10 C 1.275 7.45087 3.67298 0
M  V30 11 O 2.013 7.27796 4.85194 0
M  V30 12 C 0.606 6.17323 3.12027 0
M  V30 13 O 1.405 5.04231 3.47188 0
M  V30 14 C -0.731 6.19961 3.81809 0
M  V30 15 H -0.699 5.58218 4.73051 0
M  V30 16 H 0.484 6.21726 2.02589 0
M  V30 17 H 1.968 7.86112 2.9231 0
M  V30 18 H 0.274 9.11627 4.55076 0
M  V30 19 H 0.084 9.9573 2.34194 0
M  V30 20 H -1.546 9.2792 2.67832 0
M  V30 21 H 1.093 4.67702 4.28772 0
M  V30 22 P 2.95057 7.39546 4.75277 0
M  V30 23 O 4.37257 7.81777 5.05738 0
M  V30 24 O 2.59057 7.1065 3.32998 0
M  V30 25 O 2.62757 6.04542 5.56673 0
M  V30 26 C 2.46757 6.22772 7.02095 0
M  V30 27 C 3.00757 4.97725 7.70406 0
M  V30 28 O 1.95157 4.13256 7.58987 0
M  V30 29 C 4.22557 4.28231 7.11815 0
M  V30 30 O 4.96357 3.49945 8.01648 0
M  V30 31 C 3.55657 3.5063 5.96244 0
M  V30 32 O 4.35557 2.36482 5.64681 0
M  V30 33 C 2.21957 3.15122 6.56374 0
M  V30 34 H 2.25157 2.13853 6.99751 0
M  V30 35 H 3.43457 4.13501 5.06559 0
M  V30 36 H 4.91857 5.03285 6.70911 0
M  V30 37 H 3.22457 5.20877 8.75697 0
M  V30 38 H 3.03457 7.11046 7.35349 0
M  V30 39 H 1.40457 6.35815 7.26986 0
M  V30 40 H 4.04357 1.61644 6.13565 0
M  V30 41 P 5.90114 3.65191 7.99657 0
M  V30 42 O 7.32314 3.8425 8.48115 0
M  V30 43 O 5.54114 4.17805 6.64342 0
M  V30 44 O 5.57814 2.07613 7.95143 0
M  V30 45 C 5.41814 1.44328 9.27336 0
M  V30 46 C 5.95814 0.0220036 9.17197 0
M  V30 47 O 4.90214 -0.626867 8.61923 0
M  V30 48 C 7.17614 -0.24586 8.30336 0
M  V30 49 O 7.91414 -1.39011 8.63583 0
M  V30 50 C 6.50714 -0.273849 6.91158 0
M  V30 51 O 7.30614 -1.06348 6.02892 0
M  V30 52 C 5.17014 -0.897649 7.22545 0
M  V30 53 H 5.20214 -1.9841 7.04286 0
M  V30 54 H 6.38514 0.739928 6.497 0
M  V30 55 H 7.86914 0.60668 8.36503 0
M  V30 56 H 6.17514 -0.352479 10.1829 0
M  V30 57 H 5.98514 2.00611 10.0304 0
M  V30 58 H 4.35514 1.41843 9.55327 0
M  V30 59 H 6.99414 -1.95734 6.03555 0
M  V30 60 P 8.85171 -1.25109 8.70152 0
M  V30 61 O 10.2737 -1.35274 9.21221 0
M  V30 62 O 8.49171 -0.0769065 7.84762 0
M  V30 63 O 8.52871 -2.55232 7.81161 0
M  V30 64 C 8.36871 -3.79939 8.58154 0
M  V30 65 C 8.90871 -4.94023 7.72785 0
M  V30 66 O 7.85271 -5.18726 6.91205 0
M  V30 67 C 10.1267 -4.69597 6.85231 0
M  V30 68 O 10.8647 -5.83832 6.51337 0
M  V30 69 C 9.45771 -3.96706 5.66633 0
M  V30 70 O 10.2567 -4.15414 4.49689 0
M  V30 71 C 8.12071 -4.66153 5.59313 0
M  V30 72 H 8.15271 -5.47679 4.85214 0
M  V30 73 H 9.33571 -2.89008 5.86566 0
M  V30 74 H 10.8197 -4.0121 7.36511 0
M  V30 75 H 9.12571 -5.80182 8.37584 0
M  V30 76 H 8.93571 -3.73517 9.52265 0
M  V30 77 H 7.30571 -3.97163 8.80359 0
M  V30 78 H 9.94471 -4.90969 4.01921 0
M  V30 79 P 11.8023 -5.75688 6.64379 0
M  V30 80 O 13.2243 -6.11849 7.01846 0
M  V30 81 O 11.4423 -4.30744 6.56026 0
M  V30 82 O 11.4793 -6.37042 5.19165 0
M  V30 83 C 11.3193 -7.83578 5.16515 0
M  V30 84 C 11.8593 -8.33398 3.83019 0
M  V30 85 O 10.8033 -8.10074 3.01034 0
M  V30 86 C 13.0773 -7.65514 3.2257 0
M  V30 87 O 13.8153 -8.4329 2.32297 0
M  V30 88 C 12.4083 -6.40075 2.62207 0
M  V30 89 O 13.2073 -5.92589 1.53712 0
M  V30 90 C 11.0713 -6.9454 2.18503 0
M  V30 91 H 11.1033 -7.23063 1.12091 0
M  V30 92 H 12.2863 -5.6025 3.37201 0
M  V30 93 H 13.7703 -7.35707 4.02681 0
M  V30 94 H 12.0763 -9.40912 3.9095 0
M  V30 95 H 11.8863 -8.29056 5.99158 0
M  V30 96 H 10.2563 -8.10073 5.25882 0
M  V30 97 H 12.8953 -6.30324 0.726794 0
M  V30 98 P 14.7528 -8.4349 2.47671 0
M  V30 99 O 16.1748 -8.94167 2.5964 0
M  V30 100 O 14.3928 -7.1704 3.19006 0
M  V30 101 O 14.4298 -8.16596 0.923387 0
M  V30 102 C 14.2698 -9.38437 0.108857 0
M  V30 103 C 14.8098 -9.08175 -1.28353 0
M  V30 104 O 13.7538 -8.44229 -1.84713 0
M  V30 105 C 16.0278 -8.18386 -1.42505 0
M  V30 106 O 16.7659 -8.3501 -2.60497 0
M  V30 107 C 15.3588 -6.80225 -1.25468 0
M  V30 108 O 16.1578 -5.81621 -1.91066 0
M  V30 109 C 14.0218 -7.02416 -1.9168 0
M  V30 110 H 14.0538 -6.6888 -2.96621 0
M  V30 111 H 15.2368 -6.53617 -0.192223 0
M  V30 112 H 16.7208 -8.36622 -0.589963 0
M  V30 113 H 15.0268 -10.0291 -1.79807 0
M  V30 114 H 14.8368 -10.2138 0.558219 0
M  V30 115 H 13.2068 -9.6579 0.0444202 0
M  V30 116 H 15.8458 -5.69556 -2.79637 0
M  V30 117 P 17.7034 -8.4349 -2.47671 0
M  V30 118 O 19.1254 -8.92593 -2.65 0
M  V30 119 O 17.3434 -7.7568 -1.19296 0
M  V30 120 O 17.3804 -7.36886 -3.63805 0
M  V30 121 C 17.2204 -7.95349 -4.982 0
M  V30 122 C 17.7604 -6.94612 -5.98974 0
M  V30 123 O 16.7044 -6.10347 -6.11815 0
M  V30 124 C 18.9784 -6.11426 -5.62335 0
M  V30 125 O 19.7164 -5.6162 -6.70584 0
M  V30 126 C 18.3094 -5.04409 -4.73308 0
M  V30 127 O 19.1084 -3.85992 -4.75183 0
M  V30 128 C 16.9724 -4.8728 -5.41006 0
M  V30 129 H 17.0044 -4.02333 -6.11157 0
M  V30 130 H 18.1874 -5.39466 -3.69543 0
M  V30 131 H 19.6714 -6.71916 -5.01943 0
M  V30 132 H 17.9774 -7.4649 -6.93477 0
M  V30 133 H 17.7874 -8.89416 -5.05237 0
M  V30 134 H 16.1574 -8.14876 -5.18409 0
M  V30 135 H 18.7964 -3.27957 -5.4317 0
M  V30 136 P 20.654 -5.75688 -6.64379 0
M  V30 137 O 22.076 -6.07627 -7.05504 0
M  V30 138 O 20.294 -5.88047 -5.19722 0
M  V30 139 O 20.331 -4.2322 -7.04443 0
M  V30 140 C 20.171 -3.99743 -8.4911 0
M  V30 141 C 20.711 -2.60516 -8.79425 0
M  V30 142 O 19.655 -1.82684 -8.4467 0
M  V30 143 C 21.929 -2.10343 -8.03628 0
M  V30 144 O 22.667 -1.09919 -8.67766 0
M  V30 145 C 21.26 -1.68446 -6.70876 0
M  V30 146 O 22.059 -0.678137 -6.08433 0
M  V30 147 C 19.923 -1.17436 -7.18567 0
M  V30 148 H 19.955 -0.0804732 -7.31656 0
M  V30 149 H 21.138 -2.54037 -6.02537 0
M  V30 150 H 22.622 -2.93881 -7.85526 0
M  V30 151 H 20.928 -2.53065 -9.86973 0
M  V30 152 H 20.738 -4.75072 -9.05887 0
M  V30 153 H 19.108 -4.05244 -8.76668 0
M  V30 154 H 21.747 0.177647 -6.34251 0
M  V30 155 P 23.6046 -1.25109 -8.70152 0
M  V30 156 O 25.0266 -1.29744 -9.22016 0
M  V30 157 O 23.2446 -2.13714 -7.55141 0
M  V30 158 O 23.2816 0.248149 -8.21425 0
M  V30 159 C 23.1216 1.22779 -9.30434 0
M  V30 160 C 23.6616 2.56293 -8.80664 0
M  V30 161 O 22.6056 3.02979 -8.09349 0
M  V30 162 C 24.8796 2.57523 -7.89775 0
M  V30 163 O 25.6176 3.7668 -7.89438 0
M  V30 164 C 24.2106 2.20997 -6.55446 0
M  V30 165 O 25.0096 2.71895 -5.48509 0
M  V30 166 C 22.8736 2.89693 -6.67988 0
M  V30 167 H 22.9056 3.88793 -6.19859 0
M  V30 168 H 24.0886 1.12046 -6.44229 0
M  V30 169 H 25.5726 1.7746 -8.19711 0
M  V30 170 H 23.8786 3.20706 -9.67112 0
M  V30 171 H 23.6886 0.901032 -10.1892 0
M  V30 172 H 22.0586 1.33049 -9.56592 0
M  V30 173 H 24.6976 3.57847 -5.23962 0
M  V30 174 P 26.5551 3.65191 -7.99657 0
M  V30 175 O 27.9771 3.89332 -8.45794 0
M  V30 176 O 26.1951 2.28472 -7.50807 0
M  V30 177 O 26.2321 4.64972 -6.77611 0
M  V30 178 C 26.0721 6.06319 -7.16352 0
M  V30 179 C 26.6121 6.91731 -6.02299 0
M  V30 180 O 25.5561 6.92449 -5.17064 0
M  V30 181 C 27.8301 6.43627 -5.25174 0
M  V30 182 O 28.5681 7.43686 -4.60469 0
M  V30 183 C 27.1611 5.40275 -4.31916 0
M  V30 184 O 27.9601 5.25279 -3.14438 0
M  V30 185 C 25.8241 6.04847 -4.05327 0
M  V30 186 H 25.8561 6.62195 -3.11261 0
M  V30 187 H 27.0391 4.42556 -4.81383 0
M  V30 188 H 28.5231 5.92458 -5.93643 0
M  V30 189 H 26.8291 7.92655 -6.402 0
M  V30 190 H 26.6391 6.26671 -8.0846 0
M  V30 191 H 25.0091 6.29101 -7.32804 0
M  V30 192 H 27.6481 5.84315 -2.47318 0
M  V30 193 P 29.5057 7.39546 -4.75277 0
M  V30 194 O 30.9277 7.84798 -5.01039 0
M  V30 195 O 29.1457 5.9812 -5.08098 0
M  V30 196 O 29.1827 7.57503 -3.1866 0
M  V30 197 C 29.0227 8.97357 -2.74833 0
M  V30 198 C 29.5627 9.07548 -1.32709 0
M  V30 199 O 28.5067 8.62072 -0.606159 0
M  V30 200 C 30.7807 8.25383 -0.938334 0
M  V30 201 O 31.5187 8.74577 0.146954 0
M  V30 202 C 30.1117 6.8802 -0.712559 0
M  V30 203 O 30.9107 6.1189 0.194655 0
M  V30 204 C 28.7747 7.27966 -0.139777 0
M  V30 205 H 28.8067 7.25354 0.961601 0
M  V30 206 H 29.9897 6.32557 -1.65702 0
M  V30 207 H 31.4737 8.19355 -1.79097 0
M  V30 208 H 29.7797 10.1294 -1.10029 0
M  V30 209 H 29.5897 9.64276 -3.41316 0
M  V30 210 H 27.9597 9.25417 -2.76357 0
M  V30 211 H 30.5987 6.25267 1.07847 0
M  V30 212 P 32.4563 8.791 -9.96115e-15 0
M  V30 213 O 33.8783 9.31096 0.027933 0
M  V30 214 O 32.0963 7.77869 -1.04071 0
M  V30 215 O 32.1333 8.09533 1.41463 0
M  V30 216 C 31.9733 9.0349 2.53943 0
M  V30 217 C 32.5133 8.35226 3.79016 0
M  V30 218 O 31.4573 7.57992 4.15078 0
M  V30 219 C 33.7313 7.45087 3.67298 0
M  V30 220 O 34.4693 7.27796 4.85194 0
M  V30 221 C 33.0623 6.17323 3.12027 0
M  V30 222 O 33.8613 5.04231 3.47188 0
M  V30 223 C 31.7253 6.19961 3.81809 0
M  V30 224 H 31.7573 5.58218 4.73051 0
M  V30 225 H 32.9403 6.21726 2.02589 0
M  V30 226 H 34.4243 7.86112 2.9231 0
M  V30 227 H 32.7303 9.11627 4.55076 0
M  V30 228 H 32.5403 9.9573 2.34194 0
M  V30 229 H 30.9103 9.2792 2.67832 0
M  V30 230 H 33.5493 4.67702 4.28772 0
M  V30 231 P 35.4068 7.39546 4.75277 0
M  V30 232 O 36.8288 7.81777 5.05738 0
M  V30 233 O 35.0468 7.1065 3.32998 0
M  V30 234 O 35.0838 6.04542 5.56673 0
M  V30 235 C 34.9238 6.22772 7.02095 0
M  V30 236 C 35.4638 4.97725 7.70406 0
M  V30 237 O 34.4078 4.13256 7.58987 0
M  V30 238 C 36.6818 4.28231 7.11815 0
M  V30 239 O 37.4198 3.49945 8.01648 0
M  V30 240 C 36.0128 3.5063 5.96244 0
M  V30 241 O 36.8118 2.36482 5.64681 0
M  V30 242 C 34.6758 3.15122 6.56374 0
M  V30 243 H 34.7078 2.13853 6.99751 0
M  V30 244 H 35.8908 4.13501 5.06559 0
M  V30 245 H 37.3748 5.03285 6.70911 0
M  V30 246 H 35.6808 5.20877 8.75697 0
M  V30 247 H 35.4908 7.11046 7.35349 0
M  V30 248 H 33.8608 6.35815 7.26986 0
M  V30 249 H 36.4998 1.61644 6.13565 0
M  V30 250 P 38.3574 3.65191 7.99657 0
M  V30 251 O 39.7794 3.8425 8.48115 0
M  V30 252 O 37.9974 4.17805 6.64342 0
M  V30 253 O 38.0344 2.07613 7.95143 0
M  V30 254 C 37.8744 1.44328 9.27336 0
M  V30 255 C 38.4144 0.0220036 9.17197 0
M  V30 256 O 37.3584 -0.626867 8.61923 0
M  V30 257 C 39.6324 -0.24586 8.30336 0
M  V30 258 O 40.3704 -1.39011 8.63583 0
M  V30 259 C 38.9634 -0.273849 6.91158 0
M  V30 260 O 39.7624 -1.06348 6.02892 0
M  V30 261 C 37.6264 -0.897649 7.22545 0
M  V30 262 H 37.6584 -1.9841 7.04286 0
M  V30 263 H 38.8414 0.739928 6.497 0
M  V30 264 H 40.3254 0.60668 8.36503 0
M  V30 265 H 38.6314 -0.352479 10.1829 0
M  V30 266 H 38.4414 2.00611 10.0304 0
M  V30 267 H 36.8114 1.41843 9.55327 0
M  V30 268 H 39.4504 -1.95734 6.03555 0
M  V30 269 P 41.308 -1.25109 8.70152 0
M  V30 270 O 42.73 -1.35274 9.21221 0
M  V30 271 O 40.948 -0.0769065 7.84762 0
M  V30 272 O 40.985 -2.55232 7.81161 0
M  V30 273 C 40.825 -3.79939 8.58154 0
M  V30 274 C 41.365 -4.94023 7.72785 0
M  V30 275 O 40.309 -5.18726 6.91205 0
M  V30 276 C 42.583 -4.69597 6.85231 0
M  V30 277 O 43.321 -5.83832 6.51337 0
M  V30 278 C 41.914 -3.96706 5.66633 0
M  V30 279 O 42.713 -4.15414 4.49689 0
M  V30 280 C 40.577 -4.66153 5.59313 0
M  V30 281 H 40.609 -5.47679 4.85214 0
M  V30 282 H 41.792 -2.89008 5.86566 0
M  V30 283 H 43.276 -4.0121 7.36511 0
M  V30 284 H 41.582 -5.80182 8.37584 0
M  V30 285 H 41.392 -3.73517 9.52265 0
M  V30 286 H 39.762 -3.97163 8.80359 0
M  V30 287 H 42.401 -4.90969 4.01921 0
M  V30 288 P 44.2585 -5.75688 6.64379 0
M  V30 289 O 45.6805 -6.11849 7.01846 0
M  V30 290 O 43.8985 -4.30744 6.56026 0
M  V30 291 O 43.9355 -6.37042 5.19165 0
M  V30 292 C 43.7755 -7.83578 5.16515 0
M  V30 293 C 44.3155 -8.33398 3.83019 0
M  V30 294 O 43.2595 -8.10074 3.01034 0
M  V30 295 C 45.5335 -7.65514 3.2257 0
M  V30 296 O 46.2715 -8.4329 2.32297 0
M  V30 297 C 44.8645 -6.40075 2.62207 0
M  V30 298 O 45.6635 -5.92589 1.53712 0
M  V30 299 C 43.5275 -6.9454 2.18503 0
M  V30 300 H 43.5595 -7.23063 1.12091 0
M  V30 301 H 44.7425 -5.6025 3.37201 0
M  V30 302 H 46.2265 -7.35707 4.02681 0
M  V30 303 H 44.5325 -9.40912 3.9095 0
M  V30 304 H 44.3425 -8.29056 5.99158 0
M  V30 305 H 42.7125 -8.10073 5.25882 0
M  V30 306 H 45.3515 -6.30324 0.726794 0
M  V30 307 P 47.2091 -8.4349 2.47671 0
M  V30 308 O 48.6311 -8.94167 2.5964 0
M  V30 309 O 46.8491 -7.1704 3.19006 0
M  V30 310 O 46.8861 -8.16596 0.923387 0
M  V30 311 C 46.7261 -9.38437 0.108857 0
M  V30 312 C 47.2661 -9.08175 -1.28353 0
M  V30 313 O 46.2101 -8.44229 -1.84713 0
M  V30 314 C 48.4841 -8.18386 -1.42505 0
M  V30 315 O 49.2221 -8.3501 -2.60497 0
M  V30 316 C 47.8151 -6.80225 -1.25468 0
M  V30 317 O 48.6141 -5.81621 -1.91066 0
M  V30 318 C 46.4781 -7.02416 -1.9168 0
M  V30 319 H 46.5101 -6.6888 -2.96621 0
M  V30 320 H 47.6931 -6.53617 -0.192223 0
M  V30 321 H 49.1771 -8.36622 -0.589963 0
M  V30 322 H 47.4831 -10.0291 -1.79807 0
M  V30 323 H 47.2931 -10.2138 0.558219 0
M  V30 324 H 45.6631 -9.6579 0.0444202 0
M  V30 325 H 48.3021 -5.69556 -2.79637 0
M  V30 326 P 50.1597 -8.4349 -2.47671 0
M  V30 327 O 51.5817 -8.92593 -2.65 0
M  V30 328 O 49.7997 -7.7568 -1.19296 0
M  V30 329 O 49.8367 -7.36886 -3.63805 0
M  V30 330 C 49.6767 -7.95349 -4.982 0
M  V30 331 C 50.2167 -6.94612 -5.98974 0
M  V30 332 O 49.1607 -6.10347 -6.11815 0
M  V30 333 C 51.4347 -6.11426 -5.62335 0
M  V30 334 O 52.1727 -5.6162 -6.70584 0
M  V30 335 C 50.7657 -5.04409 -4.73308 0
M  V30 336 O 51.5647 -3.85992 -4.75183 0
M  V30 337 C 49.4287 -4.8728 -5.41006 0
M  V30 338 H 49.4607 -4.02333 -6.11157 0
M  V30 339 H 50.6437 -5.39466 -3.69543 0
M  V30 340 H 52.1277 -6.71916 -5.01943 0
M  V30 341 H 50.4337 -7.4649 -6.93477 0
M  V30 342 H 50.2437 -8.89416 -5.05237 0
M  V30 343 H 48.6137 -8.14876 -5.18409 0
M  V30 344 H 51.2527 -3.27957 -5.4317 0
M  V30 345 P 53.1103 -5.75688 -6.64379 0
M  V30 346 O 54.5323 -6.07627 -7.05504 0
M  V30 347 O 52.7503 -5.88047 -5.19722 0
M  V30 348 O 52.7873 -4.2322 -7.04443 0
M  V30 349 C 52.6273 -3.99743 -8.4911 0
M  V30 350 C 53.1673 -2.60516 -8.79425 0
M  V30 351 O 52.1113 -1.82684 -8.4467 0
M  V30 352 C 54.3853 -2.10343 -8.03628 0
M  V30 353 O 55.1233 -1.09919 -8.67766 0
M  V30 354 C 53.7163 -1.68446 -6.70876 0
M  V30 355 O 54.5153 -0.678137 -6.08433 0
M  V30 356 C 52.3793 -1.17436 -7.18567 0
M  V30 357 H 52.4113 -0.0804732 -7.31656 0
M  V30 358 H 53.5943 -2.54037 -6.02537 0
M  V30 359 H 55.0783 -2.93881 -7.85526 0
M  V30 360 H 53.3843 -2.53065 -9.86973 0
M  V30 361 H 53.1943 -4.75072 -9.05887 0
M  V30 362 H 51.5643 -4.05244 -8.76668 0
M  V30 363 H 54.2033 0.177647 -6.34251 0
M  V30 364 P 56.0608 -1.25109 -8.70152 0
M  V30 365 O 57.4828 -1.29744 -9.22016 0
M  V30 366 O 55.7008 -2.13714 -7.55141 0
M  V30 367 O 55.7378 0.248149 -8.21425 0
M  V30 368 C 55.5778 1.22779 -9.30434 0
M  V30 369 C 56.1178 2.56293 -8.80664 0
M  V30 370 O 55.0618 3.02979 -8.09349 0
M  V30 371 C 57.3358 2.57523 -7.89775 0
M  V30 372 O 58.0738 3.7668 -7.89438 0
M  V30 373 C 56.6668 2.20997 -6.55446 0
M  V30 374 O 57.4658 2.71895 -5.48509 0
M  V30 375 C 55.3298 2.89693 -6.67988 0
M  V30 376 H 55.3618 3.88793 -6.19859 0
M  V30 377 H 56.5448 1.12046 -6.44229 0
M  V30 378 H 58.0288 1.7746 -8.19711 0
M  V30 379 H 56.3348 3.20706 -9.67112 0
M  V30 380 H 56.1448 0.901032 -10.1892 0
M  V30 381 H 54.5148 1.33049 -9.56592 0
M  V30 382 H 57.1538 3.57847 -5.23962 0
M  V30 383 P 59.0114 3.65191 -7.99657 0
M  V30 384 O 60.4334 3.89332 -8.45794 0
M  V30 385 O 58.6514 2.28472 -7.50807 0
M  V30 386 O 58.6884 4.64972 -6.77611 0
M  V30 387 C 58.5284 6.06319 -7.16352 0
M  V30 388 C 59.0684 6.91731 -6.02299 0
M  V30 389 O 58.0124 6.92449 -5.17064 0
M  V30 390 C 60.2864 6.43627 -5.25174 0
M  V30 391 O 61.0244 7.43686 -4.60469 0
M  V30 392 C 59.6174 5.40275 -4.31916 0
M  V30 393 O 60.4164 5.25279 -3.14438 0
M  V30 394 C 58.2804 6.04847 -4.05327 0
M  V30 395 H 58.3124 6.62195 -3.11261 0
M  V30 396 H 59.4954 4.42556 -4.81383 0
M  V30 397 H 60.9794 5.92458 -5.93643 0
M  V30 398 H 59.2854 7.92655 -6.402 0
M  V30 399 H 59.0954 6.26671 -8.0846 0
M  V30 400 H 57.4654 6.29101 -7.32804 0
M  V30 401 H 60.1044 5.84315 -2.47318 0
M  V30 402 P 61.962 7.39546 -4.75277 0
M  V30 403 O 63.384 7.84798 -5.01039 0
M  V30 404 O 61.602 5.9812 -5.08098 0
M  V30 405 O 61.639 7.57503 -3.1866 0
M  V30 406 C 61.479 8.97357 -2.74833 0
M  V30 407 C 62.019 9.07548 -1.32709 0
M  V30 408 O 60.963 8.62072 -0.606159 0
M  V30 409 C 63.237 8.25383 -0.938334 0
M  V30 410 O 63.975 8.74577 0.146954 0
M  V30 411 C 62.568 6.8802 -0.712559 0
M  V30 412 O 63.367 6.1189 0.194655 0
M  V30 413 C 61.231 7.27966 -0.139777 0
M  V30 414 H 61.263 7.25354 0.961601 0
M  V30 415 H 62.446 6.32557 -1.65702 0
M  V30 416 H 63.93 8.19355 -1.79097 0
M  V30 417 H 62.236 10.1294 -1.10029 0
M  V30 418 H 62.046 9.64276 -3.41316 0
M  V30 419 H 60.416 9.25417 -2.76357 0
M  V30 420 H 63.055 6.25267 1.07847 0
M  V30 421 P 64.9125 8.791 -3.55383e-14 0
M  V30 422 O 66.3345 9.31096 0.027933 0
M  V30 423 O 64.5525 7.77869 -1.04071 0
M  V30 424 O 64.5895 8.09533 1.41463 0
M  V30 425 C 64.4295 9.0349 2.53943 0
M  V30 426 C 64.9695 8.35226 3.79016 0
M  V30 427 O 63.9135 7.57992 4.15078 0
M  V30 428 C 66.1875 7.45087 3.67298 0
M  V30 429 O 66.9255 7.27796 4.85194 0
M  V30 430 C 65.5185 6.17323 3.12027 0
M  V30 431 O 66.3175 5.04231 3.47188 0
M  V30 432 C 64.1815 6.19961 3.81809 0
M  V30 433 H 64.2135 5.58218 4.73051 0
M  V30 434 H 65.3965 6.21726 2.02589 0
M  V30 435 H 66.8805 7.86112 2.9231 0
M  V30 436 H 65.1865 9.11627 4.55076 0
M  V30 437 H 64.9965 9.9573 2.34194 0
M  V30 438 H 63.3665 9.2792 2.67832 0
M  V30 439 H 66.0055 4.67702 4.28772 0
M  V30 440 P 67.8631 7.39546 4.75277 0
M  V30 441 O 69.2851 7.81777 5.05738 0
M  V30 442 O 67.5031 7.1065 3.32998 0
M  V30 443 O 67.5401 6.04542 5.56673 0
M  V30 444 C 67.3801 6.22772 7.02095 0
M  V30 445 C 67.9201 4.97725 7.70406 0
M  V30 446 O 66.8641 4.13256 7.58987 0
M  V30 447 C 69.1381 4.28231 7.11815 0
M  V30 448 O 69.8761 3.49945 8.01648 0
M  V30 449 C 68.4691 3.5063 5.96244 0
M  V30 450 O 69.2681 2.36482 5.64681 0
M  V30 451 C 67.1321 3.15122 6.56374 0
M  V30 452 H 67.1641 2.13853 6.99751 0
M  V30 453 H 68.3471 4.13501 5.06559 0
M  V30 454 H 69.8311 5.03285 6.70911 0
M  V30 455 H 68.1371 5.20877 8.75697 0
M  V30 456 H 67.9471 7.11046 7.35349 0
M  V30 457 H 66.3171 6.35815 7.26986 0
M  V30 458 H 68.9561 1.61644 6.13565 0
M  V30 459 P 70.8137 3.65191 7.99657 0
M  V30 460 O 72.2357 3.8425 8.48115 0
M  V30 461 O 70.4537 4.17805 6.64342 0
M  V30 462 O 70.4907 2.07613 7.95143 0
M  V30 463 C 70.3307 1.44328 9.27336 0
M  V30 464 C 70.8707 0.0220036 9.17197 0
M  V30 465 O 69.8147 -0.626867 8.61923 0
M  V30 466 C 72.0887 -0.24586 8.30336 0
M  V30 467 O 72.8267 -1.39011 8.63583 0
M  V30 468 C 71.4197 -0.273849 6.91158 0
M  V30 469 O 72.2187 -1.06348 6.02892 0
M  V30 470 C 70.0827 -0.897649 7.22545 0
M  V30 471 H 70.1147 -1.9841 7.04286 0
M  V30 472 H 71.2977 0.739928 6.497 0
M  V30 473 H 72.7817 0.60668 8.36503 0
M  V30 474 H 71.0877 -0.352479 10.1829 0
M  V30 475 H 70.8977 2.00611 10.0304 0
M  V30 476 H 69.2677 1.41843 9.55327 0
M  V30 477 H 71.9067 -1.95734 6.03555 0
M  V30 478 P 73.7642 -1.25109 8.70152 0
M  V30 479 O 75.1862 -1.35274 9.21221 0
M  V30 480 O 73.4042 -0.0769065 7.84762 0
M  V30 481 O 73.4412 -2.55232 7.81161 0
M  V30 482 C 73.2812 -3.79939 8.58154 0
M  V30 483 C 73.8212 -4.94023 7.72785 0
M  V30 484 O 72.7652 -5.18726 6.91205 0
M  V30 485 C 75.0392 -4.69597 6.85231 0
M  V30 486 O 75.7772 -5.83832 6.51337 0
M  V30 487 C 74.3702 -3.96706 5.66633 0
M  V30 488 O 75.1692 -4.15414 4.49689 0
M  V30 489 C 73.0332 -4.66153 5.59313 0
M  V30 490 H 73.0652 -5.47679 4.85214 0
M  V30 491 H 74.2482 -2.89008 5.86566 0
M  V30 492 H 75.7322 -4.0121 7.36511 0
M  V30 493 H 74.0382 -5.80182 8.37584 0
M  V30 494 H 73.8482 -3.73517 9.52265 0
M  V30 495 H 72.2182 -3.97163 8.80359 0
M  V30 496 H 74.8572 -4.90969 4.01921 0
M  V30 497 P 76.7148 -5.75688 6.64379 0
M  V30 498 O 78.1358 -6.11915 7.01921 0
M  V30 499 O 76.3548 -4.30744 6.56026 0
M  V30 500 O 76.3918 -6.37042 5.19165 0
M  V30 501 C 76.2308 -7.83662 5.1657 0
M  V30 502 C 76.7718 -8.33398 3.83019 0
M  V30 503 O 75.7168 -8.0998 3.00999 0
M  V30 504 C 77.9898 -7.65514 3.2257 0
M  V30 505 O 78.7278 -8.4329 2.32297 0
M  V30 506 C 77.3218 -6.40075 2.62207 0
M  V30 507 O 78.1198 -5.92338 1.5428 0
M  V30 508 C 75.9838 -6.9454 2.18503 0
M  V30 509 N 74.9408 -5.95905 2.39948 0
M  V30 510 C 75.1098 -4.98383 3.32108 0
M  V30 511 N 74.0828 -4.16798 3.41761 0
M  V30 512 C 73.1978 -4.65287 2.47461 0
M  V30 513 C 71.9308 -4.18946 2.07461 0
M  V30 514 N 71.3658 -4.95327 1.09101 0
M  V30 515 C 71.9678 -6.04369 0.519812 0
M  V30 516 N 73.1448 -6.50694 0.855982 0
M  V30 517 C 73.7198 -5.75818 1.84322 0
M  V30 518 H 77.1988 -5.60502 3.36589 0
M  V30 519 H 78.6818 -7.35707 4.02681 0
M  V30 520 H 76.9878 -9.41302 3.90009 0
M  V30 521 H 76.7978 -8.29056 5.99158 0
M  V30 522 H 75.1678 -8.10073 5.25882 0
M  V30 523 H 76.0098 -4.88564 3.92502 0
M  V30 524 H 77.8078 -6.30224 0.72668 0
M  V30 525 P 79.6654 -8.4349 2.47671 0
M  V30 526 O 81.0874 -8.94167 2.5964 0
M  V30 527 O 79.3054 -7.1704 3.19006 0
M  V30 528 O 79.3424 -8.16596 0.923387 0
M  V30 529 C 79.1824 -9.38437 0.108857 0
M  V30 530 C 79.7224 -9.08175 -1.28353 0
M  V30 531 O 78.6664 -8.44229 -1.84713 0
M  V30 532 C 80.9404 -8.18386 -1.42505 0
M  V30 533 O 81.6784 -8.3501 -2.60497 0
M  V30 534 C 80.2714 -6.80225 -1.25468 0
M  V30 535 O 81.0704 -5.81621 -1.91066 0
M  V30 536 C 78.9344 -7.02416 -1.9168 0
M  V30 537 H 78.9664 -6.6888 -2.96621 0
M  V30 538 H 80.1494 -6.53617 -0.192223 0
M  V30 539 H 81.6334 -8.36622 -0.589963 0
M  V30 540 H 79.9394 -10.0291 -1.79807 0
M  V30 541 H 79.7494 -10.2138 0.558219 0
M  V30 542 H 78.1194 -9.6579 0.0444202 0
M  V30 543 H 80.7584 -5.69556 -2.79637 0
M  V30 544 P 82.616 -8.4349 -2.47671 0
M  V30 545 O 84.038 -8.92593 -2.65 0
M  V30 546 O 82.256 -7.7568 -1.19296 0
M  V30 547 O 82.293 -7.36886 -3.63805 0
M  V30 548 C 82.133 -7.95349 -4.982 0
M  V30 549 C 82.673 -6.94612 -5.98974 0
M  V30 550 O 81.617 -6.10347 -6.11815 0
M  V30 551 C 83.891 -6.11426 -5.62335 0
M  V30 552 O 84.629 -5.6162 -6.70584 0
M  V30 553 C 83.222 -5.04409 -4.73308 0
M  V30 554 O 84.021 -3.85992 -4.75183 0
M  V30 555 C 81.885 -4.8728 -5.41006 0
M  V30 556 H 81.917 -4.02333 -6.11157 0
M  V30 557 H 83.1 -5.39466 -3.69543 0
M  V30 558 H 84.584 -6.71916 -5.01943 0
M  V30 559 H 82.89 -7.4649 -6.93477 0
M  V30 560 H 82.7 -8.89416 -5.05237 0
M  V30 561 H 81.07 -8.14876 -5.18409 0
M  V30 562 H 83.709 -3.27957 -5.4317 0
M  V30 563 P 85.5665 -5.75688 -6.64379 0
M  V30 564 O 86.9885 -6.07627 -7.05504 0
M  V30 565 O 85.2065 -5.88047 -5.19722 0
M  V30 566 O 85.2435 -4.2322 -7.04443 0
M  V30 567 C 85.0835 -3.99743 -8.4911 0
M  V30 568 C 85.6235 -2.60516 -8.79425 0
M  V30 569 O 84.5675 -1.82684 -8.4467 0
M  V30 570 C 86.8415 -2.10343 -8.03628 0
M  V30 571 O 87.5795 -1.09919 -8.67766 0
M  V30 572 C 86.1725 -1.68446 -6.70876 0
M  V30 573 O 86.9715 -0.678137 -6.08433 0
M  V30 574 C 84.8355 -1.17436 -7.18567 0
M  V30 575 H 84.8675 -0.0804732 -7.31656 0
M  V30 576 H 86.0505 -2.54037 -6.02537 0
M  V30 577 H 87.5345 -2.93881 -7.85526 0
M  V30 578 H 85.8405 -2.53065 -9.86973 0
M  V30 579 H 85.6505 -4.75072 -9.05887 0
M  V30 580 H 84.0205 -4.05244 -8.76668 0
M  V30 581 H 86.6595 0.177647 -6.34251 0
M  V30 582 P 88.5171 -1.25109 -8.70152 0
M  V30 583 O 89.9391 -1.29744 -9.22016 0
M  V30 584 O 88.1571 -2.13714 -7.55141 0
M  V30 585 O 88.1941 0.248149 -8.21425 0
M  V30 586 C 88.0341 1.22779 -9.30434 0
M  V30 587 C 88.5741 2.56293 -8.80664 0
M  V30 588 O 87.5181 3.02979 -8.09349 0
M  V30 589 C 89.7921 2.57523 -7.89775 0
M  V30 590 O 90.5301 3.7668 -7.89438 0
M  V30 591 C 89.1231 2.20997 -6.55446 0
M  V30 592 O 89.9221 2.71895 -5.48509 0
M  V30 593 C 87.7861 2.89693 -6.67988 0
M  V30 594 H 87.8181 3.88793 -6.19859 0
M  V30 595 H 89.0011 1.12046 -6.44229 0
M  V30 596 H 90.4851 1.7746 -8.19711 0
M  V30 597 H 88.7911 3.20706 -9.67112 0
M  V30 598 H 88.6011 0.901032 -10.1892 0
M  V30 599 H 86.9711 1.33049 -9.56592 0
M  V30 600 H 89.6101 3.57847 -5.23962 0
M  V30 601 P 91.4677 3.65191 -7.99657 0
M  V30 602 O 92.8897 3.89332 -8.45794 0
M  V30 603 O 91.1077 2.28472 -7.50807 0
M  V30 604 O 91.1447 4.64972 -6.77611 0
M  V30 605 C 90.9847 6.06319 -7.16352 0
M  V30 606 C 91.5247 6.91731 -6.02299 0
M  V30 607 O 90.4687 6.92449 -5.17064 0
M  V30 608 C 92.7427 6.43627 -5.25174 0
M  V30 609 O 93.4807 7.43686 -4.60469 0
M  V30 610 C 92.0737 5.40275 -4.31916 0
M  V30 611 O 92.8727 5.25279 -3.14438 0
M  V30 612 C 90.7367 6.04847 -4.05327 0
M  V30 613 H 90.7687 6.62195 -3.11261 0
M  V30 614 H 91.9517 4.42556 -4.81383 0
M  V30 615 H 93.4357 5.92458 -5.93643 0
M  V30 616 H 91.7417 7.92655 -6.402 0
M  V30 617 H 91.5517 6.26671 -8.0846 0
M  V30 618 H 89.9217 6.29101 -7.32804 0
M  V30 619 H 92.5607 5.84315 -2.47318 0
M  V30 620 P 94.4182 7.39546 -4.75277 0
M  V30 621 O 95.8402 7.84798 -5.01039 0
M  V30 622 O 94.0582 5.9812 -5.08098 0
M  V30 623 O 94.0952 7.57503 -3.1866 0
M  V30 624 C 93.9352 8.97357 -2.74833 0
M  V30 625 C 94.4752 9.07548 -1.32709 0
M  V30 626 O 93.4192 8.62072 -0.606159 0
M  V30 627 C 95.6932 8.25383 -0.938334 0
M  V30 628 O 96.4312 8.74577 0.146954 0
M  V30 629 C 95.0242 6.8802 -0.712559 0
M  V30 630 O 95.8232 6.1189 0.194655 0
M  V30 631 C 93.6872 7.27966 -0.139777 0
M  V30 632 H 93.7192 7.25354 0.961601 0
M  V30 633 H 94.9022 6.32557 -1.65702 0
M  V30 634 H 96.3862 8.19355 -1.79097 0
M  V30 635 H 94.6922 10.1294 -1.10029 0
M  V30 636 H 94.5022 9.64276 -3.41316 0
M  V30 637 H 92.8722 9.25417 -2.76357 0
M  V30 638 H 95.5112 6.25267 1.07847 0
M  V30 639 P 97.3688 8.791 -6.89233e-14 0
M  V30 640 O 98.7908 9.31096 0.027933 0
M  V30 641 O 97.0088 7.77869 -1.04071 0
M  V30 642 O 97.0458 8.09533 1.41463 0
M  V30 643 C 96.8858 9.0349 2.53943 0
M  V30 644 C 97.4258 8.35226 3.79016 0
M  V30 645 O 96.3698 7.57992 4.15078 0
M  V30 646 C 98.6438 7.45087 3.67298 0
M  V30 647 O 99.3818 7.27796 4.85194 0
M  V30 648 C 97.9748 6.17323 3.12027 0
M  V30 649 O 98.7738 5.04231 3.47188 0
M  V30 650 C 96.6378 6.19961 3.81809 0
M  V30 651 H 96.6698 5.58218 4.73051 0
M  V30 652 H 97.8528 6.21726 2.02589 0
M  V30 653 H 99.3368 7.86112 2.9231 0
M  V30 654 H 97.6428 9.11627 4.55076 0
M  V30 655 H 97.4528 9.9573 2.34194 0
M  V30 656 H 95.8228 9.2792 2.67832 0
M  V30 657 H 98.4618 4.67702 4.28772 0
M  V30 658 P 100.319 7.39546 4.75277 0
M  V30 659 O 101.741 7.81777 5.05738 0
M  V30 660 O 99.9594 7.1065 3.32998 0
M  V30 661 O 99.9964 6.04542 5.56673 0
M  V30 662 C 99.8364 6.22772 7.02095 0
M  V30 663 C 100.376 4.97725 7.70406 0
M  V30 664 O 99.3204 4.13256 7.58987 0
M  V30 665 C 101.594 4.28231 7.11815 0
M  V30 666 O 102.332 3.49945 8.01648 0
M  V30 667 C 100.925 3.5063 5.96244 0
M  V30 668 O 101.724 2.36482 5.64681 0
M  V30 669 C 99.5884 3.15122 6.56374 0
M  V30 670 H 99.6204 2.13853 6.99751 0
M  V30 671 H 100.803 4.13501 5.06559 0
M  V30 672 H 102.287 5.03285 6.70911 0
M  V30 673 H 100.593 5.20877 8.75697 0
M  V30 674 H 100.403 7.11046 7.35349 0
M  V30 675 H 98.7734 6.35815 7.26986 0
M  V30 676 H 101.412 1.61644 6.13565 0
M  V30 677 P 103.27 3.65191 7.99657 0
M  V30 678 O 104.692 3.8425 8.48115 0
M  V30 679 O 102.91 4.17805 6.64342 0
M  V30 680 O 102.947 2.07613 7.95143 0
M  V30 681 C 102.787 1.44328 9.27336 0
M  V30 682 C 103.327 0.0220036 9.17197 0
M  V30 683 O 102.271 -0.626867 8.61923 0
M  V30 684 C 104.545 -0.24586 8.30336 0
M  V30 685 O 105.283 -1.39011 8.63583 0
M  V30 686 C 103.876 -0.273849 6.91158 0
M  V30 687 O 104.675 -1.06348 6.02892 0
M  V30 688 C 102.539 -0.897649 7.22545 0
M  V30 689 H 102.571 -1.9841 7.04286 0
M  V30 690 H 103.754 0.739928 6.497 0
M  V30 691 H 105.238 0.60668 8.36503 0
M  V30 692 H 103.544 -0.352479 10.1829 0
M  V30 693 H 103.354 2.00611 10.0304 0
M  V30 694 H 101.724 1.41843 9.55327 0
M  V30 695 H 104.363 -1.95734 6.03555 0
M  V30 696 P 106.221 -1.25109 8.70152 0
M  V30 697 O 107.643 -1.35274 9.21221 0
M  V30 698 O 105.861 -0.0769065 7.84762 0
M  V30 699 O 105.898 -2.55232 7.81161 0
M  V30 700 C 105.738 -3.79939 8.58154 0
M  V30 701 C 106.278 -4.94023 7.72785 0
M  V30 702 O 105.222 -5.18726 6.91205 0
M  V30 703 C 107.496 -4.69597 6.85231 0
M  V30 704 O 108.234 -5.83832 6.51337 0
M  V30 705 C 106.827 -3.96706 5.66633 0
M  V30 706 O 107.626 -4.15414 4.49689 0
M  V30 707 C 105.49 -4.66153 5.59313 0
M  V30 708 H 105.522 -5.47679 4.85214 0
M  V30 709 H 106.705 -2.89008 5.86566 0
M  V30 710 H 108.189 -4.0121 7.36511 0
M  V30 711 H 106.495 -5.80182 8.37584 0
M  V30 712 H 106.305 -3.73517 9.52265 0
M  V30 713 H 104.675 -3.97163 8.80359 0
M  V30 714 H 107.314 -4.90969 4.01921 0
M  V30 715 P 109.171 -5.75688 6.64379 0
M  V30 716 O 110.593 -6.11981 7.01997 0
M  V30 717 O 108.811 -4.30744 6.56026 0
M  V30 718 O 108.848 -6.37042 5.19165 0
M  V30 719 C 108.688 -7.83578 5.16515 0
M  V30 720 C 109.228 -8.33307 3.82977 0
M  V30 721 O 108.173 -8.10074 3.01034 0
M  V30 722 C 110.446 -7.65514 3.2257 0
M  V30 723 O 111.184 -8.4329 2.32297 0
M  V30 724 C 109.778 -6.40075 2.62207 0
M  V30 725 O 110.576 -5.92492 1.53687 0
M  V30 726 C 108.44 -6.9454 2.18503 0
M  V30 727 N 107.397 -5.95905 2.39948 0
M  V30 728 C 107.459 -5.13994 3.44742 0
M  V30 729 N 106.414 -4.30684 3.46712 0
M  V30 730 C 105.68 -4.65583 2.41086 0
M  V30 731 C 104.374 -4.20877 1.99581 0
M  V30 732 O 103.641 -3.35913 2.52616 0
M  V30 733 N 103.944 -4.83271 0.873406 0
M  V30 734 C 104.693 -5.82006 0.185129 0
M  V30 735 N 104.096 -6.30619 -0.95439 0
M  V30 736 N 105.846 -6.28443 0.578524 0
M  V30 737 C 106.303 -5.68486 1.70138 0
M  V30 738 H 108.472 -7.23063 1.12091 0
M  V30 739 H 109.655 -5.60165 3.3715 0
M  V30 740 H 111.14 -7.3611 4.01946 0
M  V30 741 H 109.445 -9.40912 3.9095 0
M  V30 742 H 109.255 -8.29056 5.99158 0
M  V30 743 H 107.624 -8.10073 5.25882 0
M  V30 744 H 103.048 -4.58323 0.505262 0
M  V30 745 H 108.255 -5.14564 4.1935 0
M  V30 746 H 103.185 -5.93402 -1.25364 0
M  V30 747 H 104.561 -7.0425 -1.50254 0
M  V30 748 H 110.265 -6.30224 0.72668 0
M  V30 749 P 112.122 -8.4349 2.47671 0
M  V30 750 O 113.544 -8.94167 2.5964 0
M  V30 751 O 111.762 -7.1704 3.19006 0
M  V30 752 O 111.799 -8.16596 0.923387 0
M  V30 753 C 111.639 -9.38437 0.108857 0
M  V30 754 C 112.179 -9.08175 -1.28353 0
M  V30 755 O 111.123 -8.44229 -1.84713 0
M  V30 756 C 113.397 -8.18386 -1.42505 0
M  V30 757 O 114.135 -8.3501 -2.60497 0
M  V30 758 C 112.728 -6.80225 -1.25468 0
M  V30 759 O 113.527 -5.81621 -1.91066 0
M  V30 760 C 111.391 -7.02416 -1.9168 0
M  V30 761 H 111.423 -6.6888 -2.96621 0
M  V30 762 H 112.606 -6.53617 -0.192223 0
M  V30 763 H 114.09 -8.36622 -0.589963 0
M  V30 764 H 112.396 -10.0291 -1.79807 0
M  V30 765 H 112.206 -10.2138 0.558219 0
M  V30 766 H 110.576 -9.6579 0.0444202 0
M  V30 767 H 113.215 -5.69556 -2.79637 0
M  V30 768 P 115.072 -8.4349 -2.47671 0
M  V30 769 O 116.494 -8.92785 -2.65057 0
M  V30 770 O 114.712 -7.7568 -1.19296 0
M  V30 771 O 114.749 -7.36886 -3.63805 0
M  V30 772 C 114.589 -7.95349 -4.982 0
M  V30 773 C 115.129 -6.94537 -5.98908 0
M  V30 774 O 114.074 -6.10347 -6.11815 0
M  V30 775 C 116.347 -6.11426 -5.62335 0
M  V30 776 O 117.085 -5.6162 -6.70584 0
M  V30 777 C 115.679 -5.04409 -4.73308 0
M  V30 778 O 116.477 -3.85929 -4.75106 0
M  V30 779 C 114.341 -4.8728 -5.41006 0
M  V30 780 N 113.298 -4.65812 -4.42377 0
M  V30 781 C 113.36 -5.27109 -3.24335 0
M  V30 782 N 112.315 -4.94293 -2.47735 0
M  V30 783 C 111.581 -4.1271 -3.23359 0
M  V30 784 C 110.275 -3.56384 -2.99934 0
M  V30 785 O 109.542 -3.69331 -2.00616 0
M  V30 786 N 109.845 -2.80206 -4.03316 0
M  V30 787 C 110.594 -2.58614 -5.2172 0
M  V30 788 N 109.997 -1.75154 -6.13278 0
M  V30 789 N 111.747 -3.13689 -5.47619 0
M  V30 790 C 112.204 -3.90921 -4.46436 0
M  V30 791 H 114.373 -4.02333 -6.11157 0
M  V30 792 H 115.556 -5.39383 -3.69487 0
M  V30 793 H 117.041 -6.71414 -5.02615 0
M  V30 794 H 115.346 -7.4649 -6.93477 0
M  V30 795 H 115.156 -8.89416 -5.05237 0
M  V30 796 H 113.525 -8.14876 -5.18409 0
M  V30 797 H 108.949 -2.36355 -3.95916 0
M  V30 798 H 114.156 -5.95212 -2.93859 0
M  V30 799 H 109.086 -1.32473 -5.91856 0
M  V30 800 H 110.462 -1.5588 -7.03026 0
M  V30 801 H 116.166 -3.27906 -5.43085 0
M  V30 802 P 118.023 -5.75688 -6.64379 0
M  V30 803 O 119.445 -6.07627 -7.05504 0
M  V30 804 O 117.663 -5.88047 -5.19722 0
M  V30 805 O 117.7 -4.2322 -7.04443 0
M  V30 806 C 117.54 -3.99743 -8.4911 0
M  V30 807 C 118.08 -2.60516 -8.79425 0
M  V30 808 O 117.024 -1.82684 -8.4467 0
M  V30 809 C 119.298 -2.10343 -8.03628 0
M  V30 810 O 120.036 -1.09919 -8.67766 0
M  V30 811 C 118.629 -1.68446 -6.70876 0
M  V30 812 O 119.428 -0.678137 -6.08433 0
M  V30 813 C 117.292 -1.17436 -7.18567 0
M  V30 814 H 117.324 -0.0804732 -7.31656 0
M  V30 815 H 118.507 -2.54037 -6.02537 0
M  V30 816 H 119.991 -2.93881 -7.85526 0
M  V30 817 H 118.297 -2.53065 -9.86973 0
M  V30 818 H 118.107 -4.75072 -9.05887 0
M  V30 819 H 116.477 -4.05244 -8.76668 0
M  V30 820 H 119.116 0.177647 -6.34251 0
M  V30 821 P 120.973 -1.25109 -8.70152 0
M  V30 822 O 122.395 -1.29772 -9.22214 0
M  V30 823 O 120.613 -2.13714 -7.55141 0
M  V30 824 O 120.65 0.248149 -8.21425 0
M  V30 825 C 120.49 1.22779 -9.30434 0
M  V30 826 C 121.03 2.56265 -8.80568 0
M  V30 827 O 119.975 3.02979 -8.09349 0
M  V30 828 C 122.248 2.57523 -7.89775 0
M  V30 829 O 122.986 3.7668 -7.89438 0
M  V30 830 C 121.58 2.20997 -6.55446 0
M  V30 831 O 122.378 2.71851 -5.48419 0
M  V30 832 C 120.242 2.89693 -6.67988 0
M  V30 833 N 119.199 2.08895 -6.07487 0
M  V30 834 C 119.261 0.760559 -6.14209 0
M  V30 835 N 118.216 0.200108 -5.52538 0
M  V30 836 C 117.482 1.22692 -5.09742 0
M  V30 837 C 116.176 1.24782 -4.48775 0
M  V30 838 O 115.443 0.290617 -4.19294 0
M  V30 839 N 115.746 2.50468 -4.22428 0
M  V30 840 C 116.495 3.67142 -4.51974 0
M  V30 841 N 115.898 4.85096 -4.14091 0
M  V30 842 N 117.648 3.67821 -5.12831 0
M  V30 843 C 118.105 2.43698 -5.4105 0
M  V30 844 H 120.274 3.88793 -6.19859 0
M  V30 845 H 121.457 1.12029 -6.4413 0
M  V30 846 H 122.942 1.78279 -8.19533 0
M  V30 847 H 121.247 3.20706 -9.67112 0
M  V30 848 H 121.057 0.901032 -10.1892 0
M  V30 849 H 119.426 1.33049 -9.56592 0
M  V30 850 H 114.85 2.61953 -3.79465 0
M  V30 851 H 120.057 0.200439 -6.63497 0
M  V30 852 H 114.987 4.8334 -3.66367 0
M  V30 853 H 116.363 5.7474 -4.33841 0
M  V30 854 H 122.067 3.5779 -5.23879 0
M  V30 855 P 123.924 3.65191 -7.99657 0
M  V30 856 O 125.346 3.89332 -8.45794 0
M  V30 857 O 123.564 2.28472 -7.50807 0
M  V30 858 O 123.601 4.64972 -6.77611 0
M  V30 859 C 123.441 6.06319 -7.16352 0
M  V30 860 C 123.981 6.91731 -6.02299 0
M  V30 861 O 122.925 6.92449 -5.17064 0
M  V30 862 C 125.199 6.43627 -5.25174 0
M  V30 863 O 125.937 7.43686 -4.60469 0
M  V30 864 C 124.53 5.40275 -4.31916 0
M  V30 865 O 125.329 5.25279 -3.14438 0
M  V30 866 C 123.193 6.04847 -4.05327 0
M  V30 867 H 123.225 6.62195 -3.11261 0
M  V30 868 H 124.408 4.42556 -4.81383 0
M  V30 869 H 125.892 5.92458 -5.93643 0
M  V30 870 H 124.198 7.92655 -6.402 0
M  V30 871 H 124.008 6.26671 -8.0846 0
M  V30 872 H 122.378 6.29101 -7.32804 0
M  V30 873 H 125.017 5.84315 -2.47318 0
M  V30 874 P 126.875 7.39546 -4.75277 0
M  V30 875 O 128.297 7.84798 -5.01039 0
M  V30 876 O 126.515 5.9812 -5.08098 0
M  V30 877 O 126.552 7.57503 -3.1866 0
M  V30 878 C 126.392 8.97357 -2.74833 0
M  V30 879 C 126.932 9.07548 -1.32709 0
M  V30 880 O 125.876 8.62072 -0.606159 0
M  V30 881 C 128.15 8.25383 -0.938334 0
M  V30 882 O 128.888 8.74577 0.146954 0
M  V30 883 C 127.481 6.8802 -0.712559 0
M  V30 884 O 128.28 6.1189 0.194655 0
M  V30 885 C 126.144 7.27966 -0.139777 0
M  V30 886 H 126.176 7.25354 0.961601 0
M  V30 887 H 127.359 6.32557 -1.65702 0
M  V30 888 H 128.843 8.19355 -1.79097 0
M  V30 889 H 127.149 10.1294 -1.10029 0
M  V30 890 H 126.959 9.64276 -3.41316 0
M  V30 891 H 125.329 9.25417 -2.76357 0
M  V30 892 H 127.968 6.25267 1.07847 0
M  V30 893 P 129.825 8.791 -1.02308e-13 0
M  V30 894 O 131.247 9.31096 0.027933 0
M  V30 895 O 129.465 7.77869 -1.04071 0
M  V30 896 O 129.502 8.09533 1.41463 0
M  V30 897 C 129.342 9.0349 2.53943 0
M  V30 898 C 129.882 8.35226 3.79016 0
M  V30 899 O 128.826 7.57992 4.15078 0
M  V30 900 C 131.1 7.45087 3.67298 0
M  V30 901 O 131.838 7.27796 4.85194 0
M  V30 902 C 130.431 6.17323 3.12027 0
M  V30 903 O 131.23 5.04231 3.47188 0
M  V30 904 C 129.094 6.19961 3.81809 0
M  V30 905 H 129.126 5.58218 4.73051 0
M  V30 906 H 130.309 6.21726 2.02589 0
M  V30 907 H 131.793 7.86112 2.9231 0
M  V30 908 H 130.099 9.11627 4.55076 0
M  V30 909 H 129.909 9.9573 2.34194 0
M  V30 910 H 128.279 9.2792 2.67832 0
M  V30 911 H 130.918 4.67702 4.28772 0
M  V30 912 P 132.776 7.39546 4.75277 0
M  V30 913 O 134.198 7.81777 5.05738 0
M  V30 914 O 132.416 7.1065 3.32998 0
M  V30 915 O 132.453 6.04542 5.56673 0
M  V30 916 C 132.293 6.22772 7.02095 0
M  V30 917 C 132.833 4.97725 7.70406 0
M  V30 918 O 131.777 4.13256 7.58987 0
M  V30 919 C 134.051 4.28231 7.11815 0
M  V30 920 O 134.789 3.49945 8.01648 0
M  V30 921 C 133.382 3.5063 5.96244 0
M  V30 922 O 134.181 2.36482 5.64681 0
M  V30 923 C 132.045 3.15122 6.56374 0
M  V30 924 H 132.077 2.13853 6.99751 0
M  V30 925 H 133.26 4.13501 5.06559 0
M  V30 926 H 134.744 5.03285 6.70911 0
M  V30 927 H 133.05 5.20877 8.75697 0
M  V30 928 H 132.86 7.11046 7.35349 0
M  V30 929 H 131.23 6.35815 7.26986 0
M  V30 930 H 133.869 1.61644 6.13565 0
M  V30 931 P 135.726 3.65191 7.99657 0
M  V30 932 O 137.148 3.8425 8.48115 0
M  V30 933 O 135.366 4.17805 6.64342 0
M  V30 934 O 135.403 2.07613 7.95143 0
M  V30 935 C 135.243 1.44328 9.27336 0
M  V30 936 C 135.783 0.0220036 9.17197 0
M  V30 937 O 134.727 -0.626867 8.61923 0
M  V30 938 C 137.001 -0.24586 8.30336 0
M  V30 939 O 137.739 -1.39011 8.63583 0
M  V30 940 C 136.332 -0.273849 6.91158 0
M  V30 941 O 137.131 -1.06348 6.02892 0
M  V30 942 C 134.995 -0.897649 7.22545 0
M  V30 943 H 135.027 -1.9841 7.04286 0
M  V30 944 H 136.21 0.739928 6.497 0
M  V30 945 H 137.694 0.60668 8.36503 0
M  V30 946 H 136 -0.352479 10.1829 0
M  V30 947 H 135.81 2.00611 10.0304 0
M  V30 948 H 134.18 1.41843 9.55327 0
M  V30 949 H 136.819 -1.95734 6.03555 0
M  V30 950 P 138.677 -1.25109 8.70152 0
M  V30 951 O 140.099 -1.35274 9.21221 0
M  V30 952 O 138.317 -0.0769065 7.84762 0
M  V30 953 O 138.354 -2.55232 7.81161 0
M  V30 954 C 138.194 -3.79939 8.58154 0
M  V30 955 C 138.734 -4.94023 7.72785 0
M  V30 956 O 137.678 -5.18726 6.91205 0
M  V30 957 C 139.952 -4.69597 6.85231 0
M  V30 958 O 140.69 -5.83832 6.51337 0
M  V30 959 C 139.283 -3.96706 5.66633 0
M  V30 960 O 140.082 -4.15414 4.49689 0
M  V30 961 C 137.946 -4.66153 5.59313 0
M  V30 962 H 137.978 -5.47679 4.85214 0
M  V30 963 H 139.161 -2.89008 5.86566 0
M  V30 964 H 140.645 -4.0121 7.36511 0
M  V30 965 H 138.951 -5.80182 8.37584 0
M  V30 966 H 138.761 -3.73517 9.52265 0
M  V30 967 H 137.131 -3.97163 8.80359 0
M  V30 968 H 139.77 -4.90969 4.01921 0
M  V30 969 P 141.627 -5.75688 6.64379 0
M  V30 970 O 143.049 -6.11849 7.01846 0
M  V30 971 O 141.267 -4.30744 6.56026 0
M  V30 972 O 141.304 -6.37042 5.19165 0
M  V30 973 C 141.144 -7.83578 5.16515 0
M  V30 974 C 141.684 -8.33398 3.83019 0
M  V30 975 O 140.628 -8.10074 3.01034 0
M  V30 976 C 142.902 -7.65514 3.2257 0
M  V30 977 O 143.64 -8.4329 2.32297 0
M  V30 978 C 142.233 -6.40075 2.62207 0
M  V30 979 O 143.032 -5.92589 1.53712 0
M  V30 980 C 140.896 -6.9454 2.18503 0
M  V30 981 H 140.928 -7.23063 1.12091 0
M  V30 982 H 142.111 -5.6025 3.37201 0
M  V30 983 H 143.595 -7.35707 4.02681 0
M  V30 984 H 141.901 -9.40912 3.9095 0
M  V30 985 H 141.711 -8.29056 5.99158 0
M  V30 986 H 140.081 -8.10073 5.25882 0
M  V30 987 H 142.72 -6.30324 0.726794 0
M  V30 988 P 144.578 -8.4349 2.47671 0
M  V30 989 O 146 -8.94167 2.5964 0
M  V30 990 O 144.218 -7.1704 3.19006 0
M  V30 991 O 144.255 -8.16596 0.923387 0
M  V30 992 C 144.095 -9.38437 0.108857 0
M  V30 993 C 144.635 -9.08175 -1.28353 0
M  V30 994 O 143.579 -8.44229 -1.84713 0
M  V30 995 C 145.853 -8.18386 -1.42505 0
M  V30 996 O 146.591 -8.3501 -2.60497 0
M  V30 997 C 145.184 -6.80225 -1.25468 0
M  V30 998 O 145.983 -5.81621 -1.91066 0
M  V30 999 C 143.847 -7.02416 -1.9168 0
M  V30 1000 H 143.879 -6.6888 -2.96621 0
M  V30 1001 H 145.062 -6.53617 -0.192223 0
M  V30 1002 H 146.546 -8.36622 -0.589963 0
M  V30 1003 H 144.852 -10.0291 -1.79807 0
M  V30 1004 H 144.662 -10.2138 0.558219 0
M  V30 1005 H 143.032 -9.6579 0.0444202 0
M  V30 1006 H 145.671 -5.69556 -2.79637 0
M  V30 1007 P 147.528 -8.4349 -2.47671 0
M  V30 1008 O 148.949 -8.92689 -2.65029 0
M  V30 1009 O 147.168 -7.7568 -1.19296 0
M  V30 1010 O 147.205 -7.36886 -3.63805 0
M  V30 1011 C 147.044 -7.95433 -4.98253 0
M  V30 1012 C 147.585 -6.94612 -5.98974 0
M  V30 1013 O 146.53 -6.10277 -6.11744 0
M  V30 1014 C 148.803 -6.11426 -5.62335 0
M  V30 1015 O 149.541 -5.6162 -6.70584 0
M  V30 1016 C 148.135 -5.04409 -4.73308 0
M  V30 1017 O 148.933 -3.86404 -4.74719 0
M  V30 1018 C 146.797 -4.8728 -5.41006 0
M  V30 1019 N 145.754 -4.65812 -4.42377 0
M  V30 1020 C 145.923 -5.09132 -3.15382 0
M  V30 1021 N 144.896 -4.84021 -2.3716 0
M  V30 1022 C 144.011 -4.18386 -3.20441 0
M  V30 1023 C 142.744 -3.6275 -2.94905 0
M  V30 1024 N 142.179 -3.05008 -4.05243 0
M  V30 1025 C 142.781 -2.98348 -5.28159 0
M  V30 1026 N 143.958 -3.48171 -5.56333 0
M  V30 1027 C 144.533 -4.06869 -4.47212 0
M  V30 1028 H 148.012 -5.39013 -3.70026 0
M  V30 1029 H 149.495 -6.71916 -5.01943 0
M  V30 1030 H 147.801 -7.45796 -6.94223 0
M  V30 1031 H 147.611 -8.89416 -5.05237 0
M  V30 1032 H 145.981 -8.14876 -5.18409 0
M  V30 1033 H 146.823 -5.59989 -2.81362 0
M  V30 1034 H 148.621 -3.27906 -5.43085 0
M  V30 1035 P 150.479 -5.75688 -6.64379 0
M  V30 1036 O 151.88 -6.14823 -7.06682 0
M  V30 1037 O 150.101 -5.93957 -5.20728 0
M  V30 1038 O 150.156 -4.23169 -7.04357 0
M  V30 1039 C 149.996 -3.99743 -8.4911 0
M  V30 1040 C 150.536 -2.60487 -8.79329 0
M  V30 1041 O 149.48 -1.82663 -8.44573 0
M  V30 1042 C 151.753 -2.10343 -8.03628 0
M  V30 1043 O 152.492 -1.09919 -8.67766 0
M  V30 1044 C 151.086 -1.68446 -6.70876 0
M  V30 1045 O 151.884 -0.678026 -6.08333 0
M  V30 1046 C 149.748 -1.17436 -7.18567 0
M  V30 1047 N 148.705 -1.52699 -6.23988 0
M  V30 1048 C 147.67 -0.643793 -6.05085 0
M  V30 1049 O 147.709 0.459118 -6.64315 0
M  V30 1050 N 146.658 -0.976931 -5.22038 0
M  V30 1051 C 146.706 -2.14429 -4.56662 0
M  V30 1052 N 145.696 -2.4542 -3.76231 0
M  V30 1053 C 147.802 -3.04203 -4.71481 0
M  V30 1054 C 148.768 -2.69669 -5.56838 0
M  V30 1055 H 149.78 -0.0804622 -7.31556 0
M  V30 1056 H 150.963 -2.53396 -6.02698 0
M  V30 1057 H 152.447 -2.9313 -7.85914 0
M  V30 1058 H 150.753 -2.52078 -9.87225 0
M  V30 1059 H 150.562 -4.75072 -9.05887 0
M  V30 1060 H 148.932 -4.05202 -8.76577 0
M  V30 1061 H 147.85 -3.97309 -4.15519 0
M  V30 1062 H 149.614 -3.36869 -5.72318 0
M  V30 1063 H 144.906 -1.80133 -3.65413 0
M  V30 1064 H 145.701 -3.34359 -3.24736 0
M  V30 1065 H 151.668 0.167718 -6.44882 0
M  V30 1066 P 153.43 -1.25109 -8.70152 0
M  V30 1067 O 154.852 -1.29744 -9.22016 0
M  V30 1068 O 153.07 -2.13714 -7.55141 0
M  V30 1069 O 153.107 0.248149 -8.21425 0
M  V30 1070 C 152.947 1.22779 -9.30434 0
M  V30 1071 C 153.487 2.56293 -8.80664 0
M  V30 1072 O 152.431 3.02979 -8.09349 0
M  V30 1073 C 154.705 2.57523 -7.89775 0
M  V30 1074 O 155.443 3.7668 -7.89438 0
M  V30 1075 C 154.036 2.20997 -6.55446 0
M  V30 1076 O 154.835 2.71895 -5.48509 0
M  V30 1077 C 152.699 2.89693 -6.67988 0
M  V30 1078 H 152.731 3.88793 -6.19859 0
M  V30 1079 H 153.914 1.12046 -6.44229 0
M  V30 1080 H 155.398 1.7746 -8.19711 0
M  V30 1081 H 153.704 3.20706 -9.67112 0
M  V30 1082 H 153.514 0.901032 -10.1892 0
M  V30 1083 H 151.884 1.33049 -9.56592 0
M  V30 1084 H 154.523 3.57847 -5.23962 0
M  V30 1085 P 156.38 3.65191 -7.99657 0
M  V30 1086 O 157.802 3.89332 -8.45794 0
M  V30 1087 O 156.02 2.28472 -7.50807 0
M  V30 1088 O 156.057 4.64972 -6.77611 0
M  V30 1089 C 155.897 6.06319 -7.16352 0
M  V30 1090 C 156.437 6.91731 -6.02299 0
M  V30 1091 O 155.381 6.92449 -5.17064 0
M  V30 1092 C 157.655 6.43627 -5.25174 0
M  V30 1093 O 158.393 7.43686 -4.60469 0
M  V30 1094 C 156.986 5.40275 -4.31916 0
M  V30 1095 O 157.785 5.25279 -3.14438 0
M  V30 1096 C 155.649 6.04847 -4.05327 0
M  V30 1097 H 155.681 6.62195 -3.11261 0
M  V30 1098 H 156.864 4.42556 -4.81383 0
M  V30 1099 H 158.348 5.92458 -5.93643 0
M  V30 1100 H 156.654 7.92655 -6.402 0
M  V30 1101 H 156.464 6.26671 -8.0846 0
M  V30 1102 H 154.834 6.29101 -7.32804 0
M  V30 1103 H 157.473 5.84315 -2.47318 0
M  V30 1104 P 159.331 7.39546 -4.75277 0
M  V30 1105 O 160.753 7.84798 -5.01039 0
M  V30 1106 O 158.971 5.9812 -5.08098 0
M  V30 1107 O 159.008 7.57503 -3.1866 0
M  V30 1108 C 158.848 8.97357 -2.74833 0
M  V30 1109 C 159.388 9.07548 -1.32709 0
M  V30 1110 O 158.332 8.62072 -0.606159 0
M  V30 1111 C 160.606 8.25383 -0.938334 0
M  V30 1112 O 161.344 8.74577 0.146954 0
M  V30 1113 C 159.937 6.8802 -0.712559 0
M  V30 1114 O 160.736 6.1189 0.194655 0
M  V30 1115 C 158.6 7.27966 -0.139777 0
M  V30 1116 H 158.632 7.25354 0.961601 0
M  V30 1117 H 159.815 6.32557 -1.65702 0
M  V30 1118 H 161.299 8.19355 -1.79097 0
M  V30 1119 H 159.605 10.1294 -1.10029 0
M  V30 1120 H 159.415 9.64276 -3.41316 0
M  V30 1121 H 157.785 9.25417 -2.76357 0
M  V30 1122 H 160.424 6.25267 1.07847 0
M  V30 1123 P 162.281 8.791 -1.35693e-13 0
M  V30 1124 O 163.703 9.31096 0.027933 0
M  V30 1125 O 161.921 7.77869 -1.04071 0
M  V30 1126 O 161.958 8.09533 1.41463 0
M  V30 1127 C 161.798 9.0349 2.53943 0
M  V30 1128 C 162.338 8.35226 3.79016 0
M  V30 1129 O 161.282 7.57992 4.15078 0
M  V30 1130 C 163.556 7.45087 3.67298 0
M  V30 1131 O 164.294 7.27796 4.85194 0
M  V30 1132 C 162.887 6.17323 3.12027 0
M  V30 1133 O 163.686 5.04231 3.47188 0
M  V30 1134 C 161.55 6.19961 3.81809 0
M  V30 1135 H 161.582 5.58218 4.73051 0
M  V30 1136 H 162.765 6.21726 2.02589 0
M  V30 1137 H 164.249 7.86112 2.9231 0
M  V30 1138 H 162.555 9.11627 4.55076 0
M  V30 1139 H 162.365 9.9573 2.34194 0
M  V30 1140 H 160.735 9.2792 2.67832 0
M  V30 1141 H 163.374 4.67702 4.28772 0
M  V30 1142 P 165.232 7.39546 4.75277 0
M  V30 1143 O 166.653 7.81861 5.05793 0
M  V30 1144 O 164.872 7.1065 3.32998 0
M  V30 1145 O 164.909 6.04542 5.56673 0
M  V30 1146 C 164.748 6.22839 7.02169 0
M  V30 1147 C 165.289 4.97725 7.70406 0
M  V30 1148 O 164.234 4.13208 7.58899 0
M  V30 1149 C 166.507 4.28231 7.11815 0
M  V30 1150 O 167.245 3.49945 8.01648 0
M  V30 1151 C 165.839 3.5063 5.96244 0
M  V30 1152 O 166.637 2.37008 5.64352 0
M  V30 1153 C 164.501 3.15122 6.56374 0
M  V30 1154 N 163.458 3.22311 5.55692 0
M  V30 1155 C 163.627 3.99655 4.46046 0
M  V30 1156 N 162.6 3.97599 3.63918 0
M  V30 1157 C 161.715 3.11159 4.25334 0
M  V30 1158 C 160.448 2.64972 3.85157 0
M  V30 1159 N 159.849 3.02132 2.69405 0
M  V30 1160 N 159.883 1.78482 4.74759 0
M  V30 1161 C 160.485 1.37463 5.90819 0
M  V30 1162 N 161.662 1.7733 6.31889 0
M  V30 1163 C 162.237 2.64393 5.43725 0
M  V30 1164 H 164.533 2.13823 6.99656 0
M  V30 1165 H 165.716 4.12931 5.06895 0
M  V30 1166 H 167.199 5.03285 6.70911 0
M  V30 1167 H 165.505 5.20001 8.76217 0
M  V30 1168 H 165.315 7.11046 7.35349 0
M  V30 1169 H 163.685 6.35815 7.26986 0
M  V30 1170 H 159.949 0.66574 6.53015 0
M  V30 1171 H 164.527 4.58037 4.27732 0
M  V30 1172 H 158.919 2.64828 2.45331 0
M  V30 1173 H 160.323 3.67472 2.05644 0
M  V30 1174 H 166.325 1.61619 6.13468 0
M  V30 1175 P 168.182 3.65191 7.99657 0
M  V30 1176 O 169.604 3.8425 8.48115 0
M  V30 1177 O 167.822 4.17805 6.64342 0
M  V30 1178 O 167.859 2.07613 7.95143 0
M  V30 1179 C 167.699 1.44328 9.27336 0
M  V30 1180 C 168.239 0.0220036 9.17197 0
M  V30 1181 O 167.183 -0.626867 8.61923 0
M  V30 1182 C 169.457 -0.24586 8.30336 0
M  V30 1183 O 170.195 -1.39011 8.63583 0
M  V30 1184 C 168.788 -0.273849 6.91158 0
M  V30 1185 O 169.587 -1.06348 6.02892 0
M  V30 1186 C 167.451 -0.897649 7.22545 0
M  V30 1187 H 167.483 -1.9841 7.04286 0
M  V30 1188 H 168.666 0.739928 6.497 0
M  V30 1189 H 170.15 0.60668 8.36503 0
M  V30 1190 H 168.456 -0.352479 10.1829 0
M  V30 1191 H 168.266 2.00611 10.0304 0
M  V30 1192 H 166.636 1.41843 9.55327 0
M  V30 1193 H 169.275 -1.95734 6.03555 0
M  V30 1194 P 171.133 -1.25109 8.70152 0
M  V30 1195 O 172.555 -1.35274 9.21221 0
M  V30 1196 O 170.773 -0.0769065 7.84762 0
M  V30 1197 O 170.81 -2.55232 7.81161 0
M  V30 1198 C 170.65 -3.79939 8.58154 0
M  V30 1199 C 171.19 -4.94023 7.72785 0
M  V30 1200 O 170.134 -5.18726 6.91205 0
M  V30 1201 C 172.408 -4.69597 6.85231 0
M  V30 1202 O 173.146 -5.83832 6.51337 0
M  V30 1203 C 171.739 -3.96706 5.66633 0
M  V30 1204 O 172.538 -4.15414 4.49689 0
M  V30 1205 C 170.402 -4.66153 5.59313 0
M  V30 1206 H 170.434 -5.47679 4.85214 0
M  V30 1207 H 171.617 -2.89008 5.86566 0
M  V30 1208 H 173.101 -4.0121 7.36511 0
M  V30 1209 H 171.407 -5.80182 8.37584 0
M  V30 1210 H 171.217 -3.73517 9.52265 0
M  V30 1211 H 169.587 -3.97163 8.80359 0
M  V30 1212 H 172.226 -4.90969 4.01921 0
M  V30 1213 P 174.084 -5.75688 6.64379 0
M  V30 1214 O 175.506 -6.11849 7.01846 0
M  V30 1215 O 173.724 -4.30744 6.56026 0
M  V30 1216 O 173.761 -6.37042 5.19165 0
M  V30 1217 C 173.601 -7.83578 5.16515 0
M  V30 1218 C 174.141 -8.33398 3.83019 0
M  V30 1219 O 173.085 -8.10074 3.01034 0
M  V30 1220 C 175.359 -7.65514 3.2257 0
M  V30 1221 O 176.097 -8.4329 2.32297 0
M  V30 1222 C 174.69 -6.40075 2.62207 0
M  V30 1223 O 175.489 -5.92589 1.53712 0
M  V30 1224 C 173.353 -6.9454 2.18503 0
M  V30 1225 H 173.385 -7.23063 1.12091 0
M  V30 1226 H 174.568 -5.6025 3.37201 0
M  V30 1227 H 176.052 -7.35707 4.02681 0
M  V30 1228 H 174.358 -9.40912 3.9095 0
M  V30 1229 H 174.168 -8.29056 5.99158 0
M  V30 1230 H 172.538 -8.10073 5.25882 0
M  V30 1231 H 175.177 -6.30324 0.726794 0
M  V30 1232 P 177.034 -8.4349 2.47671 0
M  V30 1233 O 178.456 -8.94167 2.5964 0
M  V30 1234 O 176.674 -7.1704 3.19006 0
M  V30 1235 O 176.711 -8.16596 0.923387 0
M  V30 1236 C 176.551 -9.38437 0.108857 0
M  V30 1237 C 177.091 -9.08175 -1.28353 0
M  V30 1238 O 176.035 -8.44229 -1.84713 0
M  V30 1239 C 178.309 -8.18386 -1.42505 0
M  V30 1240 O 179.047 -8.3501 -2.60497 0
M  V30 1241 C 177.64 -6.80225 -1.25468 0
M  V30 1242 O 178.439 -5.81621 -1.91066 0
M  V30 1243 C 176.303 -7.02416 -1.9168 0
M  V30 1244 H 176.335 -6.6888 -2.96621 0
M  V30 1245 H 177.518 -6.53617 -0.192223 0
M  V30 1246 H 179.002 -8.36622 -0.589963 0
M  V30 1247 H 177.308 -10.0291 -1.79807 0
M  V30 1248 H 177.118 -10.2138 0.558219 0
M  V30 1249 H 175.488 -9.6579 0.0444202 0
M  V30 1250 H 178.127 -5.69556 -2.79637 0
M  V30 1251 P 179.985 -8.4349 -2.47671 0
M  V30 1252 O 181.407 -8.92593 -2.65 0
M  V30 1253 O 179.625 -7.7568 -1.19296 0
M  V30 1254 O 179.662 -7.36886 -3.63805 0
M  V30 1255 C 179.502 -7.95349 -4.982 0
M  V30 1256 C 180.042 -6.94612 -5.98974 0
M  V30 1257 O 178.986 -6.10347 -6.11815 0
M  V30 1258 C 181.26 -6.11426 -5.62335 0
M  V30 1259 O 181.998 -5.6162 -6.70584 0
M  V30 1260 C 180.591 -5.04409 -4.73308 0
M  V30 1261 O 181.39 -3.85992 -4.75183 0
M  V30 1262 C 179.254 -4.8728 -5.41006 0
M  V30 1263 H 179.286 -4.02333 -6.11157 0
M  V30 1264 H 180.469 -5.39466 -3.69543 0
M  V30 1265 H 181.953 -6.71916 -5.01943 0
M  V30 1266 H 180.259 -7.4649 -6.93477 0
M  V30 1267 H 180.069 -8.89416 -5.05237 0
M  V30 1268 H 178.439 -8.14876 -5.18409 0
M  V30 1269 H 181.078 -3.27957 -5.4317 0
M  V30 1270 P 182.935 -5.75688 -6.64379 0
M  V30 1271 O 184.357 -6.07627 -7.05504 0
M  V30 1272 O 182.575 -5.88047 -5.19722 0
M  V30 1273 O 182.612 -4.2322 -7.04443 0
M  V30 1274 C 182.452 -3.99743 -8.4911 0
M  V30 1275 C 182.992 -2.60516 -8.79425 0
M  V30 1276 O 181.936 -1.82684 -8.4467 0
M  V30 1277 C 184.21 -2.10343 -8.03628 0
M  V30 1278 O 184.948 -1.09919 -8.67766 0
M  V30 1279 C 183.541 -1.68446 -6.70876 0
M  V30 1280 O 184.34 -0.678137 -6.08433 0
M  V30 1281 C 182.204 -1.17436 -7.18567 0
M  V30 1282 H 182.236 -0.0804732 -7.31656 0
M  V30 1283 H 183.419 -2.54037 -6.02537 0
M  V30 1284 H 184.903 -2.93881 -7.85526 0
M  V30 1285 H 183.209 -2.53065 -9.86973 0
M  V30 1286 H 183.019 -4.75072 -9.05887 0
M  V30 1287 H 181.389 -4.05244 -8.76668 0
M  V30 1288 H 184.028 0.177647 -6.34251 0
M  V30 1289 P 185.886 -1.25109 -8.70152 0
M  V30 1290 O 187.308 -1.29744 -9.22016 0
M  V30 1291 O 185.526 -2.13714 -7.55141 0
M  V30 1292 O 185.563 0.248149 -8.21425 0
M  V30 1293 C 185.403 1.22779 -9.30434 0
M  V30 1294 C 185.943 2.56293 -8.80664 0
M  V30 1295 O 184.887 3.02979 -8.09349 0
M  V30 1296 C 187.161 2.57523 -7.89775 0
M  V30 1297 O 187.899 3.7668 -7.89438 0
M  V30 1298 C 186.492 2.20997 -6.55446 0
M  V30 1299 O 187.291 2.71895 -5.48509 0
M  V30 1300 C 185.155 2.89693 -6.67988 0
M  V30 1301 H 185.187 3.88793 -6.19859 0
M  V30 1302 H 186.37 1.12046 -6.44229 0
M  V30 1303 H 187.854 1.7746 -8.19711 0
M  V30 1304 H 186.16 3.20706 -9.67112 0
M  V30 1305 H 185.97 0.901032 -10.1892 0
M  V30 1306 H 184.34 1.33049 -9.56592 0
M  V30 1307 H 186.979 3.57847 -5.23962 0
M  V30 1308 P 188.836 3.65191 -7.99657 0
M  V30 1309 O 190.237 3.87414 -8.52829 0
M  V30 1310 O 188.458 2.26932 -7.566 0
M  V30 1311 O 188.513 4.64915 -6.77529 0
M  V30 1312 C 188.353 6.06319 -7.16352 0
M  V30 1313 C 188.893 6.91655 -6.02234 0
M  V30 1314 O 187.837 6.92369 -5.17005 0
M  V30 1315 C 190.11 6.43627 -5.25174 0
M  V30 1316 O 190.849 7.43686 -4.60469 0
M  V30 1317 C 189.443 5.40275 -4.31916 0
M  V30 1318 O 190.241 5.25193 -3.14386 0
M  V30 1319 C 188.105 6.04847 -4.05327 0
M  V30 1320 N 187.062 5.04166 -3.98114 0
M  V30 1321 C 186.027 5.2366 -3.09923 0
M  V30 1322 O 186.066 6.23355 -2.34204 0
M  V30 1323 N 185.015 4.34279 -3.05727 0
M  V30 1324 C 185.063 3.26317 -3.84756 0
M  V30 1325 N 184.053 2.40281 -3.79534 0
M  V30 1326 C 186.159 3.02504 -4.72573 0
M  V30 1327 C 187.125 3.94493 -4.76618 0
M  V30 1328 H 188.137 6.62104 -3.11218 0
M  V30 1329 H 189.32 4.42969 -4.80867 0
M  V30 1330 H 190.804 5.93122 -5.93121 0
M  V30 1331 H 189.11 7.93295 -6.39407 0
M  V30 1332 H 188.919 6.26671 -8.0846 0
M  V30 1333 H 187.289 6.29036 -7.32728 0
M  V30 1334 H 186.207 2.12921 -5.34017 0
M  V30 1335 H 187.971 3.80658 -5.44176 0
M  V30 1336 H 183.263 2.57561 -3.15653 0
M  V30 1337 H 184.058 1.56492 -4.39044 0
M  V30 1338 H 190.025 5.93572 -2.52637 0
M  V30 1339 P 191.787 7.39546 -4.75277 0
M  V30 1340 O 193.209 7.84798 -5.01039 0
M  V30 1341 O 191.427 5.9812 -5.08098 0
M  V30 1342 O 191.464 7.57503 -3.1866 0
M  V30 1343 C 191.304 8.97357 -2.74833 0
M  V30 1344 C 191.844 9.07548 -1.32709 0
M  V30 1345 O 190.788 8.62072 -0.606159 0
M  V30 1346 C 193.062 8.25383 -0.938334 0
M  V30 1347 O 193.8 8.74577 0.146954 0
M  V30 1348 C 192.393 6.8802 -0.712559 0
M  V30 1349 O 193.192 6.1189 0.194655 0
M  V30 1350 C 191.056 7.27966 -0.139777 0
M  V30 1351 H 191.088 7.25354 0.961601 0
M  V30 1352 H 192.271 6.32557 -1.65702 0
M  V30 1353 H 193.755 8.19355 -1.79097 0
M  V30 1354 H 192.061 10.1294 -1.10029 0
M  V30 1355 H 191.871 9.64276 -3.41316 0
M  V30 1356 H 190.241 9.25417 -2.76357 0
M  V30 1357 H 192.88 6.25267 1.07847 0
M  V30 1358 P 194.738 8.791 1.12009e-13 0
M  V30 1359 O 196.16 9.31096 0.027933 0
M  V30 1360 O 194.378 7.77869 -1.04071 0
M  V30 1361 O 194.415 8.09533 1.41463 0
M  V30 1362 C 194.255 9.0349 2.53943 0
M  V30 1363 C 194.795 8.35226 3.79016 0
M  V30 1364 O 193.739 7.57992 4.15078 0
M  V30 1365 C 196.013 7.45087 3.67298 0
M  V30 1366 O 196.751 7.27796 4.85194 0
M  V30 1367 C 195.344 6.17323 3.12027 0
M  V30 1368 O 196.143 5.04231 3.47188 0
M  V30 1369 C 194.007 6.19961 3.81809 0
M  V30 1370 H 194.039 5.58218 4.73051 0
M  V30 1371 H 195.222 6.21726 2.02589 0
M  V30 1372 H 196.706 7.86112 2.9231 0
M  V30 1373 H 195.012 9.11627 4.55076 0
M  V30 1374 H 194.822 9.9573 2.34194 0
M  V30 1375 H 193.192 9.2792 2.67832 0
M  V30 1376 H 195.831 4.67702 4.28772 0
M  V30 1377 P 197.688 7.39546 4.75277 0
M  V30 1378 O 199.11 7.81777 5.05738 0
M  V30 1379 O 197.328 7.1065 3.32998 0
M  V30 1380 O 197.365 6.04542 5.56673 0
M  V30 1381 C 197.205 6.22772 7.02095 0
M  V30 1382 C 197.745 4.97725 7.70406 0
M  V30 1383 O 196.689 4.13256 7.58987 0
M  V30 1384 C 198.963 4.28231 7.11815 0
M  V30 1385 O 199.701 3.49945 8.01648 0
M  V30 1386 C 198.294 3.5063 5.96244 0
M  V30 1387 O 199.093 2.36482 5.64681 0
M  V30 1388 C 196.957 3.15122 6.56374 0
M  V30 1389 H 196.989 2.13853 6.99751 0
M  V30 1390 H 198.172 4.13501 5.06559 0
M  V30 1391 H 199.656 5.03285 6.70911 0
M  V30 1392 H 197.962 5.20877 8.75697 0
M  V30 1393 H 197.772 7.11046 7.35349 0
M  V30 1394 H 196.142 6.35815 7.26986 0
M  V30 1395 H 198.781 1.61644 6.13565 0
M  V30 1396 P 200.639 3.65191 7.99657 0
M  V30 1397 O 202.061 3.8425 8.48115 0
M  V30 1398 O 200.279 4.17805 6.64342 0
M  V30 1399 O 200.316 2.07613 7.95143 0
M  V30 1400 C 200.156 1.44328 9.27336 0
M  V30 1401 C 200.696 0.0220036 9.17197 0
M  V30 1402 O 199.64 -0.626867 8.61923 0
M  V30 1403 C 201.914 -0.24586 8.30336 0
M  V30 1404 O 202.652 -1.39011 8.63583 0
M  V30 1405 C 201.245 -0.273849 6.91158 0
M  V30 1406 O 202.044 -1.06348 6.02892 0
M  V30 1407 C 199.908 -0.897649 7.22545 0
M  V30 1408 H 199.94 -1.9841 7.04286 0
M  V30 1409 H 201.123 0.739928 6.497 0
M  V30 1410 H 202.607 0.60668 8.36503 0
M  V30 1411 H 200.913 -0.352479 10.1829 0
M  V30 1412 H 200.723 2.00611 10.0304 0
M  V30 1413 H 199.093 1.41843 9.55327 0
M  V30 1414 H 201.732 -1.95734 6.03555 0
M  V30 1415 P 203.589 -1.25109 8.70152 0
M  V30 1416 O 205.011 -1.35274 9.21221 0
M  V30 1417 O 203.229 -0.0769065 7.84762 0
M  V30 1418 O 203.266 -2.55232 7.81161 0
M  V30 1419 C 203.106 -3.79939 8.58154 0
M  V30 1420 C 203.646 -4.94023 7.72785 0
M  V30 1421 O 202.59 -5.18726 6.91205 0
M  V30 1422 C 204.864 -4.69597 6.85231 0
M  V30 1423 O 205.602 -5.83832 6.51337 0
M  V30 1424 C 204.195 -3.96706 5.66633 0
M  V30 1425 O 204.994 -4.15414 4.49689 0
M  V30 1426 C 202.858 -4.66153 5.59313 0
M  V30 1427 H 202.89 -5.47679 4.85214 0
M  V30 1428 H 204.073 -2.89008 5.86566 0
M  V30 1429 H 205.557 -4.0121 7.36511 0
M  V30 1430 H 203.863 -5.80182 8.37584 0
M  V30 1431 H 203.673 -3.73517 9.52265 0
M  V30 1432 H 202.043 -3.97163 8.80359 0
M  V30 1433 H 204.682 -4.90969 4.01921 0
M  V30 1434 P 206.54 -5.75688 6.64379 0
M  V30 1435 O 207.962 -6.11849 7.01846 0
M  V30 1436 O 206.18 -4.30744 6.56026 0
M  V30 1437 O 206.217 -6.37042 5.19165 0
M  V30 1438 C 206.057 -7.83578 5.16515 0
M  V30 1439 C 206.597 -8.33398 3.83019 0
M  V30 1440 O 205.541 -8.10074 3.01034 0
M  V30 1441 C 207.815 -7.65514 3.2257 0
M  V30 1442 O 208.553 -8.4329 2.32297 0
M  V30 1443 C 207.146 -6.40075 2.62207 0
M  V30 1444 O 207.945 -5.92589 1.53712 0
M  V30 1445 C 205.809 -6.9454 2.18503 0
M  V30 1446 H 205.841 -7.23063 1.12091 0
M  V30 1447 H 207.024 -5.6025 3.37201 0
M  V30 1448 H 208.508 -7.35707 4.02681 0
M  V30 1449 H 206.814 -9.40912 3.9095 0
M  V30 1450 H 206.624 -8.29056 5.99158 0
M  V30 1451 H 204.994 -8.10073 5.25882 0
M  V30 1452 H 207.633 -6.30324 0.726794 0
M  V30 1453 P 209.49 -8.4349 2.47671 0
M  V30 1454 O 210.912 -8.94167 2.5964 0
M  V30 1455 O 209.13 -7.1704 3.19006 0
M  V30 1456 O 209.167 -8.16596 0.923387 0
M  V30 1457 C 209.007 -9.38437 0.108857 0
M  V30 1458 C 209.547 -9.08175 -1.28353 0
M  V30 1459 O 208.491 -8.44229 -1.84713 0
M  V30 1460 C 210.765 -8.18386 -1.42505 0
M  V30 1461 O 211.503 -8.3501 -2.60497 0
M  V30 1462 C 210.096 -6.80225 -1.25468 0
M  V30 1463 O 210.895 -5.81621 -1.91066 0
M  V30 1464 C 208.759 -7.02416 -1.9168 0
M  V30 1465 H 208.791 -6.6888 -2.96621 0
M  V30 1466 H 209.974 -6.53617 -0.192223 0
M  V30 1467 H 211.458 -8.36622 -0.589963 0
M  V30 1468 H 209.764 -10.0291 -1.79807 0
M  V30 1469 H 209.574 -10.2138 0.558219 0
M  V30 1470 H 207.944 -9.6579 0.0444202 0
M  V30 1471 H 210.583 -5.69556 -2.79637 0
M  V30 1472 P 212.441 -8.4349 -2.47671 0
M  V30 1473 O 213.863 -8.92593 -2.65 0
M  V30 1474 O 212.081 -7.7568 -1.19296 0
M  V30 1475 O 212.118 -7.36886 -3.63805 0
M  V30 1476 C 211.958 -7.95349 -4.982 0
M  V30 1477 C 212.498 -6.94612 -5.98974 0
M  V30 1478 O 211.442 -6.10347 -6.11815 0
M  V30 1479 C 213.716 -6.11426 -5.62335 0
M  V30 1480 O 214.454 -5.6162 -6.70584 0
M  V30 1481 C 213.047 -5.04409 -4.73308 0
M  V30 1482 O 213.846 -3.85992 -4.75183 0
M  V30 1483 C 211.71 -4.8728 -5.41006 0
M  V30 1484 H 211.742 -4.02333 -6.11157 0
M  V30 1485 H 212.925 -5.39466 -3.69543 0
M  V30 1486 H 214.409 -6.71916 -5.01943 0
M  V30 1487 H 212.715 -7.4649 -6.93477 0
M  V30 1488 H 212.525 -8.89416 -5.05237 0
M  V30 1489 H 210.895 -8.14876 -5.18409 0
M  V30 1490 H 213.534 -3.27957 -5.4317 0
M  V30 1491 P 215.392 -5.75688 -6.64379 0
M  V30 1492 O 216.814 -6.07627 -7.05504 0
M  V30 1493 O 215.032 -5.88047 -5.19722 0
M  V30 1494 O 215.069 -4.2322 -7.04443 0
M  V30 1495 C 214.909 -3.99743 -8.4911 0
M  V30 1496 C 215.449 -2.60516 -8.79425 0
M  V30 1497 O 214.393 -1.82684 -8.4467 0
M  V30 1498 C 216.667 -2.10343 -8.03628 0
M  V30 1499 O 217.405 -1.09919 -8.67766 0
M  V30 1500 C 215.998 -1.68446 -6.70876 0
M  V30 1501 O 216.797 -0.678137 -6.08433 0
M  V30 1502 C 214.661 -1.17436 -7.18567 0
M  V30 1503 H 214.693 -0.0804732 -7.31656 0
M  V30 1504 H 215.876 -2.54037 -6.02537 0
M  V30 1505 H 217.36 -2.93881 -7.85526 0
M  V30 1506 H 215.666 -2.53065 -9.86973 0
M  V30 1507 H 215.476 -4.75072 -9.05887 0
M  V30 1508 H 213.846 -4.05244 -8.76668 0
M  V30 1509 H 216.485 0.177647 -6.34251 0
M  V30 1510 P 218.342 -1.25109 -8.70152 0
M  V30 1511 O 219.764 -1.29744 -9.22016 0
M  V30 1512 O 217.982 -2.13714 -7.55141 0
M  V30 1513 O 218.019 0.248149 -8.21425 0
M  V30 1514 C 217.859 1.22779 -9.30434 0
M  V30 1515 C 218.399 2.56293 -8.80664 0
M  V30 1516 O 217.343 3.02979 -8.09349 0
M  V30 1517 C 219.617 2.57523 -7.89775 0
M  V30 1518 O 220.355 3.7668 -7.89438 0
M  V30 1519 C 218.948 2.20997 -6.55446 0
M  V30 1520 O 219.747 2.71895 -5.48509 0
M  V30 1521 C 217.611 2.89693 -6.67988 0
M  V30 1522 H 217.643 3.88793 -6.19859 0
M  V30 1523 H 218.826 1.12046 -6.44229 0
M  V30 1524 H 220.31 1.7746 -8.19711 0
M  V30 1525 H 218.616 3.20706 -9.67112 0
M  V30 1526 H 218.426 0.901032 -10.1892 0
M  V30 1527 H 216.796 1.33049 -9.56592 0
M  V30 1528 H 219.435 3.57847 -5.23962 0
M  V30 1529 P 221.293 3.65191 -7.99657 0
M  V30 1530 O 222.715 3.89332 -8.45794 0
M  V30 1531 O 220.933 2.28472 -7.50807 0
M  V30 1532 O 220.97 4.64972 -6.77611 0
M  V30 1533 C 220.81 6.06319 -7.16352 0
M  V30 1534 C 221.35 6.91731 -6.02299 0
M  V30 1535 O 220.294 6.92449 -5.17064 0
M  V30 1536 C 222.568 6.43627 -5.25174 0
M  V30 1537 O 223.306 7.43686 -4.60469 0
M  V30 1538 C 221.899 5.40275 -4.31916 0
M  V30 1539 O 222.698 5.25279 -3.14438 0
M  V30 1540 C 220.562 6.04847 -4.05327 0
M  V30 1541 H 220.594 6.62195 -3.11261 0
M  V30 1542 H 221.777 4.42556 -4.81383 0
M  V30 1543 H 223.261 5.92458 -5.93643 0
M  V30 1544 H 221.567 7.92655 -6.402 0
M  V30 1545 H 221.377 6.26671 -8.0846 0
M  V30 1546 H 219.747 6.29101 -7.32804 0
M  V30 1547 H 222.386 5.84315 -2.47318 0
M  V30 1548 P 224.243 7.39546 -4.75277 0
M  V30 1549 O 225.665 7.84798 -5.01039 0
M  V30 1550 O 223.883 5.9812 -5.08098 0
M  V30 1551 O 223.92 7.57503 -3.1866 0
M  V30 1552 C 223.76 8.97357 -2.74833 0
M  V30 1553 C 224.3 9.07548 -1.32709 0
M  V30 1554 O 223.244 8.62072 -0.606159 0
M  V30 1555 C 225.518 8.25383 -0.938334 0
M  V30 1556 O 226.256 8.74577 0.146954 0
M  V30 1557 C 224.849 6.8802 -0.712559 0
M  V30 1558 O 225.648 6.1189 0.194655 0
M  V30 1559 C 223.512 7.27966 -0.139777 0
M  V30 1560 H 223.544 7.25354 0.961601 0
M  V30 1561 H 224.727 6.32557 -1.65702 0
M  V30 1562 H 226.211 8.19355 -1.79097 0
M  V30 1563 H 224.517 10.1294 -1.10029 0
M  V30 1564 H 224.327 9.64276 -3.41316 0
M  V30 1565 H 222.697 9.25417 -2.76357 0
M  V30 1566 H 225.336 6.25267 1.07847 0
M  V30 1567 P 227.194 8.791 4.22174e-13 0
M  V30 1568 O 228.616 9.31096 0.027933 0
M  V30 1569 O 226.834 7.77869 -1.04071 0
M  V30 1570 O 226.871 8.09533 1.41463 0
M  V30 1571 C 226.711 9.0349 2.53943 0
M  V30 1572 C 227.251 8.35226 3.79016 0
M  V30 1573 O 226.195 7.57992 4.15078 0
M  V30 1574 C 228.469 7.45087 3.67298 0
M  V30 1575 O 229.207 7.27796 4.85194 0
M  V30 1576 C 227.8 6.17323 3.12027 0
M  V30 1577 O 228.599 5.04231 3.47188 0
M  V30 1578 C 226.463 6.19961 3.81809 0
M  V30 1579 H 226.495 5.58218 4.73051 0
M  V30 1580 H 227.678 6.21726 2.02589 0
M  V30 1581 H 229.162 7.86112 2.9231 0
M  V30 1582 H 227.468 9.11627 4.55076 0
M  V30 1583 H 227.278 9.9573 2.34194 0
M  V30 1584 H 225.648 9.2792 2.67832 0
M  V30 1585 H 228.287 4.67702 4.28772 0
M  V30 1586 P 230.144 7.39546 4.75277 0
M  V30 1587 O 231.566 7.81777 5.05738 0
M  V30 1588 O 229.784 7.1065 3.32998 0
M  V30 1589 O 229.821 6.04542 5.56673 0
M  V30 1590 C 229.661 6.22772 7.02095 0
M  V30 1591 C 230.201 4.97725 7.70406 0
M  V30 1592 O 229.145 4.13256 7.58987 0
M  V30 1593 C 231.419 4.28231 7.11815 0
M  V30 1594 O 232.157 3.49945 8.01648 0
M  V30 1595 C 230.75 3.5063 5.96244 0
M  V30 1596 O 231.549 2.36482 5.64681 0
M  V30 1597 C 229.413 3.15122 6.56374 0
M  V30 1598 H 229.445 2.13853 6.99751 0
M  V30 1599 H 230.628 4.13501 5.06559 0
M  V30 1600 H 232.112 5.03285 6.70911 0
M  V30 1601 H 230.418 5.20877 8.75697 0
M  V30 1602 H 230.228 7.11046 7.35349 0
M  V30 1603 H 228.598 6.35815 7.26986 0
M  V30 1604 H 231.237 1.61644 6.13565 0
M  V30 1605 P 233.095 3.65191 7.99657 0
M  V30 1606 O 234.517 3.8425 8.48115 0
M  V30 1607 O 232.735 4.17805 6.64342 0
M  V30 1608 O 232.772 2.07613 7.95143 0
M  V30 1609 C 232.612 1.44328 9.27336 0
M  V30 1610 C 233.152 0.0220036 9.17197 0
M  V30 1611 O 232.096 -0.626867 8.61923 0
M  V30 1612 C 234.37 -0.24586 8.30336 0
M  V30 1613 O 235.108 -1.39011 8.63583 0
M  V30 1614 C 233.701 -0.273849 6.91158 0
M  V30 1615 O 234.5 -1.06348 6.02892 0
M  V30 1616 C 232.364 -0.897649 7.22545 0
M  V30 1617 H 232.396 -1.9841 7.04286 0
M  V30 1618 H 233.579 0.739928 6.497 0
M  V30 1619 H 235.063 0.60668 8.36503 0
M  V30 1620 H 233.369 -0.352479 10.1829 0
M  V30 1621 H 233.179 2.00611 10.0304 0
M  V30 1622 H 231.549 1.41843 9.55327 0
M  V30 1623 H 234.188 -1.95734 6.03555 0
M  V30 1624 P 236.046 -1.25109 8.70152 0
M  V30 1625 O 237.468 -1.35274 9.21221 0
M  V30 1626 O 235.686 -0.0769065 7.84762 0
M  V30 1627 O 235.723 -2.55232 7.81161 0
M  V30 1628 C 235.563 -3.79939 8.58154 0
M  V30 1629 C 236.103 -4.94023 7.72785 0
M  V30 1630 O 235.047 -5.18726 6.91205 0
M  V30 1631 C 237.321 -4.69597 6.85231 0
M  V30 1632 O 238.059 -5.83832 6.51337 0
M  V30 1633 C 236.652 -3.96706 5.66633 0
M  V30 1634 O 237.451 -4.15414 4.49689 0
M  V30 1635 C 235.315 -4.66153 5.59313 0
M  V30 1636 H 235.347 -5.47679 4.85214 0
M  V30 1637 H 236.53 -2.89008 5.86566 0
M  V30 1638 H 238.014 -4.0121 7.36511 0
M  V30 1639 H 236.32 -5.80182 8.37584 0
M  V30 1640 H 236.13 -3.73517 9.52265 0
M  V30 1641 H 234.5 -3.97163 8.80359 0
M  V30 1642 H 237.139 -4.90969 4.01921 0
M  V30 1643 P 238.996 -5.75688 6.64379 0
M  V30 1644 O 240.418 -6.11849 7.01846 0
M  V30 1645 O 238.636 -4.30744 6.56026 0
M  V30 1646 O 238.673 -6.37042 5.19165 0
M  V30 1647 C 238.513 -7.83578 5.16515 0
M  V30 1648 C 239.053 -8.33398 3.83019 0
M  V30 1649 O 237.997 -8.10074 3.01034 0
M  V30 1650 C 240.271 -7.65514 3.2257 0
M  V30 1651 O 241.009 -8.4329 2.32297 0
M  V30 1652 C 239.602 -6.40075 2.62207 0
M  V30 1653 O 240.401 -5.92589 1.53712 0
M  V30 1654 C 238.265 -6.9454 2.18503 0
M  V30 1655 H 238.297 -7.23063 1.12091 0
M  V30 1656 H 239.48 -5.6025 3.37201 0
M  V30 1657 H 240.964 -7.35707 4.02681 0
M  V30 1658 H 239.27 -9.40912 3.9095 0
M  V30 1659 H 239.08 -8.29056 5.99158 0
M  V30 1660 H 237.45 -8.10073 5.25882 0
M  V30 1661 H 240.089 -6.30324 0.726794 0
M  V30 1662 P 241.947 -8.4349 2.47671 0
M  V30 1663 O 243.369 -8.94167 2.5964 0
M  V30 1664 O 241.587 -7.1704 3.19006 0
M  V30 1665 O 241.624 -8.16596 0.923387 0
M  V30 1666 C 241.464 -9.38437 0.108857 0
M  V30 1667 C 242.004 -9.08175 -1.28353 0
M  V30 1668 O 240.948 -8.44229 -1.84713 0
M  V30 1669 C 243.222 -8.18386 -1.42505 0
M  V30 1670 O 243.96 -8.3501 -2.60497 0
M  V30 1671 C 242.553 -6.80225 -1.25468 0
M  V30 1672 O 243.352 -5.81621 -1.91066 0
M  V30 1673 C 241.216 -7.02416 -1.9168 0
M  V30 1674 H 241.248 -6.6888 -2.96621 0
M  V30 1675 H 242.431 -6.53617 -0.192223 0
M  V30 1676 H 243.915 -8.36622 -0.589963 0
M  V30 1677 H 242.221 -10.0291 -1.79807 0
M  V30 1678 H 242.031 -10.2138 0.558219 0
M  V30 1679 H 240.401 -9.6579 0.0444202 0
M  V30 1680 H 243.04 -5.69556 -2.79637 0
M  V30 1681 P 244.897 -8.4349 -2.47671 0
M  V30 1682 O 246.319 -8.92593 -2.65 0
M  V30 1683 O 244.537 -7.7568 -1.19296 0
M  V30 1684 O 244.574 -7.36886 -3.63805 0
M  V30 1685 C 244.414 -7.95349 -4.982 0
M  V30 1686 C 244.954 -6.94612 -5.98974 0
M  V30 1687 O 243.898 -6.10347 -6.11815 0
M  V30 1688 C 246.172 -6.11426 -5.62335 0
M  V30 1689 O 246.91 -5.6162 -6.70584 0
M  V30 1690 C 245.503 -5.04409 -4.73308 0
M  V30 1691 O 246.302 -3.85992 -4.75183 0
M  V30 1692 C 244.166 -4.8728 -5.41006 0
M  V30 1693 H 244.198 -4.02333 -6.11157 0
M  V30 1694 H 245.381 -5.39466 -3.69543 0
M  V30 1695 H 246.865 -6.71916 -5.01943 0
M  V30 1696 H 245.171 -7.4649 -6.93477 0
M  V30 1697 H 244.981 -8.89416 -5.05237 0
M  V30 1698 H 243.351 -8.14876 -5.18409 0
M  V30 1699 H 245.99 -3.27957 -5.4317 0
M  V30 1700 P 247.848 -5.75688 -6.64379 0
M  V30 1701 O 249.27 -6.07627 -7.05504 0
M  V30 1702 O 247.488 -5.88047 -5.19722 0
M  V30 1703 O 247.525 -4.2322 -7.04443 0
M  V30 1704 C 247.365 -3.99743 -8.4911 0
M  V30 1705 C 247.905 -2.60516 -8.79425 0
M  V30 1706 O 246.849 -1.82684 -8.4467 0
M  V30 1707 C 249.123 -2.10343 -8.03628 0
M  V30 1708 O 249.861 -1.09919 -8.67766 0
M  V30 1709 C 248.454 -1.68446 -6.70876 0
M  V30 1710 O 249.253 -0.678137 -6.08433 0
M  V30 1711 C 247.117 -1.17436 -7.18567 0
M  V30 1712 H 247.149 -0.0804732 -7.31656 0
M  V30 1713 H 248.332 -2.54037 -6.02537 0
M  V30 1714 H 249.816 -2.93881 -7.85526 0
M  V30 1715 H 248.122 -2.53065 -9.86973 0
M  V30 1716 H 247.932 -4.75072 -9.05887 0
M  V30 1717 H 246.302 -4.05244 -8.76668 0
M  V30 1718 H 248.941 0.177647 -6.34251 0
M  V30 1719 P 250.798 -1.25109 -8.70152 0
M  V30 1720 O 252.22 -1.29744 -9.22016 0
M  V30 1721 O 250.438 -2.13714 -7.55141 0
M  V30 1722 O 250.475 0.248149 -8.21425 0
M  V30 1723 C 250.315 1.22779 -9.30434 0
M  V30 1724 C 250.855 2.56293 -8.80664 0
M  V30 1725 O 249.799 3.02979 -8.09349 0
M  V30 1726 C 252.073 2.57523 -7.89775 0
M  V30 1727 O 252.811 3.7668 -7.89438 0
M  V30 1728 C 251.404 2.20997 -6.55446 0
M  V30 1729 O 252.203 2.71895 -5.48509 0
M  V30 1730 C 250.067 2.89693 -6.67988 0
M  V30 1731 H 250.099 3.88793 -6.19859 0
M  V30 1732 H 251.282 1.12046 -6.44229 0
M  V30 1733 H 252.766 1.7746 -8.19711 0
M  V30 1734 H 251.072 3.20706 -9.67112 0
M  V30 1735 H 250.882 0.901032 -10.1892 0
M  V30 1736 H 249.252 1.33049 -9.56592 0
M  V30 1737 H 251.891 3.57847 -5.23962 0
M  V30 1738 P 253.749 3.65191 -7.99657 0
M  V30 1739 O 255.171 3.89332 -8.45794 0
M  V30 1740 O 253.389 2.28472 -7.50807 0
M  V30 1741 O 253.426 4.64972 -6.77611 0
M  V30 1742 C 253.266 6.06319 -7.16352 0
M  V30 1743 C 253.806 6.91731 -6.02299 0
M  V30 1744 O 252.75 6.92449 -5.17064 0
M  V30 1745 C 255.024 6.43627 -5.25174 0
M  V30 1746 O 255.762 7.43686 -4.60469 0
M  V30 1747 C 254.355 5.40275 -4.31916 0
M  V30 1748 O 255.154 5.25279 -3.14438 0
M  V30 1749 C 253.018 6.04847 -4.05327 0
M  V30 1750 H 253.05 6.62195 -3.11261 0
M  V30 1751 H 254.233 4.42556 -4.81383 0
M  V30 1752 H 255.717 5.92458 -5.93643 0
M  V30 1753 H 254.023 7.92655 -6.402 0
M  V30 1754 H 253.833 6.26671 -8.0846 0
M  V30 1755 H 252.203 6.29101 -7.32804 0
M  V30 1756 H 254.842 5.84315 -2.47318 0
M  V30 1757 P 256.7 7.39546 -4.75277 0
M  V30 1758 O 258.122 7.84798 -5.01039 0
M  V30 1759 O 256.34 5.9812 -5.08098 0
M  V30 1760 O 256.377 7.57503 -3.1866 0
M  V30 1761 C 256.217 8.97357 -2.74833 0
M  V30 1762 C 256.757 9.07548 -1.32709 0
M  V30 1763 O 255.701 8.62072 -0.606159 0
M  V30 1764 C 257.975 8.25383 -0.938334 0
M  V30 1765 O 258.713 8.74577 0.146954 0
M  V30 1766 C 257.306 6.8802 -0.712559 0
M  V30 1767 O 258.105 6.1189 0.194655 0
M  V30 1768 C 255.969 7.27966 -0.139777 0
M  V30 1769 H 256.001 7.25354 0.961601 0
M  V30 1770 H 257.184 6.32557 -1.65702 0
M  V30 1771 H 258.668 8.19355 -1.79097 0
M  V30 1772 H 256.974 10.1294 -1.10029 0
M  V30 1773 H 256.784 9.64276 -3.41316 0
M  V30 1774 H 255.154 9.25417 -2.76357 0
M  V30 1775 H 257.793 6.25267 1.07847 0
M  V30 1776 P 259.65 8.791 7.3234e-13 0
M  V30 1777 O 261.072 9.31096 0.027933 0
M  V30 1778 O 259.29 7.77869 -1.04071 0
M  V30 1779 O 259.327 8.09533 1.41463 0
M  V30 1780 C 259.167 9.0349 2.53943 0
M  V30 1781 C 259.707 8.35226 3.79016 0
M  V30 1782 O 258.651 7.57992 4.15078 0
M  V30 1783 C 260.925 7.45087 3.67298 0
M  V30 1784 O 261.663 7.27796 4.85194 0
M  V30 1785 C 260.256 6.17323 3.12027 0
M  V30 1786 O 261.055 5.04231 3.47188 0
M  V30 1787 C 258.919 6.19961 3.81809 0
M  V30 1788 H 258.951 5.58218 4.73051 0
M  V30 1789 H 260.134 6.21726 2.02589 0
M  V30 1790 H 261.618 7.86112 2.9231 0
M  V30 1791 H 259.924 9.11627 4.55076 0
M  V30 1792 H 259.734 9.9573 2.34194 0
M  V30 1793 H 258.104 9.2792 2.67832 0
M  V30 1794 H 260.743 4.67702 4.28772 0
M  V30 1795 P 262.601 7.39546 4.75277 0
M  V30 1796 O 264.023 7.81777 5.05738 0
M  V30 1797 O 262.241 7.1065 3.32998 0
M  V30 1798 O 262.278 6.04542 5.56673 0
M  V30 1799 C 262.118 6.22772 7.02095 0
M  V30 1800 C 262.658 4.97725 7.70406 0
M  V30 1801 O 261.602 4.13256 7.58987 0
M  V30 1802 C 263.876 4.28231 7.11815 0
M  V30 1803 O 264.614 3.49945 8.01648 0
M  V30 1804 C 263.207 3.5063 5.96244 0
M  V30 1805 O 264.006 2.36482 5.64681 0
M  V30 1806 C 261.87 3.15122 6.56374 0
M  V30 1807 H 261.902 2.13853 6.99751 0
M  V30 1808 H 263.085 4.13501 5.06559 0
M  V30 1809 H 264.569 5.03285 6.70911 0
M  V30 1810 H 262.875 5.20877 8.75697 0
M  V30 1811 H 262.685 7.11046 7.35349 0
M  V30 1812 H 261.055 6.35815 7.26986 0
M  V30 1813 H 263.694 1.61644 6.13565 0
M  V30 1814 P 265.551 3.65191 7.99657 0
M  V30 1815 O 266.973 3.8425 8.48115 0
M  V30 1816 O 265.191 4.17805 6.64342 0
M  V30 1817 O 265.228 2.07613 7.95143 0
M  V30 1818 C 265.068 1.44328 9.27336 0
M  V30 1819 C 265.608 0.0220036 9.17197 0
M  V30 1820 O 264.552 -0.626867 8.61923 0
M  V30 1821 C 266.826 -0.24586 8.30336 0
M  V30 1822 O 267.564 -1.39011 8.63583 0
M  V30 1823 C 266.157 -0.273849 6.91158 0
M  V30 1824 O 266.956 -1.06348 6.02892 0
M  V30 1825 C 264.82 -0.897649 7.22545 0
M  V30 1826 H 264.852 -1.9841 7.04286 0
M  V30 1827 H 266.035 0.739928 6.497 0
M  V30 1828 H 267.519 0.60668 8.36503 0
M  V30 1829 H 265.825 -0.352479 10.1829 0
M  V30 1830 H 265.635 2.00611 10.0304 0
M  V30 1831 H 264.005 1.41843 9.55327 0
M  V30 1832 H 266.644 -1.95734 6.03555 0
M  V30 1833 P 268.502 -1.25109 8.70152 0
M  V30 1834 O 269.924 -1.35274 9.21221 0
M  V30 1835 O 268.142 -0.0769065 7.84762 0
M  V30 1836 O 268.179 -2.55232 7.81161 0
M  V30 1837 C 268.019 -3.79939 8.58154 0
M  V30 1838 C 268.559 -4.94023 7.72785 0
M  V30 1839 O 267.503 -5.18726 6.91205 0
M  V30 1840 C 269.777 -4.69597 6.85231 0
M  V30 1841 O 270.515 -5.83832 6.51337 0
M  V30 1842 C 269.108 -3.96706 5.66633 0
M  V30 1843 O 269.907 -4.15414 4.49689 0
M  V30 1844 C 267.771 -4.66153 5.59313 0
M  V30 1845 H 267.803 -5.47679 4.85214 0
M  V30 1846 H 268.986 -2.89008 5.86566 0
M  V30 1847 H 270.47 -4.0121 7.36511 0
M  V30 1848 H 268.776 -5.80182 8.37584 0
M  V30 1849 H 268.586 -3.73517 9.52265 0
M  V30 1850 H 266.956 -3.97163 8.80359 0
M  V30 1851 H 269.595 -4.90969 4.01921 0
M  V30 1852 P 271.452 -5.75688 6.64379 0
M  V30 1853 O 272.874 -6.11849 7.01846 0
M  V30 1854 O 271.092 -4.30744 6.56026 0
M  V30 1855 O 271.129 -6.37042 5.19165 0
M  V30 1856 C 270.969 -7.83578 5.16515 0
M  V30 1857 C 271.509 -8.33398 3.83019 0
M  V30 1858 O 270.453 -8.10074 3.01034 0
M  V30 1859 C 272.727 -7.65514 3.2257 0
M  V30 1860 O 273.465 -8.4329 2.32297 0
M  V30 1861 C 272.058 -6.40075 2.62207 0
M  V30 1862 O 272.857 -5.92589 1.53712 0
M  V30 1863 C 270.721 -6.9454 2.18503 0
M  V30 1864 H 270.753 -7.23063 1.12091 0
M  V30 1865 H 271.936 -5.6025 3.37201 0
M  V30 1866 H 273.42 -7.35707 4.02681 0
M  V30 1867 H 271.726 -9.40912 3.9095 0
M  V30 1868 H 271.536 -8.29056 5.99158 0
M  V30 1869 H 269.906 -8.10073 5.25882 0
M  V30 1870 H 272.545 -6.30324 0.726794 0
M  V30 1871 P 274.403 -8.4349 2.47671 0
M  V30 1872 O 275.825 -8.94167 2.5964 0
M  V30 1873 O 274.043 -7.1704 3.19006 0
M  V30 1874 O 274.08 -8.16596 0.923387 0
M  V30 1875 C 273.92 -9.38437 0.108857 0
M  V30 1876 C 274.46 -9.08175 -1.28353 0
M  V30 1877 O 273.404 -8.44229 -1.84713 0
M  V30 1878 C 275.678 -8.18386 -1.42505 0
M  V30 1879 O 276.416 -8.3501 -2.60497 0
M  V30 1880 C 275.009 -6.80225 -1.25468 0
M  V30 1881 O 275.808 -5.81621 -1.91066 0
M  V30 1882 C 273.672 -7.02416 -1.9168 0
M  V30 1883 H 273.704 -6.6888 -2.96621 0
M  V30 1884 H 274.887 -6.53617 -0.192223 0
M  V30 1885 H 276.371 -8.36622 -0.589963 0
M  V30 1886 H 274.677 -10.0291 -1.79807 0
M  V30 1887 H 274.487 -10.2138 0.558219 0
M  V30 1888 H 272.857 -9.6579 0.0444202 0
M  V30 1889 H 275.496 -5.69556 -2.79637 0
M  V30 1890 P 277.354 -8.4349 -2.47671 0
M  V30 1891 O 278.776 -8.92593 -2.65 0
M  V30 1892 O 276.994 -7.7568 -1.19296 0
M  V30 1893 O 277.031 -7.36886 -3.63805 0
M  V30 1894 C 276.871 -7.95349 -4.982 0
M  V30 1895 C 277.411 -6.94612 -5.98974 0
M  V30 1896 O 276.355 -6.10347 -6.11815 0
M  V30 1897 C 278.629 -6.11426 -5.62335 0
M  V30 1898 O 279.367 -5.6162 -6.70584 0
M  V30 1899 C 277.96 -5.04409 -4.73308 0
M  V30 1900 O 278.759 -3.85992 -4.75183 0
M  V30 1901 C 276.623 -4.8728 -5.41006 0
M  V30 1902 H 276.655 -4.02333 -6.11157 0
M  V30 1903 H 277.838 -5.39466 -3.69543 0
M  V30 1904 H 279.322 -6.71916 -5.01943 0
M  V30 1905 H 277.628 -7.4649 -6.93477 0
M  V30 1906 H 277.438 -8.89416 -5.05237 0
M  V30 1907 H 275.808 -8.14876 -5.18409 0
M  V30 1908 H 278.447 -3.27957 -5.4317 0
M  V30 1909 P 280.304 -5.75688 -6.64379 0
M  V30 1910 O 281.705 -6.14823 -7.06682 0
M  V30 1911 O 279.926 -5.93957 -5.20728 0
M  V30 1912 O 279.981 -4.23169 -7.04357 0
M  V30 1913 C 279.821 -3.99743 -8.4911 0
M  V30 1914 C 280.361 -2.60487 -8.79329 0
M  V30 1915 O 279.305 -1.82663 -8.44573 0
M  V30 1916 C 281.578 -2.10343 -8.03628 0
M  V30 1917 O 282.317 -1.09919 -8.67766 0
M  V30 1918 C 280.911 -1.68446 -6.70876 0
M  V30 1919 O 281.709 -0.678026 -6.08333 0
M  V30 1920 C 279.573 -1.17436 -7.18567 0
M  V30 1921 N 278.53 -1.52699 -6.23988 0
M  V30 1922 C 277.495 -0.643793 -6.05085 0
M  V30 1923 O 277.534 0.459118 -6.64315 0
M  V30 1924 N 276.483 -0.976931 -5.22038 0
M  V30 1925 C 276.531 -2.14429 -4.56662 0
M  V30 1926 C 277.627 -3.04203 -4.71481 0
M  V30 1927 C 278.593 -2.69669 -5.56838 0
M  V30 1928 H 279.605 -0.0804622 -7.31556 0
M  V30 1929 H 280.788 -2.53396 -6.02698 0
M  V30 1930 H 282.272 -2.9313 -7.85914 0
M  V30 1931 H 280.578 -2.52078 -9.87225 0
M  V30 1932 H 280.387 -4.75072 -9.05887 0
M  V30 1933 H 278.757 -4.05202 -8.76577 0
M  V30 1934 H 277.675 -3.97309 -4.15519 0
M  V30 1935 H 279.439 -3.36869 -5.72318 0
M  V30 1936 H 281.493 0.167718 -6.44882 0
M  V30 1937 P 283.255 -1.25109 -8.70152 0
M  V30 1938 O 284.677 -1.29744 -9.22016 0
M  V30 1939 O 282.895 -2.13714 -7.55141 0
M  V30 1940 O 282.932 0.248149 -8.21425 0
M  V30 1941 C 282.772 1.22779 -9.30434 0
M  V30 1942 C 283.312 2.56293 -8.80664 0
M  V30 1943 O 282.256 3.02979 -8.09349 0
M  V30 1944 C 284.53 2.57523 -7.89775 0
M  V30 1945 O 285.268 3.7668 -7.89438 0
M  V30 1946 C 283.861 2.20997 -6.55446 0
M  V30 1947 O 284.66 2.71895 -5.48509 0
M  V30 1948 C 282.524 2.89693 -6.67988 0
M  V30 1949 H 282.556 3.88793 -6.19859 0
M  V30 1950 H 283.739 1.12046 -6.44229 0
M  V30 1951 H 285.223 1.7746 -8.19711 0
M  V30 1952 H 283.529 3.20706 -9.67112 0
M  V30 1953 H 283.339 0.901032 -10.1892 0
M  V30 1954 H 281.709 1.33049 -9.56592 0
M  V30 1955 H 284.348 3.57847 -5.23962 0
M  V30 1956 P 286.205 3.65191 -7.99657 0
M  V30 1957 O 287.627 3.89332 -8.45794 0
M  V30 1958 O 285.845 2.28472 -7.50807 0
M  V30 1959 O 285.882 4.64972 -6.77611 0
M  V30 1960 C 285.722 6.06319 -7.16352 0
M  V30 1961 C 286.262 6.91731 -6.02299 0
M  V30 1962 O 285.206 6.92449 -5.17064 0
M  V30 1963 C 287.48 6.43627 -5.25174 0
M  V30 1964 O 288.218 7.43686 -4.60469 0
M  V30 1965 C 286.811 5.40275 -4.31916 0
M  V30 1966 O 287.61 5.25279 -3.14438 0
M  V30 1967 C 285.474 6.04847 -4.05327 0
M  V30 1968 H 285.506 6.62195 -3.11261 0
M  V30 1969 H 286.689 4.42556 -4.81383 0
M  V30 1970 H 288.173 5.92458 -5.93643 0
M  V30 1971 H 286.479 7.92655 -6.402 0
M  V30 1972 H 286.289 6.26671 -8.0846 0
M  V30 1973 H 284.659 6.29101 -7.32804 0
M  V30 1974 H 287.298 5.84315 -2.47318 0
M  V30 1975 P 289.156 7.39546 -4.75277 0
M  V30 1976 O 290.578 7.84798 -5.01039 0
M  V30 1977 O 288.796 5.9812 -5.08098 0
M  V30 1978 O 288.833 7.57503 -3.1866 0
M  V30 1979 C 288.673 8.97357 -2.74833 0
M  V30 1980 C 289.213 9.07548 -1.32709 0
M  V30 1981 O 288.157 8.62072 -0.606159 0
M  V30 1982 C 290.431 8.25383 -0.938334 0
M  V30 1983 O 291.169 8.74577 0.146954 0
M  V30 1984 C 289.762 6.8802 -0.712559 0
M  V30 1985 O 290.561 6.1189 0.194655 0
M  V30 1986 C 288.425 7.27966 -0.139777 0
M  V30 1987 H 288.457 7.25354 0.961601 0
M  V30 1988 H 289.64 6.32557 -1.65702 0
M  V30 1989 H 291.124 8.19355 -1.79097 0
M  V30 1990 H 289.43 10.1294 -1.10029 0
M  V30 1991 H 289.24 9.64276 -3.41316 0
M  V30 1992 H 287.61 9.25417 -2.76357 0
M  V30 1993 H 290.249 6.25267 1.07847 0
M  V30 1994 P 292.106 8.791 1.04251e-12 0
M  V30 1995 O 293.528 9.31296 0.027939 0
M  V30 1996 O 291.746 7.77869 -1.04071 0
M  V30 1997 O 291.783 8.09533 1.41463 0
M  V30 1998 C 291.623 9.0349 2.53943 0
M  V30 1999 C 292.163 8.35135 3.78975 0
M  V30 2000 O 291.108 7.57992 4.15078 0
M  V30 2001 C 293.381 7.45087 3.67298 0
M  V30 2002 O 294.119 7.27796 4.85194 0
M  V30 2003 C 292.713 6.17323 3.12027 0
M  V30 2004 O 293.511 5.04149 3.47132 0
M  V30 2005 C 291.375 6.19961 3.81809 0
M  V30 2006 N 290.332 5.71575 2.93223 0
M  V30 2007 C 290.394 5.97133 1.62693 0
M  V30 2008 N 289.349 5.44066 0.984414 0
M  V30 2009 C 288.615 4.87093 1.93987 0
M  V30 2010 C 287.309 4.26449 1.8738 0
M  V30 2011 O 286.576 4.1089 0.884377 0
M  V30 2012 N 286.879 3.82483 3.08036 0
M  V30 2013 C 287.628 3.95124 4.27727 0
M  V30 2014 N 287.031 3.4084 5.39089 0
M  V30 2015 N 288.781 4.55264 4.3706 0
M  V30 2016 C 289.238 5.00861 3.18217 0
M  V30 2017 H 291.407 5.58218 4.73051 0
M  V30 2018 H 292.59 6.21631 2.02558 0
M  V30 2019 H 294.075 7.85819 2.93096 0
M  V30 2020 H 292.38 9.11627 4.55076 0
M  V30 2021 H 292.19 9.9573 2.34194 0
M  V30 2022 H 290.559 9.2792 2.67832 0
M  V30 2023 H 285.983 3.38323 3.1329 0
M  V30 2024 H 291.19 6.53891 1.14265 0
M  V30 2025 H 286.12 2.93852 5.30559 0
M  V30 2026 H 287.496 3.47631 6.30632 0
M  V30 2027 H 293.2 4.67628 4.28704 0
M  V30 2028 P 295.057 7.39546 4.75277 0
M  V30 2029 O 296.479 7.81777 5.05738 0
M  V30 2030 O 294.697 7.1065 3.32998 0
M  V30 2031 O 294.734 6.04542 5.56673 0
M  V30 2032 C 294.574 6.22772 7.02095 0
M  V30 2033 C 295.114 4.97725 7.70406 0
M  V30 2034 O 294.058 4.13256 7.58987 0
M  V30 2035 C 296.332 4.28231 7.11815 0
M  V30 2036 O 297.07 3.49945 8.01648 0
M  V30 2037 C 295.663 3.5063 5.96244 0
M  V30 2038 O 296.462 2.36482 5.64681 0
M  V30 2039 C 294.326 3.15122 6.56374 0
M  V30 2040 H 294.358 2.13853 6.99751 0
M  V30 2041 H 295.541 4.13501 5.06559 0
M  V30 2042 H 297.025 5.03285 6.70911 0
M  V30 2043 H 295.331 5.20877 8.75697 0
M  V30 2044 H 295.141 7.11046 7.35349 0
M  V30 2045 H 293.511 6.35815 7.26986 0
M  V30 2046 H 296.15 1.61644 6.13565 0
M  V30 2047 P 298.008 3.65191 7.99657 0
M  V30 2048 O 299.43 3.8425 8.48115 0
M  V30 2049 O 297.648 4.17805 6.64342 0
M  V30 2050 O 297.685 2.07613 7.95143 0
M  V30 2051 C 297.525 1.44328 9.27336 0
M  V30 2052 C 298.065 0.0220036 9.17197 0
M  V30 2053 O 297.009 -0.626867 8.61923 0
M  V30 2054 C 299.283 -0.24586 8.30336 0
M  V30 2055 O 300.021 -1.39011 8.63583 0
M  V30 2056 C 298.614 -0.273849 6.91158 0
M  V30 2057 O 299.413 -1.06348 6.02892 0
M  V30 2058 C 297.277 -0.897649 7.22545 0
M  V30 2059 H 297.309 -1.9841 7.04286 0
M  V30 2060 H 298.492 0.739928 6.497 0
M  V30 2061 H 299.976 0.60668 8.36503 0
M  V30 2062 H 298.282 -0.352479 10.1829 0
M  V30 2063 H 298.092 2.00611 10.0304 0
M  V30 2064 H 296.462 1.41843 9.55327 0
M  V30 2065 H 299.101 -1.95734 6.03555 0
M  V30 2066 P 300.958 -1.25109 8.70152 0
M  V30 2067 O 302.38 -1.35274 9.21221 0
M  V30 2068 O 300.598 -0.0769065 7.84762 0
M  V30 2069 O 300.635 -2.55232 7.81161 0
M  V30 2070 C 300.475 -3.79939 8.58154 0
M  V30 2071 C 301.015 -4.94023 7.72785 0
M  V30 2072 O 299.959 -5.18726 6.91205 0
M  V30 2073 C 302.233 -4.69597 6.85231 0
M  V30 2074 O 302.971 -5.83832 6.51337 0
M  V30 2075 C 301.564 -3.96706 5.66633 0
M  V30 2076 O 302.363 -4.15414 4.49689 0
M  V30 2077 C 300.227 -4.66153 5.59313 0
M  V30 2078 H 300.259 -5.47679 4.85214 0
M  V30 2079 H 301.442 -2.89008 5.86566 0
M  V30 2080 H 302.926 -4.0121 7.36511 0
M  V30 2081 H 301.232 -5.80182 8.37584 0
M  V30 2082 H 301.042 -3.73517 9.52265 0
M  V30 2083 H 299.412 -3.97163 8.80359 0
M  V30 2084 H 302.051 -4.90969 4.01921 0
M  V30 2085 P 303.909 -5.75688 6.64379 0
M  V30 2086 O 305.31 -6.11991 7.09136 0
M  V30 2087 O 303.531 -4.30899 6.62018 0
M  V30 2088 O 303.586 -6.36965 5.19102 0
M  V30 2089 C 303.426 -7.83578 5.16515 0
M  V30 2090 C 303.966 -8.33307 3.82977 0
M  V30 2091 O 302.91 -8.0998 3.00999 0
M  V30 2092 C 305.183 -7.65514 3.2257 0
M  V30 2093 O 305.922 -8.4329 2.32297 0
M  V30 2094 C 304.516 -6.40075 2.62207 0
M  V30 2095 O 305.314 -5.92492 1.53687 0
M  V30 2096 C 303.178 -6.9454 2.18503 0
M  V30 2097 N 302.135 -5.95905 2.39948 0
M  V30 2098 C 301.1 -5.89764 1.49837 0
M  V30 2099 O 301.139 -6.64088 0.490975 0
M  V30 2100 N 300.088 -5.02821 1.70992 0
M  V30 2101 C 300.136 -4.21498 2.77236 0
M  V30 2102 C 301.232 -4.23389 3.68205 0
M  V30 2103 C 302.198 -5.12792 3.46171 0
M  V30 2104 H 303.21 -7.22964 1.12076 0
M  V30 2105 H 304.393 -5.60502 3.36589 0
M  V30 2106 H 305.877 -7.36197 4.01993 0
M  V30 2107 H 304.183 -9.41302 3.90009 0
M  V30 2108 H 303.992 -8.29056 5.99158 0
M  V30 2109 H 302.362 -8.09989 5.25828 0
M  V30 2110 H 301.28 -3.54747 4.52399 0
M  V30 2111 H 303.044 -5.18551 4.1489 0
M  V30 2112 H 305.098 -6.40705 0.751752 0
M  V30 2113 P 306.859 -8.4349 2.47671 0
M  V30 2114 O 308.281 -8.94167 2.5964 0
M  V30 2115 O 306.499 -7.1704 3.19006 0
M  V30 2116 O 306.536 -8.16596 0.923387 0
M  V30 2117 C 306.376 -9.38437 0.108857 0
M  V30 2118 C 306.916 -9.08175 -1.28353 0
M  V30 2119 O 305.86 -8.44229 -1.84713 0
M  V30 2120 C 308.134 -8.18386 -1.42505 0
M  V30 2121 O 308.872 -8.3501 -2.60497 0
M  V30 2122 C 307.465 -6.80225 -1.25468 0
M  V30 2123 O 308.264 -5.81621 -1.91066 0
M  V30 2124 C 306.128 -7.02416 -1.9168 0
M  V30 2125 H 306.16 -6.6888 -2.96621 0
M  V30 2126 H 307.343 -6.53617 -0.192223 0
M  V30 2127 H 308.827 -8.36622 -0.589963 0
M  V30 2128 H 307.133 -10.0291 -1.79807 0
M  V30 2129 H 306.943 -10.2138 0.558219 0
M  V30 2130 H 305.313 -9.6579 0.0444202 0
M  V30 2131 H 307.952 -5.69556 -2.79637 0
M  V30 2132 P 309.81 -8.4349 -2.47671 0
M  V30 2133 O 311.232 -8.92593 -2.65 0
M  V30 2134 O 309.45 -7.7568 -1.19296 0
M  V30 2135 O 309.487 -7.36886 -3.63805 0
M  V30 2136 C 309.327 -7.95349 -4.982 0
M  V30 2137 C 309.867 -6.94612 -5.98974 0
M  V30 2138 O 308.811 -6.10347 -6.11815 0
M  V30 2139 C 311.085 -6.11426 -5.62335 0
M  V30 2140 O 311.823 -5.6162 -6.70584 0
M  V30 2141 C 310.416 -5.04409 -4.73308 0
M  V30 2142 O 311.215 -3.85992 -4.75183 0
M  V30 2143 C 309.079 -4.8728 -5.41006 0
M  V30 2144 H 309.111 -4.02333 -6.11157 0
M  V30 2145 H 310.294 -5.39466 -3.69543 0
M  V30 2146 H 311.778 -6.71916 -5.01943 0
M  V30 2147 H 310.084 -7.4649 -6.93477 0
M  V30 2148 H 309.894 -8.89416 -5.05237 0
M  V30 2149 H 308.264 -8.14876 -5.18409 0
M  V30 2150 H 310.903 -3.27957 -5.4317 0
M  V30 2151 P 312.76 -5.75688 -6.64379 0
M  V30 2152 O 314.182 -6.07627 -7.05504 0
M  V30 2153 O 312.4 -5.88047 -5.19722 0
M  V30 2154 O 312.437 -4.2322 -7.04443 0
M  V30 2155 C 312.277 -3.99743 -8.4911 0
M  V30 2156 C 312.817 -2.60516 -8.79425 0
M  V30 2157 O 311.761 -1.82684 -8.4467 0
M  V30 2158 C 314.035 -2.10343 -8.03628 0
M  V30 2159 O 314.773 -1.09919 -8.67766 0
M  V30 2160 C 313.366 -1.68446 -6.70876 0
M  V30 2161 O 314.165 -0.678137 -6.08433 0
M  V30 2162 C 312.029 -1.17436 -7.18567 0
M  V30 2163 H 312.061 -0.0804732 -7.31656 0
M  V30 2164 H 313.244 -2.54037 -6.02537 0
M  V30 2165 H 314.728 -2.93881 -7.85526 0
M  V30 2166 H 313.034 -2.53065 -9.86973 0
M  V30 2167 H 312.844 -4.75072 -9.05887 0
M  V30 2168 H 311.214 -4.05244 -8.76668 0
M  V30 2169 H 313.853 0.177647 -6.34251 0
M  V30 2170 P 315.711 -1.25109 -8.70152 0
M  V30 2171 O 317.133 -1.29744 -9.22016 0
M  V30 2172 O 315.351 -2.13714 -7.55141 0
M  V30 2173 O 315.388 0.248149 -8.21425 0
M  V30 2174 C 315.228 1.22779 -9.30434 0
M  V30 2175 C 315.768 2.56293 -8.80664 0
M  V30 2176 O 314.712 3.02979 -8.09349 0
M  V30 2177 C 316.986 2.57523 -7.89775 0
M  V30 2178 O 317.724 3.7668 -7.89438 0
M  V30 2179 C 316.317 2.20997 -6.55446 0
M  V30 2180 O 317.116 2.71895 -5.48509 0
M  V30 2181 C 314.98 2.89693 -6.67988 0
M  V30 2182 H 315.012 3.88793 -6.19859 0
M  V30 2183 H 316.195 1.12046 -6.44229 0
M  V30 2184 H 317.679 1.7746 -8.19711 0
M  V30 2185 H 315.985 3.20706 -9.67112 0
M  V30 2186 H 315.795 0.901032 -10.1892 0
M  V30 2187 H 314.165 1.33049 -9.56592 0
M  V30 2188 H 316.804 3.57847 -5.23962 0
M  V30 2189 P 318.662 3.65191 -7.99657 0
M  V30 2190 O 320.084 3.89332 -8.45794 0
M  V30 2191 O 318.302 2.28472 -7.50807 0
M  V30 2192 O 318.339 4.64972 -6.77611 0
M  V30 2193 C 318.179 6.06319 -7.16352 0
M  V30 2194 C 318.719 6.91731 -6.02299 0
M  V30 2195 O 317.663 6.92449 -5.17064 0
M  V30 2196 C 319.937 6.43627 -5.25174 0
M  V30 2197 O 320.675 7.43686 -4.60469 0
M  V30 2198 C 319.268 5.40275 -4.31916 0
M  V30 2199 O 320.067 5.25279 -3.14438 0
M  V30 2200 C 317.931 6.04847 -4.05327 0
M  V30 2201 H 317.963 6.62195 -3.11261 0
M  V30 2202 H 319.146 4.42556 -4.81383 0
M  V30 2203 H 320.63 5.92458 -5.93643 0
M  V30 2204 H 318.936 7.92655 -6.402 0
M  V30 2205 H 318.746 6.26671 -8.0846 0
M  V30 2206 H 317.116 6.29101 -7.32804 0
M  V30 2207 H 319.755 5.84315 -2.47318 0
M  V30 2208 P 321.612 7.39546 -4.75277 0
M  V30 2209 O 323.034 7.84798 -5.01039 0
M  V30 2210 O 321.252 5.9812 -5.08098 0
M  V30 2211 O 321.289 7.57503 -3.1866 0
M  V30 2212 C 321.129 8.97357 -2.74833 0
M  V30 2213 C 321.669 9.07548 -1.32709 0
M  V30 2214 O 320.613 8.62072 -0.606159 0
M  V30 2215 C 322.887 8.25383 -0.938334 0
M  V30 2216 O 323.625 8.74577 0.146954 0
M  V30 2217 C 322.218 6.8802 -0.712559 0
M  V30 2218 O 323.017 6.1189 0.194655 0
M  V30 2219 C 320.881 7.27966 -0.139777 0
M  V30 2220 H 320.913 7.25354 0.961601 0
M  V30 2221 H 322.096 6.32557 -1.65702 0
M  V30 2222 H 323.58 8.19355 -1.79097 0
M  V30 2223 H 321.886 10.1294 -1.10029 0
M  V30 2224 H 321.696 9.64276 -3.41316 0
M  V30 2225 H 320.066 9.25417 -2.76357 0
M  V30 2226 H 322.705 6.25267 1.07847 0
M  V30 2227 P 324.563 8.791 1.35267e-12 0
M  V30 2228 O 325.985 9.31096 0.027933 0
M  V30 2229 O 324.203 7.77869 -1.04071 0
M  V30 2230 O 324.24 8.09533 1.41463 0
M  V30 2231 C 324.08 9.0349 2.53943 0
M  V30 2232 C 324.62 8.35226 3.79016 0
M  V30 2233 O 323.564 7.57992 4.15078 0
M  V30 2234 C 325.838 7.45087 3.67298 0
M  V30 2235 O 326.576 7.27796 4.85194 0
M  V30 2236 C 325.169 6.17323 3.12027 0
M  V30 2237 O 325.968 5.04231 3.47188 0
M  V30 2238 C 323.832 6.19961 3.81809 0
M  V30 2239 H 323.864 5.58218 4.73051 0
M  V30 2240 H 325.047 6.21726 2.02589 0
M  V30 2241 H 326.531 7.86112 2.9231 0
M  V30 2242 H 324.837 9.11627 4.55076 0
M  V30 2243 H 324.647 9.9573 2.34194 0
M  V30 2244 H 323.017 9.2792 2.67832 0
M  V30 2245 H 325.656 4.67702 4.28772 0
M  V30 2246 P 327.513 7.39546 4.75277 0
M  V30 2247 O 328.934 7.81861 5.05793 0
M  V30 2248 O 327.153 7.1065 3.32998 0
M  V30 2249 O 327.19 6.04542 5.56673 0
M  V30 2250 C 327.029 6.22839 7.02169 0
M  V30 2251 C 327.57 4.97725 7.70406 0
M  V30 2252 O 326.515 4.13208 7.58899 0
M  V30 2253 C 328.788 4.28231 7.11815 0
M  V30 2254 O 329.526 3.49945 8.01648 0
M  V30 2255 C 328.12 3.5063 5.96244 0
M  V30 2256 O 328.918 2.37008 5.64352 0
M  V30 2257 C 326.782 3.15122 6.56374 0
M  V30 2258 N 325.739 3.22311 5.55692 0
M  V30 2259 C 325.908 3.99655 4.46046 0
M  V30 2260 N 324.881 3.97599 3.63918 0
M  V30 2261 C 323.996 3.11159 4.25334 0
M  V30 2262 C 322.729 2.64972 3.85157 0
M  V30 2263 N 322.164 1.78482 4.74759 0
M  V30 2264 C 322.766 1.37463 5.90819 0
M  V30 2265 N 323.943 1.7733 6.31889 0
M  V30 2266 C 324.518 2.64393 5.43725 0
M  V30 2267 H 327.997 4.12931 5.06895 0
M  V30 2268 H 329.48 5.03285 6.70911 0
M  V30 2269 H 327.786 5.20001 8.76217 0
M  V30 2270 H 327.596 7.11046 7.35349 0
M  V30 2271 H 325.966 6.35815 7.26986 0
M  V30 2272 H 326.808 4.58037 4.27732 0
M  V30 2273 H 328.606 1.61619 6.13468 0
M  V30 2274 P 330.464 3.65191 7.99657 0
M  V30 2275 O 331.886 3.8425 8.48115 0
M  V30 2276 O 330.104 4.17805 6.64342 0
M  V30 2277 O 330.141 2.07613 7.95143 0
M  V30 2278 C 329.981 1.44328 9.27336 0
M  V30 2279 C 330.521 0.0220036 9.17197 0
M  V30 2280 O 329.465 -0.626867 8.61923 0
M  V30 2281 C 331.739 -0.24586 8.30336 0
M  V30 2282 O 332.477 -1.39011 8.63583 0
M  V30 2283 C 331.07 -0.273849 6.91158 0
M  V30 2284 O 331.869 -1.06348 6.02892 0
M  V30 2285 C 329.733 -0.897649 7.22545 0
M  V30 2286 H 329.765 -1.9841 7.04286 0
M  V30 2287 H 330.948 0.739928 6.497 0
M  V30 2288 H 332.432 0.60668 8.36503 0
M  V30 2289 H 330.738 -0.352479 10.1829 0
M  V30 2290 H 330.548 2.00611 10.0304 0
M  V30 2291 H 328.918 1.41843 9.55327 0
M  V30 2292 H 331.557 -1.95734 6.03555 0
M  V30 2293 P 333.414 -1.25109 8.70152 0
M  V30 2294 O 334.836 -1.35274 9.21221 0
M  V30 2295 O 333.054 -0.0769065 7.84762 0
M  V30 2296 O 333.091 -2.55232 7.81161 0
M  V30 2297 C 332.931 -3.79939 8.58154 0
M  V30 2298 C 333.471 -4.94023 7.72785 0
M  V30 2299 O 332.415 -5.18726 6.91205 0
M  V30 2300 C 334.689 -4.69597 6.85231 0
M  V30 2301 O 335.427 -5.83832 6.51337 0
M  V30 2302 C 334.02 -3.96706 5.66633 0
M  V30 2303 O 334.819 -4.15414 4.49689 0
M  V30 2304 C 332.683 -4.66153 5.59313 0
M  V30 2305 H 332.715 -5.47679 4.85214 0
M  V30 2306 H 333.898 -2.89008 5.86566 0
M  V30 2307 H 335.382 -4.0121 7.36511 0
M  V30 2308 H 333.688 -5.80182 8.37584 0
M  V30 2309 H 333.498 -3.73517 9.52265 0
M  V30 2310 H 331.868 -3.97163 8.80359 0
M  V30 2311 H 334.507 -4.90969 4.01921 0
M  V30 2312 P 336.365 -5.75688 6.64379 0
M  V30 2313 O 337.787 -6.11849 7.01846 0
M  V30 2314 O 336.005 -4.30744 6.56026 0
M  V30 2315 O 336.042 -6.37042 5.19165 0
M  V30 2316 C 335.882 -7.83578 5.16515 0
M  V30 2317 C 336.422 -8.33398 3.83019 0
M  V30 2318 O 335.366 -8.10074 3.01034 0
M  V30 2319 C 337.64 -7.65514 3.2257 0
M  V30 2320 O 338.378 -8.4329 2.32297 0
M  V30 2321 C 336.971 -6.40075 2.62207 0
M  V30 2322 O 337.77 -5.92589 1.53712 0
M  V30 2323 C 335.634 -6.9454 2.18503 0
M  V30 2324 H 335.666 -7.23063 1.12091 0
M  V30 2325 H 336.849 -5.6025 3.37201 0
M  V30 2326 H 338.333 -7.35707 4.02681 0
M  V30 2327 H 336.639 -9.40912 3.9095 0
M  V30 2328 H 336.449 -8.29056 5.99158 0
M  V30 2329 H 334.819 -8.10073 5.25882 0
M  V30 2330 H 337.458 -6.30324 0.726794 0
M  V30 2331 P 339.316 -8.4349 2.47671 0
M  V30 2332 O 340.738 -8.94167 2.5964 0
M  V30 2333 O 338.956 -7.1704 3.19006 0
M  V30 2334 O 338.993 -8.16596 0.923387 0
M  V30 2335 C 338.833 -9.38437 0.108857 0
M  V30 2336 C 339.373 -9.08175 -1.28353 0
M  V30 2337 O 338.317 -8.44229 -1.84713 0
M  V30 2338 C 340.591 -8.18386 -1.42505 0
M  V30 2339 O 341.329 -8.3501 -2.60497 0
M  V30 2340 C 339.922 -6.80225 -1.25468 0
M  V30 2341 O 340.721 -5.81621 -1.91066 0
M  V30 2342 C 338.585 -7.02416 -1.9168 0
M  V30 2343 H 338.617 -6.6888 -2.96621 0
M  V30 2344 H 339.8 -6.53617 -0.192223 0
M  V30 2345 H 341.284 -8.36622 -0.589963 0
M  V30 2346 H 339.59 -10.0291 -1.79807 0
M  V30 2347 H 339.4 -10.2138 0.558219 0
M  V30 2348 H 337.77 -9.6579 0.0444202 0
M  V30 2349 H 340.409 -5.69556 -2.79637 0
M  V30 2350 P 342.266 -8.4349 -2.47671 0
M  V30 2351 O 343.688 -8.92593 -2.65 0
M  V30 2352 O 341.906 -7.7568 -1.19296 0
M  V30 2353 O 341.943 -7.36886 -3.63805 0
M  V30 2354 C 341.783 -7.95349 -4.982 0
M  V30 2355 C 342.323 -6.94612 -5.98974 0
M  V30 2356 O 341.267 -6.10347 -6.11815 0
M  V30 2357 C 343.541 -6.11426 -5.62335 0
M  V30 2358 O 344.279 -5.6162 -6.70584 0
M  V30 2359 C 342.872 -5.04409 -4.73308 0
M  V30 2360 O 343.671 -3.85992 -4.75183 0
M  V30 2361 C 341.535 -4.8728 -5.41006 0
M  V30 2362 H 341.567 -4.02333 -6.11157 0
M  V30 2363 H 342.75 -5.39466 -3.69543 0
M  V30 2364 H 344.234 -6.71916 -5.01943 0
M  V30 2365 H 342.54 -7.4649 -6.93477 0
M  V30 2366 H 342.35 -8.89416 -5.05237 0
M  V30 2367 H 340.72 -8.14876 -5.18409 0
M  V30 2368 H 343.359 -3.27957 -5.4317 0
M  V30 2369 P 345.217 -5.75688 -6.64379 0
M  V30 2370 O 346.639 -6.07627 -7.05504 0
M  V30 2371 O 344.857 -5.88047 -5.19722 0
M  V30 2372 O 344.894 -4.2322 -7.04443 0
M  V30 2373 C 344.734 -3.99743 -8.4911 0
M  V30 2374 C 345.274 -2.60516 -8.79425 0
M  V30 2375 O 344.218 -1.82684 -8.4467 0
M  V30 2376 C 346.492 -2.10343 -8.03628 0
M  V30 2377 O 347.23 -1.09919 -8.67766 0
M  V30 2378 C 345.823 -1.68446 -6.70876 0
M  V30 2379 O 346.622 -0.678137 -6.08433 0
M  V30 2380 C 344.486 -1.17436 -7.18567 0
M  V30 2381 H 344.518 -0.0804732 -7.31656 0
M  V30 2382 H 345.701 -2.54037 -6.02537 0
M  V30 2383 H 347.185 -2.93881 -7.85526 0
M  V30 2384 H 345.491 -2.53065 -9.86973 0
M  V30 2385 H 345.301 -4.75072 -9.05887 0
M  V30 2386 H 343.671 -4.05244 -8.76668 0
M  V30 2387 H 346.31 0.177647 -6.34251 0
M  V30 2388 P 348.167 -1.25109 -8.70152 0
M  V30 2389 O 349.589 -1.29744 -9.22016 0
M  V30 2390 O 347.807 -2.13714 -7.55141 0
M  V30 2391 O 347.844 0.248149 -8.21425 0
M  V30 2392 C 347.684 1.22779 -9.30434 0
M  V30 2393 C 348.224 2.56293 -8.80664 0
M  V30 2394 O 347.168 3.02979 -8.09349 0
M  V30 2395 C 349.442 2.57523 -7.89775 0
M  V30 2396 O 350.18 3.7668 -7.89438 0
M  V30 2397 C 348.773 2.20997 -6.55446 0
M  V30 2398 O 349.572 2.71895 -5.48509 0
M  V30 2399 C 347.436 2.89693 -6.67988 0
M  V30 2400 H 347.468 3.88793 -6.19859 0
M  V30 2401 H 348.651 1.12046 -6.44229 0
M  V30 2402 H 350.135 1.7746 -8.19711 0
M  V30 2403 H 348.441 3.20706 -9.67112 0
M  V30 2404 H 348.251 0.901032 -10.1892 0
M  V30 2405 H 346.621 1.33049 -9.56592 0
M  V30 2406 H 349.26 3.57847 -5.23962 0
M  V30 2407 P 351.118 3.65191 -7.99657 0
M  V30 2408 O 352.539 3.89374 -8.45885 0
M  V30 2409 O 350.758 2.28472 -7.50807 0
M  V30 2410 O 350.795 4.64972 -6.77611 0
M  V30 2411 C 350.634 6.06383 -7.16428 0
M  V30 2412 C 351.175 6.91731 -6.02299 0
M  V30 2413 O 350.12 6.92369 -5.17005 0
M  V30 2414 C 352.393 6.43627 -5.25174 0
M  V30 2415 O 353.131 7.43686 -4.60469 0
M  V30 2416 C 351.725 5.40275 -4.31916 0
M  V30 2417 O 352.523 5.24878 -3.14911 0
M  V30 2418 C 350.387 6.04847 -4.05327 0
M  V30 2419 N 349.344 5.04166 -3.98114 0
M  V30 2420 C 349.513 3.84629 -4.59066 0
M  V30 2421 N 348.486 3.0363 -4.45343 0
M  V30 2422 C 347.601 3.76722 -3.68523 0
M  V30 2423 C 346.334 3.43528 -3.17088 0
M  V30 2424 N 345.735 2.23665 -3.37397 0
M  V30 2425 N 345.769 4.44526 -2.44231 0
M  V30 2426 C 346.371 5.65243 -2.20146 0
M  V30 2427 N 347.548 6.00221 -2.65453 0
M  V30 2428 C 348.123 5.00564 -3.39083 0
M  V30 2429 H 350.419 6.62104 -3.11218 0
M  V30 2430 H 351.602 4.42969 -4.80867 0
M  V30 2431 H 353.085 5.92458 -5.93643 0
M  V30 2432 H 351.391 7.93295 -6.39407 0
M  V30 2433 H 351.201 6.26671 -8.0846 0
M  V30 2434 H 349.571 6.29101 -7.32804 0
M  V30 2435 H 345.835 6.36894 -1.5883 0
M  V30 2436 H 350.413 3.58193 -5.14248 0
M  V30 2437 H 344.805 2.05145 -2.97047 0
M  V30 2438 H 346.209 1.51255 -3.92998 0
M  V30 2439 H 352.211 5.84223 -2.47279 0
M  V30 2440 P 354.068 7.39546 -4.75277 0
M  V30 2441 O 355.49 7.84798 -5.01039 0
M  V30 2442 O 353.708 5.9812 -5.08098 0
M  V30 2443 O 353.745 7.57503 -3.1866 0
M  V30 2444 C 353.585 8.97357 -2.74833 0
M  V30 2445 C 354.125 9.07548 -1.32709 0
M  V30 2446 O 353.069 8.62072 -0.606159 0
M  V30 2447 C 355.343 8.25383 -0.938334 0
M  V30 2448 O 356.081 8.74577 0.146954 0
M  V30 2449 C 354.674 6.8802 -0.712559 0
M  V30 2450 O 355.473 6.1189 0.194655 0
M  V30 2451 C 353.337 7.27966 -0.139777 0
M  V30 2452 H 353.369 7.25354 0.961601 0
M  V30 2453 H 354.552 6.32557 -1.65702 0
M  V30 2454 H 356.036 8.19355 -1.79097 0
M  V30 2455 H 354.342 10.1294 -1.10029 0
M  V30 2456 H 354.152 9.64276 -3.41316 0
M  V30 2457 H 352.522 9.25417 -2.76357 0
M  V30 2458 H 355.161 6.25267 1.07847 0
M  V30 2459 P 357.019 8.791 1.66284e-12 0
M  V30 2460 O 358.441 9.31096 0.027933 0
M  V30 2461 O 356.659 7.77869 -1.04071 0
M  V30 2462 O 356.696 8.09533 1.41463 0
M  V30 2463 C 356.536 9.0349 2.53943 0
M  V30 2464 C 357.076 8.35226 3.79016 0
M  V30 2465 O 356.02 7.57992 4.15078 0
M  V30 2466 C 358.294 7.45087 3.67298 0
M  V30 2467 O 359.032 7.27796 4.85194 0
M  V30 2468 C 357.625 6.17323 3.12027 0
M  V30 2469 O 358.424 5.04231 3.47188 0
M  V30 2470 C 356.288 6.19961 3.81809 0
M  V30 2471 H 356.32 5.58218 4.73051 0
M  V30 2472 H 357.503 6.21726 2.02589 0
M  V30 2473 H 358.987 7.86112 2.9231 0
M  V30 2474 H 357.293 9.11627 4.55076 0
M  V30 2475 H 357.103 9.9573 2.34194 0
M  V30 2476 H 355.473 9.2792 2.67832 0
M  V30 2477 H 358.112 4.67702 4.28772 0
M  V30 2478 P 359.97 7.39546 4.75277 0
M  V30 2479 O 361.392 7.81777 5.05738 0
M  V30 2480 O 359.61 7.1065 3.32998 0
M  V30 2481 O 359.647 6.04542 5.56673 0
M  V30 2482 C 359.487 6.22772 7.02095 0
M  V30 2483 C 360.027 4.97725 7.70406 0
M  V30 2484 O 358.971 4.13256 7.58987 0
M  V30 2485 C 361.245 4.28231 7.11815 0
M  V30 2486 O 361.983 3.49945 8.01648 0
M  V30 2487 C 360.576 3.5063 5.96244 0
M  V30 2488 O 361.375 2.36482 5.64681 0
M  V30 2489 C 359.239 3.15122 6.56374 0
M  V30 2490 H 359.271 2.13853 6.99751 0
M  V30 2491 H 360.454 4.13501 5.06559 0
M  V30 2492 H 361.938 5.03285 6.70911 0
M  V30 2493 H 360.244 5.20877 8.75697 0
M  V30 2494 H 360.054 7.11046 7.35349 0
M  V30 2495 H 358.424 6.35815 7.26986 0
M  V30 2496 H 361.063 1.61644 6.13565 0
M  V30 2497 P 362.92 3.65191 7.99657 0
M  V30 2498 O 364.321 3.90823 8.51272 0
M  V30 2499 O 362.542 4.23191 6.66972 0
M  V30 2500 O 362.597 2.07587 7.95046 0
M  V30 2501 C 362.437 1.44328 9.27336 0
M  V30 2502 C 362.977 0.0220012 9.17097 0
M  V30 2503 O 361.921 -0.626794 8.61824 0
M  V30 2504 C 364.194 -0.24586 8.30336 0
M  V30 2505 O 364.933 -1.39011 8.63583 0
M  V30 2506 C 363.527 -0.273849 6.91158 0
M  V30 2507 O 364.325 -1.06331 6.02794 0
M  V30 2508 C 362.189 -0.897649 7.22545 0
M  V30 2509 N 361.146 -0.292839 6.41732 0
M  V30 2510 C 360.111 -1.08701 5.98712 0
M  V30 2511 O 360.15 -2.31211 6.24471 0
M  V30 2512 N 359.099 -0.533391 5.28415 0
M  V30 2513 C 359.147 0.770866 4.98576 0
M  V30 2514 C 360.243 1.59049 5.38086 0
M  V30 2515 C 361.209 1.01866 6.10256 0
M  V30 2516 H 362.221 -1.98383 7.04189 0
M  V30 2517 H 363.404 0.733318 6.49674 0
M  V30 2518 H 364.888 0.598386 8.36663 0
M  V30 2519 H 363.194 -0.362662 10.1825 0
M  V30 2520 H 363.003 2.00611 10.0304 0
M  V30 2521 H 361.373 1.41828 9.55228 0
M  V30 2522 H 360.291 2.6415 5.10622 0
M  V30 2523 H 362.055 1.61983 6.44042 0
M  V30 2524 H 364.109 -1.97777 6.14035 0
M  V30 2525 P 365.871 -1.25109 8.70152 0
M  V30 2526 O 367.293 -1.35274 9.21221 0
M  V30 2527 O 365.511 -0.0769065 7.84762 0
M  V30 2528 O 365.548 -2.55232 7.81161 0
M  V30 2529 C 365.388 -3.79939 8.58154 0
M  V30 2530 C 365.928 -4.94023 7.72785 0
M  V30 2531 O 364.872 -5.18726 6.91205 0
M  V30 2532 C 367.146 -4.69597 6.85231 0
M  V30 2533 O 367.884 -5.83832 6.51337 0
M  V30 2534 C 366.477 -3.96706 5.66633 0
M  V30 2535 O 367.276 -4.15414 4.49689 0
M  V30 2536 C 365.14 -4.66153 5.59313 0
M  V30 2537 H 365.172 -5.47679 4.85214 0
M  V30 2538 H 366.355 -2.89008 5.86566 0
M  V30 2539 H 367.839 -4.0121 7.36511 0
M  V30 2540 H 366.145 -5.80182 8.37584 0
M  V30 2541 H 365.955 -3.73517 9.52265 0
M  V30 2542 H 364.325 -3.97163 8.80359 0
M  V30 2543 H 366.964 -4.90969 4.01921 0
M  V30 2544 P 368.821 -5.75688 6.64379 0
M  V30 2545 O 370.243 -6.11849 7.01846 0
M  V30 2546 O 368.461 -4.30744 6.56026 0
M  V30 2547 O 368.498 -6.37042 5.19165 0
M  V30 2548 C 368.338 -7.83578 5.16515 0
M  V30 2549 C 368.878 -8.33398 3.83019 0
M  V30 2550 O 367.822 -8.10074 3.01034 0
M  V30 2551 C 370.096 -7.65514 3.2257 0
M  V30 2552 O 370.834 -8.4329 2.32297 0
M  V30 2553 C 369.427 -6.40075 2.62207 0
M  V30 2554 O 370.226 -5.92589 1.53712 0
M  V30 2555 C 368.09 -6.9454 2.18503 0
M  V30 2556 H 368.122 -7.23063 1.12091 0
M  V30 2557 H 369.305 -5.6025 3.37201 0
M  V30 2558 H 370.789 -7.35707 4.02681 0
M  V30 2559 H 369.095 -9.40912 3.9095 0
M  V30 2560 H 368.905 -8.29056 5.99158 0
M  V30 2561 H 367.275 -8.10073 5.25882 0
M  V30 2562 H 369.914 -6.30324 0.726794 0
M  V30 2563 P 371.772 -8.4349 2.47671 0
M  V30 2564 O 373.194 -8.94167 2.5964 0
M  V30 2565 O 371.412 -7.1704 3.19006 0
M  V30 2566 O 371.449 -8.16596 0.923387 0
M  V30 2567 C 371.289 -9.38437 0.108857 0
M  V30 2568 C 371.829 -9.08175 -1.28353 0
M  V30 2569 O 370.773 -8.44229 -1.84713 0
M  V30 2570 C 373.047 -8.18386 -1.42505 0
M  V30 2571 O 373.785 -8.3501 -2.60497 0
M  V30 2572 C 372.378 -6.80225 -1.25468 0
M  V30 2573 O 373.177 -5.81621 -1.91066 0
M  V30 2574 C 371.041 -7.02416 -1.9168 0
M  V30 2575 H 371.073 -6.6888 -2.96621 0
M  V30 2576 H 372.256 -6.53617 -0.192223 0
M  V30 2577 H 373.74 -8.36622 -0.589963 0
M  V30 2578 H 372.046 -10.0291 -1.79807 0
M  V30 2579 H 371.856 -10.2138 0.558219 0
M  V30 2580 H 370.226 -9.6579 0.0444202 0
M  V30 2581 H 372.865 -5.69556 -2.79637 0
M  V30 2582 P 374.722 -8.4349 -2.47671 0
M  V30 2583 O 376.144 -8.92593 -2.65 0
M  V30 2584 O 374.362 -7.7568 -1.19296 0
M  V30 2585 O 374.399 -7.36886 -3.63805 0
M  V30 2586 C 374.239 -7.95349 -4.982 0
M  V30 2587 C 374.779 -6.94612 -5.98974 0
M  V30 2588 O 373.723 -6.10347 -6.11815 0
M  V30 2589 C 375.997 -6.11426 -5.62335 0
M  V30 2590 O 376.735 -5.6162 -6.70584 0
M  V30 2591 C 375.328 -5.04409 -4.73308 0
M  V30 2592 O 376.127 -3.85992 -4.75183 0
M  V30 2593 C 373.991 -4.8728 -5.41006 0
M  V30 2594 H 374.023 -4.02333 -6.11157 0
M  V30 2595 H 375.206 -5.39466 -3.69543 0
M  V30 2596 H 376.69 -6.71916 -5.01943 0
M  V30 2597 H 374.996 -7.4649 -6.93477 0
M  V30 2598 H 374.806 -8.89416 -5.05237 0
M  V30 2599 H 373.176 -8.14876 -5.18409 0
M  V30 2600 H 375.815 -3.27957 -5.4317 0
M  V30 2601 P 377.673 -5.75688 -6.64379 0
M  V30 2602 O 379.074 -6.14823 -7.06682 0
M  V30 2603 O 377.295 -5.93957 -5.20728 0
M  V30 2604 O 377.35 -4.23169 -7.04357 0
M  V30 2605 C 377.19 -3.99743 -8.4911 0
M  V30 2606 C 377.73 -2.60487 -8.79329 0
M  V30 2607 O 376.674 -1.82663 -8.44573 0
M  V30 2608 C 378.947 -2.10343 -8.03628 0
M  V30 2609 O 379.686 -1.09919 -8.67766 0
M  V30 2610 C 378.28 -1.68446 -6.70876 0
M  V30 2611 O 379.078 -0.678026 -6.08333 0
M  V30 2612 C 376.942 -1.17436 -7.18567 0
M  V30 2613 N 375.899 -1.52699 -6.23988 0
M  V30 2614 C 374.864 -0.643793 -6.05085 0
M  V30 2615 O 374.903 0.459118 -6.64315 0
M  V30 2616 N 373.852 -0.976931 -5.22038 0
M  V30 2617 C 373.9 -2.14429 -4.56662 0
M  V30 2618 C 374.996 -3.04203 -4.71481 0
M  V30 2619 C 375.962 -2.69669 -5.56838 0
M  V30 2620 H 376.974 -0.0804622 -7.31556 0
M  V30 2621 H 378.157 -2.53396 -6.02698 0
M  V30 2622 H 379.641 -2.9313 -7.85914 0
M  V30 2623 H 377.947 -2.52078 -9.87225 0
M  V30 2624 H 377.756 -4.75072 -9.05887 0
M  V30 2625 H 376.126 -4.05202 -8.76577 0
M  V30 2626 H 375.044 -3.97309 -4.15519 0
M  V30 2627 H 376.808 -3.36869 -5.72318 0
M  V30 2628 H 378.862 0.167718 -6.44882 0
M  V30 2629 P 380.624 -1.25109 -8.70152 0
M  V30 2630 O 382.046 -1.29772 -9.22214 0
M  V30 2631 O 380.264 -2.13714 -7.55141 0
M  V30 2632 O 380.301 0.248149 -8.21425 0
M  V30 2633 C 380.141 1.22779 -9.30434 0
M  V30 2634 C 380.681 2.56265 -8.80568 0
M  V30 2635 O 379.626 3.02979 -8.09349 0
M  V30 2636 C 381.899 2.57523 -7.89775 0
M  V30 2637 O 382.637 3.7668 -7.89438 0
M  V30 2638 C 381.231 2.20997 -6.55446 0
M  V30 2639 O 382.029 2.71851 -5.48419 0
M  V30 2640 C 379.893 2.89693 -6.67988 0
M  V30 2641 N 378.85 2.08895 -6.07487 0
M  V30 2642 C 378.912 0.760559 -6.14209 0
M  V30 2643 N 377.867 0.200108 -5.52538 0
M  V30 2644 C 377.133 1.22692 -5.09742 0
M  V30 2645 C 375.827 1.24782 -4.48775 0
M  V30 2646 O 375.094 0.290617 -4.19294 0
M  V30 2647 N 375.397 2.50468 -4.22428 0
M  V30 2648 C 376.146 3.67142 -4.51974 0
M  V30 2649 N 375.549 4.85096 -4.14091 0
M  V30 2650 N 377.299 3.67821 -5.12831 0
M  V30 2651 C 377.756 2.43698 -5.4105 0
M  V30 2652 H 379.925 3.88793 -6.19859 0
M  V30 2653 H 381.108 1.12029 -6.4413 0
M  V30 2654 H 382.593 1.78279 -8.19533 0
M  V30 2655 H 380.898 3.20706 -9.67112 0
M  V30 2656 H 380.708 0.901032 -10.1892 0
M  V30 2657 H 379.077 1.33049 -9.56592 0
M  V30 2658 H 374.501 2.61953 -3.79465 0
M  V30 2659 H 379.708 0.200439 -6.63497 0
M  V30 2660 H 374.638 4.8334 -3.66367 0
M  V30 2661 H 376.014 5.7474 -4.33841 0
M  V30 2662 H 381.718 3.5779 -5.23879 0
M  V30 2663 P 383.574 3.65191 -7.99657 0
M  V30 2664 O 384.996 3.89332 -8.45794 0
M  V30 2665 O 383.214 2.28472 -7.50807 0
M  V30 2666 O 383.251 4.64972 -6.77611 0
M  V30 2667 C 383.091 6.06319 -7.16352 0
M  V30 2668 C 383.631 6.91731 -6.02299 0
M  V30 2669 O 382.575 6.92449 -5.17064 0
M  V30 2670 C 384.849 6.43627 -5.25174 0
M  V30 2671 O 385.587 7.43686 -4.60469 0
M  V30 2672 C 384.18 5.40275 -4.31916 0
M  V30 2673 O 384.979 5.25279 -3.14438 0
M  V30 2674 C 382.843 6.04847 -4.05327 0
M  V30 2675 H 382.875 6.62195 -3.11261 0
M  V30 2676 H 384.058 4.42556 -4.81383 0
M  V30 2677 H 385.542 5.92458 -5.93643 0
M  V30 2678 H 383.848 7.92655 -6.402 0
M  V30 2679 H 383.658 6.26671 -8.0846 0
M  V30 2680 H 382.028 6.29101 -7.32804 0
M  V30 2681 H 384.667 5.84315 -2.47318 0
M  V30 2682 P 386.525 7.39546 -4.75277 0
M  V30 2683 O 387.946 7.84882 -5.01092 0
M  V30 2684 O 386.165 5.9812 -5.08098 0
M  V30 2685 O 386.202 7.57503 -3.1866 0
M  V30 2686 C 386.041 8.97452 -2.74862 0
M  V30 2687 C 386.582 9.07548 -1.32709 0
M  V30 2688 O 385.527 8.61972 -0.606089 0
M  V30 2689 C 387.8 8.25383 -0.938334 0
M  V30 2690 O 388.538 8.74577 0.146954 0
M  V30 2691 C 387.132 6.8802 -0.712559 0
M  V30 2692 O 387.93 6.1181 0.188505 0
M  V30 2693 C 385.794 7.27966 -0.139777 0
M  V30 2694 N 384.751 6.39368 -0.623421 0
M  V30 2695 C 384.92 5.71761 -1.78245 0
M  V30 2696 N 383.893 4.962 -2.10491 0
M  V30 2697 C 383.008 5.16158 -1.0635 0
M  V30 2698 C 381.741 4.60425 -0.810266 0
M  V30 2699 N 381.142 3.7057 -1.62914 0
M  V30 2700 N 381.176 5.06 0.348685 0
M  V30 2701 C 381.778 5.94532 1.20395 0
M  V30 2702 N 382.955 6.48452 1.01191 0
M  V30 2703 C 383.53 6.04423 -0.146291 0
M  V30 2704 H 385.826 7.25255 0.961469 0
M  V30 2705 H 387.009 6.32625 -1.65044 0
M  V30 2706 H 388.492 8.19355 -1.79097 0
M  V30 2707 H 386.798 10.1305 -1.09016 0
M  V30 2708 H 386.608 9.64276 -3.41316 0
M  V30 2709 H 384.978 9.25417 -2.76357 0
M  V30 2710 H 381.242 6.21659 2.10714 0
M  V30 2711 H 385.82 5.79354 -2.38959 0
M  V30 2712 H 380.212 3.33174 -1.38982 0
M  V30 2713 H 381.616 3.39714 -2.48836 0
M  V30 2714 H 387.618 6.25169 1.0783 0
M  V30 2715 P 389.475 8.791 1.973e-12 0
M  V30 2716 O 390.897 9.31096 0.027933 0
M  V30 2717 O 389.115 7.77869 -1.04071 0
M  V30 2718 O 389.152 8.09533 1.41463 0
M  V30 2719 C 388.992 9.0349 2.53943 0
M  V30 2720 C 389.532 8.35226 3.79016 0
M  V30 2721 O 388.476 7.57992 4.15078 0
M  V30 2722 C 390.75 7.45087 3.67298 0
M  V30 2723 O 391.488 7.27796 4.85194 0
M  V30 2724 C 390.081 6.17323 3.12027 0
M  V30 2725 O 390.88 5.04231 3.47188 0
M  V30 2726 C 388.744 6.19961 3.81809 0
M  V30 2727 H 388.776 5.58218 4.73051 0
M  V30 2728 H 389.959 6.21726 2.02589 0
M  V30 2729 H 391.443 7.86112 2.9231 0
M  V30 2730 H 389.749 9.11627 4.55076 0
M  V30 2731 H 389.559 9.9573 2.34194 0
M  V30 2732 H 387.929 9.2792 2.67832 0
M  V30 2733 H 390.568 4.67702 4.28772 0
M  V30 2734 P 392.426 7.39546 4.75277 0
M  V30 2735 O 393.847 7.81861 5.05793 0
M  V30 2736 O 392.066 7.1065 3.32998 0
M  V30 2737 O 392.103 6.04542 5.56673 0
M  V30 2738 C 391.942 6.22839 7.02169 0
M  V30 2739 C 392.483 4.97725 7.70406 0
M  V30 2740 O 391.428 4.13208 7.58899 0
M  V30 2741 C 393.701 4.28231 7.11815 0
M  V30 2742 O 394.439 3.49945 8.01648 0
M  V30 2743 C 393.033 3.5063 5.96244 0
M  V30 2744 O 393.831 2.37008 5.64352 0
M  V30 2745 C 391.695 3.15122 6.56374 0
M  V30 2746 N 390.652 3.22311 5.55692 0
M  V30 2747 C 390.821 3.99655 4.46046 0
M  V30 2748 N 389.794 3.97599 3.63918 0
M  V30 2749 C 388.909 3.11159 4.25334 0
M  V30 2750 C 387.642 2.64972 3.85157 0
M  V30 2751 N 387.077 1.78482 4.74759 0
M  V30 2752 C 387.679 1.37463 5.90819 0
M  V30 2753 N 388.856 1.7733 6.31889 0
M  V30 2754 C 389.431 2.64393 5.43725 0
M  V30 2755 H 392.91 4.12931 5.06895 0
M  V30 2756 H 394.393 5.03285 6.70911 0
M  V30 2757 H 392.699 5.20001 8.76217 0
M  V30 2758 H 392.509 7.11046 7.35349 0
M  V30 2759 H 390.879 6.35815 7.26986 0
M  V30 2760 H 391.721 4.58037 4.27732 0
M  V30 2761 H 393.519 1.61619 6.13468 0
M  V30 2762 P 395.376 3.65191 7.99657 0
M  V30 2763 O 396.798 3.8425 8.48115 0
M  V30 2764 O 395.016 4.17805 6.64342 0
M  V30 2765 O 395.053 2.07613 7.95143 0
M  V30 2766 C 394.893 1.44328 9.27336 0
M  V30 2767 C 395.433 0.0220036 9.17197 0
M  V30 2768 O 394.377 -0.626867 8.61923 0
M  V30 2769 C 396.651 -0.24586 8.30336 0
M  V30 2770 O 397.389 -1.39011 8.63583 0
M  V30 2771 C 395.982 -0.273849 6.91158 0
M  V30 2772 O 396.781 -1.06348 6.02892 0
M  V30 2773 C 394.645 -0.897649 7.22545 0
M  V30 2774 H 394.677 -1.9841 7.04286 0
M  V30 2775 H 395.86 0.739928 6.497 0
M  V30 2776 H 397.344 0.60668 8.36503 0
M  V30 2777 H 395.65 -0.352479 10.1829 0
M  V30 2778 H 395.46 2.00611 10.0304 0
M  V30 2779 H 393.83 1.41843 9.55327 0
M  V30 2780 H 396.469 -1.95734 6.03555 0
M  V30 2781 P 398.327 -1.25109 8.70152 0
M  V30 2782 O 399.749 -1.35274 9.21221 0
M  V30 2783 O 397.967 -0.0769065 7.84762 0
M  V30 2784 O 398.004 -2.55232 7.81161 0
M  V30 2785 C 397.844 -3.79939 8.58154 0
M  V30 2786 C 398.384 -4.94023 7.72785 0
M  V30 2787 O 397.328 -5.18726 6.91205 0
M  V30 2788 C 399.602 -4.69597 6.85231 0
M  V30 2789 O 400.34 -5.83832 6.51337 0
M  V30 2790 C 398.933 -3.96706 5.66633 0
M  V30 2791 O 399.732 -4.15414 4.49689 0
M  V30 2792 C 397.596 -4.66153 5.59313 0
M  V30 2793 H 397.628 -5.47679 4.85214 0
M  V30 2794 H 398.811 -2.89008 5.86566 0
M  V30 2795 H 400.295 -4.0121 7.36511 0
M  V30 2796 H 398.601 -5.80182 8.37584 0
M  V30 2797 H 398.411 -3.73517 9.52265 0
M  V30 2798 H 396.781 -3.97163 8.80359 0
M  V30 2799 H 399.42 -4.90969 4.01921 0
M  V30 2800 P 401.278 -5.75688 6.64379 0
M  V30 2801 O 402.7 -6.11849 7.01846 0
M  V30 2802 O 400.918 -4.30744 6.56026 0
M  V30 2803 O 400.955 -6.37042 5.19165 0
M  V30 2804 C 400.795 -7.83578 5.16515 0
M  V30 2805 C 401.335 -8.33398 3.83019 0
M  V30 2806 O 400.279 -8.10074 3.01034 0
M  V30 2807 C 402.553 -7.65514 3.2257 0
M  V30 2808 O 403.291 -8.4329 2.32297 0
M  V30 2809 C 401.884 -6.40075 2.62207 0
M  V30 2810 O 402.683 -5.92589 1.53712 0
M  V30 2811 C 400.547 -6.9454 2.18503 0
M  V30 2812 H 400.579 -7.23063 1.12091 0
M  V30 2813 H 401.762 -5.6025 3.37201 0
M  V30 2814 H 403.246 -7.35707 4.02681 0
M  V30 2815 H 401.552 -9.40912 3.9095 0
M  V30 2816 H 401.362 -8.29056 5.99158 0
M  V30 2817 H 399.732 -8.10073 5.25882 0
M  V30 2818 H 402.371 -6.30324 0.726794 0
M  V30 2819 P 404.228 -8.4349 2.47671 0
M  V30 2820 O 405.65 -8.94167 2.5964 0
M  V30 2821 O 403.868 -7.1704 3.19006 0
M  V30 2822 O 403.905 -8.16596 0.923387 0
M  V30 2823 C 403.745 -9.38437 0.108857 0
M  V30 2824 C 404.285 -9.08175 -1.28353 0
M  V30 2825 O 403.229 -8.44229 -1.84713 0
M  V30 2826 C 405.503 -8.18386 -1.42505 0
M  V30 2827 O 406.241 -8.3501 -2.60497 0
M  V30 2828 C 404.834 -6.80225 -1.25468 0
M  V30 2829 O 405.633 -5.81621 -1.91066 0
M  V30 2830 C 403.497 -7.02416 -1.9168 0
M  V30 2831 H 403.529 -6.6888 -2.96621 0
M  V30 2832 H 404.712 -6.53617 -0.192223 0
M  V30 2833 H 406.196 -8.36622 -0.589963 0
M  V30 2834 H 404.502 -10.0291 -1.79807 0
M  V30 2835 H 404.312 -10.2138 0.558219 0
M  V30 2836 H 402.682 -9.6579 0.0444202 0
M  V30 2837 H 405.321 -5.69556 -2.79637 0
M  V30 2838 P 407.179 -8.4349 -2.47671 0
M  V30 2839 O 408.601 -8.92593 -2.65 0
M  V30 2840 O 406.819 -7.7568 -1.19296 0
M  V30 2841 O 406.856 -7.36886 -3.63805 0
M  V30 2842 C 406.696 -7.95349 -4.982 0
M  V30 2843 C 407.236 -6.94612 -5.98974 0
M  V30 2844 O 406.18 -6.10347 -6.11815 0
M  V30 2845 C 408.454 -6.11426 -5.62335 0
M  V30 2846 O 409.192 -5.6162 -6.70584 0
M  V30 2847 C 407.785 -5.04409 -4.73308 0
M  V30 2848 O 408.584 -3.85992 -4.75183 0
M  V30 2849 C 406.448 -4.8728 -5.41006 0
M  V30 2850 H 406.48 -4.02333 -6.11157 0
M  V30 2851 H 407.663 -5.39466 -3.69543 0
M  V30 2852 H 409.147 -6.71916 -5.01943 0
M  V30 2853 H 407.453 -7.4649 -6.93477 0
M  V30 2854 H 407.263 -8.89416 -5.05237 0
M  V30 2855 H 405.633 -8.14876 -5.18409 0
M  V30 2856 H 408.272 -3.27957 -5.4317 0
M  V30 2857 P 410.129 -5.75688 -6.64379 0
M  V30 2858 O 411.55 -6.07692 -7.0558 0
M  V30 2859 O 409.769 -5.88047 -5.19722 0
M  V30 2860 O 409.806 -4.2322 -7.04443 0
M  V30 2861 C 409.645 -3.99785 -8.49201 0
M  V30 2862 C 410.186 -2.60516 -8.79425 0
M  V30 2863 O 409.131 -1.82663 -8.44573 0
M  V30 2864 C 411.404 -2.10343 -8.03628 0
M  V30 2865 O 412.142 -1.09919 -8.67766 0
M  V30 2866 C 410.736 -1.68446 -6.70876 0
M  V30 2867 O 411.534 -0.684109 -6.08265 0
M  V30 2868 C 409.398 -1.17436 -7.18567 0
M  V30 2869 N 408.355 -1.52699 -6.23988 0
M  V30 2870 C 408.524 -2.578 -5.40574 0
M  V30 2871 N 407.497 -2.78966 -4.61193 0
M  V30 2872 C 406.612 -1.78725 -4.95769 0
M  V30 2873 C 405.345 -1.45727 -4.44207 0
M  V30 2874 N 404.78 -0.374977 -5.05812 0
M  V30 2875 C 405.382 0.345585 -6.05615 0
M  V30 2876 N 406.559 0.0787651 -6.56253 0
M  V30 2877 C 407.134 -1.00499 -5.96189 0
M  V30 2878 H 410.613 -2.53396 -6.02698 0
M  V30 2879 H 412.096 -2.93881 -7.85526 0
M  V30 2880 H 410.402 -2.52078 -9.87225 0
M  V30 2881 H 410.212 -4.75072 -9.05887 0
M  V30 2882 H 408.582 -4.05244 -8.76668 0
M  V30 2883 H 409.424 -3.18977 -5.3945 0
M  V30 2884 H 411.222 0.177619 -6.34151 0
M  V30 2885 P 413.08 -1.25109 -8.70152 0
M  V30 2886 O 414.502 -1.29744 -9.22016 0
M  V30 2887 O 412.72 -2.13714 -7.55141 0
M  V30 2888 O 412.757 0.248149 -8.21425 0
M  V30 2889 C 412.597 1.22779 -9.30434 0
M  V30 2890 C 413.137 2.56293 -8.80664 0
M  V30 2891 O 412.081 3.02979 -8.09349 0
M  V30 2892 C 414.355 2.57523 -7.89775 0
M  V30 2893 O 415.093 3.7668 -7.89438 0
M  V30 2894 C 413.686 2.20997 -6.55446 0
M  V30 2895 O 414.485 2.71895 -5.48509 0
M  V30 2896 C 412.349 2.89693 -6.67988 0
M  V30 2897 H 412.381 3.88793 -6.19859 0
M  V30 2898 H 413.564 1.12046 -6.44229 0
M  V30 2899 H 415.048 1.7746 -8.19711 0
M  V30 2900 H 413.354 3.20706 -9.67112 0
M  V30 2901 H 413.164 0.901032 -10.1892 0
M  V30 2902 H 411.534 1.33049 -9.56592 0
M  V30 2903 H 414.173 3.57847 -5.23962 0
M  V30 2904 P 416.03 3.65191 -7.99657 0
M  V30 2905 O 417.452 3.89332 -8.45794 0
M  V30 2906 O 415.67 2.28472 -7.50807 0
M  V30 2907 O 415.707 4.64972 -6.77611 0
M  V30 2908 C 415.547 6.06319 -7.16352 0
M  V30 2909 C 416.087 6.91731 -6.02299 0
M  V30 2910 O 415.031 6.92449 -5.17064 0
M  V30 2911 C 417.305 6.43627 -5.25174 0
M  V30 2912 O 418.043 7.43686 -4.60469 0
M  V30 2913 C 416.636 5.40275 -4.31916 0
M  V30 2914 O 417.435 5.25279 -3.14438 0
M  V30 2915 C 415.299 6.04847 -4.05327 0
M  V30 2916 H 415.331 6.62195 -3.11261 0
M  V30 2917 H 416.514 4.42556 -4.81383 0
M  V30 2918 H 417.998 5.92458 -5.93643 0
M  V30 2919 H 416.304 7.92655 -6.402 0
M  V30 2920 H 416.114 6.26671 -8.0846 0
M  V30 2921 H 414.484 6.29101 -7.32804 0
M  V30 2922 H 417.123 5.84315 -2.47318 0
M  V30 2923 P 418.981 7.39546 -4.75277 0
M  V30 2924 O 420.402 7.84882 -5.01092 0
M  V30 2925 O 418.621 5.9812 -5.08098 0
M  V30 2926 O 418.658 7.57503 -3.1866 0
M  V30 2927 C 418.497 8.97452 -2.74862 0
M  V30 2928 C 419.038 9.07548 -1.32709 0
M  V30 2929 O 417.983 8.61972 -0.606089 0
M  V30 2930 C 420.256 8.25383 -0.938334 0
M  V30 2931 O 420.994 8.74577 0.146954 0
M  V30 2932 C 419.588 6.8802 -0.712559 0
M  V30 2933 O 420.386 6.1181 0.188505 0
M  V30 2934 C 418.25 7.27966 -0.139777 0
M  V30 2935 N 417.207 6.39368 -0.623421 0
M  V30 2936 C 417.376 5.71761 -1.78245 0
M  V30 2937 N 416.349 4.962 -2.10491 0
M  V30 2938 C 415.464 5.16158 -1.0635 0
M  V30 2939 C 414.197 4.60425 -0.810266 0
M  V30 2940 N 413.598 3.7057 -1.62914 0
M  V30 2941 N 413.632 5.06 0.348685 0
M  V30 2942 C 414.234 5.94532 1.20395 0
M  V30 2943 N 415.411 6.48452 1.01191 0
M  V30 2944 C 415.986 6.04423 -0.146291 0
M  V30 2945 H 418.282 7.25255 0.961469 0
M  V30 2946 H 419.465 6.32625 -1.65044 0
M  V30 2947 H 420.948 8.19355 -1.79097 0
M  V30 2948 H 419.254 10.1305 -1.09016 0
M  V30 2949 H 419.064 9.64276 -3.41316 0
M  V30 2950 H 417.434 9.25417 -2.76357 0
M  V30 2951 H 413.698 6.21659 2.10714 0
M  V30 2952 H 418.276 5.79354 -2.38959 0
M  V30 2953 H 412.668 3.33174 -1.38982 0
M  V30 2954 H 414.072 3.39714 -2.48836 0
M  V30 2955 H 420.074 6.25169 1.0783 0
M  V30 2956 P 421.932 8.791 2.28317e-12 0
M  V30 2957 O 423.354 9.31096 0.027933 0
M  V30 2958 O 421.572 7.77869 -1.04071 0
M  V30 2959 O 421.609 8.09533 1.41463 0
M  V30 2960 C 421.449 9.0349 2.53943 0
M  V30 2961 C 421.989 8.35226 3.79016 0
M  V30 2962 O 420.933 7.57992 4.15078 0
M  V30 2963 C 423.207 7.45087 3.67298 0
M  V30 2964 O 423.945 7.27796 4.85194 0
M  V30 2965 C 422.538 6.17323 3.12027 0
M  V30 2966 O 423.337 5.04231 3.47188 0
M  V30 2967 C 421.201 6.19961 3.81809 0
M  V30 2968 H 421.233 5.58218 4.73051 0
M  V30 2969 H 422.416 6.21726 2.02589 0
M  V30 2970 H 423.9 7.86112 2.9231 0
M  V30 2971 H 422.206 9.11627 4.55076 0
M  V30 2972 H 422.016 9.9573 2.34194 0
M  V30 2973 H 420.386 9.2792 2.67832 0
M  V30 2974 H 423.025 4.67702 4.28772 0
M  V30 2975 P 424.882 7.39546 4.75277 0
M  V30 2976 O 426.304 7.81777 5.05738 0
M  V30 2977 O 424.522 7.1065 3.32998 0
M  V30 2978 O 424.559 6.04542 5.56673 0
M  V30 2979 C 424.399 6.22772 7.02095 0
M  V30 2980 C 424.939 4.97725 7.70406 0
M  V30 2981 O 423.883 4.13256 7.58987 0
M  V30 2982 C 426.157 4.28231 7.11815 0
M  V30 2983 O 426.895 3.49945 8.01648 0
M  V30 2984 C 425.488 3.5063 5.96244 0
M  V30 2985 O 426.287 2.36482 5.64681 0
M  V30 2986 C 424.151 3.15122 6.56374 0
M  V30 2987 H 424.183 2.13853 6.99751 0
M  V30 2988 H 425.366 4.13501 5.06559 0
M  V30 2989 H 426.85 5.03285 6.70911 0
M  V30 2990 H 425.156 5.20877 8.75697 0
M  V30 2991 H 424.966 7.11046 7.35349 0
M  V30 2992 H 423.336 6.35815 7.26986 0
M  V30 2993 H 425.975 1.61644 6.13565 0
M  V30 2994 P 427.833 3.65191 7.99657 0
M  V30 2995 O 429.255 3.8425 8.48115 0
M  V30 2996 O 427.473 4.17805 6.64342 0
M  V30 2997 O 427.51 2.07613 7.95143 0
M  V30 2998 C 427.35 1.44328 9.27336 0
M  V30 2999 C 427.89 0.0220036 9.17197 0
M  V30 3000 O 426.834 -0.626867 8.61923 0
M  V30 3001 C 429.108 -0.24586 8.30336 0
M  V30 3002 O 429.846 -1.39011 8.63583 0
M  V30 3003 C 428.439 -0.273849 6.91158 0
M  V30 3004 O 429.238 -1.06348 6.02892 0
M  V30 3005 C 427.102 -0.897649 7.22545 0
M  V30 3006 H 427.134 -1.9841 7.04286 0
M  V30 3007 H 428.317 0.739928 6.497 0
M  V30 3008 H 429.801 0.60668 8.36503 0
M  V30 3009 H 428.107 -0.352479 10.1829 0
M  V30 3010 H 427.917 2.00611 10.0304 0
M  V30 3011 H 426.287 1.41843 9.55327 0
M  V30 3012 H 428.926 -1.95734 6.03555 0
M  V30 3013 P 430.783 -1.25109 8.70152 0
M  V30 3014 O 432.205 -1.35274 9.21221 0
M  V30 3015 O 430.423 -0.0769065 7.84762 0
M  V30 3016 O 430.46 -2.55232 7.81161 0
M  V30 3017 C 430.3 -3.79939 8.58154 0
M  V30 3018 C 430.84 -4.94023 7.72785 0
M  V30 3019 O 429.784 -5.18726 6.91205 0
M  V30 3020 C 432.058 -4.69597 6.85231 0
M  V30 3021 O 432.796 -5.83832 6.51337 0
M  V30 3022 C 431.389 -3.96706 5.66633 0
M  V30 3023 O 432.188 -4.15414 4.49689 0
M  V30 3024 C 430.052 -4.66153 5.59313 0
M  V30 3025 H 430.084 -5.47679 4.85214 0
M  V30 3026 H 431.267 -2.89008 5.86566 0
M  V30 3027 H 432.751 -4.0121 7.36511 0
M  V30 3028 H 431.057 -5.80182 8.37584 0
M  V30 3029 H 430.867 -3.73517 9.52265 0
M  V30 3030 H 429.237 -3.97163 8.80359 0
M  V30 3031 H 431.876 -4.90969 4.01921 0
M  V30 3032 P 433.734 -5.75688 6.64379 0
M  V30 3033 O 435.155 -6.11915 7.01921 0
M  V30 3034 O 433.374 -4.30744 6.56026 0
M  V30 3035 O 433.411 -6.37042 5.19165 0
M  V30 3036 C 433.25 -7.83662 5.1657 0
M  V30 3037 C 433.791 -8.33398 3.83019 0
M  V30 3038 O 432.736 -8.0998 3.00999 0
M  V30 3039 C 435.009 -7.65514 3.2257 0
M  V30 3040 O 435.747 -8.4329 2.32297 0
M  V30 3041 C 434.341 -6.40075 2.62207 0
M  V30 3042 O 435.139 -5.92338 1.5428 0
M  V30 3043 C 433.003 -6.9454 2.18503 0
M  V30 3044 N 431.96 -5.95905 2.39948 0
M  V30 3045 C 432.129 -4.98383 3.32108 0
M  V30 3046 N 431.102 -4.16798 3.41761 0
M  V30 3047 C 430.217 -4.65287 2.47461 0
M  V30 3048 C 428.95 -4.18946 2.07461 0
M  V30 3049 N 428.351 -3.09661 2.60717 0
M  V30 3050 N 428.385 -4.95327 1.09101 0
M  V30 3051 C 428.987 -6.04369 0.519812 0
M  V30 3052 N 430.164 -6.50694 0.855982 0
M  V30 3053 C 430.739 -5.75818 1.84322 0
M  V30 3054 H 433.035 -7.22964 1.12076 0
M  V30 3055 H 434.218 -5.60502 3.36589 0
M  V30 3056 H 435.701 -7.35707 4.02681 0
M  V30 3057 H 434.007 -9.41302 3.90009 0
M  V30 3058 H 433.817 -8.29056 5.99158 0
M  V30 3059 H 432.187 -8.10073 5.25882 0
M  V30 3060 H 428.451 -6.55843 -0.270373 0
M  V30 3061 H 433.029 -4.88564 3.92502 0
M  V30 3062 H 427.421 -2.80523 2.27218 0
M  V30 3063 H 428.825 -2.55848 3.34465 0
M  V30 3064 H 434.827 -6.30224 0.72668 0
M  V30 3065 P 436.684 -8.4349 2.47671 0
M  V30 3066 O 438.106 -8.94167 2.5964 0
M  V30 3067 O 436.324 -7.1704 3.19006 0
M  V30 3068 O 436.361 -8.16596 0.923387 0
M  V30 3069 C 436.201 -9.38437 0.108857 0
M  V30 3070 C 436.741 -9.08175 -1.28353 0
M  V30 3071 O 435.685 -8.44229 -1.84713 0
M  V30 3072 C 437.959 -8.18386 -1.42505 0
M  V30 3073 O 438.697 -8.3501 -2.60497 0
M  V30 3074 C 437.29 -6.80225 -1.25468 0
M  V30 3075 O 438.089 -5.81621 -1.91066 0
M  V30 3076 C 435.953 -7.02416 -1.9168 0
M  V30 3077 H 435.985 -6.6888 -2.96621 0
M  V30 3078 H 437.168 -6.53617 -0.192223 0
M  V30 3079 H 438.652 -8.36622 -0.589963 0
M  V30 3080 H 436.958 -10.0291 -1.79807 0
M  V30 3081 H 436.768 -10.2138 0.558219 0
M  V30 3082 H 435.138 -9.6579 0.0444202 0
M  V30 3083 H 437.777 -5.69556 -2.79637 0
M  V30 3084 P 439.635 -8.4349 -2.47671 0
M  V30 3085 O 441.057 -8.92593 -2.65 0
M  V30 3086 O 439.275 -7.7568 -1.19296 0
M  V30 3087 O 439.312 -7.36886 -3.63805 0
M  V30 3088 C 439.152 -7.95349 -4.982 0
M  V30 3089 C 439.692 -6.94612 -5.98974 0
M  V30 3090 O 438.636 -6.10347 -6.11815 0
M  V30 3091 C 440.91 -6.11426 -5.62335 0
M  V30 3092 O 441.648 -5.6162 -6.70584 0
M  V30 3093 C 440.241 -5.04409 -4.73308 0
M  V30 3094 O 441.04 -3.85992 -4.75183 0
M  V30 3095 C 438.904 -4.8728 -5.41006 0
M  V30 3096 H 438.936 -4.02333 -6.11157 0
M  V30 3097 H 440.119 -5.39466 -3.69543 0
M  V30 3098 H 441.603 -6.71916 -5.01943 0
M  V30 3099 H 439.909 -7.4649 -6.93477 0
M  V30 3100 H 439.719 -8.89416 -5.05237 0
M  V30 3101 H 438.089 -8.14876 -5.18409 0
M  V30 3102 H 440.728 -3.27957 -5.4317 0
M  V30 3103 P 442.586 -5.75688 -6.64379 0
M  V30 3104 O 444.008 -6.07627 -7.05504 0
M  V30 3105 O 442.226 -5.88047 -5.19722 0
M  V30 3106 O 442.263 -4.2322 -7.04443 0
M  V30 3107 C 442.103 -3.99743 -8.4911 0
M  V30 3108 C 442.643 -2.60516 -8.79425 0
M  V30 3109 O 441.587 -1.82684 -8.4467 0
M  V30 3110 C 443.861 -2.10343 -8.03628 0
M  V30 3111 O 444.599 -1.09919 -8.67766 0
M  V30 3112 C 443.192 -1.68446 -6.70876 0
M  V30 3113 O 443.991 -0.678137 -6.08433 0
M  V30 3114 C 441.855 -1.17436 -7.18567 0
M  V30 3115 H 441.887 -0.0804732 -7.31656 0
M  V30 3116 H 443.07 -2.54037 -6.02537 0
M  V30 3117 H 444.554 -2.93881 -7.85526 0
M  V30 3118 H 442.86 -2.53065 -9.86973 0
M  V30 3119 H 442.67 -4.75072 -9.05887 0
M  V30 3120 H 441.04 -4.05244 -8.76668 0
M  V30 3121 H 443.679 0.177647 -6.34251 0
M  V30 3122 P 445.536 -1.25109 -8.70152 0
M  V30 3123 O 446.958 -1.29744 -9.22016 0
M  V30 3124 O 445.176 -2.13714 -7.55141 0
M  V30 3125 O 445.213 0.248149 -8.21425 0
M  V30 3126 C 445.053 1.22779 -9.30434 0
M  V30 3127 C 445.593 2.56293 -8.80664 0
M  V30 3128 O 444.537 3.02979 -8.09349 0
M  V30 3129 C 446.811 2.57523 -7.89775 0
M  V30 3130 O 447.549 3.7668 -7.89438 0
M  V30 3131 C 446.142 2.20997 -6.55446 0
M  V30 3132 O 446.941 2.71895 -5.48509 0
M  V30 3133 C 444.805 2.89693 -6.67988 0
M  V30 3134 H 444.837 3.88793 -6.19859 0
M  V30 3135 H 446.02 1.12046 -6.44229 0
M  V30 3136 H 447.504 1.7746 -8.19711 0
M  V30 3137 H 445.81 3.20706 -9.67112 0
M  V30 3138 H 445.62 0.901032 -10.1892 0
M  V30 3139 H 443.99 1.33049 -9.56592 0
M  V30 3140 H 446.629 3.57847 -5.23962 0
M  V30 3141 P 448.487 3.65191 -7.99657 0
M  V30 3142 O 449.909 3.89332 -8.45794 0
M  V30 3143 O 448.127 2.28472 -7.50807 0
M  V30 3144 O 448.164 4.64972 -6.77611 0
M  V30 3145 C 448.004 6.06319 -7.16352 0
M  V30 3146 C 448.544 6.91731 -6.02299 0
M  V30 3147 O 447.488 6.92449 -5.17064 0
M  V30 3148 C 449.762 6.43627 -5.25174 0
M  V30 3149 O 450.5 7.43686 -4.60469 0
M  V30 3150 C 449.093 5.40275 -4.31916 0
M  V30 3151 O 449.892 5.25279 -3.14438 0
M  V30 3152 C 447.756 6.04847 -4.05327 0
M  V30 3153 H 447.788 6.62195 -3.11261 0
M  V30 3154 H 448.971 4.42556 -4.81383 0
M  V30 3155 H 450.455 5.92458 -5.93643 0
M  V30 3156 H 448.761 7.92655 -6.402 0
M  V30 3157 H 448.571 6.26671 -8.0846 0
M  V30 3158 H 446.941 6.29101 -7.32804 0
M  V30 3159 H 449.58 5.84315 -2.47318 0
M  V30 3160 P 451.437 7.39546 -4.75277 0
M  V30 3161 O 452.859 7.84798 -5.01039 0
M  V30 3162 O 451.077 5.9812 -5.08098 0
M  V30 3163 O 451.114 7.57503 -3.1866 0
M  V30 3164 C 450.954 8.97357 -2.74833 0
M  V30 3165 C 451.494 9.07548 -1.32709 0
M  V30 3166 O 450.438 8.62072 -0.606159 0
M  V30 3167 C 452.712 8.25383 -0.938334 0
M  V30 3168 O 453.45 8.74577 0.146954 0
M  V30 3169 C 452.043 6.8802 -0.712559 0
M  V30 3170 O 452.842 6.1189 0.194655 0
M  V30 3171 C 450.706 7.27966 -0.139777 0
M  V30 3172 H 450.738 7.25354 0.961601 0
M  V30 3173 H 451.921 6.32557 -1.65702 0
M  V30 3174 H 453.405 8.19355 -1.79097 0
M  V30 3175 H 451.711 10.1294 -1.10029 0
M  V30 3176 H 451.521 9.64276 -3.41316 0
M  V30 3177 H 449.891 9.25417 -2.76357 0
M  V30 3178 H 452.53 6.25267 1.07847 0
M  V30 3179 P 454.388 8.791 2.59334e-12 0
M  V30 3180 O 455.81 9.31096 0.027933 0
M  V30 3181 O 454.028 7.77869 -1.04071 0
M  V30 3182 O 454.065 8.09533 1.41463 0
M  V30 3183 C 453.905 9.0349 2.53943 0
M  V30 3184 C 454.445 8.35226 3.79016 0
M  V30 3185 O 453.389 7.57992 4.15078 0
M  V30 3186 C 455.663 7.45087 3.67298 0
M  V30 3187 O 456.401 7.27796 4.85194 0
M  V30 3188 C 454.994 6.17323 3.12027 0
M  V30 3189 O 455.793 5.04231 3.47188 0
M  V30 3190 C 453.657 6.19961 3.81809 0
M  V30 3191 H 453.689 5.58218 4.73051 0
M  V30 3192 H 454.872 6.21726 2.02589 0
M  V30 3193 H 456.356 7.86112 2.9231 0
M  V30 3194 H 454.662 9.11627 4.55076 0
M  V30 3195 H 454.472 9.9573 2.34194 0
M  V30 3196 H 452.842 9.2792 2.67832 0
M  V30 3197 H 455.481 4.67702 4.28772 0
M  V30 3198 P 457.338 7.39546 4.75277 0
M  V30 3199 O 458.76 7.81777 5.05738 0
M  V30 3200 O 456.978 7.1065 3.32998 0
M  V30 3201 O 457.015 6.04542 5.56673 0
M  V30 3202 C 456.855 6.22772 7.02095 0
M  V30 3203 C 457.395 4.97725 7.70406 0
M  V30 3204 O 456.339 4.13256 7.58987 0
M  V30 3205 C 458.613 4.28231 7.11815 0
M  V30 3206 O 459.351 3.49945 8.01648 0
M  V30 3207 C 457.944 3.5063 5.96244 0
M  V30 3208 O 458.743 2.36482 5.64681 0
M  V30 3209 C 456.607 3.15122 6.56374 0
M  V30 3210 H 456.639 2.13853 6.99751 0
M  V30 3211 H 457.822 4.13501 5.06559 0
M  V30 3212 H 459.306 5.03285 6.70911 0
M  V30 3213 H 457.612 5.20877 8.75697 0
M  V30 3214 H 457.422 7.11046 7.35349 0
M  V30 3215 H 455.792 6.35815 7.26986 0
M  V30 3216 H 458.431 1.61644 6.13565 0
M  V30 3217 P 460.289 3.65191 7.99657 0
M  V30 3218 O 461.711 3.8425 8.48115 0
M  V30 3219 O 459.929 4.17805 6.64342 0
M  V30 3220 O 459.966 2.07613 7.95143 0
M  V30 3221 C 459.806 1.44328 9.27336 0
M  V30 3222 C 460.346 0.0220036 9.17197 0
M  V30 3223 O 459.29 -0.626867 8.61923 0
M  V30 3224 C 461.564 -0.24586 8.30336 0
M  V30 3225 O 462.302 -1.39011 8.63583 0
M  V30 3226 C 460.895 -0.273849 6.91158 0
M  V30 3227 O 461.694 -1.06348 6.02892 0
M  V30 3228 C 459.558 -0.897649 7.22545 0
M  V30 3229 H 459.59 -1.9841 7.04286 0
M  V30 3230 H 460.773 0.739928 6.497 0
M  V30 3231 H 462.257 0.60668 8.36503 0
M  V30 3232 H 460.563 -0.352479 10.1829 0
M  V30 3233 H 460.373 2.00611 10.0304 0
M  V30 3234 H 458.743 1.41843 9.55327 0
M  V30 3235 H 461.382 -1.95734 6.03555 0
M  V30 3236 P 463.239 -1.25109 8.70152 0
M  V30 3237 O 464.661 -1.35274 9.21221 0
M  V30 3238 O 462.879 -0.0769065 7.84762 0
M  V30 3239 O 462.916 -2.55232 7.81161 0
M  V30 3240 C 462.756 -3.79939 8.58154 0
M  V30 3241 C 463.296 -4.94023 7.72785 0
M  V30 3242 O 462.24 -5.18726 6.91205 0
M  V30 3243 C 464.514 -4.69597 6.85231 0
M  V30 3244 O 465.252 -5.83832 6.51337 0
M  V30 3245 C 463.845 -3.96706 5.66633 0
M  V30 3246 O 464.644 -4.15414 4.49689 0
M  V30 3247 C 462.508 -4.66153 5.59313 0
M  V30 3248 H 462.54 -5.47679 4.85214 0
M  V30 3249 H 463.723 -2.89008 5.86566 0
M  V30 3250 H 465.207 -4.0121 7.36511 0
M  V30 3251 H 463.513 -5.80182 8.37584 0
M  V30 3252 H 463.323 -3.73517 9.52265 0
M  V30 3253 H 461.693 -3.97163 8.80359 0
M  V30 3254 H 464.332 -4.90969 4.01921 0
M  V30 3255 P 466.19 -5.75688 6.64379 0
M  V30 3256 O 467.612 -6.11849 7.01846 0
M  V30 3257 O 465.83 -4.30744 6.56026 0
M  V30 3258 O 465.867 -6.37042 5.19165 0
M  V30 3259 C 465.707 -7.83578 5.16515 0
M  V30 3260 C 466.247 -8.33398 3.83019 0
M  V30 3261 O 465.191 -8.10074 3.01034 0
M  V30 3262 C 467.465 -7.65514 3.2257 0
M  V30 3263 O 468.203 -8.4329 2.32297 0
M  V30 3264 C 466.796 -6.40075 2.62207 0
M  V30 3265 O 467.595 -5.92589 1.53712 0
M  V30 3266 C 465.459 -6.9454 2.18503 0
M  V30 3267 H 465.491 -7.23063 1.12091 0
M  V30 3268 H 466.674 -5.6025 3.37201 0
M  V30 3269 H 468.158 -7.35707 4.02681 0
M  V30 3270 H 466.464 -9.40912 3.9095 0
M  V30 3271 H 466.274 -8.29056 5.99158 0
M  V30 3272 H 464.644 -8.10073 5.25882 0
M  V30 3273 H 467.283 -6.30324 0.726794 0
M  V30 3274 P 469.141 -8.4349 2.47671 0
M  V30 3275 O 470.562 -8.94263 2.59668 0
M  V30 3276 O 468.781 -7.1704 3.19006 0
M  V30 3277 O 468.818 -8.16596 0.923387 0
M  V30 3278 C 468.657 -9.38537 0.108869 0
M  V30 3279 C 469.198 -9.08175 -1.28353 0
M  V30 3280 O 468.143 -8.44131 -1.84692 0
M  V30 3281 C 470.416 -8.18386 -1.42505 0
M  V30 3282 O 471.154 -8.3501 -2.60497 0
M  V30 3283 C 469.748 -6.80225 -1.25468 0
M  V30 3284 O 470.546 -5.81716 -1.90454 0
M  V30 3285 C 468.41 -7.02416 -1.9168 0
M  V30 3286 N 467.367 -6.31033 -1.20314 0
M  V30 3287 C 467.536 -5.98817 0.0994088 0
M  V30 3288 N 466.509 -5.35403 0.621694 0
M  V30 3289 C 465.624 -5.25212 -0.43376 0
M  V30 3290 C 464.357 -4.64602 -0.519722 0
M  V30 3291 N 463.792 -4.7568 -1.76013 0
M  V30 3292 C 464.394 -5.3653 -2.83017 0
M  V30 3293 N 465.571 -5.93676 -2.79782 0
M  V30 3294 C 466.146 -5.84061 -1.56249 0
M  V30 3295 H 469.625 -6.53498 -0.198729 0
M  V30 3296 H 471.108 -8.36622 -0.589963 0
M  V30 3297 H 469.414 -10.0273 -1.8081 0
M  V30 3298 H 469.224 -10.2138 0.558219 0
M  V30 3299 H 467.594 -9.6579 0.0444202 0
M  V30 3300 H 468.436 -6.23209 0.660562 0
M  V30 3301 H 470.234 -5.69466 -2.79593 0
M  V30 3302 P 472.091 -8.4349 -2.47671 0
M  V30 3303 O 473.513 -8.92593 -2.65 0
M  V30 3304 O 471.731 -7.7568 -1.19296 0
M  V30 3305 O 471.768 -7.36886 -3.63805 0
M  V30 3306 C 471.608 -7.95349 -4.982 0
M  V30 3307 C 472.148 -6.94612 -5.98974 0
M  V30 3308 O 471.092 -6.10347 -6.11815 0
M  V30 3309 C 473.366 -6.11426 -5.62335 0
M  V30 3310 O 474.104 -5.6162 -6.70584 0
M  V30 3311 C 472.697 -5.04409 -4.73308 0
M  V30 3312 O 473.496 -3.85992 -4.75183 0
M  V30 3313 C 471.36 -4.8728 -5.41006 0
M  V30 3314 H 471.392 -4.02333 -6.11157 0
M  V30 3315 H 472.575 -5.39466 -3.69543 0
M  V30 3316 H 474.059 -6.71916 -5.01943 0
M  V30 3317 H 472.365 -7.4649 -6.93477 0
M  V30 3318 H 472.175 -8.89416 -5.05237 0
M  V30 3319 H 470.545 -8.14876 -5.18409 0
M  V30 3320 H 473.184 -3.27957 -5.4317 0
M  V30 3321 P 475.042 -5.75688 -6.64379 0
M  V30 3322 O 476.443 -6.14823 -7.06682 0
M  V30 3323 O 474.664 -5.93957 -5.20728 0
M  V30 3324 O 474.719 -4.23169 -7.04357 0
M  V30 3325 C 474.559 -3.99743 -8.4911 0
M  V30 3326 C 475.099 -2.60487 -8.79329 0
M  V30 3327 O 474.043 -1.82663 -8.44573 0
M  V30 3328 C 476.316 -2.10343 -8.03628 0
M  V30 3329 O 477.055 -1.09919 -8.67766 0
M  V30 3330 C 475.649 -1.68446 -6.70876 0
M  V30 3331 O 476.447 -0.678026 -6.08333 0
M  V30 3332 C 474.311 -1.17436 -7.18567 0
M  V30 3333 N 473.268 -1.52699 -6.23988 0
M  V30 3334 C 472.233 -0.643793 -6.05085 0
M  V30 3335 O 472.272 0.459118 -6.64315 0
M  V30 3336 N 471.221 -0.976931 -5.22038 0
M  V30 3337 C 471.269 -2.14429 -4.56662 0
M  V30 3338 C 472.365 -3.04203 -4.71481 0
M  V30 3339 C 473.331 -2.69669 -5.56838 0
M  V30 3340 H 474.343 -0.0804622 -7.31556 0
M  V30 3341 H 475.526 -2.53396 -6.02698 0
M  V30 3342 H 477.01 -2.9313 -7.85914 0
M  V30 3343 H 475.316 -2.52078 -9.87225 0
M  V30 3344 H 475.125 -4.75072 -9.05887 0
M  V30 3345 H 473.495 -4.05202 -8.76577 0
M  V30 3346 H 472.413 -3.97309 -4.15519 0
M  V30 3347 H 474.177 -3.36869 -5.72318 0
M  V30 3348 H 476.231 0.167718 -6.44882 0
M  V30 3349 P 477.992 -1.25109 -8.70152 0
M  V30 3350 O 479.414 -1.29744 -9.22016 0
M  V30 3351 O 477.632 -2.13714 -7.55141 0
M  V30 3352 O 477.669 0.248149 -8.21425 0
M  V30 3353 C 477.509 1.22779 -9.30434 0
M  V30 3354 C 478.049 2.56293 -8.80664 0
M  V30 3355 O 476.993 3.02979 -8.09349 0
M  V30 3356 C 479.267 2.57523 -7.89775 0
M  V30 3357 O 480.005 3.7668 -7.89438 0
M  V30 3358 C 478.598 2.20997 -6.55446 0
M  V30 3359 O 479.397 2.71895 -5.48509 0
M  V30 3360 C 477.261 2.89693 -6.67988 0
M  V30 3361 H 477.293 3.88793 -6.19859 0
M  V30 3362 H 478.476 1.12046 -6.44229 0
M  V30 3363 H 479.96 1.7746 -8.19711 0
M  V30 3364 H 478.266 3.20706 -9.67112 0
M  V30 3365 H 478.076 0.901032 -10.1892 0
M  V30 3366 H 476.446 1.33049 -9.56592 0
M  V30 3367 H 479.085 3.57847 -5.23962 0
M  V30 3368 P 480.943 3.65191 -7.99657 0
M  V30 3369 O 482.365 3.89332 -8.45794 0
M  V30 3370 O 480.583 2.28472 -7.50807 0
M  V30 3371 O 480.62 4.64972 -6.77611 0
M  V30 3372 C 480.46 6.06319 -7.16352 0
M  V30 3373 C 481 6.91731 -6.02299 0
M  V30 3374 O 479.944 6.92449 -5.17064 0
M  V30 3375 C 482.218 6.43627 -5.25174 0
M  V30 3376 O 482.956 7.43686 -4.60469 0
M  V30 3377 C 481.549 5.40275 -4.31916 0
M  V30 3378 O 482.348 5.25279 -3.14438 0
M  V30 3379 C 480.212 6.04847 -4.05327 0
M  V30 3380 H 480.244 6.62195 -3.11261 0
M  V30 3381 H 481.427 4.42556 -4.81383 0
M  V30 3382 H 482.911 5.92458 -5.93643 0
M  V30 3383 H 481.217 7.92655 -6.402 0
M  V30 3384 H 481.027 6.26671 -8.0846 0
M  V30 3385 H 479.397 6.29101 -7.32804 0
M  V30 3386 H 482.036 5.84315 -2.47318 0
M  V30 3387 P 483.893 7.39546 -4.75277 0
M  V30 3388 O 485.315 7.84798 -5.01039 0
M  V30 3389 O 483.533 5.9812 -5.08098 0
M  V30 3390 O 483.57 7.57503 -3.1866 0
M  V30 3391 C 483.41 8.97357 -2.74833 0
M  V30 3392 C 483.95 9.07548 -1.32709 0
M  V30 3393 O 482.894 8.62072 -0.606159 0
M  V30 3394 C 485.168 8.25383 -0.938334 0
M  V30 3395 O 485.906 8.74577 0.146954 0
M  V30 3396 C 484.499 6.8802 -0.712559 0
M  V30 3397 O 485.298 6.1189 0.194655 0
M  V30 3398 C 483.162 7.27966 -0.139777 0
M  V30 3399 H 483.194 7.25354 0.961601 0
M  V30 3400 H 484.377 6.32557 -1.65702 0
M  V30 3401 H 485.861 8.19355 -1.79097 0
M  V30 3402 H 484.167 10.1294 -1.10029 0
M  V30 3403 H 483.977 9.64276 -3.41316 0
M  V30 3404 H 482.347 9.25417 -2.76357 0
M  V30 3405 H 484.986 6.25267 1.07847 0
M  V30 3406 P 486.844 8.791 2.9035e-12 0
M  V30 3407 O 488.266 9.31096 0.027933 0
M  V30 3408 O 486.484 7.77869 -1.04071 0
M  V30 3409 O 486.521 8.09533 1.41463 0
M  V30 3410 C 486.361 9.0349 2.53943 0
M  V30 3411 C 486.901 8.35226 3.79016 0
M  V30 3412 O 485.845 7.57992 4.15078 0
M  V30 3413 C 488.119 7.45087 3.67298 0
M  V30 3414 O 488.857 7.27796 4.85194 0
M  V30 3415 C 487.45 6.17323 3.12027 0
M  V30 3416 O 488.249 5.04231 3.47188 0
M  V30 3417 C 486.113 6.19961 3.81809 0
M  V30 3418 H 486.145 5.58218 4.73051 0
M  V30 3419 H 487.328 6.21726 2.02589 0
M  V30 3420 H 488.812 7.86112 2.9231 0
M  V30 3421 H 487.118 9.11627 4.55076 0
M  V30 3422 H 486.928 9.9573 2.34194 0
M  V30 3423 H 485.298 9.2792 2.67832 0
M  V30 3424 H 487.937 4.67702 4.28772 0
M  V30 3425 P 489.795 7.39546 4.75277 0
M  V30 3426 O 491.217 7.81777 5.05738 0
M  V30 3427 O 489.435 7.1065 3.32998 0
M  V30 3428 O 489.472 6.04542 5.56673 0
M  V30 3429 C 489.312 6.22772 7.02095 0
M  V30 3430 C 489.852 4.97725 7.70406 0
M  V30 3431 O 488.796 4.13256 7.58987 0
M  V30 3432 C 491.07 4.28231 7.11815 0
M  V30 3433 O 491.808 3.49945 8.01648 0
M  V30 3434 C 490.401 3.5063 5.96244 0
M  V30 3435 O 491.2 2.36482 5.64681 0
M  V30 3436 C 489.064 3.15122 6.56374 0
M  V30 3437 H 489.096 2.13853 6.99751 0
M  V30 3438 H 490.279 4.13501 5.06559 0
M  V30 3439 H 491.763 5.03285 6.70911 0
M  V30 3440 H 490.069 5.20877 8.75697 0
M  V30 3441 H 489.879 7.11046 7.35349 0
M  V30 3442 H 488.249 6.35815 7.26986 0
M  V30 3443 H 490.888 1.61644 6.13565 0
M  V30 3444 P 492.745 3.65191 7.99657 0
M  V30 3445 O 494.167 3.8425 8.48115 0
M  V30 3446 O 492.385 4.17805 6.64342 0
M  V30 3447 O 492.422 2.07613 7.95143 0
M  V30 3448 C 492.262 1.44328 9.27336 0
M  V30 3449 C 492.802 0.0220036 9.17197 0
M  V30 3450 O 491.746 -0.626867 8.61923 0
M  V30 3451 C 494.02 -0.24586 8.30336 0
M  V30 3452 O 494.758 -1.39011 8.63583 0
M  V30 3453 C 493.351 -0.273849 6.91158 0
M  V30 3454 O 494.15 -1.06348 6.02892 0
M  V30 3455 C 492.014 -0.897649 7.22545 0
M  V30 3456 H 492.046 -1.9841 7.04286 0
M  V30 3457 H 493.229 0.739928 6.497 0
M  V30 3458 H 494.713 0.60668 8.36503 0
M  V30 3459 H 493.019 -0.352479 10.1829 0
M  V30 3460 H 492.829 2.00611 10.0304 0
M  V30 3461 H 491.199 1.41843 9.55327 0
M  V30 3462 H 493.838 -1.95734 6.03555 0
M  V30 3463 P 495.696 -1.25109 8.70152 0
M  V30 3464 O 497.118 -1.35274 9.21221 0
M  V30 3465 O 495.336 -0.0769065 7.84762 0
M  V30 3466 O 495.373 -2.55232 7.81161 0
M  V30 3467 C 495.213 -3.79939 8.58154 0
M  V30 3468 C 495.753 -4.94023 7.72785 0
M  V30 3469 O 494.697 -5.18726 6.91205 0
M  V30 3470 C 496.971 -4.69597 6.85231 0
M  V30 3471 O 497.709 -5.83832 6.51337 0
M  V30 3472 C 496.302 -3.96706 5.66633 0
M  V30 3473 O 497.101 -4.15414 4.49689 0
M  V30 3474 C 494.965 -4.66153 5.59313 0
M  V30 3475 H 494.997 -5.47679 4.85214 0
M  V30 3476 H 496.18 -2.89008 5.86566 0
M  V30 3477 H 497.664 -4.0121 7.36511 0
M  V30 3478 H 495.97 -5.80182 8.37584 0
M  V30 3479 H 495.78 -3.73517 9.52265 0
M  V30 3480 H 494.15 -3.97163 8.80359 0
M  V30 3481 H 496.789 -4.90969 4.01921 0
M  V30 3482 P 498.646 -5.75688 6.64379 0
M  V30 3483 O 500.068 -6.11849 7.01846 0
M  V30 3484 O 498.286 -4.30744 6.56026 0
M  V30 3485 O 498.323 -6.37042 5.19165 0
M  V30 3486 C 498.163 -7.83578 5.16515 0
M  V30 3487 C 498.703 -8.33398 3.83019 0
M  V30 3488 O 497.647 -8.10074 3.01034 0
M  V30 3489 C 499.921 -7.65514 3.2257 0
M  V30 3490 O 500.659 -8.4329 2.32297 0
M  V30 3491 C 499.252 -6.40075 2.62207 0
M  V30 3492 O 500.051 -5.92589 1.53712 0
M  V30 3493 C 497.915 -6.9454 2.18503 0
M  V30 3494 H 497.947 -7.23063 1.12091 0
M  V30 3495 H 499.13 -5.6025 3.37201 0
M  V30 3496 H 500.614 -7.35707 4.02681 0
M  V30 3497 H 498.92 -9.40912 3.9095 0
M  V30 3498 H 498.73 -8.29056 5.99158 0
M  V30 3499 H 497.1 -8.10073 5.25882 0
M  V30 3500 H 499.739 -6.30324 0.726794 0
M  V30 3501 P 501.597 -8.4349 2.47671 0
M  V30 3502 O 503.019 -8.94167 2.5964 0
M  V30 3503 O 501.237 -7.1704 3.19006 0
M  V30 3504 O 501.274 -8.16596 0.923387 0
M  V30 3505 C 501.114 -9.38437 0.108857 0
M  V30 3506 C 501.654 -9.08175 -1.28353 0
M  V30 3507 O 500.598 -8.44229 -1.84713 0
M  V30 3508 C 502.872 -8.18386 -1.42505 0
M  V30 3509 O 503.61 -8.3501 -2.60497 0
M  V30 3510 C 502.203 -6.80225 -1.25468 0
M  V30 3511 O 503.002 -5.81621 -1.91066 0
M  V30 3512 C 500.866 -7.02416 -1.9168 0
M  V30 3513 H 500.898 -6.6888 -2.96621 0
M  V30 3514 H 502.081 -6.53617 -0.192223 0
M  V30 3515 H 503.565 -8.36622 -0.589963 0
M  V30 3516 H 501.871 -10.0291 -1.79807 0
M  V30 3517 H 501.681 -10.2138 0.558219 0
M  V30 3518 H 500.051 -9.6579 0.0444202 0
M  V30 3519 H 502.69 -5.69556 -2.79637 0
M  V30 3520 P 504.547 -8.4349 -2.47671 0
M  V30 3521 O 505.969 -8.92593 -2.65 0
M  V30 3522 O 504.187 -7.7568 -1.19296 0
M  V30 3523 O 504.224 -7.36886 -3.63805 0
M  V30 3524 C 504.064 -7.95349 -4.982 0
M  V30 3525 C 504.604 -6.94612 -5.98974 0
M  V30 3526 O 503.548 -6.10347 -6.11815 0
M  V30 3527 C 505.822 -6.11426 -5.62335 0
M  V30 3528 O 506.56 -5.6162 -6.70584 0
M  V30 3529 C 505.153 -5.04409 -4.73308 0
M  V30 3530 O 505.952 -3.85992 -4.75183 0
M  V30 3531 C 503.816 -4.8728 -5.41006 0
M  V30 3532 H 503.848 -4.02333 -6.11157 0
M  V30 3533 H 505.031 -5.39466 -3.69543 0
M  V30 3534 H 506.515 -6.71916 -5.01943 0
M  V30 3535 H 504.821 -7.4649 -6.93477 0
M  V30 3536 H 504.631 -8.89416 -5.05237 0
M  V30 3537 H 503.001 -8.14876 -5.18409 0
M  V30 3538 H 505.64 -3.27957 -5.4317 0
M  V30 3539 P 507.498 -5.75688 -6.64379 0
M  V30 3540 O 508.92 -6.07627 -7.05504 0
M  V30 3541 O 507.138 -5.88047 -5.19722 0
M  V30 3542 O 507.175 -4.2322 -7.04443 0
M  V30 3543 C 507.015 -3.99743 -8.4911 0
M  V30 3544 C 507.555 -2.60516 -8.79425 0
M  V30 3545 O 506.499 -1.82684 -8.4467 0
M  V30 3546 C 508.773 -2.10343 -8.03628 0
M  V30 3547 O 509.511 -1.09919 -8.67766 0
M  V30 3548 C 508.104 -1.68446 -6.70876 0
M  V30 3549 O 508.903 -0.678137 -6.08433 0
M  V30 3550 C 506.767 -1.17436 -7.18567 0
M  V30 3551 H 506.799 -0.0804732 -7.31656 0
M  V30 3552 H 507.982 -2.54037 -6.02537 0
M  V30 3553 H 509.466 -2.93881 -7.85526 0
M  V30 3554 H 507.772 -2.53065 -9.86973 0
M  V30 3555 H 507.582 -4.75072 -9.05887 0
M  V30 3556 H 505.952 -4.05244 -8.76668 0
M  V30 3557 H 508.591 0.177647 -6.34251 0
M  V30 3558 P 510.449 -1.25109 -8.70152 0
M  V30 3559 O 511.871 -1.29744 -9.22016 0
M  V30 3560 O 510.089 -2.13714 -7.55141 0
M  V30 3561 O 510.126 0.248149 -8.21425 0
M  V30 3562 C 509.966 1.22779 -9.30434 0
M  V30 3563 C 510.506 2.56293 -8.80664 0
M  V30 3564 O 509.45 3.02979 -8.09349 0
M  V30 3565 C 511.724 2.57523 -7.89775 0
M  V30 3566 O 512.462 3.7668 -7.89438 0
M  V30 3567 C 511.055 2.20997 -6.55446 0
M  V30 3568 O 511.854 2.71895 -5.48509 0
M  V30 3569 C 509.718 2.89693 -6.67988 0
M  V30 3570 H 509.75 3.88793 -6.19859 0
M  V30 3571 H 510.933 1.12046 -6.44229 0
M  V30 3572 H 512.417 1.7746 -8.19711 0
M  V30 3573 H 510.723 3.20706 -9.67112 0
M  V30 3574 H 510.533 0.901032 -10.1892 0
M  V30 3575 H 508.903 1.33049 -9.56592 0
M  V30 3576 H 511.542 3.57847 -5.23962 0
M  V30 3577 P 513.399 3.65191 -7.99657 0
M  V30 3578 O 514.82 3.89374 -8.45885 0
M  V30 3579 O 513.039 2.28472 -7.50807 0
M  V30 3580 O 513.076 4.64972 -6.77611 0
M  V30 3581 C 512.915 6.06383 -7.16428 0
M  V30 3582 C 513.456 6.91731 -6.02299 0
M  V30 3583 O 512.401 6.92369 -5.17005 0
M  V30 3584 C 514.674 6.43627 -5.25174 0
M  V30 3585 O 515.412 7.43686 -4.60469 0
M  V30 3586 C 514.006 5.40275 -4.31916 0
M  V30 3587 O 514.804 5.24878 -3.14911 0
M  V30 3588 C 512.668 6.04847 -4.05327 0
M  V30 3589 N 511.625 5.04166 -3.98114 0
M  V30 3590 C 511.794 3.84629 -4.59066 0
M  V30 3591 N 510.767 3.0363 -4.45343 0
M  V30 3592 C 509.882 3.76722 -3.68523 0
M  V30 3593 C 508.615 3.43528 -3.17088 0
M  V30 3594 N 508.05 4.44526 -2.44231 0
M  V30 3595 C 508.652 5.65243 -2.20146 0
M  V30 3596 N 509.829 6.00221 -2.65453 0
M  V30 3597 C 510.404 5.00564 -3.39083 0
M  V30 3598 H 513.883 4.42969 -4.80867 0
M  V30 3599 H 515.366 5.92458 -5.93643 0
M  V30 3600 H 513.672 7.93295 -6.39407 0
M  V30 3601 H 513.482 6.26671 -8.0846 0
M  V30 3602 H 511.852 6.29101 -7.32804 0
M  V30 3603 H 512.694 3.58193 -5.14248 0
M  V30 3604 H 514.492 5.84223 -2.47279 0
M  V30 3605 P 516.35 7.39546 -4.75277 0
M  V30 3606 O 517.772 7.84798 -5.01039 0
M  V30 3607 O 515.99 5.9812 -5.08098 0
M  V30 3608 O 516.027 7.57503 -3.1866 0
M  V30 3609 C 515.867 8.97357 -2.74833 0
M  V30 3610 C 516.407 9.07548 -1.32709 0
M  V30 3611 O 515.351 8.62072 -0.606159 0
M  V30 3612 C 517.625 8.25383 -0.938334 0
M  V30 3613 O 518.363 8.74577 0.146954 0
M  V30 3614 C 516.956 6.8802 -0.712559 0
M  V30 3615 O 517.755 6.1189 0.194655 0
M  V30 3616 C 515.619 7.27966 -0.139777 0
M  V30 3617 H 515.651 7.25354 0.961601 0
M  V30 3618 H 516.834 6.32557 -1.65702 0
M  V30 3619 H 518.318 8.19355 -1.79097 0
M  V30 3620 H 516.624 10.1294 -1.10029 0
M  V30 3621 H 516.434 9.64276 -3.41316 0
M  V30 3622 H 514.804 9.25417 -2.76357 0
M  V30 3623 H 517.443 6.25267 1.07847 0
M  V30 3624 P 519.3 8.791 3.21367e-12 0
M  V30 3625 O 520.722 9.31096 0.027933 0
M  V30 3626 O 518.94 7.77869 -1.04071 0
M  V30 3627 O 518.977 8.09533 1.41463 0
M  V30 3628 C 518.817 9.0349 2.53943 0
M  V30 3629 C 519.357 8.35226 3.79016 0
M  V30 3630 O 518.301 7.57992 4.15078 0
M  V30 3631 C 520.575 7.45087 3.67298 0
M  V30 3632 O 521.313 7.27796 4.85194 0
M  V30 3633 C 519.906 6.17323 3.12027 0
M  V30 3634 O 520.705 5.04231 3.47188 0
M  V30 3635 C 518.569 6.19961 3.81809 0
M  V30 3636 H 518.601 5.58218 4.73051 0
M  V30 3637 H 519.784 6.21726 2.02589 0
M  V30 3638 H 521.268 7.86112 2.9231 0
M  V30 3639 H 519.574 9.11627 4.55076 0
M  V30 3640 H 519.384 9.9573 2.34194 0
M  V30 3641 H 517.754 9.2792 2.67832 0
M  V30 3642 H 520.393 4.67702 4.28772 0
M  V30 3643 P 522.251 7.39546 4.75277 0
M  V30 3644 O 523.672 7.81861 5.05793 0
M  V30 3645 O 521.891 7.1065 3.32998 0
M  V30 3646 O 521.928 6.04542 5.56673 0
M  V30 3647 C 521.767 6.22839 7.02169 0
M  V30 3648 C 522.308 4.97725 7.70406 0
M  V30 3649 O 521.253 4.13208 7.58899 0
M  V30 3650 C 523.526 4.28231 7.11815 0
M  V30 3651 O 524.264 3.49945 8.01648 0
M  V30 3652 C 522.858 3.5063 5.96244 0
M  V30 3653 O 523.656 2.37008 5.64352 0
M  V30 3654 C 521.52 3.15122 6.56374 0
M  V30 3655 N 520.477 3.22311 5.55692 0
M  V30 3656 C 520.646 3.99655 4.46046 0
M  V30 3657 N 519.619 3.97599 3.63918 0
M  V30 3658 C 518.734 3.11159 4.25334 0
M  V30 3659 C 517.467 2.64972 3.85157 0
M  V30 3660 N 516.902 1.78482 4.74759 0
M  V30 3661 C 517.504 1.37463 5.90819 0
M  V30 3662 N 518.681 1.7733 6.31889 0
M  V30 3663 C 519.256 2.64393 5.43725 0
M  V30 3664 H 522.735 4.12931 5.06895 0
M  V30 3665 H 524.218 5.03285 6.70911 0
M  V30 3666 H 522.524 5.20001 8.76217 0
M  V30 3667 H 522.334 7.11046 7.35349 0
M  V30 3668 H 520.704 6.35815 7.26986 0
M  V30 3669 H 521.546 4.58037 4.27732 0
M  V30 3670 H 523.344 1.61619 6.13468 0
M  V30 3671 P 525.201 3.65191 7.99657 0
M  V30 3672 O 526.623 3.8425 8.48115 0
M  V30 3673 O 524.841 4.17805 6.64342 0
M  V30 3674 O 524.878 2.07613 7.95143 0
M  V30 3675 C 524.718 1.44328 9.27336 0
M  V30 3676 C 525.258 0.0220036 9.17197 0
M  V30 3677 O 524.202 -0.626867 8.61923 0
M  V30 3678 C 526.476 -0.24586 8.30336 0
M  V30 3679 O 527.214 -1.39011 8.63583 0
M  V30 3680 C 525.807 -0.273849 6.91158 0
M  V30 3681 O 526.606 -1.06348 6.02892 0
M  V30 3682 C 524.47 -0.897649 7.22545 0
M  V30 3683 H 524.502 -1.9841 7.04286 0
M  V30 3684 H 525.685 0.739928 6.497 0
M  V30 3685 H 527.169 0.60668 8.36503 0
M  V30 3686 H 525.475 -0.352479 10.1829 0
M  V30 3687 H 525.285 2.00611 10.0304 0
M  V30 3688 H 523.655 1.41843 9.55327 0
M  V30 3689 H 526.294 -1.95734 6.03555 0
M  V30 3690 P 528.152 -1.25109 8.70152 0
M  V30 3691 O 529.574 -1.35274 9.21221 0
M  V30 3692 O 527.792 -0.0769065 7.84762 0
M  V30 3693 O 527.829 -2.55232 7.81161 0
M  V30 3694 C 527.669 -3.79939 8.58154 0
M  V30 3695 C 528.209 -4.94023 7.72785 0
M  V30 3696 O 527.153 -5.18726 6.91205 0
M  V30 3697 C 529.427 -4.69597 6.85231 0
M  V30 3698 O 530.165 -5.83832 6.51337 0
M  V30 3699 C 528.758 -3.96706 5.66633 0
M  V30 3700 O 529.557 -4.15414 4.49689 0
M  V30 3701 C 527.421 -4.66153 5.59313 0
M  V30 3702 H 527.453 -5.47679 4.85214 0
M  V30 3703 H 528.636 -2.89008 5.86566 0
M  V30 3704 H 530.12 -4.0121 7.36511 0
M  V30 3705 H 528.426 -5.80182 8.37584 0
M  V30 3706 H 528.236 -3.73517 9.52265 0
M  V30 3707 H 526.606 -3.97163 8.80359 0
M  V30 3708 H 529.245 -4.90969 4.01921 0
M  V30 3709 P 531.103 -5.75688 6.64379 0
M  V30 3710 O 532.525 -6.11849 7.01846 0
M  V30 3711 O 530.743 -4.30744 6.56026 0
M  V30 3712 O 530.78 -6.37042 5.19165 0
M  V30 3713 C 530.62 -7.83578 5.16515 0
M  V30 3714 C 531.16 -8.33398 3.83019 0
M  V30 3715 O 530.104 -8.10074 3.01034 0
M  V30 3716 C 532.378 -7.65514 3.2257 0
M  V30 3717 O 533.116 -8.4329 2.32297 0
M  V30 3718 C 531.709 -6.40075 2.62207 0
M  V30 3719 O 532.508 -5.92589 1.53712 0
M  V30 3720 C 530.372 -6.9454 2.18503 0
M  V30 3721 H 530.404 -7.23063 1.12091 0
M  V30 3722 H 531.587 -5.6025 3.37201 0
M  V30 3723 H 533.071 -7.35707 4.02681 0
M  V30 3724 H 531.377 -9.40912 3.9095 0
M  V30 3725 H 531.187 -8.29056 5.99158 0
M  V30 3726 H 529.557 -8.10073 5.25882 0
M  V30 3727 H 532.196 -6.30324 0.726794 0
M  V30 3728 P 534.053 -8.4349 2.47671 0
M  V30 3729 O 535.474 -8.94263 2.59668 0
M  V30 3730 O 533.693 -7.1704 3.19006 0
M  V30 3731 O 533.73 -8.16596 0.923387 0
M  V30 3732 C 533.569 -9.38537 0.108869 0
M  V30 3733 C 534.11 -9.08175 -1.28353 0
M  V30 3734 O 533.055 -8.44131 -1.84692 0
M  V30 3735 C 535.328 -8.18386 -1.42505 0
M  V30 3736 O 536.066 -8.3501 -2.60497 0
M  V30 3737 C 534.66 -6.80225 -1.25468 0
M  V30 3738 O 535.458 -5.81716 -1.90454 0
M  V30 3739 C 533.322 -7.02416 -1.9168 0
M  V30 3740 N 532.279 -6.31033 -1.20314 0
M  V30 3741 C 532.448 -5.98817 0.0994088 0
M  V30 3742 N 531.421 -5.35403 0.621694 0
M  V30 3743 C 530.536 -5.25212 -0.43376 0
M  V30 3744 C 529.269 -4.64602 -0.519722 0
M  V30 3745 N 528.704 -4.7568 -1.76013 0
M  V30 3746 C 529.306 -5.3653 -2.83017 0
M  V30 3747 N 530.483 -5.93676 -2.79782 0
M  V30 3748 C 531.058 -5.84061 -1.56249 0
M  V30 3749 H 534.537 -6.53498 -0.198729 0
M  V30 3750 H 536.02 -8.36622 -0.589963 0
M  V30 3751 H 534.326 -10.0273 -1.8081 0
M  V30 3752 H 534.136 -10.2138 0.558219 0
M  V30 3753 H 532.506 -9.6579 0.0444202 0
M  V30 3754 H 533.348 -6.23209 0.660562 0
M  V30 3755 H 535.146 -5.69466 -2.79593 0
M  V30 3756 P 537.004 -8.4349 -2.47671 0
M  V30 3757 O 538.426 -8.92593 -2.65 0
M  V30 3758 O 536.644 -7.7568 -1.19296 0
M  V30 3759 O 536.681 -7.36886 -3.63805 0
M  V30 3760 C 536.521 -7.95349 -4.982 0
M  V30 3761 C 537.061 -6.94612 -5.98974 0
M  V30 3762 O 536.005 -6.10347 -6.11815 0
M  V30 3763 C 538.279 -6.11426 -5.62335 0
M  V30 3764 O 539.017 -5.6162 -6.70584 0
M  V30 3765 C 537.61 -5.04409 -4.73308 0
M  V30 3766 O 538.409 -3.85992 -4.75183 0
M  V30 3767 C 536.273 -4.8728 -5.41006 0
M  V30 3768 H 536.305 -4.02333 -6.11157 0
M  V30 3769 H 537.488 -5.39466 -3.69543 0
M  V30 3770 H 538.972 -6.71916 -5.01943 0
M  V30 3771 H 537.278 -7.4649 -6.93477 0
M  V30 3772 H 537.088 -8.89416 -5.05237 0
M  V30 3773 H 535.458 -8.14876 -5.18409 0
M  V30 3774 H 538.097 -3.27957 -5.4317 0
M  V30 3775 P 539.954 -5.75688 -6.64379 0
M  V30 3776 O 541.376 -6.07627 -7.05504 0
M  V30 3777 O 539.594 -5.88047 -5.19722 0
M  V30 3778 O 539.631 -4.2322 -7.04443 0
M  V30 3779 C 539.471 -3.99743 -8.4911 0
M  V30 3780 C 540.011 -2.60516 -8.79425 0
M  V30 3781 O 538.955 -1.82684 -8.4467 0
M  V30 3782 C 541.229 -2.10343 -8.03628 0
M  V30 3783 O 541.967 -1.09919 -8.67766 0
M  V30 3784 C 540.56 -1.68446 -6.70876 0
M  V30 3785 O 541.359 -0.678137 -6.08433 0
M  V30 3786 C 539.223 -1.17436 -7.18567 0
M  V30 3787 H 539.255 -0.0804732 -7.31656 0
M  V30 3788 H 540.438 -2.54037 -6.02537 0
M  V30 3789 H 541.922 -2.93881 -7.85526 0
M  V30 3790 H 540.228 -2.53065 -9.86973 0
M  V30 3791 H 540.038 -4.75072 -9.05887 0
M  V30 3792 H 538.408 -4.05244 -8.76668 0
M  V30 3793 H 541.047 0.177647 -6.34251 0
M  V30 3794 P 542.905 -1.25109 -8.70152 0
M  V30 3795 O 544.327 -1.29744 -9.22016 0
M  V30 3796 O 542.545 -2.13714 -7.55141 0
M  V30 3797 O 542.582 0.248149 -8.21425 0
M  V30 3798 C 542.422 1.22779 -9.30434 0
M  V30 3799 C 542.962 2.56293 -8.80664 0
M  V30 3800 O 541.906 3.02979 -8.09349 0
M  V30 3801 C 544.18 2.57523 -7.89775 0
M  V30 3802 O 544.918 3.7668 -7.89438 0
M  V30 3803 C 543.511 2.20997 -6.55446 0
M  V30 3804 O 544.31 2.71895 -5.48509 0
M  V30 3805 C 542.174 2.89693 -6.67988 0
M  V30 3806 H 542.206 3.88793 -6.19859 0
M  V30 3807 H 543.389 1.12046 -6.44229 0
M  V30 3808 H 544.873 1.7746 -8.19711 0
M  V30 3809 H 543.179 3.20706 -9.67112 0
M  V30 3810 H 542.989 0.901032 -10.1892 0
M  V30 3811 H 541.359 1.33049 -9.56592 0
M  V30 3812 H 543.998 3.57847 -5.23962 0
M  V30 3813 P 545.855 3.65191 -7.99657 0
M  V30 3814 O 547.277 3.89332 -8.45794 0
M  V30 3815 O 545.495 2.28472 -7.50807 0
M  V30 3816 O 545.532 4.64972 -6.77611 0
M  V30 3817 C 545.372 6.06319 -7.16352 0
M  V30 3818 C 545.912 6.91731 -6.02299 0
M  V30 3819 O 544.856 6.92449 -5.17064 0
M  V30 3820 C 547.13 6.43627 -5.25174 0
M  V30 3821 O 547.868 7.43686 -4.60469 0
M  V30 3822 C 546.461 5.40275 -4.31916 0
M  V30 3823 O 547.26 5.25279 -3.14438 0
M  V30 3824 C 545.124 6.04847 -4.05327 0
M  V30 3825 H 545.156 6.62195 -3.11261 0
M  V30 3826 H 546.339 4.42556 -4.81383 0
M  V30 3827 H 547.823 5.92458 -5.93643 0
M  V30 3828 H 546.129 7.92655 -6.402 0
M  V30 3829 H 545.939 6.26671 -8.0846 0
M  V30 3830 H 544.309 6.29101 -7.32804 0
M  V30 3831 H 546.948 5.84315 -2.47318 0
M  V30 3832 P 548.806 7.39546 -4.75277 0
M  V30 3833 O 550.228 7.84798 -5.01039 0
M  V30 3834 O 548.446 5.9812 -5.08098 0
M  V30 3835 O 548.483 7.57503 -3.1866 0
M  V30 3836 C 548.323 8.97357 -2.74833 0
M  V30 3837 C 548.863 9.07548 -1.32709 0
M  V30 3838 O 547.807 8.62072 -0.606159 0
M  V30 3839 C 550.081 8.25383 -0.938334 0
M  V30 3840 O 550.819 8.74577 0.146954 0
M  V30 3841 C 549.412 6.8802 -0.712559 0
M  V30 3842 O 550.211 6.1189 0.194655 0
M  V30 3843 C 548.075 7.27966 -0.139777 0
M  V30 3844 H 548.107 7.25354 0.961601 0
M  V30 3845 H 549.29 6.32557 -1.65702 0
M  V30 3846 H 550.774 8.19355 -1.79097 0
M  V30 3847 H 549.08 10.1294 -1.10029 0
M  V30 3848 H 548.89 9.64276 -3.41316 0
M  V30 3849 H 547.26 9.25417 -2.76357 0
M  V30 3850 H 549.899 6.25267 1.07847 0
M  V30 3851 P 551.757 8.791 3.52383e-12 0
M  V30 3852 O 553.179 9.31096 0.027933 0
M  V30 3853 O 551.397 7.77869 -1.04071 0
M  V30 3854 O 551.434 8.09533 1.41463 0
M  V30 3855 C 551.274 9.0349 2.53943 0
M  V30 3856 C 551.814 8.35226 3.79016 0
M  V30 3857 O 550.758 7.57992 4.15078 0
M  V30 3858 C 553.032 7.45087 3.67298 0
M  V30 3859 O 553.77 7.27796 4.85194 0
M  V30 3860 C 552.363 6.17323 3.12027 0
M  V30 3861 O 553.162 5.04231 3.47188 0
M  V30 3862 C 551.026 6.19961 3.81809 0
M  V30 3863 H 551.058 5.58218 4.73051 0
M  V30 3864 H 552.241 6.21726 2.02589 0
M  V30 3865 H 553.725 7.86112 2.9231 0
M  V30 3866 H 552.031 9.11627 4.55076 0
M  V30 3867 H 551.841 9.9573 2.34194 0
M  V30 3868 H 550.211 9.2792 2.67832 0
M  V30 3869 H 552.85 4.67702 4.28772 0
M  V30 3870 P 554.707 7.39546 4.75277 0
M  V30 3871 O 556.129 7.81777 5.05738 0
M  V30 3872 O 554.347 7.1065 3.32998 0
M  V30 3873 O 554.384 6.04542 5.56673 0
M  V30 3874 C 554.224 6.22772 7.02095 0
M  V30 3875 C 554.764 4.97725 7.70406 0
M  V30 3876 O 553.708 4.13256 7.58987 0
M  V30 3877 C 555.982 4.28231 7.11815 0
M  V30 3878 O 556.72 3.49945 8.01648 0
M  V30 3879 C 555.313 3.5063 5.96244 0
M  V30 3880 O 556.112 2.36482 5.64681 0
M  V30 3881 C 553.976 3.15122 6.56374 0
M  V30 3882 H 554.008 2.13853 6.99751 0
M  V30 3883 H 555.191 4.13501 5.06559 0
M  V30 3884 H 556.675 5.03285 6.70911 0
M  V30 3885 H 554.981 5.20877 8.75697 0
M  V30 3886 H 554.791 7.11046 7.35349 0
M  V30 3887 H 553.161 6.35815 7.26986 0
M  V30 3888 H 555.8 1.61644 6.13565 0
M  V30 3889 P 557.658 3.65191 7.99657 0
M  V30 3890 O 559.08 3.8425 8.48115 0
M  V30 3891 O 557.298 4.17805 6.64342 0
M  V30 3892 O 557.335 2.07613 7.95143 0
M  V30 3893 C 557.175 1.44328 9.27336 0
M  V30 3894 C 557.715 0.0220036 9.17197 0
M  V30 3895 O 556.659 -0.626867 8.61923 0
M  V30 3896 C 558.933 -0.24586 8.30336 0
M  V30 3897 O 559.671 -1.39011 8.63583 0
M  V30 3898 C 558.264 -0.273849 6.91158 0
M  V30 3899 O 559.063 -1.06348 6.02892 0
M  V30 3900 C 556.927 -0.897649 7.22545 0
M  V30 3901 H 556.959 -1.9841 7.04286 0
M  V30 3902 H 558.142 0.739928 6.497 0
M  V30 3903 H 559.626 0.60668 8.36503 0
M  V30 3904 H 557.932 -0.352479 10.1829 0
M  V30 3905 H 557.742 2.00611 10.0304 0
M  V30 3906 H 556.112 1.41843 9.55327 0
M  V30 3907 H 558.751 -1.95734 6.03555 0
M  V30 3908 P 560.608 -1.25109 8.70152 0
M  V30 3909 O 562.009 -1.31452 9.27431 0
M  V30 3910 O 560.23 -0.0458113 7.89887 0
M  V30 3911 O 560.285 -2.55201 7.81066 0
M  V30 3912 C 560.125 -3.79939 8.58154 0
M  V30 3913 C 560.665 -4.93969 7.72701 0
M  V30 3914 O 559.609 -5.18666 6.91125 0
M  V30 3915 C 561.882 -4.69597 6.85231 0
M  V30 3916 O 562.621 -5.83832 6.51337 0
M  V30 3917 C 561.215 -3.96706 5.66633 0
M  V30 3918 O 562.013 -4.15346 4.49615 0
M  V30 3919 C 559.877 -4.66153 5.59313 0
M  V30 3920 N 558.834 -3.71582 5.24027 0
M  V30 3921 C 557.799 -4.15133 4.44901 0
M  V30 3922 O 557.838 -5.32122 4.00336 0
M  V30 3923 N 556.787 -3.30554 4.15693 0
M  V30 3924 C 556.835 -2.04701 4.61105 0
M  V30 3925 C 557.931 -1.57111 5.38655 0
M  V30 3926 C 558.897 -2.44234 5.68454 0
M  V30 3927 H 559.909 -5.47604 4.85148 0
M  V30 3928 H 561.092 -2.8955 5.86187 0
M  V30 3929 H 562.576 -4.01995 7.36197 0
M  V30 3930 H 560.882 -5.81019 8.37003 0
M  V30 3931 H 560.691 -3.73517 9.52265 0
M  V30 3932 H 559.061 -3.97122 8.80267 0
M  V30 3933 H 557.979 -0.538464 5.72373 0
M  V30 3934 H 559.743 -2.11927 6.29377 0
M  V30 3935 H 561.797 -4.98352 4.09633 0
M  V30 3936 P 563.559 -5.75688 6.64379 0
M  V30 3937 O 564.981 -6.11849 7.01846 0
M  V30 3938 O 563.199 -4.30744 6.56026 0
M  V30 3939 O 563.236 -6.37042 5.19165 0
M  V30 3940 C 563.076 -7.83578 5.16515 0
M  V30 3941 C 563.616 -8.33398 3.83019 0
M  V30 3942 O 562.56 -8.10074 3.01034 0
M  V30 3943 C 564.834 -7.65514 3.2257 0
M  V30 3944 O 565.572 -8.4329 2.32297 0
M  V30 3945 C 564.165 -6.40075 2.62207 0
M  V30 3946 O 564.964 -5.92589 1.53712 0
M  V30 3947 C 562.828 -6.9454 2.18503 0
M  V30 3948 H 562.86 -7.23063 1.12091 0
M  V30 3949 H 564.043 -5.6025 3.37201 0
M  V30 3950 H 565.527 -7.35707 4.02681 0
M  V30 3951 H 563.833 -9.40912 3.9095 0
M  V30 3952 H 563.643 -8.29056 5.99158 0
M  V30 3953 H 562.013 -8.10073 5.25882 0
M  V30 3954 H 564.652 -6.30324 0.726794 0
M  V30 3955 P 566.509 -8.4349 2.47671 0
M  V30 3956 O 567.91 -8.98227 2.65696 0
M  V30 3957 O 566.131 -7.20409 3.23964 0
M  V30 3958 O 566.186 -8.16496 0.923275 0
M  V30 3959 C 566.026 -9.38437 0.108857 0
M  V30 3960 C 566.566 -9.08076 -1.28339 0
M  V30 3961 O 565.51 -8.44131 -1.84692 0
M  V30 3962 C 567.783 -8.18386 -1.42505 0
M  V30 3963 O 568.522 -8.3501 -2.60497 0
M  V30 3964 C 567.116 -6.80225 -1.25468 0
M  V30 3965 O 567.914 -5.81526 -1.91035 0
M  V30 3966 C 565.778 -7.02416 -1.9168 0
M  V30 3967 N 564.735 -6.31033 -1.20314 0
M  V30 3968 C 563.7 -5.77149 -1.928 0
M  V30 3969 O 563.739 -5.8521 -3.17729 0
M  V30 3970 N 562.688 -5.15445 -1.27997 0
M  V30 3971 C 562.736 -5.04472 0.0534726 0
M  V30 3972 C 563.832 -5.55244 0.808522 0
M  V30 3973 C 564.798 -6.18542 0.13981 0
M  V30 3974 H 565.81 -6.68789 -2.9658 0
M  V30 3975 H 566.993 -6.53498 -0.198729 0
M  V30 3976 H 568.477 -8.36663 -0.5984 0
M  V30 3977 H 566.783 -10.0273 -1.8081 0
M  V30 3978 H 566.592 -10.2138 0.558219 0
M  V30 3979 H 564.962 -9.6569 0.0444156 0
M  V30 3980 H 563.88 -5.43017 1.88792 0
M  V30 3981 H 565.644 -6.60539 0.686773 0
M  V30 3982 H 567.698 -5.79638 -2.8315 0
M  V30 3983 P 569.46 -8.4349 -2.47671 0
M  V30 3984 O 570.882 -8.92593 -2.65 0
M  V30 3985 O 569.1 -7.7568 -1.19296 0
M  V30 3986 O 569.137 -7.36886 -3.63805 0
M  V30 3987 C 568.977 -7.95349 -4.982 0
M  V30 3988 C 569.517 -6.94612 -5.98974 0
M  V30 3989 O 568.461 -6.10347 -6.11815 0
M  V30 3990 C 570.735 -6.11426 -5.62335 0
M  V30 3991 O 571.473 -5.6162 -6.70584 0
M  V30 3992 C 570.066 -5.04409 -4.73308 0
M  V30 3993 O 570.865 -3.85992 -4.75183 0
M  V30 3994 C 568.729 -4.8728 -5.41006 0
M  V30 3995 H 568.761 -4.02333 -6.11157 0
M  V30 3996 H 569.944 -5.39466 -3.69543 0
M  V30 3997 H 571.428 -6.71916 -5.01943 0
M  V30 3998 H 569.734 -7.4649 -6.93477 0
M  V30 3999 H 569.544 -8.89416 -5.05237 0
M  V30 4000 H 567.914 -8.14876 -5.18409 0
M  V30 4001 H 570.553 -3.27957 -5.4317 0
M  V30 4002 P 572.411 -5.75688 -6.64379 0
M  V30 4003 O 573.833 -6.07627 -7.05504 0
M  V30 4004 O 572.051 -5.88047 -5.19722 0
M  V30 4005 O 572.088 -4.2322 -7.04443 0
M  V30 4006 C 571.928 -3.99743 -8.4911 0
M  V30 4007 C 572.468 -2.60516 -8.79425 0
M  V30 4008 O 571.412 -1.82684 -8.4467 0
M  V30 4009 C 573.686 -2.10343 -8.03628 0
M  V30 4010 O 574.424 -1.09919 -8.67766 0
M  V30 4011 C 573.017 -1.68446 -6.70876 0
M  V30 4012 O 573.816 -0.678137 -6.08433 0
M  V30 4013 C 571.68 -1.17436 -7.18567 0
M  V30 4014 H 571.712 -0.0804732 -7.31656 0
M  V30 4015 H 572.895 -2.54037 -6.02537 0
M  V30 4016 H 574.379 -2.93881 -7.85526 0
M  V30 4017 H 572.685 -2.53065 -9.86973 0
M  V30 4018 H 572.495 -4.75072 -9.05887 0
M  V30 4019 H 570.865 -4.05244 -8.76668 0
M  V30 4020 H 573.504 0.177647 -6.34251 0
M  V30 4021 P 575.361 -1.25109 -8.70152 0
M  V30 4022 O 576.783 -1.29744 -9.22016 0
M  V30 4023 O 575.001 -2.13714 -7.55141 0
M  V30 4024 O 575.038 0.248149 -8.21425 0
M  V30 4025 C 574.878 1.22779 -9.30434 0
M  V30 4026 C 575.418 2.56293 -8.80664 0
M  V30 4027 O 574.362 3.02979 -8.09349 0
M  V30 4028 C 576.636 2.57523 -7.89775 0
M  V30 4029 O 577.374 3.7668 -7.89438 0
M  V30 4030 C 575.967 2.20997 -6.55446 0
M  V30 4031 O 576.766 2.71895 -5.48509 0
M  V30 4032 C 574.63 2.89693 -6.67988 0
M  V30 4033 H 574.662 3.88793 -6.19859 0
M  V30 4034 H 575.845 1.12046 -6.44229 0
M  V30 4035 H 577.329 1.7746 -8.19711 0
M  V30 4036 H 575.635 3.20706 -9.67112 0
M  V30 4037 H 575.445 0.901032 -10.1892 0
M  V30 4038 H 573.815 1.33049 -9.56592 0
M  V30 4039 H 576.454 3.57847 -5.23962 0
M  V30 4040 P 578.312 3.65191 -7.99657 0
M  V30 4041 O 579.734 3.89332 -8.45794 0
M  V30 4042 O 577.952 2.28472 -7.50807 0
M  V30 4043 O 577.989 4.64972 -6.77611 0
M  V30 4044 C 577.829 6.06319 -7.16352 0
M  V30 4045 C 578.369 6.91731 -6.02299 0
M  V30 4046 O 577.313 6.92449 -5.17064 0
M  V30 4047 C 579.587 6.43627 -5.25174 0
M  V30 4048 O 580.325 7.43686 -4.60469 0
M  V30 4049 C 578.918 5.40275 -4.31916 0
M  V30 4050 O 579.717 5.25279 -3.14438 0
M  V30 4051 C 577.581 6.04847 -4.05327 0
M  V30 4052 H 577.613 6.62195 -3.11261 0
M  V30 4053 H 578.796 4.42556 -4.81383 0
M  V30 4054 H 580.28 5.92458 -5.93643 0
M  V30 4055 H 578.586 7.92655 -6.402 0
M  V30 4056 H 578.396 6.26671 -8.0846 0
M  V30 4057 H 576.766 6.29101 -7.32804 0
M  V30 4058 H 579.405 5.84315 -2.47318 0
M  V30 4059 P 581.262 7.39546 -4.75277 0
M  V30 4060 O 582.684 7.84798 -5.01039 0
M  V30 4061 O 580.902 5.9812 -5.08098 0
M  V30 4062 O 580.939 7.57503 -3.1866 0
M  V30 4063 C 580.779 8.97357 -2.74833 0
M  V30 4064 C 581.319 9.07548 -1.32709 0
M  V30 4065 O 580.263 8.62072 -0.606159 0
M  V30 4066 C 582.537 8.25383 -0.938334 0
M  V30 4067 O 583.275 8.74577 0.146954 0
M  V30 4068 C 581.868 6.8802 -0.712559 0
M  V30 4069 O 582.667 6.1189 0.194655 0
M  V30 4070 C 580.531 7.27966 -0.139777 0
M  V30 4071 H 580.563 7.25354 0.961601 0
M  V30 4072 H 581.746 6.32557 -1.65702 0
M  V30 4073 H 583.23 8.19355 -1.79097 0
M  V30 4074 H 581.536 10.1294 -1.10029 0
M  V30 4075 H 581.346 9.64276 -3.41316 0
M  V30 4076 H 579.716 9.25417 -2.76357 0
M  V30 4077 H 582.355 6.25267 1.07847 0
M  V30 4078 P 584.213 8.791 3.834e-12 0
M  V30 4079 O 585.635 9.31096 0.027933 0
M  V30 4080 O 583.853 7.77869 -1.04071 0
M  V30 4081 O 583.89 8.09533 1.41463 0
M  V30 4082 C 583.73 9.0349 2.53943 0
M  V30 4083 C 584.27 8.35226 3.79016 0
M  V30 4084 O 583.214 7.57992 4.15078 0
M  V30 4085 C 585.488 7.45087 3.67298 0
M  V30 4086 O 586.226 7.27796 4.85194 0
M  V30 4087 C 584.819 6.17323 3.12027 0
M  V30 4088 O 585.618 5.04231 3.47188 0
M  V30 4089 C 583.482 6.19961 3.81809 0
M  V30 4090 H 583.514 5.58218 4.73051 0
M  V30 4091 H 584.697 6.21726 2.02589 0
M  V30 4092 H 586.181 7.86112 2.9231 0
M  V30 4093 H 584.487 9.11627 4.55076 0
M  V30 4094 H 584.297 9.9573 2.34194 0
M  V30 4095 H 582.667 9.2792 2.67832 0
M  V30 4096 H 585.306 4.67702 4.28772 0
M  V30 4097 P 587.163 7.39546 4.75277 0
M  V30 4098 O 588.585 7.81777 5.05738 0
M  V30 4099 O 586.803 7.1065 3.32998 0
M  V30 4100 O 586.84 6.04542 5.56673 0
M  V30 4101 C 586.68 6.22772 7.02095 0
M  V30 4102 C 587.22 4.97725 7.70406 0
M  V30 4103 O 586.164 4.13256 7.58987 0
M  V30 4104 C 588.438 4.28231 7.11815 0
M  V30 4105 O 589.176 3.49945 8.01648 0
M  V30 4106 C 587.769 3.5063 5.96244 0
M  V30 4107 O 588.568 2.36482 5.64681 0
M  V30 4108 C 586.432 3.15122 6.56374 0
M  V30 4109 H 586.464 2.13853 6.99751 0
M  V30 4110 H 587.647 4.13501 5.06559 0
M  V30 4111 H 589.131 5.03285 6.70911 0
M  V30 4112 H 587.437 5.20877 8.75697 0
M  V30 4113 H 587.247 7.11046 7.35349 0
M  V30 4114 H 585.617 6.35815 7.26986 0
M  V30 4115 H 588.256 1.61644 6.13565 0
M  V30 4116 P 590.114 3.65191 7.99657 0
M  V30 4117 O 591.536 3.8425 8.48115 0
M  V30 4118 O 589.754 4.17805 6.64342 0
M  V30 4119 O 589.791 2.07613 7.95143 0
M  V30 4120 C 589.631 1.44328 9.27336 0
M  V30 4121 C 590.171 0.0220036 9.17197 0
M  V30 4122 O 589.115 -0.626867 8.61923 0
M  V30 4123 C 591.389 -0.24586 8.30336 0
M  V30 4124 O 592.127 -1.39011 8.63583 0
M  V30 4125 C 590.72 -0.273849 6.91158 0
M  V30 4126 O 591.519 -1.06348 6.02892 0
M  V30 4127 C 589.383 -0.897649 7.22545 0
M  V30 4128 H 589.415 -1.9841 7.04286 0
M  V30 4129 H 590.598 0.739928 6.497 0
M  V30 4130 H 592.082 0.60668 8.36503 0
M  V30 4131 H 590.388 -0.352479 10.1829 0
M  V30 4132 H 590.198 2.00611 10.0304 0
M  V30 4133 H 588.568 1.41843 9.55327 0
M  V30 4134 H 591.207 -1.95734 6.03555 0
M  V30 4135 P 593.065 -1.25109 8.70152 0
M  V30 4136 O 594.487 -1.35274 9.21221 0
M  V30 4137 O 592.705 -0.0769065 7.84762 0
M  V30 4138 O 592.742 -2.55232 7.81161 0
M  V30 4139 C 592.582 -3.79939 8.58154 0
M  V30 4140 C 593.122 -4.94023 7.72785 0
M  V30 4141 O 592.066 -5.18726 6.91205 0
M  V30 4142 C 594.34 -4.69597 6.85231 0
M  V30 4143 O 595.078 -5.83832 6.51337 0
M  V30 4144 C 593.671 -3.96706 5.66633 0
M  V30 4145 O 594.47 -4.15414 4.49689 0
M  V30 4146 C 592.334 -4.66153 5.59313 0
M  V30 4147 H 592.366 -5.47679 4.85214 0
M  V30 4148 H 593.549 -2.89008 5.86566 0
M  V30 4149 H 595.033 -4.0121 7.36511 0
M  V30 4150 H 593.339 -5.80182 8.37584 0
M  V30 4151 H 593.149 -3.73517 9.52265 0
M  V30 4152 H 591.519 -3.97163 8.80359 0
M  V30 4153 H 594.158 -4.90969 4.01921 0
M  V30 4154 P 596.015 -5.75688 6.64379 0
M  V30 4155 O 597.416 -6.11991 7.09136 0
M  V30 4156 O 595.637 -4.30899 6.62018 0
M  V30 4157 O 595.692 -6.36965 5.19102 0
M  V30 4158 C 595.532 -7.83578 5.16515 0
M  V30 4159 C 596.072 -8.33307 3.82977 0
M  V30 4160 O 595.016 -8.0998 3.00999 0
M  V30 4161 C 597.289 -7.65514 3.2257 0
M  V30 4162 O 598.028 -8.4329 2.32297 0
M  V30 4163 C 596.622 -6.40075 2.62207 0
M  V30 4164 O 597.42 -5.92492 1.53687 0
M  V30 4165 C 595.284 -6.9454 2.18503 0
M  V30 4166 N 594.241 -5.95905 2.39948 0
M  V30 4167 C 593.206 -5.89764 1.49837 0
M  V30 4168 O 593.245 -6.64088 0.490975 0
M  V30 4169 N 592.194 -5.02821 1.70992 0
M  V30 4170 C 592.242 -4.21498 2.77236 0
M  V30 4171 C 593.338 -4.23389 3.68205 0
M  V30 4172 C 594.304 -5.12792 3.46171 0
M  V30 4173 H 595.316 -7.22964 1.12076 0
M  V30 4174 H 596.499 -5.60502 3.36589 0
M  V30 4175 H 597.983 -7.36197 4.01993 0
M  V30 4176 H 596.289 -9.41302 3.90009 0
M  V30 4177 H 596.098 -8.29056 5.99158 0
M  V30 4178 H 594.468 -8.09989 5.25828 0
M  V30 4179 H 593.386 -3.54747 4.52399 0
M  V30 4180 H 595.15 -5.18551 4.1489 0
M  V30 4181 H 597.204 -6.40705 0.751752 0
M  V30 4182 P 598.966 -8.4349 2.47671 0
M  V30 4183 O 600.388 -8.94167 2.5964 0
M  V30 4184 O 598.606 -7.1704 3.19006 0
M  V30 4185 O 598.643 -8.16596 0.923387 0
M  V30 4186 C 598.483 -9.38437 0.108857 0
M  V30 4187 C 599.023 -9.08175 -1.28353 0
M  V30 4188 O 597.967 -8.44229 -1.84713 0
M  V30 4189 C 600.241 -8.18386 -1.42505 0
M  V30 4190 O 600.979 -8.3501 -2.60497 0
M  V30 4191 C 599.572 -6.80225 -1.25468 0
M  V30 4192 O 600.371 -5.81621 -1.91066 0
M  V30 4193 C 598.235 -7.02416 -1.9168 0
M  V30 4194 H 598.267 -6.6888 -2.96621 0
M  V30 4195 H 599.45 -6.53617 -0.192223 0
M  V30 4196 H 600.934 -8.36622 -0.589963 0
M  V30 4197 H 599.24 -10.0291 -1.79807 0
M  V30 4198 H 599.05 -10.2138 0.558219 0
M  V30 4199 H 597.42 -9.6579 0.0444202 0
M  V30 4200 H 600.059 -5.69556 -2.79637 0
M  V30 4201 P 601.916 -8.4349 -2.47671 0
M  V30 4202 O 603.338 -8.92593 -2.65 0
M  V30 4203 O 601.556 -7.7568 -1.19296 0
M  V30 4204 O 601.593 -7.36886 -3.63805 0
M  V30 4205 C 601.433 -7.95349 -4.982 0
M  V30 4206 C 601.973 -6.94612 -5.98974 0
M  V30 4207 O 600.917 -6.10347 -6.11815 0
M  V30 4208 C 603.191 -6.11426 -5.62335 0
M  V30 4209 O 603.929 -5.6162 -6.70584 0
M  V30 4210 C 602.522 -5.04409 -4.73308 0
M  V30 4211 O 603.321 -3.85992 -4.75183 0
M  V30 4212 C 601.185 -4.8728 -5.41006 0
M  V30 4213 H 601.217 -4.02333 -6.11157 0
M  V30 4214 H 602.4 -5.39466 -3.69543 0
M  V30 4215 H 603.884 -6.71916 -5.01943 0
M  V30 4216 H 602.19 -7.4649 -6.93477 0
M  V30 4217 H 602 -8.89416 -5.05237 0
M  V30 4218 H 600.37 -8.14876 -5.18409 0
M  V30 4219 H 603.009 -3.27957 -5.4317 0
M  V30 4220 P 604.867 -5.75688 -6.64379 0
M  V30 4221 O 606.289 -6.07627 -7.05504 0
M  V30 4222 O 604.507 -5.88047 -5.19722 0
M  V30 4223 O 604.544 -4.2322 -7.04443 0
M  V30 4224 C 604.384 -3.99743 -8.4911 0
M  V30 4225 C 604.924 -2.60516 -8.79425 0
M  V30 4226 O 603.868 -1.82684 -8.4467 0
M  V30 4227 C 606.142 -2.10343 -8.03628 0
M  V30 4228 O 606.88 -1.09919 -8.67766 0
M  V30 4229 C 605.473 -1.68446 -6.70876 0
M  V30 4230 O 606.272 -0.678137 -6.08433 0
M  V30 4231 C 604.136 -1.17436 -7.18567 0
M  V30 4232 H 604.168 -0.0804732 -7.31656 0
M  V30 4233 H 605.351 -2.54037 -6.02537 0
M  V30 4234 H 606.835 -2.93881 -7.85526 0
M  V30 4235 H 605.141 -2.53065 -9.86973 0
M  V30 4236 H 604.951 -4.75072 -9.05887 0
M  V30 4237 H 603.321 -4.05244 -8.76668 0
M  V30 4238 H 605.96 0.177647 -6.34251 0
M  V30 4239 P 607.817 -1.25109 -8.70152 0
M  V30 4240 O 609.239 -1.29744 -9.22016 0
M  V30 4241 O 607.457 -2.13714 -7.55141 0
M  V30 4242 O 607.494 0.248149 -8.21425 0
M  V30 4243 C 607.334 1.22779 -9.30434 0
M  V30 4244 C 607.874 2.56293 -8.80664 0
M  V30 4245 O 606.818 3.02979 -8.09349 0
M  V30 4246 C 609.092 2.57523 -7.89775 0
M  V30 4247 O 609.83 3.7668 -7.89438 0
M  V30 4248 C 608.423 2.20997 -6.55446 0
M  V30 4249 O 609.222 2.71895 -5.48509 0
M  V30 4250 C 607.086 2.89693 -6.67988 0
M  V30 4251 H 607.118 3.88793 -6.19859 0
M  V30 4252 H 608.301 1.12046 -6.44229 0
M  V30 4253 H 609.785 1.7746 -8.19711 0
M  V30 4254 H 608.091 3.20706 -9.67112 0
M  V30 4255 H 607.901 0.901032 -10.1892 0
M  V30 4256 H 606.271 1.33049 -9.56592 0
M  V30 4257 H 608.91 3.57847 -5.23962 0
M  V30 4258 P 610.768 3.65191 -7.99657 0
M  V30 4259 O 612.19 3.89332 -8.45794 0
M  V30 4260 O 610.408 2.28472 -7.50807 0
M  V30 4261 O 610.445 4.64972 -6.77611 0
M  V30 4262 C 610.285 6.06319 -7.16352 0
M  V30 4263 C 610.825 6.91731 -6.02299 0
M  V30 4264 O 609.769 6.92449 -5.17064 0
M  V30 4265 C 612.043 6.43627 -5.25174 0
M  V30 4266 O 612.781 7.43686 -4.60469 0
M  V30 4267 C 611.374 5.40275 -4.31916 0
M  V30 4268 O 612.173 5.25279 -3.14438 0
M  V30 4269 C 610.037 6.04847 -4.05327 0
M  V30 4270 H 610.069 6.62195 -3.11261 0
M  V30 4271 H 611.252 4.42556 -4.81383 0
M  V30 4272 H 612.736 5.92458 -5.93643 0
M  V30 4273 H 611.042 7.92655 -6.402 0
M  V30 4274 H 610.852 6.26671 -8.0846 0
M  V30 4275 H 609.222 6.29101 -7.32804 0
M  V30 4276 H 611.861 5.84315 -2.47318 0
M  V30 4277 P 613.719 7.39546 -4.75277 0
M  V30 4278 O 615.141 7.84798 -5.01039 0
M  V30 4279 O 613.359 5.9812 -5.08098 0
M  V30 4280 O 613.396 7.57503 -3.1866 0
M  V30 4281 C 613.236 8.97357 -2.74833 0
M  V30 4282 C 613.776 9.07548 -1.32709 0
M  V30 4283 O 612.72 8.62072 -0.606159 0
M  V30 4284 C 614.994 8.25383 -0.938334 0
M  V30 4285 O 615.732 8.74577 0.146954 0
M  V30 4286 C 614.325 6.8802 -0.712559 0
M  V30 4287 O 615.124 6.1189 0.194655 0
M  V30 4288 C 612.988 7.27966 -0.139777 0
M  V30 4289 H 613.02 7.25354 0.961601 0
M  V30 4290 H 614.203 6.32557 -1.65702 0
M  V30 4291 H 615.687 8.19355 -1.79097 0
M  V30 4292 H 613.993 10.1294 -1.10029 0
M  V30 4293 H 613.803 9.64276 -3.41316 0
M  V30 4294 H 612.173 9.25417 -2.76357 0
M  V30 4295 H 614.812 6.25267 1.07847 0
M  V30 4296 P 616.669 8.791 4.14417e-12 0
M  V30 4297 O 618.091 9.31096 0.027933 0
M  V30 4298 O 616.309 7.77869 -1.04071 0
M  V30 4299 O 616.346 8.09533 1.41463 0
M  V30 4300 C 616.186 9.0349 2.53943 0
M  V30 4301 C 616.726 8.35226 3.79016 0
M  V30 4302 O 615.67 7.57992 4.15078 0
M  V30 4303 C 617.944 7.45087 3.67298 0
M  V30 4304 O 618.682 7.27796 4.85194 0
M  V30 4305 C 617.275 6.17323 3.12027 0
M  V30 4306 O 618.074 5.04231 3.47188 0
M  V30 4307 C 615.938 6.19961 3.81809 0
M  V30 4308 H 615.97 5.58218 4.73051 0
M  V30 4309 H 617.153 6.21726 2.02589 0
M  V30 4310 H 618.637 7.86112 2.9231 0
M  V30 4311 H 616.943 9.11627 4.55076 0
M  V30 4312 H 616.753 9.9573 2.34194 0
M  V30 4313 H 615.123 9.2792 2.67832 0
M  V30 4314 H 617.762 4.67702 4.28772 0
M  V30 4315 P 619.62 7.39546 4.75277 0
M  V30 4316 O 621.042 7.81777 5.05738 0
M  V30 4317 O 619.26 7.1065 3.32998 0
M  V30 4318 O 619.297 6.04542 5.56673 0
M  V30 4319 C 619.137 6.22772 7.02095 0
M  V30 4320 C 619.677 4.97725 7.70406 0
M  V30 4321 O 618.621 4.13256 7.58987 0
M  V30 4322 C 620.895 4.28231 7.11815 0
M  V30 4323 O 621.633 3.49945 8.01648 0
M  V30 4324 C 620.226 3.5063 5.96244 0
M  V30 4325 O 621.025 2.36482 5.64681 0
M  V30 4326 C 618.889 3.15122 6.56374 0
M  V30 4327 H 618.921 2.13853 6.99751 0
M  V30 4328 H 620.104 4.13501 5.06559 0
M  V30 4329 H 621.588 5.03285 6.70911 0
M  V30 4330 H 619.894 5.20877 8.75697 0
M  V30 4331 H 619.704 7.11046 7.35349 0
M  V30 4332 H 618.074 6.35815 7.26986 0
M  V30 4333 H 620.713 1.61644 6.13565 0
M  V30 4334 P 622.57 3.65191 7.99657 0
M  V30 4335 O 623.992 3.8425 8.48115 0
M  V30 4336 O 622.21 4.17805 6.64342 0
M  V30 4337 O 622.247 2.07613 7.95143 0
M  V30 4338 C 622.087 1.44328 9.27336 0
M  V30 4339 C 622.627 0.0220036 9.17197 0
M  V30 4340 O 621.571 -0.626867 8.61923 0
M  V30 4341 C 623.845 -0.24586 8.30336 0
M  V30 4342 O 624.583 -1.39011 8.63583 0
M  V30 4343 C 623.176 -0.273849 6.91158 0
M  V30 4344 O 623.975 -1.06348 6.02892 0
M  V30 4345 C 621.839 -0.897649 7.22545 0
M  V30 4346 H 621.871 -1.9841 7.04286 0
M  V30 4347 H 623.054 0.739928 6.497 0
M  V30 4348 H 624.538 0.60668 8.36503 0
M  V30 4349 H 622.844 -0.352479 10.1829 0
M  V30 4350 H 622.654 2.00611 10.0304 0
M  V30 4351 H 621.024 1.41843 9.55327 0
M  V30 4352 H 623.663 -1.95734 6.03555 0
M  V30 4353 P 625.521 -1.25109 8.70152 0
M  V30 4354 O 626.943 -1.35274 9.21221 0
M  V30 4355 O 625.161 -0.0769065 7.84762 0
M  V30 4356 O 625.198 -2.55232 7.81161 0
M  V30 4357 C 625.038 -3.79939 8.58154 0
M  V30 4358 C 625.578 -4.94023 7.72785 0
M  V30 4359 O 624.522 -5.18726 6.91205 0
M  V30 4360 C 626.796 -4.69597 6.85231 0
M  V30 4361 O 627.534 -5.83832 6.51337 0
M  V30 4362 C 626.127 -3.96706 5.66633 0
M  V30 4363 O 626.926 -4.15414 4.49689 0
M  V30 4364 C 624.79 -4.66153 5.59313 0
M  V30 4365 H 624.822 -5.47679 4.85214 0
M  V30 4366 H 626.005 -2.89008 5.86566 0
M  V30 4367 H 627.489 -4.0121 7.36511 0
M  V30 4368 H 625.795 -5.80182 8.37584 0
M  V30 4369 H 625.605 -3.73517 9.52265 0
M  V30 4370 H 623.975 -3.97163 8.80359 0
M  V30 4371 H 626.614 -4.90969 4.01921 0
M  V30 4372 P 628.471 -5.75688 6.64379 0
M  V30 4373 O 629.893 -6.11849 7.01846 0
M  V30 4374 O 628.111 -4.30744 6.56026 0
M  V30 4375 O 628.148 -6.37042 5.19165 0
M  V30 4376 C 627.988 -7.83578 5.16515 0
M  V30 4377 C 628.528 -8.33398 3.83019 0
M  V30 4378 O 627.472 -8.10074 3.01034 0
M  V30 4379 C 629.746 -7.65514 3.2257 0
M  V30 4380 O 630.484 -8.4329 2.32297 0
M  V30 4381 C 629.077 -6.40075 2.62207 0
M  V30 4382 O 629.876 -5.92589 1.53712 0
M  V30 4383 C 627.74 -6.9454 2.18503 0
M  V30 4384 H 627.772 -7.23063 1.12091 0
M  V30 4385 H 628.955 -5.6025 3.37201 0
M  V30 4386 H 630.439 -7.35707 4.02681 0
M  V30 4387 H 628.745 -9.40912 3.9095 0
M  V30 4388 H 628.555 -8.29056 5.99158 0
M  V30 4389 H 626.925 -8.10073 5.25882 0
M  V30 4390 H 629.564 -6.30324 0.726794 0
M  V30 4391 P 631.422 -8.4349 2.47671 0
M  V30 4392 O 632.844 -8.94167 2.5964 0
M  V30 4393 O 631.062 -7.1704 3.19006 0
M  V30 4394 O 631.099 -8.16596 0.923387 0
M  V30 4395 C 630.939 -9.38437 0.108857 0
M  V30 4396 C 631.479 -9.08175 -1.28353 0
M  V30 4397 O 630.423 -8.44229 -1.84713 0
M  V30 4398 C 632.697 -8.18386 -1.42505 0
M  V30 4399 O 633.435 -8.3501 -2.60497 0
M  V30 4400 C 632.028 -6.80225 -1.25468 0
M  V30 4401 O 632.827 -5.81621 -1.91066 0
M  V30 4402 C 630.691 -7.02416 -1.9168 0
M  V30 4403 H 630.723 -6.6888 -2.96621 0
M  V30 4404 H 631.906 -6.53617 -0.192223 0
M  V30 4405 H 633.39 -8.36622 -0.589963 0
M  V30 4406 H 631.696 -10.0291 -1.79807 0
M  V30 4407 H 631.506 -10.2138 0.558219 0
M  V30 4408 H 629.876 -9.6579 0.0444202 0
M  V30 4409 H 632.515 -5.69556 -2.79637 0
M  V30 4410 P 634.373 -8.4349 -2.47671 0
M  V30 4411 O 635.795 -8.92593 -2.65 0
M  V30 4412 O 634.013 -7.7568 -1.19296 0
M  V30 4413 O 634.05 -7.36886 -3.63805 0
M  V30 4414 C 633.89 -7.95349 -4.982 0
M  V30 4415 C 634.43 -6.94612 -5.98974 0
M  V30 4416 O 633.374 -6.10347 -6.11815 0
M  V30 4417 C 635.648 -6.11426 -5.62335 0
M  V30 4418 O 636.386 -5.6162 -6.70584 0
M  V30 4419 C 634.979 -5.04409 -4.73308 0
M  V30 4420 O 635.778 -3.85992 -4.75183 0
M  V30 4421 C 633.642 -4.8728 -5.41006 0
M  V30 4422 H 633.674 -4.02333 -6.11157 0
M  V30 4423 H 634.857 -5.39466 -3.69543 0
M  V30 4424 H 636.341 -6.71916 -5.01943 0
M  V30 4425 H 634.647 -7.4649 -6.93477 0
M  V30 4426 H 634.457 -8.89416 -5.05237 0
M  V30 4427 H 632.827 -8.14876 -5.18409 0
M  V30 4428 H 635.466 -3.27957 -5.4317 0
M  V30 4429 P 637.323 -5.75688 -6.64379 0
M  V30 4430 O 638.745 -6.07627 -7.05504 0
M  V30 4431 O 636.963 -5.88047 -5.19722 0
M  V30 4432 O 637 -4.2322 -7.04443 0
M  V30 4433 C 636.84 -3.99743 -8.4911 0
M  V30 4434 C 637.38 -2.60516 -8.79425 0
M  V30 4435 O 636.324 -1.82684 -8.4467 0
M  V30 4436 C 638.598 -2.10343 -8.03628 0
M  V30 4437 O 639.336 -1.09919 -8.67766 0
M  V30 4438 C 637.929 -1.68446 -6.70876 0
M  V30 4439 O 638.728 -0.678137 -6.08433 0
M  V30 4440 C 636.592 -1.17436 -7.18567 0
M  V30 4441 H 636.624 -0.0804732 -7.31656 0
M  V30 4442 H 637.807 -2.54037 -6.02537 0
M  V30 4443 H 639.291 -2.93881 -7.85526 0
M  V30 4444 H 637.597 -2.53065 -9.86973 0
M  V30 4445 H 637.407 -4.75072 -9.05887 0
M  V30 4446 H 635.777 -4.05244 -8.76668 0
M  V30 4447 H 638.416 0.177647 -6.34251 0
M  V30 4448 P 640.274 -1.25109 -8.70152 0
M  V30 4449 O 641.696 -1.29744 -9.22016 0
M  V30 4450 O 639.914 -2.13714 -7.55141 0
M  V30 4451 O 639.951 0.248149 -8.21425 0
M  V30 4452 C 639.791 1.22779 -9.30434 0
M  V30 4453 C 640.331 2.56293 -8.80664 0
M  V30 4454 O 639.275 3.02979 -8.09349 0
M  V30 4455 C 641.549 2.57523 -7.89775 0
M  V30 4456 O 642.287 3.7668 -7.89438 0
M  V30 4457 C 640.88 2.20997 -6.55446 0
M  V30 4458 O 641.679 2.71895 -5.48509 0
M  V30 4459 C 639.543 2.89693 -6.67988 0
M  V30 4460 H 639.575 3.88793 -6.19859 0
M  V30 4461 H 640.758 1.12046 -6.44229 0
M  V30 4462 H 642.242 1.7746 -8.19711 0
M  V30 4463 H 640.548 3.20706 -9.67112 0
M  V30 4464 H 640.358 0.901032 -10.1892 0
M  V30 4465 H 638.728 1.33049 -9.56592 0
M  V30 4466 H 641.367 3.57847 -5.23962 0
M  V30 4467 P 643.224 3.65191 -7.99657 0
M  V30 4468 O 644.645 3.89374 -8.45885 0
M  V30 4469 O 642.864 2.28472 -7.50807 0
M  V30 4470 O 642.901 4.64972 -6.77611 0
M  V30 4471 C 642.74 6.06383 -7.16428 0
M  V30 4472 C 643.281 6.91731 -6.02299 0
M  V30 4473 O 642.226 6.92369 -5.17005 0
M  V30 4474 C 644.499 6.43627 -5.25174 0
M  V30 4475 O 645.237 7.43686 -4.60469 0
M  V30 4476 C 643.831 5.40275 -4.31916 0
M  V30 4477 O 644.629 5.24878 -3.14911 0
M  V30 4478 C 642.493 6.04847 -4.05327 0
M  V30 4479 N 641.45 5.04166 -3.98114 0
M  V30 4480 C 641.619 3.84629 -4.59066 0
M  V30 4481 N 640.592 3.0363 -4.45343 0
M  V30 4482 C 639.707 3.76722 -3.68523 0
M  V30 4483 C 638.44 3.43528 -3.17088 0
M  V30 4484 N 637.841 2.23665 -3.37397 0
M  V30 4485 N 637.875 4.44526 -2.44231 0
M  V30 4486 C 638.477 5.65243 -2.20146 0
M  V30 4487 N 639.654 6.00221 -2.65453 0
M  V30 4488 C 640.229 5.00564 -3.39083 0
M  V30 4489 H 642.525 6.62104 -3.11218 0
M  V30 4490 H 643.708 4.42969 -4.80867 0
M  V30 4491 H 645.191 5.92458 -5.93643 0
M  V30 4492 H 643.497 7.93295 -6.39407 0
M  V30 4493 H 643.307 6.26671 -8.0846 0
M  V30 4494 H 641.677 6.29101 -7.32804 0
M  V30 4495 H 637.941 6.36894 -1.5883 0
M  V30 4496 H 642.519 3.58193 -5.14248 0
M  V30 4497 H 636.911 2.05145 -2.97047 0
M  V30 4498 H 638.315 1.51255 -3.92998 0
M  V30 4499 H 644.317 5.84223 -2.47279 0
M  V30 4500 P 646.175 7.39546 -4.75277 0
M  V30 4501 O 647.597 7.84966 -5.01146 0
M  V30 4502 O 645.815 5.9812 -5.08098 0
M  V30 4503 O 645.852 7.57503 -3.1866 0
M  V30 4504 C 645.692 8.97357 -2.74833 0
M  V30 4505 C 646.232 9.0745 -1.32694 0
M  V30 4506 O 645.177 8.62072 -0.606159 0
M  V30 4507 C 647.45 8.25383 -0.938334 0
M  V30 4508 O 648.188 8.74577 0.146954 0
M  V30 4509 C 646.782 6.8802 -0.712559 0
M  V30 4510 O 647.58 6.11791 0.194623 0
M  V30 4511 C 645.444 7.27966 -0.139777 0
M  V30 4512 N 644.401 6.39368 -0.623421 0
M  V30 4513 C 644.463 5.90299 -1.85969 0
M  V30 4514 N 643.418 5.10919 -2.1133 0
M  V30 4515 C 642.684 5.14646 -1.0015 0
M  V30 4516 C 641.378 4.60057 -0.729219 0
M  V30 4517 O 640.645 3.93476 -1.47746 0
M  V30 4518 N 640.948 4.88302 0.523505 0
M  V30 4519 C 641.697 5.63646 1.46207 0
M  V30 4520 N 641.1 5.78186 2.69239 0
M  V30 4521 N 642.85 6.19285 1.21544 0
M  V30 4522 C 643.307 5.93392 -0.0308487 0
M  V30 4523 H 645.476 7.25354 0.961601 0
M  V30 4524 H 646.659 6.3246 -1.65676 0
M  V30 4525 H 648.144 8.19533 -1.78278 0
M  V30 4526 H 646.449 10.1294 -1.10029 0
M  V30 4527 H 646.259 9.64276 -3.41316 0
M  V30 4528 H 644.628 9.25417 -2.76357 0
M  V30 4529 H 640.052 4.53993 0.806451 0
M  V30 4530 H 645.259 6.11865 -2.57394 0
M  V30 4531 H 640.189 5.34046 2.87467 0
M  V30 4532 H 641.565 6.33391 3.42578 0
M  V30 4533 H 647.269 6.25169 1.0783 0
M  V30 4534 P 649.125 8.791 4.45433e-12 0
M  V30 4535 O 650.547 9.31096 0.027933 0
M  V30 4536 O 648.765 7.77869 -1.04071 0
M  V30 4537 O 648.802 8.09533 1.41463 0
M  V30 4538 C 648.642 9.0349 2.53943 0
M  V30 4539 C 649.182 8.35226 3.79016 0
M  V30 4540 O 648.126 7.57992 4.15078 0
M  V30 4541 C 650.4 7.45087 3.67298 0
M  V30 4542 O 651.138 7.27796 4.85194 0
M  V30 4543 C 649.731 6.17323 3.12027 0
M  V30 4544 O 650.53 5.04231 3.47188 0
M  V30 4545 C 648.394 6.19961 3.81809 0
M  V30 4546 H 648.426 5.58218 4.73051 0
M  V30 4547 H 649.609 6.21726 2.02589 0
M  V30 4548 H 651.093 7.86112 2.9231 0
M  V30 4549 H 649.399 9.11627 4.55076 0
M  V30 4550 H 649.209 9.9573 2.34194 0
M  V30 4551 H 647.579 9.2792 2.67832 0
M  V30 4552 H 650.218 4.67702 4.28772 0
M  V30 4553 P 652.076 7.39546 4.75277 0
M  V30 4554 O 653.498 7.81777 5.05738 0
M  V30 4555 O 651.716 7.1065 3.32998 0
M  V30 4556 O 651.753 6.04542 5.56673 0
M  V30 4557 C 651.593 6.22772 7.02095 0
M  V30 4558 C 652.133 4.97725 7.70406 0
M  V30 4559 O 651.077 4.13256 7.58987 0
M  V30 4560 C 653.351 4.28231 7.11815 0
M  V30 4561 O 654.089 3.49945 8.01648 0
M  V30 4562 C 652.682 3.5063 5.96244 0
M  V30 4563 O 653.481 2.36482 5.64681 0
M  V30 4564 C 651.345 3.15122 6.56374 0
M  V30 4565 H 651.377 2.13853 6.99751 0
M  V30 4566 H 652.56 4.13501 5.06559 0
M  V30 4567 H 654.044 5.03285 6.70911 0
M  V30 4568 H 652.35 5.20877 8.75697 0
M  V30 4569 H 652.16 7.11046 7.35349 0
M  V30 4570 H 650.53 6.35815 7.26986 0
M  V30 4571 H 653.169 1.61644 6.13565 0
M  V30 4572 P 655.027 3.65191 7.99657 0
M  V30 4573 O 656.449 3.8425 8.48115 0
M  V30 4574 O 654.667 4.17805 6.64342 0
M  V30 4575 O 654.704 2.07613 7.95143 0
M  V30 4576 C 654.544 1.44328 9.27336 0
M  V30 4577 C 655.084 0.0220036 9.17197 0
M  V30 4578 O 654.028 -0.626867 8.61923 0
M  V30 4579 C 656.302 -0.24586 8.30336 0
M  V30 4580 O 657.04 -1.39011 8.63583 0
M  V30 4581 C 655.633 -0.273849 6.91158 0
M  V30 4582 O 656.432 -1.06348 6.02892 0
M  V30 4583 C 654.296 -0.897649 7.22545 0
M  V30 4584 H 654.328 -1.9841 7.04286 0
M  V30 4585 H 655.511 0.739928 6.497 0
M  V30 4586 H 656.995 0.60668 8.36503 0
M  V30 4587 H 655.301 -0.352479 10.1829 0
M  V30 4588 H 655.111 2.00611 10.0304 0
M  V30 4589 H 653.481 1.41843 9.55327 0
M  V30 4590 H 656.12 -1.95734 6.03555 0
M  V30 4591 P 657.977 -1.25109 8.70152 0
M  V30 4592 O 659.399 -1.35274 9.21221 0
M  V30 4593 O 657.617 -0.0769065 7.84762 0
M  V30 4594 O 657.654 -2.55232 7.81161 0
M  V30 4595 C 657.494 -3.79939 8.58154 0
M  V30 4596 C 658.034 -4.94023 7.72785 0
M  V30 4597 O 656.978 -5.18726 6.91205 0
M  V30 4598 C 659.252 -4.69597 6.85231 0
M  V30 4599 O 659.99 -5.83832 6.51337 0
M  V30 4600 C 658.583 -3.96706 5.66633 0
M  V30 4601 O 659.382 -4.15414 4.49689 0
M  V30 4602 C 657.246 -4.66153 5.59313 0
M  V30 4603 H 657.278 -5.47679 4.85214 0
M  V30 4604 H 658.461 -2.89008 5.86566 0
M  V30 4605 H 659.945 -4.0121 7.36511 0
M  V30 4606 H 658.251 -5.80182 8.37584 0
M  V30 4607 H 658.061 -3.73517 9.52265 0
M  V30 4608 H 656.431 -3.97163 8.80359 0
M  V30 4609 H 659.07 -4.90969 4.01921 0
M  V30 4610 P 660.928 -5.75688 6.64379 0
M  V30 4611 O 662.35 -6.11849 7.01846 0
M  V30 4612 O 660.568 -4.30744 6.56026 0
M  V30 4613 O 660.605 -6.37042 5.19165 0
M  V30 4614 C 660.445 -7.83578 5.16515 0
M  V30 4615 C 660.985 -8.33398 3.83019 0
M  V30 4616 O 659.929 -8.10074 3.01034 0
M  V30 4617 C 662.203 -7.65514 3.2257 0
M  V30 4618 O 662.941 -8.4329 2.32297 0
M  V30 4619 C 661.534 -6.40075 2.62207 0
M  V30 4620 O 662.333 -5.92589 1.53712 0
M  V30 4621 C 660.197 -6.9454 2.18503 0
M  V30 4622 H 660.229 -7.23063 1.12091 0
M  V30 4623 H 661.412 -5.6025 3.37201 0
M  V30 4624 H 662.896 -7.35707 4.02681 0
M  V30 4625 H 661.202 -9.40912 3.9095 0
M  V30 4626 H 661.012 -8.29056 5.99158 0
M  V30 4627 H 659.382 -8.10073 5.25882 0
M  V30 4628 H 662.021 -6.30324 0.726794 0
M  V30 4629 P 663.878 -8.4349 2.47671 0
M  V30 4630 O 665.3 -8.94167 2.5964 0
M  V30 4631 O 663.518 -7.1704 3.19006 0
M  V30 4632 O 663.555 -8.16596 0.923387 0
M  V30 4633 C 663.395 -9.38437 0.108857 0
M  V30 4634 C 663.935 -9.08175 -1.28353 0
M  V30 4635 O 662.879 -8.44229 -1.84713 0
M  V30 4636 C 665.153 -8.18386 -1.42505 0
M  V30 4637 O 665.891 -8.3501 -2.60497 0
M  V30 4638 C 664.484 -6.80225 -1.25468 0
M  V30 4639 O 665.283 -5.81621 -1.91066 0
M  V30 4640 C 663.147 -7.02416 -1.9168 0
M  V30 4641 H 663.179 -6.6888 -2.96621 0
M  V30 4642 H 664.362 -6.53617 -0.192223 0
M  V30 4643 H 665.846 -8.36622 -0.589963 0
M  V30 4644 H 664.152 -10.0291 -1.79807 0
M  V30 4645 H 663.962 -10.2138 0.558219 0
M  V30 4646 H 662.332 -9.6579 0.0444202 0
M  V30 4647 H 664.971 -5.69556 -2.79637 0
M  V30 4648 P 666.829 -8.4349 -2.47671 0
M  V30 4649 O 668.251 -8.92593 -2.65 0
M  V30 4650 O 666.469 -7.7568 -1.19296 0
M  V30 4651 O 666.506 -7.36886 -3.63805 0
M  V30 4652 C 666.346 -7.95349 -4.982 0
M  V30 4653 C 666.886 -6.94612 -5.98974 0
M  V30 4654 O 665.83 -6.10347 -6.11815 0
M  V30 4655 C 668.104 -6.11426 -5.62335 0
M  V30 4656 O 668.842 -5.6162 -6.70584 0
M  V30 4657 C 667.435 -5.04409 -4.73308 0
M  V30 4658 O 668.234 -3.85992 -4.75183 0
M  V30 4659 C 666.098 -4.8728 -5.41006 0
M  V30 4660 H 666.13 -4.02333 -6.11157 0
M  V30 4661 H 667.313 -5.39466 -3.69543 0
M  V30 4662 H 668.797 -6.71916 -5.01943 0
M  V30 4663 H 667.103 -7.4649 -6.93477 0
M  V30 4664 H 666.913 -8.89416 -5.05237 0
M  V30 4665 H 665.283 -8.14876 -5.18409 0
M  V30 4666 H 667.922 -3.27957 -5.4317 0
M  V30 4667 P 669.779 -5.75688 -6.64379 0
M  V30 4668 O 671.201 -6.07627 -7.05504 0
M  V30 4669 O 669.419 -5.88047 -5.19722 0
M  V30 4670 O 669.456 -4.2322 -7.04443 0
M  V30 4671 C 669.296 -3.99743 -8.4911 0
M  V30 4672 C 669.836 -2.60516 -8.79425 0
M  V30 4673 O 668.78 -1.82684 -8.4467 0
M  V30 4674 C 671.054 -2.10343 -8.03628 0
M  V30 4675 O 671.792 -1.09919 -8.67766 0
M  V30 4676 C 670.385 -1.68446 -6.70876 0
M  V30 4677 O 671.184 -0.678137 -6.08433 0
M  V30 4678 C 669.048 -1.17436 -7.18567 0
M  V30 4679 H 669.08 -0.0804732 -7.31656 0
M  V30 4680 H 670.263 -2.54037 -6.02537 0
M  V30 4681 H 671.747 -2.93881 -7.85526 0
M  V30 4682 H 670.053 -2.53065 -9.86973 0
M  V30 4683 H 669.863 -4.75072 -9.05887 0
M  V30 4684 H 668.233 -4.05244 -8.76668 0
M  V30 4685 H 670.872 0.177647 -6.34251 0
M  V30 4686 P 672.73 -1.25109 -8.70152 0
M  V30 4687 O 674.152 -1.29744 -9.22016 0
M  V30 4688 O 672.37 -2.13714 -7.55141 0
M  V30 4689 O 672.407 0.248149 -8.21425 0
M  V30 4690 C 672.247 1.22779 -9.30434 0
M  V30 4691 C 672.787 2.56293 -8.80664 0
M  V30 4692 O 671.731 3.02979 -8.09349 0
M  V30 4693 C 674.005 2.57523 -7.89775 0
M  V30 4694 O 674.743 3.7668 -7.89438 0
M  V30 4695 C 673.336 2.20997 -6.55446 0
M  V30 4696 O 674.135 2.71895 -5.48509 0
M  V30 4697 C 671.999 2.89693 -6.67988 0
M  V30 4698 H 672.031 3.88793 -6.19859 0
M  V30 4699 H 673.214 1.12046 -6.44229 0
M  V30 4700 H 674.698 1.7746 -8.19711 0
M  V30 4701 H 673.004 3.20706 -9.67112 0
M  V30 4702 H 672.814 0.901032 -10.1892 0
M  V30 4703 H 671.184 1.33049 -9.56592 0
M  V30 4704 H 673.823 3.57847 -5.23962 0
M  V30 4705 P 675.681 3.65191 -7.99657 0
M  V30 4706 O 677.103 3.89332 -8.45794 0
M  V30 4707 O 675.321 2.28472 -7.50807 0
M  V30 4708 O 675.358 4.64972 -6.77611 0
M  V30 4709 C 675.198 6.06319 -7.16352 0
M  V30 4710 C 675.738 6.91731 -6.02299 0
M  V30 4711 O 674.682 6.92449 -5.17064 0
M  V30 4712 C 676.956 6.43627 -5.25174 0
M  V30 4713 O 677.694 7.43686 -4.60469 0
M  V30 4714 C 676.287 5.40275 -4.31916 0
M  V30 4715 O 677.086 5.25279 -3.14438 0
M  V30 4716 C 674.95 6.04847 -4.05327 0
M  V30 4717 H 674.982 6.62195 -3.11261 0
M  V30 4718 H 676.165 4.42556 -4.81383 0
M  V30 4719 H 677.649 5.92458 -5.93643 0
M  V30 4720 H 675.955 7.92655 -6.402 0
M  V30 4721 H 675.765 6.26671 -8.0846 0
M  V30 4722 H 674.135 6.29101 -7.32804 0
M  V30 4723 H 676.774 5.84315 -2.47318 0
M  V30 4724 P 678.631 7.39546 -4.75277 0
M  V30 4725 O 680.053 7.84798 -5.01039 0
M  V30 4726 O 678.271 5.9812 -5.08098 0
M  V30 4727 O 678.308 7.57503 -3.1866 0
M  V30 4728 C 678.148 8.97357 -2.74833 0
M  V30 4729 C 678.688 9.07548 -1.32709 0
M  V30 4730 O 677.632 8.62072 -0.606159 0
M  V30 4731 C 679.906 8.25383 -0.938334 0
M  V30 4732 O 680.644 8.74577 0.146954 0
M  V30 4733 C 679.237 6.8802 -0.712559 0
M  V30 4734 O 680.036 6.1189 0.194655 0
M  V30 4735 C 677.9 7.27966 -0.139777 0
M  V30 4736 H 677.932 7.25354 0.961601 0
M  V30 4737 H 679.115 6.32557 -1.65702 0
M  V30 4738 H 680.599 8.19355 -1.79097 0
M  V30 4739 H 678.905 10.1294 -1.10029 0
M  V30 4740 H 678.715 9.64276 -3.41316 0
M  V30 4741 H 677.085 9.25417 -2.76357 0
M  V30 4742 H 679.724 6.25267 1.07847 0
M  V30 4743 P 681.582 8.791 4.7645e-12 0
M  V30 4744 O 683.004 9.31096 0.027933 0
M  V30 4745 O 681.222 7.77869 -1.04071 0
M  V30 4746 O 681.259 8.09533 1.41463 0
M  V30 4747 C 681.099 9.0349 2.53943 0
M  V30 4748 C 681.639 8.35226 3.79016 0
M  V30 4749 O 680.583 7.57992 4.15078 0
M  V30 4750 C 682.857 7.45087 3.67298 0
M  V30 4751 O 683.595 7.27796 4.85194 0
M  V30 4752 C 682.188 6.17323 3.12027 0
M  V30 4753 O 682.987 5.04231 3.47188 0
M  V30 4754 C 680.851 6.19961 3.81809 0
M  V30 4755 H 680.883 5.58218 4.73051 0
M  V30 4756 H 682.066 6.21726 2.02589 0
M  V30 4757 H 683.55 7.86112 2.9231 0
M  V30 4758 H 681.856 9.11627 4.55076 0
M  V30 4759 H 681.666 9.9573 2.34194 0
M  V30 4760 H 680.036 9.2792 2.67832 0
M  V30 4761 H 682.675 4.67702 4.28772 0
M  V30 4762 P 684.532 7.39546 4.75277 0
M  V30 4763 O 685.954 7.81777 5.05738 0
M  V30 4764 O 684.172 7.1065 3.32998 0
M  V30 4765 O 684.209 6.04542 5.56673 0
M  V30 4766 C 684.049 6.22772 7.02095 0
M  V30 4767 C 684.589 4.97725 7.70406 0
M  V30 4768 O 683.533 4.13256 7.58987 0
M  V30 4769 C 685.807 4.28231 7.11815 0
M  V30 4770 O 686.545 3.49945 8.01648 0
M  V30 4771 C 685.138 3.5063 5.96244 0
M  V30 4772 O 685.937 2.36482 5.64681 0
M  V30 4773 C 683.801 3.15122 6.56374 0
M  V30 4774 H 683.833 2.13853 6.99751 0
M  V30 4775 H 685.016 4.13501 5.06559 0
M  V30 4776 H 686.5 5.03285 6.70911 0
M  V30 4777 H 684.806 5.20877 8.75697 0
M  V30 4778 H 684.616 7.11046 7.35349 0
M  V30 4779 H 682.986 6.35815 7.26986 0
M  V30 4780 H 685.625 1.61644 6.13565 0
M  V30 4781 P 687.483 3.65191 7.99657 0
M  V30 4782 O 688.905 3.8425 8.48115 0
M  V30 4783 O 687.123 4.17805 6.64342 0
M  V30 4784 O 687.16 2.07613 7.95143 0
M  V30 4785 C 687 1.44328 9.27336 0
M  V30 4786 C 687.54 0.0220036 9.17197 0
M  V30 4787 O 686.484 -0.626867 8.61923 0
M  V30 4788 C 688.758 -0.24586 8.30336 0
M  V30 4789 O 689.496 -1.39011 8.63583 0
M  V30 4790 C 688.089 -0.273849 6.91158 0
M  V30 4791 O 688.888 -1.06348 6.02892 0
M  V30 4792 C 686.752 -0.897649 7.22545 0
M  V30 4793 H 686.784 -1.9841 7.04286 0
M  V30 4794 H 687.967 0.739928 6.497 0
M  V30 4795 H 689.451 0.60668 8.36503 0
M  V30 4796 H 687.757 -0.352479 10.1829 0
M  V30 4797 H 687.567 2.00611 10.0304 0
M  V30 4798 H 685.937 1.41843 9.55327 0
M  V30 4799 H 688.576 -1.95734 6.03555 0
M  V30 4800 P 690.433 -1.25109 8.70152 0
M  V30 4801 O 691.855 -1.35274 9.21221 0
M  V30 4802 O 690.073 -0.0769065 7.84762 0
M  V30 4803 O 690.11 -2.55232 7.81161 0
M  V30 4804 C 689.95 -3.79939 8.58154 0
M  V30 4805 C 690.49 -4.94023 7.72785 0
M  V30 4806 O 689.434 -5.18726 6.91205 0
M  V30 4807 C 691.708 -4.69597 6.85231 0
M  V30 4808 O 692.446 -5.83832 6.51337 0
M  V30 4809 C 691.039 -3.96706 5.66633 0
M  V30 4810 O 691.838 -4.15414 4.49689 0
M  V30 4811 C 689.702 -4.66153 5.59313 0
M  V30 4812 H 689.734 -5.47679 4.85214 0
M  V30 4813 H 690.917 -2.89008 5.86566 0
M  V30 4814 H 692.401 -4.0121 7.36511 0
M  V30 4815 H 690.707 -5.80182 8.37584 0
M  V30 4816 H 690.517 -3.73517 9.52265 0
M  V30 4817 H 688.887 -3.97163 8.80359 0
M  V30 4818 H 691.526 -4.90969 4.01921 0
M  V30 4819 P 693.384 -5.75688 6.64379 0
M  V30 4820 O 694.806 -6.11849 7.01846 0
M  V30 4821 O 693.024 -4.30744 6.56026 0
M  V30 4822 O 693.061 -6.37042 5.19165 0
M  V30 4823 C 692.901 -7.83578 5.16515 0
M  V30 4824 C 693.441 -8.33398 3.83019 0
M  V30 4825 O 692.385 -8.10074 3.01034 0
M  V30 4826 C 694.659 -7.65514 3.2257 0
M  V30 4827 O 695.397 -8.4329 2.32297 0
M  V30 4828 C 693.99 -6.40075 2.62207 0
M  V30 4829 O 694.789 -5.92589 1.53712 0
M  V30 4830 C 692.653 -6.9454 2.18503 0
M  V30 4831 H 692.685 -7.23063 1.12091 0
M  V30 4832 H 693.868 -5.6025 3.37201 0
M  V30 4833 H 695.352 -7.35707 4.02681 0
M  V30 4834 H 693.658 -9.40912 3.9095 0
M  V30 4835 H 693.468 -8.29056 5.99158 0
M  V30 4836 H 691.838 -8.10073 5.25882 0
M  V30 4837 H 694.477 -6.30324 0.726794 0
M  V30 4838 P 696.335 -8.4349 2.47671 0
M  V30 4839 O 697.757 -8.94167 2.5964 0
M  V30 4840 O 695.975 -7.1704 3.19006 0
M  V30 4841 O 696.012 -8.16596 0.923387 0
M  V30 4842 C 695.852 -9.38437 0.108857 0
M  V30 4843 C 696.392 -9.08175 -1.28353 0
M  V30 4844 O 695.336 -8.44229 -1.84713 0
M  V30 4845 C 697.61 -8.18386 -1.42505 0
M  V30 4846 O 698.348 -8.3501 -2.60497 0
M  V30 4847 C 696.941 -6.80225 -1.25468 0
M  V30 4848 O 697.74 -5.81621 -1.91066 0
M  V30 4849 C 695.604 -7.02416 -1.9168 0
M  V30 4850 H 695.636 -6.6888 -2.96621 0
M  V30 4851 H 696.819 -6.53617 -0.192223 0
M  V30 4852 H 698.303 -8.36622 -0.589963 0
M  V30 4853 H 696.609 -10.0291 -1.79807 0
M  V30 4854 H 696.419 -10.2138 0.558219 0
M  V30 4855 H 694.789 -9.6579 0.0444202 0
M  V30 4856 H 697.428 -5.69556 -2.79637 0
M  V30 4857 P 699.285 -8.4349 -2.47671 0
M  V30 4858 O 700.707 -8.92593 -2.65 0
M  V30 4859 O 698.925 -7.7568 -1.19296 0
M  V30 4860 O 698.962 -7.36886 -3.63805 0
M  V30 4861 C 698.802 -7.95349 -4.982 0
M  V30 4862 C 699.342 -6.94612 -5.98974 0
M  V30 4863 O 698.286 -6.10347 -6.11815 0
M  V30 4864 C 700.56 -6.11426 -5.62335 0
M  V30 4865 O 701.298 -5.6162 -6.70584 0
M  V30 4866 C 699.891 -5.04409 -4.73308 0
M  V30 4867 O 700.69 -3.85992 -4.75183 0
M  V30 4868 C 698.554 -4.8728 -5.41006 0
M  V30 4869 H 698.586 -4.02333 -6.11157 0
M  V30 4870 H 699.769 -5.39466 -3.69543 0
M  V30 4871 H 701.253 -6.71916 -5.01943 0
M  V30 4872 H 699.559 -7.4649 -6.93477 0
M  V30 4873 H 699.369 -8.89416 -5.05237 0
M  V30 4874 H 697.739 -8.14876 -5.18409 0
M  V30 4875 H 700.378 -3.27957 -5.4317 0
M  V30 4876 P 702.236 -5.75688 -6.64379 0
M  V30 4877 O 703.637 -6.14823 -7.06682 0
M  V30 4878 O 701.858 -5.93957 -5.20728 0
M  V30 4879 O 701.913 -4.23169 -7.04357 0
M  V30 4880 C 701.753 -3.99743 -8.4911 0
M  V30 4881 C 702.293 -2.60487 -8.79329 0
M  V30 4882 O 701.237 -1.82663 -8.44573 0
M  V30 4883 C 703.51 -2.10343 -8.03628 0
M  V30 4884 O 704.249 -1.09919 -8.67766 0
M  V30 4885 C 702.843 -1.68446 -6.70876 0
M  V30 4886 O 703.641 -0.678026 -6.08333 0
M  V30 4887 C 701.505 -1.17436 -7.18567 0
M  V30 4888 N 700.462 -1.52699 -6.23988 0
M  V30 4889 C 699.427 -0.643793 -6.05085 0
M  V30 4890 O 699.466 0.459118 -6.64315 0
M  V30 4891 N 698.415 -0.976931 -5.22038 0
M  V30 4892 C 698.463 -2.14429 -4.56662 0
M  V30 4893 C 699.559 -3.04203 -4.71481 0
M  V30 4894 C 700.525 -2.69669 -5.56838 0
M  V30 4895 H 701.537 -0.0804622 -7.31556 0
M  V30 4896 H 702.72 -2.53396 -6.02698 0
M  V30 4897 H 704.204 -2.9313 -7.85914 0
M  V30 4898 H 702.51 -2.52078 -9.87225 0
M  V30 4899 H 702.319 -4.75072 -9.05887 0
M  V30 4900 H 700.689 -4.05202 -8.76577 0
M  V30 4901 H 699.607 -3.97309 -4.15519 0
M  V30 4902 H 701.371 -3.36869 -5.72318 0
M  V30 4903 H 703.425 0.167718 -6.44882 0
M  V30 4904 P 705.186 -1.25109 -8.70152 0
M  V30 4905 O 706.608 -1.29744 -9.22016 0
M  V30 4906 O 704.826 -2.13714 -7.55141 0
M  V30 4907 O 704.863 0.248149 -8.21425 0
M  V30 4908 C 704.703 1.22779 -9.30434 0
M  V30 4909 C 705.243 2.56293 -8.80664 0
M  V30 4910 O 704.187 3.02979 -8.09349 0
M  V30 4911 C 706.461 2.57523 -7.89775 0
M  V30 4912 O 707.199 3.7668 -7.89438 0
M  V30 4913 C 705.792 2.20997 -6.55446 0
M  V30 4914 O 706.591 2.71895 -5.48509 0
M  V30 4915 C 704.455 2.89693 -6.67988 0
M  V30 4916 H 704.487 3.88793 -6.19859 0
M  V30 4917 H 705.67 1.12046 -6.44229 0
M  V30 4918 H 707.154 1.7746 -8.19711 0
M  V30 4919 H 705.46 3.20706 -9.67112 0
M  V30 4920 H 705.27 0.901032 -10.1892 0
M  V30 4921 H 703.64 1.33049 -9.56592 0
M  V30 4922 H 706.279 3.57847 -5.23962 0
M  V30 4923 P 708.137 3.65191 -7.99657 0
M  V30 4924 O 709.559 3.89332 -8.45794 0
M  V30 4925 O 707.777 2.28472 -7.50807 0
M  V30 4926 O 707.814 4.64972 -6.77611 0
M  V30 4927 C 707.654 6.06319 -7.16352 0
M  V30 4928 C 708.194 6.91731 -6.02299 0
M  V30 4929 O 707.138 6.92449 -5.17064 0
M  V30 4930 C 709.412 6.43627 -5.25174 0
M  V30 4931 O 710.15 7.43686 -4.60469 0
M  V30 4932 C 708.743 5.40275 -4.31916 0
M  V30 4933 O 709.542 5.25279 -3.14438 0
M  V30 4934 C 707.406 6.04847 -4.05327 0
M  V30 4935 H 707.438 6.62195 -3.11261 0
M  V30 4936 H 708.621 4.42556 -4.81383 0
M  V30 4937 H 710.105 5.92458 -5.93643 0
M  V30 4938 H 708.411 7.92655 -6.402 0
M  V30 4939 H 708.221 6.26671 -8.0846 0
M  V30 4940 H 706.591 6.29101 -7.32804 0
M  V30 4941 H 709.23 5.84315 -2.47318 0
M  V30 4942 P 711.087 7.39546 -4.75277 0
M  V30 4943 O 712.509 7.84798 -5.01039 0
M  V30 4944 O 710.727 5.9812 -5.08098 0
M  V30 4945 O 710.764 7.57503 -3.1866 0
M  V30 4946 C 710.604 8.97357 -2.74833 0
M  V30 4947 C 711.144 9.07548 -1.32709 0
M  V30 4948 O 710.088 8.62072 -0.606159 0
M  V30 4949 C 712.362 8.25383 -0.938334 0
M  V30 4950 O 713.1 8.74577 0.146954 0
M  V30 4951 C 711.693 6.8802 -0.712559 0
M  V30 4952 O 712.492 6.1189 0.194655 0
M  V30 4953 C 710.356 7.27966 -0.139777 0
M  V30 4954 H 710.388 7.25354 0.961601 0
M  V30 4955 H 711.571 6.32557 -1.65702 0
M  V30 4956 H 713.055 8.19355 -1.79097 0
M  V30 4957 H 711.361 10.1294 -1.10029 0
M  V30 4958 H 711.171 9.64276 -3.41316 0
M  V30 4959 H 709.541 9.25417 -2.76357 0
M  V30 4960 H 712.18 6.25267 1.07847 0
M  V30 4961 P 714.038 8.791 5.07466e-12 0
M  V30 4962 O 715.46 9.31096 0.027933 0
M  V30 4963 O 713.678 7.77869 -1.04071 0
M  V30 4964 O 713.715 8.09533 1.41463 0
M  V30 4965 C 713.555 9.0349 2.53943 0
M  V30 4966 C 714.095 8.35226 3.79016 0
M  V30 4967 O 713.039 7.57992 4.15078 0
M  V30 4968 C 715.313 7.45087 3.67298 0
M  V30 4969 O 716.051 7.27796 4.85194 0
M  V30 4970 C 714.644 6.17323 3.12027 0
M  V30 4971 O 715.443 5.04231 3.47188 0
M  V30 4972 C 713.307 6.19961 3.81809 0
M  V30 4973 H 713.339 5.58218 4.73051 0
M  V30 4974 H 714.522 6.21726 2.02589 0
M  V30 4975 H 716.006 7.86112 2.9231 0
M  V30 4976 H 714.312 9.11627 4.55076 0
M  V30 4977 H 714.122 9.9573 2.34194 0
M  V30 4978 H 712.492 9.2792 2.67832 0
M  V30 4979 H 715.131 4.67702 4.28772 0
M  V30 4980 P 716.989 7.39546 4.75277 0
M  V30 4981 O 718.411 7.81777 5.05738 0
M  V30 4982 O 716.629 7.1065 3.32998 0
M  V30 4983 O 716.666 6.04542 5.56673 0
M  V30 4984 C 716.506 6.22772 7.02095 0
M  V30 4985 C 717.046 4.97725 7.70406 0
M  V30 4986 O 715.99 4.13256 7.58987 0
M  V30 4987 C 718.264 4.28231 7.11815 0
M  V30 4988 O 719.002 3.49945 8.01648 0
M  V30 4989 C 717.595 3.5063 5.96244 0
M  V30 4990 O 718.394 2.36482 5.64681 0
M  V30 4991 C 716.258 3.15122 6.56374 0
M  V30 4992 H 716.29 2.13853 6.99751 0
M  V30 4993 H 717.473 4.13501 5.06559 0
M  V30 4994 H 718.957 5.03285 6.70911 0
M  V30 4995 H 717.263 5.20877 8.75697 0
M  V30 4996 H 717.073 7.11046 7.35349 0
M  V30 4997 H 715.443 6.35815 7.26986 0
M  V30 4998 H 718.082 1.61644 6.13565 0
M  V30 4999 H 720.635 3.4553 7.48275 0
M  V30 END ATOM
M  V30 BEGIN BOND
M  V30 END BOND
M  V30 END CTAB
M  END
$$$$
