drugbank_target|P21462 fMet-Leu-Phe receptor (DB00716)
 OpenBabel12092119453D

  0  0  0     0  0            999 V3000
M  V30 BEGIN CTAB
M  V30 COUNTS 5513 5580 0 0 0
M  V30 BEGIN ATOM
M  V30 1 H -0.908 1.98254 -0.117106 0
M  V30 2 N 0 1.576 0 0
M  V30 3 C 0.933 2.03868 1.02534 0
M  V30 4 C 1.911 0.928543 1.3348 0
M  V30 5 O 3.095 1.19667 1.45644 0
M  V30 6 C 0.222 2.43627 2.35294 0
M  V30 7 C -0.732 3.65373 2.2001 0
M  V30 8 S 0.101 5.13292 1.52614 0
M  V30 9 C 1.257 5.56322 2.86805 0
M  V30 10 H 1.49 2.90518 0.631377 0
M  V30 11 H -0.977 1.52953 0.210867 0
M  V30 12 H 0.981 2.67203 3.11629 0
M  V30 13 H -0.358 1.57376 2.7183 0
M  V30 14 H -1.165 3.90944 3.18086 0
M  V30 15 H -1.563 3.418 1.51819 0
M  V30 16 H 0.729 5.58782 3.83104 0
M  V30 17 H 1.672 6.56266 2.65933 0
M  V30 18 H 2.08 4.83886 2.90714 0
M  V30 19 N 1.4781 -0.272755 1.55222 0
M  V30 20 C 2.3881 -1.35918 1.91216 0
M  V30 21 C 3.4041 -1.54026 0.809436 0
M  V30 22 O 4.5801 -1.68148 1.10852 0
M  V30 23 C 1.6451 -2.69834 2.17693 0
M  V30 24 C 0.7061 -2.6047 3.41253 0
M  V30 25 C -0.0609 -3.88 3.66458 0
M  V30 26 O 0.1621 -4.88693 2.94169 0
M  V30 27 O -0.9039 -3.88189 4.59992 0
M  V30 28 H 2.9221 -1.0839 2.83699 0
M  V30 29 H 0.5071 -0.471301 1.41771 0
M  V30 30 H 2.3891 -3.49017 2.36147 0
M  V30 31 H 1.0641 -2.97148 1.28392 0
M  V30 32 H -0.0289 -1.79663 3.28134 0
M  V30 33 H 1.3041 -2.38106 4.30774 0
M  V30 34 N 2.9562 -1.48159 -0.537278 0
M  V30 35 C 4.1842 -1.59454 -1.31841 0
M  V30 36 C 4.5992 -0.252065 -1.8711 0
M  V30 37 O 3.9562 0.757621 -1.66031 0
M  V30 38 C 4.0072 -2.63546 -2.47439 0
M  V30 39 O 3.7282 -3.92583 -1.94449 0
M  V30 40 C 5.2292 -2.85212 -3.39366 0
M  V30 41 H 2.4492 -0.53785 -0.401196 0
M  V30 42 H 4.9932 -1.93932 -0.648891 0
M  V30 43 H 3.1482 -2.31946 -3.1029 0
M  V30 44 H 3.5622 -4.49629 -2.70063 0
M  V30 45 H 5.0362 -3.61863 -4.16844 0
M  V30 46 H 5.5132 -1.93765 -3.94147 0
M  V30 47 H 6.1192 -3.18086 -2.82314 0
M  V30 48 N 4.4343 0.785586 -1.36625 0
M  V30 49 C 5.3823 1.91978 -1.31329 0
M  V30 50 C 6.3763 1.68162 -0.204416 0
M  V30 51 O 7.5823 1.76122 -0.371645 0
M  V30 52 H 3.9573 0.631087 -0.408942 0
M  V30 53 H 5.9283 1.93562 -2.27104 0
M  V30 54 C 4.6773 3.29055 -1.12329 0
M  V30 55 H 4.0003 3.4795 -1.96903 0
M  V30 56 H 5.4403 4.08756 -1.12671 0
M  V30 57 C 3.8993 3.36461 0.171861 0
M  V30 58 O 4.4293 3.84576 1.16035 0
M  V30 59 N 2.6353 2.89782 0.217846 0
M  V30 60 H 2.1823 2.50819 -0.587183 0
M  V30 61 H 2.1403 2.95119 1.08408 0
M  V30 62 N 5.9124 1.20967 1.01018 0
M  V30 63 C 7.1374 1.0503 1.78839 0
M  V30 64 C 7.5624 -0.395752 1.8389 0
M  V30 65 O 6.9204 -1.28529 1.27867 0
M  V30 66 C 6.9684 1.64602 3.2084 0
M  V30 67 O 6.0724 0.887988 4.02726 0
M  V30 68 H 5.4134 0.369987 0.551367 0
M  V30 69 H 7.9434 1.60399 1.27018 0
M  V30 70 H 7.9534 1.68607 3.71532 0
M  V30 71 H 6.6284 2.69841 3.16479 0
M  V30 72 H 5.2054 0.922648 3.61305 0
M  V30 73 N 7.3905 -1.2043 1.01659 0
M  V30 74 C 8.6155 -1.94318 0.724942 0
M  V30 75 C 9.0405 -1.74266 -0.708034 0
M  V30 76 O 8.3985 -1.03694 -1.48719 0
M  V30 77 C 8.4465 -3.44486 1.06591 0
M  V30 78 O 7.5505 -4.12017 0.177599 0
M  V30 79 H 6.8915 -0.60708 0.26898 0
M  V30 80 H 9.4215 -1.52861 1.35995 0
M  V30 81 H 9.4315 -3.95106 1.01762 0
M  V30 82 H 8.1065 -3.58404 2.10997 0
M  V30 83 H 6.6835 -3.71821 0.283421 0
M  V30 84 N 8.8686 -0.792821 -1.36206 0
M  V30 85 C 9.7986 -0.207853 -2.32573 0
M  V30 86 C 10.7796 0.659055 -1.56813 0
M  V30 87 O 11.9646 0.592176 -1.84951 0
M  V30 88 C 9.0946 0.655449 -3.41059 0
M  V30 89 C 8.0486 -0.111842 -4.27854 0
M  V30 90 C 7.3746 0.872274 -5.27537 0
M  V30 91 C 8.6746 -1.30299 -5.05786 0
M  V30 92 H 10.3686 -1.01294 -2.81744 0
M  V30 93 H 7.9146 -0.48854 -1.3546 0
M  V30 94 H 9.8676 1.07464 -4.07467 0
M  V30 95 H 8.5916 1.49328 -2.90463 0
M  V30 96 H 7.2506 -0.512053 -3.63006 0
M  V30 97 H 6.8986 1.70523 -4.73214 0
M  V30 98 H 6.5986 0.363291 -5.86476 0
M  V30 99 H 8.1226 1.28996 -5.96818 0
M  V30 100 H 9.5366 -0.959379 -5.65216 0
M  V30 101 H 7.9336 -1.7455 -5.74154 0
M  V30 102 H 9.0036 -2.09663 -4.37229 0
M  V30 103 N 10.3467 1.47872 -0.545128 0
M  V30 104 C 11.7577 1.86384 -0.108581 0
M  V30 105 C 12.1087 1.45309 1.31832 0
M  V30 106 O 11.2337 0.850641 1.9898 0
M  V30 107 C 11.8287 3.38265 -0.190274 0
M  V30 108 C 10.3877 3.75914 0.191164 0
M  V30 109 C 9.5347 2.71926 -0.543273 0
M  V30 110 H 12.4857 1.39561 -0.755537 0
M  V30 111 H 12.5067 3.75831 0.594217 0
M  V30 112 H 12.0187 3.6813 -1.2289 0
M  V30 113 H 10.1197 3.51665 1.23136 0
M  V30 114 H 10.2327 4.78836 -0.158987 0
M  V30 115 H 8.5967 2.54697 0.0122495 0
M  V30 116 H 9.3797 3.04634 -1.58282 0
M  V30 117 N 11.8248 0.280983 1.55075 0
M  V30 118 C 13.0528 -0.337293 2.04132 0
M  V30 119 C 13.4678 -1.4903 1.15912 0
M  V30 120 O 12.8248 -1.81606 0.180459 0
M  V30 121 C 12.8758 -0.812706 3.52246 0
M  V30 122 O 12.5968 0.294387 4.3711 0
M  V30 123 C 14.0978 -1.4982 4.17216 0
M  V30 124 H 11.3178 -0.0761638 0.666663 0
M  V30 125 H 13.8618 0.414787 2.00249 0
M  V30 126 H 12.0168 -1.51486 3.56554 0
M  V30 127 H 12.4308 -0.0721325 5.2445 0
M  V30 128 H 13.9048 -1.7822 5.22438 0
M  V30 129 H 14.3818 -2.43168 3.65741 0
M  V30 130 H 14.9878 -0.839742 4.16927 0
M  V30 131 N 13.3029 -1.57598 0.00835791 0
M  V30 132 C 14.2509 -2.10078 -0.998508 0
M  V30 133 C 15.2449 -1.02262 -1.35051 0
M  V30 134 O 16.4509 -1.20719 -1.33518 0
M  V30 135 H 12.8259 -0.670903 -0.339696 0
M  V30 136 H 14.7969 -2.93648 -0.530398 0
M  V30 137 C 13.5459 -2.62615 -2.27879 0
M  V30 138 H 12.8689 -3.45213 -2.01662 0
M  V30 139 H 14.3089 -3.03004 -2.96588 0
M  V30 140 C 12.7679 -1.54407 -2.99433 0
M  V30 141 O 13.2979 -0.931812 -3.90743 0
M  V30 142 N 11.5039 -1.2695 -2.61404 0
M  V30 143 H 11.0509 -1.76924 -1.87232 0
M  V30 144 H 11.0089 -0.547704 -3.09593 0
M  V30 145 N 14.781 0.264519 -1.55364 0
M  V30 146 C 16.03 0.992812 -1.75574 0
M  V30 147 C 16.343 1.87142 -0.568979 0
M  V30 148 O 17.549 2.63513 -0.653682 0
M  V30 149 C 16.005 1.81519 -3.10771 0
M  V30 150 C 15.613 0.984839 -4.37041 0
M  V30 151 C 17.357 2.53727 -3.40327 0
M  V30 152 C 15.264 1.80209 -5.63275 0
M  V30 153 H 14.194 0.374412 -0.65447 0
M  V30 154 H 16.845 0.248138 -1.81815 0
M  V30 155 H 15.227 2.60115 -2.98591 0
M  V30 156 H 16.401 0.242455 -4.60162 0
M  V30 157 H 14.716 0.37691 -4.14691 0
M  V30 158 H 17.313 3.15292 -4.3185 0
M  V30 159 H 17.656 3.24447 -2.60845 0
M  V30 160 H 18.189 1.82156 -3.53644 0
M  V30 161 H 14.928 1.13896 -6.45529 0
M  V30 162 H 14.448 2.52022 -5.44284 0
M  V30 163 H 16.127 2.37364 -6.01887 0
M  V30 164 N 16.2591 1.48442 0.529413 0
M  V30 165 C 17.4841 1.60406 1.31471 0
M  V30 166 C 17.9091 0.264738 1.86228 0
M  V30 167 O 17.2671 -0.763668 1.64432 0
M  V30 168 C 17.3151 2.65419 2.44101 0
M  V30 169 O 16.4191 2.22618 3.47153 0
M  V30 170 H 15.7601 0.537863 0.389357 0
M  V30 171 H 18.2901 1.94432 0.636965 0
M  V30 172 H 18.3001 2.86709 2.90279 0
M  V30 173 H 16.9751 3.62652 2.03608 0
M  V30 174 H 15.5521 2.11543 3.0709 0
M  V30 175 N 17.7372 -0.778329 1.37039 0
M  V30 176 C 18.9852 -1.53361 1.31623 0
M  V30 177 C 19.3062 -1.94739 -0.100831 0
M  V30 178 O 18.5762 -1.65797 -1.04347 0
M  V30 179 H 17.1562 -0.568794 0.484234 0
M  V30 180 H 19.8182 -0.926742 1.71457 0
M  V30 181 H 18.9142 -2.43606 1.95096 0
M  V30 182 N 19.2153 -1.21501 -1.00376 0
M  V30 183 C 20.4633 -1.03095 -1.73827 0
M  V30 184 C 20.7843 0.436341 -1.90055 0
M  V30 185 O 20.0543 1.31466 -1.45236 0
M  V30 186 H 18.6343 -0.378487 -0.644016 0
M  V30 187 H 21.2963 -1.52831 -1.20949 0
M  V30 188 H 20.3923 -1.49991 -2.73695 0
M  V30 189 N 20.6934 1.19889 -1.02296 0
M  V30 190 C 21.9214 1.9339 -0.735399 0
M  V30 191 C 22.3364 1.75148 0.704887 0
M  V30 192 O 21.6934 1.06954 1.47875 0
M  V30 193 C 21.7444 3.45313 -1.06962 0
M  V30 194 O 21.4654 3.62964 -2.45334 0
M  V30 195 C 22.9664 4.35948 -0.804021 0
M  V30 196 H 20.1864 0.61448 -0.269546 0
M  V30 197 H 22.7304 1.522 -1.36585 0
M  V30 198 H 20.8854 3.84359 -0.484455 0
M  V30 199 H 21.2994 4.56886 -2.57595 0
M  V30 200 H 22.7734 5.41174 -1.0879 0
M  V30 201 H 23.2504 4.3842 0.261691 0
M  V30 202 H 23.8564 4.02574 -1.37164 0
M  V30 203 N 22.1715 0.800033 1.35784 0
M  V30 204 C 23.5825 0.439142 1.81462 0
M  V30 205 C 23.9335 -1.03813 1.66485 0
M  V30 206 O 23.0585 -1.80626 1.19177 0
M  V30 207 C 23.6535 0.790314 3.29453 0
M  V30 208 C 22.2125 0.482111 3.733 0
M  V30 209 C 21.3595 1.01938 2.57883 0
M  V30 210 H 24.3105 0.992254 1.23855 0
M  V30 211 H 24.3315 0.0853677 3.80404 0
M  V30 212 H 23.8435 1.86554 3.40322 0
M  V30 213 H 21.9445 -0.584652 3.67984 0
M  V30 214 H 22.0575 1.01015 4.6833 0
M  V30 215 H 20.4215 0.442043 2.50835 0
M  V30 216 H 21.2045 2.10059 2.71533 0
M  V30 217 N 23.6496 -1.47581 0.552962 0
M  V30 218 C 24.6126 -2.28439 -0.186605 0
M  V30 219 C 25.6126 -1.36706 -0.84665 0
M  V30 220 O 26.8026 -1.59378 -0.703164 0
M  V30 221 C 23.9346 -3.16264 -1.2724 0
M  V30 222 H 25.1276 -2.95294 0.523609 0
M  V30 223 H 22.6806 -1.532 0.309745 0
M  V30 224 H 23.4156 -2.54091 -2.01514 0
M  V30 225 H 23.2006 -3.83769 -0.803968 0
M  V30 226 H 24.6906 -3.77198 -1.79196 0
M  V30 227 N 25.1277 -0.289203 -1.54924 0
M  V30 228 C 26.3737 0.323998 -2.00195 0
M  V30 229 C 26.7067 1.54441 -1.17735 0
M  V30 230 O 25.9817 1.92875 -0.250878 0
M  V30 231 C 26.2647 0.692276 -3.53383 0
M  V30 232 C 26.1177 -0.536457 -4.46589 0
M  V30 233 C 27.4367 1.52335 -4.12895 0
M  V30 234 H 24.5557 0.116289 -0.727768 0
M  V30 235 H 27.1977 -0.398954 -1.85764 0
M  V30 236 H 25.3477 1.30822 -3.65811 0
M  V30 237 H 27.0197 -1.17499 -4.46085 0
M  V30 238 H 25.2627 -1.17192 -4.1767 0
M  V30 239 H 25.9337 -0.234806 -5.515 0
M  V30 240 H 28.4097 1.00302 -4.0383 0
M  V30 241 H 27.2857 1.74982 -5.20262 0
M  V30 242 H 27.5467 2.50886 -3.64018 0
M  V30 243 N 26.6058 1.57591 -0.0167156 0
M  V30 244 C 27.8308 1.9598 0.67872 0
M  V30 245 C 28.2558 0.892546 1.65575 0
M  V30 246 O 27.6138 -0.147772 1.80697 0
M  V30 247 C 27.6618 3.33468 1.37227 0
M  V30 248 O 26.7658 3.28954 2.48722 0
M  V30 249 H 26.1068 0.639339 0.17928 0
M  V30 250 H 28.6368 2.04463 -0.0748802 0
M  V30 251 H 28.6468 3.69417 1.7319 0
M  V30 252 H 27.3218 4.10694 0.656007 0
M  V30 253 H 25.8988 3.04705 2.14963 0
M  V30 254 N 28.0839 -0.256276 1.55502 0
M  V30 255 C 29.0469 -1.30047 1.88734 0
M  V30 256 C 30.0469 -1.4154 0.763086 0
M  V30 257 O 31.2369 -1.40403 1.03115 0
M  V30 258 C 28.3689 -2.67953 2.10747 0
M  V30 259 H 29.5619 -1.01802 2.82093 0
M  V30 260 H 27.1149 -0.495134 1.4825 0
M  V30 261 H 27.8499 -3.01351 1.19825 0
M  V30 262 H 27.6349 -2.60993 2.92617 0
M  V30 263 H 29.1249 -3.43368 2.37673 0
M  V30 264 N 29.562 -1.4872 -0.521534 0
M  V30 265 C 30.81 -1.56857 -1.27437 0
M  V30 266 C 31.131 -0.247982 -1.93417 0
M  V30 267 O 30.401 0.731151 -1.81744 0
M  V30 268 H 28.981 -0.577885 -0.473347 0
M  V30 269 H 31.643 -1.85233 -0.606205 0
M  V30 270 H 30.739 -2.35402 -2.0492 0
M  V30 271 N 31.0401 0.771051 -1.3745 0
M  V30 272 C 32.2701 1.55789 -1.35696 0
M  V30 273 C 32.6781 1.89107 0.0594523 0
M  V30 274 O 32.0211 1.51984 1.03183 0
M  V30 275 C 32.0831 2.89515 -2.13123 0
M  V30 276 C 31.7471 2.78829 -3.62082 0
M  V30 277 C 32.7441 2.49812 -4.5595 0
M  V30 278 C 30.4291 2.9683 -4.05213 0
M  V30 279 C 32.4231 2.38923 -5.90927 0
M  V30 280 C 30.1101 2.85562 -5.40276 0
M  V30 281 C 31.1081 2.56649 -6.32946 0
M  V30 282 O 30.7961 2.45408 -7.65526 0
M  V30 283 H 30.5281 0.489257 -0.466481 0
M  V30 284 H 33.0821 0.963446 -1.81403 0
M  V30 285 H 31.3121 3.51081 -1.62107 0
M  V30 286 H 33.0011 3.50915 -2.03994 0
M  V30 287 H 33.7671 2.3559 -4.23937 0
M  V30 288 H 29.6461 3.18335 -3.33442 0
M  V30 289 H 33.1901 2.16277 -6.63227 0
M  V30 290 H 29.0871 2.99351 -5.71891 0
M  V30 291 H 29.8551 2.60753 -7.75855 0
M  V30 292 N 32.5182 1.22032 0.997298 0
M  V30 293 C 33.4482 1.01065 2.10495 0
M  V30 294 C 34.4292 -0.0669542 1.69968 0
M  V30 295 O 35.6142 0.0943987 1.9397 0
M  V30 296 C 32.7442 0.582874 3.42374 0
M  V30 297 C 31.6982 1.60592 3.96729 0
M  V30 298 C 31.0242 1.03412 5.24605 0
M  V30 299 C 32.3242 2.99478 4.27914 0
M  V30 300 H 34.0182 1.93708 2.28292 0
M  V30 301 H 31.5642 0.932761 1.09707 0
M  V30 302 H 33.5172 0.423332 4.19268 0
M  V30 303 H 32.2412 -0.379213 3.24391 0
M  V30 304 H 30.9002 1.75316 3.21963 0
M  V30 305 H 30.5482 0.063518 5.0296 0
M  V30 306 H 30.2482 1.71754 5.61938 0
M  V30 307 H 31.7722 0.886066 6.04137 0
M  V30 308 H 33.1862 2.88153 4.95622 0
M  V30 309 H 31.5832 3.64903 4.76409 0
M  V30 310 H 32.6532 3.49742 3.3587 0
M  V30 311 N 33.9963 -1.19345 1.0293 0
M  V30 312 C 35.2433 -1.89038 0.726008 0
M  V30 313 C 35.5713 -1.79649 -0.745427 0
M  V30 314 O 34.8263 -1.18354 -1.55855 0
M  V30 315 C 35.1253 -3.39292 1.12319 0
M  V30 316 C 34.7913 -3.68885 2.59297 0
M  V30 317 C 33.4533 -3.76671 2.99453 0
M  V30 318 C 35.8053 -3.82178 3.54386 0
M  V30 319 C 33.1333 -3.9522 4.33611 0
M  V30 320 C 35.4853 -4.0224 4.88248 0
M  V30 321 C 34.1493 -4.08259 5.28092 0
M  V30 322 H 33.4193 -0.691739 0.265665 0
M  V30 323 H 36.0663 -1.41328 1.29223 0
M  V30 324 H 34.3713 -3.88903 0.475584 0
M  V30 325 H 36.0683 -3.91536 0.866037 0
M  V30 326 H 32.6583 -3.63433 2.27189 0
M  V30 327 H 36.8423 -3.75505 3.24514 0
M  V30 328 H 32.0983 -3.98119 4.64016 0
M  V30 329 H 36.2723 -4.11468 5.61843 0
M  V30 330 H 33.8993 -4.22384 6.32057 0
M  V30 331 N 35.4744 -0.807222 -1.35358 0
M  V30 332 C 36.4044 -0.232509 -2.3234 0
M  V30 333 C 37.3854 0.642386 -1.57504 0
M  V30 334 O 38.5704 0.572526 -1.85569 0
M  V30 335 C 35.7004 0.619238 -3.41735 0
M  V30 336 C 34.6544 -0.157215 -4.27711 0
M  V30 337 C 33.9804 0.816273 -5.28433 0
M  V30 338 C 35.2804 -1.35656 -5.04376 0
M  V30 339 H 36.9744 -1.04276 -2.80654 0
M  V30 340 H 34.5204 -0.50288 -1.34934 0
M  V30 341 H 36.4734 1.03137 -4.08584 0
M  V30 342 H 35.1974 1.46239 -2.92031 0
M  V30 343 H 33.8564 -0.550525 -3.62443 0
M  V30 344 H 33.5044 1.65494 -4.74996 0
M  V30 345 H 33.2044 0.301067 -5.86828 0
M  V30 346 H 34.7284 1.22659 -5.98153 0
M  V30 347 H 36.1424 -1.01927 -5.64166 0
M  V30 348 H 34.5394 -1.8063 -5.7227 0
M  V30 349 H 35.6094 -2.14288 -4.34981 0
M  V30 350 N 36.9525 1.47285 -0.560781 0
M  V30 351 C 38.2295 1.9558 0.0277798 0
M  V30 352 C 38.6095 1.5034 1.48192 0
M  V30 353 O 37.9575 0.743882 2.16052 0
M  V30 354 C 38.1675 3.48789 -0.121418 0
M  V30 355 C 39.5155 4.24594 0.0220912 0
M  V30 356 O 40.5395 3.56166 -0.0491439 0
M  V30 357 O 39.3985 5.46217 0.175958 0
M  V30 358 H 36.4925 0.824663 0.0621342 0
M  V30 359 H 39.0385 1.5767 -0.627556 0
M  V30 360 H 37.8105 3.74533 -1.13316 0
M  V30 361 H 37.4335 3.93473 0.571366 0
M  V30 362 N 38.4306 0.297415 1.54768 0
M  V30 363 C 39.6796 -0.313669 1.99246 0
M  V30 364 C 39.9926 -1.55281 1.18942 0
M  V30 365 O 41.1986 -2.23825 1.5367 0
M  V30 366 C 39.6546 -0.609407 3.54703 0
M  V30 367 C 39.2626 0.611192 4.43811 0
M  V30 368 C 41.0066 -1.18188 4.07715 0
M  V30 369 C 38.9136 0.288805 5.90694 0
M  V30 370 H 37.8436 -0.120979 0.744231 0
M  V30 371 H 40.4946 0.40556 1.78962 0
M  V30 372 H 38.8766 -1.38813 3.70873 0
M  V30 373 H 40.0506 1.3875 4.39414 0
M  V30 374 H 38.3656 1.10205 4.01552 0
M  V30 375 H 40.9626 -1.43727 5.15021 0
M  V30 376 H 41.3056 -2.12299 3.58099 0
M  V30 377 H 41.8386 -0.464944 3.95074 0
M  V30 378 H 38.5776 1.19838 6.44453 0
M  V30 379 H 38.0976 -0.450305 5.98107 0
M  V30 380 H 39.7766 -0.110933 6.46905 0
M  V30 381 N 39.9087 -1.5758 0.0250728 0
M  V30 382 C 41.1577 -1.90811 -0.653767 0
M  V30 383 C 41.4707 -0.90273 -1.73523 0
M  V30 384 O 42.6767 -1.12614 -2.47043 0
M  V30 385 C 41.1327 -3.38804 -1.21409 0
M  V30 386 C 40.7407 -4.47692 -0.166126 0
M  V30 387 C 42.4847 -3.81108 -1.86967 0
M  V30 388 C 40.3917 -5.86779 -0.737856 0
M  V30 389 H 39.3217 -0.712063 -0.247956 0
M  V30 390 H 41.9727 -1.83281 0.0897137 0
M  V30 391 H 40.3547 -3.41252 -2.00905 0
M  V30 392 H 41.5287 -4.56797 0.606079 0
M  V30 393 H 39.8437 -4.14565 0.390466 0
M  V30 394 H 42.4407 -4.82375 -2.30692 0
M  V30 395 H 42.7837 -3.15953 -2.71071 0
M  V30 396 H 43.3167 -3.81065 -1.14167 0
M  V30 397 H 40.0557 -6.55468 0.0649577 0
M  V30 398 H 39.5757 -5.81288 -1.47864 0
M  V30 399 H 41.2547 -6.35223 -1.22884 0
M  V30 400 N 41.3868 0.248026 -1.55636 0
M  V30 401 C 42.6148 0.993808 -1.81469 0
M  V30 402 C 43.0298 1.78991 -0.60064 0
M  V30 403 O 42.3868 1.77345 0.430682 0
M  V30 404 C 42.4378 1.93258 -3.05506 0
M  V30 405 O 42.1588 1.16869 -4.22224 0
M  V30 406 C 43.6598 2.79444 -3.4413 0
M  V30 407 H 40.8798 0.292486 -0.603898 0
M  V30 408 H 43.4238 0.271253 -2.02693 0
M  V30 409 H 41.5788 2.60943 -2.86335 0
M  V30 410 H 41.9928 1.80359 -4.92515 0
M  V30 411 H 43.4668 3.41066 -4.34026 0
M  V30 412 H 43.9438 3.50499 -2.64665 0
M  V30 413 H 44.5498 2.17214 -3.65648 0
M  V30 414 N 42.8649 1.48995 0.513639 0
M  V30 415 C 44.0949 1.61297 1.291 0
M  V30 416 C 44.5029 0.278656 1.87137 0
M  V30 417 O 43.8459 -0.744325 1.67945 0
M  V30 418 C 43.9079 2.61326 2.46879 0
M  V30 419 C 43.5719 4.05993 2.09807 0
M  V30 420 C 44.5689 4.93183 1.64519 0
M  V30 421 C 42.2539 4.51642 2.19829 0
M  V30 422 C 44.2479 6.24056 1.2974 0
M  V30 423 C 41.9349 5.82532 1.84662 0
M  V30 424 C 42.9329 6.68562 1.3969 0
M  V30 425 O 42.6209 7.97014 1.04992 0
M  V30 426 H 42.3529 0.546236 0.39825 0
M  V30 427 H 44.9069 1.95673 0.62459 0
M  V30 428 H 43.1369 2.22104 3.16554 0
M  V30 429 H 44.8259 2.6329 3.08923 0
M  V30 430 H 45.5919 4.59147 1.56233 0
M  V30 431 H 41.4709 3.84855 2.53786 0
M  V30 432 H 45.0149 6.91161 0.945659 0
M  V30 433 H 40.9119 6.16099 1.92594 0
M  V30 434 H 41.6799 8.09913 1.18249 0
M  V30 435 N 44.343 -0.763751 1.37857 0
M  V30 436 C 45.273 -1.89103 1.36975 0
M  V30 437 C 46.254 -1.68439 0.237152 0
M  V30 438 O 47.439 -1.8918 0.438713 0
M  V30 439 C 44.569 -3.26496 1.18395 0
M  V30 440 C 43.523 -3.61741 2.28751 0
M  V30 441 C 42.849 -4.97762 1.95286 0
M  V30 442 C 44.149 -3.67665 3.70972 0
M  V30 443 H 45.843 -1.90099 2.31307 0
M  V30 444 H 43.389 -0.91319 1.11341 0
M  V30 445 H 45.342 -4.05003 1.16406 0
M  V30 446 H 44.066 -3.25955 0.205215 0
M  V30 447 H 42.725 -2.85547 2.29909 0
M  V30 448 H 42.373 -4.93769 0.959221 0
M  V30 449 H 42.073 -5.22313 2.69189 0
M  V30 450 H 43.597 -5.7866 1.94898 0
M  V30 451 H 45.011 -4.36307 3.719 0
M  V30 452 H 43.408 -4.03718 4.43995 0
M  V30 453 H 44.478 -2.68134 4.0402 0
M  V30 454 N 45.8211 -1.22559 -0.990812 0
M  V30 455 C 47.0671 -1.05297 -1.73322 0
M  V30 456 C 47.4001 0.410655 -1.89808 0
M  V30 457 O 46.6751 1.30439 -1.44277 0
M  V30 458 C 46.9581 -1.76713 -3.13759 0
M  V30 459 C 46.8111 -3.30684 -3.04907 0
M  V30 460 C 48.1301 -1.52121 -4.12974 0
M  V30 461 H 45.2491 -0.38392 -0.629106 0
M  V30 462 H 47.8911 -1.50926 -1.15418 0
M  V30 463 H 46.0411 -1.37924 -3.63193 0
M  V30 464 H 47.7131 -3.7893 -2.63077 0
M  V30 465 H 45.9561 -3.60253 -2.41661 0
M  V30 466 H 46.6271 -3.75833 -4.04294 0
M  V30 467 H 49.1031 -1.85819 -3.72304 0
M  V30 468 H 47.9791 -2.04582 -5.0935 0
M  V30 469 H 48.2401 -0.454257 -4.3976 0
M  V30 470 N 47.2992 1.18797 -1.03562 0
M  V30 471 C 48.5462 1.8865 -0.736023 0
M  V30 472 C 48.8742 1.80041 0.735889 0
M  V30 473 O 48.1292 1.19179 1.55225 0
M  V30 474 C 48.4282 3.38692 -1.14117 0
M  V30 475 C 48.0942 3.67504 -2.6125 0
M  V30 476 C 46.7562 3.75078 -3.01447 0
M  V30 477 C 49.1082 3.80293 -3.56408 0
M  V30 478 C 46.4362 3.92915 -4.35701 0
M  V30 479 C 48.7882 3.99645 -4.90374 0
M  V30 480 C 47.4522 4.05453 -5.30249 0
M  V30 481 H 46.7222 0.690321 -0.26933 0
M  V30 482 H 49.3692 1.40641 -1.29971 0
M  V30 483 H 47.6742 3.88645 -0.496202 0
M  V30 484 H 49.3712 3.91072 -0.886789 0
M  V30 485 H 45.9612 3.62223 -2.29113 0
M  V30 486 H 50.1452 3.73779 -3.26501 0
M  V30 487 H 45.4012 3.95653 -4.66121 0
M  V30 488 H 49.5752 4.08482 -5.64017 0
M  V30 489 H 47.2022 4.19027 -6.34288 0
M  V30 490 N 48.7773 0.814389 1.34928 0
M  V30 491 C 49.7403 0.235759 2.27984 0
M  V30 492 C 50.7403 -0.581412 1.49921 0
M  V30 493 O 51.9303 -0.398758 1.69575 0
M  V30 494 C 49.0623 -0.670433 3.34242 0
M  V30 495 H 50.2553 1.05659 2.80671 0
M  V30 496 H 47.8083 0.585614 1.44915 0
M  V30 497 H 48.5433 -1.51466 2.86755 0
M  V30 498 H 48.3283 -0.0860822 3.92005 0
M  V30 499 H 49.8183 -1.06935 4.03676 0
M  V30 500 N 50.2554 -1.46986 0.568584 0
M  V30 501 C 51.5014 -2.02741 0.0488709 0
M  V30 502 C 51.8344 -1.44077 -1.30214 0
M  V30 503 O 51.1094 -0.600552 -1.84996 0
M  V30 504 C 51.3924 -3.60086 -0.032047 0
M  V30 505 C 51.2454 -4.29162 1.34686 0
M  V30 506 C 52.5644 -4.33838 -0.739798 0
M  V30 507 H 49.6834 -0.736749 0.0192338 0
M  V30 508 H 52.3254 -1.75289 0.733065 0
M  V30 509 H 50.4754 -3.83606 -0.61473 0
M  V30 510 H 52.1474 -4.16948 1.97362 0
M  V30 511 H 50.3904 -3.89073 1.91846 0
M  V30 512 H 51.0614 -5.37826 1.24285 0
M  V30 513 H 53.5374 -4.15378 -0.244939 0
M  V30 514 H 52.4134 -5.43537 -0.765406 0
M  V30 515 H 52.6744 -4.03875 -1.79827 0
M  V30 516 N 51.7335 -0.305618 -1.54608 0
M  V30 517 C 52.9615 0.304775 -2.04643 0
M  V30 518 C 53.3765 1.47167 -1.18268 0
M  V30 519 O 52.7335 1.81296 -0.209328 0
M  V30 520 C 52.7845 0.756564 -3.53495 0
M  V30 521 O 52.5055 -0.36389 -4.36586 0
M  V30 522 C 54.0065 1.43163 -4.19546 0
M  V30 523 H 51.2265 0.0655481 -0.667791 0
M  V30 524 H 53.7705 -0.446592 -1.99564 0
M  V30 525 H 51.9255 1.45794 -3.58919 0
M  V30 526 H 52.3395 -0.0113121 -5.24499 0
M  V30 527 H 53.8135 1.69886 -5.25207 0
M  V30 528 H 54.2905 2.37318 -3.69563 0
M  V30 529 H 54.8965 0.773307 -4.18211 0
M  V30 530 N 53.2116 1.57565 -0.0334293 0
M  V30 531 C 54.4586 1.91978 0.644272 0
M  V30 532 C 54.7866 0.910231 1.71887 0
M  V30 533 O 54.0416 -0.0801961 1.95536 0
M  V30 534 C 54.3406 3.33112 1.29504 0
M  V30 535 C 54.0066 4.49537 0.350388 0
M  V30 536 C 52.6686 4.81115 0.0903974 0
M  V30 537 C 55.0206 5.20347 -0.298032 0
M  V30 538 C 52.3486 5.8086 -0.825746 0
M  V30 539 C 54.7006 6.2107 -1.20226 0
M  V30 540 C 53.3646 6.51088 -1.4711 0
M  V30 541 H 52.6346 0.702496 0.235756 0
M  V30 542 H 55.2816 1.91259 -0.0961176 0
M  V30 543 H 53.5866 3.30113 2.11028 0
M  V30 544 H 55.2836 3.57011 1.82603 0
M  V30 545 H 51.8736 4.24883 0.563205 0
M  V30 546 H 56.0576 4.96178 -0.110234 0
M  V30 547 H 51.3136 6.02461 -1.04169 0
M  V30 548 H 55.4876 6.75057 -1.71086 0
M  V30 549 H 53.1146 7.28193 -2.18264 0
M  V30 550 N 54.6897 -0.239769 1.55765 0
M  V30 551 C 55.9357 -0.968234 1.78194 0
M  V30 552 C 56.2687 -1.84701 0.599938 0
M  V30 553 O 55.5437 -1.9031 -0.401524 0
M  V30 554 C 55.8267 -1.8227 3.10564 0
M  V30 555 C 55.6797 -0.971633 4.3918 0
M  V30 556 C 56.9987 -2.80388 3.39221 0
M  V30 557 H 54.1177 -0.350572 0.648281 0
M  V30 558 H 56.7597 -0.238259 1.885 0
M  V30 559 H 54.9097 -2.44507 3.01908 0
M  V30 560 H 56.5817 -0.367408 4.59835 0
M  V30 561 H 54.8247 -0.276276 4.32919 0
M  V30 562 H 55.4957 -1.60346 5.28198 0
M  V30 563 H 57.9717 -2.28287 3.47885 0
M  V30 564 H 56.8477 -3.3729 4.33044 0
M  V30 565 H 57.1087 -3.57212 2.60484 0
M  V30 566 N 56.1678 -1.49265 -0.50573 0
M  V30 567 C 57.0978 -1.68495 -1.61653 0
M  V30 568 C 58.0788 -0.53366 -1.61512 0
M  V30 569 O 59.2638 -0.76897 -1.78327 0
M  V30 570 C 56.3938 -1.74709 -3.00157 0
M  V30 571 C 55.3478 -2.89581 -3.15162 0
M  V30 572 C 54.6738 -2.80903 -4.5497 0
M  V30 573 C 55.9738 -4.30578 -2.95634 0
M  V30 574 H 57.6678 -2.61493 -1.45814 0
M  V30 575 H 55.2138 -1.25838 -0.70005 0
M  V30 576 H 57.1668 -1.86748 -3.77761 0
M  V30 577 H 55.8908 -0.783067 -3.17074 0
M  V30 578 H 54.5498 -2.77136 -2.39982 0
M  V30 579 H 54.1978 -1.82419 -4.68756 0
M  V30 580 H 53.8978 -3.57999 -4.65951 0
M  V30 581 H 55.4218 -2.94944 -5.34641 0
M  V30 582 H 56.8358 -4.4373 -3.63011 0
M  V30 583 H 55.2328 -5.0886 -3.18091 0
M  V30 584 H 56.3028 -4.45352 -1.91806 0
M  V30 585 N 57.6459 0.756429 -1.3826 0
M  V30 586 C 58.8939 1.51248 -1.34047 0
M  V30 587 C 59.2149 1.94875 0.0698372 0
M  V30 588 O 58.4849 1.67436 1.01696 0
M  V30 589 H 57.0649 0.561018 -0.493222 0
M  V30 590 H 59.7269 0.899347 -1.7291 0
M  V30 591 H 58.8229 2.40472 -1.98947 0
M  V30 592 N 59.124 1.23083 0.984299 0
M  V30 593 C 60.37 1.06214 1.72761 0
M  V30 594 C 60.703 -0.400584 1.90024 0
M  V30 595 O 59.978 -1.29672 1.44967 0
M  V30 596 C 60.261 1.78375 3.12817 0
M  V30 597 C 60.114 3.32296 3.03149 0
M  V30 598 C 61.433 1.54309 4.12161 0
M  V30 599 H 58.552 0.387251 0.627061 0
M  V30 600 H 61.194 1.51536 1.14616 0
M  V30 601 H 59.344 1.39848 3.62457 0
M  V30 602 H 61.016 3.8032 2.61064 0
M  V30 603 H 59.259 3.6153 2.39747 0
M  V30 604 H 59.93 3.77972 4.02295 0
M  V30 605 H 62.406 1.87791 3.71314 0
M  V30 606 H 61.282 2.07281 5.08258 0
M  V30 607 H 61.543 0.477572 4.39513 0
M  V30 608 N 60.6021 -1.18246 1.0419 0
M  V30 609 C 61.5321 -2.24127 0.654914 0
M  V30 610 C 62.5131 -1.66617 -0.342451 0
M  V30 611 O 63.6981 -1.92924 -0.222277 0
M  V30 612 C 60.8281 -3.47295 0.0183757 0
M  V30 613 C 59.7821 -4.17563 0.939414 0
M  V30 614 C 59.1081 -5.34438 0.167286 0
M  V30 615 C 60.4081 -4.70917 2.25908 0
M  V30 616 H 62.1021 -2.56753 1.54007 0
M  V30 617 H 59.6481 -1.23414 0.74195 0
M  V30 618 H 61.6011 -4.20572 -0.264082 0
M  V30 619 H 60.3251 -3.13907 -0.901664 0
M  V30 620 H 58.9841 -3.46186 1.20628 0
M  V30 621 H 58.6321 -4.97298 -0.7552 0
M  V30 622 H 58.3321 -5.82388 0.780901 0
M  V30 623 H 59.8561 -6.10504 -0.108125 0
M  V30 624 H 61.2701 -5.35882 2.03724 0
M  V30 625 H 59.6671 -5.29406 2.82577 0
M  V30 626 H 60.7371 -3.88272 2.9047 0
M  V30 627 N 62.0802 -0.821533 -1.34494 0
M  V30 628 C 63.3282 -0.408139 -1.97936 0
M  V30 629 C 63.6492 1.03193 -1.65457 0
M  V30 630 O 62.9192 1.71622 -0.944595 0
M  V30 631 H 61.4992 -0.147928 -0.732206 0
M  V30 632 H 64.1612 -1.05067 -1.64155 0
M  V30 633 H 63.2572 -0.52601 -3.07635 0
M  V30 634 N 63.5583 1.46682 -0.576371 0
M  V30 635 C 64.5063 2.31953 0.17335 0
M  V30 636 C 65.5003 1.44098 0.89062 0
M  V30 637 O 66.7063 1.60759 0.809728 0
M  V30 638 H 63.0813 0.748273 0.0747727 0
M  V30 639 H 65.0523 2.93007 -0.564738 0
M  V30 640 C 63.8013 3.27142 1.17786 0
M  V30 641 H 63.1243 3.94719 0.635361 0
M  V30 642 H 64.5643 3.896 1.67296 0
M  V30 643 C 63.0233 2.52036 2.23561 0
M  V30 644 O 63.5533 2.27877 3.3081 0
M  V30 645 N 61.7593 2.12709 1.97998 0
M  V30 646 H 61.3063 2.32557 1.10792 0
M  V30 647 H 61.2643 1.62776 2.68982 0
M  V30 648 N 65.0364 0.313813 1.54444 0
M  V30 649 C 66.2844 -0.291099 1.99993 0
M  V30 650 C 66.6054 -1.53418 1.20366 0
M  V30 651 O 65.8754 -1.93544 0.302927 0
M  V30 652 H 64.4554 -0.110552 0.738774 0
M  V30 653 H 67.1174 0.428106 1.9014 0
M  V30 654 H 66.2134 -0.554268 3.07139 0
M  V30 655 N 66.5145 -1.57545 0.0417849 0
M  V30 656 C 67.4445 -2.14009 -0.933929 0
M  V30 657 C 68.4255 -1.05938 -1.33083 0
M  V30 658 O 69.6105 -1.33833 -1.40721 0
M  V30 659 C 66.7405 -2.67747 -2.21199 0
M  V30 660 C 65.6945 -3.80718 -1.95544 0
M  V30 661 C 65.0205 -4.20935 -3.29724 0
M  V30 662 C 66.3205 -5.06258 -1.28452 0
M  V30 663 H 68.0145 -2.95788 -0.463645 0
M  V30 664 H 65.5605 -1.42285 -0.221573 0
M  V30 665 H 67.5135 -3.05886 -2.89848 0
M  V30 666 H 66.2375 -1.83147 -2.70416 0
M  V30 667 H 64.8965 -3.43037 -1.2931 0
M  V30 668 H 64.5445 -3.33298 -3.76724 0
M  V30 669 H 64.2445 -4.9707 -3.13361 0
M  V30 670 H 65.7685 -4.61666 -3.9962 0
M  V30 671 H 67.1825 -5.41903 -1.8712 0
M  V30 672 H 65.5795 -5.87475 -1.22445 0
M  V30 673 H 66.6495 -4.84207 -0.259219 0
M  V30 674 N 67.9926 0.231505 -1.5589 0
M  V30 675 C 69.2386 0.95877 -1.78705 0
M  V30 676 C 69.5716 1.8438 -0.609725 0
M  V30 677 O 68.8466 1.90521 0.391426 0
M  V30 678 C 69.1296 1.8062 -3.11526 0
M  V30 679 C 68.9826 0.948328 -4.39689 0
M  V30 680 C 70.3016 2.78585 -3.40703 0
M  V30 681 H 67.4206 0.347129 -0.650131 0
M  V30 682 H 70.0626 0.228259 -1.88624 0
M  V30 683 H 68.2126 2.42902 -3.03201 0
M  V30 684 H 69.8846 0.343016 -4.60023 0
M  V30 685 H 68.1276 0.253314 -4.3306 0
M  V30 686 H 68.7986 1.57543 -5.29041 0
M  V30 687 H 71.2746 2.26439 -3.49091 0
M  V30 688 H 70.1506 3.34988 -4.34826 0
M  V30 689 H 70.4116 3.55825 -2.62375 0
M  V30 690 N 69.4707 1.49531 0.497807 0
M  V30 691 C 70.7197 1.58426 1.24837 0
M  V30 692 C 71.0327 0.277643 1.93619 0
M  V30 693 O 72.2387 0.24517 2.70391 0
M  V30 694 C 70.6947 2.79538 2.26686 0
M  V30 695 C 70.3027 4.16971 1.63828 0
M  V30 696 C 72.0467 2.97764 3.0255 0
M  V30 697 C 69.9537 5.29301 2.63807 0
M  V30 698 H 68.8837 0.58989 0.469623 0
M  V30 699 H 71.5347 1.75923 0.521857 0
M  V30 700 H 69.9167 2.55542 3.02514 0
M  V30 701 H 71.0907 4.51116 0.939711 0
M  V30 702 H 69.4057 4.04129 1.00342 0
M  V30 703 H 72.0027 3.78856 3.77323 0
M  V30 704 H 72.3457 2.08448 3.60354 0
M  V30 705 H 72.8787 3.21815 2.33838 0
M  V30 706 H 69.6177 6.20687 2.10779 0
M  V30 707 H 69.1377 4.99606 3.31894 0
M  V30 708 H 70.8167 5.58768 3.2617 0
M  V30 709 N 70.9488 -0.749086 1.3866 0
M  V30 710 C 72.1948 -1.50959 1.36319 0
M  V30 711 C 72.5498 -1.92347 -0.0452451 0
M  V30 712 O 71.8428 -1.6289 -1.00884 0
M  V30 713 C 72.0368 -2.7712 2.25697 0
M  V30 714 C 71.8658 -2.48067 3.7509 0
M  V30 715 C 70.6358 -2.41062 4.44091 0
M  V30 716 C 72.8338 -2.14544 4.67414 0
M  V30 717 N 70.8158 -2.04331 5.78897 0
M  V30 718 C 72.1868 -1.88141 5.90765 0
M  V30 719 C 74.2418 -2.00892 4.55573 0
M  V30 720 C 72.9448 -1.49463 7.036 0
M  V30 721 C 74.9708 -1.63616 5.68317 0
M  V30 722 C 74.3328 -1.38088 6.90732 0
M  V30 723 H 70.4318 -0.551804 0.554108 0
M  V30 724 H 73.0158 -0.871886 1.74087 0
M  V30 725 H 71.1868 -3.38693 1.9011 0
M  V30 726 H 72.9188 -3.4321 2.1445 0
M  V30 727 H 69.6738 -2.57685 3.9736 0
M  V30 728 H 70.0978 -1.88598 6.502 0
M  V30 729 H 74.7398 -2.19301 3.61479 0
M  V30 730 H 72.4578 -1.29794 7.97608 0
M  V30 731 H 76.0438 -1.53678 5.61137 0
M  V30 732 H 74.9238 -1.09674 7.76493 0
M  V30 733 N 72.4269 -1.23603 -0.977757 0
M  V30 734 C 73.6729 -1.07129 -1.72195 0
M  V30 735 C 74.0059 0.390501 -1.90233 0
M  V30 736 O 73.2809 1.28902 -1.45653 0
M  V30 737 C 73.5639 -1.80031 -3.11867 0
M  V30 738 C 73.4169 -3.33899 -3.01383 0
M  V30 739 C 74.7359 -1.56492 -4.11337 0
M  V30 740 H 71.8549 -0.390571 -0.624999 0
M  V30 741 H 74.4969 -1.52142 -1.13811 0
M  V30 742 H 72.6469 -1.41768 -3.6171 0
M  V30 743 H 74.3189 -3.81699 -2.59043 0
M  V30 744 H 72.5619 -3.62796 -2.37827 0
M  V30 745 H 73.2329 -3.801 -4.00285 0
M  V30 746 H 75.7089 -1.89757 -3.70313 0
M  V30 747 H 74.5849 -2.09973 -5.07151 0
M  V30 748 H 74.8459 -0.500874 -4.39254 0
M  V30 749 N 73.905 1.17692 -1.04816 0
M  V30 750 C 74.868 2.19787 -0.650117 0
M  V30 751 C 75.868 1.58044 0.296427 0
M  V30 752 O 77.058 1.74012 0.0808097 0
M  V30 753 C 74.19 3.40869 0.0456987 0
M  V30 754 H 75.383 2.56516 -1.5537 0
M  V30 755 H 72.936 1.31708 -0.841594 0
M  V30 756 H 73.671 3.09681 0.962726 0
M  V30 757 H 73.456 3.86928 -0.634727 0
M  V30 758 H 74.946 4.16445 0.310432 0
M  V30 759 N 75.3831 0.828654 1.34056 0
M  V30 760 C 76.6311 0.41863 1.97717 0
M  V30 761 C 76.9521 -1.02314 1.66002 0
M  V30 762 O 76.2221 -1.71119 0.953683 0
M  V30 763 H 74.8021 0.151809 0.731412 0
M  V30 764 H 77.4641 1.05936 1.63596 0
M  V30 765 H 76.5601 0.542318 3.07352 0
M  V30 766 N 76.8612 -1.46375 0.584142 0
M  V30 767 C 78.1082 -2.02378 0.0702675 0
M  V30 768 C 78.4362 -1.45545 -1.29023 0
M  V30 769 O 77.6912 -0.610967 -1.85918 0
M  V30 770 C 77.9902 -3.57373 -0.0439342 0
M  V30 771 C 77.6562 -4.33252 1.24915 0
M  V30 772 C 76.3182 -4.53701 1.60341 0
M  V30 773 C 78.6702 -4.7681 2.1048 0
M  V30 774 C 75.9982 -5.1496 2.81128 0
M  V30 775 C 78.3502 -5.39404 3.30494 0
M  V30 776 C 77.0142 -5.5808 3.66201 0
M  V30 777 H 76.2842 -0.740554 0.0257127 0
M  V30 778 H 78.9312 -1.75727 0.761065 0
M  V30 779 H 77.2362 -3.83169 -0.817869 0
M  V30 780 H 78.9332 -3.98384 -0.457318 0
M  V30 781 H 75.5232 -4.17633 0.963364 0
M  V30 782 H 79.7072 -4.60766 1.84414 0
M  V30 783 H 74.9632 -5.27611 3.08928 0
M  V30 784 H 79.1372 -5.72114 3.97063 0
M  V30 785 H 76.7642 -6.05318 4.59885 0
M  V30 786 N 78.3393 -0.321999 -1.54275 0
M  V30 787 C 79.7553 0.0306999 -1.5957 0
M  V30 788 C 79.9553 1.50614 -1.33857 0
M  V30 789 O 79.0113 2.2619 -1.12223 0
M  V30 790 C 80.3243 -0.386122 -2.98211 0
M  V30 791 C 81.8723 -0.336647 -3.11184 0
M  V30 792 C 82.3473 -0.728607 -4.52167 0
M  V30 793 N 83.8383 -0.681952 -4.58152 0
M  V30 794 C 84.5733 -0.957449 -5.6535 0
M  V30 795 N 84.0693 -1.3 -6.80494 0
M  V30 796 N 85.8623 -0.883113 -5.55119 0
M  V30 797 H 78.0133 -1.28332 -1.69247 0
M  V30 798 H 80.2763 -0.521716 -0.791528 0
M  V30 799 H 79.9823 -1.41404 -3.22022 0
M  V30 800 H 79.8563 0.249662 -3.76373 0
M  V30 801 H 82.2433 0.682058 -2.8711 0
M  V30 802 H 82.3243 -1.00734 -2.3513 0
M  V30 803 H 81.9683 -1.74522 -4.76974 0
M  V30 804 H 81.8983 -0.0356152 -5.26588 0
M  V30 805 H 84.3893 -0.428985 -3.75457 0
M  V30 806 H 84.7023 -1.49563 -7.58189 0
M  V30 807 H 83.0473 -1.33824 -6.81994 0
M  V30 808 H 86.2383 -0.615001 -4.64042 0
M  V30 809 H 86.4113 -1.10118 -6.38575 0
M  V30 810 N 79.8174 1.5752 -0.0501392 0
M  V30 811 C 80.7504 2.07026 0.959962 0
M  V30 812 C 81.7284 0.970539 1.30458 0
M  V30 813 O 82.9124 1.2424 1.41763 0
M  V30 814 C 80.0394 2.5099 2.27424 0
M  V30 815 C 79.0854 3.72188 2.08275 0
M  V30 816 S 79.9184 5.17888 1.36207 0
M  V30 817 C 81.0744 5.65165 2.6896 0
M  V30 818 H 81.3074 2.9238 0.538631 0
M  V30 819 H 78.8404 1.53547 0.162099 0
M  V30 820 H 80.7984 2.76982 3.02971 0
M  V30 821 H 79.4594 1.65944 2.66686 0
M  V30 822 H 78.6524 4.00866 3.05487 0
M  V30 823 H 78.2544 3.46457 1.40868 0
M  V30 824 H 80.5464 5.70687 3.65133 0
M  V30 825 H 81.4894 6.64394 2.4492 0
M  V30 826 H 81.8974 4.9289 2.75172 0
M  V30 827 N 81.2955 -0.223234 1.56011 0
M  V30 828 C 82.5235 -0.964812 1.83027 0
M  V30 829 C 82.9385 -1.78013 0.62904 0
M  V30 830 O 82.2955 -1.78008 -0.402414 0
M  V30 831 C 82.3465 -1.88373 3.08542 0
M  V30 832 O 82.0675 -1.10137 4.2403 0
M  V30 833 C 83.5685 -2.73934 3.48533 0
M  V30 834 H 80.7885 -0.282842 0.608475 0
M  V30 835 H 83.3325 -0.238971 2.03099 0
M  V30 836 H 81.4875 -2.56354 2.9045 0
M  V30 837 H 81.9015 -1.72501 4.95322 0
M  V30 838 H 83.3755 -3.34117 4.39397 0
M  V30 839 H 83.8525 -3.46244 2.70207 0
M  V30 840 H 84.4585 -2.11369 3.69057 0
M  V30 841 N 82.7736 -1.49793 -0.48987 0
M  V30 842 C 83.7236 -1.63673 -1.5873 0
M  V30 843 C 84.7076 -0.491956 -1.53195 0
M  V30 844 O 85.8996 -0.745461 -1.60536 0
M  V30 845 C 83.0286 -1.71689 -2.97284 0
M  V30 846 C 82.1146 -2.91781 -3.07774 0
M  V30 847 N 82.5056 -4.15714 -2.88124 0
M  V30 848 C 80.8036 -2.89949 -3.38889 0
M  V30 849 C 81.5046 -4.965 -3.03088 0
M  V30 850 N 80.4806 -4.30083 -3.3246 0
M  V30 851 H 84.2826 -2.57204 -1.42208 0
M  V30 852 H 81.7966 -1.46719 -0.69623 0
M  V30 853 H 83.7936 -1.79732 -3.76168 0
M  V30 854 H 82.4536 -0.793024 -3.14867 0
M  V30 855 H 83.4646 -4.45515 -2.64077 0
M  V30 856 H 80.1416 -2.06987 -3.62578 0
M  V30 857 H 81.5316 -6.04991 -2.92294 0
M  V30 858 N 84.2517 0.741722 -1.39055 0
M  V30 859 C 85.4797 1.53098 -1.39171 0
M  V30 860 C 85.8947 1.88794 0.0155099 0
M  V30 861 O 85.2517 1.53626 0.985159 0
M  V30 862 C 85.3027 2.82274 -2.2584 0
M  V30 863 O 85.0237 2.48097 -3.61081 0
M  V30 864 C 86.5247 3.76343 -2.34266 0
M  V30 865 H 83.7447 0.473335 -0.4756 0
M  V30 866 H 86.2887 0.917045 -1.82785 0
M  V30 867 H 84.4437 3.40015 -1.85656 0
M  V30 868 H 84.8577 3.31029 -4.06842 0
M  V30 869 H 86.3317 4.63898 -2.9917 0
M  V30 870 H 86.8087 4.17619 -1.35982 0
M  V30 871 H 87.4147 3.24523 -2.74891 0
M  V30 872 N 85.7298 1.2412 0.971189 0
M  V30 873 C 86.9758 1.08041 1.71625 0
M  V30 874 C 87.3088 -0.380407 1.90438 0
M  V30 875 O 86.5838 -1.28127 1.46334 0
M  V30 876 C 86.8668 1.81682 3.10908 0
M  V30 877 C 86.7198 3.35493 2.99608 0
M  V30 878 C 88.0388 1.58671 4.10501 0
M  V30 879 H 85.1578 0.39388 0.622919 0
M  V30 880 H 87.7998 1.52743 1.13003 0
M  V30 881 H 85.9498 1.43684 3.60953 0
M  V30 882 H 87.6218 3.83068 2.57015 0
M  V30 883 H 85.8648 3.64052 2.35899 0
M  V30 884 H 86.5358 3.82217 3.98264 0
M  V30 885 H 89.0118 1.91719 3.69301 0
M  V30 886 H 87.8878 2.1266 5.06031 0
M  V30 887 H 88.1488 0.524161 4.38982 0
M  V30 888 N 87.2079 -1.17134 1.05439 0
M  V30 889 C 88.4359 -1.91372 0.786414 0
M  V30 890 C 88.8509 -1.76955 -0.658202 0
M  V30 891 O 88.2079 -1.10838 -1.44987 0
M  V30 892 C 88.2589 -3.42356 1.1608 0
M  V30 893 O 87.9799 -3.56332 2.54871 0
M  V30 894 C 89.4809 -4.33663 0.919322 0
M  V30 895 H 86.7009 -0.607118 0.285743 0
M  V30 896 H 89.2449 -1.48525 1.40572 0
M  V30 897 H 87.3999 -3.82939 0.586191 0
M  V30 898 H 87.8139 -4.49896 2.69618 0
M  V30 899 H 89.2879 -5.38099 1.231 0
M  V30 900 H 89.7649 -4.38959 -0.145359 0
M  V30 901 H 90.3709 -3.98796 1.47789 0
M  V30 902 N 88.686 -0.835752 -1.33615 0
M  V30 903 C 89.914 -0.443344 -2.02094 0
M  V30 904 C 90.329 0.954522 -1.62894 0
M  V30 905 O 89.686 1.61982 -0.840723 0
M  V30 906 C 89.737 -0.550775 -3.5728 0
M  V30 907 O 89.458 -1.89356 -3.95065 0
M  V30 908 C 90.959 -0.154919 -4.43029 0
M  V30 909 H 88.179 -0.176359 -0.647409 0
M  V30 910 H 90.723 -1.12746 -1.70612 0
M  V30 911 H 88.878 0.0853997 -3.87306 0
M  V30 912 H 89.292 -1.87687 -4.89769 0
M  V30 913 H 90.766 -0.281144 -5.51284 0
M  V30 914 H 91.243 0.902863 -4.2982 0
M  V30 915 H 91.849 -0.765404 -4.18356 0
M  V30 916 N 90.1641 1.46063 -0.591896 0
M  V30 917 C 91.4131 2.01547 -0.0786637 0
M  V30 918 C 91.7261 1.46796 1.29268 0
M  V30 919 O 92.9321 1.94157 1.89777 0
M  V30 920 C 91.3881 3.59787 -0.0900024 0
M  V30 921 C 90.9961 4.23534 -1.46023 0
M  V30 922 C 92.7401 4.22895 0.368806 0
M  V30 923 C 90.6471 5.73881 -1.4288 0
M  V30 924 H 89.5771 0.753564 -0.0256388 0
M  V30 925 H 92.2281 1.677 -0.744905 0
M  V30 926 H 90.6101 3.90752 0.642586 0
M  V30 927 H 91.7841 4.04167 -2.21328 0
M  V30 928 H 90.0991 3.72558 -1.85982 0
M  V30 929 H 92.6961 5.33116 0.411258 0
M  V30 930 H 93.0391 3.9247 1.38827 0
M  V30 931 H 93.5721 3.9659 -0.31001 0
M  V30 932 H 90.3111 6.0898 -2.42536 0
M  V30 933 H 89.8311 5.95486 -0.718095 0
M  V30 934 H 91.5101 6.36776 -1.14565 0
M  V30 935 N 91.6422 0.330177 1.54103 0
M  V30 936 C 92.8672 -0.274893 2.0557 0
M  V30 937 C 93.2922 -1.44487 1.20437 0
M  V30 938 O 92.6502 -1.80021 0.214991 0
M  V30 939 C 92.6982 -0.68079 3.54115 0
M  V30 940 O 91.8022 -1.7824 3.71893 0
M  V30 941 H 91.1432 -0.0483849 0.662235 0
M  V30 942 H 93.6732 0.480508 1.98878 0
M  V30 943 H 93.6832 -0.961635 3.96505 0
M  V30 944 H 92.3582 0.174903 4.15532 0
M  V30 945 H 90.9352 -1.49985 3.41407 0
M  V30 946 N 93.1203 -1.57491 0.0584922 0
M  V30 947 C 94.3503 -1.9701 -0.622134 0
M  V30 948 C 94.7583 -0.935034 -1.6448 0
M  V30 949 O 94.1013 0.0882904 -1.83488 0
M  V30 950 C 94.1633 -3.32794 -1.35972 0
M  V30 951 C 93.8273 -4.54343 -0.492043 0
M  V30 952 C 94.8243 -5.19323 0.244901 0
M  V30 953 C 92.5093 -5.00534 -0.420821 0
M  V30 954 C 94.5033 -6.28835 1.04143 0
M  V30 955 C 92.1903 -6.09921 0.379389 0
M  V30 956 C 93.1883 -6.73933 1.10919 0
M  V30 957 O 92.8763 -7.81216 1.89623 0
M  V30 958 H 92.6083 -0.653127 -0.174359 0
M  V30 959 H 95.1623 -2.05029 0.123418 0
M  V30 960 H 93.3923 -3.21351 -2.15105 0
M  V30 961 H 95.0813 -3.5701 -1.93129 0
M  V30 962 H 95.8473 -4.8459 0.19939 0
M  V30 963 H 91.7263 -4.50496 -0.978474 0
M  V30 964 H 95.2703 -6.7873 1.61157 0
M  V30 965 H 91.1673 -6.44089 0.426512 0
M  V30 966 H 91.9353 -7.98029 1.81913 0
M  V30 967 N 94.5984 0.214957 -1.56127 0
M  V30 968 C 95.5284 1.2695 -1.95974 0
M  V30 969 C 96.5094 1.48539 -0.828868 0
M  V30 970 O 97.6944 1.60611 -1.09168 0
M  V30 971 C 94.8244 2.61794 -2.28214 0
M  V30 972 C 93.7784 2.54851 -3.43853 0
M  V30 973 C 93.1044 3.93785 -3.61715 0
M  V30 974 C 94.4044 2.09065 -4.78632 0
M  V30 975 H 96.0984 0.93846 -2.84312 0
M  V30 976 H 93.6444 0.449996 -1.36788 0
M  V30 977 H 95.5974 3.35731 -2.54682 0
M  V30 978 H 94.3214 2.96599 -1.36736 0
M  V30 979 H 92.9804 1.8337 -3.17444 0
M  V30 980 H 92.6284 4.25908 -2.67602 0
M  V30 981 H 92.3284 3.90019 -4.39498 0
M  V30 982 H 93.8524 4.69374 -3.90539 0
M  V30 983 H 95.2664 2.7275 -5.04262 0
M  V30 984 H 93.6634 2.16346 -5.59745 0
M  V30 985 H 94.7334 1.04315 -4.73547 0
M  V30 986 N 96.0765 1.50051 0.48192 0
M  V30 987 C 97.0245 1.68635 1.60203 0
M  V30 988 C 98.0185 0.552184 1.60148 0
M  V30 989 O 99.2245 0.732377 1.64427 0
M  V30 990 H 95.5995 0.532081 0.531407 0
M  V30 991 H 97.5705 2.62616 1.41688 0
M  V30 992 C 96.3195 1.78775 2.9822 0
M  V30 993 H 95.6425 2.6543 2.98976 0
M  V30 994 H 97.0825 1.95806 3.7608 0
M  V30 995 C 95.5415 0.536849 3.32595 0
M  V30 996 O 96.0715 -0.328897 4.00351 0
M  V30 997 N 94.2775 0.394091 2.87915 0
M  V30 998 H 93.8245 1.09962 2.32951 0
M  V30 999 H 93.7825 -0.441737 3.11281 0
M  V30 1000 N 97.5546 -0.734337 1.39446 0
M  V30 1001 C 98.4846 -1.86155 1.40955 0
M  V30 1002 C 99.4656 -1.67898 0.272827 0
M  V30 1003 O 100.651 -1.88207 0.478743 0
M  V30 1004 C 97.7806 -3.23912 1.25294 0
M  V30 1005 C 96.7346 -3.56808 2.36373 0
M  V30 1006 C 96.0606 -4.93508 2.058 0
M  V30 1007 C 97.3606 -3.59713 3.78687 0
M  V30 1008 H 99.0546 -1.8515 2.35287 0
M  V30 1009 H 96.6006 -0.889367 1.13253 0
M  V30 1010 H 98.5536 -4.02443 1.2497 0
M  V30 1011 H 97.2776 -3.25446 0.274308 0
M  V30 1012 H 95.9366 -2.80606 2.35914 0
M  V30 1013 H 95.5846 -4.91623 1.06374 0
M  V30 1014 H 95.2846 -5.16486 2.80208 0
M  V30 1015 H 96.8086 -5.74396 2.07128 0
M  V30 1016 H 98.2226 -4.2832 3.81071 0
M  V30 1017 H 96.6196 -3.94209 4.52459 0
M  V30 1018 H 97.6896 -2.59504 4.09617 0
M  V30 1019 N 99.0327 -1.24633 -0.964593 0
M  V30 1020 C 99.9957 -1.0424 -2.04124 0
M  V30 1021 C 100.996 0.00137563 -1.608 0
M  V30 1022 O 102.186 -0.239883 -1.7254 0
M  V30 1023 C 99.3177 -0.580588 -3.3592 0
M  V30 1024 H 100.511 -1.99803 -2.23649 0
M  V30 1025 H 98.0637 -1.06899 -1.14027 0
M  V30 1026 H 98.7987 0.3781 -3.22088 0
M  V30 1027 H 98.5837 -1.33398 -3.6871 0
M  V30 1028 H 100.074 -0.459034 -4.15069 0
M  V30 1029 N 100.511 1.16574 -1.06058 0
M  V30 1030 C 101.757 1.87324 -0.777022 0
M  V30 1031 C 102.09 1.81351 0.694645 0
M  V30 1032 O 101.365 1.22753 1.50871 0
M  V30 1033 C 101.648 3.36991 -1.26922 0
M  V30 1034 C 101.501 3.51667 -2.80447 0
M  V30 1035 C 102.82 4.3131 -0.87521 0
M  V30 1036 H 99.9388 0.680191 -0.28374 0
M  V30 1037 H 102.581 1.37036 -1.3161 0
M  V30 1038 H 100.731 3.79949 -0.81063 0
M  V30 1039 H 102.403 3.17664 -3.34495 0
M  V30 1040 H 100.646 2.93656 -3.19294 0
M  V30 1041 H 101.317 4.56766 -3.0995 0
M  V30 1042 H 103.793 3.9624 -1.27014 0
M  V30 1043 H 102.669 5.34545 -1.2471 0
M  V30 1044 H 102.93 4.41552 0.220071 0
M  V30 1045 N 101.989 0.842826 1.3317 0
M  V30 1046 C 102.952 0.284065 2.27433 0
M  V30 1047 C 103.952 -0.54948 1.5112 0
M  V30 1048 O 105.142 -0.362699 1.70382 0
M  V30 1049 C 102.274 -0.599384 3.35589 0
M  V30 1050 H 103.467 1.11589 2.78366 0
M  V30 1051 H 101.02 0.616221 1.4364 0
M  V30 1052 H 101.755 -1.45349 2.89904 0
M  V30 1053 H 101.54 -0.00291266 3.921 0
M  V30 1054 H 103.03 -0.983488 4.05854 0
M  V30 1055 N 103.467 -1.45747 0.599634 0
M  V30 1056 C 104.744 -1.95585 0.0240846 0
M  V30 1057 C 105.124 -1.54217 -1.44154 0
M  V30 1058 O 104.472 -0.800903 -2.14004 0
M  V30 1059 C 104.682 -3.48344 0.21385 0
M  V30 1060 C 106.03 -4.24504 0.0904902 0
M  V30 1061 O 107.054 -3.55911 0.143558 0
M  V30 1062 O 105.913 -5.46491 -0.0310766 0
M  V30 1063 H 103.007 -0.82602 -0.0402478 0
M  V30 1064 H 105.553 -1.55951 0.669139 0
M  V30 1065 H 104.325 -3.71397 1.23206 0
M  V30 1066 H 103.948 -3.9485 -0.466842 0
M  V30 1067 N 104.945 -0.338344 -1.53925 0
M  V30 1068 C 106.192 0.259758 -2.00827 0
M  V30 1069 C 106.52 1.50973 -1.22628 0
M  V30 1070 O 105.775 1.93379 -0.300509 0
M  V30 1071 C 106.074 0.62448 -3.51902 0
M  V30 1072 C 105.74 -0.528006 -4.47798 0
M  V30 1073 C 104.402 -0.844298 -4.73735 0
M  V30 1074 C 106.754 -1.30143 -5.0469 0
M  V30 1075 C 104.082 -1.93648 -5.53821 0
M  V30 1076 C 106.434 -2.38382 -5.85967 0
M  V30 1077 C 105.098 -2.70576 -6.10201 0
M  V30 1078 H 104.368 0.0950523 -0.734878 0
M  V30 1079 H 107.015 -0.465182 -1.85764 0
M  V30 1080 H 105.32 1.43006 -3.64769 0
M  V30 1081 H 107.017 1.09905 -3.85645 0
M  V30 1082 H 103.607 -0.271421 -4.2774 0
M  V30 1083 H 107.791 -1.07033 -4.84621 0
M  V30 1084 H 103.047 -2.19021 -5.70824 0
M  V30 1085 H 107.221 -2.98746 -6.29066 0
M  V30 1086 H 104.848 -3.55333 -6.72044 0
M  V30 1087 N 106.423 1.57458 -0.0668435 0
M  V30 1088 C 107.663 1.95175 0.607116 0
M  V30 1089 C 108.027 0.946039 1.67075 0
M  V30 1090 O 109.228 1.2107 2.39991 0
M  V30 1091 C 107.499 3.37582 1.17358 0
M  V30 1092 S 109.058 3.97271 1.86336 0
M  V30 1093 H 105.876 0.682604 0.19893 0
M  V30 1094 H 108.478 1.95002 -0.139519 0
M  V30 1095 H 107.182 4.08566 0.387553 0
M  V30 1096 H 106.713 3.41288 1.95669 0
M  V30 1097 H 108.728 3.83772 3.14537 0
M  V30 1098 N 107.901 -0.206675 1.56239 0
M  V30 1099 C 109.148 -0.928842 1.79941 0
M  V30 1100 C 109.476 -1.83734 0.638131 0
M  V30 1101 O 108.731 -1.92039 -0.376746 0
M  V30 1102 C 109.03 -1.78675 3.09532 0
M  V30 1103 C 108.696 -1.03022 4.38973 0
M  V30 1104 C 107.358 -0.821302 4.74139 0
M  V30 1105 C 109.71 -0.497081 5.18824 0
M  V30 1106 C 107.038 -0.0675719 5.86661 0
M  V30 1107 C 109.39 0.24338 6.32132 0
M  V30 1108 C 108.054 0.463422 6.65889 0
M  V30 1109 H 107.324 -0.339887 0.658451 0
M  V30 1110 H 109.971 -0.195977 1.90495 0
M  V30 1111 H 108.276 -2.58794 2.94165 0
M  V30 1112 H 109.973 -2.34792 3.25075 0
M  V30 1113 H 106.563 -1.20306 4.11369 0
M  V30 1114 H 110.747 -0.645921 4.92079 0
M  V30 1115 H 106.003 0.112995 6.11296 0
M  V30 1116 H 110.177 0.66393 6.93228 0
M  V30 1117 H 107.804 1.04938 7.52922 0
M  V30 1118 N 109.379 -1.50304 -0.473955 0
M  V30 1119 C 110.607 -1.64902 -1.24959 0
M  V30 1120 C 111.022 -0.331198 -1.85872 0
M  V30 1121 O 110.379 0.68652 -1.69095 0
M  V30 1122 C 110.43 -2.73803 -2.36038 0
M  V30 1123 O 110.151 -4.00477 -1.77624 0
M  V30 1124 C 111.652 -2.99349 -3.26964 0
M  V30 1125 H 108.872 -0.554383 -0.378022 0
M  V30 1126 H 111.416 -1.9651 -0.566054 0
M  V30 1127 H 109.571 -2.44898 -3.00173 0
M  V30 1128 H 109.985 -4.60678 -2.5075 0
M  V30 1129 H 111.459 -3.79217 -4.01121 0
M  V30 1130 H 111.936 -2.10307 -3.85574 0
M  V30 1131 H 112.542 -3.29774 -2.68569 0
M  V30 1132 N 110.857 0.726932 -1.39834 0
M  V30 1133 C 112.082 1.52121 -1.40976 0
M  V30 1134 C 112.507 1.88098 -0.00826029 0
M  V30 1135 O 111.865 1.52479 0.980807 0
M  V30 1136 C 111.913 2.78021 -2.29644 0
M  V30 1137 O 111.017 3.74272 -1.73188 0
M  V30 1138 H 110.358 0.45908 -0.479731 0
M  V30 1139 H 112.888 0.896207 -1.83927 0
M  V30 1140 H 112.898 3.26671 -2.44438 0
M  V30 1141 H 111.573 2.51169 -3.31492 0
M  V30 1142 H 110.15 3.33073 -1.6768 0
M  V30 1143 N 112.336 1.25143 0.95797 0
M  V30 1144 C 113.564 1.12424 1.73691 0
M  V30 1145 C 113.979 -0.322304 1.86029 0
M  V30 1146 O 113.336 -1.22186 1.35561 0
M  V30 1147 C 113.387 1.76933 3.15241 0
M  V30 1148 O 113.108 3.15932 3.03511 0
M  V30 1149 C 114.609 1.6995 4.09429 0
M  V30 1150 H 111.829 0.3923 0.544373 0
M  V30 1151 H 114.373 1.6544 1.20207 0
M  V30 1152 H 112.528 1.27895 3.6568 0
M  V30 1153 H 112.942 3.47598 3.9278 0
M  V30 1154 H 114.416 2.19753 5.06372 0
M  V30 1155 H 114.893 0.662619 4.34173 0
M  V30 1156 H 115.499 2.18461 3.64904 0
M  V30 1157 N 113.814 -1.1601 1.06675 0
M  V30 1158 C 114.744 -2.22688 0.702307 0
M  V30 1159 C 115.725 -1.67306 -0.307032 0
M  V30 1160 O 116.91 -1.93352 -0.181305 0
M  V30 1161 C 114.04 -3.47178 0.092038 0
M  V30 1162 C 112.994 -4.15477 1.02777 0
M  V30 1163 C 112.32 -5.33963 0.28061 0
M  V30 1164 C 113.62 -4.66019 2.35846 0
M  V30 1165 H 115.314 -2.53429 1.59419 0
M  V30 1166 H 112.86 -1.21813 0.767961 0
M  V30 1167 H 114.813 -4.21037 -0.174814 0
M  V30 1168 H 113.537 -3.15749 -0.834877 0
M  V30 1169 H 112.196 -3.43549 1.27944 0
M  V30 1170 H 111.844 -4.98788 -0.649545 0
M  V30 1171 H 111.544 -5.806 0.904258 0
M  V30 1172 H 113.068 -6.10596 0.021396 0
M  V30 1173 H 114.482 -5.3144 2.15045 0
M  V30 1174 H 112.879 -5.23293 2.93743 0
M  V30 1175 H 113.949 -3.82023 2.98641 0
M  V30 1176 N 115.292 -0.849877 -1.32721 0
M  V30 1177 C 116.703 -0.506188 -1.79707 0
M  V30 1178 C 117.054 0.975627 -1.70223 0
M  V30 1179 O 116.179 1.76078 -1.25799 0
M  V30 1180 C 116.774 -0.912044 -3.26293 0
M  V30 1181 C 115.333 -0.620326 -3.71253 0
M  V30 1182 C 114.48 -1.11439 -2.53922 0
M  V30 1183 H 117.431 -1.03754 -1.20087 0
M  V30 1184 H 117.452 -0.226493 -3.79825 0
M  V30 1185 H 116.964 -1.99057 -3.33164 0
M  V30 1186 H 115.065 0.447674 -3.69901 0
M  V30 1187 H 115.178 -1.18327 -4.64258 0
M  V30 1188 H 113.542 -0.534834 -2.49021 0
M  V30 1189 H 114.325 -2.19992 -2.6355 0
M  V30 1190 N 116.77 1.45427 -0.607355 0
M  V30 1191 C 118.017 2.02241 -0.102455 0
M  V30 1192 C 118.345 1.4758 1.26691 0
M  V30 1193 O 117.6 0.640468 1.84923 0
M  V30 1194 C 117.899 3.57398 -0.0129263 0
M  V30 1195 C 117.565 4.3121 -1.31792 0
M  V30 1196 C 116.227 4.51092 -1.67539 0
M  V30 1197 C 118.579 4.73401 -2.18039 0
M  V30 1198 C 115.907 5.10422 -2.89285 0
M  V30 1199 C 118.259 5.34078 -3.39034 0
M  V30 1200 C 116.923 5.52184 -3.75033 0
M  V30 1201 H 116.193 0.740051 -0.037491 0
M  V30 1202 H 118.84 1.74494 -0.788926 0
M  V30 1203 H 117.145 3.84421 0.756806 0
M  V30 1204 H 118.842 3.99061 0.393881 0
M  V30 1205 H 115.432 4.16047 -1.02968 0
M  V30 1206 H 119.616 4.57774 -1.91721 0
M  V30 1207 H 114.872 5.22629 -3.17283 0
M  V30 1208 H 119.046 5.65724 -4.06115 0
M  V30 1209 H 116.673 5.97925 -4.69457 0
M  V30 1210 N 118.248 0.346503 1.53744 0
M  V30 1211 C 119.495 -0.249104 2.00962 0
M  V30 1212 C 119.823 -1.5032 1.23426 0
M  V30 1213 O 119.078 -1.93217 0.310761 0
M  V30 1214 C 119.377 -0.605809 3.52228 0
M  V30 1215 C 119.043 0.551747 4.47512 0
M  V30 1216 C 117.705 0.86941 4.73281 0
M  V30 1217 C 120.057 1.32818 5.03993 0
M  V30 1218 C 117.385 1.96582 5.52786 0
M  V30 1219 C 119.737 2.41486 5.84694 0
M  V30 1220 C 118.401 2.73808 6.08757 0
M  V30 1221 H 117.671 -0.0911538 0.735372 0
M  V30 1222 H 120.318 0.475027 1.85515 0
M  V30 1223 H 118.623 -1.4107 3.65522 0
M  V30 1224 H 120.32 -1.07858 3.86222 0
M  V30 1225 H 116.91 0.294102 4.2759 0
M  V30 1226 H 121.094 1.09602 4.84047 0
M  V30 1227 H 116.35 2.22045 5.69654 0
M  V30 1228 H 120.524 3.02078 6.27473 0
M  V30 1229 H 118.151 3.58892 6.7015 0
M  V30 1230 N 119.726 -1.57421 0.075193 0
M  V30 1231 C 120.659 -2.08528 -0.926904 0
M  V30 1232 C 121.637 -0.991171 -1.28898 0
M  V30 1233 O 122.821 -1.26479 -1.39769 0
M  V30 1234 C 119.948 -2.54576 -2.23402 0
M  V30 1235 C 118.994 -3.75454 -2.02327 0
M  V30 1236 S 119.827 -5.19989 -1.27951 0
M  V30 1237 C 120.983 -5.69372 -2.59935 0
M  V30 1238 H 121.216 -2.932 -0.492048 0
M  V30 1239 H 118.749 -1.53785 -0.137651 0
M  V30 1240 H 120.707 -2.81767 -2.98526 0
M  V30 1241 H 119.368 -1.70166 -2.64012 0
M  V30 1242 H 118.561 -4.05675 -2.99071 0
M  V30 1243 H 118.163 -3.48654 -1.35339 0
M  V30 1244 H 120.455 -5.76424 -3.56008 0
M  V30 1245 H 121.398 -6.68207 -2.34319 0
M  V30 1246 H 121.806 -4.97205 -2.67296 0
M  V30 1247 N 121.204 0.198386 -1.56346 0
M  V30 1248 C 122.45 0.920648 -1.80698 0
M  V30 1249 C 122.783 1.83045 -0.648697 0
M  V30 1250 O 122.058 1.91308 0.350925 0
M  V30 1251 C 122.341 1.73971 -3.15287 0
M  V30 1252 C 122.194 0.85485 -4.41602 0
M  V30 1253 C 123.513 2.71296 -3.46535 0
M  V30 1254 H 120.632 0.333261 -0.657348 0
M  V30 1255 H 123.274 0.188198 -1.89066 0
M  V30 1256 H 121.424 2.36416 -3.08285 0
M  V30 1257 H 123.096 0.245362 -4.60647 0
M  V30 1258 H 121.339 0.161398 -4.335 0
M  V30 1259 H 122.01 1.46286 -5.32264 0
M  V30 1260 H 124.486 2.18983 -3.53816 0
M  V30 1261 H 123.362 3.2569 -4.41834 0
M  V30 1262 H 123.623 3.5018 -2.69864 0
M  V30 1263 N 122.682 1.50554 0.465978 0
M  V30 1264 C 124.098 1.38093 0.800154 0
M  V30 1265 C 124.298 0.440988 1.96615 0
M  V30 1266 O 123.354 -0.114499 2.5224 0
M  V30 1267 C 124.667 2.79565 1.10742 0
M  V30 1268 C 126.215 2.88516 1.21357 0
M  V30 1269 C 126.69 4.30833 1.55393 0
M  V30 1270 N 128.181 4.33807 1.62375 0
M  V30 1271 C 128.916 5.40927 1.90225 0
M  V30 1272 N 128.412 6.58247 2.16062 0
M  V30 1273 N 130.205 5.28376 1.9177 0
M  V30 1274 H 122.356 2.10237 -0.302366 0
M  V30 1275 H 124.619 0.945203 -0.0727746 0
M  V30 1276 H 124.325 3.50208 0.323661 0
M  V30 1277 H 124.199 3.17125 2.04234 0
M  V30 1278 H 126.586 2.1809 1.98799 0
M  V30 1279 H 126.667 2.54492 0.258321 0
M  V30 1280 H 126.311 5.01799 0.784889 0
M  V30 1281 H 126.241 4.62347 2.52076 0
M  V30 1282 H 128.732 3.49212 1.44427 0
M  V30 1283 H 129.045 7.3569 2.36601 0
M  V30 1284 H 127.39 6.61413 2.13444 0
M  V30 1285 H 130.581 4.35715 1.71085 0
M  V30 1286 H 130.754 6.11944 2.13139 0
M  V30 1287 N 124.16 -0.719506 1.40217 0
M  V30 1288 C 125.107 -1.83359 1.40172 0
M  V30 1289 C 126.077 -1.64065 0.259206 0
M  V30 1290 O 127.262 -1.85254 0.456677 0
M  V30 1291 C 124.402 -3.2103 1.26624 0
M  V30 1292 C 123.515 -3.51923 2.50548 0
M  V30 1293 C 122.65 -4.79079 2.29471 0
M  V30 1294 C 121.689 -5.02863 3.48992 0
M  V30 1295 N 120.826 -6.2123 3.27135 0
M  V30 1296 H 125.666 -1.82733 2.35399 0
M  V30 1297 H 123.203 -0.892688 1.16917 0
M  V30 1298 H 125.161 -4.00524 1.16776 0
M  V30 1299 H 123.791 -3.20895 0.350176 0
M  V30 1300 H 122.843 -2.67014 2.70939 0
M  V30 1301 H 124.155 -3.6541 3.39525 0
M  V30 1302 H 123.309 -5.66582 2.16955 0
M  V30 1303 H 122.048 -4.67794 1.37913 0
M  V30 1304 H 121.053 -4.13816 3.6199 0
M  V30 1305 H 122.278 -5.16023 4.41472 0
M  V30 1306 H 120.224 -6.11204 2.38256 0
M  V30 1307 H 120.141 -6.35375 4.09675 0
M  V30 1308 H 121.409 -7.11532 3.18344 0
M  V30 1309 N 125.638 -1.25649 -0.95132 0
M  V30 1310 C 126.601 -1.06399 -2.03007 0
M  V30 1311 C 127.601 -0.0156794 -1.60792 0
M  V30 1312 O 128.791 -0.25817 -1.72276 0
M  V30 1313 C 125.923 -0.616184 -3.35285 0
M  V30 1314 H 127.116 -2.02164 -2.21517 0
M  V30 1315 H 124.669 -1.08103 -1.12887 0
M  V30 1316 H 125.404 0.343917 -3.22471 0
M  V30 1317 H 125.189 -1.37301 -3.67275 0
M  V30 1318 H 126.679 -0.503032 -4.14559 0
M  V30 1319 N 127.117 1.15442 -1.07289 0
M  V30 1320 C 128.05 2.19135 -0.636798 0
M  V30 1321 C 129.028 1.58884 0.34562 0
M  V30 1322 O 130.212 1.86805 0.252195 0
M  V30 1323 C 127.339 3.38638 0.0650014 0
M  V30 1324 C 126.385 4.17412 -0.87576 0
M  V30 1325 S 127.218 4.79882 -2.37642 0
M  V30 1326 C 128.374 6.02753 -1.6864 0
M  V30 1327 H 128.607 2.55787 -1.51526 0
M  V30 1328 H 126.14 1.26394 -0.886793 0
M  V30 1329 H 128.098 4.07873 0.463664 0
M  V30 1330 H 126.759 3.00331 0.919801 0
M  V30 1331 H 125.952 5.02909 -0.33143 0
M  V30 1332 H 125.554 3.53722 -1.21478 0
M  V30 1333 H 127.846 6.70113 -0.997753 0
M  V30 1334 H 128.789 6.61754 -2.51967 0
M  V30 1335 H 129.197 5.52355 -1.16465 0
M  V30 1336 N 128.595 0.856903 1.32268 0
M  V30 1337 C 129.843 0.460474 1.96784 0
M  V30 1338 C 130.164 -0.987701 1.68135 0
M  V30 1339 O 129.434 -1.69058 0.989765 0
M  V30 1340 H 128.014 0.167289 0.728027 0
M  V30 1341 H 130.676 1.09383 1.61312 0
M  V30 1342 H 129.772 0.60739 3.06133 0
M  V30 1343 N 130.073 -1.45103 0.615059 0
M  V30 1344 C 131.321 -2.01784 0.112955 0
M  V30 1345 C 131.642 -1.48504 -1.26378 0
M  V30 1346 O 130.912 -0.682245 -1.83636 0
M  V30 1347 H 129.492 -0.745993 0.0387668 0
M  V30 1348 H 132.154 -1.77808 0.798141 0
M  V30 1349 H 131.25 -3.12025 0.0684069 0
M  V30 1350 N 131.551 -0.354651 -1.53558 0
M  V30 1351 C 132.501 0.513179 -2.2215 0
M  V30 1352 C 133.485 1.05734 -1.21281 0
M  V30 1353 O 134.677 0.989202 -1.46778 0
M  V30 1354 C 131.806 1.65798 -3.00609 0
M  V30 1355 C 130.892 1.12722 -4.08845 0
M  V30 1356 N 131.283 0.318563 -5.04796 0
M  V30 1357 C 129.581 1.40307 -4.23356 0
M  V30 1358 C 130.282 0.0292224 -5.81693 0
M  V30 1359 N 129.258 0.623891 -5.40008 0
M  V30 1360 H 133.06 -0.111586 -2.93688 0
M  V30 1361 H 130.574 -0.162091 -1.61589 0
M  V30 1362 H 132.571 2.29176 -3.48258 0
M  V30 1363 H 131.231 2.28591 -2.306 0
M  V30 1364 H 132.242 -0.0413091 -5.17884 0
M  V30 1365 H 128.919 2.03458 -3.6457 0
M  V30 1366 H 130.309 -0.623808 -6.68998 0
M  V30 1367 N 133.029 1.57378 -0.0835403 0
M  V30 1368 C 134.275 1.95025 0.577664 0
M  V30 1369 C 134.63 0.964049 1.66505 0
M  V30 1370 O 133.923 -0.0118235 1.91596 0
M  V30 1371 C 134.117 3.37063 1.1884 0
M  V30 1372 C 133.946 4.49409 0.16171 0
M  V30 1373 C 132.716 5.04642 -0.257756 0
M  V30 1374 C 134.914 5.10722 -0.605634 0
M  V30 1375 N 132.896 6.00537 -1.27393 0
M  V30 1376 C 134.267 6.02225 -1.47395 0
M  V30 1377 C 136.322 4.93501 -0.660418 0
M  V30 1378 C 135.025 6.78355 -2.39221 0
M  V30 1379 C 137.051 5.70283 -1.56623 0
M  V30 1380 C 136.413 6.61444 -2.4222 0
M  V30 1381 H 132.512 0.760512 0.182058 0
M  V30 1382 H 135.096 1.94013 -0.163419 0
M  V30 1383 H 133.267 3.3879 1.89936 0
M  V30 1384 H 134.999 3.61917 1.81103 0
M  V30 1385 H 131.754 4.73428 0.127702 0
M  V30 1386 H 132.178 6.53184 -1.77987 0
M  V30 1387 H 136.82 4.22798 -0.0128221 0
M  V30 1388 H 134.538 7.48327 -3.05011 0
M  V30 1389 H 138.124 5.58976 -1.61361 0
M  V30 1390 H 137.004 7.1982 -3.11174 0
M  V30 1391 N 134.507 -0.190092 1.56449 0
M  V30 1392 C 135.918 -0.754312 1.70784 0
M  V30 1393 C 136.269 -1.83631 0.690951 0
M  V30 1394 O 135.394 -2.15868 -0.151604 0
M  V30 1395 C 135.989 -1.37503 3.09642 0
M  V30 1396 C 134.548 -1.88628 3.25725 0
M  V30 1397 C 133.695 -0.758098 2.66736 0
M  V30 1398 H 136.646 0.0350524 1.58661 0
M  V30 1399 H 136.667 -2.2445 3.0725 0
M  V30 1400 H 136.179 -0.587302 3.83631 0
M  V30 1401 H 134.28 -2.70103 2.56661 0
M  V30 1402 H 134.393 -2.04462 4.3328 0
M  V30 1403 H 132.757 -1.17369 2.26046 0
M  V30 1404 H 133.54 0.0174705 3.43296 0
M  V30 1405 N 135.985 -1.50799 -0.457987 0
M  V30 1406 C 137.232 -1.62442 -1.20908 0
M  V30 1407 C 137.56 -0.330865 -1.91665 0
M  V30 1408 O 136.815 0.68401 -1.83357 0
M  V30 1409 C 137.114 -2.76358 -2.2663 0
M  V30 1410 C 136.78 -4.16378 -1.73033 0
M  V30 1411 C 135.442 -4.54473 -1.58138 0
M  V30 1412 C 137.794 -5.03836 -1.33413 0
M  V30 1413 C 135.122 -5.77754 -1.02065 0
M  V30 1414 C 137.474 -6.27676 -0.78778 0
M  V30 1415 C 136.138 -6.64562 -0.625561 0
M  V30 1416 H 135.408 -0.594417 -0.442435 0
M  V30 1417 H 138.055 -1.84772 -0.503136 0
M  V30 1418 H 136.36 -2.48167 -3.03184 0
M  V30 1419 H 138.057 -2.82568 -2.84528 0
M  V30 1420 H 134.647 -3.86331 -1.85598 0
M  V30 1421 H 138.831 -4.75026 -1.4375 0
M  V30 1422 H 134.087 -6.04997 -0.882547 0
M  V30 1423 H 138.261 -6.94797 -0.472177 0
M  V30 1424 H 135.888 -7.59965 -0.188926 0
M  V30 1425 N 137.463 0.71206 -1.40597 0
M  V30 1426 C 138.711 1.46907 -1.38791 0
M  V30 1427 C 139.032 1.94998 0.00780391 0
M  V30 1428 O 138.302 1.70587 0.963174 0
M  V30 1429 H 136.882 0.545043 -0.51082 0
M  V30 1430 H 139.544 0.843882 -1.75683 0
M  V30 1431 H 138.64 2.34021 -2.06496 0
M  V30 1432 N 138.941 1.26152 0.944643 0
M  V30 1433 C 140.187 1.12665 1.69346 0
M  V30 1434 C 140.542 -0.3273 1.89596 0
M  V30 1435 O 139.835 -1.23717 1.46303 0
M  V30 1436 C 140.029 1.82541 3.07268 0
M  V30 1437 C 139.858 3.34582 3.00475 0
M  V30 1438 C 138.628 4.03863 3.03681 0
M  V30 1439 C 140.826 4.30828 2.80877 0
M  V30 1440 N 138.808 5.42603 2.87151 0
M  V30 1441 C 140.179 5.5672 2.7288 0
M  V30 1442 C 142.234 4.21122 2.65633 0
M  V30 1443 C 140.937 6.74013 2.51196 0
M  V30 1444 C 142.963 5.38118 2.45323 0
M  V30 1445 C 142.325 6.62955 2.38055 0
M  V30 1446 H 138.424 0.467041 0.627214 0
M  V30 1447 H 141.008 1.59391 1.11815 0
M  V30 1448 H 139.179 1.38296 3.62945 0
M  V30 1449 H 140.911 1.61708 3.70989 0
M  V30 1450 H 137.666 3.55198 3.1326 0
M  V30 1451 H 138.09 6.15443 2.82063 0
M  V30 1452 H 142.732 3.25344 2.70021 0
M  V30 1453 H 140.45 7.6989 2.4555 0
M  V30 1454 H 144.036 5.32475 2.34439 0
M  V30 1455 H 142.916 7.51959 2.22546 0
M  V30 1456 N 140.419 -1.14872 1.07899 0
M  V30 1457 C 141.666 -1.85789 0.805532 0
M  V30 1458 C 141.994 -1.82649 -0.668561 0
M  V30 1459 O 141.249 -1.24858 -1.50695 0
M  V30 1460 C 141.548 -3.34223 1.26609 0
M  V30 1461 C 141.214 -3.57555 2.74709 0
M  V30 1462 C 139.876 -3.63631 3.1516 0
M  V30 1463 C 142.228 -3.66803 3.70277 0
M  V30 1464 C 139.556 -3.76473 4.49983 0
M  V30 1465 C 141.908 -3.8117 5.04869 0
M  V30 1466 C 140.572 -3.85494 5.44932 0
M  V30 1467 H 139.842 -0.679849 0.294765 0
M  V30 1468 H 142.489 -1.3572 1.35101 0
M  V30 1469 H 140.794 -3.86536 0.640103 0
M  V30 1470 H 142.491 -3.87511 1.03132 0
M  V30 1471 H 139.081 -3.5347 2.42398 0
M  V30 1472 H 143.265 -3.61404 3.40149 0
M  V30 1473 H 138.521 -3.7808 4.80484 0
M  V30 1474 H 142.695 -3.87268 5.78789 0
M  V30 1475 H 140.322 -3.95197 6.49403 0
M  V30 1476 N 141.898 -0.863906 -1.31812 0
M  V30 1477 C 142.828 -0.330843 -2.31144 0
M  V30 1478 C 143.809 0.575005 -1.60087 0
M  V30 1479 O 144.994 0.493304 -1.8783 0
M  V30 1480 C 142.124 0.47374 -3.44054 0
M  V30 1481 C 141.078 -0.338481 -4.26659 0
M  V30 1482 C 140.404 0.591412 -5.31419 0
M  V30 1483 C 141.704 -1.56926 -4.98168 0
M  V30 1484 H 143.398 -1.16086 -2.75979 0
M  V30 1485 H 140.944 -0.559657 -1.32679 0
M  V30 1486 H 142.897 0.857143 -4.12591 0
M  V30 1487 H 141.621 1.33721 -2.9797 0
M  V30 1488 H 140.28 -0.703754 -3.59782 0
M  V30 1489 H 139.928 1.45199 -4.81587 0
M  V30 1490 H 139.628 0.0519022 -5.87577 0
M  V30 1491 H 141.152 0.97179 -6.02817 0
M  V30 1492 H 142.566 -1.25764 -5.59336 0
M  V30 1493 H 140.963 -2.04739 -5.64094 0
M  V30 1494 H 142.033 -2.32544 -4.25501 0
M  V30 1495 N 143.376 1.44774 -0.622745 0
M  V30 1496 C 144.616 2.04004 -0.127102 0
M  V30 1497 C 144.98 1.47862 1.22478 0
M  V30 1498 O 146.181 1.98541 1.81204 0
M  V30 1499 C 144.452 3.57247 -0.104429 0
M  V30 1500 S 146.011 4.37574 0.327814 0
M  V30 1501 H 142.829 0.708713 -0.0569776 0
M  V30 1502 H 145.431 1.77275 -0.824253 0
M  V30 1503 H 144.135 3.95616 -1.09159 0
M  V30 1504 H 143.666 3.88575 0.614236 0
M  V30 1505 H 145.681 4.70575 1.57395 0
M  V30 1506 N 144.854 0.36279 1.53368 0
M  V30 1507 C 145.801 -0.485008 2.25646 0
M  V30 1508 C 146.771 -1.07982 1.2621 0
M  V30 1509 O 147.956 -1.11284 1.54986 0
M  V30 1510 C 145.096 -1.62023 3.04701 0
M  V30 1511 C 144.209 -1.05086 4.19024 0
M  V30 1512 C 143.344 -2.15496 4.85525 0
M  V30 1513 C 142.383 -1.5601 5.91884 0
M  V30 1514 N 141.52 -2.60241 6.52088 0
M  V30 1515 H 146.36 0.137864 2.97681 0
M  V30 1516 H 143.897 0.0798061 1.46883 0
M  V30 1517 H 145.855 -2.28887 3.48807 0
M  V30 1518 H 144.485 -2.2138 2.34927 0
M  V30 1519 H 143.537 -0.27259 3.79422 0
M  V30 1520 H 144.849 -0.575926 4.95464 0
M  V30 1521 H 144.003 -2.90186 5.32801 0
M  V30 1522 H 142.742 -2.66341 4.08551 0
M  V30 1523 H 141.747 -0.798338 5.43973 0
M  V30 1524 H 142.972 -1.05994 6.70777 0
M  V30 1525 H 140.918 -3.10304 5.77968 0
M  V30 1526 H 140.835 -2.17426 7.24059 0
M  V30 1527 H 142.103 -3.34641 7.04014 0
M  V30 1528 N 146.332 -1.57332 0.0918853 0
M  V30 1529 C 147.579 -1.94236 -0.572577 0
M  V30 1530 C 147.907 -0.973398 -1.6839 0
M  V30 1531 O 147.162 0.00756912 -1.95699 0
M  V30 1532 C 147.461 -3.37689 -1.17051 0
M  V30 1533 C 147.127 -4.50527 -0.183304 0
M  V30 1534 C 145.789 -4.81119 0.0882276 0
M  V30 1535 C 148.141 -5.18883 0.49095 0
M  V30 1536 C 145.469 -5.77395 1.04076 0
M  V30 1537 C 147.821 -6.1618 1.43193 0
M  V30 1538 C 146.485 -6.45179 1.71173 0
M  V30 1539 H 145.755 -0.710762 -0.209521 0
M  V30 1540 H 148.402 -1.9077 0.167036 0
M  V30 1541 H 146.707 -3.37718 -1.9863 0
M  V30 1542 H 148.404 -3.63543 -1.69227 0
M  V30 1543 H 144.994 -4.26681 -0.405124 0
M  V30 1544 H 149.178 -4.95427 0.294312 0
M  V30 1545 H 144.434 -5.98179 1.26457 0
M  V30 1546 H 148.608 -6.68243 1.96023 0
M  V30 1547 H 146.235 -7.1959 2.4514 0
M  V30 1548 N 147.81 0.181792 -1.56548 0
M  V30 1549 C 149.056 0.901431 -1.81665 0
M  V30 1550 C 149.389 1.82347 -0.668075 0
M  V30 1551 O 148.664 1.91669 0.330615 0
M  V30 1552 C 148.947 1.70618 -3.17115 0
M  V30 1553 C 148.8 0.807964 -4.42484 0
M  V30 1554 C 150.119 2.67605 -3.49393 0
M  V30 1555 H 147.238 0.32627 -0.660846 0
M  V30 1556 H 149.88 0.168134 -1.89255 0
M  V30 1557 H 148.03 2.33133 -3.10775 0
M  V30 1558 H 149.702 0.19649 -4.60881 0
M  V30 1559 H 147.945 0.115411 -4.33646 0
M  V30 1560 H 148.616 1.40632 -5.33785 0
M  V30 1561 H 151.092 2.15218 -3.56118 0
M  V30 1562 H 149.968 3.20985 -4.45264 0
M  V30 1563 H 150.229 3.47298 -2.73563 0
M  V30 1564 N 149.288 1.51039 0.449983 0
M  V30 1565 C 150.535 1.63081 1.20045 0
M  V30 1566 C 150.863 0.341024 1.91487 0
M  V30 1567 O 150.118 -0.674276 1.83717 0
M  V30 1568 C 150.417 2.77556 2.25161 0
M  V30 1569 C 150.083 4.17289 1.70823 0
M  V30 1570 C 148.745 4.55305 1.55725 0
M  V30 1571 C 151.097 5.04536 1.3074 0
M  V30 1572 C 148.425 5.78287 0.989999 0
M  V30 1573 C 150.777 6.28085 0.754482 0
M  V30 1574 C 149.441 6.64885 0.590308 0
M  V30 1575 H 148.711 0.596755 0.439277 0
M  V30 1576 H 151.358 1.85037 0.49333 0
M  V30 1577 H 149.663 2.49771 3.01863 0
M  V30 1578 H 151.36 2.84073 2.83026 0
M  V30 1579 H 147.95 3.8731 1.83546 0
M  V30 1580 H 152.134 4.75782 1.41229 0
M  V30 1581 H 147.39 6.05456 0.850451 0
M  V30 1582 H 151.564 6.95038 0.435324 0
M  V30 1583 H 149.191 7.60055 0.14862 0
M  V30 1584 N 150.766 -0.704594 1.40972 0
M  V30 1585 C 151.994 -1.49354 1.43182 0
M  V30 1586 C 152.409 -1.88768 0.0345508 0
M  V30 1587 O 151.766 -1.56184 -0.944081 0
M  V30 1588 C 151.817 -2.76187 2.33244 0
M  V30 1589 O 151.538 -2.38436 3.67532 0
M  V30 1590 C 153.039 -3.7 2.44162 0
M  V30 1591 H 150.259 -0.460559 0.487982 0
M  V30 1592 H 152.803 -0.868261 1.85153 0
M  V30 1593 H 150.958 -3.34974 1.94606 0
M  V30 1594 H 151.372 -3.20126 4.15475 0
M  V30 1595 H 152.846 -4.55803 3.11364 0
M  V30 1596 H 153.323 -4.13867 1.47006 0
M  V30 1597 H 153.929 -3.17121 2.83398 0
M  V30 1598 N 152.244 -1.26651 -0.937939 0
M  V30 1599 C 153.493 -1.11775 -1.67897 0
M  V30 1600 C 153.806 0.33794 -1.92659 0
M  V30 1601 O 155.012 0.607434 -2.64618 0
M  V30 1602 C 153.468 -1.9523 -3.02346 0
M  V30 1603 C 153.076 -3.45393 -2.8532 0
M  V30 1604 C 154.82 -1.88972 -3.80118 0
M  V30 1605 C 152.727 -4.21083 -4.15263 0
M  V30 1606 H 151.657 -0.414696 -0.629717 0
M  V30 1607 H 154.308 -1.50988 -1.04283 0
M  V30 1608 H 152.69 -1.48853 -3.66959 0
M  V30 1609 H 153.864 -3.99561 -2.29537 0
M  V30 1610 H 152.179 -3.52921 -2.20988 0
M  V30 1611 H 154.776 -2.42805 -4.76392 0
M  V30 1612 H 155.119 -0.86113 -4.07296 0
M  V30 1613 H 155.652 -2.33189 -3.22285 0
M  V30 1614 H 152.391 -5.24425 -3.93267 0
M  V30 1615 H 151.911 -3.71695 -4.70747 0
M  V30 1616 H 153.59 -4.29706 -4.83696 0
M  V30 1617 N 153.722 1.14298 -1.08507 0
M  V30 1618 C 154.968 1.85633 -0.816581 0
M  V30 1619 C 155.301 1.82784 0.656021 0
M  V30 1620 O 154.576 1.25926 1.48233 0
M  V30 1621 C 154.859 3.34223 -1.34041 0
M  V30 1622 C 154.712 3.45639 -2.87843 0
M  V30 1623 C 156.031 4.29356 -0.9665 0
M  V30 1624 H 153.15 0.67402 -0.298104 0
M  V30 1625 H 155.792 1.34214 -1.34487 0
M  V30 1626 H 153.942 3.78144 -0.89104 0
M  V30 1627 H 155.614 3.10498 -3.41158 0
M  V30 1628 H 153.857 2.86817 -3.25451 0
M  V30 1629 H 154.528 4.50089 -3.19569 0
M  V30 1630 H 157.004 3.93457 -1.35391 0
M  V30 1631 H 155.88 5.3178 -1.3602 0
M  V30 1632 H 156.141 4.41919 0.126362 0
M  V30 1633 N 155.201 0.870884 1.31352 0
M  V30 1634 C 156.478 0.402907 1.91405 0
M  V30 1635 C 156.858 -1.11512 1.79244 0
M  V30 1636 O 156.206 -1.94411 1.2007 0
M  V30 1637 C 156.416 0.885301 3.37585 0
M  V30 1638 C 157.764 0.911971 4.14691 0
M  V30 1639 O 158.788 0.831016 3.46371 0
M  V30 1640 O 157.647 1.02927 5.3672 0
M  V30 1641 H 154.741 0.120698 0.818145 0
M  V30 1642 H 157.287 0.958857 1.40014 0
M  V30 1643 H 156.059 1.92889 3.40455 0
M  V30 1644 H 155.682 0.307714 3.96407 0
M  V30 1645 N 156.679 -1.44442 0.630414 0
M  V30 1646 C 157.928 -2.01267 0.132073 0
M  V30 1647 C 158.241 -1.50172 -1.25331 0
M  V30 1648 O 159.447 -1.9912 -1.84562 0
M  V30 1649 C 157.903 -3.59422 0.185362 0
M  V30 1650 C 157.511 -4.19514 1.57201 0
M  V30 1651 C 159.255 -4.23724 -0.256553 0
M  V30 1652 C 157.162 -5.69891 1.58045 0
M  V30 1653 H 156.092 -0.752619 0.0456092 0
M  V30 1654 H 158.743 -1.65666 0.789106 0
M  V30 1655 H 157.125 -3.92318 -0.538759 0
M  V30 1656 H 158.299 -3.98156 2.31966 0
M  V30 1657 H 156.614 -3.67496 1.95795 0
M  V30 1658 H 159.211 -5.34019 -0.269767 0
M  V30 1659 H 159.554 -3.96013 -1.28372 0
M  V30 1660 H 160.087 -3.95629 0.41505 0
M  V30 1661 H 156.826 -6.02336 2.58597 0
M  V30 1662 H 156.346 -5.93373 0.875725 0
M  V30 1663 H 158.025 -6.33515 1.31408 0
M  V30 1664 N 158.157 -0.370918 -1.53173 0
M  V30 1665 C 159.105 0.488101 -2.27421 0
M  V30 1666 C 160.099 1.07884 -1.30604 0
M  V30 1667 O 161.305 1.02143 -1.48212 0
M  V30 1668 H 157.68 0.176134 -0.731082 0
M  V30 1669 H 159.651 -0.159815 -2.97972 0
M  V30 1670 C 158.4 1.61306 -3.08019 0
M  V30 1671 H 157.723 1.1678 -3.82364 0
M  V30 1672 H 159.163 2.18872 -3.63141 0
M  V30 1673 C 157.622 2.55848 -2.19188 0
M  V30 1674 O 158.152 3.58799 -1.80626 0
M  V30 1675 N 156.358 2.2516 -1.83715 0
M  V30 1676 H 155.905 1.41476 -2.15273 0
M  V30 1677 H 155.863 2.8867 -1.24567 0
M  V30 1678 N 159.635 1.57281 -0.100228 0
M  V30 1679 C 160.565 2.17328 0.853857 0
M  V30 1680 C 161.546 1.10804 1.2906 0
M  V30 1681 O 162.731 1.38963 1.35657 0
M  V30 1682 C 159.861 2.75772 2.11109 0
M  V30 1683 C 158.815 3.87713 1.81279 0
M  V30 1684 C 158.141 4.32882 3.13874 0
M  V30 1685 C 159.441 5.10677 1.09574 0
M  V30 1686 H 161.135 2.97305 0.353545 0
M  V30 1687 H 158.681 1.43009 0.168612 0
M  V30 1688 H 160.634 3.16433 2.78296 0
M  V30 1689 H 159.358 1.93057 2.63432 0
M  V30 1690 H 158.017 3.476 1.16489 0
M  V30 1691 H 157.665 3.47051 3.64095 0
M  V30 1692 H 157.365 5.08358 2.94696 0
M  V30 1693 H 158.889 4.7618 3.82211 0
M  V30 1694 H 160.303 5.48474 1.66879 0
M  V30 1695 H 158.7 5.91615 1.00557 0
M  V30 1696 H 159.77 4.84835 0.0793299 0
M  V30 1697 N 161.113 -0.173488 1.56642 0
M  V30 1698 C 162.36 -0.890465 1.81871 0
M  V30 1699 C 162.688 -1.82339 0.67696 0
M  V30 1700 O 161.943 -1.92795 -0.335926 0
M  V30 1701 C 162.242 -1.72069 3.13252 0
M  V30 1702 C 161.908 -0.936878 4.41059 0
M  V30 1703 C 160.57 -0.720545 4.75775 0
M  V30 1704 C 162.922 -0.386919 5.19762 0
M  V30 1705 C 160.25 0.0568829 5.86672 0
M  V30 1706 C 162.602 0.37741 6.31473 0
M  V30 1707 C 161.266 0.604563 6.64757 0
M  V30 1708 H 160.536 -0.325844 0.665512 0
M  V30 1709 H 163.183 -0.155527 1.90867 0
M  V30 1710 H 161.488 -2.52496 2.99588 0
M  V30 1711 H 163.185 -2.27844 3.29982 0
M  V30 1712 H 159.775 -1.11553 4.13828 0
M  V30 1713 H 163.959 -0.541398 4.93338 0
M  V30 1714 H 159.215 0.242635 6.10918 0
M  V30 1715 H 163.389 0.810825 6.91664 0
M  V30 1716 H 161.016 1.20885 7.50527 0
M  V30 1717 N 162.591 -1.51276 -0.441967 0
M  V30 1718 C 163.839 -1.63392 -1.18943 0
M  V30 1719 C 164.16 -0.350159 -1.9183 0
M  V30 1720 O 163.43 0.633784 -1.85364 0
M  V30 1721 H 162.01 -0.602164 -0.442049 0
M  V30 1722 H 164.672 -1.88186 -0.507165 0
M  V30 1723 H 163.768 -2.45934 -1.92154 0
M  V30 1724 N 164.069 0.697108 -1.41344 0
M  V30 1725 C 165.294 1.49096 -1.44171 0
M  V30 1726 C 165.719 1.88038 -0.0481568 0
M  V30 1727 O 165.077 1.54525 0.948243 0
M  V30 1728 C 165.125 2.73088 -2.3549 0
M  V30 1729 O 164.229 3.70514 -1.81088 0
M  V30 1730 H 163.57 0.448801 -0.489361 0
M  V30 1731 H 166.1 0.856992 -1.85787 0
M  V30 1732 H 166.11 3.21413 -2.51312 0
M  V30 1733 H 164.785 2.44081 -3.36745 0
M  V30 1734 H 163.362 3.29441 -1.74708 0
M  V30 1735 N 165.547 1.27147 0.931209 0
M  V30 1736 C 166.793 1.13446 1.68101 0
M  V30 1737 C 167.126 -0.319628 1.91552 0
M  V30 1738 O 166.401 -1.23407 1.50336 0
M  V30 1739 C 166.684 1.91482 3.0497 0
M  V30 1740 C 166.537 3.44855 2.88782 0
M  V30 1741 C 167.856 1.71651 4.05246 0
M  V30 1742 H 164.975 0.413498 0.610072 0
M  V30 1743 H 167.617 1.56261 1.08086 0
M  V30 1744 H 165.767 1.55095 3.56199 0
M  V30 1745 H 167.439 3.9105 2.44698 0
M  V30 1746 H 165.682 3.71373 2.24198 0
M  V30 1747 H 166.353 3.94694 3.85902 0
M  V30 1748 H 168.829 2.0337 3.63015 0
M  V30 1749 H 167.705 2.28651 4.99009 0
M  V30 1750 H 167.966 0.663555 4.37092 0
M  V30 1751 N 167.025 -1.13721 1.09112 0
M  V30 1752 C 168.272 -1.84924 0.825192 0
M  V30 1753 C 168.6 -1.83347 -0.649151 0
M  V30 1754 O 167.855 -1.26449 -1.49362 0
M  V30 1755 C 168.154 -3.32861 1.30146 0
M  V30 1756 C 167.82 -3.54621 2.78486 0
M  V30 1757 C 166.482 -3.60268 3.18999 0
M  V30 1758 C 168.834 -3.62855 3.74146 0
M  V30 1759 C 166.162 -3.71679 4.53951 0
M  V30 1760 C 168.514 -3.75793 5.08883 0
M  V30 1761 C 167.178 -3.79692 5.4899 0
M  V30 1762 H 166.448 -0.676684 0.301959 0
M  V30 1763 H 169.095 -1.3428 1.36533 0
M  V30 1764 H 167.4 -3.85835 0.681064 0
M  V30 1765 H 169.097 -3.86395 1.07236 0
M  V30 1766 H 165.687 -3.50879 2.46134 0
M  V30 1767 H 169.871 -3.57775 3.43963 0
M  V30 1768 H 165.127 -3.72963 4.84467 0
M  V30 1769 H 169.301 -3.81107 5.82864 0
M  V30 1770 H 166.928 -3.88287 6.53558 0
M  V30 1771 N 168.503 -0.877838 -1.30888 0
M  V30 1772 C 169.433 -0.35534 -2.3078 0
M  V30 1773 C 170.414 0.557994 -1.60687 0
M  V30 1774 O 171.599 0.473355 -1.88343 0
M  V30 1775 C 168.729 0.437221 -3.44537 0
M  V30 1776 C 167.683 -0.383715 -4.26276 0
M  V30 1777 C 167.009 0.535014 -5.32017 0
M  V30 1778 C 168.309 -1.62201 -4.96476 0
M  V30 1779 H 170.003 -1.19007 -2.74732 0
M  V30 1780 H 167.549 -0.573698 -1.32078 0
M  V30 1781 H 169.502 0.813334 -4.13477 0
M  V30 1782 H 168.226 1.30553 -2.99372 0
M  V30 1783 H 166.885 -0.741874 -3.59015 0
M  V30 1784 H 166.533 1.40083 -4.831 0
M  V30 1785 H 166.233 -0.0104211 -5.87599 0
M  V30 1786 H 167.757 0.907799 -6.03814 0
M  V30 1787 H 169.171 -1.31689 -5.5797 0
M  V30 1788 H 167.568 -2.10711 -5.61891 0
M  V30 1789 H 168.638 -2.37044 -4.23011 0
M  V30 1790 N 169.982 1.44106 -0.638065 0
M  V30 1791 C 171.231 2.01194 -0.142744 0
M  V30 1792 C 171.544 1.50835 1.24532 0
M  V30 1793 O 172.75 2.00096 1.83504 0
M  V30 1794 C 171.206 3.59319 -0.20442 0
M  V30 1795 C 170.814 4.18674 -1.59423 0
M  V30 1796 C 172.558 4.23854 0.234079 0
M  V30 1797 C 170.465 5.69045 -1.61065 0
M  V30 1798 H 169.395 0.752367 -0.0495998 0
M  V30 1799 H 172.046 1.65246 -0.797881 0
M  V30 1800 H 170.428 3.92598 0.517946 0
M  V30 1801 H 171.602 3.96921 -2.34074 0
M  V30 1802 H 169.917 3.66453 -1.97741 0
M  V30 1803 H 172.514 5.34155 0.241443 0
M  V30 1804 H 172.857 3.96688 1.2627 0
M  V30 1805 H 173.39 3.95403 -0.436025 0
M  V30 1806 H 170.129 6.00956 -2.61787 0
M  V30 1807 H 169.649 5.929 -0.90718 0
M  V30 1808 H 171.328 6.32809 -1.34766 0
M  V30 1809 N 171.46 0.379036 1.52974 0
M  V30 1810 C 172.423 -0.448865 2.24762 0
M  V30 1811 C 173.423 -0.998689 1.26027 0
M  V30 1812 O 174.613 -0.882313 1.50203 0
M  V30 1813 C 171.745 -1.62872 2.99476 0
M  V30 1814 H 172.938 0.179491 2.99362 0
M  V30 1815 H 170.491 0.13096 1.5575 0
M  V30 1816 H 171.226 -2.29479 2.29151 0
M  V30 1817 H 171.011 -1.24128 3.71934 0
M  V30 1818 H 172.501 -2.2151 3.5401 0
M  V30 1819 N 172.938 -1.57226 0.108567 0
M  V30 1820 C 173.868 -2.17778 -0.84232 0
M  V30 1821 C 174.849 -1.11487 -1.2847 0
M  V30 1822 O 176.034 -1.39681 -1.34918 0
M  V30 1823 C 173.164 -2.76888 -2.09644 0
M  V30 1824 C 172.118 -3.88669 -1.79221 0
M  V30 1825 C 171.444 -4.34541 -3.11574 0
M  V30 1826 C 172.744 -5.11251 -1.06864 0
M  V30 1827 H 174.438 -2.97489 -0.337774 0
M  V30 1828 H 171.984 -1.43097 -0.161025 0
M  V30 1829 H 173.937 -3.17904 -2.76614 0
M  V30 1830 H 172.661 -1.94451 -2.62405 0
M  V30 1831 H 171.32 -3.48213 -1.14644 0
M  V30 1832 H 170.968 -3.48977 -3.62249 0
M  V30 1833 H 170.668 -5.09914 -2.91996 0
M  V30 1834 H 172.192 -4.782 -3.7968 0
M  V30 1835 H 173.606 -5.49352 -1.63968 0
M  V30 1836 H 172.003 -5.9214 -0.974178 0
M  V30 1837 H 173.073 -4.8487 -0.0536168 0
M  V30 1838 N 174.416 0.165178 -1.56732 0
M  V30 1839 C 175.665 0.879143 -1.81532 0
M  V30 1840 C 175.978 1.83144 -0.686842 0
M  V30 1841 O 177.184 2.58823 -0.819944 0
M  V30 1842 C 175.64 1.61388 -3.21686 0
M  V30 1843 C 175.248 0.704904 -4.4242 0
M  V30 1844 C 176.992 2.3157 -3.55774 0
M  V30 1845 C 174.899 1.44022 -5.73595 0
M  V30 1846 H 173.829 0.332033 -0.676957 0
M  V30 1847 H 176.48 0.132008 -1.83025 0
M  V30 1848 H 174.862 2.40599 -3.14529 0
M  V30 1849 H 176.036 -0.0506815 -4.60772 0
M  V30 1850 H 174.351 0.112419 -4.16248 0
M  V30 1851 H 176.948 2.8719 -4.51028 0
M  V30 1852 H 177.291 3.07201 -2.8095 0
M  V30 1853 H 177.824 1.59297 -3.64513 0
M  V30 1854 H 174.563 0.72612 -6.51466 0
M  V30 1855 H 174.083 2.16898 -5.5921 0
M  V30 1856 H 175.762 1.98606 -6.15764 0
M  V30 1857 N 175.894 1.51508 0.433938 0
M  V30 1858 C 176.857 1.72473 1.50949 0
M  V30 1859 C 177.857 0.594725 1.49398 0
M  V30 1860 O 179.047 0.862315 1.5136 0
M  V30 1861 C 176.179 1.78431 2.90474 0
M  V30 1862 H 177.372 2.68467 1.33662 0
M  V30 1863 H 174.925 1.41549 0.662836 0
M  V30 1864 H 175.66 0.842645 3.13161 0
M  V30 1865 H 175.445 2.60558 2.93005 0
M  V30 1866 H 176.935 1.96479 3.68491 0
M  V30 1867 N 177.372 -0.689602 1.41712 0
M  V30 1868 C 178.302 -1.81577 1.46806 0
M  V30 1869 C 179.283 -1.66945 0.326105 0
M  V30 1870 O 180.468 -1.86588 0.538377 0
M  V30 1871 C 177.598 -3.19762 1.35535 0
M  V30 1872 C 176.552 -3.49107 2.47605 0
M  V30 1873 C 175.878 -4.86711 2.21397 0
M  V30 1874 C 177.178 -3.47483 3.89939 0
M  V30 1875 H 178.872 -1.7757 2.41058 0
M  V30 1876 H 176.418 -0.852887 1.16025 0
M  V30 1877 H 178.371 -3.98263 1.3771 0
M  V30 1878 H 177.095 -3.24409 0.377708 0
M  V30 1879 H 175.754 -2.72959 2.44722 0
M  V30 1880 H 175.402 -4.8799 1.21961 0
M  V30 1881 H 175.102 -5.0731 2.96497 0
M  V30 1882 H 176.626 -5.67515 2.25297 0
M  V30 1883 H 178.04 -4.1598 3.94505 0
M  V30 1884 H 176.437 -3.79615 4.64771 0
M  V30 1885 H 177.507 -2.46341 4.17665 0
M  V30 1886 N 178.85 -1.27639 -0.924453 0
M  V30 1887 C 180.127 -1.04887 -1.651 0
M  V30 1888 C 180.507 0.415327 -2.06974 0
M  V30 1889 O 179.855 1.39923 -1.80648 0
M  V30 1890 C 180.065 -2.01348 -2.85061 0
M  V30 1891 C 181.413 -2.30899 -3.56329 0
M  V30 1892 O 182.437 -1.99348 -2.95193 0
M  V30 1893 O 181.296 -2.84699 -4.66485 0
M  V30 1894 H 178.39 -0.400083 -0.723784 0
M  V30 1895 H 180.936 -1.38916 -0.974703 0
M  V30 1896 H 179.708 -3.0008 -2.51133 0
M  V30 1897 H 179.331 -1.679 -3.6041 0
M  V30 1898 N 180.328 1.1314 -1.09713 0
M  V30 1899 C 181.744 1.36477 -0.827423 0
M  V30 1900 C 181.944 1.93654 0.556817 0
M  V30 1901 O 181 2.15791 1.31112 0
M  V30 1902 C 182.313 2.31334 -1.92106 0
M  V30 1903 C 183.861 2.44943 -1.94864 0
M  V30 1904 C 184.336 3.4311 -3.0338 0
M  V30 1905 N 185.827 3.50662 -3.02639 0
M  V30 1906 C 186.562 4.2651 -3.83246 0
M  V30 1907 N 186.058 5.05485 -4.73768 0
M  V30 1908 N 187.851 4.2184 -3.71493 0
M  V30 1909 H 180.002 0.743807 -1.9895 0
M  V30 1910 H 182.265 0.389823 -0.864143 0
M  V30 1911 H 181.971 1.96483 -2.91698 0
M  V30 1912 H 181.845 3.31381 -1.80184 0
M  V30 1913 H 184.232 2.79079 -0.959099 0
M  V30 1914 H 184.313 1.4481 -2.10864 0
M  V30 1915 H 183.957 3.09704 -4.02549 0
M  V30 1916 H 183.887 4.43055 -2.84622 0
M  V30 1917 H 186.378 2.94315 -2.37039 0
M  V30 1918 H 186.691 5.60675 -5.3185 0
M  V30 1919 H 185.036 5.04708 -4.77802 0
M  V30 1920 H 188.227 3.5922 -3.00131 0
M  V30 1921 H 188.4 4.80697 -4.3455 0
M  V30 1922 N 181.806 0.884767 1.30421 0
M  V30 1923 C 183.046 0.509806 1.9794 0
M  V30 1924 C 183.41 -0.923736 1.68319 0
M  V30 1925 O 184.611 -1.40481 2.29169 0
M  V30 1926 C 182.882 0.776732 3.48858 0
M  V30 1927 S 184.441 0.503843 4.35898 0
M  V30 1928 H 181.259 0.189699 0.685227 0
M  V30 1929 H 183.861 1.14399 1.58535 0
M  V30 1930 H 182.565 1.81857 3.67908 0
M  V30 1931 H 182.096 0.1301 3.93185 0
M  V30 1932 H 184.111 -0.657625 4.91823 0
M  V30 1933 N 183.284 -1.43765 0.645699 0
M  V30 1934 C 184.53 -2.02197 0.156271 0
M  V30 1935 C 184.863 -1.50776 -1.22393 0
M  V30 1936 O 184.138 -0.697771 -1.81553 0
M  V30 1937 C 184.421 -3.59749 0.158872 0
M  V30 1938 C 184.274 -4.21419 1.57245 0
M  V30 1939 C 185.593 -4.37149 -0.50879 0
M  V30 1940 H 182.712 -0.734694 0.0582602 0
M  V30 1941 H 185.354 -1.71157 0.824951 0
M  V30 1942 H 183.504 -3.86325 -0.410525 0
M  V30 1943 H 185.176 -4.059 2.19186 0
M  V30 1944 H 183.419 -3.78356 2.122 0
M  V30 1945 H 184.09 -5.30482 1.52619 0
M  V30 1946 H 186.566 -4.16093 -0.024412 0
M  V30 1947 H 185.442 -5.4683 -0.476213 0
M  V30 1948 H 185.703 -4.12839 -1.58165 0
M  V30 1949 N 184.763 -0.387143 -1.52771 0
M  V30 1950 C 186.003 0.195537 -2.03463 0
M  V30 1951 C 186.367 1.44222 -1.26744 0
M  V30 1952 O 187.568 2.10192 -1.67549 0
M  V30 1953 C 185.839 0.459097 -3.54439 0
M  V30 1954 S 187.398 1.01237 -4.26962 0
M  V30 1955 H 184.216 0.0552675 -0.708849 0
M  V30 1956 H 186.818 -0.534992 -1.88037 0
M  V30 1957 H 185.522 -0.455382 -4.07866 0
M  V30 1958 H 185.053 1.21811 -3.74066 0
M  V30 1959 H 187.068 2.29492 -4.39941 0
M  V30 1960 N 186.241 1.57166 -0.116904 0
M  V30 1961 C 187.487 1.95412 0.542405 0
M  V30 1962 C 187.82 1.00019 1.66463 0
M  V30 1963 O 187.095 0.0370346 1.94465 0
M  V30 1964 C 187.378 3.43615 1.07708 0
M  V30 1965 C 187.231 4.49781 -0.0415868 0
M  V30 1966 C 188.55 3.93616 1.96861 0
M  V30 1967 H 185.669 0.710543 0.195696 0
M  V30 1968 H 188.311 1.89027 -0.192038 0
M  V30 1969 H 186.461 3.49187 1.70296 0
M  V30 1970 H 188.133 4.56308 -0.676793 0
M  V30 1971 H 186.376 4.28033 -0.705019 0
M  V30 1972 H 187.047 5.50733 0.373717 0
M  V30 1973 H 189.523 3.90335 1.44146 0
M  V30 1974 H 188.399 4.97838 2.3119 0
M  V30 1975 H 188.66 3.34188 2.89432 0
M  V30 1976 N 187.719 -0.156864 1.56817 0
M  V30 1977 C 188.649 -1.19589 2.00551 0
M  V30 1978 C 189.63 -1.4536 0.883426 0
M  V30 1979 O 190.815 -1.56449 1.15054 0
M  V30 1980 C 187.945 -2.53143 2.37773 0
M  V30 1981 C 186.899 -2.41913 3.53075 0
M  V30 1982 C 186.225 -3.80088 3.76081 0
M  V30 1983 C 187.525 -1.91157 4.86062 0
M  V30 1984 H 189.219 -0.832293 2.87599 0
M  V30 1985 H 186.765 -0.398918 1.38364 0
M  V30 1986 H 188.718 -3.26047 2.66967 0
M  V30 1987 H 187.442 -2.91319 1.4765 0
M  V30 1988 H 186.101 -1.71462 3.24031 0
M  V30 1989 H 185.749 -4.15683 2.83225 0
M  V30 1990 H 185.449 -3.73439 4.53671 0
M  V30 1991 H 186.973 -4.54556 4.0769 0
M  V30 1992 H 188.387 -2.53846 5.14038 0
M  V30 1993 H 186.784 -1.95422 5.67389 0
M  V30 1994 H 187.854 -0.866673 4.77092 0
M  V30 1995 N 189.197 -1.51736 -0.425897 0
M  V30 1996 C 190.147 -1.70258 -1.51645 0
M  V30 1997 C 191.131 -0.556488 -1.5097 0
M  V30 1998 O 192.323 -0.812879 -1.5723 0
M  V30 1999 C 189.452 -1.84143 -2.89735 0
M  V30 2000 C 188.538 -3.04572 -2.95122 0
M  V30 2001 N 188.929 -4.2756 -2.70233 0
M  V30 2002 C 187.227 -3.04061 -3.26286 0
M  V30 2003 C 187.928 -5.08908 -2.81757 0
M  V30 2004 N 186.904 -4.43797 -3.13919 0
M  V30 2005 H 190.706 -2.63004 -1.31172 0
M  V30 2006 H 188.22 -1.4954 -0.633375 0
M  V30 2007 H 190.217 -1.95525 -3.68206 0
M  V30 2008 H 188.877 -0.925857 -3.1122 0
M  V30 2009 H 189.888 -4.56315 -2.44943 0
M  V30 2010 H 186.565 -2.22179 -3.53473 0
M  V30 2011 H 187.955 -6.16843 -2.66372 0
M  V30 2012 N 190.675 0.682077 -1.42076 0
M  V30 2013 C 192.086 1.26246 -1.37546 0
M  V30 2014 C 192.437 1.96092 -0.0651481 0
M  V30 2015 O 191.562 1.99587 0.836297 0
M  V30 2016 C 192.157 2.29594 -2.49143 0
M  V30 2017 C 190.716 2.83175 -2.47969 0
M  V30 2018 C 189.863 1.57395 -2.28303 0
M  V30 2019 H 192.814 0.475937 -1.51395 0
M  V30 2020 H 192.835 3.11175 -2.18976 0
M  V30 2021 H 192.347 1.78729 -3.44496 0
M  V30 2022 H 190.448 3.3818 -1.56413 0
M  V30 2023 H 190.561 3.32687 -3.44755 0
M  V30 2024 H 188.925 1.83699 -1.76428 0
M  V30 2025 H 189.708 1.08507 -3.25701 0
M  V30 2026 N 192.153 1.28127 0.917671 0
M  V30 2027 C 193.399 1.15223 1.66888 0
M  V30 2028 C 193.732 -0.299293 1.9188 0
M  V30 2029 O 193.007 -1.21805 1.51637 0
M  V30 2030 C 193.29 1.94706 3.02922 0
M  V30 2031 C 193.143 3.47898 2.85109 0
M  V30 2032 C 194.462 1.75939 4.03402 0
M  V30 2033 H 191.581 0.419946 0.605652 0
M  V30 2034 H 194.223 1.57398 1.06423 0
M  V30 2035 H 192.373 1.58864 3.54534 0
M  V30 2036 H 194.045 3.93624 2.40537 0
M  V30 2037 H 192.288 3.7373 2.20246 0
M  V30 2038 H 192.959 3.98765 3.81694 0
M  V30 2039 H 195.435 2.07209 3.60837 0
M  V30 2040 H 194.311 2.33931 4.96556 0
M  V30 2041 H 194.572 0.709877 4.36364 0
M  V30 2042 N 193.631 -1.12557 1.10312 0
M  V30 2043 C 194.877 -1.84515 0.855901 0
M  V30 2044 C 195.232 -1.82409 -0.611936 0
M  V30 2045 O 194.525 -1.25778 -1.44535 0
M  V30 2046 C 194.719 -3.31462 1.33669 0
M  V30 2047 C 194.548 -3.47879 2.84974 0
M  V30 2048 C 193.318 -3.61589 3.52961 0
M  V30 2049 C 195.516 -3.43152 3.83081 0
M  V30 2050 N 193.498 -3.66359 4.926 0
M  V30 2051 C 194.869 -3.54401 5.08724 0
M  V30 2052 C 196.924 -3.2661 3.75807 0
M  V30 2053 C 195.627 -3.50815 6.2795 0
M  V30 2054 C 197.653 -3.24335 4.94531 0
M  V30 2055 C 197.015 -3.36144 6.19021 0
M  V30 2056 H 193.114 -0.690967 0.366182 0
M  V30 2057 H 195.698 -1.34763 1.40524 0
M  V30 2058 H 193.869 -3.7976 0.814686 0
M  V30 2059 H 195.601 -3.91272 1.03385 0
M  V30 2060 H 192.356 -3.63652 3.03404 0
M  V30 2061 H 192.78 -3.72411 5.65366 0
M  V30 2062 H 197.422 -3.16375 2.80476 0
M  V30 2063 H 195.14 -3.5982 7.23571 0
M  V30 2064 H 198.726 -3.12719 4.9061 0
M  V30 2065 H 197.606 -3.34357 7.09348 0
M  V30 2066 N 195.109 -0.891671 -1.2995 0
M  V30 2067 C 196.337 -0.52866 -2.00032 0
M  V30 2068 C 196.752 0.884574 -1.66795 0
M  V30 2069 O 196.109 1.5827 -0.908669 0
M  V30 2070 C 196.16 -0.701814 -3.54622 0
M  V30 2071 O 195.881 -2.05942 -3.86678 0
M  V30 2072 C 197.382 -0.342683 -4.41973 0
M  V30 2073 H 194.602 -0.203659 -0.639347 0
M  V30 2074 H 197.146 -1.19881 -1.65677 0
M  V30 2075 H 195.301 -0.0789468 -3.8732 0
M  V30 2076 H 195.715 -2.08291 -4.81368 0
M  V30 2077 H 197.189 -0.514709 -5.49595 0
M  V30 2078 H 197.666 0.71975 -4.33262 0
M  V30 2079 H 198.272 -0.942154 -4.14733 0
M  V30 2080 N 196.587 1.43421 -0.653314 0
M  V30 2081 C 197.519 2.29071 0.0769134 0
M  V30 2082 C 198.532 1.42513 0.787017 0
M  V30 2083 O 199.721 1.66449 0.644757 0
M  V30 2084 C 196.821 3.19436 1.13199 0
M  V30 2085 C 195.994 4.34533 0.500006 0
M  V30 2086 C 195.053 5.05771 1.45198 0
M  V30 2087 O 194.079 5.61037 0.960538 0
M  V30 2088 N 195.281 5.0928 2.78594 0
M  V30 2089 H 198.046 2.92382 -0.658235 0
M  V30 2090 H 195.607 1.54112 -0.496104 0
M  V30 2091 H 197.599 3.63958 1.76964 0
M  V30 2092 H 196.169 2.57724 1.7691 0
M  V30 2093 H 195.389 3.92925 -0.316738 0
M  V30 2094 H 196.677 5.08766 0.0588345 0
M  V30 2095 H 196.075 4.65751 3.2108 0
M  V30 2096 H 194.632 5.57519 3.37662 0
M  V30 2097 N 198.065 0.39524 1.52563 0
M  V30 2098 C 199.013 -0.451859 2.28169 0
M  V30 2099 C 200.007 -1.05792 1.32304 0
M  V30 2100 O 201.213 -0.997718 1.49818 0
M  V30 2101 H 197.588 -0.164481 0.733792 0
M  V30 2102 H 199.559 0.207199 2.9768 0
M  V30 2103 C 198.308 -1.56385 3.10546 0
M  V30 2104 H 197.631 -1.10682 3.84174 0
M  V30 2105 H 199.071 -2.13067 3.66577 0
M  V30 2106 C 197.53 -2.52328 2.23231 0
M  V30 2107 O 198.06 -3.5588 1.86312 0
M  V30 2108 N 196.266 -2.22209 1.87274 0
M  V30 2109 H 195.813 -1.38033 2.17496 0
M  V30 2110 H 195.771 -2.86652 1.29143 0
M  V30 2111 N 199.544 -1.57102 0.125237 0
M  V30 2112 C 200.494 -2.12202 -0.833936 0
M  V30 2113 C 201.478 -1.04433 -1.22403 0
M  V30 2114 O 202.67 -1.30655 -1.19408 0
M  V30 2115 C 199.799 -2.72994 -2.08157 0
M  V30 2116 C 198.885 -3.87852 -1.71556 0
M  V30 2117 N 199.276 -4.9464 -1.05662 0
M  V30 2118 C 197.574 -3.98153 -2.00973 0
M  V30 2119 C 198.275 -5.74953 -0.883376 0
M  V30 2120 N 197.251 -5.24985 -1.41036 0
M  V30 2121 H 201.053 -2.92141 -0.321035 0
M  V30 2122 H 198.567 -1.62217 -0.0770315 0
M  V30 2123 H 200.564 -3.10816 -2.77847 0
M  V30 2124 H 199.224 -1.9452 -2.59985 0
M  V30 2125 H 200.235 -5.12872 -0.719878 0
M  V30 2126 H 196.912 -3.30728 -2.54804 0
M  V30 2127 H 198.302 -6.70904 -0.365675 0
M  V30 2128 N 201.022 0.148545 -1.56898 0
M  V30 2129 C 202.438 0.501131 -1.51528 0
M  V30 2130 C 202.638 1.83458 -0.833399 0
M  V30 2131 O 201.694 2.49259 -0.40328 0
M  V30 2132 C 203.007 0.512864 -2.96294 0
M  V30 2133 C 204.555 0.598487 -3.07225 0
M  V30 2134 C 205.03 0.640897 -4.53494 0
M  V30 2135 N 206.521 0.703163 -4.57832 0
M  V30 2136 C 207.256 0.756935 -5.68382 0
M  V30 2137 N 206.752 0.770147 -6.88506 0
M  V30 2138 N 208.545 0.797698 -5.56411 0
M  V30 2139 H 200.696 -0.725532 -1.99624 0
M  V30 2140 H 202.959 -0.264358 -0.910395 0
M  V30 2141 H 202.665 -0.398691 -3.49433 0
M  V30 2142 H 202.539 1.35133 -3.52163 0
M  V30 2143 H 204.926 1.50046 -2.54106 0
M  V30 2144 H 205.007 -0.267093 -2.54402 0
M  V30 2145 H 204.651 -0.256915 -5.0725 0
M  V30 2146 H 204.581 1.52295 -5.04097 0
M  V30 2147 H 207.072 0.700314 -3.71354 0
M  V30 2148 H 207.385 0.812983 -7.68512 0
M  V30 2149 H 205.73 0.738049 -6.9107 0
M  V30 2150 H 208.921 0.784535 -4.61479 0
M  V30 2151 H 209.094 0.83614 -6.42583 0
M  V30 2152 N 202.5 1.5196 0.417844 0
M  V30 2153 C 203.728 1.69426 1.18753 0
M  V30 2154 C 204.143 0.399955 1.84515 0
M  V30 2155 O 203.5 -0.623288 1.71527 0
M  V30 2156 C 203.551 2.82375 2.25714 0
M  V30 2157 O 203.272 4.06793 1.62638 0
M  V30 2158 C 204.773 3.11277 3.15628 0
M  V30 2159 H 201.993 0.568031 0.357186 0
M  V30 2160 H 204.537 1.98475 0.49273 0
M  V30 2161 H 202.692 2.5587 2.90877 0
M  V30 2162 H 203.106 4.69667 2.3348 0
M  V30 2163 H 204.58 3.93843 3.86771 0
M  V30 2164 H 205.057 2.24473 3.77503 0
M  V30 2165 H 205.663 3.39515 2.56144 0
M  V30 2166 N 203.978 -0.674533 1.42435 0
M  V30 2167 C 205.224 -1.43671 1.43131 0
M  V30 2168 C 205.557 -1.94142 0.0476021 0
M  V30 2169 O 204.832 -1.70924 -0.928188 0
M  V30 2170 C 205.115 -2.63355 2.45594 0
M  V30 2171 C 204.968 -2.18514 3.93156 0
M  V30 2172 C 206.287 -3.65571 2.45043 0
M  V30 2173 H 203.406 -0.521077 0.521198 0
M  V30 2174 H 206.048 -0.766551 1.7385 0
M  V30 2175 H 204.198 -3.2053 2.19528 0
M  V30 2176 H 205.87 -1.66504 4.30202 0
M  V30 2177 H 204.113 -1.50086 4.07009 0
M  V30 2178 H 204.784 -3.04484 4.60428 0
M  V30 2179 H 207.26 -3.18113 2.68223 0
M  V30 2180 H 206.136 -4.46893 3.18713 0
M  V30 2181 H 206.397 -4.16716 1.47649 0
M  V30 2182 N 205.456 -1.28612 -0.910864 0
M  V30 2183 C 206.681 -1.1891 -1.69927 0
M  V30 2184 C 207.106 0.248372 -1.86453 0
M  V30 2185 O 206.464 1.17961 -1.37676 0
M  V30 2186 C 206.512 -1.89578 -3.06745 0
M  V30 2187 O 205.616 -1.20521 -3.94396 0
M  V30 2188 H 204.957 -0.412632 -0.520222 0
M  V30 2189 H 207.487 -1.69985 -1.1387 0
M  V30 2190 H 207.497 -1.97597 -3.56958 0
M  V30 2191 H 206.172 -2.94136 -2.94035 0
M  V30 2192 H 204.749 -1.20684 -3.52831 0
M  V30 2193 N 206.934 1.1197 -1.10907 0
M  V30 2194 C 207.864 2.19928 -0.784473 0
M  V30 2195 C 208.845 1.6833 0.244726 0
M  V30 2196 O 210.03 1.93892 0.109418 0
M  V30 2197 C 207.16 3.46597 -0.220827 0
M  V30 2198 C 206.114 4.11376 -1.18127 0
M  V30 2199 C 205.44 5.32554 -0.478594 0
M  V30 2200 C 206.74 4.56945 -2.52979 0
M  V30 2201 H 208.434 2.47337 -1.68715 0
M  V30 2202 H 205.98 1.18879 -0.812642 0
M  V30 2203 H 207.933 4.21396 0.0184278 0
M  V30 2204 H 206.657 3.1863 0.717113 0
M  V30 2205 H 205.316 3.38564 -1.40606 0
M  V30 2206 H 204.964 5.00856 0.463976 0
M  V30 2207 H 204.664 5.76844 -1.11912 0
M  V30 2208 H 206.188 6.10096 -0.248 0
M  V30 2209 H 207.602 5.23093 -2.3462 0
M  V30 2210 H 205.999 5.1203 -3.12962 0
M  V30 2211 H 207.069 3.70676 -3.12614 0
M  V30 2212 N 208.412 0.89855 1.29475 0
M  V30 2213 C 209.375 0.380272 2.26023 0
M  V30 2214 C 210.375 -0.484891 1.53315 0
M  V30 2215 O 211.565 -0.290108 1.71767 0
M  V30 2216 C 208.697 -0.45651 3.3783 0
M  V30 2217 H 209.89 1.23295 2.73383 0
M  V30 2218 H 207.443 0.676589 1.40897 0
M  V30 2219 H 208.178 -1.32922 2.95808 0
M  V30 2220 H 207.963 0.163393 3.91759 0
M  V30 2221 H 209.453 -0.810466 4.0966 0
M  V30 2222 N 209.89 -1.43072 0.660911 0
M  V30 2223 C 210.837 -2.30785 -0.0259884 0
M  V30 2224 C 211.807 -1.45184 -0.806888 0
M  V30 2225 O 212.992 -1.74041 -0.781943 0
M  V30 2226 C 210.132 -3.30861 -0.981067 0
M  V30 2227 C 209.245 -4.31558 -0.195458 0
M  V30 2228 C 208.38 -5.18712 -1.14503 0
M  V30 2229 C 207.419 -6.11097 -0.350299 0
M  V30 2230 N 206.556 -6.90849 -1.25186 0
M  V30 2231 H 211.396 -2.88975 0.727846 0
M  V30 2232 H 208.933 -1.42353 0.370682 0
M  V30 2233 H 210.891 -3.87399 -1.54849 0
M  V30 2234 H 209.521 -2.74304 -1.70169 0
M  V30 2235 H 208.573 -3.77252 0.488374 0
M  V30 2236 H 209.885 -4.9701 0.422176 0
M  V30 2237 H 209.039 -5.79914 -1.78284 0
M  V30 2238 H 207.778 -4.53404 -1.79656 0
M  V30 2239 H 206.783 -5.48976 0.300808 0
M  V30 2240 H 208.008 -6.7845 0.296941 0
M  V30 2241 H 205.954 -6.28182 -1.89005 0
M  V30 2242 H 205.871 -7.52854 -0.688971 0
M  V30 2243 H 207.139 -7.5655 -1.87757 0
M  V30 2244 N 211.368 -0.403325 -1.52352 0
M  V30 2245 C 212.315 0.425011 -2.26853 0
M  V30 2246 C 213.285 1.04598 -1.29029 0
M  V30 2247 O 214.47 1.07135 -1.57882 0
M  V30 2248 C 211.61 1.53888 -3.08889 0
M  V30 2249 C 210.723 0.939396 -4.21663 0
M  V30 2250 C 209.858 2.02547 -4.91068 0
M  V30 2251 C 208.897 1.40263 -5.95813 0
M  V30 2252 N 208.034 2.4286 -6.58759 0
M  V30 2253 H 212.874 -0.21674 -2.97211 0
M  V30 2254 H 210.411 -0.118722 -1.4662 0
M  V30 2255 H 212.369 2.19558 -3.54753 0
M  V30 2256 H 210.999 2.15074 -2.40714 0
M  V30 2257 H 210.051 0.171898 -3.80011 0
M  V30 2258 H 211.363 0.44436 -4.96817 0
M  V30 2259 H 210.517 2.75958 -5.40308 0
M  V30 2260 H 209.256 2.55415 -4.15469 0
M  V30 2261 H 208.261 0.653833 -5.45898 0
M  V30 2262 H 209.486 0.881719 -6.73352 0
M  V30 2263 H 207.432 2.94871 -5.85992 0
M  V30 2264 H 207.349 1.98152 -7.2957 0
M  V30 2265 H 208.617 3.15858 -7.12639 0
M  V30 2266 N 212.846 1.57033 -0.133567 0
M  V30 2267 C 214.092 1.95976 0.521649 0
M  V30 2268 C 214.425 1.01779 1.65393 0
M  V30 2269 O 213.7 0.0576581 1.94415 0
M  V30 2270 C 213.983 3.44738 1.04057 0
M  V30 2271 C 213.836 4.49711 -0.0892897 0
M  V30 2272 C 215.155 3.95682 1.92675 0
M  V30 2273 H 212.274 0.712579 0.188149 0
M  V30 2274 H 214.916 1.88813 -0.212076 0
M  V30 2275 H 213.066 3.50973 1.66583 0
M  V30 2276 H 214.738 4.55565 -0.725152 0
M  V30 2277 H 212.981 4.27261 -0.750378 0
M  V30 2278 H 213.652 5.51099 0.315284 0
M  V30 2279 H 216.128 3.91841 1.39998 0
M  V30 2280 H 215.004 5.00262 2.25897 0
M  V30 2281 H 215.265 3.37239 2.85872 0
M  V30 2282 N 214.325 -0.140222 1.56975 0
M  V30 2283 C 215.574 -0.850152 1.82908 0
M  V30 2284 C 215.887 -1.82028 0.715892 0
M  V30 2285 O 217.093 -2.57485 0.861016 0
M  V30 2286 C 215.549 -1.5625 3.24213 0
M  V30 2287 C 215.157 -0.63443 4.43485 0
M  V30 2288 C 216.901 -2.25881 3.59413 0
M  V30 2289 C 214.808 -1.34879 5.75814 0
M  V30 2290 H 213.738 -0.321221 0.682153 0
M  V30 2291 H 216.389 -0.102874 1.83211 0
M  V30 2292 H 214.771 -2.35565 3.18316 0
M  V30 2293 H 215.945 0.12398 4.60633 0
M  V30 2294 H 214.26 -0.0461836 4.16374 0
M  V30 2295 H 216.857 -2.79978 4.5554 0
M  V30 2296 H 217.2 -3.02693 2.85802 0
M  V30 2297 H 217.733 -1.53477 3.67001 0
M  V30 2298 H 214.472 -0.622385 6.52539 0
M  V30 2299 H 213.992 -2.07974 5.6259 0
M  V30 2300 H 215.671 -1.88784 6.18845 0
M  V30 2301 N 215.803 -1.52179 -0.40978 0
M  V30 2302 C 217.052 -1.65434 -1.15388 0
M  V30 2303 C 217.365 -0.390056 -1.91671 0
M  V30 2304 O 218.571 -0.402399 -2.68501 0
M  V30 2305 C 217.027 -2.92279 -2.10003 0
M  V30 2306 C 216.635 -4.25813 -1.39239 0
M  V30 2307 C 218.379 -3.14897 -2.84675 0
M  V30 2308 C 216.286 -5.43782 -2.32498 0
M  V30 2309 H 215.216 -0.616267 -0.434432 0
M  V30 2310 H 217.867 -1.78666 -0.418401 0
M  V30 2311 H 216.249 -2.72744 -2.871 0
M  V30 2312 H 217.423 -4.55828 -0.675099 0
M  V30 2313 H 215.738 -4.09292 -0.766097 0
M  V30 2314 H 218.335 -4.0021 -3.54593 0
M  V30 2315 H 218.678 -2.29103 -3.47588 0
M  V30 2316 H 219.211 -3.34901 -2.14677 0
M  V30 2317 H 215.95 -6.3192 -1.74233 0
M  V30 2318 H 215.47 -5.18106 -3.02201 0
M  V30 2319 H 217.149 -5.76834 -2.93038 0
M  V30 2320 N 217.281 0.66697 -1.42791 0
M  V30 2321 C 218.529 1.42417 -1.43394 0
M  V30 2322 C 218.85 1.94925 -0.0542373 0
M  V30 2323 O 218.12 1.73564 0.908415 0
M  V30 2324 H 216.7 0.528515 -0.527902 0
M  V30 2325 H 219.362 0.787562 -1.78279 0
M  V30 2326 H 218.458 2.27333 -2.13837 0
M  V30 2327 N 218.759 1.29093 0.90403 0
M  V30 2328 C 220.17 1.15186 1.46932 0
M  V30 2329 C 220.521 -0.254587 1.94541 0
M  V30 2330 O 219.646 -1.14972 1.83332 0
M  V30 2331 C 220.241 2.08492 2.67051 0
M  V30 2332 C 218.8 1.98621 3.19729 0
M  V30 2333 C 217.947 1.9967 1.92425 0
M  V30 2334 H 220.898 1.41641 0.715789 0
M  V30 2335 H 220.919 1.65461 3.42641 0
M  V30 2336 H 220.431 3.10847 2.3237 0
M  V30 2337 H 218.532 0.993389 3.59114 0
M  V30 2338 H 218.645 2.86068 3.8432 0
M  V30 2339 H 217.009 1.44208 2.09943 0
M  V30 2340 H 217.792 3.03721 1.60026 0
M  V30 2341 N 220.237 -1.11381 1.11499 0
M  V30 2342 C 221.483 -1.83597 0.875423 0
M  V30 2343 C 221.838 -1.83048 -0.592555 0
M  V30 2344 O 221.131 -1.27304 -1.43193 0
M  V30 2345 C 221.325 -3.30026 1.37177 0
M  V30 2346 C 221.154 -3.44837 2.88647 0
M  V30 2347 C 219.924 -3.57825 3.56776 0
M  V30 2348 C 222.122 -3.3907 3.86699 0
M  V30 2349 N 220.104 -3.61113 4.96458 0
M  V30 2350 C 221.475 -3.48986 5.12454 0
M  V30 2351 C 223.53 -3.22605 3.7925 0
M  V30 2352 C 222.233 -3.44135 6.31636 0
M  V30 2353 C 224.259 -3.19072 4.97943 0
M  V30 2354 C 223.621 -3.29559 6.22551 0
M  V30 2355 H 219.72 -0.687044 0.37349 0
M  V30 2356 H 222.304 -1.33265 1.41946 0
M  V30 2357 H 220.475 -3.78874 0.854919 0
M  V30 2358 H 222.207 -3.90153 1.07529 0
M  V30 2359 H 218.962 -3.60414 3.07244 0
M  V30 2360 H 219.386 -3.66394 5.69284 0
M  V30 2361 H 224.028 -3.13382 2.83816 0
M  V30 2362 H 221.746 -3.52126 7.27347 0
M  V30 2363 H 225.332 -3.07498 4.93899 0
M  V30 2364 H 224.212 -3.26815 7.12855 0
M  V30 2365 N 221.715 -0.905404 -1.28997 0
M  V30 2366 C 222.961 -0.535039 -1.95615 0
M  V30 2367 C 223.294 0.917404 -1.71165 0
M  V30 2368 O 222.569 1.65123 -1.02785 0
M  V30 2369 C 222.852 -0.834918 -3.50287 0
M  V30 2370 C 222.705 -2.33948 -3.84172 0
M  V30 2371 C 224.024 -0.325318 -4.38896 0
M  V30 2372 H 221.143 -0.195861 -0.710498 0
M  V30 2373 H 223.785 -1.13313 -1.52513 0
M  V30 2374 H 221.935 -0.325904 -3.87131 0
M  V30 2375 H 223.607 -2.91847 -3.57243 0
M  V30 2376 H 221.85 -2.79789 -3.31513 0
M  V30 2377 H 222.521 -2.49987 -4.92149 0
M  V30 2378 H 224.997 -0.761256 -4.09077 0
M  V30 2379 H 223.873 -0.564295 -5.45992 0
M  V30 2380 H 224.134 0.774144 -4.35269 0
M  V30 2381 N 223.193 1.4272 -0.668489 0
M  V30 2382 C 224.126 2.28111 0.0637898 0
M  V30 2383 C 225.104 1.40705 0.814912 0
M  V30 2384 O 226.288 1.70146 0.81134 0
M  V30 2385 C 223.415 3.20429 1.0974 0
M  V30 2386 C 222.461 4.24197 0.442579 0
M  V30 2387 S 223.294 5.29563 -0.795173 0
M  V30 2388 C 224.45 6.25449 0.237516 0
M  V30 2389 H 224.683 2.8987 -0.660521 0
M  V30 2390 H 222.216 1.47456 -0.457821 0
M  V30 2391 H 224.174 3.74158 1.68868 0
M  V30 2392 H 222.835 2.57818 1.79411 0
M  V30 2393 H 222.028 4.88954 1.22227 0
M  V30 2394 H 221.63 3.73925 -0.0749554 0
M  V30 2395 H 223.922 6.68524 1.09915 0
M  V30 2396 H 224.865 7.07104 -0.375421 0
M  V30 2397 H 225.273 5.61511 0.580167 0
M  V30 2398 N 224.671 0.411399 1.52136 0
M  V30 2399 C 225.634 -0.401089 2.25663 0
M  V30 2400 C 226.634 -0.971732 1.28117 0
M  V30 2401 O 227.824 -0.850254 1.52041 0
M  V30 2402 C 224.956 -1.56483 3.02863 0
M  V30 2403 H 226.149 0.24295 2.98914 0
M  V30 2404 H 223.702 0.163968 1.55438 0
M  V30 2405 H 224.437 -2.24567 2.33967 0
M  V30 2406 H 224.222 -1.16211 3.74483 0
M  V30 2407 H 225.712 -2.13951 3.58629 0
M  V30 2408 N 226.149 -1.5696 0.141893 0
M  V30 2409 C 227.079 -2.19516 -0.795936 0
M  V30 2410 C 228.06 -1.14187 -1.26077 0
M  V30 2411 O 229.245 -1.42511 -1.31925 0
M  V30 2412 C 226.375 -2.81272 -2.03723 0
M  V30 2413 C 225.329 -3.92384 -1.70936 0
M  V30 2414 C 224.655 -4.41052 -3.02287 0
M  V30 2415 C 225.955 -5.13403 -0.959954 0
M  V30 2416 H 227.649 -2.98138 -0.274596 0
M  V30 2417 H 225.195 -1.43406 -0.130636 0
M  V30 2418 H 227.148 -3.237 -2.69808 0
M  V30 2419 H 225.872 -1.99973 -2.58221 0
M  V30 2420 H 224.531 -3.50566 -1.07232 0
M  V30 2421 H 224.179 -3.56582 -3.54765 0
M  V30 2422 H 223.879 -5.15993 -2.81114 0
M  V30 2423 H 225.403 -4.86146 -3.69451 0
M  V30 2424 H 226.817 -5.52706 -1.52279 0
M  V30 2425 H 225.214 -5.94073 -0.848357 0
M  V30 2426 H 226.284 -4.84875 0.0492434 0
M  V30 2427 N 227.627 0.131896 -1.57047 0
M  V30 2428 C 228.557 1.16384 -2.02428 0
M  V30 2429 C 229.538 1.43936 -0.90644 0
M  V30 2430 O 230.723 1.54599 -1.17528 0
M  V30 2431 C 227.853 2.49328 -2.4177 0
M  V30 2432 C 226.807 2.36266 -3.56879 0
M  V30 2433 C 226.133 3.74057 -3.8208 0
M  V30 2434 C 227.433 1.834 -4.89042 0
M  V30 2435 H 229.127 0.786433 -2.88887 0
M  V30 2436 H 226.673 0.376855 -1.38981 0
M  V30 2437 H 228.626 3.21759 -2.7212 0
M  V30 2438 H 227.35 2.88934 -1.52266 0
M  V30 2439 H 226.009 1.66286 -3.26718 0
M  V30 2440 H 225.657 4.11125 -2.89803 0
M  V30 2441 H 225.357 3.66174 -4.59554 0
M  V30 2442 H 226.881 4.48012 -4.1487 0
M  V30 2443 H 228.295 2.45636 -5.18011 0
M  V30 2444 H 226.692 1.8637 -5.70426 0
M  V30 2445 H 227.762 0.790662 -4.7841 0
M  V30 2446 N 229.106 1.52395 0.401703 0
M  V30 2447 C 230.036 1.79231 1.49661 0
M  V30 2448 C 231.017 0.643654 1.57452 0
M  V30 2449 O 232.202 0.889989 1.72606 0
M  V30 2450 C 229.332 1.94971 2.87409 0
M  V30 2451 C 228.286 3.10604 2.94465 0
M  V30 2452 C 227.612 3.11577 4.34538 0
M  V30 2453 C 228.912 4.49921 2.6527 0
M  V30 2454 H 230.606 2.70917 1.27454 0
M  V30 2455 H 228.152 1.30362 0.6117 0
M  V30 2456 H 230.105 2.12328 3.63999 0
M  V30 2457 H 228.829 0.999632 3.10926 0
M  V30 2458 H 227.488 2.93009 2.20321 0
M  V30 2459 H 227.136 2.14277 4.55076 0
M  V30 2460 H 226.836 3.89247 4.40183 0
M  V30 2461 H 228.36 3.31073 5.13053 0
M  V30 2462 H 229.774 4.67683 3.31581 0
M  V30 2463 H 228.171 5.29564 2.82281 0
M  V30 2464 H 229.241 4.57507 1.60671 0
M  V30 2465 N 230.584 -0.659388 1.43143 0
M  V30 2466 C 231.812 -1.44723 1.47861 0
M  V30 2467 C 232.227 -1.88563 0.0945886 0
M  V30 2468 O 231.584 -1.59108 -0.893915 0
M  V30 2469 C 231.635 -2.68627 2.41913 0
M  V30 2470 O 231.356 -2.26623 3.74932 0
M  V30 2471 C 232.857 -3.62045 2.55809 0
M  V30 2472 H 230.077 -0.444801 0.502387 0
M  V30 2473 H 232.621 -0.808916 1.87821 0
M  V30 2474 H 230.776 -3.28613 2.05164 0
M  V30 2475 H 231.19 -3.06745 4.2545 0
M  V30 2476 H 232.664 -4.45666 3.25708 0
M  V30 2477 H 233.141 -4.08981 1.60099 0
M  V30 2478 H 233.747 -3.07944 2.93344 0
M  V30 2479 N 232.062 -1.29571 -0.897171 0
M  V30 2480 C 232.992 -1.17473 -2.01798 0
M  V30 2481 C 233.973 -0.068323 -1.69963 0
M  V30 2482 O 235.158 -0.248239 -1.92607 0
M  V30 2483 C 232.288 -0.853099 -3.36659 0
M  V30 2484 C 231.242 -1.9161 -3.82713 0
M  V30 2485 C 230.568 -1.44773 -5.14728 0
M  V30 2486 C 231.868 -3.32535 -4.02763 0
M  V30 2487 H 233.562 -2.11237 -2.12177 0
M  V30 2488 H 231.108 -1.01699 -1.01948 0
M  V30 2489 H 233.061 -0.755165 -4.14578 0
M  V30 2490 H 231.785 0.120236 -3.26379 0
M  V30 2491 H 230.444 -2.00346 -3.07013 0
M  V30 2492 H 230.092 -0.462995 -5.00865 0
M  V30 2493 H 229.792 -2.15865 -5.46513 0
M  V30 2494 H 231.316 -1.36334 -5.95185 0
M  V30 2495 H 232.73 -3.26626 -4.71156 0
M  V30 2496 H 231.127 -4.01607 -4.45905 0
M  V30 2497 H 232.197 -3.75326 -3.07016 0
M  V30 2498 N 233.54 1.10788 -1.12088 0
M  V30 2499 C 234.951 1.64181 -0.88891 0
M  V30 2500 C 235.302 1.87508 0.577498 0
M  V30 2501 O 234.427 1.61434 1.44112 0
M  V30 2502 C 235.022 2.98257 -1.60712 0
M  V30 2503 C 233.581 3.4853 -1.42139 0
M  V30 2504 C 232.728 2.23208 -1.6454 0
M  V30 2505 H 235.679 0.943368 -1.27618 0
M  V30 2506 H 235.7 3.65552 -1.05604 0
M  V30 2507 H 235.212 2.81246 -2.67436 0
M  V30 2508 H 233.313 3.70692 -0.376552 0
M  V30 2509 H 233.426 4.26882 -2.17505 0
M  V30 2510 H 231.79 2.31169 -1.06925 0
M  V30 2511 H 232.573 2.08733 -2.72554 0
M  V30 2512 N 235.018 0.912232 1.28515 0
M  V30 2513 C 236.264 0.545405 1.95328 0
M  V30 2514 C 236.597 -0.908313 1.71649 0
M  V30 2515 O 235.872 -1.64575 1.03659 0
M  V30 2516 C 236.155 0.853483 3.4984 0
M  V30 2517 C 236.008 2.35982 3.82926 0
M  V30 2518 C 237.327 0.348589 4.38717 0
M  V30 2519 H 234.446 0.199626 0.709449 0
M  V30 2520 H 237.088 1.1412 1.5191 0
M  V30 2521 H 235.238 0.34643 3.86952 0
M  V30 2522 H 236.91 2.93738 3.55691 0
M  V30 2523 H 235.153 2.81543 3.30024 0
M  V30 2524 H 235.824 2.52593 4.90816 0
M  V30 2525 H 238.3 0.78294 4.08668 0
M  V30 2526 H 237.176 0.593242 5.45685 0
M  V30 2527 H 237.437 -0.751049 4.35674 0
M  V30 2528 N 236.496 -1.42363 0.676048 0
M  V30 2529 C 237.745 -2.00745 0.196037 0
M  V30 2530 C 238.058 -1.54083 -1.20489 0
M  V30 2531 O 239.264 -2.04891 -1.78134 0
M  V30 2532 C 237.72 -3.58651 0.299616 0
M  V30 2533 C 237.328 -4.143 1.70468 0
M  V30 2534 C 239.072 -4.24326 -0.121619 0
M  V30 2535 C 236.979 -5.64574 1.76096 0
M  V30 2536 H 235.909 -0.750787 0.0695301 0
M  V30 2537 H 238.56 -1.63072 0.841412 0
M  V30 2538 H 236.942 -3.93833 -0.413673 0
M  V30 2539 H 238.116 -3.90575 2.44515 0
M  V30 2540 H 236.431 -3.61081 2.07387 0
M  V30 2541 H 239.028 -5.34607 -0.0997362 0
M  V30 2542 H 239.371 -3.99897 -1.15708 0
M  V30 2543 H 239.904 -3.94108 0.540706 0
M  V30 2544 H 236.643 -5.93804 2.77628 0
M  V30 2545 H 236.163 -5.90286 1.06406 0
M  V30 2546 H 237.842 -6.29013 1.51496 0
M  V30 2547 N 237.974 -0.419461 -1.51915 0
M  V30 2548 C 239.223 0.154346 -2.01109 0
M  V30 2549 C 239.536 1.45338 -1.30905 0
M  V30 2550 O 240.742 2.10906 -1.7097 0
M  V30 2551 C 239.198 0.325615 -3.58424 0
M  V30 2552 C 238.806 -0.961934 -4.37551 0
M  V30 2553 C 240.55 0.854155 -4.15818 0
M  V30 2554 C 238.457 -0.757287 -5.86531 0
M  V30 2555 H 237.387 0.0614563 -0.751491 0
M  V30 2556 H 240.038 -0.54649 -1.75173 0
M  V30 2557 H 238.42 1.08903 -3.80731 0
M  V30 2558 H 239.594 -1.7323 -4.26999 0
M  V30 2559 H 237.909 -1.41766 -3.91524 0
M  V30 2560 H 240.506 1.02346 -5.24814 0
M  V30 2561 H 240.849 1.83172 -3.73837 0
M  V30 2562 H 241.382 0.149528 -3.97519 0
M  V30 2563 H 238.121 -1.70671 -6.32892 0
M  V30 2564 H 237.641 -0.0264061 -5.99794 0
M  V30 2565 H 239.32 -0.403482 -6.45741 0
M  V30 2566 N 239.452 1.56882 -0.150215 0
M  V30 2567 C 240.868 1.58263 0.20617 0
M  V30 2568 C 241.068 1.16464 1.64434 0
M  V30 2569 O 240.124 0.866422 2.3717 0
M  V30 2570 C 241.437 3.00649 -0.0555025 0
M  V30 2571 C 242.985 3.12999 0.00795388 0
M  V30 2572 C 243.46 4.5744 -0.226429 0
M  V30 2573 N 244.951 4.62875 -0.173469 0
M  V30 2574 C 245.686 5.72454 -0.329288 0
M  V30 2575 N 245.182 6.90669 -0.543005 0
M  V30 2576 N 246.975 5.61467 -0.266666 0
M  V30 2577 H 239.126 1.82345 -1.08922 0
M  V30 2578 H 241.389 0.844149 -0.431413 0
M  V30 2579 H 241.095 3.3563 -1.05096 0
M  V30 2580 H 240.969 3.71337 0.66246 0
M  V30 2581 H 243.356 2.77857 0.993966 0
M  V30 2582 H 243.437 2.4479 -0.742388 0
M  V30 2583 H 243.081 4.93287 -1.20956 0
M  V30 2584 H 243.011 5.2378 0.544274 0
M  V30 2585 H 245.502 3.77898 -0.0130709 0
M  V30 2586 H 245.815 7.70045 -0.651922 0
M  V30 2587 H 244.16 6.92581 -0.579366 0
M  V30 2588 H 247.351 4.67992 -0.100441 0
M  V30 2589 H 247.524 6.46816 -0.391535 0
M  V30 2590 N 240.93 -0.123565 1.57115 0
M  V30 2591 C 242.176 -0.833386 1.84885 0
M  V30 2592 C 242.509 -1.79742 0.735292 0
M  V30 2593 O 241.784 -1.92764 -0.25925 0
M  V30 2594 C 242.067 -1.5873 3.23228 0
M  V30 2595 C 241.92 -0.643183 4.45178 0
M  V30 2596 C 243.239 -2.54453 3.59085 0
M  V30 2597 H 240.358 -0.301518 0.6725 0
M  V30 2598 H 243 -0.097778 1.89748 0
M  V30 2599 H 241.15 -2.21438 3.19214 0
M  V30 2600 H 242.822 -0.0253015 4.61293 0
M  V30 2601 H 241.065 0.0456139 4.33776 0
M  V30 2602 H 241.736 -1.20724 5.38637 0
M  V30 2603 H 244.212 -2.01853 3.63861 0
M  V30 2604 H 243.088 -3.04238 4.5687 0
M  V30 2605 H 243.349 -3.36906 2.86264 0
M  V30 2606 N 242.408 -1.52605 -0.393616 0
M  V30 2607 C 243.636 -1.71294 -1.16043 0
M  V30 2608 C 244.051 -0.429259 -1.83855 0
M  V30 2609 O 243.408 0.595921 -1.72496 0
M  V30 2610 C 243.459 -2.8593 -2.21193 0
M  V30 2611 O 243.18 -4.09329 -1.56146 0
M  V30 2612 C 244.681 -3.16259 -3.10636 0
M  V30 2613 H 241.901 -0.573641 -0.348104 0
M  V30 2614 H 244.445 -1.99234 -0.461092 0
M  V30 2615 H 242.6 -2.60465 -2.86769 0
M  V30 2616 H 243.014 -4.73323 -2.25978 0
M  V30 2617 H 244.488 -3.99946 -3.80456 0
M  V30 2618 H 244.965 -2.3045 -3.73884 0
M  V30 2619 H 245.571 -3.43547 -2.50711 0
M  V30 2620 N 243.887 0.651787 -1.4349 0
M  V30 2621 C 245.115 1.43937 -1.48626 0
M  V30 2622 C 245.53 1.8851 -0.104587 0
M  V30 2623 O 244.887 1.5958 0.885464 0
M  V30 2624 C 244.938 2.6734 -2.43334 0
M  V30 2625 O 244.659 2.24631 -3.76128 0
M  V30 2626 C 246.16 3.60683 -2.57726 0
M  V30 2627 H 243.38 0.44213 -0.504739 0
M  V30 2628 H 245.924 0.798944 -1.88248 0
M  V30 2629 H 244.079 3.2752 -2.06904 0
M  V30 2630 H 244.493 3.04485 -4.2707 0
M  V30 2631 H 245.967 4.43933 -3.28067 0
M  V30 2632 H 246.444 4.08126 -1.62265 0
M  V30 2633 H 247.05 3.06384 -2.94973 0
M  V30 2634 N 245.365 1.30045 0.890287 0
M  V30 2635 C 246.611 1.18737 1.64406 0
M  V30 2636 C 246.944 -0.258525 1.92472 0
M  V30 2637 O 246.219 -1.18562 1.54186 0
M  V30 2638 C 246.502 2.01087 2.98724 0
M  V30 2639 C 246.355 3.53867 2.77665 0
M  V30 2640 C 247.674 1.84457 3.9958 0
M  V30 2641 H 244.793 0.432698 0.596608 0
M  V30 2642 H 247.435 1.5962 1.0306 0
M  V30 2643 H 245.585 1.66349 3.51084 0
M  V30 2644 H 247.257 3.98637 2.32133 0
M  V30 2645 H 245.5 3.78318 2.12269 0
M  V30 2646 H 246.171 4.06772 3.7315 0
M  V30 2647 H 248.647 2.14817 3.56361 0
M  V30 2648 H 247.523 2.44411 4.91482 0
M  V30 2649 H 247.784 0.802276 4.3476 0
M  V30 2650 N 246.843 -1.10192 1.12674 0
M  V30 2651 C 248.254 -1.63707 0.897604 0
M  V30 2652 C 248.605 -1.87812 -0.567546 0
M  V30 2653 O 247.73 -1.62196 -1.43253 0
M  V30 2654 C 248.325 -2.974 1.62292 0
M  V30 2655 C 246.884 -3.47772 1.43986 0
M  V30 2656 C 246.031 -2.22332 1.65722 0
M  V30 2657 H 248.982 -0.936587 1.28116 0
M  V30 2658 H 249.003 -3.64986 1.07541 0
M  V30 2659 H 248.515 -2.79824 2.68924 0
M  V30 2660 H 246.616 -3.70487 0.396206 0
M  V30 2661 H 246.729 -4.25723 2.19765 0
M  V30 2662 H 245.093 -2.30599 1.08149 0
M  V30 2663 H 245.876 -2.07285 2.73657 0
M  V30 2664 N 248.321 -0.919034 -1.28029 0
M  V30 2665 C 249.569 -0.553838 -1.94363 0
M  V30 2666 C 249.89 0.906357 -1.72656 0
M  V30 2667 O 249.16 1.64143 -1.0693 0
M  V30 2668 H 247.74 -0.201834 -0.719216 0
M  V30 2669 H 250.402 -1.16954 -1.55909 0
M  V30 2670 H 249.498 -0.752758 -3.02886 0
M  V30 2671 N 249.799 1.42003 -0.683588 0
M  V30 2672 C 250.746 2.30798 -0.0107309 0
M  V30 2673 C 251.716 1.4645 0.783688 0
M  V30 2674 O 252.901 1.75263 0.754156 0
M  V30 2675 C 250.041 3.3238 0.928306 0
M  V30 2676 C 249.154 4.31814 0.126776 0
M  V30 2677 C 248.289 5.20468 1.06236 0
M  V30 2678 C 247.328 6.11577 0.253035 0
M  V30 2679 N 246.465 6.92754 1.14179 0
M  V30 2680 H 251.305 2.8778 -0.773727 0
M  V30 2681 H 248.842 1.41745 -0.393283 0
M  V30 2682 H 250.8 3.89813 1.48666 0
M  V30 2683 H 249.43 2.76976 1.65783 0
M  V30 2684 H 248.482 3.76427 -0.54833 0
M  V30 2685 H 249.794 4.96276 -0.501192 0
M  V30 2686 H 248.948 5.82677 1.69035 0
M  V30 2687 H 247.687 4.56204 1.7242 0
M  V30 2688 H 246.692 5.48428 -0.388108 0
M  V30 2689 H 247.917 6.77892 -0.404839 0
M  V30 2690 H 245.863 6.3111 1.78987 0
M  V30 2691 H 245.78 7.53855 0.569111 0
M  V30 2692 H 247.048 7.59441 1.75697 0
M  V30 2693 N 251.277 0.427512 1.51691 0
M  V30 2694 C 252.505 -0.141191 2.06418 0
M  V30 2695 C 252.92 -1.37303 1.29589 0
M  V30 2696 O 252.277 -1.79059 0.352732 0
M  V30 2697 C 252.328 -0.473266 3.58389 0
M  V30 2698 O 252.049 0.709673 4.32314 0
M  V30 2699 C 253.55 -1.09371 4.29596 0
M  V30 2700 H 250.77 -0.0122747 0.670888 0
M  V30 2701 H 253.314 0.603764 1.95384 0
M  V30 2702 H 251.469 -1.16812 3.69369 0
M  V30 2703 H 251.883 0.42807 5.2275 0
M  V30 2704 H 253.357 -1.27613 5.37046 0
M  V30 2705 H 253.834 -2.072 3.87253 0
M  V30 2706 H 254.44 -0.43853 4.23033 0
M  V30 2707 N 252.755 -1.56801 0.158532 0
M  V30 2708 C 254.003 -1.96102 -0.488712 0
M  V30 2709 C 254.324 -1.04498 -1.64636 0
M  V30 2710 O 253.594 -0.108783 -1.95598 0
M  V30 2711 H 252.174 -0.724102 -0.183535 0
M  V30 2712 H 254.836 -1.93457 0.236728 0
M  V30 2713 H 253.932 -3.00097 -0.857219 0
M  V30 2714 N 254.233 0.115231 -1.57178 0
M  V30 2715 C 255.461 0.836437 -1.89239 0
M  V30 2716 C 255.876 1.73256 -0.750175 0
M  V30 2717 O 255.233 1.80357 0.278832 0
M  V30 2718 C 255.284 1.66671 -3.20785 0
M  V30 2719 O 255.005 0.806652 -4.3061 0
M  V30 2720 C 256.506 2.49274 -3.66575 0
M  V30 2721 H 253.726 0.240253 -0.626514 0
M  V30 2722 H 256.27 0.0984932 -2.04263 0
M  V30 2723 H 254.425 2.35737 -3.0742 0
M  V30 2724 H 254.839 1.37969 -5.06028 0
M  V30 2725 H 256.313 3.03055 -4.6137 0
M  V30 2726 H 256.79 3.26807 -2.93417 0
M  V30 2727 H 257.396 1.85443 -3.82741 0
M  V30 2728 N 255.711 1.52812 0.385517 0
M  V30 2729 C 256.957 1.68275 1.13188 0
M  V30 2730 C 257.29 0.423179 1.89533 0
M  V30 2731 O 256.565 -0.579113 1.85679 0
M  V30 2732 C 256.848 2.92001 2.1073 0
M  V30 2733 C 256.701 4.28067 1.38125 0
M  V30 2734 C 258.02 3.11283 3.11113 0
M  V30 2735 H 255.139 0.612352 0.410115 0
M  V30 2736 H 257.781 1.85415 0.414869 0
M  V30 2737 H 255.931 2.77519 2.71874 0
M  V30 2738 H 257.603 4.54324 0.799187 0
M  V30 2739 H 255.846 4.28388 0.683092 0
M  V30 2740 H 256.517 5.10733 2.09417 0
M  V30 2741 H 258.993 3.2482 2.6006 0
M  V30 2742 H 257.869 3.99325 3.76605 0
M  V30 2743 H 258.13 2.25656 3.80173 0
M  V30 2744 N 257.189 -0.644168 1.43834 0
M  V30 2745 C 258.152 -1.73857 1.49353 0
M  V30 2746 C 259.152 -1.56315 0.377112 0
M  V30 2747 O 260.342 -1.62048 0.639226 0
M  V30 2748 C 257.474 -3.12819 1.35488 0
M  V30 2749 H 258.667 -1.70342 2.46827 0
M  V30 2750 H 256.22 -0.856652 1.30733 0
M  V30 2751 H 256.955 -3.2194 0.390569 0
M  V30 2752 H 256.74 -3.26958 2.16428 0
M  V30 2753 H 258.23 -3.92606 1.42302 0
M  V30 2754 N 258.668 -1.30515 -0.883378 0
M  V30 2755 C 259.908 -1.20716 -1.64946 0
M  V30 2756 C 260.272 0.234072 -1.90568 0
M  V30 2757 O 261.473 0.455335 -2.64915 0
M  V30 2758 C 259.744 -2.01444 -2.9522 0
M  V30 2759 S 261.303 -2.0836 -3.86175 0
M  V30 2760 H 258.121 -0.430165 -0.566109 0
M  V30 2761 H 260.723 -1.65011 -1.04841 0
M  V30 2762 H 259.427 -3.05268 -2.74298 0
M  V30 2763 H 258.958 -1.57817 -3.60357 0
M  V30 2764 H 260.973 -1.21215 -4.81167 0
M  V30 2765 N 260.146 1.09593 -1.13257 0
M  V30 2766 C 261.374 1.855 -0.916378 0
M  V30 2767 C 261.789 1.81069 0.534738 0
M  V30 2768 O 261.146 1.20562 1.37007 0
M  V30 2769 C 261.197 3.33546 -1.39388 0
M  V30 2770 O 260.918 3.37927 -2.78813 0
M  V30 2771 C 262.419 4.26299 -1.21588 0
M  V30 2772 H 259.639 0.585991 -0.326887 0
M  V30 2773 H 262.183 1.38488 -1.5047 0
M  V30 2774 H 260.338 3.77992 -0.848597 0
M  V30 2775 H 260.752 4.30254 -2.9997 0
M  V30 2776 H 262.226 5.28341 -1.59876 0
M  V30 2777 H 262.703 4.38918 -0.157376 0
M  V30 2778 H 263.309 3.87668 -1.7491 0
M  V30 2779 N 261.624 0.925811 1.2754 0
M  V30 2780 C 262.871 0.565255 1.94451 0
M  V30 2781 C 263.199 -0.89316 1.7278 0
M  V30 2782 O 262.454 -1.65213 1.04895 0
M  V30 2783 C 262.753 0.835296 3.47502 0
M  V30 2784 C 262.419 2.27515 3.89291 0
M  V30 2785 C 261.081 2.66879 4.00411 0
M  V30 2786 C 263.433 3.21158 4.10496 0
M  V30 2787 C 260.761 3.99014 4.30122 0
M  V30 2788 C 263.113 4.52871 4.4169 0
M  V30 2789 C 261.777 4.92072 4.51023 0
M  V30 2790 H 261.047 0.206841 0.711546 0
M  V30 2791 H 263.694 1.16942 1.51647 0
M  V30 2792 H 261.999 0.148442 3.91519 0
M  V30 2793 H 263.696 0.535322 3.97411 0
M  V30 2794 H 260.286 1.95976 3.81171 0
M  V30 2795 H 264.47 2.9195 4.01346 0
M  V30 2796 H 259.726 4.2907 4.35556 0
M  V30 2797 H 263.9 5.25436 4.57045 0
M  V30 2798 H 261.527 5.9449 4.738 0
M  V30 2799 N 263.102 -1.41638 0.69111 0
M  V30 2800 C 264.05 -2.32597 0.0115199 0
M  V30 2801 C 265.044 -1.5072 -0.773296 0
M  V30 2802 O 266.25 -1.66685 -0.67942 0
M  V30 2803 H 262.625 -0.751849 -0.0150746 0
M  V30 2804 H 264.596 -2.87593 0.795791 0
M  V30 2805 C 263.345 -3.35467 -0.914172 0
M  V30 2806 H 262.668 -3.9852 -0.319687 0
M  V30 2807 H 264.108 -4.01662 -1.35808 0
M  V30 2808 C 262.567 -2.69004 -2.02826 0
M  V30 2809 O 263.097 -2.53444 -3.11655 0
M  V30 2810 N 261.303 -2.2777 -1.80469 0
M  V30 2811 H 260.85 -2.40626 -0.919615 0
M  V30 2812 H 260.808 -1.83635 -2.55197 0
M  V30 2813 N 264.58 -0.43555 -1.51462 0
M  V30 2814 C 265.827 0.131514 -2.02072 0
M  V30 2815 C 266.155 1.42868 -1.31981 0
M  V30 2816 O 265.41 1.91076 -0.422883 0
M  V30 2817 C 265.709 0.39942 -3.55161 0
M  V30 2818 C 265.375 -0.81172 -4.43533 0
M  V30 2819 C 264.037 -1.14387 -4.67407 0
M  V30 2820 C 266.389 -1.61976 -4.95392 0
M  V30 2821 C 263.717 -2.28477 -5.40384 0
M  V30 2822 C 266.069 -2.75164 -5.6962 0
M  V30 2823 C 264.733 -3.08835 -5.91758 0
M  V30 2824 H 264.003 0.0481244 -0.739436 0
M  V30 2825 H 266.65 -0.58238 -1.8243 0
M  V30 2826 H 264.955 1.19519 -3.73125 0
M  V30 2827 H 266.652 0.85157 -3.91854 0
M  V30 2828 H 263.242 -0.542898 -4.25148 0
M  V30 2829 H 267.426 -1.37637 -4.76833 0
M  V30 2830 H 262.682 -2.5488 -5.55739 0
M  V30 2831 H 266.856 -3.38147 -6.08793 0
M  V30 2832 H 264.483 -3.97353 -6.48086 0
M  V30 2833 N 266.058 1.56714 -0.166846 0
M  V30 2834 C 267.283 2.01557 0.488833 0
M  V30 2835 C 267.708 1.0463 1.56314 0
M  V30 2836 O 267.066 0.0251304 1.81283 0
M  V30 2837 C 267.114 3.4503 1.04818 0
M  V30 2838 O 266.218 3.51163 2.16236 0
M  V30 2839 H 265.559 0.653516 0.117526 0
M  V30 2840 H 268.089 2.02818 -0.269421 0
M  V30 2841 H 268.099 3.84243 1.37191 0
M  V30 2842 H 266.774 4.15077 0.261572 0
M  V30 2843 H 265.351 3.23807 1.84942 0
M  V30 2844 N 267.536 -0.106894 1.57237 0
M  V30 2845 C 268.947 -0.662723 1.74542 0
M  V30 2846 C 269.298 -1.7971 0.787319 0
M  V30 2847 O 268.423 -2.16368 -0.0369636 0
M  V30 2848 C 269.018 -1.20896 3.16496 0
M  V30 2849 C 267.577 -1.71096 3.35266 0
M  V30 2850 C 266.724 -0.615642 2.7038 0
M  V30 2851 H 269.675 0.119106 1.58252 0
M  V30 2852 H 269.696 -2.07847 3.18716 0
M  V30 2853 H 269.208 -0.383122 3.86204 0
M  V30 2854 H 267.309 -2.56119 2.70618 0
M  V30 2855 H 267.422 -1.81208 4.43509 0
M  V30 2856 H 265.786 -1.05222 2.31949 0
M  V30 2857 H 266.569 0.199419 3.4272 0
M  V30 2858 N 269.014 -1.53014 -0.377408 0
M  V30 2859 C 270.26 -1.69821 -1.11948 0
M  V30 2860 C 270.615 -0.438581 -1.87335 0
M  V30 2861 O 269.908 0.568094 -1.82984 0
M  V30 2862 C 270.102 -2.87982 -2.11663 0
M  V30 2863 C 269.931 -4.25315 -1.46072 0
M  V30 2864 C 268.701 -4.90354 -1.21986 0
M  V30 2865 C 270.899 -5.06281 -0.904664 0
M  V30 2866 N 268.881 -6.11641 -0.526215 0
M  V30 2867 C 270.252 -6.19069 -0.339726 0
M  V30 2868 C 272.307 -4.91395 -0.8022 0
M  V30 2869 C 271.01 -7.18598 0.317669 0
M  V30 2870 C 273.036 -5.91187 -0.158606 0
M  V30 2871 C 272.398 -7.03289 0.39551 0
M  V30 2872 H 268.497 -0.674785 -0.395207 0
M  V30 2873 H 271.081 -1.90389 -0.407437 0
M  V30 2874 H 269.252 -2.68974 -2.80192 0
M  V30 2875 H 270.984 -2.93669 -2.78461 0
M  V30 2876 H 267.739 -4.49286 -1.49798 0
M  V30 2877 H 268.163 -6.76719 -0.195098 0
M  V30 2878 H 272.805 -4.04925 -1.21639 0
M  V30 2879 H 270.523 -8.04669 0.743836 0
M  V30 2880 H 274.109 -5.81744 -0.0804138 0
M  V30 2881 H 272.989 -7.79183 0.885648 0
M  V30 2882 N 270.492 0.636531 -1.44174 0
M  V30 2883 C 271.72 1.42353 -1.50144 0
M  V30 2884 C 272.135 1.88389 -0.124575 0
M  V30 2885 O 271.492 1.6051 0.868489 0
M  V30 2886 C 271.543 2.64744 -2.46156 0
M  V30 2887 O 271.264 2.20629 -3.7849 0
M  V30 2888 C 272.765 3.57929 -2.61537 0
M  V30 2889 H 269.985 0.436752 -0.5094 0
M  V30 2890 H 272.529 0.778933 -1.89084 0
M  V30 2891 H 270.684 3.25307 -2.10366 0
M  V30 2892 H 271.098 2.99938 -4.30276 0
M  V30 2893 H 272.572 4.40428 -3.32757 0
M  V30 2894 H 273.049 4.06382 -1.66585 0
M  V30 2895 H 273.655 3.03238 -2.98206 0
M  V30 2896 N 271.97 1.30982 0.876444 0
M  V30 2897 C 272.918 1.18006 2.00443 0
M  V30 2898 C 273.912 0.0898871 1.69161 0
M  V30 2899 O 275.118 0.251333 1.78237 0
M  V30 2900 H 271.493 0.365196 0.65737 0
M  V30 2901 H 273.464 2.13453 2.0852 0
M  V30 2902 C 272.213 0.897521 3.35916 0
M  V30 2903 H 271.536 1.7285 3.60504 0
M  V30 2904 H 272.976 0.846874 4.15456 0
M  V30 2905 C 271.435 -0.399674 3.34521 0
M  V30 2906 O 271.965 -1.41852 3.7582 0
M  V30 2907 N 270.171 -0.413893 2.87637 0
M  V30 2908 H 269.718 0.41571 2.54224 0
M  V30 2909 H 269.676 -1.28175 2.87086 0
M  V30 2910 N 273.449 -1.08991 1.13837 0
M  V30 2911 C 274.726 -1.77863 0.813876 0
M  V30 2912 C 275.106 -1.99375 -0.693746 0
M  V30 2913 O 274.454 -1.59875 -1.63255 0
M  V30 2914 C 274.664 -3.0986 1.60586 0
M  V30 2915 C 276.012 -3.84493 1.8014 0
M  V30 2916 O 277.036 -3.19624 1.57222 0
M  V30 2917 O 275.895 -5.00957 2.18413 0
M  V30 2918 H 272.989 -0.771589 0.297624 0
M  V30 2919 H 275.535 -1.15507 1.24323 0
M  V30 2920 H 274.307 -2.89715 2.63022 0
M  V30 2921 H 273.93 -3.79942 1.17173 0
M  V30 2922 N 274.927 -0.932562 -1.27047 0
M  V30 2923 C 276.338 -0.619451 -1.76124 0
M  V30 2924 C 276.689 0.865397 -1.76083 0
M  V30 2925 O 275.814 1.67722 -1.36742 0
M  V30 2926 C 276.409 -1.11771 -3.19832 0
M  V30 2927 C 274.968 -0.855174 -3.66557 0
M  V30 2928 C 274.115 -1.27362 -2.46321 0
M  V30 2929 H 277.066 -1.11181 -1.13245 0
M  V30 2930 H 277.087 -0.46759 -3.77616 0
M  V30 2931 H 276.599 -2.19842 -3.1983 0
M  V30 2932 H 274.7 0.211524 -3.71999 0
M  V30 2933 H 274.813 -1.47613 -4.55793 0
M  V30 2934 H 273.177 -0.692119 -2.45116 0
M  V30 2935 H 273.96 -2.36307 -2.49025 0
M  V30 2936 N 276.405 1.4127 -0.698611 0
M  V30 2937 C 277.352 2.30773 -0.0352094 0
M  V30 2938 C 278.322 1.47273 0.768111 0
M  V30 2939 O 279.507 1.76053 0.735524 0
M  V30 2940 C 276.647 3.33346 0.893 0
M  V30 2941 C 275.76 4.31924 0.0809695 0
M  V30 2942 C 274.895 5.21566 1.0071 0
M  V30 2943 C 273.934 6.11811 0.188155 0
M  V30 2944 N 273.071 6.93926 1.06825 0
M  V30 2945 H 277.911 2.86943 -0.804207 0
M  V30 2946 H 275.448 1.4132 -0.408294 0
M  V30 2947 H 277.406 3.91368 1.44523 0
M  V30 2948 H 276.036 2.78719 1.62836 0
M  V30 2949 H 275.088 3.75825 -0.588224 0
M  V30 2950 H 276.4 4.95716 -0.553801 0
M  V30 2951 H 275.554 5.84437 1.62845 0
M  V30 2952 H 274.293 4.58008 1.67572 0
M  V30 2953 H 273.298 5.47986 -0.446254 0
M  V30 2954 H 274.523 6.77425 -0.476716 0
M  V30 2955 H 272.469 6.32973 1.72283 0
M  V30 2956 H 272.386 7.54416 0.489123 0
M  V30 2957 H 273.654 7.61262 1.67632 0
M  V30 2958 N 277.883 0.443576 1.51229 0
M  V30 2959 C 278.793 -0.370721 2.31652 0
M  V30 2960 C 279.809 -1.02186 1.40833 0
M  V30 2961 O 280.985 -1.01586 1.73903 0
M  V30 2962 C 278.05 -1.45376 3.14749 0
M  V30 2963 C 277.111 -0.822099 4.21355 0
M  V30 2964 C 276.344 -1.85353 5.0048 0
M  V30 2965 O 276.567 -3.07656 4.80316 0
M  V30 2966 O 275.501 -1.4406 5.84406 0
M  V30 2967 H 279.327 0.286002 3.0235 0
M  V30 2968 H 276.912 0.20598 1.47973 0
M  V30 2969 H 278.794 -2.08173 3.66391 0
M  V30 2970 H 277.469 -2.09445 2.46809 0
M  V30 2971 H 276.376 -0.155909 3.73775 0
M  V30 2972 H 277.709 -0.224797 4.91686 0
M  V30 2973 N 279.361 -1.56624 0.175154 0
M  V30 2974 C 280.777 -1.58571 -0.180966 0
M  V30 2975 C 280.977 -1.19065 -1.6256 0
M  V30 2976 O 280.033 -0.904044 -2.35761 0
M  V30 2977 C 281.346 -3.00522 0.103326 0
M  V30 2978 C 282.894 -3.12972 0.0418426 0
M  V30 2979 C 283.369 -4.57022 0.299175 0
M  V30 2980 N 284.86 -4.62541 0.247086 0
M  V30 2981 C 285.595 -5.71857 0.420318 0
M  V30 2982 N 285.091 -6.89717 0.652816 0
M  V30 2983 N 286.884 -5.60972 0.355957 0
M  V30 2984 H 279.035 -1.80589 1.11809 0
M  V30 2985 H 281.298 -0.837178 0.444788 0
M  V30 2986 H 281.004 -3.33916 1.10422 0
M  V30 2987 H 280.878 -3.72344 -0.603299 0
M  V30 2988 H 283.265 -2.79403 -0.949636 0
M  V30 2989 H 283.346 -2.43578 0.781238 0
M  V30 2990 H 282.99 -4.913 1.28788 0
M  V30 2991 H 282.92 -5.24579 -0.460876 0
M  V30 2992 H 285.411 -3.77829 0.0731895 0
M  V30 2993 H 285.724 -7.68911 0.774347 0
M  V30 2994 H 284.069 -6.91572 0.689476 0
M  V30 2995 H 287.26 -4.67773 0.174882 0
M  V30 2996 H 287.433 -6.46111 0.494388 0
M  V30 2997 N 280.839 0.0985539 -1.57292 0
M  V30 2998 C 282.088 0.801358 -1.85098 0
M  V30 2999 C 282.401 1.80066 -0.763902 0
M  V30 3000 O 283.607 2.55112 -0.928981 0
M  V30 3001 C 282.063 1.47599 -3.28242 0
M  V30 3002 C 281.671 0.516624 -4.45011 0
M  V30 3003 C 283.415 2.16272 -3.65276 0
M  V30 3004 C 281.322 1.19564 -5.79188 0
M  V30 3005 H 280.252 0.303022 -0.69043 0
M  V30 3006 H 282.903 0.0542623 -1.8342 0
M  V30 3007 H 281.285 2.27042 -3.2445 0
M  V30 3008 H 282.459 -0.246065 -4.60143 0
M  V30 3009 H 280.774 -0.064227 -4.1635 0
M  V30 3010 H 283.371 2.67802 -4.62803 0
M  V30 3011 H 283.714 2.95009 -2.93727 0
M  V30 3012 H 284.247 1.43693 -3.70941 0
M  V30 3013 H 280.986 0.449157 -6.53959 0
M  V30 3014 H 280.506 1.92984 -5.67906 0
M  V30 3015 H 282.185 1.7231 -6.23633 0
M  V30 3016 N 282.317 1.53212 0.369288 0
M  V30 3017 C 283.265 1.80054 1.47253 0
M  V30 3018 C 284.259 0.669456 1.55611 0
M  V30 3019 O 285.465 0.852328 1.58541 0
M  V30 3020 H 281.84 0.570034 0.490475 0
M  V30 3021 H 283.811 2.72403 1.21817 0
M  V30 3022 C 282.56 2.00403 2.84137 0
M  V30 3023 H 281.883 2.86876 2.78464 0
M  V30 3024 H 283.323 2.23164 3.60519 0
M  V30 3025 C 281.782 0.782081 3.27697 0
M  V30 3026 O 282.312 -0.0310205 4.01688 0
M  V30 3027 N 280.518 0.606573 2.84199 0
M  V30 3028 H 280.065 1.26939 2.24152 0
M  V30 3029 H 280.023 -0.20962 3.137 0
M  V30 3030 N 283.795 -0.628877 1.44509 0
M  V30 3031 C 285.041 -1.39045 1.47629 0
M  V30 3032 C 285.374 -1.93892 0.109343 0
M  V30 3033 O 284.649 -1.7379 -0.87334 0
M  V30 3034 C 284.932 -2.55408 2.53848 0
M  V30 3035 C 284.785 -2.05896 3.99909 0
M  V30 3036 C 286.104 -3.5759 2.56549 0
M  V30 3037 H 283.223 -0.504232 0.537512 0
M  V30 3038 H 285.865 -0.710854 1.76201 0
M  V30 3039 H 284.015 -3.13384 2.29615 0
M  V30 3040 H 285.687 -1.52734 4.35282 0
M  V30 3041 H 283.93 -1.37061 4.11578 0
M  V30 3042 H 284.601 -2.89681 4.69882 0
M  V30 3043 H 287.077 -3.09419 2.78207 0
M  V30 3044 H 285.953 -4.36527 3.32769 0
M  V30 3045 H 286.214 -4.11808 1.60832 0
M  V30 3046 N 285.273 -1.31445 -0.869486 0
M  V30 3047 C 286.236 -1.19094 -1.9583 0
M  V30 3048 C 287.236 -0.117906 -1.60367 0
M  V30 3049 O 288.426 -0.367208 -1.70286 0
M  V30 3050 C 285.558 -0.828165 -3.30688 0
M  V30 3051 H 286.751 -2.15842 -2.08212 0
M  V30 3052 H 284.304 -1.15063 -1.05784 0
M  V30 3053 H 285.039 0.138142 -3.24006 0
M  V30 3054 H 284.824 -1.6038 -3.578 0
M  V30 3055 H 286.314 -0.765658 -4.10521 0
M  V30 3056 N 286.751 1.08385 -1.14413 0
M  V30 3057 C 287.997 1.81044 -0.913834 0
M  V30 3058 C 288.33 1.86004 0.558209 0
M  V30 3059 O 287.605 1.33606 1.4135 0
M  V30 3060 C 287.888 3.26648 -1.51569 0
M  V30 3061 C 287.741 3.29895 -3.0576 0
M  V30 3062 C 289.06 4.23629 -1.19273 0
M  V30 3063 H 286.179 0.65727 -0.333414 0
M  V30 3064 H 288.821 1.26896 -1.41412 0
M  V30 3065 H 286.971 3.72889 -1.09023 0
M  V30 3066 H 288.643 2.91977 -3.57137 0
M  V30 3067 H 286.886 2.69163 -3.40197 0
M  V30 3068 H 287.557 4.32516 -3.42977 0
M  V30 3069 H 290.033 3.85727 -1.56057 0
M  V30 3070 H 288.909 5.23822 -1.64017 0
M  V30 3071 H 289.17 4.41968 -0.108068 0
M  V30 3072 N 288.23 0.939286 1.26551 0
M  V30 3073 C 289.193 0.451987 2.24699 0
M  V30 3074 C 290.193 -0.435869 1.5478 0
M  V30 3075 O 291.383 -0.235314 1.72603 0
M  V30 3076 C 288.515 -0.348801 3.39111 0
M  V30 3077 H 289.708 1.3193 2.69322 0
M  V30 3078 H 287.261 0.721072 1.38673 0
M  V30 3079 H 287.996 -1.23444 2.99887 0
M  V30 3080 H 287.781 0.287945 3.91041 0
M  V30 3081 H 289.271 -0.679726 4.12031 0
M  V30 3082 N 289.708 -1.40897 0.706093 0
M  V30 3083 C 290.641 -2.282 -0.00328781 0
M  V30 3084 C 291.619 -1.42816 -0.77732 0
M  V30 3085 O 292.803 -1.72237 -0.765944 0
M  V30 3086 C 289.93 -3.23226 -1.01205 0
M  V30 3087 C 288.976 -4.25222 -0.329955 0
M  V30 3088 S 289.809 -5.27269 0.935298 0
M  V30 3089 C 290.965 -6.25859 -0.0716061 0
M  V30 3090 H 291.198 -2.88016 0.737143 0
M  V30 3091 H 288.731 -1.46191 0.496756 0
M  V30 3092 H 290.689 -3.78503 -1.58888 0
M  V30 3093 H 289.35 -2.62485 -1.72513 0
M  V30 3094 H 288.543 -4.92023 -1.09221 0
M  V30 3095 H 288.145 -3.73595 0.174069 0
M  V30 3096 H 290.437 -6.71204 -0.921521 0
M  V30 3097 H 291.38 -7.0586 0.562765 0
M  V30 3098 H 291.788 -5.62852 -0.431088 0
M  V30 3099 N 291.186 -0.45159 -1.50991 0
M  V30 3100 C 292.116 0.342898 -2.30969 0
M  V30 3101 C 293.097 1.00815 -1.37005 0
M  V30 3102 O 294.282 1.00907 -1.65926 0
M  V30 3103 C 291.412 1.43637 -3.16205 0
M  V30 3104 C 290.366 0.893818 -4.18563 0
M  V30 3105 C 289.692 2.08411 -4.92411 0
M  V30 3106 C 290.992 -0.0815568 -5.22236 0
M  V30 3107 H 292.686 -0.324556 -2.97636 0
M  V30 3108 H 290.232 -0.157531 -1.43136 0
M  V30 3109 H 292.185 1.9995 -3.70942 0
M  V30 3110 H 290.909 2.13232 -2.47386 0
M  V30 3111 H 289.568 0.352798 -3.64898 0
M  V30 3112 H 289.216 2.76658 -4.20082 0
M  V30 3113 H 288.916 1.72741 -5.61636 0
M  V30 3114 H 290.44 2.65251 -5.49976 0
M  V30 3115 H 291.854 0.391742 -5.7196 0
M  V30 3116 H 290.251 -0.351551 -5.99069 0
M  V30 3117 H 291.321 -1.01374 -4.74185 0
M  V30 3118 N 292.664 1.56529 -0.183458 0
M  V30 3119 C 293.892 2.01623 0.464285 0
M  V30 3120 C 294.307 1.06366 1.55986 0
M  V30 3121 O 293.664 0.0665398 1.82379 0
M  V30 3122 C 293.715 3.46475 1.03139 0
M  V30 3123 O 293.436 4.38095 -0.0204675 0
M  V30 3124 C 294.937 4.0703 1.75617 0
M  V30 3125 H 292.157 0.660596 0.117704 0
M  V30 3126 H 294.701 2.02451 -0.288751 0
M  V30 3127 H 292.856 3.46383 1.73486 0
M  V30 3128 H 293.27 5.22973 0.399952 0
M  V30 3129 H 294.744 5.10271 2.10542 0
M  V30 3130 H 295.221 3.49819 2.65563 0
M  V30 3131 H 295.827 4.1086 1.09882 0
M  V30 3132 N 294.142 -0.090211 1.57342 0
M  V30 3133 C 295.388 -0.793982 1.86611 0
M  V30 3134 C 295.721 -1.78142 0.773252 0
M  V30 3135 O 294.996 -1.93271 -0.218304 0
M  V30 3136 C 295.279 -1.51839 3.26523 0
M  V30 3137 C 295.132 -0.548609 4.46442 0
M  V30 3138 C 296.451 -2.46779 3.64401 0
M  V30 3139 H 293.57 -0.287186 0.678744 0
M  V30 3140 H 296.212 -0.0575076 1.89913 0
M  V30 3141 H 294.362 -2.14617 3.23839 0
M  V30 3142 H 296.034 0.0725513 4.61243 0
M  V30 3143 H 294.277 0.137614 4.33582 0
M  V30 3144 H 294.948 -1.09271 5.41076 0
M  V30 3145 H 297.424 -1.94089 3.68061 0
M  V30 3146 H 296.3 -2.94479 4.63221 0
M  V30 3147 H 296.561 -3.30758 2.93346 0
M  V30 3148 N 295.62 -1.53406 -0.361157 0
M  V30 3149 C 297.036 -1.43277 -0.703124 0
M  V30 3150 C 297.236 -0.575384 -1.9311 0
M  V30 3151 O 296.292 -0.0595362 -2.5243 0
M  V30 3152 C 297.605 -2.8653 -0.9122 0
M  V30 3153 C 299.153 -2.96191 -1.01193 0
M  V30 3154 C 299.628 -4.40514 -1.25345 0
M  V30 3155 N 301.119 -4.43962 -1.32105 0
M  V30 3156 C 301.854 -5.52746 -1.5251 0
M  V30 3157 N 301.35 -6.71567 -1.70203 0
M  V30 3158 N 303.143 -5.40331 -1.54916 0
M  V30 3159 H 295.294 -2.07654 0.446475 0
M  V30 3160 H 297.557 -0.937944 0.137715 0
M  V30 3161 H 297.263 -3.51605 -0.0816414 0
M  V30 3162 H 297.137 -3.30441 -1.81903 0
M  V30 3163 H 299.524 -2.31266 -1.83303 0
M  V30 3164 H 299.605 -2.55667 -0.0823929 0
M  V30 3165 H 299.249 -5.06014 -0.437346 0
M  V30 3166 H 299.179 -4.78614 -2.19627 0
M  V30 3167 H 301.67 -3.58332 -1.20028 0
M  V30 3168 H 301.983 -7.50241 -1.85359 0
M  V30 3169 H 300.328 -6.74545 -1.67373 0
M  V30 3170 H 303.519 -4.46465 -1.40663 0
M  V30 3171 H 303.692 -6.25173 -1.70477 0
M  V30 3172 N 297.098 0.621204 -1.44841 0
M  V30 3173 C 298.346 1.37783 -1.47852 0
M  V30 3174 C 298.667 1.94653 -0.116224 0
M  V30 3175 O 297.937 1.76367 0.852737 0
M  V30 3176 H 296.517 0.511453 -0.544449 0
M  V30 3177 H 299.179 0.730446 -1.80694 0
M  V30 3178 H 298.275 2.20414 -2.20961 0
M  V30 3179 N 298.576 1.31904 0.862503 0
M  V30 3180 C 299.825 1.21373 1.61094 0
M  V30 3181 C 300.138 -0.22504 1.94301 0
M  V30 3182 O 301.344 -0.452121 2.67709 0
M  V30 3183 C 299.8 2.12525 2.9045 0
M  V30 3184 C 299.408 3.61441 2.64697 0
M  V30 3185 C 301.152 2.10813 3.68454 0
M  V30 3186 C 299.059 4.44578 3.90006 0
M  V30 3187 H 297.989 0.450705 0.604468 0
M  V30 3188 H 300.64 1.56811 0.953027 0
M  V30 3189 H 299.022 1.69994 3.57656 0
M  V30 3190 H 300.196 4.12264 2.05851 0
M  V30 3191 H 298.511 3.65205 2.00036 0
M  V30 3192 H 301.108 2.70167 4.61426 0
M  V30 3193 H 301.451 1.09713 4.01583 0
M  V30 3194 H 301.984 2.51583 3.08141 0
M  V30 3195 H 298.723 5.46461 3.62023 0
M  V30 3196 H 298.243 3.98508 4.48276 0
M  V30 3197 H 299.922 4.57176 4.5782 0
M  V30 3198 N 300.054 -1.07777 1.14986 0
M  V30 3199 C 301.303 -1.79669 0.916617 0
M  V30 3200 C 301.616 -1.87474 -0.557917 0
M  V30 3201 O 302.822 -2.55845 -0.908617 0
M  V30 3202 C 301.278 -3.22848 1.59051 0
M  V30 3203 C 300.886 -3.23257 3.10176 0
M  V30 3204 C 302.63 -3.99379 1.43864 0
M  V30 3205 C 300.537 -4.61063 3.70372 0
M  V30 3206 H 299.467 -0.673349 0.33929 0
M  V30 3207 H 302.118 -1.21003 1.37951 0
M  V30 3208 H 300.5 -3.8168 1.0553 0
M  V30 3209 H 301.674 -2.74095 3.70417 0
M  V30 3210 H 299.989 -2.60222 3.25074 0
M  V30 3211 H 302.586 -5.0122 1.86232 0
M  V30 3212 H 302.929 -4.14511 0.385564 0
M  V30 3213 H 303.462 -3.47032 1.94457 0
M  V30 3214 H 300.201 -4.51135 4.7556 0
M  V30 3215 H 299.721 -5.1048 3.14913 0
M  V30 3216 H 301.4 -5.30034 3.71043 0
M  V30 3217 N 301.532 -0.945985 -1.26051 0
M  V30 3218 C 302.948 -0.649045 -1.45807 0
M  V30 3219 C 303.148 0.796158 -1.85104 0
M  V30 3220 O 302.204 1.57233 -1.97571 0
M  V30 3221 C 303.517 -1.61458 -2.53677 0
M  V30 3222 C 305.065 -1.62481 -2.67524 0
M  V30 3223 C 305.54 -2.57776 -3.7857 0
M  V30 3224 N 307.031 -2.5609 -3.85969 0
M  V30 3225 C 307.766 -3.26508 -4.7136 0
M  V30 3226 N 307.262 -4.0637 -5.61102 0
M  V30 3227 N 309.055 -3.15437 -4.65248 0
M  V30 3228 H 301.206 -1.88005 -0.988328 0
M  V30 3229 H 303.469 -0.808198 -0.4955 0
M  V30 3230 H 303.175 -2.64644 -2.31638 0
M  V30 3231 H 303.049 -1.37036 -3.51427 0
M  V30 3232 H 305.436 -0.600167 -2.88933 0
M  V30 3233 H 305.517 -1.90958 -1.70202 0
M  V30 3234 H 305.161 -3.60361 -3.57913 0
M  V30 3235 H 305.091 -2.26587 -4.75359 0
M  V30 3236 H 307.582 -1.98105 -3.21812 0
M  V30 3237 H 307.895 -4.57042 -6.23164 0
M  V30 3238 H 306.24 -4.10469 -5.60839 0
M  V30 3239 H 309.431 -2.52525 -3.94143 0
M  V30 3240 H 309.604 -3.70584 -5.31575 0
M  V30 3241 N 303.011 1.40521 -0.713556 0
M  V30 3242 C 304.258 2.00923 -0.25219 0
M  V30 3243 C 304.586 1.56571 1.15395 0
M  V30 3244 O 303.841 0.775874 1.79663 0
M  V30 3245 C 304.14 3.56317 -0.278 0
M  V30 3246 C 303.806 4.20246 -1.63415 0
M  V30 3247 C 302.468 4.37422 -2.00538 0
M  V30 3248 C 304.82 4.55923 -2.52554 0
M  V30 3249 C 302.148 4.87558 -3.2635 0
M  V30 3250 C 304.5 5.07458 -3.77716 0
M  V30 3251 C 303.164 5.22843 -4.14959 0
M  V30 3252 H 302.434 0.735231 -0.0922829 0
M  V30 3253 H 305.081 1.68161 -0.916188 0
M  V30 3254 H 303.386 3.88976 0.469567 0
M  V30 3255 H 305.083 4.00883 0.0967819 0
M  V30 3256 H 301.673 4.07263 -1.33546 0
M  V30 3257 H 305.857 4.42291 -2.25149 0
M  V30 3258 H 301.113 4.97654 -3.55176 0
M  V30 3259 H 305.287 5.34041 -4.4696 0
M  V30 3260 H 302.914 5.61454 -5.12516 0
M  V30 3261 N 304.489 0.459591 1.5075 0
M  V30 3262 C 305.738 -0.100971 2.01447 0
M  V30 3263 C 306.051 -1.41816 1.34713 0
M  V30 3264 O 307.257 -2.06299 1.76502 0
M  V30 3265 C 305.713 -0.23047 3.59161 0
M  V30 3266 C 305.321 1.0776 4.34847 0
M  V30 3267 C 307.065 -0.743608 4.17936 0
M  V30 3268 C 304.972 0.91253 5.84317 0
M  V30 3269 H 303.902 -0.0415102 0.752856 0
M  V30 3270 H 306.553 0.592742 1.73663 0
M  V30 3271 H 304.935 -0.987703 3.83485 0
M  V30 3272 H 306.109 1.8449 4.22256 0
M  V30 3273 H 304.424 1.52097 3.87628 0
M  V30 3274 H 307.021 -0.883959 5.27343 0
M  V30 3275 H 307.364 -1.73196 3.78562 0
M  V30 3276 H 307.897 -0.04408 3.97776 0
M  V30 3277 H 304.636 1.87391 6.28144 0
M  V30 3278 H 304.156 0.185422 5.99513 0
M  V30 3279 H 305.835 0.574547 6.44444 0
M  V30 3280 N 305.967 -1.56429 0.191757 0
M  V30 3281 C 307.216 -1.9666 -0.448088 0
M  V30 3282 C 307.529 -1.08136 -1.62991 0
M  V30 3283 O 308.735 -1.38135 -2.33733 0
M  V30 3284 C 307.191 -3.49753 -0.848585 0
M  V30 3285 C 306.799 -4.46935 0.308764 0
M  V30 3286 C 308.543 -3.9876 -1.4557 0
M  V30 3287 C 306.45 -5.91293 -0.112506 0
M  V30 3288 H 305.38 -0.734312 -0.171179 0
M  V30 3289 H 308.031 -1.81301 0.283242 0
M  V30 3290 H 306.413 -3.60604 -1.63649 0
M  V30 3291 H 307.587 -4.47813 1.08627 0
M  V30 3292 H 305.902 -4.08102 0.827158 0
M  V30 3293 H 308.499 -5.04086 -1.78328 0
M  V30 3294 H 308.842 -3.42875 -2.36099 0
M  V30 3295 H 309.375 -3.9101 -0.731836 0
M  V30 3296 H 306.114 -6.51097 0.758514 0
M  V30 3297 H 305.634 -5.93676 -0.854941 0
M  V30 3298 H 307.313 -6.44663 -0.549448 0
M  V30 3299 N 307.445 0.0818655 -1.57387 0
M  V30 3300 C 308.693 0.781368 -1.86384 0
M  V30 3301 C 309.014 1.78618 -0.782342 0
M  V30 3302 O 308.284 1.94976 0.190061 0
M  V30 3303 H 306.864 0.291562 -0.687751 0
M  V30 3304 H 309.526 0.060348 -1.94807 0
M  V30 3305 H 308.622 1.3038 -2.83562 0
M  V30 3306 N 308.923 1.53595 0.353017 0
M  V30 3307 C 310.17 1.70385 1.09431 0
M  V30 3308 C 310.498 0.462113 1.88931 0
M  V30 3309 O 309.753 -0.556074 1.87633 0
M  V30 3310 C 310.052 2.91313 2.07054 0
M  V30 3311 C 309.718 4.27308 1.43939 0
M  V30 3312 C 308.38 4.64287 1.26454 0
M  V30 3313 C 310.732 5.11829 0.983883 0
M  V30 3314 C 308.06 5.83412 0.620226 0
M  V30 3315 C 310.412 6.31611 0.353516 0
M  V30 3316 C 309.076 6.67293 0.166272 0
M  V30 3317 H 308.346 0.623484 0.400436 0
M  V30 3318 H 310.993 1.87799 0.374655 0
M  V30 3319 H 309.298 2.68463 2.85368 0
M  V30 3320 H 310.995 3.01497 2.64387 0
M  V30 3321 H 307.585 3.98198 1.58543 0
M  V30 3322 H 311.769 4.838 1.10685 0
M  V30 3323 H 307.025 6.09639 0.463681 0
M  V30 3324 H 311.199 6.964 -0.00757555 0
M  V30 3325 H 308.826 7.59461 -0.335047 0
M  V30 3326 N 310.401 -0.613514 1.45168 0
M  V30 3327 C 311.626 -1.40437 1.52618 0
M  V30 3328 C 312.051 -1.87438 0.157707 0
M  V30 3329 O 311.409 -1.59791 -0.856537 0
M  V30 3330 C 311.457 -2.58894 2.51011 0
M  V30 3331 O 310.561 -3.59326 2.02382 0
M  V30 3332 H 309.902 -0.419506 0.514695 0
M  V30 3333 H 312.432 -0.747215 1.90467 0
M  V30 3334 H 312.442 -3.06214 2.69624 0
M  V30 3335 H 311.117 -2.24032 3.50403 0
M  V30 3336 H 309.694 -3.18695 1.93618 0
M  V30 3337 N 311.879 -1.3236 -0.855495 0
M  V30 3338 C 312.842 -1.21164 -1.94556 0
M  V30 3339 C 313.842 -0.134908 -1.60233 0
M  V30 3340 O 315.032 -0.385249 -1.69887 0
M  V30 3341 C 312.164 -0.863192 -3.29791 0
M  V30 3342 H 313.357 -2.18038 -2.05911 0
M  V30 3343 H 310.91 -1.16179 -1.04557 0
M  V30 3344 H 311.645 0.103769 -3.24134 0
M  V30 3345 H 311.43 -1.64166 -3.56078 0
M  V30 3346 H 312.92 -0.809156 -4.09686 0
M  V30 3347 N 313.357 1.07166 -1.15556 0
M  V30 3348 C 314.768 1.6127 -0.940693 0
M  V30 3349 C 315.119 1.89251 0.517551 0
M  V30 3350 O 314.244 1.65937 1.38903 0
M  V30 3351 C 314.839 2.92993 -1.7012 0
M  V30 3352 C 313.398 3.43832 -1.53156 0
M  V30 3353 C 312.545 2.1786 -1.71558 0
M  V30 3354 H 315.496 0.90229 -1.30554 0
M  V30 3355 H 315.517 3.62007 -1.17181 0
M  V30 3356 H 315.029 2.72596 -2.76248 0
M  V30 3357 H 313.13 3.69307 -0.494294 0
M  V30 3358 H 313.243 4.19747 -2.30975 0
M  V30 3359 H 311.607 2.2765 -1.14225 0
M  V30 3360 H 312.39 1.99956 -2.79056 0
M  V30 3361 N 314.835 0.952656 1.25548 0
M  V30 3362 C 315.768 0.415525 2.24385 0
M  V30 3363 C 316.746 -0.502046 1.54655 0
M  V30 3364 O 317.93 -0.436875 1.83368 0
M  V30 3365 C 315.057 -0.401734 3.36309 0
M  V30 3366 C 314.103 0.455949 4.24056 0
M  V30 3367 S 314.936 1.88698 5.01152 0
M  V30 3368 C 316.092 1.07809 6.16545 0
M  V30 3369 H 316.325 1.25315 2.69599 0
M  V30 3370 H 313.858 0.756587 1.34592 0
M  V30 3371 H 315.816 -0.867329 4.01233 0
M  V30 3372 H 314.477 -1.21416 2.89684 0
M  V30 3373 H 313.67 -0.170776 5.03711 0
M  V30 3374 H 313.272 0.856675 3.64056 0
M  V30 3375 H 315.564 0.325816 6.76716 0
M  V30 3376 H 316.507 1.84849 6.83547 0
M  V30 3377 H 316.915 0.60909 5.61204 0
M  V30 3378 N 316.313 -1.40141 0.720998 0
M  V30 3379 C 317.538 -2.05618 0.271258 0
M  V30 3380 C 317.963 -1.53978 -1.08039 0
M  V30 3381 O 317.321 -0.677463 -1.68167 0
M  V30 3382 C 317.369 -3.59609 0.267197 0
M  V30 3383 O 316.473 -4.05526 -0.749814 0
M  V30 3384 H 315.814 -0.651904 0.126162 0
M  V30 3385 H 318.344 -1.79439 0.982997 0
M  V30 3386 H 318.354 -4.0786 0.106744 0
M  V30 3387 H 317.029 -3.96559 1.25354 0
M  V30 3388 H 315.606 -3.68722 -0.556644 0
M  V30 3389 N 317.792 -0.46758 -1.50504 0
M  V30 3390 C 319.041 0.0902868 -2.01498 0
M  V30 3391 C 319.354 1.411 -1.35463 0
M  V30 3392 O 320.56 2.0536 -1.77594 0
M  V30 3393 C 319.016 0.21142 -3.59278 0
M  V30 3394 C 318.624 -1.10065 -4.34269 0
M  V30 3395 C 320.368 0.721433 -4.18325 0
M  V30 3396 C 318.275 -0.943505 -5.83825 0
M  V30 3397 H 317.205 0.037517 -0.753066 0
M  V30 3398 H 319.856 -0.601943 -1.73346 0
M  V30 3399 H 318.238 0.967352 -3.84003 0
M  V30 3400 H 319.412 -1.86726 -4.21272 0
M  V30 3401 H 317.727 -1.5415 -3.86816 0
M  V30 3402 H 320.324 0.85598 -5.27804 0
M  V30 3403 H 320.667 1.71186 -3.79475 0
M  V30 3404 H 321.2 0.0229843 -3.97793 0
M  V30 3405 H 317.939 -1.90719 -6.27141 0
M  V30 3406 H 317.459 -0.217213 -5.99407 0
M  V30 3407 H 319.138 -0.608715 -6.4413 0
M  V30 3408 N 319.27 1.56325 -0.20005 0
M  V30 3409 C 320.516 1.98012 0.438059 0
M  V30 3410 C 320.849 1.08702 1.60927 0
M  V30 3411 O 320.124 0.140064 1.93995 0
M  V30 3412 C 320.407 3.48841 0.893419 0
M  V30 3413 C 320.26 4.48928 -0.279947 0
M  V30 3414 C 321.579 4.03498 1.75719 0
M  V30 3415 H 318.698 0.719918 0.157757 0
M  V30 3416 H 321.34 1.87743 -0.291968 0
M  V30 3417 H 319.49 3.57723 1.51547 0
M  V30 3418 H 321.162 4.52079 -0.91772 0
M  V30 3419 H 319.405 4.23694 -0.930919 0
M  V30 3420 H 320.076 5.5194 0.0812601 0
M  V30 3421 H 322.552 3.97427 1.23253 0
M  V30 3422 H 321.428 5.09393 2.04476 0
M  V30 3423 H 321.689 3.4906 2.71311 0
M  V30 3424 N 320.748 -0.0735177 1.57428 0
M  V30 3425 C 321.711 -1.07192 2.02589 0
M  V30 3426 C 322.711 -1.31695 0.922661 0
M  V30 3427 O 323.901 -1.27445 1.18758 0
M  V30 3428 C 321.033 -2.41599 2.40506 0
M  V30 3429 H 322.226 -0.682727 2.92025 0
M  V30 3430 H 319.779 -0.319193 1.53006 0
M  V30 3431 H 320.514 -2.85354 1.5409 0
M  V30 3432 H 320.299 -2.25156 3.21009 0
M  V30 3433 H 321.789 -3.13367 2.76027 0
M  V30 3434 N 322.226 -1.5378 -0.344866 0
M  V30 3435 C 323.472 -1.71216 -1.08687 0
M  V30 3436 C 323.805 -0.473281 -1.88345 0
M  V30 3437 O 323.08 0.52968 -1.87149 0
M  V30 3438 C 323.363 -2.97486 -2.02914 0
M  V30 3439 C 323.216 -4.31579 -1.26727 0
M  V30 3440 C 324.535 -3.19422 -3.0275 0
M  V30 3441 H 321.654 -0.62301 -0.393735 0
M  V30 3442 H 324.296 -1.8645 -0.365563 0
M  V30 3443 H 322.446 -2.84629 -2.64421 0
M  V30 3444 H 324.118 -4.56284 -0.67845 0
M  V30 3445 H 322.361 -4.30049 -0.569273 0
M  V30 3446 H 323.032 -5.16106 -1.95803 0
M  V30 3447 H 325.508 -3.316 -2.51357 0
M  V30 3448 H 324.384 -4.09169 -3.65885 0
M  V30 3449 H 324.645 -2.35656 -3.74057 0
M  V30 3450 N 323.704 0.605807 -1.45491 0
M  V30 3451 C 324.929 1.39625 -1.53361 0
M  V30 3452 C 325.354 1.87351 -0.167645 0
M  V30 3453 O 324.712 1.60243 0.848051 0
M  V30 3454 C 324.76 2.57559 -2.5238 0
M  V30 3455 O 323.864 3.58248 -2.04285 0
M  V30 3456 H 323.205 0.416771 -0.516912 0
M  V30 3457 H 325.735 0.737103 -1.90861 0
M  V30 3458 H 325.745 3.0478 -2.71244 0
M  V30 3459 H 324.42 2.22171 -3.51586 0
M  V30 3460 H 322.997 3.17664 -1.95305 0
M  V30 3461 N 325.182 1.32811 0.848464 0
M  V30 3462 C 326.412 1.26556 1.63301 0
M  V30 3463 C 326.82 -0.1676 1.88456 0
M  V30 3464 O 326.163 -1.11713 1.45828 0
M  V30 3465 C 326.225 1.96202 3.01239 0
M  V30 3466 C 325.889 3.45528 2.99098 0
M  V30 3467 C 326.886 4.40903 2.75501 0
M  V30 3468 C 324.571 3.87558 3.19537 0
M  V30 3469 C 326.565 5.76282 2.72356 0
M  V30 3470 C 324.252 5.23044 3.16019 0
M  V30 3471 C 325.25 6.17217 2.92458 0
M  V30 3472 O 324.938 7.50223 2.88825 0
M  V30 3473 H 324.67 0.43771 0.515156 0
M  V30 3474 H 327.224 1.7559 1.0657 0
M  V30 3475 H 325.454 1.41746 3.59785 0
M  V30 3476 H 327.143 1.83573 3.62016 0
M  V30 3477 H 327.909 4.09756 2.5947 0
M  V30 3478 H 323.788 3.14674 3.369 0
M  V30 3479 H 327.332 6.4976 2.53886 0
M  V30 3480 H 323.229 5.53818 3.31596 0
M  V30 3481 H 323.997 7.59657 3.04735 0
M  V30 3482 N 326.66 -1.06551 1.16123 0
M  V30 3483 C 327.908 -1.78947 0.939267 0
M  V30 3484 C 328.229 -1.87532 -0.534476 0
M  V30 3485 O 327.499 -1.38211 -1.38833 0
M  V30 3486 H 326.079 -0.662807 0.344523 0
M  V30 3487 H 328.741 -1.28725 1.46342 0
M  V30 3488 H 327.837 -2.81117 1.35572 0
M  V30 3489 N 328.138 -0.959301 -1.25041 0
M  V30 3490 C 329.068 -0.501388 -2.28053 0
M  V30 3491 C 330.049 0.454673 -1.63911 0
M  V30 3492 O 331.234 0.352618 -1.90972 0
M  V30 3493 C 328.364 0.217224 -3.4662 0
M  V30 3494 C 327.318 -0.654034 -4.22973 0
M  V30 3495 C 326.644 0.195589 -5.34342 0
M  V30 3496 C 327.944 -1.93447 -4.85155 0
M  V30 3497 H 329.638 -1.36238 -2.66608 0
M  V30 3498 H 327.184 -0.656534 -1.28163 0
M  V30 3499 H 329.137 0.548732 -4.17812 0
M  V30 3500 H 327.861 1.1125 -3.07068 0
M  V30 3501 H 326.52 -0.968693 -3.5357 0
M  V30 3502 H 326.168 1.09076 -4.91031 0
M  V30 3503 H 325.868 -0.384091 -5.86343 0
M  V30 3504 H 327.392 0.521958 -6.08365 0
M  V30 3505 H 328.806 -1.66908 -5.48466 0
M  V30 3506 H 327.203 -2.46018 -5.47353 0
M  V30 3507 H 328.273 -2.63466 -4.07079 0
M  V30 3508 N 329.616 1.39756 -0.72842 0
M  V30 3509 C 330.865 1.99879 -0.270407 0
M  V30 3510 C 331.178 1.58449 1.14688 0
M  V30 3511 O 332.384 2.11362 1.70407 0
M  V30 3512 C 330.84 3.57292 -0.43252 0
M  V30 3513 C 330.448 4.07688 -1.85727 0
M  V30 3514 C 332.192 4.24485 -0.0359507 0
M  V30 3515 C 330.099 5.5765 -1.96928 0
M  V30 3516 H 329.029 0.747689 -0.0973472 0
M  V30 3517 H 331.68 1.59837 -0.901355 0
M  V30 3518 H 330.062 3.95097 0.267219 0
M  V30 3519 H 331.236 3.81231 -2.58843 0
M  V30 3520 H 329.551 3.53135 -2.20646 0
M  V30 3521 H 332.148 5.34609 -0.0987484 0
M  V30 3522 H 332.491 4.03915 1.00787 0
M  V30 3523 H 333.024 3.9183 -0.686604 0
M  V30 3524 H 329.763 5.8309 -2.99476 0
M  V30 3525 H 329.283 5.8593 -1.28241 0
M  V30 3526 H 330.962 6.22957 -1.74737 0
M  V30 3527 N 331.094 0.475555 1.50254 0
M  V30 3528 C 332.057 -0.305016 2.27161 0
M  V30 3529 C 333.057 -0.916519 1.32123 0
M  V30 3530 O 334.247 -0.785003 1.5551 0
M  V30 3531 C 331.379 -1.43496 3.09227 0
M  V30 3532 H 332.572 0.369511 2.97615 0
M  V30 3533 H 330.125 0.229747 1.54602 0
M  V30 3534 H 330.86 -2.14441 2.43281 0
M  V30 3535 H 330.645 -1.00223 3.79075 0
M  V30 3536 H 332.135 -1.98548 3.67381 0
M  V30 3537 N 332.573 -1.56217 0.208337 0
M  V30 3538 C 333.801 -2.02337 -0.43215 0
M  V30 3539 C 334.216 -1.08834 -1.54275 0
M  V30 3540 O 333.573 -0.0955462 -1.8225 0
M  V30 3541 C 333.624 -3.48072 -0.976138 0
M  V30 3542 O 333.345 -4.38007 0.0901621 0
M  V30 3543 C 334.846 -4.09773 -1.69119 0
M  V30 3544 H 332.066 -0.662385 -0.10718 0
M  V30 3545 H 334.61 -2.01966 0.320923 0
M  V30 3546 H 332.765 -3.49099 -1.67954 0
M  V30 3547 H 333.179 -5.23543 -0.316701 0
M  V30 3548 H 334.653 -5.13556 -2.02397 0
M  V30 3549 H 335.13 -3.53999 -2.59964 0
M  V30 3550 H 335.736 -4.12556 -1.03332 0
M  V30 3551 N 334.051 0.0651679 -1.57465 0
M  V30 3552 C 334.998 1.07675 -2.04144 0
M  V30 3553 C 335.968 1.38071 -0.923335 0
M  V30 3554 O 337.153 1.49026 -1.19146 0
M  V30 3555 C 334.293 2.38337 -2.49579 0
M  V30 3556 C 333.406 2.14413 -3.75035 0
M  V30 3557 C 332.541 3.38686 -4.09225 0
M  V30 3558 C 331.58 3.10156 -5.27702 0
M  V30 3559 N 330.717 4.26778 -5.57499 0
M  V30 3560 H 335.557 0.671716 -2.90331 0
M  V30 3561 H 333.094 0.3201 -1.43575 0
M  V30 3562 H 335.052 3.14632 -2.73975 0
M  V30 3563 H 333.682 2.7663 -1.6636 0
M  V30 3564 H 332.734 1.2878 -3.57939 0
M  V30 3565 H 334.046 1.89344 -4.61466 0
M  V30 3566 H 333.2 4.23373 -4.34558 0
M  V30 3567 H 331.939 3.66837 -3.21374 0
M  V30 3568 H 330.944 2.23866 -5.02159 0
M  V30 3569 H 332.169 2.8332 -6.17176 0
M  V30 3570 H 330.115 4.54948 -4.72608 0
M  V30 3571 H 330.032 4.05005 -6.38362 0
M  V30 3572 H 331.3 5.12443 -5.87386 0
M  V30 3573 N 335.529 1.53961 0.336706 0
M  V30 3574 C 336.778 1.70751 1.07363 0
M  V30 3575 C 337.091 0.481061 1.89592 0
M  V30 3576 O 338.297 0.530046 2.66276 0
M  V30 3577 C 336.753 3.01965 1.95818 0
M  V30 3578 C 336.361 4.31971 1.18764 0
M  V30 3579 C 338.105 3.28121 2.69327 0
M  V30 3580 C 336.012 5.54255 2.06289 0
M  V30 3581 H 334.942 0.636292 0.404535 0
M  V30 3582 H 337.593 1.80459 0.332681 0
M  V30 3583 H 335.975 2.86132 2.7376 0
M  V30 3584 H 337.149 4.5853 0.456849 0
M  V30 3585 H 335.464 4.12481 0.569946 0
M  V30 3586 H 338.061 4.16673 3.35094 0
M  V30 3587 H 338.404 2.45426 3.36261 0
M  V30 3588 H 338.937 3.44762 1.98454 0
M  V30 3589 H 335.676 6.39513 1.43885 0
M  V30 3590 H 335.196 5.31935 2.77138 0
M  V30 3591 H 336.875 5.90159 2.65182 0
M  V30 3592 N 337.007 -0.598083 1.45811 0
M  V30 3593 C 337.957 -1.70272 1.51629 0
M  V30 3594 C 338.941 -1.56382 0.378629 0
M  V30 3595 O 340.133 -1.65557 0.626087 0
M  V30 3596 C 337.262 -3.09042 1.49493 0
M  V30 3597 C 336.348 -3.28284 2.68496 0
M  V30 3598 N 336.739 -3.17748 3.93535 0
M  V30 3599 C 335.037 -3.59182 2.64394 0
M  V30 3600 C 335.738 -3.38579 4.7301 0
M  V30 3601 N 334.714 -3.63016 4.04624 0
M  V30 3602 H 338.516 -1.60634 2.46118 0
M  V30 3603 H 336.03 -0.801642 1.41235 0
M  V30 3604 H 338.027 -3.88302 1.51747 0
M  V30 3605 H 336.687 -3.19823 0.560683 0
M  V30 3606 H 337.698 -2.95944 4.25014 0
M  V30 3607 H 334.375 -3.76742 1.79922 0
M  V30 3608 H 335.765 -3.35747 5.82 0
M  V30 3609 N 338.485 -1.33259 -0.841409 0
M  V30 3610 C 339.432 -1.23302 -1.95103 0
M  V30 3611 C 340.402 -0.112204 -1.65721 0
M  V30 3612 O 341.587 -0.290038 -1.88583 0
M  V30 3613 C 338.727 -0.975583 -3.31023 0
M  V30 3614 C 337.84 -2.18243 -3.72819 0
M  V30 3615 C 336.975 -1.85936 -4.97595 0
M  V30 3616 C 336.014 -3.02866 -5.3192 0
M  V30 3617 N 335.151 -2.70565 -6.47873 0
M  V30 3618 H 339.991 -2.18207 -2.02952 0
M  V30 3619 H 337.528 -1.0851 -0.993173 0
M  V30 3620 H 339.486 -0.80677 -4.09325 0
M  V30 3621 H 338.116 -0.0632755 -3.22738 0
M  V30 3622 H 337.168 -2.46107 -2.90061 0
M  V30 3623 H 338.48 -3.05666 -3.94169 0
M  V30 3624 H 337.634 -1.65684 -5.83638 0
M  V30 3625 H 336.373 -0.957452 -4.78209 0
M  V30 3626 H 335.378 -3.23736 -4.44382 0
M  V30 3627 H 336.603 -3.93809 -5.53255 0
M  V30 3628 H 334.549 -1.8293 -6.29978 0
M  V30 3629 H 334.466 -3.51519 -6.69306 0
M  V30 3630 H 335.734 -2.53774 -7.37034 0
M  V30 3631 N 339.963 1.05934 -1.16686 0
M  V30 3632 C 340.895 2.13468 -0.834503 0
M  V30 3633 C 341.908 1.62013 0.15984 0
M  V30 3634 O 343.097 1.7838 -0.0654228 0
M  V30 3635 C 340.197 3.3817 -0.222361 0
M  V30 3636 C 339.37 4.18928 -1.25771 0
M  V30 3637 C 338.429 5.21985 -0.664703 0
M  V30 3638 O 337.455 5.53334 -1.33453 0
M  V30 3639 N 338.657 5.77919 0.546834 0
M  V30 3640 H 341.422 2.42578 -1.75999 0
M  V30 3641 H 338.983 1.21967 -1.06469 0
M  V30 3642 H 340.975 4.04266 0.187472 0
M  V30 3643 H 339.545 3.06655 0.606758 0
M  V30 3644 H 338.765 3.48433 -1.84358 0
M  V30 3645 H 340.053 4.69687 -1.95631 0
M  V30 3646 H 339.451 5.54721 1.10912 0
M  V30 3647 H 338.008 6.45573 0.898829 0
M  V30 3648 N 341.441 0.965919 1.2453 0
M  V30 3649 C 342.689 0.625593 1.92174 0
M  V30 3650 C 343.01 -0.841652 1.75901 0
M  V30 3651 O 342.28 -1.60061 1.12948 0
M  V30 3652 H 340.86 0.228388 0.71123 0
M  V30 3653 H 343.522 1.2266 1.51461 0
M  V30 3654 H 342.618 0.864653 2.99884 0
M  V30 3655 N 342.919 -1.39368 0.735821 0
M  V30 3656 C 343.849 -2.33234 0.111506 0
M  V30 3657 C 344.83 -1.53954 -0.723334 0
M  V30 3658 O 346.015 -1.82344 -0.668147 0
M  V30 3659 C 343.145 -3.38057 -0.795917 0
M  V30 3660 C 342.099 -4.2795 -0.065172 0
M  V30 3661 C 341.425 -5.23479 -1.08967 0
M  V30 3662 C 342.725 -5.10741 1.09273 0
M  V30 3663 H 344.419 -2.85692 0.895571 0
M  V30 3664 H 341.965 -1.37364 0.432109 0
M  V30 3665 H 343.918 -4.02675 -1.24221 0
M  V30 3666 H 342.642 -2.8404 -1.61211 0
M  V30 3667 H 341.301 -3.64813 0.361511 0
M  V30 3668 H 340.949 -4.65758 -1.89944 0
M  V30 3669 H 340.649 -5.84472 -0.605489 0
M  V30 3670 H 342.173 -5.90974 -1.53565 0
M  V30 3671 H 343.587 -5.68699 0.724841 0
M  V30 3672 H 341.984 -5.8088 1.50659 0
M  V30 3673 H 343.054 -4.45525 1.91404 0
M  V30 3674 N 344.397 -0.483516 -1.5 0
M  V30 3675 C 345.646 0.0689102 -2.01582 0
M  V30 3676 C 345.959 1.39655 -1.36952 0
M  V30 3677 O 347.165 2.03465 -1.79762 0
M  V30 3678 C 345.621 0.173302 -3.59483 0
M  V30 3679 C 345.229 -1.14665 -4.33077 0
M  V30 3680 C 346.973 0.677024 -4.19066 0
M  V30 3681 C 344.88 -1.00537 -5.82792 0
M  V30 3682 H 343.81 0.0295277 -0.753422 0
M  V30 3683 H 346.461 -0.620295 -1.72698 0
M  V30 3684 H 344.843 0.926569 -3.85007 0
M  V30 3685 H 346.017 -1.91184 -4.19268 0
M  V30 3686 H 344.332 -1.58244 -3.85159 0
M  V30 3687 H 346.929 0.799952 -5.28682 0
M  V30 3688 H 347.272 1.67151 -3.81269 0
M  V30 3689 H 347.805 -0.0192083 -3.97795 0
M  V30 3690 H 344.544 -1.9736 -6.25083 0
M  V30 3691 H 344.064 -0.280776 -5.99142 0
M  V30 3692 H 345.743 -0.677 -6.43448 0
M  V30 3693 N 345.875 1.56104 -0.216619 0
M  V30 3694 C 346.822 2.2007 0.695531 0
M  V30 3695 C 347.792 1.15471 1.19397 0
M  V30 3696 O 348.977 1.43807 1.25396 0
M  V30 3697 C 346.117 2.88073 1.90021 0
M  V30 3698 C 345.23 4.07253 1.44113 0
M  V30 3699 C 344.365 4.63052 2.603 0
M  V30 3700 C 343.404 5.74545 2.11103 0
M  V30 3701 N 342.541 6.24656 3.20545 0
M  V30 3702 H 347.381 2.97655 0.143327 0
M  V30 3703 H 344.918 1.46982 0.0589934 0
M  V30 3704 H 346.876 3.25681 2.60745 0
M  V30 3705 H 345.506 2.13015 2.42538 0
M  V30 3706 H 344.558 3.75164 0.628999 0
M  V30 3707 H 345.87 4.8783 1.04036 0
M  V30 3708 H 345.024 5.03078 3.39113 0
M  V30 3709 H 343.763 3.81628 3.03663 0
M  V30 3710 H 342.768 5.34027 1.3075 0
M  V30 3711 H 343.993 6.57801 1.68746 0
M  V30 3712 H 341.939 5.46148 3.63399 0
M  V30 3713 H 341.856 7.00343 2.84704 0
M  V30 3714 H 343.124 6.69338 3.99508 0
M  V30 3715 N 347.353 -0.0568162 1.57498 0
M  V30 3716 C 348.578 -0.769402 1.92601 0
M  V30 3717 C 349.003 -1.69559 0.814336 0
M  V30 3718 O 348.361 -1.79811 -0.231903 0
M  V30 3719 C 348.409 -1.52634 3.26704 0
M  V30 3720 O 347.513 -2.63797 3.16994 0
M  V30 3721 H 346.854 -0.208909 0.63028 0
M  V30 3722 H 349.384 -0.0205798 2.0459 0
M  V30 3723 H 349.394 -1.90234 3.60936 0
M  V30 3724 H 348.069 -0.846875 4.07186 0
M  V30 3725 H 346.646 -2.28943 2.94346 0
M  V30 3726 N 348.832 -1.54138 -0.328536 0
M  V30 3727 C 350.057 -1.76378 -1.09112 0
M  V30 3728 C 350.482 -0.508596 -1.81094 0
M  V30 3729 O 349.84 0.539598 -1.73084 0
M  V30 3730 C 349.888 -2.95358 -2.06872 0
M  V30 3731 O 348.992 -2.66556 -3.14677 0
M  V30 3732 H 348.333 -0.584614 -0.314838 0
M  V30 3733 H 350.863 -2.01146 -0.374348 0
M  V30 3734 H 350.873 -3.22566 -2.4983 0
M  V30 3735 H 349.548 -3.86385 -1.5388 0
M  V30 3736 H 348.125 -2.50282 -2.7643 0
M  V30 3737 N 350.31 0.590341 -1.46126 0
M  V30 3738 C 351.726 0.912917 -1.30912 0
M  V30 3739 C 351.926 1.99616 -0.274893 0
M  V30 3740 O 350.982 2.50397 0.325197 0
M  V30 3741 C 352.295 1.3375 -2.69317 0
M  V30 3742 C 353.843 1.45077 -2.77348 0
M  V30 3743 C 354.318 1.90904 -4.16317 0
M  V30 3744 N 355.809 1.9811 -4.18696 0
M  V30 3745 C 356.544 2.34828 -5.23109 0
M  V30 3746 N 356.04 2.70393 -6.37856 0
M  V30 3747 N 357.833 2.35317 -5.10473 0
M  V30 3748 H 349.984 -0.125358 -2.1203 0
M  V30 3749 H 352.247 0.00658481 -0.947977 0
M  V30 3750 H 351.953 0.615614 -3.4627 0
M  V30 3751 H 351.827 2.30058 -2.9892 0
M  V30 3752 H 354.214 2.16353 -2.00687 0
M  V30 3753 H 354.295 0.4704 -2.51438 0
M  V30 3754 H 353.939 1.20209 -4.9347 0
M  V30 3755 H 353.869 2.89886 -4.39629 0
M  V30 3756 H 356.36 1.73146 -3.359 0
M  V30 3757 H 356.673 2.97341 -7.13308 0
M  V30 3758 H 355.018 2.68048 -6.41229 0
M  V30 3759 H 358.209 2.0695 -4.19868 0
M  V30 3760 H 358.382 2.63605 -5.9196 0
M  V30 3761 N 351.788 1.33704 0.83433 0
M  V30 3762 C 353.199 1.22813 1.4062 0
M  V30 3763 C 353.55 -0.151107 1.95617 0
M  V30 3764 O 352.675 -1.05092 1.89168 0
M  V30 3765 C 353.27 2.22355 2.55624 0
M  V30 3766 C 351.829 2.1529 3.08751 0
M  V30 3767 C 350.976 2.09589 1.8157 0
M  V30 3768 H 353.927 1.45236 0.639702 0
M  V30 3769 H 353.948 1.83391 3.33389 0
M  V30 3770 H 353.46 3.22728 2.15566 0
M  V30 3771 H 351.561 1.18235 3.53343 0
M  V30 3772 H 351.674 3.06038 3.68616 0
M  V30 3773 H 350.038 1.55134 2.02004 0
M  V30 3774 H 350.821 3.11777 1.43701 0
M  V30 3775 N 353.266 -1.05314 1.17247 0
M  V30 3776 C 354.196 -2.1498 0.911362 0
M  V30 3777 C 355.177 -1.69471 -0.146169 0
M  V30 3778 O 356.362 -1.942 0.003812 0
M  V30 3779 C 353.492 -3.4472 0.422528 0
M  V30 3780 C 352.446 -4.03789 1.4191 0
M  V30 3781 C 351.772 -5.28858 0.788274 0
M  V30 3782 C 353.072 -4.41418 2.7919 0
M  V30 3783 H 354.766 -2.3708 1.82848 0
M  V30 3784 H 352.312 -1.13938 0.880569 0
M  V30 3785 H 354.265 -4.20787 0.227289 0
M  V30 3786 H 352.989 -3.22269 -0.530123 0
M  V30 3787 H 351.648 -3.2979 1.60106 0
M  V30 3788 H 351.296 -5.02709 -0.171173 0
M  V30 3789 H 350.996 -5.69338 1.45353 0
M  V30 3790 H 352.52 -6.07612 0.603282 0
M  V30 3791 H 353.934 -5.08524 2.64719 0
M  V30 3792 H 352.331 -4.92913 3.42282 0
M  V30 3793 H 353.401 -3.51819 3.33693 0
M  V30 3794 N 354.744 -0.972509 -1.24016 0
M  V30 3795 C 356.16 -0.679827 -1.44397 0
M  V30 3796 C 356.36 0.756716 -1.86751 0
M  V30 3797 O 355.416 1.53007 -2.00861 0
M  V30 3798 C 356.729 -1.66803 -2.50195 0
M  V30 3799 C 358.277 -1.68119 -2.64017 0
M  V30 3800 C 358.752 -2.65748 -3.73017 0
M  V30 3801 N 360.243 -2.64219 -3.8045 0
M  V30 3802 C 360.978 -3.36433 -4.64328 0
M  V30 3803 N 360.474 -4.1818 -5.52356 0
M  V30 3804 N 362.267 -3.25235 -4.58453 0
M  V30 3805 H 354.418 -1.90059 -0.948228 0
M  V30 3806 H 356.681 -0.818527 -0.478245 0
M  V30 3807 H 356.387 -2.69498 -2.25973 0
M  V30 3808 H 356.261 -1.4446 -3.48441 0
M  V30 3809 H 358.648 -0.661319 -2.87594 0
M  V30 3810 H 358.729 -1.94525 -1.66113 0
M  V30 3811 H 358.373 -3.67872 -3.50189 0
M  V30 3812 H 358.303 -2.36619 -4.70446 0
M  V30 3813 H 360.794 -2.04887 -3.17537 0
M  V30 3814 H 361.107 -4.70157 -6.13329 0
M  V30 3815 H 359.452 -4.22273 -5.52006 0
M  V30 3816 H 362.643 -2.60829 -3.88698 0
M  V30 3817 H 362.816 -3.81776 -5.23594 0
M  V30 3818 N 356.222 1.38976 -0.743202 0
M  V30 3819 C 357.468 2.0064 -0.295189 0
M  V30 3820 C 357.801 1.5885 1.11716 0
M  V30 3821 O 357.076 0.821181 1.76315 0
M  V30 3822 C 357.359 3.578 -0.406318 0
M  V30 3823 C 357.212 4.09586 -1.85903 0
M  V30 3824 C 358.531 4.39616 0.206439 0
M  V30 3825 H 355.65 0.728935 -0.108733 0
M  V30 3826 H 358.292 1.65067 -0.940897 0
M  V30 3827 H 356.442 3.88235 0.143419 0
M  V30 3828 H 358.114 3.89837 -2.46627 0
M  V30 3829 H 356.357 3.6284 -2.3776 0
M  V30 3830 H 357.028 5.18708 -1.888 0
M  V30 3831 H 359.504 4.15273 -0.262283 0
M  V30 3832 H 358.38 5.48812 0.0983819 0
M  V30 3833 H 358.641 4.22754 1.2935 0
M  V30 3834 N 357.7 0.491464 1.49741 0
M  V30 3835 C 358.63 -0.28154 2.31796 0
M  V30 3836 C 359.611 -0.971473 1.3963 0
M  V30 3837 O 360.796 -0.964719 1.68543 0
M  V30 3838 C 357.926 -1.35203 3.19902 0
M  V30 3839 C 356.88 -0.782529 4.20786 0
M  V30 3840 C 356.206 -1.95283 4.97764 0
M  V30 3841 C 357.506 0.21999 5.21837 0
M  V30 3842 H 359.2 0.403355 2.96671 0
M  V30 3843 H 356.746 0.195425 1.42668 0
M  V30 3844 H 358.699 -1.90045 3.76113 0
M  V30 3845 H 357.423 -2.06598 2.52953 0
M  V30 3846 H 356.082 -0.255928 3.65706 0
M  V30 3847 H 355.73 -2.65423 4.2727 0
M  V30 3848 H 355.43 -1.57789 5.66018 0
M  V30 3849 H 356.954 -2.50577 5.56816 0
M  V30 3850 H 358.368 -0.23996 5.72798 0
M  V30 3851 H 356.765 0.51026 5.97927 0
M  V30 3852 H 357.835 1.13911 4.7133 0
M  V30 3853 N 359.178 -1.55987 0.224894 0
M  V30 3854 C 360.403 -2.03232 -0.41369 0
M  V30 3855 C 360.828 -1.10359 -1.52323 0
M  V30 3856 O 360.186 -0.092395 -1.81064 0
M  V30 3857 C 360.234 -3.48682 -0.919405 0
M  V30 3858 O 359.338 -3.58947 -2.03054 0
M  V30 3859 H 358.679 -0.657428 -0.0931903 0
M  V30 3860 H 361.209 -2.01679 0.34451 0
M  V30 3861 H 361.219 -3.8907 -1.22835 0
M  V30 3862 H 359.894 -4.15761 -0.107339 0
M  V30 3863 H 358.471 -3.30448 -1.72796 0
M  V30 3864 N 360.656 0.0484629 -1.57525 0
M  V30 3865 C 361.903 0.743125 -1.88372 0
M  V30 3866 C 362.231 1.76383 -0.819715 0
M  V30 3867 O 361.486 1.94855 0.181659 0
M  V30 3868 C 361.785 1.46632 -3.25935 0
M  V30 3869 C 361.451 0.583427 -4.4711 0
M  V30 3870 C 360.113 0.340191 -4.79996 0
M  V30 3871 C 362.465 -0.0273345 -5.21193 0
M  V30 3872 C 359.793 -0.522903 -5.84365 0
M  V30 3873 C 362.145 -0.878017 -6.26477 0
M  V30 3874 C 360.809 -1.1309 -6.5785 0
M  V30 3875 H 360.079 0.271929 -0.689301 0
M  V30 3876 H 362.726 0.00336166 -1.915 0
M  V30 3877 H 361.031 2.2789 -3.18706 0
M  V30 3878 H 362.728 2.00902 -3.47044 0
M  V30 3879 H 359.318 0.783151 -4.21384 0
M  V30 3880 H 363.502 0.147654 -4.9608 0
M  V30 3881 H 358.758 -0.727335 -6.07058 0
M  V30 3882 H 362.932 -1.35789 -6.83033 0
M  V30 3883 H 360.559 -1.80144 -7.38547 0
M  V30 3884 N 362.134 1.5431 0.320358 0
M  V30 3885 C 363.38 1.72924 1.05949 0
M  V30 3886 C 363.713 0.503185 1.87568 0
M  V30 3887 O 362.988 -0.499839 1.87968 0
M  V30 3888 C 363.271 3.00676 1.98156 0
M  V30 3889 C 363.124 4.3354 1.19845 0
M  V30 3890 C 364.443 3.24198 2.9763 0
M  V30 3891 H 361.562 0.629195 0.383774 0
M  V30 3892 H 364.204 1.87008 0.335854 0
M  V30 3893 H 362.354 2.888 2.59859 0
M  V30 3894 H 364.026 4.57305 0.605773 0
M  V30 3895 H 362.269 4.309 0.500784 0
M  V30 3896 H 362.94 5.19156 1.87567 0
M  V30 3897 H 365.416 3.35557 2.4605 0
M  V30 3898 H 364.292 4.14938 3.59329 0
M  V30 3899 H 364.553 2.41577 3.7026 0
M  V30 3900 N 363.613 -0.582584 1.46437 0
M  V30 3901 C 364.576 -1.67366 1.56592 0
M  V30 3902 C 365.576 -1.54575 0.443072 0
M  V30 3903 O 366.766 -1.59191 0.707381 0
M  V30 3904 C 363.898 -3.06791 1.48634 0
M  V30 3905 H 365.091 -1.5972 2.5383 0
M  V30 3906 H 362.644 -0.800432 1.34249 0
M  V30 3907 H 363.379 -3.19993 0.526763 0
M  V30 3908 H 363.164 -3.17484 2.30101 0
M  V30 3909 H 364.654 -3.86218 1.58826 0
M  V30 3910 N 365.091 -1.34144 -0.827227 0
M  V30 3911 C 366.054 -1.25264 -1.91942 0
M  V30 3912 C 367.054 -0.168866 -1.59911 0
M  V30 3913 O 368.244 -0.421198 -1.69031 0
M  V30 3914 C 365.376 -0.932952 -3.27885 0
M  V30 3915 H 366.569 -2.22357 -2.0124 0
M  V30 3916 H 364.122 -1.1837 -1.0207 0
M  V30 3917 H 364.857 0.0349917 -3.24281 0
M  V30 3918 H 364.642 -1.71682 -3.52516 0
M  V30 3919 H 366.132 -0.895874 -4.07877 0
M  V30 3920 N 366.569 1.04691 -1.17803 0
M  V30 3921 C 367.532 2.10724 -0.901545 0
M  V30 3922 C 368.532 1.6042 0.110437 0
M  V30 3923 O 369.722 1.7377 -0.122303 0
M  V30 3924 C 366.854 3.39084 -0.351409 0
M  V30 3925 H 368.047 2.36686 -1.84174 0
M  V30 3926 H 365.6 1.21015 -0.98919 0
M  V30 3927 H 366.335 3.18782 0.59569 0
M  V30 3928 H 366.12 3.76909 -1.08083 0
M  V30 3929 H 367.61 4.17227 -0.176451 0
M  V30 3930 N 368.047 0.979072 1.23499 0
M  V30 3931 C 369.294 0.647219 1.91878 0
M  V30 3932 C 369.622 -0.819074 1.76413 0
M  V30 3933 O 368.877 -1.60616 1.11808 0
M  V30 3934 C 369.176 0.981932 3.43646 0
M  V30 3935 C 368.842 2.43822 3.79291 0
M  V30 3936 C 367.504 2.83622 3.88731 0
M  V30 3937 C 369.856 3.3828 3.96505 0
M  V30 3938 C 367.184 4.16897 4.12812 0
M  V30 3939 C 369.536 4.71197 4.22085 0
M  V30 3940 C 368.2 5.10758 4.29747 0
M  V30 3941 H 367.47 0.236834 0.702133 0
M  V30 3942 H 370.117 1.23268 1.46551 0
M  V30 3943 H 368.422 0.314365 3.90537 0
M  V30 3944 H 370.119 0.703395 3.94783 0
M  V30 3945 H 366.709 2.11966 3.72516 0
M  V30 3946 H 370.893 3.0871 3.88603 0
M  V30 3947 H 366.149 4.47157 4.16966 0
M  V30 3948 H 370.323 5.44348 4.34348 0
M  V30 3949 H 367.95 6.1405 4.48159 0
M  V30 3950 N 369.525 -1.3858 0.750561 0
M  V30 3951 C 370.772 -2.00184 0.305373 0
M  V30 3952 C 371.1 -1.59575 -1.11203 0
M  V30 3953 O 370.355 -0.823236 -1.77542 0
M  V30 3954 C 370.654 -3.55455 0.372373 0
M  V30 3955 C 370.32 -4.15765 1.745 0
M  V30 3956 C 368.982 -4.31951 2.12065 0
M  V30 3957 C 371.334 -4.49067 2.64553 0
M  V30 3958 C 368.662 -4.78734 3.39162 0
M  V30 3959 C 371.014 -4.97265 3.91038 0
M  V30 3960 C 369.678 -5.11658 4.28676 0
M  V30 3961 H 368.948 -0.732526 0.111744 0
M  V30 3962 H 371.595 -1.65673 0.960451 0
M  V30 3963 H 369.9 -3.90084 -0.366272 0
M  V30 3964 H 371.597 -4.00999 0.00953918 0
M  V30 3965 H 368.187 -4.03579 1.44297 0
M  V30 3966 H 372.371 -4.36166 2.36796 0
M  V30 3967 H 367.627 -4.88062 3.68246 0
M  V30 3968 H 371.801 -5.22003 4.60962 0
M  V30 3969 H 369.428 -5.47668 5.27222 0
M  V30 3970 N 371.003 -0.499398 -1.49478 0
M  V30 3971 C 371.933 0.269244 -2.31943 0
M  V30 3972 C 372.914 0.964054 -1.40143 0
M  V30 3973 O 374.099 0.955767 -1.69052 0
M  V30 3974 C 371.229 1.33504 -3.20615 0
M  V30 3975 C 370.183 0.760202 -4.21195 0
M  V30 3976 C 369.509 1.9264 -4.98792 0
M  V30 3977 C 370.809 -0.247661 -5.21712 0
M  V30 3978 H 372.503 -0.419082 -2.96452 0
M  V30 3979 H 370.049 -0.202988 -1.42562 0
M  V30 3980 H 372.002 1.88048 -3.77115 0
M  V30 3981 H 370.726 2.05253 -2.54045 0
M  V30 3982 H 369.385 0.23653 -3.65836 0
M  V30 3983 H 369.033 2.63154 -4.28671 0
M  V30 3984 H 368.733 1.54785 -5.66847 0
M  V30 3985 H 370.257 2.4762 -5.58137 0
M  V30 3986 H 371.671 0.209579 -5.72917 0
M  V30 3987 H 370.068 -0.541962 -5.97648 0
M  V30 3988 H 371.138 -1.16409 -4.7072 0
M  V30 3989 N 372.481 1.55866 -0.233164 0
M  V30 3990 C 373.721 2.00506 0.397078 0
M  V30 3991 C 374.085 1.1176 1.56121 0
M  V30 3992 O 375.286 1.45796 2.25825 0
M  V30 3993 C 373.557 3.4811 0.809601 0
M  V30 3994 S 375.116 4.14765 1.43231 0
M  V30 3995 H 371.934 0.699828 0.125547 0
M  V30 3996 H 374.536 1.92429 -0.345177 0
M  V30 3997 H 373.24 4.10373 -0.0471601 0
M  V30 3998 H 372.771 3.60085 1.58438 0
M  V30 3999 H 374.786 4.14914 2.7214 0
M  V30 4000 N 373.959 -0.0401083 1.57549 0
M  V30 4001 C 375.205 -0.728793 1.89895 0
M  V30 4002 C 375.56 -1.73551 0.830535 0
M  V30 4003 O 374.853 -1.90914 -0.162007 0
M  V30 4004 C 375.047 -1.44902 3.26708 0
M  V30 4005 C 374.876 -0.513568 4.46758 0
M  V30 4006 C 373.646 -0.138698 5.0511 0
M  V30 4007 C 375.844 0.203341 5.13898 0
M  V30 4008 N 373.826 0.799159 6.08676 0
M  V30 4009 C 375.197 0.997246 6.11927 0
M  V30 4010 C 377.252 0.271459 4.97159 0
M  V30 4011 C 375.955 1.85299 6.95023 0
M  V30 4012 C 377.981 1.11429 5.80808 0
M  V30 4013 C 377.343 1.89615 6.78399 0
M  V30 4014 H 373.442 -0.241125 0.743897 0
M  V30 4015 H 376.026 0.0108016 1.94697 0
M  V30 4016 H 374.197 -2.15914 3.22856 0
M  V30 4017 H 375.929 -2.08921 3.46603 0
M  V30 4018 H 372.684 -0.498496 4.70969 0
M  V30 4019 H 373.108 1.26227 6.65128 0
M  V30 4020 H 377.75 -0.318709 4.21597 0
M  V30 4021 H 375.468 2.454 7.69938 0
M  V30 4022 H 379.054 1.17038 5.69906 0
M  V30 4023 H 377.934 2.53779 7.42001 0
M  V30 4024 N 375.437 -1.54477 -0.31217 0
M  V30 4025 C 376.662 -1.77526 -1.07235 0
M  V30 4026 C 377.087 -0.527775 -1.80544 0
M  V30 4027 O 376.445 0.52121 -1.73646 0
M  V30 4028 C 376.493 -2.97535 -2.03728 0
M  V30 4029 O 375.597 -2.69878 -3.11833 0
M  V30 4030 H 374.938 -0.58792 -0.30862 0
M  V30 4031 H 377.468 -2.01532 -0.352993 0
M  V30 4032 H 377.478 -3.25198 -2.46395 0
M  V30 4033 H 376.153 -3.87996 -1.49774 0
M  V30 4034 H 374.73 -2.53199 -2.7376 0
M  V30 4035 N 376.915 0.57481 -1.46744 0
M  V30 4036 C 378.326 1.15695 -1.46532 0
M  V30 4037 C 378.677 1.95068 -0.210425 0
M  V30 4038 O 377.802 2.05241 0.685944 0
M  V30 4039 C 378.397 2.1048 -2.65487 0
M  V30 4040 C 376.956 2.64002 -2.68291 0
M  V30 4041 C 376.103 1.40026 -2.39349 0
M  V30 4042 H 379.054 0.362325 -1.54509 0
M  V30 4043 H 379.075 2.94074 -2.41455 0
M  V30 4044 H 378.587 1.52683 -3.56805 0
M  V30 4045 H 376.688 3.25646 -1.81067 0
M  V30 4046 H 376.801 3.06197 -3.68483 0
M  V30 4047 H 375.165 1.70106 -1.89568 0
M  V30 4048 H 375.948 0.840485 -3.32852 0
M  V30 4049 N 378.394 1.34581 0.820102 0
M  V30 4050 C 379.624 1.29991 1.6058 0
M  V30 4051 C 380.032 -0.127588 1.88769 0
M  V30 4052 O 379.375 -1.08595 1.48165 0
M  V30 4053 C 379.437 2.02548 2.9701 0
M  V30 4054 C 379.101 3.51794 2.91701 0
M  V30 4055 C 380.098 4.46647 2.66087 0
M  V30 4056 C 377.783 3.94249 3.11245 0
M  V30 4057 C 379.777 5.81929 2.60071 0
M  V30 4058 C 377.464 5.2963 3.04853 0
M  V30 4059 C 378.462 6.23282 2.793 0
M  V30 4060 O 378.15 7.56181 2.72847 0
M  V30 4061 H 377.882 0.448539 0.505756 0
M  V30 4062 H 380.436 1.77811 1.02822 0
M  V30 4063 H 378.666 1.49345 3.56697 0
M  V30 4064 H 380.355 1.91211 3.58041 0
M  V30 4065 H 381.121 4.15168 2.5072 0
M  V30 4066 H 377 3.21749 3.30149 0
M  V30 4067 H 380.544 6.54999 2.40046 0
M  V30 4068 H 376.441 5.60727 3.19774 0
M  V30 4069 H 377.209 7.6595 2.88553 0
M  V30 4070 N 379.872 -1.04064 1.18357 0
M  V30 4071 C 380.804 -2.12114 0.868358 0
M  V30 4072 C 381.817 -1.62247 -0.134045 0
M  V30 4073 O 383.006 -1.78253 0.0937933 0
M  V30 4074 C 380.106 -3.37773 0.276132 0
M  V30 4075 C 379.279 -4.16874 1.3242 0
M  V30 4076 C 378.338 -5.20861 0.747662 0
M  V30 4077 O 377.364 -5.51141 1.42239 0
M  V30 4078 N 378.566 -5.78715 -0.454823 0
M  V30 4079 H 381.331 -2.39748 1.79836 0
M  V30 4080 H 378.892 -1.20258 1.08396 0
M  V30 4081 H 380.884 -4.04513 -0.123133 0
M  V30 4082 H 379.454 -3.07581 -0.557895 0
M  V30 4083 H 378.674 -3.45456 1.89878 0
M  V30 4084 H 379.962 -4.66516 2.03078 0
M  V30 4085 H 379.36 -5.56415 -1.02073 0
M  V30 4086 H 377.917 -6.46921 -0.79601 0
M  V30 4087 N 381.35 -0.985608 -1.22978 0
M  V30 4088 C 382.596 -0.65836 -1.91816 0
M  V30 4089 C 382.929 0.806692 -1.76653 0
M  V30 4090 O 382.204 1.58252 -1.13078 0
M  V30 4091 C 382.487 -1.056 -3.44268 0
M  V30 4092 C 382.34 -2.57906 -3.68516 0
M  V30 4093 C 383.659 -0.603781 -4.35939 0
M  V30 4094 H 380.778 -0.24065 -0.696604 0
M  V30 4095 H 383.42 -1.22783 -1.44998 0
M  V30 4096 H 381.57 -0.571445 -3.84274 0
M  V30 4097 H 383.242 -3.13976 -3.3796 0
M  V30 4098 H 381.485 -3.00305 -3.13048 0
M  V30 4099 H 382.156 -2.80779 -4.75255 0
M  V30 4100 H 384.632 -1.01987 -4.03408 0
M  V30 4101 H 383.508 -0.910383 -5.41298 0
M  V30 4102 H 383.769 0.495761 -4.39312 0
M  V30 4103 N 382.828 1.3818 -0.7579 0
M  V30 4104 C 384.074 2.00316 -0.316453 0
M  V30 4105 C 384.407 1.60026 1.10025 0
M  V30 4106 O 383.682 0.839835 1.75434 0
M  V30 4107 C 383.965 3.57349 -0.444245 0
M  V30 4108 C 383.818 4.07591 -1.90236 0
M  V30 4109 C 385.137 4.3981 0.1598 0
M  V30 4110 H 382.256 0.727741 -0.116459 0
M  V30 4111 H 384.898 1.6406 -0.958352 0
M  V30 4112 H 383.048 3.88365 0.102233 0
M  V30 4113 H 384.72 3.87199 -2.50748 0
M  V30 4114 H 382.963 3.60297 -2.41595 0
M  V30 4115 H 383.634 5.16677 -1.94291 0
M  V30 4116 H 386.11 4.14971 -0.306314 0
M  V30 4117 H 384.986 5.48885 0.0401675 0
M  V30 4118 H 385.247 4.24102 1.24859 0
M  V30 4119 N 384.306 0.507319 1.49211 0
M  V30 4120 C 385.269 -0.256763 2.27757 0
M  V30 4121 C 386.269 -0.888287 1.34038 0
M  V30 4122 O 387.459 -0.751841 1.5714 0
M  V30 4123 C 384.591 -1.36905 3.12202 0
M  V30 4124 H 385.784 0.432557 2.96764 0
M  V30 4125 H 383.337 0.262488 1.5408 0
M  V30 4126 H 384.072 -2.09233 2.47775 0
M  V30 4127 H 383.857 -0.921599 3.81115 0
M  V30 4128 H 385.347 -1.9071 3.7151 0
M  V30 4129 N 385.784 -1.5574 0.241426 0
M  V30 4130 C 386.714 -2.24133 -0.654722 0
M  V30 4131 C 387.695 -1.21974 -1.1856 0
M  V30 4132 O 388.88 -1.50612 -1.22595 0
M  V30 4133 C 386.01 -2.93659 -1.85423 0
M  V30 4134 C 384.964 -4.0246 -1.45636 0
M  V30 4135 C 384.29 -4.59383 -2.73626 0
M  V30 4136 C 385.59 -5.18468 -0.631506 0
M  V30 4137 H 387.284 -2.99281 -0.0844353 0
M  V30 4138 H 384.83 -1.43947 -0.0391707 0
M  V30 4139 H 386.783 -3.40203 -2.48676 0
M  V30 4140 H 385.507 -2.15991 -2.44981 0
M  V30 4141 H 384.166 -3.56676 -0.847202 0
M  V30 4142 H 383.814 -3.78422 -3.3137 0
M  V30 4143 H 383.514 -5.32826 -2.4773 0
M  V30 4144 H 385.038 -5.08658 -3.37786 0
M  V30 4145 H 386.452 -5.61272 -1.1682 0
M  V30 4146 H 384.849 -5.98266 -0.468831 0
M  V30 4147 H 385.919 -4.8358 0.357506 0
M  V30 4148 N 387.262 0.0317525 -1.57568 0
M  V30 4149 C 388.511 0.722131 -1.8833 0
M  V30 4150 C 388.824 1.76664 -0.839587 0
M  V30 4151 O 390.03 2.50942 -1.03635 0
M  V30 4152 C 388.486 1.33544 -3.34207 0
M  V30 4153 C 388.094 0.327415 -4.46802 0
M  V30 4154 C 389.838 2.00585 -3.7412 0
M  V30 4155 C 387.745 0.948915 -5.83738 0
M  V30 4156 H 386.675 0.273466 -0.702661 0
M  V30 4157 H 389.326 -0.0235811 -1.83485 0
M  V30 4158 H 387.708 2.13077 -3.33788 0
M  V30 4159 H 388.882 -0.441006 -4.58685 0
M  V30 4160 H 387.197 -0.240758 -4.15703 0
M  V30 4161 H 389.794 2.47932 -4.73744 0
M  V30 4162 H 390.137 2.82285 -3.05975 0
M  V30 4163 H 390.67 1.27831 -3.76702 0
M  V30 4164 H 387.409 0.171387 -6.55276 0
M  V30 4165 H 386.929 1.68724 -5.7558 0
M  V30 4166 H 388.608 1.45705 -6.3038 0
M  V30 4167 N 388.74 1.54641 0.303973 0
M  V30 4168 C 389.703 1.84646 1.35789 0
M  V30 4169 C 390.703 0.7192 1.4382 0
M  V30 4170 O 391.893 0.987491 1.43507 0
M  V30 4171 C 389.025 2.02407 2.74307 0
M  V30 4172 H 390.218 2.78829 1.10429 0
M  V30 4173 H 387.771 1.46658 0.540487 0
M  V30 4174 H 388.506 1.10502 3.04893 0
M  V30 4175 H 388.291 2.84453 2.69868 0
M  V30 4176 H 389.781 2.27002 3.50514 0
M  V30 4177 N 390.218 -0.567019 1.47046 0
M  V30 4178 C 391.446 -1.35027 1.56765 0
M  V30 4179 C 391.861 -1.8758 0.214316 0
M  V30 4180 O 391.218 -1.64471 -0.790919 0
M  V30 4181 C 391.269 -2.52698 2.58507 0
M  V30 4182 O 390.99 -2.0232 3.88585 0
M  V30 4183 C 392.491 -3.45043 2.78316 0
M  V30 4184 H 389.711 -0.41195 0.529658 0
M  V30 4185 H 392.255 -0.687832 1.92585 0
M  V30 4186 H 390.41 -3.149 2.25648 0
M  V30 4187 H 390.824 -2.79068 4.44096 0
M  V30 4188 H 392.298 -4.2405 3.53391 0
M  V30 4189 H 392.775 -3.97971 1.85784 0
M  V30 4190 H 393.381 -2.88665 3.12334 0
M  V30 4191 N 391.696 -1.35014 -0.812953 0
M  V30 4192 C 392.942 -1.2812 -1.57204 0
M  V30 4193 C 393.275 0.145869 -1.93651 0
M  V30 4194 O 392.55 1.0937 -1.60836 0
M  V30 4195 C 392.833 -2.18162 -2.86492 0
M  V30 4196 C 392.686 -3.69454 -2.56561 0
M  V30 4197 C 394.005 -2.07439 -3.88145 0
M  V30 4198 H 391.124 -0.466746 -0.570366 0
M  V30 4199 H 393.766 -1.65357 -0.935783 0
M  V30 4200 H 391.916 -1.86535 -3.40789 0
M  V30 4201 H 393.588 -4.11493 -2.08497 0
M  V30 4202 H 391.831 -3.9005 -1.89851 0
M  V30 4203 H 392.502 -4.27835 -3.48799 0
M  V30 4204 H 394.978 -2.35228 -3.4323 0
M  V30 4205 H 393.854 -2.7265 -4.76396 0
M  V30 4206 H 394.115 -1.05439 -4.29343 0
M  V30 4207 N 393.175 1.03435 -1.18907 0
M  V30 4208 C 394.591 1.28973 -0.940111 0
M  V30 4209 C 394.791 1.97676 0.390691 0
M  V30 4210 O 393.847 2.26127 1.12352 0
M  V30 4211 C 395.16 2.14221 -2.11021 0
M  V30 4212 C 396.708 2.27547 -2.14922 0
M  V30 4213 C 397.183 3.16164 -3.31367 0
M  V30 4214 N 398.674 3.23752 -3.31269 0
M  V30 4215 C 399.409 3.92495 -4.18014 0
M  V30 4216 N 398.905 4.63515 -5.14904 0
M  V30 4217 N 400.698 3.88838 -4.05908 0
M  V30 4218 H 392.849 0.57252 -2.04538 0
M  V30 4219 H 395.112 0.315184 -0.894071 0
M  V30 4220 H 394.818 1.71054 -3.073 0
M  V30 4221 H 394.692 3.14919 -2.0762 0
M  V30 4222 H 397.079 2.69947 -1.19217 0
M  V30 4223 H 397.16 1.26418 -2.22378 0
M  V30 4224 H 396.804 2.74474 -4.27348 0
M  V30 4225 H 396.734 4.17339 -3.21148 0
M  V30 4226 H 399.225 2.73167 -2.61129 0
M  V30 4227 H 399.538 5.13583 -5.77453 0
M  V30 4228 H 397.883 4.62398 -5.18857 0
M  V30 4229 H 401.074 3.32491 -3.29495 0
M  V30 4230 H 401.247 4.4214 -4.73726 0
M  V30 4231 N 394.653 0.992116 1.22453 0
M  V30 4232 C 395.902 0.662992 1.90492 0
M  V30 4233 C 396.215 -0.808407 1.78113 0
M  V30 4234 O 397.421 -1.24908 2.41061 0
M  V30 4235 C 395.877 1.1353 3.41524 0
M  V30 4236 C 395.485 2.63187 3.62542 0
M  V30 4237 C 397.229 0.880465 4.15269 0
M  V30 4238 C 395.136 3.04024 5.0727 0
M  V30 4239 H 394.066 0.244278 0.713333 0
M  V30 4240 H 396.717 1.20157 1.38688 0
M  V30 4241 H 395.099 0.52485 3.92506 0
M  V30 4242 H 396.273 3.2957 3.22056 0
M  V30 4243 H 394.588 2.86543 3.02129 0
M  V30 4244 H 397.185 1.16128 5.21937 0
M  V30 4245 H 397.528 -0.183408 4.15896 0
M  V30 4246 H 398.061 1.45307 3.70312 0
M  V30 4247 H 394.8 4.09584 5.11782 0
M  V30 4248 H 394.32 2.42343 5.48662 0
M  V30 4249 H 395.999 2.95282 5.75689 0
M  V30 4250 N 396.131 -1.37776 0.765217 0
M  V30 4251 C 397.547 -1.53297 0.444108 0
M  V30 4252 C 397.747 -1.72515 -1.04119 0
M  V30 4253 O 396.803 -1.74278 -1.82711 0
M  V30 4254 C 398.116 -2.73328 1.25349 0
M  V30 4255 C 399.664 -2.87185 1.24473 0
M  V30 4256 C 400.139 -4.10191 2.03733 0
M  V30 4257 N 401.63 -4.17291 2.01053 0
M  V30 4258 C 402.365 -5.11488 2.59166 0
M  V30 4259 N 401.861 -6.11285 3.26041 0
M  V30 4260 N 403.654 -5.03924 2.49032 0
M  V30 4261 H 395.805 -1.23552 1.72768 0
M  V30 4262 H 398.068 -0.601103 0.733062 0
M  V30 4263 H 397.774 -2.6557 2.30577 0
M  V30 4264 H 397.648 -3.66834 0.87823 0
M  V30 4265 H 400.035 -2.94418 0.20047 0
M  V30 4266 H 400.116 -1.94657 1.65959 0
M  V30 4267 H 399.76 -4.0372 3.08176 0
M  V30 4268 H 399.69 -5.01821 1.59633 0
M  V30 4269 H 402.181 -3.45825 1.5236 0
M  V30 4270 H 402.494 -6.79678 3.67774 0
M  V30 4271 H 400.839 -6.11583 3.30138 0
M  V30 4272 H 404.03 -4.24902 1.96407 0
M  V30 4273 H 404.203 -5.77152 2.94617 0
M  V30 4274 N 397.609 -0.515225 -1.4894 0
M  V30 4275 C 398.519 0.259774 -2.33157 0
M  V30 4276 C 399.535 0.953501 -1.45548 0
M  V30 4277 O 400.711 0.931735 -1.78552 0
M  V30 4278 C 397.776 1.30193 -3.21326 0
M  V30 4279 C 396.837 0.620129 -4.24797 0
M  V30 4280 C 396.07 1.61263 -5.08753 0
M  V30 4281 O 396.293 2.84389 -4.94448 0
M  V30 4282 O 395.227 1.16013 -5.90614 0
M  V30 4283 H 399.053 -0.429932 -3.00641 0
M  V30 4284 H 396.638 -0.276346 -1.46822 0
M  V30 4285 H 398.52 1.90455 -3.75905 0
M  V30 4286 H 397.195 1.97431 -2.56521 0
M  V30 4287 H 396.102 -0.0226019 -3.74093 0
M  V30 4288 H 397.435 -0.0100493 -4.92199 0
M  V30 4289 N 399.087 1.5561 -0.249682 0
M  V30 4290 C 400.017 2.24477 0.642826 0
M  V30 4291 C 400.998 1.22601 1.17911 0
M  V30 4292 O 402.183 1.5126 1.21795 0
M  V30 4293 C 399.313 2.94638 1.83863 0
M  V30 4294 C 398.267 4.03227 1.435 0
M  V30 4295 C 397.593 4.60828 2.71186 0
M  V30 4296 C 398.893 5.18796 0.604002 0
M  V30 4297 H 400.587 2.99321 0.0685625 0
M  V30 4298 H 398.133 1.43965 0.0315363 0
M  V30 4299 H 400.086 3.41517 2.46868 0
M  V30 4300 H 398.81 2.17287 2.43832 0
M  V30 4301 H 397.469 3.57121 0.828275 0
M  V30 4302 H 397.117 3.80174 3.29358 0
M  V30 4303 H 396.817 5.34132 2.44901 0
M  V30 4304 H 398.341 5.10442 3.35084 0
M  V30 4305 H 399.755 5.61883 1.13842 0
M  V30 4306 H 398.152 5.98506 0.437097 0
M  V30 4307 H 399.222 4.83384 -0.383147 0
M  V30 4308 N 400.565 -0.0233959 1.57583 0
M  V30 4309 C 401.495 -1.02162 2.09965 0
M  V30 4310 C 402.476 -1.3735 1.00344 0
M  V30 4311 O 403.661 -1.46135 1.27899 0
M  V30 4312 C 400.791 -2.32081 2.58371 0
M  V30 4313 C 399.745 -2.1112 3.72307 0
M  V30 4314 C 399.071 -3.46848 4.06941 0
M  V30 4315 C 400.371 -1.49276 5.00514 0
M  V30 4316 H 402.065 -0.585557 2.93618 0
M  V30 4317 H 399.611 -0.280218 1.41247 0
M  V30 4318 H 401.564 -3.02249 2.93639 0
M  V30 4319 H 400.288 -2.77758 1.71808 0
M  V30 4320 H 398.947 -1.43384 3.37397 0
M  V30 4321 H 398.595 -3.90184 3.17436 0
M  V30 4322 H 398.295 -3.33646 4.83688 0
M  V30 4323 H 399.819 -4.18369 4.44747 0
M  V30 4324 H 401.233 -2.09368 5.33702 0
M  V30 4325 H 399.63 -1.46632 5.8191 0
M  V30 4326 H 400.7 -0.459217 4.82721 0
M  V30 4327 N 402.043 -1.548 -0.295768 0
M  V30 4328 C 402.975 -1.82492 -1.3867 0
M  V30 4329 C 403.988 -0.708134 -1.46592 0
M  V30 4330 O 405.177 -0.985686 -1.48817 0
M  V30 4331 C 402.277 -1.95256 -2.76999 0
M  V30 4332 C 401.45 -3.25709 -2.91946 0
M  V30 4333 C 400.509 -3.28824 -4.10806 0
M  V30 4334 O 399.535 -4.02328 -4.02643 0
M  V30 4335 N 400.737 -2.5459 -5.21694 0
M  V30 4336 H 403.502 -2.76646 -1.15269 0
M  V30 4337 H 401.063 -1.54438 -0.485849 0
M  V30 4338 H 403.055 -1.94736 -3.54768 0
M  V30 4339 H 401.625 -1.08072 -2.93324 0
M  V30 4340 H 400.845 -3.38959 -2.01247 0
M  V30 4341 H 402.133 -4.11786 -2.98847 0
M  V30 4342 H 401.531 -1.94512 -5.31208 0
M  V30 4343 H 400.088 -2.59818 -5.97778 0
M  V30 4344 N 403.521 0.559213 -1.47345 0
M  V30 4345 C 404.769 1.31388 -1.53563 0
M  V30 4346 C 405.09 1.93985 -0.198678 0
M  V30 4347 O 404.36 1.79825 0.777167 0
M  V30 4348 H 402.94 0.487901 -0.565652 0
M  V30 4349 H 405.602 0.65315 -1.8363 0
M  V30 4350 H 404.698 2.10844 -2.30111 0
M  V30 4351 N 404.999 1.35443 0.805782 0
M  V30 4352 C 405.932 1.22783 1.92353 0
M  V30 4353 C 406.91 0.115543 1.62189 0
M  V30 4354 O 408.094 0.283778 1.86352 0
M  V30 4355 C 405.221 0.890746 3.26777 0
M  V30 4356 C 404.267 2.01519 3.75889 0
M  V30 4357 S 405.1 3.63101 3.93596 0
M  V30 4358 C 406.256 3.31472 5.30921 0
M  V30 4359 H 406.489 2.17394 2.02798 0
M  V30 4360 H 404.022 1.20669 0.963245 0
M  V30 4361 H 405.98 0.703068 4.04434 0
M  V30 4362 H 404.641 -0.0373152 3.14078 0
M  V30 4363 H 403.834 1.7335 4.7325 0
M  V30 4364 H 403.436 2.16124 3.05231 0
M  V30 4365 H 405.728 2.8435 6.1494 0
M  V30 4366 H 406.671 4.28036 5.64084 0
M  V30 4367 H 407.079 2.67221 4.97246 0
M  V30 4368 N 406.477 -1.02803 1.19454 0
M  V30 4369 C 407.707 -1.79581 1.02149 0
M  V30 4370 C 408.115 -1.84182 -0.432851 0
M  V30 4371 O 407.458 -1.28534 -1.31243 0
M  V30 4372 C 407.52 -3.25993 1.51554 0
M  V30 4373 C 407.184 -3.45025 2.99678 0
M  V30 4374 C 408.181 -3.35175 3.97434 0
M  V30 4375 C 405.866 -3.71212 3.38389 0
M  V30 4376 C 407.86 -3.51238 5.31893 0
M  V30 4377 C 405.547 -3.8692 4.73008 0
M  V30 4378 C 406.545 -3.76936 5.69569 0
M  V30 4379 O 406.233 -3.92179 7.01748 0
M  V30 4380 H 405.965 -0.571962 0.360327 0
M  V30 4381 H 408.519 -1.30367 1.58725 0
M  V30 4382 H 406.749 -3.76235 0.893543 0
M  V30 4383 H 408.438 -3.84368 1.30444 0
M  V30 4384 H 409.204 -3.14895 3.68872 0
M  V30 4385 H 405.083 -3.78075 2.6378 0
M  V30 4386 H 408.627 -3.43362 6.07247 0
M  V30 4387 H 404.524 -4.06699 5.01265 0
M  V30 4388 H 405.292 -4.09265 7.08833 0
M  V30 4389 N 407.956 -0.998596 -1.21925 0
M  V30 4390 C 408.903 -0.553621 -2.24062 0
M  V30 4391 C 409.873 0.416999 -1.6078 0
M  V30 4392 O 411.058 0.320482 -1.88089 0
M  V30 4393 C 408.198 0.119959 -3.44891 0
M  V30 4394 C 407.311 -0.893077 -4.22668 0
M  V30 4395 C 406.446 -0.192424 -5.30851 0
M  V30 4396 C 405.485 -1.19344 -6.00353 0
M  V30 4397 N 404.622 -0.520707 -7.00166 0
M  V30 4398 H 409.462 -1.4293 -2.61486 0
M  V30 4399 H 406.999 -0.715838 -1.28507 0
M  V30 4400 H 408.957 0.527459 -4.13852 0
M  V30 4401 H 407.587 0.959389 -3.08214 0
M  V30 4402 H 406.639 -1.41886 -3.52948 0
M  V30 4403 H 407.951 -1.65512 -4.70539 0
M  V30 4404 H 407.105 0.271515 -6.06092 0
M  V30 4405 H 405.844 0.602075 -4.83969 0
M  V30 4406 H 404.849 -1.66795 -5.23889 0
M  V30 4407 H 406.074 -1.98891 -6.49322 0
M  V30 4408 H 404.02 0.254252 -6.55507 0
M  V30 4409 H 403.937 -1.2211 -7.46073 0
M  V30 4410 H 405.205 -0.0797596 -7.79459 0
M  V30 4411 N 409.434 1.37368 -0.772513 0
M  V30 4412 C 410.344 2.34053 -0.160081 0
M  V30 4413 C 411.36 1.60216 0.678728 0
M  V30 4414 O 412.536 1.92303 0.59847 0
M  V30 4415 C 409.601 3.3939 0.708182 0
M  V30 4416 C 408.662 4.29048 -0.147172 0
M  V30 4417 C 407.895 5.29354 0.679744 0
M  V30 4418 O 408.118 5.3723 1.91678 0
M  V30 4419 O 407.052 6.01835 0.0885444 0
M  V30 4420 H 410.878 2.88159 -0.959053 0
M  V30 4421 H 408.463 1.39543 -0.533685 0
M  V30 4422 H 410.345 4.03839 1.20384 0
M  V30 4423 H 409.02 2.8761 1.48533 0
M  V30 4424 H 407.927 3.67697 -0.689205 0
M  V30 4425 H 409.26 4.84134 -0.887423 0
M  V30 4426 N 410.912 0.523116 1.48665 0
M  V30 4427 C 412.161 -0.01544 2.01694 0
M  V30 4428 C 412.474 -1.35975 1.40606 0
M  V30 4429 O 413.68 -1.98627 1.85093 0
M  V30 4430 C 412.136 -0.0779303 3.59816 0
M  V30 4431 C 411.744 1.26107 4.29885 0
M  V30 4432 C 413.488 -0.565678 4.20714 0
M  V30 4433 C 411.395 1.15954 5.79921 0
M  V30 4434 H 410.325 -0.00954163 0.75394 0
M  V30 4435 H 412.976 0.665865 1.70993 0
M  V30 4436 H 411.358 -0.824165 3.87329 0
M  V30 4437 H 412.532 2.02233 4.14051 0
M  V30 4438 H 410.847 1.68401 3.80828 0
M  V30 4439 H 413.444 -0.6595 5.30617 0
M  V30 4440 H 413.787 -1.56984 3.85567 0
M  V30 4441 H 414.32 0.12467 3.97605 0
M  V30 4442 H 411.059 2.13864 6.19631 0
M  V30 4443 H 410.579 0.439529 5.98187 0
M  V30 4444 H 412.258 0.847361 6.41427 0
M  V30 4445 N 412.39 -1.55475 0.257931 0
M  V30 4446 C 413.638 -1.98813 -0.363009 0
M  V30 4447 C 413.959 -1.14757 -1.57657 0
M  V30 4448 O 413.229 -0.232956 -1.9451 0
M  V30 4449 H 411.809 -0.734308 -0.137113 0
M  V30 4450 H 414.471 -1.9156 0.359281 0
M  V30 4451 H 413.567 -3.04941 -0.664634 0
M  V30 4452 N 413.868 0.0150385 -1.57593 0
M  V30 4453 C 415.117 0.702115 -1.89085 0
M  V30 4454 C 415.43 1.75764 -0.858277 0
M  V30 4455 O 416.636 2.49829 -1.0629 0
M  V30 4456 C 415.092 1.29992 -3.35604 0
M  V30 4457 C 414.7 0.280007 -4.47124 0
M  V30 4458 C 416.444 1.96606 -3.76227 0
M  V30 4459 C 414.351 0.886949 -5.84711 0
M  V30 4460 H 413.281 0.265997 -0.705522 0
M  V30 4461 H 415.932 -0.0430408 -1.8345 0
M  V30 4462 H 414.314 2.09525 -3.36029 0
M  V30 4463 H 415.488 -0.489631 -4.58191 0
M  V30 4464 H 413.803 -0.284835 -4.15425 0
M  V30 4465 H 416.4 2.42893 -4.76347 0
M  V30 4466 H 416.743 2.79024 -3.08952 0
M  V30 4467 H 417.276 1.23828 -3.78036 0
M  V30 4468 H 414.015 0.101876 -6.55421 0
M  V30 4469 H 413.535 1.6261 -5.77337 0
M  V30 4470 H 415.214 1.39011 -6.3189 0
M  V30 4471 N 415.346 1.54954 0.287554 0
M  V30 4472 C 416.309 1.86076 1.33823 0
M  V30 4473 C 417.309 0.734414 1.43049 0
M  V30 4474 O 418.499 1.00266 1.42452 0
M  V30 4475 C 415.631 2.05305 2.72144 0
M  V30 4476 H 416.824 2.79984 1.07465 0
M  V30 4477 H 414.377 1.47223 0.524902 0
M  V30 4478 H 415.112 1.1373 3.03704 0
M  V30 4479 H 414.897 2.873 2.66836 0
M  V30 4480 H 416.387 2.30706 3.48087 0
M  V30 4481 N 416.824 -0.551391 1.4764 0
M  V30 4482 C 418.07 -1.31024 1.54792 0
M  V30 4483 C 418.403 -1.9304 0.211967 0
M  V30 4484 O 417.678 -1.78175 -0.77999 0
M  V30 4485 C 417.961 -2.41593 2.67029 0
M  V30 4486 C 417.814 -1.84408 4.10261 0
M  V30 4487 C 419.133 -3.43488 2.75143 0
M  V30 4488 H 416.252 -0.475031 0.563485 0
M  V30 4489 H 418.894 -0.616454 1.79722 0
M  V30 4490 H 417.044 -3.00772 2.45904 0
M  V30 4491 H 418.716 -1.29445 4.42766 0
M  V30 4492 H 416.959 -1.15051 4.18265 0
M  V30 4493 H 417.63 -2.64367 4.84576 0
M  V30 4494 H 420.106 -2.94236 2.94218 0
M  V30 4495 H 418.982 -4.18274 3.55441 0
M  V30 4496 H 419.243 -4.02703 1.82435 0
M  V30 4497 N 418.302 -1.35869 -0.798587 0
M  V30 4498 C 419.579 -1.20145 -1.54352 0
M  V30 4499 C 419.959 0.216161 -2.0999 0
M  V30 4500 O 419.307 1.22068 -1.93162 0
M  V30 4501 C 419.517 -2.27602 -2.64572 0
M  V30 4502 C 420.865 -2.63811 -3.32699 0
M  V30 4503 O 421.889 -2.26576 -2.74849 0
M  V30 4504 O 420.748 -3.27866 -4.37226 0
M  V30 4505 H 417.842 -0.467248 -0.682355 0
M  V30 4506 H 420.388 -1.47574 -0.837859 0
M  V30 4507 H 419.16 -3.2265 -2.21388 0
M  V30 4508 H 418.783 -2.01488 -3.42766 0
M  V30 4509 N 419.78 1.02168 -1.19998 0
M  V30 4510 C 421.026 1.75945 -1.00852 0
M  V30 4511 C 421.359 1.88702 0.458828 0
M  V30 4512 O 420.634 1.40911 1.34069 0
M  V30 4513 C 420.917 3.18154 -1.68671 0
M  V30 4514 C 420.77 3.13224 -3.22817 0
M  V30 4515 C 422.089 4.16711 -1.41561 0
M  V30 4516 H 419.208 0.638673 -0.367785 0
M  V30 4517 H 421.85 1.19222 -1.4794 0
M  V30 4518 H 420 3.66586 -1.28636 0
M  V30 4519 H 421.672 2.72635 -3.72112 0
M  V30 4520 H 419.915 2.50751 -3.53986 0
M  V30 4521 H 420.586 4.13728 -3.65422 0
M  V30 4522 H 423.062 3.76913 -1.76284 0
M  V30 4523 H 421.938 5.14391 -1.91553 0
M  V30 4524 H 422.199 4.40774 -0.342193 0
M  V30 4525 N 421.258 1.00505 1.21394 0
M  V30 4526 C 422.486 0.706609 1.9446 0
M  V30 4527 C 422.901 -0.73081 1.74082 0
M  V30 4528 O 422.258 -1.49446 1.04747 0
M  V30 4529 C 422.309 1.01824 3.46863 0
M  V30 4530 O 422.03 2.39919 3.66566 0
M  V30 4531 C 423.531 0.739216 4.37093 0
M  V30 4532 H 420.751 0.260394 0.618414 0
M  V30 4533 H 423.295 1.34311 1.54211 0
M  V30 4534 H 421.45 0.427343 3.85036 0
M  V30 4535 H 421.864 2.50784 4.6066 0
M  V30 4536 H 423.338 1.00744 5.42729 0
M  V30 4537 H 423.815 -0.326746 4.37983 0
M  V30 4538 H 424.421 1.31173 4.04566 0
M  V30 4539 N 422.737 -1.36956 0.779787 0
M  V30 4540 C 423.962 -2.04283 0.358224 0
M  V30 4541 C 424.387 -1.58422 -1.01411 0
M  V30 4542 O 423.745 -0.748179 -1.65142 0
M  V30 4543 C 423.793 -3.58152 0.419479 0
M  V30 4544 O 422.897 -4.08342 -0.577142 0
M  V30 4545 H 422.238 -0.645967 0.153698 0
M  V30 4546 H 424.768 -1.75108 1.05822 0
M  V30 4547 H 424.778 -4.07041 0.279636 0
M  V30 4548 H 423.453 -3.90886 1.42061 0
M  V30 4549 H 422.03 -3.70751 -0.399755 0
M  V30 4550 N 424.215 -0.530993 -1.48385 0
M  V30 4551 C 425.178 0.220497 -2.28137 0
M  V30 4552 C 426.178 0.866851 -1.35434 0
M  V30 4553 O 427.368 0.726746 -1.58316 0
M  V30 4554 C 424.5 1.31921 -3.1434 0
M  V30 4555 H 425.693 -0.479714 -2.96038 0
M  V30 4556 H 423.246 -0.286968 -1.53643 0
M  V30 4557 H 423.981 2.05264 -2.51072 0
M  V30 4558 H 423.766 0.86085 -3.82533 0
M  V30 4559 H 425.256 1.84776 -3.74497 0
M  V30 4560 N 425.693 1.55336 -0.266172 0
M  V30 4561 C 426.623 2.25146 0.618981 0
M  V30 4562 C 427.604 1.23845 1.16604 0
M  V30 4563 O 428.789 1.52544 1.20183 0
M  V30 4564 C 425.919 2.96572 1.80728 0
M  V30 4565 C 424.873 4.04726 1.39215 0
M  V30 4566 C 424.199 4.63678 2.66283 0
M  V30 4567 C 425.499 5.19407 0.548942 0
M  V30 4568 H 427.193 2.99377 0.0368116 0
M  V30 4569 H 424.739 1.43991 0.0162651 0
M  V30 4570 H 426.692 3.44116 2.43232 0
M  V30 4571 H 425.416 2.19861 2.41514 0
M  V30 4572 H 424.075 3.57979 0.790351 0
M  V30 4573 H 423.723 3.83646 3.25308 0
M  V30 4574 H 423.423 5.367 2.39222 0
M  V30 4575 H 424.947 5.13967 3.29651 0
M  V30 4576 H 426.361 5.63059 1.07876 0
M  V30 4577 H 424.758 5.98936 0.373593 0
M  V30 4578 H 425.828 4.8295 -0.434394 0
M  V30 4579 N 427.171 -0.0066808 1.57599 0
M  V30 4580 C 428.134 -0.985035 2.06953 0
M  V30 4581 C 429.134 -1.27663 0.977687 0
M  V30 4582 O 430.324 -1.22293 1.24057 0
M  V30 4583 C 427.456 -2.3118 2.50536 0
M  V30 4584 H 428.649 -0.558255 2.94658 0
M  V30 4585 H 426.202 -0.254011 1.54222 0
M  V30 4586 H 426.937 -2.78561 1.66054 0
M  V30 4587 H 426.722 -2.11338 3.3027 0
M  V30 4588 H 428.212 -3.01377 2.8907 0
M  V30 4589 N 428.649 -1.55105 -0.279332 0
M  V30 4590 C 429.896 -1.75412 -1.01177 0
M  V30 4591 C 430.224 -0.551728 -1.86511 0
M  V30 4592 O 429.479 0.465919 -1.90073 0
M  V30 4593 C 429.778 -3.0086 -1.92919 0
M  V30 4594 C 429.444 -4.33689 -1.23387 0
M  V30 4595 C 428.106 -4.69792 -1.04159 0
M  V30 4596 C 430.458 -5.15941 -0.738562 0
M  V30 4597 C 427.786 -5.85707 -0.341166 0
M  V30 4598 C 430.138 -6.32579 -0.0517636 0
M  V30 4599 C 428.802 -6.67326 0.152292 0
M  V30 4600 H 428.072 -0.641879 -0.370233 0
M  V30 4601 H 430.719 -1.89373 -0.284627 0
M  V30 4602 H 429.024 -2.81773 -2.72234 0
M  V30 4603 H 430.721 -3.13768 -2.49701 0
M  V30 4604 H 427.311 -4.05309 -1.39364 0
M  V30 4605 H 431.495 -4.8853 -0.874764 0
M  V30 4606 H 426.751 -6.11157 -0.172287 0
M  V30 4607 H 430.925 -6.9557 0.339828 0
M  V30 4608 H 428.552 -7.56998 0.697014 0
M  V30 4609 N 430.127 0.543554 -1.4793 0
M  V30 4610 C 431.374 1.30008 -1.55255 0
M  V30 4611 C 431.702 1.93245 -0.220612 0
M  V30 4612 O 430.957 1.79141 0.787843 0
M  V30 4613 C 431.256 2.42078 -2.62932 0
M  V30 4614 C 430.922 1.96583 -4.0579 0
M  V30 4615 C 429.584 1.83893 -4.44676 0
M  V30 4616 C 431.936 1.62034 -4.95373 0
M  V30 4617 C 429.264 1.34969 -5.70964 0
M  V30 4618 C 431.616 1.14577 -6.22137 0
M  V30 4619 C 430.28 1.00493 -6.59892 0
M  V30 4620 H 429.55 0.475735 -0.568117 0
M  V30 4621 H 432.197 0.608075 -1.81589 0
M  V30 4622 H 430.502 3.16892 -2.30406 0
M  V30 4623 H 432.199 3.00236 -2.65818 0
M  V30 4624 H 428.789 2.07407 -3.75074 0
M  V30 4625 H 432.973 1.70705 -4.66019 0
M  V30 4626 H 428.229 1.2274 -5.98953 0
M  V30 4627 H 432.403 0.869109 -6.90955 0
M  V30 4628 H 430.03 0.623624 -7.57638 0
M  V30 4629 N 431.605 1.3629 0.791371 0
M  V30 4630 C 432.553 1.30514 1.92533 0
M  V30 4631 C 433.547 0.197285 1.68247 0
M  V30 4632 O 434.753 0.364176 1.76278 0
M  V30 4633 H 431.128 0.406263 0.632815 0
M  V30 4634 H 433.099 2.26282 1.94523 0
M  V30 4635 C 431.848 1.10933 3.29529 0
M  V30 4636 H 431.171 1.95427 3.48781 0
M  V30 4637 H 432.611 1.10937 4.0923 0
M  V30 4638 C 431.07 -0.186123 3.36385 0
M  V30 4639 O 431.6 -1.17664 3.84081 0
M  V30 4640 N 429.806 -0.230128 2.89687 0
M  V30 4641 H 429.353 0.576545 2.51065 0
M  V30 4642 H 429.311 -1.09658 2.94657 0
M  V30 4643 N 433.083 -1.0153 1.20538 0
M  V30 4644 C 434.308 -1.79283 1.04271 0
M  V30 4645 C 434.733 -1.8372 -0.403544 0
M  V30 4646 O 434.091 -1.27321 -1.2907 0
M  V30 4647 C 434.139 -3.21535 1.63241 0
M  V30 4648 O 433.243 -4.03099 0.870908 0
M  V30 4649 H 432.584 -0.55293 0.367647 0
M  V30 4650 H 435.114 -1.27696 1.59859 0
M  V30 4651 H 435.124 -3.72243 1.6703 0
M  V30 4652 H 433.799 -3.1762 2.68497 0
M  V30 4653 H 432.376 -3.61693 0.907323 0
M  V30 4654 N 434.561 -1.01147 -1.20859 0
M  V30 4655 C 435.801 -0.706331 -1.91808 0
M  V30 4656 C 436.165 0.749736 -1.76757 0
M  V30 4657 O 437.366 1.16716 -2.42138 0
M  V30 4658 C 435.637 -1.12371 -3.39275 0
M  V30 4659 S 437.196 -0.939764 -4.28619 0
M  V30 4660 H 434.014 -0.257665 -0.662669 0
M  V30 4661 H 436.616 -1.29766 -1.46223 0
M  V30 4662 H 435.32 -2.17943 -3.47749 0
M  V30 4663 H 434.851 -0.524952 -3.89882 0
M  V30 4664 H 436.866 0.159556 -4.95943 0
M  V30 4665 N 436.039 1.36541 -0.78704 0
M  V30 4666 C 436.969 2.32659 -0.197992 0
M  V30 4667 C 437.95 1.56533 0.665697 0
M  V30 4668 O 439.135 1.84698 0.60001 0
M  V30 4669 C 436.265 3.40778 0.669901 0
M  V30 4670 C 435.219 4.27897 -0.0937039 0
M  V30 4671 C 434.545 5.27163 0.894629 0
M  V30 4672 C 435.845 5.06334 -1.28154 0
M  V30 4673 H 437.539 2.82171 -1.00099 0
M  V30 4674 H 435.085 1.35665 -0.482793 0
M  V30 4675 H 437.038 4.07008 1.09191 0
M  V30 4676 H 435.762 2.89827 1.50558 0
M  V30 4677 H 434.421 3.6322 -0.49666 0
M  V30 4678 H 434.069 4.72486 1.72527 0
M  V30 4679 H 433.769 5.86317 0.388149 0
M  V30 4680 H 435.293 5.96266 1.31525 0
M  V30 4681 H 436.707 5.65617 -0.93541 0
M  V30 4682 H 435.104 5.74888 -1.72115 0
M  V30 4683 H 436.174 4.38114 -2.07807 0
M  V30 4684 N 437.518 0.538854 1.48102 0
M  V30 4685 C 438.466 -0.232325 2.31437 0
M  V30 4686 C 439.46 -0.927004 1.41785 0
M  V30 4687 O 440.666 -0.850378 1.58646 0
M  V30 4688 H 437.041 -0.0937916 0.746128 0
M  V30 4689 H 439.012 0.489986 2.9435 0
M  V30 4690 C 437.761 -1.26074 3.24038 0
M  V30 4691 H 437.084 -0.735609 3.92974 0
M  V30 4692 H 438.524 -1.77157 3.85216 0
M  V30 4693 C 436.983 -2.29902 2.46265 0
M  V30 4694 O 437.513 -3.36502 2.19384 0
M  V30 4695 N 435.719 -2.03348 2.07601 0
M  V30 4696 H 435.266 -1.16675 2.29662 0
M  V30 4697 H 435.224 -2.73038 1.55877 0
M  V30 4698 N 438.996 -1.55193 0.274407 0
M  V30 4699 C 440.407 -1.85358 -0.223488 0
M  V30 4700 C 440.758 -1.19642 -1.555 0
M  V30 4701 O 439.883 -0.484498 -2.10907 0
M  V30 4702 C 440.478 -3.36282 -0.412285 0
M  V30 4703 C 439.037 -3.66574 -0.854413 0
M  V30 4704 C 438.184 -2.7725 0.0527056 0
M  V30 4705 H 441.135 -1.50743 0.496215 0
M  V30 4706 H 441.156 -3.59349 -1.25094 0
M  V30 4707 H 440.668 -3.84083 0.556965 0
M  V30 4708 H 438.769 -3.24273 -1.83516 0
M  V30 4709 H 438.882 -4.74073 -0.692226 0
M  V30 4710 H 437.246 -2.50447 -0.463484 0
M  V30 4711 H 438.029 -3.27865 1.01783 0
M  V30 4712 N 440.474 -0.00167713 -1.576 0
M  V30 4713 C 441.407 1.02317 -2.03977 0
M  V30 4714 C 442.385 1.33381 -0.929963 0
M  V30 4715 O 443.569 1.45517 -1.19822 0
M  V30 4716 C 440.696 2.35035 -2.43878 0
M  V30 4717 C 439.742 2.19621 -3.65607 0
M  V30 4718 S 440.575 1.52068 -5.13455 0
M  V30 4719 C 441.731 2.86212 -5.56627 0
M  V30 4720 H 441.964 0.628285 -2.90585 0
M  V30 4721 H 439.497 0.209239 -1.52976 0
M  V30 4722 H 441.455 3.11345 -2.67534 0
M  V30 4723 H 440.116 2.71663 -1.57665 0
M  V30 4724 H 439.309 3.1767 -3.91282 0
M  V30 4725 H 438.911 1.51455 -3.41961 0
M  V30 4726 H 441.203 3.82509 -5.59189 0
M  V30 4727 H 442.146 2.65235 -6.56549 0
M  V30 4728 H 442.554 2.90199 -4.84195 0
M  V30 4729 N 441.952 1.55251 0.271103 0
M  V30 4730 C 442.882 1.9127 1.33933 0
M  V30 4731 C 443.863 0.77478 1.5143 0
M  V30 4732 O 445.048 1.03307 1.64442 0
M  V30 4733 C 442.178 2.18627 2.69851 0
M  V30 4734 C 441.132 3.34442 2.67081 0
M  V30 4735 C 440.458 3.47284 4.06569 0
M  V30 4736 C 441.758 4.70784 2.26185 0
M  V30 4737 H 443.452 2.80744 1.04035 0
M  V30 4738 H 440.998 1.35077 0.499017 0
M  V30 4739 H 442.951 2.42413 3.44694 0
M  V30 4740 H 441.675 1.25955 3.01335 0
M  V30 4741 H 440.334 3.10627 1.94695 0
M  V30 4742 H 439.982 2.52074 4.35279 0
M  V30 4743 H 439.682 4.25152 4.0561 0
M  V30 4744 H 441.206 3.73363 4.83148 0
M  V30 4745 H 442.62 4.94102 2.90751 0
M  V30 4746 H 441.017 5.51582 2.36384 0
M  V30 4747 H 442.087 4.69478 1.21319 0
M  V30 4748 N 443.43 -0.535701 1.48216 0
M  V30 4749 C 444.66 -1.3148 1.59363 0
M  V30 4750 C 445.068 -1.8753 0.250844 0
M  V30 4751 O 444.411 -1.66821 -0.769174 0
M  V30 4752 C 444.473 -2.50731 2.57632 0
M  V30 4753 C 444.137 -2.15811 4.02833 0
M  V30 4754 C 445.134 -1.71822 4.90686 0
M  V30 4755 C 442.819 -2.26509 4.48329 0
M  V30 4756 C 444.813 -1.3899 6.22062 0
M  V30 4757 C 442.5 -1.93289 5.79726 0
M  V30 4758 C 443.498 -1.49599 6.66415 0
M  V30 4759 O 443.186 -1.16812 7.95368 0
M  V30 4760 H 442.918 -0.406315 0.540263 0
M  V30 4761 H 445.472 -0.653569 1.94725 0
M  V30 4762 H 443.702 -3.19817 2.1738 0
M  V30 4763 H 445.391 -3.12797 2.58675 0
M  V30 4764 H 446.157 -1.63031 4.56778 0
M  V30 4765 H 442.036 -2.59471 3.81045 0
M  V30 4766 H 445.58 -1.04816 6.89681 0
M  V30 4767 H 441.477 -2.01718 6.13172 0
M  V30 4768 H 442.245 -1.30259 8.08069 0
M  V30 4769 N 444.908 -1.36708 -0.784132 0
M  V30 4770 C 446.154 -1.31426 -1.54451 0
M  V30 4771 C 446.487 0.10476 -1.93917 0
M  V30 4772 O 445.762 1.05934 -1.6312 0
M  V30 4773 C 446.045 -2.24189 -2.818 0
M  V30 4774 C 445.898 -3.74813 -2.48667 0
M  V30 4775 C 447.217 -2.15626 -3.83658 0
M  V30 4776 H 444.336 -0.478739 -0.560337 0
M  V30 4777 H 446.978 -1.67305 -0.900498 0
M  V30 4778 H 445.128 -1.93722 -3.36755 0
M  V30 4779 H 446.8 -4.15823 -1.99722 0
M  V30 4780 H 445.043 -3.93989 -1.81535 0
M  V30 4781 H 445.714 -4.35138 -3.39646 0
M  V30 4782 H 448.19 -2.42456 -3.38163 0
M  V30 4783 H 447.066 -2.82694 -4.70506 0
M  V30 4784 H 447.327 -1.14522 -4.27009 0
M  V30 4785 N 446.386 1.0089 -1.21074 0
M  V30 4786 C 447.633 1.74607 -1.0256 0
M  V30 4787 C 447.961 1.89426 0.44136 0
M  V30 4788 O 447.216 1.42266 1.34384 0
M  V30 4789 C 447.515 3.16335 -1.66334 0
M  V30 4790 C 447.181 3.21474 -3.16173 0
M  V30 4791 C 445.843 3.22583 -3.57062 0
M  V30 4792 C 448.195 3.19025 -4.12156 0
M  V30 4793 C 445.523 3.18925 -4.92446 0
M  V30 4794 C 447.875 3.16909 -5.47496 0
M  V30 4795 C 446.539 3.16326 -5.87787 0
M  V30 4796 H 445.809 0.638933 -0.375294 0
M  V30 4797 H 448.456 1.18274 -1.50611 0
M  V30 4798 H 446.761 3.75876 -1.10566 0
M  V30 4799 H 448.458 3.72083 -1.49516 0
M  V30 4800 H 445.048 3.2135 -2.83605 0
M  V30 4801 H 449.232 3.17332 -3.81595 0
M  V30 4802 H 444.488 3.16809 -5.22917 0
M  V30 4803 H 448.662 3.13968 -6.21609 0
M  V30 4804 H 446.289 3.13246 -6.92662 0
M  V30 4805 N 447.864 1.01787 1.20321 0
M  V30 4806 C 448.797 0.533882 2.21867 0
M  V30 4807 C 449.775 -0.419361 1.57099 0
M  V30 4808 O 450.959 -0.339062 1.85426 0
M  V30 4809 C 448.086 -0.222899 3.37966 0
M  V30 4810 C 447.132 0.680091 4.21043 0
M  V30 4811 S 447.965 2.14997 4.90445 0
M  V30 4812 C 449.121 1.40339 6.09964 0
M  V30 4813 H 449.354 1.39429 2.62577 0
M  V30 4814 H 446.887 0.826867 1.30393 0
M  V30 4815 H 448.845 -0.653425 4.05266 0
M  V30 4816 H 447.506 -1.0589 2.95713 0
M  V30 4817 H 446.699 0.0964704 5.03908 0
M  V30 4818 H 446.301 1.04845 3.59004 0
M  V30 4819 H 448.593 0.68407 6.74038 0
M  V30 4820 H 449.536 2.20823 6.72787 0
M  V30 4821 H 449.944 0.905716 5.57187 0
M  V30 4822 N 449.342 -1.36122 0.79427 0
M  V30 4823 C 450.59 -1.98718 0.368177 0
M  V30 4824 C 450.911 -1.63345 -1.06506 0
M  V30 4825 O 450.181 -0.909825 -1.73491 0
M  V30 4826 H 448.761 -0.735038 0.133146 0
M  V30 4827 H 451.423 -1.66239 1.01739 0
M  V30 4828 H 450.519 -3.08633 0.463923 0
M  V30 4829 N 450.82 -0.546701 -1.47814 0
M  V30 4830 C 451.752 0.244196 -2.27895 0
M  V30 4831 C 452.765 0.88911 -1.36377 0
M  V30 4832 O 453.954 0.764733 -1.61289 0
M  V30 4833 C 451.054 1.36252 -3.10304 0
M  V30 4834 C 450.227 0.816382 -4.29714 0
M  V30 4835 C 449.286 1.81789 -4.93801 0
M  V30 4836 O 448.312 1.36818 -5.52512 0
M  V30 4837 N 449.514 3.15085 -4.87547 0
M  V30 4838 H 452.279 -0.442694 -2.96412 0
M  V30 4839 H 449.84 -0.382095 -1.57327 0
M  V30 4840 H 451.832 2.03102 -3.50045 0
M  V30 4841 H 450.402 1.95281 -2.44099 0
M  V30 4842 H 449.622 -0.0285981 -3.9419 0
M  V30 4843 H 450.91 0.430668 -5.06974 0
M  V30 4844 H 450.308 3.54275 -4.41028 0
M  V30 4845 H 448.865 3.77522 -5.31339 0
M  V30 4846 N 452.299 1.55045 -0.282633 0
M  V30 4847 C 453.576 1.9179 0.384166 0
M  V30 4848 C 453.956 1.20778 1.73136 0
M  V30 4849 O 453.304 0.33719 2.25998 0
M  V30 4850 C 453.514 3.45149 0.517014 0
M  V30 4851 C 454.862 4.17064 0.796427 0
M  V30 4852 O 455.886 3.51084 0.601535 0
M  V30 4853 O 454.745 5.33837 1.16962 0
M  V30 4854 H 451.839 0.799483 0.211558 0
M  V30 4855 H 454.385 1.66474 -0.32934 0
M  V30 4856 H 453.157 3.88922 -0.430772 0
M  V30 4857 H 452.78 3.76443 1.2797 0
M  V30 4858 N 453.777 0.010035 1.57597 0
M  V30 4859 C 455.024 -0.6727 1.91 0
M  V30 4860 C 455.352 -1.73219 0.884614 0
M  V30 4861 O 454.607 -1.95395 -0.109215 0
M  V30 4862 C 454.906 -1.34434 3.31153 0
M  V30 4863 C 454.572 -0.417083 4.48967 0
M  V30 4864 C 453.234 -0.161809 4.80928 0
M  V30 4865 C 455.586 0.220753 5.20732 0
M  V30 4866 C 452.914 0.739426 5.82022 0
M  V30 4867 C 455.266 1.10993 6.22787 0
M  V30 4868 C 453.93 1.37428 6.532 0
M  V30 4869 H 453.2 -0.246158 0.698918 0
M  V30 4870 H 455.847 0.0677145 1.9138 0
M  V30 4871 H 454.152 -2.15905 3.26944 0
M  V30 4872 H 455.849 -1.87883 3.54261 0
M  V30 4873 H 452.439 -0.626217 4.24001 0
M  V30 4874 H 456.623 0.0365643 4.96287 0
M  V30 4875 H 451.879 0.952139 6.03941 0
M  V30 4876 H 456.053 1.61046 6.77523 0
M  V30 4877 H 453.68 2.0743 7.31353 0
M  V30 4878 N 455.255 -1.55392 -0.262866 0
M  V30 4879 C 456.671 -1.47459 -0.610582 0
M  V30 4880 C 456.871 -0.697031 -1.8906 0
M  V30 4881 O 455.927 -0.219952 -2.5154 0
M  V30 4882 C 457.24 -2.91751 -0.728131 0
M  V30 4883 C 458.788 -3.02027 -0.821517 0
M  V30 4884 C 459.263 -4.47594 -0.97076 0
M  V30 4885 N 460.754 -4.51465 -1.03603 0
M  V30 4886 C 461.489 -5.61326 -1.17049 0
M  V30 4887 N 460.985 -6.81032 -1.2715 0
M  V30 4888 N 462.778 -5.49089 -1.20239 0
M  V30 4889 H 454.929 -2.04395 0.577632 0
M  V30 4890 H 457.192 -0.927287 0.197086 0
M  V30 4891 H 456.898 -3.51413 0.142132 0
M  V30 4892 H 456.772 -3.4134 -1.6052 0
M  V30 4893 H 459.159 -2.42456 -1.68224 0
M  V30 4894 H 459.24 -2.55674 0.0803688 0
M  V30 4895 H 458.884 -5.07771 -0.114655 0
M  V30 4896 H 458.814 -4.91613 -1.88745 0
M  V30 4897 H 461.305 -3.6524 -0.96996 0
M  V30 4898 H 461.618 -7.60511 -1.37271 0
M  V30 4899 H 459.963 -6.83824 -1.24136 0
M  V30 4900 H 463.154 -4.54507 -1.11985 0
M  V30 4901 H 463.327 -6.34749 -1.30373 0
M  V30 4902 N 456.733 0.527833 -1.48498 0
M  V30 4903 C 457.643 1.65907 -1.65867 0
M  V30 4904 C 458.659 1.6537 -0.541192 0
M  V30 4905 O 459.835 1.84282 -0.812534 0
M  V30 4906 C 456.9 3.02364 -1.69637 0
M  V30 4907 C 455.961 3.1374 -2.93028 0
M  V30 4908 C 455.194 4.43688 -2.96609 0
M  V30 4909 O 455.417 5.30913 -2.08538 0
M  V30 4910 O 454.351 4.59475 -3.88802 0
M  V30 4911 H 458.177 1.5419 -2.61647 0
M  V30 4912 H 455.762 0.701163 -1.31924 0
M  V30 4913 H 457.644 3.83515 -1.74625 0
M  V30 4914 H 456.319 3.14401 -0.770312 0
M  V30 4915 H 455.226 2.31877 -2.93571 0
M  V30 4916 H 456.559 3.06621 -3.85026 0
M  V30 4917 N 458.211 1.37122 0.776871 0
M  V30 4918 C 459.627 1.1781 1.07671 0
M  V30 4919 C 459.827 0.0107454 2.01497 0
M  V30 4920 O 458.883 -0.650756 2.4397 0
M  V30 4921 C 460.196 2.49451 1.67913 0
M  V30 4922 C 461.744 2.55927 1.80195 0
M  V30 4923 C 462.219 3.87686 2.43851 0
M  V30 4924 N 463.71 3.891 2.51307 0
M  V30 4925 C 464.445 4.87797 3.014 0
M  V30 4926 N 463.941 5.96888 3.51705 0
M  V30 4927 N 465.734 4.75205 3.00227 0
M  V30 4928 H 457.885 2.11843 0.153778 0
M  V30 4929 H 460.148 0.938927 0.130844 0
M  V30 4930 H 459.854 3.35207 1.06439 0
M  V30 4931 H 459.728 2.66169 2.67271 0
M  V30 4932 H 462.115 1.70582 2.40803 0
M  V30 4933 H 462.196 2.43097 0.796069 0
M  V30 4934 H 461.84 4.73444 1.83884 0
M  V30 4935 H 461.77 3.97817 3.45035 0
M  V30 4936 H 464.261 3.10293 2.157 0
M  V30 4937 H 464.574 6.68155 3.88316 0
M  V30 4938 H 462.919 6.0054 3.49824 0
M  V30 4939 H 466.11 3.89103 2.60224 0
M  V30 4940 H 466.283 5.52279 3.38957 0
M  V30 4941 N 459.689 -1.00246 1.21608 0
M  V30 4942 C 460.619 -2.10921 1.00172 0
M  V30 4943 C 461.6 -1.69938 -0.0741587 0
M  V30 4944 O 462.785 -1.94009 0.0861753 0
M  V30 4945 C 459.915 -3.42618 0.568355 0
M  V30 4946 C 458.869 -3.97407 1.58909 0
M  V30 4947 C 458.195 -5.25038 1.01187 0
M  V30 4948 C 459.495 -4.2918 2.97661 0
M  V30 4949 H 461.189 -2.29112 1.92739 0
M  V30 4950 H 458.735 -1.10101 0.928102 0
M  V30 4951 H 460.688 -4.19444 0.405555 0
M  V30 4952 H 459.412 -3.24227 -0.392961 0
M  V30 4953 H 458.071 -3.22703 1.73949 0
M  V30 4954 H 457.719 -5.02982 0.0421965 0
M  V30 4955 H 457.419 -5.62661 1.6937 0
M  V30 4956 H 458.943 -6.04507 0.860448 0
M  V30 4957 H 460.357 -4.96839 2.86049 0
M  V30 4958 H 458.754 -4.77952 3.6288 0
M  V30 4959 H 459.824 -3.3735 3.48315 0
M  V30 4960 N 461.167 -1.02423 -1.1978 0
M  V30 4961 C 462.416 -0.713265 -1.88667 0
M  V30 4962 C 462.729 0.7609 -1.80193 0
M  V30 4963 O 463.935 1.18473 -2.44288 0
M  V30 4964 C 462.391 -1.22545 -3.38394 0
M  V30 4965 C 461.999 -2.72706 -3.55437 0
M  V30 4966 C 463.743 -0.990257 -4.12788 0
M  V30 4967 C 461.65 -3.17367 -4.99031 0
M  V30 4968 H 460.58 -0.263105 -0.706606 0
M  V30 4969 H 463.231 -1.23792 -1.35454 0
M  V30 4970 H 461.613 -0.628732 -3.90977 0
M  V30 4971 H 462.787 -3.37993 -3.13205 0
M  V30 4972 H 461.102 -2.94453 -2.94425 0
M  V30 4973 H 463.699 -1.29926 -5.18675 0
M  V30 4974 H 464.042 0.0730761 -4.16236 0
M  V30 4975 H 464.575 -1.55074 -3.66329 0
M  V30 4976 H 461.314 -4.23009 -5.00743 0
M  V30 4977 H 460.834 -2.56805 -5.42044 0
M  V30 4978 H 462.513 -3.10441 -5.67658 0
M  V30 4979 N 462.645 1.35699 -0.801477 0
M  V30 4980 C 463.595 2.2728 -0.181073 0
M  V30 4981 C 464.579 1.47533 0.642098 0
M  V30 4982 O 465.771 1.69785 0.500193 0
M  V30 4983 C 462.9 3.36626 0.673612 0
M  V30 4984 C 461.986 4.23802 -0.159008 0
M  V30 4985 N 462.377 4.90879 -1.2195 0
M  V30 4986 C 460.675 4.45959 0.0602005 0
M  V30 4987 C 461.376 5.5546 -1.72738 0
M  V30 4988 N 460.352 5.33663 -1.03465 0
M  V30 4989 H 464.154 2.76632 -0.992582 0
M  V30 4990 H 461.668 1.49166 -0.642127 0
M  V30 4991 H 463.665 4.01179 1.13408 0
M  V30 4992 H 462.325 2.88828 1.48353 0
M  V30 4993 H 463.336 4.92497 -1.60209 0
M  V30 4994 H 460.013 4.08969 0.839664 0
M  V30 4995 H 461.403 6.18991 -2.61342 0
M  V30 4996 N 464.123 0.554532 1.47522 0
M  V30 4997 C 465.086 -0.184174 2.28459 0
M  V30 4998 C 466.086 -0.845195 1.36796 0
M  V30 4999 O 467.276 -0.701467 1.59452 0
M  V30 5000 C 464.408 -1.26903 3.16399 0
M  V30 5001 H 465.601 0.526751 2.95238 0
M  V30 5002 H 463.154 0.311375 1.53167 0
M  V30 5003 H 463.889 -2.01244 2.54306 0
M  V30 5004 H 463.674 -0.799883 3.83854 0
M  V30 5005 H 465.164 -1.78794 3.77389 0
M  V30 5006 N 465.601 -1.54893 0.290851 0
M  V30 5007 C 466.531 -2.26103 -0.583084 0
M  V30 5008 C 467.512 -1.25684 -1.14619 0
M  V30 5009 O 468.697 -1.54436 -1.17741 0
M  V30 5010 C 465.827 -2.99409 -1.75987 0
M  V30 5011 C 464.781 -4.0689 -1.32758 0
M  V30 5012 C 464.107 -4.67856 -2.58872 0
M  V30 5013 C 465.407 -5.20215 -0.46624 0
M  V30 5014 H 467.101 -2.99398 0.0108214 0
M  V30 5015 H 464.647 -1.43998 0.00664468 0
M  V30 5016 H 466.6 -3.47943 -2.37727 0
M  V30 5017 H 465.324 -2.23675 -2.37985 0
M  V30 5018 H 463.983 -3.59191 -0.733299 0
M  V30 5019 H 463.631 -3.88772 -3.19163 0
M  V30 5020 H 463.331 -5.40438 -2.30653 0
M  V30 5021 H 464.855 -5.19147 -3.21433 0
M  V30 5022 H 466.269 -5.64704 -0.989047 0
M  V30 5023 H 464.666 -5.99455 -0.27826 0
M  V30 5024 H 465.736 -4.82198 0.511173 0
M  V30 5025 N 467.08 -0.0183926 -1.57589 0
M  V30 5026 C 468.491 0.521927 -1.79256 0
M  V30 5027 C 468.842 1.72885 -0.927636 0
M  V30 5028 O 467.967 2.15978 -0.135091 0
M  V30 5029 C 468.562 0.953632 -3.25102 0
M  V30 5030 C 467.121 1.43913 -3.47801 0
M  V30 5031 C 466.268 0.398837 -2.74417 0
M  V30 5032 H 469.219 -0.244485 -1.56805 0
M  V30 5033 H 469.24 1.81863 -3.34224 0
M  V30 5034 H 468.752 0.0750123 -3.88028 0
M  V30 5035 H 466.853 2.33804 -2.90115 0
M  V30 5036 H 466.966 1.45391 -4.56507 0
M  V30 5037 H 465.33 0.864572 -2.39577 0
M  V30 5038 H 466.113 -0.471132 -3.40052 0
M  V30 5039 N 468.558 1.5553 0.254621 0
M  V30 5040 C 469.521 1.88872 1.29846 0
M  V30 5041 C 470.521 0.764591 1.41459 0
M  V30 5042 O 471.711 1.03265 1.40293 0
M  V30 5043 C 468.843 2.11032 2.67728 0
M  V30 5044 H 470.036 2.82201 1.01502 0
M  V30 5045 H 467.589 1.48303 0.493556 0
M  V30 5046 H 468.324 1.20146 3.01223 0
M  V30 5047 H 468.109 2.92895 2.60682 0
M  V30 5048 H 469.599 2.38038 3.43115 0
M  V30 5049 N 470.036 -0.519951 1.48776 0
M  V30 5050 C 471.261 -1.30447 1.6124 0
M  V30 5051 C 471.686 -1.86055 0.276591 0
M  V30 5052 O 471.044 -1.64915 -0.753183 0
M  V30 5053 C 471.092 -2.42406 2.66967 0
M  V30 5054 O 470.196 -3.45728 2.24824 0
M  V30 5055 H 469.537 -0.385924 0.540332 0
M  V30 5056 H 472.067 -0.624572 1.94834 0
M  V30 5057 H 472.077 -2.88447 2.88552 0
M  V30 5058 H 470.752 -2.01294 3.63941 0
M  V30 5059 H 469.329 -3.05737 2.13494 0
M  V30 5060 N 471.514 -1.37532 -0.769588 0
M  V30 5061 C 472.444 -1.36172 -1.89682 0
M  V30 5062 C 473.425 -0.23001 -1.68538 0
M  V30 5063 O 474.61 -0.43069 -1.89364 0
M  V30 5064 C 471.74 -1.1701 -3.26995 0
M  V30 5065 C 470.694 -2.27216 -3.62708 0
M  V30 5066 C 470.02 -1.93174 -4.98586 0
M  V30 5067 C 471.32 -3.6941 -3.69234 0
M  V30 5068 H 473.014 -2.30499 -1.91078 0
M  V30 5069 H 470.56 -1.10953 -0.917902 0
M  V30 5070 H 472.513 -1.14688 -4.05493 0
M  V30 5071 H 471.237 -0.191395 -3.26039 0
M  V30 5072 H 469.896 -2.28697 -2.86519 0
M  V30 5073 H 469.544 -0.938281 -4.94171 0
M  V30 5074 H 469.244 -2.66973 -5.23449 0
M  V30 5075 H 470.768 -1.92443 -5.79481 0
M  V30 5076 H 472.182 -3.70047 -4.37879 0
M  V30 5077 H 470.579 -4.4228 -4.05597 0
M  V30 5078 H 471.649 -4.0288 -2.69844 0
M  V30 5079 N 472.992 0.995999 -1.22138 0
M  V30 5080 C 473.902 2.11985 -1.00496 0
M  V30 5081 C 474.918 1.7394 0.0457701 0
M  V30 5082 O 476.094 2.00868 -0.146273 0
M  V30 5083 C 473.159 3.41779 -0.582086 0
M  V30 5084 C 472.22 3.93943 -1.70608 0
M  V30 5085 C 471.453 5.17542 -1.30328 0
M  V30 5086 O 471.676 5.70114 -0.180743 0
M  V30 5087 O 470.61 5.63382 -2.11861 0
M  V30 5088 H 474.436 2.33123 -1.94647 0
M  V30 5089 H 472.021 1.10358 -1.00705 0
M  V30 5090 H 473.903 4.1989 -0.356467 0
M  V30 5091 H 472.578 3.22007 0.330592 0
M  V30 5092 H 471.485 3.17019 -1.98619 0
M  V30 5093 H 472.818 4.18141 -2.59651 0
M  V30 5094 N 474.47 1.03057 1.19235 0
M  V30 5095 C 475.886 0.747947 1.40989 0
M  V30 5096 C 476.086 -0.666752 1.90149 0
M  V30 5097 O 475.142 -1.43249 2.07933 0
M  V30 5098 C 476.455 1.7855 2.41951 0
M  V30 5099 C 478.003 1.80524 2.55695 0
M  V30 5100 C 478.478 2.83243 3.59913 0
M  V30 5101 N 479.969 2.8207 3.67411 0
M  V30 5102 C 480.704 3.58204 4.47747 0
M  V30 5103 N 480.2 4.44057 5.31775 0
M  V30 5104 N 481.993 3.46738 4.42413 0
M  V30 5105 H 474.144 1.94367 0.856468 0
M  V30 5106 H 476.407 0.840412 0.438647 0
M  V30 5107 H 476.113 2.79973 2.12857 0
M  V30 5108 H 475.987 1.6092 3.41152 0
M  V30 5109 H 478.374 0.79778 2.84112 0
M  V30 5110 H 478.455 2.02229 1.56643 0
M  V30 5111 H 478.099 3.84161 3.32239 0
M  V30 5112 H 478.029 2.58795 4.5862 0
M  V30 5113 H 480.52 2.19803 3.074 0
M  V30 5114 H 480.833 4.98884 5.90199 0
M  V30 5115 H 479.178 4.48129 5.3123 0
M  V30 5116 H 482.369 2.79077 3.75811 0
M  V30 5117 H 482.542 4.06322 5.04783 0
M  V30 5118 N 475.948 -1.35272 0.808662 0
M  V30 5119 C 476.911 -2.28082 0.226093 0
M  V30 5120 C 477.911 -1.49673 -0.587762 0
M  V30 5121 O 479.101 -1.69404 -0.405943 0
M  V30 5122 C 476.233 -3.33955 -0.684596 0
M  V30 5123 H 477.426 -2.81116 1.04469 0
M  V30 5124 H 474.979 -1.45162 0.579466 0
M  V30 5125 H 475.714 -2.86111 -1.5268 0
M  V30 5126 H 475.499 -3.91965 -0.102699 0
M  V30 5127 H 476.989 -4.03219 -1.08646 0
M  V30 5128 N 477.426 -0.562348 -1.47226 0
M  V30 5129 C 478.356 0.170627 -2.32876 0
M  V30 5130 C 479.337 0.903748 -1.44106 0
M  V30 5131 O 480.522 0.883206 -1.72954 0
M  V30 5132 C 477.652 1.19786 -3.25989 0
M  V30 5133 C 476.606 0.580875 -4.2404 0
M  V30 5134 C 475.932 1.71311 -5.06514 0
M  V30 5135 C 477.232 -0.468714 -5.20193 0
M  V30 5136 H 478.926 -0.544441 -2.94408 0
M  V30 5137 H 476.472 -0.263271 -1.41573 0
M  V30 5138 H 478.425 1.71884 -3.84752 0
M  V30 5139 H 477.149 1.94294 -2.62521 0
M  V30 5140 H 475.808 0.0811538 -3.6651 0
M  V30 5141 H 475.456 2.44736 -4.39447 0
M  V30 5142 H 475.156 1.30604 -5.72902 0
M  V30 5143 H 476.68 2.23725 -5.68137 0
M  V30 5144 H 478.094 -0.0336028 -5.7329 0
M  V30 5145 H 476.491 -0.794957 -5.94811 0
M  V30 5146 H 477.561 -1.36269 -4.65359 0
M  V30 5147 N 478.904 1.54736 -0.299062 0
M  V30 5148 C 480.132 2.04512 0.313447 0
M  V30 5149 C 480.547 1.17643 1.47667 0
M  V30 5150 O 479.904 0.20164 1.81383 0
M  V30 5151 C 479.955 3.53171 0.771542 0
M  V30 5152 O 479.676 4.36736 -0.345379 0
M  V30 5153 C 481.177 4.18936 1.4494 0
M  V30 5154 H 478.397 0.667507 0.0683784 0
M  V30 5155 H 480.941 1.99752 -0.438129 0
M  V30 5156 H 479.096 3.58298 1.47314 0
M  V30 5157 H 479.51 5.24499 0.0109219 0
M  V30 5158 H 480.984 5.24482 1.72111 0
M  V30 5159 H 481.461 3.68554 2.38883 0
M  V30 5160 H 482.067 4.17879 0.791028 0
M  V30 5161 N 480.382 0.0267497 1.57577 0
M  V30 5162 C 481.292 -0.971633 2.13533 0
M  V30 5163 C 482.308 -1.35868 1.08701 0
M  V30 5164 O 483.484 -1.44058 1.40746 0
M  V30 5165 C 480.549 -2.23622 2.64941 0
M  V30 5166 C 479.61 -1.90982 3.8448 0
M  V30 5167 C 478.843 -3.11411 4.33427 0
M  V30 5168 O 479.066 -4.23992 3.81558 0
M  V30 5169 O 478 -2.93848 5.25297 0
M  V30 5170 H 481.826 -0.525853 2.99113 0
M  V30 5171 H 479.411 -0.193712 1.48139 0
M  V30 5172 H 481.293 -2.97864 2.98086 0
M  V30 5173 H 479.968 -2.67386 1.82446 0
M  V30 5174 H 478.875 -1.14132 3.56265 0
M  V30 5175 H 480.208 -1.52036 4.6813 0
M  V30 5176 N 481.861 -1.55662 -0.24637 0
M  V30 5177 C 483.138 -1.68272 -0.997198 0
M  V30 5178 C 483.518 -0.566785 -2.03349 0
M  V30 5179 O 482.866 0.429688 -2.24424 0
M  V30 5180 C 483.076 -3.08594 -1.63006 0
M  V30 5181 C 484.424 -3.6721 -2.13171 0
M  V30 5182 O 485.448 -3.11397 -1.72946 0
M  V30 5183 O 484.307 -4.65054 -2.87031 0
M  V30 5184 H 481.401 -0.684429 -0.464205 0
M  V30 5185 H 483.947 -1.67993 -0.240114 0
M  V30 5186 H 482.719 -3.81264 -0.880527 0
M  V30 5187 H 482.342 -3.12886 -2.45333 0
M  V30 5188 N 483.339 0.512053 -1.4905 0
M  V30 5189 C 484.564 1.2959 -1.6193 0
M  V30 5190 C 484.989 1.85906 -0.286454 0
M  V30 5191 O 484.347 1.65312 0.744426 0
M  V30 5192 C 484.395 2.40987 -2.68249 0
M  V30 5193 O 483.499 3.44531 -2.26654 0
M  V30 5194 H 482.84 0.383053 -0.542371 0
M  V30 5195 H 485.37 0.614231 -1.95162 0
M  V30 5196 H 485.38 2.86913 -2.90078 0
M  V30 5197 H 484.055 1.99361 -3.65004 0
M  V30 5198 H 482.632 3.046 -2.15112 0
M  V30 5199 N 484.817 1.37938 0.762283 0
M  V30 5200 C 486.045 1.36883 1.55147 0
M  V30 5201 C 486.46 -0.0435348 1.8875 0
M  V30 5202 O 485.817 -1.00786 1.52146 0
M  V30 5203 C 485.868 2.21624 2.85596 0
M  V30 5204 O 485.589 3.57358 2.5343 0
M  V30 5205 C 487.09 2.28653 3.7978 0
M  V30 5206 H 484.31 0.468521 0.480343 0
M  V30 5207 H 486.854 1.81404 0.944079 0
M  V30 5208 H 485.009 1.80588 3.42734 0
M  V30 5209 H 485.423 4.01883 3.37032 0
M  V30 5210 H 486.897 2.9225 4.68288 0
M  V30 5211 H 487.374 1.29767 4.19592 0
M  V30 5212 H 487.98 2.70043 3.28568 0
M  V30 5213 N 486.295 -0.989507 1.22664 0
M  V30 5214 C 487.227 -2.0824 0.957542 0
M  V30 5215 C 488.24 -1.6267 -0.0651098 0
M  V30 5216 O 489.429 -1.77695 0.169312 0
M  V30 5217 C 486.529 -3.36298 0.419145 0
M  V30 5218 C 485.702 -4.10882 1.49982 0
M  V30 5219 C 484.761 -5.17221 0.967904 0
M  V30 5220 O 483.787 -5.44613 1.65487 0
M  V30 5221 N 484.989 -5.80124 -0.20896 0
M  V30 5222 H 487.754 -2.31904 1.89843 0
M  V30 5223 H 485.315 -1.15552 1.13399 0
M  V30 5224 H 487.307 -4.04671 0.0485451 0
M  V30 5225 H 485.877 -3.09671 -0.426937 0
M  V30 5226 H 485.097 -3.37092 2.04359 0
M  V30 5227 H 486.385 -4.57482 2.22682 0
M  V30 5228 H 485.783 -5.60244 -0.783818 0
M  V30 5229 H 484.34 -6.49715 -0.520913 0
M  V30 5230 N 487.773 -1.03688 -1.18687 0
M  V30 5231 C 489.001 -0.757918 -1.92518 0
M  V30 5232 C 489.416 0.684398 -1.75959 0
M  V30 5233 O 488.773 1.46617 -1.08673 0
M  V30 5234 C 488.824 -1.10985 -3.44042 0
M  V30 5235 O 488.545 -2.49554 -3.60076 0
M  V30 5236 C 490.046 -0.854844 -4.3498 0
M  V30 5237 H 487.266 -0.276699 -0.611293 0
M  V30 5238 H 489.81 -1.38352 -1.50595 0
M  V30 5239 H 487.965 -0.529279 -3.83767 0
M  V30 5240 H 488.379 -2.6291 -4.53849 0
M  V30 5241 H 489.853 -1.15098 -5.39867 0
M  V30 5242 H 490.33 0.210507 -4.38695 0
M  V30 5243 H 490.936 -1.41853 -4.00946 0
M  V30 5244 N 489.251 1.34841 -0.815825 0
M  V30 5245 C 490.476 2.03261 -0.41226 0
M  V30 5246 C 490.901 1.61055 0.971751 0
M  V30 5247 O 490.259 0.7917 1.63101 0
M  V30 5248 C 490.307 3.56914 -0.514289 0
M  V30 5249 O 489.411 4.09728 0.468675 0
M  V30 5250 H 488.752 0.641664 -0.170771 0
M  V30 5251 H 491.282 1.72241 -1.10427 0
M  V30 5252 H 491.292 4.06156 -0.387457 0
M  V30 5253 H 489.967 3.86982 -1.52375 0
M  V30 5254 H 488.544 3.71681 0.301316 0
M  V30 5255 N 490.729 0.570148 1.46925 0
M  V30 5256 C 492.006 -0.0153259 1.95594 0
M  V30 5257 C 492.386 -1.47232 1.51281 0
M  V30 5258 O 491.734 -2.15574 0.757624 0
M  V30 5259 C 491.944 0.143624 3.48704 0
M  V30 5260 C 493.292 0.00494484 4.246 0
M  V30 5261 O 494.316 0.0718214 3.56128 0
M  V30 5262 O 493.175 -0.141175 5.46318 0
M  V30 5263 H 490.269 -0.0568819 0.825041 0
M  V30 5264 H 492.815 0.637583 1.57267 0
M  V30 5265 H 491.587 1.15699 3.73804 0
M  V30 5266 H 491.21 -0.5463 3.93829 0
M  V30 5267 N 492.207 -1.54576 0.307264 0
M  V30 5268 C 493.435 -2.04675 -0.302597 0
M  V30 5269 C 493.85 -1.18425 -1.47041 0
M  V30 5270 O 493.207 -0.211257 -1.81273 0
M  V30 5271 C 493.258 -3.53575 -0.752801 0
M  V30 5272 O 492.979 -4.36547 0.368536 0
M  V30 5273 C 494.48 -4.19699 -1.42717 0
M  V30 5274 H 491.7 -0.66786 -0.0648374 0
M  V30 5275 H 494.244 -1.99516 0.448716 0
M  V30 5276 H 492.399 -3.59074 -1.45412 0
M  V30 5277 H 492.813 -5.24497 0.0168937 0
M  V30 5278 H 494.287 -5.25388 -1.69327 0
M  V30 5279 H 494.764 -3.69815 -2.36925 0
M  V30 5280 H 495.37 -4.18293 -0.768856 0
M  V30 5281 N 493.685 -0.035106 -1.57561 0
M  V30 5282 C 494.648 0.929819 -2.09492 0
M  V30 5283 C 495.648 1.25026 -1.01119 0
M  V30 5284 O 496.838 1.18961 -1.27255 0
M  V30 5285 C 493.97 2.24457 -2.56577 0
M  V30 5286 H 495.163 0.479935 -2.96035 0
M  V30 5287 H 492.716 0.213033 -1.54841 0
M  V30 5288 H 493.451 2.74061 -1.73382 0
M  V30 5289 H 493.236 2.02508 -3.35757 0
M  V30 5290 H 494.726 2.93607 -2.96959 0
M  V30 5291 N 495.163 1.55791 0.238111 0
M  V30 5292 C 496.391 1.82098 0.982233 0
M  V30 5293 C 496.806 0.612025 1.78605 0
M  V30 5294 O 496.163 -0.419381 1.77616 0
M  V30 5295 C 496.214 3.0673 1.91309 0
M  V30 5296 O 495.935 4.2296 1.14179 0
M  V30 5297 C 497.436 3.45903 2.77248 0
M  V30 5298 H 494.656 0.605748 0.288635 0
M  V30 5299 H 497.2 2.02862 0.258341 0
M  V30 5300 H 495.355 2.87991 2.59114 0
M  V30 5301 H 495.769 4.93653 1.7722 0
M  V30 5302 H 497.243 4.36189 3.38295 0
M  V30 5303 H 497.72 2.66891 3.48806 0
M  V30 5304 H 498.326 3.67024 2.14881 0
M  V30 5305 N 496.642 -0.504142 1.49319 0
M  V30 5306 C 497.59 -1.62689 1.66238 0
M  V30 5307 C 498.584 -1.6095 0.528349 0
M  V30 5308 O 499.79 -1.65496 0.707887 0
M  V30 5309 H 496.165 -0.539247 0.524134 0
M  V30 5310 H 498.136 -1.45571 2.60484 0
M  V30 5311 C 496.885 -3.00841 1.74328 0
M  V30 5312 H 496.208 -3.02884 2.60963 0
M  V30 5313 H 497.648 -3.78945 1.90202 0
M  V30 5314 C 496.107 -3.33355 0.487416 0
M  V30 5315 O 496.637 -3.99819 -0.388294 0
M  V30 5316 N 494.843 -2.88469 0.351306 0
M  V30 5317 H 494.39 -2.34557 1.06492 0
M  V30 5318 H 494.348 -3.10591 -0.487899 0
M  V30 5319 N 498.12 -1.38341 -0.754957 0
M  V30 5320 C 499.345 -1.37882 -1.5493 0
M  V30 5321 C 499.77 0.0296385 -1.88077 0
M  V30 5322 O 499.128 1.01133 -1.50472 0
M  V30 5323 C 499.176 -2.23996 -2.82592 0
M  V30 5324 O 498.28 -1.65612 -3.77686 0
M  V30 5325 H 497.621 -0.470384 -0.468652 0
M  V30 5326 H 500.151 -1.82084 -0.933082 0
M  V30 5327 H 500.161 -2.37806 -3.3153 0
M  V30 5328 H 498.836 -3.26365 -2.57796 0
M  V30 5329 H 497.413 -1.60936 -3.36384 0
M  V30 5330 N 499.598 0.982988 -1.23187 0
M  V30 5331 C 500.826 1.75921 -1.08901 0
M  V30 5332 C 501.241 1.85341 0.359719 0
M  V30 5333 O 500.598 1.33072 1.24892 0
M  V30 5334 C 500.649 3.18742 -1.70545 0
M  V30 5335 O 500.37 3.09814 -3.09753 0
M  V30 5336 C 501.871 4.1277 -1.61667 0
M  V30 5337 H 499.091 0.552166 -0.381252 0
M  V30 5338 H 501.635 1.23516 -1.62985 0
M  V30 5339 H 499.79 3.68182 -1.20501 0
M  V30 5340 H 500.204 3.99703 -3.39614 0
M  V30 5341 H 501.678 5.10697 -2.09506 0
M  V30 5342 H 502.155 4.3542 -0.575009 0
M  V30 5343 H 502.761 3.69232 -2.11064 0
M  V30 5344 N 501.076 1.04316 1.18135 0
M  V30 5345 C 502.006 0.657299 2.24058 0
M  V30 5346 C 502.987 -0.340678 1.66654 0
M  V30 5347 O 504.172 -0.220223 1.92947 0
M  V30 5348 C 501.302 0.0220715 3.47293 0
M  V30 5349 C 500.256 0.943857 4.17463 0
M  V30 5350 C 499.582 0.172973 5.3442 0
M  V30 5351 C 500.882 2.26409 4.70677 0
M  V30 5352 H 502.576 1.5428 2.56589 0
M  V30 5353 H 500.122 0.743263 1.23335 0
M  V30 5354 H 502.075 -0.259607 4.206 0
M  V30 5355 H 500.799 -0.898323 3.14003 0
M  V30 5356 H 499.458 1.20996 3.46057 0
M  V30 5357 H 499.106 -0.749907 4.97379 0
M  V30 5358 H 498.806 0.787098 5.82304 0
M  V30 5359 H 500.33 -0.101628 6.10515 0
M  V30 5360 H 501.744 2.04294 5.35665 0
M  V30 5361 H 500.141 2.8314 5.29105 0
M  V30 5362 H 501.211 2.90883 3.87962 0
M  V30 5363 N 502.554 -1.34406 0.822964 0
M  V30 5364 C 503.965 -1.8069 0.469879 0
M  V30 5365 C 504.316 -1.68223 -1.00972 0
M  V30 5366 O 503.441 -1.22226 -1.78577 0
M  V30 5367 C 504.036 -3.28064 0.846118 0
M  V30 5368 C 502.595 -3.72428 0.545402 0
M  V30 5369 C 501.742 -2.56116 1.06301 0
M  V30 5370 H 504.693 -1.22153 1.01313 0
M  V30 5371 H 504.714 -3.80205 0.149922 0
M  V30 5372 H 504.226 -3.37107 1.92304 0
M  V30 5373 H 502.327 -3.68924 -0.522109 0
M  V30 5374 H 502.44 -4.66548 1.0895 0
M  V30 5375 H 500.804 -2.50048 0.484554 0
M  V30 5376 H 501.587 -2.67928 2.14638 0
M  V30 5377 N 504.032 -0.577932 -1.46621 0
M  V30 5378 C 505.257 -0.0652536 -2.07297 0
M  V30 5379 C 505.682 1.22828 -1.4246 0
M  V30 5380 O 505.04 1.74075 -0.506718 0
M  V30 5381 C 505.088 0.0920589 -3.60482 0
M  V30 5382 O 504.192 1.14972 -3.96049 0
M  V30 5383 H 503.533 -0.06065 -0.661224 0
M  V30 5384 H 506.063 -0.799515 -1.88332 0
M  V30 5385 H 506.073 0.299741 -4.06897 0
M  V30 5386 H 504.748 -0.852612 -4.07067 0
M  V30 5387 H 503.325 0.920879 -3.61351 0
M  V30 5388 N 505.51 1.54411 -0.315457 0
M  V30 5389 C 506.473 2.22713 0.54142 0
M  V30 5390 C 507.473 1.2179 1.04995 0
M  V30 5391 O 508.663 1.46426 0.943667 0
M  V30 5392 C 505.795 2.92485 1.75116 0
M  V30 5393 H 506.988 2.99849 -0.0555508 0
M  V30 5394 H 504.541 1.56159 -0.0664453 0
M  V30 5395 H 505.276 2.19466 2.38758 0
M  V30 5396 H 505.061 3.66483 1.39401 0
M  V30 5397 H 506.551 3.44548 2.35959 0
M  V30 5398 N 506.988 0.0434614 1.5754 0
M  V30 5399 C 507.898 -0.94893 2.14552 0
M  V30 5400 C 508.914 -1.34707 1.10136 0
M  V30 5401 O 510.09 -1.42557 1.42266 0
M  V30 5402 C 507.155 -2.208 2.67298 0
M  V30 5403 C 506.216 -1.86893 3.86484 0
M  V30 5404 C 505.449 -3.06797 4.36705 0
M  V30 5405 O 505.672 -4.19921 3.86034 0
M  V30 5406 O 504.606 -2.8826 5.28384 0
M  V30 5407 H 508.432 -0.494099 2.99654 0
M  V30 5408 H 506.017 -0.177989 1.48336 0
M  V30 5409 H 507.899 -2.94686 3.01228 0
M  V30 5410 H 506.574 -2.65436 1.85272 0
M  V30 5411 H 505.481 -1.10347 3.57455 0
M  V30 5412 H 506.814 -1.47062 4.69716 0
M  V30 5413 N 508.466 -1.55915 -0.229846 0
M  V30 5414 C 509.712 -1.78807 -0.956868 0
M  V30 5415 C 510.045 -0.611687 -1.84315 0
M  V30 5416 O 509.32 0.389398 -1.90562 0
M  V30 5417 C 509.603 -3.11718 -1.80288 0
M  V30 5418 C 509.456 -4.3979 -0.943649 0
M  V30 5419 C 510.775 -3.40999 -2.78222 0
M  V30 5420 H 507.894 -0.6505 -0.346437 0
M  V30 5421 H 510.536 -1.88648 -0.226252 0
M  V30 5422 H 508.686 -3.03459 -2.42579 0
M  V30 5423 H 510.358 -4.60059 -0.338121 0
M  V30 5424 H 508.601 -4.33086 -0.248705 0
M  V30 5425 H 509.272 -5.29208 -1.5698 0
M  V30 5426 H 511.748 -3.49332 -2.26067 0
M  V30 5427 H 510.624 -4.35183 -3.34526 0
M  V30 5428 H 510.885 -2.62754 -3.55546 0
M  V30 5429 N 509.944 0.496216 -1.49584 0
M  V30 5430 C 510.854 1.62352 -1.69349 0
M  V30 5431 C 511.87 1.64184 -0.576147 0
M  V30 5432 O 513.046 1.82517 -0.85144 0
M  V30 5433 C 510.111 2.98698 -1.76013 0
M  V30 5434 C 509.172 3.07454 -2.99617 0
M  V30 5435 C 508.405 4.37296 -3.05953 0
M  V30 5436 O 508.628 5.2637 -2.19752 0
M  V30 5437 O 507.562 4.51124 -3.9846 0
M  V30 5438 H 511.388 1.48606 -2.64859 0
M  V30 5439 H 508.973 0.673022 -1.33382 0
M  V30 5440 H 510.855 3.79725 -1.82721 0
M  V30 5441 H 509.53 3.12696 -0.836828 0
M  V30 5442 H 508.437 2.25597 -2.98424 0
M  V30 5443 H 509.77 2.98385 -3.91443 0
M  V30 5444 N 511.423 1.38739 0.74761 0
M  V30 5445 C 512.353 1.39173 1.87492 0
M  V30 5446 C 513.334 0.256794 1.6815 0
M  V30 5447 O 514.519 0.460762 1.88655 0
M  V30 5448 C 511.649 1.22197 3.25093 0
M  V30 5449 C 510.603 2.32957 3.59047 0
M  V30 5450 C 509.929 2.01082 4.95449 0
M  V30 5451 C 511.229 3.75237 3.6331 0
M  V30 5452 H 512.923 2.3351 1.87386 0
M  V30 5453 H 510.469 1.12399 0.900134 0
M  V30 5454 H 512.422 1.21124 4.03617 0
M  V30 5455 H 511.146 0.243241 3.25693 0
M  V30 5456 H 509.805 2.33226 2.82845 0
M  V30 5457 H 509.453 1.01678 4.92616 0
M  V30 5458 H 509.153 2.75267 5.19136 0
M  V30 5459 H 510.677 2.01638 5.76346 0
M  V30 5460 H 512.091 3.76966 4.31937 0
M  V30 5461 H 510.488 4.48677 3.98509 0
M  V30 5462 H 511.558 4.07122 2.634 0
M  V30 5463 N 512.901 -0.976442 1.23707 0
M  V30 5464 C 513.833 -2.07212 0.979574 0
M  V30 5465 C 514.846 -1.6273 -0.0478528 0
M  V30 5466 O 516.035 -1.77506 0.18815 0
M  V30 5467 C 513.135 -3.35835 0.45479 0
M  V30 5468 C 512.308 -4.09268 1.54331 0
M  V30 5469 C 511.367 -5.16166 1.02271 0
M  V30 5470 O 510.393 -5.42827 1.71254 0
M  V30 5471 N 511.595 -5.80313 -0.147419 0
M  V30 5472 H 514.36 -2.29878 1.92292 0
M  V30 5473 H 511.921 -1.14343 1.14618 0
M  V30 5474 H 513.913 -4.04597 0.0914631 0
M  V30 5475 H 512.483 -3.10106 -0.394068 0
M  V30 5476 H 511.703 -3.34906 2.07923 0
M  V30 5477 H 512.991 -4.55095 2.27522 0
M  V30 5478 H 512.389 -5.61043 -0.724353 0
M  V30 5479 H 510.946 -6.50231 -0.451972 0
M  V30 5480 N 514.379 -1.04941 -1.1758 0
M  V30 5481 C 515.342 -0.652456 -2.19717 0
M  V30 5482 C 516.342 0.294745 -1.58076 0
M  V30 5483 O 517.532 0.0789579 -1.74021 0
M  V30 5484 C 514.664 0.0420712 -3.40874 0
M  V30 5485 H 515.857 -1.55642 -2.5635 0
M  V30 5486 H 513.41 -0.842995 -1.31618 0
M  V30 5487 H 514.145 0.95943 -3.09783 0
M  V30 5488 H 513.93 -0.638844 -3.86861 0
M  V30 5489 H 515.42 0.306 -4.16477 0
M  V30 5490 N 515.857 1.33968 -0.830081 0
M  V30 5491 C 516.804 2.29387 -0.255008 0
M  V30 5492 C 517.774 1.53923 0.624243 0
M  V30 5493 O 518.959 1.82262 0.564372 0
M  V30 5494 C 516.099 3.4034 0.571209 0
M  V30 5495 C 515.212 4.30729 -0.331083 0
M  V30 5496 C 514.347 5.2879 0.505389 0
M  V30 5497 C 513.386 6.10819 -0.395843 0
M  V30 5498 N 512.523 7.00948 0.401979 0
M  V30 5499 H 517.363 2.77972 -1.07404 0
M  V30 5500 H 514.9 1.36785 -0.541133 0
M  V30 5501 H 516.858 4.03361 1.06562 0
M  V30 5502 H 515.488 2.9297 1.35529 0
M  V30 5503 H 514.54 3.68507 -0.943759 0
M  V30 5504 H 515.852 4.88181 -1.02377 0
M  V30 5505 H 515.006 5.97297 1.06399 0
M  V30 5506 H 513.745 4.71894 1.23155 0
M  V30 5507 H 512.75 5.41238 -0.966529 0
M  V30 5508 H 513.975 6.69797 -1.12023 0
M  V30 5509 H 511.921 6.46512 1.11168 0
M  V30 5510 H 511.838 7.55643 -0.232167 0
M  V30 5511 H 513.106 7.73774 0.943102 0
M  V30 5512 O 517.374 0.726383 1.44243 0
M  V30 5513 H 518.065 0.275111 1.91736 0
M  V30 END ATOM
M  V30 BEGIN BOND
M  V30 END BOND
M  V30 END CTAB
M  END
$$$$
