drugbank_target|P08173 Muscarinic acetylcholine receptor M4 (DB00246; DB00334; DB00342; DB00363; DB00376; DB00387; DB00408; DB00411; DB00424; DB00458; DB00496; DB00572; DB00622; DB00725; DB00747; DB00767; DB00809; DB00835; DB00934; DB00940; DB01019; DB01036; DB01069; DB01085; DB01142; DB01151; DB01224; DB01238; DB01239; DB01403; DB01409; DB01591; DB01625; DB03128; DB05752; DB06702; DB06787; DB08897; DB09076; DB09089; DB09167; DB11181; DB11235; DB12278; DB13581; DB14185)
 OpenBabel12092119313D

  0  0  0     0  0            999 V3000
M  V30 BEGIN CTAB
M  V30 COUNTS 7580 7673 0 0 0
M  V30 BEGIN ATOM
M  V30 1 H -0.908 1.98254 -0.117106 0
M  V30 2 N 0 1.576 0 0
M  V30 3 C 0.933 2.03868 1.02534 0
M  V30 4 C 1.911 0.928543 1.3348 0
M  V30 5 O 3.095 1.19667 1.45644 0
M  V30 6 C 0.222 2.43627 2.35294 0
M  V30 7 C -0.732 3.65373 2.2001 0
M  V30 8 S 0.101 5.13292 1.52614 0
M  V30 9 C 1.257 5.56322 2.86805 0
M  V30 10 H 1.49 2.90518 0.631377 0
M  V30 11 H -0.977 1.52953 0.210867 0
M  V30 12 H 0.981 2.67203 3.11629 0
M  V30 13 H -0.358 1.57376 2.7183 0
M  V30 14 H -1.165 3.90944 3.18086 0
M  V30 15 H -1.563 3.418 1.51819 0
M  V30 16 H 0.729 5.58782 3.83104 0
M  V30 17 H 1.672 6.56266 2.65933 0
M  V30 18 H 2.08 4.83886 2.90714 0
M  V30 19 N 1.4781 -0.272755 1.55222 0
M  V30 20 C 2.4411 -1.32041 1.87344 0
M  V30 21 C 3.4411 -1.42342 0.74803 0
M  V30 22 O 4.6311 -1.41488 1.0162 0
M  V30 23 C 1.7631 -2.70173 2.07893 0
M  V30 24 H 2.9561 -1.04789 2.80997 0
M  V30 25 H 0.5091 -0.51083 1.47717 0
M  V30 26 H 1.2441 -3.02605 1.16622 0
M  V30 27 H 1.0291 -2.64082 2.89833 0
M  V30 28 H 2.5191 -3.45869 2.34017 0
M  V30 29 N 2.9562 -1.48159 -0.537278 0
M  V30 30 C 3.9042 -1.62573 -1.66352 0
M  V30 31 C 4.8982 -0.492366 -1.62087 0
M  V30 32 O 6.1042 -0.670847 -1.67032 0
M  V30 33 H 2.4792 -0.511992 -0.550789 0
M  V30 34 H 4.4502 -2.57176 -1.51337 0
M  V30 35 C 3.1992 -1.67583 -3.04649 0
M  V30 36 H 2.5222 -2.54151 -3.08622 0
M  V30 37 H 3.9622 -1.81713 -3.83088 0
M  V30 38 C 2.4212 -0.413039 -3.34358 0
M  V30 39 O 2.9512 0.477259 -3.98855 0
M  V30 40 N 1.1572 -0.286961 -2.8918 0
M  V30 41 H 0.7042 -1.01241 -2.36871 0
M  V30 42 H 0.6622 0.556963 -3.09427 0
M  V30 43 N 4.4343 0.785586 -1.36625 0
M  V30 44 C 5.6813 1.54362 -1.31067 0
M  V30 45 C 6.0093 1.94195 0.10893 0
M  V30 46 O 5.2643 1.63262 1.07908 0
M  V30 47 C 5.5633 2.83007 -2.1827 0
M  V30 48 C 5.2293 2.62294 -3.6676 0
M  V30 49 C 3.8913 2.56353 -4.0723 0
M  V30 50 C 6.2433 2.43371 -4.6089 0
M  V30 51 C 3.5713 2.29461 -5.39967 0
M  V30 52 C 5.9233 2.18005 -5.93849 0
M  V30 53 C 4.5873 2.105 -6.3344 0
M  V30 54 H 3.8573 0.564851 -0.479609 0
M  V30 55 H 6.5043 0.906028 -1.68711 0
M  V30 56 H 4.8093 3.51253 -1.73576 0
M  V30 57 H 6.5063 3.40817 -2.11292 0
M  V30 58 H 3.0963 2.67774 -3.34656 0
M  V30 59 H 7.2803 2.46959 -4.30494 0
M  V30 60 H 2.5363 2.22135 -5.69619 0
M  V30 61 H 6.7103 2.02359 -6.66351 0
M  V30 62 H 4.3373 1.89425 -7.36222 0
M  V30 63 N 5.9124 1.20967 1.01018 0
M  V30 64 C 7.1404 1.04956 1.78303 0
M  V30 65 C 7.5554 -0.400915 1.84494 0
M  V30 66 O 6.9124 -1.27826 1.30257 0
M  V30 67 C 6.9634 1.63403 3.22462 0
M  V30 68 O 6.6844 3.02775 3.16637 0
M  V30 69 C 8.1854 1.52432 4.16268 0
M  V30 70 H 5.4054 0.368858 0.560522 0
M  V30 71 H 7.9494 1.60193 1.27116 0
M  V30 72 H 6.1044 1.1227 3.70775 0
M  V30 73 H 6.5184 3.30626 4.07169 0
M  V30 74 H 7.9924 1.98078 5.15237 0
M  V30 75 H 8.4694 0.477875 4.36592 0
M  V30 76 H 9.0754 2.02787 3.73841 0
M  V30 77 N 7.3905 -1.2043 1.01659 0
M  V30 78 C 8.8015 -1.71517 0.737482 0
M  V30 79 C 9.1525 -1.81547 -0.743973 0
M  V30 80 O 8.2775 -1.47803 -1.58061 0
M  V30 81 C 8.8725 -3.11515 1.33206 0
M  V30 82 C 7.4315 -3.59912 1.10183 0
M  V30 83 C 6.5785 -2.37116 1.43776 0
M  V30 84 H 9.5295 -1.05444 1.18606 0
M  V30 85 H 9.5505 -3.73575 0.722636 0
M  V30 86 H 9.0625 -3.04182 2.41028 0
M  V30 87 H 7.1635 -3.72577 0.0412756 0
M  V30 88 H 7.2765 -4.44731 1.78188 0
M  V30 89 H 5.6405 -2.39857 0.856778 0
M  V30 90 H 6.4235 -2.32424 2.52654 0
M  V30 91 N 8.8686 -0.792821 -1.36206 0
M  V30 92 C 10.1146 -0.36733 -1.99446 0
M  V30 93 C 10.4476 1.05917 -1.62774 0
M  V30 94 O 9.7226 1.7324 -0.88421 0
M  V30 95 C 10.0056 -0.535044 -3.56103 0
M  V30 96 C 9.8586 -2.00548 -4.02617 0
M  V30 97 C 11.1776 0.0478191 -4.40074 0
M  V30 98 H 8.2966 -0.134941 -0.724541 0
M  V30 99 H 10.9386 -0.999794 -1.61568 0
M  V30 100 H 9.0886 0.00336329 -3.885 0
M  V30 101 H 10.7606 -2.60521 -3.80692 0
M  V30 102 H 9.0036 -2.50686 -3.54032 0
M  V30 103 H 9.6746 -2.07377 -5.11565 0
M  V30 104 H 12.1506 -0.411822 -4.14057 0
M  V30 105 H 11.0266 -0.0995336 -5.4881 0
M  V30 106 H 11.2876 1.14025 -4.27142 0
M  V30 107 N 10.3467 1.47872 -0.545128 0
M  V30 108 C 11.2947 2.31533 0.222512 0
M  V30 109 C 12.2887 1.42177 0.920985 0
M  V30 110 O 13.4947 1.59005 0.843645 0
M  V30 111 H 9.8697 0.746519 0.0906278 0
M  V30 112 H 11.8407 2.94139 -0.50246 0
M  V30 113 C 10.5897 3.2457 1.24699 0
M  V30 114 H 9.9127 3.93283 0.718944 0
M  V30 115 H 11.3527 3.85963 1.75523 0
M  V30 116 C 9.8117 2.47237 2.28856 0
M  V30 117 O 10.3417 2.20808 3.35569 0
M  V30 118 N 8.5477 2.08461 2.02466 0
M  V30 119 H 8.0947 2.30155 1.157 0
M  V30 120 H 8.0527 1.57033 2.72375 0
M  V30 121 N 11.8248 0.280983 1.55075 0
M  V30 122 C 13.0728 -0.333455 1.9933 0
M  V30 123 C 13.3938 -1.55937 1.17085 0
M  V30 124 O 12.6638 -1.94143 0.261805 0
M  V30 125 H 11.2438 -0.126197 0.736263 0
M  V30 126 H 13.9058 0.387678 1.91005 0
M  V30 127 H 13.0018 -0.619292 3.05894 0
M  V30 128 N 13.3029 -1.57598 0.00835791 0
M  V30 129 C 14.5279 -1.95617 -0.689103 0
M  V30 130 C 14.9529 -0.883753 -1.66046 0
M  V30 131 O 14.3109 0.157352 -1.80616 0
M  V30 132 C 14.3589 -3.32736 -1.38994 0
M  V30 133 O 13.4629 -3.27631 -2.50463 0
M  V30 134 H 12.8039 -0.638379 -0.182668 0
M  V30 135 H 15.3339 -2.045 0.064036 0
M  V30 136 H 15.3439 -3.68494 -1.75147 0
M  V30 137 H 14.0189 -4.1034 -0.677778 0
M  V30 138 H 12.5959 -3.03561 -2.16576 0
M  V30 139 N 14.781 0.264519 -1.55364 0
M  V30 140 C 16.006 1.01726 -1.80739 0
M  V30 141 C 16.431 1.78836 -0.583044 0
M  V30 142 O 15.789 1.75167 0.467566 0
M  V30 143 C 15.837 1.94482 -3.03659 0
M  V30 144 O 14.941 3.03386 -2.7934 0
M  V30 145 H 14.282 0.290395 -0.597132 0
M  V30 146 H 16.812 0.290854 -2.02522 0
M  V30 147 H 16.822 2.36278 -3.32621 0
M  V30 148 H 15.497 1.37772 -3.92418 0
M  V30 149 H 14.074 2.65844 -2.61498 0
M  V30 150 N 16.2591 1.48442 0.529413 0
M  V30 151 C 17.5071 1.56179 1.28267 0
M  V30 152 C 17.8281 0.237721 1.93546 0
M  V30 153 O 17.0981 -0.740779 1.81354 0
M  V30 154 H 15.6781 0.575367 0.476405 0
M  V30 155 H 18.3401 1.84909 0.61602 0
M  V30 156 H 17.4361 2.34312 2.06165 0
M  V30 157 N 17.7372 -0.778329 1.37039 0
M  V30 158 C 18.6852 -1.91278 1.32345 0
M  V30 159 C 19.6792 -1.68051 0.213331 0
M  V30 160 O 20.8852 -1.75922 0.38098 0
M  V30 161 H 17.2602 -0.628909 0.412283 0
M  V30 162 H 19.2312 -1.92355 2.28127 0
M  V30 163 C 17.9802 -3.28455 1.14073 0
M  V30 164 H 17.3032 -3.46901 1.98746 0
M  V30 165 H 18.7432 -4.08152 1.14837 0
M  V30 166 C 17.2022 -3.36548 -0.154015 0
M  V30 167 O 17.7322 -3.85186 -1.13993 0
M  V30 168 N 15.9382 -2.89894 -0.202475 0
M  V30 169 H 15.4852 -2.50504 0.600476 0
M  V30 170 H 15.4432 -2.9569 -1.06841 0
M  V30 171 N 19.2153 -1.21501 -1.00376 0
M  V30 172 C 20.1473 -0.933174 -2.09343 0
M  V30 173 C 21.1603 0.0840896 -1.62583 0
M  V30 174 O 22.3493 -0.148563 -1.77881 0
M  V30 175 C 19.4493 -0.379869 -3.36764 0
M  V30 176 C 18.6223 -1.45176 -4.12605 0
M  V30 177 C 17.6813 -0.907476 -5.18316 0
M  V30 178 O 16.7073 -1.5912 -5.46507 0
M  V30 179 N 17.9093 0.276649 -5.7984 0
M  V30 180 H 20.6743 -1.87124 -2.34104 0
M  V30 181 H 18.2353 -1.12043 -1.16867 0
M  V30 182 H 20.2273 -0.00131488 -4.047 0
M  V30 183 H 18.7973 0.463048 -3.09151 0
M  V30 184 H 18.0173 -2.00411 -3.39454 0
M  V30 185 H 19.3053 -2.17328 -4.6005 0
M  V30 186 H 18.7033 0.849147 -5.59291 0
M  V30 187 H 17.2603 0.596702 -6.49063 0
M  V30 188 N 20.6934 1.19889 -1.02296 0
M  V30 189 C 21.9184 1.9393 -0.735237 0
M  V30 190 C 22.3434 1.74639 0.698782 0
M  V30 191 O 21.7014 1.04481 1.48167 0
M  V30 192 C 21.7494 3.43916 -1.08417 0
M  V30 193 O 20.8534 4.11917 -0.199446 0
M  V30 194 H 20.1944 0.605645 -0.272196 0
M  V30 195 H 22.7244 1.52137 -1.36804 0
M  V30 196 H 22.7344 3.9456 -1.03856 0
M  V30 197 H 21.4094 3.5728 -2.12894 0
M  V30 198 H 19.9864 3.71666 -0.303136 0
M  V30 199 N 22.1715 0.800033 1.35784 0
M  V30 200 C 23.4175 0.377901 1.99248 0
M  V30 201 C 23.7505 -1.05052 1.63333 0
M  V30 202 O 23.0255 -1.72768 0.893385 0
M  V30 203 C 23.3085 0.553922 3.55814 0
M  V30 204 C 23.1615 2.0268 4.01548 0
M  V30 205 C 24.4805 -0.0244802 4.40093 0
M  V30 206 H 21.5995 0.138782 0.723815 0
M  V30 207 H 24.2415 1.00835 1.61035 0
M  V30 208 H 22.3915 0.0172398 3.88496 0
M  V30 209 H 24.0635 2.62536 3.79305 0
M  V30 210 H 22.3065 2.5256 3.52698 0
M  V30 211 H 22.9775 2.10087 5.10458 0
M  V30 212 H 25.4535 0.433775 4.13833 0
M  V30 213 H 24.3295 0.128637 5.48749 0
M  V30 214 H 24.5905 -1.11758 4.27741 0
M  V30 215 N 23.6496 -1.47581 0.552962 0
M  V30 216 C 25.0656 -1.5818 0.212424 0
M  V30 217 C 25.2656 -1.55213 -1.28496 0
M  V30 218 O 24.3216 -1.45329 -2.06484 0
M  V30 219 C 25.6346 -2.88865 0.835318 0
M  V30 220 C 27.1826 -3.0244 0.806156 0
M  V30 221 C 27.6576 -4.35819 1.40804 0
M  V30 222 N 29.1486 -4.42444 1.37103 0
M  V30 223 C 29.8836 -5.44202 1.80641 0
M  V30 224 N 29.3796 -6.52795 2.32015 0
M  V30 225 N 31.1726 -5.35222 1.71738 0
M  V30 226 H 23.3236 -1.47753 1.52587 0
M  V30 227 H 25.5866 -0.702941 0.636064 0
M  V30 228 H 25.2926 -2.9676 1.88749 0
M  V30 229 H 25.1666 -3.7579 0.325848 0
M  V30 230 H 27.5536 -2.94144 -0.237317 0
M  V30 231 H 27.6346 -2.17068 1.35334 0
M  V30 232 H 27.2786 -4.44871 2.45056 0
M  V30 233 H 27.2086 -5.19916 0.836338 0
M  V30 234 H 29.6996 -3.6456 0.995202 0
M  V30 235 H 30.0126 -7.26609 2.63171 0
M  V30 236 H 28.3576 -6.53696 2.36023 0
M  V30 237 H 31.5486 -4.49284 1.31382 0
M  V30 238 H 31.7216 -6.14389 2.05987 0
M  V30 239 N 25.1277 -0.289203 -1.54924 0
M  V30 240 C 26.0577 0.58549 -2.2604 0
M  V30 241 C 27.0387 1.14753 -1.25562 0
M  V30 242 O 28.2237 1.17906 -1.54311 0
M  V30 243 C 25.3537 1.76305 -2.99222 0
M  V30 244 C 24.3077 1.33191 -4.06748 0
M  V30 245 C 23.6337 2.5937 -4.6758 0
M  V30 246 C 24.9337 0.471775 -5.20165 0
M  V30 247 H 26.6277 -0.00763532 -2.99399 0
M  V30 248 H 24.1737 -0.00511229 -1.43999 0
M  V30 249 H 26.1267 2.38097 -3.47689 0
M  V30 250 H 24.8507 2.38223 -2.23422 0
M  V30 251 H 23.5097 0.737121 -3.59113 0
M  V30 252 H 23.1577 3.19576 -3.88433 0
M  V30 253 H 22.8577 2.31228 -5.40192 0
M  V30 254 H 24.3817 3.21985 -5.18804 0
M  V30 255 H 25.7957 0.995056 -5.64599 0
M  V30 256 H 24.1927 0.284639 -5.99425 0
M  V30 257 H 25.2627 -0.506041 -4.82252 0
M  V30 258 N 26.6058 1.57591 -0.0167156 0
M  V30 259 C 27.8518 1.91567 0.665582 0
M  V30 260 C 28.1848 0.892298 1.72487 0
M  V30 261 O 27.4598 -0.0867127 1.94307 0
M  V30 262 C 27.7428 3.36069 1.29342 0
M  V30 263 C 27.5958 4.49135 0.244541 0
M  V30 264 C 28.9148 3.803 2.21495 0
M  V30 265 H 26.0338 0.69666 0.240488 0
M  V30 266 H 28.6758 1.89866 -0.0714356 0
M  V30 267 H 26.8258 3.3765 1.92158 0
M  V30 268 H 28.4978 4.59689 -0.385228 0
M  V30 269 H 26.7408 4.3165 -0.431379 0
M  V30 270 H 27.4118 5.47242 0.723207 0
M  V30 271 H 29.8878 3.80377 1.68678 0
M  V30 272 H 28.7638 4.82127 2.62382 0
M  V30 273 H 29.0248 3.15104 3.101 0
M  V30 274 N 28.0839 -0.256276 1.55502 0
M  V30 275 C 29.3119 -1.00342 1.8094 0
M  V30 276 C 29.7269 -1.79307 0.59114 0
M  V30 277 O 29.0839 -1.77114 -0.440081 0
M  V30 278 C 29.1349 -1.94875 3.04476 0
M  V30 279 O 28.8559 -1.19107 4.21598 0
M  V30 280 C 30.3569 -2.81266 3.42644 0
M  V30 281 H 27.5769 -0.295685 0.602338 0
M  V30 282 H 30.1209 -0.281998 2.02546 0
M  V30 283 H 28.2759 -2.62457 2.84947 0
M  V30 284 H 28.6899 -1.82969 4.91551 0
M  V30 285 H 30.1639 -3.43362 4.32211 0
M  V30 286 H 30.6409 -3.51897 2.62802 0
M  V30 287 H 31.2469 -2.1915 3.64491 0
M  V30 288 N 29.562 -1.4872 -0.521534 0
M  V30 289 C 30.787 -1.61101 -1.30618 0
M  V30 290 C 31.212 -0.274611 -1.86085 0
M  V30 291 O 30.57 0.754937 -1.64834 0
M  V30 292 C 30.618 -2.66709 -2.4269 0
M  V30 293 O 29.722 -2.24456 -3.45967 0
M  V30 294 H 29.063 -0.539921 -0.386499 0
M  V30 295 H 31.593 -1.94767 -0.626645 0
M  V30 296 H 31.603 -2.88245 -2.88754 0
M  V30 297 H 30.278 -3.63727 -2.01682 0
M  V30 298 H 28.855 -2.13168 -3.05964 0
M  V30 299 N 31.0401 0.771051 -1.3745 0
M  V30 300 C 32.2651 1.56529 -1.36065 0
M  V30 301 C 32.6901 1.88029 0.0515859 0
M  V30 302 O 32.0481 1.49282 1.02882 0
M  V30 303 C 32.0961 2.85187 -2.20683 0
M  V30 304 O 31.2001 3.79593 -1.61193 0
M  V30 305 H 30.5411 0.47411 -0.464883 0
M  V30 306 H 33.0711 0.954269 -1.80983 0
M  V30 307 H 33.0811 3.34283 -2.33921 0
M  V30 308 H 31.7561 2.61588 -3.23334 0
M  V30 309 H 30.3331 3.38239 -1.56999 0
M  V30 310 N 32.5182 1.22032 0.997298 0
M  V30 311 C 33.7432 1.06921 1.77715 0
M  V30 312 C 34.1682 -0.376226 1.84299 0
M  V30 313 O 33.5262 -1.27165 1.29223 0
M  V30 314 C 33.5742 1.67996 3.19076 0
M  V30 315 O 32.6782 0.930653 4.01762 0
M  V30 316 H 32.0192 0.375814 0.547412 0
M  V30 317 H 34.5492 1.61737 1.25309 0
M  V30 318 H 34.5592 1.72538 3.69723 0
M  V30 319 H 33.2342 2.73182 3.13599 0
M  V30 320 H 31.8112 0.960917 3.60307 0
M  V30 321 N 33.9963 -1.19345 1.0293 0
M  V30 322 C 34.9463 -2.20472 0.58104 0
M  V30 323 C 35.9303 -1.56578 -0.370442 0
M  V30 324 O 37.1223 -1.75963 -0.191344 0
M  V30 325 C 34.2513 -3.43236 -0.066306 0
M  V30 326 C 33.3373 -4.14274 0.907642 0
M  V30 327 N 33.7283 -4.61492 2.07023 0
M  V30 328 C 32.0263 -4.39966 0.731177 0
M  V30 329 C 32.7273 -5.1605 2.68454 0
M  V30 330 N 31.7033 -5.06875 1.96414 0
M  V30 331 H 35.5053 -2.54659 1.46717 0
M  V30 332 H 33.0193 -1.35423 0.896345 0
M  V30 333 H 35.0163 -4.14927 -0.405068 0
M  V30 334 H 33.6763 -3.10549 -0.948118 0
M  V30 335 H 34.6873 -4.56304 2.44963 0
M  V30 336 H 31.3643 -4.17377 -0.101507 0
M  V30 337 H 32.7543 -5.6287 3.66915 0
M  V30 338 N 35.4744 -0.807222 -1.35358 0
M  V30 339 C 36.4224 -0.20614 -2.31685 0
M  V30 340 C 37.4164 0.644445 -1.56663 0
M  V30 341 O 38.6224 0.537538 -1.71786 0
M  V30 342 H 34.9974 -0.0479006 -0.750473 0
M  V30 343 H 36.9684 -1.03369 -2.79924 0
M  V30 344 C 35.7174 0.630212 -3.41941 0
M  V30 345 H 35.0404 -0.0149558 -3.99797 0
M  V30 346 H 36.4804 1.01716 -4.11619 0
M  V30 347 C 34.9394 1.79601 -2.85035 0
M  V30 348 O 35.4694 2.89351 -2.78637 0
M  V30 349 N 33.6754 1.60774 -2.42074 0
M  V30 350 H 33.2224 0.715009 -2.47478 0
M  V30 351 H 33.1804 2.38933 -2.04349 0
M  V30 352 N 36.9525 1.47285 -0.560781 0
M  V30 353 C 38.3685 1.58065 -0.22081 0
M  V30 354 C 38.5685 1.55892 1.27671 0
M  V30 355 O 37.6245 1.46422 2.0571 0
M  V30 356 C 38.9375 2.88418 -0.850625 0
M  V30 357 C 40.4855 3.02009 -0.822184 0
M  V30 358 C 40.9605 4.35066 -1.43113 0
M  V30 359 N 42.4515 4.41711 -1.39448 0
M  V30 360 C 43.1865 5.43237 -1.83525 0
M  V30 361 N 42.6825 6.51555 -2.35474 0
M  V30 362 N 44.4755 5.34304 -1.74574 0
M  V30 363 H 36.6265 1.46941 -1.53369 0
M  V30 364 H 38.8895 0.699558 -0.639783 0
M  V30 365 H 38.5955 2.95755 -1.9032 0
M  V30 366 H 38.4695 3.75612 -0.345773 0
M  V30 367 H 40.8565 2.94266 0.221714 0
M  V30 368 H 40.9375 2.16347 -1.36483 0
M  V30 369 H 40.5815 4.43565 -2.47412 0
M  V30 370 H 40.5115 5.19465 -0.863899 0
M  V30 371 H 43.0025 3.64027 -1.01452 0
M  V30 372 H 43.3155 7.25203 -2.67021 0
M  V30 373 H 41.6605 6.52435 -2.39487 0
M  V30 374 H 44.8515 4.48581 -1.33763 0
M  V30 375 H 45.0245 6.13288 -2.09242 0
M  V30 376 N 38.4306 0.297415 1.54768 0
M  V30 377 C 39.6606 -0.315165 2.04182 0
M  V30 378 C 40.0686 -1.4834 1.17439 0
M  V30 379 O 39.4116 -1.82695 0.191891 0
M  V30 380 C 39.4736 -0.837583 3.49607 0
M  V30 381 C 39.1376 0.204912 4.5654 0
M  V30 382 C 40.1346 1.03214 5.09552 0
M  V30 383 C 37.8196 0.345578 5.0111 0
M  V30 384 C 39.8136 1.986 6.05671 0
M  V30 385 C 37.5006 1.30289 5.97049 0
M  V30 386 C 38.4986 2.12159 6.49213 0
M  V30 387 O 38.1866 3.06268 7.43273 0
M  V30 388 H 37.9186 -0.0729646 0.672051 0
M  V30 389 H 40.4726 0.433907 2.00765 0
M  V30 390 H 38.7026 -1.63712 3.50336 0
M  V30 391 H 40.3916 -1.36566 3.82236 0
M  V30 392 H 41.1576 0.934312 4.75916 0
M  V30 393 H 37.0366 -0.28171 4.60138 0
M  V30 394 H 40.5806 2.62542 6.46311 0
M  V30 395 H 36.4776 1.40145 6.30103 0
M  V30 396 H 37.2456 3.01205 7.61064 0
M  V30 397 N 39.9087 -1.5758 0.0250728 0
M  V30 398 C 40.8187 -2.1343 -0.973905 0
M  V30 399 C 41.8347 -1.08556 -1.35984 0
M  V30 400 O 43.0107 -1.40592 -1.44207 0
M  V30 401 C 40.0757 -2.64703 -2.23904 0
M  V30 402 C 39.1367 -3.84276 -1.91391 0
M  V30 403 C 38.3697 -4.33095 -3.11873 0
M  V30 404 O 38.5927 -3.81107 -4.24398 0
M  V30 405 O 37.5267 -5.24984 -2.94406 0
M  V30 406 H 41.3527 -2.99057 -0.529036 0
M  V30 407 H 38.9377 -1.48118 -0.195288 0
M  V30 408 H 40.8197 -2.97769 -2.98181 0
M  V30 409 H 39.4947 -1.82161 -2.6758 0
M  V30 410 H 38.4017 -3.56143 -1.14511 0
M  V30 411 H 39.7347 -4.67968 -1.52534 0
M  V30 412 N 41.3868 0.248026 -1.55636 0
M  V30 413 C 42.6148 0.993808 -1.81469 0
M  V30 414 C 43.0298 1.78991 -0.60064 0
M  V30 415 O 42.3868 1.77345 0.430682 0
M  V30 416 C 42.4378 1.93258 -3.05506 0
M  V30 417 O 42.1588 1.16869 -4.22224 0
M  V30 418 C 43.6598 2.79444 -3.4413 0
M  V30 419 H 40.8798 0.292486 -0.603898 0
M  V30 420 H 43.4238 0.271253 -2.02693 0
M  V30 421 H 41.5788 2.60943 -2.86335 0
M  V30 422 H 41.9928 1.80359 -4.92515 0
M  V30 423 H 43.4668 3.41066 -4.34026 0
M  V30 424 H 43.9438 3.50499 -2.64665 0
M  V30 425 H 44.5498 2.17214 -3.65648 0
M  V30 426 N 42.8649 1.48995 0.513639 0
M  V30 427 C 44.1109 1.58076 1.27042 0
M  V30 428 C 44.4439 0.261026 1.92438 0
M  V30 429 O 43.7189 -0.734393 1.80103 0
M  V30 430 C 44.0019 2.73091 2.34719 0
M  V30 431 C 43.8549 4.14821 1.73907 0
M  V30 432 C 45.1739 2.83796 3.36375 0
M  V30 433 H 42.2929 0.575391 0.460536 0
M  V30 434 H 44.9349 1.81232 0.570516 0
M  V30 435 H 43.0849 2.53479 2.94416 0
M  V30 436 H 44.7569 4.45917 1.18135 0
M  V30 437 H 42.9999 4.21058 1.0437 0
M  V30 438 H 43.6709 4.91147 2.51949 0
M  V30 439 H 46.1469 3.01611 2.86653 0
M  V30 440 H 45.0229 3.65971 4.09093 0
M  V30 441 H 45.2839 1.92624 3.9793 0
M  V30 442 N 44.343 -0.763751 1.37857 0
M  V30 443 C 45.253 -1.90817 1.36478 0
M  V30 444 C 46.269 -1.71997 0.263248 0
M  V30 445 O 47.445 -1.95095 0.499979 0
M  V30 446 C 44.51 -3.2605 1.17864 0
M  V30 447 C 43.571 -3.57467 2.3773 0
M  V30 448 C 42.804 -4.86249 2.19995 0
M  V30 449 O 43.027 -5.57884 1.18836 0
M  V30 450 O 41.961 -5.16911 3.08361 0
M  V30 451 H 45.787 -1.94933 2.32884 0
M  V30 452 H 43.372 -0.907619 1.1867 0
M  V30 453 H 45.254 -4.06924 1.09504 0
M  V30 454 H 43.929 -3.22769 0.245372 0
M  V30 455 H 42.836 -2.76796 2.51664 0
M  V30 456 H 44.169 -3.655 3.29652 0
M  V30 457 N 45.8211 -1.22559 -0.990812 0
M  V30 458 C 46.7541 -0.940773 -2.07905 0
M  V30 459 C 47.7321 0.117082 -1.62178 0
M  V30 460 O 48.9161 -0.0149506 -1.88494 0
M  V30 461 C 46.0431 -0.415321 -3.36144 0
M  V30 462 C 45.0891 -1.45818 -4.00799 0
M  V30 463 S 45.9221 -3.03219 -4.41382 0
M  V30 464 C 47.0781 -2.52317 -5.72789 0
M  V30 465 H 47.3111 -1.8623 -2.31745 0
M  V30 466 H 44.8441 -1.05688 -1.12558 0
M  V30 467 H 46.8021 -0.118747 -4.10328 0
M  V30 468 H 45.4631 0.485121 -3.10331 0
M  V30 469 H 44.6561 -1.04044 -4.93144 0
M  V30 470 H 44.2581 -1.70356 -3.32949 0
M  V30 471 H 46.5501 -1.93688 -6.49224 0
M  V30 472 H 47.4931 -3.43161 -6.19392 0
M  V30 473 H 47.9011 -1.93529 -5.30289 0
M  V30 474 N 47.2992 1.18797 -1.03562 0
M  V30 475 C 48.5452 1.8893 -0.737113 0
M  V30 476 C 48.8782 1.79837 0.732956 0
M  V30 477 O 48.1532 1.19525 1.5344 0
M  V30 478 C 48.4362 3.39607 -1.19745 0
M  V30 479 C 48.2892 3.57537 -2.72924 0
M  V30 480 C 49.6082 4.33069 -0.783526 0
M  V30 481 H 46.7272 0.686057 -0.269249 0
M  V30 482 H 49.3692 1.39797 -1.28673 0
M  V30 483 H 47.5192 3.81583 -0.729855 0
M  V30 484 H 49.1912 3.24688 -3.27682 0
M  V30 485 H 47.4342 3.00363 -3.12993 0
M  V30 486 H 48.1052 4.63238 -3.00191 0
M  V30 487 H 50.5812 3.98846 -1.18581 0
M  V30 488 H 49.4572 5.3707 -1.13343 0
M  V30 489 H 49.7182 4.40986 0.313681 0
M  V30 490 N 48.7773 0.814389 1.34928 0
M  V30 491 C 50.0243 0.398423 1.98542 0
M  V30 492 C 50.3523 -1.03638 1.64589 0
M  V30 493 O 49.6073 -1.73509 0.90516 0
M  V30 494 C 49.9063 0.537781 3.53331 0
M  V30 495 C 49.5723 1.93704 4.07172 0
M  V30 496 C 48.2343 2.31984 4.21589 0
M  V30 497 C 50.5863 2.85213 4.36237 0
M  V30 498 C 47.9143 3.61125 4.62391 0
M  V30 499 C 50.2663 4.13809 4.78482 0
M  V30 500 C 48.9303 4.52077 4.91104 0
M  V30 501 H 48.2003 0.145793 0.726516 0
M  V30 502 H 50.8473 1.03669 1.61012 0
M  V30 503 H 49.1523 -0.183906 3.91368 0
M  V30 504 H 50.8493 0.196588 4.00518 0
M  V30 505 H 47.4393 1.62966 3.96409 0
M  V30 506 H 51.6233 2.56885 4.24645 0
M  V30 507 H 46.8793 3.90612 4.70353 0
M  V30 508 H 51.0533 4.84811 4.99932 0
M  V30 509 H 48.6803 5.52196 5.22478 0
M  V30 510 N 50.2554 -1.46986 0.568584 0
M  V30 511 C 51.5044 -2.01646 0.0465894 0
M  V30 512 C 51.8174 -1.44721 -1.31587 0
M  V30 513 O 53.0234 -1.91113 -1.92842 0
M  V30 514 C 51.4794 -3.59885 0.032752 0
M  V30 515 C 51.0874 -4.25804 1.39266 0
M  V30 516 C 52.8314 -4.22255 -0.436038 0
M  V30 517 C 50.7384 -5.76081 1.33732 0
M  V30 518 H 49.6684 -0.753876 0.013647 0
M  V30 519 H 52.3194 -1.68864 0.718131 0
M  V30 520 H 50.7014 -3.8968 -0.704669 0
M  V30 521 H 51.8754 -4.07637 2.1487 0
M  V30 522 H 50.1904 -3.7547 1.80032 0
M  V30 523 H 52.7874 -5.32394 -0.49602 0
M  V30 524 H 53.1304 -3.90212 -1.45053 0
M  V30 525 H 53.6634 -3.97033 0.246877 0
M  V30 526 H 50.4024 -6.12761 2.32817 0
M  V30 527 H 49.9224 -5.96553 0.623267 0
M  V30 528 H 51.6014 -6.38518 1.0442 0
M  V30 529 N 51.7335 -0.305618 -1.54608 0
M  V30 530 C 52.6965 0.555591 -2.22364 0
M  V30 531 C 53.6965 1.05768 -1.21119 0
M  V30 532 O 54.8865 0.952972 -1.45822 0
M  V30 533 C 52.0185 1.76974 -2.91364 0
M  V30 534 H 53.2115 -0.0364572 -2.99878 0
M  V30 535 H 50.7645 -0.0565007 -1.56198 0
M  V30 536 H 51.4995 2.40151 -2.17941 0
M  V30 537 H 51.2845 1.41732 -3.65588 0
M  V30 538 H 52.7745 2.38148 -3.43038 0
M  V30 539 N 53.2116 1.57565 -0.0334293 0
M  V30 540 C 54.4396 1.9628 0.654347 0
M  V30 541 C 54.8546 0.910138 1.65414 0
M  V30 542 O 54.2116 -0.107595 1.82183 0
M  V30 543 C 54.2626 3.35067 1.35693 0
M  V30 544 O 53.9836 4.36296 0.397191 0
M  V30 545 C 55.4846 3.88439 2.13613 0
M  V30 546 H 52.7046 0.646369 0.180132 0
M  V30 547 H 55.2486 2.04282 -0.0944721 0
M  V30 548 H 53.4036 3.2827 2.05712 0
M  V30 549 H 53.8176 5.1678 0.896597 0
M  V30 550 H 55.2916 4.8788 2.58219 0
M  V30 551 H 55.7686 3.22914 2.97696 0
M  V30 552 H 56.3746 3.98516 1.48543 0
M  V30 553 N 54.6897 -0.239769 1.55765 0
M  V30 554 C 55.9357 -0.968234 1.78194 0
M  V30 555 C 56.2687 -1.84701 0.599938 0
M  V30 556 O 55.5437 -1.9031 -0.401524 0
M  V30 557 C 55.8267 -1.8227 3.10564 0
M  V30 558 C 55.6797 -0.971633 4.3918 0
M  V30 559 C 56.9987 -2.80388 3.39221 0
M  V30 560 H 54.1177 -0.350572 0.648281 0
M  V30 561 H 56.7597 -0.238259 1.885 0
M  V30 562 H 54.9097 -2.44507 3.01908 0
M  V30 563 H 56.5817 -0.367408 4.59835 0
M  V30 564 H 54.8247 -0.276276 4.32919 0
M  V30 565 H 55.4957 -1.60346 5.28198 0
M  V30 566 H 57.9717 -2.28287 3.47885 0
M  V30 567 H 56.8477 -3.3729 4.33044 0
M  V30 568 H 57.1087 -3.57212 2.60484 0
M  V30 569 N 56.1678 -1.49265 -0.50573 0
M  V30 570 C 57.3958 -1.62215 -1.28429 0
M  V30 571 C 57.8108 -0.291697 -1.86533 0
M  V30 572 O 57.1678 0.722233 -1.67601 0
M  V30 573 C 57.2188 -2.68735 -2.41793 0
M  V30 574 O 56.9398 -3.96619 -1.86078 0
M  V30 575 C 58.4408 -2.92346 -3.3324 0
M  V30 576 H 55.6608 -0.546239 -0.389697 0
M  V30 577 H 58.2048 -1.95265 -0.607609 0
M  V30 578 H 56.3598 -2.38476 -3.053 0
M  V30 579 H 56.7738 -4.55256 -2.60465 0
M  V30 580 H 58.2478 -3.70623 -4.09075 0
M  V30 581 H 58.7248 -2.02081 -3.89948 0
M  V30 582 H 59.3308 -3.24003 -2.75503 0
M  V30 583 N 57.6459 0.756429 -1.3826 0
M  V30 584 C 58.8939 1.51248 -1.34047 0
M  V30 585 C 59.2149 1.94875 0.0698372 0
M  V30 586 O 58.4849 1.67436 1.01696 0
M  V30 587 H 57.0649 0.561018 -0.493222 0
M  V30 588 H 59.7269 0.899347 -1.7291 0
M  V30 589 H 58.8229 2.40472 -1.98947 0
M  V30 590 N 59.124 1.23083 0.984299 0
M  V30 591 C 60.349 1.088 1.76571 0
M  V30 592 C 60.774 -0.356657 1.84688 0
M  V30 593 O 60.132 -1.25788 1.30565 0
M  V30 594 C 60.18 1.71371 3.17277 0
M  V30 595 O 59.284 0.973213 4.00752 0
M  V30 596 H 58.625 0.381599 0.543395 0
M  V30 597 H 61.155 1.63057 1.23587 0
M  V30 598 H 61.165 1.76449 3.67872 0
M  V30 599 H 59.84 2.76493 3.10684 0
M  V30 600 H 58.417 0.999078 3.59267 0
M  V30 601 N 60.6021 -1.18246 1.0419 0
M  V30 602 C 61.5321 -2.24127 0.654914 0
M  V30 603 C 62.5131 -1.66617 -0.342451 0
M  V30 604 O 63.6981 -1.92924 -0.222277 0
M  V30 605 C 60.8281 -3.47295 0.0183757 0
M  V30 606 C 59.7821 -4.17563 0.939414 0
M  V30 607 C 59.1081 -5.34438 0.167286 0
M  V30 608 C 60.4081 -4.70917 2.25908 0
M  V30 609 H 62.1021 -2.56753 1.54007 0
M  V30 610 H 59.6481 -1.23414 0.74195 0
M  V30 611 H 61.6011 -4.20572 -0.264082 0
M  V30 612 H 60.3251 -3.13907 -0.901664 0
M  V30 613 H 58.9841 -3.46186 1.20628 0
M  V30 614 H 58.6321 -4.97298 -0.7552 0
M  V30 615 H 58.3321 -5.82388 0.780901 0
M  V30 616 H 59.8561 -6.10504 -0.108125 0
M  V30 617 H 61.2701 -5.35882 2.03724 0
M  V30 618 H 59.6671 -5.29406 2.82577 0
M  V30 619 H 60.7371 -3.88272 2.9047 0
M  V30 620 N 62.0802 -0.821533 -1.34494 0
M  V30 621 C 63.3052 -0.420873 -2.03085 0
M  V30 622 C 63.7302 0.964915 -1.61465 0
M  V30 623 O 63.0882 1.62763 -0.798607 0
M  V30 624 C 63.1362 -0.529414 -3.56693 0
M  V30 625 O 62.2402 0.451302 -4.09923 0
M  V30 626 H 61.5812 -0.173489 -0.640935 0
M  V30 627 H 64.1112 -1.11157 -1.71771 0
M  V30 628 H 64.1212 -0.404671 -4.05988 0
M  V30 629 H 62.7962 -1.54014 -3.86332 0
M  V30 630 H 61.3732 0.285558 -3.71805 0
M  V30 631 N 63.5583 1.46682 -0.576371 0
M  V30 632 C 64.4883 2.33028 0.148397 0
M  V30 633 C 65.4693 1.44961 0.889956 0
M  V30 634 O 66.6543 1.73789 0.866662 0
M  V30 635 C 63.7843 3.27117 1.1667 0
M  V30 636 C 62.7383 4.24575 0.540386 0
M  V30 637 C 62.0643 5.08126 1.6647 0
M  V30 638 C 63.3643 5.19722 -0.518331 0
M  V30 639 H 65.0583 2.93875 -0.572509 0
M  V30 640 H 62.6043 1.41315 -0.276768 0
M  V30 641 H 64.5573 3.86374 1.68204 0
M  V30 642 H 63.2813 2.64364 1.9178 0
M  V30 643 H 61.9403 3.66571 0.0461769 0
M  V30 644 H 61.5883 4.41762 2.40531 0
M  V30 645 H 61.2883 5.74122 1.25131 0
M  V30 646 H 62.8123 5.70246 2.18293 0
M  V30 647 H 64.2263 5.73232 -0.0883058 0
M  V30 648 H 62.6233 5.94026 -0.851679 0
M  V30 649 H 63.6933 4.64037 -1.40703 0
M  V30 650 N 65.0364 0.313813 1.54444 0
M  V30 651 C 66.2824 -0.292108 2.00685 0
M  V30 652 C 66.6154 -1.52548 1.20177 0
M  V30 653 O 65.8904 -1.92452 0.281531 0
M  V30 654 C 66.1734 -0.635968 3.5444 0
M  V30 655 C 66.0264 0.607437 4.4568 0
M  V30 656 C 67.3454 -1.45747 4.15266 0
M  V30 657 H 64.4644 -0.104697 0.729526 0
M  V30 658 H 67.1064 0.428457 1.85106 0
M  V30 659 H 65.2564 -1.24986 3.67846 0
M  V30 660 H 66.9284 1.24581 4.44159 0
M  V30 661 H 65.1714 1.23822 4.15753 0
M  V30 662 H 65.8424 0.322515 5.51057 0
M  V30 663 H 68.3184 -0.938645 4.05375 0
M  V30 664 H 67.1944 -1.66683 5.2298 0
M  V30 665 H 67.4554 -2.45063 3.67963 0
M  V30 666 N 66.5145 -1.57545 0.0417849 0
M  V30 667 C 67.7425 -1.96624 -0.643928 0
M  V30 668 C 68.1575 -0.918897 -1.64929 0
M  V30 669 O 67.5145 0.0979323 -1.82237 0
M  V30 670 C 67.5655 -3.35781 -1.33914 0
M  V30 671 O 67.2865 -4.365 -0.374048 0
M  V30 672 C 68.7875 -3.89566 -2.1155 0
M  V30 673 H 66.0075 -0.647316 -0.176702 0
M  V30 674 H 68.5515 -2.04229 0.105304 0
M  V30 675 H 66.7065 -3.29357 -2.03968 0
M  V30 676 H 67.1205 -5.17248 -0.869179 0
M  V30 677 H 68.5945 -4.89242 -2.55628 0
M  V30 678 H 69.0715 -3.24488 -2.9598 0
M  V30 679 H 69.6775 -3.99298 -1.46427 0
M  V30 680 N 67.9926 0.231505 -1.5589 0
M  V30 681 C 69.2386 0.95877 -1.78705 0
M  V30 682 C 69.5716 1.8438 -0.609725 0
M  V30 683 O 68.8466 1.90521 0.391426 0
M  V30 684 C 69.1296 1.8062 -3.11526 0
M  V30 685 C 68.9826 0.948328 -4.39689 0
M  V30 686 C 70.3016 2.78585 -3.40703 0
M  V30 687 H 67.4206 0.347129 -0.650131 0
M  V30 688 H 70.0626 0.228259 -1.88624 0
M  V30 689 H 68.2126 2.42902 -3.03201 0
M  V30 690 H 69.8846 0.343016 -4.60023 0
M  V30 691 H 68.1276 0.253314 -4.3306 0
M  V30 692 H 68.7986 1.57543 -5.29041 0
M  V30 693 H 71.2746 2.26439 -3.49091 0
M  V30 694 H 70.1506 3.34988 -4.34826 0
M  V30 695 H 70.4116 3.55825 -2.62375 0
M  V30 696 N 69.4707 1.49531 0.497807 0
M  V30 697 C 70.7167 1.59415 1.25358 0
M  V30 698 C 71.0497 0.281422 1.9215 0
M  V30 699 O 70.3247 -0.715249 1.80871 0
M  V30 700 C 70.6077 2.75566 2.3181 0
M  V30 701 C 70.4607 4.16642 1.69498 0
M  V30 702 C 71.7797 2.87347 3.33346 0
M  V30 703 H 68.8987 0.580244 0.454408 0
M  V30 704 H 71.5407 1.81827 0.551262 0
M  V30 705 H 69.6907 2.56587 2.91711 0
M  V30 706 H 71.3627 4.47145 1.13399 0
M  V30 707 H 69.6057 4.22141 0.998978 0
M  V30 708 H 70.2767 4.93792 2.46725 0
M  V30 709 H 72.7527 3.04634 2.83438 0
M  V30 710 H 71.6287 3.70289 4.05188 0
M  V30 711 H 71.8897 1.96834 3.95865 0
M  V30 712 N 70.9488 -0.749086 1.3866 0
M  V30 713 C 72.1968 -1.50535 1.34847 0
M  V30 714 C 72.5178 -1.94909 -0.0595016 0
M  V30 715 O 71.7878 -1.67973 -1.00806 0
M  V30 716 H 70.3678 -0.558395 0.49619 0
M  V30 717 H 73.0298 -0.890165 1.73384 0
M  V30 718 H 72.1258 -2.39413 2.00219 0
M  V30 719 N 72.4269 -1.23603 -0.977757 0
M  V30 720 C 73.3749 -1.01704 -2.09187 0
M  V30 721 C 74.3689 0.0448214 -1.69341 0
M  V30 722 O 75.5749 -0.108902 -1.7967 0
M  V30 723 H 71.9499 -0.311803 -0.684312 0
M  V30 724 H 73.9209 -1.96207 -2.24823 0
M  V30 725 C 72.6699 -0.627746 -3.41986 0
M  V30 726 H 71.9929 -1.43656 -3.73099 0
M  V30 727 H 73.4329 -0.514053 -4.20872 0
M  V30 728 C 71.8919 0.664238 -3.30287 0
M  V30 729 O 72.4219 1.71268 -3.6336 0
M  V30 730 N 70.6279 0.641156 -2.83439 0
M  V30 731 H 70.1749 -0.212376 -2.56723 0
M  V30 732 H 70.1329 1.50583 -2.75993 0
M  V30 733 N 73.905 1.17692 -1.04816 0
M  V30 734 C 75.154 1.87192 -0.751132 0
M  V30 735 C 75.467 1.8169 0.724441 0
M  V30 736 O 76.673 2.46625 1.13527 0
M  V30 737 C 75.129 3.35857 -1.29338 0
M  V30 738 C 74.737 3.4987 -2.79812 0
M  V30 739 C 76.481 4.10709 -1.07322 0
M  V30 740 C 74.388 4.92536 -3.27356 0
M  V30 741 H 73.318 0.701162 -0.277288 0
M  V30 742 H 75.969 1.32932 -1.26496 0
M  V30 743 H 74.351 3.89631 -0.707376 0
M  V30 744 H 75.525 3.06332 -3.44235 0
M  V30 745 H 73.84 2.88433 -3.00325 0
M  V30 746 H 76.437 5.15952 -1.4035 0
M  V30 747 H 76.78 4.16299 -0.0108001 0
M  V30 748 H 77.313 3.6313 -1.62423 0
M  V30 749 H 74.052 4.92119 -4.33012 0
M  V30 750 H 73.572 5.3676 -2.67673 0
M  V30 751 H 75.251 5.61288 -3.21815 0
M  V30 752 N 75.3831 0.828654 1.34056 0
M  V30 753 C 76.3131 0.269443 2.3194 0
M  V30 754 C 77.2941 -0.617247 1.58506 0
M  V30 755 O 78.4791 -0.542931 1.86456 0
M  V30 756 C 75.6091 -0.564793 3.42677 0
M  V30 757 C 74.5631 0.225241 4.27407 0
M  V30 758 C 73.8891 -0.7321 5.29664 0
M  V30 759 C 75.1891 1.43663 5.02154 0
M  V30 760 H 76.8831 1.08728 2.7896 0
M  V30 761 H 74.4291 0.524283 1.34117 0
M  V30 762 H 76.3821 -0.966233 4.10173 0
M  V30 763 H 75.1061 -1.41574 2.9432 0
M  V30 764 H 73.7651 0.608117 3.61521 0
M  V30 765 H 73.4131 -1.57916 4.77568 0
M  V30 766 H 73.1131 -0.20767 5.87233 0
M  V30 767 H 74.6371 -1.13128 6.00029 0
M  V30 768 H 76.0511 1.1089 5.62473 0
M  V30 769 H 74.4481 1.89711 5.69324 0
M  V30 770 H 75.5181 2.21181 4.31517 0
M  V30 771 N 76.8612 -1.46375 0.584142 0
M  V30 772 C 78.1072 -2.02678 0.0703716 0
M  V30 773 C 78.4402 -1.4545 -1.28678 0
M  V30 774 O 77.7152 -0.62014 -1.84349 0
M  V30 775 C 77.9982 -3.60099 0.00614674 0
M  V30 776 C 77.8512 -4.27709 1.3923 0
M  V30 777 C 79.1702 -4.34598 -0.693742 0
M  V30 778 H 76.2892 -0.736504 0.027047 0
M  V30 779 H 78.9312 -1.74501 0.751615 0
M  V30 780 H 77.0812 -3.84236 -0.574009 0
M  V30 781 H 78.7532 -4.14832 2.01773 0
M  V30 782 H 76.9962 -3.87016 1.95962 0
M  V30 783 H 77.6672 -5.36478 1.29982 0
M  V30 784 H 80.1432 -4.15615 -0.200869 0
M  V30 785 H 79.0192 -5.44318 -0.707714 0
M  V30 786 H 79.2802 -4.05759 -1.75533 0
M  V30 787 N 78.3393 -0.321999 -1.54275 0
M  V30 788 C 79.2723 0.58718 -2.20516 0
M  V30 789 C 80.2503 1.11693 -1.18167 0
M  V30 790 O 81.4343 1.18122 -1.46899 0
M  V30 791 C 78.5613 1.80554 -2.86562 0
M  V30 792 C 77.6073 1.40718 -4.02617 0
M  V30 793 S 78.4403 0.445218 -5.33646 0
M  V30 794 C 79.5963 1.6709 -6.03185 0
M  V30 795 H 79.8293 0.0244875 -2.9729 0
M  V30 796 H 77.3623 -0.106087 -1.54035 0
M  V30 797 H 79.3203 2.50462 -3.25237 0
M  V30 798 H 77.9813 2.33942 -2.09595 0
M  V30 799 H 77.1743 2.31501 -4.47687 0
M  V30 800 H 76.7763 0.78782 -3.65608 0
M  V30 801 H 79.0683 2.60856 -6.25268 0
M  V30 802 H 80.0113 1.26239 -6.96756 0
M  V30 803 H 80.4193 1.85716 -5.33076 0
M  V30 804 N 79.8174 1.5752 -0.0501392 0
M  V30 805 C 80.7474 2.14502 0.922566 0
M  V30 806 C 81.7284 1.06642 1.3252 0
M  V30 807 O 82.9134 1.34577 1.4001 0
M  V30 808 C 80.0434 2.68916 2.19776 0
M  V30 809 C 78.9974 3.8175 1.93523 0
M  V30 810 C 78.3234 4.22677 3.27487 0
M  V30 811 C 79.6234 5.06932 1.25765 0
M  V30 812 H 81.3174 2.9603 0.447952 0
M  V30 813 H 78.8634 1.42401 0.214024 0
M  V30 814 H 80.8164 3.07419 2.88222 0
M  V30 815 H 79.5404 1.84578 2.69441 0
M  V30 816 H 78.1994 3.43718 1.27489 0
M  V30 817 H 77.8474 3.35291 3.74952 0
M  V30 818 H 77.5474 4.98725 3.1072 0
M  V30 819 H 79.0714 4.63779 3.97166 0
M  V30 820 H 80.4854 5.42888 1.84244 0
M  V30 821 H 78.8824 5.88116 1.19328 0
M  V30 822 H 79.9524 4.84337 0.233536 0
M  V30 823 N 81.2955 -0.223234 1.56011 0
M  V30 824 C 82.5205 -0.968978 1.83373 0
M  V30 825 C 82.9455 -1.77227 0.630254 0
M  V30 826 O 82.3035 -1.76345 -0.420959 0
M  V30 827 C 82.3515 -1.86363 3.08709 0
M  V30 828 O 81.4555 -2.95873 2.87285 0
M  V30 829 H 80.7965 -0.274461 0.604622 0
M  V30 830 H 83.3265 -0.237056 2.03222 0
M  V30 831 H 83.3365 -2.27376 3.38768 0
M  V30 832 H 82.0115 -1.27319 3.95933 0
M  V30 833 H 80.5885 -2.58818 2.68454 0
M  V30 834 N 82.7736 -1.49793 -0.48987 0
M  V30 835 C 84.0226 -1.59085 -1.23995 0
M  V30 836 C 84.3356 -0.287907 -1.9347 0
M  V30 837 O 85.5416 -0.259506 -2.70257 0
M  V30 838 C 83.9976 -2.80736 -2.252 0
M  V30 839 C 83.6056 -4.17833 -1.61614 0
M  V30 840 C 85.3496 -2.99364 -3.00967 0
M  V30 841 C 83.2566 -5.30693 -2.60996 0
M  V30 842 H 82.1866 -0.592372 -0.466488 0
M  V30 843 H 84.8376 -1.76197 -0.51252 0
M  V30 844 H 83.2196 -2.57142 -3.01154 0
M  V30 845 H 84.3936 -4.51608 -0.915774 0
M  V30 846 H 82.7086 -4.04656 -0.981977 0
M  V30 847 H 85.3056 -3.80851 -3.75308 0
M  V30 848 H 85.6486 -2.10356 -3.59244 0
M  V30 849 H 86.1816 -3.2305 -2.32128 0
M  V30 850 H 82.9206 -6.21796 -2.07485 0
M  V30 851 H 82.4406 -5.01359 -3.2924 0
M  V30 852 H 84.1196 -5.6049 -3.23202 0
M  V30 853 N 84.2517 0.741722 -1.39055 0
M  V30 854 C 85.1987 1.85566 -1.37237 0
M  V30 855 C 86.1687 1.64457 -0.233072 0
M  V30 856 O 87.3537 1.85957 -0.427147 0
M  V30 857 C 84.4937 3.23004 -1.215 0
M  V30 858 C 83.6067 3.55864 -2.44918 0
M  V30 859 C 82.7417 4.82669 -2.21821 0
M  V30 860 C 81.7807 5.08351 -3.40948 0
M  V30 861 N 80.9177 6.26356 -3.17211 0
M  V30 862 H 85.7577 1.86455 -2.32462 0
M  V30 863 H 83.2947 0.911176 -1.15482 0
M  V30 864 H 85.2527 4.02331 -1.10389 0
M  V30 865 H 83.8827 3.21411 -0.29908 0
M  V30 866 H 82.9347 2.7129 -2.66657 0
M  V30 867 H 84.2467 3.70765 -3.33668 0
M  V30 868 H 83.4007 5.69962 -2.07914 0
M  V30 869 H 82.1397 4.69929 -1.30454 0
M  V30 870 H 81.1447 4.19522 -3.55361 0
M  V30 871 H 82.3697 5.22981 -4.33207 0
M  V30 872 H 80.3157 6.14917 -2.28502 0
M  V30 873 H 80.2327 6.41813 -3.99515 0
M  V30 874 H 81.5007 7.16506 -3.06984 0
M  V30 875 N 85.7298 1.2412 0.971189 0
M  V30 876 C 86.9758 1.08041 1.71625 0
M  V30 877 C 87.3088 -0.380407 1.90438 0
M  V30 878 O 86.5838 -1.28127 1.46334 0
M  V30 879 C 86.8668 1.81682 3.10908 0
M  V30 880 C 86.7198 3.35493 2.99608 0
M  V30 881 C 88.0388 1.58671 4.10501 0
M  V30 882 H 85.1578 0.39388 0.622919 0
M  V30 883 H 87.7998 1.52743 1.13003 0
M  V30 884 H 85.9498 1.43684 3.60953 0
M  V30 885 H 87.6218 3.83068 2.57015 0
M  V30 886 H 85.8648 3.64052 2.35899 0
M  V30 887 H 86.5358 3.82217 3.98264 0
M  V30 888 H 89.0118 1.91719 3.69301 0
M  V30 889 H 87.8878 2.1266 5.06031 0
M  V30 890 H 88.1488 0.524161 4.38982 0
M  V30 891 N 87.2079 -1.17134 1.05439 0
M  V30 892 C 88.1559 -2.23289 0.651511 0
M  V30 893 C 89.1499 -1.66186 -0.328411 0
M  V30 894 O 90.3559 -1.78949 -0.194206 0
M  V30 895 H 86.7309 -0.726938 0.192523 0
M  V30 896 H 88.7019 -2.54565 1.55689 0
M  V30 897 C 87.4509 -3.47671 0.0448436 0
M  V30 898 H 86.7739 -3.91918 0.78996 0
M  V30 899 H 88.2139 -4.2353 -0.19964 0
M  V30 900 C 86.6729 -3.14453 -1.20918 0
M  V30 901 O 87.2029 -3.29459 -2.29825 0
M  V30 902 N 85.4089 -2.68657 -1.10779 0
M  V30 903 H 84.9559 -2.56646 -0.221526 0
M  V30 904 H 84.9139 -2.46804 -1.9477 0
M  V30 905 N 88.686 -0.835752 -1.33615 0
M  V30 906 C 90.102 -0.523139 -1.50783 0
M  V30 907 C 90.302 0.950171 -1.77691 0
M  V30 908 O 89.358 1.73411 -1.83534 0
M  V30 909 C 90.671 -1.39378 -2.66448 0
M  V30 910 C 92.219 -1.39223 -2.80332 0
M  V30 911 C 92.694 -2.24765 -3.99055 0
M  V30 912 N 94.185 -2.22458 -4.06284 0
M  V30 913 C 94.92 -2.85386 -4.97336 0
M  V30 914 N 94.416 -3.57354 -5.93523 0
M  V30 915 N 96.209 -2.74872 -4.90308 0
M  V30 916 H 88.36 -1.78952 -1.14411 0
M  V30 917 H 90.623 -0.763297 -0.562212 0
M  V30 918 H 90.329 -2.44061 -2.53234 0
M  V30 919 H 90.203 -1.0676 -3.61776 0
M  V30 920 H 92.59 -0.353136 -2.92979 0
M  V30 921 H 92.671 -1.75846 -1.85773 0
M  V30 922 H 92.315 -3.28732 -3.87167 0
M  V30 923 H 92.245 -1.85485 -4.92852 0
M  V30 924 H 94.736 -1.70119 -3.37443 0
M  V30 925 H 95.049 -4.02584 -6.59656 0
M  V30 926 H 93.394 -3.61461 -5.93608 0
M  V30 927 H 96.585 -2.18213 -4.14126 0
M  V30 928 H 96.758 -3.24199 -5.61069 0
M  V30 929 N 90.1641 1.46063 -0.591896 0
M  V30 930 C 91.0961 2.28539 0.174001 0
M  V30 931 C 92.1091 1.39047 0.846753 0
M  V30 932 O 93.2981 1.63564 0.714774 0
M  V30 933 C 90.3981 3.14347 1.26645 0
M  V30 934 C 89.5711 4.32021 0.683856 0
M  V30 935 C 88.6301 4.99157 1.66518 0
M  V30 936 O 87.6561 5.56458 1.19763 0
M  V30 937 N 88.8581 4.97005 2.99943 0
M  V30 938 H 91.6231 2.94911 -0.533633 0
M  V30 939 H 89.1841 1.56077 -0.430294 0
M  V30 940 H 91.1761 3.56125 1.92242 0
M  V30 941 H 89.7461 2.49988 1.87682 0
M  V30 942 H 88.9661 3.93915 -0.1498 0
M  V30 943 H 90.2541 5.08059 0.274567 0
M  V30 944 H 89.6521 4.51714 3.40545 0
M  V30 945 H 88.2091 5.42696 3.61004 0
M  V30 946 N 91.6422 0.330177 1.54103 0
M  V30 947 C 92.5722 -0.525353 2.27513 0
M  V30 948 C 93.5532 -1.11383 1.2856 0
M  V30 949 O 94.7382 -1.13773 1.57383 0
M  V30 950 C 91.8682 -1.6831 3.03791 0
M  V30 951 C 90.8222 -1.2236 4.10137 0
M  V30 952 C 90.1482 -2.46882 4.74293 0
M  V30 953 C 91.4482 -0.333697 5.21233 0
M  V30 954 H 93.1422 0.087013 2.99274 0
M  V30 955 H 90.6882 0.0432893 1.43935 0
M  V30 956 H 92.6412 -2.28795 3.5388 0
M  V30 957 H 91.3652 -2.32216 2.29659 0
M  V30 958 H 90.0242 -0.64165 3.60941 0
M  V30 959 H 89.6722 -3.09165 3.96769 0
M  V30 960 H 89.3722 -2.16825 5.46133 0
M  V30 961 H 90.8962 -3.08117 5.27159 0
M  V30 962 H 92.3102 -0.845013 5.67038 0
M  V30 963 H 90.7072 -0.125612 5.99969 0
M  V30 964 H 91.7772 0.633724 4.80741 0
M  V30 965 N 93.1203 -1.57491 0.0584922 0
M  V30 966 C 94.0523 -2.08916 -0.942694 0
M  V30 967 C 95.0653 -1.0185 -1.27006 0
M  V30 968 O 96.2543 -1.29398 -1.22957 0
M  V30 969 C 93.3543 -2.52341 -2.26224 0
M  V30 970 C 92.5273 -3.82827 -2.1157 0
M  V30 971 C 91.5863 -4.12487 -3.26712 0
M  V30 972 O 90.6123 -4.82295 -3.02292 0
M  V30 973 N 91.8143 -3.64978 -4.5141 0
M  V30 974 H 94.5793 -2.95437 -0.503722 0
M  V30 975 H 92.1403 -1.61397 -0.12757 0
M  V30 976 H 94.1323 -2.69254 -3.02133 0
M  V30 977 H 92.7023 -1.7103 -2.61663 0
M  V30 978 H 91.9223 -3.75425 -1.20208 0
M  V30 979 H 93.2103 -4.68263 -1.99015 0
M  V30 980 H 92.6083 -3.08558 -4.7414 0
M  V30 981 H 91.1653 -3.87115 -5.2439 0
M  V30 982 N 94.5984 0.214957 -1.56127 0
M  V30 983 C 95.8264 0.955092 -1.83536 0
M  V30 984 C 96.2414 1.77677 -0.638472 0
M  V30 985 O 95.5984 1.78219 0.392968 0
M  V30 986 C 95.6494 1.86734 -3.09536 0
M  V30 987 O 95.3704 1.07887 -4.24608 0
M  V30 988 C 96.8714 2.72082 -3.4998 0
M  V30 989 H 94.0914 0.279611 -0.609966 0
M  V30 990 H 96.6354 0.228197 -2.03223 0
M  V30 991 H 94.7904 2.5481 -2.91806 0
M  V30 992 H 95.2044 1.69872 -4.9623 0
M  V30 993 H 96.6784 3.31782 -4.41163 0
M  V30 994 H 97.1554 3.44806 -2.7204 0
M  V30 995 H 97.7614 2.09409 -3.70173 0
M  V30 996 N 96.0765 1.50051 0.48192 0
M  V30 997 C 97.3225 1.60736 1.2366 0
M  V30 998 C 97.6555 0.301786 1.91841 0
M  V30 999 O 96.9305 -0.696025 1.8162 0
M  V30 1000 C 97.2135 2.78009 2.28874 0
M  V30 1001 C 97.0665 4.18416 1.65069 0
M  V30 1002 C 98.3855 2.90867 3.30279 0
M  V30 1003 H 95.5045 0.585031 0.448228 0
M  V30 1004 H 98.1465 1.82402 0.531946 0
M  V30 1005 H 96.2965 2.59667 2.88973 0
M  V30 1006 H 97.9685 4.48322 1.0865 0
M  V30 1007 H 96.2115 4.23177 0.954148 0
M  V30 1008 H 96.8825 4.96381 2.41474 0
M  V30 1009 H 99.3585 3.07623 2.80191 0
M  V30 1010 H 98.2345 3.74566 4.01238 0
M  V30 1011 H 98.4955 2.01021 3.93755 0
M  V30 1012 N 97.5546 -0.734337 1.39446 0
M  V30 1013 C 98.5026 -1.86971 1.38364 0
M  V30 1014 C 99.4966 -1.67288 0.266687 0
M  V30 1015 O 100.703 -1.74621 0.436755 0
M  V30 1016 H 97.0776 -0.615474 0.432082 0
M  V30 1017 H 99.0486 -1.85 2.34132 0
M  V30 1018 C 97.7976 -3.2466 1.24465 0
M  V30 1019 H 97.1206 -3.40402 2.09682 0
M  V30 1020 H 98.5606 -4.04292 1.27764 0
M  V30 1021 C 97.0196 -3.36867 -0.0468674 0
M  V30 1022 O 97.5496 -3.88618 -1.01681 0
M  V30 1023 N 95.7556 -2.90391 -0.110145 0
M  V30 1024 H 95.3026 -2.48466 0.679868 0
M  V30 1025 H 95.2606 -2.98939 -0.973799 0
M  V30 1026 N 99.0327 -1.24633 -0.964593 0
M  V30 1027 C 99.9807 -1.03917 -2.08096 0
M  V30 1028 C 100.975 0.0268581 -1.69379 0
M  V30 1029 O 102.181 -0.127952 -1.79545 0
M  V30 1030 H 98.5557 -0.319044 -0.680966 0
M  V30 1031 H 100.527 -1.98581 -2.22729 0
M  V30 1032 C 99.2757 -0.663983 -3.41301 0
M  V30 1033 H 98.5987 -1.47605 -3.71555 0
M  V30 1034 H 100.039 -0.558663 -4.20303 0
M  V30 1035 C 98.4977 0.629169 -3.30973 0
M  V30 1036 O 99.0277 1.67404 -3.65156 0
M  V30 1037 N 97.2337 0.611057 -2.84103 0
M  V30 1038 H 96.7807 -0.239593 -2.56483 0
M  V30 1039 H 96.7387 1.47647 -2.77575 0
M  V30 1040 N 100.511 1.16574 -1.06058 0
M  V30 1041 C 101.741 1.90675 -0.795397 0
M  V30 1042 C 102.149 1.77547 0.653735 0
M  V30 1043 O 101.492 1.11611 1.45907 0
M  V30 1044 C 101.554 3.42011 -1.10764 0
M  V30 1045 C 101.218 3.78924 -2.55471 0
M  V30 1046 C 102.215 3.81042 -3.53699 0
M  V30 1047 C 99.8998 4.09626 -2.90708 0
M  V30 1048 C 101.894 4.13346 -4.85205 0
M  V30 1049 C 99.5808 4.41597 -4.22416 0
M  V30 1050 C 100.579 4.43436 -5.19474 0
M  V30 1051 O 100.267 4.74649 -6.48817 0
M  V30 1052 H 99.9988 0.611554 -0.288058 0
M  V30 1053 H 102.553 1.48711 -1.41683 0
M  V30 1054 H 100.783 3.84312 -0.429128 0
M  V30 1055 H 102.472 3.97384 -0.827077 0
M  V30 1056 H 103.238 3.57437 -3.27817 0
M  V30 1057 H 99.1168 4.07361 -2.15819 0
M  V30 1058 H 102.661 4.14696 -5.60957 0
M  V30 1059 H 98.5578 4.64667 -4.48056 0
M  V30 1060 H 99.3258 4.9247 -6.5377 0
M  V30 1061 N 101.989 0.842826 1.3317 0
M  V30 1062 C 103.236 0.440447 1.97652 0
M  V30 1063 C 103.564 -1.00123 1.6675 0
M  V30 1064 O 102.819 -1.7155 0.941761 0
M  V30 1065 C 103.118 0.612607 3.52111 0
M  V30 1066 C 102.784 2.02297 4.02972 0
M  V30 1067 C 101.446 2.40874 4.16573 0
M  V30 1068 C 103.798 2.94402 4.30089 0
M  V30 1069 C 101.126 3.70852 4.54627 0
M  V30 1070 C 103.478 4.23865 4.69597 0
M  V30 1071 C 102.142 4.62392 4.81404 0
M  V30 1072 H 101.412 0.161171 0.72326 0
M  V30 1073 H 104.059 1.07061 1.58777 0
M  V30 1074 H 102.364 -0.100849 3.9167 0
M  V30 1075 H 104.061 0.2815 4.00011 0
M  V30 1076 H 100.651 1.71338 3.92863 0
M  V30 1077 H 104.835 2.65835 4.19101 0
M  V30 1078 H 100.091 4.00501 4.61962 0
M  V30 1079 H 104.265 4.95306 4.89536 0
M  V30 1080 H 101.892 5.63154 5.10648 0
M  V30 1081 N 103.467 -1.45747 0.599634 0
M  V30 1082 C 104.397 -2.33235 -0.111306 0
M  V30 1083 C 105.378 -1.46359 -0.866781 0
M  V30 1084 O 106.563 -1.75146 -0.838904 0
M  V30 1085 C 103.693 -3.28932 -1.11451 0
M  V30 1086 C 102.647 -4.25381 -0.472772 0
M  V30 1087 C 101.973 -5.1071 -1.58365 0
M  V30 1088 C 103.273 -5.18831 0.600948 0
M  V30 1089 H 104.967 -2.92927 0.61919 0
M  V30 1090 H 102.513 -1.40857 0.299215 0
M  V30 1091 H 104.466 -3.89002 -1.62036 0
M  V30 1092 H 103.19 -2.67381 -1.8755 0
M  V30 1093 H 101.849 -3.66598 0.0121472 0
M  V30 1094 H 101.497 -4.45533 -2.33473 0
M  V30 1095 H 101.197 -5.7604 -1.15982 0
M  V30 1096 H 102.721 -5.73647 -2.09194 0
M  V30 1097 H 104.135 -5.73019 0.179491 0
M  V30 1098 H 102.532 -5.92595 0.946076 0
M  V30 1099 H 103.602 -4.6174 1.48068 0
M  V30 1100 N 104.945 -0.338344 -1.53925 0
M  V30 1101 C 106.192 0.259758 -2.00827 0
M  V30 1102 C 106.52 1.50973 -1.22628 0
M  V30 1103 O 105.775 1.93379 -0.300509 0
M  V30 1104 C 106.074 0.62448 -3.51902 0
M  V30 1105 C 105.74 -0.528006 -4.47798 0
M  V30 1106 C 104.402 -0.844298 -4.73735 0
M  V30 1107 C 106.754 -1.30143 -5.0469 0
M  V30 1108 C 104.082 -1.93648 -5.53821 0
M  V30 1109 C 106.434 -2.38382 -5.85967 0
M  V30 1110 C 105.098 -2.70576 -6.10201 0
M  V30 1111 H 104.368 0.0950523 -0.734878 0
M  V30 1112 H 107.015 -0.465182 -1.85764 0
M  V30 1113 H 105.32 1.43006 -3.64769 0
M  V30 1114 H 107.017 1.09905 -3.85645 0
M  V30 1115 H 103.607 -0.271421 -4.2774 0
M  V30 1116 H 107.791 -1.07033 -4.84621 0
M  V30 1117 H 103.047 -2.19021 -5.70824 0
M  V30 1118 H 107.221 -2.98746 -6.29066 0
M  V30 1119 H 104.848 -3.55333 -6.72044 0
M  V30 1120 N 106.423 1.57458 -0.0668435 0
M  V30 1121 C 107.648 1.9804 0.616027 0
M  V30 1122 C 108.073 0.944771 1.62652 0
M  V30 1123 O 107.431 -0.0902094 1.81075 0
M  V30 1124 C 107.479 3.37665 1.26549 0
M  V30 1125 O 106.583 3.36701 2.38131 0
M  V30 1126 H 105.924 0.644719 0.158849 0
M  V30 1127 H 108.454 2.04121 -0.139891 0
M  V30 1128 H 108.464 3.7474 1.6135 0
M  V30 1129 H 107.139 4.12573 0.525016 0
M  V30 1130 H 105.716 3.1139 2.0516 0
M  V30 1131 N 107.901 -0.206675 1.56239 0
M  V30 1132 C 108.831 -1.25909 1.96645 0
M  V30 1133 C 109.812 -1.48097 0.836734 0
M  V30 1134 O 110.997 -1.6003 1.10019 0
M  V30 1135 C 108.127 -2.6058 2.29599 0
M  V30 1136 C 107.081 -2.53024 3.452 0
M  V30 1137 C 106.407 -3.91861 3.63798 0
M  V30 1138 C 107.707 -2.06524 4.79734 0
M  V30 1139 H 109.401 -0.923369 2.84806 0
M  V30 1140 H 106.947 -0.442735 1.37025 0
M  V30 1141 H 108.9 -3.34375 2.56459 0
M  V30 1142 H 107.624 -2.95869 1.38307 0
M  V30 1143 H 106.283 -1.81684 3.18412 0
M  V30 1144 H 105.931 -4.24483 2.69857 0
M  V30 1145 H 105.631 -3.87683 4.4156 0
M  V30 1146 H 107.155 -4.67296 3.93022 0
M  V30 1147 H 108.569 -2.70072 5.05702 0
M  V30 1148 H 106.966 -2.13374 5.60885 0
M  V30 1149 H 108.036 -1.01802 4.74093 0
M  V30 1150 N 109.379 -1.50304 -0.473955 0
M  V30 1151 C 110.342 -1.6841 -1.55469 0
M  V30 1152 C 111.342 -0.554905 -1.50922 0
M  V30 1153 O 112.532 -0.821882 -1.53593 0
M  V30 1154 C 109.664 -1.70667 -2.95102 0
M  V30 1155 H 110.857 -2.64828 -1.40733 0
M  V30 1156 H 108.41 -1.39742 -0.700132 0
M  V30 1157 H 109.145 -0.75932 -3.15285 0
M  V30 1158 H 108.93 -2.52698 -2.9981 0
M  V30 1159 H 110.42 -1.8664 -3.73571 0
M  V30 1160 N 110.857 0.726932 -1.39834 0
M  V30 1161 C 112.097 1.4992 -1.38936 0
M  V30 1162 C 112.461 1.91996 0.0126883 0
M  V30 1163 O 113.662 2.68399 0.146715 0
M  V30 1164 C 111.933 2.70013 -2.34153 0
M  V30 1165 S 113.492 3.59563 -2.51515 0
M  V30 1166 H 110.31 0.51271 -0.492595 0
M  V30 1167 H 112.912 0.85107 -1.76003 0
M  V30 1168 H 111.616 2.37254 -3.34871 0
M  V30 1169 H 111.147 3.39748 -1.98331 0
M  V30 1170 H 113.162 4.63973 -1.75909 0
M  V30 1171 N 112.336 1.25143 0.95797 0
M  V30 1172 C 113.299 1.05321 2.03569 0
M  V30 1173 C 114.299 0.007152 1.60798 0
M  V30 1174 O 115.489 0.24903 1.72411 0
M  V30 1175 C 112.621 0.598394 3.35607 0
M  V30 1176 H 113.814 2.00986 2.22586 0
M  V30 1177 H 111.367 1.07502 1.13459 0
M  V30 1178 H 112.102 -0.361014 3.22284 0
M  V30 1179 H 111.887 1.35351 3.67998 0
M  V30 1180 H 113.377 0.48104 4.1482 0
M  V30 1181 N 113.814 -1.1601 1.06675 0
M  V30 1182 C 115.091 -1.82679 0.699114 0
M  V30 1183 C 115.471 -1.94559 -0.819137 0
M  V30 1184 O 114.819 -1.49169 -1.73092 0
M  V30 1185 C 115.029 -3.19445 1.40555 0
M  V30 1186 C 116.377 -3.95171 1.55323 0
M  V30 1187 O 117.401 -3.28976 1.36577 0
M  V30 1188 O 116.26 -5.13833 1.86112 0
M  V30 1189 H 113.354 -0.788954 0.247951 0
M  V30 1190 H 115.9 -1.23179 1.16726 0
M  V30 1191 H 114.672 -3.05856 2.44065 0
M  V30 1192 H 114.295 -3.86625 0.927733 0
M  V30 1193 N 115.292 -0.849877 -1.32721 0
M  V30 1194 C 116.222 -0.306308 -2.31482 0
M  V30 1195 C 117.203 0.591952 -1.59468 0
M  V30 1196 O 118.388 0.513199 -1.87296 0
M  V30 1197 C 115.518 0.510204 -3.43532 0
M  V30 1198 C 114.472 -0.293209 -4.26994 0
M  V30 1199 C 113.798 0.647743 -5.30762 0
M  V30 1200 C 115.098 -1.51634 -4.99804 0
M  V30 1201 H 116.792 -1.13153 -2.77195 0
M  V30 1202 H 114.338 -0.545553 -1.33266 0
M  V30 1203 H 116.291 0.900856 -4.11658 0
M  V30 1204 H 115.015 1.36874 -2.96535 0
M  V30 1205 H 113.674 -0.665555 -3.60508 0
M  V30 1206 H 113.322 1.50299 -4.8002 0
M  V30 1207 H 113.022 0.11422 -5.87489 0
M  V30 1208 H 114.546 1.03567 -6.01753 0
M  V30 1209 H 115.96 -1.19824 -5.60638 0
M  V30 1210 H 114.357 -1.98745 -5.66234 0
M  V30 1211 H 115.427 -2.28018 -4.27943 0
M  V30 1212 N 116.77 1.45427 -0.607355 0
M  V30 1213 C 118.019 2.01452 -0.100036 0
M  V30 1214 C 118.332 1.48159 1.27704 0
M  V30 1215 O 119.538 1.96159 1.87707 0
M  V30 1216 C 117.994 3.59672 -0.128158 0
M  V30 1217 C 117.602 4.21962 -1.50507 0
M  V30 1218 C 119.346 4.23262 0.323932 0
M  V30 1219 C 117.253 5.72333 -1.48959 0
M  V30 1220 H 116.183 0.75325 -0.0336299 0
M  V30 1221 H 118.834 1.66901 -0.76265 0
M  V30 1222 H 117.216 3.91411 0.601105 0
M  V30 1223 H 118.39 4.01796 -2.25602 0
M  V30 1224 H 116.705 3.70565 -1.89923 0
M  V30 1225 H 119.302 5.33522 0.354691 0
M  V30 1226 H 119.645 3.93921 1.34656 0
M  V30 1227 H 120.178 3.96239 -0.352056 0
M  V30 1228 H 116.917 6.06373 -2.48981 0
M  V30 1229 H 116.437 5.94691 -0.781214 0
M  V30 1230 H 118.116 6.35525 -1.21313 0
M  V30 1231 N 118.248 0.346503 1.53744 0
M  V30 1232 C 119.497 -0.250122 2.00143 0
M  V30 1233 C 119.81 -1.51418 1.23822 0
M  V30 1234 O 121.016 -2.18823 1.60713 0
M  V30 1235 C 119.472 -0.496252 3.56462 0
M  V30 1236 C 119.08 0.752077 4.41642 0
M  V30 1237 C 120.824 -1.05157 4.11269 0
M  V30 1238 C 118.731 0.476583 5.89477 0
M  V30 1239 H 117.661 -0.0972409 0.747703 0
M  V30 1240 H 120.312 0.46229 1.77581 0
M  V30 1241 H 118.694 -1.26944 3.75102 0
M  V30 1242 H 119.868 1.5266 4.34778 0
M  V30 1243 H 118.183 1.22925 3.97842 0
M  V30 1244 H 120.78 -1.27269 5.19333 0
M  V30 1245 H 121.123 -2.00799 3.64672 0
M  V30 1246 H 121.656 -0.339019 3.96353 0
M  V30 1247 H 118.395 1.4028 6.40314 0
M  V30 1248 H 117.915 -0.259794 5.99237 0
M  V30 1249 H 119.594 0.0949315 6.4693 0
M  V30 1250 N 119.726 -1.57421 0.075193 0
M  V30 1251 C 120.974 -1.93236 -0.591974 0
M  V30 1252 C 121.295 -0.956241 -1.69944 0
M  V30 1253 O 120.565 -0.00494792 -1.95899 0
M  V30 1254 H 119.145 -0.713355 -0.22166 0
M  V30 1255 H 121.807 -1.9444 0.133848 0
M  V30 1256 H 120.903 -2.95131 -1.01509 0
M  V30 1257 N 121.204 0.198386 -1.56346 0
M  V30 1258 C 122.167 1.22952 -1.93431 0
M  V30 1259 C 123.167 1.38611 -0.815092 0
M  V30 1260 O 124.357 1.36479 -1.08255 0
M  V30 1261 C 121.489 2.59946 -2.20546 0
M  V30 1262 H 122.682 0.912626 -2.85677 0
M  V30 1263 H 120.235 0.43977 -1.49986 0
M  V30 1264 H 120.97 2.96696 -1.30927 0
M  V30 1265 H 120.755 2.49953 -3.02102 0
M  V30 1266 H 122.245 3.3431 -2.50253 0
M  V30 1267 N 122.682 1.50554 0.465978 0
M  V30 1268 C 123.929 1.61798 1.21768 0
M  V30 1269 C 124.257 0.320696 1.91838 0
M  V30 1270 O 123.512 -0.693724 1.82992 0
M  V30 1271 C 123.811 2.75152 2.28093 0
M  V30 1272 C 123.477 4.15454 1.75239 0
M  V30 1273 C 122.139 4.53628 1.60546 0
M  V30 1274 C 124.491 5.03121 1.36083 0
M  V30 1275 C 121.819 5.77204 1.05128 0
M  V30 1276 C 124.171 6.27249 0.821056 0
M  V30 1277 C 122.835 6.64221 0.660795 0
M  V30 1278 H 122.105 0.592063 0.445582 0
M  V30 1279 H 124.752 1.84503 0.512927 0
M  V30 1280 H 123.057 2.46556 3.04496 0
M  V30 1281 H 124.754 2.81055 2.86023 0
M  V30 1282 H 121.344 3.85341 1.87644 0
M  V30 1283 H 125.528 4.74257 1.46267 0
M  V30 1284 H 120.784 6.0452 0.91462 0
M  V30 1285 H 124.958 6.94537 0.509018 0
M  V30 1286 H 122.585 7.59854 0.229226 0
M  V30 1287 N 124.16 -0.719506 1.40217 0
M  V30 1288 C 125.385 -1.51371 1.4178 0
M  V30 1289 C 125.81 -1.88091 0.0182355 0
M  V30 1290 O 125.168 -1.52997 -0.972707 0
M  V30 1291 C 125.216 -2.768 2.31115 0
M  V30 1292 O 124.32 -3.73349 1.7517 0
M  V30 1293 H 123.661 -0.456529 0.482159 0
M  V30 1294 H 126.191 -0.88644 1.844 0
M  V30 1295 H 126.201 -3.25371 2.46167 0
M  V30 1296 H 124.876 -2.49407 3.3282 0
M  V30 1297 H 123.453 -3.32179 1.69444 0
M  V30 1298 N 125.638 -1.25649 -0.95132 0
M  V30 1299 C 126.571 -1.00644 -2.04807 0
M  V30 1300 C 127.549 0.0654271 -1.62468 0
M  V30 1301 O 128.733 -0.074911 -1.88351 0
M  V30 1302 C 125.86 -0.522052 -3.34653 0
M  V30 1303 C 124.906 -1.58495 -3.95957 0
M  V30 1304 S 125.739 -3.17108 -4.31512 0
M  V30 1305 C 126.895 -2.70412 -5.64471 0
M  V30 1306 H 127.128 -1.93508 -2.25703 0
M  V30 1307 H 124.661 -1.09216 -1.09139 0
M  V30 1308 H 126.619 -0.24923 -4.09743 0
M  V30 1309 H 125.28 0.386146 -3.11717 0
M  V30 1310 H 124.473 -1.1968 -4.89584 0
M  V30 1311 H 124.075 -1.80862 -3.2736 0
M  V30 1312 H 126.367 -2.14245 -6.42733 0
M  V30 1313 H 127.31 -3.62693 -6.08161 0
M  V30 1314 H 127.718 -2.10302 -5.23864 0
M  V30 1315 N 127.117 1.15442 -1.07289 0
M  V30 1316 C 128.065 2.22225 -0.686952 0
M  V30 1317 C 129.059 1.66688 0.30193 0
M  V30 1318 O 130.265 1.79236 0.165712 0
M  V30 1319 H 126.64 0.723783 -0.204064 0
M  V30 1320 H 128.611 2.52056 -1.5972 0
M  V30 1321 C 127.36 3.47556 -0.100149 0
M  V30 1322 H 126.683 3.90612 -0.852211 0
M  V30 1323 H 128.123 4.23794 0.132235 0
M  V30 1324 C 126.582 3.16337 1.159 0
M  V30 1325 O 127.112 3.33074 2.24555 0
M  V30 1326 N 125.318 2.70385 1.06491 0
M  V30 1327 H 124.865 2.56966 0.180668 0
M  V30 1328 H 124.823 2.49871 1.90819 0
M  V30 1329 N 128.595 0.856903 1.32268 0
M  V30 1330 C 129.525 0.31858 2.31316 0
M  V30 1331 C 130.506 -0.583487 1.59779 0
M  V30 1332 O 131.691 -0.503259 1.87566 0
M  V30 1333 C 128.821 -0.491979 3.43798 0
M  V30 1334 C 127.775 0.315849 4.26833 0
M  V30 1335 C 127.101 -0.619586 5.31098 0
M  V30 1336 C 128.401 1.54282 4.98993 0
M  V30 1337 H 130.095 1.14621 2.76591 0
M  V30 1338 H 127.641 0.552613 1.32974 0
M  V30 1339 H 129.594 -0.879012 4.1213 0
M  V30 1340 H 128.318 -1.35299 2.97257 0
M  V30 1341 H 126.977 0.684664 3.6015 0
M  V30 1342 H 126.625 -1.47751 4.8081 0
M  V30 1343 H 126.325 -0.0830621 5.87541 0
M  V30 1344 H 127.849 -1.00375 6.02293 0
M  V30 1345 H 129.263 1.22796 5.59995 0
M  V30 1346 H 127.66 2.01745 5.65172 0
M  V30 1347 H 128.73 2.30285 4.26728 0
M  V30 1348 N 130.073 -1.45103 0.615059 0
M  V30 1349 C 131.303 -2.06254 0.119596 0
M  V30 1350 C 131.711 -1.4591 -1.20445 0
M  V30 1351 O 131.054 -0.570384 -1.7462 0
M  V30 1352 C 131.116 -3.59396 -0.0865591 0
M  V30 1353 C 130.78 -4.42116 1.15683 0
M  V30 1354 C 131.777 -4.7662 2.07676 0
M  V30 1355 C 129.462 -4.82749 1.38775 0
M  V30 1356 C 131.456 -5.50622 3.21082 0
M  V30 1357 C 129.143 -5.56504 2.52481 0
M  V30 1358 C 130.141 -5.90358 3.43463 0
M  V30 1359 O 129.829 -6.62615 4.55189 0
M  V30 1360 H 129.561 -0.672423 0.0694512 0
M  V30 1361 H 132.115 -1.87219 0.844885 0
M  V30 1362 H 130.345 -3.76859 -0.866823 0
M  V30 1363 H 132.034 -4.02365 -0.534555 0
M  V30 1364 H 132.8 -4.4578 1.91063 0
M  V30 1365 H 128.679 -4.55829 0.688545 0
M  V30 1366 H 132.223 -5.76965 3.92119 0
M  V30 1367 H 128.12 -5.86759 2.69043 0
M  V30 1368 H 128.888 -6.81071 4.53966 0
M  V30 1369 N 131.551 -0.354651 -1.53558 0
M  V30 1370 C 132.779 0.239515 -2.05509 0
M  V30 1371 C 133.194 1.4333 -1.2289 0
M  V30 1372 O 132.551 1.80538 -0.266899 0
M  V30 1373 C 132.602 0.643719 -3.55723 0
M  V30 1374 O 132.323 -0.502602 -4.35207 0
M  V30 1375 C 133.824 1.29743 -4.23889 0
M  V30 1376 H 131.044 0.0442697 -0.669538 0
M  V30 1377 H 133.588 -0.509856 -1.98042 0
M  V30 1378 H 131.743 1.34302 -3.63376 0
M  V30 1379 H 132.157 -0.178172 -5.24197 0
M  V30 1380 H 133.631 1.53091 -5.30346 0
M  V30 1381 H 134.108 2.25441 -3.76926 0
M  V30 1382 H 134.714 0.639865 -4.20459 0
M  V30 1383 N 133.029 1.57378 -0.0835403 0
M  V30 1384 C 134.275 1.94217 0.583733 0
M  V30 1385 C 134.608 0.964653 1.68547 0
M  V30 1386 O 133.883 -0.00422258 1.945 0
M  V30 1387 C 134.166 3.41253 1.14972 0
M  V30 1388 C 134.019 4.49768 0.0538277 0
M  V30 1389 C 135.338 3.89352 2.05166 0
M  V30 1390 H 132.457 0.706233 0.210724 0
M  V30 1391 H 135.099 1.89392 -0.1519 0
M  V30 1392 H 133.249 3.45496 1.77665 0
M  V30 1393 H 134.921 4.57641 -0.579851 0
M  V30 1394 H 133.164 4.29432 -0.614068 0
M  V30 1395 H 133.835 5.49817 0.490452 0
M  V30 1396 H 136.311 3.87189 1.52393 0
M  V30 1397 H 135.187 4.92822 2.41698 0
M  V30 1398 H 135.448 3.27973 2.96456 0
M  V30 1399 N 134.507 -0.190092 1.56449 0
M  V30 1400 C 135.737 -0.92443 1.84764 0
M  V30 1401 C 136.145 -1.77146 0.664529 0
M  V30 1402 O 135.488 -1.79812 -0.375957 0
M  V30 1403 C 135.55 -1.86651 3.07248 0
M  V30 1404 C 135.214 -1.20094 4.40938 0
M  V30 1405 C 136.211 -0.575445 5.16706 0
M  V30 1406 C 133.896 -1.2033 4.87674 0
M  V30 1407 C 135.89 0.0388111 6.37388 0
M  V30 1408 C 133.577 -0.585214 6.08291 0
M  V30 1409 C 134.575 0.0347578 6.82991 0
M  V30 1410 O 134.263 0.643147 8.01323 0
M  V30 1411 H 133.995 -0.274974 0.617548 0
M  V30 1412 H 136.549 -0.200788 2.04416 0
M  V30 1413 H 134.779 -2.62998 2.83494 0
M  V30 1414 H 136.468 -2.46907 3.22167 0
M  V30 1415 H 137.234 -0.565728 4.81689 0
M  V30 1416 H 133.113 -1.67526 4.29484 0
M  V30 1417 H 136.657 0.523329 6.95634 0
M  V30 1418 H 132.554 -0.592451 6.42775 0
M  V30 1419 H 133.322 0.540545 8.16713 0
M  V30 1420 N 135.985 -1.50799 -0.457987 0
M  V30 1421 C 137.234 -1.6168 -1.20593 0
M  V30 1422 C 137.547 -0.32888 -1.92815 0
M  V30 1423 O 138.753 -0.316773 -2.69646 0
M  V30 1424 C 137.209 -2.8545 -2.19195 0
M  V30 1425 C 136.817 -4.21168 -1.52715 0
M  V30 1426 C 138.561 -3.05681 -2.94549 0
M  V30 1427 C 136.468 -5.3611 -2.4968 0
M  V30 1428 H 135.398 -0.602134 -0.453818 0
M  V30 1429 H 138.049 -1.77245 -0.475031 0
M  V30 1430 H 136.431 -2.63472 -2.95632 0
M  V30 1431 H 137.605 -4.53449 -0.819775 0
M  V30 1432 H 135.92 -4.06648 -0.895922 0
M  V30 1433 H 138.517 -3.88727 -3.67145 0
M  V30 1434 H 138.86 -2.17929 -3.54701 0
M  V30 1435 H 139.393 -3.27901 -2.25223 0
M  V30 1436 H 136.132 -6.26057 -1.94249 0
M  V30 1437 H 135.652 -5.0823 -3.18532 0
M  V30 1438 H 137.331 -5.6722 -3.11241 0
M  V30 1439 N 137.463 0.71206 -1.40597 0
M  V30 1440 C 138.712 1.46754 -1.38369 0
M  V30 1441 C 139.025 1.95598 0.0097839 0
M  V30 1442 O 140.231 2.71059 0.154677 0
M  V30 1443 C 138.687 2.65289 -2.43207 0
M  V30 1444 C 138.295 2.23301 -3.88382 0
M  V30 1445 C 140.039 3.43008 -2.50091 0
M  V30 1446 C 137.946 3.38696 -4.84808 0
M  V30 1447 H 136.876 0.55118 -0.514506 0
M  V30 1448 H 139.527 0.774616 -1.66349 0
M  V30 1449 H 137.909 3.36769 -2.08332 0
M  V30 1450 H 139.083 1.59218 -4.32419 0
M  V30 1451 H 137.398 1.58618 -3.85006 0
M  V30 1452 H 139.995 4.28881 -3.1932 0
M  V30 1453 H 140.338 3.87065 -1.53253 0
M  V30 1454 H 140.871 2.78574 -2.83974 0
M  V30 1455 H 137.61 2.99668 -5.82992 0
M  V30 1456 H 137.13 4.01683 -4.45433 0
M  V30 1457 H 138.809 4.04712 -5.04794 0
M  V30 1458 N 138.941 1.26152 0.944643 0
M  V30 1459 C 139.888 1.07408 2.04285 0
M  V30 1460 C 140.858 -0.0198413 1.66088 0
M  V30 1461 O 142.043 0.139264 1.90291 0
M  V30 1462 C 139.183 0.70945 3.37729 0
M  V30 1463 C 138.296 1.87926 3.88983 0
M  V30 1464 C 137.431 1.45807 5.10797 0
M  V30 1465 C 136.47 2.5964 5.54305 0
M  V30 1466 N 135.607 2.18226 6.67324 0
M  V30 1467 H 140.447 2.01389 2.1965 0
M  V30 1468 H 137.984 1.00275 1.07626 0
M  V30 1469 H 139.942 0.478948 4.14442 0
M  V30 1470 H 138.572 -0.193389 3.2222 0
M  V30 1471 H 137.624 2.22279 3.08701 0
M  V30 1472 H 138.936 2.73377 4.17213 0
M  V30 1473 H 138.09 1.18781 5.94959 0
M  V30 1474 H 136.829 0.574414 4.84305 0
M  V30 1475 H 135.834 2.87399 4.68702 0
M  V30 1476 H 137.059 3.48599 5.828 0
M  V30 1477 H 135.005 1.3229 6.42523 0
M  V30 1478 H 134.922 2.97221 6.95123 0
M  V30 1479 H 136.19 1.94403 7.54869 0
M  V30 1480 N 140.419 -1.14872 1.07899 0
M  V30 1481 C 141.667 -1.85422 0.803941 0
M  V30 1482 C 141.988 -1.83051 -0.67211 0
M  V30 1483 O 141.258 -1.27532 -1.48703 0
M  V30 1484 H 139.838 -0.686537 0.294408 0
M  V30 1485 H 142.5 -1.39226 1.3639 0
M  V30 1486 H 141.596 -2.90399 1.14346 0
M  V30 1487 N 141.898 -0.863906 -1.31812 0
M  V30 1488 C 143.128 -0.485406 -2.00817 0
M  V30 1489 C 143.536 0.925007 -1.65046 0
M  V30 1490 O 142.879 1.61653 -0.872574 0
M  V30 1491 C 142.941 -0.555589 -3.55181 0
M  V30 1492 C 142.605 -1.92654 -4.14407 0
M  V30 1493 C 143.602 -2.89324 -4.31958 0
M  V30 1494 C 141.287 -2.2262 -4.50273 0
M  V30 1495 C 143.281 -4.14108 -4.84555 0
M  V30 1496 C 140.968 -3.47654 -5.02573 0
M  V30 1497 C 141.966 -4.43214 -5.19664 0
M  V30 1498 O 141.654 -5.66033 -5.70843 0
M  V30 1499 H 141.386 -0.188224 -0.649267 0
M  V30 1500 H 143.94 -1.16514 -1.69156 0
M  V30 1501 H 142.17 0.181037 -3.86276 0
M  V30 1502 H 143.859 -0.19138 -4.05449 0
M  V30 1503 H 144.625 -2.6748 -4.04573 0
M  V30 1504 H 140.504 -1.4902 -4.3625 0
M  V30 1505 H 144.048 -4.88703 -4.9781 0
M  V30 1506 H 139.945 -3.69345 -5.29391 0
M  V30 1507 H 140.713 -5.6812 -5.89222 0
M  V30 1508 N 143.376 1.44774 -0.622745 0
M  V30 1509 C 144.622 2.02968 -0.13257 0
M  V30 1510 C 144.977 1.48047 1.22881 0
M  V30 1511 O 144.27 0.651625 1.80179 0
M  V30 1512 C 144.464 3.57364 -0.0508323 0
M  V30 1513 C 144.293 4.27262 -1.40275 0
M  V30 1514 C 143.063 4.64577 -1.98737 0
M  V30 1515 C 145.261 4.58248 -2.3348 0
M  V30 1516 N 143.243 5.19404 -3.27251 0
M  V30 1517 C 144.614 5.14069 -3.46603 0
M  V30 1518 C 146.669 4.40195 -2.32664 0
M  V30 1519 C 145.372 5.53738 -4.59093 0
M  V30 1520 C 147.398 4.80907 -3.44213 0
M  V30 1521 C 146.76 5.36834 -4.56058 0
M  V30 1522 H 142.859 0.776541 -0.0922354 0
M  V30 1523 H 145.443 1.76385 -0.82441 0
M  V30 1524 H 143.614 3.83576 0.610265 0
M  V30 1525 H 145.346 4.02219 0.447397 0
M  V30 1526 H 142.101 4.48622 -1.51774 0
M  V30 1527 H 142.525 5.51301 -3.92933 0
M  V30 1528 H 147.167 3.96257 -1.47446 0
M  V30 1529 H 144.885 5.96635 -5.45025 0
M  V30 1530 H 148.471 4.68659 -3.44747 0
M  V30 1531 H 147.351 5.67755 -5.40947 0
M  V30 1532 N 144.854 0.36279 1.53368 0
M  V30 1533 C 146.265 -0.117022 1.86333 0
M  V30 1534 C 146.616 -1.48397 1.28347 0
M  V30 1535 O 145.741 -2.07787 0.604428 0
M  V30 1536 C 146.336 -0.21912 3.38091 0
M  V30 1537 C 144.895 -0.643184 3.70864 0
M  V30 1538 C 144.042 0.211318 2.76494 0
M  V30 1539 H 146.993 0.581687 1.47655 0
M  V30 1540 H 147.014 -1.04319 3.6592 0
M  V30 1541 H 146.526 0.775902 3.80265 0
M  V30 1542 H 144.627 -1.64654 3.34245 0
M  V30 1543 H 144.74 -0.41973 4.77258 0
M  V30 1544 H 143.104 -0.319367 2.5269 0
M  V30 1545 H 143.887 1.20383 3.21501 0
M  V30 1546 N 146.332 -1.57332 0.0918853 0
M  V30 1547 C 147.262 -2.16872 -0.865371 0
M  V30 1548 C 148.243 -1.10118 -1.29646 0
M  V30 1549 O 149.428 -1.38242 -1.36392 0
M  V30 1550 C 146.558 -2.74649 -2.12569 0
M  V30 1551 C 145.512 -3.86747 -1.83333 0
M  V30 1552 C 144.838 -4.31212 -3.16166 0
M  V30 1553 C 146.138 -5.10089 -1.1228 0
M  V30 1554 H 147.832 -2.97114 -0.369307 0
M  V30 1555 H 145.378 -1.42918 -0.176194 0
M  V30 1556 H 147.331 -3.14952 -2.7997 0
M  V30 1557 H 146.055 -1.91657 -2.64452 0
M  V30 1558 H 144.714 -3.46978 -1.18331 0
M  V30 1559 H 144.362 -3.45115 -3.6593 0
M  V30 1560 H 144.062 -5.06788 -2.97388 0
M  V30 1561 H 145.586 -4.74146 -3.84731 0
M  V30 1562 H 147 -5.47582 -1.69785 0
M  V30 1563 H 145.397 -5.91073 -1.03693 0
M  V30 1564 H 146.467 -4.84786 -0.105041 0
M  V30 1565 N 147.81 0.181792 -1.56548 0
M  V30 1566 C 149.058 0.89832 -1.81038 0
M  V30 1567 C 149.379 1.83232 -0.667164 0
M  V30 1568 O 148.649 1.93372 0.313673 0
M  V30 1569 H 147.229 0.33471 -0.667816 0
M  V30 1570 H 149.891 0.184116 -1.94028 0
M  V30 1571 H 148.987 1.4815 -2.74696 0
M  V30 1572 N 149.288 1.51039 0.449983 0
M  V30 1573 C 150.251 1.70863 1.5277 0
M  V30 1574 C 151.251 0.578846 1.5002 0
M  V30 1575 O 152.441 0.846213 1.52266 0
M  V30 1576 C 149.573 1.75341 2.9235 0
M  V30 1577 H 150.766 2.67034 1.36502 0
M  V30 1578 H 148.319 1.40838 0.677812 0
M  V30 1579 H 149.054 0.809383 3.14037 0
M  V30 1580 H 148.839 2.57436 2.95752 0
M  V30 1581 H 150.329 1.92559 3.70555 0
M  V30 1582 N 150.766 -0.704594 1.40972 0
M  V30 1583 C 152.012 -1.46675 1.40051 0
M  V30 1584 C 152.345 -1.94199 0.00641102 0
M  V30 1585 O 151.62 -1.68916 -0.964235 0
M  V30 1586 C 151.903 -2.68505 2.39952 0
M  V30 1587 C 151.756 -2.26805 3.88432 0
M  V30 1588 C 153.075 -3.70686 2.37233 0
M  V30 1589 H 150.194 -0.532015 0.510028 0
M  V30 1590 H 152.836 -0.803255 1.72185 0
M  V30 1591 H 150.986 -3.25114 2.1268 0
M  V30 1592 H 152.658 -1.75592 4.26574 0
M  V30 1593 H 150.901 -1.58685 4.03734 0
M  V30 1594 H 151.572 -3.14181 4.53866 0
M  V30 1595 H 154.048 -3.23731 2.61415 0
M  V30 1596 H 152.924 -4.53553 3.09162 0
M  V30 1597 H 153.185 -4.19754 1.38777 0
M  V30 1598 N 152.244 -1.26651 -0.937939 0
M  V30 1599 C 153.49 -1.12553 -1.687 0
M  V30 1600 C 153.823 0.329782 -1.91379 0
M  V30 1601 O 153.098 1.24202 -1.4968 0
M  V30 1602 C 153.381 -1.89862 -3.05981 0
M  V30 1603 C 153.234 -3.43318 -2.90607 0
M  V30 1604 C 154.553 -1.69499 -4.0615 0
M  V30 1605 H 151.672 -0.410257 -0.612257 0
M  V30 1606 H 154.314 -1.55685 -1.08913 0
M  V30 1607 H 152.464 -1.53204 -3.57017 0
M  V30 1608 H 154.136 -3.89747 -2.46769 0
M  V30 1609 H 152.379 -3.70179 -2.26164 0
M  V30 1610 H 153.05 -3.92642 -3.8799 0
M  V30 1611 H 155.526 -2.01442 -3.64088 0
M  V30 1612 H 154.402 -2.26002 -5.00214 0
M  V30 1613 H 154.663 -0.640365 -4.37438 0
M  V30 1614 N 153.722 1.14298 -1.08507 0
M  V30 1615 C 154.962 1.87016 -0.824894 0
M  V30 1616 C 155.326 1.81099 0.637735 0
M  V30 1617 O 156.527 2.48963 1.01345 0
M  V30 1618 C 154.798 3.31584 -1.33368 0
M  V30 1619 S 156.357 4.21903 -1.20596 0
M  V30 1620 H 153.175 0.645259 -0.2986 0
M  V30 1621 H 155.777 1.37822 -1.38656 0
M  V30 1622 H 154.481 3.33439 -2.39262 0
M  V30 1623 H 154.012 3.85836 -0.767734 0
M  V30 1624 H 156.027 4.95971 -0.150891 0
M  V30 1625 N 155.201 0.870884 1.31352 0
M  V30 1626 C 156.478 0.402907 1.91405 0
M  V30 1627 C 156.858 -1.11512 1.79244 0
M  V30 1628 O 156.206 -1.94411 1.2007 0
M  V30 1629 C 156.416 0.885301 3.37585 0
M  V30 1630 C 157.764 0.911971 4.14691 0
M  V30 1631 O 158.788 0.831016 3.46371 0
M  V30 1632 O 157.647 1.02927 5.3672 0
M  V30 1633 H 154.741 0.120698 0.818145 0
M  V30 1634 H 157.287 0.958857 1.40014 0
M  V30 1635 H 156.059 1.92889 3.40455 0
M  V30 1636 H 155.682 0.307714 3.96407 0
M  V30 1637 N 156.679 -1.44442 0.630414 0
M  V30 1638 C 157.609 -2.33418 -0.0618083 0
M  V30 1639 C 158.59 -1.48165 -0.835541 0
M  V30 1640 O 159.775 -1.76886 -0.801564 0
M  V30 1641 C 156.905 -3.31222 -1.04449 0
M  V30 1642 C 155.859 -4.26288 -0.382436 0
M  V30 1643 C 155.185 -5.13954 -1.47497 0
M  V30 1644 C 156.485 -5.1744 0.710865 0
M  V30 1645 H 158.179 -2.91548 0.681184 0
M  V30 1646 H 155.725 -1.40191 0.329026 0
M  V30 1647 H 157.678 -3.92351 -1.53748 0
M  V30 1648 H 156.402 -2.71299 -1.81836 0
M  V30 1649 H 155.061 -3.6649 0.0899054 0
M  V30 1650 H 154.709 -4.50385 -2.2397 0
M  V30 1651 H 154.409 -5.7837 -1.03737 0
M  V30 1652 H 155.933 -5.77955 -1.96979 0
M  V30 1653 H 157.347 -5.72509 0.300996 0
M  V30 1654 H 155.744 -5.90455 1.07156 0
M  V30 1655 H 156.814 -4.58496 1.57829 0
M  V30 1656 N 158.157 -0.370918 -1.53173 0
M  V30 1657 C 159.403 0.209976 -2.02313 0
M  V30 1658 C 159.758 1.45987 -1.25322 0
M  V30 1659 O 159.051 1.8856 -0.339965 0
M  V30 1660 C 159.245 0.549696 -3.53147 0
M  V30 1661 C 159.074 -0.665721 -4.44745 0
M  V30 1662 C 157.844 -1.17942 -4.91343 0
M  V30 1663 C 160.042 -1.53255 -4.90935 0
M  V30 1664 N 158.024 -2.35431 -5.66962 0
M  V30 1665 C 159.395 -2.55403 -5.64951 0
M  V30 1666 C 161.45 -1.5548 -4.73002 0
M  V30 1667 C 160.153 -3.5964 -6.22938 0
M  V30 1668 C 162.179 -2.58613 -5.31858 0
M  V30 1669 C 161.541 -3.59485 -6.05764 0
M  V30 1670 H 157.64 0.0394095 -0.781006 0
M  V30 1671 H 160.224 -0.516666 -1.8772 0
M  V30 1672 H 158.395 1.24541 -3.67891 0
M  V30 1673 H 160.127 1.11614 -3.89004 0
M  V30 1674 H 156.882 -0.743228 -4.67732 0
M  V30 1675 H 157.306 -2.94827 -6.09431 0
M  V30 1676 H 161.948 -0.788457 -4.15383 0
M  V30 1677 H 159.666 -4.37153 -6.79649 0
M  V30 1678 H 163.252 -2.61195 -5.19873 0
M  V30 1679 H 162.132 -4.3798 -6.50495 0
M  V30 1680 N 159.635 1.57281 -0.100228 0
M  V30 1681 C 160.565 2.17328 0.853857 0
M  V30 1682 C 161.546 1.10804 1.2906 0
M  V30 1683 O 162.731 1.38963 1.35657 0
M  V30 1684 C 159.861 2.75772 2.11109 0
M  V30 1685 C 158.815 3.87713 1.81279 0
M  V30 1686 C 158.141 4.32882 3.13874 0
M  V30 1687 C 159.441 5.10677 1.09574 0
M  V30 1688 H 161.135 2.97305 0.353545 0
M  V30 1689 H 158.681 1.43009 0.168612 0
M  V30 1690 H 160.634 3.16433 2.78296 0
M  V30 1691 H 159.358 1.93057 2.63432 0
M  V30 1692 H 158.017 3.476 1.16489 0
M  V30 1693 H 157.665 3.47051 3.64095 0
M  V30 1694 H 157.365 5.08358 2.94696 0
M  V30 1695 H 158.889 4.7618 3.82211 0
M  V30 1696 H 160.303 5.48474 1.66879 0
M  V30 1697 H 158.7 5.91615 1.00557 0
M  V30 1698 H 159.77 4.84835 0.0793299 0
M  V30 1699 N 161.113 -0.173488 1.56642 0
M  V30 1700 C 162.076 -1.19859 1.95362 0
M  V30 1701 C 163.076 -1.37296 0.83704 0
M  V30 1702 O 164.266 -1.34739 1.10413 0
M  V30 1703 C 161.398 -2.56405 2.24654 0
M  V30 1704 H 162.591 -0.867062 2.87092 0
M  V30 1705 H 160.144 -0.415853 1.50666 0
M  V30 1706 H 160.879 -2.94576 1.35631 0
M  V30 1707 H 160.664 -2.45115 3.06041 0
M  V30 1708 H 162.154 -3.30287 2.5554 0
M  V30 1709 N 162.591 -1.51276 -0.441967 0
M  V30 1710 C 163.521 -1.752 -1.54361 0
M  V30 1711 C 164.502 -0.601682 -1.59103 0
M  V30 1712 O 165.687 -0.843913 -1.74905 0
M  V30 1713 C 162.817 -1.87282 -2.92477 0
M  V30 1714 C 161.771 -3.02687 -3.02596 0
M  V30 1715 C 161.097 -2.99947 -4.42647 0
M  V30 1716 C 162.397 -4.4273 -2.77106 0
M  V30 1717 H 164.091 -2.67442 -1.34592 0
M  V30 1718 H 161.637 -1.28694 -0.646048 0
M  V30 1719 H 163.59 -2.02602 -3.695 0
M  V30 1720 H 162.314 -0.916844 -3.13467 0
M  V30 1721 H 160.973 -2.87065 -2.28012 0
M  V30 1722 H 160.621 -2.02136 -4.60597 0
M  V30 1723 H 160.321 -3.77439 -4.50348 0
M  V30 1724 H 161.845 -3.17354 -5.2165 0
M  V30 1725 H 163.259 -4.58727 -3.43864 0
M  V30 1726 H 161.656 -5.21893 -2.96222 0
M  V30 1727 H 162.726 -4.53087 -1.72744 0
M  V30 1728 N 164.069 0.697108 -1.41344 0
M  V30 1729 C 165.346 1.45154 -1.31109 0
M  V30 1730 C 165.726 2.11009 0.0620449 0
M  V30 1731 O 165.074 2.01571 1.07618 0
M  V30 1732 C 165.284 2.47223 -2.46337 0
M  V30 1733 C 166.632 3.1252 -2.87431 0
M  V30 1734 O 167.656 2.57547 -2.46065 0
M  V30 1735 O 166.515 4.12083 -3.58957 0
M  V30 1736 H 163.609 0.646365 -0.515889 0
M  V30 1737 H 166.155 0.727716 -1.53305 0
M  V30 1738 H 164.927 1.97204 -3.37974 0
M  V30 1739 H 164.55 3.27116 -2.2601 0
M  V30 1740 N 165.547 1.27147 0.931209 0
M  V30 1741 C 166.777 1.15914 1.71019 0
M  V30 1742 C 167.185 -0.287112 1.87009 0
M  V30 1743 O 166.528 -1.20761 1.38429 0
M  V30 1744 C 166.59 1.76647 3.13107 0
M  V30 1745 C 166.254 3.25807 3.20467 0
M  V30 1746 C 167.251 4.22489 3.02983 0
M  V30 1747 C 164.936 3.66452 3.43538 0
M  V30 1748 C 166.93 5.57794 3.08454 0
M  V30 1749 C 164.617 5.01888 3.48643 0
M  V30 1750 C 165.615 5.97369 3.31119 0
M  V30 1751 O 165.303 7.30337 3.35952 0
M  V30 1752 H 165.035 0.404062 0.54195 0
M  V30 1753 H 167.589 1.68457 1.17521 0
M  V30 1754 H 165.819 1.18578 3.68071 0
M  V30 1755 H 167.508 1.60179 3.72958 0
M  V30 1756 H 168.274 3.92425 2.85004 0
M  V30 1757 H 164.153 2.92611 3.5623 0
M  V30 1758 H 167.697 6.32298 2.94694 0
M  V30 1759 H 163.594 5.31609 3.66145 0
M  V30 1760 H 164.362 7.38739 3.5243 0
M  V30 1761 N 167.025 -1.13721 1.09112 0
M  V30 1762 C 168.271 -1.85198 0.826414 0
M  V30 1763 C 168.604 -1.83129 -0.646319 0
M  V30 1764 O 167.879 -1.2671 -1.47563 0
M  V30 1765 C 168.162 -3.33507 1.35812 0
M  V30 1766 C 168.015 -3.44108 2.89672 0
M  V30 1767 C 169.334 -4.28838 0.989256 0
M  V30 1768 H 166.453 -0.67243 0.301675 0
M  V30 1769 H 169.095 -1.33499 1.35197 0
M  V30 1770 H 167.245 -3.77666 0.911082 0
M  V30 1771 H 168.917 -3.08684 3.428 0
M  V30 1772 H 167.16 -2.85087 3.26967 0
M  V30 1773 H 167.831 -4.48388 3.21951 0
M  V30 1774 H 170.307 -3.92734 1.37475 0
M  V30 1775 H 169.183 -5.31051 1.38838 0
M  V30 1776 H 169.444 -4.4198 -0.102924 0
M  V30 1777 N 168.503 -0.877838 -1.30888 0
M  V30 1778 C 169.749 -0.493426 -1.96706 0
M  V30 1779 C 170.082 0.953504 -1.6918 0
M  V30 1780 O 169.357 1.67266 -0.992594 0
M  V30 1781 C 169.64 -0.760429 -3.51979 0
M  V30 1782 C 169.493 -2.25747 -3.89048 0
M  V30 1783 C 170.812 -0.232148 -4.39487 0
M  V30 1784 H 167.931 -0.180746 -0.714493 0
M  V30 1785 H 170.573 -1.10052 -1.54882 0
M  V30 1786 H 168.723 -0.243715 -3.87735 0
M  V30 1787 H 170.395 -2.84204 -3.63354 0
M  V30 1788 H 168.638 -2.72694 -3.37373 0
M  V30 1789 H 169.309 -2.39491 -4.97341 0
M  V30 1790 H 171.785 -0.674314 -4.106 0
M  V30 1791 H 170.661 -0.448355 -5.47066 0
M  V30 1792 H 170.922 0.866297 -4.33529 0
M  V30 1793 N 169.982 1.44106 -0.638065 0
M  V30 1794 C 171.207 2.0685 -0.150916 0
M  V30 1795 C 171.632 1.47417 1.16833 0
M  V30 1796 O 170.99 0.578264 1.71831 0
M  V30 1797 C 171.038 3.60555 -0.05708 0
M  V30 1798 O 170.142 4.00465 0.984972 0
M  V30 1799 H 169.483 0.658151 -0.0879399 0
M  V30 1800 H 172.013 1.84865 -0.876707 0
M  V30 1801 H 172.023 4.07789 0.131232 0
M  V30 1802 H 170.698 4.03193 -1.02021 0
M  V30 1803 H 169.275 3.64849 0.770672 0
M  V30 1804 N 171.46 0.379036 1.52974 0
M  V30 1805 C 172.408 -0.476033 2.27677 0
M  V30 1806 C 173.402 -1.0719 1.31174 0
M  V30 1807 O 174.608 -1.01355 1.48752 0
M  V30 1808 H 170.983 -0.172255 0.732006 0
M  V30 1809 H 172.954 0.175615 2.97883 0
M  V30 1810 C 171.703 -1.5967 3.0887 0
M  V30 1811 H 171.026 -1.1475 3.82978 0
M  V30 1812 H 172.466 -2.16943 3.64296 0
M  V30 1813 C 170.925 -2.54682 2.20542 0
M  V30 1814 O 171.455 -3.57836 1.82527 0
M  V30 1815 N 169.661 -2.24183 1.84907 0
M  V30 1816 H 169.208 -1.40333 2.1602 0
M  V30 1817 H 169.166 -2.88006 1.26096 0
M  V30 1818 N 172.938 -1.57226 0.108567 0
M  V30 1819 C 173.901 -2.13602 -0.831082 0
M  V30 1820 C 174.901 -1.06841 -1.20173 0
M  V30 1821 O 176.091 -1.32666 -1.12895 0
M  V30 1822 C 173.223 -2.66769 -2.12243 0
M  V30 1823 H 174.416 -2.97951 -0.341317 0
M  V30 1824 H 171.969 -1.55667 -0.14057 0
M  V30 1825 H 172.704 -1.85977 -2.65675 0
M  V30 1826 H 172.489 -3.44839 -1.86625 0
M  V30 1827 H 173.979 -3.10332 -2.79435 0
M  V30 1828 N 174.416 0.165178 -1.56732 0
M  V30 1829 C 175.641 0.900253 -1.86843 0
M  V30 1830 C 176.066 1.74766 -0.695596 0
M  V30 1831 O 175.424 1.77786 0.35522 0
M  V30 1832 C 175.472 1.74777 -3.15413 0
M  V30 1833 O 174.576 2.85007 -2.98068 0
M  V30 1834 H 173.917 0.251832 -0.614391 0
M  V30 1835 H 176.447 0.161468 -2.03962 0
M  V30 1836 H 176.457 2.14646 -3.46974 0
M  V30 1837 H 175.132 1.12537 -4.00385 0
M  V30 1838 H 173.709 2.48676 -2.77875 0
M  V30 1839 N 175.894 1.51508 0.433938 0
M  V30 1840 C 177.14 1.64588 1.18484 0
M  V30 1841 C 177.473 0.362666 1.90784 0
M  V30 1842 O 176.748 -0.637892 1.83742 0
M  V30 1843 C 177.031 2.85149 2.19913 0
M  V30 1844 C 176.884 4.23456 1.51674 0
M  V30 1845 C 178.203 3.01227 3.20858 0
M  V30 1846 H 175.322 0.598994 0.429389 0
M  V30 1847 H 177.964 1.84002 0.473647 0
M  V30 1848 H 176.114 2.68729 2.80566 0
M  V30 1849 H 177.786 4.51552 0.943322 0
M  V30 1850 H 176.029 4.25998 0.819035 0
M  V30 1851 H 176.7 5.03812 2.2556 0
M  V30 1852 H 179.176 3.16382 2.70263 0
M  V30 1853 H 178.052 3.87141 3.89118 0
M  V30 1854 H 178.313 2.13447 3.8716 0
M  V30 1855 N 177.372 -0.689602 1.41712 0
M  V30 1856 C 178.305 -1.81403 1.3845 0
M  V30 1857 C 179.283 -1.60653 0.250874 0
M  V30 1858 O 180.467 -1.83323 0.43874 0
M  V30 1859 C 177.594 -3.18176 1.1611 0
M  V30 1860 C 176.64 -3.57705 2.3227 0
M  V30 1861 S 177.473 -3.61827 3.94767 0
M  V30 1862 C 178.629 -5.01318 3.74742 0
M  V30 1863 H 178.862 -1.83893 2.33603 0
M  V30 1864 H 176.395 -0.858878 1.28307 0
M  V30 1865 H 178.353 -3.97132 1.03907 0
M  V30 1866 H 177.014 -3.13288 0.225668 0
M  V30 1867 H 176.207 -4.57082 2.12349 0
M  V30 1868 H 175.809 -2.86073 2.40911 0
M  V30 1869 H 178.101 -5.88986 3.34817 0
M  V30 1870 H 179.044 -5.26283 4.73743 0
M  V30 1871 H 179.452 -4.73138 3.07898 0
M  V30 1872 N 178.85 -1.27639 -0.924453 0
M  V30 1873 C 179.798 -1.10485 -2.04685 0
M  V30 1874 C 180.792 -0.0270421 -1.69378 0
M  V30 1875 O 181.998 -0.185008 -1.79047 0
M  V30 1876 H 178.373 -0.340546 -0.670472 0
M  V30 1877 H 180.344 -2.05566 -2.16298 0
M  V30 1878 C 179.093 -0.772229 -3.39016 0
M  V30 1879 H 178.416 -1.59351 -3.66671 0
M  V30 1880 H 179.856 -0.692097 -4.18313 0
M  V30 1881 C 178.315 0.523554 -3.32807 0
M  V30 1882 O 178.845 1.55702 -3.70297 0
M  V30 1883 N 177.051 0.520363 -2.85903 0
M  V30 1884 H 176.598 -0.32107 -2.55591 0
M  V30 1885 H 176.556 1.38742 -2.82131 0
M  V30 1886 N 180.328 1.1314 -1.09713 0
M  V30 1887 C 181.258 2.20748 -0.761102 0
M  V30 1888 C 182.239 1.68061 0.262566 0
M  V30 1889 O 183.424 1.93765 0.129977 0
M  V30 1890 C 180.554 3.46812 -0.184054 0
M  V30 1891 C 179.508 4.12606 -1.13757 0
M  V30 1892 C 178.834 5.33031 -0.422083 0
M  V30 1893 C 180.134 4.59603 -2.48118 0
M  V30 1894 H 181.828 2.49113 -1.66082 0
M  V30 1895 H 179.374 1.19734 -0.799987 0
M  V30 1896 H 181.327 4.21353 0.0631215 0
M  V30 1897 H 180.051 3.17851 0.750868 0
M  V30 1898 H 178.71 3.40036 -1.37007 0
M  V30 1899 H 178.358 5.00335 0.517072 0
M  V30 1900 H 178.058 5.77999 -1.05788 0
M  V30 1901 H 179.582 6.10325 -0.183277 0
M  V30 1902 H 180.996 5.25552 -2.29059 0
M  V30 1903 H 179.393 5.15321 -3.07514 0
M  V30 1904 H 180.463 3.73971 -3.08665 0
M  V30 1905 N 181.806 0.884767 1.30421 0
M  V30 1906 C 182.736 0.367574 2.30589 0
M  V30 1907 C 183.717 -0.549464 1.60981 0
M  V30 1908 O 184.902 -0.46336 1.88591 0
M  V30 1909 C 182.032 -0.418944 3.44764 0
M  V30 1910 C 180.986 0.406316 4.26067 0
M  V30 1911 C 180.312 -0.506793 5.32293 0
M  V30 1912 C 181.612 1.64832 4.95608 0
M  V30 1913 H 183.306 1.20462 2.74097 0
M  V30 1914 H 180.852 0.580695 1.31772 0
M  V30 1915 H 182.805 -0.791395 4.13902 0
M  V30 1916 H 181.529 -1.28964 3.0006 0
M  V30 1917 H 180.188 0.760903 3.58617 0
M  V30 1918 H 179.836 -1.37519 4.83836 0
M  V30 1919 H 179.536 0.0415828 5.87585 0
M  V30 1920 H 181.06 -0.875764 6.04287 0
M  V30 1921 H 182.474 1.34646 5.57264 0
M  V30 1922 H 180.871 2.13688 5.60765 0
M  V30 1923 H 181.941 2.39284 4.21748 0
M  V30 1924 N 183.284 -1.43765 0.645699 0
M  V30 1925 C 184.533 -2.01116 0.153412 0
M  V30 1926 C 184.846 -1.51493 -1.23731 0
M  V30 1927 O 186.052 -2.01067 -1.8244 0
M  V30 1928 C 184.508 -3.59206 0.223473 0
M  V30 1929 C 184.116 -4.17823 1.61642 0
M  V30 1930 C 185.86 -4.23972 -0.211597 0
M  V30 1931 C 183.767 -5.68183 1.64081 0
M  V30 1932 H 182.697 -0.752093 0.0535891 0
M  V30 1933 H 185.348 -1.6482 0.806633 0
M  V30 1934 H 183.73 -3.92867 -0.497118 0
M  V30 1935 H 184.904 -3.95674 2.36176 0
M  V30 1936 H 183.219 -3.65399 1.99681 0
M  V30 1937 H 185.816 -5.34275 -0.213112 0
M  V30 1938 H 186.159 -3.97352 -1.24165 0
M  V30 1939 H 186.692 -3.95166 0.456988 0
M  V30 1940 H 183.431 -5.99559 2.64971 0
M  V30 1941 H 182.951 -5.9241 0.938611 0
M  V30 1942 H 184.63 -6.32085 1.3812 0
M  V30 1943 N 184.763 -0.387143 -1.52771 0
M  V30 1944 C 186.012 0.19697 -2.00736 0
M  V30 1945 C 186.325 1.48082 -1.27793 0
M  V30 1946 O 187.531 2.14485 -1.66458 0
M  V30 1947 C 185.987 0.401568 -3.57653 0
M  V30 1948 C 185.595 -0.868907 -4.39493 0
M  V30 1949 C 187.339 0.942164 -4.13912 0
M  V30 1950 C 185.246 -0.632705 -5.88006 0
M  V30 1951 H 184.176 0.0773827 -0.750019 0
M  V30 1952 H 186.827 -0.50921 -1.76293 0
M  V30 1953 H 185.209 1.16954 -3.78335 0
M  V30 1954 H 186.383 -1.64133 -4.30577 0
M  V30 1955 H 184.698 -1.33429 -3.94443 0
M  V30 1956 H 187.295 1.13455 -5.22525 0
M  V30 1957 H 187.638 1.9106 -3.69867 0
M  V30 1958 H 188.171 0.233814 -3.97112 0
M  V30 1959 H 184.91 -1.57208 -6.36369 0
M  V30 1960 H 184.43 0.100825 -5.99715 0
M  V30 1961 H 186.109 -0.26642 -6.46451 0
M  V30 1962 N 186.241 1.57166 -0.116904 0
M  V30 1963 C 187.466 1.999 0.55271 0
M  V30 1964 C 187.891 0.996039 1.59564 0
M  V30 1965 O 187.249 -0.032556 1.81271 0
M  V30 1966 C 187.297 3.4152 1.15742 0
M  V30 1967 O 186.401 3.44106 2.27299 0
M  V30 1968 H 185.742 0.649447 0.138258 0
M  V30 1969 H 188.272 2.03573 -0.204759 0
M  V30 1970 H 188.282 3.79684 1.49346 0
M  V30 1971 H 186.957 4.14034 0.393493 0
M  V30 1972 H 185.534 3.17759 1.9515 0
M  V30 1973 N 187.719 -0.156864 1.56817 0
M  V30 1974 C 188.966 -0.871125 1.82805 0
M  V30 1975 C 189.294 -1.81611 0.696262 0
M  V30 1976 O 188.549 -1.93141 -0.315459 0
M  V30 1977 C 188.848 -1.68737 3.1506 0
M  V30 1978 C 188.514 -0.890045 4.42028 0
M  V30 1979 C 187.176 -0.670042 4.76512 0
M  V30 1980 C 189.528 -0.331769 5.20143 0
M  V30 1981 C 186.856 0.119104 5.86579 0
M  V30 1982 C 189.208 0.444365 6.31037 0
M  V30 1983 C 187.872 0.675035 6.64078 0
M  V30 1984 H 187.142 -0.318767 0.668931 0
M  V30 1985 H 189.789 -0.135274 1.91022 0
M  V30 1986 H 188.094 -2.49304 3.0225 0
M  V30 1987 H 189.791 -2.24331 3.3238 0
M  V30 1988 H 186.381 -1.07157 4.14988 0
M  V30 1989 H 190.565 -0.489043 4.93885 0
M  V30 1990 H 185.821 0.307417 6.10627 0
M  V30 1991 H 189.995 0.884139 6.90765 0
M  V30 1992 H 187.622 1.28839 7.49203 0
M  V30 1993 N 189.197 -1.51736 -0.425897 0
M  V30 1994 C 190.474 -1.55519 -1.1863 0
M  V30 1995 C 190.854 -0.326219 -2.08564 0
M  V30 1996 O 190.202 0.688012 -2.17896 0
M  V30 1997 C 190.412 -2.87521 -1.9782 0
M  V30 1998 C 191.76 -3.39899 -2.54468 0
M  V30 1999 O 192.784 -2.89148 -2.08019 0
M  V30 2000 O 191.643 -4.2848 -3.39215 0
M  V30 2001 H 188.737 -0.625739 -0.540721 0
M  V30 2002 H 191.283 -1.64055 -0.434038 0
M  V30 2003 H 190.055 -3.68422 -1.31836 0
M  V30 2004 H 189.678 -2.822 -2.80088 0
M  V30 2005 N 190.675 0.682077 -1.42076 0
M  V30 2006 C 192.091 0.994324 -1.24841 0
M  V30 2007 C 192.291 2.0096 -0.147389 0
M  V30 2008 O 191.347 2.47822 0.483782 0
M  V30 2009 C 192.66 1.50607 -2.60265 0
M  V30 2010 C 194.208 1.62421 -2.6756 0
M  V30 2011 C 194.683 2.16994 -4.03333 0
M  V30 2012 N 196.174 2.24337 -4.0525 0
M  V30 2013 C 196.909 2.67621 -5.07116 0
M  V30 2014 N 196.405 3.1041 -6.19368 0
M  V30 2015 N 198.198 2.67305 -4.94474 0
M  V30 2016 H 190.349 0.00973908 -2.12398 0
M  V30 2017 H 192.612 0.0668593 -0.945639 0
M  V30 2018 H 192.318 0.834583 -3.41654 0
M  V30 2019 H 192.192 2.48602 -2.83684 0
M  V30 2020 H 194.579 2.28678 -1.86521 0
M  V30 2021 H 194.66 0.629352 -2.47937 0
M  V30 2022 H 194.304 1.51349 -4.84826 0
M  V30 2023 H 194.234 3.17258 -4.20304 0
M  V30 2024 H 196.725 1.94158 -3.24209 0
M  V30 2025 H 197.038 3.42103 -6.92954 0
M  V30 2026 H 195.383 3.08286 -6.22884 0
M  V30 2027 H 198.574 2.33233 -4.05857 0
M  V30 2028 H 198.747 3.00718 -5.73997 0
M  V30 2029 N 192.153 1.28127 0.917671 0
M  V30 2030 C 193.383 1.17722 1.6978 0
M  V30 2031 C 193.791 -0.267261 1.87303 0
M  V30 2032 O 193.134 -1.19286 1.39702 0
M  V30 2033 C 193.196 1.79958 3.11216 0
M  V30 2034 C 192.86 3.29187 3.16993 0
M  V30 2035 C 193.857 4.25679 2.98485 0
M  V30 2036 C 191.542 3.70075 3.39632 0
M  V30 2037 C 193.536 5.61035 3.02521 0
M  V30 2038 C 191.223 5.05557 3.433 0
M  V30 2039 C 192.221 6.00847 3.24764 0
M  V30 2040 O 191.909 7.33859 3.28187 0
M  V30 2041 H 191.641 0.409788 0.537634 0
M  V30 2042 H 194.195 1.69694 1.15728 0
M  V30 2043 H 192.425 1.22475 3.66793 0
M  V30 2044 H 194.114 1.64125 3.71238 0
M  V30 2045 H 194.88 3.95426 2.80826 0
M  V30 2046 H 190.759 2.96373 3.53106 0
M  V30 2047 H 194.303 6.35388 2.87971 0
M  V30 2048 H 190.2 5.35462 3.60486 0
M  V30 2049 H 190.968 7.42436 3.44575 0
M  V30 2050 N 193.631 -1.12557 1.10312 0
M  V30 2051 C 194.878 -1.84038 0.844759 0
M  V30 2052 C 195.206 -1.84026 -0.629668 0
M  V30 2053 O 194.461 -1.28026 -1.48013 0
M  V30 2054 C 194.76 -3.31462 1.33669 0
M  V30 2055 C 194.426 -3.51647 2.82232 0
M  V30 2056 C 193.088 -3.56864 3.22802 0
M  V30 2057 C 195.44 -3.58867 3.77974 0
M  V30 2058 C 192.768 -3.66844 4.57867 0
M  V30 2059 C 195.12 -3.70375 5.1284 0
M  V30 2060 C 193.784 -3.73848 5.52986 0
M  V30 2061 H 193.054 -0.673444 0.309119 0
M  V30 2062 H 195.701 -1.32824 1.37949 0
M  V30 2063 H 194.006 -3.85091 0.721949 0
M  V30 2064 H 195.703 -3.85236 1.11329 0
M  V30 2065 H 192.293 -3.48249 2.49842 0
M  V30 2066 H 196.477 -3.54107 3.47738 0
M  V30 2067 H 191.733 -3.67804 4.88396 0
M  V30 2068 H 195.907 -3.74904 5.86873 0
M  V30 2069 H 193.534 -3.81333 6.57639 0
M  V30 2070 N 195.109 -0.891671 -1.2995 0
M  V30 2071 C 196.349 -0.520296 -1.97667 0
M  V30 2072 C 196.713 0.914797 -1.68806 0
M  V30 2073 O 197.914 1.39263 -2.29911 0
M  V30 2074 C 196.185 -0.795222 -3.48441 0
M  V30 2075 S 197.744 -0.526953 -4.35624 0
M  V30 2076 H 194.562 -0.19333 -0.684211 0
M  V30 2077 H 197.164 -1.15238 -1.57926 0
M  V30 2078 H 195.868 -1.83805 -3.66938 0
M  V30 2079 H 195.399 -0.15095 -3.9311 0
M  V30 2080 H 197.414 0.631533 -4.92165 0
M  V30 2081 N 196.587 1.43421 -0.653314 0
M  V30 2082 C 197.833 2.02111 -0.166992 0
M  V30 2083 C 198.166 1.51423 1.21592 0
M  V30 2084 O 197.441 0.707389 1.8118 0
M  V30 2085 C 197.724 3.5966 -0.177948 0
M  V30 2086 C 197.577 4.20579 -1.59478 0
M  V30 2087 C 198.896 4.37413 0.4856 0
M  V30 2088 H 196.015 0.734374 -0.0621557 0
M  V30 2089 H 198.657 1.70717 -0.834016 0
M  V30 2090 H 196.807 3.86537 0.390032 0
M  V30 2091 H 198.479 4.04732 -2.21336 0
M  V30 2092 H 196.722 3.77226 -2.14204 0
M  V30 2093 H 197.393 5.29665 -1.5543 0
M  V30 2094 H 199.869 4.161 0.00234528 0
M  V30 2095 H 198.745 5.47075 0.447207 0
M  V30 2096 H 199.006 4.13672 1.55974 0
M  V30 2097 N 198.065 0.39524 1.52563 0
M  V30 2098 C 199.293 -0.184943 2.06072 0
M  V30 2099 C 199.708 -1.40021 1.26647 0
M  V30 2100 O 199.065 -1.79767 0.314672 0
M  V30 2101 C 199.116 -0.549179 3.57304 0
M  V30 2102 O 198.837 0.617813 4.33722 0
M  V30 2103 C 200.338 -1.18459 4.2718 0
M  V30 2104 H 197.558 -0.0265025 0.670476 0
M  V30 2105 H 200.102 0.562184 1.96621 0
M  V30 2106 H 198.257 -1.2462 3.66809 0
M  V30 2107 H 198.671 0.317091 5.23541 0
M  V30 2108 H 200.145 -1.38976 5.34219 0
M  V30 2109 H 200.622 -2.15368 3.82771 0
M  V30 2110 H 201.228 -0.528163 4.22008 0
M  V30 2111 N 199.544 -1.57102 0.125237 0
M  V30 2112 C 200.491 -2.15641 -0.822655 0
M  V30 2113 C 201.461 -1.08313 -1.25927 0
M  V30 2114 O 202.646 -1.36251 -1.33567 0
M  V30 2115 C 199.786 -2.76504 -2.06494 0
M  V30 2116 C 198.899 -3.98158 -1.67612 0
M  V30 2117 C 198.034 -4.47088 -2.86854 0
M  V30 2118 C 197.073 -5.6126 -2.44242 0
M  V30 2119 N 196.21 -6.04905 -3.56419 0
M  V30 2120 H 201.05 -2.96313 -0.316625 0
M  V30 2121 H 198.587 -1.46388 -0.144588 0
M  V30 2122 H 200.545 -3.09925 -2.79289 0
M  V30 2123 H 199.175 -1.98512 -2.54545 0
M  V30 2124 H 198.227 -3.70858 -0.846661 0
M  V30 2125 H 199.539 -4.80934 -1.32301 0
M  V30 2126 H 198.693 -4.82451 -3.67867 0
M  V30 2127 H 197.432 -3.63275 -3.25396 0
M  V30 2128 H 196.437 -5.25495 -1.61663 0
M  V30 2129 H 197.662 -6.46843 -2.0681 0
M  V30 2130 H 195.608 -5.24032 -3.94623 0
M  V30 2131 H 195.525 -6.82552 -3.25051 0
M  V30 2132 H 196.793 -6.44907 -4.37853 0
M  V30 2133 N 201.022 0.148545 -1.56898 0
M  V30 2134 C 202.433 0.708766 -1.72723 0
M  V30 2135 C 202.784 1.81734 -0.739395 0
M  V30 2136 O 201.909 2.16194 0.0943169 0
M  V30 2137 C 202.504 1.29245 -3.13179 0
M  V30 2138 C 201.063 1.79925 -3.30611 0
M  V30 2139 C 200.21 0.687111 -2.68652 0
M  V30 2140 H 203.161 -0.0771063 -1.58513 0
M  V30 2141 H 203.182 2.16224 -3.13093 0
M  V30 2142 H 202.694 0.485382 -3.85053 0
M  V30 2143 H 200.795 2.63203 -2.63732 0
M  V30 2144 H 200.908 1.92903 -4.38549 0
M  V30 2145 H 199.272 1.11335 -2.29078 0
M  V30 2146 H 200.055 -0.108483 -3.43129 0
M  V30 2147 N 202.5 1.5196 0.417844 0
M  V30 2148 C 203.43 1.77634 1.51554 0
M  V30 2149 C 204.411 0.626918 1.58126 0
M  V30 2150 O 205.596 0.871632 1.7354 0
M  V30 2151 C 202.726 1.91911 2.8946 0
M  V30 2152 C 201.68 3.07463 2.97743 0
M  V30 2153 C 201.006 3.06951 4.37819 0
M  V30 2154 C 202.306 4.47082 2.70027 0
M  V30 2155 H 204 2.6955 1.3032 0
M  V30 2156 H 201.546 1.29706 0.625492 0
M  V30 2157 H 203.499 2.08455 3.6623 0
M  V30 2158 H 202.223 0.966598 3.11969 0
M  V30 2159 H 200.882 2.90656 2.23416 0
M  V30 2160 H 200.53 2.09438 4.57323 0
M  V30 2161 H 200.23 3.84556 4.44286 0
M  V30 2162 H 201.754 3.25613 5.16535 0
M  V30 2163 H 203.168 4.6414 3.36522 0
M  V30 2164 H 201.565 5.2654 2.87881 0
M  V30 2165 H 202.635 4.55777 1.65514 0
M  V30 2166 N 203.978 -0.674533 1.42435 0
M  V30 2167 C 205.206 -1.46283 1.46317 0
M  V30 2168 C 205.621 -1.88653 0.0745836 0
M  V30 2169 O 204.978 -1.58151 -0.91074 0
M  V30 2170 C 205.029 -2.71178 2.3905 0
M  V30 2171 O 204.75 -2.30586 3.72507 0
M  V30 2172 C 206.251 -3.64738 2.51955 0
M  V30 2173 H 203.471 -0.450104 0.497642 0
M  V30 2174 H 206.015 -0.828792 1.86953 0
M  V30 2175 H 204.17 -3.3077 2.01667 0
M  V30 2176 H 204.584 -3.11241 4.22172 0
M  V30 2177 H 206.058 -4.49096 3.20962 0
M  V30 2178 H 206.535 -4.10656 1.55752 0
M  V30 2179 H 207.141 -3.11038 2.90061 0
M  V30 2180 N 205.456 -1.28612 -0.910864 0
M  V30 2181 C 206.686 -1.1862 -1.69153 0
M  V30 2182 C 207.094 0.257324 -1.87442 0
M  V30 2183 O 206.437 1.18543 -1.40332 0
M  V30 2184 C 206.499 -1.81606 -3.10257 0
M  V30 2185 C 206.163 -3.30864 -3.15243 0
M  V30 2186 C 207.16 -4.27256 -2.96223 0
M  V30 2187 C 204.845 -3.71871 -3.37664 0
M  V30 2188 C 206.839 -5.62631 -2.99541 0
M  V30 2189 C 204.526 -5.07371 -3.40614 0
M  V30 2190 C 205.524 -6.02561 -3.21573 0
M  V30 2191 O 205.212 -7.35589 -3.2429 0
M  V30 2192 H 204.944 -0.412633 -0.535453 0
M  V30 2193 H 207.498 -1.70306 -1.14827 0
M  V30 2194 H 205.728 -1.24418 -3.66138 0
M  V30 2195 H 207.417 -1.66092 -3.70362 0
M  V30 2196 H 208.183 -3.9691 -2.78725 0
M  V30 2197 H 204.062 -2.98241 -3.5153 0
M  V30 2198 H 207.606 -6.36907 -2.84597 0
M  V30 2199 H 203.503 -5.37366 -3.57642 0
M  V30 2200 H 204.271 -7.44252 -3.40633 0
M  V30 2201 N 206.934 1.1197 -1.10907 0
M  V30 2202 C 208.345 1.65114 -0.871446 0
M  V30 2203 C 208.696 1.86885 0.597353 0
M  V30 2204 O 207.821 1.59896 1.45816 0
M  V30 2205 C 208.416 2.99944 -1.5754 0
M  V30 2206 C 206.975 3.50018 -1.38435 0
M  V30 2207 C 206.122 2.24941 -1.62164 0
M  V30 2208 H 209.073 0.956851 -1.2661 0
M  V30 2209 H 209.094 3.66651 -1.01721 0
M  V30 2210 H 208.606 2.84067 -2.64438 0
M  V30 2211 H 206.707 3.71071 -0.337214 0
M  V30 2212 H 206.82 4.29165 -2.12965 0
M  V30 2213 H 205.184 2.3229 -1.04467 0
M  V30 2214 H 205.967 2.11612 -2.70324 0
M  V30 2215 N 208.412 0.89855 1.29475 0
M  V30 2216 C 209.375 0.380272 2.26023 0
M  V30 2217 C 210.375 -0.484891 1.53315 0
M  V30 2218 O 211.565 -0.290108 1.71767 0
M  V30 2219 C 208.697 -0.45651 3.3783 0
M  V30 2220 H 209.89 1.23295 2.73383 0
M  V30 2221 H 207.443 0.676589 1.40897 0
M  V30 2222 H 208.178 -1.32922 2.95808 0
M  V30 2223 H 207.963 0.163393 3.91759 0
M  V30 2224 H 209.453 -0.810466 4.0966 0
M  V30 2225 N 209.89 -1.43072 0.660911 0
M  V30 2226 C 211.306 -1.56169 0.329173 0
M  V30 2227 C 211.506 -1.64317 -1.16629 0
M  V30 2228 O 210.562 -1.60245 -1.95135 0
M  V30 2229 C 211.875 -2.81873 1.04729 0
M  V30 2230 C 213.423 -2.95627 1.02828 0
M  V30 2231 C 213.898 -4.24174 1.72744 0
M  V30 2232 N 215.389 -4.31055 1.69545 0
M  V30 2233 C 216.124 -5.29304 2.20511 0
M  V30 2234 N 215.62 -6.33786 2.79799 0
M  V30 2235 N 217.413 -5.21008 2.10966 0
M  V30 2236 H 209.564 -1.36027 1.63127 0
M  V30 2237 H 211.827 -0.653823 0.686454 0
M  V30 2238 H 211.533 -2.81942 2.10242 0
M  V30 2239 H 211.407 -3.72338 0.603702 0
M  V30 2240 H 213.794 -2.95094 -0.0184742 0
M  V30 2241 H 213.875 -2.06431 1.51063 0
M  V30 2242 H 213.519 -4.25467 2.7738 0
M  V30 2243 H 213.449 -5.1228 1.2197 0
M  V30 2244 H 215.94 -3.56174 1.26288 0
M  V30 2245 H 216.253 -7.05086 3.16344 0
M  V30 2246 H 214.598 -6.34387 2.83863 0
M  V30 2247 H 217.789 -4.38301 1.64347 0
M  V30 2248 H 217.962 -5.97416 2.50993 0
M  V30 2249 N 211.368 -0.403325 -1.52352 0
M  V30 2250 C 212.784 -0.0539281 -1.59509 0
M  V30 2251 C 212.984 1.43307 -1.41652 0
M  V30 2252 O 212.04 2.19924 -1.24056 0
M  V30 2253 C 213.353 -0.543654 -2.95745 0
M  V30 2254 C 214.901 -0.501125 -3.08962 0
M  V30 2255 C 215.376 -0.967267 -4.47669 0
M  V30 2256 N 216.867 -0.923849 -4.53893 0
M  V30 2257 C 217.602 -1.25578 -5.5948 0
M  V30 2258 N 217.098 -1.65889 -6.72646 0
M  V30 2259 N 218.891 -1.17613 -5.49658 0
M  V30 2260 H 211.042 -1.37123 -1.62206 0
M  V30 2261 H 213.305 -0.56294 -0.76276 0
M  V30 2262 H 213.011 -1.58275 -3.14073 0
M  V30 2263 H 212.885 0.0498042 -3.77167 0
M  V30 2264 H 215.272 0.528909 -2.90321 0
M  V30 2265 H 215.353 -1.13056 -2.2946 0
M  V30 2266 H 214.997 -1.9956 -4.67053 0
M  V30 2267 H 214.927 -0.314698 -5.25659 0
M  V30 2268 H 217.418 -0.627403 -3.72655 0
M  V30 2269 H 217.731 -1.89543 -7.49195 0
M  V30 2270 H 216.076 -1.69787 -6.73942 0
M  V30 2271 H 219.267 -0.860115 -4.6013 0
M  V30 2272 H 219.44 -1.43812 -6.3184 0
M  V30 2273 N 212.846 1.57033 -0.133567 0
M  V30 2274 C 214.074 2.00044 0.528195 0
M  V30 2275 C 214.489 1.01349 1.59291 0
M  V30 2276 O 213.846 0.00848369 1.82498 0
M  V30 2277 C 213.897 3.43018 1.1411 0
M  V30 2278 O 213.618 4.37939 0.11892 0
M  V30 2279 C 215.119 4.01237 1.88477 0
M  V30 2280 H 212.339 0.656517 0.138661 0
M  V30 2281 H 214.883 2.03267 -0.224196 0
M  V30 2282 H 213.038 3.40688 1.84418 0
M  V30 2283 H 213.452 5.21436 0.56613 0
M  V30 2284 H 214.926 5.03314 2.26669 0
M  V30 2285 H 215.403 3.41193 2.76558 0
M  V30 2286 H 216.009 4.07156 1.22898 0
M  V30 2287 N 214.325 -0.140222 1.56975 0
M  V30 2288 C 215.553 -0.866437 1.87884 0
M  V30 2289 C 215.968 -1.74428 0.722517 0
M  V30 2290 O 215.325 -1.79891 -0.30749 0
M  V30 2291 C 215.376 -1.71753 3.18093 0
M  V30 2292 O 215.097 -0.875056 4.29272 0
M  V30 2293 C 216.598 -2.55074 3.62563 0
M  V30 2294 H 213.818 -0.25019 0.622612 0
M  V30 2295 H 216.362 -0.130977 2.0408 0
M  V30 2296 H 214.517 -2.40598 3.03631 0
M  V30 2297 H 214.931 -1.46002 5.03769 0
M  V30 2298 H 216.405 -3.10356 4.5649 0
M  V30 2299 H 216.882 -3.31434 2.88181 0
M  V30 2300 H 217.488 -1.91509 3.79743 0
M  V30 2301 N 215.803 -1.52179 -0.40978 0
M  V30 2302 C 216.75 -1.75475 -1.49924 0
M  V30 2303 C 217.72 -0.597175 -1.54994 0
M  V30 2304 O 218.905 -0.834655 -1.71575 0
M  V30 2305 C 216.045 -1.9107 -2.87378 0
M  V30 2306 C 215.158 -3.18717 -2.91622 0
M  V30 2307 C 214.293 -3.24747 -4.20372 0
M  V30 2308 C 213.332 -4.46598 -4.18588 0
M  V30 2309 N 212.469 -4.50025 -5.38908 0
M  V30 2310 H 217.309 -2.68458 -1.29361 0
M  V30 2311 H 214.846 -1.33024 -0.627934 0
M  V30 2312 H 216.804 -1.98096 -3.6717 0
M  V30 2313 H 215.434 -1.01469 -3.06437 0
M  V30 2314 H 214.486 -3.20866 -2.04326 0
M  V30 2315 H 215.798 -4.08544 -2.86169 0
M  V30 2316 H 214.952 -3.30841 -5.08556 0
M  V30 2317 H 213.691 -2.32857 -4.28519 0
M  V30 2318 H 212.696 -4.40652 -3.28794 0
M  V30 2319 H 213.921 -5.39783 -4.12081 0
M  V30 2320 H 211.867 -3.61017 -5.47725 0
M  V30 2321 H 211.784 -5.33697 -5.35447 0
M  V30 2322 H 213.052 -4.60347 -6.29048 0
M  V30 2323 N 217.281 0.66697 -1.42791 0
M  V30 2324 C 218.214 1.79177 -1.41318 0
M  V30 2325 C 219.192 1.60234 -0.276401 0
M  V30 2326 O 220.376 1.82602 -0.46785 0
M  V30 2327 C 217.503 3.16289 -1.21157 0
M  V30 2328 C 216.549 3.53964 -2.37932 0
M  V30 2329 S 217.382 3.55501 -4.00474 0
M  V30 2330 C 218.538 4.95292 -3.8267 0
M  V30 2331 H 218.771 1.80153 -2.365 0
M  V30 2332 H 216.304 0.838357 -1.29657 0
M  V30 2333 H 218.262 3.95428 -1.10212 0
M  V30 2334 H 216.923 3.1289 -0.275481 0
M  V30 2335 H 216.116 4.53646 -2.19594 0
M  V30 2336 H 215.718 2.82204 -2.45432 0
M  V30 2337 H 218.01 5.83584 -3.44145 0
M  V30 2338 H 218.953 5.18679 -4.82055 0
M  V30 2339 H 219.361 4.68179 -3.15386 0
M  V30 2340 N 218.759 1.29093 0.90403 0
M  V30 2341 C 219.722 1.1386 1.98919 0
M  V30 2342 C 220.722 0.0753457 1.60623 0
M  V30 2343 O 221.912 0.321931 1.71199 0
M  V30 2344 C 219.044 0.740198 3.32767 0
M  V30 2345 H 220.237 2.10246 2.13861 0
M  V30 2346 H 217.79 1.12218 1.08797 0
M  V30 2347 H 218.525 -0.223997 3.23525 0
M  V30 2348 H 218.31 1.50838 3.61926 0
M  V30 2349 H 219.8 0.656546 4.12407 0
M  V30 2350 N 220.237 -1.11381 1.11499 0
M  V30 2351 C 221.485 -1.8277 0.862524 0
M  V30 2352 C 221.806 -1.85097 -0.613534 0
M  V30 2353 O 221.076 -1.32198 -1.4457 0
M  V30 2354 H 219.656 -0.676823 0.316101 0
M  V30 2355 H 222.318 -1.34816 1.4075 0
M  V30 2356 H 221.414 -2.86614 1.23527 0
M  V30 2357 N 221.715 -0.905404 -1.28997 0
M  V30 2358 C 222.645 -0.404212 -2.29975 0
M  V30 2359 C 223.626 0.523784 -1.61835 0
M  V30 2360 O 224.811 0.433298 -1.89304 0
M  V30 2361 C 221.941 0.364042 -3.45387 0
M  V30 2362 C 220.895 -0.474048 -4.25367 0
M  V30 2363 C 220.221 0.422045 -5.33032 0
M  V30 2364 C 221.521 -1.72696 -4.92923 0
M  V30 2365 H 223.215 -1.24807 -2.72146 0
M  V30 2366 H 220.761 -0.601585 -1.30832 0
M  V30 2367 H 222.714 0.725447 -4.15109 0
M  V30 2368 H 221.438 1.24174 -3.02074 0
M  V30 2369 H 220.097 -0.81786 -3.57361 0
M  V30 2370 H 219.745 1.29804 -4.85963 0
M  V30 2371 H 219.445 -0.135057 -5.87445 0
M  V30 2372 H 220.969 0.779517 -6.05604 0
M  V30 2373 H 222.383 -1.43495 -5.55051 0
M  V30 2374 H 220.78 -2.22582 -5.57295 0
M  V30 2375 H 221.85 -2.45964 -4.17887 0
M  V30 2376 N 223.193 1.4272 -0.668489 0
M  V30 2377 C 224.126 2.28111 0.0637898 0
M  V30 2378 C 225.104 1.40705 0.814912 0
M  V30 2379 O 226.288 1.70146 0.81134 0
M  V30 2380 C 223.415 3.20429 1.0974 0
M  V30 2381 C 222.461 4.24197 0.442579 0
M  V30 2382 S 223.294 5.29563 -0.795173 0
M  V30 2383 C 224.45 6.25449 0.237516 0
M  V30 2384 H 224.683 2.8987 -0.660521 0
M  V30 2385 H 222.216 1.47456 -0.457821 0
M  V30 2386 H 224.174 3.74158 1.68868 0
M  V30 2387 H 222.835 2.57818 1.79411 0
M  V30 2388 H 222.028 4.88954 1.22227 0
M  V30 2389 H 221.63 3.73925 -0.0749554 0
M  V30 2390 H 223.922 6.68524 1.09915 0
M  V30 2391 H 224.865 7.07104 -0.375421 0
M  V30 2392 H 225.273 5.61511 0.580167 0
M  V30 2393 N 224.671 0.411399 1.52136 0
M  V30 2394 C 225.92 -0.165009 2.01024 0
M  V30 2395 C 226.233 -1.4603 1.30133 0
M  V30 2396 O 227.439 -2.1181 1.69849 0
M  V30 2397 C 225.895 -0.344618 3.58246 0
M  V30 2398 C 225.503 0.938716 4.38055 0
M  V30 2399 C 227.247 -0.876195 4.15359 0
M  V30 2400 C 225.154 0.726172 5.86925 0
M  V30 2401 H 224.084 -0.0654407 0.751155 0
M  V30 2402 H 226.735 0.537192 1.75461 0
M  V30 2403 H 225.117 -1.10921 3.80148 0
M  V30 2404 H 226.291 1.70963 4.27912 0
M  V30 2405 H 224.606 1.39688 3.92271 0
M  V30 2406 H 227.203 -1.05128 5.24263 0
M  V30 2407 H 227.546 -1.85152 3.7286 0
M  V30 2408 H 228.079 -0.170607 3.97434 0
M  V30 2409 H 224.818 1.67312 6.33788 0
M  V30 2410 H 224.338 -0.00540283 5.998 0
M  V30 2411 H 226.017 0.369231 6.45946 0
M  V30 2412 N 226.149 -1.5696 0.141893 0
M  V30 2413 C 227.112 -2.15316 -0.785587 0
M  V30 2414 C 228.112 -1.09366 -1.1788 0
M  V30 2415 O 229.302 -1.35031 -1.10056 0
M  V30 2416 C 226.434 -2.71211 -2.06537 0
M  V30 2417 H 227.627 -2.98608 -0.278041 0
M  V30 2418 H 225.18 -1.5593 -0.107519 0
M  V30 2419 H 225.915 -1.91571 -2.6167 0
M  V30 2420 H 225.7 -3.4872 -1.79268 0
M  V30 2421 H 227.19 -3.16189 -2.72789 0
M  V30 2422 N 227.627 0.131896 -1.57047 0
M  V30 2423 C 228.59 1.14638 -1.98471 0
M  V30 2424 C 229.59 1.35029 -0.873148 0
M  V30 2425 O 230.78 1.31764 -1.13946 0
M  V30 2426 C 227.912 2.50358 -2.31373 0
M  V30 2427 H 229.105 0.79064 -2.8929 0
M  V30 2428 H 226.658 0.375761 -1.51716 0
M  V30 2429 H 227.393 2.90876 -1.43393 0
M  V30 2430 H 227.178 2.36915 -3.12432 0
M  V30 2431 H 228.668 3.23395 -2.64207 0
M  V30 2432 N 229.106 1.52395 0.401703 0
M  V30 2433 C 230.069 1.75636 1.47257 0
M  V30 2434 C 231.069 0.62628 1.48103 0
M  V30 2435 O 232.259 0.894227 1.49497 0
M  V30 2436 C 229.391 1.84553 2.86624 0
M  V30 2437 H 230.584 2.71241 1.27938 0
M  V30 2438 H 228.137 1.42923 0.632662 0
M  V30 2439 H 228.872 0.908882 3.11303 0
M  V30 2440 H 228.657 2.66715 2.87412 0
M  V30 2441 H 230.147 2.04251 3.64241 0
M  V30 2442 N 230.584 -0.659388 1.43143 0
M  V30 2443 C 231.83 -1.41984 1.45644 0
M  V30 2444 C 232.185 -1.92245 0.0771718 0
M  V30 2445 O 231.478 -1.68976 -0.903205 0
M  V30 2446 C 231.672 -2.62206 2.42864 0
M  V30 2447 C 231.501 -2.23711 3.90107 0
M  V30 2448 C 230.271 -2.12332 4.58523 0
M  V30 2449 C 232.469 -1.84384 4.80112 0
M  V30 2450 N 230.451 -1.67102 5.9072 0
M  V30 2451 C 231.822 -1.5019 6.01534 0
M  V30 2452 C 233.877 -1.71512 4.67427 0
M  V30 2453 C 232.58 -1.04414 7.11681 0
M  V30 2454 C 234.606 -1.27142 5.77572 0
M  V30 2455 C 233.968 -0.938808 6.98116 0
M  V30 2456 H 230.067 -0.515448 0.588079 0
M  V30 2457 H 232.651 -0.759409 1.79279 0
M  V30 2458 H 230.822 -3.25917 2.11265 0
M  V30 2459 H 232.554 -3.28877 2.35843 0
M  V30 2460 H 229.309 -2.31893 4.12944 0
M  V30 2461 H 229.733 -1.46866 6.60878 0
M  V30 2462 H 234.375 -1.95868 3.74694 0
M  V30 2463 H 232.093 -0.788061 8.04248 0
M  V30 2464 H 235.679 -1.17681 5.69774 0
M  V30 2465 H 234.559 -0.6007 7.81896 0
M  V30 2466 N 232.062 -1.29571 -0.897171 0
M  V30 2467 C 233.308 -1.17863 -1.65034 0
M  V30 2468 C 233.641 0.268729 -1.92332 0
M  V30 2469 O 232.916 1.19378 -1.53555 0
M  V30 2470 C 233.199 -1.995 -2.99786 0
M  V30 2471 C 233.052 -3.5239 -2.79538 0
M  V30 2472 C 234.371 -1.82335 -4.00552 0
M  V30 2473 H 231.49 -0.429528 -0.598895 0
M  V30 2474 H 234.132 -1.59072 -1.03905 0
M  V30 2475 H 232.282 -1.64485 -3.51962 0
M  V30 2476 H 233.954 -3.97401 -2.34244 0
M  V30 2477 H 232.197 -3.77187 -2.14273 0
M  V30 2478 H 232.868 -4.04787 -3.75302 0
M  V30 2479 H 235.344 -2.12924 -3.57495 0
M  V30 2480 H 234.22 -2.41801 -4.92771 0
M  V30 2481 H 234.481 -0.779209 -4.35179 0
M  V30 2482 N 233.54 1.10788 -1.12088 0
M  V30 2483 C 234.47 2.19083 -0.807755 0
M  V30 2484 C 235.451 1.6858 0.226859 0
M  V30 2485 O 236.636 1.93997 0.0888475 0
M  V30 2486 C 233.766 3.46344 -0.257576 0
M  V30 2487 C 232.72 4.101 -1.22483 0
M  V30 2488 C 232.046 5.32016 -0.535052 0
M  V30 2489 C 233.346 4.54236 -2.57811 0
M  V30 2490 H 235.04 2.45534 -1.71328 0
M  V30 2491 H 232.586 1.1801 -0.825205 0
M  V30 2492 H 234.539 4.21392 -0.0262679 0
M  V30 2493 H 233.263 3.19373 0.683278 0
M  V30 2494 H 231.922 3.37054 -1.44189 0
M  V30 2495 H 231.57 5.01319 0.410827 0
M  V30 2496 H 231.27 5.75625 -1.18024 0
M  V30 2497 H 232.794 6.09799 -0.312695 0
M  V30 2498 H 234.208 5.20575 -2.40155 0
M  V30 2499 H 232.605 5.08682 -3.18375 0
M  V30 2500 H 233.675 3.6734 -3.16528 0
M  V30 2501 N 235.018 0.912232 1.28515 0
M  V30 2502 C 236.243 0.559774 1.99703 0
M  V30 2503 C 236.668 -0.851393 1.67729 0
M  V30 2504 O 236.026 -1.56875 0.908834 0
M  V30 2505 C 236.074 0.773874 3.52198 0
M  V30 2506 O 235.178 -0.167842 4.12058 0
M  V30 2507 H 234.519 0.21723 0.627461 0
M  V30 2508 H 237.049 1.22725 1.63706 0
M  V30 2509 H 237.059 0.683386 4.02236 0
M  V30 2510 H 235.734 1.80261 3.74805 0
M  V30 2511 H 234.311 -0.0287509 3.72889 0
M  V30 2512 N 236.496 -1.42363 0.676048 0
M  V30 2513 C 237.743 -2.01522 0.19883 0
M  V30 2514 C 238.071 -1.53456 -1.19505 0
M  V30 2515 O 237.326 -0.727967 -1.81657 0
M  V30 2516 C 237.625 -3.56929 0.183431 0
M  V30 2517 C 237.291 -4.24431 1.52215 0
M  V30 2518 C 235.953 -4.42585 1.8887 0
M  V30 2519 C 238.305 -4.62459 2.40377 0
M  V30 2520 C 235.633 -4.96039 3.13309 0
M  V30 2521 C 237.985 -5.17294 3.64129 0
M  V30 2522 C 236.649 -5.33661 4.00951 0
M  V30 2523 H 235.919 -0.737419 0.0727571 0
M  V30 2524 H 238.566 -1.70531 0.871281 0
M  V30 2525 H 236.871 -3.87594 -0.572532 0
M  V30 2526 H 238.568 -4.00486 -0.203035 0
M  V30 2527 H 235.158 -4.10661 1.22701 0
M  V30 2528 H 239.342 -4.48105 2.13343 0
M  V30 2529 H 234.598 -5.06896 3.41857 0
M  V30 2530 H 238.772 -5.45704 4.32644 0
M  V30 2531 H 236.399 -5.74845 4.9745 0
M  V30 2532 N 237.974 -0.419461 -1.51915 0
M  V30 2533 C 239.22 0.153166 -2.02221 0
M  V30 2534 C 239.553 1.43907 -1.30401 0
M  V30 2535 O 238.828 1.90055 -0.413438 0
M  V30 2536 C 239.111 0.390291 -3.57979 0
M  V30 2537 C 238.964 -0.913014 -4.40436 0
M  V30 2538 C 240.283 1.16794 -4.2432 0
M  V30 2539 H 237.402 0.0541924 -0.735005 0
M  V30 2540 H 240.044 -0.554955 -1.81715 0
M  V30 2541 H 238.194 0.993491 -3.75582 0
M  V30 2542 H 239.866 -1.54882 -4.34522 0
M  V30 2543 H 238.109 -1.52168 -4.06236 0
M  V30 2544 H 238.78 -0.701361 -5.47526 0
M  V30 2545 H 241.256 0.657161 -4.10878 0
M  V30 2546 H 240.132 1.3026 -5.3322 0
M  V30 2547 H 240.393 2.19132 -3.83971 0
M  V30 2548 N 239.452 1.56882 -0.150215 0
M  V30 2549 C 240.382 2.19935 0.784284 0
M  V30 2550 C 241.363 1.14854 1.25469 0
M  V30 2551 O 242.548 1.43209 1.31168 0
M  V30 2552 C 239.678 2.82349 2.02229 0
M  V30 2553 C 238.632 3.93285 1.68853 0
M  V30 2554 C 237.958 4.42649 2.99944 0
M  V30 2555 C 239.258 5.13904 0.932714 0
M  V30 2556 H 240.952 2.9828 0.258781 0
M  V30 2557 H 238.498 1.43473 0.123029 0
M  V30 2558 H 240.451 3.25126 2.68088 0
M  V30 2559 H 239.175 2.0134 2.57157 0
M  V30 2560 H 237.834 3.5113 1.05371 0
M  V30 2561 H 237.482 3.58458 3.52869 0
M  V30 2562 H 237.182 5.17476 2.78374 0
M  V30 2563 H 238.706 4.88099 3.66868 0
M  V30 2564 H 240.12 5.53506 1.49345 0
M  V30 2565 H 238.517 5.94515 0.81684 0
M  V30 2566 H 239.587 4.84842 -0.0749568 0
M  V30 2567 N 240.93 -0.123565 1.57115 0
M  V30 2568 C 242.176 -0.828428 1.85765 0
M  V30 2569 C 242.531 -1.77709 0.737371 0
M  V30 2570 O 241.824 -1.89787 -0.262978 0
M  V30 2571 C 242.018 -1.62016 3.18568 0
M  V30 2572 C 241.847 -0.749663 4.43407 0
M  V30 2573 C 240.617 -0.406251 5.03664 0
M  V30 2574 C 242.815 -0.0693505 5.14253 0
M  V30 2575 N 240.797 0.475389 6.12057 0
M  V30 2576 C 242.168 0.671474 6.16353 0
M  V30 2577 C 244.223 0.00754393 4.97899 0
M  V30 2578 C 242.926 1.48197 7.03868 0
M  V30 2579 C 244.952 0.804845 5.85898 0
M  V30 2580 C 244.314 1.53388 6.87497 0
M  V30 2581 H 240.413 -0.280219 0.73007 0
M  V30 2582 H 242.997 -0.0924183 1.94481 0
M  V30 2583 H 241.168 -2.32724 3.10957 0
M  V30 2584 H 242.9 -2.27 3.35042 0
M  V30 2585 H 239.655 -0.747446 4.67665 0
M  V30 2586 H 240.079 0.907924 6.70884 0
M  V30 2587 H 244.721 -0.541741 4.19315 0
M  V30 2588 H 242.439 2.04242 7.81864 0
M  V30 2589 H 246.025 0.866642 5.75309 0
M  V30 2590 H 244.905 2.1409 7.5441 0
M  V30 2591 N 242.408 -1.52605 -0.393616 0
M  V30 2592 C 243.371 -1.76415 -1.46323 0
M  V30 2593 C 244.371 -0.634126 -1.47768 0
M  V30 2594 O 245.561 -0.902142 -1.4902 0
M  V30 2595 C 242.693 -1.8607 -2.85641 0
M  V30 2596 H 243.886 -2.71916 -1.26498 0
M  V30 2597 H 241.439 -1.43257 -0.625073 0
M  V30 2598 H 242.174 -0.925378 -3.10817 0
M  V30 2599 H 241.959 -2.68235 -2.85993 0
M  V30 2600 H 243.449 -2.06179 -3.63153 0
M  V30 2601 N 243.887 0.651787 -1.4349 0
M  V30 2602 C 245.298 1.233 -1.40193 0
M  V30 2603 C 245.649 1.9591 -0.106727 0
M  V30 2604 O 244.774 2.01316 0.793773 0
M  V30 2605 C 245.369 2.24257 -2.53957 0
M  V30 2606 C 243.928 2.77852 -2.5392 0
M  V30 2607 C 243.075 1.52517 -2.3159 0
M  V30 2608 H 246.026 0.443717 -1.52371 0
M  V30 2609 H 246.047 3.0646 -2.25528 0
M  V30 2610 H 245.559 1.71382 -3.4821 0
M  V30 2611 H 243.66 3.34786 -1.63551 0
M  V30 2612 H 243.773 3.25299 -3.51735 0
M  V30 2613 H 242.137 1.79915 -1.80285 0
M  V30 2614 H 242.92 1.01574 -3.27929 0
M  V30 2615 N 245.365 1.30045 0.890287 0
M  V30 2616 C 246.328 1.15963 1.977 0
M  V30 2617 C 247.328 0.0923777 1.60534 0
M  V30 2618 O 248.518 0.340071 1.70848 0
M  V30 2619 C 245.65 0.775451 3.31963 0
M  V30 2620 H 246.843 2.12502 2.11619 0
M  V30 2621 H 244.396 1.13366 1.07601 0
M  V30 2622 H 245.131 -0.189671 3.23745 0
M  V30 2623 H 244.916 1.54668 3.60306 0
M  V30 2624 H 246.406 0.700251 4.11687 0
M  V30 2625 N 246.843 -1.10192 1.12674 0
M  V30 2626 C 248.092 -1.81573 0.8783 0
M  V30 2627 C 248.405 -1.86249 -0.597557 0
M  V30 2628 O 249.611 -2.5386 -0.962681 0
M  V30 2629 C 248.067 -3.26149 1.52167 0
M  V30 2630 C 247.675 -3.29763 3.03249 0
M  V30 2631 C 249.419 -4.0234 1.3536 0
M  V30 2632 C 247.326 -4.68815 3.60508 0
M  V30 2633 H 246.256 -0.680394 0.324931 0
M  V30 2634 H 248.907 -1.23902 1.35353 0
M  V30 2635 H 247.289 -3.83832 0.974104 0
M  V30 2636 H 248.463 -2.8189 3.6452 0
M  V30 2637 H 246.778 -2.67059 3.19481 0
M  V30 2638 H 249.375 -5.05058 1.75559 0
M  V30 2639 H 249.718 -4.15235 0.297554 0
M  V30 2640 H 250.251 -3.51079 1.87052 0
M  V30 2641 H 246.99 -4.61121 4.65884 0
M  V30 2642 H 246.51 -5.17045 3.04014 0
M  V30 2643 H 248.189 -5.37785 3.59717 0
M  V30 2644 N 248.321 -0.919034 -1.28029 0
M  V30 2645 C 249.251 -0.428581 -2.29533 0
M  V30 2646 C 250.232 0.50659 -1.62381 0
M  V30 2647 O 251.417 0.413195 -1.89753 0
M  V30 2648 C 248.547 0.327388 -3.45753 0
M  V30 2649 C 247.501 -0.519137 -4.2484 0
M  V30 2650 C 246.827 0.365486 -5.33449 0
M  V30 2651 C 248.127 -1.77914 -4.91064 0
M  V30 2652 H 249.821 -1.27687 -2.70807 0
M  V30 2653 H 247.367 -0.615428 -1.30186 0
M  V30 2654 H 249.32 0.681378 -4.15855 0
M  V30 2655 H 248.044 1.20963 -3.03374 0
M  V30 2656 H 246.703 -0.855717 -3.56473 0
M  V30 2657 H 246.351 1.24642 -4.87312 0
M  V30 2658 H 246.051 -0.197356 -5.87268 0
M  V30 2659 H 247.575 0.715241 -6.06396 0
M  V30 2660 H 248.989 -1.49374 -5.53498 0
M  V30 2661 H 247.386 -2.2848 -5.54903 0
M  V30 2662 H 248.456 -2.50382 -4.15255 0
M  V30 2663 N 249.799 1.42003 -0.683588 0
M  V30 2664 C 251.046 2.01413 -0.209514 0
M  V30 2665 C 251.374 1.54088 1.1869 0
M  V30 2666 O 250.629 0.737591 1.81268 0
M  V30 2667 C 250.928 3.56827 -0.202357 0
M  V30 2668 C 250.594 4.23617 -1.54464 0
M  V30 2669 C 249.256 4.41577 -1.91215 0
M  V30 2670 C 251.608 4.61178 -2.42826 0
M  V30 2671 C 248.936 4.9437 -3.15935 0
M  V30 2672 C 251.288 5.15355 -3.66867 0
M  V30 2673 C 249.952 5.31528 -4.03776 0
M  V30 2674 H 249.222 0.737023 -0.0766668 0
M  V30 2675 H 251.869 1.70067 -0.880312 0
M  V30 2676 H 250.174 3.87892 0.551969 0
M  V30 2677 H 251.871 4.00588 0.181793 0
M  V30 2678 H 248.461 4.10004 -1.24877 0
M  V30 2679 H 252.645 4.46968 -2.15717 0
M  V30 2680 H 247.901 5.05076 -3.44541 0
M  V30 2681 H 252.075 5.43402 -4.35531 0
M  V30 2682 H 249.702 5.72199 -5.00492 0
M  V30 2683 N 251.277 0.427512 1.51691 0
M  V30 2684 C 252.523 -0.134744 2.02953 0
M  V30 2685 C 252.878 -1.41235 1.30654 0
M  V30 2686 O 252.171 -1.87168 0.409713 0
M  V30 2687 C 252.365 -0.418249 3.54944 0
M  V30 2688 C 252.194 0.830327 4.41968 0
M  V30 2689 C 250.964 1.36097 4.86627 0
M  V30 2690 C 253.162 1.7137 4.84909 0
M  V30 2691 N 251.144 2.56311 5.57833 0
M  V30 2692 C 252.515 2.76195 5.55082 0
M  V30 2693 C 254.57 1.72928 4.66905 0
M  V30 2694 C 253.273 3.82512 6.09161 0
M  V30 2695 C 255.299 2.78175 5.21894 0
M  V30 2696 C 254.661 3.8172 5.92004 0
M  V30 2697 H 250.76 -0.0103958 0.781931 0
M  V30 2698 H 253.344 0.585981 1.85673 0
M  V30 2699 H 251.515 -1.10801 3.7226 0
M  V30 2700 H 253.247 -0.970999 3.92879 0
M  V30 2701 H 250.002 0.916311 4.64651 0
M  V30 2702 H 250.426 3.17242 5.98069 0
M  V30 2703 H 255.068 0.942081 4.12171 0
M  V30 2704 H 252.786 4.62077 6.62956 0
M  V30 2705 H 256.372 2.8031 5.09821 0
M  V30 2706 H 255.252 4.61821 6.33791 0
M  V30 2707 N 252.755 -1.56801 0.158532 0
M  V30 2708 C 253.687 -2.14488 -0.807923 0
M  V30 2709 C 254.7 -1.09721 -1.20271 0
M  V30 2710 O 255.889 -1.36956 -1.14478 0
M  V30 2711 C 252.989 -2.66217 -2.09718 0
M  V30 2712 C 252.162 -3.95507 -1.86796 0
M  V30 2713 C 251.221 -4.3243 -2.99818 0
M  V30 2714 O 250.247 -5.00543 -2.71008 0
M  V30 2715 N 251.449 -3.92947 -4.27285 0
M  V30 2716 H 254.214 -2.98042 -0.314816 0
M  V30 2717 H 251.775 -1.61881 -0.0246692 0
M  V30 2718 H 253.767 -2.87924 -2.84398 0
M  V30 2719 H 252.337 -1.87324 -2.50257 0
M  V30 2720 H 251.557 -3.82309 -0.96089 0
M  V30 2721 H 252.845 -4.79972 -1.68833 0
M  V30 2722 H 252.243 -3.38087 -4.53557 0
M  V30 2723 H 250.8 -4.19681 -4.9871 0
M  V30 2724 N 254.233 0.115231 -1.57178 0
M  V30 2725 C 255.48 0.822351 -1.8505 0
M  V30 2726 C 255.808 1.79701 -0.744168 0
M  V30 2727 O 255.063 1.93909 0.26414 0
M  V30 2728 C 255.362 1.60324 -3.19423 0
M  V30 2729 C 255.028 0.772536 -4.44233 0
M  V30 2730 C 253.69 0.543468 -4.78121 0
M  V30 2731 C 256.042 0.193746 -5.2084 0
M  V30 2732 C 253.37 -0.274583 -5.86057 0
M  V30 2733 C 255.722 -0.611517 -6.29637 0
M  V30 2734 C 254.386 -0.850867 -6.62055 0
M  V30 2735 H 253.656 0.30092 -0.677147 0
M  V30 2736 H 256.303 0.0845802 -1.91313 0
M  V30 2737 H 254.608 2.41203 -3.08753 0
M  V30 2738 H 256.305 2.1544 -3.38211 0
M  V30 2739 H 252.895 0.96117 -4.17683 0
M  V30 2740 H 257.079 0.357926 -4.95008 0
M  V30 2741 H 252.335 -0.469206 -6.09597 0
M  V30 2742 H 256.509 -1.06697 -6.88178 0
M  V30 2743 H 254.136 -1.48657 -7.45523 0
M  V30 2744 N 255.711 1.52812 0.385517 0
M  V30 2745 C 256.957 1.68275 1.13188 0
M  V30 2746 C 257.29 0.423179 1.89533 0
M  V30 2747 O 256.565 -0.579113 1.85679 0
M  V30 2748 C 256.848 2.92001 2.1073 0
M  V30 2749 C 256.701 4.28067 1.38125 0
M  V30 2750 C 258.02 3.11283 3.11113 0
M  V30 2751 H 255.139 0.612352 0.410115 0
M  V30 2752 H 257.781 1.85415 0.414869 0
M  V30 2753 H 255.931 2.77519 2.71874 0
M  V30 2754 H 257.603 4.54324 0.799187 0
M  V30 2755 H 255.846 4.28388 0.683092 0
M  V30 2756 H 256.517 5.10733 2.09417 0
M  V30 2757 H 258.993 3.2482 2.6006 0
M  V30 2758 H 257.869 3.99325 3.76605 0
M  V30 2759 H 258.13 2.25656 3.80173 0
M  V30 2760 N 257.189 -0.644168 1.43834 0
M  V30 2761 C 258.435 -1.40603 1.46146 0
M  V30 2762 C 258.768 -1.93997 0.0887717 0
M  V30 2763 O 258.043 -1.72854 -0.891724 0
M  V30 2764 C 258.326 -2.58086 2.51124 0
M  V30 2765 C 258.179 -2.10126 3.97702 0
M  V30 2766 C 259.498 -3.60291 2.52742 0
M  V30 2767 H 256.617 -0.509905 0.532134 0
M  V30 2768 H 259.259 -0.729502 1.75437 0
M  V30 2769 H 257.409 -3.15801 2.26278 0
M  V30 2770 H 259.081 -1.57342 4.33637 0
M  V30 2771 H 257.324 -1.41419 4.10101 0
M  V30 2772 H 257.995 -2.94649 4.66783 0
M  V30 2773 H 260.471 -3.12352 2.7491 0
M  V30 2774 H 259.347 -4.40032 3.28121 0
M  V30 2775 H 259.608 -4.1349 1.56455 0
M  V30 2776 N 258.668 -1.30515 -0.883378 0
M  V30 2777 C 259.916 -1.19194 -1.63209 0
M  V30 2778 C 260.237 0.253205 -1.93349 0
M  V30 2779 O 259.507 1.17025 -1.57105 0
M  V30 2780 H 258.087 -0.438148 -0.605009 0
M  V30 2781 H 260.749 -1.63663 -1.05832 0
M  V30 2782 H 259.845 -1.75396 -2.58153 0
M  V30 2783 N 260.146 1.09593 -1.13257 0
M  V30 2784 C 261.093 2.1618 -0.808381 0
M  V30 2785 C 262.063 1.64517 0.228754 0
M  V30 2786 O 263.248 1.9053 0.101381 0
M  V30 2787 C 260.388 3.43973 -0.278675 0
M  V30 2788 C 259.501 4.09545 -1.37466 0
M  V30 2789 C 258.636 5.25088 -0.803479 0
M  V30 2790 C 257.675 5.82579 -1.87799 0
M  V30 2791 N 256.812 6.89486 -1.32488 0
M  V30 2792 H 261.652 2.43254 -1.72138 0
M  V30 2793 H 259.189 1.19392 -0.859294 0
M  V30 2794 H 261.147 4.17174 0.0465583 0
M  V30 2795 H 259.777 3.17223 0.597459 0
M  V30 2796 H 258.829 3.34226 -1.81652 0
M  V30 2797 H 260.141 4.48307 -2.18684 0
M  V30 2798 H 259.295 6.05178 -0.429427 0
M  V30 2799 H 258.034 4.87684 0.0397956 0
M  V30 2800 H 257.039 5.01152 -2.26113 0
M  V30 2801 H 258.264 6.22045 -2.72463 0
M  V30 2802 H 256.21 6.54064 -0.503575 0
M  V30 2803 H 256.127 7.27007 -2.07355 0
M  V30 2804 H 257.395 7.73336 -0.978336 0
M  V30 2805 N 261.624 0.925811 1.2754 0
M  V30 2806 C 263.04 0.625767 1.46821 0
M  V30 2807 C 263.24 -0.825506 1.83814 0
M  V30 2808 O 262.296 -1.60356 1.95044 0
M  V30 2809 C 263.609 1.57402 2.56213 0
M  V30 2810 C 265.157 1.58204 2.70075 0
M  V30 2811 C 265.632 2.51721 3.82623 0
M  V30 2812 N 267.123 2.49917 3.89994 0
M  V30 2813 C 267.858 3.18968 4.76494 0
M  V30 2814 N 267.354 3.97391 5.67496 0
M  V30 2815 N 269.147 3.07996 4.70208 0
M  V30 2816 H 261.298 1.86409 1.01811 0
M  V30 2817 H 263.561 0.800213 0.508295 0
M  V30 2818 H 263.267 2.60925 2.35819 0
M  V30 2819 H 263.141 1.31428 3.53563 0
M  V30 2820 H 265.528 0.554124 2.89851 0
M  V30 2821 H 265.609 1.88226 1.73218 0
M  V30 2822 H 265.253 3.54622 3.63601 0
M  V30 2823 H 265.183 2.18996 4.78903 0
M  V30 2824 H 267.674 1.9296 3.24923 0
M  V30 2825 H 267.987 4.4707 6.30356 0
M  V30 2826 H 266.332 4.01495 5.67298 0
M  V30 2827 H 269.523 2.46223 3.9811 0
M  V30 2828 H 269.696 3.6208 5.37403 0
M  V30 2829 N 263.102 -1.41638 0.69111 0
M  V30 2830 C 264.33 -2.05628 0.22909 0
M  V30 2831 C 264.745 -1.51992 -1.11999 0
M  V30 2832 O 264.102 -0.666322 -1.69901 0
M  V30 2833 C 264.153 -3.61084 0.173283 0
M  V30 2834 O 263.874 -4.12735 1.46907 0
M  V30 2835 C 265.375 -4.42213 -0.310266 0
M  V30 2836 H 262.595 -0.662327 0.107534 0
M  V30 2837 H 265.139 -1.81489 0.942438 0
M  V30 2838 H 263.294 -3.84278 -0.490858 0
M  V30 2839 H 263.708 -5.06743 1.35322 0
M  V30 2840 H 265.182 -5.51194 -0.298196 0
M  V30 2841 H 265.659 -4.1799 -1.34838 0
M  V30 2842 H 266.265 -4.24074 0.322716 0
M  V30 2843 N 264.58 -0.43555 -1.51462 0
M  V30 2844 C 265.826 0.131709 -2.02372 0
M  V30 2845 C 266.159 1.42516 -1.3192 0
M  V30 2846 O 265.434 1.89606 -0.433573 0
M  V30 2847 C 265.717 0.352301 -3.58373 0
M  V30 2848 C 265.57 -0.959676 -4.39443 0
M  V30 2849 C 266.889 1.12286 -4.25535 0
M  V30 2850 H 264.008 0.0463936 -0.735538 0
M  V30 2851 H 266.65 -0.574197 -1.81116 0
M  V30 2852 H 264.8 0.9536 -3.76615 0
M  V30 2853 H 266.472 -1.59482 -4.32855 0
M  V30 2854 H 264.715 -1.56468 -4.04599 0
M  V30 2855 H 265.386 -0.759394 -5.46752 0
M  V30 2856 H 267.862 0.613545 -4.11552 0
M  V30 2857 H 266.738 1.24598 -5.34571 0
M  V30 2858 H 266.999 2.15048 -3.86273 0
M  V30 2859 N 266.058 1.56714 -0.166846 0
M  V30 2860 C 267.469 1.83378 0.350646 0
M  V30 2861 C 267.82 1.08646 1.63372 0
M  V30 2862 O 266.945 0.338058 2.13743 0
M  V30 2863 C 267.54 3.32643 0.642963 0
M  V30 2864 C 266.099 3.59818 1.10491 0
M  V30 2865 C 265.246 2.76954 0.138411 0
M  V30 2866 H 268.197 1.53803 -0.391193 0
M  V30 2867 H 268.218 3.49878 1.49551 0
M  V30 2868 H 267.73 3.87007 -0.291055 0
M  V30 2869 H 265.831 3.1086 2.05418 0
M  V30 2870 H 265.944 4.68178 1.01716 0
M  V30 2871 H 264.308 2.4666 0.634911 0
M  V30 2872 H 265.091 3.34097 -0.789549 0
M  V30 2873 N 267.536 -0.106894 1.57237 0
M  V30 2874 C 268.813 -0.843526 1.76477 0
M  V30 2875 C 269.193 -1.97499 0.745464 0
M  V30 2876 O 268.541 -2.27357 -0.228306 0
M  V30 2877 C 268.751 -1.34903 3.21873 0
M  V30 2878 C 270.099 -1.79654 3.8472 0
M  V30 2879 O 271.123 -1.44554 3.2555 0
M  V30 2880 O 269.982 -2.44515 4.88748 0
M  V30 2881 H 267.076 -0.401468 0.723016 0
M  V30 2882 H 269.622 -0.0896927 1.69463 0
M  V30 2883 H 268.394 -0.53781 3.87586 0
M  V30 2884 H 268.017 -2.16522 3.33473 0
M  V30 2885 N 269.014 -1.53014 -0.377408 0
M  V30 2886 C 269.962 -1.7927 -1.48206 0
M  V30 2887 C 270.956 -0.661195 -1.55963 0
M  V30 2888 O 272.162 -0.843908 -1.58991 0
M  V30 2889 H 268.537 -0.567425 -0.493491 0
M  V30 2890 H 270.508 -2.71753 -1.2326 0
M  V30 2891 C 269.257 -1.98894 -2.85196 0
M  V30 2892 H 268.58 -2.85395 -2.79981 0
M  V30 2893 H 270.02 -2.21249 -3.61698 0
M  V30 2894 C 268.479 -0.764691 -3.28107 0
M  V30 2895 O 269.009 0.0523226 -4.01666 0
M  V30 2896 N 267.215 -0.591493 -2.84517 0
M  V30 2897 H 266.762 -1.25749 -2.24822 0
M  V30 2898 H 266.72 0.226253 -3.13585 0
M  V30 2899 N 270.492 0.636531 -1.44174 0
M  V30 2900 C 271.424 1.7618 -1.46606 0
M  V30 2901 C 272.437 1.58768 -0.360091 0
M  V30 2902 O 273.626 1.67181 -0.625518 0
M  V30 2903 C 270.726 3.13833 -1.27915 0
M  V30 2904 C 269.899 3.57753 -2.51658 0
M  V30 2905 C 268.958 4.74265 -2.27945 0
M  V30 2906 O 267.984 4.82852 -3.01401 0
M  V30 2907 N 269.186 5.65604 -1.30662 0
M  V30 2908 H 271.951 1.74567 -2.43612 0
M  V30 2909 H 269.512 0.820924 -1.39544 0
M  V30 2910 H 271.504 3.8949 -1.09907 0
M  V30 2911 H 270.074 3.10121 -0.39293 0
M  V30 2912 H 269.294 2.72362 -2.84978 0
M  V30 2913 H 270.582 3.83847 -3.33974 0
M  V30 2914 H 269.98 5.61354 -0.699844 0
M  V30 2915 H 268.537 6.40913 -1.18634 0
M  V30 2916 N 271.97 1.30982 0.876444 0
M  V30 2917 C 273.21 1.21589 1.64303 0
M  V30 2918 C 273.574 -0.223962 1.90689 0
M  V30 2919 O 274.775 -0.44128 2.65153 0
M  V30 2920 C 273.046 2.03007 2.94148 0
M  V30 2921 S 274.605 2.10405 3.85065 0
M  V30 2922 H 271.423 0.433161 0.563819 0
M  V30 2923 H 274.025 1.65565 1.03964 0
M  V30 2924 H 272.729 3.06719 2.72675 0
M  V30 2925 H 272.26 1.59725 3.59515 0
M  V30 2926 H 274.275 1.23765 4.80517 0
M  V30 2927 N 273.449 -1.08991 1.13837 0
M  V30 2928 C 274.696 -1.81258 0.902882 0
M  V30 2929 C 275.024 -1.85936 -0.570803 0
M  V30 2930 O 274.279 -1.3267 -1.43865 0
M  V30 2931 C 274.578 -3.27042 1.44147 0
M  V30 2932 C 274.244 -3.4249 2.93276 0
M  V30 2933 C 272.906 -3.46414 3.33992 0
M  V30 2934 C 275.258 -3.4666 3.892 0
M  V30 2935 C 272.586 -3.52091 4.69307 0
M  V30 2936 C 274.938 -3.53872 5.24364 0
M  V30 2937 C 273.602 -3.56066 5.646 0
M  V30 2938 H 272.872 -0.663268 0.330388 0
M  V30 2939 H 275.519 -1.28368 1.42105 0
M  V30 2940 H 273.824 -3.82599 0.844097 0
M  V30 2941 H 275.521 -3.81499 1.23528 0
M  V30 2942 H 272.111 -3.40124 2.60794 0
M  V30 2943 H 276.295 -3.42865 3.58828 0
M  V30 2944 H 271.551 -3.52079 4.9985 0
M  V30 2945 H 275.725 -3.56043 5.98503 0
M  V30 2946 H 273.352 -3.60218 6.69438 0
M  V30 2947 N 274.927 -0.932562 -1.27047 0
M  V30 2948 C 276.176 -0.571351 -1.93439 0
M  V30 2949 C 276.489 0.892467 -1.74053 0
M  V30 2950 O 277.695 1.36267 -2.34826 0
M  V30 2951 C 276.151 -0.97106 -3.46552 0
M  V30 2952 C 275.759 -2.4559 -3.74686 0
M  V30 2953 C 277.503 -0.681333 -4.18997 0
M  V30 2954 C 275.41 -2.79475 -5.21198 0
M  V30 2955 H 274.34 -0.209966 -0.724176 0
M  V30 2956 H 276.991 -1.13403 -1.44263 0
M  V30 2957 H 275.373 -0.336983 -3.94564 0
M  V30 2958 H 276.547 -3.13829 -3.37414 0
M  V30 2959 H 274.862 -2.71802 -3.15456 0
M  V30 2960 H 277.459 -0.910939 -5.26883 0
M  V30 2961 H 277.802 0.381628 -4.14547 0
M  V30 2962 H 278.335 -1.27473 -3.76823 0
M  V30 2963 H 275.074 -3.847 -5.30741 0
M  V30 2964 H 274.594 -2.1589 -5.596 0
M  V30 2965 H 276.273 -2.67478 -5.89122 0
M  V30 2966 N 276.405 1.4127 -0.698611 0
M  V30 2967 C 277.337 2.292 0.00399731 0
M  V30 2968 C 278.35 1.44944 0.741279 0
M  V30 2969 O 279.539 1.68416 0.591477 0
M  V30 2970 C 276.639 3.22875 1.02979 0
M  V30 2971 C 275.812 4.35904 0.36151 0
M  V30 2972 C 274.871 5.10134 1.29033 0
M  V30 2973 O 273.897 5.63809 0.781562 0
M  V30 2974 N 275.099 5.17885 2.6225 0
M  V30 2975 H 277.864 2.9014 -0.750921 0
M  V30 2976 H 275.425 1.52455 -0.544882 0
M  V30 2977 H 277.417 3.69404 1.65296 0
M  V30 2978 H 275.987 2.63221 1.68622 0
M  V30 2979 H 275.207 3.91719 -0.441584 0
M  V30 2980 H 276.495 5.08696 -0.103055 0
M  V30 2981 H 275.893 4.7573 3.061 0
M  V30 2982 H 274.45 5.6798 3.19754 0
M  V30 2983 N 277.883 0.443576 1.51229 0
M  V30 2984 C 279.13 -0.120796 2.02139 0
M  V30 2985 C 279.458 -1.42166 1.32736 0
M  V30 2986 O 278.713 -1.90849 0.43301 0
M  V30 2987 C 279.012 -0.380579 3.55368 0
M  V30 2988 C 278.678 0.83523 4.43097 0
M  V30 2989 C 277.34 1.16864 4.66794 0
M  V30 2990 C 279.692 1.64601 4.94526 0
M  V30 2991 C 277.02 2.31339 5.39165 0
M  V30 2992 C 279.372 2.78181 5.68153 0
M  V30 2993 C 278.036 3.11969 5.90112 0
M  V30 2994 H 277.306 -0.0442023 0.73968 0
M  V30 2995 H 279.953 0.592046 1.82118 0
M  V30 2996 H 278.258 -1.17538 3.73754 0
M  V30 2997 H 279.955 -0.830777 3.923 0
M  V30 2998 H 276.545 0.565437 4.24854 0
M  V30 2999 H 280.729 1.40163 4.76097 0
M  V30 3000 H 275.985 2.57823 5.5438 0
M  V30 3001 H 280.159 3.41371 6.06992 0
M  V30 3002 H 277.786 4.00784 6.45969 0
M  V30 3003 N 279.361 -1.56624 0.175154 0
M  V30 3004 C 280.291 -2.21155 -0.749195 0
M  V30 3005 C 281.272 -1.16836 -1.23626 0
M  V30 3006 O 282.457 -1.45277 -1.28873 0
M  V30 3007 C 279.587 -2.8553 -1.97711 0
M  V30 3008 C 278.541 -3.95921 -1.62575 0
M  V30 3009 C 277.867 -4.47365 -2.92864 0
M  V30 3010 C 279.167 -5.15323 -0.850838 0
M  V30 3011 H 280.861 -2.98653 -0.211295 0
M  V30 3012 H 278.407 -1.43651 -0.100188 0
M  V30 3013 H 280.36 -3.2935 -2.62881 0
M  V30 3014 H 279.084 -2.05406 -2.53921 0
M  V30 3015 H 277.743 -3.52762 -0.997719 0
M  V30 3016 H 277.391 -3.64027 -3.47122 0
M  V30 3017 H 277.091 -5.21839 -2.70106 0
M  V30 3018 H 278.615 -4.93873 -3.59056 0
M  V30 3019 H 280.029 -5.55812 -1.40521 0
M  V30 3020 H 278.426 -5.95739 -0.722154 0
M  V30 3021 H 279.496 -4.84661 0.152082 0
M  V30 3022 N 280.839 0.0985539 -1.57292 0
M  V30 3023 C 282.064 0.820196 -1.90493 0
M  V30 3024 C 282.489 1.71658 -0.769094 0
M  V30 3025 O 281.847 1.79133 0.279495 0
M  V30 3026 C 281.895 1.61242 -3.22542 0
M  V30 3027 O 280.999 2.72108 -3.09888 0
M  V30 3028 H 280.34 0.225547 -0.62452 0
M  V30 3029 H 282.87 0.0748159 -2.04463 0
M  V30 3030 H 282.88 1.99737 -3.55766 0
M  V30 3031 H 281.555 0.954535 -4.04798 0
M  V30 3032 H 280.132 2.36667 -2.88172 0
M  V30 3033 N 282.317 1.53212 0.369288 0
M  V30 3034 C 283.265 1.80054 1.47253 0
M  V30 3035 C 284.259 0.669456 1.55611 0
M  V30 3036 O 285.465 0.852328 1.58541 0
M  V30 3037 H 281.84 0.570034 0.490475 0
M  V30 3038 H 283.811 2.72403 1.21817 0
M  V30 3039 C 282.56 2.00403 2.84137 0
M  V30 3040 H 281.883 2.86876 2.78464 0
M  V30 3041 H 283.323 2.23164 3.60519 0
M  V30 3042 C 281.782 0.782081 3.27697 0
M  V30 3043 O 282.312 -0.0310205 4.01688 0
M  V30 3044 N 280.518 0.606573 2.84199 0
M  V30 3045 H 280.065 1.26939 2.24152 0
M  V30 3046 H 280.023 -0.20962 3.137 0
M  V30 3047 N 283.795 -0.628877 1.44509 0
M  V30 3048 C 285.206 -1.21054 1.42137 0
M  V30 3049 C 285.557 -1.95715 0.137881 0
M  V30 3050 O 284.682 -2.02554 -0.761645 0
M  V30 3051 C 285.277 -2.20189 2.57493 0
M  V30 3052 C 283.836 -2.73777 2.58308 0
M  V30 3053 C 282.983 -1.48813 2.33987 0
M  V30 3054 H 285.934 -0.41942 1.53057 0
M  V30 3055 H 285.955 -3.02833 2.30375 0
M  V30 3056 H 285.467 -1.6582 3.50892 0
M  V30 3057 H 283.568 -3.32142 1.68856 0
M  V30 3058 H 283.681 -3.19662 3.56865 0
M  V30 3059 H 282.045 -1.77024 1.83124 0
M  V30 3060 H 282.828 -0.963442 3.29504 0
M  V30 3061 N 285.273 -1.31445 -0.869486 0
M  V30 3062 C 286.236 -1.19094 -1.9583 0
M  V30 3063 C 287.236 -0.117906 -1.60367 0
M  V30 3064 O 288.426 -0.367208 -1.70286 0
M  V30 3065 C 285.558 -0.828165 -3.30688 0
M  V30 3066 H 286.751 -2.15842 -2.08212 0
M  V30 3067 H 284.304 -1.15063 -1.05784 0
M  V30 3068 H 285.039 0.138142 -3.24006 0
M  V30 3069 H 284.824 -1.6038 -3.578 0
M  V30 3070 H 286.314 -0.765658 -4.10521 0
M  V30 3071 N 286.751 1.08385 -1.14413 0
M  V30 3072 C 287.997 1.81044 -0.913834 0
M  V30 3073 C 288.33 1.86004 0.558209 0
M  V30 3074 O 287.605 1.33606 1.4135 0
M  V30 3075 C 287.888 3.26648 -1.51569 0
M  V30 3076 C 287.741 3.29895 -3.0576 0
M  V30 3077 C 289.06 4.23629 -1.19273 0
M  V30 3078 H 286.179 0.65727 -0.333414 0
M  V30 3079 H 288.821 1.26896 -1.41412 0
M  V30 3080 H 286.971 3.72889 -1.09023 0
M  V30 3081 H 288.643 2.91977 -3.57137 0
M  V30 3082 H 286.886 2.69163 -3.40197 0
M  V30 3083 H 287.557 4.32516 -3.42977 0
M  V30 3084 H 290.033 3.85727 -1.56057 0
M  V30 3085 H 288.909 5.23822 -1.64017 0
M  V30 3086 H 289.17 4.41968 -0.108068 0
M  V30 3087 N 288.23 0.939286 1.26551 0
M  V30 3088 C 289.458 0.602536 1.97932 0
M  V30 3089 C 289.873 -0.82206 1.69964 0
M  V30 3090 O 289.23 -1.54789 0.966784 0
M  V30 3091 C 289.281 0.832946 3.51773 0
M  V30 3092 O 289.002 2.20151 3.78768 0
M  V30 3093 C 290.503 0.506483 4.40397 0
M  V30 3094 H 287.723 0.227248 0.631347 0
M  V30 3095 H 290.267 1.25948 1.61113 0
M  V30 3096 H 288.422 0.222644 3.8676 0
M  V30 3097 H 288.836 2.26013 4.73306 0
M  V30 3098 H 290.31 0.718333 5.47306 0
M  V30 3099 H 290.787 -0.558451 4.35635 0
M  V30 3100 H 291.393 1.09543 4.10951 0
M  V30 3101 N 289.708 -1.40897 0.706093 0
M  V30 3102 C 290.955 -2.01054 0.241531 0
M  V30 3103 C 291.283 -1.55956 -1.16223 0
M  V30 3104 O 290.538 -0.766336 -1.80072 0
M  V30 3105 C 290.837 -3.5646 0.259099 0
M  V30 3106 C 290.503 -4.21106 1.61184 0
M  V30 3107 C 289.165 -4.38479 1.98216 0
M  V30 3108 C 291.517 -4.57256 2.50132 0
M  V30 3109 C 288.845 -4.89282 3.2376 0
M  V30 3110 C 291.197 -5.09454 3.7502 0
M  V30 3111 C 289.861 -5.25037 4.12181 0
M  V30 3112 H 289.131 -0.73571 0.0883825 0
M  V30 3113 H 291.778 -1.68645 0.907257 0
M  V30 3114 H 290.083 -3.88721 -0.490189 0
M  V30 3115 H 291.78 -4.00826 -0.11804 0
M  V30 3116 H 288.37 -4.07966 1.31384 0
M  V30 3117 H 292.554 -4.43479 2.228 0
M  V30 3118 H 287.81 -4.99531 3.52532 0
M  V30 3119 H 291.984 -5.36404 4.44121 0
M  V30 3120 H 289.611 -5.64164 5.09532 0
M  V30 3121 N 291.186 -0.45159 -1.50991 0
M  V30 3122 C 292.434 0.109857 -2.01801 0
M  V30 3123 C 292.755 1.41958 -1.3369 0
M  V30 3124 O 292.025 1.9003 -0.475951 0
M  V30 3125 H 290.605 0.0435884 -0.745727 0
M  V30 3126 H 293.267 -0.597557 -1.85514 0
M  V30 3127 H 292.363 0.275489 -3.10882 0
M  V30 3128 N 292.664 1.56529 -0.183458 0
M  V30 3129 C 293.892 2.01623 0.464285 0
M  V30 3130 C 294.307 1.06366 1.55986 0
M  V30 3131 O 293.664 0.0665398 1.82379 0
M  V30 3132 C 293.715 3.46475 1.03139 0
M  V30 3133 O 293.436 4.38095 -0.0204675 0
M  V30 3134 C 294.937 4.0703 1.75617 0
M  V30 3135 H 292.157 0.660596 0.117704 0
M  V30 3136 H 294.701 2.02451 -0.288751 0
M  V30 3137 H 292.856 3.46383 1.73486 0
M  V30 3138 H 293.27 5.22973 0.399952 0
M  V30 3139 H 294.744 5.10271 2.10542 0
M  V30 3140 H 295.221 3.49819 2.65563 0
M  V30 3141 H 295.827 4.1086 1.09882 0
M  V30 3142 N 294.142 -0.090211 1.57342 0
M  V30 3143 C 295.105 -1.09335 2.01441 0
M  V30 3144 C 296.105 -1.32666 0.908641 0
M  V30 3145 O 297.295 -1.28697 1.174 0
M  V30 3146 C 294.427 -2.44136 2.3793 0
M  V30 3147 H 295.62 -0.713662 2.91285 0
M  V30 3148 H 293.173 -0.335404 1.52659 0
M  V30 3149 H 293.908 -2.86972 1.51055 0
M  V30 3150 H 293.693 -2.28548 3.18603 0
M  V30 3151 H 295.183 -3.16277 2.72688 0
M  V30 3152 N 295.62 -1.53406 -0.361157 0
M  V30 3153 C 296.869 -1.69022 -1.10066 0
M  V30 3154 C 297.182 -0.450838 -1.90333 0
M  V30 3155 O 298.388 -0.487617 -2.67085 0
M  V30 3156 C 296.844 -2.98812 -2.00598 0
M  V30 3157 C 296.452 -4.30027 -1.25621 0
M  V30 3158 C 298.196 -3.23795 -2.74513 0
M  V30 3159 C 296.103 -5.50903 -2.1508 0
M  V30 3160 H 295.033 -0.629776 -0.414606 0
M  V30 3161 H 297.684 -1.79907 -0.361348 0
M  V30 3162 H 296.066 -2.8174 -2.78278 0
M  V30 3163 H 297.24 -4.57745 -0.529739 0
M  V30 3164 H 295.555 -4.11522 -0.635496 0
M  V30 3165 H 298.152 -4.11289 -3.41681 0
M  V30 3166 H 298.495 -2.40045 -3.40123 0
M  V30 3167 H 299.028 -3.41561 -2.03914 0
M  V30 3168 H 295.767 -6.37143 -1.54041 0
M  V30 3169 H 295.287 -5.27459 -2.85565 0
M  V30 3170 H 296.966 -5.85865 -2.74538 0
M  V30 3171 N 297.098 0.621204 -1.44841 0
M  V30 3172 C 298.061 1.71459 -1.521 0
M  V30 3173 C 299.061 1.55696 -0.401933 0
M  V30 3174 O 300.251 1.61011 -0.664925 0
M  V30 3175 C 297.383 3.10624 -1.40447 0
M  V30 3176 H 298.576 1.66394 -2.49506 0
M  V30 3177 H 296.129 0.835745 -1.3208 0
M  V30 3178 H 296.864 3.21277 -0.441737 0
M  V30 3179 H 296.649 3.23473 -2.21602 0
M  V30 3180 H 298.139 3.90293 -1.4853 0
M  V30 3181 N 298.576 1.31904 0.862503 0
M  V30 3182 C 299.539 1.20131 1.95195 0
M  V30 3183 C 300.539 0.126409 1.60302 0
M  V30 3184 O 301.729 0.376234 1.70089 0
M  V30 3185 C 298.861 0.845691 3.30244 0
M  V30 3186 H 300.054 2.16943 2.07064 0
M  V30 3187 H 297.607 1.15622 1.05172 0
M  V30 3188 H 298.342 -0.120957 3.24074 0
M  V30 3189 H 298.127 1.62276 3.56944 0
M  V30 3190 H 299.617 0.787418 4.10109 0
M  V30 3191 N 300.054 -1.07777 1.14986 0
M  V30 3192 C 301.301 -1.8029 0.922056 0
M  V30 3193 C 301.629 -1.86531 -0.55105 0
M  V30 3194 O 300.884 -1.34189 -1.42449 0
M  V30 3195 C 301.183 -3.25495 1.47608 0
M  V30 3196 C 300.849 -3.39361 2.96893 0
M  V30 3197 C 299.511 -3.42852 3.37647 0
M  V30 3198 C 301.863 -3.42512 3.92854 0
M  V30 3199 C 299.191 -3.47094 4.73015 0
M  V30 3200 C 301.543 -3.4829 5.28088 0
M  V30 3201 C 300.207 -3.50058 5.68345 0
M  V30 3202 H 299.477 -0.659727 0.337404 0
M  V30 3203 H 302.124 -1.26854 1.43459 0
M  V30 3204 H 300.429 -3.81683 0.88463 0
M  V30 3205 H 302.126 -3.80168 1.27568 0
M  V30 3206 H 298.716 -3.37339 2.64387 0
M  V30 3207 H 302.9 -3.3904 3.62444 0
M  V30 3208 H 298.156 -3.46758 5.03556 0
M  V30 3209 H 302.33 -3.49675 6.02246 0
M  V30 3210 H 299.957 -3.53097 6.73221 0
M  V30 3211 N 301.532 -0.945985 -1.26051 0
M  V30 3212 C 302.762 -0.612136 -1.97323 0
M  V30 3213 C 303.17 0.818171 -1.70595 0
M  V30 3214 O 302.513 1.55777 -0.973613 0
M  V30 3215 C 302.575 -0.780347 -3.50929 0
M  V30 3216 C 302.239 -2.18619 -4.01317 0
M  V30 3217 C 303.236 -3.16209 -4.12683 0
M  V30 3218 C 300.921 -2.50805 -4.35203 0
M  V30 3219 C 302.915 -4.44085 -4.57238 0
M  V30 3220 C 300.602 -3.78912 -4.79446 0
M  V30 3221 C 301.6 -4.75365 -4.90425 0
M  V30 3222 O 301.288 -6.01191 -5.3369 0
M  V30 3223 H 301.02 -0.229134 -0.635982 0
M  V30 3224 H 303.574 -1.27036 -1.61404 0
M  V30 3225 H 301.804 -0.0649864 -3.86645 0
M  V30 3226 H 303.493 -0.448842 -4.03411 0
M  V30 3227 H 304.259 -2.92668 -3.86744 0
M  V30 3228 H 300.138 -1.76463 -4.2589 0
M  V30 3229 H 303.682 -5.19373 -4.65723 0
M  V30 3230 H 299.579 -4.02265 -5.0483 0
M  V30 3231 H 300.347 -6.04442 -5.51899 0
M  V30 3232 N 303.011 1.40521 -0.713556 0
M  V30 3233 C 303.941 2.33381 -0.0743864 0
M  V30 3234 C 304.922 1.52784 0.747735 0
M  V30 3235 O 306.107 1.81258 0.697071 0
M  V30 3236 C 303.237 3.36748 0.849598 0
M  V30 3237 C 302.191 4.27793 0.133247 0
M  V30 3238 C 301.517 5.21679 1.17281 0
M  V30 3239 C 302.817 5.12415 -1.01134 0
M  V30 3240 H 304.511 2.87081 -0.850007 0
M  V30 3241 H 302.057 1.38034 -0.410201 0
M  V30 3242 H 304.01 4.00648 1.30612 0
M  V30 3243 H 302.734 2.81439 1.65709 0
M  V30 3244 H 301.393 3.65342 -0.303426 0
M  V30 3245 H 301.041 4.62677 1.9733 0
M  V30 3246 H 300.741 5.83435 0.698397 0
M  V30 3247 H 302.265 5.88456 1.62947 0
M  V30 3248 H 303.679 5.69781 -0.634274 0
M  V30 3249 H 302.076 5.83203 -1.41399 0
M  V30 3250 H 303.146 4.48514 -1.84292 0
M  V30 3251 N 304.489 0.459591 1.5075 0
M  V30 3252 C 305.9 0.00171547 1.867 0
M  V30 3253 C 306.251 -1.39934 1.37525 0
M  V30 3254 O 305.376 -2.03523 0.735349 0
M  V30 3255 C 305.971 -0.00366298 3.388 0
M  V30 3256 C 304.53 -0.406026 3.74204 0
M  V30 3257 C 303.677 0.38673 2.7459 0
M  V30 3258 H 306.628 0.674413 1.43657 0
M  V30 3259 H 306.649 -0.808371 3.71814 0
M  V30 3260 H 306.161 1.01617 3.74561 0
M  V30 3261 H 304.262 -1.43063 3.4404 0
M  V30 3262 H 304.375 -0.115362 4.78961 0
M  V30 3263 H 302.739 -0.158019 2.54209 0
M  V30 3264 H 303.522 1.40585 3.13194 0
M  V30 3265 N 305.967 -1.56429 0.191757 0
M  V30 3266 C 307.213 -1.97777 -0.448554 0
M  V30 3267 C 307.546 -1.07847 -1.61501 0
M  V30 3268 O 306.821 -0.129774 -1.94067 0
M  V30 3269 C 307.104 -3.48362 -0.911906 0
M  V30 3270 C 306.957 -4.4907 0.256136 0
M  V30 3271 C 308.276 -4.02561 -1.77857 0
M  V30 3272 H 305.395 -0.719071 -0.161572 0
M  V30 3273 H 308.037 -1.87896 0.282007 0
M  V30 3274 H 306.187 -3.56914 -1.53442 0
M  V30 3275 H 307.859 -4.5256 0.893733 0
M  V30 3276 H 306.102 -4.24181 0.908436 0
M  V30 3277 H 306.773 -5.51889 -0.11053 0
M  V30 3278 H 309.249 -3.96767 -1.25359 0
M  V30 3279 H 308.125 -5.08301 -2.07174 0
M  V30 3280 H 308.386 -3.47616 -2.73158 0
M  V30 3281 N 307.445 0.0818655 -1.57387 0
M  V30 3282 C 308.691 0.784074 -1.8703 0
M  V30 3283 C 309.024 1.77729 -0.782689 0
M  V30 3284 O 308.299 1.93384 0.208051 0
M  V30 3285 C 308.582 1.50105 -3.27323 0
M  V30 3286 C 308.435 0.524925 -4.46727 0
M  V30 3287 C 309.754 2.44843 -3.65705 0
M  V30 3288 H 306.873 0.283582 -0.680257 0
M  V30 3289 H 309.515 0.0474352 -1.89941 0
M  V30 3290 H 307.665 2.12897 -3.24972 0
M  V30 3291 H 309.337 -0.0970111 -4.61198 0
M  V30 3292 H 307.58 -0.160606 -4.33503 0
M  V30 3293 H 308.251 1.064 -5.41648 0
M  V30 3294 H 310.727 1.92135 -3.69085 0
M  V30 3295 H 309.603 2.92018 -4.64776 0
M  V30 3296 H 309.864 3.29197 -2.95096 0
M  V30 3297 N 308.923 1.53595 0.353017 0
M  V30 3298 C 310.172 1.69603 1.09168 0
M  V30 3299 C 310.485 0.460925 1.90092 0
M  V30 3300 O 311.691 0.501774 2.66823 0
M  V30 3301 C 310.147 2.99872 1.9901 0
M  V30 3302 C 309.755 4.30687 1.23339 0
M  V30 3303 C 311.499 3.25246 2.72792 0
M  V30 3304 C 309.406 5.52036 2.12156 0
M  V30 3305 H 308.336 0.631966 0.411261 0
M  V30 3306 H 310.987 1.80096 0.351802 0
M  V30 3307 H 309.369 2.83212 2.7678 0
M  V30 3308 H 310.543 4.58019 0.505456 0
M  V30 3309 H 308.858 4.11853 0.613663 0
M  V30 3310 H 311.455 4.13095 3.39495 0
M  V30 3311 H 311.798 2.41846 3.38846 0
M  V30 3312 H 312.331 3.42638 2.021 0
M  V30 3313 H 309.07 6.37951 1.50659 0
M  V30 3314 H 308.59 5.28966 2.82764 0
M  V30 3315 H 310.269 5.87313 2.71427 0
M  V30 3316 N 310.401 -0.613514 1.45168 0
M  V30 3317 C 311.334 -1.73809 1.47871 0
M  V30 3318 C 312.312 -1.59097 0.33568 0
M  V30 3319 O 313.496 -1.8074 0.535299 0
M  V30 3320 C 310.623 -3.11574 1.32813 0
M  V30 3321 C 309.669 -3.4489 2.50905 0
M  V30 3322 S 310.502 -3.40393 4.13392 0
M  V30 3323 C 311.658 -4.80749 4.00789 0
M  V30 3324 H 311.891 -1.71252 2.43023 0
M  V30 3325 H 309.424 -0.789658 1.32679 0
M  V30 3326 H 311.382 -3.91065 1.24812 0
M  V30 3327 H 310.043 -3.11652 0.391418 0
M  V30 3328 H 309.236 -4.45183 2.36279 0
M  V30 3329 H 308.838 -2.72901 2.55736 0
M  V30 3330 H 311.13 -5.7041 3.65567 0
M  V30 3331 H 312.073 -5.00431 5.00974 0
M  V30 3332 H 312.481 -4.56151 3.32545 0
M  V30 3333 N 311.879 -1.3236 -0.855495 0
M  V30 3334 C 313.107 -1.2587 -1.64208 0
M  V30 3335 C 313.522 0.173457 -1.88002 0
M  V30 3336 O 312.879 1.11027 -1.44842 0
M  V30 3337 C 312.93 -2.01424 -3.00184 0
M  V30 3338 O 312.651 -3.39051 -2.77445 0
M  V30 3339 C 314.152 -2.01948 -3.94629 0
M  V30 3340 H 311.372 -0.434318 -0.511477 0
M  V30 3341 H 313.916 -1.74469 -1.0668 0
M  V30 3342 H 312.071 -1.56549 -3.5436 0
M  V30 3343 H 312.485 -3.77711 -3.63916 0
M  V30 3344 H 313.959 -2.59297 -4.87308 0
M  V30 3345 H 314.436 -1.00554 -4.27534 0
M  V30 3346 H 315.042 -2.46767 -3.4639 0
M  V30 3347 N 313.357 1.07166 -1.15556 0
M  V30 3348 C 314.603 1.80065 -0.932984 0
M  V30 3349 C 314.936 1.86586 0.53845 0
M  V30 3350 O 314.211 1.35098 1.39924 0
M  V30 3351 C 314.494 3.25022 -1.55025 0
M  V30 3352 C 314.347 3.26634 -3.09242 0
M  V30 3353 C 315.666 4.22341 -1.2376 0
M  V30 3354 H 312.785 0.653697 -0.340366 0
M  V30 3355 H 315.427 1.25389 -1.4275 0
M  V30 3356 H 313.577 3.71712 -1.12972 0
M  V30 3357 H 315.249 2.88173 -3.60214 0
M  V30 3358 H 313.492 2.65539 -3.43033 0
M  V30 3359 H 314.163 4.28854 -3.47546 0
M  V30 3360 H 316.639 3.8405 -1.60139 0
M  V30 3361 H 315.515 5.22053 -1.69564 0
M  V30 3362 H 315.776 4.41828 -0.154938 0
M  V30 3363 N 314.835 0.952656 1.25548 0
M  V30 3364 C 315.765 0.489287 2.28316 0
M  V30 3365 C 316.746 -0.463359 1.63667 0
M  V30 3366 O 317.931 -0.36274 1.90782 0
M  V30 3367 C 315.061 -0.235603 3.465 0
M  V30 3368 C 314.015 0.631593 4.23314 0
M  V30 3369 C 313.341 -0.223923 5.34231 0
M  V30 3370 C 314.641 1.90871 4.86174 0
M  V30 3371 H 316.335 1.34822 2.67326 0
M  V30 3372 H 313.881 0.649728 1.28509 0
M  V30 3373 H 315.834 -0.570882 4.17515 0
M  V30 3374 H 314.558 -1.12877 3.06474 0
M  V30 3375 H 313.217 0.949929 3.54079 0
M  V30 3376 H 312.865 -1.11678 4.90446 0
M  V30 3377 H 312.565 0.35299 5.86539 0
M  V30 3378 H 314.089 -0.554214 6.0808 0
M  V30 3379 H 315.503 1.63997 5.49343 0
M  V30 3380 H 313.9 2.43112 5.4865 0
M  V30 3381 H 314.97 2.61304 4.08471 0
M  V30 3382 N 316.313 -1.40141 0.720998 0
M  V30 3383 C 317.543 -2.04798 0.27226 0
M  V30 3384 C 317.951 -1.54442 -1.09289 0
M  V30 3385 O 317.294 -0.698342 -1.69908 0
M  V30 3386 C 317.356 -3.59048 0.18027 0
M  V30 3387 C 317.02 -4.32317 1.48159 0
M  V30 3388 C 318.017 -4.59902 2.42458 0
M  V30 3389 C 315.702 -4.71125 1.74202 0
M  V30 3390 C 317.696 -5.25288 3.61042 0
M  V30 3391 C 315.383 -5.36242 2.93066 0
M  V30 3392 C 316.381 -5.63254 3.86308 0
M  V30 3393 O 316.069 -6.27024 5.03086 0
M  V30 3394 H 315.801 -0.665419 0.119139 0
M  V30 3395 H 318.355 -1.80436 0.981432 0
M  V30 3396 H 316.585 -3.82251 -0.58489 0
M  V30 3397 H 318.274 -4.05221 -0.234618 0
M  V30 3398 H 319.04 -4.30379 2.23604 0
M  V30 3399 H 314.919 -4.49466 1.02477 0
M  V30 3400 H 318.463 -5.46289 4.33837 0
M  V30 3401 H 314.36 -5.65185 3.11826 0
M  V30 3402 H 315.128 -6.4552 5.03235 0
M  V30 3403 N 317.792 -0.46758 -1.50504 0
M  V30 3404 C 319.041 0.0902868 -2.01498 0
M  V30 3405 C 319.354 1.411 -1.35463 0
M  V30 3406 O 320.56 2.0536 -1.77594 0
M  V30 3407 C 319.016 0.21142 -3.59278 0
M  V30 3408 C 318.624 -1.10065 -4.34269 0
M  V30 3409 C 320.368 0.721433 -4.18325 0
M  V30 3410 C 318.275 -0.943505 -5.83825 0
M  V30 3411 H 317.205 0.037517 -0.753066 0
M  V30 3412 H 319.856 -0.601943 -1.73346 0
M  V30 3413 H 318.238 0.967352 -3.84003 0
M  V30 3414 H 319.412 -1.86726 -4.21272 0
M  V30 3415 H 317.727 -1.5415 -3.86816 0
M  V30 3416 H 320.324 0.85598 -5.27804 0
M  V30 3417 H 320.667 1.71186 -3.79475 0
M  V30 3418 H 321.2 0.0229843 -3.97793 0
M  V30 3419 H 317.939 -1.90719 -6.27141 0
M  V30 3420 H 317.459 -0.217213 -5.99407 0
M  V30 3421 H 319.138 -0.608715 -6.4413 0
M  V30 3422 N 319.27 1.56325 -0.20005 0
M  V30 3423 C 320.22 2.15939 0.731743 0
M  V30 3424 C 321.204 1.10154 1.17281 0
M  V30 3425 O 322.396 1.36203 1.13038 0
M  V30 3426 C 319.525 2.82614 1.94895 0
M  V30 3427 C 318.611 3.95596 1.52855 0
M  V30 3428 N 319.002 4.99118 0.819418 0
M  V30 3429 C 317.3 4.07288 1.81748 0
M  V30 3430 C 318.001 5.78513 0.608053 0
M  V30 3431 N 316.977 5.31117 1.15828 0
M  V30 3432 H 320.779 2.9334 0.181285 0
M  V30 3433 H 318.293 1.624 -0.000452172 0
M  V30 3434 H 320.29 3.23718 2.62702 0
M  V30 3435 H 318.95 2.06702 2.50408 0
M  V30 3436 H 319.961 5.15723 0.47436 0
M  V30 3437 H 316.638 3.42509 2.38734 0
M  V30 3438 H 318.028 6.71885 0.0451619 0
M  V30 3439 N 320.748 -0.0735177 1.57428 0
M  V30 3440 C 321.997 -0.771809 1.86349 0
M  V30 3441 C 322.31 -1.78828 0.792452 0
M  V30 3442 O 323.516 -2.53602 0.96945 0
M  V30 3443 C 321.972 -1.42358 3.30548 0
M  V30 3444 C 321.58 -0.445761 4.45777 0
M  V30 3445 C 323.324 -2.10434 3.6867 0
M  V30 3446 C 321.231 -1.10335 5.81016 0
M  V30 3447 H 320.161 -0.291999 0.695164 0
M  V30 3448 H 322.812 -0.0250749 1.83483 0
M  V30 3449 H 321.194 -2.21852 3.28021 0
M  V30 3450 H 322.368 0.319239 4.59693 0
M  V30 3451 H 320.683 0.130457 4.16196 0
M  V30 3452 H 323.28 -2.60405 4.67004 0
M  V30 3453 H 323.623 -2.90298 2.98383 0
M  V30 3454 H 324.156 -1.37773 3.7318 0
M  V30 3455 H 320.895 -0.345061 6.54591 0
M  V30 3456 H 320.415 -1.83925 5.70904 0
M  V30 3457 H 322.094 -1.62367 6.26295 0
M  V30 3458 N 322.226 -1.5378 -0.344866 0
M  V30 3459 C 323.451 -1.75211 -1.10977 0
M  V30 3460 C 323.876 -0.48936 -1.81623 0
M  V30 3461 O 323.234 0.557925 -1.72502 0
M  V30 3462 C 323.282 -2.93147 -2.09993 0
M  V30 3463 O 322.386 -2.63203 -3.17487 0
M  V30 3464 H 321.727 -0.581241 -0.321021 0
M  V30 3465 H 324.257 -2.00738 -0.395661 0
M  V30 3466 H 324.267 -3.19898 -2.53237 0
M  V30 3467 H 322.942 -3.84731 -1.5797 0
M  V30 3468 H 321.519 -2.47336 -2.79069 0
M  V30 3469 N 323.704 0.605807 -1.45491 0
M  V30 3470 C 324.634 1.72709 -1.57143 0
M  V30 3471 C 325.615 1.6476 -0.422884 0
M  V30 3472 O 326.8 1.83132 -0.646247 0
M  V30 3473 C 323.93 3.11316 -1.53948 0
M  V30 3474 C 322.884 3.34077 -2.67537 0
M  V30 3475 C 322.21 4.72975 -2.49397 0
M  V30 3476 C 323.51 3.24158 -4.09535 0
M  V30 3477 H 325.204 1.63214 -2.51001 0
M  V30 3478 H 322.75 0.78379 -1.208 0
M  V30 3479 H 324.703 3.89557 -1.60696 0
M  V30 3480 H 323.427 3.21655 -0.566205 0
M  V30 3481 H 322.086 2.58227 -2.6022 0
M  V30 3482 H 321.734 4.8005 -1.50205 0
M  V30 3483 H 321.434 4.8916 -3.25571 0
M  V30 3484 H 322.958 5.53414 -2.58002 0
M  V30 3485 H 324.372 3.92271 -4.18086 0
M  V30 3486 H 322.769 3.51872 -4.86113 0
M  V30 3487 H 323.839 2.2157 -4.31317 0
M  V30 3488 N 325.182 1.32811 0.848464 0
M  V30 3489 C 326.145 1.22194 1.9391 0
M  V30 3490 C 327.145 0.143404 1.60159 0
M  V30 3491 O 328.335 0.394253 1.6968 0
M  V30 3492 C 325.467 0.88067 3.29328 0
M  V30 3493 H 326.66 2.19127 2.04752 0
M  V30 3494 H 324.213 1.16731 1.0394 0
M  V30 3495 H 324.948 -0.0865776 3.24184 0
M  V30 3496 H 324.733 1.66052 3.55203 0
M  V30 3497 H 326.223 0.830871 4.09251 0
M  V30 3498 N 326.66 -1.06551 1.16123 0
M  V30 3499 C 327.885 -1.83544 0.965735 0
M  V30 3500 C 328.31 -1.81843 -0.481102 0
M  V30 3501 O 327.668 -1.21732 -1.34354 0
M  V30 3502 C 327.716 -3.28169 1.49457 0
M  V30 3503 O 326.82 -4.0643 0.699157 0
M  V30 3504 H 326.161 -0.568026 0.343864 0
M  V30 3505 H 328.691 -1.34362 1.54299 0
M  V30 3506 H 328.701 -3.78992 1.51092 0
M  V30 3507 H 327.376 -3.28722 2.54784 0
M  V30 3508 H 325.953 -3.65216 0.7531 0
M  V30 3509 N 328.138 -0.959301 -1.25041 0
M  V30 3510 C 329.554 -0.664474 -1.4511 0
M  V30 3511 C 329.754 0.776481 -1.85938 0
M  V30 3512 O 328.81 1.55128 -1.99227 0
M  V30 3513 C 330.123 -1.64139 -2.5195 0
M  V30 3514 C 331.671 -1.65309 -2.65786 0
M  V30 3515 C 332.146 -2.61777 -3.75815 0
M  V30 3516 N 333.637 -2.60169 -3.83231 0
M  V30 3517 C 334.372 -3.31489 -4.6787 0
M  V30 3518 N 333.868 -4.12298 -5.56761 0
M  V30 3519 N 335.661 -3.20354 -4.61876 0
M  V30 3520 H 327.812 -1.89043 -0.968332 0
M  V30 3521 H 330.075 -0.813408 -0.4869 0
M  V30 3522 H 329.781 -2.67086 -2.28819 0
M  V30 3523 H 329.655 -1.40756 -3.49954 0
M  V30 3524 H 332.042 -0.630778 -2.8828 0
M  V30 3525 H 332.123 -1.92753 -1.68167 0
M  V30 3526 H 331.767 -3.64137 -3.54071 0
M  V30 3527 H 331.697 -2.31616 -4.72929 0
M  V30 3528 H 334.188 -2.01507 -3.19692 0
M  V30 3529 H 334.501 -4.63625 -6.18281 0
M  V30 3530 H 332.846 -4.16395 -5.56454 0
M  V30 3531 H 336.037 -2.56692 -3.91442 0
M  V30 3532 H 336.21 -3.76201 -5.27614 0
M  V30 3533 N 329.616 1.39756 -0.72842 0
M  V30 3534 C 330.841 2.05472 -0.282159 0
M  V30 3535 C 331.266 1.54549 1.07221 0
M  V30 3536 O 330.624 0.686372 1.67805 0
M  V30 3537 C 330.672 3.59462 -0.286264 0
M  V30 3538 O 329.776 4.05918 0.728298 0
M  V30 3539 H 329.117 0.651226 -0.129618 0
M  V30 3540 H 331.647 1.78915 -0.992499 0
M  V30 3541 H 331.657 4.07798 -0.128373 0
M  V30 3542 H 330.332 3.95889 -1.27456 0
M  V30 3543 H 328.909 3.69012 0.537081 0
M  V30 3544 N 331.094 0.475555 1.50254 0
M  V30 3545 C 332.51 0.12997 1.5907 0
M  V30 3546 C 332.71 -1.36385 1.48328 0
M  V30 3547 O 331.766 -2.13754 1.34407 0
M  V30 3548 C 333.079 0.684139 2.92814 0
M  V30 3549 C 334.627 0.647965 3.0622 0
M  V30 3550 C 335.102 1.17975 4.42545 0
M  V30 3551 N 336.593 1.13936 4.48969 0
M  V30 3552 C 337.328 1.52129 5.52851 0
M  V30 3553 N 336.824 1.97793 6.63965 0
M  V30 3554 N 338.617 1.43704 5.4342 0
M  V30 3555 H 330.768 1.44706 1.55479 0
M  V30 3556 H 333.031 0.598691 0.735033 0
M  V30 3557 H 332.737 1.73079 3.06164 0
M  V30 3558 H 332.611 0.130204 3.76975 0
M  V30 3559 H 334.998 -0.38979 2.92514 0
M  V30 3560 H 335.079 1.23876 2.23805 0
M  V30 3561 H 334.723 2.21616 4.57 0
M  V30 3562 H 334.653 0.565138 5.23559 0
M  V30 3563 H 337.144 0.804488 3.69238 0
M  V30 3564 H 337.457 2.25072 7.39299 0
M  V30 3565 H 335.802 2.01749 6.65073 0
M  V30 3566 H 338.993 1.07867 4.55502 0
M  V30 3567 H 339.166 1.73794 6.24259 0
M  V30 3568 N 332.573 -1.56217 0.208337 0
M  V30 3569 C 333.819 -1.98242 -0.427552 0
M  V30 3570 C 334.152 -1.09554 -1.60348 0
M  V30 3571 O 333.427 -0.15035 -1.93918 0
M  V30 3572 C 333.71 -3.4931 -0.874907 0
M  V30 3573 C 333.563 -4.48773 0.303751 0
M  V30 3574 C 334.882 -4.04424 -1.73577 0
M  V30 3575 H 332.001 -0.720744 -0.153936 0
M  V30 3576 H 334.643 -1.87586 0.30192 0
M  V30 3577 H 332.793 -3.58522 -1.49648 0
M  V30 3578 H 334.465 -4.51586 0.941682 0
M  V30 3579 H 332.708 -4.23194 0.953375 0
M  V30 3580 H 333.379 -5.51976 -0.0519883 0
M  V30 3581 H 335.855 -3.98075 -1.21143 0
M  V30 3582 H 334.731 -5.1047 -2.01771 0
M  V30 3583 H 334.992 -3.50494 -2.69456 0
M  V30 3584 N 334.051 0.0651679 -1.57465 0
M  V30 3585 C 335.001 1.0838 -2.00594 0
M  V30 3586 C 335.985 1.34106 -0.889071 0
M  V30 3587 O 337.177 1.34295 -1.15299 0
M  V30 3588 C 334.306 2.39565 -2.45894 0
M  V30 3589 C 333.392 2.17085 -3.64328 0
M  V30 3590 N 333.783 1.64553 -4.78285 0
M  V30 3591 C 332.081 2.4753 -3.71006 0
M  V30 3592 C 332.782 1.57042 -5.60101 0
M  V30 3593 N 331.758 2.03328 -5.04141 0
M  V30 3594 H 335.56 0.671062 -2.86136 0
M  V30 3595 H 333.074 0.27213 -1.60104 0
M  V30 3596 H 335.071 3.13308 -2.75034 0
M  V30 3597 H 333.731 2.81549 -1.61741 0
M  V30 3598 H 334.742 1.33323 -5.00445 0
M  V30 3599 H 331.419 2.92835 -2.9758 0
M  V30 3600 H 332.809 1.17223 -6.61595 0
M  V30 3601 N 335.529 1.53961 0.336706 0
M  V30 3602 C 336.476 1.82428 1.41381 0
M  V30 3603 C 337.446 0.670444 1.51968 0
M  V30 3604 O 338.631 0.915565 1.67398 0
M  V30 3605 C 335.771 2.04564 2.77934 0
M  V30 3606 C 334.884 3.32267 2.76084 0
M  V30 3607 C 334.019 3.44434 4.04399 0
M  V30 3608 C 333.058 4.66061 3.96804 0
M  V30 3609 N 332.195 4.75224 5.16823 0
M  V30 3610 H 337.035 2.74324 1.16405 0
M  V30 3611 H 334.572 1.35869 0.563752 0
M  V30 3612 H 336.53 2.15388 3.57301 0
M  V30 3613 H 335.16 1.15974 3.01247 0
M  V30 3614 H 334.212 3.3025 1.88784 0
M  V30 3615 H 335.524 4.21733 2.66351 0
M  V30 3616 H 334.678 3.54728 4.92192 0
M  V30 3617 H 333.417 2.53037 4.16921 0
M  V30 3618 H 332.422 4.55838 3.07396 0
M  V30 3619 H 333.647 5.58829 3.85858 0
M  V30 3620 H 331.593 3.86739 5.29876 0
M  V30 3621 H 331.51 5.58636 5.09374 0
M  V30 3622 H 332.778 4.89835 6.06367 0
M  V30 3623 N 337.007 -0.598083 1.45811 0
M  V30 3624 C 337.957 -1.70272 1.51629 0
M  V30 3625 C 338.941 -1.56382 0.378629 0
M  V30 3626 O 340.133 -1.65557 0.626087 0
M  V30 3627 C 337.262 -3.09042 1.49493 0
M  V30 3628 C 336.348 -3.28284 2.68496 0
M  V30 3629 N 336.739 -3.17748 3.93535 0
M  V30 3630 C 335.037 -3.59182 2.64394 0
M  V30 3631 C 335.738 -3.38579 4.7301 0
M  V30 3632 N 334.714 -3.63016 4.04624 0
M  V30 3633 H 338.516 -1.60634 2.46118 0
M  V30 3634 H 336.03 -0.801642 1.41235 0
M  V30 3635 H 338.027 -3.88302 1.51747 0
M  V30 3636 H 336.687 -3.19823 0.560683 0
M  V30 3637 H 337.698 -2.95944 4.25014 0
M  V30 3638 H 334.375 -3.76742 1.79922 0
M  V30 3639 H 335.765 -3.35747 5.82 0
M  V30 3640 N 338.485 -1.33259 -0.841409 0
M  V30 3641 C 339.901 -1.12538 -1.13169 0
M  V30 3642 C 340.101 0.0854037 -2.01319 0
M  V30 3643 O 339.157 0.766417 -2.40587 0
M  V30 3644 C 340.47 -2.41156 -1.79623 0
M  V30 3645 C 342.018 -2.47038 -1.922 0
M  V30 3646 C 342.493 -3.7561 -2.6207 0
M  V30 3647 N 343.984 -3.76667 -2.69585 0
M  V30 3648 C 344.719 -4.72861 -3.2433 0
M  V30 3649 N 344.215 -5.79428 -3.79783 0
M  V30 3650 N 346.008 -4.6034 -3.22558 0
M  V30 3651 H 338.159 -2.10868 -0.254676 0
M  V30 3652 H 340.422 -0.931615 -0.175493 0
M  V30 3653 H 340.128 -3.29747 -1.22311 0
M  V30 3654 H 340.002 -2.53114 -2.79666 0
M  V30 3655 H 342.389 -1.58898 -2.48667 0
M  V30 3656 H 342.47 -2.39022 -0.911148 0
M  V30 3657 H 342.114 -4.64131 -2.06263 0
M  V30 3658 H 342.044 -3.80902 -3.63622 0
M  V30 3659 H 344.535 -2.99648 -2.30259 0
M  V30 3660 H 344.848 -6.48867 -4.19752 0
M  V30 3661 H 343.193 -5.83166 -3.78078 0
M  V30 3662 H 346.384 -3.76244 -2.78492 0
M  V30 3663 H 346.557 -5.35478 -3.64921 0
M  V30 3664 N 339.963 1.05934 -1.16686 0
M  V30 3665 C 341.374 1.60263 -0.957745 0
M  V30 3666 C 341.725 1.89789 0.49745 0
M  V30 3667 O 340.85 1.67401 1.37135 0
M  V30 3668 C 341.445 2.91172 -1.73218 0
M  V30 3669 C 340.004 3.42188 -1.56794 0
M  V30 3670 C 339.151 2.16028 -1.73859 0
M  V30 3671 H 342.102 0.888392 -1.31504 0
M  V30 3672 H 342.123 3.60744 -1.21014 0
M  V30 3673 H 341.635 2.6965 -2.79124 0
M  V30 3674 H 339.736 3.68762 -0.533437 0
M  V30 3675 H 339.849 4.17273 -2.35414 0
M  V30 3676 H 338.213 2.26426 -1.16633 0
M  V30 3677 H 338.996 1.96985 -2.81161 0
M  V30 3678 N 341.441 0.965919 1.2453 0
M  V30 3679 C 342.351 0.502154 2.29163 0
M  V30 3680 C 343.367 -0.436017 1.68448 0
M  V30 3681 O 344.543 -0.309497 1.99008 0
M  V30 3682 C 341.608 -0.201956 3.46111 0
M  V30 3683 C 340.669 0.775821 4.22232 0
M  V30 3684 C 339.902 0.105217 5.33596 0
M  V30 3685 O 340.125 -1.10683 5.59558 0
M  V30 3686 O 339.059 0.796475 5.96607 0
M  V30 3687 H 342.885 1.37194 2.70946 0
M  V30 3688 H 340.47 0.732875 1.30189 0
M  V30 3689 H 342.352 -0.597564 4.17142 0
M  V30 3690 H 341.027 -1.04673 3.06309 0
M  V30 3691 H 339.934 1.22185 3.53584 0
M  V30 3692 H 341.267 1.58896 4.65846 0
M  V30 3693 N 342.919 -1.39368 0.735821 0
M  V30 3694 C 344.167 -2.00101 0.283562 0
M  V30 3695 C 344.488 -1.5868 -1.13338 0
M  V30 3696 O 343.758 -0.835423 -1.77193 0
M  V30 3697 H 342.338 -0.740024 0.101851 0
M  V30 3698 H 345 -1.70404 0.945962 0
M  V30 3699 H 344.096 -3.10323 0.332604 0
M  V30 3700 N 344.397 -0.483516 -1.5 0
M  V30 3701 C 345.808 -0.0314176 -1.86674 0
M  V30 3702 C 346.159 1.37728 -1.39733 0
M  V30 3703 O 345.284 2.02327 -0.767635 0
M  V30 3704 C 345.879 -0.0502376 -3.38763 0
M  V30 3705 C 344.438 0.346442 -3.74802 0
M  V30 3706 C 343.585 -0.430366 -2.7394 0
M  V30 3707 H 346.536 -0.697182 -1.42566 0
M  V30 3708 H 346.557 0.749116 -3.73053 0
M  V30 3709 H 346.069 -1.07563 -3.72897 0
M  V30 3710 H 344.17 1.37572 -3.46273 0
M  V30 3711 H 344.283 0.0391486 -4.79084 0
M  V30 3712 H 342.647 0.117557 -2.54429 0
M  V30 3713 H 343.43 -1.4555 -3.10918 0
M  V30 3714 N 345.875 1.56104 -0.216619 0
M  V30 3715 C 346.822 2.2007 0.695531 0
M  V30 3716 C 347.792 1.15471 1.19397 0
M  V30 3717 O 348.977 1.43807 1.25396 0
M  V30 3718 C 346.117 2.88073 1.90021 0
M  V30 3719 C 345.23 4.07253 1.44113 0
M  V30 3720 C 344.365 4.63052 2.603 0
M  V30 3721 C 343.404 5.74545 2.11103 0
M  V30 3722 N 342.541 6.24656 3.20545 0
M  V30 3723 H 347.381 2.97655 0.143327 0
M  V30 3724 H 344.918 1.46982 0.0589934 0
M  V30 3725 H 346.876 3.25681 2.60745 0
M  V30 3726 H 345.506 2.13015 2.42538 0
M  V30 3727 H 344.558 3.75164 0.628999 0
M  V30 3728 H 345.87 4.8783 1.04036 0
M  V30 3729 H 345.024 5.03078 3.39113 0
M  V30 3730 H 343.763 3.81628 3.03663 0
M  V30 3731 H 342.768 5.34027 1.3075 0
M  V30 3732 H 343.993 6.57801 1.68746 0
M  V30 3733 H 341.939 5.46148 3.63399 0
M  V30 3734 H 341.856 7.00343 2.84704 0
M  V30 3735 H 343.124 6.69338 3.99508 0
M  V30 3736 N 347.353 -0.0568162 1.57498 0
M  V30 3737 C 348.263 -1.08346 2.08083 0
M  V30 3738 C 349.279 -1.41439 1.01346 0
M  V30 3739 O 350.455 -1.51316 1.32912 0
M  V30 3740 C 347.52 -2.37352 2.52715 0
M  V30 3741 C 346.581 -2.11093 3.73816 0
M  V30 3742 C 345.814 -3.33949 4.1631 0
M  V30 3743 O 346.037 -4.43622 3.58547 0
M  V30 3744 O 344.971 -3.21279 5.08983 0
M  V30 3745 H 348.797 -0.683667 2.95905 0
M  V30 3746 H 346.382 -0.271965 1.46904 0
M  V30 3747 H 348.264 -3.13246 2.81877 0
M  V30 3748 H 346.939 -2.76681 1.68016 0
M  V30 3749 H 345.846 -1.32856 3.49714 0
M  V30 3750 H 347.179 -1.76637 4.59413 0
M  V30 3751 N 348.832 -1.54138 -0.328536 0
M  V30 3752 C 349.779 -1.83176 -1.40411 0
M  V30 3753 C 350.749 -0.678494 -1.5161 0
M  V30 3754 O 351.934 -0.92443 -1.6691 0
M  V30 3755 C 349.074 -2.06035 -2.76846 0
M  V30 3756 C 348.187 -3.33727 -2.74318 0
M  V30 3757 C 347.322 -3.46574 -4.02567 0
M  V30 3758 C 346.361 -4.68159 -3.94327 0
M  V30 3759 N 345.498 -4.77959 -5.14296 0
M  V30 3760 H 350.338 -2.74938 -1.14948 0
M  V30 3761 H 347.875 -1.36166 -0.556538 0
M  V30 3762 H 349.833 -2.1728 -3.56153 0
M  V30 3763 H 348.463 -1.1757 -3.00628 0
M  V30 3764 H 347.515 -3.31246 -1.8703 0
M  V30 3765 H 348.827 -4.23139 -2.64111 0
M  V30 3766 H 347.981 -3.57333 -4.90304 0
M  V30 3767 H 346.72 -2.55245 -4.15574 0
M  V30 3768 H 345.725 -4.57461 -3.04974 0
M  V30 3769 H 346.95 -5.60868 -3.82889 0
M  V30 3770 H 344.896 -3.89544 -5.27818 0
M  V30 3771 H 344.813 -5.6133 -5.06404 0
M  V30 3772 H 346.081 -4.93044 -6.03761 0
M  V30 3773 N 350.31 0.590341 -1.46126 0
M  V30 3774 C 351.257 1.69994 -1.56111 0
M  V30 3775 C 352.227 1.61065 -0.405867 0
M  V30 3776 O 353.412 1.8039 -0.621613 0
M  V30 3777 C 350.552 3.08326 -1.55013 0
M  V30 3778 C 349.665 3.27936 -2.81215 0
M  V30 3779 C 348.8 4.56473 -2.71673 0
M  V30 3780 C 347.839 4.694 -3.92849 0
M  V30 3781 N 346.976 5.89254 -3.81738 0
M  V30 3782 H 351.816 1.60797 -2.50895 0
M  V30 3783 H 349.353 0.783799 -1.24479 0
M  V30 3784 H 351.311 3.88383 -1.52362 0
M  V30 3785 H 349.941 3.16439 -0.637667 0
M  V30 3786 H 348.993 2.41536 -2.93879 0
M  V30 3787 H 350.305 3.33357 -3.71045 0
M  V30 3788 H 349.459 5.44748 -2.67085 0
M  V30 3789 H 348.198 4.53477 -1.7947 0
M  V30 3790 H 347.203 3.79544 -3.97777 0
M  V30 3791 H 348.428 4.7418 -4.86138 0
M  V30 3792 H 346.374 5.87271 -2.92317 0
M  V30 3793 H 346.291 5.95911 -4.65217 0
M  V30 3794 H 347.559 6.79981 -3.81112 0
M  V30 3795 N 351.788 1.33704 0.83433 0
M  V30 3796 C 352.751 1.24244 1.92603 0
M  V30 3797 C 353.751 0.160383 1.59998 0
M  V30 3798 O 354.941 0.412228 1.69252 0
M  V30 3799 C 352.073 0.91555 3.28376 0
M  V30 3800 H 353.266 2.21287 2.02416 0
M  V30 3801 H 350.819 1.17827 1.02696 0
M  V30 3802 H 351.554 -0.0521886 3.24258 0
M  V30 3803 H 351.339 1.69811 3.53422 0
M  V30 3804 H 352.829 0.874231 4.08347 0
M  V30 3805 N 353.266 -1.05314 1.17247 0
M  V30 3806 C 354.213 -2.13031 0.888058 0
M  V30 3807 C 355.183 -1.65253 -0.167537 0
M  V30 3808 O 356.368 -1.90775 -0.0305974 0
M  V30 3809 C 353.508 -3.42702 0.406147 0
M  V30 3810 C 352.621 -4.04161 1.52572 0
M  V30 3811 C 351.756 -5.21744 0.997808 0
M  V30 3812 C 350.795 -5.75207 2.09291 0
M  V30 3813 N 349.932 -6.84094 1.57986 0
M  V30 3814 H 354.772 -2.36698 1.81048 0
M  V30 3815 H 352.309 -1.16121 0.903013 0
M  V30 3816 H 354.267 -4.17059 0.108305 0
M  V30 3817 H 352.897 -3.19222 -0.479313 0
M  V30 3818 H 351.949 -3.27253 1.93931 0
M  V30 3819 H 353.261 -4.39881 2.35172 0
M  V30 3820 H 352.415 -6.03168 0.653739 0
M  V30 3821 H 351.154 -4.87495 0.141232 0
M  V30 3822 H 350.159 -4.92414 2.44557 0
M  V30 3823 H 351.384 -6.11505 2.95362 0
M  V30 3824 H 349.33 -6.51745 0.74598 0
M  V30 3825 H 349.247 -7.18811 2.34195 0
M  V30 3826 H 350.515 -7.69172 1.26468 0
M  V30 3827 N 354.744 -0.972509 -1.24016 0
M  V30 3828 C 355.972 -0.654803 -1.96265 0
M  V30 3829 C 356.387 0.776708 -1.72083 0
M  V30 3830 O 355.744 1.52171 -1.00748 0
M  V30 3831 C 355.795 -0.92592 -3.49441 0
M  V30 3832 O 355.516 -2.30116 -3.72798 0
M  V30 3833 C 357.017 -0.623068 -4.38899 0
M  V30 3834 H 354.237 -0.243907 -0.6251 0
M  V30 3835 H 356.781 -1.30175 -1.57717 0
M  V30 3836 H 354.936 -0.325108 -3.86033 0
M  V30 3837 H 355.35 -2.38483 -4.67147 0
M  V30 3838 H 356.824 -0.863189 -5.45209 0
M  V30 3839 H 357.301 0.442754 -4.36963 0
M  V30 3840 H 357.907 -1.204 -4.07902 0
M  V30 3841 N 356.222 1.38976 -0.743202 0
M  V30 3842 C 357.152 2.33171 -0.123873 0
M  V30 3843 C 358.133 1.54336 0.71516 0
M  V30 3844 O 359.318 1.82696 0.658467 0
M  V30 3845 C 356.448 3.38474 0.777978 0
M  V30 3846 C 355.402 4.27979 0.0424758 0
M  V30 3847 C 354.728 5.2405 1.06189 0
M  V30 3848 C 356.028 5.10155 -1.1198 0
M  V30 3849 H 357.722 2.85213 -0.910709 0
M  V30 3850 H 355.268 1.37133 -0.439388 0
M  V30 3851 H 357.221 4.03328 1.22084 0
M  V30 3852 H 355.945 2.84891 1.59702 0
M  V30 3853 H 354.604 3.64616 -0.380853 0
M  V30 3854 H 354.252 4.66758 1.87472 0
M  V30 3855 H 353.952 5.84785 0.574485 0
M  V30 3856 H 355.476 5.9178 1.50428 0
M  V30 3857 H 356.89 5.68307 -0.75499 0
M  V30 3858 H 355.287 5.80073 -1.53738 0
M  V30 3859 H 356.357 4.44504 -1.93764 0
M  V30 3860 N 357.7 0.491464 1.49741 0
M  V30 3861 C 358.663 -0.280906 2.27472 0
M  V30 3862 C 359.663 -0.902454 1.33088 0
M  V30 3863 O 360.853 -0.768465 1.56334 0
M  V30 3864 C 357.985 -1.40209 3.10732 0
M  V30 3865 H 359.178 0.401056 2.97206 0
M  V30 3866 H 356.731 0.246131 1.5435 0
M  V30 3867 H 357.466 -2.11849 2.45541 0
M  V30 3868 H 357.251 -0.961969 3.80117 0
M  V30 3869 H 358.741 -1.9464 3.69466 0
M  V30 3870 N 359.178 -1.55987 0.224894 0
M  V30 3871 C 360.425 -1.9839 -0.4059 0
M  V30 3872 C 360.753 -1.11261 -1.59535 0
M  V30 3873 O 360.008 -0.158314 -1.95059 0
M  V30 3874 C 360.307 -3.46394 -0.880106 0
M  V30 3875 C 359.973 -4.5046 0.19918 0
M  V30 3876 C 358.635 -4.7864 0.495661 0
M  V30 3877 C 360.987 -5.12855 0.928939 0
M  V30 3878 C 358.315 -5.66497 1.52636 0
M  V30 3879 C 360.667 -6.01828 1.949 0
M  V30 3880 C 359.331 -6.28351 2.25236 0
M  V30 3881 H 358.601 -0.725961 -0.148529 0
M  V30 3882 H 361.248 -1.88668 0.328113 0
M  V30 3883 H 359.553 -3.53337 -1.69294 0
M  V30 3884 H 361.25 -3.76577 -1.37808 0
M  V30 3885 H 357.84 -4.28579 -0.0420526 0
M  V30 3886 H 362.024 -4.9115 0.713129 0
M  V30 3887 H 357.28 -5.8531 1.76698 0
M  V30 3888 H 361.454 -6.49225 2.51951 0
M  V30 3889 H 359.081 -6.96226 3.05244 0
M  V30 3890 N 360.656 0.0484629 -1.57525 0
M  V30 3891 C 361.586 1.0549 -2.08313 0
M  V30 3892 C 362.567 1.38929 -0.981463 0
M  V30 3893 O 363.752 1.48151 -1.25558 0
M  V30 3894 C 360.882 2.36162 -2.54646 0
M  V30 3895 C 359.836 2.17016 -3.68901 0
M  V30 3896 C 359.162 3.53278 -4.01371 0
M  V30 3897 C 360.462 1.57219 -4.98076 0
M  V30 3898 H 362.156 0.632195 -2.92649 0
M  V30 3899 H 359.702 0.302654 -1.40784 0
M  V30 3900 H 361.655 3.06882 -2.88793 0
M  V30 3901 H 360.379 2.80456 -1.67368 0
M  V30 3902 H 359.038 1.48733 -3.35073 0
M  V30 3903 H 358.686 3.95185 -3.11188 0
M  V30 3904 H 358.386 3.41299 -4.78318 0
M  V30 3905 H 359.91 4.25391 -4.38035 0
M  V30 3906 H 361.324 2.17832 -5.30304 0
M  V30 3907 H 359.721 1.55871 -5.79503 0
M  V30 3908 H 360.791 0.535956 -4.81929 0
M  V30 3909 N 362.134 1.5431 0.320358 0
M  V30 3910 C 363.081 1.83918 1.39438 0
M  V30 3911 C 364.051 0.686525 1.51248 0
M  V30 3912 O 365.236 0.933269 1.66417 0
M  V30 3913 C 362.376 2.075 2.75749 0
M  V30 3914 C 361.489 3.35177 2.72544 0
M  V30 3915 C 360.624 3.48704 4.00723 0
M  V30 3916 C 359.663 4.70244 3.91838 0
M  V30 3917 N 358.8 4.80679 5.11754 0
M  V30 3918 H 363.64 2.75544 1.13489 0
M  V30 3919 H 361.177 1.36459 0.549309 0
M  V30 3920 H 363.135 2.19166 3.54996 0
M  V30 3921 H 361.765 1.19163 3 0
M  V30 3922 H 360.817 3.32233 1.85271 0
M  V30 3923 H 362.129 4.24534 2.61863 0
M  V30 3924 H 361.283 3.59928 4.88402 0
M  V30 3925 H 360.022 2.57445 4.14214 0
M  V30 3926 H 359.027 4.59072 3.02544 0
M  V30 3927 H 360.252 5.6289 3.7991 0
M  V30 3928 H 358.198 3.92337 5.25745 0
M  V30 3929 H 358.115 5.64007 5.0342 0
M  V30 3930 H 359.383 4.96239 6.01138 0
M  V30 3931 N 363.613 -0.582584 1.46437 0
M  V30 3932 C 364.838 -1.37168 1.55563 0
M  V30 3933 C 365.263 -1.87061 0.19743 0
M  V30 3934 O 364.621 -1.61572 -0.822451 0
M  V30 3935 C 364.669 -2.53511 2.56446 0
M  V30 3936 O 363.773 -3.54953 2.09958 0
M  V30 3937 H 363.114 -0.408494 0.523477 0
M  V30 3938 H 365.644 -0.706646 1.9201 0
M  V30 3939 H 365.654 -3.00426 2.76058 0
M  V30 3940 H 364.329 -2.16549 3.55076 0
M  V30 3941 H 362.906 -3.14516 2.00334 0
M  V30 3942 N 365.091 -1.34144 -0.827227 0
M  V30 3943 C 366.502 -1.23557 -1.39966 0
M  V30 3944 C 366.853 0.140731 -1.95695 0
M  V30 3945 O 365.978 1.04087 -1.89723 0
M  V30 3946 C 366.573 -2.23708 -2.54441 0
M  V30 3947 C 365.132 -2.16924 -3.07605 0
M  V30 3948 C 364.279 -2.10549 -1.80456 0
M  V30 3949 H 367.23 -1.45573 -0.631991 0
M  V30 3950 H 367.251 -1.85157 -3.32411 0
M  V30 3951 H 366.763 -3.23866 -2.13851 0
M  V30 3952 H 364.864 -1.20107 -3.52711 0
M  V30 3953 H 364.977 -3.07988 -3.66988 0
M  V30 3954 H 363.341 -1.56203 -2.01178 0
M  V30 3955 H 364.124 -3.12535 -1.42046 0
M  V30 3956 N 366.569 1.04691 -1.17803 0
M  V30 3957 C 367.499 2.14494 -0.92275 0
M  V30 3958 C 368.48 1.69546 0.137179 0
M  V30 3959 O 369.665 1.94195 -0.0141108 0
M  V30 3960 C 366.795 3.44491 -0.440803 0
M  V30 3961 C 365.749 4.03031 -1.4405 0
M  V30 3962 C 365.075 5.28432 -0.81631 0
M  V30 3963 C 366.375 4.39932 -2.81527 0
M  V30 3964 H 368.069 2.36107 -1.84103 0
M  V30 3965 H 365.615 1.1347 -0.886599 0
M  V30 3966 H 367.568 4.2066 -0.249602 0
M  V30 3967 H 366.292 3.22546 0.513025 0
M  V30 3968 H 364.951 3.28937 -1.61853 0
M  V30 3969 H 364.599 5.02792 0.144511 0
M  V30 3970 H 364.299 5.68559 -1.48371 0
M  V30 3971 H 365.823 6.07284 -0.635496 0
M  V30 3972 H 367.237 5.07113 -2.67412 0
M  V30 3973 H 365.634 4.9109 -3.44892 0
M  V30 3974 H 366.704 3.50045 -3.35554 0
M  V30 3975 N 368.047 0.979072 1.23499 0
M  V30 3976 C 368.98 0.463027 2.23453 0
M  V30 3977 C 369.958 -0.469128 1.55685 0
M  V30 3978 O 371.142 -0.397882 1.84253 0
M  V30 3979 C 368.269 -0.330308 3.37086 0
M  V30 3980 C 367.315 0.545795 4.22993 0
M  V30 3981 S 368.148 1.99285 4.97037 0
M  V30 3982 C 369.304 1.20862 6.1412 0
M  V30 3983 H 369.537 1.31005 2.6688 0
M  V30 3984 H 367.07 0.784965 1.32957 0
M  V30 3985 H 369.028 -0.782027 4.02982 0
M  V30 3986 H 367.689 -1.15244 2.92194 0
M  V30 3987 H 366.882 -0.0638928 5.03959 0
M  V30 3988 H 366.484 0.933705 3.62157 0
M  V30 3989 H 368.776 0.469284 6.75873 0
M  V30 3990 H 369.719 1.99307 6.79472 0
M  V30 3991 H 370.127 0.727992 5.59786 0
M  V30 3992 N 369.525 -1.3858 0.750561 0
M  V30 3993 C 370.472 -2.30483 0.120835 0
M  V30 3994 C 371.442 -1.50022 -0.712923 0
M  V30 3995 O 372.627 -1.78662 -0.669676 0
M  V30 3996 C 369.767 -3.36431 -0.768666 0
M  V30 3997 C 368.88 -4.31927 0.0793922 0
M  V30 3998 C 368.015 -5.24944 -0.81283 0
M  V30 3999 C 367.054 -6.12088 0.0390447 0
M  V30 4000 N 366.191 -6.97412 -0.809969 0
M  V30 4001 H 371.031 -2.83761 0.91015 0
M  V30 4002 H 368.568 -1.39707 0.460463 0
M  V30 4003 H 370.526 -3.96462 -1.29898 0
M  V30 4004 H 369.156 -2.8457 -1.5238 0
M  V30 4005 H 368.208 -3.73382 0.727303 0
M  V30 4006 H 369.52 -4.93319 0.737401 0
M  V30 4007 H 368.674 -5.90078 -1.41042 0
M  V30 4008 H 367.413 -4.63911 -1.50458 0
M  V30 4009 H 366.418 -5.45952 0.649328 0
M  V30 4010 H 367.643 -6.75189 0.727809 0
M  V30 4011 H 365.589 -6.38931 -1.48672 0
M  V30 4012 H 365.506 -7.55712 -0.208789 0
M  V30 4013 H 366.774 -7.66959 -1.39263 0
M  V30 4014 N 371.003 -0.499398 -1.49478 0
M  V30 4015 C 371.935 0.316575 -2.27003 0
M  V30 4016 C 372.948 0.932047 -1.33479 0
M  V30 4017 O 374.137 0.815658 -1.58774 0
M  V30 4018 C 371.237 1.46055 -3.05812 0
M  V30 4019 C 370.41 0.952679 -4.26899 0
M  V30 4020 C 369.469 1.97407 -4.87767 0
M  V30 4021 O 368.495 1.54326 -5.4788 0
M  V30 4022 N 369.697 3.30436 -4.77276 0
M  V30 4023 H 372.462 -0.348168 -2.97671 0
M  V30 4024 H 370.023 -0.33185 -1.58463 0
M  V30 4025 H 372.015 2.14135 -3.43407 0
M  V30 4026 H 370.585 2.02948 -2.37762 0
M  V30 4027 H 369.805 0.0968248 -3.94081 0
M  V30 4028 H 371.093 0.59174 -5.05347 0
M  V30 4029 H 370.491 3.68126 -4.29534 0
M  V30 4030 H 369.048 3.94235 -5.19059 0
M  V30 4031 N 372.481 1.55866 -0.233164 0
M  V30 4032 C 373.706 2.03449 0.402906 0
M  V30 4033 C 374.131 1.11166 1.51736 0
M  V30 4034 O 373.489 0.101996 1.81013 0
M  V30 4035 C 373.537 3.49165 0.9009 0
M  V30 4036 O 372.641 3.60019 2.01147 0
M  V30 4037 H 371.982 0.657913 0.0897025 0
M  V30 4038 H 374.512 2.01493 -0.355201 0
M  V30 4039 H 374.522 3.89716 1.2077 0
M  V30 4040 H 373.197 4.15813 0.0852889 0
M  V30 4041 H 371.774 3.3136 1.71042 0
M  V30 4042 N 373.959 -0.0401083 1.57549 0
M  V30 4043 C 375.205 -0.734211 1.89043 0
M  V30 4044 C 375.538 -1.75591 0.829535 0
M  V30 4045 O 374.813 -1.93868 -0.156706 0
M  V30 4046 C 375.096 -1.41374 3.31188 0
M  V30 4047 C 374.949 -0.406299 4.47961 0
M  V30 4048 C 376.268 -2.35061 3.72068 0
M  V30 4049 H 373.387 -0.265447 0.687537 0
M  V30 4050 H 376.029 0.00294087 1.9 0
M  V30 4051 H 374.179 -2.04206 3.30503 0
M  V30 4052 H 375.851 0.219255 4.60779 0
M  V30 4053 H 374.094 0.275485 4.32924 0
M  V30 4054 H 374.765 -0.920022 5.44279 0
M  V30 4055 H 377.241 -1.82282 3.74049 0
M  V30 4056 H 376.117 -2.79593 4.72355 0
M  V30 4057 H 376.378 -3.21258 3.0372 0
M  V30 4058 N 375.437 -1.54477 -0.31217 0
M  V30 4059 C 376.384 -1.84655 -1.38461 0
M  V30 4060 C 377.354 -0.694536 -1.50882 0
M  V30 4061 O 378.539 -0.942081 -1.6592 0
M  V30 4062 C 375.679 -2.0896 -2.74645 0
M  V30 4063 C 374.792 -3.36618 -2.70763 0
M  V30 4064 C 373.927 -3.50824 -3.98868 0
M  V30 4065 C 372.966 -4.72315 -3.89339 0
M  V30 4066 N 372.103 -4.83387 -5.09197 0
M  V30 4067 H 376.943 -2.76142 -1.12026 0
M  V30 4068 H 374.48 -1.36748 -0.542065 0
M  V30 4069 H 376.438 -2.21045 -3.53829 0
M  V30 4070 H 375.068 -1.20752 -2.99364 0
M  V30 4071 H 374.12 -3.33211 -1.83506 0
M  V30 4072 H 375.432 -4.25917 -2.59608 0
M  V30 4073 H 374.586 -3.62513 -4.86486 0
M  V30 4074 H 373.325 -2.59638 -4.12843 0
M  V30 4075 H 372.33 -4.6067 -3.00105 0
M  V30 4076 H 373.555 -5.64897 -3.76919 0
M  V30 4077 H 371.501 -3.9512 -5.23657 0
M  V30 4078 H 371.418 -5.66669 -5.00422 0
M  V30 4079 H 372.686 -4.9942 -5.98498 0
M  V30 4080 N 376.915 0.57481 -1.46744 0
M  V30 4081 C 377.862 1.68329 -1.57905 0
M  V30 4082 C 378.832 1.60625 -0.422927 0
M  V30 4083 O 380.017 1.79721 -0.640711 0
M  V30 4084 C 377.157 3.06665 -1.58274 0
M  V30 4085 C 376.27 3.24935 -2.84678 0
M  V30 4086 C 375.405 4.53566 -2.76499 0
M  V30 4087 C 374.444 4.65207 -3.97806 0
M  V30 4088 N 373.581 5.85172 -3.87967 0
M  V30 4089 H 378.421 1.58127 -2.52587 0
M  V30 4090 H 375.958 0.770552 -1.25303 0
M  V30 4091 H 377.916 3.86745 -1.56473 0
M  V30 4092 H 376.546 3.15745 -0.671194 0
M  V30 4093 H 375.598 2.38405 -2.96424 0
M  V30 4094 H 376.91 3.29403 -3.7456 0
M  V30 4095 H 376.064 5.41885 -2.72848 0
M  V30 4096 H 374.803 4.51548 -1.8427 0
M  V30 4097 H 373.808 3.75304 -4.0178 0
M  V30 4098 H 375.033 4.68997 -4.9114 0
M  V30 4099 H 372.979 5.84137 -2.98529 0
M  V30 4100 H 372.896 5.90943 -4.71511 0
M  V30 4101 H 374.164 6.759 -3.88303 0
M  V30 4102 N 378.394 1.34581 0.820102 0
M  V30 4103 C 379.805 1.24298 1.39309 0
M  V30 4104 C 380.156 -0.130351 1.95767 0
M  V30 4105 O 379.281 -1.0308 1.90272 0
M  V30 4106 C 379.876 2.25054 2.53251 0
M  V30 4107 C 378.435 2.18552 3.0645 0
M  V30 4108 C 377.582 2.11503 1.79337 0
M  V30 4109 H 380.533 1.45906 0.624262 0
M  V30 4110 H 380.554 1.86917 3.31425 0
M  V30 4111 H 380.066 3.24996 2.1213 0
M  V30 4112 H 378.167 1.21976 3.52069 0
M  V30 4113 H 378.28 3.0993 3.65349 0
M  V30 4114 H 376.644 1.57268 2.00347 0
M  V30 4115 H 377.427 3.13284 1.40386 0
M  V30 4116 N 379.872 -1.04064 1.18357 0
M  V30 4117 C 381.283 -1.58719 0.98312 0
M  V30 4118 C 381.634 -1.90556 -0.467193 0
M  V30 4119 O 380.759 -1.69561 -1.34454 0
M  V30 4120 C 381.354 -2.88379 1.77828 0
M  V30 4121 C 379.913 -3.3965 1.62218 0
M  V30 4122 C 379.06 -2.13235 1.77274 0
M  V30 4123 H 382.011 -0.867359 1.32901 0
M  V30 4124 H 382.032 -3.58773 1.26737 0
M  V30 4125 H 381.544 -2.65176 2.83379 0
M  V30 4126 H 379.645 -3.67866 0.592036 0
M  V30 4127 H 379.758 -4.13475 2.42023 0
M  V30 4128 H 378.122 -2.24542 1.20221 0
M  V30 4129 H 378.905 -1.92487 2.8426 0
M  V30 4130 N 381.35 -0.985608 -1.22978 0
M  V30 4131 C 382.761 -0.693593 -1.73338 0
M  V30 4132 C 383.112 0.789935 -1.79595 0
M  V30 4133 O 382.237 1.61771 -1.43733 0
M  V30 4134 C 382.832 -1.25235 -3.14804 0
M  V30 4135 C 381.391 -1.00987 -3.626 0
M  V30 4136 C 380.538 -1.37695 -2.40698 0
M  V30 4137 H 383.489 -1.15884 -1.08428 0
M  V30 4138 H 383.51 -0.627329 -3.75293 0
M  V30 4139 H 383.022 -2.33209 -3.10218 0
M  V30 4140 H 381.123 0.0535565 -3.72562 0
M  V30 4141 H 381.236 -1.66812 -4.49122 0
M  V30 4142 H 379.6 -0.795459 -2.4196 0
M  V30 4143 H 380.383 -2.46657 -2.38779 0
M  V30 4144 N 382.828 1.3818 -0.7579 0
M  V30 4145 C 384.076 1.99624 -0.315361 0
M  V30 4146 C 384.397 1.60464 1.10799 0
M  V30 4147 O 383.667 0.863507 1.75842 0
M  V30 4148 H 382.247 0.73831 -0.113611 0
M  V30 4149 H 384.909 1.68878 -0.972952 0
M  V30 4150 H 384.005 3.09754 -0.381931 0
M  V30 4151 N 384.306 0.507319 1.49211 0
M  V30 4152 C 385.216 -0.272136 2.33016 0
M  V30 4153 C 386.232 -0.961206 1.45041 0
M  V30 4154 O 387.408 -0.941191 1.78055 0
M  V30 4155 C 384.473 -1.31895 3.20631 0
M  V30 4156 C 383.534 -0.642648 4.24463 0
M  V30 4157 C 382.767 -1.63959 5.07891 0
M  V30 4158 O 382.99 -2.87007 4.92933 0
M  V30 4159 O 381.924 -1.19143 5.8999 0
M  V30 4160 H 385.75 0.413982 3.00865 0
M  V30 4161 H 383.335 0.268556 1.46966 0
M  V30 4162 H 385.217 -1.92446 3.7489 0
M  V30 4163 H 383.892 -1.98788 2.5547 0
M  V30 4164 H 382.799 0.00276252 3.741 0
M  V30 4165 H 384.132 -0.0160534 4.92197 0
M  V30 4166 N 385.784 -1.5574 0.241426 0
M  V30 4167 C 386.747 -2.19877 -0.647063 0
M  V30 4168 C 387.747 -1.16642 -1.10686 0
M  V30 4169 O 388.937 -1.41757 -1.01245 0
M  V30 4170 C 386.069 -2.83797 -1.88871 0
M  V30 4171 H 387.262 -2.99772 -0.087574 0
M  V30 4172 H 384.815 -1.56298 -0.00813574 0
M  V30 4173 H 385.55 -2.07824 -2.48957 0
M  V30 4174 H 385.335 -3.59414 -1.56728 0
M  V30 4175 H 386.825 -3.32898 -2.52129 0
M  V30 4176 N 387.262 0.0317525 -1.57568 0
M  V30 4177 C 388.225 1.01783 -2.0536 0
M  V30 4178 C 389.225 1.29203 -0.957253 0
M  V30 4179 O 390.415 1.24251 -1.22095 0
M  V30 4180 C 387.547 2.35137 -2.46827 0
M  V30 4181 H 388.74 0.605062 -2.93733 0
M  V30 4182 H 386.293 0.278514 -1.53799 0
M  V30 4183 H 387.028 2.81168 -1.61602 0
M  V30 4184 H 386.813 2.16566 -3.26866 0
M  V30 4185 H 388.303 3.05938 -2.84239 0
M  V30 4186 N 388.74 1.54641 0.303973 0
M  V30 4187 C 390.156 1.45788 0.649463 0
M  V30 4188 C 390.356 0.64666 1.90842 0
M  V30 4189 O 389.412 0.153183 2.52035 0
M  V30 4190 C 390.725 2.89718 0.805227 0
M  V30 4191 C 392.273 2.99742 0.901305 0
M  V30 4192 C 392.748 4.44863 1.08909 0
M  V30 4193 N 394.239 4.48559 1.15536 0
M  V30 4194 C 394.974 5.58026 1.3189 0
M  V30 4195 N 394.47 6.77422 1.45161 0
M  V30 4196 N 396.263 5.45708 1.34755 0
M  V30 4197 H 388.414 2.05854 -0.523237 0
M  V30 4198 H 390.677 0.932186 -0.172431 0
M  V30 4199 H 390.383 3.51666 -0.0489108 0
M  V30 4200 H 390.257 3.36964 1.69513 0
M  V30 4201 H 392.644 2.3791 1.74593 0
M  V30 4202 H 392.725 2.55797 -0.0125531 0
M  V30 4203 H 392.369 5.07288 0.249241 0
M  V30 4204 H 392.299 4.86436 2.01713 0
M  V30 4205 H 394.79 3.6254 1.06646 0
M  V30 4206 H 395.103 7.56604 1.57387 0
M  V30 4207 H 393.448 6.80292 1.42223 0
M  V30 4208 H 396.639 4.51378 1.23996 0
M  V30 4209 H 396.812 6.3107 1.47157 0
M  V30 4210 N 390.218 -0.567019 1.47046 0
M  V30 4211 C 391.128 -1.70247 1.6141 0
M  V30 4212 C 392.144 -1.66746 0.497157 0
M  V30 4213 O 393.32 -1.86371 0.763389 0
M  V30 4214 C 390.385 -3.06756 1.61561 0
M  V30 4215 C 389.446 -3.21399 2.84607 0
M  V30 4216 C 388.679 -4.51396 2.84741 0
M  V30 4217 O 388.902 -5.36255 1.94388 0
M  V30 4218 O 387.836 -4.69621 3.76483 0
M  V30 4219 H 391.662 -1.61073 2.57467 0
M  V30 4220 H 389.247 -0.735894 1.30019 0
M  V30 4221 H 391.129 -3.8801 1.64396 0
M  V30 4222 H 389.804 -3.16333 0.686684 0
M  V30 4223 H 388.711 -2.39579 2.8732 0
M  V30 4224 H 390.044 -3.16721 3.76761 0
M  V30 4225 N 391.696 -1.35014 -0.812953 0
M  V30 4226 C 392.606 -1.2951 -1.95613 0
M  V30 4227 C 393.622 -0.20107 -1.72834 0
M  V30 4228 O 394.798 -0.42932 -1.96771 0
M  V30 4229 C 391.863 -1.06033 -3.30088 0
M  V30 4230 C 390.924 -2.24688 -3.65805 0
M  V30 4231 C 390.157 -2.02322 -4.93864 0
M  V30 4232 O 390.38 -0.986464 -5.61805 0
M  V30 4233 O 389.314 -2.89525 -5.27692 0
M  V30 4234 H 393.14 -2.25705 -2.03202 0
M  V30 4235 H 390.725 -1.15321 -0.949811 0
M  V30 4236 H 392.607 -0.94763 -4.10607 0
M  V30 4237 H 391.282 -0.128852 -3.23443 0
M  V30 4238 H 390.189 -2.41521 -2.85689 0
M  V30 4239 H 391.522 -3.16261 -3.77147 0
M  V30 4240 N 393.175 1.03435 -1.18907 0
M  V30 4241 C 394.105 2.13503 -0.945448 0
M  V30 4242 C 395.086 1.69682 0.119189 0
M  V30 4243 O 396.271 1.94169 -0.034707 0
M  V30 4244 C 393.401 3.44004 -0.477316 0
M  V30 4245 C 392.355 4.0148 -1.48316 0
M  V30 4246 C 391.681 5.27537 -0.872311 0
M  V30 4247 C 392.981 4.36921 -2.86177 0
M  V30 4248 H 394.675 2.34141 -1.86597 0
M  V30 4249 H 392.221 1.12523 -0.898584 0
M  V30 4250 H 394.174 4.20372 -0.294204 0
M  V30 4251 H 392.898 3.23072 0.478786 0
M  V30 4252 H 391.557 3.27201 -1.65332 0
M  V30 4253 H 391.205 5.02917 0.0911752 0
M  V30 4254 H 390.905 5.66954 -1.54393 0
M  V30 4255 H 392.429 6.06576 -0.699871 0
M  V30 4256 H 393.843 5.04248 -2.72776 0
M  V30 4257 H 392.24 4.87405 -3.50081 0
M  V30 4258 H 393.31 3.46466 -3.39248 0
M  V30 4259 N 394.653 0.992116 1.22453 0
M  V30 4260 C 396.069 0.702713 1.43297 0
M  V30 4261 C 396.269 -0.726909 1.87932 0
M  V30 4262 O 395.325 -1.49792 2.0327 0
M  V30 4263 C 396.638 1.70762 2.47509 0
M  V30 4264 C 398.186 1.72298 2.61309 0
M  V30 4265 C 398.661 2.71649 3.68742 0
M  V30 4266 N 400.152 2.70239 3.76199 0
M  V30 4267 C 400.887 3.43778 4.58917 0
M  V30 4268 N 400.383 4.26914 5.45633 0
M  V30 4269 N 402.176 3.32487 4.5322 0
M  V30 4270 H 394.327 1.91543 0.917871 0
M  V30 4271 H 396.59 0.826031 0.465162 0
M  V30 4272 H 396.296 2.73059 2.21657 0
M  V30 4273 H 396.17 1.49985 3.46099 0
M  V30 4274 H 398.557 0.706989 2.86506 0
M  V30 4275 H 398.638 1.97143 1.62997 0
M  V30 4276 H 398.282 3.73397 3.44292 0
M  V30 4277 H 398.212 2.44074 4.66622 0
M  V30 4278 H 400.703 2.09912 3.14237 0
M  V30 4279 H 401.016 4.79855 6.05771 0
M  V30 4280 H 399.361 4.31002 5.45218 0
M  V30 4281 H 402.552 2.6698 3.84499 0
M  V30 4282 H 402.725 3.90058 5.17454 0
M  V30 4283 N 396.131 -1.37776 0.765217 0
M  V30 4284 C 397.079 -2.32209 0.134798 0
M  V30 4285 C 398.073 -1.54607 -0.692315 0
M  V30 4286 O 399.279 -1.70052 -0.590109 0
M  V30 4287 H 395.654 -0.751591 0.0248005 0
M  V30 4288 H 397.625 -2.8297 0.947119 0
M  V30 4289 C 396.374 -3.39841 -0.735063 0
M  V30 4290 H 395.697 -3.99654 -0.107991 0
M  V30 4291 H 397.137 -4.08296 -1.14326 0
M  V30 4292 C 395.596 -2.79378 -1.88281 0
M  V30 4293 O 396.126 -2.69608 -2.97783 0
M  V30 4294 N 394.332 -2.37016 -1.68142 0
M  V30 4295 H 393.879 -2.45162 -0.790772 0
M  V30 4296 H 393.837 -1.96905 -2.45104 0
M  V30 4297 N 397.609 -0.515225 -1.4894 0
M  V30 4298 C 398.857 0.0241671 -2.02086 0
M  V30 4299 C 399.178 1.3616 -1.3959 0
M  V30 4300 O 398.448 1.87841 -0.556121 0
M  V30 4301 H 397.028 0.0119203 -0.746905 0
M  V30 4302 H 399.69 -0.675702 -1.82812 0
M  V30 4303 H 398.786 0.143385 -3.1177 0
M  V30 4304 N 399.087 1.5561 -0.249682 0
M  V30 4305 C 400.034 2.21496 0.648694 0
M  V30 4306 C 401.004 1.17977 1.16921 0
M  V30 4307 O 402.189 1.46434 1.22318 0
M  V30 4308 C 399.329 2.92039 1.83868 0
M  V30 4309 C 398.442 4.10219 1.35442 0
M  V30 4310 C 397.577 4.6847 2.50419 0
M  V30 4311 C 396.616 5.78893 1.98869 0
M  V30 4312 N 395.753 6.31315 3.07223 0
M  V30 4313 H 400.593 2.97892 0.0801582 0
M  V30 4314 H 398.13 1.47074 0.0278031 0
M  V30 4315 H 400.088 3.31138 2.53778 0
M  V30 4316 H 398.718 2.18111 2.37965 0
M  V30 4317 H 397.77 3.76413 0.54928 0
M  V30 4318 H 399.082 4.89927 0.936649 0
M  V30 4319 H 398.236 5.10158 3.28366 0
M  V30 4320 H 396.975 3.87984 2.95499 0
M  V30 4321 H 395.98 5.3668 1.19393 0
M  V30 4322 H 397.205 6.61232 1.54755 0
M  V30 4323 H 395.151 5.53733 3.51732 0
M  V30 4324 H 395.068 7.06224 2.69784 0
M  V30 4325 H 396.336 6.77662 3.8522 0
M  V30 4326 N 400.565 -0.0233959 1.57583 0
M  V30 4327 C 401.495 -1.02162 2.09965 0
M  V30 4328 C 402.476 -1.3735 1.00344 0
M  V30 4329 O 403.661 -1.46135 1.27899 0
M  V30 4330 C 400.791 -2.32081 2.58371 0
M  V30 4331 C 399.745 -2.1112 3.72307 0
M  V30 4332 C 399.071 -3.46848 4.06941 0
M  V30 4333 C 400.371 -1.49276 5.00514 0
M  V30 4334 H 402.065 -0.585557 2.93618 0
M  V30 4335 H 399.611 -0.280218 1.41247 0
M  V30 4336 H 401.564 -3.02249 2.93639 0
M  V30 4337 H 400.288 -2.77758 1.71808 0
M  V30 4338 H 398.947 -1.43384 3.37397 0
M  V30 4339 H 398.595 -3.90184 3.17436 0
M  V30 4340 H 398.295 -3.33646 4.83688 0
M  V30 4341 H 399.819 -4.18369 4.44747 0
M  V30 4342 H 401.233 -2.09368 5.33702 0
M  V30 4343 H 399.63 -1.46632 5.8191 0
M  V30 4344 H 400.7 -0.459217 4.82721 0
M  V30 4345 N 402.043 -1.548 -0.295768 0
M  V30 4346 C 402.953 -1.89177 -1.38742 0
M  V30 4347 C 403.969 -0.786481 -1.55211 0
M  V30 4348 O 405.145 -1.08344 -1.69775 0
M  V30 4349 C 402.21 -2.13663 -2.73036 0
M  V30 4350 C 401.271 -3.37349 -2.65508 0
M  V30 4351 C 400.504 -3.60658 -3.93398 0
M  V30 4352 O 400.727 -2.86882 -4.93006 0
M  V30 4353 O 399.661 -4.54179 -3.94975 0
M  V30 4354 H 403.487 -2.82059 -1.12589 0
M  V30 4355 H 401.072 -1.41056 -0.492295 0
M  V30 4356 H 402.954 -2.3094 -3.52484 0
M  V30 4357 H 401.629 -1.23967 -2.99022 0
M  V30 4358 H 400.536 -3.25431 -1.84514 0
M  V30 4359 H 401.869 -4.27192 -2.44474 0
M  V30 4360 N 403.521 0.559213 -1.47345 0
M  V30 4361 C 404.431 1.69388 -1.62311 0
M  V30 4362 C 405.447 1.6648 -0.505993 0
M  V30 4363 O 406.623 1.85964 -0.773262 0
M  V30 4364 C 403.688 3.05894 -1.63185 0
M  V30 4365 C 402.749 3.19885 -2.86307 0
M  V30 4366 C 401.982 4.49879 -2.87131 0
M  V30 4367 O 402.205 5.35217 -1.97229 0
M  V30 4368 O 401.139 4.67618 -3.78968 0
M  V30 4369 H 404.965 1.59706 -2.58317 0
M  V30 4370 H 402.55 0.728989 -1.30407 0
M  V30 4371 H 404.432 3.87133 -1.66451 0
M  V30 4372 H 403.107 3.15964 -0.70345 0
M  V30 4373 H 402.014 2.38052 -2.88587 0
M  V30 4374 H 403.347 3.14718 -3.78435 0
M  V30 4375 N 404.999 1.35443 0.805782 0
M  V30 4376 C 405.962 1.28301 1.89925 0
M  V30 4377 C 406.962 0.194285 1.59622 0
M  V30 4378 O 408.152 0.448036 1.6834 0
M  V30 4379 C 405.284 0.984997 3.2636 0
M  V30 4380 H 406.477 2.2553 1.97677 0
M  V30 4381 H 404.03 1.19979 1.00173 0
M  V30 4382 H 404.765 0.016603 3.24296 0
M  V30 4383 H 404.55 1.77269 3.4974 0
M  V30 4384 H 406.04 0.960651 4.064 0
M  V30 4385 N 406.477 -1.02803 1.19454 0
M  V30 4386 C 407.888 -1.57667 0.999899 0
M  V30 4387 C 408.239 -1.91041 -0.446956 0
M  V30 4388 O 407.364 -1.70978 -1.32648 0
M  V30 4389 C 407.959 -2.86477 1.80877 0
M  V30 4390 C 406.518 -3.37911 1.65811 0
M  V30 4391 C 405.665 -2.11343 1.79526 0
M  V30 4392 H 408.616 -0.853214 1.33813 0
M  V30 4393 H 408.637 -3.57408 1.30536 0
M  V30 4394 H 408.149 -2.62155 2.86175 0
M  V30 4395 H 406.25 -3.67218 0.63102 0
M  V30 4396 H 406.363 -4.10885 2.46395 0
M  V30 4397 H 404.727 -2.23254 1.22596 0
M  V30 4398 H 405.51 -1.89461 2.86285 0
M  V30 4399 N 407.956 -0.998596 -1.21925 0
M  V30 4400 C 409.367 -0.711939 -1.72593 0
M  V30 4401 C 409.718 0.770842 -1.80423 0
M  V30 4402 O 408.843 1.60237 -1.4544 0
M  V30 4403 C 409.438 -1.28567 -3.13458 0
M  V30 4404 C 407.997 -1.04828 -3.61508 0
M  V30 4405 C 407.144 -1.4024 -2.39224 0
M  V30 4406 H 410.095 -1.17027 -1.07193 0
M  V30 4407 H 410.116 -0.667098 -3.74607 0
M  V30 4408 H 409.628 -2.36486 -3.07727 0
M  V30 4409 H 407.729 0.0140383 -3.72597 0
M  V30 4410 H 407.842 -1.71566 -4.47328 0
M  V30 4411 H 406.206 -0.821077 -2.41103 0
M  V30 4412 H 406.989 -2.49176 -2.36149 0
M  V30 4413 N 409.434 1.37368 -0.772513 0
M  V30 4414 C 410.845 1.8231 -0.402493 0
M  V30 4415 C 411.196 1.6436 1.07146 0
M  V30 4416 O 410.321 1.15514 1.82991 0
M  V30 4417 C 410.916 3.30979 -0.723776 0
M  V30 4418 C 409.475 3.74195 -0.406802 0
M  V30 4419 C 408.622 2.59885 -0.967218 0
M  V30 4420 H 411.573 1.25829 -0.967099 0
M  V30 4421 H 411.594 3.80499 -0.00870832 0
M  V30 4422 H 411.106 3.44011 -1.7966 0
M  V30 4423 H 409.207 3.66732 0.658673 0
M  V30 4424 H 409.32 4.7027 -0.915588 0
M  V30 4425 H 407.684 2.51674 -0.391416 0
M  V30 4426 H 408.467 2.7571 -2.04546 0
M  V30 4427 N 410.912 0.523116 1.48665 0
M  V30 4428 C 411.875 -0.232592 2.28017 0
M  V30 4429 C 412.875 -0.874021 1.34972 0
M  V30 4430 O 414.065 -0.735132 1.57929 0
M  V30 4431 C 411.197 -1.33586 3.13636 0
M  V30 4432 H 412.39 0.464008 2.96289 0
M  V30 4433 H 409.943 0.278816 1.53793 0
M  V30 4434 H 410.678 -2.06593 2.4998 0
M  V30 4435 H 410.463 -0.881125 3.82071 0
M  V30 4436 H 411.953 -1.86759 3.73511 0
M  V30 4437 N 412.39 -1.55475 0.257931 0
M  V30 4438 C 413.32 -2.24815 -0.630912 0
M  V30 4439 C 414.301 -1.23224 -1.17259 0
M  V30 4440 O 415.486 -1.51904 -1.20991 0
M  V30 4441 C 412.616 -2.95609 -1.82298 0
M  V30 4442 C 411.57 -4.03982 -1.41359 0
M  V30 4443 C 410.896 -4.6226 -2.68738 0
M  V30 4444 C 412.196 -5.19109 -0.57648 0
M  V30 4445 H 413.89 -2.99354 -0.0526878 0
M  V30 4446 H 411.436 -1.4398 -0.023901 0
M  V30 4447 H 413.389 -3.42822 -2.45054 0
M  V30 4448 H 412.113 -2.18577 -2.42676 0
M  V30 4449 H 410.772 -3.57555 -0.809324 0
M  V30 4450 H 410.42 -3.81915 -3.27338 0
M  V30 4451 H 410.12 -5.35424 -2.42065 0
M  V30 4452 H 411.644 -5.12212 -3.32372 0
M  V30 4453 H 413.058 -5.62479 -1.10861 0
M  V30 4454 H 411.455 -5.98729 -0.405351 0
M  V30 4455 H 412.525 -4.83174 0.408776 0
M  V30 4456 N 413.868 0.0150385 -1.57593 0
M  V30 4457 C 415.279 0.559832 -1.78109 0
M  V30 4458 C 415.63 1.74814 -0.890756 0
M  V30 4459 O 414.755 2.16216 -0.0892482 0
M  V30 4460 C 415.35 1.02238 -3.23006 0
M  V30 4461 C 413.909 1.51258 -3.44671 0
M  V30 4462 C 413.056 0.456955 -2.73509 0
M  V30 4463 H 416.007 -0.211169 -1.57289 0
M  V30 4464 H 416.028 1.88912 -3.30292 0
M  V30 4465 H 415.54 0.157302 -3.87781 0
M  V30 4466 H 413.641 2.39905 -2.8509 0
M  V30 4467 H 413.754 1.55042 -4.5332 0
M  V30 4468 H 412.118 0.915196 -2.37689 0
M  V30 4469 H 412.901 -0.398896 -3.40975 0
M  V30 4470 N 415.346 1.54954 0.287554 0
M  V30 4471 C 416.757 1.65732 0.859634 0
M  V30 4472 C 417.108 0.574767 1.87592 0
M  V30 4473 O 416.233 -0.286299 2.14498 0
M  V30 4474 C 416.828 3.00438 1.56597 0
M  V30 4475 C 415.387 3.13292 2.08627 0
M  V30 4476 C 414.534 2.61473 0.923416 0
M  V30 4477 H 417.485 1.5857 0.0642338 0
M  V30 4478 H 417.506 2.92613 2.43224 0
M  V30 4479 H 417.018 3.79207 0.826053 0
M  V30 4480 H 415.119 2.39268 2.85625 0
M  V30 4481 H 415.232 4.19647 2.31157 0
M  V30 4482 H 413.596 2.18264 1.31275 0
M  V30 4483 H 414.379 3.42733 0.197241 0
M  V30 4484 N 416.824 -0.551391 1.4764 0
M  V30 4485 C 418.235 -1.13349 1.48354 0
M  V30 4486 C 418.586 -1.94709 0.241432 0
M  V30 4487 O 417.711 -2.06306 -0.653205 0
M  V30 4488 C 418.306 -2.0623 2.68802 0
M  V30 4489 C 416.865 -2.597 2.72457 0
M  V30 4490 C 416.012 -1.36201 2.41546 0
M  V30 4491 H 418.963 -0.337698 1.55065 0
M  V30 4492 H 418.984 -2.90196 2.46103 0
M  V30 4493 H 418.496 -1.46987 3.59188 0
M  V30 4494 H 416.597 -3.22724 1.86225 0
M  V30 4495 H 416.71 -3.00296 3.73308 0
M  V30 4496 H 415.074 -1.67068 1.9225 0
M  V30 4497 H 415.857 -0.787425 3.34147 0
M  V30 4498 N 418.302 -1.35869 -0.798587 0
M  V30 4499 C 419.713 -1.26498 -1.37314 0
M  V30 4500 C 420.064 0.0991899 -1.95949 0
M  V30 4501 O 419.189 1.0004 -1.91888 0
M  V30 4502 C 419.784 -2.29054 -2.49639 0
M  V30 4503 C 418.343 -2.234 -3.02935 0
M  V30 4504 C 417.49 -2.14329 -1.75949 0
M  V30 4505 H 420.441 -1.46881 -0.600971 0
M  V30 4506 H 420.462 -1.92166 -3.28409 0
M  V30 4507 H 419.974 -3.2833 -2.06933 0
M  V30 4508 H 418.075 -1.27562 -3.50084 0
M  V30 4509 H 418.188 -3.15703 -3.60372 0
M  V30 4510 H 416.552 -1.60435 -1.9782 0
M  V30 4511 H 417.335 -3.15477 -1.35384 0
M  V30 4512 N 419.78 1.02168 -1.19998 0
M  V30 4513 C 421.196 1.27969 -0.953737 0
M  V30 4514 C 421.396 1.98079 0.369703 0
M  V30 4515 O 420.452 2.27306 1.09947 0
M  V30 4516 C 421.765 2.11971 -2.13281 0
M  V30 4517 C 423.313 2.25255 -2.17323 0
M  V30 4518 C 423.788 3.12632 -3.34702 0
M  V30 4519 N 425.279 3.2022 -3.34684 0
M  V30 4520 C 426.014 3.88039 -4.22153 0
M  V30 4521 N 425.51 4.58027 -5.19791 0
M  V30 4522 N 427.303 3.84511 -4.10009 0
M  V30 4523 H 419.454 0.550794 -2.05134 0
M  V30 4524 H 421.717 0.305683 -0.897364 0
M  V30 4525 H 421.423 1.67785 -3.09097 0
M  V30 4526 H 421.297 3.12699 -2.10949 0
M  V30 4527 H 423.684 2.68667 -1.22073 0
M  V30 4528 H 423.765 1.24053 -2.23706 0
M  V30 4529 H 423.409 2.69926 -4.30235 0
M  V30 4530 H 423.339 4.13909 -3.25556 0
M  V30 4531 H 425.83 2.70382 -2.64012 0
M  V30 4532 H 426.143 5.07429 -5.82868 0
M  V30 4533 H 424.488 4.56869 -5.23733 0
M  V30 4534 H 427.679 3.28978 -3.33003 0
M  V30 4535 H 427.852 4.3709 -4.78389 0
M  V30 4536 N 421.258 1.00505 1.21394 0
M  V30 4537 C 422.669 0.721082 1.72213 0
M  V30 4538 C 423.02 -0.761263 1.80829 0
M  V30 4539 O 422.145 -1.59464 1.46288 0
M  V30 4540 C 422.74 1.30228 3.12772 0
M  V30 4541 C 421.299 1.06743 3.60947 0
M  V30 4542 C 420.446 1.41507 2.38477 0
M  V30 4543 H 423.397 1.17594 1.06571 0
M  V30 4544 H 423.418 0.686955 3.74247 0
M  V30 4545 H 422.93 2.38115 3.06468 0
M  V30 4546 H 421.031 0.00572162 3.726 0
M  V30 4547 H 421.144 1.73936 4.46411 0
M  V30 4548 H 419.508 0.833852 2.40664 0
M  V30 4549 H 420.291 2.50424 2.34824 0
M  V30 4550 N 422.737 -1.36956 0.779787 0
M  V30 4551 C 423.983 -1.99787 0.348281 0
M  V30 4552 C 424.316 -1.61756 -1.07465 0
M  V30 4553 O 423.591 -0.867639 -1.74075 0
M  V30 4554 C 423.874 -3.56597 0.50104 0
M  V30 4555 C 423.727 -4.04513 1.96697 0
M  V30 4556 C 425.046 -4.40008 -0.0898097 0
M  V30 4557 H 422.165 -0.725796 0.128022 0
M  V30 4558 H 424.807 -1.62514 0.984331 0
M  V30 4559 H 422.957 -3.88479 -0.0404347 0
M  V30 4560 H 424.629 -3.83161 2.56876 0
M  V30 4561 H 422.872 -3.56408 2.47297 0
M  V30 4562 H 423.543 -5.1352 2.02486 0
M  V30 4563 H 426.019 -4.14431 0.372293 0
M  V30 4564 H 424.895 -5.4888 0.0471605 0
M  V30 4565 H 425.156 -4.26035 -1.18096 0
M  V30 4566 N 424.215 -0.530993 -1.48385 0
M  V30 4567 C 425.178 0.220497 -2.28137 0
M  V30 4568 C 426.178 0.866851 -1.35434 0
M  V30 4569 O 427.368 0.726746 -1.58316 0
M  V30 4570 C 424.5 1.31921 -3.1434 0
M  V30 4571 H 425.693 -0.479714 -2.96038 0
M  V30 4572 H 423.246 -0.286968 -1.53643 0
M  V30 4573 H 423.981 2.05264 -2.51072 0
M  V30 4574 H 423.766 0.86085 -3.82533 0
M  V30 4575 H 425.256 1.84776 -3.74497 0
M  V30 4576 N 425.693 1.55336 -0.266172 0
M  V30 4577 C 426.97 1.91372 0.404486 0
M  V30 4578 C 427.35 1.18935 1.74407 0
M  V30 4579 O 426.698 0.3132 2.26343 0
M  V30 4580 C 426.908 3.44581 0.553593 0
M  V30 4581 C 428.256 4.16196 0.840618 0
M  V30 4582 O 429.28 3.50426 0.638739 0
M  V30 4583 O 428.139 5.32567 1.22618 0
M  V30 4584 H 425.233 0.797194 0.220025 0
M  V30 4585 H 427.779 1.66813 -0.311664 0
M  V30 4586 H 426.551 3.89357 -0.389498 0
M  V30 4587 H 426.174 3.75065 1.31955 0
M  V30 4588 N 427.171 -0.0066808 1.57599 0
M  V30 4589 C 428.118 -1.00024 2.08 0
M  V30 4590 C 429.088 -1.34549 0.973943 0
M  V30 4591 O 430.273 -1.44502 1.24595 0
M  V30 4592 C 427.413 -2.2891 2.58252 0
M  V30 4593 C 426.526 -2.00346 3.82734 0
M  V30 4594 C 425.661 -3.23265 4.21513 0
M  V30 4595 C 424.7 -2.90357 5.3885 0
M  V30 4596 N 423.837 -4.05793 5.72954 0
M  V30 4597 H 428.677 -0.563499 2.92624 0
M  V30 4598 H 426.214 -0.266592 1.44664 0
M  V30 4599 H 428.172 -3.04247 2.85464 0
M  V30 4600 H 426.802 -2.70265 1.76512 0
M  V30 4601 H 425.854 -1.15406 3.62471 0
M  V30 4602 H 427.166 -1.72086 4.68175 0
M  V30 4603 H 426.32 -4.06953 4.49971 0
M  V30 4604 H 425.059 -3.54657 3.34768 0
M  V30 4605 H 424.064 -2.05075 5.10122 0
M  V30 4606 H 425.289 -2.60219 6.27266 0
M  V30 4607 H 423.235 -4.37094 4.89167 0
M  V30 4608 H 423.152 -3.81034 6.52954 0
M  V30 4609 H 424.42 -4.90289 6.06001 0
M  V30 4610 N 428.649 -1.55105 -0.279332 0
M  V30 4611 C 429.926 -1.66119 -1.03267 0
M  V30 4612 C 430.306 -0.523525 -2.04505 0
M  V30 4613 O 429.654 0.477194 -2.23462 0
M  V30 4614 C 429.864 -3.05067 -1.69515 0
M  V30 4615 C 431.212 -3.62606 -2.20912 0
M  V30 4616 O 432.236 -3.07659 -1.79512 0
M  V30 4617 O 431.095 -4.58861 -2.96831 0
M  V30 4618 H 428.189 -0.674429 -0.478618 0
M  V30 4619 H 430.735 -1.67446 -0.275694 0
M  V30 4620 H 429.507 -3.79311 -0.9612 0
M  V30 4621 H 429.13 -3.07611 -2.51915 0
M  V30 4622 N 430.127 0.543554 -1.4793 0
M  V30 4623 C 431.355 1.32516 -1.58894 0
M  V30 4624 C 431.77 1.87215 -0.244131 0
M  V30 4625 O 431.127 1.65709 0.764652 0
M  V30 4626 C 431.178 2.48554 -2.62494 0
M  V30 4627 O 430.899 1.96112 -3.91755 0
M  V30 4628 C 432.4 3.40572 -2.8377 0
M  V30 4629 H 429.62 0.403472 -0.536145 0
M  V30 4630 H 432.164 0.657106 -1.93655 0
M  V30 4631 H 430.319 3.1127 -2.30629 0
M  V30 4632 H 430.733 2.71967 -4.4848 0
M  V30 4633 H 432.207 4.18375 -3.60093 0
M  V30 4634 H 432.684 3.94965 -1.92092 0
M  V30 4635 H 433.29 2.8366 -3.16887 0
M  V30 4636 N 431.605 1.3629 0.791371 0
M  V30 4637 C 432.83 1.33726 1.58531 0
M  V30 4638 C 433.255 -0.0794933 1.87932 0
M  V30 4639 O 432.613 -1.05087 1.47738 0
M  V30 4640 C 432.661 2.16425 2.88431 0
M  V30 4641 O 431.765 1.5554 3.81944 0
M  V30 4642 H 431.106 0.457793 0.480959 0
M  V30 4643 H 433.636 1.79547 0.981031 0
M  V30 4644 H 433.646 2.28933 3.37718 0
M  V30 4645 H 432.321 3.19415 2.66359 0
M  V30 4646 H 430.898 1.51961 3.40532 0
M  V30 4647 N 433.083 -1.0153 1.20538 0
M  V30 4648 C 434.031 -2.12215 0.952235 0
M  V30 4649 C 435.025 -1.69123 -0.0968735 0
M  V30 4650 O 436.231 -1.7992 0.0536006 0
M  V30 4651 H 432.606 -0.693576 0.290613 0
M  V30 4652 H 434.577 -2.3075 1.89201 0
M  V30 4653 C 433.326 -3.43755 0.522287 0
M  V30 4654 H 432.649 -3.7734 1.32115 0
M  V30 4655 H 434.089 -4.22254 0.384389 0
M  V30 4656 C 432.548 -3.28088 -0.765489 0
M  V30 4657 O 433.078 -3.57921 -1.8236 0
M  V30 4658 N 431.284 -2.81333 -0.728011 0
M  V30 4659 H 430.831 -2.57255 0.133332 0
M  V30 4660 H 430.789 -2.71232 -1.58999 0
M  V30 4661 N 434.561 -1.01147 -1.20859 0
M  V30 4662 C 435.471 -0.58686 -2.27141 0
M  V30 4663 C 436.487 0.373198 -1.69951 0
M  V30 4664 O 437.663 0.235423 -2.00019 0
M  V30 4665 C 434.728 0.0733602 -3.46622 0
M  V30 4666 C 433.789 -0.931995 -4.19061 0
M  V30 4667 C 433.022 -0.303186 -5.32838 0
M  V30 4668 O 433.245 0.898395 -5.63281 0
M  V30 4669 O 432.179 -1.01735 -5.9324 0
M  V30 4670 H 436.005 -1.47155 -2.65667 0
M  V30 4671 H 433.59 -0.780689 -1.2738 0
M  V30 4672 H 435.472 0.442333 -4.19072 0
M  V30 4673 H 434.147 0.932329 -3.09983 0
M  V30 4674 H 433.054 -1.35224 -3.48805 0
M  V30 4675 H 434.387 -1.76076 -4.59628 0
M  V30 4676 N 436.039 1.36541 -0.78704 0
M  V30 4677 C 437.264 2.0409 -0.369053 0
M  V30 4678 C 437.689 1.58957 1.00569 0
M  V30 4679 O 437.047 0.756926 1.64743 0
M  V30 4680 C 437.095 3.57924 -0.438466 0
M  V30 4681 O 436.199 4.08642 0.555479 0
M  V30 4682 H 435.54 0.645142 -0.157122 0
M  V30 4683 H 438.07 1.74545 -1.06749 0
M  V30 4684 H 438.08 4.06887 -0.301218 0
M  V30 4685 H 436.755 3.90127 -1.44132 0
M  V30 4686 H 435.332 3.70958 0.380088 0
M  V30 4687 N 437.518 0.538854 1.48102 0
M  V30 4688 C 438.743 0.0102694 2.07397 0
M  V30 4689 C 439.168 -1.26562 1.39153 0
M  V30 4690 O 438.526 -1.75357 0.460387 0
M  V30 4691 C 438.574 -0.187602 3.60112 0
M  V30 4692 O 437.678 -1.25432 3.92862 0
M  V30 4693 H 437.019 0.0430975 0.6626 0
M  V30 4694 H 439.549 0.749301 1.90385 0
M  V30 4695 H 439.559 -0.407517 4.0596 0
M  V30 4696 H 438.234 0.744386 4.09184 0
M  V30 4697 H 436.811 -1.01636 3.58782 0
M  V30 4698 N 438.996 -1.55193 0.274407 0
M  V30 4699 C 440.221 -2.04446 -0.348824 0
M  V30 4700 C 440.646 -1.15149 -1.48735 0
M  V30 4701 O 440.004 -0.149952 -1.80679 0
M  V30 4702 C 440.052 -3.51431 -0.808009 0
M  V30 4703 O 439.156 -3.65225 -1.91531 0
M  V30 4704 H 438.497 -0.66006 -0.0722276 0
M  V30 4705 H 441.027 -2.00481 0.408498 0
M  V30 4706 H 441.037 -3.92781 -1.10395 0
M  V30 4707 H 439.712 -4.15892 0.0249865 0
M  V30 4708 H 438.289 -3.35778 -1.62196 0
M  V30 4709 N 440.474 -0.00167713 -1.576 0
M  V30 4710 C 441.722 0.681471 -1.90264 0
M  V30 4711 C 442.043 1.7422 -0.875924 0
M  V30 4712 O 441.313 1.95709 0.0864412 0
M  V30 4713 H 439.893 0.254696 -0.702239 0
M  V30 4714 H 442.555 -0.0429996 -1.94853 0
M  V30 4715 H 441.651 1.15166 -2.90075 0
M  V30 4716 N 441.952 1.55251 0.271103 0
M  V30 4717 C 443.177 1.80306 1.02491 0
M  V30 4718 C 443.602 0.575457 1.79081 0
M  V30 4719 O 442.96 -0.474987 1.74967 0
M  V30 4720 C 443.008 3.02832 1.95768 0
M  V30 4721 O 442.112 2.78051 3.04568 0
M  V30 4722 H 441.453 0.595896 0.292923 0
M  V30 4723 H 443.983 2.02397 0.299436 0
M  V30 4724 H 443.993 3.31616 2.37686 0
M  V30 4725 H 442.668 3.9183 1.39434 0
M  V30 4726 H 441.245 2.60369 2.66951 0
M  V30 4727 N 443.43 -0.535701 1.48216 0
M  V30 4728 C 444.393 -1.623 1.61838 0
M  V30 4729 C 445.393 -1.53087 0.492024 0
M  V30 4730 O 446.583 -1.5686 0.757668 0
M  V30 4731 C 443.715 -3.01907 1.58319 0
M  V30 4732 H 444.908 -1.51564 2.58783 0
M  V30 4733 H 442.461 -0.757317 1.36727 0
M  V30 4734 H 443.196 -3.18155 0.628299 0
M  V30 4735 H 442.981 -3.10003 2.40085 0
M  V30 4736 H 444.471 -3.80969 1.71033 0
M  V30 4737 N 444.908 -1.36708 -0.784132 0
M  V30 4738 C 446.136 -1.34398 -1.57305 0
M  V30 4739 C 446.551 0.0735577 -1.88657 0
M  V30 4740 O 445.908 1.03193 -1.50524 0
M  V30 4741 C 445.959 -2.17053 -2.89085 0
M  V30 4742 O 445.68 -3.53281 -2.59083 0
M  V30 4743 C 447.181 -2.22583 -3.83369 0
M  V30 4744 H 444.401 -0.460819 -0.487736 0
M  V30 4745 H 446.945 -1.79879 -0.972819 0
M  V30 4746 H 445.1 -1.75113 -3.45564 0
M  V30 4747 H 445.514 -3.9647 -3.43383 0
M  V30 4748 H 446.988 -2.84763 -4.72878 0
M  V30 4749 H 447.465 -1.23075 -4.21603 0
M  V30 4750 H 448.071 -2.64781 -3.32823 0
M  V30 4751 N 446.386 1.0089 -1.21074 0
M  V30 4752 C 447.318 2.09737 -0.924291 0
M  V30 4753 C 448.331 1.62546 0.0909809 0
M  V30 4754 O 449.52 1.77942 -0.141021 0
M  V30 4755 C 446.62 3.36922 -0.36559 0
M  V30 4756 C 445.793 4.13216 -1.43426 0
M  V30 4757 C 444.852 5.18696 -0.885496 0
M  V30 4758 O 443.878 5.47176 -1.56801 0
M  V30 4759 N 445.08 5.79718 0.301227 0
M  V30 4760 H 447.845 2.34895 -1.8613 0
M  V30 4761 H 445.406 1.17341 -1.11546 0
M  V30 4762 H 447.398 4.04697 0.0158407 0
M  V30 4763 H 445.968 3.08952 0.476149 0
M  V30 4764 H 445.188 3.40301 -1.9897 0
M  V30 4765 H 446.476 4.60967 -2.15376 0
M  V30 4766 H 445.874 5.58926 0.872849 0
M  V30 4767 H 444.431 6.48804 0.624211 0
M  V30 4768 N 447.864 1.01787 1.20321 0
M  V30 4769 C 448.812 0.58254 2.25187 0
M  V30 4770 C 449.806 -0.379359 1.65098 0
M  V30 4771 O 451.012 -0.249142 1.78267 0
M  V30 4772 H 447.387 0.170078 0.732514 0
M  V30 4773 H 449.358 1.47788 2.59232 0
M  V30 4774 C 448.107 -0.0620885 3.47645 0
M  V30 4775 H 447.43 0.669069 3.94162 0
M  V30 4776 H 448.87 -0.329784 4.22716 0
M  V30 4777 C 447.329 -1.3053 3.10586 0
M  V30 4778 O 447.859 -2.39848 3.22236 0
M  V30 4779 N 446.065 -1.18988 2.65123 0
M  V30 4780 H 445.612 -0.300341 2.55843 0
M  V30 4781 H 445.57 -2.02267 2.40698 0
M  V30 4782 N 449.342 -1.36122 0.79427 0
M  V30 4783 C 450.57 -2.03362 0.380989 0
M  V30 4784 C 450.985 -1.59881 -1.00416 0
M  V30 4785 O 450.342 -0.790515 -1.6449 0
M  V30 4786 C 450.393 -3.58804 0.440649 0
M  V30 4787 O 450.114 -4.007 1.77118 0
M  V30 4788 C 451.615 -4.43296 0.0186117 0
M  V30 4789 H 448.835 -0.652526 0.156367 0
M  V30 4790 H 451.379 -1.73998 1.07447 0
M  V30 4791 H 449.534 -3.8686 -0.204458 0
M  V30 4792 H 449.948 -4.95309 1.72538 0
M  V30 4793 H 451.422 -5.51887 0.111488 0
M  V30 4794 H 451.899 -4.2684 -1.03461 0
M  V30 4795 H 452.505 -4.20512 0.636395 0
M  V30 4796 N 450.82 -0.546701 -1.47814 0
M  V30 4797 C 451.767 0.206854 -2.29871 0
M  V30 4798 C 452.737 0.918235 -1.38411 0
M  V30 4799 O 453.922 0.915991 -1.67375 0
M  V30 4800 C 451.062 1.23746 -3.22151 0
M  V30 4801 C 450.175 0.533216 -4.28697 0
M  V30 4802 C 449.31 1.5482 -5.08138 0
M  V30 4803 C 448.349 0.828347 -6.06469 0
M  V30 4804 N 447.486 1.78966 -6.78908 0
M  V30 4805 H 452.326 -0.499037 -2.93792 0
M  V30 4806 H 449.863 -0.25793 -1.44821 0
M  V30 4807 H 451.821 1.84746 -3.74065 0
M  V30 4808 H 450.451 1.91151 -2.60117 0
M  V30 4809 H 449.503 -0.191089 -3.7992 0
M  V30 4810 H 450.815 -0.0311987 -4.9879 0
M  V30 4811 H 449.969 2.23202 -5.6415 0
M  V30 4812 H 448.708 2.14652 -4.37922 0
M  V30 4813 H 447.713 0.130539 -5.49645 0
M  V30 4814 H 448.938 0.235907 -6.7869 0
M  V30 4815 H 446.884 2.37675 -6.1143 0
M  V30 4816 H 446.801 1.27712 -7.45135 0
M  V30 4817 H 448.069 2.46496 -7.395 0
M  V30 4818 N 452.299 1.55045 -0.282633 0
M  V30 4819 C 453.209 2.26491 0.61147 0
M  V30 4820 C 454.225 1.29348 1.16384 0
M  V30 4821 O 455.401 1.62298 1.19253 0
M  V30 4822 C 452.466 2.97779 1.77563 0
M  V30 4823 C 451.527 4.10418 1.25919 0
M  V30 4824 C 450.76 4.78297 2.36786 0
M  V30 4825 O 450.983 4.45426 3.56303 0
M  V30 4826 O 449.917 5.66089 2.04517 0
M  V30 4827 H 453.743 3.03683 0.0324615 0
M  V30 4828 H 451.328 1.49317 -0.0497576 0
M  V30 4829 H 453.21 3.42554 2.45427 0
M  V30 4830 H 451.885 2.23498 2.34159 0
M  V30 4831 H 450.792 3.70082 0.546797 0
M  V30 4832 H 452.125 4.86622 0.738887 0
M  V30 4833 N 453.777 0.010035 1.57597 0
M  V30 4834 C 455.193 -0.346164 1.55801 0
M  V30 4835 C 455.393 -1.74144 1.01371 0
M  V30 4836 O 454.449 -2.43938 0.651968 0
M  V30 4837 C 455.762 -0.212216 2.9995 0
M  V30 4838 C 457.31 -0.286409 3.11687 0
M  V30 4839 C 457.785 -0.18147 4.5764 0
M  V30 4840 N 459.276 -0.239056 4.62583 0
M  V30 4841 C 460.011 -0.181351 5.73113 0
M  V30 4842 N 459.507 -0.073661 6.92761 0
M  V30 4843 N 461.3 -0.233949 5.61613 0
M  V30 4844 H 453.451 0.922657 1.91313 0
M  V30 4845 H 455.714 0.354595 0.879185 0
M  V30 4846 H 455.42 0.748169 3.4365 0
M  V30 4847 H 455.294 -0.990224 3.6397 0
M  V30 4848 H 457.681 -1.23724 2.67911 0
M  V30 4849 H 457.762 0.521645 2.50425 0
M  V30 4850 H 457.406 0.765863 5.02093 0
M  V30 4851 H 457.336 -1.00814 5.1686 0
M  V30 4852 H 459.827 -0.32321 3.76515 0
M  V30 4853 H 460.14 -0.0358003 7.72792 0
M  V30 4854 H 458.485 -0.0391461 6.94989 0
M  V30 4855 H 461.676 -0.316347 4.6703 0
M  V30 4856 H 461.849 -0.185514 6.47734 0
M  V30 4857 N 455.255 -1.55392 -0.262866 0
M  V30 4858 C 456.666 -1.67079 -0.833158 0
M  V30 4859 C 457.017 -0.604539 -1.86654 0
M  V30 4860 O 456.142 0.252138 -2.14926 0
M  V30 4861 C 456.737 -3.02891 -1.51797 0
M  V30 4862 C 455.296 -3.16571 -2.03617 0
M  V30 4863 C 454.443 -2.62909 -0.881701 0
M  V30 4864 H 457.394 -1.58652 -0.0389986 0
M  V30 4865 H 457.415 -2.96445 -2.38538 0
M  V30 4866 H 456.927 -3.80473 -0.765619 0
M  V30 4867 H 455.028 -2.43782 -2.81782 0
M  V30 4868 H 455.141 -4.23271 -2.24452 0
M  V30 4869 H 453.505 -2.20324 -1.27786 0
M  V30 4870 H 454.288 -3.43003 -0.14269 0
M  V30 4871 N 456.733 0.527833 -1.48498 0
M  V30 4872 C 457.696 1.61439 -1.62696 0
M  V30 4873 C 458.696 1.52824 -0.500136 0
M  V30 4874 O 459.886 1.56456 -0.765976 0
M  V30 4875 C 457.018 3.01063 -1.59918 0
M  V30 4876 H 458.211 1.50189 -2.59583 0
M  V30 4877 H 455.764 0.750055 -1.37127 0
M  V30 4878 H 456.499 3.17818 -0.645163 0
M  V30 4879 H 456.284 3.08725 -2.41726 0
M  V30 4880 H 457.774 3.80057 -1.73051 0
M  V30 4881 N 458.211 1.37122 0.776871 0
M  V30 4882 C 459.439 1.3523 1.5659 0
M  V30 4883 C 459.854 -0.0635518 1.88693 0
M  V30 4884 O 459.211 -1.02394 1.51069 0
M  V30 4885 C 459.262 2.18583 2.8793 0
M  V30 4886 O 458.983 3.5465 2.57206 0
M  V30 4887 C 460.484 2.24612 3.82183 0
M  V30 4888 H 457.704 0.4634 0.485285 0
M  V30 4889 H 460.248 1.80392 0.963266 0
M  V30 4890 H 458.403 1.76943 3.4463 0
M  V30 4891 H 458.817 3.98286 3.41275 0
M  V30 4892 H 460.291 2.87267 4.71361 0
M  V30 4893 H 460.768 1.25309 4.20944 0
M  V30 4894 H 461.374 2.66543 3.31414 0
M  V30 4895 N 459.689 -1.00246 1.21608 0
M  V30 4896 C 460.599 -2.12515 0.993709 0
M  V30 4897 C 461.615 -1.73913 -0.0549939 0
M  V30 4898 O 462.791 -2.00943 0.135619 0
M  V30 4899 C 459.856 -3.42083 0.563953 0
M  V30 4900 C 458.917 -3.94843 1.68516 0
M  V30 4901 C 458.15 -5.18226 1.27582 0
M  V30 4902 O 458.373 -5.70201 0.150506 0
M  V30 4903 O 457.307 -5.64497 2.0887 0
M  V30 4904 H 461.133 -2.34152 1.93407 0
M  V30 4905 H 458.718 -1.10891 1.00118 0
M  V30 4906 H 460.6 -4.20073 0.334194 0
M  V30 4907 H 459.275 -3.21828 -0.347665 0
M  V30 4908 H 458.182 -3.18068 1.96935 0
M  V30 4909 H 459.515 -4.19512 2.5743 0
M  V30 4910 N 461.167 -1.02423 -1.1978 0
M  V30 4911 C 462.097 -0.62157 -2.25075 0
M  V30 4912 C 463.078 0.367148 -1.6609 0
M  V30 4913 O 464.263 0.250892 -1.92573 0
M  V30 4914 C 461.393 0.0331826 -3.47284 0
M  V30 4915 C 460.347 -0.877323 -4.18912 0
M  V30 4916 C 459.673 -0.0879296 -5.34628 0
M  V30 4917 C 460.973 -2.18892 -4.74219 0
M  V30 4918 H 462.667 -1.50179 -2.59011 0
M  V30 4919 H 460.213 -0.723547 -1.24502 0
M  V30 4920 H 462.166 0.326488 -4.20133 0
M  V30 4921 H 460.89 0.948164 -3.12534 0
M  V30 4922 H 459.549 -1.15475 -3.47938 0
M  V30 4923 H 459.197 0.828941 -4.96123 0
M  V30 4924 H 458.897 -0.694359 -5.83483 0
M  V30 4925 H 460.421 0.198743 -6.10276 0
M  V30 4926 H 461.835 -1.95746 -5.38847 0
M  V30 4927 H 460.232 -2.74686 -5.33542 0
M  V30 4928 H 461.302 -2.84674 -3.92541 0
M  V30 4929 N 462.645 1.35699 -0.801477 0
M  V30 4930 C 463.87 2.03687 -0.390678 0
M  V30 4931 C 464.295 1.60015 0.988778 0
M  V30 4932 O 463.653 0.774357 1.63931 0
M  V30 4933 C 463.701 3.57439 -0.476404 0
M  V30 4934 O 462.805 4.09208 0.512106 0
M  V30 4935 H 462.146 0.64344 -0.163956 0
M  V30 4936 H 464.676 1.73403 -1.08594 0
M  V30 4937 H 464.686 4.06544 -0.344357 0
M  V30 4938 H 463.361 3.88576 -1.48262 0
M  V30 4939 H 461.938 3.7134 0.340721 0
M  V30 4940 N 464.123 0.554532 1.47522 0
M  V30 4941 C 465.351 0.034257 2.06872 0
M  V30 4942 C 465.766 -1.25826 1.40759 0
M  V30 4943 O 465.123 -1.75425 0.503217 0
M  V30 4944 C 465.174 -0.167827 3.6111 0
M  V30 4945 O 464.895 1.07351 4.24744 0
M  V30 4946 C 466.396 -0.72569 4.3732 0
M  V30 4947 H 463.616 0.0446275 0.669514 0
M  V30 4948 H 466.16 0.767181 1.89564 0
M  V30 4949 H 464.315 -0.850872 3.7794 0
M  V30 4950 H 464.729 0.869563 5.17242 0
M  V30 4951 H 466.203 -0.816394 5.45929 0
M  V30 4952 H 466.68 -1.73635 4.0342 0
M  V30 4953 H 467.286 -0.0784292 4.25228 0
M  V30 4954 N 465.601 -1.54893 0.290851 0
M  V30 4955 C 466.829 -2.04343 -0.324288 0
M  V30 4956 C 467.244 -1.16859 -1.48289 0
M  V30 4957 O 466.601 -0.192018 -1.81487 0
M  V30 4958 C 466.652 -3.52756 -0.79026 0
M  V30 4959 O 466.373 -4.36913 0.322213 0
M  V30 4960 C 467.874 -4.18161 -1.4716 0
M  V30 4961 H 465.094 -0.667135 -0.0719173 0
M  V30 4962 H 467.638 -1.99981 0.427529 0
M  V30 4963 H 465.793 -3.57511 -1.49213 0
M  V30 4964 H 466.207 -5.24486 -0.0387372 0
M  V30 4965 H 467.681 -5.23562 -1.7489 0
M  V30 4966 H 468.158 -3.67282 -2.40834 0
M  V30 4967 H 468.764 -4.17454 -0.813178 0
M  V30 4968 N 467.08 -0.0183926 -1.57589 0
M  V30 4969 C 467.99 0.982943 -2.13015 0
M  V30 4970 C 469.006 1.36443 -1.07979 0
M  V30 4971 O 470.182 1.44802 -1.3998 0
M  V30 4972 C 467.247 2.25024 -2.63752 0
M  V30 4973 C 466.308 1.93018 -3.83461 0
M  V30 4974 C 465.541 3.13706 -4.31769 0
M  V30 4975 O 465.764 4.2601 -3.79305 0
M  V30 4976 O 464.698 2.96629 -5.23732 0
M  V30 4977 H 468.524 0.541709 -2.9883 0
M  V30 4978 H 466.109 0.201565 -1.48034 0
M  V30 4979 H 467.991 2.99441 -2.96502 0
M  V30 4980 H 466.666 2.68349 -1.81026 0
M  V30 4981 H 465.573 1.16019 -3.55655 0
M  V30 4982 H 466.906 1.54516 -4.67317 0
M  V30 4983 N 468.558 1.5553 0.254621 0
M  V30 4984 C 469.521 1.88872 1.29846 0
M  V30 4985 C 470.521 0.764591 1.41459 0
M  V30 4986 O 471.711 1.03265 1.40293 0
M  V30 4987 C 468.843 2.11032 2.67728 0
M  V30 4988 H 470.036 2.82201 1.01502 0
M  V30 4989 H 467.589 1.48303 0.493556 0
M  V30 4990 H 468.324 1.20146 3.01223 0
M  V30 4991 H 468.109 2.92895 2.60682 0
M  V30 4992 H 469.599 2.38038 3.43115 0
M  V30 4993 N 470.036 -0.519951 1.48776 0
M  V30 4994 C 471.264 -1.29971 1.60982 0
M  V30 4995 C 471.679 -1.86803 0.273885 0
M  V30 4996 O 471.036 -1.66904 -0.738193 0
M  V30 4997 C 471.087 -2.44346 2.66415 0
M  V30 4998 O 470.808 -1.89855 3.94825 0
M  V30 4999 C 472.309 -3.36014 2.89153 0
M  V30 5000 H 469.529 -0.394891 0.542496 0
M  V30 5001 H 472.073 -0.626214 1.94676 0
M  V30 5002 H 470.228 -3.07562 2.35552 0
M  V30 5003 H 470.642 -2.64798 4.5275 0
M  V30 5004 H 472.116 -4.12593 3.66703 0
M  V30 5005 H 472.593 -3.91859 1.98351 0
M  V30 5006 H 473.199 -2.78582 3.21359 0
M  V30 5007 N 471.514 -1.37532 -0.769588 0
M  V30 5008 C 472.742 -1.36059 -1.55871 0
M  V30 5009 C 473.157 0.053544 -1.88724 0
M  V30 5010 O 472.514 1.01591 -1.5161 0
M  V30 5011 C 472.565 -2.20107 -2.86767 0
M  V30 5012 O 472.286 -3.56009 -2.55321 0
M  V30 5013 C 473.787 -2.26636 -3.80987 0
M  V30 5014 H 471.007 -0.465967 -0.482821 0
M  V30 5015 H 473.551 -1.80901 -0.953686 0
M  V30 5016 H 471.706 -1.78768 -3.43687 0
M  V30 5017 H 472.12 -4.0009 -3.39158 0
M  V30 5018 H 473.594 -2.89763 -4.69831 0
M  V30 5019 H 474.071 -1.2754 -4.20274 0
M  V30 5020 H 474.677 -2.68296 -3.29996 0
M  V30 5021 N 472.992 0.995999 -1.22138 0
M  V30 5022 C 474.403 1.54961 -1.04135 0
M  V30 5023 C 474.754 1.92159 0.396147 0
M  V30 5024 O 473.879 1.74435 1.28069 0
M  V30 5025 C 474.474 2.81581 -1.88408 0
M  V30 5026 C 473.033 3.33396 -1.74712 0
M  V30 5027 C 472.18 2.06509 -1.85066 0
M  V30 5028 H 475.131 0.817436 -1.36028 0
M  V30 5029 H 475.152 3.53822 -1.39966 0
M  V30 5030 H 474.664 2.54476 -2.93025 0
M  V30 5031 H 472.765 3.65416 -0.728159 0
M  V30 5032 H 472.878 4.04208 -2.57202 0
M  V30 5033 H 471.242 2.19925 -1.28472 0
M  V30 5034 H 472.025 1.81804 -2.91208 0
M  V30 5035 N 474.47 1.03057 1.19235 0
M  V30 5036 C 475.433 0.617418 2.20727 0
M  V30 5037 C 476.433 -0.319856 1.57587 0
M  V30 5038 O 477.623 -0.106633 1.73873 0
M  V30 5039 C 474.755 -0.096296 3.40764 0
M  V30 5040 H 475.948 1.51544 2.58794 0
M  V30 5041 H 473.501 0.821949 1.32942 0
M  V30 5042 H 474.236 -1.00859 3.08217 0
M  V30 5043 H 474.021 0.577217 3.87828 0
M  V30 5044 H 475.511 -0.372219 4.15938 0
M  V30 5045 N 475.948 -1.35272 0.808662 0
M  V30 5046 C 476.881 -2.27595 0.165994 0
M  V30 5047 C 477.859 -1.48189 -0.669241 0
M  V30 5048 O 479.043 -1.77444 -0.636073 0
M  V30 5049 C 476.17 -3.29843 -0.769505 0
M  V30 5050 C 475.216 -4.26498 -0.0136267 0
M  V30 5051 S 476.049 -5.18878 1.32384 0
M  V30 5052 C 477.205 -6.24666 0.392838 0
M  V30 5053 H 477.438 -2.81755 0.948756 0
M  V30 5054 H 474.971 -1.42103 0.603828 0
M  V30 5055 H 476.929 -3.89247 -1.30374 0
M  V30 5056 H 475.59 -2.74558 -1.52567 0
M  V30 5057 H 474.783 -4.98769 -0.724227 0
M  V30 5058 H 474.385 -3.71274 0.450713 0
M  V30 5059 H 476.677 -6.7619 -0.4211 0
M  V30 5060 H 477.62 -6.99741 1.0848 0
M  V30 5061 H 478.028 -5.64499 -0.0123908 0
M  V30 5062 N 477.426 -0.562348 -1.47226 0
M  V30 5063 C 478.837 -0.130325 -1.86245 0
M  V30 5064 C 479.188 1.30128 -1.46838 0
M  V30 5065 O 478.313 1.97974 -0.873805 0
M  V30 5066 C 478.908 -0.229738 -3.3802 0
M  V30 5067 C 477.467 0.14728 -3.76112 0
M  V30 5068 C 476.614 -0.574971 -2.71274 0
M  V30 5069 H 479.565 -0.771773 -1.3867 0
M  V30 5070 H 479.586 0.550316 -3.76499 0
M  V30 5071 H 479.098 -1.27178 -3.66671 0
M  V30 5072 H 477.199 1.19023 -3.53078 0
M  V30 5073 H 477.312 -0.214858 -4.78618 0
M  V30 5074 H 475.676 -0.0174756 -2.54694 0
M  V30 5075 H 476.459 -1.61827 -3.02766 0
M  V30 5076 N 478.904 1.54736 -0.299062 0
M  V30 5077 C 479.867 2.22127 0.565012 0
M  V30 5078 C 480.867 1.20669 1.06281 0
M  V30 5079 O 482.057 1.45417 0.959145 0
M  V30 5080 C 479.189 2.90611 1.78208 0
M  V30 5081 H 480.382 2.99891 -0.0237448 0
M  V30 5082 H 477.935 1.5622 -0.0498788 0
M  V30 5083 H 478.67 2.16921 2.41072 0
M  V30 5084 H 478.455 3.64984 1.43281 0
M  V30 5085 H 479.945 3.42026 2.396 0
M  V30 5086 N 480.382 0.0267497 1.57577 0
M  V30 5087 C 481.793 -0.512413 1.79531 0
M  V30 5088 C 482.144 -1.72391 0.936791 0
M  V30 5089 O 481.269 -2.15903 0.146543 0
M  V30 5090 C 481.864 -0.936378 3.25603 0
M  V30 5091 C 480.423 -1.42067 3.4856 0
M  V30 5092 C 479.57 -0.384278 2.74624 0
M  V30 5093 H 482.521 0.252797 1.56674 0
M  V30 5094 H 482.542 -1.80088 3.35184 0
M  V30 5095 H 482.054 -0.0544332 3.88062 0
M  V30 5096 H 480.155 -2.32262 2.9135 0
M  V30 5097 H 480.268 -1.42968 4.57271 0
M  V30 5098 H 478.632 -0.851855 2.40032 0
M  V30 5099 H 479.415 0.489159 3.39797 0
M  V30 5100 N 481.861 -1.55662 -0.24637 0
M  V30 5101 C 483.272 -1.67953 -0.81539 0
M  V30 5102 C 483.623 -0.624302 -1.86002 0
M  V30 5103 O 482.748 0.229328 -2.15181 0
M  V30 5104 C 483.343 -3.04484 -1.48576 0
M  V30 5105 C 481.902 -3.18713 -2.00248 0
M  V30 5106 C 481.049 -2.6383 -0.853766 0
M  V30 5107 H 484 -1.58685 -0.0221692 0
M  V30 5108 H 484.021 -2.98959 -2.3538 0
M  V30 5109 H 483.533 -3.81264 -0.725222 0
M  V30 5110 H 481.634 -2.46757 -2.79181 0
M  V30 5111 H 481.747 -4.25628 -2.1995 0
M  V30 5112 H 480.111 -2.21667 -1.25442 0
M  V30 5113 H 480.894 -3.43135 -0.106302 0
M  V30 5114 N 483.339 0.512053 -1.4905 0
M  V30 5115 C 484.269 1.62365 -1.67809 0
M  V30 5116 C 485.25 1.61737 -0.526809 0
M  V30 5117 O 486.435 1.78651 -0.761404 0
M  V30 5118 C 483.565 3.00895 -1.73435 0
M  V30 5119 C 482.519 3.16387 -2.88242 0
M  V30 5120 C 481.845 4.56157 -2.78971 0
M  V30 5121 C 483.145 2.97457 -4.29321 0
M  V30 5122 H 484.839 1.46921 -2.60873 0
M  V30 5123 H 482.385 0.705379 -1.2554 0
M  V30 5124 H 484.338 3.78549 -1.85145 0
M  V30 5125 H 483.062 3.17403 -0.769619 0
M  V30 5126 H 481.721 2.41155 -2.76116 0
M  V30 5127 H 481.369 4.69525 -1.8043 0
M  V30 5128 H 481.069 4.67465 -3.5602 0
M  V30 5129 H 482.593 5.35886 -2.92675 0
M  V30 5130 H 484.007 3.64888 -4.42187 0
M  V30 5131 H 482.404 3.20245 -5.07507 0
M  V30 5132 H 483.474 1.93692 -4.44535 0
M  V30 5133 N 484.817 1.37938 0.762283 0
M  V30 5134 C 485.749 1.30349 1.88525 0
M  V30 5135 C 486.762 0.217402 1.61342 0
M  V30 5136 O 487.951 0.474291 1.72084 0
M  V30 5137 C 485.051 0.994844 3.23969 0
M  V30 5138 C 484.224 2.18829 3.78725 0
M  V30 5139 C 483.283 1.84844 4.92665 0
M  V30 5140 O 482.309 2.57244 5.07754 0
M  V30 5141 N 483.511 0.798201 5.74986 0
M  V30 5142 H 486.276 2.27114 1.95549 0
M  V30 5143 H 483.837 1.31686 0.941825 0
M  V30 5144 H 485.829 0.748168 3.97724 0
M  V30 5145 H 484.399 0.115446 3.12387 0
M  V30 5146 H 483.619 2.59615 2.96637 0
M  V30 5147 H 484.907 2.98497 4.1204 0
M  V30 5148 H 484.305 0.197611 5.65355 0
M  V30 5149 H 482.862 0.611396 6.48926 0
M  V30 5150 N 486.295 -0.989507 1.22664 0
M  V30 5151 C 487.706 -1.54406 1.04955 0
M  V30 5152 C 488.057 -1.92366 -0.385951 0
M  V30 5153 O 487.182 -1.75111 -1.27142 0
M  V30 5154 C 487.777 -2.80578 1.89899 0
M  V30 5155 C 486.336 -3.32464 1.76478 0
M  V30 5156 C 485.483 -2.05524 1.86159 0
M  V30 5157 H 488.434 -0.810211 1.3646 0
M  V30 5158 H 488.455 -3.53075 1.4184 0
M  V30 5159 H 487.967 -2.52918 2.94371 0
M  V30 5160 H 486.068 -3.65024 0.747528 0
M  V30 5161 H 486.181 -4.02838 2.59342 0
M  V30 5162 H 484.545 -2.19241 1.29636 0
M  V30 5163 H 485.328 -1.80258 2.92168 0
M  V30 5164 N 487.773 -1.03688 -1.18687 0
M  V30 5165 C 489.189 -0.755413 -1.4059 0
M  V30 5166 C 489.389 0.656659 -1.905 0
M  V30 5167 O 488.445 1.42144 -2.08689 0
M  V30 5168 C 489.758 -1.7983 -2.41001 0
M  V30 5169 C 491.306 -1.81877 -2.54735 0
M  V30 5170 C 491.781 -2.85148 -3.58406 0
M  V30 5171 N 493.272 -2.84015 -3.6591 0
M  V30 5172 C 494.007 -3.60573 -4.45841 0
M  V30 5173 N 493.503 -4.46871 -5.29413 0
M  V30 5174 N 495.296 -3.49079 -4.40568 0
M  V30 5175 H 487.447 -1.94818 -0.846148 0
M  V30 5176 H 489.71 -0.842727 -0.434184 0
M  V30 5177 H 489.416 -2.81097 -2.1137 0
M  V30 5178 H 489.29 -1.62727 -3.40294 0
M  V30 5179 H 491.677 -0.812836 -2.83685 0
M  V30 5180 H 491.758 -2.03057 -1.55568 0
M  V30 5181 H 491.402 -3.85918 -3.30197 0
M  V30 5182 H 491.332 -2.61224 -4.57241 0
M  V30 5183 H 493.823 -2.21431 -3.0623 0
M  V30 5184 H 494.136 -5.02007 -5.87545 0
M  V30 5185 H 492.481 -4.5094 -5.28846 0
M  V30 5186 H 495.672 -2.81066 -3.74325 0
M  V30 5187 H 495.845 -4.08994 -5.02621 0
M  V30 5188 N 489.251 1.34841 -0.815825 0
M  V30 5189 C 490.214 2.27959 -0.238185 0
M  V30 5190 C 491.214 1.49983 0.579816 0
M  V30 5191 O 492.404 1.69617 0.396953 0
M  V30 5192 C 489.536 3.34314 0.666876 0
M  V30 5193 H 490.729 2.80558 -1.05958 0
M  V30 5194 H 488.282 1.44852 -0.587156 0
M  V30 5195 H 489.017 2.86916 1.5116 0
M  V30 5196 H 488.802 3.92014 0.0819106 0
M  V30 5197 H 490.292 4.0379 1.06506 0
M  V30 5198 N 490.729 0.570148 1.46925 0
M  V30 5199 C 491.659 -0.158274 2.32963 0
M  V30 5200 C 492.64 -0.896093 1.44583 0
M  V30 5201 O 493.825 -0.874022 1.7342 0
M  V30 5202 C 490.955 -1.18055 3.26619 0
M  V30 5203 C 489.909 -0.558379 4.24342 0
M  V30 5204 C 489.235 -1.68623 5.07415 0
M  V30 5205 C 490.535 0.496295 5.19937 0
M  V30 5206 H 492.229 0.560046 2.94115 0
M  V30 5207 H 489.775 0.270775 1.41431 0
M  V30 5208 H 491.728 -1.69841 3.85658 0
M  V30 5209 H 490.452 -1.92899 2.63548 0
M  V30 5210 H 489.111 -0.0617157 3.66548 0
M  V30 5211 H 488.759 -2.42402 4.40738 0
M  V30 5212 H 488.459 -1.27564 5.73586 0
M  V30 5213 H 489.983 -2.20709 5.69315 0
M  V30 5214 H 491.397 0.0640052 5.73264 0
M  V30 5215 H 489.794 0.82649 5.94381 0
M  V30 5216 H 490.864 1.38735 4.6463 0
M  V30 5217 N 492.207 -1.54576 0.307264 0
M  V30 5218 C 493.155 -2.25208 -0.581723 0
M  V30 5219 C 494.149 -1.26031 -1.13192 0
M  V30 5220 O 495.355 -1.43862 -1.08184 0
M  V30 5221 H 491.73 -0.723173 -0.206214 0
M  V30 5222 H 493.701 -2.98378 0.0364663 0
M  V30 5223 C 492.45 -3.01086 -1.73904 0
M  V30 5224 H 491.773 -3.77208 -1.32491 0
M  V30 5225 H 493.213 -3.5378 -2.33701 0
M  V30 5226 C 491.672 -2.08422 -2.64692 0
M  V30 5227 O 492.202 -1.65636 -3.65961 0
M  V30 5228 N 490.408 -1.74247 -2.32564 0
M  V30 5229 H 489.955 -2.09238 -1.50257 0
M  V30 5230 H 489.913 -1.12524 -2.93574 0
M  V30 5231 N 493.685 -0.035106 -1.57561 0
M  V30 5232 C 495.096 0.502885 -1.798 0
M  V30 5233 C 495.447 1.71892 -0.945921 0
M  V30 5234 O 494.572 2.15822 -0.157991 0
M  V30 5235 C 495.167 0.919097 -3.26095 0
M  V30 5236 C 493.726 1.40216 -3.49308 0
M  V30 5237 C 492.873 0.369709 -2.74824 0
M  V30 5238 H 495.824 -0.261102 -1.56537 0
M  V30 5239 H 495.845 1.78308 -3.36135 0
M  V30 5240 H 495.357 0.0338526 -3.88085 0
M  V30 5241 H 493.458 2.30714 -2.92578 0
M  V30 5242 H 493.571 1.40541 -4.58023 0
M  V30 5243 H 491.935 0.839113 -2.40481 0
M  V30 5244 H 492.718 -0.507173 -3.39533 0
M  V30 5245 N 495.163 1.55791 0.238111 0
M  V30 5246 C 496.126 1.90239 1.27835 0
M  V30 5247 C 497.126 0.779552 1.4064 0
M  V30 5248 O 498.316 1.04747 1.3919 0
M  V30 5249 C 495.448 2.13859 2.65475 0
M  V30 5250 H 496.641 2.83262 0.985034 0
M  V30 5251 H 494.194 1.48818 0.477799 0
M  V30 5252 H 494.929 1.23334 2.99932 0
M  V30 5253 H 494.714 2.95643 2.57561 0
M  V30 5254 H 496.204 2.41664 3.40571 0
M  V30 5255 N 496.642 -0.504142 1.49319 0
M  V30 5256 C 497.867 -1.28729 1.62615 0
M  V30 5257 C 498.292 -1.85752 0.296309 0
M  V30 5258 O 497.65 -1.65704 -0.735649 0
M  V30 5259 C 497.698 -2.39561 2.69524 0
M  V30 5260 O 496.802 -3.43324 2.28478 0
M  V30 5261 H 496.143 -0.380172 0.544395 0
M  V30 5262 H 498.673 -0.603872 1.95485 0
M  V30 5263 H 498.683 -2.8537 2.91595 0
M  V30 5264 H 497.358 -1.97423 3.66056 0
M  V30 5265 H 495.935 -3.03455 2.16725 0
M  V30 5266 N 498.12 -1.38341 -0.754957 0
M  V30 5267 C 499.536 -1.19508 -1.05783 0
M  V30 5268 C 499.736 -0.0428005 -2.01455 0
M  V30 5269 O 498.792 0.611861 -2.44975 0
M  V30 5270 C 500.105 -2.52091 -1.63923 0
M  V30 5271 C 501.653 -2.58762 -1.76101 0
M  V30 5272 C 502.128 -3.91517 -2.37652 0
M  V30 5273 N 503.619 -3.93049 -2.45085 0
M  V30 5274 C 504.354 -4.9253 -2.93602 0
M  V30 5275 N 503.85 -6.02408 -3.42165 0
M  V30 5276 N 505.643 -4.79921 -2.92629 0
M  V30 5277 H 497.794 -2.1206 -0.120056 0
M  V30 5278 H 500.057 -0.94089 -0.11589 0
M  V30 5279 H 499.763 -3.36858 -1.01093 0
M  V30 5280 H 499.637 -2.70388 -2.63003 0
M  V30 5281 H 502.024 -1.74391 -2.38058 0
M  V30 5282 H 502.105 -2.44333 -0.757294 0
M  V30 5283 H 501.749 -4.76309 -1.76329 0
M  V30 5284 H 501.679 -4.03256 -3.38662 0
M  V30 5285 H 504.17 -3.13685 -2.10736 0
M  V30 5286 H 504.483 -6.74248 -3.77637 0
M  V30 5287 H 502.828 -6.0603 -3.40225 0
M  V30 5288 H 506.019 -3.93194 -2.54001 0
M  V30 5289 H 506.192 -5.57601 -3.30128 0
M  V30 5290 N 499.598 0.982988 -1.23187 0
M  V30 5291 C 500.844 1.7273 -1.07405 0
M  V30 5292 C 501.199 1.885 0.385447 0
M  V30 5293 O 500.492 1.4243 1.28157 0
M  V30 5294 C 500.686 3.12736 -1.73006 0
M  V30 5295 C 500.515 3.10621 -3.25184 0
M  V30 5296 C 499.285 3.15957 -3.94334 0
M  V30 5297 C 501.483 2.93992 -4.21987 0
M  V30 5298 N 499.465 3.03701 -5.33516 0
M  V30 5299 C 500.836 2.8987 -5.48065 0
M  V30 5300 C 502.891 2.78457 -4.12754 0
M  V30 5301 C 501.594 2.71804 -6.65969 0
M  V30 5302 C 503.62 2.61754 -5.30319 0
M  V30 5303 C 502.982 2.58328 -6.55321 0
M  V30 5304 H 499.081 0.641279 -0.447533 0
M  V30 5305 H 501.665 1.16664 -1.55877 0
M  V30 5306 H 499.836 3.67026 -1.2707 0
M  V30 5307 H 501.568 3.75786 -1.50224 0
M  V30 5308 H 498.323 3.24034 -3.45397 0
M  V30 5309 H 498.747 3.00855 -6.06478 0
M  V30 5310 H 503.389 2.79898 -3.16886 0
M  V30 5311 H 501.107 2.69108 -7.61975 0
M  V30 5312 H 504.693 2.50702 -5.25014 0
M  V30 5313 H 503.573 2.45564 -7.4476 0
M  V30 5314 N 501.076 1.04316 1.18135 0
M  V30 5315 C 502.301 0.768047 1.92655 0
M  V30 5316 C 502.726 -0.66904 1.758 0
M  V30 5317 O 502.084 -1.46372 1.06981 0
M  V30 5318 C 502.132 1.14239 3.42026 0
M  V30 5319 O 501.236 0.269333 4.1152 0
M  V30 5320 H 500.577 0.282436 0.600937 0
M  V30 5321 H 503.107 1.39367 1.49793 0
M  V30 5322 H 503.117 1.10538 3.92741 0
M  V30 5323 H 501.792 2.18928 3.53615 0
M  V30 5324 H 500.369 0.366175 3.71098 0
M  V30 5325 N 502.554 -1.34406 0.822964 0
M  V30 5326 C 503.501 -2.29519 0.24284 0
M  V30 5327 C 504.471 -1.5359 -0.632397 0
M  V30 5328 O 505.656 -1.8196 -0.57403 0
M  V30 5329 C 502.796 -3.40032 -0.58925 0
M  V30 5330 C 501.909 -4.30899 0.308236 0
M  V30 5331 C 501.044 -5.28515 -0.533425 0
M  V30 5332 C 500.083 -6.1102 0.363444 0
M  V30 5333 N 499.22 -7.00725 -0.439147 0
M  V30 5334 H 504.06 -2.78537 1.05929 0
M  V30 5335 H 501.597 -1.3707 0.533872 0
M  V30 5336 H 503.555 -4.0279 -1.087 0
M  V30 5337 H 502.185 -2.92248 -1.37081 0
M  V30 5338 H 501.237 -3.69002 0.924203 0
M  V30 5339 H 502.549 -4.88717 0.997862 0
M  V30 5340 H 501.703 -5.96725 -1.09565 0
M  V30 5341 H 500.442 -4.71235 -1.25656 0
M  V30 5342 H 499.447 -5.41743 0.937812 0
M  V30 5343 H 500.672 -6.70381 1.08469 0
M  V30 5344 H 498.618 -6.45913 -1.14595 0
M  V30 5345 H 498.535 -7.55756 0.19209 0
M  V30 5346 H 499.803 -7.73263 -0.984124 0
M  V30 5347 N 504.032 -0.577932 -1.46621 0
M  V30 5348 C 505.281 -0.0594281 -2.01612 0
M  V30 5349 C 505.594 1.30663 -1.45556 0
M  V30 5350 O 506.8 1.91621 -1.92337 0
M  V30 5351 C 505.256 -0.0556666 -3.59857 0
M  V30 5352 C 504.864 -1.41975 -4.24908 0
M  V30 5353 C 506.608 0.409143 -4.22524 0
M  V30 5354 C 504.515 -1.37397 -5.75218 0
M  V30 5355 H 503.445 -0.0184469 -0.753774 0
M  V30 5356 H 506.096 -0.728869 -1.68404 0
M  V30 5357 H 504.478 0.679843 -3.90121 0
M  V30 5358 H 505.652 -2.17461 -4.0626 0
M  V30 5359 H 503.967 -1.82419 -3.74316 0
M  V30 5360 H 506.564 0.46211 -5.32699 0
M  V30 5361 H 506.907 1.42565 -3.91128 0
M  V30 5362 H 507.44 -0.272152 -3.96868 0
M  V30 5363 H 504.179 -2.36714 -6.11267 0
M  V30 5364 H 503.699 -0.661239 -5.96144 0
M  V30 5365 H 505.378 -1.08484 -6.3784 0
M  V30 5366 N 505.51 1.54411 -0.315457 0
M  V30 5367 C 506.442 2.21527 0.588067 0
M  V30 5368 C 507.455 1.21263 1.08624 0
M  V30 5369 O 508.644 1.47777 1.00121 0
M  V30 5370 C 505.744 2.85963 1.81875 0
M  V30 5371 C 504.917 4.12291 1.46063 0
M  V30 5372 C 503.976 4.60396 2.54799 0
M  V30 5373 O 503.002 5.25265 2.19283 0
M  V30 5374 N 504.204 4.33935 3.85591 0
M  V30 5375 H 506.969 2.99697 0.013414 0
M  V30 5376 H 504.53 1.61308 -0.138295 0
M  V30 5377 H 506.522 3.15071 2.53993 0
M  V30 5378 H 505.092 2.11548 2.30144 0
M  V30 5379 H 504.312 3.90036 0.571445 0
M  V30 5380 H 505.6 4.9452 1.19695 0
M  V30 5381 H 504.998 3.81996 4.17248 0
M  V30 5382 H 503.555 4.67718 4.53964 0
M  V30 5383 N 506.988 0.0434614 1.5754 0
M  V30 5384 C 508.237 -0.631454 1.91561 0
M  V30 5385 C 508.55 -1.72457 0.92292 0
M  V30 5386 O 509.756 -2.45712 1.15489 0
M  V30 5387 C 508.212 -1.17447 3.40197 0
M  V30 5388 C 507.82 -0.113867 4.47855 0
M  V30 5389 C 509.564 -1.82507 3.83264 0
M  V30 5390 C 507.471 -0.669326 5.876 0
M  V30 5391 H 506.401 -0.239629 0.714908 0
M  V30 5392 H 509.052 0.111097 1.83163 0
M  V30 5393 H 507.434 -1.96909 3.43574 0
M  V30 5394 H 508.608 0.659348 4.56058 0
M  V30 5395 H 506.923 0.438821 4.14081 0
M  V30 5396 H 509.52 -2.25047 4.85034 0
M  V30 5397 H 509.863 -2.67365 3.19095 0
M  V30 5398 H 510.396 -1.09712 3.82372 0
M  V30 5399 H 507.135 0.141449 6.55347 0
M  V30 5400 H 506.655 -1.4107 5.82974 0
M  V30 5401 H 508.334 -1.15463 6.36614 0
M  V30 5402 N 508.466 -1.55915 -0.229846 0
M  V30 5403 C 509.712 -1.78807 -0.956868 0
M  V30 5404 C 510.045 -0.611687 -1.84315 0
M  V30 5405 O 509.32 0.389398 -1.90562 0
M  V30 5406 C 509.603 -3.11718 -1.80288 0
M  V30 5407 C 509.456 -4.3979 -0.943649 0
M  V30 5408 C 510.775 -3.40999 -2.78222 0
M  V30 5409 H 507.894 -0.6505 -0.346437 0
M  V30 5410 H 510.536 -1.88648 -0.226252 0
M  V30 5411 H 508.686 -3.03459 -2.42579 0
M  V30 5412 H 510.358 -4.60059 -0.338121 0
M  V30 5413 H 508.601 -4.33086 -0.248705 0
M  V30 5414 H 509.272 -5.29208 -1.5698 0
M  V30 5415 H 511.748 -3.49332 -2.26067 0
M  V30 5416 H 510.624 -4.35183 -3.34526 0
M  V30 5417 H 510.885 -2.62754 -3.55546 0
M  V30 5418 N 509.944 0.496216 -1.49584 0
M  V30 5419 C 511.172 1.27394 -1.63029 0
M  V30 5420 C 511.587 1.86344 -0.303569 0
M  V30 5421 O 510.944 1.68057 0.711547 0
M  V30 5422 C 510.995 2.40077 -2.70269 0
M  V30 5423 O 510.716 1.83549 -3.97796 0
M  V30 5424 C 512.217 3.31372 -2.94462 0
M  V30 5425 H 509.437 0.386211 -0.54871 0
M  V30 5426 H 511.981 0.595163 -1.95648 0
M  V30 5427 H 510.136 3.03775 -2.40415 0
M  V30 5428 H 510.55 2.57561 -4.56905 0
M  V30 5429 H 512.024 4.06707 -3.73221 0
M  V30 5430 H 512.501 3.88654 -2.0456 0
M  V30 5431 H 513.107 2.73435 -3.25751 0
M  V30 5432 N 511.423 1.38739 0.74761 0
M  V30 5433 C 512.37 1.36449 1.86146 0
M  V30 5434 C 513.34 0.226098 1.64554 0
M  V30 5435 O 514.525 0.41926 1.86137 0
M  V30 5436 C 511.665 1.2013 3.23516 0
M  V30 5437 C 510.778 2.43407 3.56899 0
M  V30 5438 C 509.913 2.19773 4.83605 0
M  V30 5439 C 508.952 3.3879 5.09792 0
M  V30 5440 N 508.089 3.14553 6.27695 0
M  V30 5441 H 512.929 2.3167 1.87438 0
M  V30 5442 H 510.466 1.15094 0.916063 0
M  V30 5443 H 512.424 1.08683 4.02795 0
M  V30 5444 H 511.054 0.285453 3.21535 0
M  V30 5445 H 510.106 2.65504 2.72418 0
M  V30 5446 H 511.418 3.32094 3.72176 0
M  V30 5447 H 510.572 2.05496 5.70838 0
M  V30 5448 H 509.311 1.28461 4.70478 0
M  V30 5449 H 508.316 3.53579 4.21025 0
M  V30 5450 H 509.541 4.30986 5.24812 0
M  V30 5451 H 507.487 2.25893 6.1588 0
M  V30 5452 H 507.404 3.96791 6.435 0
M  V30 5453 H 508.672 3.03943 7.17801 0
M  V30 5454 N 512.901 -0.976442 1.23707 0
M  V30 5455 C 513.833 -2.07212 0.979574 0
M  V30 5456 C 514.846 -1.6273 -0.0478528 0
M  V30 5457 O 516.035 -1.77506 0.18815 0
M  V30 5458 C 513.135 -3.35835 0.45479 0
M  V30 5459 C 512.308 -4.09268 1.54331 0
M  V30 5460 C 511.367 -5.16166 1.02271 0
M  V30 5461 O 510.393 -5.42827 1.71254 0
M  V30 5462 N 511.595 -5.80313 -0.147419 0
M  V30 5463 H 514.36 -2.29878 1.92292 0
M  V30 5464 H 511.921 -1.14343 1.14618 0
M  V30 5465 H 513.913 -4.04597 0.0914631 0
M  V30 5466 H 512.483 -3.10106 -0.394068 0
M  V30 5467 H 511.703 -3.34906 2.07923 0
M  V30 5468 H 512.991 -4.55095 2.27522 0
M  V30 5469 H 512.389 -5.61043 -0.724353 0
M  V30 5470 H 510.946 -6.50231 -0.451972 0
M  V30 5471 N 514.379 -1.04941 -1.1758 0
M  V30 5472 C 515.607 -0.778294 -1.91703 0
M  V30 5473 C 516.022 0.665697 -1.76675 0
M  V30 5474 O 515.379 1.45456 -1.10222 0
M  V30 5475 C 515.43 -1.14628 -3.42845 0
M  V30 5476 O 515.151 -2.53359 -3.57409 0
M  V30 5477 C 516.652 -0.900931 -4.34049 0
M  V30 5478 H 513.872 -0.283167 -0.608323 0
M  V30 5479 H 516.416 -1.39942 -1.49119 0
M  V30 5480 H 514.571 -0.569953 -3.83184 0
M  V30 5481 H 514.985 -2.67709 -4.51035 0
M  V30 5482 H 516.459 -1.20817 -5.38616 0
M  V30 5483 H 516.936 0.163966 -4.38894 0
M  V30 5484 H 517.542 -1.46097 -3.99419 0
M  V30 5485 N 515.857 1.33968 -0.830081 0
M  V30 5486 C 517.105 1.97672 -0.420734 0
M  V30 5487 C 517.426 1.66111 1.02138 0
M  V30 5488 O 516.696 0.955503 1.71017 0
M  V30 5489 H 515.276 0.73125 -0.152587 0
M  V30 5490 H 517.938 1.63483 -1.0611 0
M  V30 5491 H 517.034 3.07294 -0.545588 0
M  V30 5492 N 517.335 0.585699 1.46312 0
M  V30 5493 C 518.283 -0.158577 2.32059 0
M  V30 5494 C 519.277 -0.881427 1.44662 0
M  V30 5495 O 520.483 -0.799476 1.61271 0
M  V30 5496 H 516.858 -0.0700066 0.748734 0
M  V30 5497 H 518.829 0.583383 2.92642 0
M  V30 5498 C 517.578 -1.15701 3.27885 0
M  V30 5499 H 516.901 -0.610215 3.95116 0
M  V30 5500 H 518.341 -1.64812 3.90657 0
M  V30 5501 C 516.8 -2.21951 2.53455 0
M  V30 5502 O 517.33 -3.29352 2.29978 0
M  V30 5503 N 515.536 -1.9664 2.13965 0
M  V30 5504 H 515.083 -1.09309 2.33258 0
M  V30 5505 H 515.041 -2.6794 1.64485 0
M  V30 5506 N 518.813 -1.54241 0.323641 0
M  V30 5507 C 519.723 -2.28033 -0.551205 0
M  V30 5508 C 520.739 -1.32388 -1.12913 0
M  V30 5509 O 521.915 -1.65403 -1.14908 0
M  V30 5510 C 518.98 -3.02382 -1.69606 0
M  V30 5511 C 518.041 -4.13612 -1.14993 0
M  V30 5512 C 517.274 -4.84407 -2.24022 0
M  V30 5513 O 517.497 -4.54716 -3.44368 0
M  V30 5514 O 516.431 -5.71312 -1.89436 0
M  V30 5515 H 520.257 -3.03662 0.048066 0
M  V30 5516 H 517.842 -1.49133 0.0893289 0
M  V30 5517 H 519.724 -3.48941 -2.36259 0
M  V30 5518 H 518.399 -2.29628 -2.28151 0
M  V30 5519 H 517.306 -3.71402 -0.448484 0
M  V30 5520 H 518.639 -4.8841 -0.609608 0
M  V30 5521 N 520.291 -0.0518155 -1.57515 0
M  V30 5522 C 521.531 0.625712 -1.94587 0
M  V30 5523 C 521.895 1.6797 -0.930053 0
M  V30 5524 O 523.096 2.41135 -1.18774 0
M  V30 5525 C 521.367 1.20574 -3.36447 0
M  V30 5526 S 522.926 1.90118 -3.95475 0
M  V30 5527 H 519.744 0.205434 -0.680675 0
M  V30 5528 H 522.346 -0.120906 -1.95126 0
M  V30 5529 H 521.05 0.426521 -4.08178 0
M  V30 5530 H 520.581 1.98916 -3.39405 0
M  V30 5531 H 522.596 3.18184 -3.80753 0
M  V30 5532 N 521.769 1.56035 0.221574 0
M  V30 5533 C 523.015 1.79312 0.947372 0
M  V30 5534 C 523.348 0.621453 1.83988 0
M  V30 5535 O 522.623 -0.379287 1.90766 0
M  V30 5536 C 522.906 3.1267 1.78633 0
M  V30 5537 C 522.759 4.40284 0.920312 0
M  V30 5538 C 524.078 3.4247 2.7641 0
M  V30 5539 H 521.197 0.652328 0.342982 0
M  V30 5540 H 523.839 1.88765 0.216244 0
M  V30 5541 H 521.989 3.04741 2.40967 0
M  V30 5542 H 523.661 4.60232 0.313718 0
M  V30 5543 H 521.904 4.33212 0.225734 0
M  V30 5544 H 522.575 5.30033 1.54171 0
M  V30 5545 H 525.051 3.50526 2.24211 0
M  V30 5546 H 523.927 4.3695 3.32213 0
M  V30 5547 H 524.188 2.64635 3.54148 0
M  V30 5548 N 523.247 -0.488276 1.49845 0
M  V30 5549 C 524.475 -1.26527 1.63702 0
M  V30 5550 C 524.89 -1.8618 0.313447 0
M  V30 5551 O 524.247 -1.68432 -0.702624 0
M  V30 5552 C 524.298 -2.3864 2.71538 0
M  V30 5553 O 524.019 -1.81437 3.98763 0
M  V30 5554 C 525.52 -3.29805 2.96215 0
M  V30 5555 H 522.74 -0.383295 0.55075 0
M  V30 5556 H 525.284 -0.584779 1.95961 0
M  V30 5557 H 523.439 -3.02496 2.42023 0
M  V30 5558 H 523.853 -2.55135 4.58265 0
M  V30 5559 H 525.327 -4.04722 3.75372 0
M  V30 5560 H 525.804 -3.87563 2.06619 0
M  V30 5561 H 526.41 -2.71703 3.27196 0
M  V30 5562 N 524.725 -1.39134 -0.740242 0
M  V30 5563 C 525.688 -1.37217 -1.83587 0
M  V30 5564 C 526.688 -0.270221 -1.58513 0
M  V30 5565 O 527.878 -0.527843 -1.6601 0
M  V30 5566 C 525.01 -1.13959 -3.21288 0
M  V30 5567 H 526.203 -2.34705 -1.86691 0
M  V30 5568 H 523.756 -1.24622 -0.94335 0
M  V30 5569 H 524.491 -0.17131 -3.23847 0
M  V30 5570 H 524.276 -1.93754 -3.40884 0
M  V30 5571 H 525.766 -1.15346 -4.01354 0
M  V30 5572 N 526.204 0.969867 -1.24223 0
M  V30 5573 C 527.453 1.70687 -1.07466 0
M  V30 5574 C 527.766 1.91736 0.386861 0
M  V30 5575 O 528.972 2.62986 0.674581 0
M  V30 5576 C 527.428 3.07217 -1.87472 0
M  V30 5577 C 527.036 2.94018 -3.3802 0
M  V30 5578 C 528.78 3.84804 -1.79237 0
M  V30 5579 C 526.687 4.25844 -4.10379 0
M  V30 5580 H 525.617 0.640067 -0.398536 0
M  V30 5581 H 528.268 1.08092 -1.48285 0
M  V30 5582 H 526.65 3.70628 -1.39466 0
M  V30 5583 H 527.824 2.39632 -3.9359 0
M  V30 5584 H 526.139 2.29898 -3.47183 0
M  V30 5585 H 528.736 4.82417 -2.30603 0
M  V30 5586 H 529.079 4.09356 -0.757197 0
M  V30 5587 H 529.612 3.28115 -2.24912 0
M  V30 5588 H 526.351 4.06486 -5.14246 0
M  V30 5589 H 525.871 4.80054 -3.59594 0
M  V30 5590 H 527.55 4.94475 -4.17257 0
M  V30 5591 N 527.682 1.05563 1.17022 0
M  V30 5592 C 528.592 0.670758 2.24807 0
M  V30 5593 C 529.608 -0.309865 1.71219 0
M  V30 5594 O 530.784 -0.161025 2.00755 0
M  V30 5595 C 527.849 0.055337 3.46656 0
M  V30 5596 C 526.91 1.08688 4.15314 0
M  V30 5597 C 526.143 0.500736 5.31346 0
M  V30 5598 O 526.366 -0.688718 5.66227 0
M  V30 5599 O 525.3 1.23683 5.89055 0
M  V30 5600 H 529.126 1.56914 2.60023 0
M  V30 5601 H 526.711 0.827428 1.24395 0
M  V30 5602 H 528.593 -0.286492 4.20425 0
M  V30 5603 H 527.268 -0.816638 3.13229 0
M  V30 5604 H 526.175 1.48077 3.43546 0
M  V30 5605 H 527.508 1.93014 4.52777 0
M  V30 5606 N 529.16 -1.33526 0.837174 0
M  V30 5607 C 530.409 -1.97098 0.428387 0
M  V30 5608 C 530.722 -1.67062 -1.01734 0
M  V30 5609 O 531.928 -2.24235 -1.53072 0
M  V30 5610 C 530.384 -3.52725 0.715075 0
M  V30 5611 C 529.992 -3.9164 2.17537 0
M  V30 5612 C 531.736 -4.22857 0.373154 0
M  V30 5613 C 529.643 -5.40237 2.40619 0
M  V30 5614 H 528.573 -0.737589 0.156455 0
M  V30 5615 H 531.224 -1.52169 1.02552 0
M  V30 5616 H 529.606 -3.95971 0.0475904 0
M  V30 5617 H 530.78 -3.59456 2.88319 0
M  V30 5618 H 529.095 -3.34485 2.4801 0
M  V30 5619 H 531.692 -5.32133 0.523264 0
M  V30 5620 H 532.035 -4.10647 -0.683708 0
M  V30 5621 H 532.568 -3.85135 0.995801 0
M  V30 5622 H 529.307 -5.57449 3.44864 0
M  V30 5623 H 528.827 -5.73887 1.74396 0
M  V30 5624 H 530.506 -6.07102 2.23688 0
M  V30 5625 N 530.638 -0.59345 -1.46 0
M  V30 5626 C 531.884 -0.0832754 -2.02629 0
M  V30 5627 C 532.217 1.27749 -1.46266 0
M  V30 5628 O 531.492 1.8395 -0.631866 0
M  V30 5629 C 531.775 -0.0290756 -3.60088 0
M  V30 5630 C 531.628 -1.41951 -4.26814 0
M  V30 5631 C 532.947 0.666055 -4.35031 0
M  V30 5632 H 530.066 -0.031736 -0.736316 0
M  V30 5633 H 532.708 -0.762711 -1.74019 0
M  V30 5634 H 530.858 0.549532 -3.84594 0
M  V30 5635 H 532.53 -2.04411 -4.13538 0
M  V30 5636 H 530.773 -1.98422 -3.8576 0
M  V30 5637 H 531.444 -1.33395 -5.3564 0
M  V30 5638 H 533.92 0.174401 -4.15734 0
M  V30 5639 H 532.796 0.673041 -5.44758 0
M  V30 5640 H 533.057 1.72946 -4.06869 0
M  V30 5641 N 532.116 1.54067 -0.331816 0
M  V30 5642 C 533.527 1.86059 0.15454 0
M  V30 5643 C 533.878 1.25331 1.50952 0
M  V30 5644 O 533.003 0.562441 2.08963 0
M  V30 5645 C 533.598 3.37581 0.287192 0
M  V30 5646 C 532.157 3.69493 0.717773 0
M  V30 5647 C 531.304 2.76863 -0.155569 0
M  V30 5648 H 534.255 1.48797 -0.55182 0
M  V30 5649 H 534.276 3.63744 1.11671 0
M  V30 5650 H 533.788 3.81751 -0.699131 0
M  V30 5651 H 531.889 3.3086 1.71354 0
M  V30 5652 H 532.002 4.76315 0.5158 0
M  V30 5653 H 530.366 2.51995 0.370213 0
M  V30 5654 H 531.149 3.23861 -1.13881 0
M  V30 5655 N 533.594 0.0601682 1.57485 0
M  V30 5656 C 534.557 -0.896373 2.10945 0
M  V30 5657 C 535.557 -1.23402 1.03095 0
M  V30 5658 O 536.747 -1.16921 1.29132 0
M  V30 5659 C 533.879 -2.20346 2.60116 0
M  V30 5660 H 535.072 -0.432778 2.96761 0
M  V30 5661 H 532.625 -0.188372 1.55161 0
M  V30 5662 H 533.36 -2.71268 1.7772 0
M  V30 5663 H 533.145 -1.9714 3.38937 0
M  V30 5664 H 534.635 -2.88846 3.01592 0
M  V30 5665 N 535.072 -1.5615 -0.213296 0
M  V30 5666 C 536.3 -1.83638 -0.953139 0
M  V30 5667 C 536.715 -0.640362 -1.77609 0
M  V30 5668 O 536.072 0.391071 -1.78261 0
M  V30 5669 C 536.123 -3.09735 -1.86405 0
M  V30 5670 O 535.844 -4.24723 -1.07435 0
M  V30 5671 C 537.345 -3.5027 -2.71709 0
M  V30 5672 H 534.565 -0.610263 -0.278962 0
M  V30 5673 H 537.109 -2.03247 -0.226035 0
M  V30 5674 H 535.264 -2.92077 -2.545 0
M  V30 5675 H 535.678 -4.9641 -1.69343 0
M  V30 5676 H 537.152 -4.41515 -3.31313 0
M  V30 5677 H 537.629 -2.72406 -3.44516 0
M  V30 5678 H 538.235 -3.70396 -2.09015 0
M  V30 5679 N 536.55 0.480323 -1.50102 0
M  V30 5680 C 537.961 1.06142 -1.53593 0
M  V30 5681 C 538.312 1.93335 -0.334055 0
M  V30 5682 O 537.437 2.09188 0.55403 0
M  V30 5683 C 538.032 1.9317 -2.78336 0
M  V30 5684 C 536.591 2.46405 -2.84538 0
M  V30 5685 C 535.738 1.24521 -2.4777 0
M  V30 5686 H 538.689 0.26333 -1.565 0
M  V30 5687 H 538.71 2.78123 -2.59669 0
M  V30 5688 H 538.222 1.29683 -3.65792 0
M  V30 5689 H 536.323 3.13472 -2.01411 0
M  V30 5690 H 536.436 2.82143 -3.87211 0
M  V30 5691 H 534.8 1.57706 -2.00003 0
M  V30 5692 H 535.583 0.627102 -3.37524 0
M  V30 5693 N 538.028 1.39524 0.732853 0
M  V30 5694 C 538.991 1.38189 1.82857 0
M  V30 5695 C 539.991 0.278624 1.58368 0
M  V30 5696 O 541.181 0.536639 1.65728 0
M  V30 5697 C 538.313 1.15661 3.2068 0
M  V30 5698 H 539.506 2.35692 1.85444 0
M  V30 5699 H 537.059 1.2512 0.936728 0
M  V30 5700 H 537.794 0.188482 3.23752 0
M  V30 5701 H 537.579 1.95559 3.39852 0
M  V30 5702 H 539.069 1.17472 4.00737 0
M  V30 5703 N 539.506 -0.963266 1.24736 0
M  V30 5704 C 540.754 -1.70343 1.08755 0
M  V30 5705 C 541.075 -1.91387 -0.373619 0
M  V30 5706 O 540.345 -1.4948 -1.2662 0
M  V30 5707 H 538.925 -0.631224 0.399456 0
M  V30 5708 H 541.587 -1.15859 1.56725 0
M  V30 5709 H 540.683 -2.68616 1.58909 0
M  V30 5710 N 540.985 -1.06182 -1.16461 0
M  V30 5711 C 541.918 -0.615859 -2.19733 0
M  V30 5712 C 542.896 0.360766 -1.58547 0
M  V30 5713 O 544.08 0.270009 -1.86556 0
M  V30 5714 C 541.207 0.097312 -3.3856 0
M  V30 5715 C 540.253 -0.835889 -4.18229 0
M  V30 5716 S 541.086 -2.33052 -4.82128 0
M  V30 5717 C 542.242 -1.62881 -6.04335 0
M  V30 5718 H 542.475 -1.49079 -2.57221 0
M  V30 5719 H 540.008 -0.874692 -1.27234 0
M  V30 5720 H 541.966 0.502563 -4.07412 0
M  V30 5721 H 540.627 0.948418 -2.99439 0
M  V30 5722 H 539.82 -0.283426 -5.03202 0
M  V30 5723 H 539.422 -1.18097 -3.54865 0
M  V30 5724 H 541.714 -0.933764 -6.71034 0
M  V30 5725 H 542.657 -2.45641 -6.64128 0
M  V30 5726 H 543.065 -1.11189 -5.53441 0
M  V30 5727 N 542.463 1.3308 -0.844243 0
M  V30 5728 C 543.879 1.50447 -0.532729 0
M  V30 5729 C 544.079 1.78292 0.938837 0
M  V30 5730 O 543.135 1.84635 1.72239 0
M  V30 5731 C 544.448 2.65555 -1.41072 0
M  V30 5732 C 545.996 2.7944 -1.41005 0
M  V30 5733 C 546.471 3.97616 -2.27301 0
M  V30 5734 N 547.962 4.0486 -2.2504 0
M  V30 5735 C 548.697 4.95508 -2.88547 0
M  V30 5736 N 548.193 5.91236 -3.61126 0
M  V30 5737 N 549.986 4.88548 -2.77989 0
M  V30 5738 H 542.137 1.13269 -1.79677 0
M  V30 5739 H 544.4 0.55734 -0.766861 0
M  V30 5740 H 544.106 2.51675 -2.45668 0
M  V30 5741 H 543.98 3.61089 -1.09061 0
M  V30 5742 H 546.367 2.92749 -0.371784 0
M  V30 5743 H 546.448 1.8465 -1.77026 0
M  V30 5744 H 546.092 3.85066 -3.3119 0
M  V30 5745 H 546.022 4.91661 -1.88619 0
M  V30 5746 H 548.513 3.36353 -1.72264 0
M  V30 5747 H 548.826 6.57079 -4.06776 0
M  V30 5748 H 547.171 5.91295 -3.65234 0
M  V30 5749 H 550.362 4.12729 -2.20846 0
M  V30 5750 H 550.535 5.58994 -3.27765 0
M  V30 5751 N 543.941 0.601185 1.45683 0
M  V30 5752 C 545.352 0.179659 1.85834 0
M  V30 5753 C 545.703 -1.26189 1.50236 0
M  V30 5754 O 544.828 -1.95587 0.925987 0
M  V30 5755 C 545.423 0.319277 3.37292 0
M  V30 5756 C 543.982 -0.0475092 3.7637 0
M  V30 5757 C 543.129 0.646692 2.69654 0
M  V30 5758 H 546.08 0.808268 1.36575 0
M  V30 5759 H 546.101 -0.4503 3.77826 0
M  V30 5760 H 545.613 1.36855 3.6317 0
M  V30 5761 H 543.714 -1.0962 3.5611 0
M  V30 5762 H 543.827 0.34168 4.7788 0
M  V30 5763 H 542.191 0.0849971 2.54558 0
M  V30 5764 H 542.974 1.69797 2.98369 0
M  V30 5765 N 545.419 -1.53889 0.339982 0
M  V30 5766 C 546.382 -2.23547 -0.50592 0
M  V30 5767 C 547.382 -1.23445 -1.03044 0
M  V30 5768 O 548.572 -1.47909 -0.920253 0
M  V30 5769 C 545.704 -2.95234 -1.7044 0
M  V30 5770 H 546.897 -2.99722 0.103247 0
M  V30 5771 H 544.45 -1.56033 0.0912804 0
M  V30 5772 H 545.185 -2.23236 -2.35236 0
M  V30 5773 H 544.97 -3.68654 -1.33553 0
M  V30 5774 H 546.46 -3.48258 -2.30447 0
M  V30 5775 N 546.897 -0.0685191 -1.57451 0
M  V30 5776 C 547.86 0.885173 -2.11417 0
M  V30 5777 C 548.86 1.22853 -1.03748 0
M  V30 5778 O 550.05 1.16235 -1.2975 0
M  V30 5779 C 547.182 2.18964 -2.61281 0
M  V30 5780 H 548.375 0.417034 -2.96986 0
M  V30 5781 H 545.928 0.18014 -1.55258 0
M  V30 5782 H 546.663 2.70321 -1.79156 0
M  V30 5783 H 546.448 1.9534 -3.39977 0
M  V30 5784 H 547.938 2.87242 -3.0312 0
M  V30 5785 N 548.375 1.56261 0.205012 0
M  V30 5786 C 549.323 1.94631 1.27364 0
M  V30 5787 C 550.317 0.830434 1.47649 0
M  V30 5788 O 551.523 1.01538 1.48627 0
M  V30 5789 H 547.898 0.618755 0.427371 0
M  V30 5790 H 549.869 2.83768 0.922941 0
M  V30 5791 C 548.618 2.29358 2.61324 0
M  V30 5792 H 547.941 3.14744 2.46528 0
M  V30 5793 H 549.381 2.60076 3.34868 0
M  V30 5794 C 547.84 1.12461 3.17575 0
M  V30 5795 O 548.37 0.394407 3.99759 0
M  V30 5796 N 546.576 0.904036 2.7618 0
M  V30 5797 H 546.123 1.49956 2.09454 0
M  V30 5798 H 546.081 0.123662 3.14157 0
M  V30 5799 N 549.853 -0.472356 1.50355 0
M  V30 5800 C 551.099 -1.22634 1.6152 0
M  V30 5801 C 551.432 -1.91645 0.313995 0
M  V30 5802 O 550.707 -1.82059 -0.684446 0
M  V30 5803 C 550.99 -2.27099 2.7946 0
M  V30 5804 C 550.843 -1.62402 4.19459 0
M  V30 5805 C 552.162 -3.28421 2.92964 0
M  V30 5806 H 549.281 -0.444494 0.587873 0
M  V30 5807 H 551.923 -0.520321 1.82737 0
M  V30 5808 H 550.073 -2.87314 2.61501 0
M  V30 5809 H 551.745 -1.05793 4.49005 0
M  V30 5810 H 549.988 -0.927184 4.23776 0
M  V30 5811 H 550.659 -2.38309 4.97909 0
M  V30 5812 H 553.135 -2.78227 3.09401 0
M  V30 5813 H 552.011 -3.98845 3.77113 0
M  V30 5814 H 552.272 -3.92467 2.03525 0
M  V30 5815 N 551.331 -1.39911 -0.725443 0
M  V30 5816 C 552.294 -1.39156 -1.82121 0
M  V30 5817 C 553.294 -0.287018 -1.58218 0
M  V30 5818 O 554.484 -0.545421 -1.65441 0
M  V30 5819 C 551.616 -1.1736 -3.20062 0
M  V30 5820 H 552.809 -2.36672 -1.84191 0
M  V30 5821 H 550.362 -1.25615 -0.930079 0
M  V30 5822 H 551.097 -0.205648 -3.23647 0
M  V30 5823 H 550.882 -1.97358 -3.3881 0
M  V30 5824 H 552.372 -1.19596 -4.00108 0
M  V30 5825 N 552.809 0.956637 -1.25245 0
M  V30 5826 C 554.225 1.22733 -1.02023 0
M  V30 5827 C 554.425 1.99761 0.264186 0
M  V30 5828 O 553.481 2.32814 0.977436 0
M  V30 5829 C 554.794 2.00367 -2.24217 0
M  V30 5830 C 556.342 2.13418 -2.28958 0
M  V30 5831 C 556.817 2.9445 -3.50803 0
M  V30 5832 N 558.308 3.02029 -3.51187 0
M  V30 5833 C 559.043 3.65116 -4.42129 0
M  V30 5834 N 558.539 4.2983 -5.43339 0
M  V30 5835 N 560.332 3.62237 -4.29815 0
M  V30 5836 H 552.483 0.441282 -2.07765 0
M  V30 5837 H 554.746 0.257686 -0.912306 0
M  V30 5838 H 554.452 1.51165 -3.17556 0
M  V30 5839 H 554.326 3.01077 -2.27228 0
M  V30 5840 H 556.713 2.61819 -1.36143 0
M  V30 5841 H 556.794 1.1202 -2.29968 0
M  V30 5842 H 556.438 2.46741 -4.43939 0
M  V30 5843 H 556.368 3.9607 -3.47039 0
M  V30 5844 H 558.859 2.56007 -2.77973 0
M  V30 5845 H 559.172 4.75819 -6.08947 0
M  V30 5846 H 557.517 4.28465 -5.47214 0
M  V30 5847 H 560.708 3.10863 -3.49974 0
M  V30 5848 H 560.881 4.11117 -5.00886 0
M  V30 5849 N 554.287 1.06798 1.15896 0
M  V30 5850 C 555.234 0.683314 2.20453 0
M  V30 5851 C 556.204 -0.32255 1.62938 0
M  V30 5852 O 557.389 -0.210276 1.89638 0
M  V30 5853 C 554.529 0.0813266 3.45004 0
M  V30 5854 C 553.642 1.13799 4.16742 0
M  V30 5855 C 552.777 0.501598 5.28826 0
M  V30 5856 C 551.816 1.54144 5.92373 0
M  V30 5857 N 550.953 0.928038 6.9594 0
M  V30 5858 H 555.793 1.57932 2.52708 0
M  V30 5859 H 553.33 0.789544 1.24115 0
M  V30 5860 H 555.288 -0.285274 4.16224 0
M  V30 5861 H 553.918 -0.77806 3.13283 0
M  V30 5862 H 552.97 1.62223 3.44075 0
M  V30 5863 H 554.282 1.92664 4.60089 0
M  V30 5864 H 553.436 0.0823162 6.06644 0
M  V30 5865 H 552.175 -0.318883 4.86656 0
M  V30 5866 H 551.18 1.97056 5.13273 0
M  V30 5867 H 552.405 2.3641 6.36621 0
M  V30 5868 H 550.351 0.12836 6.55874 0
M  V30 5869 H 550.268 1.65401 7.37685 0
M  V30 5870 H 551.536 0.534071 7.77668 0
M  V30 5871 N 555.766 -1.3263 0.851289 0
M  V30 5872 C 557.013 -1.97368 0.453023 0
M  V30 5873 C 557.341 -1.67384 -0.990596 0
M  V30 5874 O 556.596 -0.952665 -1.70947 0
M  V30 5875 C 556.895 -3.51713 0.635015 0
M  V30 5876 C 556.561 -4.01676 2.04859 0
M  V30 5877 C 555.223 -4.15031 2.43522 0
M  V30 5878 C 557.575 -4.28206 2.97135 0
M  V30 5879 C 554.903 -4.52257 3.73739 0
M  V30 5880 C 557.255 -4.66889 4.26846 0
M  V30 5881 C 555.919 -4.7845 4.65448 0
M  V30 5882 H 555.189 -0.722219 0.165773 0
M  V30 5883 H 557.836 -1.58092 1.0807 0
M  V30 5884 H 556.141 -3.91726 -0.0759081 0
M  V30 5885 H 557.838 -3.99823 0.306964 0
M  V30 5886 H 554.428 -3.91764 1.73836 0
M  V30 5887 H 558.612 -4.174 2.68498 0
M  V30 5888 H 553.868 -4.59402 4.03435 0
M  V30 5889 H 558.042 -4.86372 4.98413 0
M  V30 5890 H 555.669 -5.07052 5.66395 0
M  V30 5891 N 557.244 -0.608902 -1.45362 0
M  V30 5892 C 558.207 0.0992563 -2.28985 0
M  V30 5893 C 559.207 0.793841 -1.39838 0
M  V30 5894 O 560.397 0.641804 -1.61946 0
M  V30 5895 C 557.529 1.15073 -3.20891 0
M  V30 5896 H 558.722 -0.635964 -2.93079 0
M  V30 5897 H 556.275 -0.368007 -1.51906 0
M  V30 5898 H 557.01 1.91667 -2.616 0
M  V30 5899 H 556.795 0.656867 -3.86559 0
M  V30 5900 H 558.285 1.64665 -3.83765 0
M  V30 5901 N 558.722 1.53707 -0.348139 0
M  V30 5902 C 559.947 2.05877 0.250883 0
M  V30 5903 C 560.372 1.22115 1.43072 0
M  V30 5904 O 559.73 0.235986 1.79758 0
M  V30 5905 C 559.778 3.54886 0.639416 0
M  V30 5906 O 558.882 3.73948 1.73888 0
M  V30 5907 H 558.223 0.662754 0.040653 0
M  V30 5908 H 560.753 1.98303 -0.503685 0
M  V30 5909 H 560.763 3.97601 0.915295 0
M  V30 5910 H 559.438 4.153 -0.223386 0
M  V30 5911 H 558.015 3.43134 1.45991 0
M  V30 5912 N 560.2 0.0768682 1.57412 0
M  V30 5913 C 561.449 -0.590679 1.92857 0
M  V30 5914 C 561.762 -1.70461 0.959293 0
M  V30 5915 O 562.968 -2.43207 1.20675 0
M  V30 5916 C 561.424 -1.10204 3.42612 0
M  V30 5917 C 561.032 -0.0188447 4.47996 0
M  V30 5918 C 562.776 -1.74336 3.87049 0
M  V30 5919 C 560.683 -0.544536 5.88888 0
M  V30 5920 H 559.613 -0.224411 0.71983 0
M  V30 5921 H 562.264 0.149924 1.82887 0
M  V30 5922 H 560.646 -1.89577 3.47673 0
M  V30 5923 H 561.82 0.755936 4.54557 0
M  V30 5924 H 560.135 0.526555 4.13057 0
M  V30 5925 H 562.732 -2.14708 4.89699 0
M  V30 5926 H 563.075 -2.60537 3.24694 0
M  V30 5927 H 563.608 -1.01577 3.84613 0
M  V30 5928 H 560.347 0.280426 6.549 0
M  V30 5929 H 559.867 -1.28673 5.85836 0
M  V30 5930 H 561.546 -1.01933 6.3892 0
M  V30 5931 N 561.678 -1.56367 -0.196722 0
M  V30 5932 C 562.641 -1.93561 -1.22746 0
M  V30 5933 C 563.641 -0.816566 -1.38524 0
M  V30 5934 O 564.831 -1.084 -1.36363 0
M  V30 5935 C 561.963 -2.20823 -2.59712 0
M  V30 5936 H 563.156 -2.85774 -0.909586 0
M  V30 5937 H 560.709 -1.50032 -0.438174 0
M  V30 5938 H 561.444 -1.31243 -2.96557 0
M  V30 5939 H 561.229 -3.02368 -2.49632 0
M  V30 5940 H 562.719 -2.50608 -3.34044 0
M  V30 5941 N 563.156 0.464375 -1.50603 0
M  V30 5942 C 564.572 0.798684 -1.38178 0
M  V30 5943 C 564.772 1.96568 -0.44308 0
M  V30 5944 O 563.828 2.52252 0.111814 0
M  V30 5945 C 565.141 1.10444 -2.79683 0
M  V30 5946 C 566.689 1.2105 -2.88645 0
M  V30 5947 C 567.164 1.54934 -4.30998 0
M  V30 5948 N 568.655 1.61913 -4.3398 0
M  V30 5949 C 569.39 1.8965 -5.41129 0
M  V30 5950 N 568.886 2.15361 -6.58477 0
M  V30 5951 N 570.679 1.91207 -5.28579 0
M  V30 5952 H 562.83 -0.304603 -2.10204 0
M  V30 5953 H 565.093 -0.0737804 -0.945125 0
M  V30 5954 H 564.799 0.319934 -3.50242 0
M  V30 5955 H 564.673 2.03896 -3.17342 0
M  V30 5956 H 567.06 1.98567 -2.18301 0
M  V30 5957 H 567.141 0.255613 -2.5452 0
M  V30 5958 H 566.785 0.779549 -5.01882 0
M  V30 5959 H 566.715 2.51584 -4.62615 0
M  V30 5960 H 569.206 1.44055 -3.49366 0
M  V30 5961 H 569.519 2.35818 -7.35941 0
M  V30 5962 H 567.864 2.1274 -6.6164 0
M  V30 5963 H 571.055 1.70622 -4.35897 0
M  V30 5964 H 571.228 2.12488 -6.12171 0
M  V30 5965 N 564.634 1.40294 0.718013 0
M  V30 5966 C 565.582 1.40536 1.85344 0
M  V30 5967 C 566.576 0.286192 1.66965 0
M  V30 5968 O 567.782 0.457105 1.74099 0
M  V30 5969 H 564.157 0.439236 0.61039 0
M  V30 5970 H 566.128 2.36275 1.82255 0
M  V30 5971 C 564.877 1.28245 3.23185 0
M  V30 5972 H 564.2 2.1364 3.37932 0
M  V30 5973 H 565.64 1.32474 4.02774 0
M  V30 5974 C 564.099 -0.0075503 3.36899 0
M  V30 5975 O 564.629 -0.971391 3.89778 0
M  V30 5976 N 562.835 -0.0762479 2.905 0
M  V30 5977 H 562.382 0.708819 2.47656 0
M  V30 5978 H 562.34 -0.938846 3.00055 0
M  V30 5979 N 566.112 -0.949982 1.2575 0
M  V30 5980 C 567.044 -2.05088 1.02331 0
M  V30 5981 C 568.057 -1.62795 -0.0133247 0
M  V30 5982 O 569.246 -1.77067 0.225759 0
M  V30 5983 C 566.346 -3.34794 0.525924 0
M  V30 5984 C 565.519 -4.05903 1.62978 0
M  V30 5985 C 564.578 -5.1388 1.13196 0
M  V30 5986 O 563.604 -5.39072 1.82729 0
M  V30 5987 N 564.806 -5.80495 -0.0242926 0
M  V30 5988 H 567.571 -2.25747 1.97125 0
M  V30 5989 H 565.132 -1.11886 1.17018 0
M  V30 5990 H 567.124 -4.04312 0.177263 0
M  V30 5991 H 565.694 -3.10872 -0.328202 0
M  V30 5992 H 564.914 -3.3042 2.1498 0
M  V30 5993 H 566.202 -4.50166 2.37124 0
M  V30 5994 H 565.6 -5.62454 -0.605184 0
M  V30 5995 H 564.157 -6.51043 -0.313947 0
M  V30 5996 N 567.59 -1.07411 -1.15328 0
M  V30 5997 C 568.836 -0.798831 -1.86404 0
M  V30 5998 C 569.169 0.673433 -1.8215 0
M  V30 5999 O 568.444 1.49428 -1.24505 0
M  V30 6000 C 568.727 -1.30846 -3.35487 0
M  V30 6001 C 568.58 -2.84532 -3.4837 0
M  V30 6002 C 569.899 -0.925486 -4.30259 0
M  V30 6003 H 567.018 -0.291659 -0.676834 0
M  V30 6004 H 569.66 -1.332 -1.35491 0
M  V30 6005 H 567.81 -0.854916 -3.78977 0
M  V30 6006 H 569.482 -3.3818 -3.13739 0
M  V30 6007 H 567.725 -3.22699 -2.8991 0
M  V30 6008 H 568.396 -3.15259 -4.53118 0
M  V30 6009 H 570.872 -1.3163 -3.94731 0
M  V30 6010 H 569.748 -1.3094 -5.33053 0
M  V30 6011 H 570.009 0.168525 -4.41779 0
M  V30 6012 N 569.068 1.32177 -0.85831 0
M  V30 6013 C 570.484 1.49873 -0.548656 0
M  V30 6014 C 570.684 1.79278 0.919874 0
M  V30 6015 O 569.74 1.86451 1.70271 0
M  V30 6016 C 571.053 2.64043 -1.4388 0
M  V30 6017 C 572.601 2.77928 -1.43961 0
M  V30 6018 C 573.076 3.95182 -2.31506 0
M  V30 6019 N 574.567 4.0245 -2.29321 0
M  V30 6020 C 575.302 4.9242 -2.93786 0
M  V30 6021 N 574.798 5.87373 -3.67376 0
M  V30 6022 N 576.591 4.85572 -2.83155 0
M  V30 6023 H 568.742 1.11357 -1.80868 0
M  V30 6024 H 571.005 0.549175 -0.772729 0
M  V30 6025 H 570.711 2.49055 -2.48324 0
M  V30 6026 H 570.585 3.59912 -1.12885 0
M  V30 6027 H 572.972 2.92338 -0.402813 0
M  V30 6028 H 573.053 1.82762 -1.78974 0
M  V30 6029 H 572.697 3.81531 -3.35256 0
M  V30 6030 H 572.627 4.89633 -1.93823 0
M  V30 6031 H 575.118 3.34507 -1.75822 0
M  V30 6032 H 575.431 6.52728 -4.13722 0
M  V30 6033 H 573.776 5.87388 -3.71484 0
M  V30 6034 H 576.967 4.10363 -2.25211 0
M  V30 6035 H 577.14 5.55486 -3.33676 0
M  V30 6036 N 570.547 0.616602 1.45037 0
M  V30 6037 C 571.494 -0.0969439 2.30596 0
M  V30 6038 C 572.464 -0.851151 1.42635 0
M  V30 6039 O 573.649 -0.835092 1.71554 0
M  V30 6040 C 570.789 -1.08234 3.27688 0
M  V30 6041 C 569.902 -0.328072 4.30752 0
M  V30 6042 C 569.037 -1.30399 5.14946 0
M  V30 6043 C 568.076 -0.538049 6.09731 0
M  V30 6044 N 567.213 -1.46371 6.86673 0
M  V30 6045 H 572.053 0.63864 2.91076 0
M  V30 6046 H 569.59 0.326733 1.43425 0
M  V30 6047 H 571.548 -1.66688 3.82454 0
M  V30 6048 H 570.178 -1.78523 2.68941 0
M  V30 6049 H 569.23 0.372136 3.78575 0
M  V30 6050 H 570.542 0.269142 4.98073 0
M  V30 6051 H 569.696 -1.96032 5.74157 0
M  V30 6052 H 568.435 -1.93514 4.47665 0
M  V30 6053 H 567.44 0.131852 5.49642 0
M  V30 6054 H 568.665 0.0881732 6.79043 0
M  V30 6055 H 566.611 -2.08233 6.22073 0
M  V30 6056 H 566.528 -0.920152 7.50379 0
M  V30 6057 H 567.796 -2.10932 7.50418 0
M  V30 6058 N 572.025 -1.5352 0.356285 0
M  V30 6059 C 572.972 -2.25439 -0.494569 0
M  V30 6060 C 573.942 -1.25752 -1.08516 0
M  V30 6061 O 575.127 -1.54513 -1.1194 0
M  V30 6062 C 572.267 -3.04011 -1.63313 0
M  V30 6063 C 571.38 -4.18574 -1.06862 0
M  V30 6064 C 570.515 -4.84607 -2.17552 0
M  V30 6065 C 569.554 -5.91218 -1.58518 0
M  V30 6066 N 568.691 -6.50979 -2.63003 0
M  V30 6067 H 573.531 -2.97737 0.125244 0
M  V30 6068 H 571.068 -1.46916 0.0735789 0
M  V30 6069 H 573.026 -3.47834 -2.30363 0
M  V30 6070 H 571.656 -2.33986 -2.22374 0
M  V30 6071 H 570.708 -3.79303 -0.288672 0
M  V30 6072 H 572.02 -4.95215 -0.596924 0
M  V30 6073 H 571.174 -5.31566 -2.92442 0
M  V30 6074 H 569.913 -4.07418 -2.6807 0
M  V30 6075 H 568.918 -5.4363 -0.821391 0
M  V30 6076 H 570.143 -6.70322 -1.08836 0
M  V30 6077 H 568.089 -5.76648 -3.12751 0
M  V30 6078 H 568.006 -7.23131 -2.20493 0
M  V30 6079 H 569.274 -7.02589 -3.37623 0
M  V30 6080 N 573.503 -0.0852151 -1.57369 0
M  V30 6081 C 574.919 0.271436 -1.57275 0
M  V30 6082 C 575.119 1.69109 -1.09565 0
M  V30 6083 O 574.175 2.40549 -0.767611 0
M  V30 6084 C 575.488 0.0688638 -3.00621 0
M  V30 6085 C 577.036 0.137373 -3.12698 0
M  V30 6086 C 577.511 -0.0370832 -4.57985 0
M  V30 6087 N 579.002 0.0180794 -4.63196 0
M  V30 6088 C 579.737 -0.0922953 -5.73326 0
M  V30 6089 N 579.233 -0.256948 -6.92323 0
M  V30 6090 N 581.026 -0.0342702 -5.6209 0
M  V30 6091 H 573.177 -1.01288 -1.86693 0
M  V30 6092 H 575.44 -0.396138 -0.861266 0
M  V30 6093 H 575.146 -0.911277 -3.39689 0
M  V30 6094 H 575.02 0.815442 -3.6828 0
M  V30 6095 H 577.407 1.10801 -2.73509 0
M  V30 6096 H 577.488 -0.640532 -2.47651 0
M  V30 6097 H 577.132 -1.00455 -4.97867 0
M  V30 6098 H 577.062 0.760392 -5.21081 0
M  V30 6099 H 579.553 0.143202 -3.77629 0
M  V30 6100 H 579.866 -0.332949 -7.72082 0
M  V30 6101 H 578.211 -0.292487 -6.94384 0
M  V30 6102 H 581.402 0.0931605 -4.68007 0
M  V30 6103 H 581.575 -0.12374 -6.47882 0
M  V30 6104 N 574.981 1.5647 0.188427 0
M  V30 6105 C 575.913 1.91611 1.25769 0
M  V30 6106 C 576.926 0.807436 1.41366 0
M  V30 6107 O 578.115 1.08586 1.41673 0
M  V30 6108 C 575.215 2.13874 2.6289 0
M  V30 6109 C 574.388 3.45047 2.68815 0
M  V30 6110 C 573.447 3.56342 3.87178 0
M  V30 6111 O 572.473 4.29109 3.73971 0
M  V30 6112 N 573.675 2.89924 5.02916 0
M  V30 6113 H 576.44 2.8393 0.959373 0
M  V30 6114 H 574.001 1.57418 0.378306 0
M  V30 6115 H 575.993 2.18713 3.4051 0
M  V30 6116 H 574.563 1.28022 2.85183 0
M  V30 6117 H 573.783 3.52017 1.77419 0
M  V30 6118 H 575.071 4.31395 2.6977 0
M  V30 6119 H 574.469 2.30644 5.16546 0
M  V30 6120 H 573.026 3.0038 5.78459 0
M  V30 6121 N 576.459 -0.456382 1.50847 0
M  V30 6122 C 577.392 -1.57177 1.65441 0
M  V30 6123 C 578.37 -1.54649 0.502224 0
M  V30 6124 O 579.554 -1.74057 0.723633 0
M  V30 6125 C 576.681 -2.95763 1.65052 0
M  V30 6126 C 575.727 -3.16389 2.86007 0
M  V30 6127 S 576.56 -2.94716 4.47105 0
M  V30 6128 C 577.716 -4.35617 4.49432 0
M  V30 6129 H 577.949 -1.44561 2.59787 0
M  V30 6130 H 575.482 -0.644758 1.40293 0
M  V30 6131 H 577.44 -3.75654 1.65512 0
M  V30 6132 H 576.101 -3.05756 0.719153 0
M  V30 6133 H 575.294 -4.17667 2.82081 0
M  V30 6134 H 574.896 -2.44293 2.8319 0
M  V30 6135 H 577.188 -5.28503 4.239 0
M  V30 6136 H 578.131 -4.44582 5.51137 0
M  V30 6137 H 578.539 -4.18382 3.78967 0
M  V30 6138 N 577.937 -1.40673 -0.710563 0
M  V30 6139 C 578.9 -1.4108 -1.80635 0
M  V30 6140 C 579.9 -0.303783 -1.57904 0
M  V30 6141 O 581.09 -0.562937 -1.64853 0
M  V30 6142 C 578.222 -1.20748 -3.18799 0
M  V30 6143 H 579.415 -2.38612 -1.81671 0
M  V30 6144 H 576.968 -1.26595 -0.916704 0
M  V30 6145 H 577.703 -0.239964 -3.23411 0
M  V30 6146 H 577.488 -2.00941 -3.36698 0
M  V30 6147 H 578.978 -1.23833 -3.98817 0
M  V30 6148 N 579.415 0.9433 -1.26252 0
M  V30 6149 C 580.378 2.02326 -1.07689 0
M  V30 6150 C 581.378 1.60779 -0.0259174 0
M  V30 6151 O 582.568 1.72108 -0.269134 0
M  V30 6152 C 579.7 3.34886 -0.63752 0
M  V30 6153 H 580.893 2.20225 -2.0357 0
M  V30 6154 H 578.446 1.12197 -1.08819 0
M  V30 6155 H 579.181 3.22684 0.323377 0
M  V30 6156 H 578.966 3.66393 -1.39637 0
M  V30 6157 H 580.456 4.14231 -0.529418 0
M  V30 6158 N 580.893 1.08022 1.14757 0
M  V30 6159 C 582.309 0.807072 1.3769 0
M  V30 6160 C 582.509 -0.585504 1.92806 0
M  V30 6161 O 581.565 -1.34301 2.13821 0
M  V30 6162 C 582.878 1.88651 2.34161 0
M  V30 6163 C 584.426 1.91206 2.47809 0
M  V30 6164 C 584.901 2.98253 3.47576 0
M  V30 6165 N 586.392 2.974 3.55117 0
M  V30 6166 C 587.127 3.76872 4.32152 0
M  V30 6167 N 586.623 4.66212 5.12463 0
M  V30 6168 N 588.416 3.6519 4.27309 0
M  V30 6169 H 580.567 1.97824 0.77326 0
M  V30 6170 H 582.83 0.85826 0.402608 0
M  V30 6171 H 582.536 2.88749 2.00791 0
M  V30 6172 H 582.41 1.75244 3.3402 0
M  V30 6173 H 584.797 0.917564 2.80472 0
M  V30 6174 H 584.878 2.08691 1.47925 0
M  V30 6175 H 584.522 3.97907 3.15646 0
M  V30 6176 H 584.452 2.78014 4.47231 0
M  V30 6177 H 586.943 2.32643 2.97801 0
M  V30 6178 H 587.256 5.23468 5.68508 0
M  V30 6179 H 585.601 4.70257 5.11745 0
M  V30 6180 H 588.792 2.94765 3.63636 0
M  V30 6181 H 588.965 4.27366 4.87095 0
M  V30 6182 N 582.371 -1.3172 0.865308 0
M  V30 6183 C 583.281 -2.32394 0.320935 0
M  V30 6184 C 584.297 -1.64511 -0.566746 0
M  V30 6185 O 585.473 -1.95969 -0.464575 0
M  V30 6186 C 582.538 -3.43462 -0.472701 0
M  V30 6187 C 581.599 -4.27015 0.442385 0
M  V30 6188 C 580.832 -5.32779 -0.313469 0
M  V30 6189 O 581.055 -5.49158 -1.54214 0
M  V30 6190 O 579.989 -6.01015 0.326257 0
M  V30 6191 H 583.815 -2.80868 1.15528 0
M  V30 6192 H 581.4 -1.35535 0.628545 0
M  V30 6193 H 583.282 -4.11172 -0.922781 0
M  V30 6194 H 581.957 -2.97159 -1.28367 0
M  V30 6195 H 580.864 -3.62075 0.940866 0
M  V30 6196 H 582.197 -4.76871 1.21882 0
M  V30 6197 N 583.85 -0.624285 -1.44708 0
M  V30 6198 C 585.266 -0.289322 -1.56956 0
M  V30 6199 C 585.466 1.20773 -1.61295 0
M  V30 6200 O 584.522 1.9915 -1.55227 0
M  V30 6201 C 585.835 -0.975215 -2.84447 0
M  V30 6202 C 587.383 -0.952709 -2.98148 0
M  V30 6203 C 587.858 -1.61893 -4.28433 0
M  V30 6204 N 589.349 -1.5852 -4.35231 0
M  V30 6205 C 590.084 -2.06969 -5.34744 0
M  V30 6206 N 589.58 -2.63579 -6.40701 0
M  V30 6207 N 591.373 -1.97638 -5.26209 0
M  V30 6208 H 583.524 -1.59612 -1.40135 0
M  V30 6209 H 585.787 -0.669592 -0.671081 0
M  V30 6210 H 585.493 -2.02999 -2.87201 0
M  V30 6211 H 585.367 -0.508749 -3.73753 0
M  V30 6212 H 587.754 0.093568 -2.94952 0
M  V30 6213 H 587.835 -1.4576 -2.10209 0
M  V30 6214 H 587.479 -2.66463 -4.32389 0
M  V30 6215 H 587.409 -1.08893 -5.15218 0
M  V30 6216 H 589.899 -1.17183 -3.59272 0
M  V30 6217 H 590.213 -2.98298 -7.12908 0
M  V30 6218 H 588.558 -2.67626 -6.41406 0
M  V30 6219 H 591.749 -1.5314 -4.42341 0
M  V30 6220 H 591.922 -2.35708 -6.03611 0
M  V30 6221 N 585.328 1.53329 -0.364422 0
M  V30 6222 C 586.275 2.25698 0.482607 0
M  V30 6223 C 587.245 1.26325 1.07848 0
M  V30 6224 O 588.43 1.55104 1.11119 0
M  V30 6225 C 585.57 3.04873 1.61699 0
M  V30 6226 C 584.683 4.19135 1.0464 0
M  V30 6227 C 583.818 4.85754 2.14979 0
M  V30 6228 C 582.857 5.9205 1.5538 0
M  V30 6229 N 581.994 6.52365 2.59547 0
M  V30 6230 H 586.834 2.97666 -0.141032 0
M  V30 6231 H 584.371 1.46875 -0.0813692 0
M  V30 6232 H 586.329 3.49051 2.28516 0
M  V30 6233 H 584.959 2.35162 2.2113 0
M  V30 6234 H 584.011 3.79451 0.268553 0
M  V30 6235 H 585.323 4.95525 0.570653 0
M  V30 6236 H 584.477 5.3311 2.89619 0
M  V30 6237 H 583.216 4.08834 2.65906 0
M  V30 6238 H 582.221 5.44058 0.792549 0
M  V30 6239 H 583.446 6.7089 1.0528 0
M  V30 6240 H 581.392 5.78298 3.09689 0
M  V30 6241 H 581.309 7.2429 2.16655 0
M  V30 6242 H 582.577 7.0437 3.33892 0
M  V30 6243 N 586.806 0.0935595 1.57322 0
M  V30 6244 C 588.052 -0.571355 1.94585 0
M  V30 6245 C 588.385 -1.67929 0.975366 0
M  V30 6246 O 587.66 -1.94498 0.00816206 0
M  V30 6247 C 587.943 -1.12797 3.41978 0
M  V30 6248 C 587.796 -0.0251881 4.49793 0
M  V30 6249 C 589.115 -2.02682 3.90651 0
M  V30 6250 H 586.234 -0.206223 0.70756 0
M  V30 6251 H 588.876 0.163956 1.89291 0
M  V30 6252 H 587.026 -1.75461 3.4662 0
M  V30 6253 H 588.698 0.608979 4.57263 0
M  V30 6254 H 586.941 0.641399 4.29032 0
M  V30 6255 H 587.612 -0.455433 5.50118 0
M  V30 6256 H 590.088 -1.49925 3.88152 0
M  V30 6257 H 588.964 -2.38555 4.94351 0
M  V30 6258 H 589.225 -2.94362 3.29854 0
M  V30 6259 N 588.284 -1.56567 -0.180126 0
M  V30 6260 C 589.512 -1.85618 -0.913972 0
M  V30 6261 C 589.927 -0.677892 -1.7621 0
M  V30 6262 O 589.284 0.353171 -1.7905 0
M  V30 6263 C 589.335 -3.13619 -1.79793 0
M  V30 6264 O 589.056 -4.26906 -0.98402 0
M  V30 6265 C 590.557 -3.55954 -2.64219 0
M  V30 6266 H 587.777 -0.616043 -0.265954 0
M  V30 6267 H 590.321 -2.03681 -0.182872 0
M  V30 6268 H 588.476 -2.97409 -2.48247 0
M  V30 6269 H 588.89 -4.9989 -1.58776 0
M  V30 6270 H 590.364 -4.48444 -3.21873 0
M  V30 6271 H 590.841 -2.79653 -3.38661 0
M  V30 6272 H 591.447 -3.74746 -2.01111 0
M  V30 6273 N 589.762 0.448376 -1.51087 0
M  V30 6274 C 591.178 0.783984 -1.39017 0
M  V30 6275 C 591.378 1.96087 -0.463904 0
M  V30 6276 O 590.434 2.52357 0.0850534 0
M  V30 6277 C 591.747 1.07471 -2.80839 0
M  V30 6278 C 593.295 1.17981 -2.89913 0
M  V30 6279 C 593.77 1.50354 -4.32617 0
M  V30 6280 N 595.261 1.57301 -4.35673 0
M  V30 6281 C 595.996 1.839 -5.4311 0
M  V30 6282 N 595.492 2.08365 -6.60724 0
M  V30 6283 N 597.285 1.8559 -5.30578 0
M  V30 6284 H 589.436 -0.326881 -2.0987 0
M  V30 6285 H 591.699 -0.0838006 -0.944289 0
M  V30 6286 H 591.405 0.282768 -3.50561 0
M  V30 6287 H 591.279 2.00519 -3.19487 0
M  V30 6288 H 593.666 1.9624 -2.20395 0
M  V30 6289 H 593.747 0.228603 -2.54776 0
M  V30 6290 H 593.391 0.726273 -5.0268 0
M  V30 6291 H 593.321 2.46663 -4.65258 0
M  V30 6292 H 595.812 1.40342 -3.50874 0
M  V30 6293 H 596.125 2.27999 -7.38401 0
M  V30 6294 H 594.47 2.0571 -6.63859 0
M  V30 6295 H 597.661 1.65989 -4.37682 0
M  V30 6296 H 597.834 2.05983 -6.1439 0
M  V30 6297 N 591.24 1.41047 0.703093 0
M  V30 6298 C 592.468 1.4334 1.49202 0
M  V30 6299 C 592.883 0.0365596 1.88765 0
M  V30 6300 O 592.24 -0.942419 1.56284 0
M  V30 6301 C 592.291 2.33538 2.75939 0
M  V30 6302 O 592.012 3.67786 2.38045 0
M  V30 6303 C 593.513 2.44555 3.6974 0
M  V30 6304 H 590.733 0.488472 0.460039 0
M  V30 6305 H 593.277 1.85245 0.86629 0
M  V30 6306 H 591.432 1.94962 3.34766 0
M  V30 6307 H 591.846 4.15816 3.19683 0
M  V30 6308 H 593.32 3.11849 4.55471 0
M  V30 6309 H 593.797 1.47447 4.1371 0
M  V30 6310 H 594.403 2.83735 3.16819 0
M  V30 6311 N 592.718 -0.936591 1.26751 0
M  V30 6312 C 593.967 -1.67778 1.11953 0
M  V30 6313 C 594.28 -1.92694 -0.33589 0
M  V30 6314 O 595.486 -2.64682 -0.604618 0
M  V30 6315 C 593.942 -3.02138 1.95551 0
M  V30 6316 C 593.55 -2.84953 3.45696 0
M  V30 6317 C 595.294 -3.79917 1.89377 0
M  V30 6318 C 593.201 -4.14814 4.21525 0
M  V30 6319 H 592.131 -0.629275 0.415366 0
M  V30 6320 H 594.782 -1.04122 1.51099 0
M  V30 6321 H 593.164 -3.668 1.49243 0
M  V30 6322 H 594.338 -2.29112 3.99805 0
M  V30 6323 H 592.653 -2.20612 3.53156 0
M  V30 6324 H 595.25 -4.76134 2.43312 0
M  V30 6325 H 595.593 -4.07204 0.865464 0
M  V30 6326 H 596.126 -3.22037 2.33532 0
M  V30 6327 H 592.865 -3.92709 5.24843 0
M  V30 6328 H 592.385 -4.70352 3.72195 0
M  V30 6329 H 594.064 -4.83239 4.3022 0
M  V30 6330 N 594.196 -1.08629 -1.14182 0
M  V30 6331 C 595.443 -0.817345 -1.85272 0
M  V30 6332 C 595.771 0.656917 -1.83071 0
M  V30 6333 O 595.026 1.49897 -1.25815 0
M  V30 6334 C 595.325 -1.28734 -3.3341 0
M  V30 6335 C 594.991 -2.76981 -3.55798 0
M  V30 6336 C 593.653 -3.17469 -3.61617 0
M  V30 6337 C 596.005 -3.72605 -3.64438 0
M  V30 6338 C 593.333 -4.52371 -3.736 0
M  V30 6339 C 595.685 -5.07286 -3.77947 0
M  V30 6340 C 594.349 -5.47376 -3.82016 0
M  V30 6341 H 593.619 -0.299088 -0.677958 0
M  V30 6342 H 596.266 -1.35962 -1.34857 0
M  V30 6343 H 594.571 -0.664702 -3.8612 0
M  V30 6344 H 596.268 -1.05598 -3.86846 0
M  V30 6345 H 592.858 -2.44644 -3.51919 0
M  V30 6346 H 597.042 -3.42443 -3.5923 0
M  V30 6347 H 592.298 -4.82882 -3.75013 0
M  V30 6348 H 596.472 -5.81243 -3.83575 0
M  V30 6349 H 594.099 -6.51906 -3.91054 0
M  V30 6350 N 595.674 1.31259 -0.872281 0
M  V30 6351 C 596.637 2.26744 -0.334656 0
M  V30 6352 C 597.637 1.52307 0.515681 0
M  V30 6353 O 598.827 1.71148 0.324656 0
M  V30 6354 C 595.959 3.36841 0.524482 0
M  V30 6355 H 597.152 2.75812 -1.17762 0
M  V30 6356 H 594.705 1.42232 -0.648064 0
M  V30 6357 H 595.44 2.93069 1.38855 0
M  V30 6358 H 595.225 3.92009 -0.0844299 0
M  V30 6359 H 596.715 4.07944 0.892838 0
M  V30 6360 N 597.152 0.631951 1.44375 0
M  V30 6361 C 598.401 0.134214 2.01253 0
M  V30 6362 C 598.714 -1.25171 1.50305 0
M  V30 6363 O 599.92 -1.8435 1.99317 0
M  V30 6364 C 598.376 0.189187 3.59402 0
M  V30 6365 C 597.984 1.57647 4.19346 0
M  V30 6366 C 599.728 -0.252044 4.23751 0
M  V30 6367 C 597.635 1.58651 5.69722 0
M  V30 6368 H 596.565 0.0464101 0.75257 0
M  V30 6369 H 599.216 0.790868 1.65582 0
M  V30 6370 H 597.598 -0.534584 3.92375 0
M  V30 6371 H 598.772 2.32389 3.97909 0
M  V30 6372 H 597.087 1.96186 3.67288 0
M  V30 6373 H 599.684 -0.264084 5.34047 0
M  V30 6374 H 600.027 -1.27951 3.96149 0
M  V30 6375 H 600.56 0.41926 3.95584 0
M  V30 6376 H 597.299 2.59237 6.0206 0
M  V30 6377 H 596.819 0.882039 5.93279 0
M  V30 6378 H 598.498 1.32082 6.33375 0
M  V30 6379 N 598.631 -1.53133 0.372548 0
M  V30 6380 C 599.561 -2.28876 -0.462412 0
M  V30 6381 C 600.542 -1.31583 -1.07796 0
M  V30 6382 O 601.727 -1.60461 -1.09389 0
M  V30 6383 C 598.857 -3.08317 -1.59868 0
M  V30 6384 C 597.811 -4.13355 -1.11003 0
M  V30 6385 C 597.137 -4.8092 -2.33708 0
M  V30 6386 C 598.437 -5.21955 -0.18983 0
M  V30 6387 H 600.131 -2.9892 0.169511 0
M  V30 6388 H 597.677 -1.43761 0.0829658 0
M  V30 6389 H 599.63 -3.60055 -2.18949 0
M  V30 6390 H 598.354 -2.35976 -2.25794 0
M  V30 6391 H 597.013 -3.62573 -0.541869 0
M  V30 6392 H 596.661 -4.05144 -2.98106 0
M  V30 6393 H 596.361 -5.51904 -2.01682 0
M  V30 6394 H 597.885 -5.35455 -2.93462 0
M  V30 6395 H 599.299 -5.69153 -0.688319 0
M  V30 6396 H 597.696 -6.00087 0.0398887 0
M  V30 6397 H 598.766 -4.78811 0.766057 0
M  V30 6398 N 600.109 -0.101901 -1.5727 0
M  V30 6399 C 601.039 0.851544 -2.17419 0
M  V30 6400 C 602.02 1.28942 -1.10941 0
M  V30 6401 O 603.205 1.35509 -1.39107 0
M  V30 6402 C 600.335 2.10816 -2.75996 0
M  V30 6403 C 599.289 1.80867 -3.87906 0
M  V30 6404 C 598.615 3.13413 -4.33216 0
M  V30 6405 C 599.915 1.0903 -5.10793 0
M  V30 6406 H 601.609 0.350381 -2.97343 0
M  V30 6407 H 599.155 0.16709 -1.43027 0
M  V30 6408 H 601.108 2.77959 -3.16729 0
M  V30 6409 H 599.832 2.63227 -1.93337 0
M  V30 6410 H 598.491 1.16119 -3.47724 0
M  V30 6411 H 598.139 3.63725 -3.47438 0
M  V30 6412 H 597.839 2.94155 -5.08671 0
M  V30 6413 H 599.363 3.81704 -4.76586 0
M  V30 6414 H 600.777 1.66295 -5.48652 0
M  V30 6415 H 599.174 0.99927 -5.91722 0
M  V30 6416 H 600.244 0.0741704 -4.84843 0
M  V30 6417 N 601.587 1.56661 0.17182 0
M  V30 6418 C 602.55 1.9549 1.19651 0
M  V30 6419 C 603.55 0.838501 1.37207 0
M  V30 6420 O 604.74 1.10556 1.34622 0
M  V30 6421 C 601.872 2.24927 2.56166 0
M  V30 6422 H 603.065 2.87184 0.864007 0
M  V30 6423 H 600.618 1.50711 0.41425 0
M  V30 6424 H 601.353 1.35944 2.94431 0
M  V30 6425 H 601.138 3.06301 2.4479 0
M  V30 6426 H 602.628 2.55891 3.30014 0
M  V30 6427 N 603.065 -0.440357 1.51323 0
M  V30 6428 C 604.312 -1.19004 1.63842 0
M  V30 6429 C 604.64 -1.91266 0.35321 0
M  V30 6430 O 603.895 -1.84143 -0.662565 0
M  V30 6431 C 604.194 -2.2339 2.78984 0
M  V30 6432 C 603.86 -1.68162 4.18369 0
M  V30 6433 C 602.522 -1.52823 4.56288 0
M  V30 6434 C 604.874 -1.27524 5.05358 0
M  V30 6435 C 602.202 -0.953157 5.78906 0
M  V30 6436 C 604.554 -0.714474 6.28552 0
M  V30 6437 C 603.218 -0.547961 6.65247 0
M  V30 6438 H 602.488 -0.435468 0.59954 0
M  V30 6439 H 605.135 -0.481538 1.85347 0
M  V30 6440 H 603.44 -3.00267 2.51688 0
M  V30 6441 H 605.137 -2.81211 2.85869 0
M  V30 6442 H 601.727 -1.81077 3.8847 0
M  V30 6443 H 605.911 -1.38197 4.76671 0
M  V30 6444 H 601.167 -0.811882 6.05986 0
M  V30 6445 H 605.341 -0.391059 6.95301 0
M  V30 6446 H 602.968 -0.100222 7.60134 0
M  V30 6447 N 604.543 -1.41418 -0.695603 0
M  V30 6448 C 605.792 -1.40073 -1.4513 0
M  V30 6449 C 606.105 -0.0130439 -1.95596 0
M  V30 6450 O 607.311 0.123032 -2.71221 0
M  V30 6451 C 605.767 -2.46286 -2.62433 0
M  V30 6452 C 605.375 -3.90962 -2.18753 0
M  V30 6453 C 607.119 -2.54077 -3.40066 0
M  V30 6454 C 605.026 -4.88728 -3.33015 0
M  V30 6455 H 603.956 -0.520903 -0.545138 0
M  V30 6456 H 606.607 -1.67242 -0.75515 0
M  V30 6457 H 604.989 -2.12248 -3.34315 0
M  V30 6458 H 606.163 -4.34248 -1.54161 0
M  V30 6459 H 604.478 -3.86831 -1.54114 0
M  V30 6460 H 607.075 -3.24303 -4.25125 0
M  V30 6461 H 607.418 -1.5776 -3.8525 0
M  V30 6462 H 607.951 -2.87206 -2.75241 0
M  V30 6463 H 604.69 -5.86449 -2.92844 0
M  V30 6464 H 604.21 -4.50091 -3.96457 0
M  V30 6465 H 605.889 -5.09483 -3.98793 0
M  V30 6466 N 606.021 0.929856 -1.27246 0
M  V30 6467 C 606.951 2.04722 -1.12299 0
M  V30 6468 C 607.932 1.70082 -0.0250464 0
M  V30 6469 O 609.117 1.93176 -0.199141 0
M  V30 6470 C 606.247 3.38721 -0.767145 0
M  V30 6471 C 605.201 3.87466 -1.81808 0
M  V30 6472 C 604.527 5.18246 -1.31626 0
M  V30 6473 C 605.827 4.11095 -3.22177 0
M  V30 6474 H 607.521 2.17485 -2.05769 0
M  V30 6475 H 605.067 1.04503 -0.990715 0
M  V30 6476 H 607.02 4.16366 -0.649413 0
M  V30 6477 H 605.744 3.25967 0.203259 0
M  V30 6478 H 604.403 3.12012 -1.92468 0
M  V30 6479 H 604.051 5.01881 -0.335378 0
M  V30 6480 H 603.751 5.51829 -2.01887 0
M  V30 6481 H 605.275 5.98462 -1.21143 0
M  V30 6482 H 606.689 4.79316 -3.1453 0
M  V30 6483 H 605.086 4.55982 -3.90129 0
M  V30 6484 H 606.156 3.16468 -3.67391 0
M  V30 6485 N 607.499 1.09233 1.13605 0
M  V30 6486 C 608.727 0.848908 1.88683 0
M  V30 6487 C 609.142 -0.599667 1.79024 0
M  V30 6488 O 608.499 -1.41265 1.15544 0
M  V30 6489 C 608.55 1.27273 3.38355 0
M  V30 6490 O 608.271 2.66449 3.47759 0
M  V30 6491 C 609.772 1.0614 4.30406 0
M  V30 6492 H 606.992 0.305549 0.597395 0
M  V30 6493 H 609.536 1.4538 1.43823 0
M  V30 6494 H 607.691 0.711776 3.80805 0
M  V30 6495 H 608.105 2.84264 4.40788 0
M  V30 6496 H 609.579 1.40725 5.33761 0
M  V30 6497 H 610.056 -0.000960332 4.392 0
M  V30 6498 H 610.662 1.60821 3.93722 0
M  V30 6499 N 608.977 -1.30795 0.87923 0
M  V30 6500 C 610.223 -1.97035 0.50487 0
M  V30 6501 C 610.578 -1.68182 -0.934484 0
M  V30 6502 O 609.871 -0.972953 -1.65058 0
M  V30 6503 C 610.065 -3.50287 0.709476 0
M  V30 6504 C 609.894 -3.94035 2.16717 0
M  V30 6505 C 608.664 -4.1992 2.81061 0
M  V30 6506 C 610.862 -4.07288 3.1404 0
M  V30 6507 N 608.844 -4.50088 4.17486 0
M  V30 6508 C 610.215 -4.41273 4.35521 0
M  V30 6509 C 612.27 -3.89696 3.09906 0
M  V30 6510 C 610.973 -4.59501 5.534 0
M  V30 6511 C 612.999 -4.09122 4.27052 0
M  V30 6512 C 612.361 -4.43447 5.47297 0
M  V30 6513 H 608.46 -0.746181 0.233962 0
M  V30 6514 H 611.044 -1.5814 1.13577 0
M  V30 6515 H 609.215 -3.8825 0.108108 0
M  V30 6516 H 610.947 -4.03567 0.302585 0
M  V30 6517 H 607.702 -4.12906 2.3196 0
M  V30 6518 H 608.126 -4.69316 4.87926 0
M  V30 6519 H 612.768 -3.62239 2.18043 0
M  V30 6520 H 610.486 -4.85802 6.45773 0
M  V30 6521 H 614.072 -3.96985 4.25316 0
M  V30 6522 H 612.952 -4.58171 6.36435 0
M  V30 6523 N 610.455 -0.639598 -1.44038 0
M  V30 6524 C 611.683 -0.154811 -2.0632 0
M  V30 6525 C 612.098 1.17406 -1.47856 0
M  V30 6526 O 611.455 1.72193 -0.604638 0
M  V30 6527 C 611.506 -0.0429958 -3.61474 0
M  V30 6528 O 611.227 -1.31932 -4.17763 0
M  V30 6529 C 612.728 0.469486 -4.40807 0
M  V30 6530 H 609.948 -0.0835862 -0.665773 0
M  V30 6531 H 612.492 -0.876397 -1.84769 0
M  V30 6532 H 610.647 0.629075 -3.82258 0
M  V30 6533 H 611.061 -1.16965 -5.11292 0
M  V30 6534 H 612.535 0.496712 -5.49761 0
M  V30 6535 H 613.012 1.49819 -4.12857 0
M  V30 6536 H 613.618 -0.169624 -4.24962 0
M  V30 6537 N 611.933 1.52934 -0.380664 0
M  V30 6538 C 613.344 1.86457 0.0952684 0
M  V30 6539 C 613.695 1.3007 1.46889 0
M  V30 6540 O 612.82 0.628636 2.07068 0
M  V30 6541 C 613.415 3.38323 0.179648 0
M  V30 6542 C 611.974 3.71589 0.599858 0
M  V30 6543 C 611.121 2.76228 -0.243572 0
M  V30 6544 H 614.072 1.46966 -0.59888 0
M  V30 6545 H 614.093 3.67113 1.00042 0
M  V30 6546 H 613.605 3.79333 -0.820228 0
M  V30 6547 H 611.706 3.36144 1.60742 0
M  V30 6548 H 611.819 4.77715 0.364003 0
M  V30 6549 H 610.183 2.53045 0.289855 0
M  V30 6550 H 610.966 3.20074 -1.24127 0
M  V30 6551 N 613.412 0.11024 1.57214 0
M  V30 6552 C 614.642 -0.557025 1.98949 0
M  V30 6553 C 615.05 -1.61317 0.988606 0
M  V30 6554 O 614.393 -1.83679 -0.0279159 0
M  V30 6555 C 614.455 -1.24956 3.37085 0
M  V30 6556 C 614.119 -0.342398 4.55716 0
M  V30 6557 C 615.116 0.415511 5.18237 0
M  V30 6558 C 612.801 -0.256029 5.01647 0
M  V30 6559 C 614.795 1.24761 6.25071 0
M  V30 6560 C 612.482 0.579713 6.08344 0
M  V30 6561 C 613.48 1.33017 6.69922 0
M  V30 6562 O 613.168 2.15205 7.74559 0
M  V30 6563 H 612.9 -0.152792 0.658506 0
M  V30 6564 H 615.454 0.19076 2.04512 0
M  V30 6565 H 613.684 -2.04424 3.2825 0
M  V30 6566 H 615.373 -1.81286 3.63167 0
M  V30 6567 H 616.139 0.358605 4.83672 0
M  V30 6568 H 612.018 -0.829831 4.5347 0
M  V30 6569 H 615.562 1.83386 6.73064 0
M  V30 6570 H 611.459 0.638044 6.42339 0
M  V30 6571 H 612.227 2.08052 7.91617 0
M  V30 6572 N 614.89 -1.56749 -0.16351 0
M  V30 6573 C 615.838 -1.97939 -1.22159 0
M  V30 6574 C 616.832 -0.869288 -1.45395 0
M  V30 6575 O 618.038 -1.05443 -1.45883 0
M  V30 6576 H 614.413 -0.629869 -0.410815 0
M  V30 6577 H 616.384 -2.86115 -0.847381 0
M  V30 6578 C 615.133 -2.36206 -2.55151 0
M  V30 6579 H 614.456 -3.2117 -2.38097 0
M  V30 6580 H 615.896 -2.68863 -3.27854 0
M  V30 6581 C 614.355 -1.20841 -3.14482 0
M  V30 6582 O 614.885 -0.500258 -3.98573 0
M  V30 6583 N 613.091 -0.976943 -2.73686 0
M  V30 6584 H 612.638 -1.55457 -2.05404 0
M  V30 6585 H 612.596 -0.206912 -3.13718 0
M  V30 6586 N 616.368 0.432326 -1.51554 0
M  V30 6587 C 617.614 1.18309 -1.64714 0
M  V30 6588 C 617.947 1.90745 -0.364696 0
M  V30 6589 O 617.222 1.8381 0.635936 0
M  V30 6590 C 617.505 2.1961 -2.85383 0
M  V30 6591 C 617.358 1.51223 -4.23617 0
M  V30 6592 C 618.677 3.20538 -3.01569 0
M  V30 6593 H 615.796 0.428751 -0.599451 0
M  V30 6594 H 618.438 0.471689 -1.84052 0
M  V30 6595 H 616.588 2.8028 -2.69027 0
M  V30 6596 H 618.26 0.938516 -4.51652 0
M  V30 6597 H 616.503 0.814501 -4.26085 0
M  V30 6598 H 617.174 2.25024 -5.04052 0
M  V30 6599 H 619.65 2.69926 -3.16669 0
M  V30 6600 H 618.526 3.88706 -3.87555 0
M  V30 6601 H 618.787 3.86933 -2.13859 0
M  V30 6602 N 617.846 1.41785 0.688094 0
M  V30 6603 C 618.779 1.38643 1.81255 0
M  V30 6604 C 619.757 0.252583 1.60626 0
M  V30 6605 O 620.941 0.440691 1.83276 0
M  V30 6606 C 618.068 1.16449 3.18053 0
M  V30 6607 C 617.114 2.32651 3.57457 0
M  V30 6608 S 617.947 3.95152 3.61407 0
M  V30 6609 C 619.103 3.75275 5.00919 0
M  V30 6610 H 619.336 2.33799 1.83644 0
M  V30 6611 H 616.869 1.28398 0.857513 0
M  V30 6612 H 618.827 1.0433 3.97021 0
M  V30 6613 H 617.488 0.229002 3.13264 0
M  V30 6614 H 616.681 2.12835 4.56856 0
M  V30 6615 H 616.283 2.41215 2.85817 0
M  V30 6616 H 618.575 3.35443 5.88629 0
M  V30 6617 H 619.518 4.74302 5.25778 0
M  V30 6618 H 619.926 3.08401 4.7281 0
M  V30 6619 N 619.324 -0.923095 1.27737 0
M  V30 6620 C 620.57 -1.67375 1.14514 0
M  V30 6621 C 620.903 -1.91751 -0.307424 0
M  V30 6622 O 620.178 -1.51119 -1.22447 0
M  V30 6623 C 620.461 -3.03745 1.9342 0
M  V30 6624 C 620.314 -2.86581 3.46686 0
M  V30 6625 C 621.633 -4.04144 1.74228 0
M  V30 6626 H 618.752 -0.607427 0.417374 0
M  V30 6627 H 621.394 -1.07089 1.56946 0
M  V30 6628 H 619.544 -3.55204 1.5736 0
M  V30 6629 H 621.216 -2.42203 3.92601 0
M  V30 6630 H 619.459 -2.21829 3.72793 0
M  V30 6631 H 620.13 -3.83381 3.97143 0
M  V30 6632 H 622.606 -3.61712 2.05678 0
M  V30 6633 H 621.482 -4.97543 2.31824 0
M  V30 6634 H 621.743 -4.36661 0.691373 0
M  V30 6635 N 620.802 -1.09834 -1.13024 0
M  V30 6636 C 621.732 -0.763451 -2.20666 0
M  V30 6637 C 622.713 0.260778 -1.68089 0
M  V30 6638 O 623.898 0.127915 -1.93778 0
M  V30 6639 C 621.028 -0.187744 -3.46792 0
M  V30 6640 C 619.982 -1.14196 -4.12484 0
M  V30 6641 C 619.308 -0.427755 -5.32986 0
M  V30 6642 C 620.608 -2.48607 -4.59338 0
M  V30 6643 H 622.302 -1.66347 -2.48936 0
M  V30 6644 H 619.848 -0.801261 -1.19649 0
M  V30 6645 H 621.801 0.0586375 -4.21359 0
M  V30 6646 H 620.525 0.747485 -3.17931 0
M  V30 6647 H 619.184 -1.37369 -3.3989 0
M  V30 6648 H 618.832 0.511747 -5.0039 0
M  V30 6649 H 618.532 -1.06403 -5.77886 0
M  V30 6650 H 620.056 -0.189772 -6.10305 0
M  V30 6651 H 621.47 -2.29618 -5.25308 0
M  V30 6652 H 619.867 -3.08062 -5.14993 0
M  V30 6653 H 620.937 -3.09062 -3.73642 0
M  V30 6654 N 622.28 1.30327 -0.886154 0
M  V30 6655 C 623.526 1.96388 -0.505941 0
M  V30 6656 C 623.859 1.69784 0.942712 0
M  V30 6657 O 623.134 1.00322 1.6663 0
M  V30 6658 C 623.417 3.51488 -0.782826 0
M  V30 6659 C 623.27 3.87603 -2.28219 0
M  V30 6660 C 624.589 4.39331 -0.260128 0
M  V30 6661 H 621.708 0.713327 -0.185292 0
M  V30 6662 H 624.35 1.54178 -1.11036 0
M  V30 6663 H 622.5 3.87572 -0.268399 0
M  V30 6664 H 624.172 3.61537 -2.86512 0
M  V30 6665 H 622.415 3.3563 -2.74837 0
M  V30 6666 H 623.086 4.95806 -2.42653 0
M  V30 6667 H 625.562 4.10162 -0.700444 0
M  V30 6668 H 624.438 5.46769 -0.483179 0
M  V30 6669 H 624.699 4.34072 0.838674 0
M  V30 6670 N 623.758 0.647228 1.43697 0
M  V30 6671 C 624.706 -0.0600105 2.32523 0
M  V30 6672 C 625.7 -0.819277 1.48271 0
M  V30 6673 O 626.906 -0.730356 1.64517 0
M  V30 6674 H 623.281 -0.0381872 0.75103 0
M  V30 6675 H 625.252 0.706978 2.89904 0
M  V30 6676 C 624.001 -1.0169 3.32497 0
M  V30 6677 H 623.324 -0.442083 3.97348 0
M  V30 6678 H 624.764 -1.48095 3.97296 0
M  V30 6679 C 623.223 -2.11002 2.6264 0
M  V30 6680 O 623.753 -3.19302 2.4374 0
M  V30 6681 N 621.959 -1.87388 2.22113 0
M  V30 6682 H 621.506 -0.993174 2.37684 0
M  V30 6683 H 621.464 -2.60723 1.75701 0
M  V30 6684 N 625.236 -1.5273 0.388769 0
M  V30 6685 C 626.464 -2.05992 -0.193677 0
M  V30 6686 C 626.879 -1.26053 -1.40557 0
M  V30 6687 O 626.236 -0.307049 -1.79898 0
M  V30 6688 C 626.287 -3.57068 -0.564321 0
M  V30 6689 O 626.008 -4.3398 0.599422 0
M  V30 6690 C 627.509 -4.26674 -1.20269 0
M  V30 6691 H 624.729 -0.670358 -0.0293445 0
M  V30 6692 H 627.273 -1.96857 0.553844 0
M  V30 6693 H 625.428 -3.66277 -1.26174 0
M  V30 6694 H 625.842 -5.2367 0.294895 0
M  V30 6695 H 627.316 -5.33625 -1.4124 0
M  V30 6696 H 627.793 -3.81854 -2.16989 0
M  V30 6697 H 628.399 -4.2178 -0.546047 0
M  V30 6698 N 626.714 -0.118576 -1.57153 0
M  V30 6699 C 627.961 0.539526 -1.9518 0
M  V30 6700 C 628.289 1.66714 -1.00184 0
M  V30 6701 O 627.544 1.95683 -0.0256482 0
M  V30 6702 C 627.843 1.11303 -3.39627 0
M  V30 6703 C 627.509 0.106809 -4.50773 0
M  V30 6704 C 626.171 -0.169876 -4.809 0
M  V30 6705 C 628.523 -0.57895 -5.17975 0
M  V30 6706 C 625.851 -1.13861 -5.75545 0
M  V30 6707 C 628.203 -1.53631 -6.13661 0
M  V30 6708 C 626.867 -1.82099 -6.42181 0
M  V30 6709 H 626.137 0.197427 -0.714215 0
M  V30 6710 H 628.784 -0.199391 -1.90459 0
M  V30 6711 H 627.089 1.92869 -3.4104 0
M  V30 6712 H 628.786 1.63032 -3.66363 0
M  V30 6713 H 625.376 0.332645 -4.27307 0
M  V30 6714 H 629.56 -0.378359 -4.94856 0
M  V30 6715 H 624.816 -1.36592 -5.95947 0
M  V30 6716 H 628.99 -2.07337 -6.64819 0
M  V30 6717 H 626.617 -2.57319 -7.15326 0
M  V30 6718 N 628.193 1.56834 0.155195 0
M  V30 6719 C 629.433 1.84701 0.875488 0
M  V30 6720 C 629.797 0.701747 1.78716 0
M  V30 6721 O 630.998 0.861263 2.54629 0
M  V30 6722 C 629.269 3.1773 1.63654 0
M  V30 6723 S 630.828 3.67128 2.40338 0
M  V30 6724 H 627.646 0.647856 0.292923 0
M  V30 6725 H 630.248 1.95026 0.136024 0
M  V30 6726 H 628.952 3.99059 0.958117 0
M  V30 6727 H 628.483 3.10388 2.41708 0
M  V30 6728 H 630.498 3.35739 3.65368 0
M  V30 6729 N 629.671 -0.424282 1.51781 0
M  V30 6730 C 630.603 -1.53457 1.70246 0
M  V30 6731 C 631.616 -1.52004 0.582967 0
M  V30 6732 O 632.805 -1.56544 0.857683 0
M  V30 6733 C 629.905 -2.92368 1.71389 0
M  V30 6734 C 629.078 -3.1818 3.00133 0
M  V30 6735 C 628.137 -4.36884 2.9329 0
M  V30 6736 O 627.163 -4.34901 3.67219 0
M  V30 6737 N 628.365 -5.4117 2.10036 0
M  V30 6738 H 631.13 -1.38017 2.66029 0
M  V30 6739 H 628.691 -0.613394 1.4983 0
M  V30 6740 H 630.683 -3.6982 1.64362 0
M  V30 6741 H 629.253 -3.0134 0.831449 0
M  V30 6742 H 628.473 -2.28908 3.20928 0
M  V30 6743 H 629.761 -3.32261 3.85331 0
M  V30 6744 H 629.159 -5.45623 1.49373 0
M  V30 6745 H 627.716 -6.17425 2.08878 0
M  V30 6746 N 631.149 -1.42148 -0.680565 0
M  V30 6747 C 632.374 -1.45901 -1.47403 0
M  V30 6748 C 632.799 -0.0700985 -1.87969 0
M  V30 6749 O 632.157 0.930145 -1.55621 0
M  V30 6750 C 632.205 -2.38661 -2.70321 0
M  V30 6751 O 631.309 -1.85399 -3.68376 0
M  V30 6752 H 630.65 -0.494565 -0.443059 0
M  V30 6753 H 633.18 -1.86774 -0.835251 0
M  V30 6754 H 633.19 -2.55046 -3.18458 0
M  V30 6755 H 631.865 -3.39571 -2.40134 0
M  V30 6756 H 630.442 -1.78541 -3.2738 0
M  V30 6757 N 632.627 0.916307 -1.28225 0
M  V30 6758 C 633.867 1.67964 -1.16479 0
M  V30 6759 C 634.231 1.8991 0.282494 0
M  V30 6760 O 635.432 2.63671 0.522607 0
M  V30 6761 C 633.703 3.00251 -1.93866 0
M  V30 6762 S 635.262 3.91353 -1.98465 0
M  V30 6763 H 632.08 0.576873 -0.415619 0
M  V30 6764 H 634.682 1.09006 -1.62289 0
M  V30 6765 H 633.386 2.81978 -2.98189 0
M  V30 6766 H 632.917 3.64257 -1.48595 0
M  V30 6767 H 634.932 4.84096 -1.0893 0
M  V30 6768 N 634.105 1.10431 1.1244 0
M  V30 6769 C 635.354 0.841539 1.83306 0
M  V30 6770 C 635.667 -0.634961 1.85007 0
M  V30 6771 O 636.873 -1.01363 2.51869 0
M  V30 6772 C 635.329 1.45565 3.29149 0
M  V30 6773 C 634.937 2.96544 3.35806 0
M  V30 6774 C 636.681 1.27227 4.04986 0
M  V30 6775 C 634.588 3.5099 4.75983 0
M  V30 6776 H 633.518 0.311156 0.686803 0
M  V30 6777 H 636.169 1.32829 1.26604 0
M  V30 6778 H 634.551 0.896574 3.85717 0
M  V30 6779 H 635.725 3.58766 2.89177 0
M  V30 6780 H 634.04 3.14036 2.73442 0
M  V30 6781 H 636.637 1.65348 5.08492 0
M  V30 6782 H 636.98 0.213834 4.1575 0
M  V30 6783 H 637.513 1.79941 3.54776 0
M  V30 6784 H 634.252 4.56499 4.70413 0
M  V30 6785 H 633.772 2.93535 5.23065 0
M  V30 6786 H 635.451 3.48808 5.44924 0
M  V30 6787 N 635.583 -1.29855 0.893053 0
M  V30 6788 C 636.994 -1.77946 0.564998 0
M  V30 6789 C 637.345 -1.73339 -0.919134 0
M  V30 6790 O 636.47 -1.3152 -1.71847 0
M  V30 6791 C 637.065 -3.23118 1.01883 0
M  V30 6792 C 635.624 -3.69013 0.742051 0
M  V30 6793 C 634.771 -2.50121 1.19727 0
M  V30 6794 H 637.722 -1.16611 1.07646 0
M  V30 6795 H 637.743 -3.78875 0.351249 0
M  V30 6796 H 637.255 -3.26439 2.09903 0
M  V30 6797 H 635.356 -3.71173 -0.325816 0
M  V30 6798 H 635.469 -4.60117 1.33527 0
M  V30 6799 H 633.833 -2.47128 0.616418 0
M  V30 6800 H 634.616 -2.56174 2.28538 0
M  V30 6801 N 637.061 -0.65484 -1.43351 0
M  V30 6802 C 638.338 -0.0987371 -1.95351 0
M  V30 6803 C 638.718 1.38161 -1.59608 0
M  V30 6804 O 638.066 2.10791 -0.882021 0
M  V30 6805 C 638.276 -0.346684 -3.47274 0
M  V30 6806 C 639.624 -0.25249 -4.23849 0
M  V30 6807 O 640.648 -0.279332 -3.55103 0
M  V30 6808 O 639.507 -0.177584 -5.46211 0
M  V30 6809 H 636.601 0.0086829 -0.826954 0
M  V30 6810 H 639.147 -0.728189 -1.53282 0
M  V30 6811 H 637.919 -1.37296 -3.66423 0
M  V30 6812 H 637.542 0.315757 -3.96344 0
M  V30 6813 N 638.539 1.52521 -0.396863 0
M  V30 6814 C 639.767 2.06091 0.18275 0
M  V30 6815 C 640.182 1.26796 1.39886 0
M  V30 6816 O 639.539 0.316585 1.79733 0
M  V30 6817 C 639.59 3.57362 0.545377 0
M  V30 6818 O 639.311 4.33656 -0.622428 0
M  V30 6819 C 640.812 4.27305 1.18004 0
M  V30 6820 H 638.032 0.670504 0.025789 0
M  V30 6821 H 640.576 1.96561 -0.564276 0
M  V30 6822 H 638.731 3.66941 1.2423 0
M  V30 6823 H 639.145 5.23507 -0.322662 0
M  V30 6824 H 640.619 5.34366 1.38408 0
M  V30 6825 H 641.096 3.83 2.1496 0
M  V30 6826 H 641.702 4.22064 0.523671 0
M  V30 6827 N 640.017 0.126909 1.57088 0
M  V30 6828 C 641.263 -0.529952 1.95753 0
M  V30 6829 C 641.596 -1.65823 1.01077 0
M  V30 6830 O 640.871 -1.94437 0.0494162 0
M  V30 6831 C 641.154 -1.05517 3.44294 0
M  V30 6832 C 641.007 0.0702253 4.49745 0
M  V30 6833 C 642.326 -1.9435 3.94862 0
M  V30 6834 H 639.445 -0.191168 0.711775 0
M  V30 6835 H 642.087 0.204071 1.88901 0
M  V30 6836 H 640.237 -1.68069 3.50264 0
M  V30 6837 H 641.909 0.705834 4.55868 0
M  V30 6838 H 640.152 0.732259 4.27575 0
M  V30 6839 H 640.823 -0.338642 5.5096 0
M  V30 6840 H 643.299 -1.41658 3.91244 0
M  V30 6841 H 642.175 -2.28015 4.993 0
M  V30 6842 H 642.436 -2.87299 3.36024 0
M  V30 6843 N 641.495 -1.56914 -0.146875 0
M  V30 6844 C 642.741 -1.84515 -0.855914 0
M  V30 6845 C 643.096 -0.710909 -1.78784 0
M  V30 6846 O 642.389 0.291123 -1.89375 0
M  V30 6847 C 642.583 -3.16128 -1.66727 0
M  V30 6848 C 642.412 -4.42246 -0.815405 0
M  V30 6849 C 641.182 -5.03006 -0.480976 0
M  V30 6850 C 643.38 -5.14094 -0.145684 0
M  V30 6851 N 641.362 -6.12695 0.384476 0
M  V30 6852 C 642.733 -6.17282 0.579902 0
M  V30 6853 C 644.788 -4.97856 -0.0663705 0
M  V30 6854 C 643.491 -7.0599 1.37731 0
M  V30 6855 C 645.517 -5.87028 0.71778 0
M  V30 6856 C 644.879 -6.89698 1.43165 0
M  V30 6857 H 640.978 -0.725829 -0.291026 0
M  V30 6858 H 643.562 -1.94322 -0.121279 0
M  V30 6859 H 641.733 -3.07468 -2.37315 0
M  V30 6860 H 643.465 -3.31635 -2.31949 0
M  V30 6861 H 640.22 -4.66504 -0.816789 0
M  V30 6862 H 640.644 -6.72158 0.80823 0
M  V30 6863 H 645.286 -4.18465 -0.603929 0
M  V30 6864 H 643.004 -7.84809 1.92613 0
M  V30 6865 H 646.59 -5.76532 0.781141 0
M  V30 6866 H 645.47 -7.57505 2.02868 0
M  V30 6867 N 642.974 0.416227 -1.52004 0
M  V30 6868 C 644.199 1.19029 -1.69843 0
M  V30 6869 C 644.624 1.83708 -0.404103 0
M  V30 6870 O 643.982 1.69711 0.637787 0
M  V30 6871 C 644.03 2.23439 -2.83032 0
M  V30 6872 O 643.134 3.29419 -2.48106 0
M  V30 6873 H 642.475 0.347785 -0.565634 0
M  V30 6874 H 645.005 0.488871 -1.98674 0
M  V30 6875 H 645.015 2.67884 -3.07737 0
M  V30 6876 H 643.69 1.75745 -3.76944 0
M  V30 6877 H 642.267 2.90303 -2.34048 0
M  V30 6878 N 644.452 1.42507 0.673017 0
M  V30 6879 C 645.701 1.42364 1.42883 0
M  V30 6880 C 646.014 0.0441598 1.9555 0
M  V30 6881 O 647.22 -0.0798679 2.71382 0
M  V30 6882 C 645.676 2.5043 2.58482 0
M  V30 6883 C 645.284 3.94392 2.12506 0
M  V30 6884 C 647.028 2.59455 3.35981 0
M  V30 6885 C 644.935 4.93964 3.25198 0
M  V30 6886 H 643.865 0.52951 0.536782 0
M  V30 6887 H 646.516 1.68422 0.728448 0
M  V30 6888 H 644.898 2.1754 3.30896 0
M  V30 6889 H 646.072 4.36645 1.47233 0
M  V30 6890 H 644.387 3.89233 1.4794 0
M  V30 6891 H 646.984 3.31025 4.19912 0
M  V30 6892 H 647.327 1.63869 3.82691 0
M  V30 6893 H 647.86 2.91549 2.70637 0
M  V30 6894 H 644.599 5.91034 2.83477 0
M  V30 6895 H 644.119 4.56341 3.89247 0
M  V30 6896 H 645.798 5.15763 3.90637 0
M  V30 6897 N 645.93 -0.909495 1.28709 0
M  V30 6898 C 647.178 -1.65577 1.15882 0
M  V30 6899 C 647.499 -1.928 -0.292108 0
M  V30 6900 O 646.769 -1.54716 -1.20166 0
M  V30 6901 H 645.349 -0.613714 0.425869 0
M  V30 6902 H 648.011 -1.09108 1.61498 0
M  V30 6903 H 647.107 -2.61634 1.70159 0
M  V30 6904 N 647.408 -1.11026 -1.11852 0
M  V30 6905 C 648.638 -0.877544 -1.87037 0
M  V30 6906 C 649.046 0.575925 -1.80221 0
M  V30 6907 O 648.389 1.40916 -1.17849 0
M  V30 6908 C 648.451 -1.25529 -3.36872 0
M  V30 6909 C 648.115 -2.71704 -3.67459 0
M  V30 6910 C 649.112 -3.69931 -3.65304 0
M  V30 6911 C 646.797 -3.08243 -3.966 0
M  V30 6912 C 648.791 -5.02717 -3.9186 0
M  V30 6913 C 646.478 -4.41215 -4.22815 0
M  V30 6914 C 647.476 -5.38262 -4.20432 0
M  V30 6915 O 647.164 -6.68839 -4.45992 0
M  V30 6916 H 646.896 -0.314374 -0.598452 0
M  V30 6917 H 649.45 -1.48015 -1.42411 0
M  V30 6918 H 647.68 -0.595808 -3.82082 0
M  V30 6919 H 649.369 -0.999064 -3.93413 0
M  V30 6920 H 650.135 -3.43047 -3.42846 0
M  V30 6921 H 646.014 -2.33326 -3.97593 0
M  V30 6922 H 649.558 -5.78456 -3.89916 0
M  V30 6923 H 645.455 -4.67835 -4.44748 0
M  V30 6924 H 646.223 -6.74563 -4.63581 0
M  V30 6925 N 648.886 1.2938 -0.899927 0
M  V30 6926 C 650.132 1.96206 -0.536153 0
M  V30 6927 C 650.487 1.69647 0.90761 0
M  V30 6928 O 649.78 0.999089 1.63489 0
M  V30 6929 C 649.974 3.49114 -0.765113 0
M  V30 6930 C 649.803 3.90538 -2.22958 0
M  V30 6931 C 648.573 4.15395 -2.87706 0
M  V30 6932 C 650.771 4.0224 -3.20479 0
M  V30 6933 N 648.753 4.43389 -4.24593 0
M  V30 6934 C 650.124 4.34288 -4.42486 0
M  V30 6935 C 652.179 3.84716 -3.16066 0
M  V30 6936 C 650.882 4.50638 -5.6064 0
M  V30 6937 C 652.908 4.02276 -4.33507 0
M  V30 6938 C 652.27 4.34684 -5.54283 0
M  V30 6939 H 648.369 0.742364 -0.245804 0
M  V30 6940 H 650.953 1.56314 -1.16078 0
M  V30 6941 H 649.124 3.88028 -0.169861 0
M  V30 6942 H 650.856 4.03035 -0.366751 0
M  V30 6943 H 647.611 4.09164 -2.385 0
M  V30 6944 H 648.035 4.61494 -4.95331 0
M  V30 6945 H 652.677 3.58724 -2.23778 0
M  V30 6946 H 650.395 4.75467 -6.5342 0
M  V30 6947 H 653.981 3.90169 -4.31578 0
M  V30 6948 H 652.861 4.47988 -6.43643 0
M  V30 6949 N 650.364 0.662433 1.43002 0
M  V30 6950 C 651.294 -0.00979809 2.33498 0
M  V30 6951 C 652.275 -0.802329 1.49989 0
M  V30 6952 O 653.46 -0.761964 1.78627 0
M  V30 6953 C 650.59 -0.970446 3.33466 0
M  V30 6954 C 649.544 -0.287383 4.27034 0
M  V30 6955 C 648.87 -1.36012 5.17112 0
M  V30 6956 C 650.17 0.82595 5.15728 0
M  V30 6957 H 651.864 0.745959 2.89958 0
M  V30 6958 H 649.41 0.360172 1.39423 0
M  V30 6959 H 651.363 -1.44971 3.95679 0
M  V30 6960 H 650.087 -1.75748 2.75282 0
M  V30 6961 H 648.746 0.17152 3.66199 0
M  V30 6962 H 648.394 -2.13882 4.55262 0
M  V30 6963 H 648.094 -0.908276 5.80538 0
M  V30 6964 H 649.618 -1.84056 5.82199 0
M  V30 6965 H 651.032 0.42845 5.71697 0
M  V30 6966 H 649.429 1.20282 5.87922 0
M  V30 6967 H 650.499 1.68003 4.54866 0
M  V30 6968 N 651.842 -1.52309 0.404946 0
M  V30 6969 C 653.082 -2.03677 -0.171779 0
M  V30 6970 C 653.446 -1.28419 -1.42733 0
M  V30 6971 O 654.647 -1.69991 -2.08222 0
M  V30 6972 C 652.918 -3.54951 -0.417701 0
M  V30 6973 S 654.477 -4.28114 -0.962472 0
M  V30 6974 H 651.295 -0.709445 -0.0469912 0
M  V30 6975 H 653.897 -1.874 0.556901 0
M  V30 6976 H 652.601 -4.07306 0.50295 0
M  V30 6977 H 652.132 -3.75462 -1.17437 0
M  V30 6978 H 654.147 -4.42589 -2.24342 0
M  V30 6979 N 653.32 -0.135238 -1.57019 0
M  V30 6980 C 654.55 0.525303 -1.9981 0
M  V30 6981 C 654.958 1.59724 -1.01415 0
M  V30 6982 O 654.301 1.837 -0.00130938 0
M  V30 6983 C 654.363 1.19578 -3.3903 0
M  V30 6984 C 654.027 0.269855 -4.56203 0
M  V30 6985 C 655.024 -0.497905 -5.1751 0
M  V30 6986 C 652.709 0.176188 -5.01991 0
M  V30 6987 C 654.703 -1.3469 -6.23007 0
M  V30 6988 C 652.39 -0.676422 -6.07345 0
M  V30 6989 C 653.388 -1.43658 -6.67721 0
M  V30 6990 O 653.076 -2.27501 -7.71037 0
M  V30 6991 H 652.808 0.142296 -0.660854 0
M  V30 6992 H 655.362 -0.223272 -2.04183 0
M  V30 6993 H 653.592 1.99176 -3.3146 0
M  V30 6994 H 655.281 1.75486 -3.66005 0
M  V30 6995 H 656.047 -0.435507 -4.83041 0
M  V30 6996 H 651.926 0.757583 -4.54733 0
M  V30 6997 H 655.47 -1.9407 -6.70062 0
M  V30 6998 H 651.367 -0.740154 -6.41243 0
M  V30 6999 H 652.135 -2.20619 -7.88206 0
M  V30 7000 N 654.798 1.5699 0.138552 0
M  V30 7001 C 656.044 1.84081 0.85099 0
M  V30 7002 C 656.377 0.718107 1.80435 0
M  V30 7003 O 655.652 -0.277633 1.92508 0
M  V30 7004 C 655.935 3.21699 1.61808 0
M  V30 7005 C 655.788 4.44544 0.685633 0
M  V30 7006 C 657.107 3.5664 2.57868 0
M  V30 7007 H 654.226 0.669592 0.307922 0
M  V30 7008 H 656.868 1.89646 0.11588 0
M  V30 7009 H 655.018 3.17086 2.24474 0
M  V30 7010 H 656.69 4.61248 0.0693179 0
M  V30 7011 H 654.933 4.338 -0.00421993 0
M  V30 7012 H 655.604 5.3746 1.25858 0
M  V30 7013 H 658.08 3.61918 2.05316 0
M  V30 7014 H 656.956 4.53946 3.08584 0
M  V30 7015 H 657.217 2.83036 3.39622 0
M  V30 7016 N 656.276 -0.40816 1.52223 0
M  V30 7017 C 657.224 -1.51788 1.76248 0
M  V30 7018 C 658.218 -1.57264 0.629638 0
M  V30 7019 O 659.424 -1.60659 0.811704 0
M  V30 7020 H 655.799 -0.504823 0.557367 0
M  V30 7021 H 657.77 -1.2871 2.69214 0
M  V30 7022 C 656.519 -2.89145 1.93107 0
M  V30 7023 H 655.842 -2.85674 2.79697 0
M  V30 7024 H 657.282 -3.66082 2.13916 0
M  V30 7025 C 655.741 -3.29581 0.698431 0
M  V30 7026 O 656.271 -4.01479 -0.133238 0
M  V30 7027 N 654.477 -2.85651 0.53405 0
M  V30 7028 H 654.024 -2.2731 1.21194 0
M  V30 7029 H 653.982 -3.13065 -0.289387 0
M  V30 7030 N 657.755 -1.42862 -0.66545 0
M  V30 7031 C 658.98 -1.47456 -1.45848 0
M  V30 7032 C 659.405 -0.0900312 -1.87884 0
M  V30 7033 O 658.763 0.913587 -1.56599 0
M  V30 7034 C 658.811 -2.41514 -2.67774 0
M  V30 7035 O 657.915 -1.89296 -3.66389 0
M  V30 7036 H 657.256 -0.499236 -0.437789 0
M  V30 7037 H 659.786 -1.8765 -0.815394 0
M  V30 7038 H 659.796 -2.58409 -3.15735 0
M  V30 7039 H 658.471 -3.42099 -2.36519 0
M  V30 7040 H 657.048 -1.82003 -3.25468 0
M  V30 7041 N 659.233 0.902656 -1.29189 0
M  V30 7042 C 660.461 1.68639 -1.19869 0
M  V30 7043 C 660.876 1.87254 0.241121 0
M  V30 7044 O 660.233 1.40745 1.16177 0
M  V30 7045 C 660.284 3.07251 -1.90471 0
M  V30 7046 O 660.005 2.89488 -3.28829 0
M  V30 7047 C 661.506 4.01653 -1.8759 0
M  V30 7048 H 658.726 0.526802 -0.415596 0
M  V30 7049 H 661.27 1.12901 -1.7051 0
M  V30 7050 H 659.425 3.59774 -1.43672 0
M  V30 7051 H 659.839 3.77296 -3.64346 0
M  V30 7052 H 661.313 4.96339 -2.4156 0
M  V30 7053 H 661.79 4.30881 -0.850756 0
M  V30 7054 H 662.396 3.55061 -2.34119 0
M  V30 7055 N 660.711 1.11618 1.11262 0
M  V30 7056 C 661.96 0.860934 1.82403 0
M  V30 7057 C 662.273 -0.615303 1.8567 0
M  V30 7058 O 663.479 -0.986861 2.52929 0
M  V30 7059 C 661.935 1.49048 3.27586 0
M  V30 7060 C 661.543 3.00089 3.32642 0
M  V30 7061 C 663.287 1.31515 4.03614 0
M  V30 7062 C 661.194 3.56019 4.72234 0
M  V30 7063 H 660.124 0.318423 0.683464 0
M  V30 7064 H 662.775 1.34165 1.25188 0
M  V30 7065 H 661.157 0.937434 3.84744 0
M  V30 7066 H 662.331 3.61813 2.85356 0
M  V30 7067 H 660.646 3.16919 2.70096 0
M  V30 7068 H 663.243 1.70732 5.0671 0
M  V30 7069 H 663.586 0.257917 4.155 0
M  V30 7070 H 664.119 1.83694 3.52848 0
M  V30 7071 H 660.858 4.61463 4.65545 0
M  V30 7072 H 660.378 2.99066 5.19923 0
M  V30 7073 H 662.057 3.54568 5.41193 0
M  V30 7074 N 662.189 -1.289 0.906776 0
M  V30 7075 C 663.137 -2.29477 0.379873 0
M  V30 7076 C 664.131 -1.61068 -0.524747 0
M  V30 7077 O 665.337 -1.75344 -0.406765 0
M  V30 7078 H 661.712 -0.744742 0.10423 0
M  V30 7079 H 663.683 -2.71353 1.24137 0
M  V30 7080 C 662.432 -3.45713 -0.371154 0
M  V30 7081 H 661.755 -3.98551 0.315716 0
M  V30 7082 H 663.195 -4.18105 -0.704581 0
M  V30 7083 C 661.654 -2.9774 -1.57646 0
M  V30 7084 O 662.184 -2.99618 -2.67567 0
M  V30 7085 N 660.39 -2.53485 -1.42105 0
M  V30 7086 H 659.937 -2.52156 -0.526783 0
M  V30 7087 H 659.895 -2.21747 -2.22881 0
M  V30 7088 N 663.667 -0.670007 -1.42649 0
M  V30 7089 C 665.078 -0.268118 -1.84765 0
M  V30 7090 C 665.429 1.18877 -1.56086 0
M  V30 7091 O 664.554 1.90947 -1.01825 0
M  V30 7092 C 665.149 -0.47984 -3.35385 0
M  V30 7093 C 663.708 -0.132116 -3.76168 0
M  V30 7094 C 662.855 -0.774611 -2.66261 0
M  V30 7095 H 665.806 -0.872509 -1.32563 0
M  V30 7096 H 665.827 0.269522 -3.79544 0
M  V30 7097 H 665.339 -1.54026 -3.56227 0
M  V30 7098 H 663.44 0.92505 -3.60934 0
M  V30 7099 H 663.553 -0.569294 -4.75706 0
M  V30 7100 H 661.917 -0.206353 -2.53863 0
M  V30 7101 H 662.7 -1.83839 -2.89928 0
M  V30 7102 N 665.145 1.52092 -0.413018 0
M  V30 7103 C 666.108 2.25706 0.398687 0
M  V30 7104 C 667.108 1.28221 0.970368 0
M  V30 7105 O 668.298 1.52131 0.848635 0
M  V30 7106 C 665.43 3.03029 1.5616 0
M  V30 7107 H 666.623 2.98888 -0.246131 0
M  V30 7108 H 664.176 1.5542 -0.165622 0
M  V30 7109 H 664.911 2.34205 2.24317 0
M  V30 7110 H 664.696 3.74606 1.15812 0
M  V30 7111 H 666.186 3.58857 2.13569 0
M  V30 7112 N 666.623 0.143563 1.56945 0
M  V30 7113 C 667.863 -0.511198 1.97904 0
M  V30 7114 C 668.227 -1.62262 1.0264 0
M  V30 7115 O 669.428 -2.338 1.32631 0
M  V30 7116 C 667.699 -1.00753 3.42905 0
M  V30 7117 S 669.258 -1.66737 4.05887 0
M  V30 7118 H 666.076 -0.165399 0.691494 0
M  V30 7119 H 668.678 0.234464 1.94089 0
M  V30 7120 H 667.382 -0.187817 4.0997 0
M  V30 7121 H 666.913 -1.7879 3.50425 0
M  V30 7122 H 668.928 -2.95444 3.98657 0
M  V30 7123 N 668.101 -1.57061 -0.130224 0
M  V30 7124 C 669.331 -1.88159 -0.853217 0
M  V30 7125 C 669.739 -0.731675 -1.7448 0
M  V30 7126 O 669.082 0.307035 -1.81116 0
M  V30 7127 C 669.144 -3.1415 -1.74785 0
M  V30 7128 C 668.808 -4.45202 -1.03173 0
M  V30 7129 C 669.805 -5.18526 -0.377759 0
M  V30 7130 C 667.49 -4.91912 -1.01624 0
M  V30 7131 C 669.484 -6.36775 0.282123 0
M  V30 7132 C 667.171 -6.10082 -0.352555 0
M  V30 7133 C 668.169 -6.82361 0.295483 0
M  V30 7134 O 667.857 -7.98284 0.948606 0
M  V30 7135 H 667.589 -0.627596 -0.251197 0
M  V30 7136 H 670.143 -2.05034 -0.1226 0
M  V30 7137 H 668.373 -2.93328 -2.51983 0
M  V30 7138 H 670.062 -3.31359 -2.34427 0
M  V30 7139 H 670.828 -4.83498 -0.381417 0
M  V30 7140 H 666.707 -4.35566 -1.51007 0
M  V30 7141 H 670.251 -6.93129 0.788525 0
M  V30 7142 H 666.148 -6.44569 -0.346621 0
M  V30 7143 H 666.916 -8.14054 0.851954 0
M  V30 7144 N 669.579 0.400081 -1.52437 0
M  V30 7145 C 670.542 1.4707 -1.75793 0
M  V30 7146 C 671.542 1.48036 -0.627856 0
M  V30 7147 O 672.732 1.49401 -0.895817 0
M  V30 7148 C 669.864 2.86427 -1.84858 0
M  V30 7149 H 671.057 1.27649 -2.71377 0
M  V30 7150 H 668.61 0.631141 -1.42991 0
M  V30 7151 H 669.345 3.11207 -0.912194 0
M  V30 7152 H 669.13 2.87128 -2.6702 0
M  V30 7153 H 670.62 3.64023 -2.04638 0
M  V30 7154 N 671.057 1.43213 0.657864 0
M  V30 7155 C 671.987 1.50815 1.78262 0
M  V30 7156 C 672.968 0.363211 1.66177 0
M  V30 7157 O 674.153 0.579806 1.85343 0
M  V30 7158 C 671.283 1.42625 3.16663 0
M  V30 7159 C 670.237 2.5532 3.43505 0
M  V30 7160 C 669.563 2.32184 4.81658 0
M  V30 7161 C 670.863 3.97583 3.38711 0
M  V30 7162 H 672.557 2.44954 1.72157 0
M  V30 7163 H 670.103 1.17896 0.82683 0
M  V30 7164 H 672.056 1.46548 3.95097 0
M  V30 7165 H 670.78 0.449877 3.23487 0
M  V30 7166 H 669.439 2.50742 2.6744 0
M  V30 7167 H 669.087 1.32801 4.85153 0
M  V30 7168 H 668.787 3.07724 5.00579 0
M  V30 7169 H 670.311 2.37883 5.62356 0
M  V30 7170 H 671.725 4.03673 4.07089 0
M  V30 7171 H 670.122 4.73112 3.69168 0
M  V30 7172 H 671.192 4.23049 2.36976 0
M  V30 7173 N 672.536 -0.895792 1.29666 0
M  V30 7174 C 673.776 -1.6609 1.19136 0
M  V30 7175 C 674.14 -1.90336 -0.252245 0
M  V30 7176 O 675.341 -2.64469 -0.480593 0
M  V30 7177 C 673.612 -2.97129 1.98618 0
M  V30 7178 S 675.171 -3.88146 2.04666 0
M  V30 7179 H 671.989 -0.570188 0.424744 0
M  V30 7180 H 674.591 -1.06411 1.64003 0
M  V30 7181 H 673.295 -2.77199 3.02637 0
M  V30 7182 H 672.826 -3.61847 1.54371 0
M  V30 7183 H 674.841 -4.82301 1.16618 0
M  V30 7184 N 674.014 -1.12206 -1.10668 0
M  V30 7185 C 674.962 -0.782918 -2.19028 0
M  V30 7186 C 675.956 0.229175 -1.67843 0
M  V30 7187 O 677.162 0.0876295 -1.79787 0
M  V30 7188 H 673.537 -0.235339 -0.714227 0
M  V30 7189 H 675.508 -1.70527 -2.44874 0
M  V30 7190 C 674.257 -0.25116 -3.46792 0
M  V30 7191 H 673.58 -1.02123 -3.86537 0
M  V30 7192 H 675.02 -0.0521409 -4.23968 0
M  V30 7193 C 673.479 1.02037 -3.21076 0
M  V30 7194 O 674.009 2.09862 -3.42522 0
M  V30 7195 N 672.215 0.946348 -2.74759 0
M  V30 7196 H 671.762 0.068777 -2.57508 0
M  V30 7197 H 671.72 1.79775 -2.57931 0
M  V30 7198 N 675.492 1.28418 -0.913599 0
M  V30 7199 C 676.455 2.25564 -0.406624 0
M  V30 7200 C 677.455 1.5387 0.466965 0
M  V30 7201 O 678.645 1.72094 0.270042 0
M  V30 7202 C 675.777 3.38339 0.417053 0
M  V30 7203 H 676.97 2.71926 -1.26477 0
M  V30 7204 H 674.523 1.40098 -0.692986 0
M  V30 7205 H 675.258 2.97339 1.29461 0
M  V30 7206 H 675.043 3.91542 -0.209102 0
M  V30 7207 H 676.533 4.10578 0.762602 0
M  V30 7208 N 676.97 0.677563 1.42291 0
M  V30 7209 C 678.198 0.209459 2.05837 0
M  V30 7210 C 678.613 -1.13444 1.50917 0
M  V30 7211 O 677.97 -1.70529 0.65008 0
M  V30 7212 C 678.021 0.138819 3.61233 0
M  V30 7213 O 677.742 1.42962 4.14118 0
M  V30 7214 C 679.243 -0.352449 4.41897 0
M  V30 7215 H 676.463 0.101209 0.663323 0
M  V30 7216 H 679.007 0.925077 1.8238 0
M  V30 7217 H 677.162 -0.527505 3.83792 0
M  V30 7218 H 677.576 1.3048 5.08011 0
M  V30 7219 H 679.05 -0.350778 5.50884 0
M  V30 7220 H 679.527 -1.3882 4.16684 0
M  V30 7221 H 680.133 0.282236 4.24362 0
M  V30 7222 N 678.448 -1.51871 0.421078 0
M  V30 7223 C 679.695 -2.01938 -0.15079 0
M  V30 7224 C 680.023 -1.30611 -1.44121 0
M  V30 7225 O 679.278 -0.404631 -1.91471 0
M  V30 7226 C 679.577 -3.54764 -0.433292 0
M  V30 7227 C 679.243 -4.44288 0.76936 0
M  V30 7228 C 677.905 -4.68477 1.09921 0
M  V30 7229 C 680.257 -4.96915 1.57242 0
M  V30 7230 C 677.585 -5.4254 2.2331 0
M  V30 7231 C 679.937 -5.7222 2.69716 0
M  V30 7232 C 678.601 -5.94678 3.03174 0
M  V30 7233 H 677.871 -0.738943 -0.0551781 0
M  V30 7234 H 680.518 -1.82977 0.564945 0
M  V30 7235 H 678.823 -3.71968 -1.23074 0
M  V30 7236 H 680.52 -3.91023 -0.888922 0
M  V30 7237 H 677.11 -4.25646 0.502305 0
M  V30 7238 H 681.294 -4.78125 1.3308 0
M  V30 7239 H 676.55 -5.58146 2.49565 0
M  V30 7240 H 680.724 -6.11992 3.32323 0
M  V30 7241 H 678.351 -6.51848 3.9115 0
M  V30 7242 N 679.926 -0.151884 -1.56866 0
M  V30 7243 C 680.873 0.785936 -2.17006 0
M  V30 7244 C 681.843 1.2407 -1.10435 0
M  V30 7245 O 683.028 1.31235 -1.38499 0
M  V30 7246 C 680.168 2.01771 -2.79969 0
M  V30 7247 C 679.281 1.6083 -4.00946 0
M  V30 7248 C 678.416 2.79224 -4.51893 0
M  V30 7249 C 677.455 2.3468 -5.65324 0
M  V30 7250 N 676.592 3.461 -6.10867 0
M  V30 7251 H 681.432 0.266286 -2.96808 0
M  V30 7252 H 678.969 0.11972 -1.46612 0
M  V30 7253 H 680.927 2.73989 -3.14621 0
M  V30 7254 H 679.557 2.51139 -2.02803 0
M  V30 7255 H 678.609 0.783592 -3.72242 0
M  V30 7256 H 679.921 1.24119 -4.83111 0
M  V30 7257 H 679.075 3.59625 -4.88625 0
M  V30 7258 H 677.814 3.19183 -3.68746 0
M  V30 7259 H 676.819 1.52721 -5.28163 0
M  V30 7260 H 678.044 1.95801 -6.5026 0
M  V30 7261 H 675.99 3.85671 -5.30654 0
M  V30 7262 H 675.907 3.1342 -6.87971 0
M  V30 7263 H 677.175 4.26844 -6.52246 0
M  V30 7264 N 681.404 1.57128 0.121893 0
M  V30 7265 C 682.351 2.0013 1.14964 0
M  V30 7266 C 683.321 0.872959 1.4131 0
M  V30 7267 O 684.506 1.13696 1.53225 0
M  V30 7268 C 681.646 2.40824 2.4718 0
M  V30 7269 C 680.759 3.67061 2.27794 0
M  V30 7270 C 679.894 3.96749 3.53219 0
M  V30 7271 C 678.933 5.16178 3.28978 0
M  V30 7272 N 678.07 5.41751 4.46599 0
M  V30 7273 H 682.91 2.8772 0.775947 0
M  V30 7274 H 680.447 1.42328 0.371652 0
M  V30 7275 H 682.405 2.62454 3.24305 0
M  V30 7276 H 681.035 1.56279 2.82448 0
M  V30 7277 H 680.087 3.53063 1.416 0
M  V30 7278 H 681.399 4.5434 2.05857 0
M  V30 7279 H 680.553 4.19012 4.38764 0
M  V30 7280 H 679.292 3.07941 3.78185 0
M  V30 7281 H 678.297 4.93762 2.41824 0
M  V30 7282 H 679.522 6.06561 3.05386 0
M  V30 7283 H 677.468 4.55899 4.71691 0
M  V30 7284 H 677.385 6.23347 4.27756 0
M  V30 7285 H 678.653 5.68531 5.33285 0
M  V30 7286 N 682.882 -0.391992 1.52647 0
M  V30 7287 C 684.11 -1.1586 1.71418 0
M  V30 7288 C 684.525 -1.8381 0.431216 0
M  V30 7289 O 683.882 -1.7256 -0.594085 0
M  V30 7290 C 683.933 -2.20888 2.86165 0
M  V30 7291 O 683.654 -1.5571 4.09495 0
M  V30 7292 C 685.155 -3.103 3.1659 0
M  V30 7293 H 682.375 -0.347494 0.574011 0
M  V30 7294 H 684.919 -0.458972 1.99283 0
M  V30 7295 H 683.074 -2.86492 2.6077 0
M  V30 7296 H 683.488 -2.25474 4.73563 0
M  V30 7297 H 684.962 -3.8003 4.00351 0
M  V30 7298 H 685.439 -3.73639 2.30848 0
M  V30 7299 H 686.045 -2.50345 3.43813 0
M  V30 7300 N 684.36 -1.4356 -0.65026 0
M  V30 7301 C 685.607 -1.45333 -1.41012 0
M  V30 7302 C 685.935 -0.0787282 -1.94341 0
M  V30 7303 O 685.19 0.916715 -1.72901 0
M  V30 7304 C 685.489 -2.44528 -2.60654 0
M  V30 7305 C 685.155 -3.90331 -2.25727 0
M  V30 7306 C 683.817 -4.3004 -2.15914 0
M  V30 7307 C 686.169 -4.822 -1.97821 0
M  V30 7308 C 683.497 -5.59568 -1.76354 0
M  V30 7309 C 685.849 -6.12095 -1.59759 0
M  V30 7310 C 684.513 -6.50778 -1.48473 0
M  V30 7311 H 683.783 -0.531813 -0.516 0
M  V30 7312 H 686.43 -1.76657 -0.739219 0
M  V30 7313 H 684.735 -2.06619 -3.3289 0
M  V30 7314 H 686.432 -2.43155 -3.18868 0
M  V30 7315 H 683.022 -3.58905 -2.34276 0
M  V30 7316 H 687.206 -4.5229 -2.04322 0
M  V30 7317 H 682.462 -5.88376 -1.66205 0
M  V30 7318 H 686.636 -6.82751 -1.37198 0
M  V30 7319 H 684.263 -7.5105 -1.17591 0
M  V30 7320 N 685.838 0.888903 -1.30139 0
M  V30 7321 C 687.254 1.17153 -1.08385 0
M  V30 7322 C 687.454 2.0088 0.157925 0
M  V30 7323 O 686.51 2.37668 0.852652 0
M  V30 7324 C 687.823 1.882 -2.34523 0
M  V30 7325 C 689.371 2.00981 -2.39949 0
M  V30 7326 C 689.846 2.75441 -3.65918 0
M  V30 7327 N 691.337 2.82989 -3.66704 0
M  V30 7328 C 692.072 3.41167 -4.60861 0
M  V30 7329 N 691.568 4.00425 -5.6536 0
M  V30 7330 N 693.361 3.38944 -4.48412 0
M  V30 7331 H 685.512 0.33053 -2.09812 0
M  V30 7332 H 687.775 0.208964 -0.924683 0
M  V30 7333 H 687.481 1.34119 -3.25123 0
M  V30 7334 H 687.355 2.88609 -2.42868 0
M  V30 7335 H 689.742 2.54234 -1.4983 0
M  V30 7336 H 689.823 0.996725 -2.35582 0
M  V30 7337 H 689.467 2.22861 -4.56394 0
M  V30 7338 H 689.397 3.77118 -3.67546 0
M  V30 7339 H 691.888 2.40912 -2.91153 0
M  V30 7340 H 692.201 4.42871 -6.33313 0
M  V30 7341 H 690.546 3.98856 -5.69157 0
M  V30 7342 H 693.737 2.91875 -3.6596 0
M  V30 7343 H 693.91 3.83989 -5.21974 0
M  V30 7344 N 687.317 1.12792 1.10072 0
M  V30 7345 C 688.267 0.768086 2.14673 0
M  V30 7346 C 689.251 -0.234716 1.59179 0
M  V30 7347 O 690.443 -0.039643 1.76956 0
M  V30 7348 C 687.572 0.228472 3.42539 0
M  V30 7349 C 686.658 1.25979 4.04957 0
M  V30 7350 N 687.049 2.4586 4.42025 0
M  V30 7351 C 685.347 1.10602 4.32069 0
M  V30 7352 C 686.048 3.11747 4.9111 0
M  V30 7353 N 685.024 2.39185 4.88151 0
M  V30 7354 H 688.826 1.68029 2.4113 0
M  V30 7355 H 686.34 1.00925 1.27232 0
M  V30 7356 H 688.337 -0.0475216 4.16873 0
M  V30 7357 H 686.997 -0.678136 3.1754 0
M  V30 7358 H 688.008 2.83215 4.33601 0
M  V30 7359 H 684.685 0.257021 4.16708 0
M  V30 7360 H 686.075 4.13862 5.29309 0
M  V30 7361 N 688.795 -1.27931 0.920396 0
M  V30 7362 C 689.725 -2.29487 0.431024 0
M  V30 7363 C 690.706 -1.62435 -0.504861 0
M  V30 7364 O 691.891 -1.89797 -0.411176 0
M  V30 7365 C 689.021 -3.45788 -0.323709 0
M  V30 7366 C 687.975 -4.24784 0.523658 0
M  V30 7367 C 687.301 -5.33488 -0.359809 0
M  V30 7368 C 688.601 -4.90874 1.78437 0
M  V30 7369 H 690.295 -2.70671 1.27975 0
M  V30 7370 H 687.841 -1.30121 0.616813 0
M  V30 7371 H 689.794 -4.15927 -0.676952 0
M  V30 7372 H 688.518 -3.03502 -1.2064 0
M  V30 7373 H 687.177 -3.56382 0.85951 0
M  V30 7374 H 686.825 -4.87445 -1.24124 0
M  V30 7375 H 686.525 -5.87247 0.203605 0
M  V30 7376 H 688.049 -6.06472 -0.708787 0
M  V30 7377 H 689.463 -5.53339 1.49963 0
M  V30 7378 H 687.86 -5.54659 2.29071 0
M  V30 7379 H 688.93 -4.14988 2.50824 0
M  V30 7380 N 690.273 -0.685099 -1.4193 0
M  V30 7381 C 691.203 -0.0273506 -2.33484 0
M  V30 7382 C 692.184 0.778366 -1.51246 0
M  V30 7383 O 693.369 0.733449 -1.79817 0
M  V30 7384 C 690.499 0.917272 -3.34968 0
M  V30 7385 C 689.453 0.21941 -4.27437 0
M  V30 7386 C 688.779 1.27768 -5.1921 0
M  V30 7387 C 690.079 -0.907894 -5.14349 0
M  V30 7388 H 691.773 -0.791994 -2.88735 0
M  V30 7389 H 689.319 -0.382308 -1.38832 0
M  V30 7390 H 691.272 1.38657 -3.97935 0
M  V30 7391 H 689.996 1.71346 -2.78043 0
M  V30 7392 H 688.655 -0.229757 -3.65879 0
M  V30 7393 H 688.303 2.06612 -4.58607 0
M  V30 7394 H 688.003 0.815803 -5.81909 0
M  V30 7395 H 689.527 1.7477 -5.85054 0
M  V30 7396 H 690.941 -0.519348 -5.70943 0
M  V30 7397 H 689.338 -1.2962 -5.85934 0
M  V30 7398 H 690.408 -1.75218 -4.52136 0
M  V30 7399 N 691.751 1.51645 -0.429126 0
M  V30 7400 C 692.681 2.30434 0.377148 0
M  V30 7401 C 693.662 1.35493 1.02838 0
M  V30 7402 O 694.847 1.6441 1.03359 0
M  V30 7403 C 691.977 3.14038 1.48315 0
M  V30 7404 C 690.931 4.1719 0.955855 0
M  V30 7405 C 690.257 4.89263 2.15698 0
M  V30 7406 C 691.557 5.223 -0.00402136 0
M  V30 7407 H 693.251 2.98085 -0.280336 0
M  V30 7408 H 690.797 1.43354 -0.136265 0
M  V30 7409 H 692.75 3.67933 2.05435 0
M  V30 7410 H 691.474 2.44193 2.16881 0
M  V30 7411 H 690.133 3.64335 0.406929 0
M  V30 7412 H 689.781 4.15929 2.82864 0
M  V30 7413 H 689.481 5.59009 1.81059 0
M  V30 7414 H 691.005 5.45978 2.73387 0
M  V30 7415 H 692.419 5.71315 0.476607 0
M  V30 7416 H 690.816 5.99525 -0.26258 0
M  V30 7417 H 691.886 4.75638 -0.943236 0
M  V30 7418 N 693.229 0.160201 1.56784 0
M  V30 7419 C 694.469 -0.490179 1.98435 0
M  V30 7420 C 694.833 -1.61164 1.04355 0
M  V30 7421 O 696.034 -2.3238 1.35103 0
M  V30 7422 C 694.305 -0.971106 3.43954 0
M  V30 7423 S 695.864 -1.62423 4.07632 0
M  V30 7424 H 692.682 -0.158056 0.693209 0
M  V30 7425 H 695.284 0.255036 1.93829 0
M  V30 7426 H 693.988 -0.144323 4.10146 0
M  V30 7427 H 693.519 -1.75063 3.52302 0
M  V30 7428 H 695.534 -2.91199 4.01768 0
M  V30 7429 N 694.707 -1.5719 -0.113559 0
M  V30 7430 C 695.639 -1.97393 -1.16484 0
M  V30 7431 C 696.652 -0.873964 -1.37352 0
M  V30 7432 O 697.841 -1.15222 -1.36331 0
M  V30 7433 C 694.941 -2.26174 -2.52386 0
M  V30 7434 C 694.114 -3.57479 -2.52046 0
M  V30 7435 C 693.173 -3.74409 -3.69735 0
M  V30 7436 O 692.199 -4.46463 -3.53071 0
M  V30 7437 N 693.401 -3.13588 -4.88511 0
M  V30 7438 H 696.166 -2.88184 -0.822814 0
M  V30 7439 H 693.727 -1.59044 -0.302769 0
M  V30 7440 H 695.719 -2.3471 -3.29687 0
M  V30 7441 H 694.289 -1.41483 -2.7875 0
M  V30 7442 H 693.509 -3.60081 -1.60421 0
M  V30 7443 H 694.797 -4.43775 -2.48881 0
M  V30 7444 H 694.195 -2.55026 -5.04953 0
M  V30 7445 H 692.752 -3.27637 -5.63469 0
M  V30 7446 N 696.185 0.383891 -1.52853 0
M  V30 7447 C 697.415 1.14783 -1.7178 0
M  V30 7448 C 697.823 1.84055 -0.438211 0
M  V30 7449 O 697.166 1.73713 0.597465 0
M  V30 7450 C 697.228 2.23543 -2.81547 0
M  V30 7451 C 696.892 1.74195 -4.22499 0
M  V30 7452 C 697.889 1.21591 -5.05481 0
M  V30 7453 C 695.574 1.80262 -4.6884 0
M  V30 7454 C 697.568 0.757104 -6.32888 0
M  V30 7455 C 695.255 1.33993 -5.96229 0
M  V30 7456 C 696.253 0.818049 -6.78083 0
M  V30 7457 O 695.941 0.362123 -8.03084 0
M  V30 7458 H 695.673 0.349908 -0.578395 0
M  V30 7459 H 698.227 0.454377 -2.00311 0
M  V30 7460 H 696.457 2.96328 -2.48449 0
M  V30 7461 H 698.146 2.8519 -2.88828 0
M  V30 7462 H 698.912 1.16257 -4.7086 0
M  V30 7463 H 694.791 2.19825 -4.05213 0
M  V30 7464 H 698.335 0.34908 -6.96726 0
M  V30 7465 H 694.232 1.39015 -6.30353 0
M  V30 7466 H 695 0.483134 -8.17073 0
M  V30 7467 N 697.663 1.43903 0.642637 0
M  V30 7468 C 699.079 1.27536 0.959519 0
M  V30 7469 C 699.279 0.202751 2.00477 0
M  V30 7470 O 698.335 -0.415256 2.49062 0
M  V30 7471 C 699.648 2.6432 1.43372 0
M  V30 7472 C 701.196 2.71937 1.54981 0
M  V30 7473 C 701.671 4.09164 2.05789 0
M  V30 7474 N 703.162 4.11282 2.13076 0
M  V30 7475 C 703.897 5.14303 2.53534 0
M  V30 7476 N 703.393 6.27693 2.93212 0
M  V30 7477 N 705.186 5.01657 2.53567 0
M  V30 7478 H 697.337 2.12344 -0.0488376 0
M  V30 7479 H 699.6 0.947124 0.0407559 0
M  V30 7480 H 699.306 3.43826 0.740048 0
M  V30 7481 H 699.18 2.90432 2.40685 0
M  V30 7482 H 701.567 1.92757 2.23448 0
M  V30 7483 H 701.648 2.49578 0.560739 0
M  V30 7484 H 701.292 4.88815 1.37921 0
M  V30 7485 H 701.222 4.28893 3.05546 0
M  V30 7486 H 703.713 3.2944 1.85143 0
M  V30 7487 H 704.026 7.02125 3.22863 0
M  V30 7488 H 702.371 6.31149 2.90991 0
M  V30 7489 H 705.562 4.12134 2.21952 0
M  V30 7490 H 705.735 5.82072 2.84774 0
M  V30 7491 N 699.141 -0.881989 1.30609 0
M  V30 7492 C 700.089 -2.00942 1.17155 0
M  V30 7493 C 701.083 -1.69198 0.0827154 0
M  V30 7494 O 702.289 -1.78342 0.243775 0
M  V30 7495 H 698.664 -0.658913 0.362406 0
M  V30 7496 H 700.635 -2.09423 2.12567 0
M  V30 7497 C 699.384 -3.36294 0.883273 0
M  V30 7498 H 698.707 -3.61233 1.7132 0
M  V30 7499 H 700.147 -4.15812 0.829255 0
M  V30 7500 C 698.606 -3.34348 -0.413851 0
M  V30 7501 O 699.136 -3.75216 -1.43444 0
M  V30 7502 N 697.342 -2.87459 -0.426082 0
M  V30 7503 H 696.889 -2.54397 0.40493 0
M  V30 7504 H 696.847 -2.8654 -1.29391 0
M  V30 7505 N 700.619 -1.13374 -1.09472 0
M  V30 7506 C 701.868 -0.889844 -1.8101 0
M  V30 7507 C 702.181 0.585686 -1.86625 0
M  V30 7508 O 703.387 0.946497 -2.54467 0
M  V30 7509 C 701.843 -1.54241 -3.25174 0
M  V30 7510 C 701.451 -3.05343 -3.27826 0
M  V30 7511 C 703.195 -1.37919 -4.0147 0
M  V30 7512 C 701.102 -3.63486 -4.6651 0
M  V30 7513 H 700.032 -0.329256 -0.678311 0
M  V30 7514 H 702.683 -1.36139 -1.23038 0
M  V30 7515 H 701.065 -0.998525 -3.83204 0
M  V30 7516 H 702.239 -3.66307 -2.79563 0
M  V30 7517 H 700.554 -3.21175 -2.65019 0
M  V30 7518 H 703.151 -1.78771 -5.03929 0
M  V30 7519 H 703.494 -0.323987 -4.15037 0
M  V30 7520 H 704.027 -1.89284 -3.49881 0
M  V30 7521 H 700.766 -4.68811 -4.58145 0
M  V30 7522 H 700.286 -3.073 -5.15099 0
M  V30 7523 H 701.965 -3.63134 -5.35484 0
M  V30 7524 N 702.098 1.27442 -0.927168 0
M  V30 7525 C 703.346 1.94007 -0.566203 0
M  V30 7526 C 703.667 1.7323 0.895345 0
M  V30 7527 O 702.937 1.07973 1.63459 0
M  V30 7528 H 701.517 0.717917 -0.206409 0
M  V30 7529 H 704.179 1.55161 -1.17945 0
M  V30 7530 H 703.275 3.02401 -0.772028 0
M  V30 7531 N 703.576 0.692616 1.41565 0
M  V30 7532 C 704.804 0.231279 2.05603 0
M  V30 7533 C 705.219 -1.11837 1.52111 0
M  V30 7534 O 704.576 -1.6983 0.66813 0
M  V30 7535 C 704.627 0.177125 3.61066 0
M  V30 7536 O 704.348 1.47346 4.12578 0
M  V30 7537 C 705.849 -0.30556 4.42246 0
M  V30 7538 H 703.069 0.108238 0.662213 0
M  V30 7539 H 705.613 0.944369 1.81389 0
M  V30 7540 H 703.768 -0.486769 3.8433 0
M  V30 7541 H 704.182 1.35861 5.06599 0
M  V30 7542 H 705.656 -0.29233 5.51225 0
M  V30 7543 H 706.133 -1.34393 4.18133 0
M  V30 7544 H 706.739 0.327229 4.24039 0
M  V30 7545 N 705.054 -1.51416 0.437162 0
M  V30 7546 C 706.017 -2.26312 -0.362729 0
M  V30 7547 C 707.017 -1.29748 -0.949847 0
M  V30 7548 O 708.207 -1.53462 -0.824325 0
M  V30 7549 C 705.339 -3.05475 -1.5132 0
M  V30 7550 H 706.532 -2.98459 0.29365 0
M  V30 7551 H 704.085 -1.55137 0.190327 0
M  V30 7552 H 704.82 -2.37744 -2.20563 0
M  V30 7553 H 704.605 -3.76401 -1.09838 0
M  V30 7554 H 706.095 -3.62209 -2.07833 0
M  V30 7555 N 706.532 -0.168513 -1.56696 0
M  V30 7556 C 707.948 0.187686 -1.58493 0
M  V30 7557 C 708.148 1.63063 -1.18375 0
M  V30 7558 O 707.204 2.36142 -0.894042 0
M  V30 7559 C 708.517 -0.0905858 -3.00564 0
M  V30 7560 C 710.065 -0.028575 -3.12987 0
M  V30 7561 C 710.54 -0.279799 -4.57145 0
M  V30 7562 N 712.031 -0.227476 -4.62641 0
M  V30 7563 C 712.766 -0.396073 -5.7203 0
M  V30 7564 N 712.262 -0.623572 -6.89988 0
M  V30 7565 N 714.055 -0.332173 -5.61118 0
M  V30 7566 H 706.206 -1.11042 -1.81062 0
M  V30 7567 H 708.469 -0.441235 -0.839056 0
M  V30 7568 H 708.175 -1.09006 -3.34381 0
M  V30 7569 H 708.049 0.619078 -3.72085 0
M  V30 7570 H 710.436 0.961471 -2.78998 0
M  V30 7571 H 710.517 -0.770905 -2.43907 0
M  V30 7572 H 710.161 -1.26704 -4.91842 0
M  V30 7573 H 710.091 0.48311 -5.24379 0
M  V30 7574 H 712.582 -0.0571723 -3.77857 0
M  V30 7575 H 712.895 -0.741745 -7.69232 0
M  V30 7576 H 711.24 -0.660153 -6.91858 0
M  V30 7577 H 714.431 -0.155051 -4.67843 0
M  V30 7578 H 714.604 -0.466994 -6.46315 0
M  V30 7579 O 708.049 1.61471 -0.0305634 0
M  V30 7580 H 708.74 1.84756 0.581805 0
M  V30 END ATOM
M  V30 BEGIN BOND
M  V30 END BOND
M  V30 END CTAB
M  END
$$$$
