drugbank_target|P33527 Multidrug resistance-associated protein 1 (DB00171; DB01138; DB04851; DB06176; DB08855)
 OpenBabel12092119403D

  0  0  0     0  0            999 V3000
M  V30 BEGIN CTAB
M  V30 COUNTS 24340 24607 0 0 0
M  V30 BEGIN ATOM
M  V30 1 H -0.908 1.98254 -0.117106 0
M  V30 2 N 0 1.576 0 0
M  V30 3 C 0.933 2.03868 1.02534 0
M  V30 4 C 1.911 0.928543 1.3348 0
M  V30 5 O 3.095 1.19667 1.45644 0
M  V30 6 C 0.222 2.43627 2.35294 0
M  V30 7 C -0.732 3.65373 2.2001 0
M  V30 8 S 0.101 5.13292 1.52614 0
M  V30 9 C 1.257 5.56322 2.86805 0
M  V30 10 H 1.49 2.90518 0.631377 0
M  V30 11 H -0.977 1.52953 0.210867 0
M  V30 12 H 0.981 2.67203 3.11629 0
M  V30 13 H -0.358 1.57376 2.7183 0
M  V30 14 H -1.165 3.90944 3.18086 0
M  V30 15 H -1.563 3.418 1.51819 0
M  V30 16 H 0.729 5.58782 3.83104 0
M  V30 17 H 1.672 6.56266 2.65933 0
M  V30 18 H 2.08 4.83886 2.90714 0
M  V30 19 N 1.4781 -0.272755 1.55222 0
M  V30 20 C 2.4411 -1.32041 1.87344 0
M  V30 21 C 3.4411 -1.42342 0.74803 0
M  V30 22 O 4.6311 -1.41488 1.0162 0
M  V30 23 C 1.7631 -2.70173 2.07893 0
M  V30 24 H 2.9561 -1.04789 2.80997 0
M  V30 25 H 0.5091 -0.51083 1.47717 0
M  V30 26 H 1.2441 -3.02605 1.16622 0
M  V30 27 H 1.0291 -2.64082 2.89833 0
M  V30 28 H 2.5191 -3.45869 2.34017 0
M  V30 29 N 2.9562 -1.48159 -0.537278 0
M  V30 30 C 3.8862 -1.65029 -1.6519 0
M  V30 31 C 4.8672 -0.499281 -1.62607 0
M  V30 32 O 6.0522 -0.730972 -1.79918 0
M  V30 33 C 3.1822 -1.68303 -3.03795 0
M  V30 34 C 2.1362 -2.8283 -3.21234 0
M  V30 35 C 1.4622 -2.71189 -4.60826 0
M  V30 36 C 2.7622 -4.24211 -3.04701 0
M  V30 37 H 4.4562 -2.58341 -1.51328 0
M  V30 38 H 2.0022 -1.24325 -0.726585 0
M  V30 39 H 3.9552 -1.78693 -3.81637 0
M  V30 40 H 2.6792 -0.715635 -3.18663 0
M  V30 41 H 1.3382 -2.71983 -2.45807 0
M  V30 42 H 0.9862 -1.72435 -4.7252 0
M  V30 43 H 0.6862 -3.48035 -4.7344 0
M  V30 44 H 2.2102 -2.83537 -5.40777 0
M  V30 45 H 3.6242 -4.3593 -3.72341 0
M  V30 46 H 2.0212 -5.01998 -3.28813 0
M  V30 47 H 3.0912 -4.41184 -2.01209 0
M  V30 48 N 4.4343 0.785586 -1.36625 0
M  V30 49 C 5.8503 1.08419 -1.17122 0
M  V30 50 C 6.0503 2.015 0.00208491 0
M  V30 51 O 5.1063 2.43551 0.666278 0
M  V30 52 C 6.4193 1.69498 -2.48377 0
M  V30 53 C 7.9673 1.81821 -2.54775 0
M  V30 54 C 8.4423 2.46315 -3.86126 0
M  V30 55 N 9.9333 2.53779 -3.87492 0
M  V30 56 C 10.6683 3.045 -4.85868 0
M  V30 57 N 10.1643 3.55499 -5.94637 0
M  V30 58 N 11.9573 3.03247 -4.73284 0
M  V30 59 H 4.1083 0.167264 -2.1174 0
M  V30 60 H 6.3713 0.13682 -0.938075 0
M  V30 61 H 6.0773 1.08571 -3.34522 0
M  V30 62 H 5.9513 2.6896 -2.64462 0
M  V30 63 H 8.3383 2.41884 -1.69045 0
M  V30 64 H 8.4193 0.811532 -2.42586 0
M  V30 65 H 8.0633 1.86895 -4.72263 0
M  V30 66 H 7.9933 3.47561 -3.95612 0
M  V30 67 H 10.4843 2.17672 -3.08913 0
M  V30 68 H 10.7973 3.92562 -6.65669 0
M  V30 69 H 9.1423 3.5364 -5.98301 0
M  V30 70 H 12.3333 2.62696 -3.87438 0
M  V30 71 H 12.5063 3.42467 -5.50109 0
M  V30 72 N 5.9124 1.20967 1.01018 0
M  V30 73 C 7.1604 1.02172 1.74371 0
M  V30 74 C 7.4814 -0.446414 1.89821 0
M  V30 75 O 6.7514 -1.32234 1.44537 0
M  V30 76 H 5.3314 0.375066 0.646014 0
M  V30 77 H 7.9934 1.52187 1.21758 0
M  V30 78 H 7.0894 1.48538 2.74487 0
M  V30 79 N 7.3905 -1.2043 1.01659 0
M  V30 80 C 8.6375 -1.89797 0.705917 0
M  V30 81 C 8.9655 -1.78848 -0.764439 0
M  V30 82 O 8.2205 -1.16694 -1.57102 0
M  V30 83 C 8.5195 -3.40464 1.08714 0
M  V30 84 C 8.1855 -3.71614 2.5537 0
M  V30 85 C 6.8475 -3.79826 2.95441 0
M  V30 86 C 9.1995 -3.85915 3.50313 0
M  V30 87 C 6.5275 -3.99797 4.29394 0
M  V30 88 C 8.8795 -4.07396 4.83954 0
M  V30 89 C 7.5435 -4.13837 5.23732 0
M  V30 90 H 6.8135 -0.694518 0.258313 0
M  V30 91 H 9.4605 -1.42691 1.27717 0
M  V30 92 H 7.7655 -3.89385 0.434309 0
M  V30 93 H 9.4625 -3.92433 0.824461 0
M  V30 94 H 6.0525 -3.65822 2.23321 0
M  V30 95 H 10.2365 -3.78926 3.20513 0
M  V30 96 H 5.4925 -4.03018 4.59768 0
M  V30 97 H 9.6665 -4.17404 5.57447 0
M  V30 98 H 7.2935 -4.29064 6.27541 0
M  V30 99 N 8.8686 -0.792821 -1.36206 0
M  V30 100 C 10.1086 -0.372238 -2.00982 0
M  V30 101 C 10.4726 1.03749 -1.61555 0
M  V30 102 O 11.6736 1.55934 -2.18948 0
M  V30 103 C 9.9446 -0.534566 -3.5338 0
M  V30 104 S 11.5036 -0.202365 -4.38333 0
M  V30 105 H 8.3216 -0.142044 -0.696667 0
M  V30 106 H 10.9236 -1.03206 -1.66039 0
M  V30 107 H 9.6276 -1.5608 -3.79562 0
M  V30 108 H 9.1586 0.141065 -3.93147 0
M  V30 109 H 11.1736 0.994869 -4.86124 0
M  V30 110 N 10.3467 1.47872 -0.545128 0
M  V30 111 C 11.5717 2.07391 -0.0190611 0
M  V30 112 C 11.9967 1.39688 1.25971 0
M  V30 113 O 11.3547 0.467816 1.7516 0
M  V30 114 C 11.4027 3.60188 0.172335 0
M  V30 115 O 10.5067 3.9339 1.23766 0
M  V30 116 H 9.8477 0.662411 -0.0459059 0
M  V30 117 H 12.3777 1.90066 -0.757365 0
M  V30 118 H 12.3877 4.06129 0.390305 0
M  V30 119 H 11.0627 4.08865 -0.761725 0
M  V30 120 H 9.6397 3.5921 1.00114 0
M  V30 121 N 11.8248 0.280983 1.55075 0
M  V30 122 C 12.7878 -0.590896 2.21452 0
M  V30 123 C 13.7878 -1.07682 1.19421 0
M  V30 124 O 14.9778 -0.97605 1.44288 0
M  V30 125 C 12.1098 -1.81587 2.88511 0
M  V30 126 H 13.3028 -0.0112554 2.99898 0
M  V30 127 H 10.8558 0.0316438 1.56268 0
M  V30 128 H 11.5908 -2.43587 2.14093 0
M  V30 129 H 11.3758 -1.4753 3.63287 0
M  V30 130 H 12.8658 -2.43575 3.39206 0
M  V30 131 N 13.3029 -1.57598 0.00835791 0
M  V30 132 C 14.5799 -1.82172 -0.712235 0
M  V30 133 C 14.9599 -0.887873 -1.9152 0
M  V30 134 O 14.3079 0.06146 -2.28417 0
M  V30 135 C 14.5179 -3.30875 -1.11008 0
M  V30 136 C 15.8659 -3.96826 -1.51044 0
M  V30 137 O 16.8899 -3.35248 -1.20364 0
M  V30 138 O 15.7489 -5.05318 -2.08125 0
M  V30 139 H 12.8429 -0.750435 -0.347529 0
M  V30 140 H 15.3889 -1.69665 0.0344523 0
M  V30 141 H 14.1609 -3.90481 -0.252982 0
M  V30 142 H 13.7839 -3.48412 -1.9156 0
M  V30 143 N 14.781 0.264519 -1.55364 0
M  V30 144 C 16.029 0.993021 -1.76021 0
M  V30 145 C 16.35 1.86511 -0.569099 0
M  V30 146 O 15.62 1.91438 0.415735 0
M  V30 147 H 14.2 0.369639 -0.649135 0
M  V30 148 H 16.862 0.286707 -1.9278 0
M  V30 149 H 15.958 1.62502 -2.66457 0
M  V30 150 N 16.2591 1.48442 0.529413 0
M  V30 151 C 17.4841 1.60406 1.31471 0
M  V30 152 C 17.9091 0.264738 1.86228 0
M  V30 153 O 17.2671 -0.763668 1.64432 0
M  V30 154 C 17.3151 2.65419 2.44101 0
M  V30 155 O 16.4191 2.22618 3.47153 0
M  V30 156 H 15.7601 0.537863 0.389357 0
M  V30 157 H 18.2901 1.94432 0.636965 0
M  V30 158 H 18.3001 2.86709 2.90279 0
M  V30 159 H 16.9751 3.62652 2.03608 0
M  V30 160 H 15.5521 2.11543 3.0709 0
M  V30 161 N 17.7372 -0.778329 1.37039 0
M  V30 162 C 19.0142 -1.52551 1.22424 0
M  V30 163 C 19.3942 -2.10288 -0.184964 0
M  V30 164 O 18.7422 -1.94953 -1.19187 0
M  V30 165 C 18.9522 -2.61164 2.31504 0
M  V30 166 C 20.3002 -3.28746 2.68721 0
M  V30 167 O 21.3242 -2.71455 2.30631 0
M  V30 168 O 20.1832 -4.3231 3.3432 0
M  V30 169 H 17.2772 -0.675343 0.477326 0
M  V30 170 H 19.8232 -0.815859 1.48801 0
M  V30 171 H 18.5952 -2.16574 3.25901 0
M  V30 172 H 18.2182 -3.39737 2.06554 0
M  V30 173 N 19.2153 -1.21501 -1.00376 0
M  V30 174 C 20.6263 -1.03146 -1.55621 0
M  V30 175 C 20.9773 0.408375 -1.91903 0
M  V30 176 O 20.1023 1.29177 -1.73616 0
M  V30 177 C 20.6973 -1.86612 -2.82775 0
M  V30 178 C 19.2563 -1.72586 -3.34501 0
M  V30 179 C 18.4033 -1.83747 -2.07683 0
M  V30 180 H 21.3543 -1.35505 -0.826081 0
M  V30 181 H 21.3753 -1.3771 -3.54706 0
M  V30 182 H 20.8873 -2.91399 -2.56336 0
M  V30 183 H 18.9883 -0.704877 -3.65872 0
M  V30 184 H 19.1013 -2.54623 -4.05837 0
M  V30 185 H 17.4653 -1.27069 -2.20739 0
M  V30 186 H 18.2483 -2.90044 -1.83655 0
M  V30 187 N 20.6934 1.19889 -1.02296 0
M  V30 188 C 21.6234 2.25141 -0.619174 0
M  V30 189 C 22.6044 1.66051 0.368915 0
M  V30 190 O 23.7894 1.92546 0.252941 0
M  V30 191 C 20.9194 3.4728 0.0368783 0
M  V30 192 C 19.8734 4.19005 -0.872865 0
M  V30 193 C 19.1994 5.34637 -0.0822402 0
M  V30 194 C 20.4994 4.74452 -2.18387 0
M  V30 195 H 22.1934 2.59171 -1.49903 0
M  V30 196 H 19.7394 1.24579 -0.722222 0
M  V30 197 H 21.6924 4.20098 0.330958 0
M  V30 198 H 20.4164 3.12433 0.95149 0
M  V30 199 H 19.0754 3.48061 -1.15105 0
M  V30 200 H 18.7234 4.96034 0.83422 0
M  V30 201 H 18.4234 5.83557 -0.688149 0
M  V30 202 H 19.9474 6.10255 0.205238 0
M  V30 203 H 21.3614 5.39055 -1.95172 0
M  V30 204 H 19.7584 5.33834 -2.74119 0
M  V30 205 H 20.8284 3.92844 -2.84257 0
M  V30 206 N 22.1715 0.800033 1.35784 0
M  V30 207 C 23.4175 0.38701 1.99684 0
M  V30 208 C 23.7725 -1.03268 1.62338 0
M  V30 209 O 23.0655 -1.70543 0.87325 0
M  V30 210 C 23.2595 0.500276 3.53881 0
M  V30 211 C 23.0885 1.92942 4.06206 0
M  V30 212 C 21.8585 2.55637 4.35865 0
M  V30 213 C 24.0565 2.89307 4.25213 0
M  V30 214 N 22.0385 3.9003 4.74078 0
M  V30 215 C 23.4095 4.08556 4.66349 0
M  V30 216 C 25.4645 2.86225 4.07406 0
M  V30 217 C 24.1675 5.25146 4.91543 0
M  V30 218 C 26.1935 4.02011 4.33752 0
M  V30 219 C 25.5555 5.20007 4.75155 0
M  V30 220 H 21.6545 0.189252 0.758754 0
M  V30 221 H 24.2385 1.03988 1.64604 0
M  V30 222 H 22.4095 -0.122568 3.88207 0
M  V30 223 H 24.1415 0.0624733 4.04652 0
M  V30 224 H 20.8965 2.07039 4.25948 0
M  V30 225 H 21.3205 4.59205 4.97454 0
M  V30 226 H 25.9625 1.96154 3.74544 0
M  V30 227 H 23.6805 6.15794 5.23281 0
M  V30 228 H 27.2665 4.00999 4.21534 0
M  V30 229 H 26.1465 6.08113 4.95145 0
M  V30 230 N 23.6496 -1.47581 0.552962 0
M  V30 231 C 24.9266 -1.95563 -0.0381515 0
M  V30 232 C 25.3066 -1.49552 -1.48988 0
M  V30 233 O 24.6546 -0.732414 -2.16444 0
M  V30 234 C 24.8646 -3.48848 0.102919 0
M  V30 235 C 26.2126 -4.24577 -0.0446082 0
M  V30 236 O 27.2366 -3.56187 0.0302548 0
M  V30 237 O 26.0956 -5.46116 -0.204923 0
M  V30 238 H 23.1896 -0.824321 -0.0665067 0
M  V30 239 H 25.7356 -1.58001 0.619186 0
M  V30 240 H 24.5076 -3.75129 1.11328 0
M  V30 241 H 24.1306 -3.93165 -0.592224 0
M  V30 242 N 25.1277 -0.289203 -1.54924 0
M  V30 243 C 26.3737 0.316922 -2.00916 0
M  V30 244 C 26.7287 1.52424 -1.17408 0
M  V30 245 O 26.0217 1.90097 -0.239536 0
M  V30 246 C 26.2157 0.736119 -3.49737 0
M  V30 247 C 26.0447 -0.429036 -4.47649 0
M  V30 248 C 24.8147 -0.917311 -4.96904 0
M  V30 249 C 27.0127 -1.27016 -4.98369 0
M  V30 250 N 24.9947 -2.05046 -5.78644 0
M  V30 251 C 26.3657 -2.25097 -5.77695 0
M  V30 252 C 28.4207 -1.30188 -4.80578 0
M  V30 253 C 27.1237 -3.26114 -6.41126 0
M  V30 254 C 29.1497 -2.30057 -5.44819 0
M  V30 255 C 28.5117 -3.2687 -6.23968 0
M  V30 256 H 24.6107 0.0807535 -0.777819 0
M  V30 257 H 27.1947 -0.416434 -1.90194 0
M  V30 258 H 25.3657 1.43867 -3.60773 0
M  V30 259 H 27.0977 1.32078 -3.82541 0
M  V30 260 H 23.8527 -0.494248 -4.71014 0
M  V30 261 H 24.2767 -2.62108 -6.24202 0
M  V30 262 H 28.9187 -0.567163 -4.18979 0
M  V30 263 H 26.6367 -4.00512 -7.01866 0
M  V30 264 H 30.2227 -2.33271 -5.32988 0
M  V30 265 H 29.1027 -4.02883 -6.72796 0
M  V30 266 N 26.6058 1.57591 -0.0167156 0
M  V30 267 C 27.5538 2.10604 0.987353 0
M  V30 268 C 28.5478 1.02977 1.34507 0
M  V30 269 O 29.7538 1.21425 1.32875 0
M  V30 270 H 26.1288 0.672695 0.336134 0
M  V30 271 H 28.0998 2.93925 0.514817 0
M  V30 272 C 26.8488 2.6382 2.26483 0
M  V30 273 H 26.1718 3.46278 1.99829 0
M  V30 274 H 27.6118 3.04573 2.94977 0
M  V30 275 C 26.0708 1.55992 2.9861 0
M  V30 276 O 26.6008 0.952521 3.90243 0
M  V30 277 N 24.8068 1.28335 2.60727 0
M  V30 278 H 24.3538 1.77914 1.86291 0
M  V30 279 H 24.3118 0.564115 3.09298 0
M  V30 280 N 28.0839 -0.256276 1.55502 0
M  V30 281 C 29.3299 -0.987079 1.77157 0
M  V30 282 C 29.6629 -1.85327 0.580315 0
M  V30 283 O 28.9379 -1.89874 -0.421686 0
M  V30 284 C 29.2209 -1.85553 3.08613 0
M  V30 285 C 29.0739 -1.01816 4.38125 0
M  V30 286 C 30.3929 -2.8397 3.36228 0
M  V30 287 H 27.5119 -0.357428 0.644526 0
M  V30 288 H 30.1539 -0.258239 1.88237 0
M  V30 289 H 28.3039 -2.47695 2.99298 0
M  V30 290 H 29.9759 -0.416159 4.59419 0
M  V30 291 H 28.2189 -0.322178 4.32602 0
M  V30 292 H 28.8899 -1.65939 5.26468 0
M  V30 293 H 31.3659 -2.31964 3.45445 0
M  V30 294 H 30.2419 -3.41864 4.29442 0
M  V30 295 H 30.5029 -3.59955 2.56681 0
M  V30 296 N 29.562 -1.4872 -0.521534 0
M  V30 297 C 30.79 -1.60843 -1.30142 0
M  V30 298 C 31.205 -0.271897 -1.86832 0
M  V30 299 O 30.562 0.739969 -1.66825 0
M  V30 300 C 30.613 -2.66155 -2.4463 0
M  V30 301 O 30.334 -3.94623 -1.90275 0
M  V30 302 C 31.835 -2.88795 -3.36322 0
M  V30 303 H 29.055 -0.542075 -0.395468 0
M  V30 304 H 31.599 -1.94609 -0.628285 0
M  V30 305 H 29.754 -2.35224 -3.07812 0
M  V30 306 H 30.168 -4.52468 -2.65279 0
M  V30 307 H 31.642 -3.66264 -4.12983 0
M  V30 308 H 32.119 -1.97934 -3.9207 0
M  V30 309 H 32.725 -3.21063 -2.78924 0
M  V30 310 N 31.0401 0.771051 -1.3745 0
M  V30 311 C 32.2861 1.53109 -1.339 0
M  V30 312 C 32.6411 1.9225 0.0758401 0
M  V30 313 O 31.9341 1.61264 1.03463 0
M  V30 314 C 32.1281 2.80676 -2.2126 0
M  V30 315 C 31.9571 2.54003 -3.71096 0
M  V30 316 C 30.7271 2.48097 -4.402 0
M  V30 317 C 32.9251 2.21953 -4.63941 0
M  V30 318 N 30.9071 2.13515 -5.75573 0
M  V30 319 C 32.2781 1.97516 -5.87697 0
M  V30 320 C 34.3331 2.08114 -4.5232 0
M  V30 321 C 33.0361 1.60638 -7.01133 0
M  V30 322 C 35.0621 1.72636 -5.65642 0
M  V30 323 C 34.4241 1.4906 -6.88448 0
M  V30 324 H 30.5231 0.56055 -0.54526 0
M  V30 325 H 33.1071 0.899472 -1.72678 0
M  V30 326 H 31.2781 3.41674 -1.84698 0
M  V30 327 H 33.0101 3.46578 -2.08963 0
M  V30 328 H 29.7651 2.63974 -3.93211 0
M  V30 329 H 30.1891 1.98919 -6.47117 0
M  V30 330 H 34.8311 2.25024 -3.57944 0
M  V30 331 H 32.5491 1.42467 -7.95443 0
M  V30 332 H 36.1351 1.62586 -5.58621 0
M  V30 333 H 35.0151 1.22014 -7.7465 0
M  V30 334 N 32.5182 1.22032 0.997298 0
M  V30 335 C 33.4662 0.983634 2.10778 0
M  V30 336 C 34.4602 -0.0717564 1.69248 0
M  V30 337 O 35.6662 0.080304 1.79821 0
M  V30 338 H 32.0412 0.300877 0.689186 0
M  V30 339 H 34.0122 1.92606 2.27916 0
M  V30 340 C 32.7612 0.57326 3.42942 0
M  V30 341 H 32.0842 1.37702 3.75338 0
M  V30 342 H 33.5242 0.447031 4.21637 0
M  V30 343 C 31.9832 -0.7167 3.29188 0
M  V30 344 O 32.5132 -1.77027 3.60589 0
M  V30 345 N 30.7192 -0.686167 2.82383 0
M  V30 346 H 30.2662 0.171507 2.57028 0
M  V30 347 H 30.2242 -1.54955 2.73562 0
M  V30 348 N 33.9963 -1.19345 1.0293 0
M  V30 349 C 35.2243 -1.92997 0.745644 0
M  V30 350 C 35.6393 -1.75519 -0.695589 0
M  V30 351 O 34.9963 -1.07737 -1.47306 0
M  V30 352 C 35.0473 -3.44741 1.08792 0
M  V30 353 O 34.7683 -3.61658 2.47256 0
M  V30 354 C 36.2693 -4.35515 0.827129 0
M  V30 355 H 33.4893 -0.613042 0.272801 0
M  V30 356 H 36.0333 -1.51473 1.3739 0
M  V30 357 H 34.1883 -3.84097 0.504832 0
M  V30 358 H 34.6023 -4.55514 2.60015 0
M  V30 359 H 36.0763 -5.40589 1.11658 0
M  V30 360 H 36.5533 -4.38552 -0.238436 0
M  V30 361 H 37.1593 -4.01841 1.39297 0
M  V30 362 N 35.4744 -0.807222 -1.35358 0
M  V30 363 C 36.6994 -0.399309 -2.0352 0
M  V30 364 C 37.1244 0.981986 -1.60433 0
M  V30 365 O 36.4824 1.63601 -0.781299 0
M  V30 366 C 36.5304 -0.491552 -3.57234 0
M  V30 367 O 35.6344 0.494754 -4.09421 0
M  V30 368 H 34.9754 -0.166682 -0.642739 0
M  V30 369 H 37.5054 -1.09328 -1.72941 0
M  V30 370 H 37.5154 -0.361588 -4.06395 0
M  V30 371 H 36.1904 -1.49907 -3.87944 0
M  V30 372 H 34.7674 0.324977 -3.71481 0
M  V30 373 N 36.9525 1.47285 -0.560781 0
M  V30 374 C 37.9005 2.31756 0.197942 0
M  V30 375 C 38.8945 1.43146 0.905854 0
M  V30 376 O 40.1005 1.59891 0.826733 0
M  V30 377 H 36.4755 0.747438 0.0827049 0
M  V30 378 H 38.4465 2.9359 -0.533629 0
M  V30 379 C 37.1955 3.25874 1.21249 0
M  V30 380 H 36.5185 3.94023 0.67719 0
M  V30 381 H 37.9585 3.87803 1.71419 0
M  V30 382 C 36.4175 2.49651 2.26221 0
M  V30 383 O 36.9475 2.24355 3.33208 0
M  V30 384 N 35.1535 2.10597 2.00243 0
M  V30 385 H 34.7005 2.31369 1.13252 0
M  V30 386 H 34.6585 1.59913 2.70694 0
M  V30 387 N 38.4306 0.297415 1.54768 0
M  V30 388 C 39.8416 -0.195947 1.85669 0
M  V30 389 C 40.1926 -1.53707 1.21937 0
M  V30 390 O 39.3176 -2.10164 0.515754 0
M  V30 391 C 39.9126 -0.362318 3.36857 0
M  V30 392 C 38.4716 -0.799901 3.67802 0
M  V30 393 C 37.6186 0.0938578 2.77141 0
M  V30 394 H 40.5696 0.518538 1.4999 0
M  V30 395 H 40.5906 -1.19745 3.61167 0
M  V30 396 H 40.1026 0.613921 3.83214 0
M  V30 397 H 38.2036 -1.78682 3.26961 0
M  V30 398 H 38.3166 -0.621773 4.75048 0
M  V30 399 H 36.6806 -0.426254 2.51108 0
M  V30 400 H 37.4636 1.06639 3.26318 0
M  V30 401 N 39.9087 -1.5758 0.0250728 0
M  V30 402 C 41.1857 -1.82917 -0.692873 0
M  V30 403 C 41.5657 -0.908137 -1.90568 0
M  V30 404 O 40.9137 0.0372298 -2.2847 0
M  V30 405 C 41.1237 -3.32034 -1.07492 0
M  V30 406 C 42.4717 -3.98406 -1.46826 0
M  V30 407 O 43.4957 -3.36505 -1.16801 0
M  V30 408 O 42.3547 -5.07497 -2.02754 0
M  V30 409 H 39.4487 -0.754079 -0.33955 0
M  V30 410 H 41.9947 -1.69619 0.0524456 0
M  V30 411 H 40.7667 -3.90728 -0.211552 0
M  V30 412 H 40.3897 -3.50424 -1.87854 0
M  V30 413 N 41.3868 0.248026 -1.55636 0
M  V30 414 C 42.6338 0.976224 -1.77415 0
M  V30 415 C 42.9618 1.85361 -0.589193 0
M  V30 416 O 42.2168 1.90973 0.427529 0
M  V30 417 C 42.5158 1.86819 -3.04686 0
M  V30 418 C 42.1818 1.14625 -4.36087 0
M  V30 419 C 40.8438 0.946723 -4.71795 0
M  V30 420 C 43.1958 0.634463 -5.17324 0
M  V30 421 C 40.5238 0.223091 -5.86276 0
M  V30 422 C 42.8758 -0.0756959 -6.32555 0
M  V30 423 C 41.5398 -0.286711 -6.66884 0
M  V30 424 H 40.8098 0.357226 -0.649208 0
M  V30 425 H 43.4568 0.246415 -1.89908 0
M  V30 426 H 41.7618 2.66502 -2.872 0
M  V30 427 H 43.4588 2.43329 -3.18735 0
M  V30 428 H 40.0488 1.3117 -4.08035 0
M  V30 429 H 44.2328 0.77616 -4.90193 0
M  V30 430 H 39.4888 0.0491185 -6.1138 0
M  V30 431 H 43.6628 -0.479899 -6.94745 0
M  V30 432 H 41.2898 -0.849389 -7.5544 0
M  V30 433 N 42.8649 1.48995 0.513639 0
M  V30 434 C 44.0929 1.61531 1.29288 0
M  V30 435 C 44.5079 0.281801 1.86685 0
M  V30 436 O 43.8649 -0.731111 1.67215 0
M  V30 437 C 43.9159 2.67449 2.43215 0
M  V30 438 O 43.6369 3.95626 1.88179 0
M  V30 439 C 45.1379 2.90575 3.34785 0
M  V30 440 H 42.3579 0.544165 0.392588 0
M  V30 441 H 44.9019 1.9494 0.617956 0
M  V30 442 H 43.0569 2.36853 3.0656 0
M  V30 443 H 43.4709 4.53868 2.62876 0
M  V30 444 H 44.9449 3.68449 4.11035 0
M  V30 445 H 45.4219 2.00011 3.91015 0
M  V30 446 H 46.0279 3.22538 2.77218 0
M  V30 447 N 44.343 -0.763751 1.37857 0
M  V30 448 C 45.29 -1.87726 1.34267 0
M  V30 449 C 46.26 -1.64807 0.206879 0
M  V30 450 O 47.445 -1.86613 0.397508 0
M  V30 451 C 44.585 -3.24896 1.16346 0
M  V30 452 C 43.698 -3.59716 2.39225 0
M  V30 453 C 42.833 -4.86137 2.14114 0
M  V30 454 C 41.872 -5.13711 3.32817 0
M  V30 455 N 41.009 -6.31323 3.07206 0
M  V30 456 H 45.849 -1.90129 2.29466 0
M  V30 457 H 43.386 -0.929433 1.14017 0
M  V30 458 H 45.344 -4.04036 1.03975 0
M  V30 459 H 43.974 -3.21847 0.247909 0
M  V30 460 H 43.026 -2.75498 2.62307 0
M  V30 461 H 44.338 -3.76027 3.27728 0
M  V30 462 H 43.492 -5.73198 1.9882 0
M  V30 463 H 42.231 -4.71945 1.22961 0
M  V30 464 H 41.236 -4.25123 3.48641 0
M  V30 465 H 42.461 -5.29807 4.24832 0
M  V30 466 H 40.407 -6.18474 2.1869 0
M  V30 467 H 40.324 -6.48087 3.89254 0
M  V30 468 H 41.592 -7.213 2.95546 0
M  V30 469 N 45.8211 -1.22559 -0.990812 0
M  V30 470 C 47.0611 -1.06302 -1.74583 0
M  V30 471 C 47.4251 0.394737 -1.87898 0
M  V30 472 O 48.6261 0.678214 -2.60103 0
M  V30 473 C 46.8971 -1.75699 -3.11231 0
M  V30 474 S 48.4561 -1.74882 -4.02445 0
M  V30 475 H 45.2741 -0.380639 -0.600529 0
M  V30 476 H 47.8761 -1.55532 -1.18449 0
M  V30 477 H 46.5801 -2.80923 -2.99183 0
M  V30 478 H 46.1111 -1.26708 -3.72436 0
M  V30 479 H 48.1261 -0.799997 -4.89709 0
M  V30 480 N 47.2992 1.18797 -1.03562 0
M  V30 481 C 48.5462 1.8865 -0.736023 0
M  V30 482 C 48.8742 1.80041 0.735889 0
M  V30 483 O 48.1292 1.19179 1.55225 0
M  V30 484 C 48.4282 3.38692 -1.14117 0
M  V30 485 C 48.0942 3.67504 -2.6125 0
M  V30 486 C 46.7562 3.75078 -3.01447 0
M  V30 487 C 49.1082 3.80293 -3.56408 0
M  V30 488 C 46.4362 3.92915 -4.35701 0
M  V30 489 C 48.7882 3.99645 -4.90374 0
M  V30 490 C 47.4522 4.05453 -5.30249 0
M  V30 491 H 46.7222 0.690321 -0.26933 0
M  V30 492 H 49.3692 1.40641 -1.29971 0
M  V30 493 H 47.6742 3.88645 -0.496202 0
M  V30 494 H 49.3712 3.91072 -0.886789 0
M  V30 495 H 45.9612 3.62223 -2.29113 0
M  V30 496 H 50.1452 3.73779 -3.26501 0
M  V30 497 H 45.4012 3.95653 -4.66121 0
M  V30 498 H 49.5752 4.08482 -5.64017 0
M  V30 499 H 47.2022 4.19027 -6.34288 0
M  V30 500 N 48.7773 0.814389 1.34928 0
M  V30 501 C 49.7093 0.187834 2.28429 0
M  V30 502 C 50.7223 -0.617374 1.5064 0
M  V30 503 O 51.9113 -0.448454 1.72775 0
M  V30 504 C 49.0113 -0.755962 3.30361 0
M  V30 505 C 48.1843 0.00456686 4.374 0
M  V30 506 C 47.2433 -0.858876 5.19143 0
M  V30 507 O 46.2693 -0.306968 5.68372 0
M  V30 508 N 47.4713 -2.17988 5.38016 0
M  V30 509 H 50.2363 0.991105 2.82838 0
M  V30 510 H 47.7973 0.670561 1.4736 0
M  V30 511 H 49.7893 -1.338 3.81942 0
M  V30 512 H 48.3593 -1.46001 2.7641 0
M  V30 513 H 47.5793 0.767865 3.86649 0
M  V30 514 H 48.8673 0.528422 5.06049 0
M  V30 515 H 48.2653 -2.65212 4.99679 0
M  V30 516 H 46.8223 -2.71098 5.92747 0
M  V30 517 N 50.2554 -1.46986 0.568584 0
M  V30 518 C 51.2034 -2.31858 -0.185649 0
M  V30 519 C 52.1974 -1.43624 -0.898249 0
M  V30 520 O 53.4034 -1.60327 -0.818242 0
M  V30 521 H 49.7784 -0.747866 -0.0787399 0
M  V30 522 H 51.7494 -2.93303 0.549191 0
M  V30 523 C 50.4984 -3.26513 -1.19519 0
M  V30 524 H 49.8214 -3.94377 -0.656285 0
M  V30 525 H 51.2614 -3.88707 -1.6936 0
M  V30 526 C 49.7204 -2.50847 -2.24894 0
M  V30 527 O 50.2504 -2.26119 -3.32014 0
M  V30 528 N 48.4564 -2.11656 -1.99124 0
M  V30 529 H 48.0034 -2.31966 -1.12024 0
M  V30 530 H 47.9614 -1.61347 -2.69842 0
M  V30 531 N 51.7335 -0.305618 -1.54608 0
M  V30 532 C 52.9615 0.304775 -2.04643 0
M  V30 533 C 53.3765 1.47167 -1.18268 0
M  V30 534 O 52.7335 1.81296 -0.209328 0
M  V30 535 C 52.7845 0.756564 -3.53495 0
M  V30 536 O 52.5055 -0.36389 -4.36586 0
M  V30 537 C 54.0065 1.43163 -4.19546 0
M  V30 538 H 51.2265 0.0655481 -0.667791 0
M  V30 539 H 53.7705 -0.446592 -1.99564 0
M  V30 540 H 51.9255 1.45794 -3.58919 0
M  V30 541 H 52.3395 -0.0113121 -5.24499 0
M  V30 542 H 53.8135 1.69886 -5.25207 0
M  V30 543 H 54.2905 2.37318 -3.69563 0
M  V30 544 H 54.8965 0.773307 -4.18211 0
M  V30 545 N 53.2116 1.57565 -0.0334293 0
M  V30 546 C 54.4576 1.92262 0.645226 0
M  V30 547 C 54.7906 0.910543 1.71531 0
M  V30 548 O 54.0656 -0.066099 1.94388 0
M  V30 549 C 54.3486 3.37422 1.2577 0
M  V30 550 C 54.2016 4.49369 0.196891 0
M  V30 551 C 55.5206 3.82628 2.17449 0
M  V30 552 H 52.6396 0.699171 0.233085 0
M  V30 553 H 55.2816 1.89779 -0.0915694 0
M  V30 554 H 53.4316 3.39669 1.88566 0
M  V30 555 H 55.1036 4.59254 -0.433962 0
M  V30 556 H 53.3466 4.31168 -0.477137 0
M  V30 557 H 54.0176 5.47978 0.665124 0
M  V30 558 H 56.4936 3.82145 1.64634 0
M  V30 559 H 55.3696 4.84883 2.57254 0
M  V30 560 H 55.6306 3.18376 3.0674 0
M  V30 561 N 54.6897 -0.239769 1.55765 0
M  V30 562 C 55.6197 -1.30052 1.9393 0
M  V30 563 C 56.6007 -1.49839 0.805132 0
M  V30 564 O 57.7857 -1.62328 1.06599 0
M  V30 565 C 54.9157 -2.65391 2.2402 0
M  V30 566 C 53.8697 -2.60289 3.39755 0
M  V30 567 C 53.1957 -3.99489 3.55405 0
M  V30 568 C 54.4957 -2.16654 4.75246 0
M  V30 569 H 56.1897 -0.983573 2.82783 0
M  V30 570 H 53.7357 -0.471701 1.36055 0
M  V30 571 H 55.6887 -3.3974 2.49308 0
M  V30 572 H 54.4127 -2.98736 1.32 0
M  V30 573 H 53.0717 -1.88398 3.14487 0
M  V30 574 H 52.7197 -4.30112 2.60793 0
M  V30 575 H 52.4197 -3.96962 4.33238 0
M  V30 576 H 53.9437 -4.75528 3.83022 0
M  V30 577 H 55.3577 -2.80737 4.99859 0
M  V30 578 H 53.7547 -2.25223 5.56232 0
M  V30 579 H 54.8247 -1.11835 4.71827 0
M  V30 580 N 56.1678 -1.49265 -0.50573 0
M  V30 581 C 57.4138 -1.58748 -1.26202 0
M  V30 582 C 57.7468 -0.271227 -1.92297 0
M  V30 583 O 57.0218 0.724831 -1.80489 0
M  V30 584 C 57.3048 -2.74332 -2.33268 0
M  V30 585 C 57.1578 -4.15737 -1.71705 0
M  V30 586 C 58.4768 -2.85576 -3.34865 0
M  V30 587 H 55.5958 -0.577826 -0.457478 0
M  V30 588 H 58.2378 -1.81532 -0.560897 0
M  V30 589 H 56.3878 -2.55036 -2.93068 0
M  V30 590 H 58.0598 -4.46537 -1.15769 0
M  V30 591 H 56.3028 -4.21605 -1.02135 0
M  V30 592 H 56.9738 -4.92477 -2.49341 0
M  V30 593 H 59.4498 -3.03127 -2.8505 0
M  V30 594 H 58.3258 -3.68135 -4.07146 0
M  V30 595 H 58.5868 -1.94732 -3.96903 0
M  V30 596 N 57.6459 0.756429 -1.3826 0
M  V30 597 C 58.8919 1.5168 -1.35517 0
M  V30 598 C 59.2469 1.9232 0.0554451 0
M  V30 599 O 58.5399 1.62352 1.01746 0
M  V30 600 C 58.7339 2.78313 -2.24224 0
M  V30 601 C 58.5629 2.50053 -3.7377 0
M  V30 602 C 57.3329 2.43414 -4.42807 0
M  V30 603 C 59.5309 2.1702 -4.66269 0
M  V30 604 N 57.5129 2.07398 -5.77805 0
M  V30 605 C 58.8839 1.91271 -5.89759 0
M  V30 606 C 60.9389 2.03305 -4.54501 0
M  V30 607 C 59.6419 1.53192 -7.02798 0
M  V30 608 C 61.6679 1.66627 -5.67441 0
M  V30 609 C 61.0299 1.4175 -6.8999 0
M  V30 610 H 57.1289 0.554735 -0.551174 0
M  V30 611 H 59.7129 0.881106 -1.73622 0
M  V30 612 H 57.8839 3.39696 -1.88311 0
M  V30 613 H 59.6159 3.44343 -2.12627 0
M  V30 614 H 56.3709 2.59789 -3.95988 0
M  V30 615 H 56.7949 1.92044 -6.4919 0
M  V30 616 H 61.4369 2.21215 -3.60311 0
M  V30 617 H 59.1549 1.34022 -7.96909 0
M  V30 618 H 62.7409 1.56652 -5.60314 0
M  V30 619 H 61.6209 1.1379 -7.759 0
M  V30 620 N 59.124 1.23083 0.984299 0
M  V30 621 C 60.37 1.06214 1.72761 0
M  V30 622 C 60.703 -0.400584 1.90024 0
M  V30 623 O 59.978 -1.29672 1.44967 0
M  V30 624 C 60.261 1.78375 3.12817 0
M  V30 625 C 60.114 3.32296 3.03149 0
M  V30 626 C 61.433 1.54309 4.12161 0
M  V30 627 H 58.552 0.387251 0.627061 0
M  V30 628 H 61.194 1.51536 1.14616 0
M  V30 629 H 59.344 1.39848 3.62457 0
M  V30 630 H 61.016 3.8032 2.61064 0
M  V30 631 H 59.259 3.6153 2.39747 0
M  V30 632 H 59.93 3.77972 4.02295 0
M  V30 633 H 62.406 1.87791 3.71314 0
M  V30 634 H 61.282 2.07281 5.08258 0
M  V30 635 H 61.543 0.477572 4.39513 0
M  V30 636 N 60.6021 -1.18246 1.0419 0
M  V30 637 C 62.0131 -1.69914 0.773698 0
M  V30 638 C 62.3641 -1.83085 -0.705297 0
M  V30 639 O 61.4891 -1.51123 -1.5489 0
M  V30 640 C 62.0841 -3.08619 1.39784 0
M  V30 641 C 60.6431 -3.57494 1.17792 0
M  V30 642 C 59.7901 -2.34013 1.48773 0
M  V30 643 H 62.7411 -1.02904 1.20816 0
M  V30 644 H 62.7621 -3.71958 0.801714 0
M  V30 645 H 62.2741 -2.99001 2.47426 0
M  V30 646 H 60.3751 -3.72406 0.120295 0
M  V30 647 H 60.4881 -4.40852 1.87581 0
M  V30 648 H 58.8521 -2.37986 0.907463 0
M  V30 649 H 59.6351 -2.27013 2.57527 0
M  V30 650 N 62.0802 -0.821533 -1.34494 0
M  V30 651 C 63.3202 -0.414785 -2.00147 0
M  V30 652 C 63.6842 1.00299 -1.6372 0
M  V30 653 O 64.8852 1.51255 -2.22206 0
M  V30 654 C 63.1562 -0.609403 -3.52166 0
M  V30 655 S 64.7152 -0.295297 -4.37805 0
M  V30 656 H 61.5332 -0.15679 -0.693497 0
M  V30 657 H 64.1352 -1.06705 -1.63812 0
M  V30 658 H 62.8392 -1.64096 -3.76166 0
M  V30 659 H 62.3702 0.0576414 -3.93358 0
M  V30 660 H 64.3852 0.891531 -4.88125 0
M  V30 661 N 63.5583 1.46682 -0.576371 0
M  V30 662 C 64.8053 2.02412 -0.0595339 0
M  V30 663 C 65.1333 1.44859 1.29793 0
M  V30 664 O 64.3883 0.601099 1.8624 0
M  V30 665 C 64.6873 3.57345 0.062886 0
M  V30 666 C 64.3533 4.33908 -1.22616 0
M  V30 667 C 63.0153 4.54544 -1.57933 0
M  V30 668 C 65.3673 4.77919 -2.07948 0
M  V30 669 C 62.6953 5.16444 -2.78393 0
M  V30 670 C 65.0473 5.41149 -3.27629 0
M  V30 671 C 63.7113 5.60014 -3.63236 0
M  V30 672 H 62.9813 0.74068 -0.021785 0
M  V30 673 H 65.6283 1.76128 -0.751735 0
M  V30 674 H 63.9333 3.82729 0.838178 0
M  V30 675 H 65.6303 3.98136 0.478439 0
M  V30 676 H 62.2203 4.18138 -0.941202 0
M  V30 677 H 66.4043 4.61738 -1.81967 0
M  V30 678 H 61.6603 5.29242 -3.06126 0
M  V30 679 H 65.8343 5.74211 -3.94023 0
M  V30 680 H 63.4613 6.07748 -4.56669 0
M  V30 681 N 65.0364 0.313813 1.54444 0
M  V30 682 C 66.2664 -0.293491 2.04505 0
M  V30 683 C 66.6744 -1.47086 1.19005 0
M  V30 684 O 66.0174 -1.82481 0.211257 0
M  V30 685 C 66.0794 -0.800455 3.50475 0
M  V30 686 C 65.7434 0.253322 4.56297 0
M  V30 687 C 66.7404 1.08612 5.08428 0
M  V30 688 C 64.4254 0.398708 5.00715 0
M  V30 689 C 66.4194 2.05013 6.0353 0
M  V30 690 C 64.1064 1.36614 5.95634 0
M  V30 691 C 65.1044 2.19033 6.46926 0
M  V30 692 O 64.7924 3.14134 7.39983 0
M  V30 693 H 64.5244 -0.0658325 0.672787 0
M  V30 694 H 67.0784 0.455177 2.00293 0
M  V30 695 H 65.3084 -1.59987 3.52053 0
M  V30 696 H 66.9974 -1.32504 3.83663 0
M  V30 697 H 67.7634 0.984736 4.74898 0
M  V30 698 H 63.6424 -0.23289 4.60411 0
M  V30 699 H 67.1864 2.69382 6.4349 0
M  V30 700 H 63.0834 1.4682 6.28581 0
M  V30 701 H 63.8514 3.0926 7.57826 0
M  V30 702 N 66.5145 -1.57545 0.0417849 0
M  V30 703 C 67.4445 -2.14009 -0.933929 0
M  V30 704 C 68.4255 -1.05938 -1.33083 0
M  V30 705 O 69.6105 -1.33833 -1.40721 0
M  V30 706 C 66.7405 -2.67747 -2.21199 0
M  V30 707 C 65.6945 -3.80718 -1.95544 0
M  V30 708 C 65.0205 -4.20935 -3.29724 0
M  V30 709 C 66.3205 -5.06258 -1.28452 0
M  V30 710 H 68.0145 -2.95788 -0.463645 0
M  V30 711 H 65.5605 -1.42285 -0.221573 0
M  V30 712 H 67.5135 -3.05886 -2.89848 0
M  V30 713 H 66.2375 -1.83147 -2.70416 0
M  V30 714 H 64.8965 -3.43037 -1.2931 0
M  V30 715 H 64.5445 -3.33298 -3.76724 0
M  V30 716 H 64.2445 -4.9707 -3.13361 0
M  V30 717 H 65.7685 -4.61666 -3.9962 0
M  V30 718 H 67.1825 -5.41903 -1.8712 0
M  V30 719 H 65.5795 -5.87475 -1.22445 0
M  V30 720 H 66.6495 -4.84207 -0.259219 0
M  V30 721 N 67.9926 0.231505 -1.5589 0
M  V30 722 C 69.2386 0.954429 -1.79617 0
M  V30 723 C 69.5936 1.82367 -0.613199 0
M  V30 724 O 68.8866 1.87524 0.393094 0
M  V30 725 C 69.0806 1.83577 -3.0665 0
M  V30 726 C 68.9096 1.05334 -4.3719 0
M  V30 727 C 67.6796 0.75225 -4.99669 0
M  V30 728 C 69.8776 0.423444 -5.12554 0
M  V30 729 N 67.8596 -0.052627 -6.13877 0
M  V30 730 C 69.2306 -0.245287 -6.19515 0
M  V30 731 C 71.2856 0.335466 -4.96769 0
M  V30 732 C 69.9886 -0.993566 -7.12405 0
M  V30 733 C 72.0146 -0.399321 -5.9005 0
M  V30 734 C 71.3766 -1.05663 -6.9643 0
M  V30 735 H 67.4756 0.329846 -0.709031 0
M  V30 736 H 70.0596 0.226172 -1.93382 0
M  V30 737 H 68.2306 2.53592 -2.94186 0
M  V30 738 H 69.9626 2.49541 -3.18608 0
M  V30 739 H 66.7176 1.06783 -4.61405 0
M  V30 740 H 67.1416 -0.443609 -6.75545 0
M  V30 741 H 71.7836 0.829311 -4.14587 0
M  V30 742 H 69.5016 -1.49896 -7.94076 0
M  V30 743 H 73.0876 -0.468265 -5.79913 0
M  V30 744 H 71.9676 -1.61612 -7.67366 0
M  V30 745 N 69.4707 1.49531 0.497807 0
M  V30 746 C 70.4337 1.65916 1.58128 0
M  V30 747 C 71.4337 0.530825 1.51786 0
M  V30 748 O 72.6237 0.797342 1.54881 0
M  V30 749 C 69.7557 1.65951 2.9778 0
M  V30 750 H 70.9487 2.62556 1.44929 0
M  V30 751 H 68.5017 1.38611 0.722275 0
M  V30 752 H 69.2367 0.709065 3.16453 0
M  V30 753 H 69.0217 2.47897 3.03792 0
M  V30 754 H 70.5117 1.80673 3.76493 0
M  V30 755 N 70.9488 -0.749086 1.3866 0
M  V30 756 C 72.1888 -1.52112 1.36534 0
M  V30 757 C 72.5528 -1.91951 -0.0432316 0
M  V30 758 O 73.7538 -2.68132 -0.189396 0
M  V30 759 C 72.0248 -2.73704 2.29828 0
M  V30 760 S 73.5838 -3.63519 2.45763 0
M  V30 761 H 70.4018 -0.520482 0.484375 0
M  V30 762 H 73.0038 -0.878963 1.74627 0
M  V30 763 H 71.7078 -2.42552 3.31054 0
M  V30 764 H 71.2388 -3.4286 1.929 0
M  V30 765 H 73.2538 -4.66712 1.68505 0
M  V30 766 N 72.4269 -1.23603 -0.977757 0
M  V30 767 C 73.6739 -1.06971 -1.71941 0
M  V30 768 C 74.0019 0.393009 -1.90488 0
M  V30 769 O 73.2569 1.30719 -1.4564 0
M  V30 770 C 73.5559 -1.7433 -3.11999 0
M  V30 771 C 73.2219 -3.24252 -3.13323 0
M  V30 772 C 71.8839 -3.65156 -3.13392 0
M  V30 773 C 74.2359 -4.20141 -3.08433 0
M  V30 774 C 71.5639 -5.00403 -3.0629 0
M  V30 775 C 73.9159 -5.55384 -3.02873 0
M  V30 776 C 72.5799 -5.95647 -3.01265 0
M  V30 777 H 71.8499 -0.391433 -0.629175 0
M  V30 778 H 74.4969 -1.53572 -1.14403 0
M  V30 779 H 72.8019 -1.20096 -3.7294 0
M  V30 780 H 74.4989 -1.58936 -3.68158 0
M  V30 781 H 71.0889 -2.91692 -3.14029 0
M  V30 782 H 75.2729 -3.89547 -3.07517 0
M  V30 783 H 70.5289 -5.3081 -3.03399 0
M  V30 784 H 74.7029 -6.29398 -2.98046 0
M  V30 785 H 72.3299 -7.0041 -2.95516 0
M  V30 786 N 73.905 1.17692 -1.04816 0
M  V30 787 C 75.316 1.69501 -0.782698 0
M  V30 788 C 75.667 1.83456 0.695577 0
M  V30 789 O 74.792 1.51942 1.54086 0
M  V30 790 C 75.387 3.07874 -1.41419 0
M  V30 791 C 73.946 3.56864 -1.19686 0
M  V30 792 C 73.093 2.3322 -1.50012 0
M  V30 793 H 76.044 1.02262 -1.2136 0
M  V30 794 H 76.065 3.71528 -0.821428 0
M  V30 795 H 75.577 2.97685 -2.49009 0
M  V30 796 H 73.678 3.72337 -0.140043 0
M  V30 797 H 73.791 4.39851 -1.89916 0
M  V30 798 H 72.155 2.37501 -0.920071 0
M  V30 799 H 72.938 2.25644 -2.58727 0
M  V30 800 N 75.3831 0.828654 1.34056 0
M  V30 801 C 76.6301 0.419458 1.98108 0
M  V30 802 C 76.9581 -1.01886 1.65679 0
M  V30 803 O 76.2131 -1.72539 0.923512 0
M  V30 804 C 76.5121 0.575226 3.52741 0
M  V30 805 C 76.1781 1.98012 4.05095 0
M  V30 806 C 74.8401 2.36442 4.19104 0
M  V30 807 C 77.1921 2.89824 4.33188 0
M  V30 808 C 74.5201 3.66009 4.58535 0
M  V30 809 C 76.8721 4.1886 4.74066 0
M  V30 810 C 75.5361 4.5726 4.86281 0
M  V30 811 H 74.8061 0.153491 0.724929 0
M  V30 812 H 77.4531 1.05371 1.59904 0
M  V30 813 H 75.7581 -0.142385 3.91541 0
M  V30 814 H 77.4551 0.239057 4.00287 0
M  V30 815 H 74.0451 1.67162 3.94658 0
M  V30 816 H 78.2291 2.61375 4.21897 0
M  V30 817 H 73.4851 3.95579 4.66184 0
M  V30 818 H 77.6591 4.90086 4.94761 0
M  V30 819 H 75.2861 5.57707 5.16592 0
M  V30 820 N 76.8612 -1.46375 0.584142 0
M  V30 821 C 78.0912 -2.06461 0.0758195 0
M  V30 822 C 78.4992 -1.43322 -1.23512 0
M  V30 823 O 77.8422 -0.533216 -1.75791 0
M  V30 824 C 77.9042 -3.59131 -0.162773 0
M  V30 825 C 77.5682 -4.4447 1.06279 0
M  V30 826 C 78.5652 -4.80918 1.97519 0
M  V30 827 C 76.2502 -4.85584 1.28504 0
M  V30 828 C 78.2442 -5.57309 3.09331 0
M  V30 829 C 75.9312 -5.61734 2.4062 0
M  V30 830 C 76.9292 -5.9751 3.30863 0
M  V30 831 O 76.6172 -6.72121 4.41032 0
M  V30 832 H 76.3492 -0.673745 0.0551725 0
M  V30 833 H 78.9032 -1.88969 0.804984 0
M  V30 834 H 77.1332 -3.74936 -0.946565 0
M  V30 835 H 78.8222 -4.0114 -0.619782 0
M  V30 836 H 79.5882 -4.49732 1.81565 0
M  V30 837 H 75.4672 -4.57187 0.591702 0
M  V30 838 H 79.0112 -5.85152 3.79793 0
M  V30 839 H 74.9082 -5.92334 2.56537 0
M  V30 840 H 75.6762 -6.90547 4.39417 0
M  V30 841 N 78.3393 -0.321999 -1.54275 0
M  V30 842 C 79.5863 0.281044 -2.0054 0
M  V30 843 C 79.9143 1.52265 -1.21019 0
M  V30 844 O 79.1693 1.93687 -0.279982 0
M  V30 845 C 79.4683 0.661769 -3.5122 0
M  V30 846 C 79.1343 -0.480482 -4.48333 0
M  V30 847 C 77.7963 -0.794005 -4.74604 0
M  V30 848 C 80.1483 -1.24783 -5.06042 0
M  V30 849 C 77.4763 -1.87763 -5.55844 0
M  V30 850 C 79.8283 -2.32153 -5.88462 0
M  V30 851 C 78.4923 -2.64089 -6.13036 0
M  V30 852 H 77.7623 0.102841 -0.733829 0
M  V30 853 H 80.4093 -0.445453 -1.86247 0
M  V30 854 H 78.7143 1.46867 -3.63232 0
M  V30 855 H 80.4113 1.13989 -3.84457 0
M  V30 856 H 77.0013 -0.226039 -4.28004 0
M  V30 857 H 81.1853 -1.01887 -4.85729 0
M  V30 858 H 76.4413 -2.12954 -5.73115 0
M  V30 859 H 80.6153 -2.92057 -6.32199 0
M  V30 860 H 78.2423 -3.48185 -6.75775 0
M  V30 861 N 79.8174 1.5752 -0.0501392 0
M  V30 862 C 80.7474 2.14502 0.922566 0
M  V30 863 C 81.7284 1.06642 1.3252 0
M  V30 864 O 82.9134 1.34577 1.4001 0
M  V30 865 C 80.0434 2.68916 2.19776 0
M  V30 866 C 78.9974 3.8175 1.93523 0
M  V30 867 C 78.3234 4.22677 3.27487 0
M  V30 868 C 79.6234 5.06932 1.25765 0
M  V30 869 H 81.3174 2.9603 0.447952 0
M  V30 870 H 78.8634 1.42401 0.214024 0
M  V30 871 H 80.8164 3.07419 2.88222 0
M  V30 872 H 79.5404 1.84578 2.69441 0
M  V30 873 H 78.1994 3.43718 1.27489 0
M  V30 874 H 77.8474 3.35291 3.74952 0
M  V30 875 H 77.5474 4.98725 3.1072 0
M  V30 876 H 79.0714 4.63779 3.97166 0
M  V30 877 H 80.4854 5.42888 1.84244 0
M  V30 878 H 78.8824 5.88116 1.19328 0
M  V30 879 H 79.9524 4.84337 0.233536 0
M  V30 880 N 81.2955 -0.223234 1.56011 0
M  V30 881 C 82.5255 -0.963413 1.82762 0
M  V30 882 C 82.9335 -1.78516 0.626804 0
M  V30 883 O 82.2765 -1.78974 -0.414014 0
M  V30 884 C 82.3385 -1.93126 3.0322 0
M  V30 885 C 82.0025 -1.2942 4.38291 0
M  V30 886 C 82.9995 -0.684916 5.15369 0
M  V30 887 C 80.6845 -1.30647 4.85012 0
M  V30 888 C 82.6785 -0.0963971 6.37327 0
M  V30 889 C 80.3655 -0.71411 6.06913 0
M  V30 890 C 81.3635 -0.110123 6.82911 0
M  V30 891 O 81.0515 0.47303 8.02507 0
M  V30 892 H 80.7835 -0.288011 0.611576 0
M  V30 893 H 83.3375 -0.244103 2.03944 0
M  V30 894 H 81.5675 -2.68952 2.77852 0
M  V30 895 H 83.2565 -2.53685 3.16857 0
M  V30 896 H 84.0225 -0.667774 4.80381 0
M  V30 897 H 79.9015 -1.76598 4.25833 0
M  V30 898 H 83.4455 0.375657 6.96588 0
M  V30 899 H 79.3425 -0.728659 6.41374 0
M  V30 900 H 80.1105 0.367186 8.17676 0
M  V30 901 N 82.7736 -1.49793 -0.48987 0
M  V30 902 C 83.7036 -1.70201 -1.59856 0
M  V30 903 C 84.6846 -0.55076 -1.60937 0
M  V30 904 O 85.8696 -0.787841 -1.77501 0
M  V30 905 C 82.9996 -1.77882 -2.98287 0
M  V30 906 C 81.9536 -2.92907 -3.12073 0
M  V30 907 C 81.2796 -2.85712 -4.51965 0
M  V30 908 C 82.5796 -4.3369 -2.91051 0
M  V30 909 H 84.2736 -2.63025 -1.43032 0
M  V30 910 H 81.8196 -1.26574 -0.686664 0
M  V30 911 H 83.7726 -1.90744 -3.75759 0
M  V30 912 H 82.4966 -0.816653 -3.16225 0
M  V30 913 H 81.1556 -2.79665 -2.37029 0
M  V30 914 H 80.8036 -1.8738 -4.66795 0
M  V30 915 H 80.5036 -3.62921 -4.62128 0
M  V30 916 H 82.0276 -3.00598 -5.31482 0
M  V30 917 H 83.4416 -4.47555 -3.58284 0
M  V30 918 H 81.8386 -5.12205 -3.12675 0
M  V30 919 H 82.9086 -4.47362 -1.87071 0
M  V30 920 N 84.2517 0.741722 -1.39055 0
M  V30 921 C 85.4767 1.53607 -1.39354 0
M  V30 922 C 85.9017 1.88096 0.0116905 0
M  V30 923 O 85.2597 1.5143 0.996924 0
M  V30 924 C 85.3077 2.80441 -2.26682 0
M  V30 925 O 84.4117 3.76088 -1.69208 0
M  V30 926 H 83.7527 0.464142 -0.474835 0
M  V30 927 H 86.2827 0.915665 -1.82967 0
M  V30 928 H 86.2927 3.29246 -2.40959 0
M  V30 929 H 84.9677 2.5467 -3.2881 0
M  V30 930 H 83.5447 3.34833 -1.64138 0
M  V30 931 N 85.7298 1.2412 0.971189 0
M  V30 932 C 87.1458 1.00584 1.23916 0
M  V30 933 C 87.3458 -0.287481 1.99439 0
M  V30 934 O 86.4018 -1.00454 2.31658 0
M  V30 935 C 87.7148 2.21864 2.0297 0
M  V30 936 C 89.2628 2.26452 2.16076 0
M  V30 937 C 89.7378 3.47343 2.98524 0
M  V30 938 N 91.2288 3.47639 3.06107 0
M  V30 939 C 91.9638 4.37837 3.70251 0
M  V30 940 N 91.4598 5.38286 4.36142 0
M  V30 941 N 93.2528 4.25558 3.67228 0
M  V30 942 H 85.4038 2.07236 0.465499 0
M  V30 943 H 87.6668 0.909236 0.268315 0
M  V30 944 H 87.3728 3.15771 1.54861 0
M  V30 945 H 87.2468 2.23698 3.03709 0
M  V30 946 H 89.6338 1.33078 2.6339 0
M  V30 947 H 89.7148 2.28645 1.14696 0
M  V30 948 H 89.3588 4.41029 2.51905 0
M  V30 949 H 89.2888 3.42393 4.00093 0
M  V30 950 H 91.7798 2.74966 2.59233 0
M  V30 951 H 92.0928 6.03352 4.82894 0
M  V30 952 H 90.4378 5.42176 4.34822 0
M  V30 953 H 93.6288 3.46322 3.14927 0
M  V30 954 H 93.8018 4.96054 4.16935 0
M  V30 955 N 87.2079 -1.17134 1.05439 0
M  V30 956 C 88.1579 -2.1919 0.627675 0
M  V30 957 C 89.1419 -1.57328 -0.337147 0
M  V30 958 O 90.3339 -1.76329 -0.153976 0
M  V30 959 C 87.4629 -3.43299 0.00651435 0
M  V30 960 C 86.5489 -4.12255 0.995312 0
M  V30 961 N 86.9399 -4.56997 2.16765 0
M  V30 962 C 85.2379 -4.38316 0.824336 0
M  V30 963 C 85.9389 -5.10239 2.7934 0
M  V30 964 N 84.9149 -5.02595 2.07122 0
M  V30 965 H 88.7169 -2.5149 1.52086 0
M  V30 966 H 86.2309 -1.33491 0.924868 0
M  V30 967 H 88.2279 -4.15693 -0.316965 0
M  V30 968 H 86.8879 -3.1249 -0.882033 0
M  V30 969 H 87.8989 -4.51006 2.54587 0
M  V30 970 H 84.5759 -4.17498 -0.0129526 0
M  V30 971 H 85.9659 -5.54961 3.78772 0
M  V30 972 N 88.686 -0.835752 -1.33615 0
M  V30 973 C 89.963 -0.352017 -1.92406 0
M  V30 974 C 90.343 1.16225 -1.76224 0
M  V30 975 O 89.691 1.97526 -1.14873 0
M  V30 976 C 89.901 -0.795485 -3.39813 0
M  V30 977 C 91.249 -0.801703 -4.16963 0
M  V30 978 O 92.273 -0.738889 -3.48452 0
M  V30 979 O 91.132 -0.886607 -5.3926 0
M  V30 980 H 88.226 -0.0989641 -0.821057 0
M  V30 981 H 90.772 -0.921397 -1.42507 0
M  V30 982 H 89.544 -1.83795 -3.45449 0
M  V30 983 H 89.167 -0.202505 -3.97084 0
M  V30 984 N 90.1641 1.46063 -0.591896 0
M  V30 985 C 91.5801 1.57561 -0.254288 0
M  V30 986 C 91.7801 1.58565 1.24336 0
M  V30 987 O 90.8361 1.50753 2.02558 0
M  V30 988 C 92.1491 2.86549 -0.911611 0
M  V30 989 C 93.6971 3.00197 -0.886059 0
M  V30 990 C 94.1721 4.31933 -1.5231 0
M  V30 991 N 95.6631 4.38654 -1.48786 0
M  V30 992 C 96.3981 5.39222 -1.95006 0
M  V30 993 N 95.8941 6.46414 -2.49241 0
M  V30 994 N 97.6871 5.3048 -1.85868 0
M  V30 995 H 89.8381 1.43655 -1.56451 0
M  V30 996 H 92.1011 0.68583 -0.654478 0
M  V30 997 H 91.8071 2.91651 -1.96551 0
M  V30 998 H 91.6811 3.74794 -0.425368 0
M  V30 999 H 94.0681 2.9467 0.159246 0
M  V30 1000 H 94.1491 2.13403 -1.41041 0
M  V30 1001 H 93.7931 4.38217 -2.56765 0
M  V30 1002 H 93.7231 5.17516 -0.973891 0
M  V30 1003 H 96.2141 3.61793 -1.09151 0
M  V30 1004 H 96.5271 7.19376 -2.82344 0
M  V30 1005 H 94.8721 6.47208 -2.53272 0
M  V30 1006 H 98.0631 4.45643 -1.43248 0
M  V30 1007 H 98.2361 6.08711 -2.22204 0
M  V30 1008 N 91.6422 0.330177 1.54103 0
M  V30 1009 C 92.8902 -0.269871 2.0029 0
M  V30 1010 C 93.2112 -1.52133 1.21986 0
M  V30 1011 O 92.4812 -1.93212 0.323438 0
M  V30 1012 H 91.0612 -0.10271 0.739905 0
M  V30 1013 H 93.7232 0.448249 1.89675 0
M  V30 1014 H 92.8192 -0.52166 3.07709 0
M  V30 1015 N 93.1203 -1.57491 0.0584922 0
M  V30 1016 C 94.3503 -1.9701 -0.622134 0
M  V30 1017 C 94.7583 -0.935034 -1.6448 0
M  V30 1018 O 94.1013 0.0882904 -1.83488 0
M  V30 1019 C 94.1633 -3.32794 -1.35972 0
M  V30 1020 C 93.8273 -4.54343 -0.492043 0
M  V30 1021 C 94.8243 -5.19323 0.244901 0
M  V30 1022 C 92.5093 -5.00534 -0.420821 0
M  V30 1023 C 94.5033 -6.28835 1.04143 0
M  V30 1024 C 92.1903 -6.09921 0.379389 0
M  V30 1025 C 93.1883 -6.73933 1.10919 0
M  V30 1026 O 92.8763 -7.81216 1.89623 0
M  V30 1027 H 92.6083 -0.653127 -0.174359 0
M  V30 1028 H 95.1623 -2.05029 0.123418 0
M  V30 1029 H 93.3923 -3.21351 -2.15105 0
M  V30 1030 H 95.0813 -3.5701 -1.93129 0
M  V30 1031 H 95.8473 -4.8459 0.19939 0
M  V30 1032 H 91.7263 -4.50496 -0.978474 0
M  V30 1033 H 95.2703 -6.7873 1.61157 0
M  V30 1034 H 91.1673 -6.44089 0.426512 0
M  V30 1035 H 91.9353 -7.98029 1.81913 0
M  V30 1036 N 94.5984 0.214957 -1.56127 0
M  V30 1037 C 95.8474 0.936451 -1.78643 0
M  V30 1038 C 96.1604 1.85237 -0.628229 0
M  V30 1039 O 97.3664 2.613 -0.737186 0
M  V30 1040 C 95.8224 1.7154 -3.16389 0
M  V30 1041 C 95.4304 0.845299 -4.39953 0
M  V30 1042 C 97.1744 2.42772 -3.48227 0
M  V30 1043 C 95.0814 1.62198 -5.68723 0
M  V30 1044 H 94.0114 0.353401 -0.666051 0
M  V30 1045 H 96.6624 0.190169 -1.82512 0
M  V30 1046 H 95.0444 2.50484 -3.06715 0
M  V30 1047 H 96.2184 0.0959353 -4.607 0
M  V30 1048 H 94.5334 0.244789 -4.1568 0
M  V30 1049 H 97.1304 3.01394 -4.41663 0
M  V30 1050 H 97.4734 3.15984 -2.71035 0
M  V30 1051 H 98.0064 1.70813 -3.5926 0
M  V30 1052 H 94.7454 0.933011 -6.48826 0
M  V30 1053 H 94.2654 2.34579 -5.52026 0
M  V30 1054 H 95.9444 2.18095 -6.09133 0
M  V30 1055 N 96.0765 1.50051 0.48192 0
M  V30 1056 C 97.0085 1.64263 1.59844 0
M  V30 1057 C 98.0215 0.52451 1.54119 0
M  V30 1058 O 99.2105 0.797293 1.59704 0
M  V30 1059 C 96.3105 1.60102 2.98698 0
M  V30 1060 C 95.4835 2.87767 3.29407 0
M  V30 1061 C 94.5425 2.76397 4.47762 0
M  V30 1062 O 93.5685 3.50348 4.48603 0
M  V30 1063 N 94.7705 1.89222 5.48794 0
M  V30 1064 H 97.5355 2.60566 1.48073 0
M  V30 1065 H 95.0965 1.47379 0.670149 0
M  V30 1066 H 97.0885 1.50123 3.75826 0
M  V30 1067 H 95.6585 0.715798 3.04294 0
M  V30 1068 H 94.8785 3.11954 2.40994 0
M  V30 1069 H 96.1665 3.72365 3.4673 0
M  V30 1070 H 95.5645 1.28434 5.50928 0
M  V30 1071 H 94.1215 1.85154 6.24949 0
M  V30 1072 N 97.5546 -0.734337 1.39446 0
M  V30 1073 C 98.4876 -1.85715 1.32609 0
M  V30 1074 C 99.4656 -1.6137 0.199636 0
M  V30 1075 O 100.65 -1.84626 0.380195 0
M  V30 1076 C 97.7766 -3.21709 1.05929 0
M  V30 1077 C 96.8226 -3.64913 2.20773 0
M  V30 1078 S 97.6556 -3.74203 3.83056 0
M  V30 1079 C 98.8116 -5.12986 3.58603 0
M  V30 1080 H 99.0446 -1.91232 2.27635 0
M  V30 1081 H 96.5776 -0.899263 1.25509 0
M  V30 1082 H 98.5356 -4.00236 0.912203 0
M  V30 1083 H 97.1966 -3.13848 0.125883 0
M  V30 1084 H 96.3896 -4.63606 1.97699 0
M  V30 1085 H 95.9916 -2.93593 2.31688 0
M  V30 1086 H 98.2836 -5.99339 3.15909 0
M  V30 1087 H 99.2266 -5.41088 4.5676 0
M  V30 1088 H 99.6346 -4.82694 2.9269 0
M  V30 1089 N 99.0327 -1.24633 -0.964593 0
M  V30 1090 C 100.261 -1.11501 -1.74285 0
M  V30 1091 C 100.676 0.332165 -1.85855 0
M  V30 1092 O 100.033 1.22903 -1.34911 0
M  V30 1093 C 100.084 -1.75258 -3.16175 0
M  V30 1094 O 99.8047 -3.14318 -3.05182 0
M  V30 1095 C 101.306 -1.67776 -4.10324 0
M  V30 1096 H 98.5257 -0.389407 -0.546446 0
M  V30 1097 H 101.07 -1.64801 -1.21083 0
M  V30 1098 H 99.2247 -1.25954 -3.66353 0
M  V30 1099 H 99.6387 -3.4551 -3.94618 0
M  V30 1100 H 101.113 -2.17064 -5.0753 0
M  V30 1101 H 101.59 -0.639584 -4.34518 0
M  V30 1102 H 102.196 -2.16522 -3.66058 0
M  V30 1103 N 100.511 1.16574 -1.06058 0
M  V30 1104 C 101.922 1.68662 -0.800632 0
M  V30 1105 C 102.273 1.84184 0.67608 0
M  V30 1106 O 101.398 1.53568 1.52466 0
M  V30 1107 C 101.993 3.06356 -1.44676 0
M  V30 1108 C 100.552 3.55575 -1.23465 0
M  V30 1109 C 99.6988 2.31616 -1.52477 0
M  V30 1110 H 102.65 1.00969 -1.22438 0
M  V30 1111 H 102.671 3.70636 -0.860788 0
M  V30 1112 H 102.183 2.95027 -2.52152 0
M  V30 1113 H 100.284 3.72167 -0.179527 0
M  V30 1114 H 100.397 4.37812 -1.94571 0
M  V30 1115 H 98.7608 2.36512 -0.945209 0
M  V30 1116 H 99.5438 2.22887 -2.61106 0
M  V30 1117 N 101.989 0.842826 1.3317 0
M  V30 1118 C 102.919 0.294028 2.31641 0
M  V30 1119 C 103.9 -0.600401 1.59151 0
M  V30 1120 O 105.085 -0.523124 1.87022 0
M  V30 1121 C 102.215 -0.528416 3.43257 0
M  V30 1122 C 101.169 0.27056 4.27144 0
M  V30 1123 C 100.495 -0.675881 5.30411 0
M  V30 1124 C 101.795 1.48981 5.00602 0
M  V30 1125 H 103.489 1.11681 2.77791 0
M  V30 1126 H 101.035 0.538478 1.33553 0
M  V30 1127 H 102.988 -0.922674 4.11175 0
M  V30 1128 H 101.712 -1.38445 2.95805 0
M  V30 1129 H 100.371 0.646427 3.60856 0
M  V30 1130 H 100.019 -1.52842 4.79216 0
M  V30 1131 H 99.7189 -0.145374 5.8742 0
M  V30 1132 H 101.243 -1.06757 6.01195 0
M  V30 1133 H 102.657 1.16849 5.61266 0
M  V30 1134 H 101.054 1.95739 5.6728 0
M  V30 1135 H 102.124 2.25746 4.29147 0
M  V30 1136 N 103.467 -1.45747 0.599634 0
M  V30 1137 C 104.415 -2.322 -0.136426 0
M  V30 1138 C 105.409 -1.45497 -0.867583 0
M  V30 1139 O 106.615 -1.62027 -0.78405 0
M  V30 1140 H 102.99 -0.749368 -0.0628588 0
M  V30 1141 H 104.961 -2.92072 0.611281 0
M  V30 1142 C 103.71 -3.28974 -1.12567 0
M  V30 1143 H 103.033 -3.9568 -0.572484 0
M  V30 1144 H 104.473 -3.92212 -1.61077 0
M  V30 1145 C 102.932 -2.55561 -2.19523 0
M  V30 1146 O 103.462 -2.33111 -3.27143 0
M  V30 1147 N 101.668 -2.15832 -1.94589 0
M  V30 1148 H 101.215 -2.3429 -1.07078 0
M  V30 1149 H 101.173 -1.67034 -2.66359 0
M  V30 1150 N 104.945 -0.338344 -1.53925 0
M  V30 1151 C 105.892 0.520845 -2.24846 0
M  V30 1152 C 106.862 1.09976 -1.24477 0
M  V30 1153 O 108.047 1.13735 -1.53196 0
M  V30 1154 C 105.187 1.6685 -3.02084 0
M  V30 1155 C 104.3 1.11739 -4.17299 0
M  V30 1156 C 103.435 2.23193 -4.82036 0
M  V30 1157 C 102.474 1.65407 -5.89328 0
M  V30 1158 N 101.611 2.70582 -6.47866 0
M  V30 1159 H 106.451 -0.0904881 -2.97863 0
M  V30 1160 H 103.988 -0.0564282 -1.46992 0
M  V30 1161 H 105.946 2.34407 -3.45122 0
M  V30 1162 H 104.576 2.2509 -2.31375 0
M  V30 1163 H 103.628 0.332919 -3.7894 0
M  V30 1164 H 104.94 0.654677 -4.94485 0
M  V30 1165 H 104.094 2.98626 -5.28117 0
M  V30 1166 H 102.833 2.72807 -4.04262 0
M  V30 1167 H 101.838 0.884779 -5.42634 0
M  V30 1168 H 103.063 1.16652 -6.69006 0
M  V30 1169 H 101.009 3.1946 -5.72959 0
M  V30 1170 H 100.926 2.28917 -7.20509 0
M  V30 1171 H 102.194 3.45799 -6.98601 0
M  V30 1172 N 106.423 1.57458 -0.0668435 0
M  V30 1173 C 107.651 1.97624 0.612565 0
M  V30 1174 C 108.066 0.94502 1.63447 0
M  V30 1175 O 107.423 -0.0689276 1.8237 0
M  V30 1176 C 107.474 3.37869 1.28555 0
M  V30 1177 O 107.195 4.3704 0.304557 0
M  V30 1178 C 108.696 3.92882 2.05325 0
M  V30 1179 H 105.916 0.650045 0.166381 0
M  V30 1180 H 108.46 2.04035 -0.137782 0
M  V30 1181 H 106.615 3.3256 1.98702 0
M  V30 1182 H 107.029 5.18565 0.786779 0
M  V30 1183 H 108.503 4.93247 2.47812 0
M  V30 1184 H 108.98 3.29156 2.9078 0
M  V30 1185 H 109.586 4.01577 1.40056 0
M  V30 1186 N 107.901 -0.206675 1.56239 0
M  V30 1187 C 108.848 -1.25617 1.93621 0
M  V30 1188 C 109.818 -1.45824 0.795274 0
M  V30 1189 O 111.003 -1.59148 1.05245 0
M  V30 1190 C 108.143 -2.59839 2.27107 0
M  V30 1191 C 107.256 -2.47308 3.54207 0
M  V30 1192 C 106.391 -3.74155 3.7707 0
M  V30 1193 C 105.43 -3.56407 4.97635 0
M  V30 1194 N 104.567 -4.75238 5.1681 0
M  V30 1195 H 109.407 -0.930383 2.83104 0
M  V30 1196 H 106.944 -0.448065 1.4011 0
M  V30 1197 H 108.902 -3.38021 2.44535 0
M  V30 1198 H 107.532 -2.90485 1.40778 0
M  V30 1199 H 106.584 -1.60483 3.4489 0
M  V30 1200 H 107.896 -2.30122 4.42544 0
M  V30 1201 H 107.05 -4.60778 3.94675 0
M  V30 1202 H 105.789 -3.94282 2.87042 0
M  V30 1203 H 104.794 -2.68168 4.79964 0
M  V30 1204 H 106.019 -3.37736 5.89161 0
M  V30 1205 H 103.965 -4.95651 4.29728 0
M  V30 1206 H 103.882 -4.60835 5.99306 0
M  V30 1207 H 105.15 -5.63246 5.38864 0
M  V30 1208 N 109.379 -1.50304 -0.473955 0
M  V30 1209 C 110.607 -1.64902 -1.24959 0
M  V30 1210 C 111.022 -0.331198 -1.85872 0
M  V30 1211 O 110.379 0.68652 -1.69095 0
M  V30 1212 C 110.43 -2.73803 -2.36038 0
M  V30 1213 O 110.151 -4.00477 -1.77624 0
M  V30 1214 C 111.652 -2.99349 -3.26964 0
M  V30 1215 H 108.872 -0.554383 -0.378022 0
M  V30 1216 H 111.416 -1.9651 -0.566054 0
M  V30 1217 H 109.571 -2.44898 -3.00173 0
M  V30 1218 H 109.985 -4.60678 -2.5075 0
M  V30 1219 H 111.459 -3.79217 -4.01121 0
M  V30 1220 H 111.936 -2.10307 -3.85574 0
M  V30 1221 H 112.542 -3.29774 -2.68569 0
M  V30 1222 N 110.857 0.726932 -1.39834 0
M  V30 1223 C 111.82 1.82269 -1.38962 0
M  V30 1224 C 112.82 1.58248 -0.285334 0
M  V30 1225 O 114.01 1.65499 -0.54366 0
M  V30 1226 C 111.142 3.20186 -1.17019 0
M  V30 1227 H 112.335 1.84443 -2.36476 0
M  V30 1228 H 109.888 0.931416 -1.25516 0
M  V30 1229 H 110.623 3.23669 -0.202204 0
M  V30 1230 H 110.408 3.3902 -1.96998 0
M  V30 1231 H 111.898 4.00235 -1.1917 0
M  V30 1232 N 112.336 1.25143 0.95797 0
M  V30 1233 C 113.266 1.07711 2.07173 0
M  V30 1234 C 114.247 -0.0128462 1.70095 0
M  V30 1235 O 115.432 0.156061 1.93572 0
M  V30 1236 C 112.562 0.691503 3.40346 0
M  V30 1237 C 111.516 1.73132 3.9142 0
M  V30 1238 C 110.842 1.20049 5.21049 0
M  V30 1239 C 112.142 3.1294 4.1817 0
M  V30 1240 H 113.836 2.00873 2.22014 0
M  V30 1241 H 111.382 0.967191 1.06684 0
M  V30 1242 H 113.335 0.556505 4.17709 0
M  V30 1243 H 112.059 -0.275819 3.25433 0
M  V30 1244 H 110.718 1.8547 3.16222 0
M  V30 1245 H 110.366 0.223499 5.02503 0
M  V30 1246 H 110.066 1.89545 5.56189 0
M  V30 1247 H 111.59 1.07782 6.01012 0
M  V30 1248 H 113.004 3.03775 4.86203 0
M  V30 1249 H 111.401 3.79875 4.64559 0
M  V30 1250 H 112.471 3.6025 3.24573 0
M  V30 1251 N 113.814 -1.1601 1.06675 0
M  V30 1252 C 115.062 -1.86264 0.784229 0
M  V30 1253 C 115.383 -1.82328 -0.691488 0
M  V30 1254 O 114.653 -1.25947 -1.50047 0
M  V30 1255 H 113.233 -0.689621 0.28711 0
M  V30 1256 H 115.895 -1.40664 1.34906 0
M  V30 1257 H 114.991 -2.91595 1.11259 0
M  V30 1258 N 115.292 -0.849877 -1.32721 0
M  V30 1259 C 116.539 -0.450923 -1.97416 0
M  V30 1260 C 116.867 0.992376 -1.67279 0
M  V30 1261 O 116.122 1.71048 -0.950845 0
M  V30 1262 C 116.421 -0.631272 -3.51781 0
M  V30 1263 C 116.087 -2.04432 -4.01894 0
M  V30 1264 C 114.749 -2.4308 -4.1529 0
M  V30 1265 C 117.101 -2.96679 -4.28522 0
M  V30 1266 C 114.429 -3.73257 -4.52654 0
M  V30 1267 C 116.781 -4.26349 -4.67343 0
M  V30 1268 C 115.445 -4.64939 -4.78945 0
M  V30 1269 H 114.715 -0.165004 -0.722395 0
M  V30 1270 H 117.362 -1.07901 -1.58207 0
M  V30 1271 H 115.667 0.0800767 -3.91718 0
M  V30 1272 H 117.364 -0.302709 -3.99856 0
M  V30 1273 H 113.954 -1.73419 -3.91949 0
M  V30 1274 H 118.138 -2.68054 -4.17685 0
M  V30 1275 H 113.394 -4.02946 -4.59831 0
M  V30 1276 H 117.568 -4.97895 -4.86902 0
M  V30 1277 H 115.195 -5.65855 -5.07654 0
M  V30 1278 N 116.77 1.45427 -0.607355 0
M  V30 1279 C 117.7 2.3329 0.0989352 0
M  V30 1280 C 118.681 1.46816 0.859007 0
M  V30 1281 O 119.866 1.75588 0.829604 0
M  V30 1282 C 116.996 3.29518 1.09705 0
M  V30 1283 C 115.95 4.25626 0.450206 0
M  V30 1284 C 115.276 5.11542 1.55655 0
M  V30 1285 C 116.576 5.18505 -0.628455 0
M  V30 1286 H 118.27 2.92595 -0.634716 0
M  V30 1287 H 115.816 1.40696 -0.306681 0
M  V30 1288 H 117.769 3.89855 1.59971 0
M  V30 1289 H 116.493 2.68372 1.86129 0
M  V30 1290 H 115.152 3.66586 -0.0315886 0
M  V30 1291 H 114.8 4.46765 2.31107 0
M  V30 1292 H 114.5 5.76647 1.12925 0
M  V30 1293 H 116.024 5.74748 2.06148 0
M  V30 1294 H 117.438 5.72916 -0.209877 0
M  V30 1295 H 115.835 5.92085 -0.977489 0
M  V30 1296 H 116.905 4.60948 -1.50514 0
M  V30 1297 N 118.248 0.346503 1.53744 0
M  V30 1298 C 119.178 -0.501193 2.28058 0
M  V30 1299 C 120.159 -1.10014 1.29734 0
M  V30 1300 O 121.344 -1.12097 1.58581 0
M  V30 1301 C 118.474 -1.65078 3.05559 0
M  V30 1302 C 117.428 -1.18003 4.11411 0
M  V30 1303 C 116.754 -2.41837 4.76884 0
M  V30 1304 C 118.054 -0.278394 5.21558 0
M  V30 1305 H 119.748 0.11875 2.99164 0
M  V30 1306 H 117.294 0.0585531 1.43881 0
M  V30 1307 H 119.247 -2.25028 3.56287 0
M  V30 1308 H 117.971 -2.29767 2.32109 0
M  V30 1309 H 116.63 -0.603331 3.61601 0
M  V30 1310 H 116.278 -3.0494 4.00026 0
M  V30 1311 H 115.978 -2.1102 5.48402 0
M  V30 1312 H 117.502 -3.02508 5.30397 0
M  V30 1313 H 118.916 -0.784823 5.67903 0
M  V30 1314 H 117.313 -0.0619707 6.00068 0
M  V30 1315 H 118.383 0.684677 4.80042 0
M  V30 1316 N 119.726 -1.57421 0.075193 0
M  V30 1317 C 120.972 -1.94716 -0.587998 0
M  V30 1318 C 121.327 -0.955205 -1.67014 0
M  V30 1319 O 120.62 0.0219842 -1.91587 0
M  V30 1320 C 120.814 -3.36428 -1.20626 0
M  V30 1321 C 120.643 -4.49317 -0.185541 0
M  V30 1322 C 119.413 -5.04772 0.23099 0
M  V30 1323 C 121.611 -5.11036 0.57854 0
M  V30 1324 N 119.593 -6.01204 1.24206 0
M  V30 1325 C 120.964 -6.02998 1.44199 0
M  V30 1326 C 123.019 -4.93844 0.634237 0
M  V30 1327 C 121.722 -6.79614 2.3562 0
M  V30 1328 C 123.748 -5.71106 1.53597 0
M  V30 1329 C 123.11 -6.6272 2.38709 0
M  V30 1330 H 119.209 -0.759536 -0.186089 0
M  V30 1331 H 121.793 -1.94097 0.153128 0
M  V30 1332 H 119.964 -3.37778 -1.9173 0
M  V30 1333 H 121.696 -3.60951 -1.8302 0
M  V30 1334 H 118.451 -4.73353 -0.152807 0
M  V30 1335 H 118.875 -6.54119 1.74521 0
M  V30 1336 H 123.517 -4.22799 -0.00960004 0
M  V30 1337 H 121.235 -7.49934 3.01038 0
M  V30 1338 H 124.821 -5.59824 1.58394 0
M  V30 1339 H 123.701 -7.2146 3.07352 0
M  V30 1340 N 121.204 0.198386 -1.56346 0
M  V30 1341 C 122.453 0.917451 -1.79627 0
M  V30 1342 C 122.766 1.8456 -0.64784 0
M  V30 1343 O 123.972 2.60504 -0.764859 0
M  V30 1344 C 122.428 1.68175 -3.18191 0
M  V30 1345 C 122.036 0.798589 -4.40825 0
M  V30 1346 C 123.78 2.39065 -3.50782 0
M  V30 1347 C 121.687 1.56157 -5.70411 0
M  V30 1348 H 120.617 0.346317 -0.669762 0
M  V30 1349 H 123.268 0.170801 -1.82703 0
M  V30 1350 H 121.65 2.47216 -3.09354 0
M  V30 1351 H 122.824 0.0470665 -4.60776 0
M  V30 1352 H 121.139 0.200686 -4.15916 0
M  V30 1353 H 123.736 2.96692 -4.44835 0
M  V30 1354 H 124.079 3.13091 -2.74371 0
M  V30 1355 H 124.612 1.66993 -3.61052 0
M  V30 1356 H 121.351 0.864142 -6.49779 0
M  V30 1357 H 120.871 2.2871 -5.54483 0
M  V30 1358 H 122.55 2.11622 -6.11412 0
M  V30 1359 N 122.682 1.50554 0.465978 0
M  V30 1360 C 123.928 1.62038 1.21949 0
M  V30 1361 C 124.261 0.322116 1.9151 0
M  V30 1362 O 123.536 -0.676723 1.82348 0
M  V30 1363 C 123.819 2.80421 2.25912 0
M  V30 1364 C 123.672 4.20144 1.60622 0
M  V30 1365 C 124.991 2.94354 3.27176 0
M  V30 1366 H 122.11 0.589752 0.441998 0
M  V30 1367 H 124.752 1.82956 0.51257 0
M  V30 1368 H 122.902 2.62717 2.86203 0
M  V30 1369 H 124.574 4.49449 1.03889 0
M  V30 1370 H 122.817 4.24165 0.909211 0
M  V30 1371 H 123.488 4.98914 2.36196 0
M  V30 1372 H 125.964 3.10578 2.76913 0
M  V30 1373 H 124.84 3.788 3.97242 0
M  V30 1374 H 125.101 2.05186 3.916 0
M  V30 1375 N 124.16 -0.719506 1.40217 0
M  V30 1376 C 125.4 -1.49181 1.39729 0
M  V30 1377 C 125.764 -1.92 -0.00250614 0
M  V30 1378 O 126.965 -2.68473 -0.132479 0
M  V30 1379 C 125.236 -2.68767 2.35582 0
M  V30 1380 S 126.795 -3.58224 2.53418 0
M  V30 1381 H 123.613 -0.510091 0.495307 0
M  V30 1382 H 126.215 -0.841724 1.76452 0
M  V30 1383 H 124.919 -2.35475 3.36124 0
M  V30 1384 H 124.45 -3.38691 2.0013 0
M  V30 1385 H 126.465 -4.63033 1.78367 0
M  V30 1386 N 125.638 -1.25649 -0.95132 0
M  V30 1387 C 126.884 -1.11766 -1.69941 0
M  V30 1388 C 127.239 0.33735 -1.89419 0
M  V30 1389 O 126.532 1.24491 -1.45645 0
M  V30 1390 C 126.726 -1.80909 -3.08231 0
M  V30 1391 C 126.555 -3.32984 -3.02245 0
M  V30 1392 C 125.325 -4.02247 -3.05819 0
M  V30 1393 C 127.523 -4.29332 -2.83157 0
M  V30 1394 N 125.505 -5.41072 -2.90024 0
M  V30 1395 C 126.876 -5.55265 -2.75828 0
M  V30 1396 C 128.931 -4.19707 -2.67863 0
M  V30 1397 C 127.634 -6.72671 -2.54767 0
M  V30 1398 C 129.66 -5.36809 -2.48173 0
M  V30 1399 C 129.022 -6.61683 -2.41567 0
M  V30 1400 H 125.121 -0.463708 -0.629682 0
M  V30 1401 H 127.705 -1.58796 -1.12659 0
M  V30 1402 H 125.876 -1.36369 -3.63673 0
M  V30 1403 H 127.608 -1.59739 -3.71841 0
M  V30 1404 H 124.363 -3.53531 -3.15139 0
M  V30 1405 H 124.787 -6.13938 -2.85323 0
M  V30 1406 H 129.429 -3.23907 -2.71743 0
M  V30 1407 H 127.147 -7.68577 -2.49629 0
M  V30 1408 H 130.733 -5.31224 -2.37259 0
M  V30 1409 H 129.613 -7.50768 -2.26531 0
M  V30 1410 N 127.117 1.15442 -1.07289 0
M  V30 1411 C 128.08 2.18358 -0.696591 0
M  V30 1412 C 129.08 1.58637 0.262837 0
M  V30 1413 O 130.27 1.74145 0.0438809 0
M  V30 1414 C 127.402 3.4089 -0.0266151 0
M  V30 1415 H 128.595 2.53162 -1.60776 0
M  V30 1416 H 126.148 1.29893 -0.869342 0
M  V30 1417 H 126.883 3.11653 0.896822 0
M  V30 1418 H 126.668 3.85495 -0.716657 0
M  V30 1419 H 128.158 4.17009 0.222028 0
M  V30 1420 N 128.595 0.856903 1.32268 0
M  V30 1421 C 129.872 0.382583 1.91822 0
M  V30 1422 C 130.252 -1.13407 1.78051 0
M  V30 1423 O 129.6 -1.95673 1.18001 0
M  V30 1424 C 129.81 0.849446 3.38505 0
M  V30 1425 C 131.158 0.867936 4.15634 0
M  V30 1426 O 132.182 0.794232 3.47232 0
M  V30 1427 O 131.041 0.972286 5.37781 0
M  V30 1428 H 128.135 0.112014 0.819379 0
M  V30 1429 H 130.681 0.943952 1.41024 0
M  V30 1430 H 129.453 1.89267 3.42482 0
M  V30 1431 H 129.076 0.265652 3.96712 0
M  V30 1432 N 130.073 -1.45103 0.615059 0
M  V30 1433 C 131.003 -2.33339 -0.0865619 0
M  V30 1434 C 131.984 -1.4727 -0.851209 0
M  V30 1435 O 133.169 -1.76026 -0.820281 0
M  V30 1436 C 130.299 -3.30095 -1.07956 0
M  V30 1437 C 129.253 -4.25858 -0.427628 0
M  V30 1438 C 128.579 -5.12361 -1.5294 0
M  V30 1439 C 129.879 -5.18165 0.655944 0
M  V30 1440 H 131.573 -2.92254 0.650224 0
M  V30 1441 H 129.119 -1.40532 0.314138 0
M  V30 1442 H 131.072 -3.90698 -1.57901 0
M  V30 1443 H 129.796 -2.69355 -1.84703 0
M  V30 1444 H 128.455 -3.66564 0.0510292 0
M  V30 1445 H 128.103 -4.47984 -2.28734 0
M  V30 1446 H 127.803 -5.77238 -1.09865 0
M  V30 1447 H 129.327 -5.75833 -2.03098 0
M  V30 1448 H 130.741 -5.72796 0.240257 0
M  V30 1449 H 129.138 -5.91559 1.00888 0
M  V30 1450 H 130.208 -4.60144 1.52957 0
M  V30 1451 N 131.551 -0.354651 -1.53558 0
M  V30 1452 C 132.798 0.238443 -2.01091 0
M  V30 1453 C 133.126 1.49663 -1.24222 0
M  V30 1454 O 132.381 1.93049 -0.321003 0
M  V30 1455 C 132.68 0.587121 -3.52545 0
M  V30 1456 C 132.346 -0.575472 -4.47213 0
M  V30 1457 C 131.008 -0.894497 -4.72813 0
M  V30 1458 C 133.36 -1.35489 -5.03281 0
M  V30 1459 C 130.688 -1.99511 -5.51736 0
M  V30 1460 C 133.04 -2.44583 -5.83405 0
M  V30 1461 C 131.704 -2.77033 -6.07296 0
M  V30 1462 H 130.974 0.0872526 -0.735845 0
M  V30 1463 H 133.621 -0.484859 -1.8526 0
M  V30 1464 H 131.926 1.39129 -3.66265 0
M  V30 1465 H 133.623 1.05809 -3.86789 0
M  V30 1466 H 130.213 -0.316774 -4.27428 0
M  V30 1467 H 134.397 -1.12167 -4.83459 0
M  V30 1468 H 129.653 -2.25063 -5.68469 0
M  V30 1469 H 133.827 -3.05401 -6.25862 0
M  V30 1470 H 131.454 -3.6244 -6.68237 0
M  V30 1471 N 133.029 1.57378 -0.0835403 0
M  V30 1472 C 134.259 1.97975 0.590713 0
M  V30 1473 C 134.667 0.961083 1.62972 0
M  V30 1474 O 134.01 -0.0590879 1.83605 0
M  V30 1475 C 134.072 3.34915 1.3066 0
M  V30 1476 C 133.736 4.55069 0.419698 0
M  V30 1477 C 134.733 5.18868 -0.32749 0
M  V30 1478 C 132.418 5.0114 0.341137 0
M  V30 1479 C 134.412 6.27098 -1.14134 0
M  V30 1480 C 132.099 6.0924 -0.476374 0
M  V30 1481 C 133.097 6.72083 -1.21627 0
M  V30 1482 O 132.785 7.781 -2.02028 0
M  V30 1483 H 132.517 0.655818 0.163947 0
M  V30 1484 H 135.071 2.04807 -0.156021 0
M  V30 1485 H 133.301 3.24733 2.09966 0
M  V30 1486 H 134.99 3.60037 1.87424 0
M  V30 1487 H 135.756 4.84211 -0.276459 0
M  V30 1488 H 131.635 4.51996 0.90668 0
M  V30 1489 H 135.179 6.7608 -1.71935 0
M  V30 1490 H 131.076 6.43329 -0.528927 0
M  V30 1491 H 131.844 7.95034 -1.94586 0
M  V30 1492 N 134.507 -0.190092 1.56449 0
M  V30 1493 C 135.732 -0.929864 1.85387 0
M  V30 1494 C 136.157 -1.7585 0.667704 0
M  V30 1495 O 135.515 -1.77198 -0.383459 0
M  V30 1496 C 135.563 -1.79773 3.12593 0
M  V30 1497 O 134.667 -2.89713 2.93496 0
M  V30 1498 H 134.008 -0.261574 0.610307 0
M  V30 1499 H 136.538 -0.193896 2.03679 0
M  V30 1500 H 136.548 -2.20139 3.43515 0
M  V30 1501 H 135.223 -1.18892 3.98544 0
M  V30 1502 H 133.8 -2.53065 2.73884 0
M  V30 1503 N 135.985 -1.50799 -0.457987 0
M  V30 1504 C 137.232 -1.62442 -1.20908 0
M  V30 1505 C 137.56 -0.330865 -1.91665 0
M  V30 1506 O 136.815 0.68401 -1.83357 0
M  V30 1507 C 137.114 -2.76358 -2.2663 0
M  V30 1508 C 136.78 -4.16378 -1.73033 0
M  V30 1509 C 135.442 -4.54473 -1.58138 0
M  V30 1510 C 137.794 -5.03836 -1.33413 0
M  V30 1511 C 135.122 -5.77754 -1.02065 0
M  V30 1512 C 137.474 -6.27676 -0.78778 0
M  V30 1513 C 136.138 -6.64562 -0.625561 0
M  V30 1514 H 135.408 -0.594417 -0.442435 0
M  V30 1515 H 138.055 -1.84772 -0.503136 0
M  V30 1516 H 136.36 -2.48167 -3.03184 0
M  V30 1517 H 138.057 -2.82568 -2.84528 0
M  V30 1518 H 134.647 -3.86331 -1.85598 0
M  V30 1519 H 138.831 -4.75026 -1.4375 0
M  V30 1520 H 134.087 -6.04997 -0.882547 0
M  V30 1521 H 138.261 -6.94797 -0.472177 0
M  V30 1522 H 135.888 -7.59965 -0.188926 0
M  V30 1523 N 137.463 0.71206 -1.40597 0
M  V30 1524 C 138.709 1.47292 -1.40274 0
M  V30 1525 C 139.064 1.92399 -0.00576812 0
M  V30 1526 O 138.357 1.65507 0.965297 0
M  V30 1527 C 138.551 2.71039 -2.32965 0
M  V30 1528 C 138.38 2.38035 -3.81536 0
M  V30 1529 C 137.15 2.29203 -4.50327 0
M  V30 1530 C 139.348 2.02076 -4.72938 0
M  V30 1531 N 137.33 1.88911 -5.84111 0
M  V30 1532 C 138.701 1.72412 -5.95545 0
M  V30 1533 C 140.756 1.88742 -4.60739 0
M  V30 1534 C 139.459 1.30756 -7.07316 0
M  V30 1535 C 141.485 1.4849 -5.72455 0
M  V30 1536 C 140.847 1.19726 -6.94151 0
M  V30 1537 H 136.946 0.536919 -0.568544 0
M  V30 1538 H 139.53 0.825424 -1.76337 0
M  V30 1539 H 137.701 3.33533 -1.99023 0
M  V30 1540 H 139.433 3.37404 -2.23474 0
M  V30 1541 H 136.188 2.47059 -4.04053 0
M  V30 1542 H 136.612 1.71293 -6.54972 0
M  V30 1543 H 141.254 2.0964 -3.67166 0
M  V30 1544 H 138.972 1.08601 -8.00769 0
M  V30 1545 H 142.558 1.38747 -5.65014 0
M  V30 1546 H 141.438 0.890482 -7.79128 0
M  V30 1547 N 138.941 1.26152 0.944643 0
M  V30 1548 C 139.851 1.09176 2.07648 0
M  V30 1549 C 140.867 0.0261935 1.7398 0
M  V30 1550 O 142.043 0.229208 2.00091 0
M  V30 1551 C 139.108 0.722915 3.39079 0
M  V30 1552 C 138.169 1.86752 3.86552 0
M  V30 1553 C 137.402 1.51617 5.11711 0
M  V30 1554 O 137.625 0.416331 5.68879 0
M  V30 1555 O 136.559 2.34975 5.54139 0
M  V30 1556 H 140.385 2.0412 2.24875 0
M  V30 1557 H 137.97 1.05182 1.061 0
M  V30 1558 H 139.852 0.529787 4.18056 0
M  V30 1559 H 138.527 -0.197159 3.23099 0
M  V30 1560 H 137.434 2.11558 3.08535 0
M  V30 1561 H 138.767 2.76719 4.07047 0
M  V30 1562 N 140.419 -1.14872 1.07899 0
M  V30 1563 C 141.835 -1.37776 0.805606 0
M  V30 1564 C 142.035 -1.92743 -0.587555 0
M  V30 1565 O 141.091 -2.13678 -1.34528 0
M  V30 1566 C 142.404 -2.34361 1.88402 0
M  V30 1567 C 143.952 -2.48012 1.90942 0
M  V30 1568 C 144.427 -3.47893 2.97883 0
M  V30 1569 N 145.918 -3.55433 2.97021 0
M  V30 1570 C 146.653 -4.32553 3.76412 0
M  V30 1571 N 146.149 -5.12959 4.65666 0
M  V30 1572 N 147.942 -4.27697 3.64735 0
M  V30 1573 H 140.093 -0.775365 1.97742 0
M  V30 1574 H 142.356 -0.403521 0.857831 0
M  V30 1575 H 142.062 -2.01098 2.88535 0
M  V30 1576 H 141.936 -3.34206 1.74889 0
M  V30 1577 H 144.323 -2.8057 0.914579 0
M  V30 1578 H 144.404 -1.48147 2.08534 0
M  V30 1579 H 144.048 -3.16069 3.97571 0
M  V30 1580 H 143.978 -4.47527 2.77538 0
M  V30 1581 H 146.469 -2.98048 2.32326 0
M  V30 1582 H 146.782 -5.69065 5.22862 0
M  V30 1583 H 145.127 -5.12245 4.69712 0
M  V30 1584 H 148.318 -3.63949 2.94378 0
M  V30 1585 H 148.491 -4.8755 4.26848 0
M  V30 1586 N 141.898 -0.863906 -1.31812 0
M  V30 1587 C 143.123 -0.48527 -2.01643 0
M  V30 1588 C 143.548 0.913058 -1.64453 0
M  V30 1589 O 142.906 1.6014 -0.849985 0
M  V30 1590 C 142.954 -0.642625 -3.54828 0
M  V30 1591 O 142.058 0.320659 -4.11151 0
M  V30 1592 H 141.399 -0.193793 -0.635091 0
M  V30 1593 H 143.929 -1.16565 -1.68148 0
M  V30 1594 H 143.939 -0.533628 -4.04495 0
M  V30 1595 H 142.614 -1.66227 -3.81237 0
M  V30 1596 H 141.191 0.167126 -3.72525 0
M  V30 1597 N 143.376 1.44774 -0.622745 0
M  V30 1598 C 144.792 1.56986 -0.287652 0
M  V30 1599 C 144.992 1.61167 1.20944 0
M  V30 1600 O 144.048 1.55015 1.99315 0
M  V30 1601 C 145.361 2.84551 -0.972188 0
M  V30 1602 C 146.909 2.9825 -0.949536 0
M  V30 1603 C 147.384 4.28605 -1.61437 0
M  V30 1604 N 148.875 4.35399 -1.58057 0
M  V30 1605 C 149.61 5.34964 -2.064 0
M  V30 1606 N 149.106 6.40981 -2.62897 0
M  V30 1607 N 150.899 5.26419 -1.97078 0
M  V30 1608 H 143.05 1.40304 -1.59463 0
M  V30 1609 H 145.313 0.671794 -0.668878 0
M  V30 1610 H 145.019 2.87417 -2.02693 0
M  V30 1611 H 144.893 3.73807 -0.504771 0
M  V30 1612 H 147.28 2.94941 0.0967067 0
M  V30 1613 H 147.361 2.10364 -1.45536 0
M  V30 1614 H 147.005 4.32672 -2.66002 0
M  V30 1615 H 146.935 5.15334 -1.08344 0
M  V30 1616 H 149.426 3.59397 -1.16801 0
M  V30 1617 H 149.739 7.13225 -2.97539 0
M  V30 1618 H 148.084 6.4169 -2.66943 0
M  V30 1619 H 151.275 4.42504 -1.52669 0
M  V30 1620 H 151.448 6.03861 -2.35066 0
M  V30 1621 N 144.854 0.36279 1.53368 0
M  V30 1622 C 146.102 -0.227326 2.00817 0
M  V30 1623 C 146.423 -1.49511 1.25186 0
M  V30 1624 O 145.693 -1.92482 0.364348 0
M  V30 1625 H 144.273 -0.0869923 0.741917 0
M  V30 1626 H 146.935 0.488381 1.88682 0
M  V30 1627 H 146.031 -0.456273 3.08747 0
M  V30 1628 N 146.332 -1.57332 0.0918853 0
M  V30 1629 C 147.581 -1.93412 -0.572249 0
M  V30 1630 C 147.894 -0.975515 -1.69538 0
M  V30 1631 O 149.1 -1.22991 -2.42045 0
M  V30 1632 C 147.556 -3.43648 -1.0693 0
M  V30 1633 C 147.164 -4.47994 0.0239049 0
M  V30 1634 C 148.908 -3.88695 -1.70635 0
M  V30 1635 C 146.815 -5.89381 -0.488319 0
M  V30 1636 H 145.745 -0.721939 -0.217532 0
M  V30 1637 H 148.396 -1.82735 0.167369 0
M  V30 1638 H 146.778 -3.49466 -1.8625 0
M  V30 1639 H 147.952 -4.53815 0.799277 0
M  V30 1640 H 146.267 -4.12536 0.565946 0
M  V30 1641 H 148.864 -4.91725 -2.10025 0
M  V30 1642 H 149.207 -3.27166 -2.57426 0
M  V30 1643 H 149.74 -3.85564 -0.979023 0
M  V30 1644 H 146.479 -6.54602 0.342906 0
M  V30 1645 H 145.999 -5.87037 -1.23077 0
M  V30 1646 H 147.678 -6.39863 -0.958317 0
M  V30 1647 N 147.81 0.181792 -1.56548 0
M  V30 1648 C 149.057 0.900097 -1.81396 0
M  V30 1649 C 149.385 1.82695 -0.667281 0
M  V30 1650 O 148.64 1.92614 0.346146 0
M  V30 1651 C 148.939 1.73728 -3.12335 0
M  V30 1652 C 148.605 0.960255 -4.40556 0
M  V30 1653 C 147.267 0.745766 -4.75386 0
M  V30 1654 C 149.619 0.414477 -5.19549 0
M  V30 1655 C 146.947 -0.0257694 -5.86694 0
M  V30 1656 C 149.299 -0.343916 -6.31664 0
M  V30 1657 C 147.963 -0.569301 -6.65068 0
M  V30 1658 H 147.233 0.329369 -0.663775 0
M  V30 1659 H 149.88 0.165647 -1.90782 0
M  V30 1660 H 148.185 2.54081 -2.98245 0
M  V30 1661 H 149.882 2.29591 -3.28769 0
M  V30 1662 H 146.472 1.13746 -4.13231 0
M  V30 1663 H 150.656 0.567554 -4.93044 0
M  V30 1664 H 145.912 -0.210233 -6.11038 0
M  V30 1665 H 150.086 -0.774133 -6.92084 0
M  V30 1666 H 147.713 -1.16903 -7.51158 0
M  V30 1667 N 149.288 1.51039 0.449983 0
M  V30 1668 C 150.218 1.74379 1.55288 0
M  V30 1669 C 151.199 0.593236 1.5942 0
M  V30 1670 O 152.384 0.834625 1.7535 0
M  V30 1671 C 149.514 1.85728 2.93466 0
M  V30 1672 C 148.468 3.01078 3.04197 0
M  V30 1673 C 147.794 2.97595 4.44231 0
M  V30 1674 C 149.094 4.41254 2.7945 0
M  V30 1675 H 150.788 2.66725 1.36008 0
M  V30 1676 H 148.334 1.2835 0.652864 0
M  V30 1677 H 150.287 2.0064 3.70569 0
M  V30 1678 H 149.011 0.900207 3.13949 0
M  V30 1679 H 147.67 2.85851 2.29531 0
M  V30 1680 H 147.318 1.99691 4.61663 0
M  V30 1681 H 147.018 3.75046 4.52343 0
M  V30 1682 H 148.542 3.14583 5.23326 0
M  V30 1683 H 149.956 4.56897 3.46292 0
M  V30 1684 H 148.353 5.20315 2.98985 0
M  V30 1685 H 149.423 4.52164 1.75144 0
M  V30 1686 N 150.766 -0.704594 1.40972 0
M  V30 1687 C 151.729 -1.80035 1.41845 0
M  V30 1688 C 152.729 -1.57774 0.310474 0
M  V30 1689 O 153.919 -1.64613 0.56992 0
M  V30 1690 C 151.051 -3.18284 1.22098 0
M  V30 1691 H 152.244 -1.80658 2.3938 0
M  V30 1692 H 149.797 -0.911329 1.26982 0
M  V30 1693 H 150.532 -3.23306 0.253672 0
M  V30 1694 H 150.317 -3.35843 2.02366 0
M  V30 1695 H 151.807 -3.98289 1.25522 0
M  V30 1696 N 152.244 -1.26651 -0.937939 0
M  V30 1697 C 153.655 -1.1125 -1.49934 0
M  V30 1698 C 154.006 0.306077 -1.93798 0
M  V30 1699 O 153.131 1.19792 -1.80219 0
M  V30 1700 C 153.726 -2.01339 -2.72485 0
M  V30 1701 C 152.285 -1.90074 -3.24883 0
M  V30 1702 C 151.432 -1.94498 -1.97651 0
M  V30 1703 H 154.383 -1.39693 -0.753091 0
M  V30 1704 H 154.404 -1.56319 -3.46907 0
M  V30 1705 H 153.916 -3.04577 -2.40529 0
M  V30 1706 H 152.017 -0.897827 -3.61621 0
M  V30 1707 H 152.13 -2.75778 -3.9177 0
M  V30 1708 H 150.494 -1.38591 -2.13693 0
M  V30 1709 H 151.277 -2.99372 -1.68022 0
M  V30 1710 N 153.722 1.14298 -1.08507 0
M  V30 1711 C 154.968 1.85633 -0.816581 0
M  V30 1712 C 155.301 1.82784 0.656021 0
M  V30 1713 O 154.576 1.25926 1.48233 0
M  V30 1714 C 154.859 3.34223 -1.34041 0
M  V30 1715 C 154.712 3.45639 -2.87843 0
M  V30 1716 C 156.031 4.29356 -0.9665 0
M  V30 1717 H 153.15 0.67402 -0.298104 0
M  V30 1718 H 155.792 1.34214 -1.34487 0
M  V30 1719 H 153.942 3.78144 -0.89104 0
M  V30 1720 H 155.614 3.10498 -3.41158 0
M  V30 1721 H 153.857 2.86817 -3.25451 0
M  V30 1722 H 154.528 4.50089 -3.19569 0
M  V30 1723 H 157.004 3.93457 -1.35391 0
M  V30 1724 H 155.88 5.3178 -1.3602 0
M  V30 1725 H 156.141 4.41919 0.126362 0
M  V30 1726 N 155.201 0.870884 1.31352 0
M  V30 1727 C 156.448 0.482273 1.96673 0
M  V30 1728 C 156.776 -0.965638 1.68836 0
M  V30 1729 O 156.031 -1.69514 0.977937 0
M  V30 1730 C 156.33 0.687157 3.50732 0
M  V30 1731 C 155.996 2.108 3.9859 0
M  V30 1732 C 154.658 2.49656 4.1137 0
M  V30 1733 C 157.01 3.03459 4.23748 0
M  V30 1734 C 154.338 3.80412 4.46659 0
M  V30 1735 C 156.69 4.3373 4.60501 0
M  V30 1736 C 155.354 4.725 4.71487 0
M  V30 1737 H 154.624 0.176476 0.719679 0
M  V30 1738 H 157.271 1.10405 1.56471 0
M  V30 1739 H 155.576 -0.0177476 3.91796 0
M  V30 1740 H 157.273 0.366284 3.99324 0
M  V30 1741 H 153.863 1.79633 3.8914 0
M  V30 1742 H 158.047 2.74665 4.13368 0
M  V30 1743 H 153.303 4.1021 4.53362 0
M  V30 1744 H 157.477 5.05578 4.78919 0
M  V30 1745 H 155.104 5.73859 4.98588 0
M  V30 1746 N 156.679 -1.44442 0.630414 0
M  V30 1747 C 157.609 -2.33418 -0.0618083 0
M  V30 1748 C 158.59 -1.48165 -0.835541 0
M  V30 1749 O 159.775 -1.76886 -0.801564 0
M  V30 1750 C 156.905 -3.31222 -1.04449 0
M  V30 1751 C 155.859 -4.26288 -0.382436 0
M  V30 1752 C 155.185 -5.13954 -1.47497 0
M  V30 1753 C 156.485 -5.1744 0.710865 0
M  V30 1754 H 158.179 -2.91548 0.681184 0
M  V30 1755 H 155.725 -1.40191 0.329026 0
M  V30 1756 H 157.678 -3.92351 -1.53748 0
M  V30 1757 H 156.402 -2.71299 -1.81836 0
M  V30 1758 H 155.061 -3.6649 0.0899054 0
M  V30 1759 H 154.709 -4.50385 -2.2397 0
M  V30 1760 H 154.409 -5.7837 -1.03737 0
M  V30 1761 H 155.933 -5.77955 -1.96979 0
M  V30 1762 H 157.347 -5.72509 0.300996 0
M  V30 1763 H 155.744 -5.90455 1.07156 0
M  V30 1764 H 156.814 -4.58496 1.57829 0
M  V30 1765 N 158.157 -0.370918 -1.53173 0
M  V30 1766 C 159.403 0.217423 -2.01631 0
M  V30 1767 C 159.736 1.47983 -1.25756 0
M  V30 1768 O 159.011 1.91274 -0.352764 0
M  V30 1769 C 159.294 0.503982 -3.56556 0
M  V30 1770 C 159.147 -0.77243 -4.43118 0
M  V30 1771 C 160.466 1.30234 -4.20389 0
M  V30 1772 H 157.585 0.0775486 -0.732909 0
M  V30 1773 H 160.227 -0.496863 -1.83388 0
M  V30 1774 H 158.377 1.11248 -3.72231 0
M  V30 1775 H 160.049 -1.4098 -4.39229 0
M  V30 1776 H 158.292 -1.39167 -4.10871 0
M  V30 1777 H 158.963 -0.526815 -5.4948 0
M  V30 1778 H 161.439 0.787546 -4.08579 0
M  V30 1779 H 160.315 1.47158 -5.28806 0
M  V30 1780 H 160.576 2.31237 -3.76805 0
M  V30 1781 N 159.635 1.57281 -0.100228 0
M  V30 1782 C 160.86 1.99302 0.573881 0
M  V30 1783 C 161.285 0.979059 1.60611 0
M  V30 1784 O 160.643 -0.0517803 1.81226 0
M  V30 1785 C 160.691 3.40274 1.19358 0
M  V30 1786 O 159.795 3.41676 2.30935 0
M  V30 1787 H 159.136 0.647944 0.145138 0
M  V30 1788 H 161.666 2.03779 -0.183156 0
M  V30 1789 H 161.676 3.78078 1.53365 0
M  V30 1790 H 160.351 4.13594 0.437385 0
M  V30 1791 H 158.928 3.15672 1.98509 0
M  V30 1792 N 161.113 -0.173488 1.56642 0
M  V30 1793 C 162.524 -0.736155 1.71574 0
M  V30 1794 C 162.875 -1.82888 0.710389 0
M  V30 1795 O 162 -2.16017 -0.1287 0
M  V30 1796 C 162.595 -1.34211 3.11083 0
M  V30 1797 C 161.154 -1.85162 3.27707 0
M  V30 1798 C 160.301 -0.729765 2.67525 0
M  V30 1799 H 163.252 0.0518786 1.58615 0
M  V30 1800 H 163.273 -2.21178 3.09613 0
M  V30 1801 H 162.785 -0.546579 3.84232 0
M  V30 1802 H 160.886 -2.67366 2.59512 0
M  V30 1803 H 160.999 -1.99855 4.35425 0
M  V30 1804 H 159.363 -1.14965 2.27278 0
M  V30 1805 H 160.146 0.0538806 3.43258 0
M  V30 1806 N 162.591 -1.51276 -0.441967 0
M  V30 1807 C 163.819 -1.67516 -1.21434 0
M  V30 1808 C 164.234 -0.37055 -1.85128 0
M  V30 1809 O 163.591 0.650498 -1.70513 0
M  V30 1810 C 163.642 -2.78748 -2.30177 0
M  V30 1811 O 163.363 -4.04154 -1.69089 0
M  V30 1812 C 164.864 -3.06217 -3.20541 0
M  V30 1813 H 162.084 -0.562276 -0.366178 0
M  V30 1814 H 164.628 -1.97666 -0.524244 0
M  V30 1815 H 162.783 -2.5121 -2.94911 0
M  V30 1816 H 163.197 -4.65894 -2.40922 0
M  V30 1817 H 164.671 -3.8764 -3.92987 0
M  V30 1818 H 165.148 -2.18439 -3.81026 0
M  V30 1819 H 165.754 -3.35397 -2.61513 0
M  V30 1820 N 164.069 0.697108 -1.41344 0
M  V30 1821 C 164.999 1.82353 -1.45841 0
M  V30 1822 C 165.98 1.67115 -0.317247 0
M  V30 1823 O 167.165 1.86871 -0.528474 0
M  V30 1824 C 164.295 3.20476 -1.33838 0
M  V30 1825 C 163.249 3.50415 -2.4575 0
M  V30 1826 C 162.575 4.87878 -2.18813 0
M  V30 1827 C 163.875 3.49546 -3.88091 0
M  V30 1828 H 165.569 1.78846 -2.40113 0
M  V30 1829 H 163.115 0.859028 -1.15571 0
M  V30 1830 H 165.068 3.98988 -1.35596 0
M  V30 1831 H 163.792 3.24604 -0.360498 0
M  V30 1832 H 162.451 2.74253 -2.43271 0
M  V30 1833 H 162.099 4.8863 -1.19371 0
M  V30 1834 H 161.799 5.08875 -2.93803 0
M  V30 1835 H 163.323 5.68702 -2.22284 0
M  V30 1836 H 164.737 4.18066 -3.92293 0
M  V30 1837 H 163.134 3.82075 -4.62751 0
M  V30 1838 H 164.204 2.48552 -4.16353 0
M  V30 1839 N 165.547 1.27147 0.931209 0
M  V30 1840 C 166.477 1.12081 2.04842 0
M  V30 1841 C 167.458 0.0232364 1.70084 0
M  V30 1842 O 168.643 0.197085 1.93197 0
M  V30 1843 C 165.773 0.76354 3.38803 0
M  V30 1844 C 164.727 1.81396 3.87659 0
M  V30 1845 C 164.053 1.31075 5.18385 0
M  V30 1846 C 165.353 3.21739 4.11438 0
M  V30 1847 H 167.047 2.05537 2.17703 0
M  V30 1848 H 164.593 0.989603 1.04608 0
M  V30 1849 H 166.546 0.644982 4.16435 0
M  V30 1850 H 165.27 -0.206727 3.25945 0
M  V30 1851 H 163.929 1.92136 3.12217 0
M  V30 1852 H 163.577 0.330037 5.01916 0
M  V30 1853 H 163.277 2.013 5.52044 0
M  V30 1854 H 164.801 1.20506 5.98591 0
M  V30 1855 H 166.215 3.14019 4.79651 0
M  V30 1856 H 164.612 3.89644 4.56397 0
M  V30 1857 H 165.682 3.67054 3.16859 0
M  V30 1858 N 167.025 -1.13721 1.09112 0
M  V30 1859 C 168.273 -1.84559 0.823562 0
M  V30 1860 C 168.594 -1.83754 -0.652658 0
M  V30 1861 O 167.864 -1.29102 -1.47342 0
M  V30 1862 H 166.444 -0.683376 0.301673 0
M  V30 1863 H 169.106 -1.37771 1.37859 0
M  V30 1864 H 168.202 -2.8917 1.17419 0
M  V30 1865 N 168.503 -0.877838 -1.30888 0
M  V30 1866 C 169.752 -0.488793 -1.95688 0
M  V30 1867 C 170.065 0.965485 -1.70111 0
M  V30 1868 O 171.271 1.46104 -2.28836 0
M  V30 1869 C 169.727 -0.823201 -3.50359 0
M  V30 1870 C 169.335 -2.29477 -3.84765 0
M  V30 1871 C 171.079 -0.503009 -4.21509 0
M  V30 1872 C 168.986 -2.57118 -5.32583 0
M  V30 1873 H 167.916 -0.179062 -0.732429 0
M  V30 1874 H 170.567 -1.07183 -1.48943 0
M  V30 1875 H 168.949 -0.169331 -3.95638 0
M  V30 1876 H 170.123 -2.99236 -3.5042 0
M  V30 1877 H 168.438 -2.58178 -3.267 0
M  V30 1878 H 171.035 -0.68665 -5.30273 0
M  V30 1879 H 171.378 0.557109 -4.12555 0
M  V30 1880 H 171.911 -1.11376 -3.8189 0
M  V30 1881 H 168.65 -3.61843 -5.4658 0
M  V30 1882 H 168.17 -1.91961 -5.68253 0
M  V30 1883 H 169.849 -2.42251 -5.99936 0
M  V30 1884 N 169.982 1.44106 -0.638065 0
M  V30 1885 C 171.21 2.06336 -0.152615 0
M  V30 1886 C 171.625 1.47731 1.17563 0
M  V30 1887 O 170.982 0.602806 1.72257 0
M  V30 1888 C 171.033 3.61479 -0.0391491 0
M  V30 1889 O 170.754 4.17903 -1.31487 0
M  V30 1890 C 172.255 4.40757 0.474176 0
M  V30 1891 H 169.475 0.665862 -0.0828776 0
M  V30 1892 H 172.019 1.84862 -0.87443 0
M  V30 1893 H 170.174 3.82191 0.633142 0
M  V30 1894 H 170.588 5.11416 -1.16421 0
M  V30 1895 H 172.062 5.49707 0.502562 0
M  V30 1896 H 172.539 4.12697 1.50258 0
M  V30 1897 H 173.145 4.24979 -0.165102 0
M  V30 1898 N 171.46 0.379036 1.52974 0
M  V30 1899 C 172.393 -0.504932 2.22544 0
M  V30 1900 C 173.371 -1.0723 1.22231 0
M  V30 1901 O 174.555 -1.12589 1.51182 0
M  V30 1902 C 171.682 -1.69794 2.93066 0
M  V30 1903 C 170.728 -1.25678 4.07563 0
M  V30 1904 S 171.561 -0.246852 5.34931 0
M  V30 1905 C 172.717 -1.44588 6.08971 0
M  V30 1906 H 172.95 0.0858666 2.97176 0
M  V30 1907 H 170.483 0.163183 1.53535 0
M  V30 1908 H 172.441 -2.38219 3.34308 0
M  V30 1909 H 171.102 -2.26002 2.18133 0
M  V30 1910 H 170.295 -2.14725 4.5597 0
M  V30 1911 H 169.897 -0.651584 3.6828 0
M  V30 1912 H 172.189 -2.37469 6.34519 0
M  V30 1913 H 173.132 -1.00292 7.00962 0
M  V30 1914 H 173.54 -1.65804 5.39601 0
M  V30 1915 N 172.938 -1.57226 0.108567 0
M  V30 1916 C 173.868 -2.17778 -0.84232 0
M  V30 1917 C 174.849 -1.11487 -1.2847 0
M  V30 1918 O 176.034 -1.39681 -1.34918 0
M  V30 1919 C 173.164 -2.76888 -2.09644 0
M  V30 1920 C 172.118 -3.88669 -1.79221 0
M  V30 1921 C 171.444 -4.34541 -3.11574 0
M  V30 1922 C 172.744 -5.11251 -1.06864 0
M  V30 1923 H 174.438 -2.97489 -0.337774 0
M  V30 1924 H 171.984 -1.43097 -0.161025 0
M  V30 1925 H 173.937 -3.17904 -2.76614 0
M  V30 1926 H 172.661 -1.94451 -2.62405 0
M  V30 1927 H 171.32 -3.48213 -1.14644 0
M  V30 1928 H 170.968 -3.48977 -3.62249 0
M  V30 1929 H 170.668 -5.09914 -2.91996 0
M  V30 1930 H 172.192 -4.782 -3.7968 0
M  V30 1931 H 173.606 -5.49352 -1.63968 0
M  V30 1932 H 172.003 -5.9214 -0.974178 0
M  V30 1933 H 173.073 -4.8487 -0.0536168 0
M  V30 1934 N 174.416 0.165178 -1.56732 0
M  V30 1935 C 175.346 1.20651 -1.99914 0
M  V30 1936 C 176.327 1.45827 -0.875705 0
M  V30 1937 O 177.512 1.57057 -1.14223 0
M  V30 1938 C 174.642 2.54401 -2.36427 0
M  V30 1939 C 173.596 2.43782 -3.51787 0
M  V30 1940 C 172.922 3.82078 -3.7406 0
M  V30 1941 C 174.222 1.93732 -4.85041 0
M  V30 1942 H 175.916 0.847534 -2.87154 0
M  V30 1943 H 173.462 0.40625 -1.38151 0
M  V30 1944 H 175.415 3.27458 -2.65234 0
M  V30 1945 H 174.139 2.92098 -1.46103 0
M  V30 1946 H 172.798 1.73178 -3.23117 0
M  V30 1947 H 172.446 4.17179 -2.81017 0
M  V30 1948 H 172.146 3.7584 -4.51684 0
M  V30 1949 H 173.67 4.56712 -4.05274 0
M  V30 1950 H 175.084 2.56569 -5.12684 0
M  V30 1951 H 173.481 1.98428 -5.66345 0
M  V30 1952 H 174.551 0.891962 -4.76626 0
M  V30 1953 N 175.894 1.51508 0.433938 0
M  V30 1954 C 176.857 1.72473 1.50949 0
M  V30 1955 C 177.857 0.594725 1.49398 0
M  V30 1956 O 179.047 0.862315 1.5136 0
M  V30 1957 C 176.179 1.78431 2.90474 0
M  V30 1958 H 177.372 2.68467 1.33662 0
M  V30 1959 H 174.925 1.41549 0.662836 0
M  V30 1960 H 175.66 0.842645 3.13161 0
M  V30 1961 H 175.445 2.60558 2.93005 0
M  V30 1962 H 176.935 1.96479 3.68491 0
M  V30 1963 N 177.372 -0.689602 1.41712 0
M  V30 1964 C 178.6 -1.47827 1.44758 0
M  V30 1965 C 179.015 -1.88721 0.0545703 0
M  V30 1966 O 178.372 -1.57176 -0.927463 0
M  V30 1967 C 178.423 -2.73698 2.3616 0
M  V30 1968 O 178.144 -2.34524 3.7004 0
M  V30 1969 C 179.645 -3.67389 2.48072 0
M  V30 1970 H 176.865 -0.455357 0.49284 0
M  V30 1971 H 179.409 -0.848574 1.86063 0
M  V30 1972 H 177.564 -3.32891 1.98148 0
M  V30 1973 H 177.978 -3.15701 4.18847 0
M  V30 1974 H 179.452 -4.52475 3.16181 0
M  V30 1975 H 179.929 -4.12284 1.51388 0
M  V30 1976 H 180.535 -3.14097 2.86746 0
M  V30 1977 N 178.85 -1.27639 -0.924453 0
M  V30 1978 C 180.097 -1.14167 -1.67249 0
M  V30 1979 C 180.425 0.311863 -1.91984 0
M  V30 1980 O 179.68 1.24425 -1.51053 0
M  V30 1981 C 179.979 -1.87407 -3.04325 0
M  V30 1982 C 179.645 -3.37249 -2.99289 0
M  V30 1983 C 178.307 -3.7812 -2.97622 0
M  V30 1984 C 180.659 -4.32845 -2.90336 0
M  V30 1985 C 177.987 -5.12944 -2.8479 0
M  V30 1986 C 180.339 -5.6773 -2.79045 0
M  V30 1987 C 179.003 -6.07889 -2.7573 0
M  V30 1988 H 178.273 -0.417766 -0.612007 0
M  V30 1989 H 180.92 -1.58286 -1.07786 0
M  V30 1990 H 179.225 -1.35805 -3.67511 0
M  V30 1991 H 180.922 -1.74408 -3.61086 0
M  V30 1992 H 177.512 -3.04748 -3.01374 0
M  V30 1993 H 181.696 -4.02239 -2.90719 0
M  V30 1994 H 176.952 -5.432 -2.80612 0
M  V30 1995 H 181.126 -6.41472 -2.71083 0
M  V30 1996 H 178.753 -7.12314 -2.65544 0
M  V30 1997 N 180.328 1.1314 -1.09713 0
M  V30 1998 C 181.258 2.20748 -0.761102 0
M  V30 1999 C 182.239 1.68061 0.262566 0
M  V30 2000 O 183.424 1.93765 0.129977 0
M  V30 2001 C 180.554 3.46812 -0.184054 0
M  V30 2002 C 179.508 4.12606 -1.13757 0
M  V30 2003 C 178.834 5.33031 -0.422083 0
M  V30 2004 C 180.134 4.59603 -2.48118 0
M  V30 2005 H 181.828 2.49113 -1.66082 0
M  V30 2006 H 179.374 1.19734 -0.799987 0
M  V30 2007 H 181.327 4.21353 0.0631215 0
M  V30 2008 H 180.051 3.17851 0.750868 0
M  V30 2009 H 178.71 3.40036 -1.37007 0
M  V30 2010 H 178.358 5.00335 0.517072 0
M  V30 2011 H 178.058 5.77999 -1.05788 0
M  V30 2012 H 179.582 6.10325 -0.183277 0
M  V30 2013 H 180.996 5.25552 -2.29059 0
M  V30 2014 H 179.393 5.15321 -3.07514 0
M  V30 2015 H 180.463 3.73971 -3.08665 0
M  V30 2016 N 181.806 0.884767 1.30421 0
M  V30 2017 C 183.055 0.499164 1.95426 0
M  V30 2018 C 183.368 -0.95645 1.70621 0
M  V30 2019 O 184.574 -1.44889 2.29607 0
M  V30 2020 C 183.03 0.84177 3.49917 0
M  V30 2021 C 182.638 2.31514 3.83543 0
M  V30 2022 C 184.382 0.525355 4.21237 0
M  V30 2023 C 182.289 2.59939 5.31212 0
M  V30 2024 H 181.219 0.182944 0.73147 0
M  V30 2025 H 183.87 1.07971 1.48373 0
M  V30 2026 H 182.252 0.190311 3.95542 0
M  V30 2027 H 183.426 3.0109 3.48829 0
M  V30 2028 H 181.741 2.59907 3.25326 0
M  V30 2029 H 184.338 0.714762 5.29901 0
M  V30 2030 H 184.681 -0.535222 4.12845 0
M  V30 2031 H 185.214 1.134 3.81294 0
M  V30 2032 H 181.953 3.64736 5.44654 0
M  V30 2033 H 181.473 1.94972 5.67227 0
M  V30 2034 H 183.152 2.45429 5.98643 0
M  V30 2035 N 183.284 -1.43765 0.645699 0
M  V30 2036 C 184.216 -2.29027 -0.0890605 0
M  V30 2037 C 185.229 -1.42093 -0.794563 0
M  V30 2038 O 186.418 -1.66104 -0.653575 0
M  V30 2039 C 183.518 -3.18831 -1.14891 0
M  V30 2040 C 182.691 -4.34261 -0.523043 0
M  V30 2041 C 181.75 -5.04994 -1.47878 0
M  V30 2042 O 180.776 -5.6052 -0.990277 0
M  V30 2043 N 181.978 -5.07795 -2.81291 0
M  V30 2044 H 184.743 -2.92727 0.64272 0
M  V30 2045 H 182.304 -1.54373 0.487924 0
M  V30 2046 H 184.296 -3.63015 -1.78892 0
M  V30 2047 H 182.866 -2.56782 -1.78275 0
M  V30 2048 H 182.086 -3.93088 0.295896 0
M  V30 2049 H 183.374 -5.08728 -0.0858147 0
M  V30 2050 H 182.772 -4.64042 -3.23546 0
M  V30 2051 H 181.329 -5.55721 -3.40614 0
M  V30 2052 N 184.763 -0.387143 -1.52771 0
M  V30 2053 C 185.693 0.440551 -2.29306 0
M  V30 2054 C 186.674 1.06535 -1.32606 0
M  V30 2055 O 187.859 1.07853 -1.61497 0
M  V30 2056 C 184.989 1.56919 -3.09829 0
M  V30 2057 C 183.943 1.07054 -4.14395 0
M  V30 2058 C 183.269 2.29109 -4.83129 0
M  V30 2059 C 184.569 0.140015 -5.22112 0
M  V30 2060 H 186.263 -0.198026 -2.98744 0
M  V30 2061 H 183.809 -0.09668 -1.43675 0
M  V30 2062 H 185.762 2.15503 -3.62128 0
M  V30 2063 H 184.486 2.23532 -2.3812 0
M  V30 2064 H 183.145 0.507247 -3.63074 0
M  V30 2065 H 182.793 2.94227 -4.0797 0
M  V30 2066 H 182.493 1.96406 -5.53804 0
M  V30 2067 H 184.017 2.88339 -5.38231 0
M  V30 2068 H 185.431 0.633978 -5.69784 0
M  V30 2069 H 183.828 -0.0971485 -6.00021 0
M  V30 2070 H 184.898 -0.811711 -4.78058 0
M  V30 2071 N 186.241 1.57166 -0.116904 0
M  V30 2072 C 187.151 2.18745 0.847812 0
M  V30 2073 C 188.167 1.163 1.29423 0
M  V30 2074 O 189.343 1.48761 1.35765 0
M  V30 2075 C 186.408 2.77307 2.0809 0
M  V30 2076 C 185.469 3.94781 1.68661 0
M  V30 2077 C 184.702 4.50541 2.86091 0
M  V30 2078 O 184.925 4.05202 4.01456 0
M  V30 2079 O 183.859 5.41256 2.63298 0
M  V30 2080 H 187.685 3.01632 0.353778 0
M  V30 2081 H 185.27 1.49005 0.108599 0
M  V30 2082 H 187.152 3.14647 2.80313 0
M  V30 2083 H 185.827 1.97452 2.56504 0
M  V30 2084 H 184.734 3.62214 0.935518 0
M  V30 2085 H 186.067 4.76065 1.24991 0
M  V30 2086 N 187.719 -0.156864 1.56817 0
M  V30 2087 C 189.135 -0.50916 1.5126 0
M  V30 2088 C 189.335 -1.83897 0.823658 0
M  V30 2089 O 188.391 -2.49469 0.390055 0
M  V30 2090 C 189.704 -0.52857 2.96018 0
M  V30 2091 C 191.252 -0.614771 3.06903 0
M  V30 2092 C 191.727 -0.664938 4.53147 0
M  V30 2093 N 193.218 -0.727433 4.57452 0
M  V30 2094 C 193.953 -0.787067 5.67973 0
M  V30 2095 N 193.449 -0.806649 6.88088 0
M  V30 2096 N 195.242 -0.827195 5.5598 0
M  V30 2097 H 187.393 0.714935 2.00006 0
M  V30 2098 H 189.656 0.259526 0.911784 0
M  V30 2099 H 189.362 0.380154 3.49639 0
M  V30 2100 H 189.236 -1.36998 3.51442 0
M  V30 2101 H 191.623 -1.51392 2.53307 0
M  V30 2102 H 191.704 0.253597 2.5454 0
M  V30 2103 H 191.348 0.230011 5.07379 0
M  V30 2104 H 191.278 -1.54966 5.03282 0
M  V30 2105 H 193.769 -0.719998 3.70978 0
M  V30 2106 H 194.082 -0.853727 7.6807 0
M  V30 2107 H 192.427 -0.774687 6.90669 0
M  V30 2108 H 195.618 -0.808998 4.61056 0
M  V30 2109 H 195.791 -0.870206 6.4213 0
M  V30 2110 N 189.197 -1.51736 -0.425897 0
M  V30 2111 C 190.613 -1.40166 -0.76326 0
M  V30 2112 C 190.813 -0.492962 -1.95377 0
M  V30 2113 O 189.869 0.0475815 -2.52455 0
M  V30 2114 C 191.182 -2.82403 -1.03291 0
M  V30 2115 C 192.73 -2.91632 -1.13665 0
M  V30 2116 C 193.205 -4.34801 -1.43916 0
M  V30 2117 N 194.696 -4.3796 -1.50816 0
M  V30 2118 C 195.431 -5.4578 -1.75817 0
M  V30 2119 N 194.927 -6.63744 -1.98534 0
M  V30 2120 N 196.72 -5.33274 -1.77694 0
M  V30 2121 H 188.871 -2.09361 0.358 0
M  V30 2122 H 191.134 -0.942941 0.0978094 0
M  V30 2123 H 190.84 -3.50943 -0.230696 0
M  V30 2124 H 190.714 -3.22428 -1.95754 0
M  V30 2125 H 193.101 -2.23284 -1.92947 0
M  V30 2126 H 193.182 -2.55088 -0.190756 0
M  V30 2127 H 192.826 -5.03703 -0.65157 0
M  V30 2128 H 192.756 -4.68868 -2.39729 0
M  V30 2129 H 195.247 -3.52919 -1.35118 0
M  V30 2130 H 195.56 -7.41704 -2.17013 0
M  V30 2131 H 193.905 -6.66839 -1.95832 0
M  V30 2132 H 197.096 -4.40098 -1.59473 0
M  V30 2133 H 197.269 -6.1738 -1.9684 0
M  V30 2134 N 190.675 0.682077 -1.42076 0
M  V30 2135 C 191.622 1.79578 -1.44984 0
M  V30 2136 C 192.592 1.6332 -0.302614 0
M  V30 2137 O 193.777 1.83978 -0.505633 0
M  V30 2138 C 190.917 3.1756 -1.35091 0
M  V30 2139 C 190.03 3.45156 -2.59791 0
M  V30 2140 C 189.165 4.72826 -2.42093 0
M  V30 2141 C 188.204 4.93433 -3.62202 0
M  V30 2142 N 187.341 6.12338 -3.43491 0
M  V30 2143 H 192.181 1.76427 -2.40161 0
M  V30 2144 H 189.718 0.861376 -1.19242 0
M  V30 2145 H 191.676 3.97287 -1.27354 0
M  V30 2146 H 190.306 3.19854 -0.435133 0
M  V30 2147 H 189.358 2.59736 -2.77923 0
M  V30 2148 H 190.67 3.5628 -3.49094 0
M  V30 2149 H 189.824 5.60631 -2.319 0
M  V30 2150 H 188.563 4.63973 -1.50268 0
M  V30 2151 H 187.568 4.04073 -3.72834 0
M  V30 2152 H 188.793 5.04136 -4.54998 0
M  V30 2153 H 186.739 6.04672 -2.54377 0
M  V30 2154 H 186.656 6.2429 -4.26377 0
M  V30 2155 H 187.924 7.02841 -3.37097 0
M  V30 2156 N 192.153 1.28127 0.917671 0
M  V30 2157 C 193.401 1.14825 1.66312 0
M  V30 2158 C 193.722 -0.304379 1.9261 0
M  V30 2159 O 192.992 -1.21149 1.53947 0
M  V30 2160 H 191.572 0.421953 0.616413 0
M  V30 2161 H 194.234 1.608 1.10134 0
M  V30 2162 H 193.33 1.68489 2.62712 0
M  V30 2163 N 193.631 -1.12557 1.10312 0
M  V30 2164 C 194.877 -1.84311 0.846011 0
M  V30 2165 C 195.21 -1.83805 -0.626859 0
M  V30 2166 O 194.485 -1.28268 -1.46211 0
M  V30 2167 C 194.768 -3.32048 1.39341 0
M  V30 2168 C 194.621 -3.41016 2.93305 0
M  V30 2169 C 195.94 -4.27764 1.03468 0
M  V30 2170 H 193.059 -0.669192 0.30879 0
M  V30 2171 H 195.701 -1.32057 1.36605 0
M  V30 2172 H 193.851 -3.76678 0.951087 0
M  V30 2173 H 195.523 -3.05031 3.46055 0
M  V30 2174 H 193.766 -2.81603 3.29973 0
M  V30 2175 H 194.437 -4.44948 3.26689 0
M  V30 2176 H 196.913 -3.91253 1.41633 0
M  V30 2177 H 195.789 -5.29549 1.44463 0
M  V30 2178 H 196.05 -4.42064 -0.0560404 0
M  V30 2179 N 195.109 -0.891671 -1.2995 0
M  V30 2180 C 196.041 -0.320695 -2.26945 0
M  V30 2181 C 197.054 0.528497 -1.53983 0
M  V30 2182 O 198.243 0.346959 -1.75096 0
M  V30 2183 C 195.343 0.562066 -3.34207 0
M  V30 2184 C 194.516 -0.259576 -4.36629 0
M  V30 2185 C 193.575 0.554739 -5.23268 0
M  V30 2186 O 192.601 -0.0249311 -5.69195 0
M  V30 2187 N 193.803 1.8625 -5.4981 0
M  V30 2188 H 196.568 -1.15432 -2.76578 0
M  V30 2189 H 194.129 -0.755336 -1.432 0
M  V30 2190 H 196.121 1.11304 -3.89093 0
M  V30 2191 H 194.691 1.29637 -2.84452 0
M  V30 2192 H 193.911 -0.991986 -3.81514 0
M  V30 2193 H 195.199 -0.822564 -5.02107 0
M  V30 2194 H 194.597 2.35628 -5.14292 0
M  V30 2195 H 193.154 2.36078 -6.07545 0
M  V30 2196 N 196.587 1.43421 -0.653314 0
M  V30 2197 C 197.812 2.06678 -0.172846 0
M  V30 2198 C 198.237 1.48648 1.15262 0
M  V30 2199 O 197.595 0.596457 1.71208 0
M  V30 2200 C 197.643 3.60474 -0.0953184 0
M  V30 2201 O 196.747 4.01487 0.942442 0
M  V30 2202 H 196.088 0.657181 -0.0949155 0
M  V30 2203 H 198.618 1.83925 -0.896265 0
M  V30 2204 H 198.628 4.07905 0.0879728 0
M  V30 2205 H 197.303 4.02088 -1.06291 0
M  V30 2206 H 195.88 3.65646 0.731932 0
M  V30 2207 N 198.065 0.39524 1.52563 0
M  V30 2208 C 199.29 -0.187456 2.06551 0
M  V30 2209 C 199.715 -1.39249 1.26457 0
M  V30 2210 O 199.073 -1.78947 0.291151 0
M  V30 2211 C 199.121 -0.529985 3.56684 0
M  V30 2212 O 198.225 -1.62307 3.79118 0
M  V30 2213 H 197.566 -0.0202537 0.663691 0
M  V30 2214 H 200.096 0.564426 1.96661 0
M  V30 2215 H 200.106 -0.792598 4.00227 0
M  V30 2216 H 198.781 0.350987 4.14416 0
M  V30 2217 H 197.358 -1.3537 3.47461 0
M  V30 2218 N 199.544 -1.57102 0.125237 0
M  V30 2219 C 200.792 -1.95021 -0.530198 0
M  V30 2220 C 201.113 -1.00982 -1.66816 0
M  V30 2221 O 200.383 -0.0672693 -1.95784 0
M  V30 2222 H 198.963 -0.720046 -0.198853 0
M  V30 2223 H 201.625 -1.93916 0.19564 0
M  V30 2224 H 200.721 -2.98211 -0.920681 0
M  V30 2225 N 201.022 0.148545 -1.56898 0
M  V30 2226 C 202.271 0.85984 -1.82454 0
M  V30 2227 C 202.584 1.82406 -0.706229 0
M  V30 2228 O 203.79 2.57938 -0.847349 0
M  V30 2229 C 202.246 1.57967 -3.2338 0
M  V30 2230 C 201.854 0.65794 -4.43142 0
M  V30 2231 C 203.598 2.27784 -3.58211 0
M  V30 2232 C 201.505 1.3793 -5.75091 0
M  V30 2233 H 200.435 0.324834 -0.68044 0
M  V30 2234 H 203.086 0.112588 -1.83154 0
M  V30 2235 H 201.468 2.37249 -3.17063 0
M  V30 2236 H 202.642 -0.0995497 -4.60692 0
M  V30 2237 H 200.957 0.0682643 -4.16344 0
M  V30 2238 H 203.554 2.8239 -4.54048 0
M  V30 2239 H 203.897 3.04204 -2.84193 0
M  V30 2240 H 204.43 1.55421 -3.66182 0
M  V30 2241 H 201.169 0.656982 -6.52199 0
M  V30 2242 H 200.689 2.10954 -5.61479 0
M  V30 2243 H 202.368 1.92063 -6.17835 0
M  V30 2244 N 202.5 1.5196 0.417844 0
M  V30 2245 C 203.433 1.69387 1.52916 0
M  V30 2246 C 204.411 0.541419 1.53321 0
M  V30 2247 O 205.595 0.767695 1.72159 0
M  V30 2248 C 202.722 1.72525 2.91467 0
M  V30 2249 C 201.768 2.93967 3.09008 0
M  V30 2250 S 202.601 4.54461 2.83242 0
M  V30 2251 C 203.757 4.60372 4.24038 0
M  V30 2252 H 203.99 2.63382 1.37903 0
M  V30 2253 H 201.523 1.41889 0.608845 0
M  V30 2254 H 203.481 1.75018 3.7132 0
M  V30 2255 H 202.142 0.796733 3.03827 0
M  V30 2256 H 201.335 2.92619 4.10353 0
M  V30 2257 H 200.937 2.89316 2.37007 0
M  V30 2258 H 203.229 4.37213 5.17544 0
M  V30 2259 H 204.172 5.62273 4.30412 0
M  V30 2260 H 204.58 3.89492 4.08602 0
M  V30 2261 N 203.978 -0.674533 1.42435 0
M  V30 2262 C 204.908 -1.80009 1.48724 0
M  V30 2263 C 205.889 -1.6659 0.343793 0
M  V30 2264 O 207.074 -1.86007 0.558137 0
M  V30 2265 C 204.204 -3.18306 1.38919 0
M  V30 2266 C 203.158 -3.46461 2.51294 0
M  V30 2267 C 202.484 -4.84335 2.26547 0
M  V30 2268 C 203.784 -3.43328 3.93603 0
M  V30 2269 H 205.478 -1.75004 2.42928 0
M  V30 2270 H 203.024 -0.840533 1.16923 0
M  V30 2271 H 204.977 -3.9678 1.41927 0
M  V30 2272 H 203.701 -3.2399 0.412094 0
M  V30 2273 H 202.36 -2.70348 2.47604 0
M  V30 2274 H 202.008 -4.86669 1.2713 0
M  V30 2275 H 201.708 -5.04136 3.01861 0
M  V30 2276 H 203.232 -5.65094 2.31304 0
M  V30 2277 H 204.646 -4.11772 3.98894 0
M  V30 2278 H 203.043 -3.74664 4.68771 0
M  V30 2279 H 204.113 -2.41897 4.20255 0
M  V30 2280 N 205.456 -1.28612 -0.910864 0
M  V30 2281 C 206.684 -1.18792 -1.69399 0
M  V30 2282 C 207.099 0.253039 -1.87097 0
M  V30 2283 O 206.456 1.17071 -1.40003 0
M  V30 2284 C 206.507 -1.88511 -3.08457 0
M  V30 2285 O 206.228 -3.26979 -2.91576 0
M  V30 2286 C 207.729 -1.85029 -4.02839 0
M  V30 2287 H 204.949 -0.412233 -0.529438 0
M  V30 2288 H 207.493 -1.69788 -1.13984 0
M  V30 2289 H 205.648 -1.41379 -3.60681 0
M  V30 2290 H 206.062 -3.61936 -3.79608 0
M  V30 2291 H 207.536 -2.38395 -4.97867 0
M  V30 2292 H 208.013 -0.823303 -4.31414 0
M  V30 2293 H 208.619 -2.31853 -3.56545 0
M  V30 2294 N 206.934 1.1197 -1.10907 0
M  V30 2295 C 208.181 1.83588 -0.854507 0
M  V30 2296 C 208.509 1.84357 0.6199 0
M  V30 2297 O 207.764 1.28809 1.47332 0
M  V30 2298 C 208.063 3.30749 -1.35425 0
M  V30 2299 C 207.729 3.50146 -2.84093 0
M  V30 2300 C 206.391 3.55148 -3.2469 0
M  V30 2301 C 208.743 3.56857 -3.79872 0
M  V30 2302 C 206.071 3.6441 -4.59806 0
M  V30 2303 C 208.423 3.6765 -5.14797 0
M  V30 2304 C 207.087 3.7091 -5.54961 0
M  V30 2305 H 206.357 0.671795 -0.312686 0
M  V30 2306 H 209.004 1.32091 -1.38652 0
M  V30 2307 H 207.309 3.84703 -0.742361 0
M  V30 2308 H 209.006 3.8464 -1.1337 0
M  V30 2309 H 205.596 3.46919 -2.51685 0
M  V30 2310 H 209.78 3.52258 -3.49611 0
M  V30 2311 H 205.036 3.65208 -4.9034 0
M  V30 2312 H 209.21 3.71786 -5.88853 0
M  V30 2313 H 206.837 3.7784 -6.59652 0
M  V30 2314 N 208.412 0.89855 1.29475 0
M  V30 2315 C 209.658 0.534065 1.96263 0
M  V30 2316 C 210.013 -0.909415 1.69551 0
M  V30 2317 O 209.306 -1.63596 0.997349 0
M  V30 2318 C 209.5 0.761398 3.49195 0
M  V30 2319 C 209.329 2.22542 3.90775 0
M  V30 2320 C 208.099 2.87264 4.15701 0
M  V30 2321 C 210.297 3.20051 4.02581 0
M  V30 2322 N 208.279 4.24121 4.4384 0
M  V30 2323 C 209.65 4.42023 4.34759 0
M  V30 2324 C 211.705 3.15657 3.85052 0
M  V30 2325 C 210.408 5.60161 4.51235 0
M  V30 2326 C 212.434 4.33078 4.02737 0
M  V30 2327 C 211.796 5.5382 4.35273 0
M  V30 2328 H 207.895 0.245013 0.742625 0
M  V30 2329 H 210.479 1.15912 1.56437 0
M  V30 2330 H 208.65 0.165732 3.88046 0
M  V30 2331 H 210.382 0.362462 4.03074 0
M  V30 2332 H 207.137 2.38064 4.09417 0
M  V30 2333 H 207.561 4.94839 4.6202 0
M  V30 2334 H 212.203 2.23396 3.58962 0
M  V30 2335 H 209.921 6.52913 4.76162 0
M  V30 2336 H 213.507 4.31163 3.90628 0
M  V30 2337 H 212.387 6.43166 4.48672 0
M  V30 2338 N 209.89 -1.43072 0.660911 0
M  V30 2339 C 210.82 -2.33497 -0.0122829 0
M  V30 2340 C 211.801 -1.49903 -0.803925 0
M  V30 2341 O 212.986 -1.78546 -0.763864 0
M  V30 2342 C 210.116 -3.33363 -0.973994 0
M  V30 2343 C 209.07 -4.27003 -0.291928 0
M  V30 2344 C 208.396 -5.16967 -1.36562 0
M  V30 2345 C 209.696 -5.15816 0.820462 0
M  V30 2346 H 211.39 -2.90038 0.742873 0
M  V30 2347 H 208.936 -1.39461 0.358688 0
M  V30 2348 H 210.889 -3.95524 -1.45392 0
M  V30 2349 H 209.613 -2.75095 -1.7604 0
M  V30 2350 H 208.272 -3.66217 0.167623 0
M  V30 2351 H 207.92 -4.55034 -2.14366 0
M  V30 2352 H 207.62 -5.80441 -0.914454 0
M  V30 2353 H 209.144 -5.82003 -1.84675 0
M  V30 2354 H 210.558 -5.71742 0.422366 0
M  V30 2355 H 208.955 -5.8805 1.19656 0
M  V30 2356 H 210.025 -4.55045 1.67518 0
M  V30 2357 N 211.368 -0.403325 -1.52352 0
M  V30 2358 C 212.614 0.174605 -2.02047 0
M  V30 2359 C 212.947 1.45282 -1.28867 0
M  V30 2360 O 212.222 1.90483 -0.393257 0
M  V30 2361 C 212.505 0.428238 -3.57545 0
M  V30 2362 C 212.358 -0.866248 -4.4138 0
M  V30 2363 C 213.677 1.21287 -4.23057 0
M  V30 2364 H 210.796 0.0619851 -0.734389 0
M  V30 2365 H 213.438 -0.53565 -1.82293 0
M  V30 2366 H 211.588 1.03327 -3.74507 0
M  V30 2367 H 213.26 -1.50265 -4.3614 0
M  V30 2368 H 211.503 -1.47851 -4.07827 0
M  V30 2369 H 212.174 -0.643249 -5.48239 0
M  V30 2370 H 214.65 0.700703 -4.10158 0
M  V30 2371 H 213.526 1.35909 -5.31808 0
M  V30 2372 H 213.787 2.23193 -3.81625 0
M  V30 2373 N 212.846 1.57033 -0.133567 0
M  V30 2374 C 213.809 2.14897 0.796995 0
M  V30 2375 C 214.809 1.0874 1.18458 0
M  V30 2376 O 215.999 1.34446 1.1077 0
M  V30 2377 C 213.131 2.70112 2.07973 0
M  V30 2378 H 214.324 2.98457 0.293873 0
M  V30 2379 H 211.877 1.55871 0.115787 0
M  V30 2380 H 212.612 1.9018 2.62682 0
M  V30 2381 H 212.397 3.47764 1.81115 0
M  V30 2382 H 213.887 3.14738 2.74462 0
M  V30 2383 N 214.325 -0.140222 1.56975 0
M  V30 2384 C 215.255 -1.17456 2.01808 0
M  V30 2385 C 216.236 -1.44415 0.898794 0
M  V30 2386 O 217.421 -1.5522 1.16707 0
M  V30 2387 C 214.551 -2.50607 2.40444 0
M  V30 2388 C 213.505 -2.38155 3.55621 0
M  V30 2389 C 212.831 -3.76078 3.80091 0
M  V30 2390 C 214.131 -1.85991 4.88062 0
M  V30 2391 H 215.825 -0.801743 2.88466 0
M  V30 2392 H 213.371 -0.38422 1.38779 0
M  V30 2393 H 215.324 -3.23197 2.7041 0
M  V30 2394 H 214.048 -2.89737 1.50732 0
M  V30 2395 H 212.707 -1.68016 3.25832 0
M  V30 2396 H 212.355 -4.12656 2.87618 0
M  V30 2397 H 212.055 -3.68606 4.57606 0
M  V30 2398 H 213.579 -4.50206 4.12488 0
M  V30 2399 H 214.993 -2.4838 5.16701 0
M  V30 2400 H 213.39 -1.89393 5.6943 0
M  V30 2401 H 214.46 -0.816023 4.77984 0
M  V30 2402 N 215.803 -1.52179 -0.40978 0
M  V30 2403 C 217.049 -1.66453 -1.15851 0
M  V30 2404 C 217.382 -0.392972 -1.90182 0
M  V30 2405 O 216.657 0.608579 -1.84734 0
M  V30 2406 C 216.94 -2.88612 -2.15349 0
M  V30 2407 C 216.793 -4.25815 -1.44918 0
M  V30 2408 C 218.112 -3.06294 -3.16026 0
M  V30 2409 H 215.231 -0.60575 -0.419805 0
M  V30 2410 H 217.873 -1.84732 -0.444314 0
M  V30 2411 H 216.023 -2.73158 -2.76255 0
M  V30 2412 H 217.695 -4.52995 -0.871365 0
M  V30 2413 H 215.938 -4.27247 -0.751159 0
M  V30 2414 H 216.609 -5.07337 -2.17516 0
M  V30 2415 H 219.085 -3.20641 -2.65195 0
M  V30 2416 H 217.961 -3.93283 -3.8291 0
M  V30 2417 H 218.222 -2.19579 -3.83715 0
M  V30 2418 N 217.281 0.66697 -1.42791 0
M  V30 2419 C 218.521 1.43892 -1.4517 0
M  V30 2420 C 218.885 1.91877 -0.0687551 0
M  V30 2421 O 220.086 2.6878 0.0327455 0
M  V30 2422 C 218.357 2.59839 -2.45395 0
M  V30 2423 S 219.916 3.48572 -2.66539 0
M  V30 2424 H 216.734 0.491356 -0.513897 0
M  V30 2425 H 219.336 0.775656 -1.79454 0
M  V30 2426 H 218.04 2.22838 -3.44632 0
M  V30 2427 H 217.571 3.3103 -2.12562 0
M  V30 2428 H 219.586 4.56094 -1.95429 0
M  V30 2429 N 218.759 1.29093 0.90403 0
M  V30 2430 C 219.722 1.1386 1.98919 0
M  V30 2431 C 220.722 0.0753457 1.60623 0
M  V30 2432 O 221.912 0.321931 1.71199 0
M  V30 2433 C 219.044 0.740198 3.32767 0
M  V30 2434 H 220.237 2.10246 2.13861 0
M  V30 2435 H 217.79 1.12218 1.08797 0
M  V30 2436 H 218.525 -0.223997 3.23525 0
M  V30 2437 H 218.31 1.50838 3.61926 0
M  V30 2438 H 219.8 0.656546 4.12407 0
M  V30 2439 N 220.237 -1.11381 1.11499 0
M  V30 2440 C 221.167 -2.19509 0.796125 0
M  V30 2441 C 222.148 -1.68458 -0.235796 0
M  V30 2442 O 223.333 -1.93947 -0.0991344 0
M  V30 2443 C 220.463 -3.46475 0.239205 0
M  V30 2444 C 219.417 -4.10744 1.20307 0
M  V30 2445 C 218.743 -5.32293 0.50683 0
M  V30 2446 C 220.043 -4.55597 2.55399 0
M  V30 2447 H 221.737 -2.46439 1.70024 0
M  V30 2448 H 219.283 -1.18446 0.818935 0
M  V30 2449 H 221.236 -4.214 0.00392006 0
M  V30 2450 H 219.96 -3.19006 -0.700206 0
M  V30 2451 H 218.619 -3.37813 1.42399 0
M  V30 2452 H 218.267 -5.01095 -0.437408 0
M  V30 2453 H 217.967 -5.76243 1.1497 0
M  V30 2454 H 219.491 -6.09956 0.280351 0
M  V30 2455 H 220.905 -5.21841 2.37391 0
M  V30 2456 H 219.302 -5.10363 3.15673 0
M  V30 2457 H 220.372 -3.69013 3.14575 0
M  V30 2458 N 221.715 -0.905404 -1.28997 0
M  V30 2459 C 222.678 -0.392253 -2.25819 0
M  V30 2460 C 223.678 0.476753 -1.5357 0
M  V30 2461 O 224.868 0.280994 -1.71919 0
M  V30 2462 C 222 0.438588 -3.38067 0
M  V30 2463 H 223.193 -1.24743 -2.72725 0
M  V30 2464 H 220.746 -0.684051 -1.40536 0
M  V30 2465 H 221.481 1.31352 -2.96508 0
M  V30 2466 H 221.266 -0.184167 -3.91667 0
M  V30 2467 H 222.756 0.78873 -4.10084 0
M  V30 2468 N 223.193 1.4272 -0.668489 0
M  V30 2469 C 224.442 2.00846 -0.185389 0
M  V30 2470 C 224.755 1.53442 1.21305 0
M  V30 2471 O 225.961 2.03944 1.79218 0
M  V30 2472 C 224.417 3.58805 -0.280591 0
M  V30 2473 C 224.025 4.15198 -1.68268 0
M  V30 2474 C 225.769 4.24255 0.14412 0
M  V30 2475 C 223.676 5.655 -1.73099 0
M  V30 2476 H 222.606 0.751145 -0.0655475 0
M  V30 2477 H 225.257 1.63516 -0.832752 0
M  V30 2478 H 223.639 3.93608 0.434553 0
M  V30 2479 H 224.813 3.91866 -2.42441 0
M  V30 2480 H 223.128 3.62176 -2.05469 0
M  V30 2481 H 225.725 5.34547 0.128086 0
M  V30 2482 H 226.068 3.99277 1.17827 0
M  V30 2483 H 226.601 3.94389 -0.519798 0
M  V30 2484 H 223.34 5.95268 -2.74475 0
M  V30 2485 H 222.86 5.90842 -1.03274 0
M  V30 2486 H 224.539 6.29808 -1.48158 0
M  V30 2487 N 224.671 0.411399 1.52136 0
M  V30 2488 C 225.601 -0.404015 2.29978 0
M  V30 2489 C 226.582 -1.04412 1.34284 0
M  V30 2490 O 227.767 -1.0527 1.63192 0
M  V30 2491 C 224.897 -1.5197 3.12286 0
M  V30 2492 C 223.851 -1.00448 4.16046 0
M  V30 2493 C 223.177 -2.21393 4.86712 0
M  V30 2494 C 224.477 -0.0569336 5.22269 0
M  V30 2495 H 226.171 0.245529 2.98392 0
M  V30 2496 H 223.717 0.119525 1.43503 0
M  V30 2497 H 225.67 -2.09715 3.6551 0
M  V30 2498 H 224.394 -2.19716 2.41646 0
M  V30 2499 H 223.053 -0.449421 3.63835 0
M  V30 2500 H 222.701 -2.87699 4.12599 0
M  V30 2501 H 222.401 -1.87571 5.56858 0
M  V30 2502 H 223.925 -2.7974 5.4275 0
M  V30 2503 H 225.339 -0.54325 5.7072 0
M  V30 2504 H 223.736 0.192594 5.99791 0
M  V30 2505 H 224.806 0.887663 4.76706 0
M  V30 2506 N 226.149 -1.5696 0.141893 0
M  V30 2507 C 227.565 -1.58151 -0.21456 0
M  V30 2508 C 227.765 -1.1559 -1.65049 0
M  V30 2509 O 226.821 -0.853832 -2.37626 0
M  V30 2510 C 228.134 -3.00674 0.0395576 0
M  V30 2511 C 229.682 -3.1299 -0.0245529 0
M  V30 2512 C 230.157 -4.57554 0.202167 0
M  V30 2513 N 231.648 -4.62961 0.148919 0
M  V30 2514 C 232.383 -5.7262 0.298924 0
M  V30 2515 N 231.879 -6.90947 0.50637 0
M  V30 2516 N 233.672 -5.61601 0.236886 0
M  V30 2517 H 225.823 -1.8292 1.07953 0
M  V30 2518 H 228.086 -0.846425 0.42693 0
M  V30 2519 H 227.792 -3.36183 1.03315 0
M  V30 2520 H 227.666 -3.70981 -0.682143 0
M  V30 2521 H 230.053 -2.77326 -1.00869 0
M  V30 2522 H 230.134 -2.4518 0.729396 0
M  V30 2523 H 229.778 -4.93922 1.18338 0
M  V30 2524 H 229.708 -5.23484 -0.572044 0
M  V30 2525 H 232.199 -3.77899 -0.00697015 0
M  V30 2526 H 232.512 -7.7038 0.611076 0
M  V30 2527 H 230.857 -6.92878 0.542628 0
M  V30 2528 H 234.048 -4.68039 0.0756209 0
M  V30 2529 H 234.221 -6.47015 0.357227 0
M  V30 2530 N 227.627 0.131896 -1.57047 0
M  V30 2531 C 228.852 0.860418 -1.8871 0
M  V30 2532 C 229.277 1.73251 -0.73251 0
M  V30 2533 O 228.635 1.785 0.317429 0
M  V30 2534 C 228.683 1.68047 -3.19049 0
M  V30 2535 O 227.787 2.7862 -3.04047 0
M  V30 2536 H 227.128 0.238743 -0.619595 0
M  V30 2537 H 229.658 0.118169 -2.04258 0
M  V30 2538 H 229.668 2.07238 -3.51449 0
M  V30 2539 H 228.343 1.04018 -4.02682 0
M  V30 2540 H 226.92 2.42726 -2.83088 0
M  V30 2541 N 229.106 1.52395 0.401703 0
M  V30 2542 C 230.053 1.76268 1.48991 0
M  V30 2543 C 231.023 0.605386 1.54675 0
M  V30 2544 O 232.208 0.843742 1.7113 0
M  V30 2545 C 229.348 1.92592 2.86361 0
M  V30 2546 C 228.461 3.20259 2.89928 0
M  V30 2547 C 227.596 3.26972 4.18644 0
M  V30 2548 C 226.635 4.48812 4.16214 0
M  V30 2549 N 225.772 4.52877 5.36514 0
M  V30 2550 H 230.612 2.6914 1.27935 0
M  V30 2551 H 228.149 1.33355 0.620871 0
M  V30 2552 H 230.107 2.0004 3.66115 0
M  V30 2553 H 228.737 1.03093 3.05895 0
M  V30 2554 H 227.789 3.21945 2.02621 0
M  V30 2555 H 229.101 4.10056 2.83999 0
M  V30 2556 H 228.255 3.33533 5.06794 0
M  V30 2557 H 226.994 2.35126 4.27278 0
M  V30 2558 H 225.999 4.4239 3.26453 0
M  V30 2559 H 227.224 5.41961 4.09213 0
M  V30 2560 H 225.17 3.63917 5.45802 0
M  V30 2561 H 225.087 5.36529 5.32609 0
M  V30 2562 H 226.355 4.63676 6.26597 0
M  V30 2563 N 230.584 -0.659388 1.43143 0
M  V30 2564 C 231.833 -1.41518 1.43721 0
M  V30 2565 C 232.146 -1.95499 0.0628176 0
M  V30 2566 O 233.352 -2.71446 -0.0539683 0
M  V30 2567 C 231.808 -2.5608 2.52885 0
M  V30 2568 C 231.416 -2.08733 3.96402 0
M  V30 2569 C 233.16 -3.3349 2.62649 0
M  V30 2570 C 231.067 -3.20469 4.97045 0
M  V30 2571 H 229.997 -0.531705 0.534608 0
M  V30 2572 H 232.648 -0.712343 1.69109 0
M  V30 2573 H 231.03 -3.28805 2.20688 0
M  V30 2574 H 232.204 -1.43059 4.3803 0
M  V30 2575 H 230.519 -1.44219 3.90627 0
M  V30 2576 H 233.116 -4.16734 3.35017 0
M  V30 2577 H 233.459 -3.8111 1.67513 0
M  V30 2578 H 233.992 -2.67842 2.94118 0
M  V30 2579 H 230.731 -2.77824 5.93712 0
M  V30 2580 H 230.251 -3.84874 4.60034 0
M  V30 2581 H 231.93 -3.85698 5.19467 0
M  V30 2582 N 232.062 -1.29571 -0.897171 0
M  V30 2583 C 232.995 -1.0924 -2.00354 0
M  V30 2584 C 233.973 -0.00354011 -1.626 0
M  V30 2585 O 235.157 -0.15473 -1.87864 0
M  V30 2586 C 232.284 -0.66352 -3.32137 0
M  V30 2587 C 231.33 -1.75146 -3.88878 0
M  V30 2588 S 232.163 -3.35124 -4.17674 0
M  V30 2589 C 233.319 -2.9411 -5.52494 0
M  V30 2590 H 233.552 -2.02907 -2.17292 0
M  V30 2591 H 231.085 -1.13746 -1.04408 0
M  V30 2592 H 233.043 -0.422791 -4.08317 0
M  V30 2593 H 231.704 0.253588 -3.13075 0
M  V30 2594 H 230.897 -1.40337 -4.84068 0
M  V30 2595 H 230.499 -1.94584 -3.19395 0
M  V30 2596 H 232.791 -2.41312 -6.33068 0
M  V30 2597 H 233.734 -3.88161 -5.9223 0
M  V30 2598 H 234.142 -2.32332 -5.14473 0
M  V30 2599 N 233.54 1.10788 -1.12088 0
M  V30 2600 C 234.768 1.86461 -0.896651 0
M  V30 2601 C 235.183 1.80492 0.553912 0
M  V30 2602 O 234.54 1.19102 1.38278 0
M  V30 2603 C 234.591 3.35006 -1.35843 0
M  V30 2604 O 234.312 3.40866 -2.75213 0
M  V30 2605 C 235.813 4.27565 -1.1706 0
M  V30 2606 H 233.033 0.589425 -0.320654 0
M  V30 2607 H 235.577 1.40076 -1.48993 0
M  V30 2608 H 233.732 3.7887 -0.808458 0
M  V30 2609 H 234.146 4.33411 -2.9539 0
M  V30 2610 H 235.62 5.30007 -1.54263 0
M  V30 2611 H 236.097 4.3906 -0.110814 0
M  V30 2612 H 236.703 3.89501 -1.70789 0
M  V30 2613 N 235.018 0.912232 1.28515 0
M  V30 2614 C 235.981 0.404223 2.25607 0
M  V30 2615 C 236.981 -0.468602 1.53821 0
M  V30 2616 O 238.171 -0.271873 1.72065 0
M  V30 2617 C 235.303 -0.420653 3.38295 0
M  V30 2618 H 236.496 1.26188 2.7206 0
M  V30 2619 H 234.049 0.691495 1.40171 0
M  V30 2620 H 234.784 -1.29777 2.97201 0
M  V30 2621 H 234.569 0.204935 3.91564 0
M  V30 2622 H 236.059 -0.766971 4.10496 0
M  V30 2623 N 236.496 -1.42363 0.676048 0
M  V30 2624 C 237.426 -2.33497 0.0124832 0
M  V30 2625 C 238.407 -1.50748 -0.787981 0
M  V30 2626 O 239.592 -1.79346 -0.744884 0
M  V30 2627 C 236.722 -3.34377 -0.938582 0
M  V30 2628 C 235.676 -4.27289 -0.246622 0
M  V30 2629 C 235.002 -5.18386 -1.31071 0
M  V30 2630 C 236.302 -5.14916 0.875125 0
M  V30 2631 H 237.996 -2.89233 0.773593 0
M  V30 2632 H 235.542 -1.39073 0.37346 0
M  V30 2633 H 237.495 -3.97044 -1.41188 0
M  V30 2634 H 236.219 -2.76947 -1.73113 0
M  V30 2635 H 234.878 -3.66018 0.206456 0
M  V30 2636 H 234.526 -4.57282 -2.09528 0
M  V30 2637 H 234.226 -5.81378 -0.852839 0
M  V30 2638 H 235.75 -5.83929 -1.78492 0
M  V30 2639 H 237.164 -5.71262 0.482983 0
M  V30 2640 H 235.561 -5.86747 1.25887 0
M  V30 2641 H 236.631 -4.53242 1.72335 0
M  V30 2642 N 237.974 -0.419461 -1.51915 0
M  V30 2643 C 238.921 0.400927 -2.27291 0
M  V30 2644 C 239.891 1.03224 -1.30131 0
M  V30 2645 O 241.076 1.05455 -1.59009 0
M  V30 2646 C 238.216 1.50603 -3.10504 0
M  V30 2647 C 237.329 0.89462 -4.22635 0
M  V30 2648 C 236.464 1.97328 -4.93189 0
M  V30 2649 C 235.503 1.33935 -5.97267 0
M  V30 2650 N 234.64 2.3586 -6.61298 0
M  V30 2651 H 239.48 -0.248251 -2.96964 0
M  V30 2652 H 237.017 -0.134266 -1.46486 0
M  V30 2653 H 238.975 2.15783 -3.57062 0
M  V30 2654 H 237.605 2.12509 -2.42981 0
M  V30 2655 H 236.657 0.131583 -3.80172 0
M  V30 2656 H 237.969 0.391641 -4.9726 0
M  V30 2657 H 237.123 2.70211 -5.43204 0
M  V30 2658 H 235.862 2.50994 -4.18155 0
M  V30 2659 H 234.867 0.595896 -5.46561 0
M  V30 2660 H 236.092 0.810252 -6.74249 0
M  V30 2661 H 234.038 2.88639 -5.89087 0
M  V30 2662 H 233.955 1.90403 -7.3163 0
M  V30 2663 H 235.223 3.08282 -7.15949 0
M  V30 2664 N 239.452 1.56882 -0.150215 0
M  V30 2665 C 240.362 2.20494 0.801222 0
M  V30 2666 C 241.378 1.19019 1.26927 0
M  V30 2667 O 242.554 1.51607 1.32579 0
M  V30 2668 C 239.619 2.81659 2.02161 0
M  V30 2669 C 238.68 3.9827 1.60249 0
M  V30 2670 C 237.913 4.56508 2.7647 0
M  V30 2671 O 238.136 4.13627 3.92771 0
M  V30 2672 O 237.07 5.46719 2.51757 0
M  V30 2673 H 240.896 3.02315 0.289717 0
M  V30 2674 H 238.481 1.49202 0.0769684 0
M  V30 2675 H 240.363 3.20522 2.73576 0
M  V30 2676 H 239.038 2.02849 2.52258 0
M  V30 2677 H 237.945 3.64117 0.858477 0
M  V30 2678 H 239.278 4.78609 1.14864 0
M  V30 2679 N 240.93 -0.123565 1.57115 0
M  V30 2680 C 242.207 -0.862196 1.75572 0
M  V30 2681 C 242.587 -1.98279 0.724475 0
M  V30 2682 O 241.935 -2.27102 -0.252407 0
M  V30 2683 C 242.145 -1.38309 3.20424 0
M  V30 2684 C 243.493 -1.83724 3.82793 0
M  V30 2685 O 244.517 -1.47999 3.23998 0
M  V30 2686 O 243.376 -2.49685 4.86127 0
M  V30 2687 H 240.47 -0.409113 0.718718 0
M  V30 2688 H 243.016 -0.107661 1.69358 0
M  V30 2689 H 241.788 -0.578889 3.86994 0
M  V30 2690 H 241.411 -2.20046 3.31158 0
M  V30 2691 N 242.408 -1.52605 -0.393616 0
M  V30 2692 C 243.371 -1.76415 -1.46323 0
M  V30 2693 C 244.371 -0.634126 -1.47768 0
M  V30 2694 O 245.561 -0.902142 -1.4902 0
M  V30 2695 C 242.693 -1.8607 -2.85641 0
M  V30 2696 H 243.886 -2.71916 -1.26498 0
M  V30 2697 H 241.439 -1.43257 -0.625073 0
M  V30 2698 H 242.174 -0.925378 -3.10817 0
M  V30 2699 H 241.959 -2.68235 -2.85993 0
M  V30 2700 H 243.449 -2.06179 -3.63153 0
M  V30 2701 N 243.887 0.651787 -1.4349 0
M  V30 2702 C 244.819 1.77725 -1.44729 0
M  V30 2703 C 245.832 1.59141 -0.343231 0
M  V30 2704 O 247.021 1.67835 -0.607751 0
M  V30 2705 C 244.121 3.15172 -1.24579 0
M  V30 2706 C 243.294 3.60402 -2.47849 0
M  V30 2707 C 242.353 4.76656 -2.22902 0
M  V30 2708 O 241.379 4.86022 -2.96263 0
M  V30 2709 N 242.581 5.66958 -1.24656 0
M  V30 2710 H 245.346 1.77141 -2.41746 0
M  V30 2711 H 242.907 0.835678 -1.38665 0
M  V30 2712 H 244.899 3.90634 -1.0577 0
M  V30 2713 H 243.469 3.1052 -0.360015 0
M  V30 2714 H 242.689 2.75369 -2.82073 0
M  V30 2715 H 243.977 3.87368 -3.29884 0
M  V30 2716 H 243.375 5.62065 -0.640265 0
M  V30 2717 H 241.932 6.42135 -1.1183 0
M  V30 2718 N 245.365 1.30045 0.890287 0
M  V30 2719 C 246.611 1.18737 1.64406 0
M  V30 2720 C 246.944 -0.258525 1.92472 0
M  V30 2721 O 246.219 -1.18562 1.54186 0
M  V30 2722 C 246.502 2.01087 2.98724 0
M  V30 2723 C 246.355 3.53867 2.77665 0
M  V30 2724 C 247.674 1.84457 3.9958 0
M  V30 2725 H 244.793 0.432698 0.596608 0
M  V30 2726 H 247.435 1.5962 1.0306 0
M  V30 2727 H 245.585 1.66349 3.51084 0
M  V30 2728 H 247.257 3.98637 2.32133 0
M  V30 2729 H 245.5 3.78318 2.12269 0
M  V30 2730 H 246.171 4.06772 3.7315 0
M  V30 2731 H 248.647 2.14817 3.56361 0
M  V30 2732 H 247.523 2.44411 4.91482 0
M  V30 2733 H 247.784 0.802276 4.3476 0
M  V30 2734 N 246.843 -1.10192 1.12674 0
M  V30 2735 C 248.12 -1.78717 0.794965 0
M  V30 2736 C 248.5 -1.98628 -0.714853 0
M  V30 2737 O 247.848 -1.58135 -1.64941 0
M  V30 2738 C 248.058 -3.11546 1.5729 0
M  V30 2739 C 249.406 -3.86382 1.76052 0
M  V30 2740 O 250.43 -3.21274 1.53823 0
M  V30 2741 O 249.289 -5.03246 2.13087 0
M  V30 2742 H 246.383 -0.774702 0.289423 0
M  V30 2743 H 248.929 -1.16819 1.23091 0
M  V30 2744 H 247.701 -2.92489 2.59935 0
M  V30 2745 H 247.324 -3.81164 1.13137 0
M  V30 2746 N 248.321 -0.919034 -1.28029 0
M  V30 2747 C 249.251 -0.428581 -2.29533 0
M  V30 2748 C 250.232 0.50659 -1.62381 0
M  V30 2749 O 251.417 0.413195 -1.89753 0
M  V30 2750 C 248.547 0.327388 -3.45753 0
M  V30 2751 C 247.501 -0.519137 -4.2484 0
M  V30 2752 C 246.827 0.365486 -5.33449 0
M  V30 2753 C 248.127 -1.77914 -4.91064 0
M  V30 2754 H 249.821 -1.27687 -2.70807 0
M  V30 2755 H 247.367 -0.615428 -1.30186 0
M  V30 2756 H 249.32 0.681378 -4.15855 0
M  V30 2757 H 248.044 1.20963 -3.03374 0
M  V30 2758 H 246.703 -0.855717 -3.56473 0
M  V30 2759 H 246.351 1.24642 -4.87312 0
M  V30 2760 H 246.051 -0.197356 -5.87268 0
M  V30 2761 H 247.575 0.715241 -6.06396 0
M  V30 2762 H 248.989 -1.49374 -5.53498 0
M  V30 2763 H 247.386 -2.2848 -5.54903 0
M  V30 2764 H 248.456 -2.50382 -4.15255 0
M  V30 2765 N 249.799 1.42003 -0.683588 0
M  V30 2766 C 251.046 2.01413 -0.209514 0
M  V30 2767 C 251.374 1.54088 1.1869 0
M  V30 2768 O 250.629 0.737591 1.81268 0
M  V30 2769 C 250.928 3.56827 -0.202357 0
M  V30 2770 C 250.594 4.23617 -1.54464 0
M  V30 2771 C 249.256 4.41577 -1.91215 0
M  V30 2772 C 251.608 4.61178 -2.42826 0
M  V30 2773 C 248.936 4.9437 -3.15935 0
M  V30 2774 C 251.288 5.15355 -3.66867 0
M  V30 2775 C 249.952 5.31528 -4.03776 0
M  V30 2776 H 249.222 0.737023 -0.0766668 0
M  V30 2777 H 251.869 1.70067 -0.880312 0
M  V30 2778 H 250.174 3.87892 0.551969 0
M  V30 2779 H 251.871 4.00588 0.181793 0
M  V30 2780 H 248.461 4.10004 -1.24877 0
M  V30 2781 H 252.645 4.46968 -2.15717 0
M  V30 2782 H 247.901 5.05076 -3.44541 0
M  V30 2783 H 252.075 5.43402 -4.35531 0
M  V30 2784 H 249.702 5.72199 -5.00492 0
M  V30 2785 N 251.277 0.427512 1.51691 0
M  V30 2786 C 252.693 0.0792977 1.59403 0
M  V30 2787 C 252.893 -1.41035 1.43914 0
M  V30 2788 O 251.949 -2.17922 1.27539 0
M  V30 2789 C 253.262 0.590636 2.94842 0
M  V30 2790 C 254.81 0.550215 3.08126 0
M  V30 2791 C 255.285 1.03836 4.46074 0
M  V30 2792 N 256.776 0.995943 4.52366 0
M  V30 2793 C 257.511 1.34463 5.57411 0
M  V30 2794 N 257.007 1.76569 6.69922 0
M  V30 2795 N 258.8 1.26343 5.47717 0
M  V30 2796 H 250.951 1.39687 1.60004 0
M  V30 2797 H 253.214 0.575003 0.753708 0
M  V30 2798 H 252.92 1.63251 3.11516 0
M  V30 2799 H 252.794 0.0102061 3.77199 0
M  V30 2800 H 255.181 -0.482654 2.91126 0
M  V30 2801 H 255.262 1.16693 2.27632 0
M  V30 2802 H 254.906 2.06965 4.63819 0
M  V30 2803 H 254.836 0.398286 5.25092 0
M  V30 2804 H 257.327 0.68661 3.7161 0
M  V30 2805 H 257.64 2.01438 7.46085 0
M  V30 2806 H 255.985 1.80488 6.71155 0
M  V30 2807 H 259.176 0.933209 4.58703 0
M  V30 2808 H 259.349 1.53846 6.29472 0
M  V30 2809 N 252.755 -1.56801 0.158532 0
M  V30 2810 C 254.032 -1.88131 -0.535357 0
M  V30 2811 C 254.412 -1.06638 -1.82186 0
M  V30 2812 O 253.76 -0.156533 -2.27963 0
M  V30 2813 C 253.97 -3.39949 -0.789653 0
M  V30 2814 C 255.318 -4.09416 -1.12533 0
M  V30 2815 O 256.342 -3.45194 -0.878622 0
M  V30 2816 O 255.201 -5.22855 -1.59014 0
M  V30 2817 H 252.295 -0.780143 -0.27442 0
M  V30 2818 H 254.841 -1.68564 0.19601 0
M  V30 2819 H 253.613 -3.91115 0.120353 0
M  V30 2820 H 253.236 -3.65084 -1.57479 0
M  V30 2821 N 254.233 0.115231 -1.57178 0
M  V30 2822 C 255.482 0.820945 -1.84237 0
M  V30 2823 C 255.795 1.80866 -0.744761 0
M  V30 2824 O 257.001 2.56083 -0.901871 0
M  V30 2825 C 255.457 1.51072 -3.26658 0
M  V30 2826 C 255.065 0.563795 -4.44438 0
M  V30 2827 C 256.809 2.20134 -3.62962 0
M  V30 2828 C 254.716 1.25701 -5.77887 0
M  V30 2829 H 253.646 0.310328 -0.687177 0
M  V30 2830 H 256.297 0.0737134 -1.83352 0
M  V30 2831 H 254.679 2.30471 -3.22024 0
M  V30 2832 H 255.853 -0.197247 -4.60378 0
M  V30 2833 H 254.168 -0.0200638 -4.16395 0
M  V30 2834 H 256.765 2.72696 -4.59936 0
M  V30 2835 H 257.108 2.98107 -2.90582 0
M  V30 2836 H 257.641 1.47619 -3.69396 0
M  V30 2837 H 254.38 0.518493 -6.53446 0
M  V30 2838 H 253.9 1.98997 -5.65827 0
M  V30 2839 H 255.579 1.78915 -6.2177 0
M  V30 2840 N 255.711 1.52812 0.385517 0
M  V30 2841 C 256.939 1.71907 1.15133 0
M  V30 2842 C 257.354 0.439004 1.83625 0
M  V30 2843 O 256.711 -0.586765 1.7281 0
M  V30 2844 C 256.762 2.87099 2.19673 0
M  V30 2845 O 256.483 4.10151 1.53973 0
M  V30 2846 C 257.984 3.17902 3.08955 0
M  V30 2847 H 255.204 0.575479 0.345057 0
M  V30 2848 H 257.748 1.99476 0.45052 0
M  V30 2849 H 255.903 2.61982 2.85384 0
M  V30 2850 H 256.317 4.74514 2.23465 0
M  V30 2851 H 257.791 4.01959 3.7833 0
M  V30 2852 H 258.268 2.3243 3.72657 0
M  V30 2853 H 258.874 3.44871 2.48885 0
M  V30 2854 N 257.189 -0.644168 1.43834 0
M  V30 2855 C 258.436 -1.40395 1.4593 0
M  V30 2856 C 258.764 -1.94305 0.0869658 0
M  V30 2857 O 258.019 -1.73288 -0.909378 0
M  V30 2858 C 258.318 -2.59615 2.45631 0
M  V30 2859 C 257.984 -2.2407 3.91284 0
M  V30 2860 C 256.646 -2.14089 4.30952 0
M  V30 2861 C 258.998 -1.95775 4.83034 0
M  V30 2862 C 256.326 -1.73981 5.6031 0
M  V30 2863 C 258.678 -1.57163 6.12766 0
M  V30 2864 C 257.342 -1.45713 6.51402 0
M  V30 2865 H 256.612 -0.513741 0.533995 0
M  V30 2866 H 259.259 -0.731724 1.76969 0
M  V30 2867 H 257.564 -3.32011 2.08028 0
M  V30 2868 H 259.261 -3.17834 2.44504 0
M  V30 2869 H 255.851 -2.32753 3.59895 0
M  V30 2870 H 260.035 -2.02403 4.53152 0
M  V30 2871 H 255.291 -1.63709 5.89075 0
M  V30 2872 H 259.465 -1.34303 6.83327 0
M  V30 2873 H 257.092 -1.14406 7.51542 0
M  V30 2874 N 258.668 -1.30515 -0.883378 0
M  V30 2875 C 259.898 -1.22182 -1.66599 0
M  V30 2876 C 260.306 0.217507 -1.87946 0
M  V30 2877 O 259.649 1.1554 -1.42815 0
M  V30 2878 C 259.711 -1.88146 -3.06335 0
M  V30 2879 C 259.375 -3.37476 -3.08154 0
M  V30 2880 C 260.372 -4.33443 -2.87094 0
M  V30 2881 C 258.057 -3.7895 -3.29701 0
M  V30 2882 C 260.051 -5.68858 -2.8754 0
M  V30 2883 C 257.738 -5.14482 -3.29776 0
M  V30 2884 C 258.736 -6.09246 -3.0872 0
M  V30 2885 O 258.424 -7.42302 -3.08615 0
M  V30 2886 H 258.156 -0.423898 -0.52658 0
M  V30 2887 H 260.71 -1.72703 -1.11188 0
M  V30 2888 H 258.94 -1.32157 -3.63416 0
M  V30 2889 H 260.629 -1.7391 -3.66756 0
M  V30 2890 H 261.395 -4.02733 -2.70243 0
M  V30 2891 H 257.274 -3.05631 -3.45124 0
M  V30 2892 H 260.818 -6.428 -2.71024 0
M  V30 2893 H 256.715 -5.44832 -3.46163 0
M  V30 2894 H 257.483 -7.5131 -3.24769 0
M  V30 2895 N 260.146 1.09593 -1.13257 0
M  V30 2896 C 261.392 1.82003 -0.89458 0
M  V30 2897 C 261.725 1.85402 0.577906 0
M  V30 2898 O 261 1.32099 1.42759 0
M  V30 2899 C 261.283 3.28237 -1.48096 0
M  V30 2900 C 261.136 3.3312 -3.02244 0
M  V30 2901 C 262.455 4.24871 -1.14774 0
M  V30 2902 H 259.574 0.66077 -0.326424 0
M  V30 2903 H 262.216 1.28389 -1.40058 0
M  V30 2904 H 260.366 3.74024 -1.05062 0
M  V30 2905 H 262.038 2.95748 -3.54021 0
M  V30 2906 H 260.281 2.72756 -3.37323 0
M  V30 2907 H 260.952 4.3613 -3.38371 0
M  V30 2908 H 263.428 3.87361 -1.51957 0
M  V30 2909 H 262.304 5.25532 -1.58452 0
M  V30 2910 H 262.565 4.42058 -0.0611849 0
M  V30 2911 N 261.624 0.925811 1.2754 0
M  V30 2912 C 262.854 0.580666 1.98272 0
M  V30 2913 C 263.262 -0.845207 1.69272 0
M  V30 2914 O 262.605 -1.57306 0.948707 0
M  V30 2915 C 262.667 0.724418 3.52126 0
M  V30 2916 C 262.331 2.12206 4.04744 0
M  V30 2917 C 263.328 3.09604 4.17662 0
M  V30 2918 C 261.013 2.4385 4.39138 0
M  V30 2919 C 263.007 4.36755 4.64246 0
M  V30 2920 C 260.694 3.71237 4.85414 0
M  V30 2921 C 261.692 4.67503 4.97926 0
M  V30 2922 O 261.38 5.92624 5.43187 0
M  V30 2923 H 261.112 0.218987 0.639547 0
M  V30 2924 H 263.666 1.24452 1.63404 0
M  V30 2925 H 261.896 0.0034663 3.867 0
M  V30 2926 H 263.585 0.384607 4.04074 0
M  V30 2927 H 264.351 2.86478 3.91351 0
M  V30 2928 H 260.23 1.69665 4.28643 0
M  V30 2929 H 263.774 5.11898 4.73927 0
M  V30 2930 H 259.671 3.94182 5.11166 0
M  V30 2931 H 260.439 5.95585 5.61445 0
M  V30 2932 N 263.102 -1.41638 0.69111 0
M  V30 2933 C 264.349 -2.01299 0.220193 0
M  V30 2934 C 264.677 -1.54715 -1.17871 0
M  V30 2935 O 263.932 -0.747193 -1.80874 0
M  V30 2936 C 264.231 -3.56714 0.221277 0
M  V30 2937 C 263.897 -4.22792 1.56709 0
M  V30 2938 C 262.559 -4.40557 1.93554 0
M  V30 2939 C 264.911 -4.59883 2.45268 0
M  V30 2940 C 262.239 -4.92688 3.18552 0
M  V30 2941 C 264.591 -5.13403 3.69595 0
M  V30 2942 C 263.255 -5.29379 4.06589 0
M  V30 2943 H 262.525 -0.736606 0.0805743 0
M  V30 2944 H 265.172 -1.69598 0.889319 0
M  V30 2945 H 263.477 -3.8818 -0.531391 0
M  V30 2946 H 265.174 -4.00678 -0.160547 0
M  V30 2947 H 261.764 -4.09336 1.2705 0
M  V30 2948 H 265.948 -4.45817 2.18084 0
M  V30 2949 H 261.204 -5.03242 3.47214 0
M  V30 2950 H 265.378 -5.41084 4.38407 0
M  V30 2951 H 263.005 -5.69537 5.03519 0
M  V30 2952 N 264.58 -0.43555 -1.51462 0
M  V30 2953 C 265.805 0.132627 -2.06976 0
M  V30 2954 C 266.23 1.35848 -1.30104 0
M  V30 2955 O 265.588 1.78112 -0.338493 0
M  V30 2956 C 265.636 0.43523 -3.57964 0
M  V30 2957 O 264.74 1.52198 -3.83288 0
M  V30 2958 H 264.081 0.00265 -0.663995 0
M  V30 2959 H 266.611 -0.616369 -1.95095 0
M  V30 2960 H 266.621 0.686206 -4.02188 0
M  V30 2961 H 265.296 -0.460739 -4.1334 0
M  V30 2962 H 263.873 1.2611 -3.50928 0
M  V30 2963 N 266.058 1.56714 -0.166846 0
M  V30 2964 C 266.988 2.20754 0.760913 0
M  V30 2965 C 267.969 1.16178 1.24244 0
M  V30 2966 O 269.154 1.44592 1.29641 0
M  V30 2967 C 266.284 2.84478 1.99223 0
M  V30 2968 C 265.238 3.95053 1.64672 0
M  V30 2969 C 264.564 4.45805 2.95232 0
M  V30 2970 C 265.864 5.14865 0.878155 0
M  V30 2971 H 267.558 2.98537 0.22713 0
M  V30 2972 H 265.104 1.43596 0.107805 0
M  V30 2973 H 267.057 3.27951 2.64624 0
M  V30 2974 H 265.781 2.04056 2.55007 0
M  V30 2975 H 264.44 3.52228 1.01641 0
M  V30 2976 H 264.088 3.62181 3.49047 0
M  V30 2977 H 263.788 5.204 2.7287 0
M  V30 2978 H 265.312 4.91962 3.6167 0
M  V30 2979 H 266.726 5.55059 1.43466 0
M  V30 2980 H 265.123 5.95348 0.753738 0
M  V30 2981 H 266.193 4.84735 -0.126377 0
M  V30 2982 N 267.536 -0.106894 1.57237 0
M  V30 2983 C 268.466 -1.13148 2.04254 0
M  V30 2984 C 269.447 -1.42476 0.929224 0
M  V30 2985 O 270.632 -1.52709 1.19973 0
M  V30 2986 C 267.762 -2.4545 2.45706 0
M  V30 2987 C 266.716 -2.30558 3.60592 0
M  V30 2988 C 266.042 -3.67931 3.87983 0
M  V30 2989 C 267.342 -1.75597 4.91897 0
M  V30 2990 H 269.036 -0.740374 2.90101 0
M  V30 2991 H 266.582 -0.354696 1.39563 0
M  V30 2992 H 268.535 -3.17389 2.77205 0
M  V30 2993 H 267.259 -2.86475 1.56843 0
M  V30 2994 H 265.918 -1.61067 3.29322 0
M  V30 2995 H 265.566 -4.06462 2.96306 0
M  V30 2996 H 265.266 -3.58817 4.65322 0
M  V30 2997 H 266.79 -4.41356 4.21945 0
M  V30 2998 H 268.204 -2.37364 5.21854 0
M  V30 2999 H 266.601 -1.77272 5.73319 0
M  V30 3000 H 267.671 -0.714451 4.79608 0
M  V30 3001 N 269.014 -1.53014 -0.377408 0
M  V30 3002 C 269.944 -1.81589 -1.46791 0
M  V30 3003 C 270.925 -0.668622 -1.56408 0
M  V30 3004 O 272.11 -0.917337 -1.71168 0
M  V30 3005 C 269.24 -1.99519 -2.8427 0
M  V30 3006 C 268.194 -3.15249 -2.89486 0
M  V30 3007 C 267.52 -3.18451 -4.29527 0
M  V30 3008 C 268.82 -4.54084 -2.58079 0
M  V30 3009 H 270.514 -2.7291 -1.23127 0
M  V30 3010 H 268.06 -1.31319 -0.590883 0
M  V30 3011 H 270.013 -2.18092 -3.60575 0
M  V30 3012 H 268.737 -1.04897 -3.09296 0
M  V30 3013 H 267.396 -2.96477 -2.15631 0
M  V30 3014 H 267.044 -2.2149 -4.5161 0
M  V30 3015 H 266.744 -3.962 -4.33934 0
M  V30 3016 H 268.268 -3.39193 -5.07721 0
M  V30 3017 H 269.682 -4.72899 -3.24098 0
M  V30 3018 H 268.079 -5.33987 -2.7382 0
M  V30 3019 H 269.149 -4.60006 -1.53372 0
M  V30 3020 N 270.492 0.636531 -1.44174 0
M  V30 3021 C 271.741 1.39213 -1.45954 0
M  V30 3022 C 272.054 1.95374 -0.0939119 0
M  V30 3023 O 273.26 2.71498 0.0107767 0
M  V30 3024 C 271.716 2.52025 -2.56927 0
M  V30 3025 C 271.324 2.024 -3.99673 0
M  V30 3026 C 273.068 3.29269 -2.67922 0
M  V30 3027 C 270.975 3.12521 -5.0208 0
M  V30 3028 H 269.905 0.523132 -0.542999 0
M  V30 3029 H 272.556 0.685349 -1.70221 0
M  V30 3030 H 270.938 3.25253 -2.25891 0
M  V30 3031 H 272.112 1.36073 -4.40251 0
M  V30 3032 H 270.427 1.37987 -3.92872 0
M  V30 3033 H 273.024 4.11352 -3.41605 0
M  V30 3034 H 273.367 3.78397 -1.73555 0
M  V30 3035 H 273.9 2.63129 -2.98342 0
M  V30 3036 H 270.639 2.68343 -5.98057 0
M  V30 3037 H 270.159 3.77507 -4.66099 0
M  V30 3038 H 271.838 3.77385 -5.25538 0
M  V30 3039 N 271.97 1.30982 0.876444 0
M  V30 3040 C 272.902 1.13902 1.98894 0
M  V30 3041 C 273.915 0.0798815 1.62604 0
M  V30 3042 O 275.104 0.326743 1.75484 0
M  V30 3043 C 272.204 0.716699 3.31235 0
M  V30 3044 C 271.377 1.85945 3.95908 0
M  V30 3045 C 270.436 1.42426 5.06558 0
M  V30 3046 O 269.462 2.13287 5.27729 0
M  V30 3047 N 270.664 0.308025 5.79682 0
M  V30 3048 H 273.429 2.09724 2.14094 0
M  V30 3049 H 270.99 1.2323 1.05004 0
M  V30 3050 H 272.982 0.408403 4.02634 0
M  V30 3051 H 271.552 -0.149719 3.12241 0
M  V30 3052 H 270.772 2.33541 3.17573 0
M  V30 3053 H 272.06 2.62503 4.35855 0
M  V30 3054 H 271.458 -0.282241 5.64995 0
M  V30 3055 H 270.015 0.0592282 6.51773 0
M  V30 3056 N 273.449 -1.08991 1.13837 0
M  V30 3057 C 274.379 -2.17771 0.842507 0
M  V30 3058 C 275.36 -1.6892 -0.20001 0
M  V30 3059 O 276.545 -1.94113 -0.0579731 0
M  V30 3060 C 273.675 -3.4589 0.312644 0
M  V30 3061 C 272.629 -4.08099 1.28992 0
M  V30 3062 C 271.955 -5.31098 0.619623 0
M  V30 3063 C 273.255 -4.50077 2.65005 0
M  V30 3064 H 274.949 -2.42777 1.75213 0
M  V30 3065 H 272.495 -1.16682 0.843875 0
M  V30 3066 H 274.448 -4.21297 0.0933043 0
M  V30 3067 H 273.172 -3.20419 -0.632382 0
M  V30 3068 H 271.831 -3.34717 1.49533 0
M  V30 3069 H 271.479 -5.0191 -0.33102 0
M  V30 3070 H 271.179 -5.73674 1.27167 0
M  V30 3071 H 272.703 -6.09224 0.409669 0
M  V30 3072 H 274.117 -5.16688 2.48407 0
M  V30 3073 H 272.514 -5.03553 3.26427 0
M  V30 3074 H 273.584 -3.62257 3.22332 0
M  V30 3075 N 274.927 -0.932562 -1.27047 0
M  V30 3076 C 276.173 -0.576412 -1.94436 0
M  V30 3077 C 276.506 0.880891 -1.73072 0
M  V30 3078 O 275.781 1.62905 -1.06264 0
M  V30 3079 C 276.064 -0.909031 -3.48437 0
M  V30 3080 C 275.917 -2.42044 -3.79123 0
M  V30 3081 C 277.236 -0.418341 -4.38107 0
M  V30 3082 H 274.355 -0.210888 -0.706184 0
M  V30 3083 H 276.997 -1.16522 -1.50075 0
M  V30 3084 H 275.147 -0.407947 -3.86352 0
M  V30 3085 H 276.819 -2.99359 -3.50973 0
M  V30 3086 H 275.062 -2.86758 -3.25503 0
M  V30 3087 H 275.733 -2.6037 -4.86736 0
M  V30 3088 H 278.209 -0.847856 -4.0737 0
M  V30 3089 H 277.085 -0.679981 -5.44672 0
M  V30 3090 H 277.346 0.681642 -4.36814 0
M  V30 3091 N 276.405 1.4127 -0.698611 0
M  V30 3092 C 277.335 2.33447 -0.049629 0
M  V30 3093 C 278.316 1.51982 0.763898 0
M  V30 3094 O 279.501 1.80509 0.716257 0
M  V30 3095 C 276.631 3.35828 0.885267 0
M  V30 3096 C 275.585 4.27627 0.178613 0
M  V30 3097 C 274.911 5.20406 1.22807 0
M  V30 3098 C 276.211 5.13459 -0.956933 0
M  V30 3099 H 277.905 2.87966 -0.81951 0
M  V30 3100 H 275.451 1.38461 -0.395538 0
M  V30 3101 H 277.404 3.9924 1.34854 0
M  V30 3102 H 276.128 2.79666 1.68685 0
M  V30 3103 H 274.787 3.65643 -0.26466 0
M  V30 3104 H 274.435 4.60558 2.02226 0
M  V30 3105 H 274.135 5.82661 0.760239 0
M  V30 3106 H 275.659 5.86695 1.69179 0
M  V30 3107 H 277.073 5.70421 -0.573805 0
M  V30 3108 H 275.47 5.8467 -1.35205 0
M  V30 3109 H 276.54 4.50443 -1.79524 0
M  V30 3110 N 277.883 0.443576 1.51229 0
M  V30 3111 C 279.108 -0.121648 2.07043 0
M  V30 3112 C 279.533 -1.35156 1.30823 0
M  V30 3113 O 278.891 -1.7793 0.347934 0
M  V30 3114 C 278.939 -0.41624 3.5819 0
M  V30 3115 O 278.043 -1.50163 3.8409 0
M  V30 3116 H 277.384 0.000871367 0.663999 0
M  V30 3117 H 279.914 0.626706 1.94765 0
M  V30 3118 H 279.924 -0.664867 4.02546 0
M  V30 3119 H 278.599 0.482653 4.1309 0
M  V30 3120 H 277.176 -1.24248 3.51592 0
M  V30 3121 N 279.361 -1.56624 0.175154 0
M  V30 3122 C 280.601 -1.98894 -0.471221 0
M  V30 3123 C 280.965 -1.05889 -1.60161 0
M  V30 3124 O 282.166 -1.37315 -2.3108 0
M  V30 3125 C 280.437 -3.44865 -0.938241 0
M  V30 3126 S 281.996 -4.09164 -1.58526 0
M  V30 3127 H 278.814 -0.694686 -0.151434 0
M  V30 3128 H 281.416 -1.93577 0.27352 0
M  V30 3129 H 280.12 -4.10265 -0.10518 0
M  V30 3130 H 279.651 -3.53956 -1.71693 0
M  V30 3131 H 281.666 -4.04528 -2.87352 0
M  V30 3132 N 280.839 0.0985539 -1.57292 0
M  V30 3133 C 282.086 0.802678 -1.85912 0
M  V30 3134 C 282.414 1.78901 -0.763186 0
M  V30 3135 O 281.669 1.94178 0.243559 0
M  V30 3136 C 281.968 1.56927 -3.21105 0
M  V30 3137 C 281.634 0.725376 -4.45027 0
M  V30 3138 C 280.296 0.492726 -4.78671 0
M  V30 3139 C 282.648 0.138493 -5.21016 0
M  V30 3140 C 279.976 -0.336727 -5.85733 0
M  V30 3141 C 282.328 -0.678264 -6.28953 0
M  V30 3142 C 280.992 -0.921039 -6.61115 0
M  V30 3143 H 280.262 0.293721 -0.680301 0
M  V30 3144 H 282.909 0.0642841 -1.91392 0
M  V30 3145 H 281.214 2.37914 -3.11294 0
M  V30 3146 H 282.911 2.11841 -3.40477 0
M  V30 3147 H 279.501 0.916815 -4.18679 0
M  V30 3148 H 283.685 0.305404 -4.95359 0
M  V30 3149 H 278.941 -0.533836 -6.09065 0
M  V30 3150 H 283.115 -1.1399 -6.87007 0
M  V30 3151 H 280.742 -1.56556 -7.43905 0
M  V30 3152 N 282.317 1.53212 0.369288 0
M  V30 3153 C 283.542 1.73423 1.1375 0
M  V30 3154 C 283.967 0.460404 1.82378 0
M  V30 3155 O 283.325 -0.585298 1.71592 0
M  V30 3156 C 283.373 2.89769 2.1463 0
M  V30 3157 O 282.477 2.58119 3.21634 0
M  V30 3158 H 281.818 0.576061 0.330227 0
M  V30 3159 H 284.348 2.00083 0.427547 0
M  V30 3160 H 284.358 3.15829 2.58294 0
M  V30 3161 H 283.033 3.8217 1.64071 0
M  V30 3162 H 281.61 2.42864 2.82969 0
M  V30 3163 N 283.795 -0.628877 1.44509 0
M  V30 3164 C 285.072 -1.38733 1.37886 0
M  V30 3165 C 285.452 -2.11065 0.0387008 0
M  V30 3166 O 284.8 -2.06476 -0.97878 0
M  V30 3167 C 285.01 -2.35188 2.57852 0
M  V30 3168 C 286.358 -2.9845 3.02014 0
M  V30 3169 O 287.382 -2.45513 2.58073 0
M  V30 3170 O 286.241 -3.94487 3.78209 0
M  V30 3171 H 283.335 -0.621015 0.54614 0
M  V30 3172 H 285.881 -0.653744 1.56602 0
M  V30 3173 H 284.653 -1.80855 3.46998 0
M  V30 3174 H 284.276 -3.1596 2.4136 0
M  V30 3175 N 285.273 -1.31445 -0.869486 0
M  V30 3176 C 286.689 -1.10113 -1.15531 0
M  V30 3177 C 286.889 0.128087 -2.01092 0
M  V30 3178 O 285.945 0.817276 -2.38908 0
M  V30 3179 C 287.258 -2.37291 -1.84698 0
M  V30 3180 C 288.806 -2.42906 -1.97397 0
M  V30 3181 C 289.281 -3.69967 -2.69979 0
M  V30 3182 N 290.772 -3.70864 -2.77514 0
M  V30 3183 C 291.507 -4.65875 -3.34287 0
M  V30 3184 N 291.003 -5.71242 -3.91988 0
M  V30 3185 N 292.796 -4.53394 -3.3225 0
M  V30 3186 H 284.947 -2.1028 -0.299347 0
M  V30 3187 H 287.21 -0.927683 -0.195214 0
M  V30 3188 H 286.916 -3.27078 -1.29278 0
M  V30 3189 H 286.79 -2.47125 -2.84972 0
M  V30 3190 H 289.177 -1.53588 -2.51982 0
M  V30 3191 H 289.258 -2.37036 -0.961643 0
M  V30 3192 H 288.902 -4.59652 -2.16062 0
M  V30 3193 H 288.832 -3.73103 -3.7162 0
M  V30 3194 H 291.323 -2.94697 -2.36563 0
M  V30 3195 H 291.636 -6.39817 -4.33421 0
M  V30 3196 H 289.981 -5.75015 -3.90362 0
M  V30 3197 H 293.172 -3.70252 -2.8641 0
M  V30 3198 H 293.345 -5.27617 -3.76197 0
M  V30 3199 N 286.751 1.08385 -1.14413 0
M  V30 3200 C 287.976 1.85057 -0.936413 0
M  V30 3201 C 288.401 1.81055 0.509971 0
M  V30 3202 O 287.759 1.1958 1.36273 0
M  V30 3203 C 287.807 3.30505 -1.44217 0
M  V30 3204 O 286.911 4.07491 -0.634409 0
M  V30 3205 H 286.252 0.573425 -0.334784 0
M  V30 3206 H 288.782 1.36799 -1.52142 0
M  V30 3207 H 288.792 3.81348 -1.45043 0
M  V30 3208 H 287.467 3.32734 -2.49522 0
M  V30 3209 H 286.044 3.66368 -0.694902 0
M  V30 3210 N 288.23 0.939286 1.26551 0
M  V30 3211 C 289.641 0.628782 1.75793 0
M  V30 3212 C 289.992 -0.856046 1.7654 0
M  V30 3213 O 289.117 -1.66994 1.3763 0
M  V30 3214 C 289.712 1.13465 3.19235 0
M  V30 3215 C 288.271 0.874601 3.66098 0
M  V30 3216 C 287.418 1.28667 2.45642 0
M  V30 3217 H 290.369 1.1178 1.12654 0
M  V30 3218 H 290.39 0.487609 3.77363 0
M  V30 3219 H 289.902 2.21535 3.1866 0
M  V30 3220 H 288.003 -0.191793 3.72106 0
M  V30 3221 H 288.116 1.50028 4.55004 0
M  V30 3222 H 286.48 0.705109 2.44745 0
M  V30 3223 H 287.263 2.37625 2.47769 0
M  V30 3224 N 289.708 -1.40897 0.706093 0
M  V30 3225 C 290.638 -2.33418 0.0620085 0
M  V30 3226 C 291.619 -1.52385 -0.755827 0
M  V30 3227 O 292.804 -1.80886 -0.706674 0
M  V30 3228 C 289.934 -3.36293 -0.867445 0
M  V30 3229 C 288.888 -4.27716 -0.155932 0
M  V30 3230 C 288.214 -5.2105 -1.20046 0
M  V30 3231 C 289.514 -5.12944 0.984149 0
M  V30 3232 H 291.208 -2.87527 0.83477 0
M  V30 3233 H 288.754 -1.38249 0.402875 0
M  V30 3234 H 290.707 -3.99949 -1.32735 0
M  V30 3235 H 289.431 -2.80556 -1.67199 0
M  V30 3236 H 288.09 -3.65498 0.284047 0
M  V30 3237 H 287.738 -4.61624 -1.99781 0
M  V30 3238 H 287.438 -5.83056 -0.729328 0
M  V30 3239 H 288.962 -5.87584 -1.66066 0
M  V30 3240 H 290.376 -5.70109 0.604048 0
M  V30 3241 H 288.773 -5.83945 1.38304 0
M  V30 3242 H 289.843 -4.49485 1.81911 0
M  V30 3243 N 291.186 -0.45159 -1.50991 0
M  V30 3244 C 292.433 0.110074 -2.02201 0
M  V30 3245 C 292.761 1.4146 -1.33489 0
M  V30 3246 O 292.016 1.90617 -0.443125 0
M  V30 3247 C 292.315 0.361728 -3.55565 0
M  V30 3248 C 291.981 -0.858717 -4.42648 0
M  V30 3249 C 290.643 -1.19338 -4.66167 0
M  V30 3250 C 292.995 -1.67221 -4.93646 0
M  V30 3251 C 290.323 -2.34195 -5.37931 0
M  V30 3252 C 292.675 -2.8119 -5.6667 0
M  V30 3253 C 291.339 -3.15094 -5.88449 0
M  V30 3254 H 290.609 0.040279 -0.739904 0
M  V30 3255 H 293.256 -0.601696 -1.81802 0
M  V30 3256 H 291.561 1.15554 -3.74372 0
M  V30 3257 H 293.258 0.80996 -3.92735 0
M  V30 3258 H 289.848 -0.58796 -4.24548 0
M  V30 3259 H 294.032 -1.42686 -4.75347 0
M  V30 3260 H 289.288 -2.6076 -5.53005 0
M  V30 3261 H 293.462 -3.44585 -6.05173 0
M  V30 3262 H 291.089 -4.04204 -6.43835 0
M  V30 3263 N 292.664 1.56529 -0.183458 0
M  V30 3264 C 293.889 2.02064 0.467428 0
M  V30 3265 C 294.314 1.06282 1.55196 0
M  V30 3266 O 293.672 0.0443565 1.81246 0
M  V30 3267 C 293.72 3.46122 1.01153 0
M  V30 3268 O 292.824 3.53437 2.12499 0
M  V30 3269 H 292.165 0.654726 0.110588 0
M  V30 3270 H 294.695 2.02521 -0.290917 0
M  V30 3271 H 294.705 3.85676 1.33108 0
M  V30 3272 H 293.38 4.15331 0.217533 0
M  V30 3273 H 291.957 3.2575 1.81497 0
M  V30 3274 N 294.142 -0.090211 1.57342 0
M  V30 3275 C 295.052 -1.12735 2.05738 0
M  V30 3276 C 296.068 -1.43557 0.983231 0
M  V30 3277 O 297.244 -1.54101 1.29672 0
M  V30 3278 C 294.309 -2.42659 2.47624 0
M  V30 3279 C 293.37 -2.18975 3.69254 0
M  V30 3280 C 292.603 -3.42704 4.09133 0
M  V30 3281 O 292.826 -4.51127 3.49057 0
M  V30 3282 O 291.76 -3.32003 5.02053 0
M  V30 3283 H 295.586 -0.746279 2.94388 0
M  V30 3284 H 293.171 -0.303064 1.46294 0
M  V30 3285 H 295.053 -3.19155 2.7517 0
M  V30 3286 H 293.728 -2.80182 1.62109 0
M  V30 3287 H 292.635 -1.40244 3.46818 0
M  V30 3288 H 293.968 -1.86342 4.55563 0
M  V30 3289 N 295.62 -1.53406 -0.361157 0
M  V30 3290 C 296.848 -1.73717 -1.12383 0
M  V30 3291 C 297.263 -0.468161 -1.82904 0
M  V30 3292 O 296.62 0.559198 -1.73722 0
M  V30 3293 C 296.671 -2.90558 -2.15078 0
M  V30 3294 O 296.392 -4.12549 -1.47428 0
M  V30 3295 C 297.893 -3.22777 -3.03858 0
M  V30 3296 H 295.113 -0.580896 -0.335858 0
M  V30 3297 H 297.657 -2.00167 -0.418728 0
M  V30 3298 H 295.812 -2.66489 -2.8118 0
M  V30 3299 H 296.226 -4.78009 -2.15887 0
M  V30 3300 H 297.7 -4.07927 -3.71887 0
M  V30 3301 H 298.177 -2.38329 -3.68912 0
M  V30 3302 H 298.783 -3.48787 -2.43367 0
M  V30 3303 N 297.098 0.621204 -1.44841 0
M  V30 3304 C 298.347 1.37658 -1.47422 0
M  V30 3305 C 298.66 1.95264 -0.114629 0
M  V30 3306 O 299.866 2.71494 -0.0180199 0
M  V30 3307 C 298.322 2.49285 -2.59586 0
M  V30 3308 C 297.93 1.98149 -4.01797 0
M  V30 3309 C 299.674 3.26409 -2.71399 0
M  V30 3310 C 297.581 3.07178 -5.05367 0
M  V30 3311 H 296.511 0.517344 -0.548517 0
M  V30 3312 H 299.162 0.667257 -1.70938 0
M  V30 3313 H 297.544 3.22839 -2.29328 0
M  V30 3314 H 298.718 1.31395 -4.41669 0
M  V30 3315 H 297.033 1.33812 -3.94314 0
M  V30 3316 H 299.63 4.07706 -3.45948 0
M  V30 3317 H 299.973 3.76535 -1.77559 0
M  V30 3318 H 300.506 2.5995 -3.01116 0
M  V30 3319 H 297.245 2.61985 -6.00869 0
M  V30 3320 H 296.765 3.72542 -4.70077 0
M  V30 3321 H 298.444 3.71789 -5.29511 0
M  V30 3322 N 298.576 1.31904 0.862503 0
M  V30 3323 C 299.526 1.16772 1.95827 0
M  V30 3324 C 300.51 0.0767098 1.60717 0
M  V30 3325 O 301.702 0.302407 1.74398 0
M  V30 3326 C 298.831 0.884858 3.317 0
M  V30 3327 C 297.917 2.0172 3.73055 0
M  V30 3328 N 298.308 3.265 3.86305 0
M  V30 3329 C 296.606 1.91861 4.02623 0
M  V30 3330 C 297.307 4.00616 4.2176 0
M  V30 3331 N 296.283 3.28847 4.32852 0
M  V30 3332 H 300.085 2.11382 2.04193 0
M  V30 3333 H 297.599 1.2357 1.05377 0
M  V30 3334 H 299.596 0.757419 4.09962 0
M  V30 3335 H 298.256 -0.0529448 3.24657 0
M  V30 3336 H 299.267 3.61529 3.70833 0
M  V30 3337 H 295.944 1.05593 4.03926 0
M  V30 3338 H 297.334 5.08182 4.39546 0
M  V30 3339 N 300.054 -1.07777 1.14986 0
M  V30 3340 C 301.331 -1.7699 0.832695 0
M  V30 3341 C 301.711 -2.001 -0.672561 0
M  V30 3342 O 301.059 -1.61598 -1.6155 0
M  V30 3343 C 301.269 -3.08139 1.63863 0
M  V30 3344 C 302.617 -3.8256 1.84208 0
M  V30 3345 O 303.641 -3.17939 1.60603 0
M  V30 3346 O 302.5 -4.98612 2.23714 0
M  V30 3347 H 299.594 -0.768389 0.305791 0
M  V30 3348 H 302.14 -1.14182 1.25541 0
M  V30 3349 H 300.912 -2.86909 2.6608 0
M  V30 3350 H 300.535 -3.78678 1.21197 0
M  V30 3351 N 301.532 -0.945985 -1.26051 0
M  V30 3352 C 302.943 -0.638096 -1.75457 0
M  V30 3353 C 303.294 0.846672 -1.76991 0
M  V30 3354 O 302.419 1.66262 -1.38513 0
M  V30 3355 C 303.014 -1.15157 -3.18629 0
M  V30 3356 C 301.573 -0.894004 -3.65629 0
M  V30 3357 C 300.72 -1.29967 -2.44957 0
M  V30 3358 H 303.671 -1.12376 -1.1206 0
M  V30 3359 H 303.692 -0.507615 -3.77099 0
M  V30 3360 H 303.204 -2.23222 -3.1748 0
M  V30 3361 H 301.305 0.172057 -3.72203 0
M  V30 3362 H 301.418 -1.52439 -4.54202 0
M  V30 3363 H 299.782 -0.718078 -2.44368 0
M  V30 3364 H 300.565 -2.38935 -2.46505 0
M  V30 3365 N 303.011 1.40521 -0.713556 0
M  V30 3366 C 303.959 2.32549 -0.0485227 0
M  V30 3367 C 304.953 1.51931 0.74922 0
M  V30 3368 O 306.159 1.67745 0.652816 0
M  V30 3369 H 302.534 0.751994 0.00311138 0
M  V30 3370 H 304.505 2.86291 -0.841443 0
M  V30 3371 C 303.254 3.36879 0.860687 0
M  V30 3372 H 302.577 3.98978 0.256246 0
M  V30 3373 H 304.017 4.03772 1.294 0
M  V30 3374 C 302.476 2.72197 1.9852 0
M  V30 3375 O 303.006 2.5837 3.07584 0
M  V30 3376 N 301.212 2.30612 1.76823 0
M  V30 3377 H 300.759 2.42059 0.881217 0
M  V30 3378 H 300.717 1.87672 2.52243 0
M  V30 3379 N 304.489 0.459591 1.5075 0
M  V30 3380 C 305.9 0.00171547 1.867 0
M  V30 3381 C 306.251 -1.39934 1.37525 0
M  V30 3382 O 305.376 -2.03523 0.735349 0
M  V30 3383 C 305.971 -0.00366298 3.388 0
M  V30 3384 C 304.53 -0.406026 3.74204 0
M  V30 3385 C 303.677 0.38673 2.7459 0
M  V30 3386 H 306.628 0.674413 1.43657 0
M  V30 3387 H 306.649 -0.808371 3.71814 0
M  V30 3388 H 306.161 1.01617 3.74561 0
M  V30 3389 H 304.262 -1.43063 3.4404 0
M  V30 3390 H 304.375 -0.115362 4.78961 0
M  V30 3391 H 302.739 -0.158019 2.54209 0
M  V30 3392 H 303.522 1.40585 3.13194 0
M  V30 3393 N 305.967 -1.56429 0.191757 0
M  V30 3394 C 307.207 -1.99383 -0.450099 0
M  V30 3395 C 307.571 -1.07581 -1.59029 0
M  V30 3396 O 308.772 -1.39758 -2.29611 0
M  V30 3397 C 307.043 -3.45841 -0.901611 0
M  V30 3398 S 308.602 -4.10822 -1.54177 0
M  V30 3399 H 305.42 -0.696253 -0.144057 0
M  V30 3400 H 308.022 -1.93276 0.294036 0
M  V30 3401 H 306.726 -4.10354 -0.0616596 0
M  V30 3402 H 306.257 -3.55757 -1.67929 0
M  V30 3403 H 308.272 -4.07553 -2.83046 0
M  V30 3404 N 307.445 0.0818655 -1.57387 0
M  V30 3405 C 308.856 0.634871 -1.75574 0
M  V30 3406 C 309.207 1.78435 -0.815809 0
M  V30 3407 O 308.332 2.164 0.0025366 0
M  V30 3408 C 308.927 1.15845 -3.18379 0
M  V30 3409 C 307.486 1.65741 -3.37945 0
M  V30 3410 C 306.633 0.572549 -2.71325 0
M  V30 3411 H 309.584 -0.144268 -1.58043 0
M  V30 3412 H 309.605 2.02751 -3.21982 0
M  V30 3413 H 309.117 0.321631 -3.86765 0
M  V30 3414 H 307.218 2.51781 -2.74658 0
M  V30 3415 H 307.331 1.74129 -4.46336 0
M  V30 3416 H 305.695 1.01518 -2.33594 0
M  V30 3417 H 306.478 -0.253918 -3.4236 0
M  V30 3418 N 308.923 1.53595 0.353017 0
M  V30 3419 C 309.833 1.83897 1.45667 0
M  V30 3420 C 310.849 0.728334 1.58023 0
M  V30 3421 O 312.025 1.01968 1.73679 0
M  V30 3422 C 309.09 2.03383 2.80778 0
M  V30 3423 C 308.151 3.27262 2.77845 0
M  V30 3424 C 307.384 3.45809 4.06512 0
M  V30 3425 O 307.607 2.68387 5.03314 0
M  V30 3426 O 306.541 4.39207 4.11559 0
M  V30 3427 H 310.367 2.77686 1.2298 0
M  V30 3428 H 307.952 1.39132 0.544308 0
M  V30 3429 H 309.834 2.17698 3.60812 0
M  V30 3430 H 308.509 1.12783 3.03417 0
M  V30 3431 H 307.416 3.18359 1.96465 0
M  V30 3432 H 308.749 4.17824 2.60161 0
M  V30 3433 N 310.401 -0.613514 1.45168 0
M  V30 3434 C 311.626 -1.40437 1.52618 0
M  V30 3435 C 312.051 -1.87438 0.157707 0
M  V30 3436 O 311.409 -1.59791 -0.856537 0
M  V30 3437 C 311.457 -2.58894 2.51011 0
M  V30 3438 O 310.561 -3.59326 2.02382 0
M  V30 3439 H 309.902 -0.419506 0.514695 0
M  V30 3440 H 312.432 -0.747215 1.90467 0
M  V30 3441 H 312.442 -3.06214 2.69624 0
M  V30 3442 H 311.117 -2.24032 3.50403 0
M  V30 3443 H 309.694 -3.18695 1.93618 0
M  V30 3444 N 311.879 -1.3236 -0.855495 0
M  V30 3445 C 313.104 -1.2601 -1.64731 0
M  V30 3446 C 313.529 0.169068 -1.87339 0
M  V30 3447 O 312.887 1.12016 -1.42556 0
M  V30 3448 C 312.935 -2.02417 -2.98429 0
M  V30 3449 O 312.039 -1.3714 -3.8893 0
M  V30 3450 H 311.38 -0.434325 -0.502253 0
M  V30 3451 H 313.91 -1.74661 -1.06558 0
M  V30 3452 H 313.92 -2.12559 -3.48257 0
M  V30 3453 H 312.595 -3.06343 -2.81295 0
M  V30 3454 H 311.172 -1.3554 -3.47395 0
M  V30 3455 N 313.357 1.07166 -1.15556 0
M  V30 3456 C 314.32 2.12589 -0.856644 0
M  V30 3457 C 315.32 1.6015 0.14444 0
M  V30 3458 O 316.51 1.7399 -0.0854163 0
M  V30 3459 C 313.642 3.39753 -0.279405 0
M  V30 3460 H 314.835 2.40539 -1.79112 0
M  V30 3461 H 312.388 1.23086 -0.963298 0
M  V30 3462 H 313.123 3.17447 0.663174 0
M  V30 3463 H 312.908 3.79117 -1.00063 0
M  V30 3464 H 314.398 4.17507 -0.0879113 0
M  V30 3465 N 314.835 0.952656 1.25548 0
M  V30 3466 C 316.06 0.623025 1.97821 0
M  V30 3467 C 316.485 -0.7976 1.70352 0
M  V30 3468 O 315.843 -1.53905 0.958283 0
M  V30 3469 C 315.891 0.885532 3.49558 0
M  V30 3470 O 314.995 -0.0366641 4.12384 0
M  V30 3471 H 314.336 0.237082 0.620232 0
M  V30 3472 H 316.866 1.27871 1.59719 0
M  V30 3473 H 316.876 0.811009 3.99858 0
M  V30 3474 H 315.551 1.92094 3.6888 0
M  V30 3475 H 314.128 0.0898954 3.72792 0
M  V30 3476 N 316.313 -1.40141 0.720998 0
M  V30 3477 C 317.56 -2.00787 0.262842 0
M  V30 3478 C 317.888 -1.5718 -1.14563 0
M  V30 3479 O 317.143 -0.785391 -1.79249 0
M  V30 3480 C 317.442 -3.56165 0.296892 0
M  V30 3481 C 317.108 -4.19373 1.65641 0
M  V30 3482 C 315.77 -4.36352 2.02855 0
M  V30 3483 C 318.122 -4.54578 2.54968 0
M  V30 3484 C 315.45 -4.8582 3.28931 0
M  V30 3485 C 317.802 -5.05447 3.80402 0
M  V30 3486 C 316.466 -5.20635 4.17726 0
M  V30 3487 H 315.736 -0.734731 0.0961807 0
M  V30 3488 H 318.383 -1.67673 0.925093 0
M  V30 3489 H 316.688 -3.8922 -0.448932 0
M  V30 3490 H 318.385 -4.00929 -0.0755208 0
M  V30 3491 H 314.975 -4.06549 1.35704 0
M  V30 3492 H 319.159 -4.41091 2.27491 0
M  V30 3493 H 314.415 -4.95764 3.57811 0
M  V30 3494 H 318.589 -5.31663 4.49786 0
M  V30 3495 H 316.216 -5.58728 5.15487 0
M  V30 3496 N 317.792 -0.46758 -1.50504 0
M  V30 3497 C 318.722 0.318381 -2.31319 0
M  V30 3498 C 319.703 0.993564 -1.38066 0
M  V30 3499 O 320.888 0.991411 -1.66987 0
M  V30 3500 C 318.018 1.40275 -3.17711 0
M  V30 3501 C 316.972 0.849373 -4.19487 0
M  V30 3502 C 316.298 2.03177 -4.94594 0
M  V30 3503 C 317.598 -0.136942 -5.2212 0
M  V30 3504 H 319.292 -0.356106 -2.97275 0
M  V30 3505 H 316.838 -0.172703 -1.42961 0
M  V30 3506 H 318.791 1.96004 -3.73042 0
M  V30 3507 H 317.515 2.10596 -2.49634 0
M  V30 3508 H 316.174 0.314076 -3.65252 0
M  V30 3509 H 315.822 2.72187 -4.22993 0
M  V30 3510 H 315.522 1.66774 -5.63436 0
M  V30 3511 H 317.046 2.59403 -5.52759 0
M  V30 3512 H 318.46 0.331056 -5.72343 0
M  V30 3513 H 316.857 -0.41507 -5.98663 0
M  V30 3514 H 317.927 -1.06398 -4.73083 0
M  V30 3515 N 319.27 1.56325 -0.20005 0
M  V30 3516 C 320.495 2.02548 0.44597 0
M  V30 3517 C 320.92 1.07922 1.5406 0
M  V30 3518 O 320.278 0.0635775 1.81188 0
M  V30 3519 C 320.326 3.47175 0.974761 0
M  V30 3520 O 319.43 3.55671 2.08739 0
M  V30 3521 H 318.771 0.655862 0.103638 0
M  V30 3522 H 321.301 2.02201 -0.312381 0
M  V30 3523 H 321.311 3.87067 1.2901 0
M  V30 3524 H 319.986 4.15538 0.17347 0
M  V30 3525 H 318.563 3.27657 1.78032 0
M  V30 3526 N 320.748 -0.0735177 1.57428 0
M  V30 3527 C 322.164 -0.428264 1.53747 0
M  V30 3528 C 322.364 -1.79272 0.91998 0
M  V30 3529 O 321.42 -2.47051 0.521745 0
M  V30 3530 C 322.733 -0.370914 2.98404 0
M  V30 3531 C 324.281 -0.451224 3.0973 0
M  V30 3532 C 324.756 -0.4238 4.56035 0
M  V30 3533 N 326.247 -0.483925 4.60665 0
M  V30 3534 C 326.982 -0.484891 5.71346 0
M  V30 3535 N 326.478 -0.440775 6.91396 0
M  V30 3536 N 328.271 -0.531319 5.59583 0
M  V30 3537 H 320.422 0.819949 1.95935 0
M  V30 3538 H 322.685 0.307493 0.896745 0
M  V30 3539 H 322.391 0.564956 3.47133 0
M  V30 3540 H 322.265 -1.18176 3.5821 0
M  V30 3541 H 324.652 -1.37752 2.60976 0
M  V30 3542 H 324.733 0.388167 2.52838 0
M  V30 3543 H 324.377 0.498638 5.05446 0
M  V30 3544 H 324.307 -1.2807 5.10789 0
M  V30 3545 H 326.798 -0.522338 3.74273 0
M  V30 3546 H 327.111 -0.44539 7.71515 0
M  V30 3547 H 325.456 -0.40749 6.93804 0
M  V30 3548 H 328.647 -0.563464 4.64696 0
M  V30 3549 H 328.82 -0.528603 6.4584 0
M  V30 3550 N 322.226 -1.5378 -0.344866 0
M  V30 3551 C 323.475 -1.7018 -1.08267 0
M  V30 3552 C 323.788 -0.471 -1.89845 0
M  V30 3553 O 324.994 -0.515917 -2.66553 0
M  V30 3554 C 323.45 -3.00923 -1.97417 0
M  V30 3555 C 323.058 -4.31335 -1.21053 0
M  V30 3556 C 324.802 -3.26688 -2.71063 0
M  V30 3557 C 322.709 -5.53153 -2.09225 0
M  V30 3558 H 321.639 -0.634138 -0.407903 0
M  V30 3559 H 324.29 -1.8028 -0.342246 0
M  V30 3560 H 322.672 -2.84676 -2.75274 0
M  V30 3561 H 323.846 -4.58281 -0.481159 0
M  V30 3562 H 322.161 -4.12173 -0.591813 0
M  V30 3563 H 324.758 -4.1489 -3.37299 0
M  V30 3564 H 325.101 -2.43639 -3.37558 0
M  V30 3565 H 325.634 -3.43705 -2.0028 0
M  V30 3566 H 322.373 -6.38741 -1.47274 0
M  V30 3567 H 321.893 -5.30458 -2.79955 0
M  V30 3568 H 323.572 -5.88744 -2.68308 0
M  V30 3569 N 323.704 0.605807 -1.45491 0
M  V30 3570 C 324.932 1.39136 -1.5313 0
M  V30 3571 C 325.347 1.88082 -0.164507 0
M  V30 3572 O 324.704 1.62316 0.834247 0
M  V30 3573 C 324.755 2.59463 -2.51716 0
M  V30 3574 O 324.476 2.12551 -3.83084 0
M  V30 3575 C 325.977 3.52301 -2.6907 0
M  V30 3576 H 323.197 0.425849 -0.51855 0
M  V30 3577 H 325.741 0.73865 -1.90694 0
M  V30 3578 H 323.896 3.20772 -2.17219 0
M  V30 3579 H 324.31 2.90744 -4.36541 0
M  V30 3580 H 325.784 4.33271 -3.42024 0
M  V30 3581 H 326.261 4.02757 -1.75167 0
M  V30 3582 H 326.867 2.96845 -3.04571 0
M  V30 3583 N 325.182 1.32811 0.848464 0
M  V30 3584 C 326.429 1.23724 1.60308 0
M  V30 3585 C 326.757 -0.1994 1.93475 0
M  V30 3586 O 326.012 -1.15406 1.5805 0
M  V30 3587 C 326.311 2.04831 2.92881 0
M  V30 3588 C 325.977 3.54125 2.79117 0
M  V30 3589 C 324.639 3.94829 2.7507 0
M  V30 3590 C 326.991 4.49036 2.64606 0
M  V30 3591 C 324.319 5.28675 2.544 0
M  V30 3592 C 326.671 5.83033 2.4547 0
M  V30 3593 C 325.335 6.22931 2.39819 0
M  V30 3594 H 324.605 0.452737 0.586609 0
M  V30 3595 H 327.252 1.64301 0.983743 0
M  V30 3596 H 325.557 1.57001 3.58968 0
M  V30 3597 H 327.254 1.95164 3.50303 0
M  V30 3598 H 323.844 3.21801 2.83094 0
M  V30 3599 H 328.028 4.18505 2.66772 0
M  V30 3600 H 323.284 5.58637 2.48465 0
M  V30 3601 H 327.458 6.56186 2.33222 0
M  V30 3602 H 325.085 7.26584 2.23562 0
M  V30 3603 N 326.66 -1.06551 1.16123 0
M  V30 3604 C 327.906 -1.79719 0.952505 0
M  V30 3605 C 328.261 -1.85396 -0.514385 0
M  V30 3606 O 327.554 -1.33263 -1.37665 0
M  V30 3607 C 327.748 -3.23911 1.51052 0
M  V30 3608 C 327.577 -3.32284 3.03013 0
M  V30 3609 C 326.347 -3.42371 3.71632 0
M  V30 3610 C 328.545 -3.22363 4.00732 0
M  V30 3611 N 326.527 -3.39732 5.11327 0
M  V30 3612 C 327.898 -3.26937 5.26794 0
M  V30 3613 C 329.953 -3.0623 3.92591 0
M  V30 3614 C 328.656 -3.17035 6.45663 0
M  V30 3615 C 330.682 -2.97665 5.11028 0
M  V30 3616 C 330.044 -3.02858 6.35969 0
M  V30 3617 H 326.143 -0.670585 0.402293 0
M  V30 3618 H 328.727 -1.27125 1.4747 0
M  V30 3619 H 326.898 -3.74907 1.01484 0
M  V30 3620 H 328.63 -3.85242 1.2398 0
M  V30 3621 H 325.385 -3.47058 3.22254 0
M  V30 3622 H 325.809 -3.41919 5.84312 0
M  V30 3623 H 330.451 -3.01063 2.96852 0
M  V30 3624 H 328.169 -3.2096 7.41627 0
M  V30 3625 H 331.755 -2.86273 5.06497 0
M  V30 3626 H 330.635 -2.96286 7.26075 0
M  V30 3627 N 328.138 -0.959301 -1.25041 0
M  V30 3628 C 329.384 -0.627096 -1.93492 0
M  V30 3629 C 329.739 0.827484 -1.73696 0
M  V30 3630 O 329.032 1.58651 -1.07427 0
M  V30 3631 C 329.226 -0.927136 -3.45165 0
M  V30 3632 C 329.055 -2.40933 -3.79712 0
M  V30 3633 C 327.825 -3.0677 -4.01522 0
M  V30 3634 C 330.023 -3.38894 -3.86853 0
M  V30 3635 N 328.005 -4.44815 -4.231 0
M  V30 3636 C 329.376 -4.62263 -4.13174 0
M  V30 3637 C 331.431 -3.33668 -3.69554 0
M  V30 3638 C 330.134 -5.81052 -4.23995 0
M  V30 3639 C 332.16 -4.518 -3.81616 0
M  V30 3640 C 331.522 -5.73957 -4.08354 0
M  V30 3641 H 327.621 -0.280166 -0.73009 0
M  V30 3642 H 330.205 -1.23244 -1.50729 0
M  V30 3643 H 328.376 -0.350685 -3.86814 0
M  V30 3644 H 330.108 -0.554361 -4.00885 0
M  V30 3645 H 326.863 -2.57327 -3.97593 0
M  V30 3646 H 327.287 -5.16319 -4.37885 0
M  V30 3647 H 331.929 -2.40268 -3.47895 0
M  V30 3648 H 329.647 -6.74888 -4.44468 0
M  V30 3649 H 333.233 -4.49309 -3.69612 0
M  V30 3650 H 332.113 -6.6384 -4.17475 0
M  V30 3651 N 329.616 1.39756 -0.72842 0
M  V30 3652 C 330.865 1.99879 -0.270407 0
M  V30 3653 C 331.178 1.58449 1.14688 0
M  V30 3654 O 332.384 2.11362 1.70407 0
M  V30 3655 C 330.84 3.57292 -0.43252 0
M  V30 3656 C 330.448 4.07688 -1.85727 0
M  V30 3657 C 332.192 4.24485 -0.0359507 0
M  V30 3658 C 330.099 5.5765 -1.96928 0
M  V30 3659 H 329.029 0.747689 -0.0973472 0
M  V30 3660 H 331.68 1.59837 -0.901355 0
M  V30 3661 H 330.062 3.95097 0.267219 0
M  V30 3662 H 331.236 3.81231 -2.58843 0
M  V30 3663 H 329.551 3.53135 -2.20646 0
M  V30 3664 H 332.148 5.34609 -0.0987484 0
M  V30 3665 H 332.491 4.03915 1.00787 0
M  V30 3666 H 333.024 3.9183 -0.686604 0
M  V30 3667 H 329.763 5.8309 -2.99476 0
M  V30 3668 H 329.283 5.8593 -1.28241 0
M  V30 3669 H 330.962 6.22957 -1.74737 0
M  V30 3670 N 331.094 0.475555 1.50254 0
M  V30 3671 C 332.322 -0.0754493 2.06762 0
M  V30 3672 C 332.737 -1.33111 1.33891 0
M  V30 3673 O 332.094 -1.77846 0.40952 0
M  V30 3674 C 332.145 -0.359008 3.59713 0
M  V30 3675 O 331.866 0.846851 4.29837 0
M  V30 3676 C 333.367 -0.956484 4.32858 0
M  V30 3677 H 330.587 0.00907525 0.670939 0
M  V30 3678 H 333.131 0.665618 1.93364 0
M  V30 3679 H 331.286 -1.05001 3.72899 0
M  V30 3680 H 331.7 0.594162 5.21124 0
M  V30 3681 H 333.174 -1.10463 5.40834 0
M  V30 3682 H 333.651 -1.94775 3.93649 0
M  V30 3683 H 334.257 -0.303723 4.24214 0
M  V30 3684 N 332.573 -1.56217 0.208337 0
M  V30 3685 C 333.821 -1.97558 -0.426076 0
M  V30 3686 C 334.142 -1.09683 -1.61229 0
M  V30 3687 O 333.412 -0.170956 -1.95153 0
M  V30 3688 H 331.992 -0.729575 -0.160405 0
M  V30 3689 H 334.654 -1.92606 0.298155 0
M  V30 3690 H 333.75 -3.02672 -0.761312 0
M  V30 3691 N 334.051 0.0651679 -1.57465 0
M  V30 3692 C 334.981 1.07693 -2.07182 0
M  V30 3693 C 335.962 1.39962 -0.966673 0
M  V30 3694 O 337.147 1.49475 -1.2398 0
M  V30 3695 C 334.277 2.3885 -2.52127 0
M  V30 3696 C 333.231 2.20917 -3.66579 0
M  V30 3697 C 332.557 3.57515 -3.97601 0
M  V30 3698 C 333.857 1.62493 -4.9638 0
M  V30 3699 H 335.551 0.663199 -2.91962 0
M  V30 3700 H 333.097 0.317569 -1.40455 0
M  V30 3701 H 335.05 3.09928 -2.85522 0
M  V30 3702 H 333.774 2.82215 -1.64384 0
M  V30 3703 H 332.433 1.52279 -3.33477 0
M  V30 3704 H 332.081 3.98463 -3.06979 0
M  V30 3705 H 331.781 3.46353 -4.74672 0
M  V30 3706 H 333.305 4.30013 -4.33499 0
M  V30 3707 H 334.719 2.23445 -5.27963 0
M  V30 3708 H 333.116 1.62009 -5.77818 0
M  V30 3709 H 334.186 0.587041 -4.81333 0
M  V30 3710 N 335.529 1.53961 0.336706 0
M  V30 3711 C 336.778 1.70751 1.07363 0
M  V30 3712 C 337.091 0.481061 1.89592 0
M  V30 3713 O 338.297 0.530046 2.66276 0
M  V30 3714 C 336.753 3.01965 1.95818 0
M  V30 3715 C 336.361 4.31971 1.18764 0
M  V30 3716 C 338.105 3.28121 2.69327 0
M  V30 3717 C 336.012 5.54255 2.06289 0
M  V30 3718 H 334.942 0.636292 0.404535 0
M  V30 3719 H 337.593 1.80459 0.332681 0
M  V30 3720 H 335.975 2.86132 2.7376 0
M  V30 3721 H 337.149 4.5853 0.456849 0
M  V30 3722 H 335.464 4.12481 0.569946 0
M  V30 3723 H 338.061 4.16673 3.35094 0
M  V30 3724 H 338.404 2.45426 3.36261 0
M  V30 3725 H 338.937 3.44762 1.98454 0
M  V30 3726 H 335.676 6.39513 1.43885 0
M  V30 3727 H 335.196 5.31935 2.77138 0
M  V30 3728 H 336.875 5.90159 2.65182 0
M  V30 3729 N 337.007 -0.598083 1.45811 0
M  V30 3730 C 338.253 -1.35882 1.50545 0
M  V30 3731 C 338.586 -1.93616 0.150445 0
M  V30 3732 O 337.861 -1.75604 -0.83628 0
M  V30 3733 C 338.144 -2.49966 2.59208 0
M  V30 3734 C 337.997 -1.97367 4.04186 0
M  V30 3735 C 339.316 -3.52068 2.64076 0
M  V30 3736 H 336.435 -0.492717 0.548087 0
M  V30 3737 H 339.077 -0.673319 1.77669 0
M  V30 3738 H 337.227 -3.08443 2.3621 0
M  V30 3739 H 338.899 -1.43466 4.38423 0
M  V30 3740 H 337.142 -1.283 4.14393 0
M  V30 3741 H 337.813 -2.79649 4.75921 0
M  V30 3742 H 340.289 -3.03448 2.84708 0
M  V30 3743 H 339.165 -4.2937 3.41954 0
M  V30 3744 H 339.426 -4.08304 1.69531 0
M  V30 3745 N 338.485 -1.33259 -0.841409 0
M  V30 3746 C 339.901 -1.12538 -1.13169 0
M  V30 3747 C 340.101 0.0854037 -2.01319 0
M  V30 3748 O 339.157 0.766417 -2.40587 0
M  V30 3749 C 340.47 -2.41156 -1.79623 0
M  V30 3750 C 342.018 -2.47038 -1.922 0
M  V30 3751 C 342.493 -3.7561 -2.6207 0
M  V30 3752 N 343.984 -3.76667 -2.69585 0
M  V30 3753 C 344.719 -4.72861 -3.2433 0
M  V30 3754 N 344.215 -5.79428 -3.79783 0
M  V30 3755 N 346.008 -4.6034 -3.22558 0
M  V30 3756 H 338.159 -2.10868 -0.254676 0
M  V30 3757 H 340.422 -0.931615 -0.175493 0
M  V30 3758 H 340.128 -3.29747 -1.22311 0
M  V30 3759 H 340.002 -2.53114 -2.79666 0
M  V30 3760 H 342.389 -1.58898 -2.48667 0
M  V30 3761 H 342.47 -2.39022 -0.911148 0
M  V30 3762 H 342.114 -4.64131 -2.06263 0
M  V30 3763 H 342.044 -3.80902 -3.63622 0
M  V30 3764 H 344.535 -2.99648 -2.30259 0
M  V30 3765 H 344.848 -6.48867 -4.19752 0
M  V30 3766 H 343.193 -5.83166 -3.78078 0
M  V30 3767 H 346.384 -3.76244 -2.78492 0
M  V30 3768 H 346.557 -5.35478 -3.64921 0
M  V30 3769 N 339.963 1.05934 -1.16686 0
M  V30 3770 C 341.211 1.78447 -0.948744 0
M  V30 3771 C 341.532 1.87813 0.524523 0
M  V30 3772 O 340.802 1.38945 1.38098 0
M  V30 3773 H 339.382 0.660971 -0.348033 0
M  V30 3774 H 342.044 1.27947 -1.47022 0
M  V30 3775 H 341.14 2.80394 -1.37061 0
M  V30 3776 N 341.441 0.965919 1.2453 0
M  V30 3777 C 342.671 0.643451 1.96324 0
M  V30 3778 C 343.079 -0.790927 1.71875 0
M  V30 3779 O 342.422 -1.54208 0.998273 0
M  V30 3780 C 342.484 0.836078 3.49643 0
M  V30 3781 C 342.148 2.24975 3.97788 0
M  V30 3782 C 343.145 3.22735 4.07601 0
M  V30 3783 C 340.83 2.57697 4.31158 0
M  V30 3784 C 342.824 4.51303 4.50116 0
M  V30 3785 C 340.511 3.86492 4.73357 0
M  V30 3786 C 341.509 4.83107 4.828 0
M  V30 3787 O 341.197 6.09605 5.24058 0
M  V30 3788 H 340.929 0.239223 0.632257 0
M  V30 3789 H 343.483 1.29587 1.59362 0
M  V30 3790 H 341.713 0.12649 3.86493 0
M  V30 3791 H 343.402 0.512965 4.02646 0
M  V30 3792 H 344.168 2.98783 3.82039 0
M  V30 3793 H 340.047 1.83216 4.23028 0
M  V30 3794 H 343.591 5.26716 4.57401 0
M  V30 3795 H 339.488 4.10245 4.98366 0
M  V30 3796 H 340.256 6.13146 5.42213 0
M  V30 3797 N 342.919 -1.39368 0.735821 0
M  V30 3798 C 344.335 -1.54204 0.411492 0
M  V30 3799 C 344.535 -1.70268 -1.07755 0
M  V30 3800 O 343.591 -1.70364 -1.86366 0
M  V30 3801 C 344.904 -2.75925 1.19523 0
M  V30 3802 C 346.452 -2.89761 1.18354 0
M  V30 3803 C 346.927 -4.14421 1.94986 0
M  V30 3804 N 348.418 -4.21462 1.92156 0
M  V30 3805 C 349.153 -5.16871 2.48258 0
M  V30 3806 N 348.649 -6.18063 3.13001 0
M  V30 3807 N 350.442 -5.09093 2.38287 0
M  V30 3808 H 342.593 -1.27189 1.70108 0
M  V30 3809 H 344.856 -0.616517 0.720147 0
M  V30 3810 H 344.562 -2.70401 2.24892 0
M  V30 3811 H 344.436 -3.68614 0.800222 0
M  V30 3812 H 346.823 -2.94777 0.137975 0
M  V30 3813 H 346.904 -1.98133 1.61793 0
M  V30 3814 H 346.548 -4.10166 2.99543 0
M  V30 3815 H 346.478 -5.05095 1.48953 0
M  V30 3816 H 348.969 -3.48979 1.44991 0
M  V30 3817 H 349.282 -6.87326 3.53275 0
M  V30 3818 H 347.627 -6.18448 3.17091 0
M  V30 3819 H 350.818 -4.28973 1.8735 0
M  V30 3820 H 350.991 -5.83272 2.82308 0
M  V30 3821 N 344.397 -0.483516 -1.5 0
M  V30 3822 C 345.329 0.340634 -2.26655 0
M  V30 3823 C 346.342 0.946152 -1.32483 0
M  V30 3824 O 347.531 0.832453 -1.579 0
M  V30 3825 C 344.631 1.4929 -3.04246 0
M  V30 3826 C 343.804 0.997903 -4.25865 0
M  V30 3827 C 342.863 2.02569 -4.85646 0
M  V30 3828 O 341.889 1.60128 -5.46212 0
M  V30 3829 N 343.091 3.3548 -4.73744 0
M  V30 3830 H 345.856 -0.316577 -2.98023 0
M  V30 3831 H 343.417 -0.315024 -1.58806 0
M  V30 3832 H 345.409 2.17766 -3.41116 0
M  V30 3833 H 343.979 2.05458 -2.35597 0
M  V30 3834 H 343.199 0.138617 -3.93956 0
M  V30 3835 H 344.487 0.645305 -5.04691 0
M  V30 3836 H 343.885 3.72661 -4.25605 0
M  V30 3837 H 342.442 3.99718 -5.14848 0
M  V30 3838 N 345.875 1.56104 -0.216619 0
M  V30 3839 C 347.286 1.844 0.292128 0
M  V30 3840 C 347.637 1.13788 1.59833 0
M  V30 3841 O 346.762 0.405888 2.12559 0
M  V30 3842 C 347.357 3.3452 0.53681 0
M  V30 3843 C 345.916 3.63151 0.989876 0
M  V30 3844 C 345.063 2.77255 0.0502302 0
M  V30 3845 H 348.014 1.52481 -0.439926 0
M  V30 3846 H 348.035 3.54459 1.38345 0
M  V30 3847 H 347.547 3.85885 -0.414031 0
M  V30 3848 H 345.648 3.17238 1.95425 0
M  V30 3849 H 345.761 4.71177 0.867698 0
M  V30 3850 H 344.125 2.48555 0.556117 0
M  V30 3851 H 344.908 3.31416 -0.89544 0
M  V30 3852 N 347.353 -0.0568162 1.57498 0
M  V30 3853 C 348.283 -1.06593 2.0775 0
M  V30 3854 C 349.264 -1.39448 0.974082 0
M  V30 3855 O 350.449 -1.48815 1.24771 0
M  V30 3856 C 347.579 -2.37509 2.5339 0
M  V30 3857 C 346.533 -2.1897 3.67745 0
M  V30 3858 C 345.859 -3.55402 3.99492 0
M  V30 3859 C 347.159 -1.59859 4.97235 0
M  V30 3860 H 348.853 -0.647706 2.9231 0
M  V30 3861 H 346.399 -0.310116 1.40621 0
M  V30 3862 H 348.352 -3.08409 2.87162 0
M  V30 3863 H 347.076 -2.8134 1.65878 0
M  V30 3864 H 345.735 -1.50508 3.3428 0
M  V30 3865 H 345.383 -3.9683 3.09088 0
M  V30 3866 H 345.083 -3.43831 4.76502 0
M  V30 3867 H 346.607 -4.27708 4.35773 0
M  V30 3868 H 348.021 -2.20642 5.29141 0
M  V30 3869 H 346.418 -1.58942 5.78669 0
M  V30 3870 H 347.488 -0.561506 4.81638 0
M  V30 3871 N 348.832 -1.54138 -0.328536 0
M  V30 3872 C 349.742 -1.86192 -1.42723 0
M  V30 3873 C 350.758 -0.753382 -1.56844 0
M  V30 3874 O 351.934 -1.04718 -1.72035 0
M  V30 3875 C 348.999 -2.07824 -2.77507 0
M  V30 3876 C 348.06 -3.31641 -2.72603 0
M  V30 3877 C 347.293 -3.52232 -4.00959 0
M  V30 3878 O 347.516 -2.7636 -4.9898 0
M  V30 3879 O 346.45 -4.45699 -4.0452 0
M  V30 3880 H 350.276 -2.79608 -1.18547 0
M  V30 3881 H 347.861 -1.3998 -0.522104 0
M  V30 3882 H 349.743 -2.23411 -3.57303 0
M  V30 3883 H 348.418 -1.17596 -3.01584 0
M  V30 3884 H 347.325 -3.21444 -1.91376 0
M  V30 3885 H 348.658 -4.2191 -2.53481 0
M  V30 3886 N 350.31 0.590341 -1.46126 0
M  V30 3887 C 351.558 1.34616 -1.50742 0
M  V30 3888 C 351.879 1.94363 -0.157486 0
M  V30 3889 O 351.149 1.78136 0.815136 0
M  V30 3890 H 349.729 0.499789 -0.555175 0
M  V30 3891 H 352.391 0.691953 -1.82203 0
M  V30 3892 H 351.487 2.15678 -2.25587 0
M  V30 3893 N 351.788 1.33704 0.83433 0
M  V30 3894 C 353.013 1.28615 1.62705 0
M  V30 3895 C 353.438 -0.139242 1.87584 0
M  V30 3896 O 352.796 -1.09734 1.4432 0
M  V30 3897 C 352.844 2.07139 2.95171 0
M  V30 3898 O 351.948 1.4331 3.86699 0
M  V30 3899 H 351.289 0.44226 0.49528 0
M  V30 3900 H 353.819 1.76335 1.03766 0
M  V30 3901 H 353.829 2.18073 3.44831 0
M  V30 3902 H 352.504 3.10779 2.76386 0
M  V30 3903 H 351.081 1.4105 3.45195 0
M  V30 3904 N 353.266 -1.05314 1.17247 0
M  V30 3905 C 354.543 -1.75184 0.87005 0
M  V30 3906 C 354.923 -2.01481 -0.629965 0
M  V30 3907 O 354.271 -1.64988 -1.58086 0
M  V30 3908 C 354.481 -3.04594 1.70363 0
M  V30 3909 C 355.829 -3.78567 1.92281 0
M  V30 3910 O 356.853 -3.14461 1.67311 0
M  V30 3911 O 355.712 -4.93755 2.3424 0
M  V30 3912 H 352.806 -0.761729 0.322021 0
M  V30 3913 H 355.352 -1.11493 1.27935 0
M  V30 3914 H 354.124 -2.81201 2.72106 0
M  V30 3915 H 353.747 -3.76022 1.29202 0
M  V30 3916 N 354.744 -0.972509 -1.24016 0
M  V30 3917 C 355.674 -0.525548 -2.27509 0
M  V30 3918 C 356.655 0.437262 -1.64384 0
M  V30 3919 O 357.84 0.332343 -1.91335 0
M  V30 3920 C 354.97 0.180448 -3.46831 0
M  V30 3921 C 353.924 -0.698859 -4.22256 0
M  V30 3922 C 353.25 0.138903 -5.3452 0
M  V30 3923 C 354.55 -1.98582 -4.83076 0
M  V30 3924 H 356.244 -1.39058 -2.65148 0
M  V30 3925 H 353.79 -0.67009 -1.27459 0
M  V30 3926 H 355.743 0.504387 -4.18371 0
M  V30 3927 H 354.467 1.07987 -3.08231 0
M  V30 3928 H 353.126 -1.00614 -3.52523 0
M  V30 3929 H 352.774 1.03862 -4.9216 0
M  V30 3930 H 352.474 -0.446259 -5.85903 0
M  V30 3931 H 353.998 0.457404 -6.08884 0
M  V30 3932 H 355.412 -1.72715 -5.46665 0
M  V30 3933 H 353.809 -2.5181 -5.44713 0
M  V30 3934 H 354.879 -2.67769 -4.04262 0
M  V30 3935 N 356.222 1.38976 -0.743202 0
M  V30 3936 C 357.468 2.01114 -0.304109 0
M  V30 3937 C 357.823 1.57929 1.09892 0
M  V30 3938 O 357.116 0.801983 1.74008 0
M  V30 3939 C 357.31 3.55647 -0.353517 0
M  V30 3940 C 357.139 4.13837 -1.75981 0
M  V30 3941 C 355.909 4.46062 -2.37395 0
M  V30 3942 C 358.107 4.36812 -2.71477 0
M  V30 3943 N 356.089 4.898 -3.70093 0
M  V30 3944 C 357.46 4.82844 -3.88923 0
M  V30 3945 C 359.515 4.18893 -2.69134 0
M  V30 3946 C 358.218 5.12837 -5.04371 0
M  V30 3947 C 360.244 4.50005 -3.83731 0
M  V30 3948 C 359.606 4.96251 -4.99914 0
M  V30 3949 H 355.705 0.765931 -0.157716 0
M  V30 3950 H 358.289 1.68763 -0.970931 0
M  V30 3951 H 356.46 3.87368 0.282987 0
M  V30 3952 H 358.192 4.04564 0.104904 0
M  V30 3953 H 354.947 4.34145 -1.89248 0
M  V30 3954 H 355.371 5.16016 -4.38242 0
M  V30 3955 H 360.013 3.82335 -1.80499 0
M  V30 3956 H 357.731 5.48297 -5.9363 0
M  V30 3957 H 361.317 4.37755 -3.83225 0
M  V30 3958 H 360.197 5.19867 -5.87118 0
M  V30 3959 N 357.7 0.491464 1.49741 0
M  V30 3960 C 358.925 -0.0557177 2.07325 0
M  V30 3961 C 359.35 -1.30925 1.35056 0
M  V30 3962 O 358.708 -1.76733 0.404365 0
M  V30 3963 C 358.756 -0.302074 3.59333 0
M  V30 3964 O 357.86 -1.37868 3.88672 0
M  V30 3965 H 357.201 0.0219956 0.663636 0
M  V30 3966 H 359.731 0.688352 1.92673 0
M  V30 3967 H 359.741 -0.536464 4.04458 0
M  V30 3968 H 358.416 0.61383 4.11345 0
M  V30 3969 H 356.993 -1.12999 3.55367 0
M  V30 3970 N 359.178 -1.55987 0.224894 0
M  V30 3971 C 360.108 -2.23426 -0.678457 0
M  V30 3972 C 361.089 -1.20709 -1.19847 0
M  V30 3973 O 362.274 -1.49304 -1.24186 0
M  V30 3974 C 359.404 -2.91676 -1.88527 0
M  V30 3975 C 358.358 -4.00893 -1.49896 0
M  V30 3976 C 357.684 -4.56455 -2.78483 0
M  V30 3977 C 358.984 -5.17769 -0.686461 0
M  V30 3978 H 360.678 -2.99175 -0.116173 0
M  V30 3979 H 358.224 -1.43897 -0.054436 0
M  V30 3980 H 360.177 -3.37547 -2.5227 0
M  V30 3981 H 358.901 -2.1338 -2.47258 0
M  V30 3982 H 357.56 -3.55758 -0.884985 0
M  V30 3983 H 357.208 -3.74886 -3.35365 0
M  V30 3984 H 356.908 -5.30169 -2.53368 0
M  V30 3985 H 358.432 -5.05047 -3.43162 0
M  V30 3986 H 359.846 -5.60001 -1.22767 0
M  V30 3987 H 358.243 -5.97735 -0.532259 0
M  V30 3988 H 359.313 -4.83932 0.306196 0
M  V30 3989 N 360.656 0.0484629 -1.57525 0
M  V30 3990 C 361.604 1.07359 -2.06341 0
M  V30 3991 C 362.598 1.3865 -0.973269 0
M  V30 3992 O 363.804 1.37783 -1.15827 0
M  V30 3993 H 360.179 0.363662 -0.65822 0
M  V30 3994 H 362.15 0.635916 -2.91545 0
M  V30 3995 C 360.899 2.37198 -2.54229 0
M  V30 3996 H 360.222 2.13977 -3.37719 0
M  V30 3997 H 361.662 3.07319 -2.92115 0
M  V30 3998 C 360.121 3.04805 -1.43511 0
M  V30 3999 O 360.651 3.93848 -0.79034 0
M  V30 4000 N 358.857 2.65811 -1.17444 0
M  V30 4001 H 358.404 1.93488 -1.70059 0
M  V30 4002 H 358.362 3.11366 -0.435737 0
M  V30 4003 N 362.134 1.5431 0.320358 0
M  V30 4004 C 363.081 1.83918 1.39438 0
M  V30 4005 C 364.051 0.686525 1.51248 0
M  V30 4006 O 365.236 0.933269 1.66417 0
M  V30 4007 C 362.376 2.075 2.75749 0
M  V30 4008 C 361.489 3.35177 2.72544 0
M  V30 4009 C 360.624 3.48704 4.00723 0
M  V30 4010 C 359.663 4.70244 3.91838 0
M  V30 4011 N 358.8 4.80679 5.11754 0
M  V30 4012 H 363.64 2.75544 1.13489 0
M  V30 4013 H 361.177 1.36459 0.549309 0
M  V30 4014 H 363.135 2.19166 3.54996 0
M  V30 4015 H 361.765 1.19163 3 0
M  V30 4016 H 360.817 3.32233 1.85271 0
M  V30 4017 H 362.129 4.24534 2.61863 0
M  V30 4018 H 361.283 3.59928 4.88402 0
M  V30 4019 H 360.022 2.57445 4.14214 0
M  V30 4020 H 359.027 4.59072 3.02544 0
M  V30 4021 H 360.252 5.6289 3.7991 0
M  V30 4022 H 358.198 3.92337 5.25745 0
M  V30 4023 H 358.115 5.64007 5.0342 0
M  V30 4024 H 359.383 4.96239 6.01138 0
M  V30 4025 N 363.613 -0.582584 1.46437 0
M  V30 4026 C 364.523 -1.71949 1.59595 0
M  V30 4027 C 365.539 -1.67264 0.479443 0
M  V30 4028 O 366.715 -1.87171 0.743579 0
M  V30 4029 C 363.78 -3.08452 1.58298 0
M  V30 4030 C 362.841 -3.244 2.81182 0
M  V30 4031 C 362.074 -4.54391 2.79937 0
M  V30 4032 O 362.297 -5.38287 1.8869 0
M  V30 4033 O 361.231 -4.73588 3.71481 0
M  V30 4034 H 365.057 -1.63795 2.55744 0
M  V30 4035 H 362.642 -0.749643 1.29231 0
M  V30 4036 H 364.524 -3.89732 1.60271 0
M  V30 4037 H 363.199 -3.17043 0.653094 0
M  V30 4038 H 362.106 -2.42613 2.84763 0
M  V30 4039 H 363.439 -3.20699 3.7338 0
M  V30 4040 N 365.091 -1.34144 -0.827227 0
M  V30 4041 C 366.368 -1.16844 -1.56865 0
M  V30 4042 C 366.748 0.260654 -2.09485 0
M  V30 4043 O 366.096 1.26138 -1.9053 0
M  V30 4044 C 366.306 -2.21939 -2.6934 0
M  V30 4045 C 367.654 -2.56695 -3.3822 0
M  V30 4046 O 368.678 -2.20695 -2.79593 0
M  V30 4047 O 367.537 -3.18518 -4.44082 0
M  V30 4048 H 364.631 -0.452669 -0.692112 0
M  V30 4049 H 367.177 -1.45763 -0.868973 0
M  V30 4050 H 365.949 -3.17882 -2.28182 0
M  V30 4051 H 365.572 -1.94172 -3.46962 0
M  V30 4052 N 366.569 1.04691 -1.17803 0
M  V30 4053 C 367.797 1.81446 -0.99423 0
M  V30 4054 C 368.212 1.83174 0.457459 0
M  V30 4055 O 367.569 1.26265 1.31771 0
M  V30 4056 C 367.62 3.27334 -1.5341 0
M  V30 4057 O 367.341 3.25798 -2.92895 0
M  V30 4058 C 368.842 4.20759 -1.39559 0
M  V30 4059 H 366.062 0.571599 -0.351447 0
M  V30 4060 H 368.606 1.31982 -1.56208 0
M  V30 4061 H 366.761 3.74052 -1.00815 0
M  V30 4062 H 367.175 4.17144 -3.17949 0
M  V30 4063 H 368.649 5.21084 -1.82141 0
M  V30 4064 H 369.126 4.37856 -0.343394 0
M  V30 4065 H 369.732 3.79901 -1.91195 0
M  V30 4066 N 368.047 0.979072 1.23499 0
M  V30 4067 C 369.272 0.664845 1.96455 0
M  V30 4068 C 369.697 -0.761287 1.72006 0
M  V30 4069 O 369.055 -1.51837 0.990713 0
M  V30 4070 C 369.103 0.959479 3.47601 0
M  V30 4071 O 368.207 0.0508168 4.12369 0
M  V30 4072 H 367.548 0.250185 0.615064 0
M  V30 4073 H 370.078 1.31231 1.5697 0
M  V30 4074 H 370.088 0.895642 3.98048 0
M  V30 4075 H 368.763 1.99876 3.64723 0
M  V30 4076 H 367.34 0.16895 3.72517 0
M  V30 4077 N 369.525 -1.3858 0.750561 0
M  V30 4078 C 370.435 -2.34278 0.122825 0
M  V30 4079 C 371.451 -1.59116 -0.704131 0
M  V30 4080 O 372.627 -1.91326 -0.628987 0
M  V30 4081 C 369.692 -3.38221 -0.762086 0
M  V30 4082 C 368.753 -4.29227 0.078896 0
M  V30 4083 C 367.986 -5.28205 -0.763874 0
M  V30 4084 O 368.209 -5.34112 -2.00201 0
M  V30 4085 O 367.143 -6.01618 -0.18428 0
M  V30 4086 H 370.969 -2.89649 0.913088 0
M  V30 4087 H 368.554 -1.40374 0.511417 0
M  V30 4088 H 370.436 -4.01872 -1.26793 0
M  V30 4089 H 369.111 -2.85211 -1.5309 0
M  V30 4090 H 368.018 -3.68747 0.630621 0
M  V30 4091 H 369.351 -4.85484 0.810289 0
M  V30 4092 N 371.003 -0.499398 -1.49478 0
M  V30 4093 C 371.935 0.316575 -2.27003 0
M  V30 4094 C 372.948 0.932047 -1.33479 0
M  V30 4095 O 374.137 0.815658 -1.58774 0
M  V30 4096 C 371.237 1.46055 -3.05812 0
M  V30 4097 C 370.41 0.952679 -4.26899 0
M  V30 4098 C 369.469 1.97407 -4.87767 0
M  V30 4099 O 368.495 1.54326 -5.4788 0
M  V30 4100 N 369.697 3.30436 -4.77276 0
M  V30 4101 H 372.462 -0.348168 -2.97671 0
M  V30 4102 H 370.023 -0.33185 -1.58463 0
M  V30 4103 H 372.015 2.14135 -3.43407 0
M  V30 4104 H 370.585 2.02948 -2.37762 0
M  V30 4105 H 369.805 0.0968248 -3.94081 0
M  V30 4106 H 371.093 0.59174 -5.05347 0
M  V30 4107 H 370.491 3.68126 -4.29534 0
M  V30 4108 H 369.048 3.94235 -5.19059 0
M  V30 4109 N 372.481 1.55866 -0.233164 0
M  V30 4110 C 373.727 1.98897 0.395959 0
M  V30 4111 C 374.06 1.12091 1.58585 0
M  V30 4112 O 373.335 0.181182 1.93654 0
M  V30 4113 C 373.618 3.50658 0.819224 0
M  V30 4114 C 373.471 4.48233 -0.375109 0
M  V30 4115 C 374.79 4.07135 1.67121 0
M  V30 4116 H 371.909 0.723102 0.142451 0
M  V30 4117 H 374.551 1.87082 -0.331725 0
M  V30 4118 H 372.701 3.60857 1.43925 0
M  V30 4119 H 374.373 4.50031 -1.01341 0
M  V30 4120 H 372.616 4.21624 -1.02058 0
M  V30 4121 H 373.287 5.51988 -0.0358328 0
M  V30 4122 H 375.763 3.99952 1.14795 0
M  V30 4123 H 374.639 5.13615 1.93625 0
M  V30 4124 H 374.9 3.54736 2.63846 0
M  V30 4125 N 373.959 -0.0401083 1.57549 0
M  V30 4126 C 375.205 -0.734211 1.89043 0
M  V30 4127 C 375.538 -1.75591 0.829535 0
M  V30 4128 O 374.813 -1.93868 -0.156706 0
M  V30 4129 C 375.096 -1.41374 3.31188 0
M  V30 4130 C 374.949 -0.406299 4.47961 0
M  V30 4131 C 376.268 -2.35061 3.72068 0
M  V30 4132 H 373.387 -0.265447 0.687537 0
M  V30 4133 H 376.029 0.00294087 1.9 0
M  V30 4134 H 374.179 -2.04206 3.30503 0
M  V30 4135 H 375.851 0.219255 4.60779 0
M  V30 4136 H 374.094 0.275485 4.32924 0
M  V30 4137 H 374.765 -0.920022 5.44279 0
M  V30 4138 H 377.241 -1.82282 3.74049 0
M  V30 4139 H 376.117 -2.79593 4.72355 0
M  V30 4140 H 376.378 -3.21258 3.0372 0
M  V30 4141 N 375.437 -1.54477 -0.31217 0
M  V30 4142 C 376.848 -1.64344 -0.885891 0
M  V30 4143 C 377.199 -0.54485 -1.88483 0
M  V30 4144 O 376.324 0.320387 -2.14015 0
M  V30 4145 C 376.919 -2.97908 -1.61357 0
M  V30 4146 C 375.478 -3.09933 -2.13585 0
M  V30 4147 C 374.625 -2.59971 -0.964897 0
M  V30 4148 H 377.576 -1.58448 -0.0894528 0
M  V30 4149 H 377.597 -2.88706 -2.47848 0
M  V30 4150 H 377.109 -3.77845 -0.886277 0
M  V30 4151 H 375.21 -2.34694 -2.89395 0
M  V30 4152 H 375.323 -4.15916 -2.37804 0
M  V30 4153 H 373.687 -2.16147 -1.34731 0
M  V30 4154 H 374.47 -3.42376 -0.251742 0
M  V30 4155 N 376.915 0.57481 -1.46744 0
M  V30 4156 C 378.161 1.3347 -1.52688 0
M  V30 4157 C 378.494 1.93353 -0.181229 0
M  V30 4158 O 377.769 1.76912 0.808237 0
M  V30 4159 C 378.052 2.45811 -2.63152 0
M  V30 4160 C 377.905 1.90912 -4.07275 0
M  V30 4161 C 379.224 3.47822 -2.69644 0
M  V30 4162 H 376.343 0.483935 -0.555856 0
M  V30 4163 H 378.985 0.644968 -1.78718 0
M  V30 4164 H 377.135 3.04646 -2.41088 0
M  V30 4165 H 378.807 1.36473 -4.4065 0
M  V30 4166 H 377.05 1.21691 -4.16382 0
M  V30 4167 H 377.721 2.72042 -4.80309 0
M  V30 4168 H 380.197 2.9888 -2.895 0
M  V30 4169 H 379.073 4.23876 -3.48742 0
M  V30 4170 H 379.334 4.05555 -1.76005 0
M  V30 4171 N 378.394 1.34581 0.820102 0
M  V30 4172 C 379.324 1.29038 1.94606 0
M  V30 4173 C 380.305 0.1673 1.69275 0
M  V30 4174 O 381.49 0.360112 1.90832 0
M  V30 4175 C 378.62 1.04793 3.31113 0
M  V30 4176 C 377.574 2.13597 3.70891 0
M  V30 4177 C 376.9 1.74537 5.05412 0
M  V30 4178 C 378.2 3.55451 3.8269 0
M  V30 4179 H 379.894 2.23248 1.99501 0
M  V30 4180 H 377.44 1.0747 0.958449 0
M  V30 4181 H 379.393 0.995592 4.0947 0
M  V30 4182 H 378.117 0.0702565 3.26524 0
M  V30 4183 H 376.776 2.17905 2.9481 0
M  V30 4184 H 376.424 0.754226 4.97313 0
M  V30 4185 H 376.124 2.47361 5.32997 0
M  V30 4186 H 377.648 1.70803 5.86224 0
M  V30 4187 H 379.062 3.5354 4.51312 0
M  V30 4188 H 377.459 4.26922 4.21732 0
M  V30 4189 H 378.529 3.92587 2.84611 0
M  V30 4190 N 379.872 -1.04064 1.18357 0
M  V30 4191 C 381.118 -1.77528 0.980397 0
M  V30 4192 C 381.451 -1.87948 -0.48879 0
M  V30 4193 O 380.726 -1.3876 -1.36293 0
M  V30 4194 C 381.009 -3.20797 1.63588 0
M  V30 4195 C 380.862 -3.1832 3.17793 0
M  V30 4196 C 382.181 -4.18911 1.34914 0
M  V30 4197 H 379.3 -0.644443 0.357578 0
M  V30 4198 H 381.942 -1.2156 1.46024 0
M  V30 4199 H 380.092 -3.68586 1.22788 0
M  V30 4200 H 381.764 -2.78521 3.67728 0
M  V30 4201 H 380.007 -2.56351 3.49952 0
M  V30 4202 H 380.678 -4.19489 3.58794 0
M  V30 4203 H 383.154 -3.7967 1.70265 0
M  V30 4204 H 382.03 -5.17374 1.83346 0
M  V30 4205 H 382.291 -4.41262 0.272027 0
M  V30 4206 N 381.35 -0.985608 -1.22978 0
M  V30 4207 C 382.297 -0.529825 -2.24636 0
M  V30 4208 C 383.267 0.434028 -1.60329 0
M  V30 4209 O 384.452 0.340414 -1.87739 0
M  V30 4210 C 381.592 0.156533 -3.44745 0
M  V30 4211 C 380.705 -0.848197 -4.23591 0
M  V30 4212 C 379.84 -0.136109 -5.31026 0
M  V30 4213 C 378.879 -1.1297 -6.01585 0
M  V30 4214 N 378.016 -0.446415 -7.00679 0
M  V30 4215 H 382.856 -1.40148 -2.62988 0
M  V30 4216 H 380.393 -0.702168 -1.29259 0
M  V30 4217 H 382.351 0.571324 -4.1327 0
M  V30 4218 H 380.981 0.992025 -3.07179 0
M  V30 4219 H 380.033 -1.38135 -3.54433 0
M  V30 4220 H 381.345 -1.60512 -4.72268 0
M  V30 4221 H 380.499 0.335784 -6.0577 0
M  V30 4222 H 379.238 0.653373 -4.83304 0
M  V30 4223 H 378.243 -1.6123 -5.25628 0
M  V30 4224 H 379.468 -1.91993 -6.51395 0
M  V30 4225 H 377.414 0.323763 -6.55201 0
M  V30 4226 H 377.331 -1.1419 -7.47326 0
M  V30 4227 H 378.599 0.00291697 -7.795 0
M  V30 4228 N 382.828 1.3818 -0.7579 0
M  V30 4229 C 383.776 2.32277 -0.122482 0
M  V30 4230 C 384.77 1.54238 0.700505 0
M  V30 4231 O 385.976 1.69737 0.599119 0
M  V30 4232 H 382.351 0.751712 -0.0208143 0
M  V30 4233 H 384.322 2.83469 -0.932099 0
M  V30 4234 C 383.071 3.39447 0.753076 0
M  V30 4235 H 382.394 3.99591 0.129184 0
M  V30 4236 H 383.834 4.07684 1.16489 0
M  V30 4237 C 382.293 2.78375 1.8976 0
M  V30 4238 O 382.823 2.68025 2.99208 0
M  V30 4239 N 381.029 2.36121 1.69397 0
M  V30 4240 H 380.576 2.4474 0.803762 0
M  V30 4241 H 380.534 1.95602 2.46145 0
M  V30 4242 N 384.306 0.507319 1.49211 0
M  V30 4243 C 385.552 -0.0269732 2.03382 0
M  V30 4244 C 385.907 -1.34111 1.37957 0
M  V30 4245 O 385.2 -1.84733 0.508351 0
M  V30 4246 C 385.394 -0.229513 3.56662 0
M  V30 4247 C 385.223 1.06344 4.36945 0
M  V30 4248 C 383.993 1.617 4.78729 0
M  V30 4249 C 386.191 1.96833 4.75143 0
M  V30 4250 N 384.173 2.8552 5.43463 0
M  V30 4251 C 385.544 3.0523 5.39661 0
M  V30 4252 C 387.599 1.97434 4.57082 0
M  V30 4253 C 386.302 4.14265 5.88028 0
M  V30 4254 C 388.328 3.05448 5.06414 0
M  V30 4255 C 387.69 4.12564 5.70938 0
M  V30 4256 H 383.789 0.0310673 0.781383 0
M  V30 4257 H 386.373 0.683579 1.82305 0
M  V30 4258 H 384.544 -0.909127 3.7761 0
M  V30 4259 H 386.276 -0.761377 3.97473 0
M  V30 4260 H 383.031 1.16132 4.59141 0
M  V30 4261 H 383.455 3.48499 5.80412 0
M  V30 4262 H 388.097 1.15924 4.06597 0
M  V30 4263 H 385.815 4.96569 6.3753 0
M  V30 4264 H 389.401 3.06941 4.94246 0
M  V30 4265 H 388.281 4.94767 6.0842 0
M  V30 4266 N 385.784 -1.5574 0.241426 0
M  V30 4267 C 386.731 -2.21149 -0.660432 0
M  V30 4268 C 387.701 -1.17356 -1.17545 0
M  V30 4269 O 388.886 -1.45784 -1.23093 0
M  V30 4270 C 386.026 -2.91059 -1.85414 0
M  V30 4271 C 385.139 -4.09495 -1.37616 0
M  V30 4272 C 384.274 -4.67135 -2.529 0
M  V30 4273 C 383.313 -5.77831 -2.01936 0
M  V30 4274 N 382.45 -6.29677 -3.10566 0
M  V30 4275 H 387.29 -2.97845 -0.095955 0
M  V30 4276 H 384.827 -1.47057 -0.0356024 0
M  V30 4277 H 386.785 -3.29788 -2.5553 0
M  V30 4278 H 385.415 -2.16846 -2.39118 0
M  V30 4279 H 384.467 -3.76117 -0.569235 0
M  V30 4280 H 385.779 -4.89423 -0.962618 0
M  V30 4281 H 384.933 -5.08409 -3.31067 0
M  V30 4282 H 383.672 -3.86411 -2.97553 0
M  V30 4283 H 382.677 -5.36039 -1.22238 0
M  V30 4284 H 383.902 -6.60402 -1.58259 0
M  V30 4285 H 381.848 -5.5186 -3.54664 0
M  V30 4286 H 381.765 -7.04783 -2.73526 0
M  V30 4287 H 383.033 -6.75609 -3.88809 0
M  V30 4288 N 387.262 0.0317525 -1.57568 0
M  V30 4289 C 388.209 1.0332 -2.06382 0
M  V30 4290 C 389.179 1.36082 -0.952414 0
M  V30 4291 O 390.364 1.46466 -1.2228 0
M  V30 4292 C 387.504 2.32989 -2.54578 0
M  V30 4293 C 386.617 2.0641 -3.79498 0
M  V30 4294 C 385.752 3.2993 -4.16317 0
M  V30 4295 C 384.791 2.98893 -5.34162 0
M  V30 4296 N 383.928 4.14857 -5.66426 0
M  V30 4297 H 388.768 0.609982 -2.9169 0
M  V30 4298 H 386.305 0.289573 -1.44222 0
M  V30 4299 H 388.263 3.0875 -2.80587 0
M  V30 4300 H 386.893 2.73039 -1.7219 0
M  V30 4301 H 385.945 1.21158 -3.6059 0
M  V30 4302 H 387.257 1.79513 -4.65378 0
M  V30 4303 H 386.411 4.1406 -4.4344 0
M  V30 4304 H 385.15 3.59938 -3.29083 0
M  V30 4305 H 384.155 2.13164 -5.06795 0
M  V30 4306 H 385.38 2.70165 -6.23047 0
M  V30 4307 H 383.326 4.44821 -4.82151 0
M  V30 4308 H 383.243 3.91374 -6.4681 0
M  V30 4309 H 384.511 4.99868 -5.98124 0
M  V30 4310 N 388.74 1.54641 0.303973 0
M  V30 4311 C 389.65 1.88439 1.39743 0
M  V30 4312 C 390.666 0.778239 1.55626 0
M  V30 4313 O 391.842 1.07442 1.70347 0
M  V30 4314 C 388.907 2.12212 2.74166 0
M  V30 4315 C 387.968 3.35936 2.67293 0
M  V30 4316 C 387.201 3.58566 3.95305 0
M  V30 4317 O 387.424 2.84263 4.9452 0
M  V30 4318 O 386.358 4.52078 3.97378 0
M  V30 4319 H 390.184 2.81458 1.14083 0
M  V30 4320 H 387.769 1.40793 0.499768 0
M  V30 4321 H 389.651 2.29067 3.53704 0
M  V30 4322 H 388.326 1.22379 2.99675 0
M  V30 4323 H 387.233 3.24448 1.86237 0
M  V30 4324 H 388.566 4.2589 2.46736 0
M  V30 4325 N 390.218 -0.567019 1.47046 0
M  V30 4326 C 391.458 -1.3355 1.54738 0
M  V30 4327 C 391.822 -1.90947 0.200772 0
M  V30 4328 O 393.023 -2.68367 0.152489 0
M  V30 4329 C 391.294 -2.42317 2.62712 0
M  V30 4330 S 392.853 -3.29383 2.89918 0
M  V30 4331 H 389.671 -0.454788 0.546525 0
M  V30 4332 H 392.273 -0.650191 1.84371 0
M  V30 4333 H 390.977 -1.98568 3.59164 0
M  V30 4334 H 390.508 -3.15601 2.34861 0
M  V30 4335 H 392.523 -4.41548 2.26384 0
M  V30 4336 N 391.696 -1.35014 -0.812953 0
M  V30 4337 C 392.659 -1.27292 -1.90602 0
M  V30 4338 C 393.659 -0.185817 -1.59723 0
M  V30 4339 O 394.849 -0.439102 -1.68575 0
M  V30 4340 C 391.981 -0.967676 -3.26877 0
M  V30 4341 H 393.174 -2.24479 -1.9887 0
M  V30 4342 H 390.727 -1.19446 -1.00808 0
M  V30 4343 H 391.462 0.0005954 -3.243 0
M  V30 4344 H 391.247 -1.75412 -3.50675 0
M  V30 4345 H 392.737 -0.939085 -4.06904 0
M  V30 4346 N 393.175 1.03435 -1.18907 0
M  V30 4347 C 394.122 2.11591 -0.921837 0
M  V30 4348 C 395.092 1.65499 0.141226 0
M  V30 4349 O 396.277 1.908 0.000242829 0
M  V30 4350 C 393.417 3.42012 -0.460616 0
M  V30 4351 C 392.53 4.01682 -1.58982 0
M  V30 4352 C 391.665 5.20091 -1.08069 0
M  V30 4353 C 390.704 5.71805 -2.18416 0
M  V30 4354 N 389.841 6.81494 -1.68849 0
M  V30 4355 H 394.681 2.33787 -1.8479 0
M  V30 4356 H 392.218 1.1467 -0.921373 0
M  V30 4357 H 394.176 4.16834 -0.174642 0
M  V30 4358 H 392.806 3.19944 0.428467 0
M  V30 4359 H 391.858 3.24127 -1.99113 0
M  V30 4360 H 393.17 4.36084 -2.4214 0
M  V30 4361 H 392.324 6.02051 -0.749615 0
M  V30 4362 H 391.063 4.87209 -0.218771 0
M  V30 4363 H 390.068 4.88461 -2.5236 0
M  V30 4364 H 391.293 6.06728 -3.05054 0
M  V30 4365 H 389.239 6.50475 -0.849572 0
M  V30 4366 H 389.156 7.14994 -2.45601 0
M  V30 4367 H 390.424 7.67063 -1.38689 0
M  V30 4368 N 394.653 0.992116 1.22453 0
M  V30 4369 C 395.881 0.685944 1.95198 0
M  V30 4370 C 396.296 -0.749233 1.73297 0
M  V30 4371 O 395.653 -1.50549 1.03156 0
M  V30 4372 C 395.704 0.981395 3.47924 0
M  V30 4373 O 395.425 2.36018 3.6909 0
M  V30 4374 C 396.926 0.692815 4.37853 0
M  V30 4375 H 394.146 0.253821 0.621141 0
M  V30 4376 H 396.69 1.32668 1.55626 0
M  V30 4377 H 394.845 0.386481 3.85467 0
M  V30 4378 H 395.259 2.45884 4.63294 0
M  V30 4379 H 396.733 0.949818 5.43767 0
M  V30 4380 H 397.21 -0.373181 4.37612 0
M  V30 4381 H 397.816 1.26874 4.05935 0
M  V30 4382 N 396.131 -1.37776 0.765217 0
M  V30 4383 C 397.547 -1.53297 0.444108 0
M  V30 4384 C 397.747 -1.72515 -1.04119 0
M  V30 4385 O 396.803 -1.74278 -1.82711 0
M  V30 4386 C 398.116 -2.73328 1.25349 0
M  V30 4387 C 399.664 -2.87185 1.24473 0
M  V30 4388 C 400.139 -4.10191 2.03733 0
M  V30 4389 N 401.63 -4.17291 2.01053 0
M  V30 4390 C 402.365 -5.11488 2.59166 0
M  V30 4391 N 401.861 -6.11285 3.26041 0
M  V30 4392 N 403.654 -5.03924 2.49032 0
M  V30 4393 H 395.805 -1.23552 1.72768 0
M  V30 4394 H 398.068 -0.601103 0.733062 0
M  V30 4395 H 397.774 -2.6557 2.30577 0
M  V30 4396 H 397.648 -3.66834 0.87823 0
M  V30 4397 H 400.035 -2.94418 0.20047 0
M  V30 4398 H 400.116 -1.94657 1.65959 0
M  V30 4399 H 399.76 -4.0372 3.08176 0
M  V30 4400 H 399.69 -5.01821 1.59633 0
M  V30 4401 H 402.181 -3.45825 1.5236 0
M  V30 4402 H 402.494 -6.79678 3.67774 0
M  V30 4403 H 400.839 -6.11583 3.30138 0
M  V30 4404 H 404.03 -4.24902 1.96407 0
M  V30 4405 H 404.203 -5.77152 2.94617 0
M  V30 4406 N 397.609 -0.515225 -1.4894 0
M  V30 4407 C 398.556 0.255567 -2.29381 0
M  V30 4408 C 399.526 0.947387 -1.36432 0
M  V30 4409 O 400.711 0.951288 -1.65394 0
M  V30 4410 C 397.851 1.30551 -3.19453 0
M  V30 4411 C 396.964 0.624029 -4.27469 0
M  V30 4412 C 396.099 1.65563 -5.0474 0
M  V30 4413 C 395.138 0.956802 -6.04576 0
M  V30 4414 N 394.275 1.93326 -6.74959 0
M  V30 4415 H 399.115 -0.436607 -2.94784 0
M  V30 4416 H 396.652 -0.227154 -1.45336 0
M  V30 4417 H 398.61 1.92639 -3.70062 0
M  V30 4418 H 397.24 1.96626 -2.56004 0
M  V30 4419 H 396.292 -0.110459 -3.8024 0
M  V30 4420 H 397.604 0.0746092 -4.98744 0
M  V30 4421 H 396.758 2.35119 -5.59289 0
M  V30 4422 H 395.497 2.23893 -4.3327 0
M  V30 4423 H 394.502 0.247097 -5.49244 0
M  V30 4424 H 395.727 0.379814 -6.78037 0
M  V30 4425 H 393.673 2.50591 -6.06251 0
M  V30 4426 H 393.59 1.43489 -7.42258 0
M  V30 4427 H 394.858 2.62126 -7.34105 0
M  V30 4428 N 399.087 1.5561 -0.249682 0
M  V30 4429 C 400.019 2.18834 0.681496 0
M  V30 4430 C 401.032 1.16546 1.1367 0
M  V30 4431 O 402.221 1.43397 1.06299 0
M  V30 4432 C 399.321 2.77992 1.9384 0
M  V30 4433 C 398.494 4.05725 1.63419 0
M  V30 4434 C 397.553 4.49174 2.74096 0
M  V30 4435 O 396.579 5.15492 2.41364 0
M  V30 4436 N 397.781 4.17191 4.03649 0
M  V30 4437 H 400.546 2.9937 0.140514 0
M  V30 4438 H 398.107 1.6175 -0.0697541 0
M  V30 4439 H 400.099 3.04015 2.67127 0
M  V30 4440 H 398.669 2.01596 2.38909 0
M  V30 4441 H 397.889 3.87261 0.736358 0
M  V30 4442 H 399.177 4.88999 1.40562 0
M  V30 4443 H 398.575 3.63955 4.33074 0
M  V30 4444 H 397.132 4.48043 4.73393 0
M  V30 4445 N 400.565 -0.0233959 1.57583 0
M  V30 4446 C 401.976 -0.56927 1.77809 0
M  V30 4447 C 402.327 -1.75284 0.881472 0
M  V30 4448 O 401.452 -2.1626 0.0777805 0
M  V30 4449 C 402.047 -1.03949 3.22459 0
M  V30 4450 C 400.606 -1.53084 3.43864 0
M  V30 4451 C 399.753 -0.471454 2.73263 0
M  V30 4452 H 402.704 0.202825 1.57399 0
M  V30 4453 H 402.725 -1.90661 3.29285 0
M  V30 4454 H 402.237 -0.177865 3.87692 0
M  V30 4455 H 400.338 -2.41414 2.83814 0
M  V30 4456 H 400.451 -1.57443 4.52491 0
M  V30 4457 H 398.815 -0.927788 2.37201 0
M  V30 4458 H 399.598 0.380808 3.41181 0
M  V30 4459 N 402.043 -1.548 -0.295768 0
M  V30 4460 C 403.289 -1.74588 -1.03184 0
M  V30 4461 C 403.622 -0.532962 -1.86744 0
M  V30 4462 O 402.897 0.469872 -1.88739 0
M  V30 4463 C 403.18 -3.03791 -1.93347 0
M  V30 4464 C 403.033 -4.35392 -1.12933 0
M  V30 4465 C 404.352 -3.28892 -2.92435 0
M  V30 4466 H 401.471 -0.635221 -0.373715 0
M  V30 4467 H 404.113 -1.87519 -0.30606 0
M  V30 4468 H 402.263 -2.92898 -2.55232 0
M  V30 4469 H 403.935 -4.58211 -0.532943 0
M  V30 4470 H 402.178 -4.31642 -0.432168 0
M  V30 4471 H 402.849 -5.22074 -1.79284 0
M  V30 4472 H 405.325 -3.39429 -2.4068 0
M  V30 4473 H 404.201 -4.20603 -3.52682 0
M  V30 4474 H 404.462 -2.47437 -3.6637 0
M  V30 4475 N 403.521 0.559213 -1.47345 0
M  V30 4476 C 404.468 1.66645 -1.59682 0
M  V30 4477 C 405.438 1.60168 -0.43994 0
M  V30 4478 O 406.623 1.79031 -0.659736 0
M  V30 4479 C 403.763 3.04969 -1.61518 0
M  V30 4480 C 402.876 3.21897 -2.88108 0
M  V30 4481 C 402.011 4.50608 -2.81294 0
M  V30 4482 C 401.05 4.60961 -4.02717 0
M  V30 4483 N 400.187 5.81024 -3.94151 0
M  V30 4484 H 405.027 1.55439 -2.54249 0
M  V30 4485 H 402.564 0.757219 -1.26113 0
M  V30 4486 H 404.522 3.85064 -1.60566 0
M  V30 4487 H 403.152 3.15015 -0.704645 0
M  V30 4488 H 402.204 2.35248 -2.98936 0
M  V30 4489 H 403.516 3.25412 -3.78032 0
M  V30 4490 H 402.67 5.3896 -2.7858 0
M  V30 4491 H 401.409 4.49568 -1.89049 0
M  V30 4492 H 400.414 3.71021 -4.05738 0
M  V30 4493 H 401.639 4.63761 -4.96087 0
M  V30 4494 H 399.585 5.80938 -3.04708 0
M  V30 4495 H 399.502 5.85909 -4.77752 0
M  V30 4496 H 400.77 6.71744 -3.9545 0
M  V30 4497 N 404.999 1.35443 0.805782 0
M  V30 4498 C 406.245 1.28952 1.56522 0
M  V30 4499 C 406.578 -0.135597 1.93726 0
M  V30 4500 O 405.853 -1.08516 1.61414 0
M  V30 4501 C 406.136 2.19678 2.85331 0
M  V30 4502 C 405.989 3.7081 2.54598 0
M  V30 4503 C 407.308 2.09495 3.8704 0
M  V30 4504 H 404.427 0.469764 0.567883 0
M  V30 4505 H 407.069 1.65851 0.927001 0
M  V30 4506 H 405.219 1.8834 3.39795 0
M  V30 4507 H 406.891 4.12593 2.06312 0
M  V30 4508 H 405.134 3.91051 1.8778 0
M  V30 4509 H 405.805 4.29679 3.46525 0
M  V30 4510 H 408.281 2.37045 3.41978 0
M  V30 4511 H 407.157 2.75173 4.74943 0
M  V30 4512 H 407.418 1.07714 4.28777 0
M  V30 4513 N 406.477 -1.02803 1.19454 0
M  V30 4514 C 407.723 -1.76478 0.999171 0
M  V30 4515 C 408.056 -1.88456 -0.468828 0
M  V30 4516 O 407.331 -1.40198 -1.34814 0
M  V30 4517 C 407.614 -3.19044 1.66981 0
M  V30 4518 C 407.467 -3.14932 3.21151 0
M  V30 4519 C 408.786 -4.17456 1.39349 0
M  V30 4520 H 405.905 -0.640614 0.364393 0
M  V30 4521 H 408.547 -1.20005 1.47305 0
M  V30 4522 H 406.697 -3.67263 1.2669 0
M  V30 4523 H 408.369 -2.74605 3.70661 0
M  V30 4524 H 406.612 -2.52625 3.52652 0
M  V30 4525 H 407.283 -4.1566 3.63223 0
M  V30 4526 H 409.759 -3.77842 1.74283 0
M  V30 4527 H 408.635 -5.154 1.88823 0
M  V30 4528 H 408.896 -4.40949 0.318813 0
M  V30 4529 N 407.956 -0.998596 -1.21925 0
M  V30 4530 C 409.186 -0.695276 -1.94549 0
M  V30 4531 C 409.594 0.745079 -1.73911 0
M  V30 4532 O 408.937 1.51507 -1.03881 0
M  V30 4533 C 408.999 -0.928485 -3.47303 0
M  V30 4534 C 408.663 -2.35443 -3.91683 0
M  V30 4535 C 409.66 -3.33428 -3.98901 0
M  V30 4536 C 407.345 -2.69038 -4.24174 0
M  V30 4537 C 409.339 -4.63079 -4.37992 0
M  V30 4538 C 407.026 -3.98906 -4.62944 0
M  V30 4539 C 408.024 -4.95738 -4.69822 0
M  V30 4540 O 407.712 -6.23285 -5.07711 0
M  V30 4541 H 407.444 -0.255902 -0.625692 0
M  V30 4542 H 409.998 -1.33767 -1.5587 0
M  V30 4543 H 408.228 -0.228917 -3.86022 0
M  V30 4544 H 409.917 -0.619539 -4.01144 0
M  V30 4545 H 410.683 -3.08807 -3.73983 0
M  V30 4546 H 406.562 -1.94367 -4.18022 0
M  V30 4547 H 410.106 -5.38658 -4.43275 0
M  V30 4548 H 406.003 -4.23314 -4.87314 0
M  V30 4549 H 406.771 -6.27306 -5.25766 0
M  V30 4550 N 409.434 1.37368 -0.772513 0
M  V30 4551 C 410.659 2.0447 -0.347386 0
M  V30 4552 C 411.084 1.57882 1.0225 0
M  V30 4553 O 410.442 0.73941 1.65537 0
M  V30 4554 C 410.49 3.58369 -0.400479 0
M  V30 4555 O 409.594 4.0803 0.598789 0
M  V30 4556 H 408.935 0.646773 -0.15027 0
M  V30 4557 H 411.465 1.75667 -1.04892 0
M  V30 4558 H 411.475 4.07183 -0.258045 0
M  V30 4559 H 410.15 3.91633 -1.39986 0
M  V30 4560 H 408.727 3.70534 0.419411 0
M  V30 4561 N 410.912 0.523116 1.48665 0
M  V30 4562 C 412.137 -0.0117284 2.07397 0
M  V30 4563 C 412.562 -1.28031 1.37803 0
M  V30 4564 O 411.92 -1.75836 0.441762 0
M  V30 4565 C 411.968 -0.225786 3.59892 0
M  V30 4566 O 411.072 -1.29592 3.91509 0
M  V30 4567 H 410.413 0.0360673 0.66302 0
M  V30 4568 H 412.943 0.729066 1.9117 0
M  V30 4569 H 412.953 -0.450552 4.05505 0
M  V30 4570 H 411.628 0.700944 4.09951 0
M  V30 4571 H 410.205 -1.05436 3.57684 0
M  V30 4572 N 412.39 -1.55475 0.257931 0
M  V30 4573 C 413.337 -2.21837 -0.636939 0
M  V30 4574 C 414.307 -1.18596 -1.16294 0
M  V30 4575 O 415.492 -1.47081 -1.21539 0
M  V30 4576 C 412.632 -2.9301 -1.82317 0
M  V30 4577 C 411.745 -4.10931 -1.33265 0
M  V30 4578 C 410.88 -4.69791 -2.47931 0
M  V30 4579 C 409.919 -5.7994 -1.95796 0
M  V30 4580 N 409.056 -6.32935 -3.0387 0
M  V30 4581 H 413.896 -2.9793 -0.0643591 0
M  V30 4582 H 411.433 -1.47086 -0.0200031 0
M  V30 4583 H 413.391 -3.3248 -2.52018 0
M  V30 4584 H 412.021 -2.1937 -2.36805 0
M  V30 4585 H 411.073 -3.76699 -0.52931 0
M  V30 4586 H 412.385 -4.90417 -0.910654 0
M  V30 4587 H 411.539 -5.11892 -3.25656 0
M  V30 4588 H 410.278 -3.89545 -2.93438 0
M  V30 4589 H 409.283 -5.37305 -1.16546 0
M  V30 4590 H 410.508 -6.62043 -1.51246 0
M  V30 4591 H 408.454 -5.55591 -3.48791 0
M  V30 4592 H 408.371 -7.07645 -2.66035 0
M  V30 4593 H 409.639 -6.79695 -3.81621 0
M  V30 4594 N 413.868 0.0150385 -1.57593 0
M  V30 4595 C 415.145 0.7392 -1.81094 0
M  V30 4596 C 415.525 1.92817 -0.859344 0
M  V30 4597 O 414.873 2.28301 0.095362 0
M  V30 4598 C 415.083 1.15907 -3.29191 0
M  V30 4599 C 416.431 1.56918 -3.9454 0
M  V30 4600 O 417.455 1.25328 -3.33424 0
M  V30 4601 O 416.314 2.15604 -5.02173 0
M  V30 4602 H 413.408 0.358631 -0.745193 0
M  V30 4603 H 415.954 -0.00926156 -1.69697 0
M  V30 4604 H 414.726 0.310921 -3.90063 0
M  V30 4605 H 414.349 1.96711 -3.45529 0
M  V30 4606 N 415.346 1.54954 0.287554 0
M  V30 4607 C 416.757 1.65732 0.859634 0
M  V30 4608 C 417.108 0.574767 1.87592 0
M  V30 4609 O 416.233 -0.286299 2.14498 0
M  V30 4610 C 416.828 3.00438 1.56597 0
M  V30 4611 C 415.387 3.13292 2.08627 0
M  V30 4612 C 414.534 2.61473 0.923416 0
M  V30 4613 H 417.485 1.5857 0.0642338 0
M  V30 4614 H 417.506 2.92613 2.43224 0
M  V30 4615 H 417.018 3.79207 0.826053 0
M  V30 4616 H 415.119 2.39268 2.85625 0
M  V30 4617 H 415.232 4.19647 2.31157 0
M  V30 4618 H 413.596 2.18264 1.31275 0
M  V30 4619 H 414.379 3.42733 0.197241 0
M  V30 4620 N 416.824 -0.551391 1.4764 0
M  V30 4621 C 417.787 -1.64007 1.60107 0
M  V30 4622 C 418.787 -1.53601 0.47576 0
M  V30 4623 O 419.977 -1.57655 0.740988 0
M  V30 4624 C 417.109 -3.03569 1.55108 0
M  V30 4625 H 418.302 -1.543 2.57161 0
M  V30 4626 H 415.855 -0.771776 1.35917 0
M  V30 4627 H 416.59 -3.18804 0.594519 0
M  V30 4628 H 416.375 -3.12532 2.36783 0
M  V30 4629 H 417.865 -3.82762 1.66982 0
M  V30 4630 N 418.302 -1.35869 -0.798587 0
M  V30 4631 C 419.234 -1.25305 -1.91915 0
M  V30 4632 C 420.247 -0.174548 -1.61862 0
M  V30 4633 O 421.436 -0.428499 -1.73281 0
M  V30 4634 C 418.536 -0.9086 -3.26493 0
M  V30 4635 C 417.709 -2.08711 -3.84394 0
M  V30 4636 C 416.768 -1.71717 -4.97393 0
M  V30 4637 O 415.794 -2.43692 -5.14396 0
M  V30 4638 N 416.996 -0.645473 -5.769 0
M  V30 4639 H 419.761 -2.21849 -2.01502 0
M  V30 4640 H 417.322 -1.29143 -0.976408 0
M  V30 4641 H 419.314 -0.642455 -3.99568 0
M  V30 4642 H 417.884 -0.0325815 -3.12583 0
M  V30 4643 H 417.104 -2.51659 -3.03416 0
M  V30 4644 H 418.392 -2.87468 -4.19809 0
M  V30 4645 H 417.79 -0.047648 -5.6568 0
M  V30 4646 H 416.347 -0.43913 -6.50319 0
M  V30 4647 N 419.78 1.02168 -1.19998 0
M  V30 4648 C 421.191 1.57135 -1.00825 0
M  V30 4649 C 421.542 1.91276 0.436818 0
M  V30 4650 O 420.667 1.71679 1.3174 0
M  V30 4651 C 421.262 2.85514 -1.82393 0
M  V30 4652 C 419.821 3.37027 -1.67601 0
M  V30 4653 C 418.968 2.10388 -1.80644 0
M  V30 4654 H 421.919 0.846106 -1.34264 0
M  V30 4655 H 421.94 3.56711 -1.32429 0
M  V30 4656 H 421.452 2.60634 -2.87561 0
M  V30 4657 H 419.553 3.66878 -0.650485 0
M  V30 4658 H 419.666 4.09572 -2.4857 0
M  V30 4659 H 418.03 2.22601 -1.23778 0
M  V30 4660 H 418.813 1.8794 -2.87286 0
M  V30 4661 N 421.258 1.00505 1.21394 0
M  V30 4662 C 422.205 0.565496 2.23765 0
M  V30 4663 C 423.175 -0.408466 1.60999 0
M  V30 4664 O 424.36 -0.310503 1.88257 0
M  V30 4665 C 421.5 -0.101667 3.4495 0
M  V30 4666 C 420.613 0.915479 4.22188 0
M  V30 4667 C 419.748 0.220574 5.30742 0
M  V30 4668 C 418.787 1.22527 5.99711 0
M  V30 4669 N 417.924 0.557831 6.9988 0
M  V30 4670 H 422.764 1.44314 2.60725 0
M  V30 4671 H 420.301 0.722643 1.28126 0
M  V30 4672 H 422.259 -0.505504 4.14126 0
M  V30 4673 H 420.889 -0.94303 3.08718 0
M  V30 4674 H 419.941 1.43756 3.52191 0
M  V30 4675 H 421.253 1.68005 4.69655 0
M  V30 4676 H 420.407 -0.239368 6.06228 0
M  V30 4677 H 419.146 -0.576401 4.84282 0
M  V30 4678 H 418.151 1.69571 5.22997 0
M  V30 4679 H 419.376 2.02332 6.48258 0
M  V30 4680 H 417.322 -0.219486 6.55633 0
M  V30 4681 H 417.239 1.26065 7.45415 0
M  V30 4682 H 418.507 0.121095 7.79406 0
M  V30 4683 N 422.737 -1.36956 0.779787 0
M  V30 4684 C 423.647 -2.33965 0.172491 0
M  V30 4685 C 424.663 -1.60574 -0.670222 0
M  V30 4686 O 425.839 -1.92617 -0.588263 0
M  V30 4687 C 422.904 -3.39761 -0.690173 0
M  V30 4688 C 421.965 -4.28964 0.169924 0
M  V30 4689 C 421.198 -5.29707 -0.651662 0
M  V30 4690 O 421.421 -5.38238 -1.88827 0
M  V30 4691 O 420.355 -6.01873 -0.0566264 0
M  V30 4692 H 424.181 -2.87647 0.974321 0
M  V30 4693 H 421.766 -1.39258 0.541078 0
M  V30 4694 H 423.648 -4.04471 -1.1824 0
M  V30 4695 H 422.323 -2.88394 -1.47006 0
M  V30 4696 H 421.23 -3.67326 0.708696 0
M  V30 4697 H 422.563 -4.83656 0.913085 0
M  V30 4698 N 424.215 -0.530993 -1.48385 0
M  V30 4699 C 425.44 0.000729535 -2.074 0
M  V30 4700 C 425.865 1.27298 -1.3848 0
M  V30 4701 O 425.223 1.75599 -0.451081 0
M  V30 4702 C 425.271 0.206697 -3.60007 0
M  V30 4703 O 424.375 1.27514 -3.92191 0
M  V30 4704 H 423.716 -0.039583 -0.662819 0
M  V30 4705 H 426.246 -0.739194 -1.9078 0
M  V30 4706 H 426.256 0.42904 -4.05738 0
M  V30 4707 H 424.931 -0.722675 -4.09573 0
M  V30 4708 H 423.508 1.03537 -3.58238 0
M  V30 4709 N 425.693 1.55336 -0.266172 0
M  V30 4710 C 426.918 2.04258 0.359661 0
M  V30 4711 C 427.343 1.14359 1.49344 0
M  V30 4712 O 426.701 0.140369 1.80756 0
M  V30 4713 C 426.749 3.50997 0.826635 0
M  V30 4714 O 425.853 3.64204 1.93466 0
M  V30 4715 H 425.194 0.659668 0.075727 0
M  V30 4716 H 427.724 2.00694 -0.39786 0
M  V30 4717 H 427.734 3.9219 1.12477 0
M  V30 4718 H 426.409 4.159 -0.00293032 0
M  V30 4719 H 424.986 3.34913 1.63974 0
M  V30 4720 N 427.171 -0.0066808 1.57599 0
M  V30 4721 C 428.118 -1.00024 2.08 0
M  V30 4722 C 429.088 -1.34549 0.973943 0
M  V30 4723 O 430.273 -1.44502 1.24595 0
M  V30 4724 C 427.413 -2.2891 2.58252 0
M  V30 4725 C 426.526 -2.00346 3.82734 0
M  V30 4726 C 425.661 -3.23265 4.21513 0
M  V30 4727 C 424.7 -2.90357 5.3885 0
M  V30 4728 N 423.837 -4.05793 5.72954 0
M  V30 4729 H 428.677 -0.563499 2.92624 0
M  V30 4730 H 426.214 -0.266592 1.44664 0
M  V30 4731 H 428.172 -3.04247 2.85464 0
M  V30 4732 H 426.802 -2.70265 1.76512 0
M  V30 4733 H 425.854 -1.15406 3.62471 0
M  V30 4734 H 427.166 -1.72086 4.68175 0
M  V30 4735 H 426.32 -4.06953 4.49971 0
M  V30 4736 H 425.059 -3.54657 3.34768 0
M  V30 4737 H 424.064 -2.05075 5.10122 0
M  V30 4738 H 425.289 -2.60219 6.27266 0
M  V30 4739 H 423.235 -4.37094 4.89167 0
M  V30 4740 H 423.152 -3.81034 6.52954 0
M  V30 4741 H 424.42 -4.90289 6.06001 0
M  V30 4742 N 428.649 -1.55105 -0.279332 0
M  V30 4743 C 429.895 -1.75672 -1.01327 0
M  V30 4744 C 430.228 -0.552739 -1.86168 0
M  V30 4745 O 429.503 0.449827 -1.89227 0
M  V30 4746 C 429.786 -3.05825 -1.90114 0
M  V30 4747 C 429.639 -4.36565 -1.08309 0
M  V30 4748 C 430.958 -3.31975 -2.8893 0
M  V30 4749 H 428.077 -0.639149 -0.366957 0
M  V30 4750 H 430.719 -1.87833 -0.286154 0
M  V30 4751 H 428.869 -2.95588 -2.52111 0
M  V30 4752 H 430.541 -4.58751 -0.484314 0
M  V30 4753 H 428.784 -4.32076 -0.386362 0
M  V30 4754 H 429.455 -5.23946 -1.73737 0
M  V30 4755 H 431.931 -3.41963 -2.37067 0
M  V30 4756 H 430.807 -4.2432 -3.48201 0
M  V30 4757 H 431.068 -2.51309 -3.63725 0
M  V30 4758 N 430.127 0.543554 -1.4793 0
M  V30 4759 C 431.404 1.30458 -1.4574 0
M  V30 4760 C 431.784 2.1048 -0.161692 0
M  V30 4761 O 431.132 2.11831 0.856734 0
M  V30 4762 C 431.342 2.19754 -2.71126 0
M  V30 4763 C 432.69 2.80334 -3.18901 0
M  V30 4764 O 433.714 2.30049 -2.71948 0
M  V30 4765 O 432.573 3.71766 -4.00565 0
M  V30 4766 H 429.667 0.588117 -0.581418 0
M  V30 4767 H 432.213 0.561328 -1.60147 0
M  V30 4768 H 430.985 1.60316 -3.56952 0
M  V30 4769 H 430.608 3.01351 -2.59371 0
M  V30 4770 N 431.605 1.3629 0.791371 0
M  V30 4771 C 432.568 1.30309 1.88553 0
M  V30 4772 C 433.568 0.211204 1.59407 0
M  V30 4773 O 434.758 0.465865 1.67855 0
M  V30 4774 C 431.89 1.01956 3.25297 0
M  V30 4775 H 433.083 2.27614 1.95273 0
M  V30 4776 H 430.636 1.21035 0.988953 0
M  V30 4777 H 431.371 0.050998 3.2426 0
M  V30 4778 H 431.156 1.80968 3.4784 0
M  V30 4779 H 432.646 1.0037 4.05359 0
M  V30 4780 N 433.083 -1.0153 1.20538 0
M  V30 4781 C 434.031 -2.12215 0.952235 0
M  V30 4782 C 435.025 -1.69123 -0.0968735 0
M  V30 4783 O 436.231 -1.7992 0.0536006 0
M  V30 4784 H 432.606 -0.693576 0.290613 0
M  V30 4785 H 434.577 -2.3075 1.89201 0
M  V30 4786 C 433.326 -3.43755 0.522287 0
M  V30 4787 H 432.649 -3.7734 1.32115 0
M  V30 4788 H 434.089 -4.22254 0.384389 0
M  V30 4789 C 432.548 -3.28088 -0.765489 0
M  V30 4790 O 433.078 -3.57921 -1.8236 0
M  V30 4791 N 431.284 -2.81333 -0.728011 0
M  V30 4792 H 430.831 -2.57255 0.133332 0
M  V30 4793 H 430.789 -2.71232 -1.58999 0
M  V30 4794 N 434.561 -1.01147 -1.20859 0
M  V30 4795 C 435.471 -0.58686 -2.27141 0
M  V30 4796 C 436.487 0.373198 -1.69951 0
M  V30 4797 O 437.663 0.235423 -2.00019 0
M  V30 4798 C 434.728 0.0733602 -3.46622 0
M  V30 4799 C 433.789 -0.931995 -4.19061 0
M  V30 4800 C 433.022 -0.303186 -5.32838 0
M  V30 4801 O 433.245 0.898395 -5.63281 0
M  V30 4802 O 432.179 -1.01735 -5.9324 0
M  V30 4803 H 436.005 -1.47155 -2.65667 0
M  V30 4804 H 433.59 -0.780689 -1.2738 0
M  V30 4805 H 435.472 0.442333 -4.19072 0
M  V30 4806 H 434.147 0.932329 -3.09983 0
M  V30 4807 H 433.054 -1.35224 -3.48805 0
M  V30 4808 H 434.387 -1.76076 -4.59628 0
M  V30 4809 N 436.039 1.36541 -0.78704 0
M  V30 4810 C 436.949 2.3387 -0.184896 0
M  V30 4811 C 437.965 1.60927 0.661697 0
M  V30 4812 O 439.141 1.92927 0.57804 0
M  V30 4813 C 436.206 3.40122 0.672145 0
M  V30 4814 C 435.267 4.28867 -0.19267 0
M  V30 4815 C 434.5 5.30045 0.623561 0
M  V30 4816 O 434.723 5.39232 1.8597 0
M  V30 4817 O 433.657 6.01895 0.0247068 0
M  V30 4818 H 437.483 2.87126 -0.989562 0
M  V30 4819 H 435.068 1.38969 -0.548455 0
M  V30 4820 H 436.95 4.05093 1.16094 0
M  V30 4821 H 435.625 2.89169 1.45474 0
M  V30 4822 H 434.532 3.66945 -0.728166 0
M  V30 4823 H 435.865 4.83165 -0.938722 0
M  V30 4824 N 437.518 0.538854 1.48102 0
M  V30 4825 C 438.764 0.00801365 2.02798 0
M  V30 4826 C 439.097 -1.3309 1.41424 0
M  V30 4827 O 438.372 -1.86169 0.563158 0
M  V30 4828 C 438.655 -0.104589 3.59948 0
M  V30 4829 C 438.508 1.26012 4.31788 0
M  V30 4830 C 439.827 -0.827055 4.32259 0
M  V30 4831 H 436.946 0.00438624 0.736987 0
M  V30 4832 H 439.588 0.6976 1.7673 0
M  V30 4833 H 437.738 -0.691893 3.82289 0
M  V30 4834 H 439.41 1.88922 4.2084 0
M  V30 4835 H 437.653 1.83968 3.92859 0
M  V30 4836 H 438.324 1.13424 5.40221 0
M  V30 4837 H 440.8 -0.328578 4.14801 0
M  V30 4838 H 439.676 -0.87476 5.41885 0
M  V30 4839 H 439.937 -1.87927 4.0017 0
M  V30 4840 N 438.996 -1.55193 0.274407 0
M  V30 4841 C 439.906 -2.26164 -0.623473 0
M  V30 4842 C 440.922 -1.28729 -1.17068 0
M  V30 4843 O 442.098 -1.61663 -1.20112 0
M  V30 4844 C 439.163 -2.96833 -1.7914 0
M  V30 4845 C 438.224 -4.09745 -1.28093 0
M  V30 4846 C 437.457 -4.77034 -2.3932 0
M  V30 4847 O 437.68 -4.4353 -3.5866 0
M  V30 4848 O 436.614 -5.64996 -2.07516 0
M  V30 4849 H 440.44 -3.03661 -0.0485661 0
M  V30 4850 H 438.025 -1.49341 0.0418382 0
M  V30 4851 H 439.907 -3.41248 -2.4724 0
M  V30 4852 H 438.582 -2.22253 -2.35341 0
M  V30 4853 H 437.489 -3.69787 -0.566416 0
M  V30 4854 H 438.822 -4.86224 -0.764683 0
M  V30 4855 N 440.474 -0.00167713 -1.576 0
M  V30 4856 C 441.437 0.974046 -2.07473 0
M  V30 4857 C 442.437 1.27143 -0.984444 0
M  V30 4858 O 443.627 1.21633 -1.24703 0
M  V30 4859 C 440.759 2.29849 -2.51759 0
M  V30 4860 H 441.952 0.54262 -2.9495 0
M  V30 4861 H 439.505 0.245829 -1.54355 0
M  V30 4862 H 440.24 2.77677 -1.67529 0
M  V30 4863 H 440.025 2.09584 -3.31386 0
M  V30 4864 H 441.515 2.9984 -2.90664 0
M  V30 4865 N 441.952 1.55251 0.271103 0
M  V30 4866 C 442.882 1.9127 1.33933 0
M  V30 4867 C 443.863 0.77478 1.5143 0
M  V30 4868 O 445.048 1.03307 1.64442 0
M  V30 4869 C 442.178 2.18627 2.69851 0
M  V30 4870 C 441.132 3.34442 2.67081 0
M  V30 4871 C 440.458 3.47284 4.06569 0
M  V30 4872 C 441.758 4.70784 2.26185 0
M  V30 4873 H 443.452 2.80744 1.04035 0
M  V30 4874 H 440.998 1.35077 0.499017 0
M  V30 4875 H 442.951 2.42413 3.44694 0
M  V30 4876 H 441.675 1.25955 3.01335 0
M  V30 4877 H 440.334 3.10627 1.94695 0
M  V30 4878 H 439.982 2.52074 4.35279 0
M  V30 4879 H 439.682 4.25152 4.0561 0
M  V30 4880 H 441.206 3.73363 4.83148 0
M  V30 4881 H 442.62 4.94102 2.90751 0
M  V30 4882 H 441.017 5.51582 2.36384 0
M  V30 4883 H 442.087 4.69478 1.21319 0
M  V30 4884 N 443.43 -0.535701 1.48216 0
M  V30 4885 C 444.679 -1.28828 1.55197 0
M  V30 4886 C 444.992 -1.94263 0.228278 0
M  V30 4887 O 446.198 -2.70927 0.176278 0
M  V30 4888 C 444.654 -2.33727 2.73678 0
M  V30 4889 C 444.262 -1.74386 4.12666 0
M  V30 4890 C 446.006 -3.1003 2.89968 0
M  V30 4891 C 443.913 -2.77192 5.22416 0
M  V30 4892 H 442.843 -0.484484 0.577747 0
M  V30 4893 H 445.494 -0.56646 1.74538 0
M  V30 4894 H 443.876 -3.08919 2.4776 0
M  V30 4895 H 445.05 -1.05421 4.48579 0
M  V30 4896 H 443.365 -1.10595 4.01445 0
M  V30 4897 H 445.962 -3.86842 3.6913 0
M  V30 4898 H 446.305 -3.65542 1.9921 0
M  V30 4899 H 446.838 -2.41952 3.15759 0
M  V30 4900 H 443.577 -2.26507 6.15122 0
M  V30 4901 H 443.097 -3.44502 4.90998 0
M  V30 4902 H 444.776 -3.40285 5.50286 0
M  V30 4903 N 444.908 -1.36708 -0.784132 0
M  V30 4904 C 446.154 -1.31426 -1.54451 0
M  V30 4905 C 446.487 0.10476 -1.93917 0
M  V30 4906 O 445.762 1.05934 -1.6312 0
M  V30 4907 C 446.045 -2.24189 -2.818 0
M  V30 4908 C 445.898 -3.74813 -2.48667 0
M  V30 4909 C 447.217 -2.15626 -3.83658 0
M  V30 4910 H 444.336 -0.478739 -0.560337 0
M  V30 4911 H 446.978 -1.67305 -0.900498 0
M  V30 4912 H 445.128 -1.93722 -3.36755 0
M  V30 4913 H 446.8 -4.15823 -1.99722 0
M  V30 4914 H 445.043 -3.93989 -1.81535 0
M  V30 4915 H 445.714 -4.35138 -3.39646 0
M  V30 4916 H 448.19 -2.42456 -3.38163 0
M  V30 4917 H 447.066 -2.82694 -4.70506 0
M  V30 4918 H 447.327 -1.14522 -4.27009 0
M  V30 4919 N 446.386 1.0089 -1.21074 0
M  V30 4920 C 447.333 2.09588 -0.966512 0
M  V30 4921 C 448.303 1.65761 0.106089 0
M  V30 4922 O 449.488 1.90758 -0.0402287 0
M  V30 4923 C 446.628 3.40958 -0.533058 0
M  V30 4924 C 445.741 3.9822 -1.67467 0
M  V30 4925 C 444.876 5.17682 -1.19076 0
M  V30 4926 C 443.915 5.67043 -2.30496 0
M  V30 4927 N 443.052 6.77759 -1.83267 0
M  V30 4928 H 447.892 2.29815 -1.89708 0
M  V30 4929 H 445.429 1.12689 -0.945489 0
M  V30 4930 H 447.387 4.1637 -0.263019 0
M  V30 4931 H 446.017 3.20781 0.360505 0
M  V30 4932 H 445.069 3.1983 -2.05944 0
M  V30 4933 H 446.381 4.3085 -2.51336 0
M  V30 4934 H 445.535 6.00326 -0.877151 0
M  V30 4935 H 444.274 4.86635 -0.322066 0
M  V30 4936 H 443.279 4.82999 -2.62664 0
M  V30 4937 H 444.504 6.00121 -3.17855 0
M  V30 4938 H 442.45 6.48527 -0.987356 0
M  V30 4939 H 442.367 7.09624 -2.60711 0
M  V30 4940 H 443.635 7.63949 -1.54928 0
M  V30 4941 N 447.864 1.01787 1.20321 0
M  V30 4942 C 449.089 0.727009 1.9424 0
M  V30 4943 C 449.514 -0.706179 1.74341 0
M  V30 4944 O 448.872 -1.48609 1.03852 0
M  V30 4945 C 448.92 1.06958 3.44372 0
M  V30 4946 O 448.024 0.181983 4.11998 0
M  V30 4947 H 447.365 0.269626 0.606793 0
M  V30 4948 H 449.895 1.36158 1.52716 0
M  V30 4949 H 449.905 1.02182 3.94997 0
M  V30 4950 H 448.58 2.11378 3.58179 0
M  V30 4951 H 447.157 0.287378 3.71791 0
M  V30 4952 N 449.342 -1.36122 0.79427 0
M  V30 4953 C 450.753 -1.81646 0.431446 0
M  V30 4954 C 451.104 -1.66043 -1.04518 0
M  V30 4955 O 450.229 -1.1841 -1.8113 0
M  V30 4956 C 450.824 -3.29785 0.776341 0
M  V30 4957 C 449.383 -3.73501 0.466282 0
M  V30 4958 C 448.53 -2.58313 1.00844 0
M  V30 4959 H 451.481 -1.24274 0.986995 0
M  V30 4960 H 451.502 -3.80437 0.0692413 0
M  V30 4961 H 451.014 -3.4111 1.8511 0
M  V30 4962 H 449.115 -3.67733 -0.600245 0
M  V30 4963 H 449.228 -4.68754 0.990288 0
M  V30 4964 H 447.592 -2.5102 0.431406 0
M  V30 4965 H 448.375 -2.72421 2.08906 0
M  V30 4966 N 450.82 -0.546701 -1.47814 0
M  V30 4967 C 451.752 0.244196 -2.27895 0
M  V30 4968 C 452.765 0.88911 -1.36377 0
M  V30 4969 O 453.954 0.764733 -1.61289 0
M  V30 4970 C 451.054 1.36252 -3.10304 0
M  V30 4971 C 450.227 0.816382 -4.29714 0
M  V30 4972 C 449.286 1.81789 -4.93801 0
M  V30 4973 O 448.312 1.36818 -5.52512 0
M  V30 4974 N 449.514 3.15085 -4.87547 0
M  V30 4975 H 452.279 -0.442694 -2.96412 0
M  V30 4976 H 449.84 -0.382095 -1.57327 0
M  V30 4977 H 451.832 2.03102 -3.50045 0
M  V30 4978 H 450.402 1.95281 -2.44099 0
M  V30 4979 H 449.622 -0.0285981 -3.9419 0
M  V30 4980 H 450.91 0.430668 -5.06974 0
M  V30 4981 H 450.308 3.54275 -4.41028 0
M  V30 4982 H 448.865 3.77522 -5.31339 0
M  V30 4983 N 452.299 1.55045 -0.282633 0
M  V30 4984 C 453.246 2.22822 0.601566 0
M  V30 4985 C 454.216 1.20431 1.14392 0
M  V30 4986 O 455.401 1.48996 1.19184 0
M  V30 4987 C 452.541 2.95873 1.77632 0
M  V30 4988 C 451.654 4.12999 1.26711 0
M  V30 4989 C 450.789 4.73676 2.40426 0
M  V30 4990 C 449.828 5.82981 1.86545 0
M  V30 4991 N 448.965 6.3769 2.93762 0
M  V30 4992 H 453.805 2.97995 0.0169528 0
M  V30 4993 H 451.342 1.471 -0.00339964 0
M  V30 4994 H 453.3 3.36447 2.46697 0
M  V30 4995 H 451.93 2.2311 2.33285 0
M  V30 4996 H 450.982 3.77494 0.469314 0
M  V30 4997 H 452.294 4.91803 0.832518 0
M  V30 4998 H 451.448 5.17008 3.17471 0
M  V30 4999 H 450.187 3.94164 2.87203 0
M  V30 5000 H 449.192 5.39092 1.07983 0
M  V30 5001 H 450.417 6.64366 1.40694 0
M  V30 5002 H 448.363 5.61069 3.39908 0
M  V30 5003 H 448.28 7.11788 2.54744 0
M  V30 5004 H 449.548 6.8568 3.7076 0
M  V30 5005 N 453.777 0.010035 1.57597 0
M  V30 5006 C 454.687 -0.994226 2.12491 0
M  V30 5007 C 455.703 -1.37013 1.07254 0
M  V30 5008 O 456.879 -1.45542 1.3921 0
M  V30 5009 C 453.944 -2.2642 2.62555 0
M  V30 5010 C 453.005 -1.95049 3.82432 0
M  V30 5011 C 452.238 -3.15991 4.30099 0
M  V30 5012 O 452.461 -4.28015 3.7704 0
M  V30 5013 O 451.395 -2.99403 5.22151 0
M  V30 5014 H 455.221 -0.557549 2.98538 0
M  V30 5015 H 452.806 -0.209413 1.47925 0
M  V30 5016 H 454.688 -3.01009 2.9491 0
M  V30 5017 H 453.363 -2.69306 1.796 0
M  V30 5018 H 452.27 -1.17904 3.55034 0
M  V30 5019 H 453.603 -1.56992 4.66491 0
M  V30 5020 N 455.255 -1.55392 -0.262866 0
M  V30 5021 C 456.501 -1.77657 -0.990424 0
M  V30 5022 C 456.856 -0.576333 -1.83565 0
M  V30 5023 O 456.149 0.430795 -1.86694 0
M  V30 5024 C 456.343 -3.02889 -1.89718 0
M  V30 5025 C 456.172 -4.34979 -1.14121 0
M  V30 5026 C 454.942 -4.98052 -0.852768 0
M  V30 5027 C 457.14 -5.11597 -0.526625 0
M  V30 5028 N 455.122 -6.13859 -0.0710649 0
M  V30 5029 C 456.493 -6.19883 0.12042 0
M  V30 5030 C 458.548 -4.95992 -0.435485 0
M  V30 5031 C 457.251 -7.14262 0.849833 0
M  V30 5032 C 459.277 -5.90735 0.280359 0
M  V30 5033 C 458.639 -6.98417 0.916103 0
M  V30 5034 H 454.738 -0.702242 -0.344064 0
M  V30 5035 H 457.322 -1.92887 -0.265088 0
M  V30 5036 H 455.493 -2.89017 -2.59468 0
M  V30 5037 H 457.225 -3.13516 -2.5591 0
M  V30 5038 H 453.98 -4.5916 -1.16058 0
M  V30 5039 H 454.404 -6.76302 0.307413 0
M  V30 5040 H 459.046 -4.12832 -0.912671 0
M  V30 5041 H 456.764 -7.96935 1.33867 0
M  V30 5042 H 460.35 -5.80738 0.351332 0
M  V30 5043 H 459.23 -7.70467 1.46119 0
M  V30 5044 N 456.733 0.527833 -1.48498 0
M  V30 5045 C 457.681 1.65313 -1.63628 0
M  V30 5046 C 458.675 1.6177 -0.502676 0
M  V30 5047 O 459.881 1.66601 -0.681469 0
M  V30 5048 H 456.256 0.547518 -0.515488 0
M  V30 5049 H 458.227 1.49696 -2.58135 0
M  V30 5050 C 456.976 3.03576 -1.6952 0
M  V30 5051 H 456.299 3.06997 -2.56111 0
M  V30 5052 H 457.739 3.81923 -1.84149 0
M  V30 5053 C 456.198 3.34089 -0.43432 0
M  V30 5054 O 456.728 3.99151 0.451852 0
M  V30 5055 N 454.934 2.88991 -0.305368 0
M  V30 5056 H 454.481 2.36222 -1.02747 0
M  V30 5057 H 454.439 3.09776 0.537249 0
M  V30 5058 N 458.211 1.37122 0.776871 0
M  V30 5059 C 459.622 1.28667 1.35284 0
M  V30 5060 C 459.973 -0.0680035 1.96082 0
M  V30 5061 O 459.098 -0.969743 1.93455 0
M  V30 5062 C 459.693 2.32997 2.45963 0
M  V30 5063 C 458.252 2.28191 2.99342 0
M  V30 5064 C 457.399 2.17101 1.72517 0
M  V30 5065 H 460.35 1.47819 0.577527 0
M  V30 5066 H 460.371 1.97366 3.2531 0
M  V30 5067 H 459.883 3.3158 2.01684 0
M  V30 5068 H 457.984 1.33115 3.4801 0
M  V30 5069 H 458.097 3.21397 3.55304 0
M  V30 5070 H 456.461 1.63562 1.95242 0
M  V30 5071 H 457.244 3.17591 1.30348 0
M  V30 5072 N 459.689 -1.00246 1.21608 0
M  V30 5073 C 460.914 -1.78167 1.06167 0
M  V30 5074 C 461.339 -1.84138 -0.384035 0
M  V30 5075 O 460.697 -1.28683 -1.27712 0
M  V30 5076 C 460.745 -3.19786 1.66642 0
M  V30 5077 O 459.849 -4.02153 0.913613 0
M  V30 5078 H 459.19 -0.549 0.37349 0
M  V30 5079 H 461.72 -1.25994 1.61204 0
M  V30 5080 H 461.73 -3.70451 1.70969 0
M  V30 5081 H 460.405 -3.14754 2.7185 0
M  V30 5082 H 458.982 -3.60711 0.945635 0
M  V30 5083 N 461.167 -1.02423 -1.1978 0
M  V30 5084 C 462.097 -0.62157 -2.25075 0
M  V30 5085 C 463.078 0.367148 -1.6609 0
M  V30 5086 O 464.263 0.250892 -1.92573 0
M  V30 5087 C 461.393 0.0331826 -3.47284 0
M  V30 5088 C 460.347 -0.877323 -4.18912 0
M  V30 5089 C 459.673 -0.0879296 -5.34628 0
M  V30 5090 C 460.973 -2.18892 -4.74219 0
M  V30 5091 H 462.667 -1.50179 -2.59011 0
M  V30 5092 H 460.213 -0.723547 -1.24502 0
M  V30 5093 H 462.166 0.326488 -4.20133 0
M  V30 5094 H 460.89 0.948164 -3.12534 0
M  V30 5095 H 459.549 -1.15475 -3.47938 0
M  V30 5096 H 459.197 0.828941 -4.96123 0
M  V30 5097 H 458.897 -0.694359 -5.83483 0
M  V30 5098 H 460.421 0.198743 -6.10276 0
M  V30 5099 H 461.835 -1.95746 -5.38847 0
M  V30 5100 H 460.232 -2.74686 -5.33542 0
M  V30 5101 H 461.302 -2.84674 -3.92541 0
M  V30 5102 N 462.645 1.35699 -0.801477 0
M  V30 5103 C 463.892 1.98913 -0.379459 0
M  V30 5104 C 464.22 1.63592 1.05204 0
M  V30 5105 O 463.475 0.888563 1.74365 0
M  V30 5106 C 463.774 3.53828 -0.504041 0
M  V30 5107 C 463.44 4.09002 -1.8981 0
M  V30 5108 C 462.102 4.23783 -2.27951 0
M  V30 5109 C 464.454 4.38939 -2.81038 0
M  V30 5110 C 461.782 4.65816 -3.56696 0
M  V30 5111 C 464.134 4.82409 -4.09224 0
M  V30 5112 C 462.798 4.95395 -4.4737 0
M  V30 5113 H 462.068 0.727874 -0.138854 0
M  V30 5114 H 464.715 1.61994 -1.02128 0
M  V30 5115 H 463.02 3.91175 0.221242 0
M  V30 5116 H 464.717 4.00687 -0.158361 0
M  V30 5117 H 461.307 3.97946 -1.59176 0
M  V30 5118 H 465.491 4.27077 -2.52821 0
M  V30 5119 H 460.747 4.74059 -3.86106 0
M  V30 5120 H 464.921 5.04535 -4.80018 0
M  V30 5121 H 462.548 5.27724 -5.47185 0
M  V30 5122 N 464.123 0.554532 1.47522 0
M  V30 5123 C 465.07 -0.19466 2.29978 0
M  V30 5124 C 466.04 -0.910882 1.38896 0
M  V30 5125 O 467.225 -0.907102 1.67858 0
M  V30 5126 C 464.365 -1.22035 3.22802 0
M  V30 5127 C 463.478 -0.510474 4.28973 0
M  V30 5128 C 462.613 -1.52123 5.08952 0
M  V30 5129 C 461.652 -0.796173 6.069 0
M  V30 5130 N 460.789 -1.75363 6.79847 0
M  V30 5131 H 465.629 0.51461 2.93523 0
M  V30 5132 H 463.166 0.265607 1.44682 0
M  V30 5133 H 465.124 -1.8276 3.7504 0
M  V30 5134 H 463.754 -1.89769 2.61127 0
M  V30 5135 H 462.806 0.211234 3.79813 0
M  V30 5136 H 464.118 0.0576503 4.98767 0
M  V30 5137 H 463.272 -2.20207 5.65326 0
M  V30 5138 H 462.011 -2.12327 4.39054 0
M  V30 5139 H 461.016 -0.101388 5.49707 0
M  V30 5140 H 462.241 -0.199911 6.78806 0
M  V30 5141 H 460.187 -2.3443 6.12682 0
M  V30 5142 H 460.104 -1.23759 7.45801 0
M  V30 5143 H 461.372 -2.4257 7.40797 0
M  V30 5144 N 465.601 -1.54893 0.290851 0
M  V30 5145 C 466.847 -2.0023 -0.321867 0
M  V30 5146 C 467.18 -1.179 -1.54316 0
M  V30 5147 O 466.455 -0.25293 -1.92848 0
M  V30 5148 C 466.738 -3.53456 -0.688515 0
M  V30 5149 C 466.591 -4.46532 0.541209 0
M  V30 5150 C 467.91 -4.13057 -1.51895 0
M  V30 5151 H 465.029 -0.727891 -0.115515 0
M  V30 5152 H 467.671 -1.85722 0.400931 0
M  V30 5153 H 465.821 -3.6595 -1.30433 0
M  V30 5154 H 467.493 -4.4596 1.17973 0
M  V30 5155 H 465.736 -4.17545 1.17636 0
M  V30 5156 H 466.407 -5.51475 0.240675 0
M  V30 5157 H 468.883 -4.03937 -0.99872 0
M  V30 5158 H 467.759 -5.20448 -1.74429 0
M  V30 5159 H 468.02 -3.64284 -2.50498 0
M  V30 5160 N 467.08 -0.0183926 -1.57589 0
M  V30 5161 C 468.01 0.965596 -2.12599 0
M  V30 5162 C 468.991 1.34641 -1.0395 0
M  V30 5163 O 470.176 1.42693 -1.31729 0
M  V30 5164 C 467.306 2.25149 -2.64434 0
M  V30 5165 C 466.26 2.01175 -3.77773 0
M  V30 5166 C 465.586 3.35937 -4.15994 0
M  V30 5167 C 466.886 1.35953 -5.04296 0
M  V30 5168 H 468.58 0.507504 -2.95067 0
M  V30 5169 H 466.126 0.242671 -1.41941 0
M  V30 5170 H 468.079 2.94357 -3.01549 0
M  V30 5171 H 466.803 2.73105 -1.79112 0
M  V30 5172 H 465.462 1.34388 -3.4108 0
M  V30 5173 H 465.11 3.81631 -3.27669 0
M  V30 5174 H 464.81 3.20705 -4.92364 0
M  V30 5175 H 466.334 4.0643 -4.55683 0
M  V30 5176 H 467.748 1.95144 -5.39065 0
M  V30 5177 H 466.145 1.31152 -5.85593 0
M  V30 5178 H 467.215 0.331071 -4.83768 0
M  V30 5179 N 468.558 1.5553 0.254621 0
M  V30 5180 C 469.788 1.80784 1.00004 0
M  V30 5181 C 470.196 0.59071 1.79742 0
M  V30 5182 O 469.539 -0.449988 1.78103 0
M  V30 5183 C 469.601 2.99268 1.99196 0
M  V30 5184 C 469.265 4.35595 1.38224 0
M  V30 5185 C 470.262 5.13884 0.788611 0
M  V30 5186 C 467.947 4.82281 1.40393 0
M  V30 5187 C 469.941 6.37004 0.224783 0
M  V30 5188 C 467.628 6.05351 0.836243 0
M  V30 5189 C 468.626 6.82551 0.24769 0
M  V30 5190 O 468.314 8.03297 -0.311249 0
M  V30 5191 H 468.046 0.60565 0.300274 0
M  V30 5192 H 470.6 2.03411 0.285143 0
M  V30 5193 H 468.83 2.72377 2.74496 0
M  V30 5194 H 470.519 3.11682 2.60018 0
M  V30 5195 H 471.285 4.78938 0.764423 0
M  V30 5196 H 467.164 4.22189 1.85142 0
M  V30 5197 H 470.708 6.97203 -0.235235 0
M  V30 5198 H 466.605 6.39776 0.857733 0
M  V30 5199 H 467.373 8.1825 -0.20237 0
M  V30 5200 N 470.036 -0.519951 1.48776 0
M  V30 5201 C 470.983 -1.62352 1.64044 0
M  V30 5202 C 471.953 -1.58945 0.482251 0
M  V30 5203 O 473.138 -1.77219 0.706971 0
M  V30 5204 C 470.278 -3.00579 1.69547 0
M  V30 5205 C 469.391 -3.14145 2.96541 0
M  V30 5206 C 468.526 -4.42991 2.93142 0
M  V30 5207 C 467.565 -4.50122 4.14797 0
M  V30 5208 N 466.702 -5.7037 4.09418 0
M  V30 5209 H 471.542 -1.48643 2.58281 0
M  V30 5210 H 469.079 -0.723516 1.28077 0
M  V30 5211 H 471.037 -3.80671 1.70719 0
M  V30 5212 H 469.667 -3.13036 0.787918 0
M  V30 5213 H 468.719 -2.27239 3.05068 0
M  V30 5214 H 470.031 -3.15275 3.86527 0
M  V30 5215 H 469.185 -5.31385 2.92772 0
M  V30 5216 H 467.924 -4.44398 2.00902 0
M  V30 5217 H 466.929 -3.60133 4.15433 0
M  V30 5218 H 468.154 -4.50445 5.08208 0
M  V30 5219 H 466.1 -5.72655 3.20004 0
M  V30 5220 H 466.017 -5.73036 4.93119 0
M  V30 5221 H 467.285 -6.61023 4.13121 0
M  V30 5222 N 471.514 -1.37532 -0.769588 0
M  V30 5223 C 472.742 -1.36059 -1.55871 0
M  V30 5224 C 473.157 0.053544 -1.88724 0
M  V30 5225 O 472.514 1.01591 -1.5161 0
M  V30 5226 C 472.565 -2.20107 -2.86767 0
M  V30 5227 O 472.286 -3.56009 -2.55321 0
M  V30 5228 C 473.787 -2.26636 -3.80987 0
M  V30 5229 H 471.007 -0.465967 -0.482821 0
M  V30 5230 H 473.551 -1.80901 -0.953686 0
M  V30 5231 H 471.706 -1.78768 -3.43687 0
M  V30 5232 H 472.12 -4.0009 -3.39158 0
M  V30 5233 H 473.594 -2.89763 -4.69831 0
M  V30 5234 H 474.071 -1.2754 -4.20274 0
M  V30 5235 H 474.677 -2.68296 -3.29996 0
M  V30 5236 N 472.992 0.995999 -1.22138 0
M  V30 5237 C 474.239 1.7351 -1.04406 0
M  V30 5238 C 474.567 1.89884 0.421244 0
M  V30 5239 O 473.822 1.43683 1.32867 0
M  V30 5240 C 474.121 3.14553 -1.6968 0
M  V30 5241 C 473.787 3.18102 -3.19565 0
M  V30 5242 C 472.449 3.18778 -3.60464 0
M  V30 5243 C 474.801 3.14636 -4.15516 0
M  V30 5244 C 472.129 3.13684 -4.95801 0
M  V30 5245 C 474.481 3.11084 -5.50826 0
M  V30 5246 C 473.145 3.10074 -5.91109 0
M  V30 5247 H 472.415 0.634916 -0.38205 0
M  V30 5248 H 475.062 1.1667 -1.51857 0
M  V30 5249 H 473.367 3.74682 -1.14546 0
M  V30 5250 H 475.064 3.70477 -1.53454 0
M  V30 5251 H 471.654 3.18324 -2.86998 0
M  V30 5252 H 475.838 3.13266 -3.84939 0
M  V30 5253 H 471.094 3.11245 -5.26247 0
M  V30 5254 H 475.268 3.07357 -6.24904 0
M  V30 5255 H 472.895 3.05882 -6.95946 0
M  V30 5256 N 474.47 1.03057 1.19235 0
M  V30 5257 C 475.718 0.726581 1.88587 0
M  V30 5258 C 476.039 -0.747227 1.80115 0
M  V30 5259 O 475.309 -1.53849 1.21274 0
M  V30 5260 H 473.889 0.265768 0.698124 0
M  V30 5261 H 476.551 1.30516 1.44746 0
M  V30 5262 H 475.647 1.0224 2.94879 0
M  V30 5263 N 475.948 -1.35272 0.808662 0
M  V30 5264 C 477.359 -1.81179 0.450688 0
M  V30 5265 C 477.71 -1.67143 -1.02751 0
M  V30 5266 O 476.835 -1.20325 -1.79864 0
M  V30 5267 C 477.43 -3.28943 0.811275 0
M  V30 5268 C 475.989 -3.72985 0.505871 0
M  V30 5269 C 475.136 -2.57229 1.03578 0
M  V30 5270 H 478.087 -1.2322 1.00012 0
M  V30 5271 H 478.108 -3.80342 0.109588 0
M  V30 5272 H 477.62 -3.39127 1.88718 0
M  V30 5273 H 475.721 -3.68349 -0.561209 0
M  V30 5274 H 475.834 -4.67677 1.03995 0
M  V30 5275 H 474.198 -2.50548 0.458005 0
M  V30 5276 H 474.981 -2.7019 2.11784 0
M  V30 5277 N 477.426 -0.562348 -1.47226 0
M  V30 5278 C 478.656 -0.0451619 -2.06551 0
M  V30 5279 C 479.064 1.25626 -1.41473 0
M  V30 5280 O 478.407 1.76563 -0.507061 0
M  V30 5281 C 478.469 0.216068 -3.5885 0
M  V30 5282 C 478.133 -0.996691 -4.45999 0
M  V30 5283 C 479.13 -1.90358 -4.83797 0
M  V30 5284 C 476.815 -1.21281 -4.87438 0
M  V30 5285 C 478.809 -3.01023 -5.6184 0
M  V30 5286 C 476.496 -2.32255 -5.65244 0
M  V30 5287 C 477.494 -3.21956 -6.02356 0
M  V30 5288 O 477.182 -4.31005 -6.78594 0
M  V30 5289 H 476.914 -0.0451646 -0.67449 0
M  V30 5290 H 479.468 -0.776842 -1.90143 0
M  V30 5291 H 477.698 1.00212 -3.7349 0
M  V30 5292 H 479.387 0.679264 -4.00176 0
M  V30 5293 H 480.153 -1.74868 -4.52378 0
M  V30 5294 H 476.032 -0.523767 -4.58015 0
M  V30 5295 H 479.576 -3.71064 -5.90726 0
M  V30 5296 H 475.473 -2.47715 -5.96077 0
M  V30 5297 H 476.241 -4.29118 -6.96994 0
M  V30 5298 N 478.904 1.54736 -0.299062 0
M  V30 5299 C 480.151 2.00101 0.310784 0
M  V30 5300 C 480.479 1.18746 1.54045 0
M  V30 5301 O 479.734 0.251198 1.94081 0
M  V30 5302 C 480.033 3.50199 0.713835 0
M  V30 5303 C 479.699 4.48997 -0.413873 0
M  V30 5304 C 478.361 4.7573 -0.723462 0
M  V30 5305 C 480.713 5.07839 -1.17257 0
M  V30 5306 C 478.041 5.5857 -1.79491 0
M  V30 5307 C 480.393 5.91844 -2.23392 0
M  V30 5308 C 479.057 6.16889 -2.54959 0
M  V30 5309 H 478.327 0.732221 0.113724 0
M  V30 5310 H 480.974 1.86888 -0.417756 0
M  V30 5311 H 479.279 3.61012 1.52243 0
M  V30 5312 H 480.976 3.82723 1.19684 0
M  V30 5313 H 477.566 4.28292 -0.162476 0
M  V30 5314 H 481.75 4.87188 -0.946651 0
M  V30 5315 H 477.006 5.76213 -2.04423 0
M  V30 5316 H 481.18 6.36465 -2.8264 0
M  V30 5317 H 478.807 6.80869 -3.38114 0
M  V30 5318 N 480.382 0.0267497 1.57577 0
M  V30 5319 C 481.312 -0.954308 2.13108 0
M  V30 5320 C 482.293 -1.34088 1.04663 0
M  V30 5321 O 483.478 -1.41992 1.32484 0
M  V30 5322 C 480.608 -2.23744 2.65624 0
M  V30 5323 C 479.562 -1.99168 3.78835 0
M  V30 5324 C 478.888 -3.33726 4.17769 0
M  V30 5325 C 480.188 -1.33277 5.0501 0
M  V30 5326 H 481.882 -0.491848 2.95332 0
M  V30 5327 H 479.428 -0.23514 1.42067 0
M  V30 5328 H 481.381 -2.92754 3.03106 0
M  V30 5329 H 480.105 -2.72151 1.80558 0
M  V30 5330 H 478.764 -1.32577 3.41788 0
M  V30 5331 H 478.412 -3.79888 3.29688 0
M  V30 5332 H 478.112 -3.18089 4.94058 0
M  V30 5333 H 479.636 -4.04008 4.57832 0
M  V30 5334 H 481.05 -1.92283 5.40093 0
M  V30 5335 H 479.447 -1.28045 5.8628 0
M  V30 5336 H 480.517 -0.305411 4.83937 0
M  V30 5337 N 481.861 -1.55662 -0.24637 0
M  V30 5338 C 482.794 -1.85332 -1.33143 0
M  V30 5339 C 483.772 -0.708464 -1.46354 0
M  V30 5340 O 484.956 -0.954274 -1.6256 0
M  V30 5341 C 482.083 -2.0385 -2.70487 0
M  V30 5342 C 481.129 -3.26488 -2.74423 0
M  V30 5343 S 481.962 -4.83124 -2.30979 0
M  V30 5344 C 483.118 -5.04647 -3.70246 0
M  V30 5345 H 483.351 -2.77077 -1.07777 0
M  V30 5346 H 480.884 -1.47776 -0.44738 0
M  V30 5347 H 482.842 -2.15202 -3.49569 0
M  V30 5348 H 481.503 -1.12947 -2.9309 0
M  V30 5349 H 480.696 -3.36413 -3.7529 0
M  V30 5350 H 480.298 -3.13864 -2.03385 0
M  V30 5351 H 482.59 -4.92023 -4.65746 0
M  V30 5352 H 483.533 -6.06625 -3.65255 0
M  V30 5353 H 483.941 -4.32491 -3.62784 0
M  V30 5354 N 483.339 0.512053 -1.4905 0
M  V30 5355 C 484.564 1.2959 -1.6193 0
M  V30 5356 C 484.989 1.85906 -0.286454 0
M  V30 5357 O 484.347 1.65312 0.744426 0
M  V30 5358 C 484.395 2.40987 -2.68249 0
M  V30 5359 O 483.499 3.44531 -2.26654 0
M  V30 5360 H 482.84 0.383053 -0.542371 0
M  V30 5361 H 485.37 0.614231 -1.95162 0
M  V30 5362 H 485.38 2.86913 -2.90078 0
M  V30 5363 H 484.055 1.99361 -3.65004 0
M  V30 5364 H 482.632 3.046 -2.15112 0
M  V30 5365 N 484.817 1.37938 0.762283 0
M  V30 5366 C 486.064 1.33668 1.52115 0
M  V30 5367 C 486.392 -0.0759538 1.94352 0
M  V30 5368 O 485.647 -1.05121 1.6507 0
M  V30 5369 C 485.946 2.23042 2.79261 0
M  V30 5370 C 485.612 3.71159 2.56031 0
M  V30 5371 C 484.274 4.11523 2.49404 0
M  V30 5372 C 486.626 4.64955 2.35513 0
M  V30 5373 C 483.954 5.43784 2.20263 0
M  V30 5374 C 486.306 5.97464 2.07894 0
M  V30 5375 C 484.97 6.36922 1.99718 0
M  V30 5376 H 484.24 0.489127 0.556629 0
M  V30 5377 H 486.887 1.70224 0.877262 0
M  V30 5378 H 485.192 1.79512 3.48256 0
M  V30 5379 H 486.889 2.17047 3.37182 0
M  V30 5380 H 483.479 3.39153 2.62056 0
M  V30 5381 H 487.663 4.34623 2.39617 0
M  V30 5382 H 482.919 5.73307 2.12435 0
M  V30 5383 H 487.093 6.6969 1.91019 0
M  V30 5384 H 484.72 7.39331 1.76902 0
M  V30 5385 N 486.295 -0.989507 1.22664 0
M  V30 5386 C 487.542 -1.72953 1.05325 0
M  V30 5387 C 487.87 -1.90104 -0.411168 0
M  V30 5388 O 487.125 -1.44386 -1.32103 0
M  V30 5389 C 487.424 -3.13649 1.71345 0
M  V30 5390 C 487.09 -3.16403 3.21248 0
M  V30 5391 C 485.752 -3.16862 3.62149 0
M  V30 5392 C 488.104 -3.12428 4.17179 0
M  V30 5393 C 485.432 -3.11051 4.97458 0
M  V30 5394 C 487.784 -3.08159 5.52468 0
M  V30 5395 C 486.448 -3.06935 5.92746 0
M  V30 5396 H 485.718 -0.632881 0.385412 0
M  V30 5397 H 488.365 -1.15863 1.52473 0
M  V30 5398 H 486.67 -3.74069 1.16532 0
M  V30 5399 H 488.367 -3.69658 1.55416 0
M  V30 5400 H 484.957 -3.16798 2.88682 0
M  V30 5401 H 489.141 -3.11221 3.86595 0
M  V30 5402 H 484.397 -3.0845 5.27891 0
M  V30 5403 H 488.571 -3.04039 6.26525 0
M  V30 5404 H 486.198 -3.02186 6.97558 0
M  V30 5405 N 487.773 -1.03688 -1.18687 0
M  V30 5406 C 489.02 -0.73803 -1.88572 0
M  V30 5407 C 489.348 0.733973 -1.8012 0
M  V30 5408 O 488.603 1.55098 -1.19344 0
M  V30 5409 C 488.902 -1.14477 -3.3857 0
M  V30 5410 C 488.568 -2.61641 -3.67226 0
M  V30 5411 C 487.23 -3.01846 -3.74757 0
M  V30 5412 C 489.582 -3.56812 -3.79914 0
M  V30 5413 C 486.91 -4.36118 -3.92451 0
M  V30 5414 C 489.262 -4.90799 -3.99123 0
M  V30 5415 C 487.926 -5.3068 -4.04888 0
M  V30 5416 H 487.196 -0.270064 -0.690034 0
M  V30 5417 H 489.843 -1.3012 -1.40503 0
M  V30 5418 H 488.148 -0.500337 -3.88592 0
M  V30 5419 H 489.845 -0.89095 -3.90977 0
M  V30 5420 H 486.435 -2.29498 -3.61979 0
M  V30 5421 H 490.619 -3.26899 -3.73431 0
M  V30 5422 H 485.875 -4.66542 -3.95157 0
M  V30 5423 H 490.049 -5.64451 -4.07882 0
M  V30 5424 H 487.676 -6.34733 -4.18351 0
M  V30 5425 N 489.251 1.34841 -0.815825 0
M  V30 5426 C 490.198 2.29644 -0.230664 0
M  V30 5427 C 491.168 1.53253 0.640533 0
M  V30 5428 O 492.353 1.81653 0.583672 0
M  V30 5429 C 489.493 3.39715 0.607275 0
M  V30 5430 C 488.606 4.31056 -0.28538 0
M  V30 5431 C 487.741 5.28225 0.561446 0
M  V30 5432 C 486.78 6.11204 -0.331035 0
M  V30 5433 N 485.917 7.00483 0.476302 0
M  V30 5434 H 490.757 2.79095 -1.0445 0
M  V30 5435 H 488.294 1.37351 -0.526595 0
M  V30 5436 H 490.252 4.02208 1.10835 0
M  V30 5437 H 488.882 2.91517 1.38629 0
M  V30 5438 H 487.934 3.69487 -0.904621 0
M  V30 5439 H 489.246 4.89239 -0.97193 0
M  V30 5440 H 488.4 5.96135 1.12728 0
M  V30 5441 H 487.139 4.70562 1.28153 0
M  V30 5442 H 486.144 5.42232 -0.909069 0
M  V30 5443 H 487.369 6.70947 -1.04912 0
M  V30 5444 H 485.315 6.45296 1.18019 0
M  V30 5445 H 485.232 7.55847 -0.152008 0
M  V30 5446 H 486.5 7.7273 1.02512 0
M  V30 5447 N 490.729 0.570148 1.46925 0
M  V30 5448 C 491.692 -0.159933 2.28641 0
M  V30 5449 C 492.692 -0.830638 1.37685 0
M  V30 5450 O 493.882 -0.684516 1.60187 0
M  V30 5451 C 491.014 -1.2354 3.17727 0
M  V30 5452 H 492.207 0.558035 2.94662 0
M  V30 5453 H 489.76 0.327603 1.52828 0
M  V30 5454 H 490.495 -1.98535 2.56426 0
M  V30 5455 H 490.28 -0.759125 3.84681 0
M  V30 5456 H 491.77 -1.74782 3.79264 0
M  V30 5457 N 492.207 -1.54576 0.307264 0
M  V30 5458 C 493.456 -1.99442 -0.300976 0
M  V30 5459 C 493.769 -1.19928 -1.5452 0
M  V30 5460 O 494.975 -1.55092 -2.22842 0
M  V30 5461 C 493.431 -3.55084 -0.586809 0
M  V30 5462 C 493.039 -4.43413 0.639438 0
M  V30 5463 C 494.783 -4.0846 -1.1559 0
M  V30 5464 C 492.69 -5.90499 0.326411 0
M  V30 5465 H 491.62 -0.744986 -0.116238 0
M  V30 5466 H 494.271 -1.787 0.416947 0
M  V30 5467 H 492.653 -3.71749 -1.36449 0
M  V30 5468 H 493.827 -4.38522 1.41545 0
M  V30 5469 H 492.142 -4.00842 1.1276 0
M  V30 5470 H 494.739 -5.15926 -1.40445 0
M  V30 5471 H 495.082 -3.59443 -2.10015 0
M  V30 5472 H 495.615 -3.95362 -0.439778 0
M  V30 5473 H 492.354 -6.43676 1.23939 0
M  V30 5474 H 491.874 -5.98382 -0.412212 0
M  V30 5475 H 493.553 -6.46962 -0.0697393 0
M  V30 5476 N 493.685 -0.035106 -1.57561 0
M  V30 5477 C 494.635 0.954034 -2.0708 0
M  V30 5478 C 495.619 1.2818 -0.972558 0
M  V30 5479 O 496.811 1.26691 -1.23606 0
M  V30 5480 C 493.94 2.23442 -2.60631 0
M  V30 5481 C 493.026 1.93475 -3.77396 0
M  V30 5482 N 493.417 1.33802 -4.87781 0
M  V30 5483 C 491.715 2.23434 -3.85996 0
M  V30 5484 C 492.416 1.21103 -5.68954 0
M  V30 5485 N 491.392 1.70855 -5.16052 0
M  V30 5486 H 495.194 0.487731 -2.89825 0
M  V30 5487 H 492.708 0.169759 -1.6151 0
M  V30 5488 H 494.705 2.95183 -2.94402 0
M  V30 5489 H 493.365 2.70693 -1.79319 0
M  V30 5490 H 494.376 1.01227 -5.07911 0
M  V30 5491 H 491.053 2.73317 -3.15601 0
M  V30 5492 H 492.443 0.749105 -6.67711 0
M  V30 5493 N 495.163 1.55791 0.238111 0
M  V30 5494 C 496.44 1.68798 0.98826 0
M  V30 5495 C 496.82 0.577562 2.03045 0
M  V30 5496 O 496.168 -0.41778 2.24648 0
M  V30 5497 C 496.378 3.09454 1.61367 0
M  V30 5498 C 497.726 3.68335 2.11221 0
M  V30 5499 O 498.75 3.1231 1.71292 0
M  V30 5500 O 497.609 4.6657 2.84561 0
M  V30 5501 H 494.703 0.686881 0.460568 0
M  V30 5502 H 497.249 1.68118 0.231202 0
M  V30 5503 H 496.021 3.81726 0.860295 0
M  V30 5504 H 495.644 3.14182 2.4367 0
M  V30 5505 N 496.642 -0.504142 1.49319 0
M  V30 5506 C 497.572 -1.61473 1.68667 0
M  V30 5507 C 498.553 -1.61455 0.535378 0
M  V30 5508 O 499.738 -1.78245 0.770868 0
M  V30 5509 C 496.868 -2.99971 1.75028 0
M  V30 5510 C 495.822 -3.14854 2.89916 0
M  V30 5511 C 495.148 -4.54671 2.81387 0
M  V30 5512 C 496.448 -2.95176 4.30893 0
M  V30 5513 H 498.142 -1.45535 2.61648 0
M  V30 5514 H 495.688 -0.698711 1.25913 0
M  V30 5515 H 497.641 -3.77562 1.8715 0
M  V30 5516 H 496.365 -3.1699 0.786441 0
M  V30 5517 H 495.024 -2.39687 2.77391 0
M  V30 5518 H 494.672 -4.68562 1.82917 0
M  V30 5519 H 494.372 -4.6557 3.58494 0
M  V30 5520 H 495.896 -5.34327 2.95512 0
M  V30 5521 H 497.31 -3.62538 4.44116 0
M  V30 5522 H 495.707 -3.17549 5.09198 0
M  V30 5523 H 496.777 -1.91332 4.45556 0
M  V30 5524 N 498.12 -1.38341 -0.754957 0
M  V30 5525 C 499.053 -1.29837 -1.87663 0
M  V30 5526 C 500.031 -0.175659 -1.61648 0
M  V30 5527 O 501.215 -0.352745 -1.8517 0
M  V30 5528 C 498.342 -1.01141 -3.23246 0
M  V30 5529 C 497.388 -2.15331 -3.6815 0
M  V30 5530 S 498.221 -3.77459 -3.79849 0
M  V30 5531 C 499.377 -3.50948 -5.18253 0
M  V30 5532 H 499.61 -2.24771 -1.9459 0
M  V30 5533 H 497.143 -1.24161 -0.917796 0
M  V30 5534 H 499.101 -0.852687 -4.01546 0
M  V30 5535 H 497.762 -0.0792784 -3.14 0
M  V30 5536 H 496.955 -1.90795 -4.6649 0
M  V30 5537 H 496.557 -2.27304 -2.97 0
M  V30 5538 H 498.849 -3.06977 -6.03963 0
M  V30 5539 H 499.792 -4.48677 -5.47809 0
M  V30 5540 H 500.2 -2.85492 -4.86985 0
M  V30 5541 N 499.598 0.982988 -1.23187 0
M  V30 5542 C 500.531 2.07302 -0.953993 0
M  V30 5543 C 501.509 1.62249 0.106753 0
M  V30 5544 O 502.693 1.88481 -0.0269525 0
M  V30 5545 C 499.82 3.35873 -0.436716 0
M  V30 5546 C 498.866 3.99862 -1.48367 0
M  V30 5547 S 499.699 4.39443 -3.06023 0
M  V30 5548 C 500.855 5.7117 -2.55959 0
M  V30 5549 H 501.088 2.30554 -1.87702 0
M  V30 5550 H 498.621 1.11883 -1.06403 0
M  V30 5551 H 500.579 4.10244 -0.144872 0
M  V30 5552 H 499.24 3.10634 0.465351 0
M  V30 5553 H 498.433 4.92471 -1.07182 0
M  V30 5554 H 498.035 3.31857 -1.72473 0
M  V30 5555 H 500.327 6.47977 -1.97818 0
M  V30 5556 H 501.27 6.17194 -3.47098 0
M  V30 5557 H 501.678 5.29046 -1.96902 0
M  V30 5558 N 501.076 1.04316 1.18135 0
M  V30 5559 C 502.323 0.74802 1.88178 0
M  V30 5560 C 502.651 -0.72441 1.80506 0
M  V30 5561 O 501.906 -1.54463 1.20165 0
M  V30 5562 C 502.205 1.16271 3.37958 0
M  V30 5563 C 501.871 2.63585 3.65833 0
M  V30 5564 C 500.533 3.03829 3.73151 0
M  V30 5565 C 502.885 3.58822 3.78016 0
M  V30 5566 C 500.213 4.38194 3.90132 0
M  V30 5567 C 502.565 4.92909 3.96514 0
M  V30 5568 C 501.229 5.3282 4.02068 0
M  V30 5569 H 500.499 0.27372 0.688592 0
M  V30 5570 H 503.146 1.30863 1.39811 0
M  V30 5571 H 501.451 0.520938 3.88321 0
M  V30 5572 H 503.148 0.911672 3.90499 0
M  V30 5573 H 499.738 2.31414 3.60757 0
M  V30 5574 H 503.922 3.28875 3.71692 0
M  V30 5575 H 499.178 4.68631 3.92677 0
M  V30 5576 H 503.352 5.66606 4.04883 0
M  V30 5577 H 500.979 6.36943 4.14979 0
M  V30 5578 N 502.554 -1.34406 0.822964 0
M  V30 5579 C 503.779 -2.0304 0.423034 0
M  V30 5580 C 504.204 -1.61568 -0.963196 0
M  V30 5581 O 503.562 -0.800339 -1.62678 0
M  V30 5582 C 503.61 -3.56636 0.53321 0
M  V30 5583 O 502.714 -4.09971 -0.446939 0
M  V30 5584 H 502.055 -0.64075 0.174171 0
M  V30 5585 H 504.585 -1.71653 1.11339 0
M  V30 5586 H 504.595 -4.05945 0.408991 0
M  V30 5587 H 503.27 -3.86168 1.54425 0
M  V30 5588 H 501.847 -3.71835 -0.281601 0
M  V30 5589 N 504.032 -0.577932 -1.46621 0
M  V30 5590 C 505.28 -0.061566 -2.02006 0
M  V30 5591 C 505.601 1.30117 -1.4524 0
M  V30 5592 O 504.871 1.85313 -0.63529 0
M  V30 5593 H 503.451 -0.0197692 -0.746738 0
M  V30 5594 H 506.113 -0.752631 -1.79782 0
M  V30 5595 H 505.209 0.0110238 -3.12098 0
M  V30 5596 N 505.51 1.54411 -0.315457 0
M  V30 5597 C 506.921 1.85885 0.174265 0
M  V30 5598 C 507.272 1.23723 1.52273 0
M  V30 5599 O 506.397 0.540246 2.09548 0
M  V30 5600 C 506.992 3.37257 0.322981 0
M  V30 5601 C 505.551 3.68711 0.756922 0
M  V30 5602 C 504.698 2.77013 -0.126195 0
M  V30 5603 H 507.649 1.49374 -0.536007 0
M  V30 5604 H 507.67 3.62539 1.15522 0
M  V30 5605 H 507.182 3.82471 -0.658602 0
M  V30 5606 H 505.283 3.29024 1.74854 0
M  V30 5607 H 505.396 4.75741 0.566291 0
M  V30 5608 H 503.76 2.51588 0.39692 0
M  V30 5609 H 504.543 3.25051 -1.1044 0
M  V30 5610 N 506.988 0.0434614 1.5754 0
M  V30 5611 C 507.92 -0.962586 2.08007 0
M  V30 5612 C 508.933 -1.27972 1.00634 0
M  V30 5613 O 510.122 -1.24186 1.28219 0
M  V30 5614 C 507.222 -2.28621 2.50171 0
M  V30 5615 C 506.395 -2.15214 3.80791 0
M  V30 5616 C 505.454 -3.30633 4.09351 0
M  V30 5617 O 504.48 -3.0688 4.79388 0
M  V30 5618 N 505.682 -4.54873 3.60654 0
M  V30 5619 H 508.447 -0.531891 2.94942 0
M  V30 5620 H 506.008 -0.142965 1.61268 0
M  V30 5621 H 508 -3.04689 2.66359 0
M  V30 5622 H 506.57 -2.63283 1.68525 0
M  V30 5623 H 505.79 -1.23785 3.74261 0
M  V30 5624 H 507.078 -2.03475 4.66343 0
M  V30 5625 H 506.476 -4.77063 3.04019 0
M  V30 5626 H 505.033 -5.2806 3.82094 0
M  V30 5627 N 508.466 -1.55915 -0.229846 0
M  V30 5628 C 509.715 -1.77742 -0.953455 0
M  V30 5629 C 510.028 -0.610524 -1.85828 0
M  V30 5630 O 511.234 -0.712219 -2.61992 0
M  V30 5631 C 509.69 -3.14738 -1.74551 0
M  V30 5632 C 509.298 -4.39126 -0.887242 0
M  V30 5633 C 511.042 -3.45895 -2.46084 0
M  V30 5634 C 508.949 -5.67149 -1.67617 0
M  V30 5635 H 507.879 -0.662648 -0.359741 0
M  V30 5636 H 510.53 -1.82322 -0.207576 0
M  V30 5637 H 508.912 -3.04311 -2.53399 0
M  V30 5638 H 510.086 -4.60588 -0.139892 0
M  V30 5639 H 508.401 -4.15427 -0.284443 0
M  V30 5640 H 510.998 -4.38767 -3.05594 0
M  V30 5641 H 511.341 -2.68007 -3.18556 0
M  V30 5642 H 511.874 -3.57614 -1.74233 0
M  V30 5643 H 508.613 -6.47906 -0.994881 0
M  V30 5644 H 508.133 -5.49763 -2.39836 0
M  V30 5645 H 509.812 -6.07025 -2.23898 0
M  V30 5646 N 509.944 0.496216 -1.49584 0
M  V30 5647 C 510.874 1.60576 -1.69521 0
M  V30 5648 C 511.855 1.61169 -0.543933 0
M  V30 5649 O 513.04 1.77834 -0.78031 0
M  V30 5650 C 510.17 2.99038 -1.76616 0
M  V30 5651 C 509.124 3.13312 -2.91581 0
M  V30 5652 C 508.45 4.53172 -2.83794 0
M  V30 5653 C 509.75 2.92886 -4.32452 0
M  V30 5654 H 511.444 1.44146 -2.62416 0
M  V30 5655 H 508.99 0.692024 -1.26282 0
M  V30 5656 H 510.943 3.76564 -1.8915 0
M  V30 5657 H 509.667 3.16568 -0.80324 0
M  V30 5658 H 508.326 2.38213 -2.78658 0
M  V30 5659 H 507.974 4.67585 -1.854 0
M  V30 5660 H 507.674 4.63662 -3.60958 0
M  V30 5661 H 509.198 5.32752 -2.98342 0
M  V30 5662 H 510.612 3.60178 -4.46032 0
M  V30 5663 H 509.009 3.14844 -5.10875 0
M  V30 5664 H 510.079 1.88966 -4.46565 0
M  V30 5665 N 511.423 1.38739 0.74761 0
M  V30 5666 C 512.37 1.36449 1.86146 0
M  V30 5667 C 513.34 0.226098 1.64554 0
M  V30 5668 O 514.525 0.41926 1.86137 0
M  V30 5669 C 511.665 1.2013 3.23516 0
M  V30 5670 C 510.778 2.43407 3.56899 0
M  V30 5671 C 509.913 2.19773 4.83605 0
M  V30 5672 C 508.952 3.3879 5.09792 0
M  V30 5673 N 508.089 3.14553 6.27695 0
M  V30 5674 H 512.929 2.3167 1.87438 0
M  V30 5675 H 510.466 1.15094 0.916063 0
M  V30 5676 H 512.424 1.08683 4.02795 0
M  V30 5677 H 511.054 0.285453 3.21535 0
M  V30 5678 H 510.106 2.65504 2.72418 0
M  V30 5679 H 511.418 3.32094 3.72176 0
M  V30 5680 H 510.572 2.05496 5.70838 0
M  V30 5681 H 509.311 1.28461 4.70478 0
M  V30 5682 H 508.316 3.53579 4.21025 0
M  V30 5683 H 509.541 4.30986 5.24812 0
M  V30 5684 H 507.487 2.25893 6.1588 0
M  V30 5685 H 507.404 3.96791 6.435 0
M  V30 5686 H 508.672 3.03943 7.17801 0
M  V30 5687 N 512.901 -0.976442 1.23707 0
M  V30 5688 C 513.831 -2.08749 1.04624 0
M  V30 5689 C 514.812 -1.70057 -0.0380956 0
M  V30 5690 O 515.997 -1.93782 0.127308 0
M  V30 5691 C 513.127 -3.41335 0.640902 0
M  V30 5692 C 512.081 -3.93947 1.67302 0
M  V30 5693 C 511.407 -5.22774 1.12301 0
M  V30 5694 C 512.707 -4.22769 3.06697 0
M  V30 5695 H 514.401 -2.24972 1.97555 0
M  V30 5696 H 511.947 -1.08108 0.951247 0
M  V30 5697 H 513.9 -4.18489 0.494434 0
M  V30 5698 H 512.624 -3.24988 -0.324099 0
M  V30 5699 H 511.283 -3.18941 1.80755 0
M  V30 5700 H 510.931 -5.0278 0.148877 0
M  V30 5701 H 510.631 -5.58942 1.81267 0
M  V30 5702 H 512.155 -6.02546 0.988479 0
M  V30 5703 H 513.569 -4.90659 2.96524 0
M  V30 5704 H 511.966 -4.70147 3.72937 0
M  V30 5705 H 513.036 -3.29885 3.55392 0
M  V30 5706 N 514.379 -1.04941 -1.1758 0
M  V30 5707 C 515.309 -0.669172 -2.23706 0
M  V30 5708 C 516.29 0.331835 -1.66832 0
M  V30 5709 O 517.475 0.209988 -1.93061 0
M  V30 5710 C 514.605 -0.0404889 -3.47276 0
M  V30 5711 C 513.559 -0.965983 -4.16957 0
M  V30 5712 C 512.885 -0.201312 -5.34321 0
M  V30 5713 C 514.185 -2.28902 -4.69469 0
M  V30 5714 H 515.879 -1.55639 -2.55767 0
M  V30 5715 H 513.425 -0.749793 -1.22939 0
M  V30 5716 H 515.378 0.237298 -4.20731 0
M  V30 5717 H 514.102 0.881658 -3.14475 0
M  V30 5718 H 512.761 -1.22829 -3.45411 0
M  V30 5719 H 512.409 0.723519 -4.97769 0
M  V30 5720 H 512.109 -0.817968 -5.81879 0
M  V30 5721 H 513.633 0.0692499 -6.10561 0
M  V30 5722 H 515.047 -2.07132 -5.34574 0
M  V30 5723 H 513.444 -2.85942 -5.27596 0
M  V30 5724 H 514.514 -2.92937 -3.86414 0
M  V30 5725 N 515.857 1.33968 -0.830081 0
M  V30 5726 C 517.106 1.97323 -0.417928 0
M  V30 5727 C 517.419 1.6652 1.02618 0
M  V30 5728 O 518.625 2.2342 1.54259 0
M  V30 5729 C 517.081 3.53099 -0.696359 0
M  V30 5730 C 516.689 3.92788 -2.15457 0
M  V30 5731 C 518.433 4.23049 -0.350724 0
M  V30 5732 C 516.34 5.41506 -2.37751 0
M  V30 5733 H 515.27 0.738409 -0.152541 0
M  V30 5734 H 517.921 1.52711 -1.01744 0
M  V30 5735 H 516.303 3.95991 -0.0265904 0
M  V30 5736 H 517.477 3.6098 -2.86408 0
M  V30 5737 H 515.792 3.35795 -2.46232 0
M  V30 5738 H 518.389 5.32403 -0.495036 0
M  V30 5739 H 518.732 4.10279 0.705476 0
M  V30 5740 H 519.265 3.85657 -0.975362 0
M  V30 5741 H 516.004 5.5927 -3.41903 0
M  V30 5742 H 515.524 5.74804 -1.7135 0
M  V30 5743 H 517.203 6.0828 -2.20465 0
M  V30 5744 N 517.335 0.585699 1.46312 0
M  V30 5745 C 518.282 -0.145835 2.30339 0
M  V30 5746 C 519.252 -0.881215 1.40797 0
M  V30 5747 O 520.437 -0.871293 1.69744 0
M  V30 5748 C 517.577 -1.15161 3.25318 0
M  V30 5749 C 516.69 -0.419367 4.2996 0
M  V30 5750 C 515.825 -1.41293 5.12064 0
M  V30 5751 C 514.864 -0.667261 6.08452 0
M  V30 5752 N 514.001 -1.60903 6.83414 0
M  V30 5753 H 518.841 0.576755 2.92365 0
M  V30 5754 H 516.378 0.296237 1.44086 0
M  V30 5755 H 518.336 -1.74763 3.78832 0
M  V30 5756 H 516.966 -1.84188 2.65094 0
M  V30 5757 H 516.018 0.291751 3.7928 0
M  V30 5758 H 517.33 0.163433 4.98532 0
M  V30 5759 H 516.484 -2.08167 5.6987 0
M  V30 5760 H 515.223 -2.02966 4.43459 0
M  V30 5761 H 514.228 0.0152356 5.49798 0
M  V30 5762 H 515.453 -0.0558817 6.79077 0
M  V30 5763 H 513.399 -2.21381 6.17516 0
M  V30 5764 H 513.316 -1.07911 7.48259 0
M  V30 5765 H 514.584 -2.26802 7.45775 0
M  V30 5766 N 518.813 -1.54241 0.323641 0
M  V30 5767 C 520.06 -2.0057 -0.27891 0
M  V30 5768 C 520.388 -1.21181 -1.52136 0
M  V30 5769 O 519.643 -0.282043 -1.93657 0
M  V30 5770 C 519.942 -3.5129 -0.658031 0
M  V30 5771 C 519.608 -4.48281 0.485252 0
M  V30 5772 C 518.27 -4.74519 0.799055 0
M  V30 5773 C 520.622 -5.05909 1.25322 0
M  V30 5774 C 517.95 -5.55643 1.88354 0
M  V30 5775 C 520.302 -5.88215 2.32779 0
M  V30 5776 C 518.966 -6.12755 2.64741 0
M  V30 5777 H 518.236 -0.733938 -0.10206 0
M  V30 5778 H 520.883 -1.862 0.447435 0
M  V30 5779 H 519.188 -3.63388 -1.4648 0
M  V30 5780 H 520.885 -3.84578 -1.1358 0
M  V30 5781 H 517.475 -4.27979 0.230593 0
M  V30 5782 H 521.659 -4.8562 1.02404 0
M  V30 5783 H 516.915 -5.72888 2.13564 0
M  V30 5784 H 521.089 -6.31888 2.92729 0
M  V30 5785 H 518.716 -6.75404 3.48904 0
M  V30 5786 N 520.291 -0.0518155 -1.57515 0
M  V30 5787 C 521.537 0.622745 -1.93002 0
M  V30 5788 C 521.87 1.70456 -0.930499 0
M  V30 5789 O 521.145 1.94452 0.0434086 0
M  V30 5790 C 521.428 1.21824 -3.38867 0
M  V30 5791 C 521.281 0.144434 -4.49568 0
M  V30 5792 C 522.6 2.12968 -3.8514 0
M  V30 5793 H 519.719 0.22491 -0.701844 0
M  V30 5794 H 522.361 -0.113711 -1.89659 0
M  V30 5795 H 520.511 1.8459 -3.41846 0
M  V30 5796 H 522.183 -0.48753 -4.58717 0
M  V30 5797 H 520.426 -0.527424 -4.30582 0
M  V30 5798 H 521.097 0.601127 -5.48717 0
M  V30 5799 H 523.573 1.60163 -3.8404 0
M  V30 5800 H 522.449 2.51578 -4.87852 0
M  V30 5801 H 522.71 3.03004 -3.21934 0
M  V30 5802 N 521.769 1.56035 0.221574 0
M  V30 5803 C 522.717 1.93269 1.29421 0
M  V30 5804 C 523.711 0.814727 1.48521 0
M  V30 5805 O 524.917 0.999559 1.49696 0
M  V30 5806 H 521.292 0.614188 0.43391 0
M  V30 5807 H 523.263 2.82773 0.952987 0
M  V30 5808 C 522.012 2.26573 2.63742 0
M  V30 5809 H 521.335 3.12112 2.49853 0
M  V30 5810 H 522.775 2.5651 3.37607 0
M  V30 5811 C 521.234 1.09086 3.1875 0
M  V30 5812 O 521.764 0.351985 4.00155 0
M  V30 5813 N 519.97 0.874693 2.77124 0
M  V30 5814 H 519.517 1.47726 2.11033 0
M  V30 5815 H 519.475 0.0903349 3.1427 0
M  V30 5816 N 523.247 -0.488276 1.49845 0
M  V30 5817 C 524.524 -1.24959 1.50481 0
M  V30 5818 C 524.904 -2.09735 0.239698 0
M  V30 5819 O 524.252 -2.14865 -0.777524 0
M  V30 5820 C 524.462 -2.0954 2.79095 0
M  V30 5821 C 525.81 -2.68305 3.29086 0
M  V30 5822 O 526.834 -2.19797 2.80299 0
M  V30 5823 O 525.693 -3.56643 4.14087 0
M  V30 5824 H 522.787 -0.566133 0.602845 0
M  V30 5825 H 525.333 -0.501504 1.6212 0
M  V30 5826 H 524.105 -1.46958 3.62656 0
M  V30 5827 H 523.728 -2.91517 2.70377 0
M  V30 5828 N 524.725 -1.39134 -0.740242 0
M  V30 5829 C 525.953 -1.39334 -1.5295 0
M  V30 5830 C 526.368 0.0135008 -1.88795 0
M  V30 5831 O 525.725 0.983524 -1.5373 0
M  V30 5832 C 525.776 -2.2614 -2.82034 0
M  V30 5833 O 525.497 -3.61345 -2.47712 0
M  V30 5834 C 526.998 -2.34666 -3.76094 0
M  V30 5835 H 524.218 -0.476103 -0.472828 0
M  V30 5836 H 526.762 -1.82883 -0.9151 0
M  V30 5837 H 524.917 -1.86018 -3.39818 0
M  V30 5838 H 525.331 -4.07194 -3.30595 0
M  V30 5839 H 526.805 -2.99663 -4.63579 0
M  V30 5840 H 527.282 -1.36426 -4.17474 0
M  V30 5841 H 527.888 -2.75236 -3.2423 0
M  V30 5842 N 526.204 0.969867 -1.24223 0
M  V30 5843 C 527.151 2.06407 -1.0327 0
M  V30 5844 C 528.121 1.66014 0.0533 0
M  V30 5845 O 529.306 1.90533 -0.100896 0
M  V30 5846 C 526.446 3.3909 -0.641262 0
M  V30 5847 C 525.559 3.9269 -1.80051 0
M  V30 5848 C 524.694 5.13631 -1.35486 0
M  V30 5849 C 523.733 5.59423 -2.48419 0
M  V30 5850 N 522.87 6.71586 -2.04737 0
M  V30 5851 H 527.71 2.23663 -1.96923 0
M  V30 5852 H 525.247 1.09624 -0.980862 0
M  V30 5853 H 527.205 4.15323 -0.395351 0
M  V30 5854 H 525.835 3.21765 0.258269 0
M  V30 5855 H 524.887 3.13116 -2.16014 0
M  V30 5856 H 526.199 4.22636 -2.64916 0
M  V30 5857 H 525.353 5.97231 -1.0677 0
M  V30 5858 H 524.092 4.85364 -0.476722 0
M  V30 5859 H 523.097 4.74398 -2.77897 0
M  V30 5860 H 524.322 5.89705 -3.36786 0
M  V30 5861 H 522.268 6.45058 -1.19318 0
M  V30 5862 H 522.185 7.0097 -2.83156 0
M  V30 5863 H 523.453 7.58633 -1.79154 0
M  V30 5864 N 527.682 1.05563 1.17022 0
M  V30 5865 C 528.645 0.664098 2.19368 0
M  V30 5866 C 529.645 -0.286358 1.5823 0
M  V30 5867 O 530.835 -0.069728 1.7406 0
M  V30 5868 C 527.967 -0.0239932 3.40892 0
M  V30 5869 H 529.16 1.57 2.55521 0
M  V30 5870 H 526.713 0.849964 1.31169 0
M  V30 5871 H 527.448 -0.942988 3.10287 0
M  V30 5872 H 527.233 0.659351 3.86516 0
M  V30 5873 H 528.723 -0.283909 4.16634 0
M  V30 5874 N 529.16 -1.33526 0.837174 0
M  V30 5875 C 530.571 -1.80182 0.489017 0
M  V30 5876 C 530.922 -1.69285 -0.991826 0
M  V30 5877 O 530.047 -1.24113 -1.77271 0
M  V30 5878 C 530.642 -3.27149 0.880866 0
M  V30 5879 C 529.201 -3.71828 0.584872 0
M  V30 5880 C 528.348 -2.54974 1.09011 0
M  V30 5881 H 531.299 -1.21071 1.02603 0
M  V30 5882 H 531.32 -3.80024 0.190239 0
M  V30 5883 H 530.832 -3.35048 1.95869 0
M  V30 5884 H 528.933 -3.69457 -0.48295 0
M  V30 5885 H 529.046 -4.65366 1.13892 0
M  V30 5886 H 527.41 -2.4952 0.511047 0
M  V30 5887 H 528.193 -2.65637 2.17467 0
M  V30 5888 N 530.638 -0.59345 -1.46 0
M  V30 5889 C 531.915 -0.0157933 -1.95594 0
M  V30 5890 C 532.295 1.44807 -1.53604 0
M  V30 5891 O 531.643 2.14342 -0.791824 0
M  V30 5892 C 531.853 -0.199081 -3.48432 0
M  V30 5893 C 533.201 -0.0724943 -4.24538 0
M  V30 5894 O 534.225 -0.128469 -3.55968 0
M  V30 5895 O 533.084 0.0542426 -5.46473 0
M  V30 5896 H 530.178 0.043749 -0.825842 0
M  V30 5897 H 532.724 -0.662522 -1.56233 0
M  V30 5898 H 531.496 -1.21631 -3.71916 0
M  V30 5899 H 531.119 0.483576 -3.94648 0
M  V30 5900 N 532.116 1.54067 -0.331816 0
M  V30 5901 C 533.362 2.01713 0.261395 0
M  V30 5902 C 533.717 1.21566 1.49129 0
M  V30 5903 O 533.01 0.291867 1.89364 0
M  V30 5904 C 533.204 3.51634 0.639392 0
M  V30 5905 C 533.033 4.46295 -0.552321 0
M  V30 5906 C 531.803 4.94185 -1.05399 0
M  V30 5907 C 534.001 4.94677 -1.40711 0
M  V30 5908 N 531.983 5.7277 -2.20925 0
M  V30 5909 C 533.354 5.71267 -2.40943 0
M  V30 5910 C 535.409 4.76805 -1.43392 0
M  V30 5911 C 534.112 6.31889 -3.4367 0
M  V30 5912 C 536.138 5.38268 -2.44994 0
M  V30 5913 C 535.5 6.14716 -3.43952 0
M  V30 5914 H 531.599 0.77975 0.0592729 0
M  V30 5915 H 534.183 1.88974 -0.468726 0
M  V30 5916 H 532.354 3.64603 1.33863 0
M  V30 5917 H 534.086 3.86038 1.21478 0
M  V30 5918 H 530.841 4.69472 -0.623952 0
M  V30 5919 H 531.265 6.16737 -2.79222 0
M  V30 5920 H 535.907 4.17255 -0.682489 0
M  V30 5921 H 533.625 6.90554 -4.19715 0
M  V30 5922 H 537.211 5.26352 -2.4788 0
M  V30 5923 H 536.091 6.6143 -4.21283 0
M  V30 5924 N 533.594 0.0601682 1.57485 0
M  V30 5925 C 534.526 -0.94047 2.09016 0
M  V30 5926 C 535.539 -1.26897 1.01985 0
M  V30 5927 O 536.728 -1.22819 1.29529 0
M  V30 5928 C 533.828 -2.25955 2.52582 0
M  V30 5929 C 533.001 -2.11163 3.83052 0
M  V30 5930 C 532.06 -3.26273 4.12835 0
M  V30 5931 O 531.086 -3.01779 4.82616 0
M  V30 5932 N 532.288 -4.51022 3.65458 0
M  V30 5933 H 535.053 -0.500578 2.9549 0
M  V30 5934 H 532.614 -0.125852 1.6141 0
M  V30 5935 H 534.606 -3.01846 2.69575 0
M  V30 5936 H 533.176 -2.61481 1.71308 0
M  V30 5937 H 532.396 -1.19808 3.75552 0
M  V30 5938 H 533.684 -1.98517 4.68475 0
M  V30 5939 H 533.082 -4.73811 3.09062 0
M  V30 5940 H 531.639 -5.23978 3.87673 0
M  V30 5941 N 535.072 -1.5615 -0.213296 0
M  V30 5942 C 536.32 -1.79191 -0.934612 0
M  V30 5943 C 536.641 -0.630112 -1.84539 0
M  V30 5944 O 535.911 0.35257 -1.92701 0
M  V30 5945 H 534.491 -0.660937 -0.348097 0
M  V30 5946 H 537.153 -1.93618 -0.22317 0
M  V30 5947 H 536.249 -2.71656 -1.53654 0
M  V30 5948 N 536.55 0.480323 -1.50102 0
M  V30 5949 C 537.78 1.25475 -1.64133 0
M  V30 5950 C 538.188 1.8647 -0.320272 0
M  V30 5951 O 537.531 1.69561 0.70673 0
M  V30 5952 C 537.593 2.40996 -2.6676 0
M  V30 5953 C 537.257 2.00711 -4.10565 0
M  V30 5954 C 538.254 1.53492 -4.96725 0
M  V30 5955 C 535.939 2.09714 -4.56427 0
M  V30 5956 C 537.933 1.15806 -6.26792 0
M  V30 5957 C 535.62 1.7164 -5.86501 0
M  V30 5958 C 536.618 1.24763 -6.71508 0
M  V30 5959 O 536.306 0.872122 -7.99155 0
M  V30 5960 H 536.038 0.385983 -0.554971 0
M  V30 5961 H 538.592 0.580848 -1.97016 0
M  V30 5962 H 536.822 3.11528 -2.291 0
M  V30 5963 H 538.511 3.02981 -2.70106 0
M  V30 5964 H 539.277 1.45966 -4.62514 0
M  V30 5965 H 535.156 2.4515 -3.90413 0
M  V30 5966 H 538.7 0.791465 -6.93096 0
M  V30 5967 H 534.597 1.78822 -6.20236 0
M  V30 5968 H 535.365 1.00178 -8.12346 0
M  V30 5969 N 538.028 1.39524 0.732853 0
M  V30 5970 C 539.275 1.36865 1.49246 0
M  V30 5971 C 539.603 -0.0347118 1.94469 0
M  V30 5972 O 538.858 -1.01596 1.67262 0
M  V30 5973 C 539.157 2.28916 2.74468 0
M  V30 5974 C 538.823 3.76506 2.481 0
M  V30 5975 C 537.485 4.16721 2.40619 0
M  V30 5976 C 539.837 4.69846 2.25598 0
M  V30 5977 C 537.165 5.48334 2.08679 0
M  V30 5978 C 539.517 6.01739 1.95174 0
M  V30 5979 C 538.181 6.41015 1.86163 0
M  V30 5980 H 537.451 0.500824 0.546129 0
M  V30 5981 H 540.098 1.72047 0.840958 0
M  V30 5982 H 538.403 1.86859 3.4437 0
M  V30 5983 H 540.1 2.2415 3.32502 0
M  V30 5984 H 536.69 3.44635 2.54803 0
M  V30 5985 H 540.874 4.39608 2.30344 0
M  V30 5986 H 536.13 5.77685 2.00226 0
M  V30 5987 H 540.304 6.73591 1.76771 0
M  V30 5988 H 537.931 7.42917 1.61179 0
M  V30 5989 N 539.506 -0.963266 1.24736 0
M  V30 5990 C 540.736 -1.73913 1.11524 0
M  V30 5991 C 541.144 -1.86218 -0.334612 0
M  V30 5992 O 540.487 -1.3531 -1.24245 0
M  V30 5993 C 540.549 -3.17501 1.68622 0
M  V30 5994 C 540.213 -3.28655 3.17546 0
M  V30 5995 C 541.21 -3.13637 4.14642 0
M  V30 5996 C 538.895 -3.52753 3.5759 0
M  V30 5997 C 540.889 -3.2255 5.49764 0
M  V30 5998 C 538.576 -3.61303 4.92852 0
M  V30 5999 C 539.574 -3.46214 5.88748 0
M  V30 6000 O 539.262 -3.5443 7.2155 0
M  V30 6001 H 538.994 -0.552057 0.390139 0
M  V30 6002 H 541.548 -1.2177 1.65412 0
M  V30 6003 H 539.778 -3.70969 1.09172 0
M  V30 6004 H 541.467 -3.76914 1.50635 0
M  V30 6005 H 542.233 -2.94899 3.85045 0
M  V30 6006 H 538.112 -3.63561 2.83451 0
M  V30 6007 H 541.656 -3.1069 6.24594 0
M  V30 6008 H 537.553 -3.79556 5.22118 0
M  V30 6009 H 538.321 -3.71116 7.29531 0
M  V30 6010 N 540.985 -1.06182 -1.16461 0
M  V30 6011 C 542.213 -0.798583 -1.90867 0
M  V30 6012 C 542.628 0.646921 -1.77371 0
M  V30 6013 O 541.985 1.44279 -1.11758 0
M  V30 6014 C 542.036 -1.18258 -3.4161 0
M  V30 6015 O 541.757 -2.57135 -3.54701 0
M  V30 6016 C 543.258 -0.946917 -4.33069 0
M  V30 6017 H 540.478 -0.289603 -0.605286 0
M  V30 6018 H 543.022 -1.41515 -1.47627 0
M  V30 6019 H 541.177 -0.610562 -3.82558 0
M  V30 6020 H 541.591 -2.72477 -4.4817 0
M  V30 6021 H 543.065 -1.26523 -5.37304 0
M  V30 6022 H 543.542 0.117406 -4.39043 0
M  V30 6023 H 544.148 -1.50326 -3.97847 0
M  V30 6024 N 542.463 1.3308 -0.844243 0
M  V30 6025 C 543.709 1.97898 -0.443206 0
M  V30 6026 C 544.042 1.66699 0.99625 0
M  V30 6027 O 543.317 0.949704 1.69738 0
M  V30 6028 C 543.6 3.53801 -0.670606 0
M  V30 6029 C 543.453 3.94667 -2.15772 0
M  V30 6030 C 544.772 4.39936 -0.120226 0
M  V30 6031 H 541.891 0.718861 -0.162504 0
M  V30 6032 H 544.533 1.57633 -1.06075 0
M  V30 6033 H 542.683 3.88229 -0.14496 0
M  V30 6034 H 544.355 3.70469 -2.74865 0
M  V30 6035 H 542.598 3.44203 -2.6402 0
M  V30 6036 H 543.269 5.03275 -2.26757 0
M  V30 6037 H 545.745 4.12183 -0.5696 0
M  V30 6038 H 544.621 5.4803 -0.308984 0
M  V30 6039 H 544.882 4.31184 0.976347 0
M  V30 6040 N 543.941 0.601185 1.45683 0
M  V30 6041 C 544.871 -0.108824 2.33246 0
M  V30 6042 C 545.852 -0.865223 1.46451 0
M  V30 6043 O 547.037 -0.83704 1.75235 0
M  V30 6044 C 544.167 -1.11101 3.2905 0
M  V30 6045 C 543.121 -0.468244 4.25431 0
M  V30 6046 C 542.447 -1.57822 5.10878 0
M  V30 6047 C 543.747 0.606469 5.18767 0
M  V30 6048 H 545.441 0.622306 2.92861 0
M  V30 6049 H 542.987 0.300714 1.40825 0
M  V30 6050 H 544.94 -1.61622 3.89174 0
M  V30 6051 H 543.664 -1.87265 2.67581 0
M  V30 6052 H 542.323 0.0160484 3.66596 0
M  V30 6053 H 541.971 -2.32998 4.45781 0
M  V30 6054 H 541.671 -1.15369 5.76163 0
M  V30 6055 H 543.195 -2.08583 5.73869 0
M  V30 6056 H 544.609 0.185589 5.73 0
M  V30 6057 H 543.006 0.952381 5.92494 0
M  V30 6058 H 544.076 1.48559 4.61582 0
M  V30 6059 N 545.419 -1.53889 0.339982 0
M  V30 6060 C 546.349 -2.27843 -0.510856 0
M  V30 6061 C 547.33 -1.29267 -1.10563 0
M  V30 6062 O 548.515 -1.58104 -1.12768 0
M  V30 6063 C 545.645 -3.04857 -1.66372 0
M  V30 6064 C 544.599 -4.10907 -1.19746 0
M  V30 6065 C 543.925 -4.75855 -2.43857 0
M  V30 6066 C 545.225 -5.21435 -0.300501 0
M  V30 6067 H 546.919 -2.99212 0.106067 0
M  V30 6068 H 544.465 -1.43904 0.0524533 0
M  V30 6069 H 546.418 -3.5533 -2.26537 0
M  V30 6070 H 545.142 -2.31133 -2.30749 0
M  V30 6071 H 543.801 -3.61342 -0.618654 0
M  V30 6072 H 543.449 -3.9873 -3.06633 0
M  V30 6073 H 543.149 -5.47502 -2.13343 0
M  V30 6074 H 544.673 -5.2911 -3.04754 0
M  V30 6075 H 546.087 -5.67565 -0.80889 0
M  V30 6076 H 544.484 -6.00036 -0.0874076 0
M  V30 6077 H 545.554 -4.80328 0.664321 0
M  V30 6078 N 546.897 -0.0685191 -1.57451 0
M  V30 6079 C 548.144 0.601348 -1.93365 0
M  V30 6080 C 548.472 1.69816 -0.948294 0
M  V30 6081 O 547.727 1.95666 0.0366199 0
M  V30 6082 C 548.026 1.22051 -3.35914 0
M  V30 6083 C 547.692 0.250165 -4.50205 0
M  V30 6084 C 546.354 -0.0167954 -4.81197 0
M  V30 6085 C 548.706 -0.413867 -5.19554 0
M  V30 6086 C 546.034 -0.95493 -5.78876 0
M  V30 6087 C 548.386 -1.3403 -6.18238 0
M  V30 6088 C 547.05 -1.61576 -6.47649 0
M  V30 6089 H 546.32 0.220049 -0.707573 0
M  V30 6090 H 548.967 -0.138697 -1.90997 0
M  V30 6091 H 547.272 2.03622 -3.34732 0
M  V30 6092 H 548.969 1.74605 -3.6099 0
M  V30 6093 H 545.559 0.468421 -4.26033 0
M  V30 6094 H 549.743 -0.220733 -4.95809 0
M  V30 6095 H 544.999 -1.17563 -5.99991 0
M  V30 6096 H 549.173 -1.86081 -6.71079 0
M  V30 6097 H 546.8 -2.34431 -7.2315 0
M  V30 6098 N 548.375 1.56261 0.205012 0
M  V30 6099 C 549.621 1.80306 0.9283 0
M  V30 6100 C 549.954 0.640932 1.83319 0
M  V30 6101 O 549.229 -0.359032 1.91158 0
M  V30 6102 C 549.512 3.14547 1.75306 0
M  V30 6103 C 549.365 4.41236 0.873562 0
M  V30 6104 C 550.684 3.45382 2.72762 0
M  V30 6105 H 547.803 0.655929 0.336044 0
M  V30 6106 H 550.445 1.88984 0.196211 0
M  V30 6107 H 548.595 3.0728 2.37721 0
M  V30 6108 H 550.267 4.60539 0.264887 0
M  V30 6109 H 548.51 4.33427 0.179773 0
M  V30 6110 H 549.181 5.31639 1.48541 0
M  V30 6111 H 551.657 3.52884 2.20481 0
M  V30 6112 H 550.533 4.40449 3.2756 0
M  V30 6113 H 550.794 2.68377 3.51321 0
M  V30 6114 N 549.853 -0.472356 1.50355 0
M  V30 6115 C 551.081 -1.24784 1.65035 0
M  V30 6116 C 551.496 -1.85837 0.333176 0
M  V30 6117 O 550.853 -1.69168 -0.68472 0
M  V30 6118 C 550.904 -2.35747 2.74054 0
M  V30 6119 O 550.625 -1.77197 4.00665 0
M  V30 6120 C 552.126 -3.26645 2.99696 0
M  V30 6121 H 549.346 -0.377432 0.554785 0
M  V30 6122 H 551.89 -0.563962 1.9657 0
M  V30 6123 H 550.045 -2.99912 2.45217 0
M  V30 6124 H 550.459 -2.5026 4.60945 0
M  V30 6125 H 551.933 -4.00718 3.79644 0
M  V30 6126 H 552.41 -3.8535 2.10718 0
M  V30 6127 H 553.016 -2.68218 3.3006 0
M  V30 6128 N 551.331 -1.39911 -0.725443 0
M  V30 6129 C 552.294 -1.39156 -1.82121 0
M  V30 6130 C 553.294 -0.287018 -1.58218 0
M  V30 6131 O 554.484 -0.545421 -1.65441 0
M  V30 6132 C 551.616 -1.1736 -3.20062 0
M  V30 6133 H 552.809 -2.36672 -1.84191 0
M  V30 6134 H 550.362 -1.25615 -0.930079 0
M  V30 6135 H 551.097 -0.205648 -3.23647 0
M  V30 6136 H 550.882 -1.97358 -3.3881 0
M  V30 6137 H 552.372 -1.19596 -4.00108 0
M  V30 6138 N 552.809 0.956637 -1.25245 0
M  V30 6139 C 554.049 1.71585 -1.11076 0
M  V30 6140 C 554.413 1.88916 0.34277 0
M  V30 6141 O 555.614 2.61875 0.606227 0
M  V30 6142 C 553.885 3.06267 -1.84215 0
M  V30 6143 S 555.444 3.97469 -1.85914 0
M  V30 6144 H 552.262 0.589803 -0.397055 0
M  V30 6145 H 554.864 1.14114 -1.58739 0
M  V30 6146 H 553.568 2.91322 -2.89067 0
M  V30 6147 H 553.099 3.688 -1.36931 0
M  V30 6148 H 555.114 4.87316 -0.93474 0
M  V30 6149 N 554.287 1.06798 1.15896 0
M  V30 6150 C 555.217 0.704677 2.22613 0
M  V30 6151 C 556.198 -0.305252 1.67339 0
M  V30 6152 O 557.383 -0.179247 1.93371 0
M  V30 6153 C 554.513 0.0957325 3.47168 0
M  V30 6154 C 553.467 1.0322 4.15367 0
M  V30 6155 C 552.793 0.286293 5.33933 0
M  V30 6156 C 554.093 2.36341 4.65768 0
M  V30 6157 H 555.787 1.59688 2.53259 0
M  V30 6158 H 553.333 0.769257 1.21731 0
M  V30 6159 H 555.286 -0.170333 4.21056 0
M  V30 6160 H 554.01 -0.831516 3.15838 0
M  V30 6161 H 552.669 1.28309 3.43413 0
M  V30 6162 H 552.317 -0.644237 4.98857 0
M  V30 6163 H 552.017 0.910436 5.80504 0
M  V30 6164 H 553.541 0.0278938 6.10594 0
M  V30 6165 H 554.955 2.1561 5.31211 0
M  V30 6166 H 553.352 2.94299 5.2298 0
M  V30 6167 H 554.422 2.99047 3.81705 0
M  V30 6168 N 555.766 -1.3263 0.851289 0
M  V30 6169 C 556.698 -2.27824 0.250757 0
M  V30 6170 C 557.711 -1.52285 -0.575598 0
M  V30 6171 O 558.9 -1.73946 -0.400638 0
M  V30 6172 C 556 -3.3232 -0.664571 0
M  V30 6173 C 555.173 -4.37221 0.125187 0
M  V30 6174 C 554.232 -5.21314 -0.715385 0
M  V30 6175 O 553.258 -5.69002 -0.150111 0
M  V30 6176 N 554.46 -5.43823 -2.03069 0
M  V30 6177 H 557.225 -2.79997 1.06873 0
M  V30 6178 H 554.786 -1.45455 0.710943 0
M  V30 6179 H 556.778 -3.85486 -1.23216 0
M  V30 6180 H 555.348 -2.80331 -1.38323 0
M  V30 6181 H 554.568 -3.84384 0.874199 0
M  V30 6182 H 555.856 -5.04399 0.667774 0
M  V30 6183 H 555.254 -5.06803 -2.51332 0
M  V30 6184 H 553.811 -5.99998 -2.54648 0
M  V30 6185 N 557.244 -0.608902 -1.45362 0
M  V30 6186 C 558.472 -0.111013 -2.06602 0
M  V30 6187 C 558.887 1.20516 -1.45332 0
M  V30 6188 O 558.244 1.73437 -0.567978 0
M  V30 6189 C 558.295 0.033688 -3.61484 0
M  V30 6190 O 558.016 -1.23041 -4.20467 0
M  V30 6191 C 559.517 0.562882 -4.39712 0
M  V30 6192 H 556.737 -0.0694453 -0.667397 0
M  V30 6193 H 559.281 -0.837008 -1.86586 0
M  V30 6194 H 557.436 0.710016 -3.80838 0
M  V30 6195 H 557.85 -1.06094 -5.13658 0
M  V30 6196 H 559.324 0.613213 -5.48583 0
M  V30 6197 H 559.801 1.58543 -4.09586 0
M  V30 6198 H 560.407 -0.0794454 -4.25226 0
M  V30 6199 N 558.722 1.53707 -0.348139 0
M  V30 6200 C 559.652 2.28111 0.498766 0
M  V30 6201 C 560.633 1.29851 1.09876 0
M  V30 6202 O 561.818 1.587 1.11928 0
M  V30 6203 C 558.948 3.05735 1.64753 0
M  V30 6204 C 557.902 4.11537 1.17565 0
M  V30 6205 C 557.228 4.77142 2.4133 0
M  V30 6206 C 558.528 5.21587 0.272844 0
M  V30 6207 H 560.222 2.99152 -0.121934 0
M  V30 6208 H 557.768 1.43875 -0.0600842 0
M  V30 6209 H 559.721 3.56526 2.24649 0
M  V30 6210 H 558.445 2.32354 2.2952 0
M  V30 6211 H 557.104 3.61665 0.599483 0
M  V30 6212 H 556.752 4.0035 3.04514 0
M  V30 6213 H 556.452 5.48626 2.10436 0
M  V30 6214 H 557.976 5.30719 3.01943 0
M  V30 6215 H 559.39 5.67986 0.778779 0
M  V30 6216 H 557.787 6.00074 0.0555849 0
M  V30 6217 H 558.857 4.79969 -0.689785 0
M  V30 6218 N 560.2 0.0768682 1.57412 0
M  V30 6219 C 561.446 -0.591961 1.93968 0
M  V30 6220 C 561.779 -1.68954 0.9575 0
M  V30 6221 O 561.054 -1.94496 -0.0124675 0
M  V30 6222 C 561.337 -1.16418 3.40762 0
M  V30 6223 C 561.19 -0.0728933 4.49741 0
M  V30 6224 C 562.509 -2.06814 3.88479 0
M  V30 6225 H 559.628 -0.213716 0.705333 0
M  V30 6226 H 562.27 0.14387 1.89455 0
M  V30 6227 H 560.42 -1.79128 3.4474 0
M  V30 6228 H 562.092 0.560446 4.57883 0
M  V30 6229 H 560.335 0.595859 4.29688 0
M  V30 6230 H 561.006 -0.513755 5.49604 0
M  V30 6231 H 563.482 -1.54033 3.8654 0
M  V30 6232 H 562.358 -2.43785 4.91793 0
M  V30 6233 H 562.619 -2.97844 3.26713 0
M  V30 6234 N 561.678 -1.56367 -0.196722 0
M  V30 6235 C 562.608 -1.97442 -1.24655 0
M  V30 6236 C 563.589 -0.846147 -1.47561 0
M  V30 6237 O 564.774 -1.11035 -1.59326 0
M  V30 6238 C 561.904 -2.31253 -2.59112 0
M  V30 6239 C 560.858 -3.46804 -2.50821 0
M  V30 6240 C 560.184 -3.66286 -3.89536 0
M  V30 6241 C 561.484 -4.8104 -2.03465 0
M  V30 6242 H 563.178 -2.85388 -0.905216 0
M  V30 6243 H 560.724 -1.37304 -0.434002 0
M  V30 6244 H 562.677 -2.58583 -3.32736 0
M  V30 6245 H 561.401 -1.40188 -2.94983 0
M  V30 6246 H 560.06 -3.19563 -1.79653 0
M  V30 6247 H 559.708 -2.72555 -4.22756 0
M  V30 6248 H 559.408 -4.4402 -3.84864 0
M  V30 6249 H 560.932 -3.9599 -4.64784 0
M  V30 6250 H 562.346 -5.07411 -2.66846 0
M  V30 6251 H 560.743 -5.62232 -2.09798 0
M  V30 6252 H 561.813 -4.74732 -0.98781 0
M  V30 6253 N 563.156 0.464375 -1.50603 0
M  V30 6254 C 564.106 1.55929 -1.66343 0
M  V30 6255 C 565.09 1.52338 -0.517887 0
M  V30 6256 O 566.282 1.59248 -0.772601 0
M  V30 6257 C 563.411 2.94327 -1.7671 0
M  V30 6258 C 562.497 3.02777 -2.96962 0
M  V30 6259 N 562.888 2.81026 -4.20545 0
M  V30 6260 C 561.186 3.33919 -2.95659 0
M  V30 6261 C 561.887 2.94618 -5.01573 0
M  V30 6262 N 560.863 3.25112 -4.35664 0
M  V30 6263 H 564.665 1.37822 -2.59581 0
M  V30 6264 H 562.179 0.671227 -1.47879 0
M  V30 6265 H 564.176 3.73063 -1.86091 0
M  V30 6266 H 562.836 3.13476 -0.846353 0
M  V30 6267 H 563.847 2.56477 -4.49933 0
M  V30 6268 H 560.524 3.59013 -2.13111 0
M  V30 6269 H 561.914 2.81984 -6.09865 0
M  V30 6270 N 564.634 1.40294 0.718013 0
M  V30 6271 C 565.566 1.36281 1.84283 0
M  V30 6272 C 566.579 0.268621 1.60569 0
M  V30 6273 O 567.768 0.528798 1.70487 0
M  V30 6274 C 564.868 1.09741 3.2064 0
M  V30 6275 C 564.041 2.30767 3.71571 0
M  V30 6276 C 563.1 2.00424 4.86535 0
M  V30 6277 O 562.126 2.73268 4.99313 0
M  V30 6278 N 563.328 0.980724 5.72156 0
M  V30 6279 H 566.093 2.3322 1.88225 0
M  V30 6280 H 563.654 1.34616 0.899453 0
M  V30 6281 H 565.646 0.874322 3.95143 0
M  V30 6282 H 564.216 0.214771 3.11861 0
M  V30 6283 H 563.436 2.68921 2.88228 0
M  V30 6284 H 564.724 3.11455 4.02335 0
M  V30 6285 H 564.122 0.377375 5.6444 0
M  V30 6286 H 562.679 0.817538 6.46653 0
M  V30 6287 N 566.112 -0.949982 1.2575 0
M  V30 6288 C 567.342 -1.72721 1.13363 0
M  V30 6289 C 567.75 -1.86562 -0.314842 0
M  V30 6290 O 567.093 -1.36621 -1.22803 0
M  V30 6291 C 567.155 -3.15695 1.7198 0
M  V30 6292 C 566.819 -3.25268 3.21014 0
M  V30 6293 C 567.816 -3.09222 4.17945 0
M  V30 6294 C 565.501 -3.4894 3.61312 0
M  V30 6295 C 567.495 -3.16701 5.53154 0
M  V30 6296 C 565.182 -3.56055 4.96657 0
M  V30 6297 C 566.18 -3.3995 5.92387 0
M  V30 6298 O 565.868 -3.46757 7.25269 0
M  V30 6299 H 565.6 -0.547888 0.395973 0
M  V30 6300 H 568.154 -1.20009 1.66694 0
M  V30 6301 H 566.384 -3.69791 1.13101 0
M  V30 6302 H 568.073 -3.75295 1.54624 0
M  V30 6303 H 568.839 -2.90798 3.88151 0
M  V30 6304 H 564.718 -3.60534 2.87291 0
M  V30 6305 H 568.262 -3.04048 6.27854 0
M  V30 6306 H 564.159 -3.73997 5.26115 0
M  V30 6307 H 564.927 -3.63358 7.33426 0
M  V30 6308 N 567.59 -1.07411 -1.15328 0
M  V30 6309 C 568.837 -0.797649 -1.86128 0
M  V30 6310 C 569.165 0.676298 -1.82364 0
M  V30 6311 O 568.42 1.51223 -1.24218 0
M  V30 6312 C 568.719 -1.25191 -3.34757 0
M  V30 6313 C 568.385 -2.73191 -3.58716 0
M  V30 6314 C 567.047 -3.13616 -3.64964 0
M  V30 6315 C 569.399 -3.68718 -3.6837 0
M  V30 6316 C 566.727 -4.48383 -3.78377 0
M  V30 6317 C 569.079 -5.03248 -3.83306 0
M  V30 6318 C 567.743 -5.43293 -3.878 0
M  V30 6319 H 567.013 -0.29188 -0.681092 0
M  V30 6320 H 569.66 -1.34524 -1.36292 0
M  V30 6321 H 567.965 -0.623712 -3.86804 0
M  V30 6322 H 569.662 -1.01489 -3.87945 0
M  V30 6323 H 566.252 -2.40898 -3.54494 0
M  V30 6324 H 570.436 -3.38614 -3.62842 0
M  V30 6325 H 565.692 -4.78877 -3.80114 0
M  V30 6326 H 569.866 -5.77142 -3.89718 0
M  V30 6327 H 567.493 -6.47721 -3.97946 0
M  V30 6328 N 569.068 1.32177 -0.85831 0
M  V30 6329 C 570.018 2.26307 -0.277307 0
M  V30 6330 C 571.002 1.50123 0.578946 0
M  V30 6331 O 572.194 1.71754 0.427731 0
M  V30 6332 C 569.323 3.39181 0.530232 0
M  V30 6333 C 568.409 4.22746 -0.338613 0
M  V30 6334 N 568.8 4.85265 -1.4266 0
M  V30 6335 C 567.098 4.45813 -0.129 0
M  V30 6336 C 567.799 5.47634 -1.96142 0
M  V30 6337 N 566.775 5.28794 -1.26007 0
M  V30 6338 H 570.577 2.72173 -1.10902 0
M  V30 6339 H 568.091 1.46308 -0.704816 0
M  V30 6340 H 570.088 4.05628 0.962904 0
M  V30 6341 H 568.748 2.9486 1.35969 0
M  V30 6342 H 569.759 4.85259 -1.80953 0
M  V30 6343 H 566.436 4.12163 0.665451 0
M  V30 6344 H 567.826 6.0735 -2.8736 0
M  V30 6345 N 570.547 0.616602 1.45037 0
M  V30 6346 C 571.796 0.112861 2.01384 0
M  V30 6347 C 572.109 -1.26758 1.48969 0
M  V30 6348 O 573.315 -1.86454 1.9735 0
M  V30 6349 C 571.771 0.151057 3.59583 0
M  V30 6350 C 571.379 1.53191 4.20995 0
M  V30 6351 C 573.123 -0.296974 4.2346 0
M  V30 6352 C 571.03 1.526 5.71373 0
M  V30 6353 H 569.96 0.0384254 0.75302 0
M  V30 6354 H 572.611 0.773262 1.66412 0
M  V30 6355 H 570.993 -0.57617 3.91786 0
M  V30 6356 H 572.167 2.28156 4.00352 0
M  V30 6357 H 570.482 1.92279 3.69348 0
M  V30 6358 H 573.079 -0.320712 5.33737 0
M  V30 6359 H 573.422 -1.32145 3.9477 0
M  V30 6360 H 573.955 0.377279 3.96007 0
M  V30 6361 H 570.694 2.52837 6.04776 0
M  V30 6362 H 570.214 0.819064 5.94181 0
M  V30 6363 H 571.893 1.25357 6.3474 0
M  V30 6364 N 572.025 -1.5352 0.356285 0
M  V30 6365 C 573.265 -2.03027 -0.23649 0
M  V30 6366 C 573.629 -1.23813 -1.46746 0
M  V30 6367 O 574.83 -1.63281 -2.13525 0
M  V30 6368 C 573.101 -3.53442 -0.530415 0
M  V30 6369 S 574.66 -4.24836 -1.09819 0
M  V30 6370 H 571.478 -0.707591 -0.0695378 0
M  V30 6371 H 574.08 -1.89077 0.496999 0
M  V30 6372 H 572.784 -4.087 0.373114 0
M  V30 6373 H 572.315 -3.71536 -1.29323 0
M  V30 6374 H 574.33 -4.35228 -2.38309 0
M  V30 6375 N 573.503 -0.0852151 -1.57369 0
M  V30 6376 C 574.75 0.580806 -1.93992 0
M  V30 6377 C 575.078 1.68801 -0.966252 0
M  V30 6378 O 574.333 1.95694 0.0158649 0
M  V30 6379 C 574.632 1.18482 -3.3719 0
M  V30 6380 C 574.298 0.2024 -4.50446 0
M  V30 6381 C 572.96 -0.0678318 -4.81152 0
M  V30 6382 C 575.312 -0.46895 -5.19086 0
M  V30 6383 C 572.64 -1.01627 -5.77831 0
M  V30 6384 C 574.992 -1.4058 -6.16782 0
M  V30 6385 C 573.656 -1.68436 -6.45899 0
M  V30 6386 H 572.926 0.212532 -0.709867 0
M  V30 6387 H 575.573 -0.158947 -1.90839 0
M  V30 6388 H 573.878 2.0006 -3.36873 0
M  V30 6389 H 575.575 1.70767 -3.62822 0
M  V30 6390 H 572.165 0.423208 -4.26505 0
M  V30 6391 H 576.349 -0.273307 -4.95547 0
M  V30 6392 H 571.605 -1.2392 -5.9871 0
M  V30 6393 H 575.779 -1.93188 -6.69068 0
M  V30 6394 H 573.406 -2.42088 -7.20623 0
M  V30 6395 N 574.981 1.5647 0.188427 0
M  V30 6396 C 576.227 1.81281 0.909124 0
M  V30 6397 C 576.56 0.66034 1.82628 0
M  V30 6398 O 575.835 -0.338737 1.91528 0
M  V30 6399 C 576.118 3.16388 1.7196 0
M  V30 6400 C 575.971 4.42137 0.826714 0
M  V30 6401 C 577.29 3.48256 2.69083 0
M  V30 6402 H 574.409 0.659457 0.329068 0
M  V30 6403 H 577.051 1.89182 0.176156 0
M  V30 6404 H 575.201 3.09784 2.34448 0
M  V30 6405 H 576.873 4.60794 0.216025 0
M  V30 6406 H 575.116 4.33594 0.133792 0
M  V30 6407 H 575.787 5.33184 1.42893 0
M  V30 6408 H 578.263 3.55203 2.16726 0
M  V30 6409 H 577.139 4.43899 3.2287 0
M  V30 6410 H 577.4 2.72088 3.48455 0
M  V30 6411 N 576.459 -0.456382 1.50847 0
M  V30 6412 C 577.684 -1.2349 1.66628 0
M  V30 6413 C 578.109 -1.84715 0.355254 0
M  V30 6414 O 577.467 -1.67961 -0.682559 0
M  V30 6415 C 577.515 -2.30865 2.77009 0
M  V30 6416 O 576.619 -3.35882 2.39285 0
M  V30 6417 H 575.96 -0.36266 0.556214 0
M  V30 6418 H 578.49 -0.541374 1.97308 0
M  V30 6419 H 578.5 -2.75949 3.00526 0
M  V30 6420 H 577.175 -1.85677 3.72152 0
M  V30 6421 H 575.752 -2.96406 2.26269 0
M  V30 6422 N 577.937 -1.40673 -0.710563 0
M  V30 6423 C 579.185 -1.38947 -1.46759 0
M  V30 6424 C 579.506 0.00572879 -1.94999 0
M  V30 6425 O 578.776 0.961358 -1.70689 0
M  V30 6426 H 577.356 -0.5114 -0.544499 0
M  V30 6427 H 580.018 -1.75773 -0.842012 0
M  V30 6428 H 579.114 -2.06745 -2.33801 0
M  V30 6429 N 579.415 0.9433 -1.26252 0
M  V30 6430 C 580.348 2.04162 -1.01946 0
M  V30 6431 C 581.326 1.62507 0.0550808 0
M  V30 6432 O 582.51 1.883 -0.0869025 0
M  V30 6433 C 579.637 3.34313 -0.54335 0
M  V30 6434 C 578.683 3.94939 -1.61013 0
M  V30 6435 S 579.516 4.29484 -3.19849 0
M  V30 6436 C 580.672 5.62738 -2.74001 0
M  V30 6437 H 580.905 2.24466 -1.94942 0
M  V30 6438 H 578.438 1.08441 -1.09909 0
M  V30 6439 H 580.396 4.09576 -0.275315 0
M  V30 6440 H 579.057 3.11957 0.36629 0
M  V30 6441 H 578.25 4.88812 -1.22795 0
M  V30 6442 H 577.852 3.26202 -1.82943 0
M  V30 6443 H 580.144 6.41356 -2.18333 0
M  V30 6444 H 581.087 6.05839 -3.66558 0
M  V30 6445 H 581.495 5.22514 -2.13634 0
M  V30 6446 N 580.893 1.08022 1.14757 0
M  V30 6447 C 582.309 0.807072 1.3769 0
M  V30 6448 C 582.509 -0.585504 1.92806 0
M  V30 6449 O 581.565 -1.34301 2.13821 0
M  V30 6450 C 582.878 1.88651 2.34161 0
M  V30 6451 C 584.426 1.91206 2.47809 0
M  V30 6452 C 584.901 2.98253 3.47576 0
M  V30 6453 N 586.392 2.974 3.55117 0
M  V30 6454 C 587.127 3.76872 4.32152 0
M  V30 6455 N 586.623 4.66212 5.12463 0
M  V30 6456 N 588.416 3.6519 4.27309 0
M  V30 6457 H 580.567 1.97824 0.77326 0
M  V30 6458 H 582.83 0.85826 0.402608 0
M  V30 6459 H 582.536 2.88749 2.00791 0
M  V30 6460 H 582.41 1.75244 3.3402 0
M  V30 6461 H 584.797 0.917564 2.80472 0
M  V30 6462 H 584.878 2.08691 1.47925 0
M  V30 6463 H 584.522 3.97907 3.15646 0
M  V30 6464 H 584.452 2.78014 4.47231 0
M  V30 6465 H 586.943 2.32643 2.97801 0
M  V30 6466 H 587.256 5.23468 5.68508 0
M  V30 6467 H 585.601 4.70257 5.11745 0
M  V30 6468 H 588.792 2.94765 3.63636 0
M  V30 6469 H 588.965 4.27366 4.87095 0
M  V30 6470 N 582.371 -1.3172 0.865308 0
M  V30 6471 C 583.62 -1.96145 0.470098 0
M  V30 6472 C 583.933 -1.69182 -0.981674 0
M  V30 6473 O 585.139 -2.27431 -1.48281 0
M  V30 6474 C 583.595 -3.51129 0.789732 0
M  V30 6475 C 583.203 -3.86938 2.25795 0
M  V30 6476 C 584.947 -4.2197 0.462765 0
M  V30 6477 C 582.854 -5.35012 2.52024 0
M  V30 6478 H 581.784 -0.734105 0.172065 0
M  V30 6479 H 584.435 -1.49959 1.05757 0
M  V30 6480 H 582.817 -3.95781 0.131571 0
M  V30 6481 H 583.991 -3.5326 2.95879 0
M  V30 6482 H 582.306 -3.29149 2.55049 0
M  V30 6483 H 584.903 -5.30904 0.636019 0
M  V30 6484 H 585.246 -4.12005 -0.59645 0
M  V30 6485 H 585.779 -3.82936 1.07727 0
M  V30 6486 H 582.518 -5.50008 3.56611 0
M  V30 6487 H 582.038 -5.70058 1.8653 0
M  V30 6488 H 583.717 -6.0222 2.36515 0
M  V30 6489 N 583.85 -0.624285 -1.44708 0
M  V30 6490 C 584.797 0.0847135 -2.30644 0
M  V30 6491 C 585.767 0.843575 -1.43084 0
M  V30 6492 O 586.952 0.825982 -1.71995 0
M  V30 6493 C 584.091 1.06495 -3.28257 0
M  V30 6494 C 583.205 0.305224 -4.3092 0
M  V30 6495 C 582.34 1.27667 -5.1563 0
M  V30 6496 C 581.379 0.505706 -6.10007 0
M  V30 6497 N 580.516 1.42727 -6.8744 0
M  V30 6498 H 585.356 -0.654068 -2.90733 0
M  V30 6499 H 582.893 -0.334334 -1.4325 0
M  V30 6500 H 584.851 1.64658 -3.83332 0
M  V30 6501 H 583.481 1.77094 -2.69884 0
M  V30 6502 H 582.533 -0.392207 -3.78373 0
M  V30 6503 H 583.845 -0.295553 -4.97924 0
M  V30 6504 H 582.999 1.92984 -5.75189 0
M  V30 6505 H 581.738 1.91137 -4.48685 0
M  V30 6506 H 580.743 -0.160999 -5.49564 0
M  V30 6507 H 581.968 -0.124183 -6.78986 0
M  V30 6508 H 579.913 2.04931 -6.23169 0
M  V30 6509 H 579.831 0.880345 -7.50857 0
M  V30 6510 H 581.099 2.0695 -7.51526 0
M  V30 6511 N 585.328 1.53329 -0.364422 0
M  V30 6512 C 586.556 2.05657 0.226424 0
M  V30 6513 C 586.971 1.23801 1.42544 0
M  V30 6514 O 586.328 0.27839 1.80364 0
M  V30 6515 C 586.379 3.56125 0.621056 0
M  V30 6516 O 586.1 4.34879 -0.530304 0
M  V30 6517 C 587.601 4.24706 1.27041 0
M  V30 6518 H 584.821 0.669806 0.0400056 0
M  V30 6519 H 587.365 1.97714 -0.522456 0
M  V30 6520 H 585.52 3.64223 1.31985 0
M  V30 6521 H 585.934 5.24073 -0.211546 0
M  V30 6522 H 587.408 5.3131 1.49711 0
M  V30 6523 H 587.885 3.78354 2.23036 0
M  V30 6524 H 588.491 4.20858 0.613079 0
M  V30 6525 N 586.806 0.0935595 1.57322 0
M  V30 6526 C 587.769 -0.851426 2.12799 0
M  V30 6527 C 588.769 -1.21187 1.0569 0
M  V30 6528 O 589.959 -1.14156 1.31583 0
M  V30 6529 C 587.091 -2.14779 2.64731 0
M  V30 6530 H 588.284 -0.369733 2.97612 0
M  V30 6531 H 585.837 -0.155417 1.55525 0
M  V30 6532 H 586.572 -2.67437 1.83434 0
M  V30 6533 H 586.357 -1.89907 3.43042 0
M  V30 6534 H 587.847 -2.82383 3.07651 0
M  V30 6535 N 588.284 -1.56567 -0.180126 0
M  V30 6536 C 589.53 -1.81761 -0.899497 0
M  V30 6537 C 589.863 -0.670015 -1.82276 0
M  V30 6538 O 589.138 0.328575 -1.91705 0
M  V30 6539 C 589.421 -3.17296 -1.7028 0
M  V30 6540 C 589.274 -4.4257 -0.803255 0
M  V30 6541 C 590.593 -3.49678 -2.67233 0
M  V30 6542 H 587.712 -0.661192 -0.325567 0
M  V30 6543 H 590.354 -1.89272 -0.16612 0
M  V30 6544 H 588.504 -3.11023 -2.32802 0
M  V30 6545 H 590.176 -4.60902 -0.191585 0
M  V30 6546 H 588.419 -4.33658 -0.110796 0
M  V30 6547 H 589.09 -5.33935 -1.40064 0
M  V30 6548 H 591.566 -3.56347 -2.14839 0
M  V30 6549 H 590.442 -4.45605 -3.20511 0
M  V30 6550 H 590.703 -2.73932 -3.47007 0
M  V30 6551 N 589.762 0.448376 -1.51087 0
M  V30 6552 C 591.011 1.19561 -1.62444 0
M  V30 6553 C 591.324 1.92602 -0.341151 0
M  V30 6554 O 592.53 2.69439 -0.333936 0
M  V30 6555 C 590.986 2.17373 -2.8684 0
M  V30 6556 C 590.594 1.5003 -4.22131 0
M  V30 6557 C 592.338 2.92597 -3.0755 0
M  V30 6558 C 590.245 2.46262 -5.37689 0
M  V30 6559 H 589.175 0.449975 -0.605011 0
M  V30 6560 H 591.826 0.463735 -1.77544 0
M  V30 6561 H 590.208 2.93948 -2.65349 0
M  V30 6562 H 591.382 0.790886 -4.53962 0
M  V30 6563 H 589.697 0.870011 -4.0721 0
M  V30 6564 H 592.294 3.64663 -3.91056 0
M  V30 6565 H 592.637 3.53306 -2.20183 0
M  V30 6566 H 593.17 2.23131 -3.29329 0
M  V30 6567 H 589.909 1.90258 -6.27281 0
M  V30 6568 H 589.429 3.15289 -5.10248 0
M  V30 6569 H 591.108 3.07623 -5.6919 0
M  V30 6570 N 591.24 1.41047 0.703093 0
M  V30 6571 C 592.488 1.39723 1.4602 0
M  V30 6572 C 592.809 0.00461257 1.94999 0
M  V30 6573 O 592.079 -0.952292 1.71196 0
M  V30 6574 H 590.659 0.514281 0.541779 0
M  V30 6575 H 593.321 1.76217 0.832678 0
M  V30 6576 H 592.417 2.07982 2.32701 0
M  V30 6577 N 592.718 -0.936591 1.26751 0
M  V30 6578 C 593.681 -2.01752 1.08761 0
M  V30 6579 C 594.681 -1.60763 0.0344435 0
M  V30 6580 O 595.871 -1.71963 0.278258 0
M  V30 6581 C 593.003 -3.34543 0.655271 0
M  V30 6582 H 594.196 -2.19143 2.04735 0
M  V30 6583 H 591.749 -1.11618 1.09413 0
M  V30 6584 H 592.484 -3.22851 -0.30626 0
M  V30 6585 H 592.269 -3.65647 1.41578 0
M  V30 6586 H 593.759 -4.13944 0.551378 0
M  V30 6587 N 594.196 -1.08629 -1.14182 0
M  V30 6588 C 595.442 -0.818556 -1.85546 0
M  V30 6589 C 595.775 0.654076 -1.82854 0
M  V30 6590 O 595.05 1.48099 -1.26083 0
M  V30 6591 C 595.333 -1.34397 -3.3408 0
M  V30 6592 C 595.186 -2.8821 -3.45333 0
M  V30 6593 C 596.505 -0.971069 -4.29253 0
M  V30 6594 H 593.624 -0.298821 -0.673702 0
M  V30 6595 H 596.266 -1.34629 -1.34071 0
M  V30 6596 H 594.416 -0.895064 -3.78049 0
M  V30 6597 H 596.088 -3.41488 -3.10134 0
M  V30 6598 H 594.331 -3.25756 -2.86471 0
M  V30 6599 H 595.002 -3.20047 -4.49749 0
M  V30 6600 H 597.478 -1.35809 -3.93313 0
M  V30 6601 H 596.354 -1.36586 -5.31635 0
M  V30 6602 H 596.615 0.121659 -4.41933 0
M  V30 6603 N 595.674 1.31259 -0.872281 0
M  V30 6604 C 596.904 2.00504 -0.498183 0
M  V30 6605 C 597.312 1.65632 0.914479 0
M  V30 6606 O 596.655 0.882849 1.61095 0
M  V30 6607 C 596.717 3.5482 -0.578194 0
M  V30 6608 C 596.381 4.13172 -1.95289 0
M  V30 6609 C 597.378 4.30107 -2.92069 0
M  V30 6610 C 595.063 4.48846 -2.25483 0
M  V30 6611 C 597.057 4.81908 -4.17185 0
M  V30 6612 C 594.744 5.00349 -3.50847 0
M  V30 6613 C 595.742 5.16831 -4.46514 0
M  V30 6614 O 595.43 5.67228 -5.69656 0
M  V30 6615 H 595.162 0.648055 -0.192354 0
M  V30 6616 H 597.716 1.6841 -1.17589 0
M  V30 6617 H 595.946 3.86383 0.156438 0
M  V30 6618 H 597.635 4.05318 -0.217192 0
M  V30 6619 H 598.401 4.02862 -2.7005 0
M  V30 6620 H 594.28 4.35292 -1.51795 0
M  V30 6621 H 597.824 4.94688 -4.91863 0
M  V30 6622 H 593.721 5.27028 -3.72708 0
M  V30 6623 H 594.489 5.85592 -5.7186 0
M  V30 6624 N 597.152 0.631951 1.44375 0
M  V30 6625 C 598.568 0.297642 1.568 0
M  V30 6626 C 598.768 -1.19916 1.61934 0
M  V30 6627 O 597.824 -1.98324 1.56281 0
M  V30 6628 C 599.137 0.990286 2.83926 0
M  V30 6629 C 600.685 0.968507 2.97639 0
M  V30 6630 C 601.16 1.64163 4.27568 0
M  V30 6631 N 602.651 1.60826 4.34384 0
M  V30 6632 C 603.386 2.09802 5.33639 0
M  V30 6633 N 602.882 2.66973 6.39294 0
M  V30 6634 N 604.675 2.00426 5.25153 0
M  V30 6635 H 596.826 1.60353 1.39286 0
M  V30 6636 H 599.089 0.673142 0.667521 0
M  V30 6637 H 598.795 2.04519 2.8612 0
M  V30 6638 H 598.669 0.528563 3.73478 0
M  V30 6639 H 601.056 -0.0779247 2.94997 0
M  V30 6640 H 601.137 1.46873 2.09433 0
M  V30 6641 H 600.781 2.68752 4.3097 0
M  V30 6642 H 600.711 1.11624 5.14634 0
M  V30 6643 H 603.202 1.19087 3.58646 0
M  V30 6644 H 603.515 3.02074 7.11316 0
M  V30 6645 H 601.86 2.71024 6.39977 0
M  V30 6646 H 605.051 1.55483 4.41523 0
M  V30 6647 H 605.224 2.38906 6.02352 0
M  V30 6648 N 598.631 -1.53133 0.372548 0
M  V30 6649 C 599.578 -2.25951 -0.470631 0
M  V30 6650 C 600.548 -1.26895 -1.07176 0
M  V30 6651 O 601.733 -1.55691 -1.10294 0
M  V30 6652 C 598.873 -3.05726 -1.6008 0
M  V30 6653 C 597.986 -4.19684 -1.02416 0
M  V30 6654 C 597.121 -4.86888 -2.124 0
M  V30 6655 C 596.16 -5.92866 -1.52238 0
M  V30 6656 N 595.297 -6.53732 -2.56084 0
M  V30 6657 H 600.137 -2.97587 0.156816 0
M  V30 6658 H 597.674 -1.4683 0.0891571 0
M  V30 6659 H 599.632 -3.50258 -2.26661 0
M  V30 6660 H 598.262 -2.36331 -2.1988 0
M  V30 6661 H 597.314 -3.79588 -0.248426 0
M  V30 6662 H 598.626 -4.95821 -0.544366 0
M  V30 6663 H 597.78 -5.34638 -2.86787 0
M  V30 6664 H 596.519 -4.10239 -2.63734 0
M  V30 6665 H 595.524 -5.4447 -0.763685 0
M  V30 6666 H 596.749 -6.71439 -1.0172 0
M  V30 6667 H 594.695 -5.79932 -3.06618 0
M  V30 6668 H 594.612 -7.25429 -2.12811 0
M  V30 6669 H 595.88 -7.0613 -3.30152 0
M  V30 6670 N 600.109 -0.101901 -1.5727 0
M  V30 6671 C 601.072 0.840129 -2.13247 0
M  V30 6672 C 602.072 1.20625 -1.06331 0
M  V30 6673 O 603.262 1.13456 -1.32186 0
M  V30 6674 C 600.394 2.13372 -2.65867 0
M  V30 6675 H 601.587 0.353945 -2.97804 0
M  V30 6676 H 599.14 0.147167 -1.55606 0
M  V30 6677 H 599.875 2.66461 -1.84849 0
M  V30 6678 H 599.66 1.88085 -3.44044 0
M  V30 6679 H 601.15 2.80748 -3.09145 0
M  V30 6680 N 601.587 1.56661 0.17182 0
M  V30 6681 C 602.517 1.99401 1.21498 0
M  V30 6682 C 603.498 0.869516 1.46197 0
M  V30 6683 O 604.683 1.13556 1.57539 0
M  V30 6684 C 601.813 2.35346 2.55401 0
M  V30 6685 C 600.767 3.5075 2.45272 0
M  V30 6686 C 600.093 3.72437 3.8366 0
M  V30 6687 C 601.393 4.84216 1.95787 0
M  V30 6688 H 603.087 2.86792 0.859699 0
M  V30 6689 H 600.633 1.37977 0.412103 0
M  V30 6690 H 602.586 2.63843 3.2858 0
M  V30 6691 H 601.31 1.44864 2.92715 0
M  V30 6692 H 599.969 3.2238 1.74547 0
M  V30 6693 H 599.617 2.79246 4.18367 0
M  V30 6694 H 599.317 4.50087 3.77751 0
M  V30 6695 H 600.841 4.03334 4.58426 0
M  V30 6696 H 602.255 5.11592 2.5874 0
M  V30 6697 H 600.652 5.65498 2.00827 0
M  V30 6698 H 601.722 4.76243 0.912159 0
M  V30 6699 N 603.065 -0.440357 1.51323 0
M  V30 6700 C 604.311 -1.19181 1.64085 0
M  V30 6701 C 604.644 -1.90936 0.354575 0
M  V30 6702 O 603.919 -1.8347 -0.645675 0
M  V30 6703 C 604.202 -2.2112 2.84215 0
M  V30 6704 C 604.055 -1.53468 4.22809 0
M  V30 6705 C 605.374 -3.22133 2.99864 0
M  V30 6706 H 602.493 -0.431924 0.597169 0
M  V30 6707 H 605.135 -0.481443 1.83799 0
M  V30 6708 H 603.285 -2.81703 2.67537 0
M  V30 6709 H 604.957 -0.962455 4.51148 0
M  V30 6710 H 603.2 -0.837086 4.25647 0
M  V30 6711 H 603.871 -2.27694 5.02852 0
M  V30 6712 H 606.347 -2.71601 3.15233 0
M  V30 6713 H 605.223 -3.90756 3.85488 0
M  V30 6714 H 605.484 -3.88061 2.11804 0
M  V30 6715 N 604.543 -1.41418 -0.695603 0
M  V30 6716 C 605.792 -1.40073 -1.4513 0
M  V30 6717 C 606.105 -0.0130439 -1.95596 0
M  V30 6718 O 607.311 0.123032 -2.71221 0
M  V30 6719 C 605.767 -2.46286 -2.62433 0
M  V30 6720 C 605.375 -3.90962 -2.18753 0
M  V30 6721 C 607.119 -2.54077 -3.40066 0
M  V30 6722 C 605.026 -4.88728 -3.33015 0
M  V30 6723 H 603.956 -0.520903 -0.545138 0
M  V30 6724 H 606.607 -1.67242 -0.75515 0
M  V30 6725 H 604.989 -2.12248 -3.34315 0
M  V30 6726 H 606.163 -4.34248 -1.54161 0
M  V30 6727 H 604.478 -3.86831 -1.54114 0
M  V30 6728 H 607.075 -3.24303 -4.25125 0
M  V30 6729 H 607.418 -1.5776 -3.8525 0
M  V30 6730 H 607.951 -2.87206 -2.75241 0
M  V30 6731 H 604.69 -5.86449 -2.92844 0
M  V30 6732 H 604.21 -4.50091 -3.96457 0
M  V30 6733 H 605.889 -5.09483 -3.98793 0
M  V30 6734 N 606.021 0.929856 -1.27246 0
M  V30 6735 C 607.249 1.71144 -1.16265 0
M  V30 6736 C 607.664 1.867 0.280786 0
M  V30 6737 O 607.021 1.38249 1.19136 0
M  V30 6738 C 607.072 3.11222 -1.83911 0
M  V30 6739 O 606.793 2.96398 -3.22614 0
M  V30 6740 C 608.294 4.05541 -1.79028 0
M  V30 6741 H 605.514 0.535499 -0.404328 0
M  V30 6742 H 608.058 1.16492 -1.68077 0
M  V30 6743 H 606.213 3.6274 -1.36009 0
M  V30 6744 H 606.627 3.8494 -3.56261 0
M  V30 6745 H 608.101 5.01351 -2.30978 0
M  V30 6746 H 608.578 4.32589 -0.759168 0
M  V30 6747 H 609.184 3.59947 -2.26535 0
M  V30 6748 N 607.499 1.09233 1.13605 0
M  V30 6749 C 608.447 0.724572 2.21027 0
M  V30 6750 C 609.441 -0.273595 1.67176 0
M  V30 6751 O 610.647 -0.135266 1.79491 0
M  V30 6752 H 607.022 0.216319 0.720215 0
M  V30 6753 H 608.993 1.63975 2.49309 0
M  V30 6754 C 607.742 0.159126 3.47336 0
M  V30 6755 H 607.065 0.918387 3.89109 0
M  V30 6756 H 608.505 -0.0602851 4.23957 0
M  V30 6757 C 606.964 -1.10514 3.18258 0
M  V30 6758 O 607.494 -2.18869 3.36837 0
M  V30 6759 N 605.7 -1.01886 2.72154 0
M  V30 6760 H 605.247 -0.137027 2.57235 0
M  V30 6761 H 605.205 -1.8655 2.53074 0
M  V30 6762 N 608.977 -1.30795 0.87923 0
M  V30 6763 C 610.202 -2.01063 0.508769 0
M  V30 6764 C 610.627 -1.65508 -0.893803 0
M  V30 6765 O 609.985 -0.868616 -1.59138 0
M  V30 6766 C 610.033 -3.54054 0.683991 0
M  V30 6767 O 609.137 -4.11498 -0.272654 0
M  V30 6768 H 608.478 -0.632786 0.201191 0
M  V30 6769 H 611.008 -1.66776 1.18519 0
M  V30 6770 H 611.018 -4.03845 0.580798 0
M  V30 6771 H 609.693 -3.79271 1.70665 0
M  V30 6772 H 608.27 -3.72695 -0.12364 0
M  V30 6773 N 610.455 -0.639598 -1.44038 0
M  V30 6774 C 611.418 0.0506628 -2.29144 0
M  V30 6775 C 612.418 0.764001 -1.41491 0
M  V30 6776 O 613.608 0.607309 -1.63271 0
M  V30 6777 C 610.74 1.0824 -3.2326 0
M  V30 6778 H 611.933 -0.697987 -2.91664 0
M  V30 6779 H 609.486 -0.400146 -1.51091 0
M  V30 6780 H 610.221 1.86075 -2.65606 0
M  V30 6781 H 610.006 0.574725 -3.87865 0
M  V30 6782 H 611.496 1.56487 -3.87171 0
M  V30 6783 N 611.933 1.52934 -0.380664 0
M  V30 6784 C 613.349 1.59571 -0.0302429 0
M  V30 6785 C 613.549 1.39509 1.45394 0
M  V30 6786 O 612.605 1.20777 2.21741 0
M  V30 6787 C 613.918 2.96519 -0.499691 0
M  V30 6788 C 615.466 3.09672 -0.455204 0
M  V30 6789 C 615.941 4.49056 -0.900703 0
M  V30 6790 N 617.432 4.55215 -0.856367 0
M  V30 6791 C 618.167 5.61282 -1.17259 0
M  V30 6792 N 617.663 6.75035 -1.55885 0
M  V30 6793 N 619.456 5.51343 -1.0944 0
M  V30 6794 H 611.607 1.64224 -1.347 0
M  V30 6795 H 613.87 0.771033 -0.551554 0
M  V30 6796 H 613.576 3.16388 -1.53595 0
M  V30 6797 H 613.45 3.77052 0.105789 0
M  V30 6798 H 615.837 2.89504 0.571949 0
M  V30 6799 H 615.918 2.31113 -1.09638 0
M  V30 6800 H 615.562 4.69964 -1.92604 0
M  V30 6801 H 615.492 5.26068 -0.236629 0
M  V30 6802 H 617.983 3.73546 -0.572013 0
M  V30 6803 H 618.296 7.51926 -1.784 0
M  V30 6804 H 616.641 6.76388 -1.59764 0
M  V30 6805 H 619.832 4.61356 -0.791713 0
M  V30 6806 H 620.005 6.33905 -1.34417 0
M  V30 6807 N 613.412 0.11024 1.57214 0
M  V30 6808 C 614.359 -0.843195 2.14846 0
M  V30 6809 C 615.329 -1.26954 1.07107 0
M  V30 6810 O 616.514 -1.34861 1.34971 0
M  V30 6811 C 613.654 -2.09123 2.74521 0
M  V30 6812 C 612.767 -1.71404 3.96541 0
M  V30 6813 C 611.902 -2.91107 4.44331 0
M  V30 6814 C 610.941 -2.49586 5.58903 0
M  V30 6815 N 610.078 -3.62175 6.01477 0
M  V30 6816 H 614.918 -0.344886 2.95998 0
M  V30 6817 H 612.455 -0.15855 1.46243 0
M  V30 6818 H 614.413 -2.82234 3.07246 0
M  V30 6819 H 613.043 -2.56427 1.96074 0
M  V30 6820 H 612.095 -0.88201 3.70033 0
M  V30 6821 H 613.407 -1.36884 4.7965 0
M  V30 6822 H 612.561 -3.72454 4.78919 0
M  V30 6823 H 611.3 -3.28848 3.60153 0
M  V30 6824 H 610.305 -1.6667 5.23929 0
M  V30 6825 H 611.53 -2.12973 6.4484 0
M  V30 6826 H 609.476 -3.99605 5.20242 0
M  V30 6827 H 609.393 -3.3155 6.79419 0
M  V30 6828 H 610.661 -4.43987 6.407 0
M  V30 6829 N 614.89 -1.56749 -0.16351 0
M  V30 6830 C 616.115 -1.86938 -0.898264 0
M  V30 6831 C 616.54 -0.697456 -1.74692 0
M  V30 6832 O 615.898 0.353327 -1.77824 0
M  V30 6833 C 615.946 -3.15599 -1.74441 0
M  V30 6834 O 615.05 -2.98371 -2.8469 0
M  V30 6835 H 614.391 -0.614659 -0.251178 0
M  V30 6836 H 616.921 -2.03979 -0.159298 0
M  V30 6837 H 616.931 -3.47202 -2.14277 0
M  V30 6838 H 615.606 -4.00505 -1.1211 0
M  V30 6839 H 614.183 -2.7814 -2.4838 0
M  V30 6840 N 616.368 0.432326 -1.51554 0
M  V30 6841 C 617.593 1.20824 -1.68571 0
M  V30 6842 C 618.018 1.84126 -0.384596 0
M  V30 6843 O 617.376 1.69025 0.655751 0
M  V30 6844 C 617.424 2.26429 -2.80646 0
M  V30 6845 O 616.528 3.32032 -2.44598 0
M  V30 6846 H 615.869 0.353765 -0.561913 0
M  V30 6847 H 618.399 0.509916 -1.98144 0
M  V30 6848 H 618.409 2.71133 -3.04878 0
M  V30 6849 H 617.084 1.79733 -3.75058 0
M  V30 6850 H 615.661 2.92769 -2.30956 0
M  V30 6851 N 617.846 1.41785 0.688094 0
M  V30 6852 C 619.074 1.44915 1.47673 0
M  V30 6853 C 619.489 0.0565786 1.88715 0
M  V30 6854 O 618.846 -0.92579 1.57275 0
M  V30 6855 C 618.897 2.36452 2.73446 0
M  V30 6856 O 618.618 3.7029 2.34131 0
M  V30 6857 C 620.119 2.48463 3.67125 0
M  V30 6858 H 617.339 0.493324 0.454832 0
M  V30 6859 H 619.883 1.86153 0.846594 0
M  V30 6860 H 618.038 1.98502 3.3268 0
M  V30 6861 H 618.452 4.19183 3.15255 0
M  V30 6862 H 619.926 3.16662 4.52138 0
M  V30 6863 H 620.403 1.51826 4.12123 0
M  V30 6864 H 621.009 2.8708 3.13792 0
M  V30 6865 N 619.324 -0.923095 1.27737 0
M  V30 6866 C 620.57 -1.67375 1.14514 0
M  V30 6867 C 620.903 -1.91751 -0.307424 0
M  V30 6868 O 620.178 -1.51119 -1.22447 0
M  V30 6869 C 620.461 -3.03745 1.9342 0
M  V30 6870 C 620.314 -2.86581 3.46686 0
M  V30 6871 C 621.633 -4.04144 1.74228 0
M  V30 6872 H 618.752 -0.607427 0.417374 0
M  V30 6873 H 621.394 -1.07089 1.56946 0
M  V30 6874 H 619.544 -3.55204 1.5736 0
M  V30 6875 H 621.216 -2.42203 3.92601 0
M  V30 6876 H 619.459 -2.21829 3.72793 0
M  V30 6877 H 620.13 -3.83381 3.97143 0
M  V30 6878 H 622.606 -3.61712 2.05678 0
M  V30 6879 H 621.482 -4.97543 2.31824 0
M  V30 6880 H 621.743 -4.36661 0.691373 0
M  V30 6881 N 620.802 -1.09834 -1.13024 0
M  V30 6882 C 622.05 -0.835297 -1.8403 0
M  V30 6883 C 622.371 0.640944 -1.84165 0
M  V30 6884 O 621.641 1.46517 -1.30037 0
M  V30 6885 H 620.221 -0.306018 -0.681441 0
M  V30 6886 H 622.883 -1.38734 -1.36891 0
M  V30 6887 H 621.979 -1.19258 -2.88416 0
M  V30 6888 N 622.28 1.30327 -0.886154 0
M  V30 6889 C 623.19 2.31854 -0.357866 0
M  V30 6890 C 624.206 1.65392 0.540502 0
M  V30 6891 O 625.382 1.96683 0.433339 0
M  V30 6892 C 622.447 3.44171 0.417999 0
M  V30 6893 C 621.508 4.26257 -0.510263 0
M  V30 6894 C 620.741 5.3321 0.228669 0
M  V30 6895 O 620.964 5.51542 1.45458 0
M  V30 6896 O 619.898 6.0042 -0.421832 0
M  V30 6897 H 623.724 2.78995 -1.19982 0
M  V30 6898 H 621.309 1.34518 -0.650028 0
M  V30 6899 H 623.191 4.12588 0.857251 0
M  V30 6900 H 621.866 2.99164 1.23623 0
M  V30 6901 H 620.773 3.60533 -0.99835 0
M  V30 6902 H 622.106 4.74871 -1.29454 0
M  V30 6903 N 623.758 0.647228 1.43697 0
M  V30 6904 C 625.007 0.155552 2.01099 0
M  V30 6905 C 625.32 -1.23569 1.51624 0
M  V30 6906 O 626.526 -1.82226 2.01261 0
M  V30 6907 C 624.982 0.227296 3.59182 0
M  V30 6908 C 624.59 1.62086 4.17651 0
M  V30 6909 C 626.334 -0.207085 4.23995 0
M  V30 6910 C 624.241 1.64685 5.68008 0
M  V30 6911 H 623.171 0.0543895 0.752036 0
M  V30 6912 H 625.822 0.808386 1.64734 0
M  V30 6913 H 624.204 -0.492937 3.9292 0
M  V30 6914 H 625.378 2.36597 3.95422 0
M  V30 6915 H 623.693 2.0007 3.65186 0
M  V30 6916 H 626.29 -0.207426 5.34298 0
M  V30 6917 H 626.633 -1.23742 3.97484 0
M  V30 6918 H 627.166 0.461193 3.95118 0
M  V30 6919 H 623.905 2.65608 5.99277 0
M  V30 6920 H 623.425 0.944914 5.9231 0
M  V30 6921 H 625.104 1.38792 6.31938 0
M  V30 6922 N 625.236 -1.5273 0.388769 0
M  V30 6923 C 626.482 -2.01871 -0.193877 0
M  V30 6924 C 626.815 -1.27475 -1.46505 0
M  V30 6925 O 626.09 -0.375063 -1.90849 0
M  V30 6926 C 626.373 -3.5712 -0.462336 0
M  V30 6927 C 626.226 -4.42186 0.824091 0
M  V30 6928 C 627.545 -4.21881 -1.25319 0
M  V30 6929 H 624.664 -0.733764 -0.0689899 0
M  V30 6930 H 627.306 -1.82796 0.518231 0
M  V30 6931 H 625.456 -3.73504 -1.06896 0
M  V30 6932 H 627.128 -4.37554 1.46096 0
M  V30 6933 H 625.371 -4.09219 1.43952 0
M  V30 6934 H 626.042 -5.48828 0.590905 0
M  V30 6935 H 628.518 -4.0947 -0.73981 0
M  V30 6936 H 627.394 -5.30487 -1.40977 0
M  V30 6937 H 627.655 -3.79478 -2.26824 0
M  V30 6938 N 626.714 -0.118576 -1.57153 0
M  V30 6939 C 627.662 0.849114 -2.16547 0
M  V30 6940 C 628.656 1.27567 -1.11458 0
M  V30 6941 O 629.862 1.24746 -1.29763 0
M  V30 6942 H 626.237 0.291935 -0.693021 0
M  V30 6943 H 628.208 0.323693 -2.96639 0
M  V30 6944 C 626.957 2.08951 -2.77912 0
M  V30 6945 H 626.28 1.77021 -3.58474 0
M  V30 6946 H 627.72 2.74666 -3.23008 0
M  V30 6947 C 626.179 2.87899 -1.74974 0
M  V30 6948 O 626.709 3.83268 -1.20285 0
M  V30 6949 N 624.915 2.51884 -1.44924 0
M  V30 6950 H 624.462 1.74397 -1.89587 0
M  V30 6951 H 624.42 3.05003 -0.762921 0
M  V30 6952 N 628.193 1.56834 0.155195 0
M  V30 6953 C 629.123 2.00678 1.19376 0
M  V30 6954 C 630.104 0.884973 1.45266 0
M  V30 6955 O 631.289 1.1522 1.56326 0
M  V30 6956 C 628.419 2.38042 2.5289 0
M  V30 6957 C 627.373 3.53332 2.41538 0
M  V30 6958 C 626.699 3.76485 3.79688 0
M  V30 6959 C 627.999 4.86265 1.9064 0
M  V30 6960 H 629.693 2.87688 0.829232 0
M  V30 6961 H 627.239 1.38407 0.397445 0
M  V30 6962 H 629.192 2.67314 3.25763 0
M  V30 6963 H 627.916 1.4796 2.91162 0
M  V30 6964 H 626.575 3.24213 1.71117 0
M  V30 6965 H 626.223 2.83667 4.15382 0
M  V30 6966 H 625.923 4.54068 3.72956 0
M  V30 6967 H 627.447 4.08174 4.54122 0
M  V30 6968 H 628.861 5.14308 2.53299 0
M  V30 6969 H 627.258 5.67597 1.94818 0
M  V30 6970 H 628.328 4.77184 0.861596 0
M  V30 6971 N 629.671 -0.424282 1.51781 0
M  V30 6972 C 630.604 -1.53633 1.68737 0
M  V30 6973 C 631.582 -1.53549 0.534915 0
M  V30 6974 O 632.766 -1.72483 0.760391 0
M  V30 6975 C 629.893 -2.92195 1.71288 0
M  V30 6976 C 628.939 -3.10251 2.92654 0
M  V30 6977 S 629.772 -2.85166 4.53256 0
M  V30 6978 C 630.928 -4.25986 4.58571 0
M  V30 6979 H 631.161 -1.39018 2.62795 0
M  V30 6980 H 628.694 -0.614854 1.41629 0
M  V30 6981 H 630.652 -3.72059 1.73443 0
M  V30 6982 H 629.313 -3.04162 0.783847 0
M  V30 6983 H 628.506 -4.1159 2.90877 0
M  V30 6984 H 628.108 -2.38231 2.88308 0
M  V30 6985 H 630.4 -5.19392 4.35015 0
M  V30 6986 H 631.343 -4.32792 5.60444 0
M  V30 6987 H 631.751 -4.1025 3.87757 0
M  V30 6988 N 631.149 -1.42148 -0.680565 0
M  V30 6989 C 632.374 -1.45901 -1.47403 0
M  V30 6990 C 632.799 -0.0700985 -1.87969 0
M  V30 6991 O 632.157 0.930145 -1.55621 0
M  V30 6992 C 632.205 -2.38661 -2.70321 0
M  V30 6993 O 631.309 -1.85399 -3.68376 0
M  V30 6994 H 630.65 -0.494565 -0.443059 0
M  V30 6995 H 633.18 -1.86774 -0.835251 0
M  V30 6996 H 633.19 -2.55046 -3.18458 0
M  V30 6997 H 631.865 -3.39571 -2.40134 0
M  V30 6998 H 630.442 -1.78541 -3.2738 0
M  V30 6999 N 632.627 0.916307 -1.28225 0
M  V30 7000 C 633.873 1.66765 -1.154 0
M  V30 7001 C 634.206 1.91912 0.297251 0
M  V30 7002 O 633.481 1.51766 1.21644 0
M  V30 7003 C 633.764 3.02715 -1.95028 0
M  V30 7004 C 633.617 2.84738 -3.48201 0
M  V30 7005 C 634.936 4.03215 -1.76369 0
M  V30 7006 H 632.055 0.605205 -0.42059 0
M  V30 7007 H 634.697 1.06255 -1.57512 0
M  V30 7008 H 632.847 3.54365 -1.59242 0
M  V30 7009 H 634.519 2.40118 -3.9388 0
M  V30 7010 H 632.762 2.19848 -3.73964 0
M  V30 7011 H 633.433 3.8127 -3.99171 0
M  V30 7012 H 635.909 3.60617 -2.07593 0
M  V30 7013 H 634.785 4.96306 -2.34459 0
M  V30 7014 H 635.046 4.36288 -0.71452 0
M  V30 7015 N 634.105 1.10431 1.1244 0
M  V30 7016 C 635.382 0.758797 1.80282 0
M  V30 7017 C 635.762 -0.754727 1.97147 0
M  V30 7018 O 635.11 -1.68094 1.54779 0
M  V30 7019 C 635.32 1.50982 3.14651 0
M  V30 7020 C 636.668 1.68232 3.8985 0
M  V30 7021 O 637.692 1.47319 3.24308 0
M  V30 7022 O 636.551 2.02905 5.07437 0
M  V30 7023 H 633.645 0.273756 0.780376 0
M  V30 7024 H 636.191 1.20713 1.19275 0
M  V30 7025 H 634.963 2.53989 2.97666 0
M  V30 7026 H 634.586 1.05435 3.83366 0
M  V30 7027 N 635.583 -1.29855 0.893053 0
M  V30 7028 C 636.546 -2.26183 0.370687 0
M  V30 7029 C 637.546 -1.53108 -0.491385 0
M  V30 7030 O 638.736 -1.71643 -0.297386 0
M  V30 7031 C 635.868 -3.37633 -0.470827 0
M  V30 7032 H 637.061 -2.73903 1.22135 0
M  V30 7033 H 634.614 -1.41183 0.67061 0
M  V30 7034 H 635.349 -2.95241 -1.34175 0
M  V30 7035 H 635.134 -3.91825 0.146784 0
M  V30 7036 H 636.624 -4.09313 -0.827825 0
M  V30 7037 N 637.061 -0.65484 -1.43351 0
M  V30 7038 C 637.993 0.0744757 -2.29079 0
M  V30 7039 C 639.006 0.7855 -1.42596 0
M  V30 7040 O 640.195 0.642986 -1.66517 0
M  V30 7041 C 637.295 1.12859 -3.19556 0
M  V30 7042 C 636.468 0.495381 -4.34586 0
M  V30 7043 C 635.527 1.44659 -5.05925 0
M  V30 7044 O 634.553 0.954567 -5.61139 0
M  V30 7045 N 635.755 2.78051 -5.09576 0
M  V30 7046 H 638.52 -0.661346 -2.92312 0
M  V30 7047 H 636.081 -0.497744 -1.54059 0
M  V30 7048 H 638.073 1.76577 -3.64147 0
M  V30 7049 H 636.643 1.76636 -2.57912 0
M  V30 7050 H 635.863 -0.32092 -3.92892 0
M  V30 7051 H 637.151 0.0534203 -5.08772 0
M  V30 7052 H 636.549 3.20584 -4.66093 0
M  V30 7053 H 635.106 3.37068 -5.57878 0
M  V30 7054 N 638.539 1.52521 -0.396863 0
M  V30 7055 C 639.955 1.5953 -0.0471659 0
M  V30 7056 C 640.155 1.41044 1.43906 0
M  V30 7057 O 639.211 1.23122 2.20448 0
M  V30 7058 C 640.524 2.95972 -0.531113 0
M  V30 7059 C 642.072 3.09172 -0.488024 0
M  V30 7060 C 642.547 4.48075 -0.948281 0
M  V30 7061 N 644.038 4.54281 -0.9046 0
M  V30 7062 C 644.773 5.60007 -1.23205 0
M  V30 7063 N 644.269 6.73343 -1.63036 0
M  V30 7064 N 646.062 5.50151 -1.15282 0
M  V30 7065 H 638.213 1.62786 -1.36435 0
M  V30 7066 H 640.476 0.76514 -0.559701 0
M  V30 7067 H 640.182 3.14741 -1.56942 0
M  V30 7068 H 640.056 3.77143 0.0657922 0
M  V30 7069 H 642.443 2.90095 0.541211 0
M  V30 7070 H 642.524 2.29937 -1.12083 0
M  V30 7071 H 642.168 4.67894 -1.97578 0
M  V30 7072 H 642.098 5.25788 -0.292412 0
M  V30 7073 H 644.589 3.72918 -0.6116 0
M  V30 7074 H 644.902 7.49992 -1.86365 0
M  V30 7075 H 643.247 6.74655 -1.66929 0
M  V30 7076 H 646.438 4.6049 -0.840602 0
M  V30 7077 H 646.611 6.32444 -1.41133 0
M  V30 7078 N 640.017 0.126909 1.57088 0
M  V30 7079 C 641.264 -0.529168 1.95464 0
M  V30 7080 C 641.592 -1.6618 1.01067 0
M  V30 7081 O 640.847 -1.95667 0.0360254 0
M  V30 7082 C 641.146 -1.095 3.40212 0
M  V30 7083 C 640.812 -0.0829015 4.50824 0
M  V30 7084 C 639.474 0.195377 4.80803 0
M  V30 7085 C 641.826 0.606411 5.1766 0
M  V30 7086 C 639.154 1.16912 5.74933 0
M  V30 7087 C 641.506 1.56884 6.12838 0
M  V30 7088 C 640.17 1.85502 6.41206 0
M  V30 7089 H 639.44 -0.193636 0.715252 0
M  V30 7090 H 642.087 0.209489 1.90351 0
M  V30 7091 H 640.392 -1.91058 3.42059 0
M  V30 7092 H 642.089 -1.61087 3.67222 0
M  V30 7093 H 638.679 -0.309979 4.27478 0
M  V30 7094 H 642.863 0.404597 4.94648 0
M  V30 7095 H 638.119 1.3975 5.95214 0
M  V30 7096 H 642.293 2.10859 6.6371 0
M  V30 7097 H 639.92 2.61109 7.13951 0
M  V30 7098 N 641.495 -1.56914 -0.146875 0
M  V30 7099 C 642.428 -1.93425 -1.21087 0
M  V30 7100 C 643.406 -0.800106 -1.41552 0
M  V30 7101 O 644.59 -1.05572 -1.56162 0
M  V30 7102 C 641.717 -2.20639 -2.56975 0
M  V30 7103 C 640.763 -3.43279 -2.53104 0
M  V30 7104 S 641.596 -4.96836 -1.99786 0
M  V30 7105 C 642.752 -5.27172 -3.37403 0
M  V30 7106 H 642.985 -2.8337 -0.899378 0
M  V30 7107 H 640.518 -1.50322 -0.352494 0
M  V30 7108 H 642.476 -2.36998 -3.35175 0
M  V30 7109 H 641.137 -1.31357 -2.85314 0
M  V30 7110 H 640.33 -3.59599 -3.53136 0
M  V30 7111 H 639.932 -3.26163 -1.83012 0
M  V30 7112 H 642.224 -5.20647 -4.33513 0
M  V30 7113 H 643.167 -6.28626 -3.25937 0
M  V30 7114 H 643.575 -4.54687 -3.34544 0
M  V30 7115 N 642.974 0.416227 -1.52004 0
M  V30 7116 C 644.251 1.17637 -1.56272 0
M  V30 7117 C 644.631 2.08352 -0.339493 0
M  V30 7118 O 643.979 2.1833 0.674124 0
M  V30 7119 C 644.189 1.95986 -2.88774 0
M  V30 7120 C 645.537 2.52299 -3.41512 0
M  V30 7121 O 646.561 2.06174 -2.90467 0
M  V30 7122 O 645.42 3.3648 -4.30631 0
M  V30 7123 H 642.514 0.536726 -0.629169 0
M  V30 7124 H 645.06 0.423583 -1.64329 0
M  V30 7125 H 643.832 1.29487 -3.69254 0
M  V30 7126 H 643.455 2.78285 -2.83978 0
M  V30 7127 N 644.452 1.42507 0.673017 0
M  V30 7128 C 645.382 1.48916 1.79851 0
M  V30 7129 C 646.363 0.345566 1.66553 0
M  V30 7130 O 647.548 0.560116 1.85947 0
M  V30 7131 C 644.678 1.39258 3.18158 0
M  V30 7132 C 643.632 2.51662 3.46194 0
M  V30 7133 C 642.958 2.27062 4.84094 0
M  V30 7134 C 644.258 3.93968 3.42909 0
M  V30 7135 H 645.952 2.43114 1.74745 0
M  V30 7136 H 643.498 1.17013 0.839288 0
M  V30 7137 H 645.451 1.42349 3.96629 0
M  V30 7138 H 644.175 0.415542 3.23946 0
M  V30 7139 H 642.834 2.47891 2.70084 0
M  V30 7140 H 642.482 1.27648 4.86534 0
M  V30 7141 H 642.182 3.02398 5.03815 0
M  V30 7142 H 643.706 2.31905 5.64847 0
M  V30 7143 H 645.12 3.99332 4.11347 0
M  V30 7144 H 643.517 4.6917 3.74165 0
M  V30 7145 H 644.587 4.20512 2.41449 0
M  V30 7146 N 645.93 -0.909495 1.28709 0
M  V30 7147 C 646.893 -1.99399 1.13016 0
M  V30 7148 C 647.893 -1.60654 0.068536 0
M  V30 7149 O 649.083 -1.71334 0.314671 0
M  V30 7150 C 646.215 -3.33078 0.726085 0
M  V30 7151 H 647.408 -2.14751 2.09338 0
M  V30 7152 H 644.961 -1.09272 1.11756 0
M  V30 7153 H 645.696 -3.23428 -0.23771 0
M  V30 7154 H 645.481 -3.62562 1.49302 0
M  V30 7155 H 646.971 -4.12681 0.639058 0
M  V30 7156 N 647.408 -1.11026 -1.11852 0
M  V30 7157 C 648.636 -0.878818 -1.87308 0
M  V30 7158 C 649.051 0.57111 -1.79955 0
M  V30 7159 O 648.408 1.39409 -1.17777 0
M  V30 7160 C 648.459 -1.3264 -3.36287 0
M  V30 7161 O 648.18 -2.71948 -3.43476 0
M  V30 7162 C 649.681 -1.12974 -4.28663 0
M  V30 7163 H 646.901 -0.315015 -0.592458 0
M  V30 7164 H 649.445 -1.47649 -1.41492 0
M  V30 7165 H 647.6 -0.772269 -3.79625 0
M  V30 7166 H 648.014 -2.91241 -4.3621 0
M  V30 7167 H 649.488 -1.49198 -5.31454 0
M  V30 7168 H 649.965 -0.0689127 -4.39146 0
M  V30 7169 H 650.571 -1.67064 -3.91113 0
M  V30 7170 N 648.886 1.2938 -0.899927 0
M  V30 7171 C 650.116 1.99402 -0.540601 0
M  V30 7172 C 650.524 1.67534 0.87914 0
M  V30 7173 O 649.867 0.916821 1.59186 0
M  V30 7174 C 649.929 3.53514 -0.653326 0
M  V30 7175 C 649.593 4.08937 -2.04009 0
M  V30 7176 C 650.59 4.23815 -3.01126 0
M  V30 7177 C 648.275 4.43962 -2.34953 0
M  V30 7178 C 650.269 4.72951 -4.27313 0
M  V30 7179 C 647.956 4.92795 -3.61382 0
M  V30 7180 C 648.954 5.07244 -4.57376 0
M  V30 7181 O 648.642 5.55017 -5.8156 0
M  V30 7182 H 648.374 0.64383 -0.206057 0
M  V30 7183 H 650.928 1.65878 -1.21134 0
M  V30 7184 H 649.158 3.86628 0.0744449 0
M  V30 7185 H 650.847 4.04767 -0.303118 0
M  V30 7186 H 651.613 3.97043 -2.78535 0
M  V30 7187 H 647.492 4.31974 -1.60994 0
M  V30 7188 H 651.036 4.84144 -5.02245 0
M  V30 7189 H 646.933 5.19004 -3.83804 0
M  V30 7190 H 647.701 5.73331 -5.84153 0
M  V30 7191 N 650.364 0.662433 1.43002 0
M  V30 7192 C 651.613 0.176873 2.00923 0
M  V30 7193 C 651.926 -1.21954 1.52927 0
M  V30 7194 O 653.132 -1.80081 2.03182 0
M  V30 7195 C 651.588 0.265379 3.5892 0
M  V30 7196 C 651.196 1.66507 4.15908 0
M  V30 7197 C 652.94 -0.162103 4.2419 0
M  V30 7198 C 650.847 1.707 5.66229 0
M  V30 7199 H 649.777 0.0623627 0.751417 0
M  V30 7200 H 652.428 0.825813 1.63868 0
M  V30 7201 H 650.81 -0.451235 3.93421 0
M  V30 7202 H 651.984 2.40777 3.92891 0
M  V30 7203 H 650.299 2.03932 3.63044 0
M  V30 7204 H 652.896 -0.150745 5.34487 0
M  V30 7205 H 653.239 -1.19519 3.98774 0
M  V30 7206 H 653.772 0.503075 3.94606 0
M  V30 7207 H 650.511 2.7195 5.96426 0
M  V30 7208 H 650.031 1.00768 5.91275 0
M  V30 7209 H 651.71 1.45487 6.3043 0
M  V30 7210 N 651.842 -1.52309 0.404946 0
M  V30 7211 C 652.79 -2.28452 -0.437321 0
M  V30 7212 C 653.784 -1.32975 -1.04948 0
M  V30 7213 O 654.99 -1.50451 -0.988159 0
M  V30 7214 H 651.365 -0.734824 -0.159805 0
M  V30 7215 H 653.336 -2.97542 0.22615 0
M  V30 7216 C 652.085 -3.11536 -1.54404 0
M  V30 7217 H 651.408 -3.84871 -1.08233 0
M  V30 7218 H 652.848 -3.67926 -2.10729 0
M  V30 7219 C 651.307 -2.24833 -2.50902 0
M  V30 7220 O 651.837 -1.88574 -3.54687 0
M  V30 7221 N 650.043 -1.88685 -2.21012 0
M  V30 7222 H 649.59 -2.18371 -1.36646 0
M  V30 7223 H 649.548 -1.30966 -2.85824 0
M  V30 7224 N 653.32 -0.135238 -1.57019 0
M  V30 7225 C 654.253 0.846618 -2.11914 0
M  V30 7226 C 655.231 1.25019 -1.03966 0
M  V30 7227 O 656.415 1.34838 -1.31723 0
M  V30 7228 C 653.542 2.1352 -2.6292 0
M  V30 7229 C 652.588 1.87846 -3.82905 0
M  V30 7230 S 653.421 1.08005 -5.24495 0
M  V30 7231 C 654.577 2.38008 -5.78881 0
M  V30 7232 H 654.81 0.379752 -2.94865 0
M  V30 7233 H 652.343 0.0788387 -1.54199 0
M  V30 7234 H 654.301 2.87551 -2.92958 0
M  V30 7235 H 652.962 2.57323 -1.80121 0
M  V30 7236 H 652.155 2.83365 -4.16797 0
M  V30 7237 H 651.757 1.21929 -3.53567 0
M  V30 7238 H 654.049 3.33742 -5.89595 0
M  V30 7239 H 654.992 2.08638 -6.76665 0
M  V30 7240 H 655.4 2.48119 -5.07048 0
M  V30 7241 N 654.798 1.5699 0.138552 0
M  V30 7242 C 656.047 1.82998 0.848205 0
M  V30 7243 C 656.36 0.717829 1.81952 0
M  V30 7244 O 657.566 0.863756 2.57394 0
M  V30 7245 C 656.022 3.24379 1.55904 0
M  V30 7246 C 655.63 4.43552 0.62971 0
M  V30 7247 C 657.374 3.59654 2.25498 0
M  V30 7248 C 655.281 5.75957 1.34266 0
M  V30 7249 H 654.211 0.682495 0.320495 0
M  V30 7250 H 656.862 1.83222 0.100924 0
M  V30 7251 H 655.244 3.18567 2.35226 0
M  V30 7252 H 656.418 4.6062 -0.128882 0
M  V30 7253 H 654.733 4.16379 0.0417526 0
M  V30 7254 H 657.33 4.55837 2.79493 0
M  V30 7255 H 657.673 2.86124 3.02388 0
M  V30 7256 H 658.206 3.67164 1.53087 0
M  V30 7257 H 654.945 6.52604 0.615441 0
M  V30 7258 H 654.465 5.62811 2.07375 0
M  V30 7259 H 656.144 6.19046 1.88126 0
M  V30 7260 N 656.276 -0.40816 1.52223 0
M  V30 7261 C 657.522 -1.15347 1.67531 0
M  V30 7262 C 657.877 -1.8818 0.400748 0
M  V30 7263 O 657.17 -1.81803 -0.604845 0
M  V30 7264 C 657.364 -2.17422 2.83659 0
M  V30 7265 C 657.193 -1.54611 4.22286 0
M  V30 7266 C 655.963 -1.31841 4.87797 0
M  V30 7267 C 658.161 -1.00648 5.04355 0
M  V30 7268 N 656.143 -0.649338 6.10456 0
M  V30 7269 C 657.514 -0.464384 6.18258 0
M  V30 7270 C 659.569 -0.901041 4.89679 0
M  V30 7271 C 658.272 0.172825 7.19092 0
M  V30 7272 C 660.298 -0.277684 5.90748 0
M  V30 7273 C 659.66 0.253734 7.03943 0
M  V30 7274 H 655.759 -0.408722 0.666686 0
M  V30 7275 H 658.343 -0.445713 1.8953 0
M  V30 7276 H 656.514 -2.85554 2.63274 0
M  V30 7277 H 658.246 -2.84321 2.87999 0
M  V30 7278 H 655.001 -1.58819 4.46176 0
M  V30 7279 H 655.425 -0.3314 6.76188 0
M  V30 7280 H 660.067 -1.29772 4.02392 0
M  V30 7281 H 657.785 0.581564 8.06005 0
M  V30 7282 H 661.371 -0.197605 5.81464 0
M  V30 7283 H 660.251 0.728482 7.80809 0
M  V30 7284 N 657.755 -1.42862 -0.66545 0
M  V30 7285 C 658.98 -1.47456 -1.45848 0
M  V30 7286 C 659.405 -0.0900312 -1.87884 0
M  V30 7287 O 658.763 0.913587 -1.56599 0
M  V30 7288 C 658.811 -2.41514 -2.67774 0
M  V30 7289 O 657.915 -1.89296 -3.66389 0
M  V30 7290 H 657.256 -0.499236 -0.437789 0
M  V30 7291 H 659.786 -1.8765 -0.815394 0
M  V30 7292 H 659.796 -2.58409 -3.15735 0
M  V30 7293 H 658.471 -3.42099 -2.36519 0
M  V30 7294 H 657.048 -1.82003 -3.25468 0
M  V30 7295 N 659.233 0.902656 -1.29189 0
M  V30 7296 C 660.196 1.98797 -1.14071 0
M  V30 7297 C 661.196 1.60615 -0.0770549 0
M  V30 7298 O 662.386 1.71165 -0.323753 0
M  V30 7299 C 659.518 3.32688 -0.743739 0
M  V30 7300 H 660.711 2.13637 -2.10473 0
M  V30 7301 H 658.264 1.08678 -1.12334 0
M  V30 7302 H 658.999 3.23549 0.220554 0
M  V30 7303 H 658.784 3.61765 -1.51223 0
M  V30 7304 H 660.274 4.12337 -0.660935 0
M  V30 7305 N 660.711 1.11618 1.11262 0
M  V30 7306 C 662.122 0.881942 1.64556 0
M  V30 7307 C 662.473 -0.585442 1.87262 0
M  V30 7308 O 661.598 -1.44795 1.60821 0
M  V30 7309 C 662.193 1.59446 2.98935 0
M  V30 7310 C 660.752 1.40661 3.4913 0
M  V30 7311 C 659.899 1.63593 2.23903 0
M  V30 7312 H 662.85 1.27217 0.94877 0
M  V30 7313 H 662.871 1.04054 3.65996 0
M  V30 7314 H 662.383 2.66241 2.82378 0
M  V30 7315 H 660.484 0.360835 3.70849 0
M  V30 7316 H 660.597 2.15693 4.27801 0
M  V30 7317 H 658.961 1.05944 2.3162 0
M  V30 7318 H 659.744 2.71666 2.09886 0
M  V30 7319 N 662.189 -1.289 0.906776 0
M  V30 7320 C 663.119 -2.29932 0.406659 0
M  V30 7321 C 664.1 -1.6189 -0.522061 0
M  V30 7322 O 665.285 -1.8935 -0.431283 0
M  V30 7323 C 662.415 -3.45425 -0.360366 0
M  V30 7324 C 661.369 -4.25316 0.478574 0
M  V30 7325 C 660.695 -5.33076 -0.416373 0
M  V30 7326 C 661.995 -4.92739 1.7322 0
M  V30 7327 H 663.689 -2.72013 1.25097 0
M  V30 7328 H 661.235 -1.30768 0.602977 0
M  V30 7329 H 663.188 -4.15186 -0.721029 0
M  V30 7330 H 661.912 -3.02206 -1.23852 0
M  V30 7331 H 660.571 -3.57273 0.821662 0
M  V30 7332 H 660.219 -4.86101 -1.29287 0
M  V30 7333 H 659.919 -5.8743 0.141309 0
M  V30 7334 H 661.443 -6.05686 -0.773072 0
M  V30 7335 H 662.857 -5.54898 1.44086 0
M  V30 7336 H 661.254 -5.57057 2.23175 0
M  V30 7337 H 662.324 -4.17625 2.46408 0
M  V30 7338 N 663.667 -0.670007 -1.42649 0
M  V30 7339 C 664.599 0.0501746 -2.29145 0
M  V30 7340 C 665.612 0.770331 -1.43422 0
M  V30 7341 O 666.801 0.625288 -1.6719 0
M  V30 7342 C 663.901 1.09463 -3.20735 0
M  V30 7343 C 663.074 0.44926 -4.35087 0
M  V30 7344 C 662.133 1.39285 -5.07431 0
M  V30 7345 O 661.159 0.894997 -5.6212 0
M  V30 7346 N 662.361 2.72631 -5.12496 0
M  V30 7347 H 665.126 -0.692312 -2.91594 0
M  V30 7348 H 662.687 -0.514056 -1.53522 0
M  V30 7349 H 664.679 1.72705 -3.65999 0
M  V30 7350 H 663.249 1.73891 -2.59771 0
M  V30 7351 H 662.469 -0.362573 -3.92529 0
M  V30 7352 H 663.757 -0.000544776 -5.088 0
M  V30 7353 H 663.155 3.15623 -4.69467 0
M  V30 7354 H 661.712 3.31132 -5.61422 0
M  V30 7355 N 665.145 1.52092 -0.413018 0
M  V30 7356 C 666.391 2.02154 0.161737 0
M  V30 7357 C 666.724 1.29789 1.44459 0
M  V30 7358 O 665.999 0.405378 1.90229 0
M  V30 7359 C 666.282 3.5781 0.405463 0
M  V30 7360 C 666.135 4.40819 -0.894335 0
M  V30 7361 C 667.454 4.23821 1.18591 0
M  V30 7362 H 664.573 0.734769 0.0573077 0
M  V30 7363 H 667.215 1.81948 -0.547247 0
M  V30 7364 H 665.365 3.75158 1.0094 0
M  V30 7365 H 667.037 4.35175 -1.53039 0
M  V30 7366 H 665.28 4.06877 -1.50444 0
M  V30 7367 H 665.951 5.47819 -0.678144 0
M  V30 7368 H 668.427 4.10596 0.674573 0
M  V30 7369 H 667.303 5.32663 1.3252 0
M  V30 7370 H 667.564 3.83038 2.20758 0
M  V30 7371 N 666.623 0.143563 1.56945 0
M  V30 7372 C 667.872 -0.50835 1.95189 0
M  V30 7373 C 668.185 -1.66239 1.03073 0
M  V30 7374 O 669.391 -2.3787 1.30882 0
M  V30 7375 C 667.847 -0.955735 3.46978 0
M  V30 7376 C 667.455 0.171183 4.47673 0
M  V30 7377 C 669.199 -1.57763 3.94095 0
M  V30 7378 C 667.106 -0.294279 5.90667 0
M  V30 7379 H 666.036 -0.193679 0.728701 0
M  V30 7380 H 668.687 0.227357 1.82086 0
M  V30 7381 H 667.069 -1.7466 3.55401 0
M  V30 7382 H 668.243 0.948049 4.50942 0
M  V30 7383 H 666.558 0.701273 4.10452 0
M  V30 7384 H 669.155 -1.93745 4.98364 0
M  V30 7385 H 669.498 -2.46531 3.35452 0
M  V30 7386 H 670.031 -0.851728 3.88575 0
M  V30 7387 H 666.77 0.557939 6.53121 0
M  V30 7388 H 666.29 -1.0371 5.90766 0
M  V30 7389 H 667.969 -0.747426 6.42668 0
M  V30 7390 N 668.101 -1.57061 -0.130224 0
M  V30 7391 C 669.031 -2.02552 -1.16168 0
M  V30 7392 C 670.012 -0.907971 -1.4384 0
M  V30 7393 O 671.197 -1.17693 -1.54473 0
M  V30 7394 C 668.327 -2.42035 -2.49071 0
M  V30 7395 C 667.281 -3.5713 -2.35886 0
M  V30 7396 C 666.607 -3.82478 -3.7365 0
M  V30 7397 C 667.907 -4.89236 -1.8288 0
M  V30 7398 H 669.601 -2.8897 -0.783359 0
M  V30 7399 H 667.147 -1.39021 -0.375376 0
M  V30 7400 H 669.1 -2.72462 -3.21469 0
M  V30 7401 H 667.824 -1.52573 -2.88771 0
M  V30 7402 H 666.483 -3.26895 -1.65938 0
M  V30 7403 H 666.131 -2.9024 -4.10816 0
M  V30 7404 H 665.831 -4.59944 -3.65685 0
M  V30 7405 H 667.355 -4.15347 -4.47571 0
M  V30 7406 H 668.769 -5.18272 -2.45085 0
M  V30 7407 H 667.166 -5.70624 -1.85763 0
M  V30 7408 H 668.236 -4.78494 -0.785571 0
M  V30 7409 N 669.579 0.400081 -1.52437 0
M  V30 7410 C 670.542 1.4707 -1.75793 0
M  V30 7411 C 671.542 1.48036 -0.627856 0
M  V30 7412 O 672.732 1.49401 -0.895817 0
M  V30 7413 C 669.864 2.86427 -1.84858 0
M  V30 7414 H 671.057 1.27649 -2.71377 0
M  V30 7415 H 668.61 0.631141 -1.42991 0
M  V30 7416 H 669.345 3.11207 -0.912194 0
M  V30 7417 H 669.13 2.87128 -2.6702 0
M  V30 7418 H 670.62 3.64023 -2.04638 0
M  V30 7419 N 671.057 1.43213 0.657864 0
M  V30 7420 C 671.987 1.50815 1.78262 0
M  V30 7421 C 672.968 0.363211 1.66177 0
M  V30 7422 O 674.153 0.579806 1.85343 0
M  V30 7423 C 671.283 1.42625 3.16663 0
M  V30 7424 C 670.237 2.5532 3.43505 0
M  V30 7425 C 669.563 2.32184 4.81658 0
M  V30 7426 C 670.863 3.97583 3.38711 0
M  V30 7427 H 672.557 2.44954 1.72157 0
M  V30 7428 H 670.103 1.17896 0.82683 0
M  V30 7429 H 672.056 1.46548 3.95097 0
M  V30 7430 H 670.78 0.449877 3.23487 0
M  V30 7431 H 669.439 2.50742 2.6744 0
M  V30 7432 H 669.087 1.32801 4.85153 0
M  V30 7433 H 668.787 3.07724 5.00579 0
M  V30 7434 H 670.311 2.37883 5.62356 0
M  V30 7435 H 671.725 4.03673 4.07089 0
M  V30 7436 H 670.122 4.73112 3.69168 0
M  V30 7437 H 671.192 4.23049 2.36976 0
M  V30 7438 N 672.536 -0.895792 1.29666 0
M  V30 7439 C 673.766 -1.67757 1.20586 0
M  V30 7440 C 674.174 -1.87729 -0.235432 0
M  V30 7441 O 673.517 -1.41706 -1.16898 0
M  V30 7442 C 673.579 -3.08117 1.85215 0
M  V30 7443 C 673.243 -3.1136 3.3452 0
M  V30 7444 C 674.24 -2.91217 4.30684 0
M  V30 7445 C 671.925 -3.33302 3.75786 0
M  V30 7446 C 673.919 -2.92955 5.66089 0
M  V30 7447 C 671.606 -3.3467 5.11311 0
M  V30 7448 C 672.604 -3.14519 6.06273 0
M  V30 7449 O 672.292 -3.15684 7.39323 0
M  V30 7450 H 672.024 -0.530601 0.418854 0
M  V30 7451 H 674.578 -1.12831 1.71634 0
M  V30 7452 H 672.808 -3.64661 1.28683 0
M  V30 7453 H 674.497 -3.68399 1.70403 0
M  V30 7454 H 675.263 -2.74074 4.00136 0
M  V30 7455 H 671.142 -3.48025 3.02324 0
M  V30 7456 H 674.686 -2.77145 6.40185 0
M  V30 7457 H 670.583 -3.51346 5.41504 0
M  V30 7458 H 671.351 -3.31924 7.48177 0
M  V30 7459 N 674.014 -1.12206 -1.10668 0
M  V30 7460 C 674.944 -0.810086 -2.18997 0
M  V30 7461 C 675.925 0.225065 -1.68604 0
M  V30 7462 O 677.11 0.086783 -1.94006 0
M  V30 7463 C 674.24 -0.261262 -3.46316 0
M  V30 7464 C 673.194 -1.2292 -4.09969 0
M  V30 7465 C 672.52 -0.540713 -5.31959 0
M  V30 7466 C 673.82 -2.58295 -4.53962 0
M  V30 7467 H 675.514 -1.7159 -2.45352 0
M  V30 7468 H 673.06 -0.82646 -1.17922 0
M  V30 7469 H 675.013 -0.0307522 -4.21389 0
M  V30 7470 H 673.737 0.679879 -3.19445 0
M  V30 7471 H 672.396 -1.44548 -3.369 0
M  V30 7472 H 672.044 0.405492 -5.01363 0
M  V30 7473 H 671.744 -1.18637 -5.75499 0
M  V30 7474 H 673.268 -0.319184 -6.09765 0
M  V30 7475 H 674.682 -2.40709 -5.20319 0
M  V30 7476 H 673.079 -3.18916 -5.08343 0
M  V30 7477 H 674.149 -3.16918 -3.67002 0
M  V30 7478 N 675.492 1.28418 -0.913599 0
M  V30 7479 C 676.422 2.29713 -0.418847 0
M  V30 7480 C 677.403 1.62165 0.513469 0
M  V30 7481 O 678.588 1.89576 0.421235 0
M  V30 7482 C 675.718 3.45612 0.342042 0
M  V30 7483 C 674.672 4.25056 -0.501123 0
M  V30 7484 C 673.998 5.3329 0.388097 0
M  V30 7485 C 675.298 4.91814 -1.75831 0
M  V30 7486 H 676.992 2.71346 -1.26538 0
M  V30 7487 H 674.538 1.30446 -0.609903 0
M  V30 7488 H 676.491 4.15562 0.699 0
M  V30 7489 H 675.215 3.02858 1.22248 0
M  V30 7490 H 673.874 3.56833 -0.840598 0
M  V30 7491 H 673.522 4.8678 1.26707 0
M  V30 7492 H 673.222 5.87347 -0.172459 0
M  V30 7493 H 674.746 6.06088 0.74094 0
M  V30 7494 H 676.16 5.54126 -1.47026 0
M  V30 7495 H 674.557 5.55866 -2.26126 0
M  V30 7496 H 675.627 4.16313 -2.4862 0
M  V30 7497 N 676.97 0.677563 1.42291 0
M  V30 7498 C 678.216 0.209962 2.02313 0
M  V30 7499 C 678.571 -1.1714 1.52631 0
M  V30 7500 O 677.864 -1.7756 0.719938 0
M  V30 7501 C 678.058 0.187229 3.56909 0
M  V30 7502 C 677.887 1.56484 4.21595 0
M  V30 7503 C 676.657 2.16329 4.56651 0
M  V30 7504 C 678.855 2.50805 4.49 0
M  V30 7505 N 676.837 3.46842 5.06531 0
M  V30 7506 C 678.208 3.65976 5.00461 0
M  V30 7507 C 680.263 2.493 4.30992 0
M  V30 7508 C 678.966 4.79899 5.35807 0
M  V30 7509 C 680.992 3.62322 4.67415 0
M  V30 7510 C 680.354 4.76221 5.19031 0
M  V30 7511 H 676.453 0.121815 0.772454 0
M  V30 7512 H 679.037 0.891148 1.73109 0
M  V30 7513 H 677.208 -0.46338 3.85626 0
M  V30 7514 H 678.94 -0.293512 4.03634 0
M  V30 7515 H 675.695 1.6879 4.42501 0
M  V30 7516 H 676.119 4.13694 5.35898 0
M  V30 7517 H 680.761 1.62467 3.90339 0
M  V30 7518 H 678.479 5.67406 5.75392 0
M  V30 7519 H 682.065 3.62388 4.55155 0
M  V30 7520 H 680.945 5.62228 5.46689 0
M  V30 7521 N 678.448 -1.51871 0.421078 0
M  V30 7522 C 679.378 -2.30231 -0.389363 0
M  V30 7523 C 680.359 -1.34946 -1.03555 0
M  V30 7524 O 681.544 -1.63859 -1.04229 0
M  V30 7525 C 678.674 -3.13247 -1.49979 0
M  V30 7526 C 677.628 -4.16677 -0.977966 0
M  V30 7527 C 676.954 -4.88112 -2.1829 0
M  V30 7528 C 678.254 -5.22295 -0.0236775 0
M  V30 7529 H 679.948 -2.98229 0.264524 0
M  V30 7530 H 677.494 -1.43424 0.12866 0
M  V30 7531 H 679.447 -3.66838 -2.07383 0
M  V30 7532 H 678.171 -2.4304 -2.18173 0
M  V30 7533 H 676.83 -3.64114 -0.426245 0
M  V30 7534 H 676.478 -4.14423 -2.85066 0
M  V30 7535 H 676.178 -5.58041 -1.84021 0
M  V30 7536 H 677.702 -5.44521 -2.76278 0
M  V30 7537 H 679.116 -5.71055 -0.506899 0
M  V30 7538 H 677.513 -5.99656 0.230782 0
M  V30 7539 H 678.583 -4.76131 0.917999 0
M  V30 7540 N 679.926 -0.151884 -1.56866 0
M  V30 7541 C 680.874 0.80299 -2.183 0
M  V30 7542 C 681.868 1.25174 -1.14139 0
M  V30 7543 O 683.074 1.21966 -1.3238 0
M  V30 7544 H 679.449 0.277169 -0.699057 0
M  V30 7545 H 681.42 0.260699 -2.97259 0
M  V30 7546 C 680.169 2.03009 -2.82281 0
M  V30 7547 H 679.492 1.69377 -3.62148 0
M  V30 7548 H 680.932 2.67753 -3.28762 0
M  V30 7549 C 679.391 2.84123 -1.81041 0
M  V30 7550 O 679.921 3.8063 -1.28388 0
M  V30 7551 N 678.127 2.48753 -1.50234 0
M  V30 7552 H 677.674 1.70337 -1.93244 0
M  V30 7553 H 677.632 3.03316 -0.827445 0
M  V30 7554 N 681.404 1.57128 0.121893 0
M  V30 7555 C 682.334 2.03165 1.15092 0
M  V30 7556 C 683.315 0.915587 1.43356 0
M  V30 7557 O 684.5 1.1851 1.53847 0
M  V30 7558 C 681.63 2.43352 2.47784 0
M  V30 7559 C 680.584 3.58376 2.33989 0
M  V30 7560 C 679.91 3.84454 3.71617 0
M  V30 7561 C 681.21 4.90199 1.80283 0
M  V30 7562 H 682.904 2.89382 0.768023 0
M  V30 7563 H 680.45 1.39218 0.367998 0
M  V30 7564 H 682.403 2.74163 3.20019 0
M  V30 7565 H 681.127 1.54103 2.87958 0
M  V30 7566 H 679.786 3.2777 1.64202 0
M  V30 7567 H 679.434 2.92414 4.09271 0
M  V30 7568 H 679.134 4.61877 3.6324 0
M  V30 7569 H 680.658 4.17714 4.45362 0
M  V30 7570 H 682.072 5.19565 2.42333 0
M  V30 7571 H 680.469 5.71601 1.82735 0
M  V30 7572 H 681.539 4.78904 0.760184 0
M  V30 7573 N 682.882 -0.391992 1.52647 0
M  V30 7574 C 684.13 -1.13507 1.67214 0
M  V30 7575 C 684.451 -1.90575 0.41304 0
M  V30 7576 O 683.721 -1.87348 -0.572498 0
M  V30 7577 H 682.301 -0.422013 0.616372 0
M  V30 7578 H 684.963 -0.44502 1.89751 0
M  V30 7579 H 684.059 -1.83964 2.52118 0
M  V30 7580 N 684.36 -1.4356 -0.65026 0
M  V30 7581 C 685.771 -1.40324 -1.2315 0
M  V30 7582 C 686.122 -0.108812 -1.95898 0
M  V30 7583 O 685.247 0.79163 -2.01401 0
M  V30 7584 C 685.842 -2.54195 -2.23987 0
M  V30 7585 C 684.401 -2.54215 -2.77582 0
M  V30 7586 C 683.548 -2.31752 -1.5227 0
M  V30 7587 H 686.499 -1.52418 -0.442095 0
M  V30 7588 H 686.52 -2.25854 -3.0622 0
M  V30 7589 H 686.032 -3.48392 -1.71011 0
M  V30 7590 H 684.133 -1.63907 -3.34612 0
M  V30 7591 H 684.246 -3.52081 -3.24925 0
M  V30 7592 H 682.61 -1.80476 -1.79723 0
M  V30 7593 H 683.393 -3.28037 -1.01225 0
M  V30 7594 N 685.838 0.888903 -1.30139 0
M  V30 7595 C 687.063 1.67884 -1.21777 0
M  V30 7596 C 687.488 1.86848 0.216689 0
M  V30 7597 O 686.846 1.39659 1.15608 0
M  V30 7598 C 686.894 3.03483 -1.94757 0
M  V30 7599 O 685.998 3.92294 -1.27198 0
M  V30 7600 H 685.339 0.513144 -0.421402 0
M  V30 7601 H 687.869 1.10968 -1.71893 0
M  V30 7602 H 687.879 3.53553 -2.03627 0
M  V30 7603 H 686.554 2.89 -2.99085 0
M  V30 7604 H 685.131 3.50732 -1.26655 0
M  V30 7605 N 687.317 1.12792 1.10072 0
M  V30 7606 C 688.563 0.886857 1.82381 0
M  V30 7607 C 688.896 -0.58576 1.85155 0
M  V30 7608 O 688.171 -1.43317 1.31493 0
M  V30 7609 C 688.454 1.46703 3.28862 0
M  V30 7610 C 688.307 3.00829 3.34398 0
M  V30 7611 C 689.626 1.12971 4.25353 0
M  V30 7612 H 686.745 0.32362 0.662148 0
M  V30 7613 H 689.387 1.39513 1.28982 0
M  V30 7614 H 687.537 1.03476 3.74466 0
M  V30 7615 H 689.209 3.52764 2.97247 0
M  V30 7616 H 687.452 3.36164 2.74183 0
M  V30 7617 H 688.123 3.36519 4.3756 0
M  V30 7618 H 690.599 1.50313 3.88001 0
M  V30 7619 H 689.475 1.56223 5.26199 0
M  V30 7620 H 689.736 0.0424452 4.4208 0
M  V30 7621 N 688.795 -1.27931 0.920396 0
M  V30 7622 C 689.725 -2.29487 0.431024 0
M  V30 7623 C 690.706 -1.62435 -0.504861 0
M  V30 7624 O 691.891 -1.89797 -0.411176 0
M  V30 7625 C 689.021 -3.45788 -0.323709 0
M  V30 7626 C 687.975 -4.24784 0.523658 0
M  V30 7627 C 687.301 -5.33488 -0.359809 0
M  V30 7628 C 688.601 -4.90874 1.78437 0
M  V30 7629 H 690.295 -2.70671 1.27975 0
M  V30 7630 H 687.841 -1.30121 0.616813 0
M  V30 7631 H 689.794 -4.15927 -0.676952 0
M  V30 7632 H 688.518 -3.03502 -1.2064 0
M  V30 7633 H 687.177 -3.56382 0.85951 0
M  V30 7634 H 686.825 -4.87445 -1.24124 0
M  V30 7635 H 686.525 -5.87247 0.203605 0
M  V30 7636 H 688.049 -6.06472 -0.708787 0
M  V30 7637 H 689.463 -5.53339 1.49963 0
M  V30 7638 H 687.86 -5.54659 2.29071 0
M  V30 7639 H 688.93 -4.14988 2.50824 0
M  V30 7640 N 690.273 -0.685099 -1.4193 0
M  V30 7641 C 691.236 -0.0222632 -2.29189 0
M  V30 7642 C 692.236 0.7186 -1.4385 0
M  V30 7643 O 693.426 0.555058 -1.6512 0
M  V30 7644 C 690.558 0.979013 -3.2654 0
M  V30 7645 H 691.751 -0.790424 -2.89296 0
M  V30 7646 H 689.304 -0.448012 -1.49742 0
M  V30 7647 H 690.039 1.77531 -2.71392 0
M  V30 7648 H 689.824 0.451037 -3.89497 0
M  V30 7649 H 691.314 1.44091 -3.91954 0
M  V30 7650 N 691.751 1.51645 -0.429126 0
M  V30 7651 C 692.999 2.01616 0.139802 0
M  V30 7652 C 693.32 1.31568 1.43927 0
M  V30 7653 O 692.59 0.447688 1.90716 0
M  V30 7654 H 691.17 0.744998 0.054654 0
M  V30 7655 H 693.832 1.8638 -0.569952 0
M  V30 7656 H 692.928 3.10439 0.321609 0
M  V30 7657 N 693.229 0.160201 1.56784 0
M  V30 7658 C 694.475 -0.48831 1.96833 0
M  V30 7659 C 694.808 -1.63641 1.04571 0
M  V30 7660 O 694.083 -1.94289 0.0906481 0
M  V30 7661 C 694.366 -0.981908 3.46454 0
M  V30 7662 C 694.219 0.165607 4.49495 0
M  V30 7663 C 695.538 -1.85931 3.98896 0
M  V30 7664 H 692.657 -0.176027 0.71567 0
M  V30 7665 H 695.299 0.244093 1.88426 0
M  V30 7666 H 693.449 -1.60602 3.5375 0
M  V30 7667 H 695.121 0.802372 4.54268 0
M  V30 7668 H 693.364 0.822789 4.25926 0
M  V30 7669 H 694.035 -0.221699 5.51555 0
M  V30 7670 H 696.511 -1.33327 3.94161 0
M  V30 7671 H 695.387 -2.17373 5.04024 0
M  V30 7672 H 695.648 -2.80106 3.42042 0
M  V30 7673 N 694.707 -1.5719 -0.113559 0
M  V30 7674 C 695.67 -1.99796 -1.12314 0
M  V30 7675 C 696.67 -0.888847 -1.34001 0
M  V30 7676 O 697.86 -1.15476 -1.30426 0
M  V30 7677 C 694.992 -2.34279 -2.47641 0
M  V30 7678 H 696.185 -2.90193 -0.756825 0
M  V30 7679 H 693.738 -1.52144 -0.358029 0
M  V30 7680 H 694.473 -1.46778 -2.89183 0
M  V30 7681 H 694.258 -3.15175 -2.33253 0
M  V30 7682 H 695.748 -2.67963 -3.2029 0
M  V30 7683 N 696.185 0.383891 -1.52853 0
M  V30 7684 C 697.431 1.13009 -1.68395 0
M  V30 7685 C 697.764 1.89488 -0.425195 0
M  V30 7686 O 697.039 1.8574 0.577136 0
M  V30 7687 C 697.322 2.10419 -2.92226 0
M  V30 7688 C 697.175 1.3767 -4.28214 0
M  V30 7689 C 698.494 3.10781 -3.11614 0
M  V30 7690 H 695.613 0.409463 -0.612788 0
M  V30 7691 H 698.255 0.412895 -1.85459 0
M  V30 7692 H 696.405 2.71579 -2.77808 0
M  V30 7693 H 698.077 0.794352 -4.54409 0
M  V30 7694 H 696.32 0.678533 -4.2846 0
M  V30 7695 H 696.991 2.08874 -5.10956 0
M  V30 7696 H 699.467 2.59715 -3.25096 0
M  V30 7697 H 698.343 3.76179 -3.99725 0
M  V30 7698 H 698.604 3.79933 -2.2606 0
M  V30 7699 N 697.663 1.43903 0.642637 0
M  V30 7700 C 698.596 1.44339 1.76753 0
M  V30 7701 C 699.574 0.303558 1.59741 0
M  V30 7702 O 700.758 0.498775 1.81781 0
M  V30 7703 C 697.885 1.26508 3.14187 0
M  V30 7704 C 696.931 2.43905 3.49875 0
M  V30 7705 S 697.764 4.0645 3.48653 0
M  V30 7706 C 698.92 3.91021 4.88726 0
M  V30 7707 H 699.153 2.39523 1.76113 0
M  V30 7708 H 696.686 1.31061 0.81623 0
M  V30 7709 H 698.644 1.16908 3.93501 0
M  V30 7710 H 697.305 0.328548 3.12377 0
M  V30 7711 H 696.498 2.27262 4.49853 0
M  V30 7712 H 696.1 2.50186 2.77998 0
M  V30 7713 H 698.392 3.54 5.77659 0
M  V30 7714 H 699.335 4.9079 5.10423 0
M  V30 7715 H 699.743 3.23287 4.62759 0
M  V30 7716 N 699.141 -0.881989 1.30609 0
M  V30 7717 C 700.387 -1.63647 1.19781 0
M  V30 7718 C 700.72 -1.92632 -0.246265 0
M  V30 7719 O 699.995 -1.54938 -1.17577 0
M  V30 7720 C 700.278 -2.97437 2.02985 0
M  V30 7721 C 700.131 -2.75406 3.55628 0
M  V30 7722 C 701.45 -3.98397 1.86997 0
M  V30 7723 H 698.569 -0.593841 0.436488 0
M  V30 7724 H 701.211 -1.02041 1.60273 0
M  V30 7725 H 699.361 -3.50018 1.68581 0
M  V30 7726 H 701.033 -2.2959 4.00107 0
M  V30 7727 H 699.276 -2.09856 3.79662 0
M  V30 7728 H 699.947 -3.70552 4.09139 0
M  V30 7729 H 702.423 -3.54986 2.17081 0
M  V30 7730 H 701.299 -4.89916 2.47536 0
M  V30 7731 H 701.56 -4.3424 0.829943 0
M  V30 7732 N 700.619 -1.13374 -1.09472 0
M  V30 7733 C 701.549 -0.833268 -2.18126 0
M  V30 7734 C 702.53 0.207169 -1.68834 0
M  V30 7735 O 703.715 0.0662012 -1.94087 0
M  V30 7736 C 700.845 -0.297979 -3.46019 0
M  V30 7737 C 699.799 -1.27261 -4.08642 0
M  V30 7738 C 699.125 -0.597104 -5.31356 0
M  V30 7739 C 700.425 -2.63095 -4.51197 0
M  V30 7740 H 702.119 -1.74182 -2.43518 0
M  V30 7741 H 699.665 -0.838921 -1.17039 0
M  V30 7742 H 701.618 -0.0754444 -4.21332 0
M  V30 7743 H 700.342 0.645959 -3.20148 0
M  V30 7744 H 699.001 -1.48113 -3.35348 0
M  V30 7745 H 698.649 0.352293 -5.01765 0
M  V30 7746 H 698.349 -1.24734 -5.74208 0
M  V30 7747 H 699.873 -0.38384 -6.09392 0
M  V30 7748 H 701.287 -2.46214 -5.17737 0
M  V30 7749 H 699.684 -3.2429 -5.04932 0
M  V30 7750 H 700.754 -3.20793 -3.6362 0
M  V30 7751 N 702.098 1.27442 -0.927168 0
M  V30 7752 C 703.031 2.25177 -0.370232 0
M  V30 7753 C 704.009 1.53612 0.533103 0
M  V30 7754 O 705.193 1.8245 0.47373 0
M  V30 7755 C 702.32 3.35431 0.469411 0
M  V30 7756 C 701.366 4.24888 -0.370419 0
M  V30 7757 S 702.199 5.04852 -1.78562 0
M  V30 7758 C 703.355 6.18592 -0.953651 0
M  V30 7759 H 703.588 2.72069 -1.19858 0
M  V30 7760 H 701.121 1.36089 -0.729316 0
M  V30 7761 H 703.079 3.99404 0.947992 0
M  V30 7762 H 701.74 2.87179 1.27228 0
M  V30 7763 H 700.933 5.03264 0.272226 0
M  V30 7764 H 700.535 3.65709 -0.783153 0
M  V30 7765 H 702.827 6.77235 -0.189408 0
M  V30 7766 H 703.77 6.87132 -1.7104 0
M  V30 7767 H 704.178 5.62318 -0.495897 0
M  V30 7768 N 703.576 0.692616 1.41565 0
M  V30 7769 C 704.822 0.222664 2.01574 0
M  V30 7770 C 705.155 -1.1737 1.54719 0
M  V30 7771 O 704.43 -1.79161 0.757084 0
M  V30 7772 C 704.713 0.277064 3.59033 0
M  V30 7773 C 704.566 1.71016 4.16021 0
M  V30 7774 C 705.885 -0.36479 4.38586 0
M  V30 7775 H 703.004 0.0823839 0.732381 0
M  V30 7776 H 705.646 0.880778 1.68352 0
M  V30 7777 H 703.796 -0.283288 3.87466 0
M  V30 7778 H 705.468 2.32413 3.98475 0
M  V30 7779 H 703.711 2.24525 3.71175 0
M  V30 7780 H 704.382 1.69978 5.25178 0
M  V30 7781 H 706.858 0.112404 4.15948 0
M  V30 7782 H 705.734 -0.296169 5.481 0
M  V30 7783 H 705.995 -1.44506 4.17816 0
M  V30 7784 N 705.054 -1.51416 0.437162 0
M  V30 7785 C 706.465 -1.86682 -0.0260005 0
M  V30 7786 C 706.816 -1.35432 -1.4196 0
M  V30 7787 O 705.941 -0.705055 -2.04592 0
M  V30 7788 C 706.536 -3.38757 -0.0539577 0
M  V30 7789 C 705.095 -3.7356 -0.461532 0
M  V30 7790 C 704.242 -2.75134 0.345924 0
M  V30 7791 H 707.193 -1.44642 0.653013 0
M  V30 7792 H 707.214 -3.70573 -0.863478 0
M  V30 7793 H 706.726 -3.76028 0.96045 0
M  V30 7794 H 704.827 -3.41878 -1.48155 0
M  V30 7795 H 704.94 -4.78737 -0.186451 0
M  V30 7796 H 703.304 -2.53947 -0.195739 0
M  V30 7797 H 704.087 -3.15247 1.35921 0
M  V30 7798 N 706.532 -0.168513 -1.56696 0
M  V30 7799 C 707.778 0.477865 -1.9709 0
M  V30 7800 C 708.111 1.63084 -1.05438 0
M  V30 7801 O 707.386 1.94238 -0.10095 0
M  V30 7802 C 707.669 0.963521 -3.4697 0
M  V30 7803 C 707.522 -0.189443 -4.49401 0
M  V30 7804 C 708.841 1.83813 -3.99876 0
M  V30 7805 H 705.96 0.172229 -0.716593 0
M  V30 7806 H 708.602 -0.254083 -1.88293 0
M  V30 7807 H 706.752 1.58724 -3.54597 0
M  V30 7808 H 708.424 -0.826451 -4.53836 0
M  V30 7809 H 706.667 -0.845366 -4.25483 0
M  V30 7810 H 707.338 0.192446 -5.51664 0
M  V30 7811 H 709.814 1.31235 -3.94863 0
M  V30 7812 H 708.69 2.14697 -5.0517 0
M  V30 7813 H 708.951 2.78289 -3.43523 0
M  V30 7814 N 708.01 1.57248 0.105221 0
M  V30 7815 C 708.958 2.02337 1.14728 0
M  V30 7816 C 709.952 0.922652 1.42069 0
M  V30 7817 O 711.158 1.10785 1.41869 0
M  V30 7818 H 707.533 0.644682 0.387155 0
M  V30 7819 H 709.504 2.89063 0.740607 0
M  V30 7820 C 708.253 2.45513 2.46209 0
M  V30 7821 H 707.576 3.29785 2.26013 0
M  V30 7822 H 709.016 2.80846 3.1765 0
M  V30 7823 C 707.475 1.3243 3.09781 0
M  V30 7824 O 708.005 0.647841 3.96442 0
M  V30 7825 N 706.211 1.07785 2.69872 0
M  V30 7826 H 705.758 1.62973 1.99493 0
M  V30 7827 H 705.716 0.323204 3.12734 0
M  V30 7828 N 709.488 -0.375779 1.53054 0
M  V30 7829 C 710.451 -1.44254 1.7811 0
M  V30 7830 C 711.451 -1.47018 0.651328 0
M  V30 7831 O 712.641 -1.47957 0.919472 0
M  V30 7832 C 709.773 -2.8345 1.89391 0
M  V30 7833 H 710.966 -1.23316 2.73374 0
M  V30 7834 H 708.519 -0.608312 1.43977 0
M  V30 7835 H 709.254 -3.09716 0.961589 0
M  V30 7836 H 709.039 -2.82844 2.71555 0
M  V30 7837 H 710.529 -3.60722 2.10404 0
M  V30 7838 N 710.966 -1.44241 -0.634997 0
M  V30 7839 C 712.212 -1.47038 -1.39669 0
M  V30 7840 C 712.545 -0.101122 -1.93937 0
M  V30 7841 O 711.82 0.880699 -1.73418 0
M  V30 7842 C 712.103 -2.52763 -2.56482 0
M  V30 7843 C 711.956 -3.99032 -2.07589 0
M  V30 7844 C 713.275 -2.55031 -3.58674 0
M  V30 7845 H 710.394 -0.53537 -0.506506 0
M  V30 7846 H 713.036 -1.75898 -0.718317 0
M  V30 7847 H 711.186 -2.28284 -3.14354 0
M  V30 7848 H 712.858 -4.3463 -1.54577 0
M  V30 7849 H 711.101 -4.10994 -1.38804 0
M  V30 7850 H 711.772 -4.68649 -2.91671 0
M  V30 7851 H 714.248 -2.76893 -3.10595 0
M  V30 7852 H 713.124 -3.30916 -4.37934 0
M  V30 7853 H 713.385 -1.59085 -4.12486 0
M  V30 7854 N 712.444 0.87505 -1.31075 0
M  V30 7855 C 713.377 1.98471 -1.12625 0
M  V30 7856 C 714.355 1.6257 -0.0311379 0
M  V30 7857 O 715.539 1.87574 -0.186594 0
M  V30 7858 C 712.666 3.30963 -0.719799 0
M  V30 7859 C 711.712 3.85849 -1.81722 0
M  V30 7860 S 712.545 4.11926 -3.42165 0
M  V30 7861 C 713.701 5.47423 -3.03445 0
M  V30 7862 H 713.934 2.13817 -2.06566 0
M  V30 7863 H 711.467 1.02463 -1.15502 0
M  V30 7864 H 713.425 4.07541 -0.492035 0
M  V30 7865 H 712.086 3.1346 0.200413 0
M  V30 7866 H 711.279 4.81616 -1.48533 0
M  V30 7867 H 710.881 3.16046 -1.99977 0
M  V30 7868 H 713.173 6.28881 -2.52023 0
M  V30 7869 H 714.116 5.85557 -3.98157 0
M  V30 7870 H 714.524 5.10455 -2.41031 0
M  V30 7871 N 713.922 1.13953 1.08869 0
M  V30 7872 C 714.885 0.824991 2.13838 0
M  V30 7873 C 715.885 -0.168198 1.59918 0
M  V30 7874 O 717.075 0.0595778 1.74098 0
M  V30 7875 C 714.207 0.228938 3.4013 0
M  V30 7876 H 715.4 1.75521 2.43171 0
M  V30 7877 H 712.953 0.94492 1.24503 0
M  V30 7878 H 713.688 -0.710227 3.16427 0
M  V30 7879 H 713.473 0.944243 3.80561 0
M  V30 7880 H 714.963 0.0259223 4.17592 0
M  V30 7881 N 715.4 -1.26948 0.933913 0
M  V30 7882 C 716.333 -2.24977 0.382169 0
M  V30 7883 C 717.311 -1.53893 -0.524949 0
M  V30 7884 O 718.495 -1.82699 -0.464048 0
M  V30 7885 C 715.622 -3.35676 -0.451615 0
M  V30 7886 C 714.668 -4.24686 0.392947 0
M  V30 7887 S 715.501 -5.03898 1.81237 0
M  V30 7888 C 716.657 -6.18078 0.986443 0
M  V30 7889 H 716.89 -2.71429 1.21299 0
M  V30 7890 H 714.423 -1.35701 0.736523 0
M  V30 7891 H 716.381 -3.99901 -0.926797 0
M  V30 7892 H 715.042 -2.8785 -1.25703 0
M  V30 7893 H 714.235 -5.03402 -0.245533 0
M  V30 7894 H 713.837 -3.65288 0.802537 0
M  V30 7895 H 716.129 -6.77125 0.225321 0
M  V30 7896 H 717.072 -6.86216 1.74682 0
M  V30 7897 H 717.48 -5.62047 0.525711 0
M  V30 7898 N 716.879 -0.700114 -1.41195 0
M  V30 7899 C 717.826 -0.0376652 -2.30769 0
M  V30 7900 C 718.796 0.766544 -1.47354 0
M  V30 7901 O 719.981 0.73365 -1.76131 0
M  V30 7902 C 717.121 0.889452 -3.33441 0
M  V30 7903 C 716.234 0.076373 -4.31932 0
M  V30 7904 C 715.369 1.00155 -5.21673 0
M  V30 7905 C 714.408 0.181644 -6.1183 0
M  V30 7906 N 713.545 1.06087 -6.94039 0
M  V30 7907 H 718.385 -0.80726 -2.86858 0
M  V30 7908 H 715.922 -0.409798 -1.41277 0
M  V30 7909 H 717.88 1.44107 -3.91522 0
M  V30 7910 H 716.51 1.6254 -2.78892 0
M  V30 7911 H 715.562 -0.592223 -3.75762 0
M  V30 7912 H 716.874 -0.559076 -4.95657 0
M  V30 7913 H 716.028 1.62223 -5.8461 0
M  V30 7914 H 714.767 1.67085 -4.58186 0
M  V30 7915 H 713.772 -0.452085 -5.47938 0
M  V30 7916 H 714.997 -0.483925 -6.77374 0
M  V30 7917 H 712.943 1.7161 -6.33156 0
M  V30 7918 H 712.86 0.481094 -7.54468 0
M  V30 7919 H 714.128 1.66822 -7.6144 0
M  V30 7920 N 718.357 1.51182 -0.445186 0
M  V30 7921 C 719.585 2.06568 0.117091 0
M  V30 7922 C 720 1.31182 1.35781 0
M  V30 7923 O 719.357 0.373605 1.78635 0
M  V30 7924 C 719.408 3.58917 0.431408 0
M  V30 7925 O 719.129 4.31456 -0.760078 0
M  V30 7926 C 720.63 4.30843 1.0435 0
M  V30 7927 H 717.85 0.670985 0.00444436 0
M  V30 7928 H 720.394 1.94666 -0.626525 0
M  V30 7929 H 718.549 3.70708 1.12493 0
M  V30 7930 H 718.963 5.22215 -0.489048 0
M  V30 7931 H 720.437 5.38499 1.21337 0
M  V30 7932 H 720.914 3.89644 2.02667 0
M  V30 7933 H 721.52 4.23516 0.38913 0
M  V30 7934 N 719.835 0.176821 1.56605 0
M  V30 7935 C 720.782 -0.751312 2.18229 0
M  V30 7936 C 721.752 -1.22297 1.12395 0
M  V30 7937 O 722.937 -1.29015 1.40569 0
M  V30 7938 C 720.077 -1.97291 2.83143 0
M  V30 7939 C 719.19 -1.54431 4.03454 0
M  V30 7940 C 718.325 -2.72 4.56278 0
M  V30 7941 C 717.364 -2.25657 5.68986 0
M  V30 7942 N 716.501 -3.36338 6.16296 0
M  V30 7943 H 721.341 -0.219033 2.97194 0
M  V30 7944 H 718.878 -0.0963803 1.46784 0
M  V30 7945 H 720.836 -2.68949 3.1894 0
M  V30 7946 H 719.466 -2.4788 2.06773 0
M  V30 7947 H 718.518 -0.724273 3.73441 0
M  V30 7948 H 719.83 -1.16417 4.85024 0
M  V30 7949 H 718.984 -3.51806 4.94285 0
M  V30 7950 H 717.723 -3.13277 3.73777 0
M  V30 7951 H 716.728 -1.44299 5.30526 0
M  V30 7952 H 717.953 -1.85432 6.53293 0
M  V30 7953 H 715.899 -3.7718 5.36723 0
M  V30 7954 H 715.816 -3.02435 6.9287 0
M  V30 7955 H 717.084 -4.16413 6.58954 0
M  V30 7956 N 721.313 -1.57302 -0.09688 0
M  V30 7957 C 722.541 -1.90202 -0.814295 0
M  V30 7958 C 722.956 -0.770344 -1.72369 0
M  V30 7959 O 722.313 0.257764 -1.8067 0
M  V30 7960 C 722.364 -3.22708 -1.62916 0
M  V30 7961 O 722.085 -4.31522 -0.756343 0
M  V30 7962 C 723.586 -3.69459 -2.44979 0
M  V30 7963 H 720.806 -0.629275 -0.232925 0
M  V30 7964 H 723.35 -2.04364 -0.0746482 0
M  V30 7965 H 721.505 -3.1015 -2.32133 0
M  V30 7966 H 721.919 -5.07604 -1.32054 0
M  V30 7967 H 723.393 -4.64875 -2.9765 0
M  V30 7968 H 723.87 -2.97211 -3.23361 0
M  V30 7969 H 724.476 -3.84879 -1.80964 0
M  V30 7970 N 722.791 0.367657 -1.53252 0
M  V30 7971 C 724.021 1.12955 -1.72988 0
M  V30 7972 C 724.429 1.8358 -0.457708 0
M  V30 7973 O 723.772 1.74336 0.579006 0
M  V30 7974 C 723.834 2.20545 -2.83902 0
M  V30 7975 C 723.498 1.69704 -4.24323 0
M  V30 7976 C 724.495 1.16223 -5.06743 0
M  V30 7977 C 722.18 1.7528 -4.70725 0
M  V30 7978 C 724.174 0.689935 -6.33655 0
M  V30 7979 C 721.861 1.27662 -5.97617 0
M  V30 7980 C 722.859 0.746083 -6.78913 0
M  V30 7981 O 722.547 0.276925 -8.03423 0
M  V30 7982 H 722.279 0.343753 -0.582074 0
M  V30 7983 H 724.833 0.433106 -2.00782 0
M  V30 7984 H 723.063 2.93676 -2.51577 0
M  V30 7985 H 724.752 2.82111 -2.91836 0
M  V30 7986 H 725.518 1.11256 -4.72067 0
M  V30 7987 H 721.397 2.15515 -4.07522 0
M  V30 7988 H 724.941 0.275164 -6.97057 0
M  V30 7989 H 720.838 1.32322 -6.31792 0
M  V30 7990 H 721.606 0.396445 -8.17539 0
M  V30 7991 N 724.269 1.44576 0.627338 0
M  V30 7992 C 725.201 1.47724 1.75243 0
M  V30 7993 C 726.214 0.370193 1.58535 0
M  V30 7994 O 727.403 0.636151 1.66779 0
M  V30 7995 C 724.503 1.2991 3.13012 0
M  V30 7996 C 723.676 2.5393 3.56143 0
M  V30 7997 C 722.735 2.30961 4.72804 0
M  V30 7998 O 721.761 3.04469 4.80923 0
M  V30 7999 N 722.963 1.34261 5.6476 0
M  V30 8000 H 725.728 2.44718 1.73012 0
M  V30 8001 H 723.289 1.40064 0.812022 0
M  V30 8002 H 725.281 1.12385 3.88782 0
M  V30 8003 H 723.851 0.412668 3.09864 0
M  V30 8004 H 723.071 2.86707 2.70542 0
M  V30 8005 H 724.359 3.36411 3.81713 0
M  V30 8006 H 723.757 0.735573 5.60897 0
M  V30 8007 H 722.314 1.22713 6.40144 0
M  V30 8008 N 725.747 -0.868086 1.31537 0
M  V30 8009 C 726.993 -1.62367 1.2151 0
M  V30 8010 C 727.326 -1.92883 -0.225819 0
M  V30 8011 O 726.601 -1.56176 -1.15927 0
M  V30 8012 C 726.884 -2.95268 2.06129 0
M  V30 8013 C 726.737 -2.71619 3.58529 0
M  V30 8014 C 728.056 -3.96391 1.91212 0
M  V30 8015 H 725.175 -0.589178 0.442762 0
M  V30 8016 H 727.817 -1.00336 1.61347 0
M  V30 8017 H 725.967 -3.4821 1.72284 0
M  V30 8018 H 727.639 -2.25334 4.0252 0
M  V30 8019 H 725.882 -2.05817 3.81866 0
M  V30 8020 H 726.553 -3.66192 4.13047 0
M  V30 8021 H 729.029 -3.52663 2.20834 0
M  V30 8022 H 727.905 -4.87263 2.52718 0
M  V30 8023 H 728.166 -4.33335 0.875953 0
M  V30 8024 N 727.225 -1.14528 -1.08264 0
M  V30 8025 C 728.188 -0.83632 -2.13397 0
M  V30 8026 C 729.188 0.159715 -1.60005 0
M  V30 8027 O 730.378 -0.0688098 -1.74064 0
M  V30 8028 C 727.51 -0.246973 -3.40004 0
M  V30 8029 H 728.703 -1.76808 -2.42237 0
M  V30 8030 H 726.256 -0.951509 -1.24 0
M  V30 8031 H 726.991 0.693436 -3.168 0
M  V30 8032 H 726.776 -0.964412 -3.80055 0
M  V30 8033 H 728.266 -0.0480679 -4.17572 0
M  V30 8034 N 728.703 1.26451 -0.940633 0
M  V30 8035 C 729.653 2.24086 -0.420669 0
M  V30 8036 C 730.637 1.53501 0.482301 0
M  V30 8037 O 731.829 1.74127 0.317636 0
M  V30 8038 C 728.958 3.41866 0.313452 0
M  V30 8039 C 728.044 4.19737 -0.606779 0
M  V30 8040 N 728.435 4.7521 -1.73232 0
M  V30 8041 C 726.733 4.44091 -0.41226 0
M  V30 8042 C 727.434 5.34052 -2.30572 0
M  V30 8043 N 726.41 5.1971 -1.59381 0
M  V30 8044 H 730.212 2.64569 -1.27986 0
M  V30 8045 H 727.726 1.4153 -0.796436 0
M  V30 8046 H 729.723 4.1093 0.702991 0
M  V30 8047 H 728.383 3.0291 1.16942 0
M  V30 8048 H 729.394 4.72769 -2.11447 0
M  V30 8049 H 726.071 4.1556 0.401984 0
M  V30 8050 H 727.461 5.87845 -3.25404 0
M  V30 8051 N 730.181 0.707592 1.40822 0
M  V30 8052 C 731.114 -0.000859377 2.282 0
M  V30 8053 C 732.092 -0.7758 1.42899 0
M  V30 8054 O 733.276 -0.76411 1.72318 0
M  V30 8055 C 730.403 -1.00861 3.23334 0
M  V30 8056 C 729.449 -0.32543 4.25257 0
M  V30 8057 S 730.282 0.940908 5.27169 0
M  V30 8058 C 731.438 -0.0649459 6.25866 0
M  V30 8059 H 731.671 0.740207 2.87938 0
M  V30 8060 H 729.204 0.498311 1.46138 0
M  V30 8061 H 731.162 -1.58485 3.78672 0
M  V30 8062 H 729.823 -1.72233 2.62668 0
M  V30 8063 H 729.016 -1.08697 4.92139 0
M  V30 8064 H 728.618 0.178044 3.73576 0
M  V30 8065 H 730.91 -0.914377 6.71301 0
M  V30 8066 H 731.853 0.570276 7.058 0
M  V30 8067 H 732.261 -0.425098 5.62897 0
M  V30 8068 N 731.66 -1.50943 0.453197 0
M  V30 8069 C 732.607 -2.28128 -0.350197 0
M  V30 8070 C 733.577 -1.32398 -1.00299 0
M  V30 8071 O 734.762 -1.61319 -1.01887 0
M  V30 8072 C 731.902 -3.13782 -1.43649 0
M  V30 8073 C 731.015 -4.24523 -0.800255 0
M  V30 8074 C 730.15 -4.97462 -1.86293 0
M  V30 8075 C 729.189 -6.00102 -1.20598 0
M  V30 8076 N 728.326 -6.66387 -2.21071 0
M  V30 8077 H 733.166 -2.96337 0.31434 0
M  V30 8078 H 730.703 -1.46151 0.166863 0
M  V30 8079 H 732.661 -3.6178 -2.07776 0
M  V30 8080 H 731.291 -2.47655 -2.07044 0
M  V30 8081 H 730.343 -3.80371 -0.0468651 0
M  V30 8082 H 731.655 -4.98009 -0.280777 0
M  V30 8083 H 730.809 -5.49088 -2.58044 0
M  V30 8084 H 729.548 -4.23642 -2.41617 0
M  V30 8085 H 728.553 -5.47753 -0.474 0
M  V30 8086 H 729.778 -6.75887 -0.659859 0
M  V30 8087 H 727.724 -5.9537 -2.75446 0
M  V30 8088 H 727.641 -7.3569 -1.74058 0
M  V30 8089 H 728.909 -7.22638 -2.92257 0
M  V30 8090 N 733.138 -0.185124 -1.56509 0
M  V30 8091 C 734.363 0.465278 -2.02114 0
M  V30 8092 C 734.788 1.55083 -1.06447 0
M  V30 8093 O 734.146 1.81241 -0.0462852 0
M  V30 8094 C 734.194 1.00784 -3.46229 0
M  V30 8095 O 733.298 2.12123 -3.53663 0
M  V30 8096 H 732.639 0.109891 -0.654843 0
M  V30 8097 H 735.169 -0.293072 -2.0249 0
M  V30 8098 H 735.179 1.32697 -3.85818 0
M  V30 8099 H 733.854 0.213113 -4.15354 0
M  V30 8100 H 732.431 1.8115 -3.25943 0
M  V30 8101 N 734.616 1.57351 0.0885366 0
M  V30 8102 C 735.563 2.02523 1.10693 0
M  V30 8103 C 736.533 0.902736 1.39427 0
M  V30 8104 O 737.718 1.16921 1.50779 0
M  V30 8105 C 734.858 2.46013 2.42016 0
M  V30 8106 C 733.971 3.7181 2.19957 0
M  V30 8107 C 733.106 4.04152 3.44724 0
M  V30 8108 C 732.145 5.2304 3.17956 0
M  V30 8109 N 731.282 5.51102 4.35007 0
M  V30 8110 H 736.122 2.89302 0.714742 0
M  V30 8111 H 733.659 1.43084 0.341378 0
M  V30 8112 H 735.617 2.69274 3.18665 0
M  V30 8113 H 734.247 1.62235 2.79069 0
M  V30 8114 H 733.299 3.55987 1.34079 0
M  V30 8115 H 734.611 4.58604 1.96173 0
M  V30 8116 H 733.765 4.28225 4.29777 0
M  V30 8117 H 732.504 3.15893 3.71568 0
M  V30 8118 H 731.509 4.98781 2.31296 0
M  V30 8119 H 732.734 6.12902 2.92451 0
M  V30 8120 H 730.68 4.65802 4.61914 0
M  V30 8121 H 730.597 6.3228 4.14437 0
M  V30 8122 H 731.865 5.79714 5.21106 0
M  V30 8123 N 736.094 -0.359525 1.53444 0
M  V30 8124 C 737.371 -1.11756 1.6053 0
M  V30 8125 C 737.751 -2.06949 0.416587 0
M  V30 8126 O 737.099 -2.20681 -0.592628 0
M  V30 8127 C 737.309 -1.85133 2.95849 0
M  V30 8128 C 738.657 -2.3945 3.50641 0
M  V30 8129 O 739.681 -1.95251 2.97918 0
M  V30 8130 O 738.54 -3.20266 4.42823 0
M  V30 8131 H 735.634 -0.513005 0.648656 0
M  V30 8132 H 738.18 -0.362301 1.65787 0
M  V30 8133 H 736.952 -1.15694 3.73806 0
M  V30 8134 H 736.575 -2.67554 2.9411 0
M  V30 8135 N 737.572 -1.44907 -0.619662 0
M  V30 8136 C 738.52 -1.52971 -1.75222 0
M  V30 8137 C 739.514 -0.400531 -1.64597 0
M  V30 8138 O 740.72 -0.575952 -1.70537 0
M  V30 8139 H 737.095 -0.480241 -0.578682 0
M  V30 8140 H 739.066 -2.48269 -1.65545 0
M  V30 8141 C 737.815 -1.50204 -3.13583 0
M  V30 8142 H 737.138 -2.36412 -3.22412 0
M  V30 8143 H 738.578 -1.59905 -3.92691 0
M  V30 8144 C 737.037 -0.22455 -3.36151 0
M  V30 8145 O 737.567 0.700574 -3.95544 0
M  V30 8146 N 735.773 -0.124052 -2.90335 0
M  V30 8147 H 735.32 -0.87774 -2.42185 0
M  V30 8148 H 735.278 0.729914 -3.0581 0
M  V30 8149 N 739.05 0.861098 -1.31996 0
M  V30 8150 C 740.466 1.14827 -1.10846 0
M  V30 8151 C 740.666 2.0117 0.11528 0
M  V30 8152 O 739.722 2.39423 0.802048 0
M  V30 8153 C 741.035 1.83183 -2.38462 0
M  V30 8154 C 742.583 1.95847 -2.44158 0
M  V30 8155 C 743.058 2.67617 -3.71679 0
M  V30 8156 N 744.549 2.75147 -3.72624 0
M  V30 8157 C 745.284 3.31314 -4.67994 0
M  V30 8158 N 744.78 3.88343 -5.73726 0
M  V30 8159 N 746.573 3.29356 -4.55501 0
M  V30 8160 H 738.724 0.285951 -2.10466 0
M  V30 8161 H 740.987 0.189303 -0.928907 0
M  V30 8162 H 740.693 1.27193 -3.27895 0
M  V30 8163 H 740.567 2.83393 -2.48935 0
M  V30 8164 H 742.954 2.50999 -1.55189 0
M  V30 8165 H 743.035 0.94653 -2.37644 0
M  V30 8166 H 742.679 2.13131 -4.61018 0
M  V30 8167 H 742.609 3.69237 -3.75462 0
M  V30 8168 H 745.1 2.34682 -2.96197 0
M  V30 8169 H 745.413 4.29338 -6.42564 0
M  V30 8170 H 743.758 3.86693 -5.77489 0
M  V30 8171 H 746.949 2.84047 -3.72069 0
M  V30 8172 H 747.122 3.7283 -5.30001 0
M  V30 8173 N 740.528 1.15101 1.07655 0
M  V30 8174 C 741.777 0.918528 1.79572 0
M  V30 8175 C 742.09 -0.555922 1.87534 0
M  V30 8176 O 743.296 -0.905893 2.55941 0
M  V30 8177 C 741.752 1.59394 3.22679 0
M  V30 8178 C 741.36 3.1052 3.22927 0
M  V30 8179 C 743.104 1.44289 3.99225 0
M  V30 8180 C 741.011 3.70862 4.60668 0
M  V30 8181 H 739.941 0.340006 0.672987 0
M  V30 8182 H 742.592 1.38079 1.20857 0
M  V30 8183 H 740.974 1.05936 3.81567 0
M  V30 8184 H 742.148 3.70708 2.737 0
M  V30 8185 H 740.463 3.25351 2.59876 0
M  V30 8186 H 743.06 1.86766 5.01022 0
M  V30 8187 H 743.403 0.389975 4.14469 0
M  V30 8188 H 743.936 1.94826 3.46825 0
M  V30 8189 H 740.675 4.7604 4.50628 0
M  V30 8190 H 740.195 3.15456 5.10145 0
M  V30 8191 H 741.874 3.71607 5.29639 0
M  V30 8192 N 742.006 -1.2595 0.947325 0
M  V30 8193 C 742.953 -2.26159 0.460497 0
M  V30 8194 C 743.923 -1.58919 -0.483125 0
M  V30 8195 O 745.108 -1.86603 -0.397983 0
M  V30 8196 C 742.248 -3.441 -0.26247 0
M  V30 8197 C 741.361 -4.25999 0.717539 0
M  V30 8198 C 740.496 -5.31193 -0.0272486 0
M  V30 8199 C 739.535 -6.04774 0.944177 0
M  V30 8200 N 738.672 -7.01721 0.230741 0
M  V30 8201 H 743.512 -2.67173 1.31995 0
M  V30 8202 H 741.049 -1.31358 0.662088 0
M  V30 8203 H 743.007 -4.11317 -0.698137 0
M  V30 8204 H 741.637 -3.03983 -1.08602 0
M  V30 8205 H 740.689 -3.58513 1.27171 0
M  V30 8206 H 742.001 -4.76981 1.45913 0
M  V30 8207 H 741.155 -6.04451 -0.521903 0
M  V30 8208 H 739.894 -4.81066 -0.801682 0
M  V30 8209 H 738.899 -5.30338 1.4499 0
M  V30 8210 H 740.124 -6.56991 1.71872 0
M  V30 8211 H 738.07 -6.53895 -0.525088 0
M  V30 8212 H 737.987 -7.50484 0.911556 0
M  V30 8213 H 739.255 -7.79122 -0.242616 0
M  V30 8214 N 743.484 -0.715051 -1.40445 0
M  V30 8215 C 744.414 -0.0768699 -2.33373 0
M  V30 8216 C 745.395 0.746109 -1.52863 0
M  V30 8217 O 746.58 0.695142 -1.81332 0
M  V30 8218 C 743.71 0.846014 -3.36838 0
M  V30 8219 C 742.664 0.128694 -4.27806 0
M  V30 8220 C 741.99 1.16726 -5.21804 0
M  V30 8221 C 743.29 -1.01679 -5.12307 0
M  V30 8222 H 744.984 -0.853061 -2.8699 0
M  V30 8223 H 742.53 -0.41167 -1.3799 0
M  V30 8224 H 744.483 1.30185 -4.00786 0
M  V30 8225 H 743.207 1.6541 -2.81615 0
M  V30 8226 H 741.866 -0.307314 -3.6531 0
M  V30 8227 H 741.514 1.96838 -4.62887 0
M  V30 8228 H 741.214 0.692188 -5.83509 0
M  V30 8229 H 742.738 1.62321 -5.88629 0
M  V30 8230 H 744.152 -0.640337 -5.69713 0
M  V30 8231 H 742.549 -1.4202 -5.83053 0
M  V30 8232 H 743.619 -1.84769 -4.48317 0
M  V30 8233 N 744.962 1.50701 -0.461195 0
M  V30 8234 C 745.895 2.24948 0.383863 0
M  V30 8235 C 746.873 1.27851 1.00464 0
M  V30 8236 O 748.057 1.57049 1.04249 0
M  V30 8237 C 745.184 3.01818 1.537 0
M  V30 8238 C 744.23 4.13762 1.03457 0
M  V30 8239 S 745.063 5.35483 -0.0427485 0
M  V30 8240 C 746.219 6.15898 1.11449 0
M  V30 8241 H 746.452 2.96277 -0.246425 0
M  V30 8242 H 743.985 1.52428 -0.245961 0
M  V30 8243 H 745.943 3.467 2.19794 0
M  V30 8244 H 744.604 2.30034 2.13877 0
M  V30 8245 H 743.797 4.66914 1.89757 0
M  V30 8246 H 743.399 3.71265 0.4515 0
M  V30 8247 H 745.691 6.46431 2.02813 0
M  V30 8248 H 746.634 7.05359 0.622444 0
M  V30 8249 H 747.042 5.47777 1.36385 0
M  V30 8250 N 746.441 0.193421 1.56409 0
M  V30 8251 C 747.389 -0.744829 2.20352 0
M  V30 8252 C 748.383 -1.22104 1.17418 0
M  V30 8253 O 749.589 -1.18413 1.35567 0
M  V30 8254 H 745.964 -0.258538 0.70616 0
M  V30 8255 H 747.935 -0.181794 2.97846 0
M  V30 8256 C 746.684 -1.95453 2.87565 0
M  V30 8257 H 746.007 -1.59716 3.66512 0
M  V30 8258 H 747.447 -2.58942 3.35745 0
M  V30 8259 C 745.906 -2.79223 1.8851 0
M  V30 8260 O 746.436 -3.77093 1.38434 0
M  V30 8261 N 744.642 -2.44682 1.56777 0
M  V30 8262 H 744.189 -1.65153 1.97692 0
M  V30 8263 H 744.147 -3.01016 0.907573 0
M  V30 8264 N 747.919 -1.57396 -0.0801906 0
M  V30 8265 C 748.829 -2.06451 -1.11423 0
M  V30 8266 C 749.845 -0.992352 -1.42928 0
M  V30 8267 O 751.021 -1.30651 -1.53272 0
M  V30 8268 C 748.086 -2.49164 -2.41077 0
M  V30 8269 C 747.147 -3.70641 -2.16619 0
M  V30 8270 C 746.38 -4.11307 -3.40092 0
M  V30 8271 O 746.603 -3.51922 -4.48895 0
M  V30 8272 O 745.537 -5.04157 -3.288 0
M  V30 8273 H 749.363 -2.94857 -0.727519 0
M  V30 8274 H 746.948 -1.46484 -0.293743 0
M  V30 8275 H 748.83 -2.77196 -3.17396 0
M  V30 8276 H 747.505 -1.6389 -2.79145 0
M  V30 8277 H 746.412 -3.47703 -1.38033 0
M  V30 8278 H 747.745 -4.5674 -1.83437 0
M  V30 8279 N 749.397 0.351382 -1.53633 0
M  V30 8280 C 750.646 1.08988 -1.69719 0
M  V30 8281 C 750.959 1.90043 -0.462948 0
M  V30 8282 O 752.165 2.66769 -0.504613 0
M  V30 8283 C 750.621 1.98691 -3.00083 0
M  V30 8284 C 750.229 1.22881 -4.30818 0
M  V30 8285 C 751.973 2.72446 -3.25536 0
M  V30 8286 C 749.88 2.11568 -5.52262 0
M  V30 8287 H 748.81 0.410588 -0.632403 0
M  V30 8288 H 751.461 0.349886 -1.80133 0
M  V30 8289 H 749.843 2.76478 -2.83506 0
M  V30 8290 H 751.017 0.500582 -4.58073 0
M  V30 8291 H 749.332 0.60928 -4.11918 0
M  V30 8292 H 751.929 3.39055 -4.13456 0
M  V30 8293 H 752.272 3.38588 -2.42206 0
M  V30 8294 H 752.805 2.01735 -3.42852 0
M  V30 8295 H 749.544 1.4998 -6.38111 0
M  V30 8296 H 749.064 2.82201 -5.29266 0
M  V30 8297 H 750.743 2.70802 -5.87601 0
M  V30 8298 N 750.875 1.45233 0.611969 0
M  V30 8299 C 751.805 1.5641 1.73373 0
M  V30 8300 C 752.786 0.415896 1.64937 0
M  V30 8301 O 753.971 0.638478 1.83404 0
M  V30 8302 C 751.101 1.52627 3.11965 0
M  V30 8303 C 750.055 2.66119 3.35208 0
M  V30 8304 C 749.381 2.4739 4.74028 0
M  V30 8305 C 750.681 4.08157 3.25891 0
M  V30 8306 H 752.375 2.50307 1.64277 0
M  V30 8307 H 749.921 1.20467 0.788904 0
M  V30 8308 H 751.874 1.59043 3.90235 0
M  V30 8309 H 750.598 0.552564 3.21892 0
M  V30 8310 H 749.257 2.59123 2.59327 0
M  V30 8311 H 748.905 1.48168 4.80682 0
M  V30 8312 H 748.605 3.23494 4.90536 0
M  V30 8313 H 750.129 2.55653 5.54503 0
M  V30 8314 H 751.543 4.1642 3.9404 0
M  V30 8315 H 749.94 4.84617 3.5393 0
M  V30 8316 H 751.01 4.30374 2.23397 0
M  V30 8317 N 752.353 -0.854086 1.3245 0
M  V30 8318 C 753.301 -1.98411 1.21391 0
M  V30 8319 C 754.295 -1.68984 0.118586 0
M  V30 8320 O 755.501 -1.77784 0.281549 0
M  V30 8321 H 751.876 -0.651077 0.376301 0
M  V30 8322 H 753.847 -2.04867 2.16961 0
M  V30 8323 C 752.596 -3.34345 0.954407 0
M  V30 8324 H 751.919 -3.57518 1.78944 0
M  V30 8325 H 753.359 -4.13959 0.917269 0
M  V30 8326 C 751.818 -3.35151 -0.342838 0
M  V30 8327 O 752.348 -3.78174 -1.35452 0
M  V30 8328 N 750.554 -2.88298 -0.365012 0
M  V30 8329 H 750.101 -2.53481 0.4588 0
M  V30 8330 H 750.059 -2.8922 -1.23284 0
M  V30 8331 N 753.831 -1.1567 -1.07043 0
M  V30 8332 C 755.079 -0.931673 -1.79344 0
M  V30 8333 C 755.4 0.542421 -1.87304 0
M  V30 8334 O 754.67 1.39418 -1.37621 0
M  V30 8335 H 753.25 -0.34171 -0.664262 0
M  V30 8336 H 755.912 -1.45795 -1.29344 0
M  V30 8337 H 755.008 -1.34379 -2.81689 0
M  V30 8338 N 755.309 1.25446 -0.953992 0
M  V30 8339 C 756.558 1.92441 -0.604101 0
M  V30 8340 C 756.871 1.75543 0.862796 0
M  V30 8341 O 758.077 2.37106 1.32262 0
M  V30 8342 C 756.533 3.44854 -1.02974 0
M  V30 8343 C 756.141 3.70464 -2.51914 0
M  V30 8344 C 757.885 4.1778 -0.752352 0
M  V30 8345 C 755.792 5.1638 -2.88281 0
M  V30 8346 H 754.722 0.720508 -0.222227 0
M  V30 8347 H 757.373 1.42318 -1.15836 0
M  V30 8348 H 755.755 3.93935 -0.403904 0
M  V30 8349 H 756.929 3.32038 -3.19511 0
M  V30 8350 H 755.244 3.10797 -2.77117 0
M  V30 8351 H 757.841 5.25261 -1.00024 0
M  V30 8352 H 758.184 4.15135 0.311212 0
M  V30 8353 H 758.717 3.74605 -1.33851 0
M  V30 8354 H 755.456 5.24135 -3.93653 0
M  V30 8355 H 754.976 5.55855 -2.25357 0
M  V30 8356 H 756.655 5.84497 -2.77439 0
M  V30 8357 N 756.787 0.722489 1.40064 0
M  V30 8358 C 757.734 0.0743738 2.3068 0
M  V30 8359 C 758.704 -0.743004 1.48555 0
M  V30 8360 O 759.889 -0.705536 1.77276 0
M  V30 8361 C 757.029 -0.836292 3.34814 0
M  V30 8362 C 756.142 -0.00764663 4.31999 0
M  V30 8363 C 755.277 -0.918428 5.232 0
M  V30 8364 C 754.316 -0.0842838 6.12042 0
M  V30 8365 N 753.453 -0.950316 6.95639 0
M  V30 8366 H 758.293 0.852794 2.85537 0
M  V30 8367 H 755.83 0.432222 1.40607 0
M  V30 8368 H 757.788 -1.3786 3.93765 0
M  V30 8369 H 756.418 -1.58082 2.81443 0
M  V30 8370 H 755.47 0.651928 3.74772 0
M  V30 8371 H 756.782 0.63786 4.94705 0
M  V30 8372 H 755.936 -1.52902 5.87116 0
M  V30 8373 H 754.675 -1.59774 4.60786 0
M  V30 8374 H 753.68 0.5392 5.4715 0
M  V30 8375 H 754.905 0.591628 6.76518 0
M  V30 8376 H 752.851 -1.61515 6.35806 0
M  V30 8377 H 752.768 -0.361004 7.55138 0
M  V30 8378 H 754.036 -1.54687 7.63997 0
M  V30 8379 N 758.265 -1.50454 0.469181 0
M  V30 8380 C 759.511 -2.02615 -0.0865971 0
M  V30 8381 C 759.844 -1.35062 -1.39542 0
M  V30 8382 O 759.119 -0.475701 -1.88593 0
M  V30 8383 C 759.402 -3.59068 -0.272385 0
M  V30 8384 C 759.255 -4.37196 1.05733 0
M  V30 8385 C 760.574 -4.2793 -1.0278 0
M  V30 8386 H 757.693 -0.736389 -0.0299977 0
M  V30 8387 H 760.335 -1.79792 0.614399 0
M  V30 8388 H 758.485 -3.78646 -0.869471 0
M  V30 8389 H 760.157 -4.29195 1.69084 0
M  V30 8390 H 758.4 -4.01013 1.65442 0
M  V30 8391 H 759.071 -5.44924 0.880997 0
M  V30 8392 H 761.547 -4.12816 -0.521718 0
M  V30 8393 H 760.423 -5.37214 -1.12659 0
M  V30 8394 H 760.684 -3.90968 -2.0639 0
M  V30 8395 N 759.743 -0.201713 -1.56304 0
M  V30 8396 C 760.673 0.71155 -2.22394 0
M  V30 8397 C 761.654 1.21625 -1.18917 0
M  V30 8398 O 762.839 1.26388 -1.47444 0
M  V30 8399 C 759.969 1.92837 -2.88845 0
M  V30 8400 C 758.923 1.55831 -3.98623 0
M  V30 8401 C 758.249 2.85228 -4.52271 0
M  V30 8402 C 759.549 0.763249 -5.16693 0
M  V30 8403 H 761.243 0.160573 -2.98969 0
M  V30 8404 H 758.789 0.0757916 -1.438 0
M  V30 8405 H 760.742 2.57253 -3.33764 0
M  V30 8406 H 759.466 2.50398 -2.09686 0
M  V30 8407 H 758.125 0.9377 -3.54405 0
M  V30 8408 H 757.773 3.40893 -3.69866 0
M  V30 8409 H 757.473 2.6121 -5.26349 0
M  V30 8410 H 758.997 3.50622 -4.99897 0
M  V30 8411 H 760.411 1.31066 -5.58117 0
M  V30 8412 H 758.808 0.620935 -5.96879 0
M  V30 8413 H 759.878 -0.234322 -4.84334 0
M  V30 8414 N 761.222 1.57436 0.0718424 0
M  V30 8415 C 762.169 2.03686 1.08539 0
M  V30 8416 C 763.139 0.917474 1.38462 0
M  V30 8417 O 764.324 1.18513 1.4953 0
M  V30 8418 C 761.464 2.48566 2.39393 0
M  V30 8419 C 760.577 3.74122 2.16001 0
M  V30 8420 C 759.712 4.07786 3.40418 0
M  V30 8421 C 758.751 5.26383 3.1239 0
M  V30 8422 N 757.888 5.55685 4.29138 0
M  V30 8423 H 762.728 2.90043 0.684018 0
M  V30 8424 H 760.265 1.43438 0.326183 0
M  V30 8425 H 762.223 2.72639 3.15791 0
M  V30 8426 H 760.853 1.65186 2.77333 0
M  V30 8427 H 759.905 3.57389 1.30296 0
M  V30 8428 H 761.217 4.60659 1.91298 0
M  V30 8429 H 760.371 4.32759 4.25211 0
M  V30 8430 H 759.11 3.19817 3.68197 0
M  V30 8431 H 758.115 5.01206 2.25993 0
M  V30 8432 H 759.34 6.1597 2.85934 0
M  V30 8433 H 757.286 4.70675 4.56948 0
M  V30 8434 H 757.203 6.3664 4.07708 0
M  V30 8435 H 758.471 5.85209 5.14928 0
M  V30 8436 N 762.7 -0.34323 1.53817 0
M  V30 8437 C 763.63 -1.42709 1.84814 0
M  V30 8438 C 764.611 -1.5488 0.703297 0
M  V30 8439 O 765.796 -1.69082 0.955237 0
M  V30 8440 C 762.926 -2.79756 2.05801 0
M  V30 8441 C 761.88 -2.82392 3.21619 0
M  V30 8442 C 761.206 -4.22326 3.2794 0
M  V30 8443 C 762.506 -2.479 4.59721 0
M  V30 8444 H 764.2 -1.17018 2.75585 0
M  V30 8445 H 761.746 -0.561485 1.32602 0
M  V30 8446 H 763.699 -3.55627 2.26069 0
M  V30 8447 H 762.423 -3.06883 1.11761 0
M  V30 8448 H 761.082 -2.08974 3.01207 0
M  V30 8449 H 760.73 -4.46564 2.31494 0
M  V30 8450 H 760.43 -4.25001 4.05768 0
M  V30 8451 H 761.954 -5.00039 3.50419 0
M  V30 8452 H 763.368 -3.13484 4.80001 0
M  V30 8453 H 761.765 -2.61857 5.39954 0
M  V30 8454 H 762.835 -1.43087 4.63308 0
M  V30 8455 N 764.178 -1.45556 -0.604258 0
M  V30 8456 C 765.408 -1.53056 -1.38771 0
M  V30 8457 C 765.816 -0.163092 -1.88496 0
M  V30 8458 O 765.159 0.846157 -1.63052 0
M  V30 8459 C 765.221 -2.45656 -2.62476 0
M  V30 8460 C 764.885 -3.92328 -2.34367 0
M  V30 8461 C 765.882 -4.82137 -1.94525 0
M  V30 8462 C 763.567 -4.37275 -2.47177 0
M  V30 8463 C 765.561 -6.14901 -1.67856 0
M  V30 8464 C 763.248 -5.70079 -2.20122 0
M  V30 8465 C 764.246 -6.58711 -1.80524 0
M  V30 8466 O 763.934 -7.89053 -1.53788 0
M  V30 8467 H 763.666 -0.520721 -0.431075 0
M  V30 8468 H 766.22 -1.91464 -0.743693 0
M  V30 8469 H 764.45 -2.02225 -3.29609 0
M  V30 8470 H 766.139 -2.43802 -3.24523 0
M  V30 8471 H 766.905 -4.48675 -1.84162 0
M  V30 8472 H 762.784 -3.68527 -2.76964 0
M  V30 8473 H 766.328 -6.8404 -1.36874 0
M  V30 8474 H 762.225 -6.03095 -2.30102 0
M  V30 8475 H 762.993 -8.01113 -1.67812 0
M  V30 8476 N 765.656 0.84705 -1.32902 0
M  V30 8477 C 766.619 1.9378 -1.224 0
M  V30 8478 C 767.619 1.60144 -0.145108 0
M  V30 8479 O 768.809 1.69638 -0.396058 0
M  V30 8480 C 765.941 3.29234 -0.884174 0
M  V30 8481 H 767.134 2.04518 -2.19345 0
M  V30 8482 H 764.687 1.03816 -1.16842 0
M  V30 8483 H 765.422 3.24193 0.0831277 0
M  V30 8484 H 765.207 3.55026 -1.6643 0
M  V30 8485 H 766.697 4.09162 -0.835226 0
M  V30 8486 N 767.134 1.16236 1.06428 0
M  V30 8487 C 768.38 0.954417 1.79617 0
M  V30 8488 C 768.735 -0.512411 1.85451 0
M  V30 8489 O 768.028 -1.37523 1.33409 0
M  V30 8490 C 768.222 1.51396 3.2375 0
M  V30 8491 C 768.051 3.03367 3.31962 0
M  V30 8492 C 766.821 3.71996 3.41975 0
M  V30 8493 C 769.019 4.01075 3.21937 0
M  V30 8494 N 767.001 5.11688 3.39187 0
M  V30 8495 C 768.372 5.27142 3.26376 0
M  V30 8496 C 770.427 3.92917 3.05812 0
M  V30 8497 C 769.13 6.46 3.16348 0
M  V30 8498 C 771.156 5.11344 2.97121 0
M  V30 8499 C 770.518 6.36291 3.02181 0
M  V30 8500 H 766.617 0.403007 0.670156 0
M  V30 8501 H 769.201 1.47605 1.26968 0
M  V30 8502 H 767.372 1.01883 3.74799 0
M  V30 8503 H 769.104 1.2439 3.85109 0
M  V30 8504 H 765.859 3.22623 3.46715 0
M  V30 8505 H 766.283 5.84676 3.41297 0
M  V30 8506 H 770.925 2.97172 3.00746 0
M  V30 8507 H 768.643 7.41968 3.2017 0
M  V30 8508 H 772.229 5.06801 2.85734 0
M  V30 8509 H 771.109 7.26389 2.95513 0
M  V30 8510 N 768.612 -1.24939 0.960631 0
M  V30 8511 C 769.522 -2.29374 0.492435 0
M  V30 8512 C 770.538 -1.68262 -0.443154 0
M  V30 8513 O 771.714 -1.98875 -0.31793 0
M  V30 8514 C 768.779 -3.46023 -0.216626 0
M  V30 8515 C 767.84 -4.22557 0.757915 0
M  V30 8516 C 767.073 -5.33636 0.0825969 0
M  V30 8517 O 767.296 -5.59084 -1.13054 0
M  V30 8518 O 766.23 -5.96939 0.771177 0
M  V30 8519 H 770.056 -2.71525 1.36044 0
M  V30 8520 H 767.641 -1.30499 0.72735 0
M  V30 8521 H 769.523 -4.16885 -0.615241 0
M  V30 8522 H 768.198 -3.05862 -1.05971 0
M  V30 8523 H 767.105 -3.54099 1.20685 0
M  V30 8524 H 768.438 -4.66516 1.5692 0
M  V30 8525 N 770.09 -0.729906 -1.39679 0
M  V30 8526 C 771.02 -0.101618 -2.33279 0
M  V30 8527 C 772.001 0.729854 -1.53646 0
M  V30 8528 O 773.186 0.67587 -1.82059 0
M  V30 8529 C 770.316 0.81024 -3.37716 0
M  V30 8530 C 769.27 0.0833126 -4.27919 0
M  V30 8531 C 768.596 1.11185 -5.23012 0
M  V30 8532 C 769.896 -1.07107 -5.112 0
M  V30 8533 H 771.59 -0.883452 -2.86069 0
M  V30 8534 H 769.136 -0.426283 -1.37546 0
M  V30 8535 H 771.089 1.25927 -4.02145 0
M  V30 8536 H 769.813 1.62413 -2.83354 0
M  V30 8537 H 768.472 -0.346043 -3.64963 0
M  V30 8538 H 768.12 1.91917 -4.64948 0
M  V30 8539 H 767.82 0.63026 -5.8421 0
M  V30 8540 H 769.344 1.56068 -5.90318 0
M  V30 8541 H 770.758 -0.700726 -5.69002 0
M  V30 8542 H 769.155 -1.48196 -5.81514 0
M  V30 8543 H 770.225 -1.89513 -4.46332 0
M  V30 8544 N 771.568 1.50203 -0.477153 0
M  V30 8545 C 772.531 2.27194 0.302599 0
M  V30 8546 C 773.531 1.32221 0.915112 0
M  V30 8547 O 774.721 1.55593 0.783348 0
M  V30 8548 C 771.853 3.0938 1.43167 0
M  V30 8549 H 773.046 2.97575 -0.372678 0
M  V30 8550 H 770.599 1.54578 -0.231392 0
M  V30 8551 H 771.334 2.43509 2.14182 0
M  V30 8552 H 771.119 3.79181 0.998197 0
M  V30 8553 H 772.609 3.67592 1.98157 0
M  V30 8554 N 773.046 0.209999 1.56195 0
M  V30 8555 C 774.293 -0.424813 1.97994 0
M  V30 8556 C 774.621 -1.60589 1.09733 0
M  V30 8557 O 773.876 -1.95201 0.139693 0
M  V30 8558 C 774.175 -0.91312 3.45539 0
M  V30 8559 C 773.841 0.156187 4.50629 0
M  V30 8560 C 772.503 0.449966 4.79092 0
M  V30 8561 C 774.855 0.879959 5.13718 0
M  V30 8562 C 772.183 1.47223 5.67928 0
M  V30 8563 C 774.535 1.89148 6.0366 0
M  V30 8564 C 773.199 2.1923 6.30472 0
M  V30 8565 H 772.469 -0.15545 0.724511 0
M  V30 8566 H 775.116 0.310095 1.88973 0
M  V30 8567 H 773.421 -1.72658 3.51705 0
M  V30 8568 H 775.118 -1.41395 3.75245 0
M  V30 8569 H 771.708 -0.0829466 4.2852 0
M  V30 8570 H 775.892 0.66623 4.91808 0
M  V30 8571 H 771.148 1.71105 5.86969 0
M  V30 8572 H 775.322 2.45745 6.516 0
M  V30 8573 H 772.949 2.98587 6.99107 0
M  V30 8574 N 774.524 -1.57472 -0.0634922 0
M  V30 8575 C 775.471 -2.04258 -1.07457 0
M  V30 8576 C 776.441 -0.924804 -1.37973 0
M  V30 8577 O 777.626 -1.19305 -1.48899 0
M  V30 8578 C 774.766 -2.49832 -2.38071 0
M  V30 8579 C 773.879 -3.75263 -2.14014 0
M  V30 8580 C 773.014 -4.09585 -3.38251 0
M  V30 8581 C 772.053 -5.28032 -3.09594 0
M  V30 8582 N 771.19 -5.57953 -4.26185 0
M  V30 8583 H 776.03 -2.90402 -0.668626 0
M  V30 8584 H 773.567 -1.43609 -0.318572 0
M  V30 8585 H 775.525 -2.7431 -3.14341 0
M  V30 8586 H 774.155 -1.66654 -2.76453 0
M  V30 8587 H 773.207 -3.58075 -1.28399 0
M  V30 8588 H 774.519 -4.61667 -1.88852 0
M  V30 8589 H 773.673 -4.35008 -4.2291 0
M  V30 8590 H 772.412 -3.21765 -3.66495 0
M  V30 8591 H 771.417 -5.02397 -2.23332 0
M  V30 8592 H 772.642 -6.17477 -2.82663 0
M  V30 8593 H 770.588 -4.73092 -4.54445 0
M  V30 8594 H 770.505 -6.38793 -4.04326 0
M  V30 8595 H 771.773 -5.87931 -5.11817 0
M  V30 8596 N 776.003 0.335068 -1.53997 0
M  V30 8597 C 777.28 1.09188 -1.62288 0
M  V30 8598 C 777.66 2.0626 -0.449458 0
M  V30 8599 O 777.008 2.21596 0.557444 0
M  V30 8600 C 777.218 1.80403 -2.98757 0
M  V30 8601 C 778.566 2.33841 -3.54406 0
M  V30 8602 O 779.59 1.90487 -3.00987 0
M  V30 8603 O 778.449 3.1318 -4.47862 0
M  V30 8604 H 775.543 0.502621 -0.656736 0
M  V30 8605 H 778.089 0.33588 -1.66343 0
M  V30 8606 H 776.861 1.09732 -3.75599 0
M  V30 8607 H 776.484 2.62841 -2.9833 0
M  V30 8608 N 777.481 1.45874 0.596531 0
M  V30 8609 C 778.428 1.55389 1.70655 0
M  V30 8610 C 779.398 0.399036 1.61236 0
M  V30 8611 O 780.583 0.61396 1.80652 0
M  V30 8612 C 777.723 1.53705 3.0898 0
M  V30 8613 C 776.836 2.79823 3.29125 0
M  V30 8614 C 775.971 2.69735 4.5762 0
M  V30 8615 C 775.01 3.90856 4.71061 0
M  V30 8616 N 774.147 3.79237 5.90867 0
M  V30 8617 H 778.987 2.50211 1.61859 0
M  V30 8618 H 776.524 1.24146 0.789069 0
M  V30 8619 H 778.482 1.50715 3.89026 0
M  V30 8620 H 777.112 0.624247 3.16706 0
M  V30 8621 H 776.164 2.92852 2.42779 0
M  V30 8622 H 777.476 3.69628 3.34927 0
M  V30 8623 H 776.63 2.64773 5.45875 0
M  V30 8624 H 775.369 1.77547 4.54234 0
M  V30 8625 H 774.374 3.96164 3.81227 0
M  V30 8626 H 775.599 4.84124 4.76236 0
M  V30 8627 H 773.545 2.89825 5.88504 0
M  V30 8628 H 773.462 4.62686 5.97877 0
M  V30 8629 H 774.73 3.78227 6.8159 0
M  V30 8630 N 778.959 -0.83999 1.33349 0
M  V30 8631 C 780.205 -1.59753 1.24927 0
M  V30 8632 C 780.538 -1.93318 -0.184855 0
M  V30 8633 O 779.813 -1.586 -1.12589 0
M  V30 8634 C 780.096 -2.90829 2.12345 0
M  V30 8635 C 779.949 -2.63953 3.6421 0
M  V30 8636 C 781.268 -3.92246 1.99577 0
M  V30 8637 H 778.387 -0.579654 0.45516 0
M  V30 8638 H 781.029 -0.968909 1.63439 0
M  V30 8639 H 779.179 -3.44478 1.79631 0
M  V30 8640 H 780.851 -2.16745 4.07209 0
M  V30 8641 H 779.094 -1.97671 3.86146 0
M  V30 8642 H 779.765 -3.57348 4.20721 0
M  V30 8643 H 782.241 -3.479 2.28265 0
M  V30 8644 H 781.117 -4.81793 2.62996 0
M  V30 8645 H 781.378 -4.3138 0.967673 0
M  V30 8646 N 780.437 -1.16799 -1.0581 0
M  V30 8647 C 781.367 -0.902241 -2.15364 0
M  V30 8648 C 782.348 0.153351 -1.69407 0
M  V30 8649 O 783.533 0.00442032 -1.94199 0
M  V30 8650 C 780.663 -0.407911 -3.44896 0
M  V30 8651 C 779.617 -1.40197 -4.04387 0
M  V30 8652 C 778.943 -0.765848 -5.29187 0
M  V30 8653 C 780.243 -2.77316 -4.42598 0
M  V30 8654 H 781.937 -1.81841 -2.37853 0
M  V30 8655 H 779.483 -0.875731 -1.14311 0
M  V30 8656 H 781.436 -0.20945 -4.20879 0
M  V30 8657 H 780.16 0.54378 -3.22041 0
M  V30 8658 H 778.819 -1.58707 -3.30466 0
M  V30 8659 H 778.467 0.192482 -5.02632 0
M  V30 8660 H 778.167 -1.42939 -5.69949 0
M  V30 8661 H 779.691 -0.577519 -6.07863 0
M  V30 8662 H 781.105 -2.62561 -5.09642 0
M  V30 8663 H 779.502 -3.4019 -4.94359 0
M  V30 8664 H 780.572 -3.32199 -3.53231 0
M  V30 8665 N 781.915 1.24427 -0.967243 0
M  V30 8666 C 782.878 2.23637 -0.501927 0
M  V30 8667 C 783.878 1.55712 0.401283 0
M  V30 8668 O 785.068 1.73085 0.196808 0
M  V30 8669 C 782.2 3.39804 0.273176 0
M  V30 8670 H 783.393 2.66317 -1.37897 0
M  V30 8671 H 780.946 1.37033 -0.751783 0
M  V30 8672 H 781.681 3.02562 1.16733 0
M  V30 8673 H 781.466 3.90303 -0.37498 0
M  V30 8674 H 782.956 4.13443 0.587776 0
M  V30 8675 N 783.393 0.737304 1.3929 0
M  V30 8676 C 784.642 0.283129 1.99703 0
M  V30 8677 C 784.955 -1.13677 1.59176 0
M  V30 8678 O 786.161 -1.69058 2.12442 0
M  V30 8679 C 784.617 0.455262 3.57009 0
M  V30 8680 C 784.225 1.88319 4.06497 0
M  V30 8681 C 785.969 0.0629786 4.24453 0
M  V30 8682 C 783.876 2.00475 5.56385 0
M  V30 8683 H 782.806 0.102106 0.747054 0
M  V30 8684 H 785.457 0.911515 1.5926 0
M  V30 8685 H 783.839 -0.242057 3.9526 0
M  V30 8686 H 785.013 2.61265 3.79575 0
M  V30 8687 H 783.328 2.2289 3.51723 0
M  V30 8688 H 785.925 0.132787 5.34535 0
M  V30 8689 H 786.268 -0.982128 4.04549 0
M  V30 8690 H 786.801 0.71154 3.91385 0
M  V30 8691 H 783.54 3.03182 5.81172 0
M  V30 8692 H 783.06 1.31969 5.85102 0
M  V30 8693 H 784.739 1.787 6.21832 0
M  V30 8694 N 784.871 -1.49948 0.485112 0
M  V30 8695 C 786.287 -1.58984 0.140096 0
M  V30 8696 C 786.487 -1.49194 -1.35438 0
M  V30 8697 O 785.543 -1.35765 -2.12894 0
M  V30 8698 C 786.856 -2.92372 0.702769 0
M  V30 8699 C 788.404 -3.05801 0.66745 0
M  V30 8700 C 788.879 -4.41785 1.20791 0
M  V30 8701 N 790.37 -4.48234 1.16792 0
M  V30 8702 C 791.105 -5.51871 1.55646 0
M  V30 8703 N 790.601 -6.62692 2.02016 0
M  V30 8704 N 792.394 -5.42494 1.47161 0
M  V30 8705 H 784.545 -1.54555 1.45693 0
M  V30 8706 H 786.808 -0.731206 0.603359 0
M  V30 8707 H 786.514 -3.05056 1.75025 0
M  V30 8708 H 786.388 -3.76885 0.154205 0
M  V30 8709 H 788.775 -2.92757 -0.371157 0
M  V30 8710 H 788.856 -2.23011 1.25298 0
M  V30 8711 H 788.5 -4.55579 2.24522 0
M  V30 8712 H 788.43 -5.23188 0.598464 0
M  V30 8713 H 790.921 -3.68718 0.827982 0
M  V30 8714 H 791.234 -7.3785 2.29775 0
M  V30 8715 H 789.579 -6.63775 2.05979 0
M  V30 8716 H 792.77 -4.54806 1.10765 0
M  V30 8717 H 792.943 -6.2314 1.77766 0
M  V30 8718 N 786.349 -0.21828 -1.56081 0
M  V30 8719 C 787.281 0.725447 -2.17416 0
M  V30 8720 C 788.294 1.15995 -1.14233 0
M  V30 8721 O 789.483 1.09166 -1.41227 0
M  V30 8722 C 786.583 1.99401 -2.7403 0
M  V30 8723 C 785.756 1.7156 -4.02351 0
M  V30 8724 C 784.815 2.8309 -4.43561 0
M  V30 8725 O 783.841 2.51701 -5.10525 0
M  V30 8726 N 785.043 4.11972 -4.08973 0
M  V30 8727 H 787.808 0.200801 -2.99027 0
M  V30 8728 H 785.369 -0.0371514 -1.61857 0
M  V30 8729 H 787.361 2.73198 -2.98571 0
M  V30 8730 H 785.931 2.42923 -1.96742 0
M  V30 8731 H 785.151 0.814233 -3.85699 0
M  V30 8732 H 786.439 1.50385 -4.86068 0
M  V30 8733 H 785.837 4.40319 -3.55156 0
M  V30 8734 H 784.394 4.82323 -4.38415 0
M  V30 8735 N 787.827 1.57504 0.0551401 0
M  V30 8736 C 788.737 2.08198 1.08124 0
M  V30 8737 C 789.753 1.01496 1.41331 0
M  V30 8738 O 790.929 1.33073 1.51174 0
M  V30 8739 C 787.994 2.52968 2.37083 0
M  V30 8740 C 787.055 3.7404 2.10696 0
M  V30 8741 C 786.288 4.16665 3.33505 0
M  V30 8742 O 786.511 3.59019 4.4324 0
M  V30 8743 O 785.445 5.09324 3.20737 0
M  V30 8744 H 789.271 2.95977 0.680518 0
M  V30 8745 H 786.856 1.46933 0.270401 0
M  V30 8746 H 788.738 2.82211 3.12946 0
M  V30 8747 H 787.413 1.6831 2.76502 0
M  V30 8748 H 786.32 3.49855 1.32484 0
M  V30 8749 H 787.653 4.59601 1.76148 0
M  V30 8750 N 789.305 -0.326896 1.54172 0
M  V30 8751 C 790.215 -1.42525 1.86343 0
M  V30 8752 C 791.231 -1.56764 0.75505 0
M  V30 8753 O 792.407 -1.71924 1.04901 0
M  V30 8754 C 789.472 -2.77286 2.08119 0
M  V30 8755 C 788.533 -2.7225 3.31931 0
M  V30 8756 C 787.766 -4.00584 3.52659 0
M  V30 8757 O 787.989 -4.98686 2.76891 0
M  V30 8758 O 786.923 -4.04045 4.46129 0
M  V30 8759 H 790.749 -1.18249 2.79734 0
M  V30 8760 H 788.334 -0.520614 1.40036 0
M  V30 8761 H 790.216 -3.57065 2.23791 0
M  V30 8762 H 788.891 -3.01459 1.17917 0
M  V30 8763 H 787.798 -1.91033 3.21647 0
M  V30 8764 H 789.131 -2.53032 4.2218 0
M  V30 8765 N 790.784 -1.46188 -0.588786 0
M  V30 8766 C 791.714 -1.59148 -1.70863 0
M  V30 8767 C 792.695 -0.442083 -1.64255 0
M  V30 8768 O 793.88 -0.667575 -1.82365 0
M  V30 8769 C 791.01 -1.5757 -3.09498 0
M  V30 8770 C 789.964 -2.71418 -3.30932 0
M  V30 8771 C 789.29 -2.549 -4.70032 0
M  V30 8772 C 790.59 -4.1329 -3.19356 0
M  V30 8773 H 792.284 -2.52889 -1.60274 0
M  V30 8774 H 789.83 -1.21707 -0.769638 0
M  V30 8775 H 791.783 -1.65231 -3.87655 0
M  V30 8776 H 790.507 -0.603705 -3.20972 0
M  V30 8777 H 789.166 -2.63216 -2.55172 0
M  V30 8778 H 788.814 -1.55797 -4.78264 0
M  V30 8779 H 788.514 -3.31257 -4.85327 0
M  V30 8780 H 790.038 -2.64443 -5.50366 0
M  V30 8781 H 791.452 -4.22636 -3.87365 0
M  V30 8782 H 789.849 -4.90187 -3.46175 0
M  V30 8783 H 790.919 -4.33874 -2.16522 0
M  V30 8784 N 792.262 0.832906 -1.33792 0
M  V30 8785 C 793.209 1.94314 -1.24541 0
M  V30 8786 C 794.179 1.65646 -0.122753 0
M  V30 8787 O 795.364 1.88394 -0.30204 0
M  V30 8788 C 792.504 3.30395 -0.996641 0
M  V30 8789 C 791.617 3.71422 -2.20612 0
M  V30 8790 C 790.752 4.96401 -1.89101 0
M  V30 8791 C 789.791 5.2998 -3.06247 0
M  V30 8792 N 788.928 6.46137 -2.74685 0
M  V30 8793 H 793.768 2.01559 -2.19495 0
M  V30 8794 H 791.305 0.986243 -1.09141 0
M  V30 8795 H 793.263 4.08803 -0.832817 0
M  V30 8796 H 791.893 3.22691 -0.0838242 0
M  V30 8797 H 790.945 2.88488 -2.47949 0
M  V30 8798 H 792.257 3.92215 -3.0817 0
M  V30 8799 H 791.411 5.82572 -1.69396 0
M  V30 8800 H 790.15 4.7759 -0.987882 0
M  V30 8801 H 789.155 4.42312 -3.26559 0
M  V30 8802 H 790.38 5.50737 -3.97323 0
M  V30 8803 H 788.326 6.28801 -1.86938 0
M  V30 8804 H 788.243 6.67054 -3.55774 0
M  V30 8805 H 789.511 7.35403 -2.58461 0
M  V30 8806 N 793.74 1.17359 1.05189 0
M  V30 8807 C 794.986 0.963413 1.78455 0
M  V30 8808 C 795.319 -0.506703 1.87473 0
M  V30 8809 O 794.594 -1.37611 1.37453 0
M  V30 8810 C 794.877 1.60519 3.22344 0
M  V30 8811 C 794.73 3.14741 3.21338 0
M  V30 8812 C 796.049 1.3091 4.20179 0
M  V30 8813 H 793.168 0.351412 0.647826 0
M  V30 8814 H 795.81 1.44858 1.22948 0
M  V30 8815 H 793.96 1.19265 3.69741 0
M  V30 8816 H 795.632 3.65053 2.82017 0
M  V30 8817 H 793.875 3.4749 2.59679 0
M  V30 8818 H 794.546 3.54775 4.22894 0
M  V30 8819 H 797.022 1.66635 3.81277 0
M  V30 8820 H 795.898 1.784 5.191 0
M  V30 8821 H 796.159 0.229908 4.41502 0
M  V30 8822 N 795.218 -1.23913 0.973828 0
M  V30 8823 C 796.148 -2.27453 0.527969 0
M  V30 8824 C 797.129 -1.6443 -0.435513 0
M  V30 8825 O 798.314 -1.9137 -0.330306 0
M  V30 8826 C 795.444 -3.4685 -0.176757 0
M  V30 8827 C 794.398 -4.22181 0.703352 0
M  V30 8828 C 793.724 -5.34534 -0.133215 0
M  V30 8829 C 795.024 -4.82865 1.99096 0
M  V30 8830 H 796.718 -2.65 1.3934 0
M  V30 8831 H 794.264 -1.27388 0.671446 0
M  V30 8832 H 796.217 -4.18424 -0.499934 0
M  V30 8833 H 794.941 -3.08346 -1.07659 0
M  V30 8834 H 793.6 -3.52416 1.00989 0
M  V30 8835 H 793.248 -4.92271 -1.03338 0
M  V30 8836 H 792.948 -5.85855 0.452494 0
M  V30 8837 H 794.472 -6.08933 -0.450924 0
M  V30 8838 H 795.886 -5.46481 1.73297 0
M  V30 8839 H 794.283 -5.44444 2.52389 0
M  V30 8840 H 795.353 -4.03977 2.68199 0
M  V30 8841 N 796.696 -0.74468 -1.38897 0
M  V30 8842 C 797.643 -0.111064 -2.30533 0
M  V30 8843 C 798.613 0.719276 -1.49719 0
M  V30 8844 O 799.798 0.677244 -1.78376 0
M  V30 8845 C 796.938 0.78292 -3.36102 0
M  V30 8846 C 796.051 -0.0610817 -4.31957 0
M  V30 8847 C 795.186 0.835075 -5.24595 0
M  V30 8848 C 794.225 -0.0130974 -6.12099 0
M  V30 8849 N 793.362 0.839525 -6.97063 0
M  V30 8850 H 798.202 -0.898113 -2.84144 0
M  V30 8851 H 795.739 -0.454537 -1.39901 0
M  V30 8852 H 797.697 1.31578 -3.95908 0
M  V30 8853 H 796.327 1.53585 -2.83922 0
M  V30 8854 H 795.379 -0.711469 -3.73687 0
M  V30 8855 H 796.691 -0.716482 -4.93627 0
M  V30 8856 H 795.845 1.43542 -5.89475 0
M  V30 8857 H 794.584 1.52423 -4.63269 0
M  V30 8858 H 793.589 -0.626179 -5.46223 0
M  V30 8859 H 794.814 -0.699181 -6.75491 0
M  V30 8860 H 792.76 1.5138 -6.38295 0
M  V30 8861 H 792.677 0.240823 -7.55616 0
M  V30 8862 H 793.945 1.42513 -7.66362 0
M  V30 8863 N 798.174 1.49689 -0.493057 0
M  V30 8864 C 799.121 2.28976 0.28959 0
M  V30 8865 C 800.091 1.35011 0.967536 0
M  V30 8866 O 801.276 1.63964 0.975736 0
M  V30 8867 C 798.416 3.1748 1.35279 0
M  V30 8868 C 797.529 4.26496 0.687418 0
M  V30 8869 C 796.664 5.02226 1.73038 0
M  V30 8870 C 795.703 6.03089 1.04645 0
M  V30 8871 N 794.84 6.72014 2.03325 0
M  V30 8872 H 799.68 2.954 -0.392798 0
M  V30 8873 H 797.217 1.45657 -0.205554 0
M  V30 8874 H 799.175 3.67162 1.98111 0
M  V30 8875 H 797.805 2.53057 2.00405 0
M  V30 8876 H 796.857 3.80362 -0.0540001 0
M  V30 8877 H 798.169 4.98578 0.14864 0
M  V30 8878 H 797.323 5.55737 2.43395 0
M  V30 8879 H 796.062 4.29899 2.303 0
M  V30 8880 H 795.067 5.48817 0.328606 0
M  V30 8881 H 796.292 6.77398 0.480428 0
M  V30 8882 H 794.238 6.02464 2.59564 0
M  V30 8883 H 794.155 7.40046 1.54492 0
M  V30 8884 H 795.423 7.30133 2.72995 0
M  V30 8885 N 799.652 0.226554 1.55963 0
M  V30 8886 C 800.877 -0.411527 2.03276 0
M  V30 8887 C 801.302 -1.52206 1.10521 0
M  V30 8888 O 800.66 -1.81054 0.0943217 0
M  V30 8889 C 800.708 -0.915694 3.4878 0
M  V30 8890 O 799.812 -2.02672 3.59163 0
M  V30 8891 H 799.153 -0.0924907 0.657527 0
M  V30 8892 H 801.683 0.346656 2.01642 0
M  V30 8893 H 801.693 -1.22421 3.892 0
M  V30 8894 H 800.368 -0.102915 4.15773 0
M  V30 8895 H 798.945 -1.72445 3.30632 0
M  V30 8896 N 801.13 -1.57531 -0.0467866 0
M  V30 8897 C 802.093 -2.04379 -1.03738 0
M  V30 8898 C 803.093 -0.944881 -1.3011 0
M  V30 8899 O 804.283 -1.20904 -1.25411 0
M  V30 8900 C 801.415 -2.44572 -2.37482 0
M  V30 8901 H 802.608 -2.93142 -0.633063 0
M  V30 8902 H 800.161 -1.53526 -0.293177 0
M  V30 8903 H 800.896 -1.58911 -2.82697 0
M  V30 8904 H 800.681 -3.24785 -2.19675 0
M  V30 8905 H 802.171 -2.81307 -3.08636 0
M  V30 8906 N 802.608 0.318715 -1.54344 0
M  V30 8907 C 803.838 1.07394 -1.76494 0
M  V30 8908 C 804.246 1.82031 -0.515881 0
M  V30 8909 O 803.589 1.7609 0.52325 0
M  V30 8910 C 803.651 2.11401 -2.90775 0
M  V30 8911 C 803.315 1.56118 -4.29507 0
M  V30 8912 C 804.312 1.00043 -5.10184 0
M  V30 8913 C 801.997 1.60215 -4.76063 0
M  V30 8914 C 803.991 0.487993 -6.35529 0
M  V30 8915 C 801.678 1.08584 -6.01376 0
M  V30 8916 C 802.676 0.529714 -6.80943 0
M  V30 8917 O 802.364 0.0211823 -8.03897 0
M  V30 8918 H 802.096 0.325061 -0.592715 0
M  V30 8919 H 804.65 0.36901 -2.02058 0
M  V30 8920 H 802.88 2.85524 -2.60793 0
M  V30 8921 H 804.569 2.72683 -3.00664 0
M  V30 8922 H 805.335 0.961811 -4.75367 0
M  V30 8923 H 801.214 2.02441 -4.14172 0
M  V30 8924 H 804.758 0.0532608 -6.9758 0
M  V30 8925 H 800.655 1.12155 -6.35682 0
M  V30 8926 H 801.423 0.136151 -8.18387 0
M  V30 8927 N 804.086 1.46499 0.581025 0
M  V30 8928 C 805.016 1.60052 1.70017 0
M  V30 8929 C 805.997 0.450788 1.64018 0
M  V30 8930 O 807.182 0.677237 1.82009 0
M  V30 8931 C 804.312 1.5921 3.08658 0
M  V30 8932 C 803.266 2.73169 3.29488 0
M  V30 8933 C 802.592 2.57389 4.68674 0
M  V30 8934 C 803.892 4.14978 3.1716 0
M  V30 8935 H 805.586 2.53735 1.5893 0
M  V30 8936 H 803.132 1.22113 0.763173 0
M  V30 8937 H 805.085 1.67285 3.86773 0
M  V30 8938 H 803.809 0.620718 3.20647 0
M  V30 8939 H 802.468 2.64566 2.53773 0
M  V30 8940 H 802.116 1.58331 4.77431 0
M  V30 8941 H 801.816 3.33826 4.83564 0
M  V30 8942 H 803.34 2.67358 5.48956 0
M  V30 8943 H 804.754 4.24684 3.85119 0
M  V30 8944 H 803.151 4.92016 3.4357 0
M  V30 8945 H 804.221 4.35016 2.14218 0
M  V30 8946 N 805.565 -0.825799 1.34232 0
M  V30 8947 C 806.79 -1.61883 1.29648 0
M  V30 8948 C 807.215 -1.87669 -0.127295 0
M  V30 8949 O 806.573 -1.45016 -1.08813 0
M  V30 8950 C 806.621 -2.93846 2.09014 0
M  V30 8951 O 805.725 -3.85778 1.4577 0
M  V30 8952 H 805.066 -0.492454 0.445405 0
M  V30 8953 H 807.596 -1.02641 1.76992 0
M  V30 8954 H 807.606 -3.43435 2.20264 0
M  V30 8955 H 806.281 -2.74401 3.12533 0
M  V30 8956 H 804.858 -3.4429 1.43245 0
M  V30 8957 N 807.043 -1.17915 -1.04565 0
M  V30 8958 C 808.006 -0.903787 -2.10628 0
M  V30 8959 C 809.006 0.10873 -1.60432 0
M  V30 8960 O 810.196 -0.124152 -1.73757 0
M  V30 8961 C 807.328 -0.355017 -3.39046 0
M  V30 8962 H 808.521 -1.84425 -2.3649 0
M  V30 8963 H 806.074 -0.990477 -1.2091 0
M  V30 8964 H 806.809 0.592297 -3.18845 0
M  V30 8965 H 806.594 -1.08484 -3.76794 0
M  V30 8966 H 808.084 -0.180891 -4.17208 0
M  V30 8967 N 808.521 1.23394 -0.980386 0
M  V30 8968 C 809.767 1.92094 -0.650223 0
M  V30 8969 C 810.1 1.76309 0.814173 0
M  V30 8970 O 809.375 1.12406 1.5873 0
M  V30 8971 C 809.658 3.44713 -1.04139 0
M  V30 8972 C 809.511 3.69606 -2.56342 0
M  V30 8973 C 810.83 4.36191 -0.585296 0
M  V30 8974 H 807.949 0.697618 -0.237695 0
M  V30 8975 H 810.591 1.45517 -1.22167 0
M  V30 8976 H 808.741 3.84513 -0.55515 0
M  V30 8977 H 810.413 3.39288 -3.1254 0
M  V30 8978 H 808.656 3.14318 -2.98976 0
M  V30 8979 H 809.327 4.76441 -2.78762 0
M  V30 8980 H 811.803 4.03836 -1.00276 0
M  V30 8981 H 810.679 5.41679 -0.887428 0
M  V30 8982 H 810.94 4.39097 0.51438 0
M  V30 8983 N 809.999 0.752036 1.385 0
M  V30 8984 C 811.247 0.306895 1.99756 0
M  V30 8985 C 811.568 -1.11478 1.59992 0
M  V30 8986 O 810.838 -1.76206 0.856045 0
M  V30 8987 H 809.418 0.11048 0.738785 0
M  V30 8988 H 812.08 0.965785 1.69289 0
M  V30 8989 H 811.176 0.368797 3.09913 0
M  V30 8990 N 811.477 -1.49425 0.500989 0
M  V30 8991 C 812.705 -2.06861 -0.0403443 0
M  V30 8992 C 813.12 -1.36132 -1.30819 0
M  V30 8993 O 812.477 -0.439647 -1.77125 0
M  V30 8994 C 812.528 -3.6027 -0.297902 0
M  V30 8995 O 812.249 -4.28338 0.919686 0
M  V30 8996 C 813.75 -4.34419 -0.882876 0
M  V30 8997 H 810.97 -0.670688 0.0204619 0
M  V30 8998 H 813.514 -1.92207 0.698342 0
M  V30 8999 H 811.669 -3.74627 -0.98657 0
M  V30 9000 H 812.083 -5.2004 0.682528 0
M  V30 9001 H 813.557 -5.42631 -1.01268 0
M  V30 9002 H 814.034 -3.96898 -1.88066 0
M  V30 9003 H 814.64 -4.24669 -0.231677 0
M  V30 9004 N 812.955 -0.234822 -1.55841 0
M  V30 9005 C 814.202 0.39326 -1.98645 0
M  V30 9006 C 814.53 1.58823 -1.12274 0
M  V30 9007 O 813.785 1.94954 -0.170731 0
M  V30 9008 C 814.084 0.858032 -3.46947 0
M  V30 9009 C 813.75 -0.227858 -4.50324 0
M  V30 9010 C 812.412 -0.526128 -4.78315 0
M  V30 9011 C 814.764 -0.961576 -5.12253 0
M  V30 9012 C 812.092 -1.5624 -5.65514 0
M  V30 9013 C 814.444 -1.98728 -6.00575 0
M  V30 9014 C 813.108 -2.29233 -6.26904 0
M  V30 9015 H 812.378 0.143904 -0.726892 0
M  V30 9016 H 815.025 -0.34012 -1.88455 0
M  V30 9017 H 813.33 1.67041 -3.54408 0
M  V30 9018 H 815.027 1.35407 -3.77447 0
M  V30 9019 H 811.617 0.0147624 -4.28597 0
M  V30 9020 H 815.801 -0.744388 -4.90686 0
M  V30 9021 H 811.057 -1.80422 -5.84173 0
M  V30 9022 H 815.231 -2.5608 -6.47608 0
M  V30 9023 H 812.858 -3.09671 -6.94268 0
M  V30 9024 N 814.433 1.57553 0.0384317 0
M  V30 9025 C 815.661 1.93093 0.743141 0
M  V30 9026 C 816.076 0.833787 1.69391 0
M  V30 9027 O 815.433 -0.190532 1.81503 0
M  V30 9028 C 815.484 3.28533 1.50826 0
M  V30 9029 O 815.205 4.34032 0.595665 0
M  V30 9030 C 816.706 3.78297 2.31098 0
M  V30 9031 H 813.926 0.637486 0.20941 0
M  V30 9032 H 816.47 2.045 -0.00125154 0
M  V30 9033 H 814.625 3.18552 2.20462 0
M  V30 9034 H 815.039 5.12155 1.13124 0
M  V30 9035 H 816.513 4.75602 2.80191 0
M  V30 9036 H 816.99 3.09008 3.12107 0
M  V30 9037 H 817.596 3.91331 1.66555 0
M  V30 9038 N 815.911 -0.310526 1.54511 0
M  V30 9039 C 817.157 -1.04459 1.74528 0
M  V30 9040 C 817.512 -1.85251 0.519613 0
M  V30 9041 O 816.805 -1.85281 -0.488001 0
M  V30 9042 C 816.999 -1.98942 2.96912 0
M  V30 9043 C 816.828 -1.27442 4.31264 0
M  V30 9044 C 815.598 -1.00552 4.95194 0
M  V30 9045 C 817.796 -0.683695 5.09735 0
M  V30 9046 N 815.778 -0.259797 6.1335 0
M  V30 9047 C 817.149 -0.0702549 6.1996 0
M  V30 9048 C 819.204 -0.587799 4.94418 0
M  V30 9049 C 817.907 0.629791 7.16538 0
M  V30 9050 C 819.933 0.0985719 5.91318 0
M  V30 9051 C 819.295 0.700902 7.00904 0
M  V30 9052 H 815.394 -0.365496 0.69133 0
M  V30 9053 H 817.978 -0.324277 1.91981 0
M  V30 9054 H 816.149 -2.68233 2.80902 0
M  V30 9055 H 817.881 -2.6543 3.05498 0
M  V30 9056 H 814.636 -1.30123 4.55374 0
M  V30 9057 H 815.06 0.099301 6.76927 0
M  V30 9058 H 819.702 -1.03919 4.0983 0
M  V30 9059 H 817.42 1.09298 8.00674 0
M  V30 9060 H 821.006 0.172585 5.81544 0
M  V30 9061 H 819.886 1.22357 7.74596 0
M  V30 9062 N 817.389 -1.46805 -0.573248 0
M  V30 9063 C 818.635 -1.5283 -1.33307 0
M  V30 9064 C 818.968 -0.183287 -1.93333 0
M  V30 9065 O 818.243 0.806354 -1.76998 0
M  V30 9066 C 818.526 -2.63414 -2.45531 0
M  V30 9067 C 818.379 -4.07478 -1.90478 0
M  V30 9068 C 819.698 -2.70014 -3.47535 0
M  V30 9069 H 816.817 -0.556371 -0.483343 0
M  V30 9070 H 819.459 -1.78787 -0.643066 0
M  V30 9071 H 817.609 -2.41412 -3.04389 0
M  V30 9072 H 819.281 -4.40795 -1.36004 0
M  V30 9073 H 817.524 -4.16511 -1.21248 0
M  V30 9074 H 818.195 -4.80598 -2.71531 0
M  V30 9075 H 820.671 -2.89817 -2.98572 0
M  V30 9076 H 819.547 -3.49192 -4.23504 0
M  V30 9077 H 819.808 -1.76436 -4.05367 0
M  V30 9078 N 818.867 0.818669 -1.34668 0
M  V30 9079 C 820.107 1.58862 -1.28617 0
M  V30 9080 C 820.471 1.91483 0.140845 0
M  V30 9081 O 821.672 2.66821 0.325583 0
M  V30 9082 C 819.943 2.85044 -2.15604 0
M  V30 9083 S 821.502 3.75553 -2.26948 0
M  V30 9084 H 818.32 0.544454 -0.457265 0
M  V30 9085 H 820.922 0.966679 -1.69928 0
M  V30 9086 H 819.626 2.59083 -3.18284 0
M  V30 9087 H 819.157 3.52231 -1.75205 0
M  V30 9088 H 821.172 4.74682 -1.44539 0
M  V30 9089 N 820.346 1.18468 1.03938 0
M  V30 9090 C 821.574 1.00576 1.80809 0
M  V30 9091 C 821.989 -0.445786 1.83462 0
M  V30 9092 O 821.346 -1.30964 1.27101 0
M  V30 9093 C 821.397 1.55491 3.26351 0
M  V30 9094 O 821.118 2.94963 3.23926 0
M  V30 9095 C 822.619 1.42236 4.19862 0
M  V30 9096 H 819.839 0.35508 0.56935 0
M  V30 9097 H 822.383 1.57046 1.30984 0
M  V30 9098 H 820.538 1.03195 3.73403 0
M  V30 9099 H 820.952 3.20598 4.15111 0
M  V30 9100 H 822.426 1.85455 5.19914 0
M  V30 9101 H 822.903 0.371267 4.37628 0
M  V30 9102 H 823.509 1.9361 3.78675 0
M  V30 9103 N 821.824 -1.22873 0.986916 0
M  V30 9104 C 823.235 -1.73264 0.695438 0
M  V30 9105 C 823.586 -1.79679 -0.788023 0
M  V30 9106 O 822.711 -1.43905 -1.61618 0
M  V30 9107 C 823.306 -3.14671 1.2557 0
M  V30 9108 C 821.865 -3.62492 1.01373 0
M  V30 9109 C 821.012 -2.40551 1.37951 0
M  V30 9110 H 823.963 -1.08304 1.15999 0
M  V30 9111 H 823.984 -3.75226 0.631322 0
M  V30 9112 H 823.496 -3.0997 2.33539 0
M  V30 9113 H 821.597 -3.72567 -0.0495917 0
M  V30 9114 H 821.71 -4.48944 1.67289 0
M  V30 9115 H 820.074 -2.41875 0.798033 0
M  V30 9116 H 820.857 -2.38516 2.46911 0
M  V30 9117 N 823.302 -0.75937 -1.38099 0
M  V30 9118 C 824.549 -0.318113 -1.99986 0
M  V30 9119 C 824.877 1.10184 -1.6028 0
M  V30 9120 O 824.132 1.77015 -0.834524 0
M  V30 9121 C 824.431 -0.394999 -3.55211 0
M  V30 9122 C 824.097 -1.77143 -4.14646 0
M  V30 9123 C 822.759 -2.14811 -4.30592 0
M  V30 9124 C 825.111 -2.67407 -4.47373 0
M  V30 9125 C 822.439 -3.42203 -4.76565 0
M  V30 9126 C 824.791 -3.94196 -4.94765 0
M  V30 9127 C 823.455 -4.31925 -5.08918 0
M  V30 9128 H 822.725 -0.116406 -0.7318 0
M  V30 9129 H 825.372 -0.97098 -1.65058 0
M  V30 9130 H 823.677 0.341426 -3.9031 0
M  V30 9131 H 825.374 -0.0350722 -4.00985 0
M  V30 9132 H 821.964 -1.46864 -4.02652 0
M  V30 9133 H 826.148 -2.39569 -4.3465 0
M  V30 9134 H 821.404 -3.71346 -4.85708 0
M  V30 9135 H 825.578 -4.64276 -5.19057 0
M  V30 9136 H 823.205 -5.30699 -5.443 0
M  V30 9137 N 824.78 1.49157 -0.508906 0
M  V30 9138 C 825.71 2.32109 0.254469 0
M  V30 9139 C 826.691 1.40754 0.955111 0
M  V30 9140 O 827.876 1.69658 0.944983 0
M  V30 9141 C 825.006 3.21458 1.3146 0
M  V30 9142 C 823.96 4.2167 0.733368 0
M  V30 9143 C 823.286 5.00009 1.8946 0
M  V30 9144 C 824.586 5.21544 -0.280875 0
M  V30 9145 H 826.28 2.9618 -0.43795 0
M  V30 9146 H 823.826 1.4243 -0.212062 0
M  V30 9147 H 825.779 3.78305 1.85643 0
M  V30 9148 H 824.503 2.55346 2.03632 0
M  V30 9149 H 823.162 3.65979 0.213231 0
M  V30 9150 H 822.81 4.30338 2.60419 0
M  V30 9151 H 822.51 5.67821 1.51173 0
M  V30 9152 H 824.034 5.59702 2.44061 0
M  V30 9153 H 825.448 5.73039 0.173095 0
M  V30 9154 H 823.845 5.97291 -0.580006 0
M  V30 9155 H 824.915 4.69969 -1.19404 0
M  V30 9156 N 826.258 0.243083 1.55714 0
M  V30 9157 C 827.504 -0.383287 1.99145 0
M  V30 9158 C 827.837 -1.57868 1.13098 0
M  V30 9159 O 827.112 -1.93535 0.193509 0
M  V30 9160 C 827.395 -0.796879 3.51172 0
M  V30 9161 C 827.248 0.403642 4.47985 0
M  V30 9162 C 828.567 -1.64525 4.08191 0
M  V30 9163 H 825.686 -0.137843 0.723995 0
M  V30 9164 H 828.328 0.343631 1.86867 0
M  V30 9165 H 826.478 -1.41625 3.61766 0
M  V30 9166 H 828.15 1.04204 4.49376 0
M  V30 9167 H 826.393 1.04741 4.20965 0
M  V30 9168 H 827.064 0.0709794 5.51954 0
M  V30 9169 H 829.54 -1.12246 4.00674 0
M  V30 9170 H 828.416 -1.9035 5.14838 0
M  V30 9171 H 828.677 -2.61582 3.56409 0
M  V30 9172 N 827.736 -1.57571 -0.0300757 0
M  V30 9173 C 828.699 -2.05468 -1.01565 0
M  V30 9174 C 829.699 -0.958628 -1.29101 0
M  V30 9175 O 830.889 -1.22228 -1.24121 0
M  V30 9176 C 828.021 -2.47077 -2.34874 0
M  V30 9177 H 829.214 -2.93797 -0.601936 0
M  V30 9178 H 826.767 -1.53828 -0.276878 0
M  V30 9179 H 827.502 -1.61901 -2.80996 0
M  V30 9180 H 827.287 -3.27097 -2.16218 0
M  V30 9181 H 828.777 -2.84564 -3.05635 0
M  V30 9182 N 829.214 0.302327 -1.54673 0
M  V30 9183 C 830.144 1.37759 -1.88533 0
M  V30 9184 C 831.125 1.52961 -0.744113 0
M  V30 9185 O 832.31 1.6649 -0.999731 0
M  V30 9186 C 829.44 2.74201 -2.13146 0
M  V30 9187 C 828.394 2.73765 -3.28993 0
M  V30 9188 C 827.72 4.13483 -3.39022 0
M  V30 9189 C 829.02 2.35624 -4.66132 0
M  V30 9190 H 830.714 1.0967 -2.78591 0
M  V30 9191 H 828.26 0.52613 -1.34044 0
M  V30 9192 H 830.213 3.49508 -2.35419 0
M  V30 9193 H 828.937 3.03812 -1.19858 0
M  V30 9194 H 827.596 2.00914 -3.06642 0
M  V30 9195 H 827.244 4.40269 -2.43253 0
M  V30 9196 H 826.944 4.14093 -4.16894 0
M  V30 9197 H 828.468 4.90572 -3.63553 0
M  V30 9198 H 829.882 3.00647 -4.88143 0
M  V30 9199 H 828.279 2.47449 -5.46707 0
M  V30 9200 H 829.349 1.30753 -4.66939 0
M  V30 9201 N 830.692 1.47107 0.565454 0
M  V30 9202 C 831.932 1.5488 1.33385 0
M  V30 9203 C 832.296 0.202804 1.90926 0
M  V30 9204 O 833.497 0.155345 2.68351 0
M  V30 9205 C 831.768 2.62969 2.42037 0
M  V30 9206 S 833.327 2.90269 3.29074 0
M  V30 9207 H 830.145 0.547008 0.454206 0
M  V30 9208 H 832.747 1.8444 0.648228 0
M  V30 9209 H 831.451 3.59376 1.98185 0
M  V30 9210 H 830.982 2.35197 3.15351 0
M  V30 9211 H 832.997 2.26854 4.41307 0
M  V30 9212 N 832.17 -0.811516 1.35101 0
M  V30 9213 C 833.398 -1.59981 1.31201 0
M  V30 9214 C 833.813 -1.8847 -0.111552 0
M  V30 9215 O 833.17 -1.48414 -1.06205 0
M  V30 9216 C 833.221 -2.934 2.11184 0
M  V30 9217 O 832.942 -2.66148 3.4799 0
M  V30 9218 C 834.443 -3.87776 2.14813 0
M  V30 9219 H 831.663 -0.496921 0.450899 0
M  V30 9220 H 834.207 -1.00886 1.77883 0
M  V30 9221 H 832.362 -3.49022 1.68115 0
M  V30 9222 H 832.776 -3.51301 3.89471 0
M  V30 9223 H 834.25 -4.7852 2.75178 0
M  V30 9224 H 834.727 -4.23997 1.14556 0
M  V30 9225 H 835.333 -3.3809 2.58022 0
M  V30 9226 N 833.648 -1.19017 -1.03309 0
M  V30 9227 C 834.895 -0.990214 -1.76638 0
M  V30 9228 C 835.223 0.479435 -1.88498 0
M  V30 9229 O 834.478 1.37223 -1.39529 0
M  V30 9230 C 834.777 -1.59927 -3.19622 0
M  V30 9231 C 834.443 -3.09632 -3.27779 0
M  V30 9232 C 833.105 -3.50491 -3.29712 0
M  V30 9233 C 835.457 -4.05644 -3.27264 0
M  V30 9234 C 832.785 -4.85921 -3.28782 0
M  V30 9235 C 835.137 -5.41 -3.27875 0
M  V30 9236 C 833.801 -5.81295 -3.28104 0
M  V30 9237 H 833.071 -0.362345 -0.646364 0
M  V30 9238 H 835.718 -1.48197 -1.21284 0
M  V30 9239 H 834.023 -1.0297 -3.78027 0
M  V30 9240 H 835.72 -1.41989 -3.7502 0
M  V30 9241 H 832.31 -2.77073 -3.26999 0
M  V30 9242 H 836.494 -3.75124 -3.24955 0
M  V30 9243 H 831.75 -5.16427 -3.27281 0
M  V30 9244 H 835.924 -6.15157 -3.26428 0
M  V30 9245 H 833.551 -6.86211 -3.27138 0
M  V30 9246 N 835.127 1.22348 -0.993418 0
M  V30 9247 C 836.09 2.22522 -0.549251 0
M  V30 9248 C 837.09 1.56529 0.368164 0
M  V30 9249 O 838.28 1.73463 0.16005 0
M  V30 9250 C 835.412 3.40307 0.201037 0
M  V30 9251 H 836.605 2.63332 -1.43515 0
M  V30 9252 H 834.158 1.35407 -0.78068 0
M  V30 9253 H 834.893 3.0497 1.10289 0
M  V30 9254 H 834.678 3.8942 -0.457685 0
M  V30 9255 H 836.168 4.14597 0.499946 0
M  V30 9256 N 836.605 0.766683 1.37694 0
M  V30 9257 C 837.851 0.329201 2.0011 0
M  V30 9258 C 838.184 -1.09004 1.60723 0
M  V30 9259 O 837.459 -1.74895 0.850989 0
M  V30 9260 C 837.742 0.466989 3.57059 0
M  V30 9261 C 837.595 1.92828 4.06371 0
M  V30 9262 C 838.914 -0.131792 4.39903 0
M  V30 9263 H 836.033 0.12109 0.726984 0
M  V30 9264 H 838.675 0.968779 1.63446 0
M  V30 9265 H 836.825 -0.0775023 3.88423 0
M  V30 9266 H 838.497 2.53208 3.85595 0
M  V30 9267 H 836.74 2.43884 3.58752 0
M  V30 9268 H 837.411 1.97577 5.15429 0
M  V30 9269 H 839.887 0.332731 4.14768 0
M  V30 9270 H 838.763 -0.005217 5.489 0
M  V30 9271 H 839.024 -1.22156 4.24889 0
M  V30 9272 N 838.083 -1.48885 0.516809 0
M  V30 9273 C 839.313 -2.06592 -0.018375 0
M  V30 9274 C 839.721 -1.37543 -1.29917 0
M  V30 9275 O 839.064 -0.452527 -1.78039 0
M  V30 9276 C 839.126 -3.58016 -0.326315 0
M  V30 9277 C 838.79 -4.48853 0.859072 0
M  V30 9278 C 839.787 -4.89422 1.75391 0
M  V30 9279 C 837.472 -4.90937 1.06235 0
M  V30 9280 C 839.466 -5.70831 2.83604 0
M  V30 9281 C 837.153 -5.72119 2.14763 0
M  V30 9282 C 838.151 -6.11972 3.03281 0
M  V30 9283 O 837.839 -6.91527 4.09934 0
M  V30 9284 H 837.571 -0.675559 0.0244023 0
M  V30 9285 H 840.125 -1.92442 0.718005 0
M  V30 9286 H 838.355 -3.70231 -1.1165 0
M  V30 9287 H 840.044 -3.97898 -0.801999 0
M  V30 9288 H 840.81 -4.57542 1.60875 0
M  V30 9289 H 836.689 -4.59409 0.382677 0
M  V30 9290 H 840.233 -6.01857 3.52724 0
M  V30 9291 H 836.13 -6.03412 2.29268 0
M  V30 9292 H 836.898 -7.0986 4.07482 0
M  V30 9293 N 839.561 -0.251338 -1.55583 0
M  V30 9294 C 840.807 0.37272 -1.99346 0
M  V30 9295 C 841.14 1.57266 -1.13934 0
M  V30 9296 O 840.415 1.9343 -0.20377 0
M  V30 9297 C 840.698 0.778245 -3.5159 0
M  V30 9298 C 840.551 -0.427394 -4.47765 0
M  V30 9299 C 841.87 1.62358 -4.09057 0
M  V30 9300 H 838.989 0.134002 -0.724715 0
M  V30 9301 H 841.631 -0.353536 -1.86682 0
M  V30 9302 H 839.781 1.39704 -3.62512 0
M  V30 9303 H 841.453 -1.06586 -4.48818 0
M  V30 9304 H 839.696 -1.06972 -4.20404 0
M  V30 9305 H 840.367 -0.10025 -5.51909 0
M  V30 9306 H 842.843 1.1012 -4.01264 0
M  V30 9307 H 841.719 1.87617 -5.1584 0
M  V30 9308 H 841.98 2.59688 -3.57791 0
M  V30 9309 N 841.039 1.57585 0.0217189 0
M  V30 9310 C 842.267 1.93871 0.722619 0
M  V30 9311 C 842.682 0.851706 1.68498 0
M  V30 9312 O 842.039 -0.17127 1.81695 0
M  V30 9313 C 842.09 3.30114 1.47333 0
M  V30 9314 O 841.811 4.34639 0.549597 0
M  V30 9315 C 843.312 3.80727 2.27072 0
M  V30 9316 H 840.532 0.639671 0.202637 0
M  V30 9317 H 843.076 2.04487 -0.0229414 0
M  V30 9318 H 841.231 3.20872 2.17071 0
M  V30 9319 H 841.645 5.13326 1.07686 0
M  V30 9320 H 843.119 4.78547 2.75131 0
M  V30 9321 H 843.596 3.12301 3.08812 0
M  V30 9322 H 844.202 3.93075 1.62395 0
M  V30 9323 N 842.517 -0.29412 1.54831 0
M  V30 9324 C 843.766 -1.02614 1.73647 0
M  V30 9325 C 844.079 -1.88193 0.533162 0
M  V30 9326 O 845.285 -2.64713 0.603275 0
M  V30 9327 C 843.741 -1.87417 3.07251 0
M  V30 9328 C 843.349 -1.06806 4.35082 0
M  V30 9329 C 845.093 -2.60176 3.35423 0
M  V30 9330 C 843 -1.90926 5.59733 0
M  V30 9331 H 841.93 -0.386834 0.647206 0
M  V30 9332 H 844.581 -0.282789 1.81308 0
M  V30 9333 H 842.963 -2.65765 2.93572 0
M  V30 9334 H 844.137 -0.330226 4.59615 0
M  V30 9335 H 842.452 -0.455979 4.13896 0
M  V30 9336 H 845.049 -3.23476 4.25755 0
M  V30 9337 H 845.392 -3.29365 2.54606 0
M  V30 9338 H 845.925 -1.88871 3.50103 0
M  V30 9339 H 842.664 -1.26194 6.43238 0
M  V30 9340 H 842.184 -2.62363 5.39375 0
M  V30 9341 H 843.863 -2.48807 5.97247 0
M  V30 9342 N 843.995 -1.47404 -0.557645 0
M  V30 9343 C 845.272 -1.44488 -1.31843 0
M  V30 9344 C 845.652 -0.1416 -2.10625 0
M  V30 9345 O 845 0.876908 -2.11004 0
M  V30 9346 C 845.21 -2.69016 -2.22331 0
M  V30 9347 C 846.558 -3.16212 -2.83364 0
M  V30 9348 O 847.582 -2.69741 -2.32634 0
M  V30 9349 O 846.441 -3.96999 -3.75571 0
M  V30 9350 H 843.535 -0.57578 -0.593639 0
M  V30 9351 H 846.081 -1.59605 -0.576584 0
M  V30 9352 H 844.853 -3.55406 -1.63715 0
M  V30 9353 H 844.476 -2.56484 -3.03812 0
M  V30 9354 N 845.473 0.80434 -1.35529 0
M  V30 9355 C 846.383 1.94784 -1.30753 0
M  V30 9356 C 847.399 1.72703 -0.212071 0
M  V30 9357 O 848.575 1.96494 -0.441841 0
M  V30 9358 C 845.64 3.29406 -1.08133 0
M  V30 9359 C 844.701 3.64367 -2.27013 0
M  V30 9360 C 843.934 4.92566 -2.05463 0
M  V30 9361 O 844.157 5.61166 -1.02222 0
M  V30 9362 O 843.091 5.25838 -2.92879 0
M  V30 9363 H 846.917 2.01761 -2.26994 0
M  V30 9364 H 844.502 0.942448 -1.15924 0
M  V30 9365 H 846.384 4.09995 -0.973756 0
M  V30 9366 H 845.059 3.23355 -0.149444 0
M  V30 9367 H 843.966 2.84146 -2.43335 0
M  V30 9368 H 845.299 3.75125 -3.18656 0
M  V30 9369 N 846.951 1.19563 1.02676 0
M  V30 9370 C 847.899 0.931942 2.13114 0
M  V30 9371 C 848.893 -0.113007 1.69023 0
M  V30 9372 O 850.099 0.0364298 1.79963 0
M  V30 9373 H 846.474 0.283981 0.696318 0
M  V30 9374 H 848.445 1.86991 2.32545 0
M  V30 9375 C 847.194 0.489461 3.44238 0
M  V30 9376 H 846.517 1.28508 3.78584 0
M  V30 9377 H 847.957 0.34408 4.22602 0
M  V30 9378 C 846.416 -0.796761 3.27343 0
M  V30 9379 O 846.946 -1.85767 3.56165 0
M  V30 9380 N 845.152 -0.754824 2.80626 0
M  V30 9381 H 844.699 0.108778 2.5737 0
M  V30 9382 H 844.657 -1.6158 2.69702 0
M  V30 9383 N 848.429 -1.21819 0.999893 0
M  V30 9384 C 849.377 -2.26027 0.549047 0
M  V30 9385 C 850.371 -1.64516 -0.403826 0
M  V30 9386 O 851.577 -1.77878 -0.275578 0
M  V30 9387 H 847.952 -0.734958 0.159185 0
M  V30 9388 H 849.923 -2.61398 1.43923 0
M  V30 9389 C 848.672 -3.47514 -0.11369 0
M  V30 9390 H 847.995 -3.95112 0.610482 0
M  V30 9391 H 849.435 -4.22179 -0.3925 0
M  V30 9392 C 847.894 -3.08614 -1.35126 0
M  V30 9393 O 848.424 -3.1864 -2.44605 0
M  V30 9394 N 846.63 -2.63327 -1.22911 0
M  V30 9395 H 846.177 -2.55369 -0.338288 0
M  V30 9396 H 846.135 -2.37668 -2.05818 0
M  V30 9397 N 849.908 -0.773975 -1.37286 0
M  V30 9398 C 851.157 -0.335977 -1.98882 0
M  V30 9399 C 851.47 1.09416 -1.62134 0
M  V30 9400 O 852.676 1.63366 -2.1685 0
M  V30 9401 C 851.132 -0.549756 -3.55676 0
M  V30 9402 C 850.74 -1.9903 -4.01361 0
M  V30 9403 C 852.484 -0.175493 -4.24137 0
M  V30 9404 C 850.391 -2.15156 -5.50874 0
M  V30 9405 H 849.321 -0.121877 -0.744085 0
M  V30 9406 H 851.972 -0.953419 -1.56787 0
M  V30 9407 H 850.354 0.137175 -3.95762 0
M  V30 9408 H 851.528 -2.71237 -3.72515 0
M  V30 9409 H 849.843 -2.32137 -3.4569 0
M  V30 9410 H 852.44 -0.274463 -5.33995 0
M  V30 9411 H 852.783 0.874524 -4.07011 0
M  V30 9412 H 853.316 -0.815058 -3.89361 0
M  V30 9413 H 850.055 -3.18485 -5.72929 0
M  V30 9414 H 849.575 -1.47435 -5.81397 0
M  V30 9415 H 851.254 -1.95124 -6.16876 0
M  V30 9416 N 851.386 1.48609 -0.524698 0
M  V30 9417 C 852.316 2.32366 0.229837 0
M  V30 9418 C 853.297 1.41759 0.940129 0
M  V30 9419 O 854.482 1.7065 0.926936 0
M  V30 9420 C 851.612 3.22835 1.28043 0
M  V30 9421 C 850.566 4.22424 0.688603 0
M  V30 9422 C 849.892 5.0199 1.84146 0
M  V30 9423 C 851.192 5.21217 -0.336176 0
M  V30 9424 H 852.886 2.95698 -0.469339 0
M  V30 9425 H 850.432 1.42197 -0.227156 0
M  V30 9426 H 852.385 3.80253 1.8162 0
M  V30 9427 H 851.109 2.57492 2.00912 0
M  V30 9428 H 849.768 3.66185 0.174402 0
M  V30 9429 H 849.416 4.33076 2.5584 0
M  V30 9430 H 849.116 5.69392 1.45142 0
M  V30 9431 H 850.64 5.62259 2.38111 0
M  V30 9432 H 852.054 5.7319 0.112307 0
M  V30 9433 H 850.451 5.96642 -0.643324 0
M  V30 9434 H 851.521 4.68676 -1.24381 0
M  V30 9435 N 852.864 0.259585 1.55447 0
M  V30 9436 C 854.141 -0.412595 1.91199 0
M  V30 9437 C 854.521 -1.74909 1.18194 0
M  V30 9438 O 853.869 -2.26474 0.303603 0
M  V30 9439 C 854.079 -0.568195 3.44344 0
M  V30 9440 C 855.427 -0.858253 4.15836 0
M  V30 9441 O 856.451 -0.653588 3.50152 0
M  V30 9442 O 855.31 -1.24874 5.32042 0
M  V30 9443 H 852.404 -0.223403 0.796254 0
M  V30 9444 H 854.95 0.30459 1.66944 0
M  V30 9445 H 853.722 0.372989 3.89518 0
M  V30 9446 H 853.345 -1.33544 3.74502 0
M  V30 9447 N 854.342 -1.57594 -0.0133615 0
M  V30 9448 C 855.305 -2.06534 -0.993799 0
M  V30 9449 C 856.305 -0.972267 -1.28077 0
M  V30 9450 O 857.495 -1.23537 -1.22818 0
M  V30 9451 C 854.627 -2.49554 -2.3224 0
M  V30 9452 H 855.82 -2.94419 -0.570741 0
M  V30 9453 H 853.373 -1.54113 -0.260546 0
M  V30 9454 H 854.108 -1.64872 -2.79263 0
M  V30 9455 H 853.893 -3.29371 -2.12737 0
M  V30 9456 H 855.383 -2.8779 -3.026 0
M  V30 9457 N 855.82 0.285905 -1.54985 0
M  V30 9458 C 856.752 1.37505 -1.83371 0
M  V30 9459 C 857.765 1.46138 -0.717454 0
M  V30 9460 O 858.954 1.48186 -0.995142 0
M  V30 9461 C 856.054 2.7575 -1.97016 0
M  V30 9462 C 855.227 2.89866 -3.27561 0
M  V30 9463 C 854.286 4.08704 -3.31433 0
M  V30 9464 O 853.312 4.00073 -4.04883 0
M  V30 9465 N 854.514 5.20062 -2.57907 0
M  V30 9466 H 857.279 1.13505 -2.77375 0
M  V30 9467 H 854.84 0.476006 -1.54744 0
M  V30 9468 H 856.832 3.5352 -1.96991 0
M  V30 9469 H 855.402 2.9263 -1.09938 0
M  V30 9470 H 854.622 1.99085 -3.40234 0
M  V30 9471 H 855.91 2.96219 -4.13681 0
M  V30 9472 H 855.308 5.29958 -1.97891 0
M  V30 9473 H 853.865 5.96111 -2.63619 0
M  V30 9474 N 857.298 1.47698 0.54982 0
M  V30 9475 C 858.526 1.5833 1.33188 0
M  V30 9476 C 858.941 0.236193 1.87317 0
M  V30 9477 O 858.298 -0.77167 1.65383 0
M  V30 9478 C 858.349 2.61438 2.49664 0
M  V30 9479 O 858.07 3.9092 1.97771 0
M  V30 9480 C 859.571 2.82324 3.41772 0
M  V30 9481 H 856.791 0.53443 0.405741 0
M  V30 9482 H 859.335 1.93375 0.665309 0
M  V30 9483 H 857.49 2.29307 3.12245 0
M  V30 9484 H 857.904 4.47323 2.73866 0
M  V30 9485 H 859.378 3.58316 4.19897 0
M  V30 9486 H 859.855 1.90416 3.95776 0
M  V30 9487 H 860.461 3.15682 2.85 0
M  V30 9488 N 858.776 -0.797141 1.35954 0
M  V30 9489 C 859.739 -1.89104 1.29508 0
M  V30 9490 C 860.739 -1.59495 0.204444 0
M  V30 9491 O 861.929 -1.68051 0.458746 0
M  V30 9492 C 859.061 -3.25726 1.00576 0
M  V30 9493 H 860.254 -1.96237 2.26785 0
M  V30 9494 H 857.807 -0.994075 1.20614 0
M  V30 9495 H 858.542 -3.24279 0.0372519 0
M  V30 9496 H 858.327 -3.48604 1.79492 0
M  V30 9497 H 859.817 -4.0578 0.986508 0
M  V30 9498 N 860.254 -1.20106 -1.0204 0
M  V30 9499 C 861.501 -1.00889 -1.75578 0
M  V30 9500 C 861.829 0.459415 -1.88996 0
M  V30 9501 O 861.084 1.35735 -1.40977 0
M  V30 9502 C 861.383 -1.63308 -3.17908 0
M  V30 9503 C 861.049 -3.13091 -3.24476 0
M  V30 9504 C 859.711 -3.53968 -3.25976 0
M  V30 9505 C 862.063 -4.09093 -3.22944 0
M  V30 9506 C 859.391 -4.89381 -3.2361 0
M  V30 9507 C 861.743 -5.44447 -3.22119 0
M  V30 9508 C 860.407 -5.84742 -3.2192 0
M  V30 9509 H 859.677 -0.36918 -0.642485 0
M  V30 9510 H 862.324 -1.49475 -1.19706 0
M  V30 9511 H 860.629 -1.06974 -3.76914 0
M  V30 9512 H 862.326 -1.45958 -3.73493 0
M  V30 9513 H 858.916 -2.80526 -3.24042 0
M  V30 9514 H 863.1 -3.78549 -3.20958 0
M  V30 9515 H 858.356 -5.1987 -3.21785 0
M  V30 9516 H 862.53 -6.18584 -3.19885 0
M  V30 9517 H 860.157 -6.89642 -3.19841 0
M  V30 9518 N 861.732 1.21287 -1.00634 0
M  V30 9519 C 862.978 1.90671 -0.690822 0
M  V30 9520 C 863.311 1.77996 0.776592 0
M  V30 9521 O 862.586 1.15748 1.5631 0
M  V30 9522 C 862.869 3.42426 -1.11428 0
M  V30 9523 C 862.722 3.64086 -2.64124 0
M  V30 9524 C 864.041 4.34851 -0.677686 0
M  V30 9525 H 861.16 0.692419 -0.252439 0
M  V30 9526 H 863.802 1.42893 -1.25226 0
M  V30 9527 H 861.952 3.83249 -0.636586 0
M  V30 9528 H 863.624 3.32582 -3.19667 0
M  V30 9529 H 861.867 3.07906 -3.05576 0
M  V30 9530 H 862.538 4.7042 -2.88806 0
M  V30 9531 H 865.014 4.01619 -1.0882 0
M  V30 9532 H 863.89 5.39675 -1.00213 0
M  V30 9533 H 864.151 4.4009 0.421125 0
M  V30 9534 N 863.21 0.781244 1.36873 0
M  V30 9535 C 864.435 0.360398 2.04245 0
M  V30 9536 C 864.86 -1.01242 1.58529 0
M  V30 9537 O 864.218 -1.65063 0.749936 0
M  V30 9538 C 864.266 0.42329 3.58107 0
M  V30 9539 O 863.37 -0.572796 4.08403 0
M  V30 9540 H 862.711 0.154386 0.645803 0
M  V30 9541 H 865.241 1.06008 1.74996 0
M  V30 9542 H 865.251 0.283967 4.07011 0
M  V30 9543 H 863.926 1.42477 3.90734 0
M  V30 9544 H 862.503 -0.395809 3.70793 0
M  V30 9545 N 864.689 -1.48329 0.532571 0
M  V30 9546 C 865.619 -2.32485 -0.217511 0
M  V30 9547 C 866.6 -1.42255 -0.932598 0
M  V30 9548 O 867.785 -1.7114 -0.917873 0
M  V30 9549 C 864.915 -3.23509 -1.26329 0
M  V30 9550 C 863.869 -4.22784 -0.666191 0
M  V30 9551 C 863.195 -5.0296 -1.81482 0
M  V30 9552 C 864.495 -5.21031 0.363813 0
M  V30 9553 H 866.189 -2.95445 0.485014 0
M  V30 9554 H 863.735 -1.42075 0.234694 0
M  V30 9555 H 865.688 -3.81211 -1.79601 0
M  V30 9556 H 864.412 -2.58554 -1.99543 0
M  V30 9557 H 863.071 -3.66272 -0.15498 0
M  V30 9558 H 862.719 -4.34427 -2.5354 0
M  V30 9559 H 862.419 -5.70154 -1.4212 0
M  V30 9560 H 863.943 -5.63514 -2.35126 0
M  V30 9561 H 865.357 -5.73241 -0.0819079 0
M  V30 9562 H 863.754 -5.96292 0.674956 0
M  V30 9563 H 864.824 -4.6801 1.26865 0
M  V30 9564 N 866.167 -0.267825 -1.55308 0
M  V30 9565 C 867.13 0.60965 -2.20943 0
M  V30 9566 C 868.13 1.0869 -1.18504 0
M  V30 9567 O 869.32 0.988248 -1.43455 0
M  V30 9568 C 866.452 1.84027 -2.86961 0
M  V30 9569 H 867.645 0.0366806 -2.99878 0
M  V30 9570 H 865.198 -0.0183941 -1.56289 0
M  V30 9571 H 865.933 2.45394 -2.1202 0
M  V30 9572 H 865.718 1.50605 -3.62023 0
M  V30 9573 H 867.208 2.46442 -3.37129 0
M  V30 9574 N 867.645 1.57599 0.00500368 0
M  V30 9575 C 868.575 2.11143 0.99705 0
M  V30 9576 C 869.556 1.0194 1.3617 0
M  V30 9577 O 870.741 1.29596 1.44632 0
M  V30 9578 C 867.871 2.61062 2.2905 0
M  V30 9579 C 866.825 3.74745 2.0676 0
M  V30 9580 C 866.151 4.10961 3.42075 0
M  V30 9581 C 867.451 5.02222 1.43424 0
M  V30 9582 H 869.145 2.94281 0.551251 0
M  V30 9583 H 866.691 1.41565 0.263715 0
M  V30 9584 H 868.644 2.97146 2.98801 0
M  V30 9585 H 867.368 1.75038 2.75734 0
M  V30 9586 H 866.027 3.39047 1.39436 0
M  V30 9587 H 865.675 3.21968 3.86453 0
M  V30 9588 H 865.375 4.87549 3.27979 0
M  V30 9589 H 866.899 4.49599 4.1315 0
M  V30 9590 H 868.313 5.36109 2.03125 0
M  V30 9591 H 866.71 5.83581 1.39831 0
M  V30 9592 H 867.78 4.83224 0.40285 0
M  V30 9593 N 869.123 -0.277682 1.55134 0
M  V30 9594 C 870.37 -1.0099 1.7552 0
M  V30 9595 C 870.698 -1.86452 0.553712 0
M  V30 9596 O 869.953 -1.90122 -0.463896 0
M  V30 9597 C 870.252 -1.92599 3.01065 0
M  V30 9598 C 869.918 -1.22926 4.3382 0
M  V30 9599 C 868.58 -1.03659 4.69902 0
M  V30 9600 C 870.932 -0.733071 5.16019 0
M  V30 9601 C 868.26 -0.334933 5.85743 0
M  V30 9602 C 870.612 -0.0450319 6.32584 0
M  V30 9603 C 869.276 0.159393 6.6731 0
M  V30 9604 H 868.546 -0.36955 0.642273 0
M  V30 9605 H 871.193 -0.282611 1.89403 0
M  V30 9606 H 869.498 -2.71934 2.82062 0
M  V30 9607 H 871.195 -2.49367 3.14034 0
M  V30 9608 H 867.785 -1.38933 4.05457 0
M  V30 9609 H 871.969 -0.869565 4.88623 0
M  V30 9610 H 867.225 -0.165783 6.11175 0
M  V30 9611 H 871.399 0.34723 6.95534 0
M  V30 9612 H 869.026 0.70507 7.56923 0
M  V30 9613 N 870.601 -1.47988 -0.541979 0
M  V30 9614 C 871.549 -1.62044 -1.66867 0
M  V30 9615 C 872.543 -0.487217 -1.62242 0
M  V30 9616 O 873.749 -0.66554 -1.67244 0
M  V30 9617 H 870.124 -0.51024 -0.552412 0
M  V30 9618 H 872.095 -2.56695 -1.52153 0
M  V30 9619 C 870.844 -1.66615 -3.0518 0
M  V30 9620 H 870.167 -2.5317 -3.09427 0
M  V30 9621 H 871.607 -1.80496 -3.83663 0
M  V30 9622 C 870.066 -0.402421 -3.34488 0
M  V30 9623 O 870.596 0.48992 -3.98701 0
M  V30 9624 N 868.802 -0.277778 -2.89269 0
M  V30 9625 H 868.349 -1.00488 -2.37192 0
M  V30 9626 H 868.307 0.566784 -3.09249 0
M  V30 9627 N 872.079 0.78992 -1.36375 0
M  V30 9628 C 873.328 1.54296 -1.29906 0
M  V30 9629 C 873.641 1.95234 0.119651 0
M  V30 9630 O 874.847 2.69762 0.306708 0
M  V30 9631 C 873.303 2.78533 -2.27919 0
M  V30 9632 C 872.911 2.44767 -3.75224 0
M  V30 9633 C 874.655 3.56516 -2.30427 0
M  V30 9634 C 872.562 3.65397 -4.65015 0
M  V30 9635 H 871.492 0.579214 -0.482729 0
M  V30 9636 H 874.143 0.866845 -1.61735 0
M  V30 9637 H 872.525 3.47941 -1.89084 0
M  V30 9638 H 873.699 1.83259 -4.22792 0
M  V30 9639 H 872.014 1.79996 -3.75487 0
M  V30 9640 H 874.611 4.46143 -2.94722 0
M  V30 9641 H 874.954 3.95063 -1.31266 0
M  V30 9642 H 875.487 2.94087 -2.67876 0
M  V30 9643 H 872.226 3.31946 -5.65236 0
M  V30 9644 H 871.746 4.26072 -4.22164 0
M  V30 9645 H 873.425 4.32431 -4.81261 0
M  V30 9646 N 873.557 1.20646 1.01402 0
M  V30 9647 C 874.487 0.98155 2.11867 0
M  V30 9648 C 875.468 -0.0903712 1.6986 0
M  V30 9649 O 876.653 0.0676586 1.94082 0
M  V30 9650 C 873.783 0.535636 3.43145 0
M  V30 9651 C 872.737 1.55109 3.98905 0
M  V30 9652 C 872.063 0.961725 5.2598 0
M  V30 9653 C 873.363 2.93552 4.32001 0
M  V30 9654 H 875.057 1.90544 2.3094 0
M  V30 9655 H 872.603 0.917554 1.10982 0
M  V30 9656 H 874.556 0.365512 4.19812 0
M  V30 9657 H 873.28 -0.423882 3.23838 0
M  V30 9658 H 871.939 1.70862 3.24348 0
M  V30 9659 H 871.587 -0.00580108 5.03 0
M  V30 9660 H 871.287 1.63993 5.64252 0
M  V30 9661 H 872.811 0.802726 6.053 0
M  V30 9662 H 874.225 2.81295 4.99546 0
M  V30 9663 H 872.622 3.58303 4.81393 0
M  V30 9664 H 873.692 3.4508 3.40658 0
M  V30 9665 N 875.035 -1.20752 1.01276 0
M  V30 9666 C 876.451 -1.42084 0.726934 0
M  V30 9667 C 876.651 -1.89138 -0.694907 0
M  V30 9668 O 875.707 -2.05783 -1.4632 0
M  V30 9669 C 877.02 -2.44575 1.74938 0
M  V30 9670 C 878.568 -2.58347 1.76708 0
M  V30 9671 C 879.043 -3.64078 2.77869 0
M  V30 9672 N 880.534 -3.71558 2.76585 0
M  V30 9673 C 881.269 -4.53016 3.51517 0
M  V30 9674 N 880.765 -5.38309 4.36114 0
M  V30 9675 N 882.558 -4.47512 3.40132 0
M  V30 9676 H 874.709 -0.885228 1.93074 0
M  V30 9677 H 876.972 -0.451075 0.833808 0
M  V30 9678 H 876.678 -2.1699 2.76782 0
M  V30 9679 H 876.552 -3.43503 1.55838 0
M  V30 9680 H 878.939 -2.85265 0.755516 0
M  V30 9681 H 879.02 -1.59628 1.99882 0
M  V30 9682 H 878.664 -3.37905 3.79187 0
M  V30 9683 H 878.594 -4.62412 2.51958 0
M  V30 9684 H 881.085 -3.10629 2.15216 0
M  V30 9685 H 881.398 -5.9754 4.90068 0
M  V30 9686 H 879.743 -5.37824 4.40194 0
M  V30 9687 H 882.934 -3.79912 2.73467 0
M  V30 9688 H 883.107 -5.10759 3.98784 0
M  V30 9689 N 876.513 -0.788492 -1.36457 0
M  V30 9690 C 877.76 -0.360461 -1.99266 0
M  V30 9691 C 878.088 1.0676 -1.62581 0
M  V30 9692 O 877.343 1.75205 -0.871884 0
M  V30 9693 C 877.642 -0.470255 -3.54293 0
M  V30 9694 C 877.308 -1.85899 -4.10795 0
M  V30 9695 C 875.97 -2.23896 -4.25939 0
M  V30 9696 C 878.322 -2.76836 -4.41601 0
M  V30 9697 C 875.65 -3.52235 -4.69199 0
M  V30 9698 C 878.002 -4.04602 -4.86292 0
M  V30 9699 C 876.666 -4.42623 -4.99641 0
M  V30 9700 H 875.936 -0.131902 -0.729166 0
M  V30 9701 H 878.583 -1.00577 -1.62962 0
M  V30 9702 H 876.888 0.258559 -3.90946 0
M  V30 9703 H 878.585 -0.120119 -4.0082 0
M  V30 9704 H 875.175 -1.55372 -3.99447 0
M  V30 9705 H 879.359 -2.48735 -4.2947 0
M  V30 9706 H 874.615 -3.81565 -4.77722 0
M  V30 9707 H 878.789 -4.75182 -5.09092 0
M  V30 9708 H 876.416 -5.42125 -5.32921 0
M  V30 9709 N 877.991 1.48044 -0.54043 0
M  V30 9710 C 879.402 1.86418 -0.102662 0
M  V30 9711 C 879.753 1.4489 1.32293 0
M  V30 9712 O 878.878 0.844319 1.99249 0
M  V30 9713 C 879.473 3.38324 -0.179533 0
M  V30 9714 C 878.032 3.75852 0.203098 0
M  V30 9715 C 877.179 2.72097 -0.534637 0
M  V30 9716 H 880.13 1.398 -0.751103 0
M  V30 9717 H 880.151 3.75641 0.606147 0
M  V30 9718 H 879.663 3.68518 -1.21721 0
M  V30 9719 H 877.764 3.51272 1.24252 0
M  V30 9720 H 877.877 4.78884 -0.143784 0
M  V30 9721 H 876.241 2.54692 0.0203358 0
M  V30 9722 H 877.024 3.05135 -1.57314 0
M  V30 9723 N 879.47 0.276058 1.55163 0
M  V30 9724 C 880.4 -0.604633 2.25536 0
M  V30 9725 C 881.381 -1.15813 1.24585 0
M  V30 9726 O 882.566 -1.1921 1.53306 0
M  V30 9727 C 879.696 -1.78836 2.97716 0
M  V30 9728 C 878.65 -1.36635 4.05604 0
M  V30 9729 C 877.976 -2.63325 4.65364 0
M  V30 9730 C 879.276 -0.515858 5.19746 0
M  V30 9731 H 880.97 -0.0177483 2.99395 0
M  V30 9732 H 878.516 -0.00709627 1.43998 0
M  V30 9733 H 880.469 -2.41036 3.45658 0
M  V30 9734 H 879.193 -2.40109 2.21394 0
M  V30 9735 H 877.852 -0.767541 3.58475 0
M  V30 9736 H 877.5 -3.22858 3.85709 0
M  V30 9737 H 877.2 -2.358 5.38212 0
M  V30 9738 H 878.724 -3.26372 5.16056 0
M  V30 9739 H 880.138 -1.04289 5.63735 0
M  V30 9740 H 878.535 -0.335449 5.99162 0
M  V30 9741 H 879.605 0.465137 4.82664 0
M  V30 9742 N 880.948 -1.576 0.00335426 0
M  V30 9743 C 881.896 -2.09759 -1.00517 0
M  V30 9744 C 882.89 -1.01833 -1.35375 0
M  V30 9745 O 884.096 -1.20294 -1.339 0
M  V30 9746 H 880.471 -0.669821 -0.341825 0
M  V30 9747 H 882.442 -2.93478 -0.539718 0
M  V30 9748 C 881.191 -2.6189 -2.28711 0
M  V30 9749 H 880.514 -3.44571 -2.02758 0
M  V30 9750 H 881.954 -3.02061 -2.97548 0
M  V30 9751 C 880.413 -1.53455 -2.99922 0
M  V30 9752 O 880.943 -0.919402 -3.91037 0
M  V30 9753 N 879.149 -1.2612 -2.61806 0
M  V30 9754 H 878.696 -1.76329 -1.87792 0
M  V30 9755 H 878.654 -0.537872 -3.09765 0
M  V30 9756 N 882.426 0.269451 -1.5528 0
M  V30 9757 C 883.675 0.998381 -1.75258 0
M  V30 9758 C 883.988 1.87321 -0.563034 0
M  V30 9759 O 885.194 2.63719 -0.645313 0
M  V30 9760 C 883.65 1.82505 -3.10193 0
M  V30 9761 C 883.258 0.99871 -4.36726 0
M  V30 9762 C 885.002 2.54807 -3.3952 0
M  V30 9763 C 882.909 1.81997 -5.627 0
M  V30 9764 H 881.839 0.376488 -0.653278 0
M  V30 9765 H 884.49 0.253909 -1.81735 0
M  V30 9766 H 882.872 2.61061 -2.97763 0
M  V30 9767 H 884.046 0.257064 -4.60082 0
M  V30 9768 H 882.361 0.390074 -4.14569 0
M  V30 9769 H 884.958 3.16662 -4.30847 0
M  V30 9770 H 885.301 3.25273 -2.59813 0
M  V30 9771 H 885.834 1.83278 -3.53064 0
M  V30 9772 H 882.573 1.15945 -6.45164 0
M  V30 9773 H 882.093 2.53749 -5.43481 0
M  V30 9774 H 883.772 2.39274 -6.0113 0
M  V30 9775 N 883.904 1.48273 0.534124 0
M  V30 9776 C 884.834 1.6538 1.64839 0
M  V30 9777 C 885.815 0.502741 1.62501 0
M  V30 9778 O 887 0.734799 1.79762 0
M  V30 9779 C 884.13 1.68949 3.03436 0
M  V30 9780 C 883.084 2.83513 3.20631 0
M  V30 9781 C 882.41 2.72169 4.60248 0
M  V30 9782 C 883.71 4.24858 3.03797 0
M  V30 9783 H 885.404 2.58663 1.50777 0
M  V30 9784 H 882.95 1.24479 0.723937 0
M  V30 9785 H 884.903 1.79505 3.81256 0
M  V30 9786 H 883.627 0.722415 3.1851 0
M  V30 9787 H 882.286 2.72505 2.45227 0
M  V30 9788 H 881.934 1.7344 4.72152 0
M  V30 9789 H 881.634 3.49042 4.72698 0
M  V30 9790 H 883.158 2.84687 5.40172 0
M  V30 9791 H 884.572 4.36721 3.71413 0
M  V30 9792 H 882.969 5.02697 3.27743 0
M  V30 9793 H 884.039 4.41611 2.0027 0
M  V30 9794 N 885.382 -0.782676 1.36792 0
M  V30 9795 C 886.793 -1.35828 1.28092 0
M  V30 9796 C 887.144 -1.96052 -0.076315 0
M  V30 9797 O 886.269 -1.93042 -0.977935 0
M  V30 9798 C 886.864 -2.46949 2.31952 0
M  V30 9799 C 885.423 -3.00307 2.2692 0
M  V30 9800 C 884.57 -1.73436 2.16368 0
M  V30 9801 H 887.521 -0.583788 1.47572 0
M  V30 9802 H 887.542 -3.26144 1.95986 0
M  V30 9803 H 887.054 -2.03087 3.30722 0
M  V30 9804 H 885.155 -3.48571 1.31639 0
M  V30 9805 H 885.268 -3.56663 3.19887 0
M  V30 9806 H 883.632 -1.95934 1.62733 0
M  V30 9807 H 884.415 -1.31693 3.17036 0
M  V30 9808 N 886.86 -1.21182 -1.00761 0
M  V30 9809 C 887.793 -0.912033 -2.09182 0
M  V30 9810 C 888.771 0.139421 -1.62001 0
M  V30 9811 O 889.955 0.0110272 -1.88497 0
M  V30 9812 C 887.082 -0.368957 -3.36684 0
M  V30 9813 C 886.128 -1.4028 -4.0277 0
M  V30 9814 S 886.961 -2.97108 -4.45519 0
M  V30 9815 C 888.117 -2.444 -5.76211 0
M  V30 9816 H 888.35 -1.83019 -2.34289 0
M  V30 9817 H 885.883 -1.04127 -1.14004 0
M  V30 9818 H 887.841 -0.0621883 -4.10453 0
M  V30 9819 H 886.502 0.527841 -3.09633 0
M  V30 9820 H 885.695 -0.97238 -4.94531 0
M  V30 9821 H 885.297 -1.65752 -3.35265 0
M  V30 9822 H 887.589 -1.84723 -6.51831 0
M  V30 9823 H 888.532 -3.34593 -6.24062 0
M  V30 9824 H 888.94 -1.86203 -5.32906 0
M  V30 9825 N 888.338 1.20213 -1.01915 0
M  V30 9826 C 889.584 1.89928 -0.711007 0
M  V30 9827 C 889.917 1.7881 0.75767 0
M  V30 9828 O 889.192 1.17399 1.55073 0
M  V30 9829 C 889.475 3.41225 -1.15053 0
M  V30 9830 C 889.328 3.61264 -2.67971 0
M  V30 9831 C 890.647 4.34108 -0.72377 0
M  V30 9832 H 887.766 0.689702 -0.259768 0
M  V30 9833 H 890.408 1.41557 -1.26734 0
M  V30 9834 H 888.558 3.82552 -0.677199 0
M  V30 9835 H 890.23 3.29173 -3.23176 0
M  V30 9836 H 888.473 3.04647 -3.08824 0
M  V30 9837 H 889.144 4.67331 -2.93779 0
M  V30 9838 H 891.62 4.00442 -1.13073 0
M  V30 9839 H 890.496 5.38581 -1.05931 0
M  V30 9840 H 890.757 4.40512 0.374424 0
M  V30 9841 N 889.816 0.795718 1.36037 0
M  V30 9842 C 891.065 0.367575 1.98322 0
M  V30 9843 C 891.378 -1.06823 1.63854 0
M  V30 9844 O 892.584 -1.59895 2.19421 0
M  V30 9845 C 891.04 0.606272 3.54757 0
M  V30 9846 C 890.648 2.0539 3.98144 0
M  V30 9847 C 892.392 0.242947 4.23804 0
M  V30 9848 C 890.299 2.23893 5.47381 0
M  V30 9849 H 889.229 0.133699 0.742052 0
M  V30 9850 H 891.88 0.978242 1.5525 0
M  V30 9851 H 890.262 -0.0741957 3.9593 0
M  V30 9852 H 891.436 2.77129 3.68152 0
M  V30 9853 H 889.751 2.37607 3.41953 0
M  V30 9854 H 892.348 0.359382 5.33491 0
M  V30 9855 H 892.691 -0.809661 4.08351 0
M  V30 9856 H 893.224 0.876899 3.88015 0
M  V30 9857 H 889.963 3.27559 5.6779 0
M  V30 9858 H 889.483 1.56666 5.78978 0
M  V30 9859 H 891.162 2.04914 6.13693 0
M  V30 9860 N 891.294 -1.47756 0.548274 0
M  V30 9861 C 892.519 -2.07387 0.023475 0
M  V30 9862 C 892.944 -1.39956 -1.25674 0
M  V30 9863 O 892.302 -0.471543 -1.7506 0
M  V30 9864 C 892.35 -3.60224 -0.164669 0
M  V30 9865 O 891.454 -3.93653 -1.22928 0
M  V30 9866 H 890.795 -0.662312 0.0473156 0
M  V30 9867 H 893.325 -1.89905 0.761409 0
M  V30 9868 H 893.335 -4.06211 -0.38166 0
M  V30 9869 H 892.01 -4.08702 0.770425 0
M  V30 9870 H 890.587 -3.59422 -0.993495 0
M  V30 9871 N 892.772 -0.284283 -1.55015 0
M  V30 9872 C 893.997 0.335799 -2.04664 0
M  V30 9873 C 894.422 1.47999 -1.16094 0
M  V30 9874 O 893.78 1.8058 -0.161454 0
M  V30 9875 C 893.828 0.785615 -3.51938 0
M  V30 9876 O 892.932 1.89202 -3.66437 0
M  V30 9877 H 892.273 0.0680233 -0.660506 0
M  V30 9878 H 894.803 -0.421255 -2.00216 0
M  V30 9879 H 894.813 1.07892 -3.93476 0
M  V30 9880 H 893.488 -0.0514675 -4.15868 0
M  V30 9881 H 892.065 1.60055 -3.36804 0
M  V30 9882 N 894.251 1.57596 -0.0117121 0
M  V30 9883 C 895.5 1.9025 0.669921 0
M  V30 9884 C 895.813 0.887986 1.74282 0
M  V30 9885 O 897.019 1.10516 2.47989 0
M  V30 9886 C 895.475 3.37762 1.24277 0
M  V30 9887 C 895.083 4.47535 0.204076 0
M  V30 9888 C 896.827 3.79509 1.90192 0
M  V30 9889 C 894.734 5.86132 0.787577 0
M  V30 9890 H 893.664 0.709935 0.253984 0
M  V30 9891 H 896.315 1.8335 -0.0741718 0
M  V30 9892 H 894.697 3.39537 2.03791 0
M  V30 9893 H 895.871 4.57294 -0.56733 0
M  V30 9894 H 894.186 4.14881 -0.355305 0
M  V30 9895 H 896.783 4.80402 2.34773 0
M  V30 9896 H 897.126 3.13643 2.7374 0
M  V30 9897 H 897.659 3.80084 1.17394 0
M  V30 9898 H 894.398 6.55499 -0.00938418 0
M  V30 9899 H 893.918 5.80014 1.52787 0
M  V30 9900 H 895.597 6.34158 1.28265 0
M  V30 9901 N 895.729 -0.261212 1.5542 0
M  V30 9902 C 896.975 -0.992699 1.76843 0
M  V30 9903 C 897.308 -1.8551 0.574428 0
M  V30 9904 O 896.583 -1.89739 -0.427713 0
M  V30 9905 C 896.866 -1.86532 3.08022 0
M  V30 9906 C 896.719 -1.03206 4.378 0
M  V30 9907 C 898.038 -2.85036 3.35324 0
M  V30 9908 H 895.157 -0.359473 0.643388 0
M  V30 9909 H 897.799 -0.264214 1.88154 0
M  V30 9910 H 895.949 -2.48644 2.9851 0
M  V30 9911 H 897.621 -0.430743 4.59285 0
M  V30 9912 H 895.864 -0.335911 4.32497 0
M  V30 9913 H 896.535 -1.6761 5.25938 0
M  V30 9914 H 899.011 -2.3306 3.44706 0
M  V30 9915 H 897.887 -3.43226 4.28354 0
M  V30 9916 H 898.148 -3.60768 2.55537 0
M  V30 9917 N 897.207 -1.48554 -0.526253 0
M  V30 9918 C 898.139 -1.59446 -1.6465 0
M  V30 9919 C 899.152 -0.478525 -1.55608 0
M  V30 9920 O 900.341 -0.74953 -1.62001 0
M  V30 9921 C 897.441 -1.51164 -3.03319 0
M  V30 9922 C 896.614 -2.77861 -3.37805 0
M  V30 9923 C 895.673 -2.62982 -4.5577 0
M  V30 9924 O 894.699 -3.36876 -4.58806 0
M  V30 9925 N 895.901 -1.72847 -5.5417 0
M  V30 9926 H 898.666 -2.56055 -1.55743 0
M  V30 9927 H 896.227 -1.45325 -0.713606 0
M  V30 9928 H 898.219 -1.389 -3.80117 0
M  V30 9929 H 896.789 -0.625147 -3.06285 0
M  V30 9930 H 896.009 -3.04663 -2.50149 0
M  V30 9931 H 897.297 -3.61908 -3.57632 0
M  V30 9932 H 896.695 -1.12022 -5.54498 0
M  V30 9933 H 895.252 -1.6652 -6.3017 0
M  V30 9934 N 898.685 0.775411 -1.37205 0
M  V30 9935 C 899.648 1.8702 -1.325 0
M  V30 9936 C 900.648 1.5915 -0.229793 0
M  V30 9937 O 901.838 1.673 -0.485423 0
M  V30 9938 C 898.97 3.24085 -1.05745 0
M  V30 9939 H 900.163 1.92604 -2.29878 0
M  V30 9940 H 897.716 0.97476 -1.22181 0
M  V30 9941 H 898.451 3.24178 -0.0888371 0
M  V30 9942 H 898.236 3.45705 -1.85016 0
M  V30 9943 H 899.726 4.0416 -1.05094 0
M  V30 9944 N 900.163 1.21714 1.00117 0
M  V30 9945 C 901.388 1.06357 1.78054 0
M  V30 9946 C 901.813 -0.382075 1.84179 0
M  V30 9947 O 901.171 -1.27575 1.28819 0
M  V30 9948 C 901.219 1.66982 3.19608 0
M  V30 9949 O 900.323 0.917892 4.02055 0
M  V30 9950 H 899.664 0.374074 0.548602 0
M  V30 9951 H 902.194 1.61338 1.25822 0
M  V30 9952 H 902.204 1.71363 3.70268 0
M  V30 9953 H 900.879 2.72185 3.14465 0
M  V30 9954 H 899.456 0.949473 3.6061 0
M  V30 9955 N 901.641 -1.19671 1.02551 0
M  V30 9956 C 902.887 -1.89548 0.721069 0
M  V30 9957 C 903.22 -1.79209 -0.748176 0
M  V30 9958 O 902.495 -1.1822 -1.54448 0
M  V30 9959 C 902.778 -3.4061 1.16861 0
M  V30 9960 C 902.631 -3.59838 2.69883 0
M  V30 9961 C 903.95 -4.33718 0.746782 0
M  V30 9962 H 901.069 -0.688315 0.263422 0
M  V30 9963 H 903.711 -1.40883 1.27483 0
M  V30 9964 H 901.861 -3.82188 0.697477 0
M  V30 9965 H 903.533 -3.27454 3.24917 0
M  V30 9966 H 901.776 -3.03005 3.10435 0
M  V30 9967 H 902.447 -4.65766 2.96253 0
M  V30 9968 H 904.923 -3.99837 1.15195 0
M  V30 9969 H 903.799 -5.38012 1.08786 0
M  V30 9970 H 904.06 -4.40704 -0.351057 0
M  V30 9971 N 903.119 -0.802921 -1.35613 0
M  V30 9972 C 904.344 -0.392846 -2.03645 0
M  V30 9973 C 904.769 0.987075 -1.6012 0
M  V30 9974 O 904.127 1.63849 -0.776101 0
M  V30 9975 C 904.175 -0.480208 -3.57388 0
M  V30 9976 O 903.279 0.507751 -4.09262 0
M  V30 9977 H 902.62 -0.16464 -0.643265 0
M  V30 9978 H 905.15 -1.08779 -1.73287 0
M  V30 9979 H 905.16 -0.348683 -4.06507 0
M  V30 9980 H 903.835 -1.48675 -3.88418 0
M  V30 9981 H 902.412 0.336769 -3.71376 0
M  V30 9982 N 904.597 1.47463 -0.556102 0
M  V30 9983 C 905.527 2.32801 0.180497 0
M  V30 9984 C 906.508 1.43721 0.909848 0
M  V30 9985 O 907.693 1.72578 0.89053 0
M  V30 9986 C 904.823 3.25478 1.21167 0
M  V30 9987 C 903.777 4.2379 0.598846 0
M  V30 9988 C 903.103 5.05783 1.73457 0
M  V30 9989 C 904.403 5.20387 -0.446659 0
M  V30 9990 H 906.097 2.94636 -0.531956 0
M  V30 9991 H 903.643 1.41683 -0.257267 0
M  V30 9992 H 905.596 3.8402 1.73513 0
M  V30 9993 H 904.32 2.61695 1.95405 0
M  V30 9994 H 902.979 3.66472 0.0966897 0
M  V30 9995 H 902.627 4.38405 2.46596 0
M  V30 9996 H 902.327 5.72343 1.33031 0
M  V30 9997 H 903.851 5.67183 2.26131 0
M  V30 9998 H 905.265 5.73299 -0.00930019 0
M  V30 9999 H 903.662 5.95143 -0.769735 0
M  V30 10000 H 904.732 4.65932 -1.34295 0
M  V30 10001 N 906.075 0.2925 1.54862 0
M  V30 10002 C 907.022 -0.587365 2.23201 0
M  V30 10003 C 907.992 -1.13623 1.21157 0
M  V30 10004 O 909.177 -1.18233 1.49752 0
M  V30 10005 C 906.317 -1.75745 2.96998 0
M  V30 10006 C 905.43 -1.24078 4.13798 0
M  V30 10007 C 904.565 -2.37405 4.75197 0
M  V30 10008 C 903.604 -1.82829 5.84157 0
M  V30 10009 N 902.741 -2.89696 6.39547 0
M  V30 10010 H 907.581 0.00202207 2.98 0
M  V30 10011 H 905.118 0.012766 1.47094 0
M  V30 10012 H 907.076 -2.44549 3.38011 0
M  V30 10013 H 905.706 -2.3186 2.24591 0
M  V30 10014 H 904.758 -0.445268 3.77785 0
M  V30 10015 H 906.07 -0.801186 4.92324 0
M  V30 10016 H 905.224 -3.14172 5.19019 0
M  V30 10017 H 903.963 -2.84688 3.95985 0
M  V30 10018 H 902.968 -1.04548 5.39768 0
M  V30 10019 H 904.193 -1.36461 6.65248 0
M  V30 10020 H 902.139 -3.36328 5.63222 0
M  V30 10021 H 902.056 -2.50206 7.13395 0
M  V30 10022 H 903.324 -3.66386 6.88027 0
M  V30 10023 N 907.553 -1.57587 0.0200696 0
M  V30 10024 C 908.969 -1.56018 -0.336237 0
M  V30 10025 C 909.169 -1.02478 -1.73495 0
M  V30 10026 O 908.225 -0.667487 -2.43518 0
M  V30 10027 C 909.538 -3.00079 -0.193112 0
M  V30 10028 C 911.086 -3.11863 -0.266557 0
M  V30 10029 C 911.561 -4.57747 -0.152326 0
M  V30 10030 N 913.052 -4.62726 -0.209596 0
M  V30 10031 C 913.787 -5.73217 -0.144855 0
M  V30 10032 N 913.283 -6.92794 -0.0295487 0
M  V30 10033 N 915.076 -5.61751 -0.198184 0
M  V30 10034 H 907.227 -1.90722 0.93482 0
M  V30 10035 H 909.49 -0.876909 0.360186 0
M  V30 10036 H 909.196 -3.43167 0.770036 0
M  V30 10037 H 909.07 -3.64593 -0.967029 0
M  V30 10038 H 911.457 -2.68693 -1.22016 0
M  V30 10039 H 911.538 -2.50087 0.53758 0
M  V30 10040 H 911.182 -5.01595 0.797817 0
M  V30 10041 H 911.112 -5.17491 -0.97521 0
M  V30 10042 H 913.603 -3.76713 -0.299229 0
M  V30 10043 H 913.916 -7.72799 0.0134071 0
M  V30 10044 H 912.261 -6.95 0.00510737 0
M  V30 10045 H 915.452 -4.67222 -0.286603 0
M  V30 10046 H 915.625 -6.47839 -0.144266 0
M  V30 10047 N 909.032 0.252966 -1.55557 0
M  V30 10048 C 909.962 1.31691 -1.9282 0
M  V30 10049 C 910.943 1.50516 -0.7924 0
M  V30 10050 O 912.128 1.63225 -1.05219 0
M  V30 10051 C 909.258 2.67281 -2.21762 0
M  V30 10052 C 908.212 2.6316 -3.37536 0
M  V30 10053 C 907.538 4.02488 -3.52005 0
M  V30 10054 C 908.838 2.20675 -4.73392 0
M  V30 10055 H 910.532 1.00751 -2.81939 0
M  V30 10056 H 908.078 0.483219 -1.3565 0
M  V30 10057 H 910.031 3.41842 -2.46419 0
M  V30 10058 H 908.755 2.99845 -1.29463 0
M  V30 10059 H 907.414 1.91057 -3.12878 0
M  V30 10060 H 907.062 4.32307 -2.57137 0
M  V30 10061 H 906.762 4.00621 -4.29857 0
M  V30 10062 H 908.286 4.78758 -3.78977 0
M  V30 10063 H 909.7 2.84965 -4.97461 0
M  V30 10064 H 908.097 2.29931 -5.54303 0
M  V30 10065 H 909.167 1.15831 -4.70862 0
M  V30 10066 N 910.51 1.48831 0.518367 0
M  V30 10067 C 911.926 1.35209 0.847979 0
M  V30 10068 C 912.126 0.371927 1.98038 0
M  V30 10069 O 911.182 -0.202681 2.51685 0
M  V30 10070 C 912.495 2.7552 1.20455 0
M  V30 10071 C 914.043 2.84094 1.31377 0
M  V30 10072 C 914.518 4.25132 1.70372 0
M  V30 10073 N 916.009 4.27861 1.77453 0
M  V30 10074 C 916.744 5.3394 2.09035 0
M  V30 10075 N 916.24 6.50285 2.3896 0
M  V30 10076 N 918.033 5.21343 2.10139 0
M  V30 10077 H 910.184 2.11166 -0.228624 0
M  V30 10078 H 912.447 0.94717 -0.0396599 0
M  V30 10079 H 912.153 3.48861 0.445991 0
M  V30 10080 H 912.027 3.09785 2.15204 0
M  V30 10081 H 914.414 2.11001 2.06307 0
M  V30 10082 H 914.495 2.53433 0.347203 0
M  V30 10083 H 914.139 4.98745 0.959975 0
M  V30 10084 H 914.069 4.53245 2.68098 0
M  V30 10085 H 916.56 3.43945 1.56557 0
M  V30 10086 H 916.873 7.26961 2.62196 0
M  V30 10087 H 915.218 6.5354 2.36454 0
M  V30 10088 H 918.409 4.29462 1.86225 0
M  V30 10089 H 918.582 6.04112 2.34419 0
M  V30 10090 N 911.988 -0.768124 1.37614 0
M  V30 10091 C 913.237 -1.5221 1.32345 0
M  V30 10092 C 913.55 -1.95399 -0.0885761 0
M  V30 10093 O 914.756 -2.70216 -0.263752 0
M  V30 10094 C 913.212 -2.74872 2.32322 0
M  V30 10095 C 912.82 -2.38767 3.79071 0
M  V30 10096 C 914.564 -3.52805 2.36069 0
M  V30 10097 C 912.471 -3.57953 4.7077 0
M  V30 10098 H 911.401 -0.571461 0.491883 0
M  V30 10099 H 914.052 -0.841004 1.63093 0
M  V30 10100 H 912.434 -3.44889 1.94596 0
M  V30 10101 H 913.608 -1.7651 4.25654 0
M  V30 10102 H 911.923 -1.74 3.78303 0
M  V30 10103 H 914.52 -4.41397 3.01782 0
M  V30 10104 H 914.863 -3.92925 1.37535 0
M  V30 10105 H 915.396 -2.89788 2.72521 0
M  V30 10106 H 912.135 -3.22911 5.70446 0
M  V30 10107 H 911.655 -4.19302 4.28889 0
M  V30 10108 H 913.334 -4.2472 4.8808 0
M  V30 10109 N 913.466 -1.22244 -0.994698 0
M  V30 10110 C 914.713 -1.04591 -1.73398 0
M  V30 10111 C 915.041 0.419223 -1.89928 0
M  V30 10112 O 914.296 1.32714 -1.43824 0
M  V30 10113 C 914.595 -1.70014 -3.14372 0
M  V30 10114 C 914.261 -3.19903 -3.17762 0
M  V30 10115 C 912.923 -3.60803 -3.18394 0
M  V30 10116 C 915.275 -4.15851 -3.14194 0
M  V30 10117 C 912.603 -4.96135 -3.13157 0
M  V30 10118 C 914.955 -5.51157 -3.10498 0
M  V30 10119 C 913.619 -5.91439 -3.09445 0
M  V30 10120 H 912.889 -0.382725 -0.63451 0
M  V30 10121 H 915.536 -1.51981 -1.16508 0
M  V30 10122 H 913.841 -1.14945 -3.7456 0
M  V30 10123 H 915.538 -1.53848 -3.70313 0
M  V30 10124 H 912.128 -2.87336 -3.18019 0
M  V30 10125 H 916.312 -3.85272 -3.12857 0
M  V30 10126 H 911.568 -5.26578 -3.10685 0
M  V30 10127 H 915.742 -6.2523 -3.06692 0
M  V30 10128 H 913.369 -6.96271 -3.05141 0
M  V30 10129 N 914.944 1.19125 -1.03184 0
M  V30 10130 C 915.874 2.24675 -0.635889 0
M  V30 10131 C 916.855 1.66321 0.356565 0
M  V30 10132 O 918.04 1.92728 0.238625 0
M  V30 10133 C 915.17 3.47298 0.011069 0
M  V30 10134 C 914.124 4.18345 -0.903979 0
M  V30 10135 C 913.45 5.34561 -0.12197 0
M  V30 10136 C 914.75 4.72816 -2.21907 0
M  V30 10137 H 916.444 2.5805 -1.51825 0
M  V30 10138 H 913.99 1.24039 -0.73146 0
M  V30 10139 H 915.943 4.20333 0.299729 0
M  V30 10140 H 914.667 3.13131 0.928245 0
M  V30 10141 H 913.326 3.47196 -1.17688 0
M  V30 10142 H 912.974 4.9664 0.797334 0
M  V30 10143 H 912.674 5.83029 -0.731498 0
M  V30 10144 H 914.198 6.10391 0.159881 0
M  V30 10145 H 915.612 5.3759 -1.99173 0
M  V30 10146 H 914.009 5.31782 -2.78078 0
M  V30 10147 H 915.079 3.9072 -2.87168 0
M  V30 10148 N 916.422 0.810101 1.35185 0
M  V30 10149 C 917.647 0.40364 2.03434 0
M  V30 10150 C 918.072 -0.97857 1.60641 0
M  V30 10151 O 917.43 -1.63435 0.784779 0
M  V30 10152 C 917.478 0.499154 3.57129 0
M  V30 10153 O 916.582 -0.486039 4.09526 0
M  V30 10154 H 915.923 0.168049 0.642383 0
M  V30 10155 H 918.453 1.09696 1.72708 0
M  V30 10156 H 918.463 0.370236 4.06317 0
M  V30 10157 H 917.138 1.50733 3.87624 0
M  V30 10158 H 915.715 -0.31707 3.7155 0
M  V30 10159 N 917.9 -1.47166 0.563914 0
M  V30 10160 C 918.85 -2.27116 -0.20055 0
M  V30 10161 C 919.834 -1.34756 -0.879177 0
M  V30 10162 O 921.026 -1.59064 -0.776377 0
M  V30 10163 C 918.155 -3.20676 -1.22565 0
M  V30 10164 C 917.241 -4.20517 -0.550092 0
M  V30 10165 N 917.632 -5.04343 0.383662 0
M  V30 10166 C 915.93 -4.38708 -0.803186 0
M  V30 10167 C 916.631 -5.76491 0.776718 0
M  V30 10168 N 915.607 -5.43444 0.130047 0
M  V30 10169 H 919.409 -2.89312 0.517275 0
M  V30 10170 H 916.923 -1.57787 0.384334 0
M  V30 10171 H 918.92 -3.76643 -1.78733 0
M  V30 10172 H 917.58 -2.60038 -1.94449 0
M  V30 10173 H 918.591 -5.1232 0.758192 0
M  V30 10174 H 915.268 -3.89235 -1.51003 0
M  V30 10175 H 916.658 -6.5391 1.54437 0
M  V30 10176 N 919.378 -0.300708 -1.54705 0
M  V30 10177 C 920.288 0.584996 -2.27189 0
M  V30 10178 C 921.304 1.14866 -1.30697 0
M  V30 10179 O 922.48 1.17351 -1.63679 0
M  V30 10180 C 919.545 1.74076 -2.99831 0
M  V30 10181 C 918.606 1.2112 -4.1186 0
M  V30 10182 C 917.839 2.31188 -4.81028 0
M  V30 10183 O 918.062 3.5108 -4.49554 0
M  V30 10184 O 916.996 1.97897 -5.68437 0
M  V30 10185 H 920.822 -0.00298177 -3.037 0
M  V30 10186 H 918.407 -0.0671802 -1.49249 0
M  V30 10187 H 920.289 2.41413 -3.45395 0
M  V30 10188 H 918.964 2.31535 -2.26215 0
M  V30 10189 H 917.871 0.50357 -3.70695 0
M  V30 10190 H 919.204 0.682046 -4.87452 0
M  V30 10191 N 920.856 1.57574 -0.0284266 0
M  V30 10192 C 921.766 2.13637 0.96936 0
M  V30 10193 C 922.782 1.08845 1.35752 0
M  V30 10194 O 923.958 1.40899 1.43908 0
M  V30 10195 C 921.023 2.65179 2.2334 0
M  V30 10196 C 920.084 3.84683 1.90572 0
M  V30 10197 C 919.317 4.33758 3.1095 0
M  V30 10198 O 919.54 3.82009 4.23586 0
M  V30 10199 O 918.474 5.2561 2.93288 0
M  V30 10200 H 922.3 2.99169 0.52267 0
M  V30 10201 H 919.885 1.48159 0.192135 0
M  V30 10202 H 921.767 2.98402 2.97547 0
M  V30 10203 H 920.442 1.82731 2.67191 0
M  V30 10204 H 919.349 3.56386 1.13753 0
M  V30 10205 H 920.682 4.68292 1.51538 0
M  V30 10206 N 922.334 -0.244713 1.55689 0
M  V30 10207 C 923.264 -1.30667 1.93516 0
M  V30 10208 C 924.245 -1.50094 0.800371 0
M  V30 10209 O 925.43 -1.62665 1.06083 0
M  V30 10210 C 922.56 -2.66101 2.23176 0
M  V30 10211 C 921.514 -2.61366 3.38927 0
M  V30 10212 C 920.84 -4.00616 3.54134 0
M  V30 10213 C 922.14 -2.18161 4.74555 0
M  V30 10214 H 923.834 -0.992546 2.82469 0
M  V30 10215 H 921.38 -0.476018 1.35905 0
M  V30 10216 H 923.333 -3.4053 2.48228 0
M  V30 10217 H 922.057 -2.99154 1.31051 0
M  V30 10218 H 920.716 -1.89395 3.13887 0
M  V30 10219 H 920.364 -4.30938 2.59426 0
M  V30 10220 H 920.064 -3.98335 4.31975 0
M  V30 10221 H 921.588 -4.76741 3.8151 0
M  V30 10222 H 923.002 -2.82323 4.98965 0
M  V30 10223 H 921.399 -2.26988 5.55515 0
M  V30 10224 H 922.469 -1.13333 4.7147 0
M  V30 10225 N 923.813 -1.49104 -0.510467 0
M  V30 10226 C 924.723 -1.67792 -1.6396 0
M  V30 10227 C 925.739 -0.560454 -1.64727 0
M  V30 10228 O 926.915 -0.833985 -1.83321 0
M  V30 10229 C 923.98 -1.73154 -3.00364 0
M  V30 10230 C 923.041 -2.9667 -3.10299 0
M  V30 10231 C 922.274 -3.01767 -4.40196 0
M  V30 10232 O 922.497 -2.1472 -5.28443 0
M  V30 10233 O 921.431 -3.94137 -4.54906 0
M  V30 10234 H 925.257 -2.63428 -1.51126 0
M  V30 10235 H 922.842 -1.32734 -0.685719 0
M  V30 10236 H 924.724 -1.79089 -3.81451 0
M  V30 10237 H 923.399 -0.806952 -3.1348 0
M  V30 10238 H 922.306 -2.96257 -2.28435 0
M  V30 10239 H 923.639 -3.88578 -3.02106 0
M  V30 10240 N 925.291 0.760815 -1.38019 0
M  V30 10241 C 926.702 1.33773 -1.30237 0
M  V30 10242 C 927.053 1.96148 0.0451153 0
M  V30 10243 O 926.178 1.94574 0.9471 0
M  V30 10244 C 926.773 2.43227 -2.35851 0
M  V30 10245 C 925.332 2.96659 -2.31669 0
M  V30 10246 C 924.479 1.69972 -2.191 0
M  V30 10247 H 927.43 0.560237 -1.48482 0
M  V30 10248 H 927.451 3.22985 -2.01149 0
M  V30 10249 H 926.963 1.978 -3.33911 0
M  V30 10250 H 925.064 3.46433 -1.37167 0
M  V30 10251 H 925.177 3.51529 -3.25521 0
M  V30 10252 H 923.541 1.9332 -1.65829 0
M  V30 10253 H 924.324 1.26633 -3.19091 0
M  V30 10254 N 926.769 1.22769 0.988202 0
M  V30 10255 C 928.046 0.9635 1.70223 0
M  V30 10256 C 928.426 -0.520102 2.04593 0
M  V30 10257 O 927.774 -1.48934 1.73295 0
M  V30 10258 C 927.984 1.86583 2.94937 0
M  V30 10259 C 929.332 2.12469 3.67616 0
M  V30 10260 O 930.356 1.84069 3.04954 0
M  V30 10261 O 929.215 2.60595 4.80367 0
M  V30 10262 H 926.309 0.362737 0.743203 0
M  V30 10263 H 928.855 1.33776 1.04412 0
M  V30 10264 H 927.627 2.86913 2.66077 0
M  V30 10265 H 927.25 1.49344 3.68486 0
M  V30 10266 N 928.247 -1.18576 1.03814 0
M  V30 10267 C 929.472 -1.92978 0.759873 0
M  V30 10268 C 929.897 -1.75514 -0.676486 0
M  V30 10269 O 929.255 -1.06359 -1.46824 0
M  V30 10270 C 929.303 -3.42507 1.12788 0
M  V30 10271 O 928.407 -4.1163 0.251886 0
M  V30 10272 H 927.748 -0.602129 0.279886 0
M  V30 10273 H 930.278 -1.50383 1.3873 0
M  V30 10274 H 930.288 -3.93206 1.08872 0
M  V30 10275 H 928.963 -3.5454 2.17427 0
M  V30 10276 H 927.54 -3.7125 0.350441 0
M  V30 10277 N 929.725 -0.817259 -1.34754 0
M  V30 10278 C 930.974 -0.39908 -1.97713 0
M  V30 10279 C 931.287 1.04203 -1.65533 0
M  V30 10280 O 932.493 1.56384 -2.21937 0
M  V30 10281 C 930.949 -0.662634 -3.53747 0
M  V30 10282 C 930.557 -2.11699 -3.94826 0
M  V30 10283 C 932.301 -0.31034 -4.23364 0
M  V30 10284 C 930.208 -2.32573 -5.4375 0
M  V30 10285 H 929.138 -0.145488 -0.739831 0
M  V30 10286 H 931.789 -1.00282 -1.53674 0
M  V30 10287 H 930.171 0.0111972 -3.95998 0
M  V30 10288 H 931.345 -2.82951 -3.63697 0
M  V30 10289 H 929.66 -2.43017 -3.3813 0
M  V30 10290 H 932.257 -0.44421 -5.32852 0
M  V30 10291 H 932.6 0.744594 -4.09587 0
M  V30 10292 H 933.133 -0.938518 -3.8657 0
M  V30 10293 H 929.872 -3.36551 -5.62507 0
M  V30 10294 H 929.392 -1.65858 -5.76412 0
M  V30 10295 H 931.071 -2.14651 -6.10356 0
M  V30 10296 N 931.203 1.46865 -0.571711 0
M  V30 10297 C 932.113 2.33979 0.170571 0
M  V30 10298 C 933.129 1.49083 0.897239 0
M  V30 10299 O 934.305 1.81979 0.862888 0
M  V30 10300 C 931.37 3.26063 1.17831 0
M  V30 10301 C 930.431 4.26855 0.457499 0
M  V30 10302 C 929.664 5.14539 1.41722 0
M  V30 10303 O 929.887 5.04945 2.65305 0
M  V30 10304 O 928.821 5.94612 0.9338 0
M  V30 10305 H 932.647 2.98781 -0.544396 0
M  V30 10306 H 930.232 1.4566 -0.332198 0
M  V30 10307 H 932.114 3.82903 1.75965 0
M  V30 10308 H 930.789 2.63871 1.87493 0
M  V30 10309 H 929.696 3.73734 -0.165406 0
M  V30 10310 H 931.029 4.91802 -0.197953 0
M  V30 10311 N 932.681 0.308908 1.54543 0
M  V30 10312 C 934.097 -0.0442273 1.59539 0
M  V30 10313 C 934.297 -1.51743 1.32575 0
M  V30 10314 O 933.353 -2.27134 1.10302 0
M  V30 10315 C 934.666 0.360826 2.98527 0
M  V30 10316 C 936.214 0.310252 3.11459 0
M  V30 10317 C 936.689 0.690246 4.52769 0
M  V30 10318 N 938.18 0.643084 4.58714 0
M  V30 10319 C 938.915 0.909483 5.66141 0
M  V30 10320 N 938.411 1.24226 6.81572 0
M  V30 10321 N 940.204 0.836018 5.55848 0
M  V30 10322 H 932.355 1.26893 1.70329 0
M  V30 10323 H 934.618 0.514986 0.795923 0
M  V30 10324 H 934.324 1.38669 3.23209 0
M  V30 10325 H 934.198 -0.281563 3.76148 0
M  V30 10326 H 936.585 -0.706375 2.86521 0
M  V30 10327 H 936.666 0.987373 2.35976 0
M  V30 10328 H 936.31 1.70472 4.78437 0
M  V30 10329 H 936.24 -0.00903075 5.26599 0
M  V30 10330 H 938.731 0.397138 3.75807 0
M  V30 10331 H 939.044 1.4313 7.5943 0
M  V30 10332 H 937.389 1.28038 6.83104 0
M  V30 10333 H 940.58 0.575637 4.64547 0
M  V30 10334 H 940.753 1.047 6.39486 0
M  V30 10335 N 934.159 -1.57557 0.0367827 0
M  V30 10336 C 935.575 -1.56366 -0.31967 0
M  V30 10337 C 935.775 -1.04313 -1.72398 0
M  V30 10338 O 934.831 -0.693278 -2.42796 0
M  V30 10339 C 936.144 -3.00267 -0.161274 0
M  V30 10340 C 937.692 -3.12128 -0.233464 0
M  V30 10341 C 938.167 -4.57882 -0.103767 0
M  V30 10342 N 939.658 -4.62922 -0.160506 0
M  V30 10343 C 940.393 -5.73338 -0.0840493 0
M  V30 10344 N 939.889 -6.92786 0.043933 0
M  V30 10345 N 941.682 -5.61929 -0.138592 0
M  V30 10346 H 933.833 -1.8972 0.954996 0
M  V30 10347 H 936.096 -0.87304 0.369467 0
M  V30 10348 H 935.802 -3.42331 0.80639 0
M  V30 10349 H 935.676 -3.65599 -0.928304 0
M  V30 10350 H 938.063 -2.69972 -1.19159 0
M  V30 10351 H 938.144 -2.49503 0.564075 0
M  V30 10352 H 937.788 -5.0072 0.850973 0
M  V30 10353 H 937.718 -5.18496 -0.920268 0
M  V30 10354 H 940.209 -3.7701 -0.259257 0
M  V30 10355 H 940.522 -7.72741 0.095372 0
M  V30 10356 H 938.867 -6.94955 0.0788211 0
M  V30 10357 H 942.058 -4.67499 -0.237031 0
M  V30 10358 H 942.231 -6.47956 -0.075546 0
M  V30 10359 N 935.637 0.236453 -1.55816 0
M  V30 10360 C 937.048 0.80468 -1.68469 0
M  V30 10361 C 937.399 1.85601 -0.636133 0
M  V30 10362 O 936.524 2.15323 0.215622 0
M  V30 10363 C 937.119 1.46634 -3.05424 0
M  V30 10364 C 935.678 1.98214 -3.19981 0
M  V30 10365 C 934.825 0.83695 -2.64368 0
M  V30 10366 H 937.776 0.0120647 -1.58695 0
M  V30 10367 H 937.797 2.33472 -3.00451 0
M  V30 10368 H 937.309 0.700931 -3.81718 0
M  V30 10369 H 935.41 2.77604 -2.4853 0
M  V30 10370 H 935.523 2.17235 -4.2702 0
M  V30 10371 H 933.887 1.24028 -2.22462 0
M  V30 10372 H 934.67 0.084451 -3.43196 0
M  V30 10373 N 937.115 1.49373 0.502552 0
M  V30 10374 C 938.361 1.59016 1.25864 0
M  V30 10375 C 938.694 0.27532 1.92238 0
M  V30 10376 O 937.969 -0.720988 1.80643 0
M  V30 10377 C 938.252 2.74828 2.32683 0
M  V30 10378 C 938.105 4.16102 1.7082 0
M  V30 10379 C 939.424 2.86288 3.34256 0
M  V30 10380 H 936.543 0.578798 0.456248 0
M  V30 10381 H 939.185 1.81651 0.557032 0
M  V30 10382 H 937.335 2.5566 2.92524 0
M  V30 10383 H 939.007 4.46782 1.14818 0
M  V30 10384 H 937.25 4.21822 1.01238 0
M  V30 10385 H 937.921 4.93006 2.48292 0
M  V30 10386 H 940.397 3.03733 2.84404 0
M  V30 10387 H 939.273 3.69001 4.06362 0
M  V30 10388 H 939.534 1.95576 3.96488 0
M  V30 10389 N 938.594 -0.753485 1.38421 0
M  V30 10390 C 939.541 -1.86723 1.35659 0
M  V30 10391 C 940.511 -1.64648 0.219121 0
M  V30 10392 O 941.696 -1.86313 0.411366 0
M  V30 10393 C 938.836 -3.24023 1.18758 0
M  V30 10394 C 937.949 -3.57928 2.41892 0
M  V30 10395 C 937.084 -4.84532 2.17721 0
M  V30 10396 C 936.123 -5.11224 3.36626 0
M  V30 10397 N 935.26 -6.29023 3.11889 0
M  V30 10398 H 940.1 -1.88419 2.30873 0
M  V30 10399 H 937.637 -0.920934 1.14705 0
M  V30 10400 H 939.595 -4.03252 1.06974 0
M  V30 10401 H 938.225 -3.21654 0.27182 0
M  V30 10402 H 937.277 -2.73541 2.64347 0
M  V30 10403 H 938.589 -3.73581 3.30513 0
M  V30 10404 H 937.743 -5.71704 2.03074 0
M  V30 10405 H 936.482 -4.71018 1.26465 0
M  V30 10406 H 935.487 -4.2252 3.51791 0
M  V30 10407 H 936.712 -5.26635 4.28757 0
M  V30 10408 H 934.658 -6.16832 2.2328 0
M  V30 10409 H 934.575 -6.45177 3.9406 0
M  V30 10410 H 935.843 -7.19083 3.00898 0
M  V30 10411 N 940.072 -1.23292 -0.981677 0
M  V30 10412 C 941.349 -0.972514 -1.6971 0
M  V30 10413 C 941.729 0.509244 -2.04866 0
M  V30 10414 O 941.077 1.48013 -1.74082 0
M  V30 10415 C 941.287 -1.88144 -2.93943 0
M  V30 10416 C 942.635 -2.14416 -3.66485 0
M  V30 10417 O 943.659 -1.85684 -3.03974 0
M  V30 10418 O 942.518 -2.63139 -4.78978 0
M  V30 10419 H 939.612 -0.366673 -0.741269 0
M  V30 10420 H 942.158 -1.34328 -1.03701 0
M  V30 10421 H 940.93 -2.8832 -2.64551 0
M  V30 10422 H 940.553 -1.51296 -3.67689 0
M  V30 10423 N 941.55 1.18024 -1.04442 0
M  V30 10424 C 942.798 1.87727 -0.74854 0
M  V30 10425 C 943.119 1.80975 0.726156 0
M  V30 10426 O 942.389 1.23061 1.52423 0
M  V30 10427 H 940.969 0.694974 -0.273897 0
M  V30 10428 H 943.631 1.43213 -1.32197 0
M  V30 10429 H 942.727 2.93665 -1.05674 0
M  V30 10430 N 943.028 0.824394 1.34319 0
M  V30 10431 C 944.276 0.41235 1.97849 0
M  V30 10432 C 944.597 -1.02841 1.65677 0
M  V30 10433 O 943.867 -1.71421 0.948245 0
M  V30 10434 H 942.447 0.149486 0.73189 0
M  V30 10435 H 945.109 1.05416 1.63931 0
M  V30 10436 H 944.205 0.532557 3.07523 0
M  V30 10437 N 944.506 -1.46559 0.579492 0
M  V30 10438 C 945.754 -2.02 0.0637157 0
M  V30 10439 C 946.075 -1.45378 -1.29962 0
M  V30 10440 O 945.345 -0.637262 -1.85245 0
M  V30 10441 H 943.925 -0.746717 0.0205638 0
M  V30 10442 H 946.587 -1.79702 0.754544 0
M  V30 10443 H 945.683 -3.12099 -0.00770254 0
M  V30 10444 N 945.984 -0.3171 -1.54377 0
M  V30 10445 C 947.212 0.289558 -2.04864 0
M  V30 10446 C 947.627 1.46284 -1.19359 0
M  V30 10447 O 946.984 1.81135 -0.222795 0
M  V30 10448 C 947.035 0.730273 -3.54047 0
M  V30 10449 O 946.756 -0.396325 -4.36304 0
M  V30 10450 C 948.257 1.40041 -4.20599 0
M  V30 10451 H 945.477 0.0605836 -0.668259 0
M  V30 10452 H 948.021 -0.461411 -1.99227 0
M  V30 10453 H 946.176 1.43123 -3.59992 0
M  V30 10454 H 946.59 -0.0502901 -5.24476 0
M  V30 10455 H 948.064 1.65979 -5.26455 0
M  V30 10456 H 948.541 2.34565 -3.71316 0
M  V30 10457 H 949.147 0.742206 -4.18774 0
M  V30 10458 N 947.462 1.57535 -0.0451378 0
M  V30 10459 C 948.41 2.12351 0.949205 0
M  V30 10460 C 949.404 1.05386 1.32628 0
M  V30 10461 O 950.61 1.23802 1.30664 0
M  V30 10462 H 946.985 0.678648 0.323945 0
M  V30 10463 H 948.956 2.94806 0.461718 0
M  V30 10464 C 947.705 2.67862 2.21687 0
M  V30 10465 H 947.028 3.49826 1.93551 0
M  V30 10466 H 948.468 3.09844 2.89435 0
M  V30 10467 C 946.927 1.61353 2.95748 0
M  V30 10468 O 947.457 1.02276 3.88462 0
M  V30 10469 N 945.663 1.33017 2.5837 0
M  V30 10470 H 945.21 1.81246 1.83051 0
M  V30 10471 H 945.168 0.619812 3.0823 0
M  V30 10472 N 948.94 -0.228186 1.55939 0
M  V30 10473 C 950.165 -0.974795 1.83064 0
M  V30 10474 C 950.59 -1.77426 0.624624 0
M  V30 10475 O 949.948 -1.76211 -0.426556 0
M  V30 10476 C 949.996 -1.87342 3.08116 0
M  V30 10477 O 949.1 -2.96784 2.86344 0
M  V30 10478 H 948.441 -0.276379 0.603747 0
M  V30 10479 H 950.971 -0.243507 2.03146 0
M  V30 10480 H 950.981 -2.28451 3.38045 0
M  V30 10481 H 949.656 -1.28575 3.95526 0
M  V30 10482 H 948.233 -2.59669 2.67631 0
M  V30 10483 N 950.418 -1.49637 -0.494624 0
M  V30 10484 C 951.667 -1.58691 -1.24499 0
M  V30 10485 C 951.98 -0.281763 -1.9356 0
M  V30 10486 O 953.186 -0.250925 -2.70338 0
M  V30 10487 C 951.642 -2.8002 -2.26091 0
M  V30 10488 C 951.25 -4.17318 -1.6294 0
M  V30 10489 C 952.994 -2.98407 -3.01916 0
M  V30 10490 C 950.901 -5.29862 -2.62679 0
M  V30 10491 H 949.831 -0.590888 -0.468367 0
M  V30 10492 H 952.482 -1.76034 -0.518112 0
M  V30 10493 H 950.864 -2.56185 -3.01969 0
M  V30 10494 H 952.038 -4.51315 -0.930108 0
M  V30 10495 H 950.353 -4.04342 -0.994819 0
M  V30 10496 H 952.95 -3.79658 -3.76516 0
M  V30 10497 H 953.293 -2.09214 -3.5991 0
M  V30 10498 H 953.826 -3.22312 -2.33152 0
M  V30 10499 H 950.565 -6.21134 -2.09458 0
M  V30 10500 H 950.085 -5.00311 -3.3083 0
M  V30 10501 H 951.764 -5.59461 -3.2498 0
M  V30 10502 N 951.896 0.746133 -1.38819 0
M  V30 10503 C 953.124 1.53539 -1.38685 0
M  V30 10504 C 953.539 1.88788 0.0215039 0
M  V30 10505 O 952.896 1.53312 0.990031 0
M  V30 10506 C 952.947 2.8299 -2.24942 0
M  V30 10507 O 952.668 2.49242 -3.60292 0
M  V30 10508 C 954.169 3.77085 -2.3307 0
M  V30 10509 H 951.389 0.474842 -0.474095 0
M  V30 10510 H 953.933 0.922844 -1.82493 0
M  V30 10511 H 952.088 3.40603 -1.84576 0
M  V30 10512 H 952.502 3.32319 -4.05789 0
M  V30 10513 H 953.976 4.64845 -2.97696 0
M  V30 10514 H 954.453 4.18049 -1.34655 0
M  V30 10515 H 955.059 3.25394 -2.73859 0
M  V30 10516 N 953.375 1.23811 0.975125 0
M  V30 10517 C 954.621 1.07495 1.71967 0
M  V30 10518 C 954.954 -0.386451 1.90316 0
M  V30 10519 O 954.229 -1.28591 1.45927 0
M  V30 10520 C 954.512 1.80694 3.11483 0
M  V30 10521 C 954.365 3.3454 3.00671 0
M  V30 10522 C 955.684 1.57367 4.11003 0
M  V30 10523 H 952.803 0.3919 0.624166 0
M  V30 10524 H 955.445 1.52383 1.13487 0
M  V30 10525 H 953.595 1.42538 3.61407 0
M  V30 10526 H 955.267 3.8225 2.5823 0
M  V30 10527 H 953.51 3.63301 2.37054 0
M  V30 10528 H 954.181 3.80951 3.99475 0
M  V30 10529 H 956.657 1.90545 3.69908 0
M  V30 10530 H 955.533 2.11052 5.06703 0
M  V30 10531 H 955.794 0.510221 4.39146 0
M  V30 10532 N 954.853 -1.17469 1.05066 0
M  V30 10533 C 956.269 -1.39699 0.771769 0
M  V30 10534 C 956.469 -1.91253 -0.634382 0
M  V30 10535 O 955.525 -2.10334 -1.39699 0
M  V30 10536 C 956.838 -2.38886 1.82631 0
M  V30 10537 C 958.386 -2.52595 1.84838 0
M  V30 10538 C 958.861 -3.55054 2.89311 0
M  V30 10539 N 960.352 -3.6257 2.88266 0
M  V30 10540 C 961.087 -4.41603 3.65752 0
M  V30 10541 N 960.583 -5.24162 4.53019 0
M  V30 10542 N 962.376 -4.36464 3.54197 0
M  V30 10543 H 954.527 -0.823355 1.95792 0
M  V30 10544 H 956.79 -0.42432 0.847736 0
M  V30 10545 H 956.496 -2.08075 2.83545 0
M  V30 10546 H 956.37 -3.38371 1.66687 0
M  V30 10547 H 958.757 -2.82717 0.845888 0
M  V30 10548 H 958.838 -1.53188 2.04859 0
M  V30 10549 H 958.482 -3.2567 3.89745 0
M  V30 10550 H 958.412 -4.54162 2.66542 0
M  V30 10551 H 960.903 -3.03625 2.24989 0
M  V30 10552 H 961.216 -5.81646 5.0883 0
M  V30 10553 H 959.561 -5.23547 4.57081 0
M  V30 10554 H 962.752 -3.7102 2.85416 0
M  V30 10555 H 962.925 -4.97814 4.14832 0
M  V30 10556 N 956.331 -0.831506 -1.3388 0
M  V30 10557 C 957.279 -0.247896 -2.31275 0
M  V30 10558 C 958.273 0.616083 -1.578 0
M  V30 10559 O 959.479 0.506465 -1.72728 0
M  V30 10560 H 955.854 -0.0614293 -0.749487 0
M  V30 10561 H 957.825 -1.08401 -2.78014 0
M  V30 10562 C 956.574 0.568434 -3.43022 0
M  V30 10563 H 955.897 -0.0870654 -3.99705 0
M  V30 10564 H 957.337 0.942751 -4.13386 0
M  V30 10565 C 955.796 1.74431 -2.88228 0
M  V30 10566 O 956.326 2.84278 -2.83811 0
M  V30 10567 N 954.532 1.56382 -2.44935 0
M  V30 10568 H 954.079 0.670255 -2.48727 0
M  V30 10569 H 954.037 2.35208 -2.08625 0
M  V30 10570 N 957.809 1.4625 -0.587256 0
M  V30 10571 C 958.772 2.28812 0.133238 0
M  V30 10572 C 959.772 1.38645 0.814513 0
M  V30 10573 O 960.962 1.60975 0.665774 0
M  V30 10574 C 958.094 3.19147 1.19824 0
M  V30 10575 H 959.287 2.93991 -0.592386 0
M  V30 10576 H 956.84 1.52435 -0.345416 0
M  V30 10577 H 957.575 2.58725 1.95529 0
M  V30 10578 H 957.36 3.85541 0.71418 0
M  V30 10579 H 958.85 3.81278 1.70344 0
M  V30 10580 N 959.287 0.325282 1.54207 0
M  V30 10581 C 960.515 -0.27869 2.05014 0
M  V30 10582 C 960.93 -1.45649 1.20133 0
M  V30 10583 O 960.287 -1.81014 0.232398 0
M  V30 10584 C 960.338 -0.711486 3.54429 0
M  V30 10585 O 960.059 0.419458 4.36087 0
M  V30 10586 C 961.56 -1.37809 4.21336 0
M  V30 10587 H 958.78 -0.0570388 0.668571 0
M  V30 10588 H 961.324 0.47197 1.98979 0
M  V30 10589 H 959.479 -1.41212 3.60746 0
M  V30 10590 H 959.893 0.0781037 5.24442 0
M  V30 10591 H 961.367 -1.63184 5.27328 0
M  V30 10592 H 961.844 -2.32593 3.72555 0
M  V30 10593 H 962.45 -0.719987 4.19161 0
M  V30 10594 N 960.765 -1.57509 0.0534917 0
M  V30 10595 C 962.012 -1.92782 -0.619772 0
M  V30 10596 C 962.34 -0.932046 -1.70714 0
M  V30 10597 O 961.595 0.0552891 -1.95622 0
M  V30 10598 C 961.894 -3.34734 -1.25251 0
M  V30 10599 C 961.56 -4.49946 -0.293113 0
M  V30 10600 C 960.222 -4.81191 -0.0291223 0
M  V30 10601 C 962.574 -5.19925 0.364271 0
M  V30 10602 C 959.902 -5.79761 0.899649 0
M  V30 10603 C 962.254 -6.19489 1.28125 0
M  V30 10604 C 960.918 -6.49161 1.55389 0
M  V30 10605 H 960.188 -0.705441 -0.226791 0
M  V30 10606 H 962.835 -1.91121 0.120466 0
M  V30 10607 H 961.14 -3.32774 -2.06807 0
M  V30 10608 H 962.837 -3.59308 -1.78042 0
M  V30 10609 H 959.427 -4.25566 -0.509053 0
M  V30 10610 H 963.611 -4.95997 0.173411 0
M  V30 10611 H 958.867 -6.01085 1.11833 0
M  V30 10612 H 963.041 -6.72824 1.79669 0
M  V30 10613 H 960.668 -7.25354 2.2752 0
M  V30 10614 N 962.243 0.219913 -1.56058 0
M  V30 10615 C 963.471 0.960915 -1.83232 0
M  V30 10616 C 963.886 1.77878 -0.632828 0
M  V30 10617 O 963.243 1.78093 0.398624 0
M  V30 10618 C 963.294 1.87716 -3.08942 0
M  V30 10619 O 963.015 1.09235 -4.24263 0
M  V30 10620 C 964.516 2.73192 -3.49115 0
M  V30 10621 H 961.736 0.281546 -0.609075 0
M  V30 10622 H 964.28 0.234648 -2.03149 0
M  V30 10623 H 962.435 2.55736 -2.90995 0
M  V30 10624 H 962.849 1.71446 -4.95688 0
M  V30 10625 H 964.323 3.33181 -4.40107 0
M  V30 10626 H 964.8 3.45668 -2.70943 0
M  V30 10627 H 965.406 2.10583 -3.69506 0
M  V30 10628 N 963.721 1.49897 0.486681 0
M  V30 10629 C 964.967 1.61313 1.23893 0
M  V30 10630 C 965.322 0.302457 1.90008 0
M  V30 10631 O 964.615 -0.698466 1.78415 0
M  V30 10632 C 964.809 2.71982 2.31863 0
M  V30 10633 C 964.638 4.13685 1.76338 0
M  V30 10634 C 963.408 4.8029 1.57002 0
M  V30 10635 C 965.606 4.98446 1.26711 0
M  V30 10636 N 963.588 6.06259 0.965564 0
M  V30 10637 C 964.959 6.15011 0.784912 0
M  V30 10638 C 967.014 4.84338 1.15419 0
M  V30 10639 C 965.717 7.19019 0.200942 0
M  V30 10640 C 967.743 5.88508 0.584173 0
M  V30 10641 C 967.105 7.04311 0.112272 0
M  V30 10642 H 963.204 0.644555 0.442801 0
M  V30 10643 H 965.788 1.86959 0.543562 0
M  V30 10644 H 963.959 2.48086 2.98844 0
M  V30 10645 H 965.691 2.72842 2.98897 0
M  V30 10646 H 962.446 4.37324 1.81781 0
M  V30 10647 H 962.87 6.73554 0.6822 0
M  V30 10648 H 967.512 3.95107 1.50499 0
M  V30 10649 H 965.23 8.07937 -0.162099 0
M  V30 10650 H 968.816 5.79653 0.49938 0
M  V30 10651 H 967.696 7.83539 -0.321907 0
M  V30 10652 N 965.199 -0.738761 1.39212 0
M  V30 10653 C 966.162 -1.83441 1.37412 0
M  V30 10654 C 967.162 -1.58484 0.271908 0
M  V30 10655 O 968.352 -1.65954 0.529609 0
M  V30 10656 C 965.484 -3.21167 1.143 0
M  V30 10657 H 966.677 -1.86441 2.34904 0
M  V30 10658 H 964.23 -0.942023 1.24722 0
M  V30 10659 H 964.965 -3.23829 0.174756 0
M  V30 10660 H 964.75 -3.40678 1.94116 0
M  V30 10661 H 966.24 -4.01231 1.15773 0
M  V30 10662 N 966.677 -1.24326 -0.968545 0
M  V30 10663 C 968.093 -1.00847 -1.23701 0
M  V30 10664 C 968.293 0.283235 -1.99499 0
M  V30 10665 O 967.349 0.999607 -2.31871 0
M  V30 10666 C 968.662 -2.22295 -2.02498 0
M  V30 10667 C 970.21 -2.26911 -2.15593 0
M  V30 10668 C 970.685 -3.47978 -2.97784 0
M  V30 10669 N 972.176 -3.48289 -3.05367 0
M  V30 10670 C 972.911 -4.38625 -3.69318 0
M  V30 10671 N 972.407 -5.39213 -4.34995 0
M  V30 10672 N 974.2 -4.26339 -3.66322 0
M  V30 10673 H 966.351 -2.07335 -0.461087 0
M  V30 10674 H 968.614 -0.909805 -0.26638 0
M  V30 10675 H 968.32 -3.161 -1.54188 0
M  V30 10676 H 968.194 -2.24344 -3.03232 0
M  V30 10677 H 970.581 -1.33639 -2.63106 0
M  V30 10678 H 970.662 -2.28888 -1.14209 0
M  V30 10679 H 970.306 -4.41564 -2.50965 0
M  V30 10680 H 970.236 -3.43244 -3.99364 0
M  V30 10681 H 972.727 -2.75517 -2.58648 0
M  V30 10682 H 973.04 -6.04378 -4.81608 0
M  V30 10683 H 971.385 -5.43101 -4.33667 0
M  V30 10684 H 974.576 -3.46991 -3.14189 0
M  V30 10685 H 974.749 -4.9694 -4.15878 0
M  V30 10686 N 968.156 1.1691 -1.05688 0
M  V30 10687 C 969.381 1.91745 -0.790478 0
M  V30 10688 C 969.806 1.76568 0.648478 0
M  V30 10689 O 969.164 1.08682 1.45114 0
M  V30 10690 C 969.212 3.4067 -1.18222 0
M  V30 10691 O 968.316 4.11177 -0.317341 0
M  V30 10692 H 967.657 0.5976 -0.28943 0
M  V30 10693 H 970.187 1.48157 -1.41105 0
M  V30 10694 H 970.197 3.91424 -1.15114 0
M  V30 10695 H 968.872 3.51036 -2.2304 0
M  V30 10696 H 967.449 3.70645 -0.409459 0
M  V30 10697 N 969.634 0.838594 1.33437 0
M  V30 10698 C 970.911 0.356112 1.92331 0
M  V30 10699 C 971.291 -1.1585 1.76471 0
M  V30 10700 O 970.639 -1.97281 1.15293 0
M  V30 10701 C 970.849 0.802715 3.39643 0
M  V30 10702 C 972.197 0.810575 4.16791 0
M  V30 10703 O 973.221 0.746304 3.48294 0
M  V30 10704 O 972.08 0.898082 5.3907 0
M  V30 10705 H 969.174 0.100711 0.820845 0
M  V30 10706 H 971.72 0.924428 1.42311 0
M  V30 10707 H 970.492 1.84529 3.45057 0
M  V30 10708 H 970.115 0.210956 3.9704 0
M  V30 10709 N 971.112 -1.45937 0.595003 0
M  V30 10710 C 972.523 -1.85908 0.171779 0
M  V30 10711 C 972.874 -1.497 -1.26824 0
M  V30 10712 O 971.999 -0.917688 -1.95978 0
M  V30 10713 C 972.594 -3.37425 0.304976 0
M  V30 10714 C 971.153 -3.76346 -0.0634635 0
M  V30 10715 C 970.3 -2.69926 0.635255 0
M  V30 10716 H 973.251 -1.36916 0.802471 0
M  V30 10717 H 973.272 -3.77632 -0.466313 0
M  V30 10718 H 972.784 -3.63747 1.35314 0
M  V30 10719 H 970.885 -3.55642 -1.11129 0
M  V30 10720 H 970.998 -4.78021 0.321419 0
M  V30 10721 H 969.362 -2.54592 0.0742054 0
M  V30 10722 H 970.145 -2.99086 1.68531 0
M  V30 10723 N 972.59 -0.333456 -1.54032 0
M  V30 10724 C 974.001 0.15256 -1.86076 0
M  V30 10725 C 974.352 1.50819 -1.25492 0
M  V30 10726 O 973.477 2.08903 -0.564665 0
M  V30 10727 C 974.072 0.283599 -3.37611 0
M  V30 10728 C 972.631 0.713841 -3.69569 0
M  V30 10729 C 971.778 -0.158515 -2.76847 0
M  V30 10730 H 974.729 -0.553404 -1.48738 0
M  V30 10731 H 974.75 1.11284 -3.63863 0
M  V30 10732 H 974.262 -0.703193 -3.81676 0
M  V30 10733 H 972.363 1.71002 -3.31042 0
M  V30 10734 H 972.476 0.510731 -4.7637 0
M  V30 10735 H 970.84 0.367531 -2.52034 0
M  V30 10736 H 971.623 -1.14226 -3.2374 0
M  V30 10737 N 974.068 1.57479 -0.061844 0
M  V30 10738 C 975.296 1.97429 0.618837 0
M  V30 10739 C 975.711 0.939826 1.63746 0
M  V30 10740 O 975.068 -0.0747173 1.82347 0
M  V30 10741 C 975.119 3.3746 1.29628 0
M  V30 10742 O 974.84 4.36941 0.318431 0
M  V30 10743 C 976.341 3.92228 2.06572 0
M  V30 10744 H 973.561 0.649513 0.168444 0
M  V30 10745 H 976.105 2.04078 -0.131303 0
M  V30 10746 H 974.26 3.31928 1.99757 0
M  V30 10747 H 974.674 5.18313 0.803239 0
M  V30 10748 H 976.148 4.92458 2.49377 0
M  V30 10749 H 976.625 3.28231 2.91824 0
M  V30 10750 H 977.231 4.01131 1.4133 0
M  V30 10751 N 975.546 -0.211634 1.56173 0
M  V30 10752 C 976.476 -1.26533 1.96244 0
M  V30 10753 C 977.457 -1.48362 0.832028 0
M  V30 10754 O 978.642 -1.60378 1.0951 0
M  V30 10755 C 975.772 -2.61307 2.2877 0
M  V30 10756 C 974.726 -2.54119 3.44395 0
M  V30 10757 C 974.052 -3.93014 3.62552 0
M  V30 10758 C 975.352 -2.08046 4.79076 0
M  V30 10759 H 977.046 -0.932407 2.84511 0
M  V30 10760 H 974.592 -0.447084 1.36884 0
M  V30 10761 H 976.545 -3.35188 2.55396 0
M  V30 10762 H 975.269 -2.96307 1.37367 0
M  V30 10763 H 973.928 -1.82694 3.17834 0
M  V30 10764 H 973.576 -4.25338 2.68508 0
M  V30 10765 H 973.276 -3.89083 4.40327 0
M  V30 10766 H 974.8 -4.68542 3.91537 0
M  V30 10767 H 976.214 -2.71676 5.04842 0
M  V30 10768 H 974.611 -2.15154 5.60204 0
M  V30 10769 H 975.681 -1.03306 4.73768 0
M  V30 10770 N 977.024 -1.50153 -0.478725 0
M  V30 10771 C 977.972 -1.68975 -1.59844 0
M  V30 10772 C 978.966 -0.555591 -1.6003 0
M  V30 10773 O 980.172 -0.735875 -1.64271 0
M  V30 10774 H 976.547 -0.533211 -0.530274 0
M  V30 10775 H 978.518 -2.62917 -1.41128 0
M  V30 10776 C 977.267 -1.79409 -2.97838 0
M  V30 10777 H 976.59 -2.66066 -2.98411 0
M  V30 10778 H 978.03 -1.96606 -3.75662 0
M  V30 10779 C 976.489 -0.543927 -3.3248 0
M  V30 10780 O 977.019 0.320376 -4.0042 0
M  V30 10781 N 975.225 -0.400217 -2.87831 0
M  V30 10782 H 974.772 -1.10458 -2.32716 0
M  V30 10783 H 974.73 0.435111 -3.11375 0
M  V30 10784 N 978.502 0.731368 -1.39602 0
M  V30 10785 C 979.75 1.48805 -1.36753 0
M  V30 10786 C 980.071 1.94969 0.034676 0
M  V30 10787 O 979.341 1.69243 0.986591 0
M  V30 10788 H 977.921 0.55203 -0.503261 0
M  V30 10789 H 980.583 0.868013 -1.74504 0
M  V30 10790 H 979.679 2.36844 -2.03252 0
M  V30 10791 N 979.98 1.24838 0.961938 0
M  V30 10792 C 981.229 1.0855 1.69999 0
M  V30 10793 C 981.542 -0.374645 1.91979 0
M  V30 10794 O 982.748 -0.657822 2.6341 0
M  V30 10795 C 981.204 1.89424 3.06017 0
M  V30 10796 C 980.812 3.39885 2.9186 0
M  V30 10797 C 982.556 1.81684 3.83655 0
M  V30 10798 C 980.463 4.13082 4.23223 0
M  V30 10799 H 979.393 0.402603 0.637516 0
M  V30 10800 H 982.044 1.4897 1.07146 0
M  V30 10801 H 980.426 1.41823 3.69733 0
M  V30 10802 H 981.6 3.95108 2.37121 0
M  V30 10803 H 979.915 3.4864 2.27683 0
M  V30 10804 H 982.512 2.3367 4.80939 0
M  V30 10805 H 982.855 0.783247 4.08865 0
M  V30 10806 H 983.388 2.26997 3.26676 0
M  V30 10807 H 980.127 5.16824 4.03204 0
M  V30 10808 H 979.647 3.62644 4.77755 0
M  V30 10809 H 981.326 4.20397 4.91808 0
M  V30 10810 N 981.458 -1.16348 1.06306 0
M  V30 10811 C 982.686 -1.90782 0.800614 0
M  V30 10812 C 983.101 -1.77439 -0.645033 0
M  V30 10813 O 982.458 -1.11912 -1.4416 0
M  V30 10814 C 982.509 -3.41484 1.18621 0
M  V30 10815 O 982.23 -3.54428 2.57512 0
M  V30 10816 C 983.731 -4.32968 0.951525 0
M  V30 10817 H 980.951 -0.604977 0.290247 0
M  V30 10818 H 983.495 -1.47476 1.41672 0
M  V30 10819 H 981.65 -3.82493 0.614633 0
M  V30 10820 H 982.064 -4.4788 2.72954 0
M  V30 10821 H 983.538 -5.37169 1.27095 0
M  V30 10822 H 984.015 -4.39055 -0.112734 0
M  V30 10823 H 984.621 -3.97687 1.50749 0
M  V30 10824 N 982.937 -0.845659 -1.3299 0
M  V30 10825 C 984.184 -0.444653 -1.97558 0
M  V30 10826 C 984.512 0.997682 -1.66963 0
M  V30 10827 O 983.767 1.71349 -0.94541 0
M  V30 10828 C 984.066 -0.6201 -3.51979 0
M  V30 10829 C 983.732 -2.03155 -4.02541 0
M  V30 10830 C 982.394 -2.4176 -4.16059 0
M  V30 10831 C 984.746 -2.95317 -4.29462 0
M  V30 10832 C 982.074 -3.71818 -4.53837 0
M  V30 10833 C 984.426 -4.24863 -4.68694 0
M  V30 10834 C 983.09 -4.63416 -4.80419 0
M  V30 10835 H 982.36 -0.16271 -0.722915 0
M  V30 10836 H 985.007 -1.07399 -1.58549 0
M  V30 10837 H 983.312 0.092513 -3.91691 0
M  V30 10838 H 985.009 -0.290012 -3.9995 0
M  V30 10839 H 981.599 -1.72174 -3.92497 0
M  V30 10840 H 985.783 -2.66726 -4.18534 0
M  V30 10841 H 981.039 -4.01484 -4.61108 0
M  V30 10842 H 985.213 -4.96347 -4.8848 0
M  V30 10843 H 982.84 -5.6424 -5.09448 0
M  V30 10844 N 984.415 1.45619 -0.602734 0
M  V30 10845 C 985.64 2.07157 -0.100429 0
M  V30 10846 C 986.065 1.44524 1.20393 0
M  V30 10847 O 985.423 0.536191 1.7319 0
M  V30 10848 C 985.471 3.60587 0.0308604 0
M  V30 10849 O 984.575 3.97944 1.08234 0
M  V30 10850 H 983.916 0.6601 -0.0718643 0
M  V30 10851 H 986.446 1.86948 -0.831366 0
M  V30 10852 H 986.456 4.07348 0.230634 0
M  V30 10853 H 985.131 4.05561 -0.921581 0
M  V30 10854 H 983.708 3.62862 0.859414 0
M  V30 10855 N 985.893 0.34162 1.53853 0
M  V30 10856 C 987.142 -0.256475 2.00063 0
M  V30 10857 C 987.455 -1.51811 1.23341 0
M  V30 10858 O 988.661 -2.19332 1.60017 0
M  V30 10859 C 987.117 -0.507567 3.56303 0
M  V30 10860 C 986.725 0.738052 4.41879 0
M  V30 10861 C 988.469 -1.06463 4.10933 0
M  V30 10862 C 986.376 0.457865 5.89625 0
M  V30 10863 H 985.306 -0.0996143 0.747391 0
M  V30 10864 H 987.957 0.456649 1.77727 0
M  V30 10865 H 986.339 -1.28134 3.74697 0
M  V30 10866 H 987.513 1.51278 4.3526 0
M  V30 10867 H 985.828 1.21661 3.98231 0
M  V30 10868 H 988.425 -1.28918 5.18926 0
M  V30 10869 H 988.768 -2.01956 3.64032 0
M  V30 10870 H 989.301 -0.351601 3.96243 0
M  V30 10871 H 986.04 1.38247 6.40756 0
M  V30 10872 H 985.56 -0.278818 5.99152 0
M  V30 10873 H 987.239 0.0743914 6.46957 0
M  V30 10874 N 987.371 -1.57444 0.0701946 0
M  V30 10875 C 988.782 -1.80875 -0.462709 0
M  V30 10876 C 989.133 -0.983975 -1.69742 0
M  V30 10877 O 988.258 -0.206027 -2.15417 0
M  V30 10878 C 988.853 -3.28062 -0.84623 0
M  V30 10879 C 987.412 -3.52345 -1.32401 0
M  V30 10880 C 986.559 -2.7558 -0.308399 0
M  V30 10881 H 989.51 -1.55917 0.295907 0
M  V30 10882 H 989.531 -3.40023 -1.70776 0
M  V30 10883 H 989.043 -3.88064 0.0526033 0
M  V30 10884 H 987.144 -2.97645 -2.24139 0
M  V30 10885 H 987.257 -4.6104 -1.30304 0
M  V30 10886 H 985.621 -2.4229 -0.785337 0
M  V30 10887 H 986.404 -3.38319 0.582679 0
M  V30 10888 N 988.849 0.203349 -1.56283 0
M  V30 10889 C 989.759 1.27266 -1.9708 0
M  V30 10890 C 990.775 1.50268 -0.877236 0
M  V30 10891 O 991.951 1.63044 -1.18231 0
M  V30 10892 C 989.016 2.59871 -2.29495 0
M  V30 10893 C 988.077 2.45012 -3.52516 0
M  V30 10894 C 987.31 3.71293 -3.83376 0
M  V30 10895 O 987.533 4.75106 -3.15643 0
M  V30 10896 O 986.467 3.67316 -4.76826 0
M  V30 10897 H 990.293 0.956461 -2.88246 0
M  V30 10898 H 987.878 0.407688 -1.4373 0
M  V30 10899 H 989.76 3.38152 -2.51458 0
M  V30 10900 H 988.435 2.91135 -1.415 0
M  V30 10901 H 987.342 1.6487 -3.35811 0
M  V30 10902 H 988.675 2.18683 -4.40952 0
M  V30 10903 N 990.327 1.50405 0.470755 0
M  V30 10904 C 991.575 1.61092 1.2204 0
M  V30 10905 C 991.896 0.313487 1.92464 0
M  V30 10906 O 991.166 -0.669043 1.84121 0
M  V30 10907 H 989.746 0.593618 0.45346 0
M  V30 10908 H 992.408 1.87184 0.542985 0
M  V30 10909 H 991.504 2.42222 1.96812 0
M  V30 10910 N 991.805 -0.723954 1.39988 0
M  V30 10911 C 992.768 -1.81973 1.3935 0
M  V30 10912 C 993.768 -1.58187 0.288702 0
M  V30 10913 O 994.958 -1.65383 0.547181 0
M  V30 10914 C 992.09 -3.19937 1.177 0
M  V30 10915 H 993.283 -1.83939 2.36868 0
M  V30 10916 H 990.836 -0.928742 1.25714 0
M  V30 10917 H 991.571 -3.23625 0.209093 0
M  V30 10918 H 991.356 -3.386 1.97719 0
M  V30 10919 H 992.846 -3.99981 1.20022 0
M  V30 10920 N 993.283 -1.25346 -0.955304 0
M  V30 10921 C 994.213 -1.08152 -2.06943 0
M  V30 10922 C 995.194 0.00922598 -1.70097 0
M  V30 10923 O 996.379 -0.160181 -1.93538 0
M  V30 10924 C 993.509 -0.698745 -3.40198 0
M  V30 10925 C 992.463 -1.73965 -3.9105 0
M  V30 10926 C 991.789 -1.21158 -5.20792 0
M  V30 10927 C 993.089 -3.13829 -4.17503 0
M  V30 10928 H 994.783 -2.01345 -2.21586 0
M  V30 10929 H 992.329 -0.969459 -1.06478 0
M  V30 10930 H 994.282 -0.565394 -4.1759 0
M  V30 10931 H 993.006 0.268892 -3.25491 0
M  V30 10932 H 991.665 -1.86143 -3.15827 0
M  V30 10933 H 991.313 -0.234193 -5.02455 0
M  V30 10934 H 991.013 -1.90728 -5.55785 0
M  V30 10935 H 992.537 -1.09061 -6.00781 0
M  V30 10936 H 993.951 -3.04809 -4.85556 0
M  V30 10937 H 992.348 -3.80863 -4.63749 0
M  V30 10938 H 993.418 -3.6094 -3.23806 0
M  V30 10939 N 994.761 1.15782 -1.06922 0
M  V30 10940 C 996.007 1.86741 -0.790922 0
M  V30 10941 C 996.34 1.81863 0.681149 0
M  V30 10942 O 995.615 1.23871 1.49954 0
M  V30 10943 C 995.898 3.36038 -1.29422 0
M  V30 10944 C 995.751 3.49573 -2.83052 0
M  V30 10945 C 997.07 4.30647 -0.907239 0
M  V30 10946 H 994.189 0.678064 -0.288787 0
M  V30 10947 H 996.831 1.36054 -1.32624 0
M  V30 10948 H 994.981 3.79336 -0.838843 0
M  V30 10949 H 996.653 3.1517 -3.36847 0
M  V30 10950 H 994.896 2.91275 -3.21467 0
M  V30 10951 H 995.567 4.5445 -3.13335 0
M  V30 10952 H 998.043 3.95286 -1.29956 0
M  V30 10953 H 996.919 5.33604 -1.28679 0
M  V30 10954 H 997.18 4.41703 0.187251 0
M  V30 10955 N 996.239 0.8527 1.3254 0
M  V30 10956 C 997.202 0.300959 2.27215 0
M  V30 10957 C 998.202 -0.538235 1.51525 0
M  V30 10958 O 999.392 -0.350027 1.70647 0
M  V30 10959 C 996.524 -0.574428 3.36025 0
M  V30 10960 H 997.717 1.13655 2.77529 0
M  V30 10961 H 995.27 0.626878 1.43178 0
M  V30 10962 H 996.005 -1.43191 2.90976 0
M  V30 10963 H 995.79 0.0262265 3.92091 0
M  V30 10964 H 997.28 -0.9533 4.06573 0
M  V30 10965 N 997.718 -1.45297 0.610449 0
M  V30 10966 C 998.964 -2.02518 0.106917 0
M  V30 10967 C 999.297 -1.47747 -1.26034 0
M  V30 10968 O 998.572 -0.65329 -1.832 0
M  V30 10969 C 998.855 -3.6003 0.0710975 0
M  V30 10970 C 998.708 -4.25128 1.46922 0
M  V30 10971 C 1000.03 -4.35778 -0.61524 0
M  V30 10972 H 997.146 -0.735896 0.040327 0
M  V30 10973 H 999.788 -1.73117 0.782968 0
M  V30 10974 H 997.938 -3.85209 -0.504611 0
M  V30 10975 H 999.61 -4.11125 2.09223 0
M  V30 10976 H 997.853 -3.83418 2.02911 0
M  V30 10977 H 998.524 -5.34046 1.39637 0
M  V30 10978 H 1001 -4.1591 -0.125871 0
M  V30 10979 H 999.876 -5.45506 -0.609419 0
M  V30 10980 H 1000.14 -4.08859 -1.68186 0
M  V30 10981 N 999.196 -0.349774 -1.5367 0
M  V30 10982 C 1000.44 0.245189 -2.01312 0
M  V30 10983 C 1000.77 1.49702 -1.23705 0
M  V30 10984 O 1000.05 1.91742 -0.326371 0
M  V30 10985 C 1000.33 0.553071 -3.55827 0
M  V30 10986 C 1000.19 -0.71129 -4.4414 0
M  V30 10987 C 1001.5 1.36015 -4.18555 0
M  V30 10988 H 998.624 0.0876415 -0.73177 0
M  V30 10989 H 1001.27 -0.471543 -1.84056 0
M  V30 10990 H 999.416 1.16367 -3.70663 0
M  V30 10991 H 1001.09 -1.34913 -4.41131 0
M  V30 10992 H 999.331 -1.33491 -4.1275 0
M  V30 10993 H 1000 -0.45104 -5.50154 0
M  V30 10994 H 1002.48 0.843778 -4.07455 0
M  V30 10995 H 1001.35 1.54432 -5.26728 0
M  V30 10996 H 1001.61 2.36408 -3.73582 0
M  V30 10997 N 1000.67 1.57404 -0.0785433 0
M  V30 10998 C 1001.92 1.93361 0.58786 0
M  V30 10999 C 1002.24 0.959856 1.6974 0
M  V30 11000 O 1001.51 0.0091173 1.95898 0
M  V30 11001 H 1000.09 0.713825 0.220141 0
M  V30 11002 H 1002.75 1.94411 -0.137986 0
M  V30 11003 H 1001.85 2.95346 1.00881 0
M  V30 11004 N 1002.15 -0.195058 1.56388 0
M  V30 11005 C 1003.08 -1.26581 1.91076 0
M  V30 11006 C 1004.1 -1.41707 0.801436 0
M  V30 11007 O 1005.29 -1.42132 1.07985 0
M  V30 11008 C 1002.39 -2.63794 2.12758 0
M  V30 11009 C 1001.56 -2.70275 3.43904 0
M  V30 11010 C 1000.62 -3.88685 3.54698 0
M  V30 11011 O 999.644 -3.75786 4.2752 0
M  V30 11012 N 1000.85 -5.04141 2.87789 0
M  V30 11013 H 1003.61 -0.971401 2.83521 0
M  V30 11014 H 1001.17 -0.384976 1.57256 0
M  V30 11015 H 1003.16 -3.41434 2.17267 0
M  V30 11016 H 1001.73 -2.85723 1.26812 0
M  V30 11017 H 1000.95 -1.78909 3.51262 0
M  V30 11018 H 1002.24 -2.71597 4.30247 0
M  V30 11019 H 1001.64 -5.17519 2.28452 0
M  V30 11020 H 1000.2 -5.79727 2.97925 0
M  V30 11021 N 1003.63 -1.50653 -0.462772 0
M  V30 11022 C 1004.88 -1.62297 -1.21603 0
M  V30 11023 C 1005.21 -0.326191 -1.91441 0
M  V30 11024 O 1004.48 0.67284 -1.82491 0
M  V30 11025 C 1004.77 -2.80901 -2.25315 0
M  V30 11026 C 1004.62 -4.20484 -1.59728 0
M  V30 11027 C 1005.94 -2.95049 -3.26549 0
M  V30 11028 H 1003.06 -0.590691 -0.440741 0
M  V30 11029 H 1005.7 -1.83064 -0.508675 0
M  V30 11030 H 1003.85 -2.63325 -2.85643 0
M  V30 11031 H 1005.52 -4.49669 -1.02932 0
M  V30 11032 H 1003.76 -4.24357 -0.900181 0
M  V30 11033 H 1004.44 -4.99416 -2.35133 0
M  V30 11034 H 1006.91 -3.11166 -2.76251 0
M  V30 11035 H 1005.79 -3.79645 -3.96435 0
M  V30 11036 H 1006.05 -2.06019 -3.91163 0
M  V30 11037 N 1005.11 0.71652 -1.4037 0
M  V30 11038 C 1006.36 1.47347 -1.38324 0
M  V30 11039 C 1006.68 1.94995 0.0139949 0
M  V30 11040 O 1005.95 1.7028 0.968585 0
M  V30 11041 H 1004.53 0.546662 -0.509087 0
M  V30 11042 H 1007.19 0.849455 -1.75415 0
M  V30 11043 H 1006.29 2.34675 -2.05752 0
M  V30 11044 N 1006.59 1.25851 0.948643 0
M  V30 11045 C 1007.83 1.12166 1.70874 0
M  V30 11046 C 1008.19 -0.330734 1.8913 0
M  V30 11047 O 1009.39 -0.58954 2.62255 0
M  V30 11048 C 1007.66 1.86162 3.05088 0
M  V30 11049 S 1009.22 1.88441 3.96277 0
M  V30 11050 H 1006.04 0.400803 0.587263 0
M  V30 11051 H 1008.64 1.59463 1.13101 0
M  V30 11052 H 1007.35 2.90916 2.89476 0
M  V30 11053 H 1006.88 1.39276 3.67921 0
M  V30 11054 H 1008.89 0.96575 4.86711 0
M  V30 11055 N 1008.06 -1.15214 1.07534 0
M  V30 11056 C 1009.31 -1.85676 0.79805 0
M  V30 11057 C 1009.63 -1.82837 -0.677919 0
M  V30 11058 O 1008.9 -1.27059 -1.49107 0
M  V30 11059 H 1007.48 -0.687468 0.292227 0
M  V30 11060 H 1010.15 -1.39658 1.35947 0
M  V30 11061 H 1009.24 -2.9076 1.13423 0
M  V30 11062 N 1009.54 -0.859717 -1.32086 0
M  V30 11063 C 1010.49 -0.306042 -2.28762 0
M  V30 11064 C 1011.46 0.589801 -1.55276 0
M  V30 11065 O 1012.64 0.523633 -1.83474 0
M  V30 11066 C 1009.78 0.495256 -3.41528 0
M  V30 11067 C 1008.9 -0.426947 -4.29885 0
M  V30 11068 C 1008.03 0.387474 -5.29785 0
M  V30 11069 C 1007.07 -0.531807 -6.09785 0
M  V30 11070 N 1006.21 0.245741 -7.0167 0
M  V30 11071 H 1011.05 -1.1357 -2.7551 0
M  V30 11072 H 1008.59 -0.571468 -1.35546 0
M  V30 11073 H 1010.54 0.97551 -4.05635 0
M  V30 11074 H 1009.17 1.28969 -2.95917 0
M  V30 11075 H 1008.23 -1.02561 -3.66313 0
M  V30 11076 H 1009.54 -1.13226 -4.85779 0
M  V30 11077 H 1008.69 0.930677 -5.99519 0
M  V30 11078 H 1007.43 1.12612 -4.74521 0
M  V30 11079 H 1006.44 -1.08685 -5.3895 0
M  V30 11080 H 1007.66 -1.26915 -6.67135 0
M  V30 11081 H 1005.61 0.967391 -6.48828 0
M  V30 11082 H 1005.52 -0.400432 -7.54939 0
M  V30 11083 H 1006.79 0.770507 -7.75683 0
M  V30 11084 N 1011.02 1.44971 -0.618145 0
M  V30 11085 C 1012.25 2.07039 -0.122395 0
M  V30 11086 C 1012.67 1.45793 1.18853 0
M  V30 11087 O 1012.03 0.55453 1.72611 0
M  V30 11088 C 1012.08 3.60599 -0.0073864 0
M  V30 11089 O 1011.18 3.99069 1.04007 0
M  V30 11090 H 1010.52 0.6593 -0.0788615 0
M  V30 11091 H 1013.05 1.86055 -0.851147 0
M  V30 11092 H 1013.06 4.07569 0.187417 0
M  V30 11093 H 1011.74 4.04561 -0.964544 0
M  V30 11094 H 1010.31 3.63753 0.820879 0
M  V30 11095 N 1012.5 0.357919 1.53482 0
M  V30 11096 C 1013.72 -0.237769 2.06033 0
M  V30 11097 C 1014.15 -1.42292 1.23023 0
M  V30 11098 O 1013.51 -1.79604 0.247427 0
M  V30 11099 C 1013.55 -0.616806 3.55286 0
M  V30 11100 O 1012.66 -1.71503 3.75047 0
M  V30 11101 H 1012 -0.0364322 0.663 0
M  V30 11102 H 1014.53 0.516301 1.97979 0
M  V30 11103 H 1014.54 -0.88996 3.98175 0
M  V30 11104 H 1013.21 0.249825 4.15149 0
M  V30 11105 H 1011.79 -1.43803 3.44057 0
M  V30 11106 N 1013.98 -1.5736 0.0868897 0
M  V30 11107 C 1014.91 -2.16596 -0.872252 0
M  V30 11108 C 1015.89 -1.09706 -1.29995 0
M  V30 11109 O 1017.07 -1.37808 -1.36831 0
M  V30 11110 C 1014.2 -2.73972 -2.1344 0
M  V30 11111 C 1013.16 -3.86163 -1.8456 0
M  V30 11112 C 1012.48 -4.30206 -3.17533 0
M  V30 11113 C 1013.78 -5.0973 -1.13899 0
M  V30 11114 H 1015.48 -2.96995 -0.378738 0
M  V30 11115 H 1013.02 -1.42861 -0.18073 0
M  V30 11116 H 1014.98 -3.14062 -2.80968 0
M  V30 11117 H 1013.7 -1.90817 -2.6506 0
M  V30 11118 H 1012.36 -3.466 -1.19432 0
M  V30 11119 H 1012.01 -3.43951 -3.67024 0
M  V30 11120 H 1011.71 -5.05841 -2.98996 0
M  V30 11121 H 1013.23 -4.72922 -3.86234 0
M  V30 11122 H 1014.64 -5.4704 -1.71523 0
M  V30 11123 H 1013.04 -5.90741 -1.05569 0
M  V30 11124 H 1014.11 -4.8475 -0.120432 0
M  V30 11125 N 1015.45 0.186762 -1.56489 0
M  V30 11126 C 1016.38 1.23395 -1.98232 0
M  V30 11127 C 1017.37 1.4702 -0.855526 0
M  V30 11128 O 1018.55 1.58616 -1.12048 0
M  V30 11129 C 1015.68 2.57635 -2.32898 0
M  V30 11130 C 1014.63 2.48607 -3.48394 0
M  V30 11131 C 1013.96 3.87196 -3.68759 0
M  V30 11132 C 1015.26 2.00398 -4.82325 0
M  V30 11133 H 1016.95 0.887026 -2.85958 0
M  V30 11134 H 1014.5 0.42525 -1.37578 0
M  V30 11135 H 1016.45 3.31082 -2.60696 0
M  V30 11136 H 1015.18 2.94084 -1.42064 0
M  V30 11137 H 1013.84 1.77615 -3.207 0
M  V30 11138 H 1013.48 4.21012 -2.75241 0
M  V30 11139 H 1013.18 3.82029 -4.46462 0
M  V30 11140 H 1014.71 4.62253 -3.98941 0
M  V30 11141 H 1016.12 2.6361 -5.091 0
M  V30 11142 H 1014.52 2.06214 -5.63556 0
M  V30 11143 H 1015.59 0.957562 -4.75351 0
M  V30 11144 N 1016.93 1.50896 0.454776 0
M  V30 11145 C 1018.16 1.66759 1.23313 0
M  V30 11146 C 1018.58 0.35722 1.84677 0
M  V30 11147 O 1017.94 -0.680771 1.68033 0
M  V30 11148 C 1017.99 2.77254 2.3057 0
M  V30 11149 O 1017.09 2.39642 3.35627 0
M  V30 11150 H 1016.43 0.556599 0.362068 0
M  V30 11151 H 1018.96 1.97365 0.539274 0
M  V30 11152 H 1018.97 3.0082 2.75629 0
M  V30 11153 H 1017.65 3.72349 1.85281 0
M  V30 11154 H 1016.23 2.26584 2.96165 0
M  V30 11155 N 1018.41 -0.709066 1.40748 0
M  V30 11156 C 1019.37 -1.80485 1.41272 0
M  V30 11157 C 1020.37 -1.57872 0.305463 0
M  V30 11158 O 1021.56 -1.64793 0.564691 0
M  V30 11159 C 1018.7 -3.1867 1.21087 0
M  V30 11160 H 1019.89 -1.81417 2.38805 0
M  V30 11161 H 1017.44 -0.915356 1.26692 0
M  V30 11162 H 1018.18 -3.23385 0.243406 0
M  V30 11163 H 1017.96 -3.36484 2.01299 0
M  V30 11164 H 1019.45 -3.98685 1.24257 0
M  V30 11165 N 1019.89 -1.26353 -0.941956 0
M  V30 11166 C 1020.82 -1.10341 -2.05784 0
M  V30 11167 C 1021.8 -0.00881565 -1.70098 0
M  V30 11168 O 1022.99 -0.180699 -1.93357 0
M  V30 11169 C 1020.12 -0.734788 -3.39438 0
M  V30 11170 C 1019.07 -1.78103 -3.89183 0
M  V30 11171 C 1018.4 -1.26675 -5.19478 0
M  V30 11172 C 1019.7 -3.1824 -4.14151 0
M  V30 11173 H 1021.39 -2.03684 -2.19438 0
M  V30 11174 H 1018.94 -0.980698 -1.05443 0
M  V30 11175 H 1020.89 -0.609653 -4.16967 0
M  V30 11176 H 1019.61 0.234354 -3.25758 0
M  V30 11177 H 1018.27 -1.89482 -3.13835 0
M  V30 11178 H 1017.92 -0.287472 -5.02178 0
M  V30 11179 H 1017.62 -1.96612 -5.53731 0
M  V30 11180 H 1019.14 -1.15427 -5.99591 0
M  V30 11181 H 1020.56 -3.09942 -4.82296 0
M  V30 11182 H 1018.95 -3.8576 -4.59684 0
M  V30 11183 H 1020.02 -3.64354 -3.19959 0
M  V30 11184 N 1021.37 1.14642 -1.08144 0
M  V30 11185 C 1022.3 2.21775 -0.730609 0
M  V30 11186 C 1023.28 1.67683 0.285702 0
M  V30 11187 O 1024.46 1.93567 0.156667 0
M  V30 11188 C 1021.59 3.47033 -0.136242 0
M  V30 11189 C 1020.55 4.14134 -1.0806 0
M  V30 11190 C 1019.87 5.33563 -0.348585 0
M  V30 11191 C 1021.17 4.62978 -2.41761 0
M  V30 11192 H 1022.87 2.51378 -1.62633 0
M  V30 11193 H 1020.41 1.20825 -0.783411 0
M  V30 11194 H 1022.37 4.21226 0.121182 0
M  V30 11195 H 1021.09 3.16786 0.7946 0
M  V30 11196 H 1019.75 3.41892 -1.32308 0
M  V30 11197 H 1019.4 4.99575 0.585974 0
M  V30 11198 H 1019.1 5.79402 -0.978122 0
M  V30 11199 H 1020.62 6.10519 -0.0991508 0
M  V30 11200 H 1022.04 5.28659 -2.21795 0
M  V30 11201 H 1020.43 5.1951 -3.00383 0
M  V30 11202 H 1021.5 3.78189 -3.03482 0
M  V30 11203 N 1022.85 0.866709 1.31628 0
M  V30 11204 C 1023.81 0.325041 2.26883 0
M  V30 11205 C 1024.81 -0.522133 1.52087 0
M  V30 11206 O 1026 -0.331908 1.71009 0
M  V30 11207 C 1023.13 -0.538756 3.36616 0
M  V30 11208 H 1024.32 1.16592 2.76308 0
M  V30 11209 H 1021.88 0.642029 1.42505 0
M  V30 11210 H 1022.61 -1.40096 2.92478 0
M  V30 11211 H 1022.4 0.0678115 3.92041 0
M  V30 11212 H 1023.89 -0.910123 4.07562 0
M  V30 11213 N 1024.32 -1.44642 0.625825 0
M  V30 11214 C 1025.23 -2.34451 -0.0836134 0
M  V30 11215 C 1026.25 -1.5231 -0.841289 0
M  V30 11216 O 1027.43 -1.85056 -0.794754 0
M  V30 11217 C 1024.49 -3.30211 -1.05648 0
M  V30 11218 C 1023.55 -4.28259 -0.298759 0
M  V30 11219 C 1022.78 -5.19444 -1.22528 0
M  V30 11220 O 1023.01 -5.14444 -2.46382 0
M  V30 11221 O 1021.94 -5.97668 -0.71247 0
M  V30 11222 H 1025.77 -2.96555 0.654912 0
M  V30 11223 H 1023.35 -1.44327 0.386029 0
M  V30 11224 H 1025.23 -3.8917 -1.61632 0
M  V30 11225 H 1023.91 -2.70648 -1.77571 0
M  V30 11226 H 1022.82 -3.72863 0.304001 0
M  V30 11227 H 1024.15 -4.90728 0.380345 0
M  V30 11228 N 1025.8 -0.366053 -1.5329 0
M  V30 11229 C 1026.73 0.523781 -2.22108 0
M  V30 11230 C 1027.71 1.08262 -1.21318 0
M  V30 11231 O 1028.9 1.13866 -1.50222 0
M  V30 11232 C 1026.02 1.72273 -2.91616 0
M  V30 11233 C 1025.07 1.29129 -4.06482 0
M  V30 11234 S 1025.9 0.292195 -5.34702 0
M  V30 11235 C 1027.06 1.49746 -6.07723 0
M  V30 11236 H 1027.29 -0.0606687 -2.97238 0
M  V30 11237 H 1024.82 -0.15016 -1.53668 0
M  V30 11238 H 1026.78 2.41045 -3.32277 0
M  V30 11239 H 1025.44 2.27843 -2.16209 0
M  V30 11240 H 1024.64 2.18583 -4.54134 0
M  V30 11241 H 1024.24 0.682783 -3.67715 0
M  V30 11242 H 1026.53 2.4284 -6.32483 0
M  V30 11243 H 1027.47 1.06232 -7.00086 0
M  V30 11244 H 1027.88 1.70373 -5.38176 0
M  V30 11245 N 1027.28 1.57312 -0.0952337 0
M  V30 11246 C 1028.56 1.85822 0.610715 0
M  V30 11247 C 1028.94 0.992114 1.86334 0
M  V30 11248 O 1028.28 0.0645669 2.28409 0
M  V30 11249 C 1028.49 3.36492 0.925967 0
M  V30 11250 C 1029.84 4.0455 1.28936 0
M  V30 11251 O 1030.87 3.41374 1.01698 0
M  V30 11252 O 1029.73 5.16024 1.79949 0
M  V30 11253 H 1026.82 0.768454 0.305626 0
M  V30 11254 H 1029.37 1.69217 -0.127941 0
M  V30 11255 H 1028.14 3.91282 0.0373127 0
M  V30 11256 H 1027.76 3.58443 1.7206 0
M  V30 11257 N 1028.76 -0.17846 1.56586 0
M  V30 11258 C 1029.7 -1.22104 1.95855 0
M  V30 11259 C 1030.67 -1.44366 0.821447 0
M  V30 11260 O 1031.86 -1.57224 1.08098 0
M  V30 11261 C 1029 -2.55701 2.31757 0
M  V30 11262 C 1028.11 -2.40879 3.5861 0
M  V30 11263 C 1027.25 -3.67293 3.83757 0
M  V30 11264 C 1026.29 -3.47373 5.03982 0
M  V30 11265 N 1025.42 -4.65839 5.25298 0
M  V30 11266 H 1030.26 -0.879168 2.84736 0
M  V30 11267 H 1027.8 -0.422721 1.40895 0
M  V30 11268 H 1029.76 -3.33556 2.50592 0
M  V30 11269 H 1028.39 -2.87898 1.45995 0
M  V30 11270 H 1027.44 -1.54236 3.47729 0
M  V30 11271 H 1028.75 -2.22102 4.46623 0
M  V30 11272 H 1027.91 -4.53584 4.02922 0
M  V30 11273 H 1026.65 -3.89041 2.94107 0
M  V30 11274 H 1025.65 -2.59467 4.84723 0
M  V30 11275 H 1026.88 -3.27055 5.95157 0
M  V30 11276 H 1024.82 -4.8782 4.38598 0
M  V30 11277 H 1024.74 -4.4995 6.0752 0
M  V30 11278 H 1026.01 -5.53435 5.48936 0
M  V30 11279 N 1030.24 -1.51135 -0.446768 0
M  V30 11280 C 1031.48 -1.63578 -1.19875 0
M  V30 11281 C 1031.81 -0.346478 -1.91084 0
M  V30 11282 O 1031.09 0.653447 -1.83195 0
M  V30 11283 C 1031.37 -2.83275 -2.22323 0
M  V30 11284 C 1031.23 -4.22155 -1.55259 0
M  V30 11285 C 1032.54 -2.98496 -3.23401 0
M  V30 11286 H 1029.66 -0.595333 -0.434452 0
M  V30 11287 H 1032.31 -1.83593 -0.48923 0
M  V30 11288 H 1030.46 -2.6634 -2.82834 0
M  V30 11289 H 1032.13 -4.50736 -0.981571 0
M  V30 11290 H 1030.37 -4.25288 -0.855122 0
M  V30 11291 H 1031.04 -5.01882 -2.29823 0
M  V30 11292 H 1033.52 -3.14079 -2.72935 0
M  V30 11293 H 1032.39 -3.83828 -3.92386 0
M  V30 11294 H 1032.65 -2.10157 -3.88956 0
M  V30 11295 N 1031.71 0.701592 -1.41122 0
M  V30 11296 C 1032.62 1.84548 -1.44841 0
M  V30 11297 C 1033.64 1.70654 -0.339594 0
M  V30 11298 O 1034.82 1.92675 -0.586378 0
M  V30 11299 C 1031.88 3.20477 -1.3227 0
M  V30 11300 C 1030.94 3.46524 -2.53415 0
M  V30 11301 C 1030.17 4.75968 -2.41434 0
M  V30 11302 O 1030.4 5.52037 -1.43566 0
M  V30 11303 O 1029.33 5.02664 -3.31078 0
M  V30 11304 H 1033.16 1.84367 -2.41335 0
M  V30 11305 H 1030.74 0.853863 -1.22595 0
M  V30 11306 H 1032.62 4.01642 -1.2752 0
M  V30 11307 H 1031.3 3.21355 -0.388889 0
M  V30 11308 H 1030.21 2.65313 -2.63742 0
M  V30 11309 H 1031.54 3.50455 -3.45604 0
M  V30 11310 N 1033.19 1.2685 0.935242 0
M  V30 11311 C 1034.44 1.12522 1.67878 0
M  V30 11312 C 1034.76 -0.330894 1.92172 0
M  V30 11313 O 1034.03 -1.23259 1.52263 0
M  V30 11314 H 1032.61 0.413418 0.622169 0
M  V30 11315 H 1035.27 1.59267 1.12339 0
M  V30 11316 H 1034.37 1.64853 2.65009 0
M  V30 11317 N 1034.67 -1.14067 1.0875 0
M  V30 11318 C 1035.62 -2.17302 0.690195 0
M  V30 11319 C 1036.6 -1.58229 -0.291948 0
M  V30 11320 O 1037.8 -1.76698 -0.103411 0
M  V30 11321 C 1034.93 -3.4314 0.104835 0
M  V30 11322 C 1034.01 -4.09235 1.11298 0
M  V30 11323 N 1034.4 -4.50601 2.29765 0
M  V30 11324 C 1032.7 -4.35775 0.949535 0
M  V30 11325 C 1033.4 -5.02029 2.93839 0
M  V30 11326 N 1032.38 -4.96457 2.21431 0
M  V30 11327 H 1036.18 -2.47031 1.59226 0
M  V30 11328 H 1033.69 -1.30788 0.962722 0
M  V30 11329 H 1035.69 -4.16431 -0.197777 0
M  V30 11330 H 1034.35 -3.14888 -0.792172 0
M  V30 11331 H 1035.36 -4.43529 2.67399 0
M  V30 11332 H 1032.04 -4.17364 0.106627 0
M  V30 11333 H 1033.43 -5.43885 3.94511 0
M  V30 11334 N 1036.15 -0.873678 -1.31166 0
M  V30 11335 C 1037.39 -0.487178 -1.96861 0
M  V30 11336 C 1037.73 0.95887 -1.68877 0
M  V30 11337 O 1037 1.6758 -0.987279 0
M  V30 11338 C 1037.29 -0.74925 -3.52219 0
M  V30 11339 C 1037.14 -2.2451 -3.89763 0
M  V30 11340 C 1038.46 -0.218194 -4.39559 0
M  V30 11341 H 1035.58 -0.178477 -0.715063 0
M  V30 11342 H 1038.22 -1.0956 -1.55231 0
M  V30 11343 H 1036.37 -0.231403 -3.8781 0
M  V30 11344 H 1038.04 -2.83049 -3.64254 0
M  V30 11345 H 1036.28 -2.71621 -3.38237 0
M  V30 11346 H 1036.95 -2.37911 -4.98099 0
M  V30 11347 H 1039.43 -0.661274 -4.10812 0
M  V30 11348 H 1038.31 -0.430983 -5.47205 0
M  V30 11349 H 1038.57 0.880056 -4.33252 0
M  V30 11350 N 1037.63 1.44308 -0.633487 0
M  V30 11351 C 1038.59 2.2912 0.060376 0
M  V30 11352 C 1039.59 1.41166 0.769992 0
M  V30 11353 O 1040.78 1.63012 0.614224 0
M  V30 11354 C 1037.91 3.22798 1.0961 0
M  V30 11355 H 1039.1 2.91958 -0.685617 0
M  V30 11356 H 1036.66 1.51259 -0.393738 0
M  V30 11357 H 1037.39 2.64815 1.87199 0
M  V30 11358 H 1037.18 3.87618 0.591161 0
M  V30 11359 H 1038.67 3.86504 1.58127 0
M  V30 11360 N 1039.1 0.374177 1.53094 0
M  V30 11361 C 1040.35 -0.213981 2.00562 0
M  V30 11362 C 1040.67 -1.4916 1.26533 0
M  V30 11363 O 1041.87 -2.15889 1.64634 0
M  V30 11364 C 1040.33 -0.431876 3.57299 0
M  V30 11365 C 1039.94 0.831615 4.40214 0
M  V30 11366 C 1041.68 -0.977222 4.13099 0
M  V30 11367 C 1039.59 0.582831 5.88521 0
M  V30 11368 H 1038.52 -0.0837386 0.749336 0
M  V30 11369 H 1041.17 0.494245 1.76719 0
M  V30 11370 H 1039.55 -1.20158 3.7733 0
M  V30 11371 H 1040.72 1.60477 4.31953 0
M  V30 11372 H 1039.04 1.30081 3.9556 0
M  V30 11373 H 1041.64 -1.17881 5.21544 0
M  V30 11374 H 1041.98 -1.94189 3.68234 0
M  V30 11375 H 1042.51 -0.267473 3.969 0
M  V30 11376 H 1039.25 1.51807 6.37679 0
M  V30 11377 H 1038.77 -0.151666 5.99608 0
M  V30 11378 H 1040.45 0.211604 6.46654 0
M  V30 11379 N 1040.58 -1.57259 0.103575 0
M  V30 11380 C 1041.53 -2.14487 -0.852295 0
M  V30 11381 C 1042.5 -1.06567 -1.27407 0
M  V30 11382 O 1043.68 -1.34398 -1.35432 0
M  V30 11383 C 1040.82 -2.73632 -2.10284 0
M  V30 11384 C 1039.94 -3.95811 -1.73083 0
M  V30 11385 C 1039.07 -4.43093 -2.92988 0
M  V30 11386 C 1038.11 -5.5784 -2.51953 0
M  V30 11387 N 1037.25 -5.99936 -3.64721 0
M  V30 11388 H 1042.09 -2.95849 -0.35743 0
M  V30 11389 H 1039.63 -1.46175 -0.164748 0
M  V30 11390 H 1041.58 -3.06046 -2.83534 0
M  V30 11391 H 1040.21 -1.94985 -2.57256 0
M  V30 11392 H 1039.27 -3.69656 -0.897688 0
M  V30 11393 H 1040.58 -4.79066 -1.38916 0
M  V30 11394 H 1039.73 -4.77335 -3.74481 0
M  V30 11395 H 1038.47 -3.58756 -3.30372 0
M  V30 11396 H 1037.48 -5.23217 -1.6889 0
M  V30 11397 H 1038.7 -6.43932 -2.15705 0
M  V30 11398 H 1036.65 -5.18543 -4.01807 0
M  V30 11399 H 1036.56 -6.78008 -3.34427 0
M  V30 11400 H 1037.83 -6.38812 -4.46699 0
M  V30 11401 N 1042.06 0.170153 -1.56679 0
M  V30 11402 C 1043.31 0.884841 -1.817 0
M  V30 11403 C 1043.63 1.82731 -0.680763 0
M  V30 11404 O 1042.9 1.936 0.299294 0
M  V30 11405 H 1041.48 0.329738 -0.670285 0
M  V30 11406 H 1044.14 0.169691 -1.9416 0
M  V30 11407 H 1043.24 1.46104 -2.7579 0
M  V30 11408 N 1043.54 1.5137 0.438746 0
M  V30 11409 C 1044.76 1.68058 1.21537 0
M  V30 11410 C 1045.19 0.376787 1.84288 0
M  V30 11411 O 1044.55 -0.662911 1.68746 0
M  V30 11412 C 1044.59 2.79684 2.27616 0
M  V30 11413 O 1043.7 2.43189 3.33066 0
M  V30 11414 H 1043.04 0.560408 0.356144 0
M  V30 11415 H 1045.57 1.97926 0.518311 0
M  V30 11416 H 1045.58 3.03726 2.72423 0
M  V30 11417 H 1044.25 3.74293 1.81321 0
M  V30 11418 H 1042.83 2.29713 2.93746 0
M  V30 11419 N 1045.02 -0.694098 1.41492 0
M  V30 11420 C 1046.26 -1.4563 1.41137 0
M  V30 11421 C 1046.6 -1.94189 0.0208428 0
M  V30 11422 O 1045.87 -1.69628 -0.951655 0
M  V30 11423 C 1046.15 -2.66714 2.41941 0
M  V30 11424 C 1046.01 -2.23912 3.90107 0
M  V30 11425 C 1047.33 -3.68913 2.39981 0
M  V30 11426 H 1044.44 -0.52821 0.513968 0
M  V30 11427 H 1047.09 -0.790437 1.72778 0
M  V30 11428 H 1045.24 -3.23525 2.1509 0
M  V30 11429 H 1046.91 -1.72417 4.27867 0
M  V30 11430 H 1045.15 -1.5568 4.04903 0
M  V30 11431 H 1045.82 -3.108 4.56188 0
M  V30 11432 H 1048.3 -3.21779 2.63813 0
M  V30 11433 H 1047.17 -4.51242 3.12524 0
M  V30 11434 H 1047.44 -4.18711 1.41892 0
M  V30 11435 N 1046.49 -1.27344 -0.928501 0
M  V30 11436 C 1047.46 -1.10043 -2.01055 0
M  V30 11437 C 1048.46 -0.0446793 -1.60738 0
M  V30 11438 O 1049.65 -0.289202 -1.71783 0
M  V30 11439 C 1046.78 -0.676559 -3.34119 0
M  V30 11440 H 1047.97 -2.06126 -2.17835 0
M  V30 11441 H 1045.53 -1.10121 -1.10919 0
M  V30 11442 H 1046.26 0.285697 -3.23039 0
M  V30 11443 H 1046.05 -1.43903 -3.64739 0
M  V30 11444 H 1047.54 -0.577725 -4.13584 0
M  V30 11445 N 1047.97 1.13488 -1.09353 0
M  V30 11446 C 1049.2 1.88319 -0.849681 0
M  V30 11447 C 1049.61 1.79347 0.602616 0
M  V30 11448 O 1048.95 1.15744 1.4265 0
M  V30 11449 C 1049.02 3.38698 -1.20514 0
M  V30 11450 C 1048.68 3.71452 -2.66219 0
M  V30 11451 C 1049.68 3.70755 -3.64467 0
M  V30 11452 C 1047.36 4.01132 -3.02321 0
M  V30 11453 C 1049.36 3.9928 -4.96845 0
M  V30 11454 C 1047.04 4.29318 -4.3489 0
M  V30 11455 C 1048.04 4.28376 -5.31961 0
M  V30 11456 O 1047.73 4.55872 -6.62145 0
M  V30 11457 H 1047.46 0.603053 -0.305455 0
M  V30 11458 H 1050.01 1.44592 -1.45884 0
M  V30 11459 H 1048.24 3.82925 -0.539022 0
M  V30 11460 H 1049.93 3.94852 -0.940552 0
M  V30 11461 H 1050.7 3.47901 -3.3792 0
M  V30 11462 H 1046.58 4.01013 -2.27398 0
M  V30 11463 H 1050.12 3.9846 -5.72604 0
M  V30 11464 H 1046.02 4.51644 -4.61181 0
M  V30 11465 H 1046.79 4.73544 -6.67607 0
M  V30 11466 N 1049.45 0.880621 1.30701 0
M  V30 11467 C 1050.7 0.497611 1.966 0
M  V30 11468 C 1051.03 -0.949901 1.69383 0
M  V30 11469 O 1050.31 -1.67054 0.996152 0
M  V30 11470 C 1050.59 0.767919 3.51817 0
M  V30 11471 C 1050.44 2.26574 3.88567 0
M  V30 11472 C 1051.76 0.241502 4.39437 0
M  V30 11473 H 1048.88 0.182267 0.714106 0
M  V30 11474 H 1051.52 1.10382 1.54648 0
M  V30 11475 H 1049.67 0.251967 3.87682 0
M  V30 11476 H 1051.34 2.84977 3.62748 0
M  V30 11477 H 1049.59 2.73411 3.36792 0
M  V30 11478 H 1050.26 2.40549 4.9683 0
M  V30 11479 H 1052.73 0.683051 4.10455 0
M  V30 11480 H 1051.61 0.459997 5.46969 0
M  V30 11481 H 1051.87 -0.857068 4.33713 0
M  V30 11482 N 1050.93 -1.4397 0.641131 0
M  V30 11483 C 1052.34 -1.85267 0.230838 0
M  V30 11484 C 1052.69 -1.53659 -1.21998 0
M  V30 11485 O 1051.82 -0.979572 -1.92959 0
M  V30 11486 C 1052.41 -3.36284 0.412171 0
M  V30 11487 C 1050.97 -3.76358 0.0563004 0
M  V30 11488 C 1050.12 -2.67768 0.720809 0
M  V30 11489 H 1053.07 -1.34294 0.845624 0
M  V30 11490 H 1053.09 -3.78924 -0.345936 0
M  V30 11491 H 1052.6 -3.59258 1.46818 0
M  V30 11492 H 1050.7 -3.58997 -0.997582 0
M  V30 11493 H 1050.82 -4.76756 0.473335 0
M  V30 11494 H 1049.18 -2.54227 0.155164 0
M  V30 11495 H 1049.96 -2.93573 1.77961 0
M  V30 11496 N 1052.41 -0.382291 -1.52893 0
M  V30 11497 C 1053.34 0.491199 -2.23875 0
M  V30 11498 C 1054.35 1.03249 -1.25871 0
M  V30 11499 O 1055.54 0.936016 -1.5199 0
M  V30 11500 C 1052.64 1.6927 -2.936 0
M  V30 11501 C 1051.81 1.28 -4.18252 0
M  V30 11502 C 1050.87 2.34541 -4.71038 0
M  V30 11503 O 1049.9 1.96239 -5.34302 0
M  V30 11504 N 1051.1 3.6636 -4.50289 0
M  V30 11505 H 1053.87 -0.116897 -2.99472 0
M  V30 11506 H 1051.43 -0.208296 -1.60554 0
M  V30 11507 H 1053.42 2.40054 -3.25816 0
M  V30 11508 H 1051.99 2.20729 -2.21354 0
M  V30 11509 H 1051.21 0.40133 -3.92152 0
M  V30 11510 H 1052.5 0.98082 -4.99257 0
M  V30 11511 H 1051.9 4.00245 -3.99775 0
M  V30 11512 H 1050.45 4.332 -4.87013 0
M  V30 11513 N 1053.89 1.57202 -0.111913 0
M  V30 11514 C 1054.82 2.11995 0.871242 0
M  V30 11515 C 1055.83 1.06102 1.23475 0
M  V30 11516 O 1057.02 1.33497 1.18494 0
M  V30 11517 C 1054.12 2.59874 2.17528 0
M  V30 11518 C 1053.29 3.89788 1.98455 0
M  V30 11519 C 1052.35 4.23339 3.12523 0
M  V30 11520 O 1051.38 4.92277 2.85748 0
M  V30 11521 N 1052.58 3.80089 4.38762 0
M  V30 11522 H 1055.34 2.96976 0.403157 0
M  V30 11523 H 1052.91 1.61737 0.0727159 0
M  V30 11524 H 1054.9 2.79354 2.9282 0
M  V30 11525 H 1053.47 1.79812 2.55707 0
M  V30 11526 H 1052.69 3.79288 1.07396 0
M  V30 11527 H 1053.98 4.74748 1.83007 0
M  V30 11528 H 1053.37 3.24473 4.63394 0
M  V30 11529 H 1051.93 4.04691 5.10949 0
M  V30 11530 N 1055.36 -0.161842 1.56767 0
M  V30 11531 C 1056.33 -1.18404 1.96247 0
M  V30 11532 C 1057.33 -1.3667 0.84722 0
M  V30 11533 O 1058.52 -1.33915 1.11411 0
M  V30 11534 C 1055.65 -2.54728 2.26553 0
M  V30 11535 H 1056.84 -0.845703 2.87729 0
M  V30 11536 H 1054.39 -0.404645 1.50971 0
M  V30 11537 H 1055.13 -2.93559 1.37816 0
M  V30 11538 H 1054.91 -2.42834 3.07854 0
M  V30 11539 H 1056.4 -3.28378 2.57987 0
M  V30 11540 N 1056.84 -1.516 -0.430713 0
M  V30 11541 C 1058.09 -1.65801 -1.17821 0
M  V30 11542 C 1058.44 -0.372769 -1.88754 0
M  V30 11543 O 1057.74 0.631767 -1.80885 0
M  V30 11544 C 1057.93 -2.804 -2.21609 0
M  V30 11545 C 1057.76 -4.19944 -1.60863 0
M  V30 11546 C 1056.53 -4.85786 -1.39068 0
M  V30 11547 C 1058.73 -5.02806 -1.08124 0
M  V30 11548 N 1056.71 -6.09425 -0.73989 0
M  V30 11549 C 1058.08 -6.17501 -0.556114 0
M  V30 11550 C 1060.13 -4.88288 -0.973635 0
M  V30 11551 C 1058.84 -7.1927 0.0660558 0
M  V30 11552 C 1060.86 -5.9027 -0.36535 0
M  V30 11553 C 1060.23 -7.04242 0.149205 0
M  V30 11554 H 1056.32 -0.660545 -0.418574 0
M  V30 11555 H 1058.91 -1.88847 -0.473799 0
M  V30 11556 H 1057.08 -2.59006 -2.89431 0
M  V30 11557 H 1058.81 -2.83747 -2.88565 0
M  V30 11558 H 1055.57 -4.4377 -1.65425 0
M  V30 11559 H 1055.99 -6.75622 -0.431745 0
M  V30 11560 H 1060.63 -4.00421 -1.35731 0
M  V30 11561 H 1058.35 -8.06779 0.461848 0
M  V30 11562 H 1061.94 -5.81107 -0.283902 0
M  V30 11563 H 1060.82 -7.81804 0.61249 0
M  V30 11564 N 1058.32 0.686584 -1.41858 0
M  V30 11565 C 1059.57 1.44235 -1.40994 0
M  V30 11566 C 1059.88 1.95583 -0.0254979 0
M  V30 11567 O 1061.09 2.71294 0.10576 0
M  V30 11568 C 1059.54 2.6086 -2.47952 0
M  V30 11569 C 1059.15 2.16259 -3.92347 0
M  V30 11570 C 1060.9 3.38441 -2.56237 0
M  V30 11571 C 1058.8 3.29896 -4.90838 0
M  V30 11572 H 1057.73 0.54181 -0.524364 0
M  V30 11573 H 1060.38 0.744486 -1.67719 0
M  V30 11574 H 1058.77 3.32957 -2.14373 0
M  V30 11575 H 1059.94 1.51392 -4.35221 0
M  V30 11576 H 1058.25 1.51648 -3.87804 0
M  V30 11577 H 1060.85 4.23052 -3.27003 0
M  V30 11578 H 1061.19 3.84238 -1.6021 0
M  V30 11579 H 1061.73 2.73406 -2.88953 0
M  V30 11580 H 1058.47 2.89104 -5.88302 0
M  V30 11581 H 1057.99 3.93584 -4.52606 0
M  V30 11582 H 1059.67 3.95541 -5.12012 0
M  V30 11583 N 1059.8 1.27835 0.921735 0
M  V30 11584 C 1060.73 1.06874 2.02758 0
M  V30 11585 C 1061.74 0.0229418 1.62784 0
M  V30 11586 O 1062.93 0.265145 1.7652 0
M  V30 11587 C 1060.03 0.60037 3.3354 0
M  V30 11588 C 1059.2 1.71979 4.02172 0
M  V30 11589 C 1058.26 1.24615 5.11231 0
M  V30 11590 O 1057.29 1.94692 5.34868 0
M  V30 11591 N 1058.49 0.105021 5.80405 0
M  V30 11592 H 1061.26 2.02105 2.213 0
M  V30 11593 H 1058.82 1.19481 1.09251 0
M  V30 11594 H 1060.81 0.267281 4.03816 0
M  V30 11595 H 1059.38 -0.258872 3.11526 0
M  V30 11596 H 1058.6 2.22287 3.25549 0
M  V30 11597 H 1059.89 2.47092 4.44773 0
M  V30 11598 H 1059.29 -0.479745 5.63662 0
M  V30 11599 H 1057.84 -0.168846 6.51581 0
M  V30 11600 N 1061.28 -1.12907 1.09954 0
M  V30 11601 C 1062.22 -2.20561 0.73863 0
M  V30 11602 C 1063.22 -1.67347 -0.262944 0
M  V30 11603 O 1064.42 -1.79574 -0.123834 0
M  V30 11604 H 1060.8 -0.718823 0.220901 0
M  V30 11605 H 1062.77 -2.4826 1.65559 0
M  V30 11606 C 1061.52 -3.47227 0.181239 0
M  V30 11607 H 1060.84 -3.88516 0.943144 0
M  V30 11608 H 1062.28 -4.23987 -0.0332888 0
M  V30 11609 C 1060.74 -3.18956 -1.08485 0
M  V30 11610 O 1061.27 -3.38224 -2.1672 0
M  V30 11611 N 1059.48 -2.72797 -1.00151 0
M  V30 11612 H 1059.02 -2.57317 -0.120645 0
M  V30 11613 H 1058.98 -2.54256 -1.84935 0
M  V30 11614 N 1062.75 -0.88754 -1.30232 0
M  V30 11615 C 1064.03 -0.427249 -1.90877 0
M  V30 11616 C 1064.41 1.0922 -1.80649 0
M  V30 11617 O 1063.76 1.92866 -1.22536 0
M  V30 11618 C 1063.97 -0.928219 -3.3643 0
M  V30 11619 C 1065.32 -0.964706 -4.13496 0
M  V30 11620 O 1066.34 -0.875057 -3.45284 0
M  V30 11621 O 1065.2 -1.09754 -5.35366 0
M  V30 11622 H 1062.29 -0.131107 -0.816541 0
M  V30 11623 H 1064.84 -0.976609 -1.38782 0
M  V30 11624 H 1063.61 -1.97209 -3.37971 0
M  V30 11625 H 1063.23 -0.358169 -3.95983 0
M  V30 11626 N 1064.23 1.43628 -0.648757 0
M  V30 11627 C 1065.46 2.06732 -0.166284 0
M  V30 11628 C 1065.88 1.48281 1.15734 0
M  V30 11629 O 1065.24 0.591018 1.71396 0
M  V30 11630 C 1065.29 3.60502 -0.0838732 0
M  V30 11631 O 1064.39 4.01186 0.955185 0
M  V30 11632 H 1063.73 0.657479 -0.0928285 0
M  V30 11633 H 1066.26 1.84208 -0.890421 0
M  V30 11634 H 1066.27 4.07875 0.100923 0
M  V30 11635 H 1064.95 4.02424 -1.05014 0
M  V30 11636 H 1063.53 3.65412 0.743537 0
M  V30 11637 N 1065.71 0.390394 1.52688 0
M  V30 11638 C 1066.64 -0.43567 2.294 0
M  V30 11639 C 1067.62 -1.06253 1.32832 0
M  V30 11640 O 1068.81 -1.07509 1.61726 0
M  V30 11641 C 1065.94 -1.56259 3.10162 0
M  V30 11642 C 1064.89 -1.06172 4.14622 0
M  V30 11643 C 1064.22 -2.2808 4.83615 0
M  V30 11644 C 1065.52 -0.128902 5.22141 0
M  V30 11645 H 1067.21 0.204384 2.98702 0
M  V30 11646 H 1064.76 0.0997377 1.43654 0
M  V30 11647 H 1066.71 -2.14732 3.62585 0
M  V30 11648 H 1065.43 -2.23025 2.38595 0
M  V30 11649 H 1064.09 -0.499518 3.63181 0
M  V30 11650 H 1063.74 -2.93358 4.08595 0
M  V30 11651 H 1063.44 -1.95227 5.5422 0
M  V30 11652 H 1064.96 -2.87193 5.38844 0
M  V30 11653 H 1066.38 -0.621849 5.69917 0
M  V30 11654 H 1064.78 0.109919 5.99999 0
M  V30 11655 H 1065.85 0.821884 4.77884 0
M  V30 11656 N 1067.19 -1.57141 0.120249 0
M  V30 11657 C 1068.6 -1.5784 -0.236335 0
M  V30 11658 C 1068.8 -1.13304 -1.66626 0
M  V30 11659 O 1067.86 -0.821004 -2.3878 0
M  V30 11660 C 1069.17 -3.007 -0.00188211 0
M  V30 11661 C 1070.72 -3.12927 -0.0676838 0
M  V30 11662 C 1071.2 -4.57789 0.139092 0
M  V30 11663 N 1072.69 -4.63122 0.085104 0
M  V30 11664 C 1073.42 -5.72978 0.219983 0
M  V30 11665 N 1072.92 -6.91579 0.411102 0
M  V30 11666 N 1074.71 -5.61874 0.159469 0
M  V30 11667 H 1066.86 -1.84391 1.05422 0
M  V30 11668 H 1069.13 -0.852228 0.415225 0
M  V30 11669 H 1068.83 -3.37575 0.986718 0
M  V30 11670 H 1068.71 -3.70005 -0.733203 0
M  V30 11671 H 1071.09 -2.75909 -1.04681 0
M  V30 11672 H 1071.17 -2.46162 0.695538 0
M  V30 11673 H 1070.82 -4.95506 1.1152 0
M  V30 11674 H 1070.75 -5.22646 -0.644131 0
M  V30 11675 H 1073.24 -3.77854 -0.0590479 0
M  V30 11676 H 1073.55 -7.71149 0.504851 0
M  V30 11677 H 1071.9 -6.9356 0.447091 0
M  V30 11678 H 1075.09 -4.68099 0.0111131 0
M  V30 11679 H 1075.26 -6.47445 0.268028 0
M  V30 11680 N 1068.67 0.153526 -1.5685 0
M  V30 11681 C 1069.58 1.20932 -2.01029 0
M  V30 11682 C 1070.59 1.47401 -0.924598 0
M  V30 11683 O 1071.77 1.592 -1.23359 0
M  V30 11684 C 1068.83 2.52438 -2.37647 0
M  V30 11685 C 1067.89 2.33673 -3.60132 0
M  V30 11686 C 1067.13 3.58909 -3.94994 0
M  V30 11687 O 1067.35 4.64823 -3.30599 0
M  V30 11688 O 1066.28 3.5196 -4.8827 0
M  V30 11689 H 1070.11 0.864273 -2.91143 0
M  V30 11690 H 1067.7 0.361755 -1.44954 0
M  V30 11691 H 1069.58 3.29981 -2.62088 0
M  V30 11692 H 1068.25 2.86486 -1.5069 0
M  V30 11693 H 1067.16 1.54102 -3.40886 0
M  V30 11694 H 1068.49 2.04544 -4.47686 0
M  V30 11695 N 1070.14 1.51827 0.422667 0
M  V30 11696 C 1071.09 1.74791 1.53463 0
M  V30 11697 C 1072.09 0.614602 1.57858 0
M  V30 11698 O 1073.29 0.796336 1.61426 0
M  V30 11699 H 1069.67 0.552524 0.510118 0
M  V30 11700 H 1071.64 2.67974 1.31273 0
M  V30 11701 C 1070.39 1.90339 2.90975 0
M  V30 11702 H 1069.71 2.76958 2.8833 0
M  V30 11703 H 1071.15 2.10413 3.68106 0
M  V30 11704 C 1069.61 0.66695 3.30232 0
M  V30 11705 O 1070.14 -0.171542 4.01334 0
M  V30 11706 N 1068.35 0.506768 2.86147 0
M  V30 11707 H 1067.89 1.19019 2.28456 0
M  V30 11708 H 1067.85 -0.319247 3.12775 0
M  V30 11709 N 1071.62 -0.679052 1.4222 0
M  V30 11710 C 1072.87 -1.43485 1.41757 0
M  V30 11711 C 1073.18 -1.95567 0.0358698 0
M  V30 11712 O 1074.39 -2.71346 -0.0913713 0
M  V30 11713 C 1072.85 -2.59541 2.49332 0
M  V30 11714 C 1072.45 -2.14176 3.93488 0
M  V30 11715 C 1074.2 -3.37078 2.58029 0
M  V30 11716 C 1072.11 -3.27289 4.92581 0
M  V30 11717 H 1071.04 -0.539022 0.52723 0
M  V30 11718 H 1073.69 -0.735581 1.68111 0
M  V30 11719 H 1072.07 -3.31815 2.16135 0
M  V30 11720 H 1073.24 -1.49082 4.36017 0
M  V30 11721 H 1071.56 -1.49589 3.88603 0
M  V30 11722 H 1074.15 -4.21312 3.29242 0
M  V30 11723 H 1074.5 -3.83383 1.62245 0
M  V30 11724 H 1075.03 -2.7187 2.90399 0
M  V30 11725 H 1071.77 -2.8598 5.89827 0
M  V30 11726 H 1071.29 -3.91178 4.54687 0
M  V30 11727 H 1072.97 -3.9282 5.14103 0
M  V30 11728 N 1073.1 -1.28322 -0.914942 0
M  V30 11729 C 1074.03 -1.14681 -2.03398 0
M  V30 11730 C 1075.01 -0.0448939 -1.70041 0
M  V30 11731 O 1076.2 -0.221672 -1.92931 0
M  V30 11732 C 1073.33 -0.806623 -3.37803 0
M  V30 11733 C 1072.28 -1.86318 -3.85318 0
M  V30 11734 C 1071.61 -1.37665 -5.16674 0
M  V30 11735 C 1072.91 -3.26953 -4.07307 0
M  V30 11736 H 1074.6 -2.08293 -2.15068 0
M  V30 11737 H 1072.15 -1.00284 -1.03339 0
M  V30 11738 H 1074.1 -0.69796 -4.1558 0
M  V30 11739 H 1072.82 0.165203 -3.26182 0
M  V30 11740 H 1071.48 -1.96096 -3.09745 0
M  V30 11741 H 1071.13 -0.393927 -5.01455 0
M  V30 11742 H 1070.83 -2.08313 -5.49435 0
M  V30 11743 H 1072.35 -1.28119 -5.97007 0
M  V30 11744 H 1073.77 -3.20102 -4.75613 0
M  V30 11745 H 1072.17 -3.95424 -4.51398 0
M  V30 11746 H 1073.24 -3.71059 -3.12159 0
M  V30 11747 N 1074.58 1.12322 -1.10551 0
M  V30 11748 C 1075.83 1.83858 -0.848674 0
M  V30 11749 C 1076.15 1.84159 0.62575 0
M  V30 11750 O 1075.41 1.28341 1.4774 0
M  V30 11751 C 1075.71 3.31177 -1.34375 0
M  V30 11752 C 1075.37 3.51046 -2.8298 0
M  V30 11753 C 1074.04 3.56177 -3.23561 0
M  V30 11754 C 1076.39 3.58061 -3.78737 0
M  V30 11755 C 1073.72 3.65868 -4.58647 0
M  V30 11756 C 1076.07 3.69283 -5.13627 0
M  V30 11757 C 1074.73 3.7267 -5.53781 0
M  V30 11758 H 1074 0.672784 -0.310552 0
M  V30 11759 H 1076.65 1.3253 -1.38232 0
M  V30 11760 H 1074.95 3.84937 -0.730144 0
M  V30 11761 H 1076.65 3.84998 -1.12148 0
M  V30 11762 H 1073.24 3.47716 -2.50582 0
M  V30 11763 H 1077.42 3.53366 -3.48491 0
M  V30 11764 H 1072.68 3.66763 -4.89178 0
M  V30 11765 H 1076.85 3.73654 -5.8767 0
M  V30 11766 H 1074.48 3.79932 -6.58449 0
M  V30 11767 N 1076.06 0.894434 1.2976 0
M  V30 11768 C 1077.3 0.516646 1.95385 0
M  V30 11769 C 1077.63 -0.939141 1.70895 0
M  V30 11770 O 1076.9 -1.66153 1.03778 0
M  V30 11771 H 1075.48 0.188072 0.722937 0
M  V30 11772 H 1078.14 1.13958 1.58113 0
M  V30 11773 H 1077.23 0.694819 3.04267 0
M  V30 11774 N 1077.53 -1.43282 0.656365 0
M  V30 11775 C 1078.77 -2.03652 0.174681 0
M  V30 11776 C 1079.14 -1.5068 -1.18994 0
M  V30 11777 O 1080.34 -2.02716 -1.76521 0
M  V30 11778 C 1078.61 -3.56906 0.18778 0
M  V30 11779 S 1080.17 -4.3822 -0.225599 0
M  V30 11780 H 1076.99 -0.70719 0.0735029 0
M  V30 11781 H 1079.59 -1.75303 0.865403 0
M  V30 11782 H 1078.29 -3.92961 1.18363 0
M  V30 11783 H 1077.82 -3.89903 -0.523378 0
M  V30 11784 H 1079.84 -4.74121 -1.46369 0
M  V30 11785 N 1079.01 -0.398486 -1.52479 0
M  V30 11786 C 1079.95 0.467426 -2.24383 0
M  V30 11787 C 1080.96 1.01908 -1.26959 0
M  V30 11788 O 1082.15 0.919843 -1.52974 0
M  V30 11789 C 1079.25 1.66146 -2.95379 0
M  V30 11790 C 1078.42 1.23557 -4.19586 0
M  V30 11791 C 1077.48 2.29532 -4.73499 0
M  V30 11792 O 1076.51 1.90561 -5.36354 0
M  V30 11793 N 1077.71 3.61564 -4.5415 0
M  V30 11794 H 1080.47 -0.148653 -2.99331 0
M  V30 11795 H 1078.03 -0.225313 -1.60325 0
M  V30 11796 H 1080.03 2.36585 -3.28344 0
M  V30 11797 H 1078.6 2.18369 -2.23682 0
M  V30 11798 H 1077.82 0.359715 -3.92555 0
M  V30 11799 H 1079.1 0.927812 -5.00269 0
M  V30 11800 H 1078.5 3.95983 -4.03998 0
M  V30 11801 H 1077.06 4.2801 -4.9158 0
M  V30 11802 N 1080.49 1.57075 -0.12858 0
M  V30 11803 C 1081.42 2.18833 0.814519 0
M  V30 11804 C 1082.4 1.13114 1.2704 0
M  V30 11805 O 1083.59 1.41387 1.33129 0
M  V30 11806 C 1080.72 2.79535 2.06101 0
M  V30 11807 C 1079.67 3.9092 1.74257 0
M  V30 11808 C 1079 4.38473 3.06015 0
M  V30 11809 C 1080.3 5.1257 1.00345 0
M  V30 11810 H 1081.99 2.97895 0.299862 0
M  V30 11811 H 1079.54 1.4329 0.14279 0
M  V30 11812 H 1081.49 3.21401 2.72543 0
M  V30 11813 H 1080.21 1.97777 2.59907 0
M  V30 11814 H 1078.87 3.49645 1.102 0
M  V30 11815 H 1078.52 3.53561 3.57776 0
M  V30 11816 H 1078.22 5.13591 2.85479 0
M  V30 11817 H 1079.75 4.82997 3.7356 0
M  V30 11818 H 1081.16 5.51395 1.56959 0
M  V30 11819 H 1079.56 5.93333 0.898693 0
M  V30 11820 H 1080.63 4.84899 -0.0081335 0
M  V30 11821 N 1081.97 -0.145205 1.5693 0
M  V30 11822 C 1082.88 -1.19864 2.01667 0
M  V30 11823 C 1083.9 -1.46909 0.932402 0
M  V30 11824 O 1085.07 -1.58543 1.24201 0
M  V30 11825 C 1082.14 -2.51174 2.38982 0
M  V30 11826 C 1081.2 -2.3176 3.61366 0
M  V30 11827 C 1080.43 -3.56809 3.96892 0
M  V30 11828 O 1080.65 -4.63063 3.33059 0
M  V30 11829 O 1079.59 -3.49366 4.9013 0
M  V30 11830 H 1083.41 -0.848821 2.91597 0
M  V30 11831 H 1081 -0.354063 1.45144 0
M  V30 11832 H 1082.88 -3.28587 2.63835 0
M  V30 11833 H 1081.56 -2.85683 1.52207 0
M  V30 11834 H 1080.46 -1.52293 3.41698 0
M  V30 11835 H 1081.8 -2.02167 4.48764 0
M  V30 11836 N 1083.45 -1.52049 -0.414609 0
M  V30 11837 C 1084.36 -1.7788 -1.52958 0
M  V30 11838 C 1085.37 -0.66408 -1.60829 0
M  V30 11839 O 1086.55 -0.948882 -1.77646 0
M  V30 11840 C 1083.61 -1.91906 -2.88744 0
M  V30 11841 C 1082.68 -3.15803 -2.90804 0
M  V30 11842 C 1081.91 -3.29151 -4.20114 0
M  V30 11843 O 1082.13 -2.47892 -5.13718 0
M  V30 11844 O 1081.07 -4.2227 -4.28919 0
M  V30 11845 H 1084.89 -2.72506 -1.34067 0
M  V30 11846 H 1082.48 -1.36826 -0.599918 0
M  V30 11847 H 1084.36 -2.02986 -3.6929 0
M  V30 11848 H 1083.03 -1.00468 -3.07714 0
M  V30 11849 H 1081.94 -3.10185 -2.09131 0
M  V30 11850 H 1083.27 -4.07004 -2.76783 0
M  V30 11851 N 1084.93 0.6715 -1.42579 0
M  V30 11852 C 1086.34 1.2522 -1.38481 0
M  V30 11853 C 1086.69 1.96038 -0.079719 0
M  V30 11854 O 1085.81 2.00203 0.821441 0
M  V30 11855 C 1086.41 2.27736 -2.50842 0
M  V30 11856 C 1084.97 2.81325 -2.50067 0
M  V30 11857 C 1084.11 1.55694 -2.29466 0
M  V30 11858 H 1087.06 0.464673 -1.51745 0
M  V30 11859 H 1087.09 3.09539 -2.21283 0
M  V30 11860 H 1086.6 1.76164 -3.45815 0
M  V30 11861 H 1084.7 3.37008 -1.58922 0
M  V30 11862 H 1084.81 3.30116 -3.47218 0
M  V30 11863 H 1083.18 1.82383 -1.77788 0
M  V30 11864 H 1083.96 1.06084 -3.26498 0
M  V30 11865 N 1086.4 1.28806 0.908124 0
M  V30 11866 C 1087.63 1.1898 1.689 0
M  V30 11867 C 1088.04 -0.253334 1.87496 0
M  V30 11868 O 1087.38 -1.18245 1.40584 0
M  V30 11869 C 1087.45 1.82266 3.0987 0
M  V30 11870 C 1087.11 3.31534 3.14538 0
M  V30 11871 C 1088.11 4.27886 2.95313 0
M  V30 11872 C 1085.79 3.72589 3.36872 0
M  V30 11873 C 1087.79 5.63267 2.98343 0
M  V30 11874 C 1085.47 5.08095 3.39534 0
M  V30 11875 C 1086.47 6.03244 3.2029 0
M  V30 11876 O 1086.16 7.36277 3.22724 0
M  V30 11877 H 1085.89 0.413772 0.534574 0
M  V30 11878 H 1088.45 1.7055 1.14464 0
M  V30 11879 H 1086.68 1.25197 3.65872 0
M  V30 11880 H 1088.36 1.6688 3.70008 0
M  V30 11881 H 1089.13 3.97502 2.77879 0
M  V30 11882 H 1085.01 2.98989 3.50894 0
M  V30 11883 H 1088.55 6.37511 2.83241 0
M  V30 11884 H 1084.45 5.38126 3.56497 0
M  V30 11885 H 1085.22 7.44976 3.39048 0
M  V30 11886 N 1087.88 -1.11734 1.11145 0
M  V30 11887 C 1089.11 -1.86943 0.879534 0
M  V30 11888 C 1089.52 -1.80283 -0.574007 0
M  V30 11889 O 1088.86 -1.17998 -1.40791 0
M  V30 11890 C 1088.92 -3.36738 1.25887 0
M  V30 11891 C 1088.59 -3.67169 2.72095 0
M  V30 11892 C 1089.59 -3.6491 3.7032 0
M  V30 11893 C 1087.27 -3.96272 3.08665 0
M  V30 11894 C 1089.26 -3.91325 5.03134 0
M  V30 11895 C 1086.95 -4.22345 4.41665 0
M  V30 11896 C 1087.95 -4.19859 5.38709 0
M  V30 11897 O 1087.64 -4.4528 6.69314 0
M  V30 11898 H 1087.37 -0.598117 0.315011 0
M  V30 11899 H 1089.92 -1.42253 1.48166 0
M  V30 11900 H 1088.15 -3.82019 0.599873 0
M  V30 11901 H 1089.84 -3.93306 1.00325 0
M  V30 11902 H 1090.61 -3.42481 3.43412 0
M  V30 11903 H 1086.49 -3.97344 2.33749 0
M  V30 11904 H 1090.03 -3.893 5.78871 0
M  V30 11905 H 1085.93 -4.4425 4.68308 0
M  V30 11906 H 1086.7 -4.62863 6.75056 0
M  V30 11907 N 1089.36 -0.901303 -1.29284 0
M  V30 11908 C 1090.78 -0.597634 -1.47988 0
M  V30 11909 C 1090.98 0.860434 -1.82205 0
M  V30 11910 O 1090.03 1.64049 -1.91948 0
M  V30 11911 C 1091.34 -1.52484 -2.5917 0
M  V30 11912 C 1092.89 -1.53021 -2.73045 0
M  V30 11913 C 1093.37 -2.44373 -3.87357 0
M  V30 11914 N 1094.86 -2.42429 -3.94693 0
M  V30 11915 C 1095.59 -3.09817 -4.82495 0
M  V30 11916 N 1095.09 -3.86489 -5.74976 0
M  V30 11917 N 1096.88 -2.98966 -4.76 0
M  V30 11918 H 1089.03 -1.84432 -1.0535 0
M  V30 11919 H 1091.3 -0.790367 -0.523473 0
M  V30 11920 H 1091 -2.56378 -2.40756 0
M  V30 11921 H 1090.88 -1.24657 -3.56006 0
M  V30 11922 H 1093.26 -0.498709 -2.90855 0
M  V30 11923 H 1093.34 -1.84886 -1.76779 0
M  V30 11924 H 1092.99 -3.47618 -3.70302 0
M  V30 11925 H 1092.92 -2.09817 -4.82995 0
M  V30 11926 H 1095.41 -1.86724 -3.28546 0
M  V30 11927 H 1095.72 -4.34959 -6.38773 0
M  V30 11928 H 1094.07 -3.90596 -5.74857 0
M  V30 11929 H 1097.26 -2.38581 -4.02737 0
M  V30 11930 H 1097.43 -3.51758 -5.44215 0
M  V30 11931 N 1090.84 1.42931 -0.663954 0
M  V30 11932 C 1092.06 2.06544 -0.188201 0
M  V30 11933 C 1092.49 1.495 1.14155 0
M  V30 11934 O 1091.85 0.609164 1.7076 0
M  V30 11935 C 1091.89 3.60393 -0.122105 0
M  V30 11936 O 1091 4.02176 0.91258 0
M  V30 11937 H 1090.34 0.656458 -0.0997967 0
M  V30 11938 H 1092.87 1.83253 -0.909909 0
M  V30 11939 H 1092.88 4.07959 0.0576568 0
M  V30 11940 H 1091.55 4.01287 -1.09276 0
M  V30 11941 H 1090.13 3.6618 0.704738 0
M  V30 11942 N 1092.32 0.406567 1.52266 0
M  V30 11943 C 1093.56 -0.170305 2.02084 0
M  V30 11944 C 1093.89 -1.45008 1.29176 0
M  V30 11945 O 1093.17 -1.90399 0.39731 0
M  V30 11946 C 1093.45 -0.420627 3.57635 0
M  V30 11947 C 1093.31 0.87564 4.41194 0
M  V30 11948 C 1094.62 -1.20387 4.23314 0
M  V30 11949 H 1091.74 -0.0604219 0.734519 0
M  V30 11950 H 1094.39 0.539529 1.82179 0
M  V30 11951 H 1092.54 -1.0253 3.74726 0
M  V30 11952 H 1094.21 1.51192 4.35819 0
M  V30 11953 H 1092.45 1.48718 4.07511 0
M  V30 11954 H 1093.12 0.654916 5.48101 0
M  V30 11955 H 1095.6 -0.691972 4.10306 0
M  V30 11956 H 1094.47 -1.34776 5.32096 0
M  V30 11957 H 1094.73 -2.2238 3.82099 0
M  V30 11958 N 1093.79 -1.57004 0.136909 0
M  V30 11959 C 1095.04 -1.94972 -0.51662 0
M  V30 11960 C 1095.36 -1.02367 -1.66674 0
M  V30 11961 O 1096.56 -1.29873 -2.38423 0
M  V30 11962 C 1095.02 -3.4657 -0.970435 0
M  V30 11963 C 1094.63 -4.47741 0.152204 0
M  V30 11964 C 1096.37 -3.93423 -1.59432 0
M  V30 11965 C 1094.28 -5.90537 -0.319315 0
M  V30 11966 H 1093.21 -0.727873 -0.196766 0
M  V30 11967 H 1095.86 -1.82181 0.219637 0
M  V30 11968 H 1094.24 -3.54657 -1.76165 0
M  V30 11969 H 1095.41 -4.5134 0.928925 0
M  V30 11970 H 1093.73 -4.10746 0.683867 0
M  V30 11971 H 1096.33 -4.97539 -1.95856 0
M  V30 11972 H 1096.67 -3.34404 -2.47951 0
M  V30 11973 H 1097.2 -3.8821 -0.868193 0
M  V30 11974 H 1093.94 -6.53352 0.530248 0
M  V30 11975 H 1093.46 -5.90321 -1.06213 0
M  V30 11976 H 1095.14 -6.42346 -0.774662 0
M  V30 11977 N 1095.27 0.136881 -1.57004 0
M  V30 11978 C 1096.2 1.19402 -1.95642 0
M  V30 11979 C 1097.22 1.38635 -0.853478 0
M  V30 11980 O 1098.41 1.38027 -1.13185 0
M  V30 11981 C 1095.51 2.55716 -2.22402 0
M  V30 11982 C 1094.68 2.57325 -3.53698 0
M  V30 11983 C 1093.74 3.75253 -3.68879 0
M  V30 11984 O 1092.76 3.5966 -4.41173 0
M  V30 11985 N 1093.97 4.93112 -3.06302 0
M  V30 11986 H 1096.73 0.865504 -2.8693 0
M  V30 11987 H 1094.29 0.326346 -1.58577 0
M  V30 11988 H 1096.28 3.33135 -2.29789 0
M  V30 11989 H 1094.85 2.80819 -1.37329 0
M  V30 11990 H 1094.07 1.65749 -3.5766 0
M  V30 11991 H 1095.36 2.55441 -4.40031 0
M  V30 11992 H 1094.76 5.08684 -2.47502 0
M  V30 11993 H 1093.32 5.68271 -3.19236 0
M  V30 11994 N 1096.75 1.52266 0.40654 0
M  V30 11995 C 1097.71 1.75168 1.47814 0
M  V30 11996 C 1098.71 0.621575 1.48301 0
M  V30 11997 O 1099.9 0.889476 1.4978 0
M  V30 11998 C 1097.04 1.83642 2.87208 0
M  V30 11999 H 1098.23 2.70834 1.28798 0
M  V30 12000 H 1095.78 1.42722 0.637196 0
M  V30 12001 H 1096.52 0.898994 3.1159 0
M  V30 12002 H 1096.3 2.65801 2.88257 0
M  V30 12003 H 1097.79 2.03093 3.64888 0
M  V30 12004 N 1098.23 -0.663929 1.42933 0
M  V30 12005 C 1099.47 -1.43583 1.45476 0
M  V30 12006 C 1099.83 -1.91862 0.0728387 0
M  V30 12007 O 1101.03 -2.68786 -0.0270249 0
M  V30 12008 C 1099.3 -2.59316 2.45947 0
M  V30 12009 S 1100.86 -3.48004 2.6728 0
M  V30 12010 H 1097.68 -0.490261 0.514942 0
M  V30 12011 H 1100.28 -0.771834 1.79619 0
M  V30 12012 H 1098.99 -2.22104 3.45106 0
M  V30 12013 H 1098.52 -3.30577 2.13266 0
M  V30 12014 H 1100.53 -4.55677 1.96399 0
M  V30 12015 N 1099.71 -1.29285 -0.901281 0
M  V30 12016 C 1100.67 -1.14283 -1.98676 0
M  V30 12017 C 1101.67 -0.0787641 -1.60607 0
M  V30 12018 O 1102.86 -0.325574 -1.71131 0
M  V30 12019 C 1099.99 -0.747279 -3.32609 0
M  V30 12020 H 1101.18 -2.10701 -2.13413 0
M  V30 12021 H 1098.74 -1.12449 -1.08558 0
M  V30 12022 H 1099.47 0.217111 -3.23572 0
M  V30 12023 H 1099.26 -1.51608 -3.61604 0
M  V30 12024 H 1100.75 -0.665322 -4.12266 0
M  V30 12025 N 1101.18 1.11143 -1.11736 0
M  V30 12026 C 1102.11 2.19339 -0.800795 0
M  V30 12027 C 1103.1 1.68508 0.23221 0
M  V30 12028 O 1104.28 1.93967 0.0950063 0
M  V30 12029 C 1101.41 3.46424 -0.246579 0
M  V30 12030 C 1100.36 4.10487 -1.21181 0
M  V30 12031 C 1099.69 5.32183 -0.518158 0
M  V30 12032 C 1100.99 4.55052 -2.56368 0
M  V30 12033 H 1102.68 2.46077 -1.70548 0
M  V30 12034 H 1100.23 1.18271 -0.821454 0
M  V30 12035 H 1102.18 4.21398 -0.0128889 0
M  V30 12036 H 1100.91 3.19154 0.693415 0
M  V30 12037 H 1099.57 3.3751 -1.43118 0
M  V30 12038 H 1099.21 5.01187 0.426742 0
M  V30 12039 H 1098.91 5.75997 -1.16196 0
M  V30 12040 H 1100.44 6.09895 -0.293333 0
M  V30 12041 H 1101.85 5.21335 -2.38501 0
M  V30 12042 H 1100.25 5.0969 -3.16758 0
M  V30 12043 H 1101.32 3.68343 -3.1536 0
M  V30 12044 N 1102.66 0.908147 1.28804 0
M  V30 12045 C 1103.59 0.409106 2.29888 0
M  V30 12046 C 1104.57 -0.520338 1.61946 0
M  V30 12047 O 1105.76 -0.429268 1.89396 0
M  V30 12048 C 1102.89 -0.35669 3.45463 0
M  V30 12049 C 1101.84 0.4831 4.25265 0
M  V30 12050 C 1101.17 -0.4107 5.3312 0
M  V30 12051 C 1102.47 1.73744 4.92555 0
M  V30 12052 H 1104.16 1.25386 2.7188 0
M  V30 12053 H 1101.71 0.604368 1.30703 0
M  V30 12054 H 1103.66 -0.71661 4.15262 0
M  V30 12055 H 1102.39 -1.2353 3.02337 0
M  V30 12056 H 1101.04 0.825464 3.57186 0
M  V30 12057 H 1100.69 -1.28769 4.86238 0
M  V30 12058 H 1100.39 0.14756 5.87415 0
M  V30 12059 H 1101.92 -0.766626 6.05768 0
M  V30 12060 H 1103.33 1.44676 5.54745 0
M  V30 12061 H 1101.73 2.23767 5.5682 0
M  V30 12062 H 1102.8 2.46853 4.17363 0
M  V30 12063 N 1104.14 -1.42577 0.671525 0
M  V30 12064 C 1105.55 -1.84736 0.270084 0
M  V30 12065 C 1105.9 -1.56212 -1.18711 0
M  V30 12066 O 1105.03 -1.02028 -1.90838 0
M  V30 12067 C 1105.62 -3.35334 0.483409 0
M  V30 12068 C 1104.18 -3.76154 0.136119 0
M  V30 12069 C 1103.33 -2.66179 0.777444 0
M  V30 12070 H 1106.28 -1.3247 0.873919 0
M  V30 12071 H 1106.3 -3.79573 -0.265483 0
M  V30 12072 H 1105.81 -3.56063 1.54405 0
M  V30 12073 H 1103.91 -3.61033 -0.921209 0
M  V30 12074 H 1104.03 -4.75645 0.574356 0
M  V30 12075 H 1102.39 -2.53841 0.209055 0
M  V30 12076 H 1103.17 -2.89732 1.84148 0
M  V30 12077 N 1105.62 -0.414636 -1.52048 0
M  V30 12078 C 1106.9 0.218172 -1.94379 0
M  V30 12079 C 1107.28 1.62133 -1.35189 0
M  V30 12080 O 1106.62 2.22271 -0.529877 0
M  V30 12081 C 1106.83 0.218932 -3.48313 0
M  V30 12082 C 1108.18 0.435604 -4.2236 0
M  V30 12083 O 1109.21 0.298049 -3.54951 0
M  V30 12084 O 1108.06 0.707217 -5.41905 0
M  V30 12085 H 1105.16 0.142173 -0.814688 0
M  V30 12086 H 1107.7 -0.470977 -1.63033 0
M  V30 12087 H 1106.48 -0.76292 -3.83791 0
M  V30 12088 H 1106.1 0.951949 -3.86036 0
M  V30 12089 N 1107.1 1.56929 -0.145233 0
M  V30 12090 C 1108.03 2.19685 0.791263 0
M  V30 12091 C 1109.01 1.14455 1.25833 0
M  V30 12092 O 1110.19 1.42791 1.31622 0
M  V30 12093 C 1107.32 2.81705 2.03124 0
M  V30 12094 C 1106.28 3.92746 1.70101 0
M  V30 12095 C 1105.6 4.41694 3.01347 0
M  V30 12096 C 1106.9 5.13606 0.949025 0
M  V30 12097 H 1108.6 2.98196 0.26825 0
M  V30 12098 H 1106.14 1.43434 0.127584 0
M  V30 12099 H 1108.1 3.24273 2.69119 0
M  V30 12100 H 1106.82 2.00523 2.57795 0
M  V30 12101 H 1105.48 3.50794 1.06486 0
M  V30 12102 H 1105.13 3.57336 3.54006 0
M  V30 12103 H 1104.83 5.1659 2.80016 0
M  V30 12104 H 1106.35 4.86931 3.68416 0
M  V30 12105 H 1107.76 5.53029 1.51102 0
M  V30 12106 H 1106.16 5.94252 0.835711 0
M  V30 12107 H 1107.23 4.84863 -0.0595631 0
M  V30 12108 N 1108.58 -0.128553 1.57075 0
M  V30 12109 C 1109.49 -1.17718 2.02927 0
M  V30 12110 C 1110.5 -1.45912 0.947932 0
M  V30 12111 O 1111.68 -1.57217 1.25876 0
M  V30 12112 C 1108.74 -2.48625 2.41633 0
M  V30 12113 C 1107.8 -2.27914 3.63804 0
M  V30 12114 C 1107.04 -3.52579 4.00654 0
M  V30 12115 O 1107.26 -4.59505 3.37952 0
M  V30 12116 O 1106.19 -3.44147 4.93808 0
M  V30 12117 H 1110.02 -0.817846 2.92481 0
M  V30 12118 H 1107.6 -0.338649 1.45511 0
M  V30 12119 H 1109.49 -3.2577 2.67305 0
M  V30 12120 H 1108.16 -2.84052 1.55229 0
M  V30 12121 H 1107.07 -1.4866 3.43294 0
M  V30 12122 H 1108.4 -1.97395 4.50883 0
M  V30 12123 N 1110.05 -1.5248 -0.398459 0
M  V30 12124 C 1111.3 -1.66287 -1.14155 0
M  V30 12125 C 1111.62 -0.40429 -1.91376 0
M  V30 12126 O 1112.82 -0.422341 -2.68195 0
M  V30 12127 C 1111.28 -2.93831 -2.07825 0
M  V30 12128 C 1110.89 -4.26836 -1.3607 0
M  V30 12129 C 1112.63 -3.17004 -2.82327 0
M  V30 12130 C 1110.54 -5.45495 -2.28451 0
M  V30 12131 H 1109.47 -0.619478 -0.42984 0
M  V30 12132 H 1112.12 -1.78972 -0.405112 0
M  V30 12133 H 1110.5 -2.7487 -2.85065 0
M  V30 12134 H 1111.67 -4.56317 -0.641205 0
M  V30 12135 H 1109.99 -4.0985 -0.735659 0
M  V30 12136 H 1112.59 -4.02834 -3.51609 0
M  V30 12137 H 1112.93 -2.3168 -3.45876 0
M  V30 12138 H 1113.46 -3.36487 -2.12183 0
M  V30 12139 H 1110.2 -6.33198 -1.69532 0
M  V30 12140 H 1109.72 -5.20338 -2.98343 0
M  V30 12141 H 1111.4 -5.78996 -2.88743 0
M  V30 12142 N 1111.53 0.65634 -1.43283 0
M  V30 12143 C 1112.46 1.78101 -1.51004 0
M  V30 12144 C 1113.44 1.66138 -0.36498 0
M  V30 12145 O 1114.63 1.85281 -0.581778 0
M  V30 12146 C 1111.76 3.16511 -1.42961 0
M  V30 12147 C 1110.71 3.43233 -2.55685 0
M  V30 12148 C 1110.04 4.81411 -2.32696 0
M  V30 12149 C 1111.34 3.38288 -3.97943 0
M  V30 12150 H 1113.03 1.71896 -2.45137 0
M  V30 12151 H 1110.58 0.825575 -1.17984 0
M  V30 12152 H 1112.53 3.94941 -1.46968 0
M  V30 12153 H 1111.25 3.23439 -0.45332 0
M  V30 12154 H 1109.91 2.67173 -2.51026 0
M  V30 12155 H 1109.56 4.85011 -1.33317 0
M  V30 12156 H 1109.26 5.00251 -3.08257 0
M  V30 12157 H 1110.79 5.62102 -2.38481 0
M  V30 12158 H 1112.2 4.06659 -4.04106 0
M  V30 12159 H 1110.6 3.68664 -4.73505 0
M  V30 12160 H 1111.67 2.36525 -4.23301 0
M  V30 12161 N 1113.01 1.29761 0.894412 0
M  V30 12162 C 1114.42 1.16275 1.46072 0
M  V30 12163 C 1114.77 -0.240123 1.94725 0
M  V30 12164 O 1113.9 -1.13606 1.84181 0
M  V30 12165 C 1114.49 2.10471 2.65494 0
M  V30 12166 C 1113.05 2.00992 3.18244 0
M  V30 12167 C 1112.2 2.01094 1.90936 0
M  V30 12168 H 1115.15 1.42169 0.705243 0
M  V30 12169 H 1115.17 1.68003 3.41402 0
M  V30 12170 H 1114.68 3.12566 2.30053 0
M  V30 12171 H 1112.78 1.02005 3.58365 0
M  V30 12172 H 1112.9 2.88916 3.82184 0
M  V30 12173 H 1111.26 1.45764 2.08866 0
M  V30 12174 H 1112.04 3.04902 1.57764 0
M  V30 12175 N 1114.49 -1.10549 1.12324 0
M  V30 12176 C 1115.71 -1.8681 0.900927 0
M  V30 12177 C 1116.14 -1.80049 -0.54443 0
M  V30 12178 O 1115.5 -1.16957 -1.38531 0
M  V30 12179 C 1115.54 -3.33197 1.37883 0
M  V30 12180 O 1114.65 -4.08628 0.556529 0
M  V30 12181 H 1113.99 -0.579709 0.32378 0
M  V30 12182 H 1116.52 -1.39678 1.49503 0
M  V30 12183 H 1116.53 -3.84047 1.37739 0
M  V30 12184 H 1115.2 -3.37435 2.43127 0
M  V30 12185 H 1113.78 -3.67627 0.62486 0
M  V30 12186 N 1115.97 -0.914965 -1.28321 0
M  V30 12187 C 1117.21 -0.547665 -1.94538 0
M  V30 12188 C 1117.53 0.911834 -1.72368 0
M  V30 12189 O 1116.8 1.64481 -1.06408 0
M  V30 12190 H 1115.38 -0.199549 -0.719853 0
M  V30 12191 H 1118.05 -1.16459 -1.5628 0
M  V30 12192 H 1117.14 -0.743138 -3.03124 0
M  V30 12193 N 1117.44 1.42219 -0.679077 0
M  V30 12194 C 1118.72 1.95155 -0.13188 0
M  V30 12195 C 1119.1 1.6193 1.35433 0
M  V30 12196 O 1118.45 0.917672 2.09263 0
M  V30 12197 C 1118.66 3.46635 -0.405578 0
M  V30 12198 C 1120.01 4.23359 -0.324394 0
M  V30 12199 O 1121.03 3.54578 -0.339564 0
M  V30 12200 O 1119.89 5.45831 -0.270268 0
M  V30 12201 H 1116.98 0.826983 -0.00535438 0
M  V30 12202 H 1119.53 1.52024 -0.754101 0
M  V30 12203 H 1118.3 3.6404 -1.43495 0
M  V30 12204 H 1117.92 3.96823 0.248439 0
M  V30 12205 N 1118.92 0.422693 1.51826 0
M  V30 12206 C 1120.34 0.0742364 1.59427 0
M  V30 12207 C 1120.54 -1.41491 1.43466 0
M  V30 12208 O 1119.59 -2.18326 1.26846 0
M  V30 12209 C 1120.91 0.581272 2.95028 0
M  V30 12210 C 1122.45 0.54043 3.08299 0
M  V30 12211 C 1122.93 1.0242 4.46401 0
M  V30 12212 N 1124.42 0.981576 4.5268 0
M  V30 12213 C 1125.16 1.32693 5.57835 0
M  V30 12214 N 1124.65 1.74441 6.70479 0
M  V30 12215 N 1126.44 1.24603 5.48115 0
M  V30 12216 H 1118.6 1.39178 1.60447 0
M  V30 12217 H 1120.86 0.572607 0.75553 0
M  V30 12218 H 1120.56 1.62261 3.12032 0
M  V30 12219 H 1120.44 -0.00176969 3.772 0
M  V30 12220 H 1122.83 -0.491895 2.90971 0
M  V30 12221 H 1122.91 1.15969 2.28002 0
M  V30 12222 H 1122.55 2.05491 4.64474 0
M  V30 12223 H 1122.48 0.381613 5.25215 0
M  V30 12224 H 1124.97 0.674808 3.71826 0
M  V30 12225 H 1125.28 1.99068 7.46721 0
M  V30 12226 H 1123.63 1.78356 6.71725 0
M  V30 12227 H 1126.82 0.918641 4.58997 0
M  V30 12228 H 1126.99 1.51847 6.29958 0
M  V30 12229 N 1120.4 -1.5685 0.153553 0
M  V30 12230 C 1121.63 -2.00701 -0.502678 0
M  V30 12231 C 1122.04 -1.0337 -1.57988 0
M  V30 12232 O 1121.4 -0.0317233 -1.82472 0
M  V30 12233 C 1121.45 -3.44443 -1.09732 0
M  V30 12234 O 1121.17 -4.38054 -0.0631405 0
M  V30 12235 C 1122.67 -4.03605 -1.83352 0
M  V30 12236 H 1119.89 -0.658229 -0.130289 0
M  V30 12237 H 1122.44 -2.02965 0.250063 0
M  V30 12238 H 1120.59 -3.43009 -1.80065 0
M  V30 12239 H 1121.01 -5.22114 -0.499681 0
M  V30 12240 H 1122.48 -5.0616 -2.20241 0
M  V30 12241 H 1122.96 -3.44687 -2.7219 0
M  V30 12242 H 1123.56 -4.08688 -1.17703 0
M  V30 12243 N 1121.88 0.120221 -1.57141 0
M  V30 12244 C 1122.79 1.16641 -2.03549 0
M  V30 12245 C 1123.8 1.45407 -0.955656 0
M  V30 12246 O 1124.98 1.56547 -1.26708 0
M  V30 12247 C 1122.04 2.4734 -2.42948 0
M  V30 12248 C 1121.11 2.25982 -3.65008 0
M  V30 12249 C 1120.34 3.50449 -4.02518 0
M  V30 12250 O 1120.56 4.57706 -3.40384 0
M  V30 12251 O 1119.5 3.41524 -4.95626 0
M  V30 12252 H 1123.32 0.802323 -2.9291 0
M  V30 12253 H 1120.91 0.330927 -1.45689 0
M  V30 12254 H 1122.79 3.24348 -2.69029 0
M  V30 12255 H 1121.46 2.83225 -1.56733 0
M  V30 12256 H 1120.37 1.46837 -3.44078 0
M  V30 12257 H 1121.7 1.95002 -4.51924 0
M  V30 12258 N 1123.36 1.52689 0.390367 0
M  V30 12259 C 1124.61 1.6689 1.13272 0
M  V30 12260 C 1124.92 0.414433 1.91159 0
M  V30 12261 O 1126.12 0.436559 2.67967 0
M  V30 12262 C 1124.58 2.94929 2.06264 0
M  V30 12263 C 1124.19 4.27551 1.33805 0
M  V30 12264 C 1125.93 3.18497 2.80642 0
M  V30 12265 C 1123.84 5.46698 2.25554 0
M  V30 12266 H 1122.77 0.621749 0.426549 0
M  V30 12267 H 1125.42 1.79185 0.395615 0
M  V30 12268 H 1123.8 2.76378 2.83604 0
M  V30 12269 H 1124.98 4.56651 0.616997 0
M  V30 12270 H 1123.29 4.10234 0.713913 0
M  V30 12271 H 1125.89 4.04693 3.49467 0
M  V30 12272 H 1126.23 2.33511 3.44642 0
M  V30 12273 H 1126.76 3.37607 2.10395 0
M  V30 12274 H 1123.5 6.34088 1.66171 0
M  V30 12275 H 1123.02 5.21913 2.95579 0
M  V30 12276 H 1124.7 5.80519 2.85668 0
M  V30 12277 N 1124.83 -0.648732 1.43629 0
M  V30 12278 C 1126.08 -1.40579 1.45196 0
M  V30 12279 C 1126.4 -1.9484 0.0790556 0
M  V30 12280 O 1125.67 -1.74707 -0.886239 0
M  V30 12281 H 1124.25 -0.52175 0.53459 0
M  V30 12282 H 1126.92 -0.764796 1.79268 0
M  V30 12283 H 1126.01 -2.24591 2.16715 0
M  V30 12284 N 1126.31 -1.30234 -0.887518 0
M  V30 12285 C 1127.22 -1.18316 -2.02579 0
M  V30 12286 C 1128.24 -0.103658 -1.73691 0
M  V30 12287 O 1129.41 -0.3181 -1.98872 0
M  V30 12288 C 1126.48 -0.873222 -3.35523 0
M  V30 12289 C 1125.54 -2.03783 -3.7785 0
M  V30 12290 C 1124.77 -1.74258 -5.0445 0
M  V30 12291 O 1125 -0.669295 -5.6646 0
M  V30 12292 O 1123.93 -2.59423 -5.43124 0
M  V30 12293 H 1127.76 -2.13933 -2.15561 0
M  V30 12294 H 1125.34 -1.09803 -1.0131 0
M  V30 12295 H 1127.22 -0.715463 -4.15282 0
M  V30 12296 H 1125.9 0.053056 -3.23657 0
M  V30 12297 H 1124.81 -2.2509 -2.98806 0
M  V30 12298 H 1126.14 -2.94574 -3.94318 0
M  V30 12299 N 1127.79 1.09952 -1.12909 0
M  V30 12300 C 1128.74 2.16436 -0.801514 0
M  V30 12301 C 1129.71 1.64444 0.233976 0
M  V30 12302 O 1130.89 1.90497 0.10743 0
M  V30 12303 C 1128.03 3.4406 -0.267753 0
M  V30 12304 C 1127.15 4.09979 -1.36165 0
M  V30 12305 C 1126.28 5.25341 -0.786803 0
M  V30 12306 C 1125.32 5.83172 -1.85948 0
M  V30 12307 N 1124.46 6.89904 -1.30298 0
M  V30 12308 H 1129.3 2.43799 -1.71365 0
M  V30 12309 H 1126.83 1.19665 -0.855499 0
M  V30 12310 H 1128.79 4.17157 0.0598031 0
M  V30 12311 H 1127.42 3.17031 0.607528 0
M  V30 12312 H 1126.47 3.34801 -1.8059 0
M  V30 12313 H 1127.79 4.48999 -2.17259 0
M  V30 12314 H 1126.94 6.05312 -0.410211 0
M  V30 12315 H 1125.68 4.87669 0.055279 0
M  V30 12316 H 1124.68 5.01867 -2.24521 0
M  V30 12317 H 1125.91 6.22907 -2.70487 0
M  V30 12318 H 1123.85 6.54221 -0.482806 0
M  V30 12319 H 1123.77 7.27662 -2.05046 0
M  V30 12320 H 1125.04 7.73643 -0.953779 0
M  V30 12321 N 1129.27 0.921757 1.27833 0
M  V30 12322 C 1130.52 0.557974 1.94245 0
M  V30 12323 C 1130.84 -0.90268 1.72849 0
M  V30 12324 O 1130.11 -1.63915 1.07279 0
M  V30 12325 H 1128.69 0.203364 0.718785 0
M  V30 12326 H 1131.35 1.17286 1.5566 0
M  V30 12327 H 1130.45 0.759202 3.02725 0
M  V30 12328 N 1130.75 -1.41857 0.686609 0
M  V30 12329 C 1131.99 -2.01666 0.214118 0
M  V30 12330 C 1132.33 -1.5422 -1.18025 0
M  V30 12331 O 1131.6 -0.749482 -1.7948 0
M  V30 12332 C 1131.88 -3.59147 0.261841 0
M  V30 12333 C 1131.74 -4.16742 1.69251 0
M  V30 12334 C 1133.06 -4.38427 -0.383378 0
M  V30 12335 H 1130.17 -0.732724 0.0792785 0
M  V30 12336 H 1132.82 -1.68724 0.873633 0
M  V30 12337 H 1130.97 -3.87342 -0.29971 0
M  V30 12338 H 1132.64 -3.99456 2.30722 0
M  V30 12339 H 1130.88 -3.72124 2.2295 0
M  V30 12340 H 1131.55 -5.25894 1.6775 0
M  V30 12341 H 1134.03 -4.15992 0.0947701 0
M  V30 12342 H 1132.9 -5.4797 -0.319401 0
M  V30 12343 H 1133.17 -4.172 -1.46276 0
M  V30 12344 N 1132.22 -0.430739 -1.51599 0
M  V30 12345 C 1133.17 0.398482 -2.29161 0
M  V30 12346 C 1134.17 1.02676 -1.34737 0
M  V30 12347 O 1135.37 0.96248 -1.52106 0
M  V30 12348 H 1131.75 0.14731 -0.737431 0
M  V30 12349 H 1133.72 -0.276619 -2.97115 0
M  V30 12350 C 1132.47 1.49094 -3.14112 0
M  V30 12351 H 1131.79 1.01685 -3.86652 0
M  V30 12352 H 1133.23 2.04453 -3.7145 0
M  V30 12353 C 1131.69 2.47049 -2.29059 0
M  V30 12354 O 1132.22 3.51435 -1.94567 0
M  V30 12355 N 1130.43 2.17778 -1.92409 0
M  V30 12356 H 1129.97 1.3292 -2.20658 0
M  V30 12357 H 1129.93 2.8356 -1.35798 0
M  V30 12358 N 1133.7 1.56767 -0.161869 0
M  V30 12359 C 1134.63 2.20511 0.767918 0
M  V30 12360 C 1135.61 1.15783 1.24612 0
M  V30 12361 O 1136.8 1.44179 1.301 0
M  V30 12362 C 1133.93 2.83844 2.00125 0
M  V30 12363 C 1132.88 3.94528 1.65926 0
M  V30 12364 C 1132.21 4.44866 2.96646 0
M  V30 12365 C 1133.51 5.14583 0.894497 0
M  V30 12366 H 1135.2 2.98464 0.236607 0
M  V30 12367 H 1132.75 1.43561 0.112363 0
M  V30 12368 H 1134.7 3.27109 2.65664 0
M  V30 12369 H 1133.43 2.03246 2.55654 0
M  V30 12370 H 1132.08 3.51904 1.02759 0
M  V30 12371 H 1131.73 3.61071 3.50196 0
M  V30 12372 H 1131.43 5.19531 2.74521 0
M  V30 12373 H 1132.96 4.90812 3.6323 0
M  V30 12374 H 1134.37 5.54601 1.45228 0
M  V30 12375 H 1132.77 5.95105 0.772636 0
M  V30 12376 H 1133.84 4.84773 -0.110986 0
M  V30 12377 N 1135.18 -0.111886 1.57202 0
M  V30 12378 C 1136.41 -0.836317 1.89791 0
M  V30 12379 C 1136.83 -1.72304 0.754513 0
M  V30 12380 O 1136.19 -1.78889 -0.294672 0
M  V30 12381 C 1136.24 -1.63971 3.21164 0
M  V30 12382 O 1135.34 -2.74726 3.0757 0
M  V30 12383 H 1134.68 -0.230833 0.622585 0
M  V30 12384 H 1137.21 -0.0921478 2.04392 0
M  V30 12385 H 1137.22 -2.02746 3.54059 0
M  V30 12386 H 1135.9 -0.98882 4.03974 0
M  V30 12387 H 1134.47 -2.39101 2.86156 0
M  V30 12388 N 1136.66 -1.52894 -0.382264 0
M  V30 12389 C 1137.91 -1.67933 -1.1244 0
M  V30 12390 C 1138.23 -0.425166 -1.90309 0
M  V30 12391 O 1137.5 0.560557 -1.87709 0
M  V30 12392 H 1136.08 -0.619047 -0.418079 0
M  V30 12393 H 1138.74 -1.90031 -0.432928 0
M  V30 12394 H 1137.84 -2.53285 -1.82355 0
M  V30 12395 N 1138.14 0.641106 -1.43971 0
M  V30 12396 C 1139.39 1.39807 -1.4594 0
M  V30 12397 C 1139.71 1.94795 -0.0893874 0
M  V30 12398 O 1138.98 1.75175 0.876962 0
M  V30 12399 H 1137.56 0.518908 -0.537349 0
M  V30 12400 H 1140.22 0.755278 -1.79671 0
M  V30 12401 H 1139.31 2.23439 -2.17903 0
M  V30 12402 N 1139.62 1.30703 0.880598 0
M  V30 12403 C 1140.55 1.1327 1.99255 0
M  V30 12404 C 1141.56 0.0747186 1.62628 0
M  V30 12405 O 1142.75 0.321169 1.75587 0
M  V30 12406 C 1139.85 0.706179 3.31461 0
M  V30 12407 C 1139.02 1.84687 3.96497 0
M  V30 12408 C 1138.08 1.40817 5.07008 0
M  V30 12409 O 1137.11 2.1161 5.28403 0
M  V30 12410 N 1138.31 0.289619 5.79777 0
M  V30 12411 H 1141.07 2.09043 2.14759 0
M  V30 12412 H 1138.64 1.22896 1.05395 0
M  V30 12413 H 1140.63 0.395617 4.02762 0
M  V30 12414 H 1139.2 -0.159631 3.12192 0
M  V30 12415 H 1138.42 2.32531 3.18312 0
M  V30 12416 H 1139.71 2.61117 4.36687 0
M  V30 12417 H 1139.1 -0.300177 5.64903 0
M  V30 12418 H 1137.66 0.0385346 6.51789 0
M  V30 12419 N 1141.09 -1.09351 1.1349 0
M  V30 12420 C 1142.04 -2.16008 0.812981 0
M  V30 12421 C 1143.01 -1.64566 -0.225252 0
M  V30 12422 O 1144.2 -1.90552 -0.0973261 0
M  V30 12423 C 1141.34 -3.43913 0.285996 0
M  V30 12424 C 1140.45 -4.09251 1.38338 0
M  V30 12425 C 1139.58 -5.24916 0.814652 0
M  V30 12426 C 1138.62 -5.82178 1.89038 0
M  V30 12427 N 1137.76 -6.89203 1.33955 0
M  V30 12428 H 1142.6 -2.42887 1.72655 0
M  V30 12429 H 1140.14 -1.19209 0.861833 0
M  V30 12430 H 1142.09 -4.17183 -0.0376794 0
M  V30 12431 H 1140.72 -3.17349 -0.590707 0
M  V30 12432 H 1139.78 -3.33838 1.82363 0
M  V30 12433 H 1141.09 -4.4784 2.19638 0
M  V30 12434 H 1140.24 -6.05086 0.442306 0
M  V30 12435 H 1138.98 -4.87691 -0.029416 0
M  V30 12436 H 1137.99 -5.00669 2.27179 0
M  V30 12437 H 1139.21 -6.21464 2.73787 0
M  V30 12438 H 1137.16 -6.53956 0.517494 0
M  V30 12439 H 1137.07 -7.26565 2.08902 0
M  V30 12440 H 1138.34 -7.73126 0.994793 0
M  V30 12441 N 1142.57 -0.928524 -1.27343 0
M  V30 12442 C 1143.5 -0.385563 -2.25934 0
M  V30 12443 C 1144.52 0.484178 -1.55433 0
M  V30 12444 O 1145.71 0.296668 -1.76017 0
M  V30 12445 C 1142.81 0.466116 -3.35679 0
M  V30 12446 C 1141.98 -0.384523 -4.35707 0
M  V30 12447 C 1141.04 0.404644 -5.24642 0
M  V30 12448 O 1140.06 -0.187943 -5.6889 0
M  V30 12449 N 1141.27 1.70426 -5.54919 0
M  V30 12450 H 1144.03 -1.23306 -2.73159 0
M  V30 12451 H 1141.59 -0.796039 -1.40978 0
M  V30 12452 H 1143.58 1.00115 -3.92121 0
M  V30 12453 H 1142.15 1.21437 -2.88048 0
M  V30 12454 H 1141.37 -1.10085 -3.78517 0
M  V30 12455 H 1142.66 -0.966033 -4.99545 0
M  V30 12456 H 1142.06 2.20802 -5.20829 0
M  V30 12457 H 1140.62 2.1858 -6.14057 0
M  V30 12458 N 1144.05 1.41491 -0.694123 0
M  V30 12459 C 1145.47 1.55358 -0.365532 0
M  V30 12460 C 1145.67 1.66994 1.12762 0
M  V30 12461 O 1144.72 1.64756 1.91342 0
M  V30 12462 C 1146.03 2.79352 -1.11279 0
M  V30 12463 C 1147.58 2.93147 -1.097 0
M  V30 12464 C 1148.06 4.20027 -1.82597 0
M  V30 12465 N 1149.55 4.26981 -1.7956 0
M  V30 12466 C 1150.28 5.24013 -2.32805 0
M  V30 12467 N 1149.78 6.27083 -2.94515 0
M  V30 12468 N 1151.57 5.15943 -2.23069 0
M  V30 12469 H 1143.72 1.32183 -1.66257 0
M  V30 12470 H 1145.99 0.637624 -0.701527 0
M  V30 12471 H 1145.69 2.76958 -2.16765 0
M  V30 12472 H 1145.57 3.70827 -0.690439 0
M  V30 12473 H 1147.95 2.95057 -0.0504037 0
M  V30 12474 H 1148.03 2.02849 -1.55839 0
M  V30 12475 H 1147.68 4.18878 -2.87235 0
M  V30 12476 H 1147.61 5.09294 -1.33893 0
M  V30 12477 H 1150.1 3.53129 -1.34567 0
M  V30 12478 H 1150.41 6.97511 -3.32714 0
M  V30 12479 H 1148.76 6.27589 -2.98592 0
M  V30 12480 H 1151.95 4.34346 -1.74532 0
M  V30 12481 H 1152.12 5.91396 -2.64868 0
M  V30 12482 N 1145.53 0.438773 1.51369 0
M  V30 12483 C 1146.77 -0.127401 2.02399 0
M  V30 12484 C 1147.11 -1.42235 1.32223 0
M  V30 12485 O 1146.38 -1.89513 0.437607 0
M  V30 12486 C 1146.66 -0.344673 3.58447 0
M  V30 12487 C 1146.52 0.969027 4.39238 0
M  V30 12488 C 1147.84 -1.11381 4.25773 0
M  V30 12489 H 1144.96 -0.0448281 0.735635 0
M  V30 12490 H 1147.6 0.57805 1.80993 0
M  V30 12491 H 1145.75 -0.945582 3.76817 0
M  V30 12492 H 1147.42 1.60403 4.32514 0
M  V30 12493 H 1145.66 1.57329 4.04265 0
M  V30 12494 H 1146.33 0.771029 5.46589 0
M  V30 12495 H 1148.81 -0.604785 4.11681 0
M  V30 12496 H 1147.69 -1.23459 5.34835 0
M  V30 12497 H 1147.95 -2.14225 3.8673 0
M  V30 12498 N 1147.01 -1.56678 0.170181 0
M  V30 12499 C 1148.23 -2.0166 -0.484543 0
M  V30 12500 C 1148.66 -1.04962 -1.56091 0
M  V30 12501 O 1148.01 -0.0289887 -1.81277 0
M  V30 12502 C 1148.06 -3.45252 -1.04084 0
M  V30 12503 O 1147.17 -3.51623 -2.15488 0
M  V30 12504 H 1146.51 -0.653765 -0.116135 0
M  V30 12505 H 1149.04 -2.02761 0.273737 0
M  V30 12506 H 1149.05 -3.84534 -1.36373 0
M  V30 12507 H 1147.72 -4.15131 -0.252738 0
M  V30 12508 H 1146.3 -3.242 -1.84252 0
M  V30 12509 N 1148.48 0.103547 -1.57259 0
M  V30 12510 C 1149.41 1.12714 -2.04494 0
M  V30 12511 C 1150.39 1.42278 -0.932255 0
M  V30 12512 O 1151.58 1.52453 -1.20298 0
M  V30 12513 C 1148.71 2.44927 -2.46228 0
M  V30 12514 C 1147.66 2.2979 -3.61082 0
M  V30 12515 C 1146.99 3.67105 -3.88765 0
M  V30 12516 C 1148.29 1.7455 -4.9227 0
M  V30 12517 H 1149.98 0.734198 -2.90258 0
M  V30 12518 H 1147.53 0.351725 -1.39638 0
M  V30 12519 H 1149.48 3.16798 -2.77879 0
M  V30 12520 H 1148.21 2.8614 -1.57453 0
M  V30 12521 H 1146.87 1.60366 -3.29664 0
M  V30 12522 H 1146.51 4.05831 -2.97171 0
M  V30 12523 H 1146.21 3.57825 -4.66084 0
M  V30 12524 H 1147.74 4.40456 -4.22884 0
M  V30 12525 H 1149.15 2.36253 -5.22358 0
M  V30 12526 H 1147.55 1.76051 -5.73695 0
M  V30 12527 H 1148.62 0.704242 -4.79759 0
M  V30 12528 N 1149.96 1.53094 0.37415 0
M  V30 12529 C 1150.92 1.78264 1.44065 0
M  V30 12530 C 1151.92 0.652892 1.46949 0
M  V30 12531 O 1153.11 0.921046 1.47859 0
M  V30 12532 C 1150.25 1.89693 2.83248 0
M  V30 12533 H 1151.44 2.73505 1.23025 0
M  V30 12534 H 1148.99 1.44041 0.60678 0
M  V30 12535 H 1149.73 0.964884 3.09613 0
M  V30 12536 H 1149.51 2.71855 2.82554 0
M  V30 12537 H 1151 2.10787 3.60498 0
M  V30 12538 N 1151.44 -0.633461 1.44309 0
M  V30 12539 C 1152.86 -0.951379 1.28144 0
M  V30 12540 C 1153.06 -2.00344 0.215512 0
M  V30 12541 O 1152.11 -2.49321 -0.399389 0
M  V30 12542 C 1153.42 -1.41686 2.65227 0
M  V30 12543 C 1154.97 -1.53247 2.72918 0
M  V30 12544 C 1155.45 -2.03179 4.10466 0
M  V30 12545 N 1156.94 -2.10453 4.1263 0
M  V30 12546 C 1157.67 -2.50254 5.15907 0
M  V30 12547 N 1157.17 -2.89209 6.29547 0
M  V30 12548 N 1158.96 -2.50368 5.03262 0
M  V30 12549 H 1151.11 0.0623574 2.12308 0
M  V30 12550 H 1153.38 -0.0347244 0.947364 0
M  V30 12551 H 1153.08 -0.71814 3.4429 0
M  V30 12552 H 1152.96 -2.3883 2.91959 0
M  V30 12553 H 1155.34 -2.22216 1.94176 0
M  V30 12554 H 1155.42 -0.544836 2.4993 0
M  V30 12555 H 1155.07 -1.34806 4.89683 0
M  V30 12556 H 1155 -3.02809 4.3083 0
M  V30 12557 H 1157.49 -1.83042 3.30612 0
M  V30 12558 H 1157.8 -3.18386 7.04166 0
M  V30 12559 H 1156.15 -2.86966 6.32989 0
M  V30 12560 H 1159.34 -2.19324 4.13539 0
M  V30 12561 H 1159.51 -2.81062 5.83873 0
M  V30 12562 N 1152.92 -1.31168 -0.873655 0
M  V30 12563 C 1153.88 -1.18471 -1.96207 0
M  V30 12564 C 1154.88 -0.112814 -1.60404 0
M  V30 12565 O 1156.07 -0.3618 -1.70401 0
M  V30 12566 C 1153.2 -0.817662 -3.30949 0
M  V30 12567 H 1154.4 -2.1518 -2.08896 0
M  V30 12568 H 1151.95 -1.14727 -1.06149 0
M  V30 12569 H 1152.68 0.148428 -3.2396 0
M  V30 12570 H 1152.47 -1.59244 -3.58307 0
M  V30 12571 H 1153.96 -0.75262 -4.10762 0
M  V30 12572 N 1154.4 1.08748 -1.14068 0
M  V30 12573 C 1155.64 1.81333 -0.908081 0
M  V30 12574 C 1155.98 1.85826 0.564112 0
M  V30 12575 O 1155.25 1.33157 1.41773 0
M  V30 12576 C 1155.53 3.27127 -1.50531 0
M  V30 12577 C 1155.39 3.30865 -3.04711 0
M  V30 12578 C 1156.71 4.24006 -1.17928 0
M  V30 12579 H 1153.82 0.658326 -0.331325 0
M  V30 12580 H 1156.47 1.27345 -1.41008 0
M  V30 12581 H 1154.62 3.73233 -1.07839 0
M  V30 12582 H 1156.29 2.93109 -3.56209 0
M  V30 12583 H 1154.53 2.70241 -3.39341 0
M  V30 12584 H 1155.2 4.33603 -3.41603 0
M  V30 12585 H 1157.68 3.86221 -1.54831 0
M  V30 12586 H 1156.55 5.2434 -1.62353 0
M  V30 12587 H 1156.82 4.42 -0.0940349 0
M  V30 12588 N 1155.87 0.935264 1.26849 0
M  V30 12589 C 1157.1 0.595384 1.97835 0
M  V30 12590 C 1157.51 -0.832605 1.69895 0
M  V30 12591 O 1156.86 -1.56597 0.960371 0
M  V30 12592 C 1156.92 0.750567 3.51578 0
M  V30 12593 C 1156.58 2.15208 4.03156 0
M  V30 12594 C 1157.58 3.12699 4.15349 0
M  V30 12595 C 1155.26 2.47106 4.37314 0
M  V30 12596 C 1157.26 4.40193 4.60987 0
M  V30 12597 C 1154.94 3.74834 4.82641 0
M  V30 12598 C 1155.94 4.7119 4.94438 0
M  V30 12599 O 1155.63 5.96644 5.38768 0
M  V30 12600 H 1155.36 0.223734 0.637902 0
M  V30 12601 H 1157.92 1.25663 1.62475 0
M  V30 12602 H 1156.15 0.0322039 3.86687 0
M  V30 12603 H 1157.84 0.414625 4.03777 0
M  V30 12604 H 1158.6 2.89378 3.89211 0
M  V30 12605 H 1154.48 1.72846 4.2737 0
M  V30 12606 H 1158.02 5.15406 4.70109 0
M  V30 12607 H 1153.92 3.9797 5.08222 0
M  V30 12608 H 1154.69 5.99741 5.57003 0
M  V30 12609 N 1157.35 -1.41121 0.701616 0
M  V30 12610 C 1158.58 -2.05973 0.242896 0
M  V30 12611 C 1159 -1.52474 -1.10151 0
M  V30 12612 O 1158.36 -0.654224 -1.69085 0
M  V30 12613 C 1158.41 -3.59943 0.217614 0
M  V30 12614 O 1157.51 -4.04454 -0.805629 0
M  V30 12615 H 1156.85 -0.653581 0.117166 0
M  V30 12616 H 1159.38 -1.80777 0.958175 0
M  V30 12617 H 1159.39 -4.07969 0.0505267 0
M  V30 12618 H 1158.07 -3.98249 1.19877 0
M  V30 12619 H 1156.65 -3.6792 -0.607404 0
M  V30 12620 N 1158.83 -0.446794 -1.51134 0
M  V30 12621 C 1159.78 0.374154 -2.29571 0
M  V30 12622 C 1160.77 1.01241 -1.35818 0
M  V30 12623 O 1161.98 0.946293 -1.53119 0
M  V30 12624 H 1158.35 0.13948 -0.738951 0
M  V30 12625 H 1160.32 -0.308117 -2.96805 0
M  V30 12626 C 1159.07 1.45754 -3.15675 0
M  V30 12627 H 1158.4 0.975787 -3.87709 0
M  V30 12628 H 1159.84 2.00502 -3.73597 0
M  V30 12629 C 1158.3 2.44606 -2.31667 0
M  V30 12630 O 1158.83 3.49352 -1.98284 0
M  V30 12631 N 1157.03 2.15725 -1.94708 0
M  V30 12632 H 1156.58 1.30572 -2.22056 0
M  V30 12633 H 1156.54 2.82103 -1.38798 0
M  V30 12634 N 1160.31 1.56586 -0.178487 0
M  V30 12635 C 1161.27 2.17091 0.73512 0
M  V30 12636 C 1162.27 1.12088 1.15295 0
M  V30 12637 O 1163.46 1.37563 1.06874 0
M  V30 12638 C 1160.59 2.75957 2.00151 0
M  V30 12639 H 1161.79 2.99176 0.208272 0
M  V30 12640 H 1159.34 1.56138 0.0710967 0
M  V30 12641 H 1160.07 1.97626 2.57127 0
M  V30 12642 H 1159.86 3.52809 1.7108 0
M  V30 12643 H 1161.35 3.2247 2.65335 0
M  V30 12644 N 1161.79 -0.095206 1.57312 0
M  V30 12645 C 1163.06 -0.830388 1.77099 0
M  V30 12646 C 1163.44 -1.9694 0.760121 0
M  V30 12647 O 1162.79 -2.2752 -0.211403 0
M  V30 12648 C 1163 -1.32507 3.22867 0
M  V30 12649 C 1164.35 -1.7679 3.86045 0
M  V30 12650 O 1165.37 -1.42131 3.26615 0
M  V30 12651 O 1164.23 -2.40876 4.90552 0
M  V30 12652 H 1161.33 -0.396083 0.72598 0
M  V30 12653 H 1163.87 -0.0770965 1.69525 0
M  V30 12654 H 1162.64 -0.508992 3.87975 0
M  V30 12655 H 1162.27 -2.14037 3.35073 0
M  V30 12656 N 1163.26 -1.53291 -0.366026 0
M  V30 12657 C 1164.51 -1.68671 -1.10602 0
M  V30 12658 C 1164.83 -0.444793 -1.90476 0
M  V30 12659 O 1166.03 -0.479135 -2.67239 0
M  V30 12660 C 1164.49 -2.98174 -2.01545 0
M  V30 12661 C 1164.1 -4.29626 -1.26986 0
M  V30 12662 C 1165.84 -3.22921 -2.7554 0
M  V30 12663 C 1163.75 -5.50218 -2.16828 0
M  V30 12664 H 1162.68 -0.628456 -0.416604 0
M  V30 12665 H 1165.33 -1.79791 -0.367058 0
M  V30 12666 H 1163.71 -2.80855 -2.79171 0
M  V30 12667 H 1164.88 -4.57574 -0.544269 0
M  V30 12668 H 1163.2 -4.11318 -0.648558 0
M  V30 12669 H 1165.8 -4.10202 -3.42985 0
M  V30 12670 H 1166.14 -2.38964 -3.40884 0
M  V30 12671 H 1166.67 -3.40912 -2.04997 0
M  V30 12672 H 1163.41 -6.36651 -1.56063 0
M  V30 12673 H 1162.93 -5.26549 -2.87238 0
M  V30 12674 H 1164.61 -5.84991 -2.76396 0
M  V30 12675 N 1164.74 0.6258 -1.44643 0
M  V30 12676 C 1165.97 1.41028 -1.50979 0
M  V30 12677 C 1166.38 1.88717 -0.135092 0
M  V30 12678 O 1165.72 1.61778 0.870268 0
M  V30 12679 C 1165.79 2.66094 -2.41732 0
M  V30 12680 C 1165.45 2.40166 -3.88805 0
M  V30 12681 C 1166.45 2.01661 -4.79196 0
M  V30 12682 C 1164.13 2.53641 -4.33557 0
M  V30 12683 C 1166.13 1.76966 -6.12341 0
M  V30 12684 C 1163.81 2.2856 -5.66748 0
M  V30 12685 C 1164.81 1.90282 -6.55959 0
M  V30 12686 O 1164.5 1.65484 -7.86683 0
M  V30 12687 H 1164.23 0.438757 -0.514265 0
M  V30 12688 H 1166.78 0.772034 -1.90339 0
M  V30 12689 H 1165.01 3.32575 -1.97309 0
M  V30 12690 H 1166.7 3.28107 -2.38957 0
M  V30 12691 H 1167.47 1.90802 -4.45892 0
M  V30 12692 H 1163.35 2.82404 -3.64375 0
M  V30 12693 H 1166.89 1.47014 -6.81933 0
M  V30 12694 H 1162.79 2.3903 -5.99612 0
M  V30 12695 H 1163.56 1.79686 -7.98533 0
M  V30 12696 N 1166.22 1.31629 0.866686 0
M  V30 12697 C 1167.15 1.22151 1.99001 0
M  V30 12698 C 1168.13 0.107972 1.69757 0
M  V30 12699 O 1169.32 0.293125 1.91975 0
M  V30 12700 C 1166.45 0.93144 3.34577 0
M  V30 12701 C 1165.4 2.0049 3.78137 0
M  V30 12702 C 1164.73 1.56747 5.11209 0
M  V30 12703 C 1166.03 3.41844 3.94892 0
M  V30 12704 H 1167.72 2.16132 2.0719 0
M  V30 12705 H 1165.27 1.04051 0.995463 0
M  V30 12706 H 1167.22 0.851719 4.12703 0
M  V30 12707 H 1165.94 -0.0440289 3.2657 0
M  V30 12708 H 1164.6 2.07457 3.02253 0
M  V30 12709 H 1164.25 0.579767 4.99648 0
M  V30 12710 H 1163.95 2.28562 5.41326 0
M  V30 12711 H 1165.47 1.50188 5.91841 0
M  V30 12712 H 1166.89 3.37534 4.63405 0
M  V30 12713 H 1165.29 4.11905 4.36411 0
M  V30 12714 H 1166.36 3.82389 2.98172 0
M  V30 12715 N 1167.7 -1.08142 1.14644 0
M  V30 12716 C 1168.95 -1.80582 0.916327 0
M  V30 12717 C 1169.27 -1.86355 -0.556969 0
M  V30 12718 O 1168.53 -1.33736 -1.42875 0
M  V30 12719 C 1168.83 -3.25962 1.46573 0
M  V30 12720 C 1168.49 -3.40302 2.95814 0
M  V30 12721 C 1167.16 -3.43922 3.36557 0
M  V30 12722 C 1169.51 -3.43758 3.91765 0
M  V30 12723 C 1166.84 -3.48594 4.7191 0
M  V30 12724 C 1169.19 -3.49965 5.26979 0
M  V30 12725 C 1167.85 -3.5186 5.67231 0
M  V30 12726 H 1167.12 -0.660795 0.335308 0
M  V30 12727 H 1169.77 -1.27309 1.43055 0
M  V30 12728 H 1168.07 -3.81961 0.872507 0
M  V30 12729 H 1169.77 -3.80571 1.2636 0
M  V30 12730 H 1166.36 -3.38176 2.63315 0
M  V30 12731 H 1170.55 -3.40189 3.61366 0
M  V30 12732 H 1165.8 -3.48355 5.02453 0
M  V30 12733 H 1169.98 -3.51585 6.01133 0
M  V30 12734 H 1167.6 -3.55233 6.72097 0
M  V30 12735 N 1169.18 -0.941978 -1.26351 0
M  V30 12736 C 1170.45 -0.507822 -1.88893 0
M  V30 12737 C 1170.83 1.0146 -1.85119 0
M  V30 12738 O 1170.18 1.87495 -1.30606 0
M  V30 12739 C 1170.39 -1.07007 -3.3219 0
M  V30 12740 C 1171.74 -1.13922 -4.09032 0
M  V30 12741 O 1172.76 -1.02072 -3.41262 0
M  V30 12742 O 1171.62 -1.32362 -5.30229 0
M  V30 12743 H 1168.72 -0.165621 -0.810246 0
M  V30 12744 H 1171.26 -1.03459 -1.34515 0
M  V30 12745 H 1170.04 -2.11366 -3.29302 0
M  V30 12746 H 1169.66 -0.525797 -3.94108 0
M  V30 12747 N 1170.66 1.40747 -0.709091 0
M  V30 12748 C 1171.93 1.94831 -0.173246 0
M  V30 12749 C 1172.31 1.64766 1.31967 0
M  V30 12750 O 1171.66 0.961853 2.07269 0
M  V30 12751 C 1171.87 3.45697 -0.479013 0
M  V30 12752 C 1173.22 4.22576 -0.414122 0
M  V30 12753 O 1174.24 3.53778 -0.414699 0
M  V30 12754 O 1173.1 5.45135 -0.385986 0
M  V30 12755 H 1170.2 0.826683 -0.0228947 0
M  V30 12756 H 1172.74 1.50391 -0.786178 0
M  V30 12757 H 1171.51 3.60914 -1.51185 0
M  V30 12758 H 1171.14 3.97261 0.164211 0
M  V30 12759 N 1172.13 0.454803 1.50895 0
M  V30 12760 C 1173.54 -0.00421212 1.867 0
M  V30 12761 C 1173.9 -1.4037 1.3708 0
M  V30 12762 O 1173.02 -2.03755 0.728884 0
M  V30 12763 C 1173.62 -0.0144196 3.38797 0
M  V30 12764 C 1172.17 -0.417905 3.74073 0
M  V30 12765 C 1171.32 0.37801 2.74711 0
M  V30 12766 H 1174.27 0.669849 1.4387 0
M  V30 12767 H 1174.29 -0.820172 3.71555 0
M  V30 12768 H 1173.81 1.00427 3.74881 0
M  V30 12769 H 1171.91 -1.44155 3.43584 0
M  V30 12770 H 1172.02 -0.130568 4.78922 0
M  V30 12771 H 1170.38 -0.166089 2.54158 0
M  V30 12772 H 1171.17 1.3959 3.13639 0
M  V30 12773 N 1173.61 -1.56489 0.186789 0
M  V30 12774 C 1174.54 -2.21705 -0.732739 0
M  V30 12775 C 1175.52 -1.17751 -1.22755 0
M  V30 12776 O 1176.71 -1.46231 -1.27789 0
M  V30 12777 C 1173.84 -2.86992 -1.95584 0
M  V30 12778 C 1172.79 -3.97118 -1.59628 0
M  V30 12779 C 1172.12 -4.49529 -2.89531 0
M  V30 12780 C 1173.42 -5.15941 -0.812518 0
M  V30 12781 H 1175.11 -2.98802 -0.189094 0
M  V30 12782 H 1172.66 -1.43722 -0.0895099 0
M  V30 12783 H 1174.61 -3.31295 -2.60426 0
M  V30 12784 H 1173.33 -2.07287 -2.52388 0
M  V30 12785 H 1171.99 -3.53494 -0.971475 0
M  V30 12786 H 1171.64 -3.66596 -3.44407 0
M  V30 12787 H 1171.34 -5.23832 -2.66221 0
M  V30 12788 H 1172.87 -4.96528 -3.55376 0
M  V30 12789 H 1174.28 -5.56841 -1.36386 0
M  V30 12790 H 1172.68 -5.96259 -0.677862 0
M  V30 12791 H 1173.75 -4.84535 0.188095 0
M  V30 12792 N 1175.09 0.086862 -1.5736 0
M  V30 12793 C 1176.31 0.806017 -1.91097 0
M  V30 12794 C 1176.74 1.71082 -0.78183 0
M  V30 12795 O 1176.1 1.79335 0.266175 0
M  V30 12796 C 1176.15 1.5884 -3.23732 0
M  V30 12797 O 1175.25 2.69798 -3.11902 0
M  V30 12798 H 1174.59 0.220899 -0.626179 0
M  V30 12799 H 1177.12 0.059619 -2.04513 0
M  V30 12800 H 1177.13 1.97088 -3.5724 0
M  V30 12801 H 1175.81 0.924426 -4.05496 0
M  V30 12802 H 1174.38 2.34519 -2.89923 0
M  V30 12803 N 1176.57 1.53483 0.357892 0
M  V30 12804 C 1177.53 1.79782 1.42166 0
M  V30 12805 C 1178.53 0.668441 1.46248 0
M  V30 12806 O 1179.72 0.936677 1.46874 0
M  V30 12807 C 1176.85 1.92686 2.8122 0
M  V30 12808 H 1178.05 2.74794 1.20117 0
M  V30 12809 H 1175.6 1.44677 0.591468 0
M  V30 12810 H 1176.33 0.997669 3.08573 0
M  V30 12811 H 1176.12 2.74837 2.79655 0
M  V30 12812 H 1177.61 2.14599 3.58242 0
M  V30 12813 N 1178.05 -0.61812 1.44973 0
M  V30 12814 C 1179.29 -1.37944 1.48658 0
M  V30 12815 C 1179.62 -1.93805 0.123749 0
M  V30 12816 O 1178.9 -1.74434 -0.860401 0
M  V30 12817 C 1179.18 -2.53515 2.55739 0
M  V30 12818 C 1179.04 -2.02918 4.01428 0
M  V30 12819 C 1180.35 -3.55674 2.59199 0
M  V30 12820 H 1177.47 -0.500223 0.541244 0
M  V30 12821 H 1180.12 -0.69774 1.76725 0
M  V30 12822 H 1178.27 -3.11669 2.31937 0
M  V30 12823 H 1179.94 -1.49494 4.36405 0
M  V30 12824 H 1178.18 -1.33999 4.12586 0
M  V30 12825 H 1178.85 -2.86181 4.72021 0
M  V30 12826 H 1181.33 -3.07343 2.80499 0
M  V30 12827 H 1180.2 -4.34042 3.36004 0
M  V30 12828 H 1180.46 -4.10601 1.63888 0
M  V30 12829 N 1179.52 -1.32087 -0.859693 0
M  V30 12830 C 1180.8 -1.12984 -1.59668 0
M  V30 12831 C 1181.18 0.311661 -2.08787 0
M  V30 12832 O 1180.53 1.30746 -1.87397 0
M  V30 12833 C 1180.74 -2.15305 -2.74672 0
M  V30 12834 C 1182.09 -2.48371 -3.44379 0
M  V30 12835 O 1183.11 -2.13811 -2.84891 0
M  V30 12836 O 1181.97 -3.07594 -4.51717 0
M  V30 12837 H 1179.06 -0.435657 -0.702945 0
M  V30 12838 H 1181.61 -1.43601 -0.90426 0
M  V30 12839 H 1180.38 -3.12223 -2.35866 0
M  V30 12840 H 1180 -1.85653 -3.51594 0
M  V30 12841 N 1181 1.07532 -1.15215 0
M  V30 12842 C 1181.96 2.1286 -0.84989 0
M  V30 12843 C 1182.96 1.60103 0.149524 0
M  V30 12844 O 1184.15 1.74017 -0.0798918 0
M  V30 12845 C 1181.29 3.3984 -0.268617 0
M  V30 12846 H 1182.48 2.41106 -1.78347 0
M  V30 12847 H 1180.03 1.23392 -0.959386 0
M  V30 12848 H 1180.77 3.17235 0.67325 0
M  V30 12849 H 1180.55 3.79433 -0.988592 0
M  V30 12850 H 1182.04 4.17533 -0.0746554 0
M  V30 12851 N 1182.48 0.948665 1.2585 0
M  V30 12852 C 1183.43 0.434929 2.23813 0
M  V30 12853 C 1184.41 -0.472518 1.53805 0
M  V30 12854 O 1185.61 -0.306542 1.74325 0
M  V30 12855 C 1182.74 -0.291678 3.42059 0
M  V30 12856 C 1181.82 0.633493 4.19342 0
M  V30 12857 N 1182.21 1.76254 4.74097 0
M  V30 12858 C 1180.51 0.440528 4.43819 0
M  V30 12859 C 1181.21 2.33968 5.32573 0
M  V30 12860 N 1180.19 1.62687 5.18685 0
M  V30 12861 H 1183.99 1.29668 2.63749 0
M  V30 12862 H 1181.5 0.805431 1.4102 0
M  V30 12863 H 1183.5 -0.676811 4.1137 0
M  V30 12864 H 1182.16 -1.15011 3.03649 0
M  V30 12865 H 1183.17 2.14453 4.71413 0
M  V30 12866 H 1179.85 -0.375515 4.15808 0
M  V30 12867 H 1181.24 3.2914 5.85761 0
M  V30 12868 N 1183.96 -1.40369 0.716545 0
M  V30 12869 C 1185.2 -2.01167 0.256846 0
M  V30 12870 C 1185.54 -1.56689 -1.14727 0
M  V30 12871 O 1184.81 -0.787384 -1.7785 0
M  V30 12872 C 1185.1 -3.58511 0.337963 0
M  V30 12873 C 1184.95 -4.13059 1.78052 0
M  V30 12874 C 1186.27 -4.39142 -0.290295 0
M  V30 12875 H 1183.39 -0.730877 0.0948028 0
M  V30 12876 H 1186.03 -1.66833 0.909225 0
M  V30 12877 H 1184.18 -3.87891 -0.217482 0
M  V30 12878 H 1185.85 -3.94472 2.39143 0
M  V30 12879 H 1184.09 -3.67311 2.30793 0
M  V30 12880 H 1184.76 -5.22217 1.78867 0
M  V30 12881 H 1187.24 -4.15697 0.182987 0
M  V30 12882 H 1186.12 -5.48524 -0.203097 0
M  V30 12883 H 1186.38 -4.20209 -1.37394 0
M  V30 12884 N 1185.44 -0.462799 -1.50652 0
M  V30 12885 C 1186.68 0.0948568 -2.01877 0
M  V30 12886 C 1187.01 1.4096 -1.34741 0
M  V30 12887 O 1186.28 1.89671 -0.49006 0
M  V30 12888 H 1184.86 0.0380453 -0.746031 0
M  V30 12889 H 1187.52 -0.611327 -1.85064 0
M  V30 12890 H 1186.61 0.252378 -3.11078 0
M  V30 12891 N 1186.91 1.56388 -0.195085 0
M  V30 12892 C 1187.86 2.19091 0.725793 0
M  V30 12893 C 1188.83 1.13814 1.20977 0
M  V30 12894 O 1190.02 1.42065 1.27366 0
M  V30 12895 C 1187.16 2.85427 1.93973 0
M  V30 12896 C 1186.27 4.05229 1.49712 0
M  V30 12897 C 1185.4 4.59421 2.66656 0
M  V30 12898 C 1184.44 5.71581 2.19001 0
M  V30 12899 N 1183.58 6.2018 3.29123 0
M  V30 12900 H 1188.42 2.97429 0.184334 0
M  V30 12901 H 1185.96 1.46886 0.0792434 0
M  V30 12902 H 1187.92 3.22057 2.65208 0
M  V30 12903 H 1186.55 2.09652 2.4545 0
M  V30 12904 H 1185.6 3.74261 0.680641 0
M  V30 12905 H 1186.91 4.8635 1.10749 0
M  V30 12906 H 1186.06 4.98357 3.46014 0
M  V30 12907 H 1184.8 3.77407 3.08893 0
M  V30 12908 H 1183.81 5.32174 1.38097 0
M  V30 12909 H 1185.03 6.55413 1.77795 0
M  V30 12910 H 1182.98 5.41088 3.70891 0
M  V30 12911 H 1182.9 6.96353 2.94328 0
M  V30 12912 H 1184.16 6.63769 4.08694 0
M  V30 12913 N 1188.39 -0.0785156 1.57404 0
M  V30 12914 C 1189.34 -1.10077 1.99668 0
M  V30 12915 C 1190.33 -1.34855 0.87767 0
M  V30 12916 O 1191.52 -1.35268 1.14156 0
M  V30 12917 C 1188.65 -2.41641 2.43854 0
M  V30 12918 C 1187.73 -2.20166 3.62475 0
M  V30 12919 N 1188.12 -1.68602 4.76872 0
M  V30 12920 C 1186.42 -2.50666 3.68894 0
M  V30 12921 C 1187.12 -1.61785 5.58749 0
M  V30 12922 N 1186.1 -2.07595 5.02399 0
M  V30 12923 H 1189.9 -0.695297 2.85557 0
M  V30 12924 H 1187.42 -0.285694 1.59867 0
M  V30 12925 H 1189.41 -3.15629 2.72367 0
M  V30 12926 H 1188.07 -2.8291 1.59348 0
M  V30 12927 H 1189.08 -1.37561 4.99297 0
M  V30 12928 H 1185.76 -2.95348 2.95087 0
M  V30 12929 H 1187.15 -1.22828 6.60578 0
M  V30 12930 N 1189.87 -1.5367 -0.349747 0
M  V30 12931 C 1191.12 -1.69835 -1.08807 0
M  V30 12932 C 1191.43 -0.46497 -1.89993 0
M  V30 12933 O 1192.64 -0.507452 -2.66716 0
M  V30 12934 C 1191.09 -3.00294 -1.98372 0
M  V30 12935 C 1190.7 -4.30949 -1.22422 0
M  V30 12936 C 1192.45 -3.25826 -2.72099 0
M  V30 12937 C 1190.35 -5.52486 -2.1098 0
M  V30 12938 H 1189.28 -0.63284 -0.409915 0
M  V30 12939 H 1191.93 -1.80171 -0.347968 0
M  V30 12940 H 1190.32 -2.838 -2.76176 0
M  V30 12941 H 1191.49 -4.58126 -0.495707 0
M  V30 12942 H 1189.81 -4.11983 -0.604896 0
M  V30 12943 H 1192.4 -4.13817 -3.38615 0
M  V30 12944 H 1192.75 -2.42566 -3.3833 0
M  V30 12945 H 1193.28 -3.43067 -2.0137 0
M  V30 12946 H 1190.02 -6.38271 -1.49301 0
M  V30 12947 H 1189.54 -5.29566 -2.81638 0
M  V30 12948 H 1191.22 -5.87889 -2.70176 0
M  V30 12949 N 1191.35 0.610423 -1.45298 0
M  V30 12950 C 1192.6 1.36951 -1.49167 0
M  V30 12951 C 1192.92 1.9405 -0.132292 0
M  V30 12952 O 1192.18 1.75363 0.868686 0
M  V30 12953 C 1192.48 2.53812 -2.51623 0
M  V30 12954 C 1192.14 2.14877 -3.96407 0
M  V30 12955 C 1190.81 2.03972 -4.35831 0
M  V30 12956 C 1193.16 1.84448 -4.87472 0
M  V30 12957 C 1190.49 1.60856 -5.64218 0
M  V30 12958 C 1192.84 1.42818 -6.16268 0
M  V30 12959 C 1191.5 1.3047 -6.54625 0
M  V30 12960 H 1190.77 0.501138 -0.54584 0
M  V30 12961 H 1193.42 0.690221 -1.78629 0
M  V30 12962 H 1191.72 3.27066 -2.1572 0
M  V30 12963 H 1193.42 3.12041 -2.51856 0
M  V30 12964 H 1190.01 2.2429 -3.65229 0
M  V30 12965 H 1194.19 1.91771 -4.57753 0
M  V30 12966 H 1189.45 1.49916 -5.92735 0
M  V30 12967 H 1193.62 1.18318 -6.86275 0
M  V30 12968 H 1191.25 0.968347 -7.54007 0
M  V30 12969 N 1192.83 1.32541 0.852676 0
M  V30 12970 C 1193.74 1.23646 1.99371 0
M  V30 12971 C 1194.75 0.149673 1.73355 0
M  V30 12972 O 1195.93 0.370716 1.97959 0
M  V30 12973 C 1192.99 0.961873 3.3309 0
M  V30 12974 C 1192.05 2.1373 3.72315 0
M  V30 12975 C 1191.29 1.87572 4.99652 0
M  V30 12976 O 1191.51 0.819247 5.64486 0
M  V30 12977 O 1190.44 2.73732 5.36054 0
M  V30 12978 H 1194.27 2.19573 2.09813 0
M  V30 12979 H 1191.86 1.12451 0.983627 0
M  V30 12980 H 1193.74 0.825316 4.13239 0
M  V30 12981 H 1192.41 0.0327745 3.23683 0
M  V30 12982 H 1191.32 2.32933 2.92733 0
M  V30 12983 H 1192.65 3.04925 3.86369 0
M  V30 12984 N 1194.3 -1.0692 1.15784 0
M  V30 12985 C 1195.25 -2.16335 0.854506 0
M  V30 12986 C 1196.25 -1.68505 -0.173868 0
M  V30 12987 O 1197.45 -1.79977 -0.0284722 0
M  V30 12988 H 1193.83 -0.706103 0.258694 0
M  V30 12989 H 1195.8 -2.39135 1.78486 0
M  V30 12990 C 1194.55 -3.45778 0.365042 0
M  V30 12991 H 1193.87 -3.82971 1.14776 0
M  V30 12992 H 1195.31 -4.23567 0.191504 0
M  V30 12993 C 1193.77 -3.24258 -0.914253 0
M  V30 12994 O 1194.3 -3.49236 -1.98487 0
M  V30 12995 N 1192.51 -2.77722 -0.855501 0
M  V30 12996 H 1192.05 -2.57595 0.0159233 0
M  V30 12997 H 1192.01 -2.63702 -1.71198 0
M  V30 12998 N 1195.78 -0.955326 -1.25345 0
M  V30 12999 C 1197.03 -0.611388 -1.93365 0
M  V30 13000 C 1197.36 0.84953 -1.74633 0
M  V30 13001 O 1196.64 1.60962 -1.09185 0
M  V30 13002 C 1196.92 -0.971732 -3.46741 0
M  V30 13003 C 1196.77 -2.48843 -3.74696 0
M  V30 13004 C 1198.09 -0.497295 -4.37281 0
M  V30 13005 H 1195.21 -0.223591 -0.702265 0
M  V30 13006 H 1197.85 -1.1921 -1.47949 0
M  V30 13007 H 1196 -0.477568 -3.85554 0
M  V30 13008 H 1197.67 -3.05641 -3.45516 0
M  V30 13009 H 1195.92 -2.92582 -3.20278 0
M  V30 13010 H 1196.59 -2.69107 -4.8196 0
M  V30 13011 H 1199.06 -0.921196 -4.05775 0
M  V30 13012 H 1197.94 -0.778113 -5.43357 0
M  V30 13013 H 1198.2 0.602743 -4.37972 0
M  V30 13014 N 1197.26 1.39987 -0.723979 0
M  V30 13015 C 1198.51 1.99964 -0.26406 0
M  V30 13016 C 1198.82 1.58084 1.1519 0
M  V30 13017 O 1200.03 2.10819 1.71077 0
M  V30 13018 C 1198.49 3.57427 -0.421174 0
M  V30 13019 C 1198.09 4.08276 -1.84432 0
M  V30 13020 C 1199.84 4.24494 -0.0224734 0
M  V30 13021 C 1197.74 5.58272 -1.95157 0
M  V30 13022 H 1196.67 0.747995 -0.0949728 0
M  V30 13023 H 1199.33 1.60122 -0.896276 0
M  V30 13024 H 1197.71 3.95011 0.279762 0
M  V30 13025 H 1198.88 3.82051 -2.57631 0
M  V30 13026 H 1197.2 3.53834 -2.19523 0
M  V30 13027 H 1199.79 5.34637 -0.0817744 0
M  V30 13028 H 1200.14 4.03593 1.02069 0
M  V30 13029 H 1200.67 3.92046 -0.67416 0
M  V30 13030 H 1197.41 5.84038 -2.97623 0
M  V30 13031 H 1196.93 5.86335 -1.2638 0
M  V30 13032 H 1198.61 6.23509 -1.72759 0
M  V30 13033 N 1198.74 0.470782 1.50404 0
M  V30 13034 C 1199.99 -0.0841494 2.01925 0
M  V30 13035 C 1200.31 -1.40244 1.35487 0
M  V30 13036 O 1199.58 -1.89409 0.500111 0
M  V30 13037 H 1198.16 -0.0340884 0.746222 0
M  V30 13038 H 1200.82 0.621133 1.84738 0
M  V30 13039 H 1199.92 -0.235877 3.11207 0
M  V30 13040 N 1200.22 -1.56282 0.203376 0
M  V30 13041 C 1201.63 -1.84146 -0.307752 0
M  V30 13042 C 1201.98 -1.12429 -1.60792 0
M  V30 13043 O 1201.1 -0.387852 -2.12896 0
M  V30 13044 C 1201.7 -3.34053 -0.565152 0
M  V30 13045 C 1200.26 -3.62298 -1.02063 0
M  V30 13046 C 1199.41 -2.77202 -0.0737343 0
M  V30 13047 H 1202.36 -1.52848 0.426983 0
M  V30 13048 H 1202.38 -3.53273 -1.41345 0
M  V30 13049 H 1201.89 -3.86222 0.381301 0
M  V30 13050 H 1199.99 -3.1557 -1.98107 0
M  V30 13051 H 1200.1 -4.70424 -0.907614 0
M  V30 13052 H 1198.47 -2.48074 -0.577169 0
M  V30 13053 H 1199.25 -3.32164 0.86731 0
M  V30 13054 N 1201.7 0.070167 -1.57444 0
M  V30 13055 C 1202.64 1.08322 -2.03801 0
M  V30 13056 C 1203.61 1.38364 -0.918946 0
M  V30 13057 O 1204.8 1.49404 -1.18672 0
M  V30 13058 C 1201.94 2.39128 -2.48821 0
M  V30 13059 C 1201.05 2.15603 -3.74352 0
M  V30 13060 C 1200.19 3.39984 -4.08148 0
M  V30 13061 C 1199.22 3.1183 -5.26715 0
M  V30 13062 N 1198.36 4.28546 -5.56141 0
M  V30 13063 H 1203.2 0.680931 -2.90116 0
M  V30 13064 H 1200.74 0.324657 -1.43473 0
M  V30 13065 H 1202.7 3.15501 -2.72975 0
M  V30 13066 H 1201.33 2.77157 -1.65481 0
M  V30 13067 H 1200.38 1.29915 -3.57528 0
M  V30 13068 H 1201.69 1.90808 -4.60862 0
M  V30 13069 H 1200.84 4.2475 -4.33211 0
M  V30 13070 H 1199.58 3.67856 -3.20208 0
M  V30 13071 H 1198.59 2.2546 -5.01446 0
M  V30 13072 H 1199.81 2.85278 -6.16273 0
M  V30 13073 H 1197.76 4.56447 -4.71161 0
M  V30 13074 H 1197.68 4.0703 -6.37073 0
M  V30 13075 H 1198.94 5.14305 -5.85757 0
M  V30 13076 N 1203.17 1.53854 0.341593 0
M  V30 13077 C 1204.42 1.70856 1.07948 0
M  V30 13078 C 1204.74 0.475474 1.89114 0
M  V30 13079 O 1204.01 -0.510592 1.89129 0
M  V30 13080 H 1202.59 0.629914 0.401519 0
M  V30 13081 H 1205.25 1.91112 0.382393 0
M  V30 13082 H 1204.35 2.5803 1.75575 0
M  V30 13083 N 1204.65 -0.602709 1.4562 0
M  V30 13084 C 1205.58 -1.72705 1.49159 0
M  V30 13085 C 1206.56 -1.58843 0.347494 0
M  V30 13086 O 1207.75 -1.80337 0.548716 0
M  V30 13087 C 1204.87 -3.10579 1.35125 0
M  V30 13088 C 1203.92 -3.43016 2.53461 0
M  V30 13089 S 1204.75 -3.37311 4.1591 0
M  V30 13090 C 1205.91 -4.77757 4.0435 0
M  V30 13091 H 1206.14 -1.69441 2.44289 0
M  V30 13092 H 1203.67 -0.779776 1.33262 0
M  V30 13093 H 1205.63 -3.90127 1.27715 0
M  V30 13094 H 1204.29 -3.11352 0.414568 0
M  V30 13095 H 1203.49 -4.43415 2.39581 0
M  V30 13096 H 1203.09 -2.70993 2.57757 0
M  V30 13097 H 1205.38 -5.67677 3.69796 0
M  V30 13098 H 1206.32 -4.96694 5.04679 0
M  V30 13099 H 1206.73 -4.53667 3.35926 0
M  V30 13100 N 1206.13 -1.32992 -0.845635 0
M  V30 13101 C 1207.06 -1.25301 -1.97033 0
M  V30 13102 C 1208.04 -0.134966 -1.69564 0
M  V30 13103 O 1209.23 -0.323629 -1.91484 0
M  V30 13104 C 1206.36 -0.984551 -3.33052 0
M  V30 13105 C 1205.31 -2.06481 -3.749 0
M  V30 13106 C 1204.64 -1.6486 -5.08651 0
M  V30 13107 C 1205.94 -3.48083 -3.89404 0
M  V30 13108 H 1207.63 -2.194 -2.03725 0
M  V30 13109 H 1205.18 -1.05621 -0.978783 0
M  V30 13110 H 1207.13 -0.917269 -4.11296 0
M  V30 13111 H 1205.85 -0.00793116 -3.26599 0
M  V30 13112 H 1204.51 -2.1224 -2.98915 0
M  V30 13113 H 1204.16 -0.659183 -4.98662 0
M  V30 13114 H 1203.86 -2.37145 -5.37621 0
M  V30 13115 H 1205.38 -1.59585 -5.89377 0
M  V30 13116 H 1206.8 -3.44863 -4.57976 0
M  V30 13117 H 1205.19 -4.18796 -4.29802 0
M  V30 13118 H 1206.26 -3.87084 -2.92051 0
M  V30 13119 N 1207.61 1.06304 -1.1635 0
M  V30 13120 C 1208.55 2.13776 -0.869965 0
M  V30 13121 C 1209.52 1.65105 0.181541 0
M  V30 13122 O 1210.71 1.90743 0.0467705 0
M  V30 13123 C 1207.85 3.43034 -0.377077 0
M  V30 13124 C 1206.96 4.0544 -1.4914 0
M  V30 13125 C 1206.1 5.22572 -0.953538 0
M  V30 13126 C 1205.14 5.76961 -2.04407 0
M  V30 13127 N 1204.27 6.85409 -1.52181 0
M  V30 13128 H 1209.11 2.38224 -1.79034 0
M  V30 13129 H 1206.65 1.16882 -0.893136 0
M  V30 13130 H 1208.61 4.17136 -0.0729426 0
M  V30 13131 H 1207.24 3.18804 0.506359 0
M  V30 13132 H 1206.29 3.28886 -1.9115 0
M  V30 13133 H 1207.6 4.41859 -2.31434 0
M  V30 13134 H 1206.76 6.037 -0.602579 0
M  V30 13135 H 1205.5 4.87598 -0.099897 0
M  V30 13136 H 1204.5 4.9447 -2.40373 0
M  V30 13137 H 1205.73 6.13987 -2.90167 0
M  V30 13138 H 1203.67 6.52354 -0.690697 0
M  V30 13139 H 1203.59 7.2077 -2.28092 0
M  V30 13140 H 1204.86 7.70217 -1.19942 0
M  V30 13141 N 1209.09 0.96196 1.24836 0
M  V30 13142 C 1210.03 0.479282 2.27609 0
M  V30 13143 C 1211.03 -0.454224 1.63197 0
M  V30 13144 O 1212.23 -0.330146 1.76946 0
M  V30 13145 H 1208.61 0.13651 0.739506 0
M  V30 13146 H 1210.58 1.35817 2.657 0
M  V30 13147 C 1209.33 -0.220499 3.47 0
M  V30 13148 H 1208.65 0.488694 3.96802 0
M  V30 13149 H 1210.09 -0.522137 4.20773 0
M  V30 13150 C 1208.55 -1.44552 3.04313 0
M  V30 13151 O 1209.08 -2.54287 3.10967 0
M  V30 13152 N 1207.29 -1.3095 2.59423 0
M  V30 13153 H 1206.83 -0.416656 2.54208 0
M  V30 13154 H 1206.79 -2.13029 2.31227 0
M  V30 13155 N 1210.56 -1.39601 0.731392 0
M  V30 13156 C 1211.51 -2.30628 0.0890606 0
M  V30 13157 C 1212.48 -1.49025 -0.73353 0
M  V30 13158 O 1213.67 -1.77722 -0.694234 0
M  V30 13159 C 1210.81 -3.35339 -0.814956 0
M  V30 13160 C 1209.92 -4.31995 0.0198606 0
M  V30 13161 C 1209.05 -5.23774 -0.885095 0
M  V30 13162 C 1208.09 -6.12083 -0.045311 0
M  V30 13163 N 1207.23 -6.9623 -0.906002 0
M  V30 13164 H 1212.07 -2.84988 0.870958 0
M  V30 13165 H 1209.61 -1.40329 0.441166 0
M  V30 13166 H 1211.56 -3.94634 -1.3535 0
M  V30 13167 H 1210.19 -2.82443 -1.56287 0
M  V30 13168 H 1209.25 -3.74349 0.675778 0
M  V30 13169 H 1210.56 -4.94289 0.669346 0
M  V30 13170 H 1209.71 -5.88078 -1.49161 0
M  V30 13171 H 1208.45 -4.61794 -1.56837 0
M  V30 13172 H 1207.46 -5.46795 0.574028 0
M  V30 13173 H 1208.68 -6.76128 0.634692 0
M  V30 13174 H 1206.63 -6.36821 -1.57463 0
M  V30 13175 H 1206.54 -7.55352 -0.312914 0
M  V30 13176 H 1207.81 -7.64967 -1.49819 0
M  V30 13177 N 1212.04 -0.478751 -1.50152 0
M  V30 13178 C 1213.27 0.0710485 -2.06778 0
M  V30 13179 C 1213.69 1.32826 -1.34174 0
M  V30 13180 O 1213.04 1.77758 -0.413304 0
M  V30 13181 C 1213.09 0.351351 -3.59789 0
M  V30 13182 O 1212.81 -0.855998 -4.29656 0
M  V30 13183 C 1214.32 0.947269 -4.33061 0
M  V30 13184 H 1211.54 -0.0105032 -0.670918 0
M  V30 13185 H 1214.08 -0.669732 -1.93222 0
M  V30 13186 H 1212.23 1.04207 -3.73121 0
M  V30 13187 H 1212.65 -0.605252 -5.20996 0
M  V30 13188 H 1214.12 1.09312 -5.41068 0
M  V30 13189 H 1214.6 1.93937 -3.94062 0
M  V30 13190 H 1215.21 0.294693 -4.24278 0
M  V30 13191 N 1213.52 1.56172 -0.211661 0
M  V30 13192 C 1214.94 1.5895 0.143907 0
M  V30 13193 C 1215.14 1.22826 1.59737 0
M  V30 13194 O 1214.19 0.958823 2.33587 0
M  V30 13195 C 1215.51 3.00199 -0.173438 0
M  V30 13196 C 1217.05 3.12789 -0.114877 0
M  V30 13197 C 1217.53 4.56199 -0.405759 0
M  V30 13198 N 1219.02 4.61838 -0.354973 0
M  V30 13199 C 1219.75 5.70721 -0.553671 0
M  V30 13200 N 1219.25 6.88006 -0.813613 0
M  V30 13201 N 1221.04 5.59988 -0.486787 0
M  V30 13202 H 1213.19 1.77931 -1.15993 0
M  V30 13203 H 1215.46 0.826569 -0.464206 0
M  V30 13204 H 1215.16 3.31248 -1.18186 0
M  V30 13205 H 1215.04 3.73651 0.516232 0
M  V30 13206 H 1217.42 2.81543 0.884166 0
M  V30 13207 H 1217.51 2.41688 -0.837875 0
M  V30 13208 H 1217.15 4.88161 -1.40219 0
M  V30 13209 H 1217.08 5.25512 0.338318 0
M  V30 13210 H 1219.57 3.77555 -0.161352 0
M  V30 13211 H 1219.88 7.66894 -0.953594 0
M  V30 13212 H 1218.23 6.89774 -0.850696 0
M  V30 13213 H 1221.42 4.67238 -0.284009 0
M  V30 13214 H 1221.59 6.44781 -0.645051 0
M  V30 13215 N 1215 -0.0618163 1.57479 0
M  V30 13216 C 1216.25 -0.75794 1.86918 0
M  V30 13217 C 1216.56 -1.78234 0.80572 0
M  V30 13218 O 1217.77 -2.52874 0.98827 0
M  V30 13219 C 1216.22 -1.39898 3.31597 0
M  V30 13220 C 1215.83 -0.412621 4.46096 0
M  V30 13221 C 1217.57 -2.07688 3.70224 0
M  V30 13222 C 1215.48 -1.06014 5.8182 0
M  V30 13223 H 1214.41 -0.286825 0.697314 0
M  V30 13224 H 1217.06 -0.0114386 1.83496 0
M  V30 13225 H 1215.44 -2.19408 3.29661 0
M  V30 13226 H 1216.62 0.353392 4.59443 0
M  V30 13227 H 1214.93 0.161383 4.16087 0
M  V30 13228 H 1217.53 -2.56928 4.68927 0
M  V30 13229 H 1217.87 -2.88073 3.00532 0
M  V30 13230 H 1218.41 -1.34996 3.74194 0
M  V30 13231 H 1215.15 -0.296405 6.5483 0
M  V30 13232 H 1214.67 -1.79677 5.72255 0
M  V30 13233 H 1216.34 -1.57708 6.27485 0
M  V30 13234 N 1216.48 -1.54033 -0.333429 0
M  V30 13235 C 1217.41 -1.85719 -1.4153 0
M  V30 13236 C 1218.39 -0.713144 -1.54429 0
M  V30 13237 O 1219.57 -0.965984 -1.68471 0
M  V30 13238 C 1216.7 -2.07578 -2.78439 0
M  V30 13239 C 1215.66 -3.23411 -2.80338 0
M  V30 13240 C 1214.98 -3.30622 -4.2023 0
M  V30 13241 C 1216.28 -4.6129 -2.44968 0
M  V30 13242 H 1217.98 -2.76325 -1.15261 0
M  V30 13243 H 1215.52 -1.32957 -0.55303 0
M  V30 13244 H 1217.48 -2.28329 -3.5418 0
M  V30 13245 H 1216.2 -1.13713 -3.06165 0
M  V30 13246 H 1214.86 -3.02531 -2.07052 0
M  V30 13247 H 1214.51 -2.34333 -4.45081 0
M  V30 13248 H 1214.21 -4.08466 -4.22409 0
M  V30 13249 H 1215.73 -3.53596 -4.97798 0
M  V30 13250 H 1217.14 -4.81987 -3.10421 0
M  V30 13251 H 1215.54 -5.41611 -2.58414 0
M  V30 13252 H 1216.61 -4.6421 -1.40134 0
M  V30 13253 N 1217.95 0.594978 -1.45938 0
M  V30 13254 C 1219.2 1.35561 -1.50834 0
M  V30 13255 C 1219.53 1.93584 -0.154566 0
M  V30 13256 O 1218.81 1.75781 0.832541 0
M  V30 13257 C 1219.09 2.49414 -2.5974 0
M  V30 13258 C 1218.94 1.96506 -4.04605 0
M  V30 13259 C 1220.26 3.51505 -2.64825 0
M  V30 13260 H 1217.38 0.491549 -0.549134 0
M  V30 13261 H 1220.02 0.669536 -1.77812 0
M  V30 13262 H 1218.17 3.07939 -2.36866 0
M  V30 13263 H 1219.85 1.42533 -4.38728 0
M  V30 13264 H 1218.09 1.27418 -4.14665 0
M  V30 13265 H 1218.76 2.78636 -4.76515 0
M  V30 13266 H 1221.24 3.02841 -2.85353 0
M  V30 13267 H 1220.11 4.28641 -3.42867 0
M  V30 13268 H 1220.37 4.07942 -1.70399 0
M  V30 13269 N 1219.43 1.33438 0.838571 0
M  V30 13270 C 1220.66 1.27951 1.62592 0
M  V30 13271 C 1221.08 -0.149502 1.88207 0
M  V30 13272 O 1220.43 -1.09174 1.46244 0
M  V30 13273 C 1220.48 2.0523 2.97595 0
M  V30 13274 O 1220.2 3.42557 2.73105 0
M  V30 13275 C 1221.71 2.06957 3.92025 0
M  V30 13276 H 1218.93 0.440796 0.505905 0
M  V30 13277 H 1221.47 1.75814 1.0445 0
M  V30 13278 H 1219.62 1.61049 3.52338 0
M  V30 13279 H 1220.04 3.82314 3.59076 0
M  V30 13280 H 1221.51 2.65481 4.83967 0
M  V30 13281 H 1221.99 1.0599 4.26219 0
M  V30 13282 H 1222.6 2.51158 3.4322 0
M  V30 13283 N 1220.91 -1.05686 1.16912 0
M  V30 13284 C 1221.86 -2.11584 0.849483 0
M  V30 13285 C 1222.84 -1.59959 -0.173774 0
M  V30 13286 O 1224.04 -1.76978 0.0279436 0
M  V30 13287 C 1221.17 -3.41417 0.359079 0
M  V30 13288 C 1220.25 -3.99852 1.41347 0
M  V30 13289 N 1220.64 -4.32317 2.62557 0
M  V30 13290 C 1218.94 -4.27531 1.27017 0
M  V30 13291 C 1219.64 -4.7885 3.30269 0
M  V30 13292 N 1218.62 -4.78664 2.57647 0
M  V30 13293 H 1222.42 -2.34539 1.77112 0
M  V30 13294 H 1219.93 -1.23286 1.05708 0
M  V30 13295 H 1221.93 -4.1675 0.111666 0
M  V30 13296 H 1220.59 -3.19897 -0.556413 0
M  V30 13297 H 1221.6 -4.22472 2.99563 0
M  V30 13298 H 1218.28 -4.15423 0.415924 0
M  V30 13299 H 1219.67 -5.13123 4.33768 0
M  V30 13300 N 1222.39 -0.968567 -1.24324 0
M  V30 13301 C 1223.61 -0.648166 -1.97012 0
M  V30 13302 C 1224.04 0.775842 -1.71354 0
M  V30 13303 O 1223.4 1.52672 -0.977804 0
M  V30 13304 C 1223.44 -0.929974 -3.48402 0
M  V30 13305 O 1222.55 -0.015854 -4.12397 0
M  V30 13306 H 1221.89 -0.244961 -0.617163 0
M  V30 13307 H 1224.42 -1.29895 -1.58077 0
M  V30 13308 H 1224.43 -0.861863 -3.98793 0
M  V30 13309 H 1223.1 -1.96776 -3.66404 0
M  V30 13310 H 1221.68 -0.137361 -3.72647 0
M  V30 13311 N 1223.87 1.39211 -0.738786 0
M  V30 13312 C 1224.8 2.28145 -0.0499733 0
M  V30 13313 C 1225.78 1.44592 0.743776 0
M  V30 13314 O 1226.96 1.73978 0.725536 0
M  V30 13315 C 1224.09 3.255 0.93634 0
M  V30 13316 C 1223.13 4.25876 0.230621 0
M  V30 13317 S 1223.97 5.24942 -1.0581 0
M  V30 13318 C 1225.12 6.25856 -0.0744844 0
M  V30 13319 H 1225.36 2.86218 -0.804163 0
M  V30 13320 H 1222.89 1.44991 -0.53074 0
M  V30 13321 H 1224.85 3.82109 1.50011 0
M  V30 13322 H 1223.51 2.66439 1.66339 0
M  V30 13323 H 1222.7 4.94438 0.977075 0
M  V30 13324 H 1222.3 3.73087 -0.261216 0
M  V30 13325 H 1224.6 6.73172 0.764616 0
M  V30 13326 H 1225.54 7.04354 -0.727354 0
M  V30 13327 H 1225.95 5.63704 0.299605 0
M  V30 13328 N 1225.34 0.486708 1.49896 0
M  V30 13329 C 1226.57 -0.0622999 2.07306 0
M  V30 13330 C 1226.99 -1.31353 1.3464 0
M  V30 13331 O 1226.35 -1.76861 0.398752 0
M  V30 13332 C 1226.4 -0.313481 3.59235 0
M  V30 13333 O 1225.5 -1.39101 3.88233 0
M  V30 13334 H 1224.85 0.0198885 0.663702 0
M  V30 13335 H 1227.38 0.682232 1.92891 0
M  V30 13336 H 1227.39 -0.549302 4.04285 0
M  V30 13337 H 1226.06 0.600767 4.11538 0
M  V30 13338 H 1224.64 -1.14127 3.55006 0
M  V30 13339 N 1226.82 -1.56058 0.219941 0
M  V30 13340 C 1228.05 -2.02358 -0.416497 0
M  V30 13341 C 1228.46 -1.09903 -1.54007 0
M  V30 13342 O 1227.8 -0.100635 -1.83424 0
M  V30 13343 C 1227.87 -3.45 -1.01072 0
M  V30 13344 C 1227.53 -4.56994 -0.0227891 0
M  V30 13345 C 1228.53 -5.14061 0.776997 0
M  V30 13346 C 1226.21 -5.02209 0.0954981 0
M  V30 13347 C 1228.21 -6.14813 1.68179 0
M  V30 13348 C 1225.89 -6.02799 1.00383 0
M  V30 13349 C 1226.89 -6.58977 1.79552 0
M  V30 13350 O 1226.58 -7.57608 2.68858 0
M  V30 13351 H 1226.31 -0.667581 -0.106355 0
M  V30 13352 H 1228.87 -2.02677 0.333348 0
M  V30 13353 H 1227.1 -3.41745 -1.80962 0
M  V30 13354 H 1228.78 -3.74958 -1.55439 0
M  V30 13355 H 1229.55 -4.79979 0.696053 0
M  V30 13356 H 1225.43 -4.58164 -0.510599 0
M  V30 13357 H 1228.97 -6.58588 2.30017 0
M  V30 13358 H 1224.87 -6.36302 1.08579 0
M  V30 13359 H 1225.64 -7.75124 2.62915 0
M  V30 13360 N 1228.3 0.053464 -1.57509 0
M  V30 13361 C 1229.23 1.06151 -2.07977 0
M  V30 13362 C 1230.21 1.3924 -0.977047 0
M  V30 13363 O 1231.4 1.48549 -1.25087 0
M  V30 13364 C 1228.53 2.36969 -2.53895 0
M  V30 13365 C 1227.48 2.18186 -3.6821 0
M  V30 13366 C 1226.81 3.54551 -4.00247 0
M  V30 13367 C 1228.11 1.588 -4.97574 0
M  V30 13368 H 1229.8 0.641483 -2.92447 0
M  V30 13369 H 1227.35 0.307122 -1.40687 0
M  V30 13370 H 1229.3 3.07797 -2.87817 0
M  V30 13371 H 1228.02 2.80986 -1.66476 0
M  V30 13372 H 1226.68 1.49796 -3.34599 0
M  V30 13373 H 1226.33 3.96171 -3.09932 0
M  V30 13374 H 1226.03 3.42816 -4.77232 0
M  V30 13375 H 1227.56 4.2678 -4.36682 0
M  V30 13376 H 1228.97 2.19515 -5.29609 0
M  V30 13377 H 1227.37 1.57711 -5.79006 0
M  V30 13378 H 1228.44 0.551254 -4.81756 0
M  V30 13379 N 1229.78 1.54207 0.325255 0
M  V30 13380 C 1231.19 1.63587 0.899793 0
M  V30 13381 C 1231.54 0.528851 1.88938 0
M  V30 13382 O 1230.67 -0.33852 2.13736 0
M  V30 13383 C 1231.26 2.9653 1.63877 0
M  V30 13384 C 1229.82 3.08111 2.16205 0
M  V30 13385 C 1228.97 2.59144 0.986903 0
M  V30 13386 H 1231.92 1.58366 0.102883 0
M  V30 13387 H 1231.94 2.86595 2.50287 0
M  V30 13388 H 1231.45 3.7708 0.918279 0
M  V30 13389 H 1229.55 2.32232 2.91375 0
M  V30 13390 H 1229.67 4.13885 2.41322 0
M  V30 13391 H 1228.03 2.14997 1.36558 0
M  V30 13392 H 1228.81 3.4215 0.28076 0
M  V30 13393 N 1231.26 -0.58723 1.46251 0
M  V30 13394 C 1232.19 -1.71103 1.52501 0
M  V30 13395 C 1233.2 -1.57454 0.413772 0
M  V30 13396 O 1234.39 -1.64962 0.681902 0
M  V30 13397 C 1231.49 -3.0931 1.38493 0
M  V30 13398 C 1230.66 -3.49005 2.63655 0
M  V30 13399 C 1229.72 -4.66255 2.43911 0
M  V30 13400 O 1228.75 -4.72344 3.17616 0
M  V30 13401 N 1229.95 -5.60843 1.49784 0
M  V30 13402 H 1232.72 -1.66198 2.49396 0
M  V30 13403 H 1230.28 -0.773087 1.4225 0
M  V30 13404 H 1232.27 -3.85535 1.23064 0
M  V30 13405 H 1230.84 -3.08608 0.497963 0
M  V30 13406 H 1230.06 -2.62533 2.94058 0
M  V30 13407 H 1231.35 -3.72291 3.4681 0
M  V30 13408 H 1230.75 -5.58656 0.889972 0
M  V30 13409 H 1229.3 -6.36517 1.4032 0
M  V30 13410 N 1232.74 -1.33881 -0.831482 0
M  V30 13411 C 1233.98 -1.25942 -1.58955 0
M  V30 13412 C 1234.31 0.172542 -1.93432 0
M  V30 13413 O 1233.59 1.11577 -1.59314 0
M  V30 13414 C 1233.87 -2.14193 -2.89471 0
M  V30 13415 C 1233.73 -3.65883 -2.61628 0
M  V30 13416 C 1235.04 -2.02071 -3.90967 0
M  V30 13417 H 1232.16 -0.458841 -0.576744 0
M  V30 13418 H 1234.81 -1.64052 -0.958482 0
M  V30 13419 H 1232.96 -1.81821 -3.43327 0
M  V30 13420 H 1234.63 -4.08581 -2.14148 0
M  V30 13421 H 1232.87 -3.87397 -1.95208 0
M  V30 13422 H 1233.54 -4.22988 -3.54662 0
M  V30 13423 H 1236.02 -2.30476 -3.46439 0
M  V30 13424 H 1234.89 -2.66059 -4.80108 0
M  V30 13425 H 1235.15 -0.995121 -4.30755 0
M  V30 13426 N 1234.21 1.05064 -1.1747 0
M  V30 13427 C 1235.49 1.74999 -0.873776 0
M  V30 13428 C 1235.87 2.01615 0.625676 0
M  V30 13429 O 1235.22 1.65324 1.57734 0
M  V30 13430 C 1235.43 3.04231 -1.7101 0
M  V30 13431 C 1236.78 3.78157 -1.93087 0
M  V30 13432 O 1237.8 3.14104 -1.6798 0
M  V30 13433 O 1236.66 4.93255 -2.3529 0
M  V30 13434 H 1233.75 0.761042 -0.323641 0
M  V30 13435 H 1236.3 1.1122 -1.28172 0
M  V30 13436 H 1235.07 2.80621 -2.72704 0
M  V30 13437 H 1234.69 3.75746 -1.30002 0
M  V30 13438 N 1235.69 0.975146 1.23809 0
M  V30 13439 C 1236.94 0.642074 1.92367 0
M  V30 13440 C 1237.27 -0.82164 1.75962 0
M  V30 13441 O 1236.55 -1.59205 1.11732 0
M  V30 13442 C 1236.83 1.02677 3.45151 0
M  V30 13443 C 1236.68 2.54773 3.7069 0
M  V30 13444 C 1238 0.5668 4.36435 0
M  V30 13445 H 1235.12 0.234735 0.698619 0
M  V30 13446 H 1237.76 1.21549 1.46034 0
M  V30 13447 H 1235.91 0.538846 3.84745 0
M  V30 13448 H 1237.58 3.11099 3.4061 0
M  V30 13449 H 1235.83 2.97641 3.15583 0
M  V30 13450 H 1236.5 2.7674 4.77618 0
M  V30 13451 H 1238.97 0.985635 4.04258 0
M  V30 13452 H 1237.85 0.864458 5.4205 0
M  V30 13453 H 1238.11 -0.532989 4.38875 0
M  V30 13454 N 1237.17 -1.38817 0.746158 0
M  V30 13455 C 1238.42 -1.99519 0.295839 0
M  V30 13456 C 1238.73 -1.59897 -1.12661 0
M  V30 13457 O 1239.94 -2.13514 -1.67702 0
M  V30 13458 C 1238.39 -3.56712 0.477984 0
M  V30 13459 C 1238 -4.0529 1.90904 0
M  V30 13460 C 1239.75 -4.24405 0.0900039 0
M  V30 13461 C 1237.65 -5.55097 2.04014 0
M  V30 13462 H 1236.58 -0.746389 0.106861 0
M  V30 13463 H 1239.23 -1.58676 0.921637 0
M  V30 13464 H 1237.62 -3.95406 -0.216884 0
M  V30 13465 H 1238.79 -3.77904 2.63677 0
M  V30 13466 H 1237.1 -3.50297 2.25125 0
M  V30 13467 H 1239.7 -5.3444 0.16682 0
M  V30 13468 H 1240.04 -4.05166 -0.956349 0
M  V30 13469 H 1240.58 -3.90924 0.736446 0
M  V30 13470 H 1237.32 -5.7923 3.06877 0
M  V30 13471 H 1236.84 -5.8425 1.35692 0
M  V30 13472 H 1238.52 -6.20682 1.82656 0
M  V30 13473 N 1238.65 -0.49465 -1.49636 0
M  V30 13474 C 1239.9 0.0539277 -2.01628 0
M  V30 13475 C 1240.21 1.38634 -1.37986 0
M  V30 13476 O 1241.42 2.02123 -1.81269 0
M  V30 13477 C 1239.87 0.146582 -3.59601 0
M  V30 13478 C 1239.48 -1.1788 -4.32213 0
M  V30 13479 C 1241.22 0.645862 -4.19558 0
M  V30 13480 C 1239.13 -1.04866 -5.82028 0
M  V30 13481 H 1238.06 0.0239278 -0.75362 0
M  V30 13482 H 1240.71 -0.633112 -1.72232 0
M  V30 13483 H 1239.09 0.897931 -3.85685 0
M  V30 13484 H 1240.27 -1.94295 -4.17835 0
M  V30 13485 H 1238.58 -1.61102 -3.83973 0
M  V30 13486 H 1241.18 0.76064 -5.29262 0
M  V30 13487 H 1241.52 1.64313 -3.82501 0
M  V30 13488 H 1242.06 -0.04877 -3.9777 0
M  V30 13489 H 1238.79 -2.02 -6.23599 0
M  V30 13490 H 1238.31 -0.325293 -5.98917 0
M  V30 13491 H 1239.99 -0.724799 -6.42927 0
M  V30 13492 N 1240.13 1.55939 -0.228214 0
M  V30 13493 C 1241.37 1.9877 0.402272 0
M  V30 13494 C 1241.7 1.11587 1.5894 0
M  V30 13495 O 1240.98 0.175032 1.93711 0
M  V30 13496 C 1241.26 3.50396 0.830353 0
M  V30 13497 C 1241.12 4.4835 -0.360876 0
M  V30 13498 C 1242.43 4.06602 1.68413 0
M  V30 13499 H 1239.55 0.722646 0.144746 0
M  V30 13500 H 1242.2 1.87186 -0.325784 0
M  V30 13501 H 1240.35 3.60398 1.4507 0
M  V30 13502 H 1242.02 4.5035 -0.999113 0
M  V30 13503 H 1240.26 4.21946 -1.00719 0
M  V30 13504 H 1240.93 5.51997 -0.0183074 0
M  V30 13505 H 1243.41 3.99585 1.16064 0
M  V30 13506 H 1242.28 5.12998 1.95254 0
M  V30 13507 H 1242.54 3.53897 2.64971 0
M  V30 13508 N 1241.6 -0.0451101 1.57535 0
M  V30 13509 C 1242.54 -1.08327 2.00849 0
M  V30 13510 C 1243.52 -1.36083 0.889957 0
M  V30 13511 O 1244.7 -1.49009 1.15449 0
M  V30 13512 C 1241.83 -2.42171 2.36793 0
M  V30 13513 C 1240.87 -2.30378 3.58926 0
M  V30 13514 S 1241.71 -1.67244 5.08714 0
M  V30 13515 C 1242.86 -3.02611 5.47885 0
M  V30 13516 H 1243.09 -0.714274 2.88592 0
M  V30 13517 H 1240.63 -0.254561 1.52287 0
M  V30 13518 H 1242.59 -3.1915 2.58174 0
M  V30 13519 H 1241.25 -2.76224 1.49531 0
M  V30 13520 H 1240.44 -3.29146 3.81679 0
M  V30 13521 H 1240.04 -1.6154 3.37314 0
M  V30 13522 H 1242.33 -3.98941 5.47587 0
M  V30 13523 H 1243.28 -2.84609 6.48385 0
M  V30 13524 H 1243.68 -3.04445 4.75367 0
M  V30 13525 N 1243.08 -1.54377 -0.317073 0
M  V30 13526 C 1244.31 -1.77184 -1.07798 0
M  V30 13527 C 1244.73 -0.52204 -1.80711 0
M  V30 13528 O 1244.09 0.52672 -1.7348 0
M  V30 13529 C 1244.14 -2.96887 -2.04671 0
M  V30 13530 O 1243.24 -2.68887 -3.12688 0
M  V30 13531 H 1242.58 -0.586937 -0.310485 0
M  V30 13532 H 1245.11 -2.01419 -0.35939 0
M  V30 13533 H 1245.12 -3.24414 -2.47426 0
M  V30 13534 H 1243.8 -3.87518 -1.51005 0
M  V30 13535 H 1242.38 -2.52329 -2.74562 0
M  V30 13536 N 1244.56 0.579466 -1.4656 0
M  V30 13537 C 1245.81 1.33492 -1.51738 0
M  V30 13538 C 1246.13 1.94241 -0.171926 0
M  V30 13539 O 1245.4 1.78737 0.801875 0
M  V30 13540 H 1243.98 0.49565 -0.558874 0
M  V30 13541 H 1246.64 0.678394 -1.82712 0
M  V30 13542 H 1245.74 2.13995 -2.27183 0
M  V30 13543 N 1246.04 1.3432 0.824371 0
M  V30 13544 C 1247.29 1.26345 1.57738 0
M  V30 13545 C 1247.61 -0.166836 1.94285 0
M  V30 13546 O 1246.88 -1.09911 1.62162 0
M  V30 13547 H 1245.46 0.46466 0.584893 0
M  V30 13548 H 1248.12 1.68214 0.984373 0
M  V30 13549 H 1247.22 1.8672 2.50084 0
M  V30 13550 N 1247.52 -1.0444 1.18026 0
M  V30 13551 C 1248.46 -2.12365 0.903865 0
M  V30 13552 C 1249.43 -1.65373 -0.155252 0
M  V30 13553 O 1250.62 -1.90793 -0.016419 0
M  V30 13554 C 1247.76 -3.4239 0.431603 0
M  V30 13555 C 1246.87 -4.03016 1.55571 0
M  V30 13556 C 1246.01 -5.20988 1.03655 0
M  V30 13557 C 1245.05 -5.73636 2.1356 0
M  V30 13558 N 1244.18 -6.82901 1.63066 0
M  V30 13559 H 1249.02 -2.35346 1.82802 0
M  V30 13560 H 1246.56 -1.15447 0.911618 0
M  V30 13561 H 1248.52 -4.16967 0.139296 0
M  V30 13562 H 1247.15 -3.19569 -0.455576 0
M  V30 13563 H 1246.2 -3.25803 1.96358 0
M  V30 13564 H 1247.51 -4.38122 2.38434 0
M  V30 13565 H 1246.67 -6.02665 0.698546 0
M  V30 13566 H 1245.4 -4.87377 0.177457 0
M  V30 13567 H 1244.41 -4.90583 2.4821 0
M  V30 13568 H 1245.63 -6.09293 2.99899 0
M  V30 13569 H 1243.58 -6.51172 0.794394 0
M  V30 13570 H 1243.5 -7.1705 2.3953 0
M  V30 13571 H 1244.77 -7.68211 1.32181 0
M  V30 13572 N 1248.99 -0.981699 -1.2329 0
M  V30 13573 C 1250.24 -0.646818 -1.91048 0
M  V30 13574 C 1250.56 0.823479 -1.77421 0
M  V30 13575 O 1251.76 1.26948 -2.39993 0
M  V30 13576 C 1250.22 -1.1063 -3.42475 0
M  V30 13577 C 1249.83 -2.60103 -3.6476 0
M  V30 13578 C 1251.57 -0.845227 -4.16 0
M  V30 13579 C 1249.48 -2.99712 -5.0983 0
M  V30 13580 H 1248.41 -0.238221 -0.715379 0
M  V30 13581 H 1251.06 -1.18977 -1.39702 0
M  V30 13582 H 1249.44 -0.491554 -3.92937 0
M  V30 13583 H 1250.61 -3.26828 -3.24839 0
M  V30 13584 H 1248.93 -2.83972 -3.04547 0
M  V30 13585 H 1251.53 -1.11699 -5.22903 0
M  V30 13586 H 1251.87 0.218661 -4.15725 0
M  V30 13587 H 1252.4 -1.42162 -3.7153 0
M  V30 13588 H 1249.14 -4.0523 -5.15237 0
M  V30 13589 H 1248.66 -2.37683 -5.50697 0
M  V30 13590 H 1250.34 -2.9039 -5.78172 0
M  V30 13591 N 1250.47 1.3842 -0.753509 0
M  V30 13592 C 1251.7 2.04929 -0.319174 0
M  V30 13593 C 1252.12 1.56457 1.04416 0
M  V30 13594 O 1251.48 0.716527 1.6654 0
M  V30 13595 C 1251.53 3.58887 -0.351054 0
M  V30 13596 O 1250.63 4.07166 0.654963 0
M  V30 13597 H 1249.97 0.648782 -0.141343 0
M  V30 13598 H 1252.5 1.77096 -1.02461 0
M  V30 13599 H 1252.51 4.075 -0.201907 0
M  V30 13600 H 1251.19 3.93525 -1.34576 0
M  V30 13601 H 1249.77 3.69921 0.470435 0
M  V30 13602 N 1251.95 0.502579 1.49372 0
M  V30 13603 C 1252.86 -0.279532 2.32929 0
M  V30 13604 C 1253.88 -0.965806 1.44735 0
M  V30 13605 O 1255.05 -0.946839 1.77755 0
M  V30 13606 C 1252.12 -1.32913 3.20211 0
M  V30 13607 C 1251.18 -0.656121 4.24256 0
M  V30 13608 C 1250.41 -1.65571 5.07368 0
M  V30 13609 O 1250.63 -2.88571 4.92019 0
M  V30 13610 O 1249.57 -1.21016 5.89609 0
M  V30 13611 H 1253.39 0.404427 3.00995 0
M  V30 13612 H 1250.98 0.263888 1.47051 0
M  V30 13613 H 1252.86 -1.93635 3.74277 0
M  V30 13614 H 1251.54 -1.99598 2.54837 0
M  V30 13615 H 1250.44 -0.00911489 3.74099 0
M  V30 13616 H 1251.78 -0.0316802 4.9219 0
M  V30 13617 N 1253.43 -1.55816 0.23648 0
M  V30 13618 C 1254.36 -2.16945 -0.707826 0
M  V30 13619 C 1255.34 -1.11832 -1.18036 0
M  V30 13620 O 1256.52 -1.40166 -1.26039 0
M  V30 13621 C 1253.65 -2.76175 -1.96074 0
M  V30 13622 C 1252.7 -3.9425 -1.62695 0
M  V30 13623 S 1253.53 -5.30381 -0.738663 0
M  V30 13624 C 1254.69 -5.93059 -2.00081 0
M  V30 13625 H 1254.92 -2.96703 -0.188303 0
M  V30 13626 H 1252.45 -1.54386 0.0210284 0
M  V30 13627 H 1254.41 -3.10938 -2.68007 0
M  V30 13628 H 1253.07 -1.96382 -2.45138 0
M  V30 13629 H 1252.26 -4.34247 -2.55823 0
M  V30 13630 H 1251.87 -3.6071 -0.988129 0
M  V30 13631 H 1254.16 -6.09941 -2.94921 0
M  V30 13632 H 1255.1 -6.88739 -1.64449 0
M  V30 13633 H 1255.51 -5.2203 -2.14815 0
M  V30 13634 N 1254.91 0.036755 -1.57557 0
M  V30 13635 C 1256.15 0.727665 -1.88546 0
M  V30 13636 C 1256.48 1.76304 -0.833179 0
M  V30 13637 O 1255.75 1.9544 0.13414 0
M  V30 13638 H 1254.33 0.271744 -0.695819 0
M  V30 13639 H 1256.99 0.00452915 -1.94899 0
M  V30 13640 H 1256.08 1.22205 -2.8718 0
M  V30 13641 N 1256.39 1.54543 0.308881 0
M  V30 13642 C 1257.61 1.77753 1.06857 0
M  V30 13643 C 1258.04 0.531616 1.80431 0
M  V30 13644 O 1257.39 -0.517513 1.73757 0
M  V30 13645 C 1257.44 2.97968 2.03094 0
M  V30 13646 O 1256.55 2.70541 3.11257 0
M  V30 13647 H 1255.89 0.588576 0.307368 0
M  V30 13648 H 1258.42 2.01607 0.348703 0
M  V30 13649 H 1258.43 3.25722 2.45702 0
M  V30 13650 H 1257.1 3.88314 1.48948 0
M  V30 13651 H 1255.68 2.53781 2.7322 0
M  V30 13652 N 1257.86 -0.571685 1.46866 0
M  V30 13653 C 1259.09 -1.35327 1.56109 0
M  V30 13654 C 1259.5 -1.88086 0.20504 0
M  V30 13655 O 1258.84 -1.64896 -0.809626 0
M  V30 13656 C 1258.91 -2.56939 2.51441 0
M  V30 13657 C 1258.57 -2.2557 3.97451 0
M  V30 13658 C 1259.57 -1.83737 4.86351 0
M  V30 13659 C 1257.25 -2.37375 4.42672 0
M  V30 13660 C 1259.25 -1.54118 6.18487 0
M  V30 13661 C 1256.93 -2.07368 5.7484 0
M  V30 13662 C 1257.93 -1.65806 6.62569 0
M  V30 13663 O 1257.62 -1.36173 7.92283 0
M  V30 13664 H 1257.35 -0.419368 0.530194 0
M  V30 13665 H 1259.91 -0.700859 1.93073 0
M  V30 13666 H 1258.14 -3.25023 2.09517 0
M  V30 13667 H 1259.82 -3.19012 2.5097 0
M  V30 13668 H 1260.59 -1.74122 4.52666 0
M  V30 13669 H 1256.47 -2.68686 3.74605 0
M  V30 13670 H 1260.01 -1.21603 6.8692 0
M  V30 13671 H 1255.91 -2.16611 6.08071 0
M  V30 13672 H 1256.68 -1.49926 8.04652 0
M  V30 13673 N 1259.34 -1.34755 -0.817236 0
M  V30 13674 C 1260.27 -1.22648 -1.93624 0
M  V30 13675 C 1261.29 -0.152226 -1.62087 0
M  V30 13676 O 1262.48 -0.404578 -1.73855 0
M  V30 13677 C 1259.58 -0.863519 -3.27714 0
M  V30 13678 C 1258.75 -2.03394 -3.87233 0
M  V30 13679 C 1257.81 -1.64846 -4.99712 0
M  V30 13680 O 1256.83 -2.3658 -5.17705 0
M  V30 13681 N 1258.04 -0.565909 -5.77735 0
M  V30 13682 H 1260.8 -2.19051 -2.0454 0
M  V30 13683 H 1258.36 -1.27785 -0.994113 0
M  V30 13684 H 1260.35 -0.58733 -4.00415 0
M  V30 13685 H 1258.92 0.0104987 -3.12598 0
M  V30 13686 H 1258.14 -2.47454 -3.06856 0
M  V30 13687 H 1259.43 -2.81655 -4.23731 0
M  V30 13688 H 1258.83 0.030313 -5.65692 0
M  V30 13689 H 1257.39 -0.349467 -6.50862 0
M  V30 13690 N 1260.82 1.03812 -1.18578 0
M  V30 13691 C 1261.73 2.15371 -0.930182 0
M  V30 13692 C 1262.75 1.73673 0.106599 0
M  V30 13693 O 1263.92 2.01257 -0.0759054 0
M  V30 13694 C 1260.99 3.43606 -0.462151 0
M  V30 13695 C 1260.05 3.99671 -1.5672 0
M  V30 13696 C 1259.28 5.21785 -1.12141 0
M  V30 13697 O 1259.5 5.70397 0.0188357 0
M  V30 13698 O 1258.44 5.70449 -1.9202 0
M  V30 13699 H 1262.26 2.39791 -1.86371 0
M  V30 13700 H 1259.85 1.13814 -0.967819 0
M  V30 13701 H 1261.73 4.2088 -0.20934 0
M  V30 13702 H 1260.41 3.20654 0.443052 0
M  V30 13703 H 1259.31 3.23774 -1.87406 0
M  V30 13704 H 1260.65 4.2697 -2.44862 0
M  V30 13705 N 1262.3 0.988223 1.22768 0
M  V30 13706 C 1263.23 0.554478 2.26821 0
M  V30 13707 C 1264.21 -0.416293 1.64927 0
M  V30 13708 O 1265.39 -0.30795 1.91743 0
M  V30 13709 C 1262.52 -0.136266 3.47033 0
M  V30 13710 C 1261.48 0.752575 4.21332 0
M  V30 13711 C 1260.8 -0.0708236 5.34653 0
M  V30 13712 C 1262.1 2.04717 4.80508 0
M  V30 13713 H 1263.8 1.42423 2.63355 0
M  V30 13714 H 1261.34 0.686267 1.26595 0
M  V30 13715 H 1263.3 -0.451068 4.18979 0
M  V30 13716 H 1262.02 -1.04053 3.09581 0
M  V30 13717 H 1260.68 1.05095 3.51213 0
M  V30 13718 H 1260.33 -0.975859 4.93443 0
M  V30 13719 H 1260.03 0.520835 5.85287 0
M  V30 13720 H 1261.55 -0.379828 6.09417 0
M  V30 13721 H 1262.97 1.79663 5.44421 0
M  V30 13722 H 1261.36 2.58726 5.41462 0
M  V30 13723 H 1262.43 2.72896 4.00819 0
M  V30 13724 N 1263.78 -1.38018 0.760839 0
M  V30 13725 C 1264.71 -2.32995 0.153557 0
M  V30 13726 C 1265.69 -1.55234 -0.695448 0
M  V30 13727 O 1266.87 -1.8352 -0.635148 0
M  V30 13728 C 1264 -3.39437 -0.734811 0
M  V30 13729 C 1262.96 -4.27998 0.0120287 0
M  V30 13730 C 1262.28 -5.25359 -0.995067 0
M  V30 13731 C 1263.58 -5.08687 1.18468 0
M  V30 13732 H 1265.28 -2.8403 0.946956 0
M  V30 13733 H 1262.82 -1.36562 0.456816 0
M  V30 13734 H 1264.77 -4.0485 -1.16938 0
M  V30 13735 H 1263.5 -2.86901 -1.56061 0
M  V30 13736 H 1262.16 -3.64102 0.427254 0
M  V30 13737 H 1261.81 -4.69108 -1.81512 0
M  V30 13738 H 1261.51 -5.85469 -0.499969 0
M  V30 13739 H 1263.03 -5.93648 -1.4288 0
M  V30 13740 H 1264.44 -5.67299 0.8273 0
M  V30 13741 H 1262.84 -5.78068 1.61112 0
M  V30 13742 H 1263.91 -4.42 1.99409 0
M  V30 13743 N 1265.25 -0.510493 -1.49103 0
M  V30 13744 C 1266.22 0.251915 -2.27811 0
M  V30 13745 C 1267.22 0.885432 -1.34226 0
M  V30 13746 O 1268.41 0.748494 -1.573 0
M  V30 13747 C 1265.54 1.3624 -3.12492 0
M  V30 13748 H 1266.73 -0.438872 -2.96671 0
M  V30 13749 H 1264.28 -0.265767 -1.54024 0
M  V30 13750 H 1265.02 2.08705 -2.48219 0
M  V30 13751 H 1264.8 0.913485 -3.81311 0
M  V30 13752 H 1266.29 1.89919 -3.71915 0
M  V30 13753 N 1266.73 1.55688 -0.24474 0
M  V30 13754 C 1268.15 1.59219 0.110159 0
M  V30 13755 C 1268.35 1.26187 1.57096 0
M  V30 13756 O 1267.4 1.00815 2.31501 0
M  V30 13757 C 1268.72 2.99764 -0.237075 0
M  V30 13758 C 1270.26 3.12475 -0.181198 0
M  V30 13759 C 1270.74 4.55236 -0.502435 0
M  V30 13760 N 1272.23 4.60981 -0.452855 0
M  V30 13761 C 1272.97 5.69418 -0.674605 0
M  V30 13762 N 1272.46 6.86125 -0.959366 0
M  V30 13763 N 1274.25 5.5883 -0.605459 0
M  V30 13764 H 1266.41 1.7543 -1.19741 0
M  V30 13765 H 1268.67 0.816537 -0.481634 0
M  V30 13766 H 1268.37 3.28666 -1.25185 0
M  V30 13767 H 1268.25 3.74662 0.436859 0
M  V30 13768 H 1270.64 2.83355 0.824248 0
M  V30 13769 H 1270.72 2.39857 -0.888952 0
M  V30 13770 H 1270.36 4.85077 -1.50543 0
M  V30 13771 H 1270.29 5.26111 0.226773 0
M  V30 13772 H 1272.78 3.77128 -0.241401 0
M  V30 13773 H 1273.09 7.64699 -1.11605 0
M  V30 13774 H 1271.44 6.87814 -0.996816 0
M  V30 13775 H 1274.63 4.6653 -0.383053 0
M  V30 13776 H 1274.8 6.43268 -0.781673 0
M  V30 13777 N 1268.21 -0.0283989 1.57574 0
M  V30 13778 C 1269.49 -0.754527 1.80461 0
M  V30 13779 C 1269.87 -1.93539 0.842966 0
M  V30 13780 O 1269.21 -2.28212 -0.114714 0
M  V30 13781 C 1269.42 -1.18694 3.28196 0
M  V30 13782 C 1270.77 -1.60257 3.93196 0
M  V30 13783 O 1271.8 -1.2815 3.32349 0
M  V30 13784 O 1270.66 -2.19853 5.00327 0
M  V30 13785 H 1267.75 -0.364936 0.742126 0
M  V30 13786 H 1270.3 -0.00512589 1.69699 0
M  V30 13787 H 1269.07 -0.34398 3.89785 0
M  V30 13788 H 1268.69 -1.99633 3.43849 0
M  V30 13789 N 1269.69 -1.54705 -0.300681 0
M  V30 13790 C 1270.94 -1.73658 -1.0338 0
M  V30 13791 C 1271.26 -0.525447 -1.87787 0
M  V30 13792 O 1270.53 0.460269 -1.90416 0
M  V30 13793 H 1269.11 -0.640338 -0.384677 0
M  V30 13794 H 1271.77 -1.92059 -0.331588 0
M  V30 13795 H 1270.86 -2.62595 -1.68672 0
M  V30 13796 N 1271.17 0.563888 -1.47167 0
M  V30 13797 C 1272.13 1.65359 -1.58711 0
M  V30 13798 C 1273.13 1.53999 -0.46272 0
M  V30 13799 O 1274.32 1.58277 -0.727595 0
M  V30 13800 C 1271.45 3.04874 -1.52529 0
M  V30 13801 H 1272.64 1.56475 -2.55843 0
M  V30 13802 H 1270.2 0.783271 -1.35257 0
M  V30 13803 H 1270.93 3.19297 -0.56747 0
M  V30 13804 H 1270.72 3.14528 -2.34125 0
M  V30 13805 H 1272.21 3.84164 -1.63731 0
M  V30 13806 N 1272.64 1.35187 0.810078 0
M  V30 13807 C 1273.89 1.28264 1.56699 0
M  V30 13808 C 1274.22 -0.143906 1.93967 0
M  V30 13809 O 1273.47 -1.10832 1.61291 0
M  V30 13810 C 1273.77 2.13135 2.86894 0
M  V30 13811 C 1273.44 3.61974 2.6886 0
M  V30 13812 C 1272.1 4.02545 2.63649 0
M  V30 13813 C 1274.45 4.5643 2.51636 0
M  V30 13814 C 1271.78 5.35745 2.39154 0
M  V30 13815 C 1274.13 5.89824 2.2867 0
M  V30 13816 C 1272.8 6.29544 2.2188 0
M  V30 13817 H 1272.07 0.469353 0.573401 0
M  V30 13818 H 1274.71 1.67051 0.936282 0
M  V30 13819 H 1273.02 1.67218 3.54324 0
M  V30 13820 H 1274.72 2.05117 3.44569 0
M  V30 13821 H 1271.31 3.29777 2.73761 0
M  V30 13822 H 1275.49 4.25974 2.54677 0
M  V30 13823 H 1270.75 5.65524 2.32363 0
M  V30 13824 H 1274.92 6.62597 2.14333 0
M  V30 13825 H 1272.55 7.32689 2.0266 0
M  V30 13826 N 1274.12 -1.03182 1.19127 0
M  V30 13827 C 1275.09 -2.09559 0.928307 0
M  V30 13828 C 1276.09 -1.60548 -0.0899992 0
M  V30 13829 O 1277.28 -1.736 0.144422 0
M  V30 13830 C 1274.41 -3.38609 0.394561 0
M  V30 13831 H 1275.6 -2.34321 1.87173 0
M  V30 13832 H 1273.15 -1.19746 1.00452 0
M  V30 13833 H 1273.89 -3.19515 -0.555046 0
M  V30 13834 H 1273.67 -3.75502 1.12873 0
M  V30 13835 H 1275.16 -4.16969 0.229569 0
M  V30 13836 N 1275.6 -0.99472 -1.22242 0
M  V30 13837 C 1276.51 -0.555502 -2.27928 0
M  V30 13838 C 1277.53 0.396584 -1.6942 0
M  V30 13839 O 1278.7 0.262965 -1.99676 0
M  V30 13840 C 1275.77 0.121121 -3.46488 0
M  V30 13841 C 1274.83 -0.874155 -4.20306 0
M  V30 13842 C 1274.06 -0.229726 -5.33205 0
M  V30 13843 O 1274.28 0.975935 -5.61989 0
M  V30 13844 O 1273.22 -0.935501 -5.94586 0
M  V30 13845 H 1277.04 -1.4348 -2.6767 0
M  V30 13846 H 1274.63 -0.763061 -1.28444 0
M  V30 13847 H 1276.51 0.500043 -4.18423 0
M  V30 13848 H 1275.19 0.974959 -3.08668 0
M  V30 13849 H 1274.09 -1.30404 -3.50636 0
M  V30 13850 H 1275.43 -1.69725 -4.62011 0
M  V30 13851 N 1277.08 1.37613 -0.768148 0
M  V30 13852 C 1278.33 1.99779 -0.330841 0
M  V30 13853 C 1278.65 1.60978 1.09162 0
M  V30 13854 O 1277.91 0.845778 1.7648 0
M  V30 13855 C 1278.21 3.54952 -0.417608 0
M  V30 13856 C 1277.87 4.13509 -1.7978 0
M  V30 13857 C 1276.54 4.29216 -2.17549 0
M  V30 13858 C 1278.89 4.45662 -2.7025 0
M  V30 13859 C 1276.22 4.74376 -3.45231 0
M  V30 13860 C 1278.57 4.92245 -3.97338 0
M  V30 13861 C 1277.23 5.06157 -4.35157 0
M  V30 13862 H 1276.5 0.731044 -0.121063 0
M  V30 13863 H 1279.15 1.64437 -0.98147 0
M  V30 13864 H 1277.45 3.90519 0.316567 0
M  V30 13865 H 1279.15 4.00954 -0.0606037 0
M  V30 13866 H 1275.74 4.01709 -1.49425 0
M  V30 13867 H 1279.92 4.33116 -2.42332 0
M  V30 13868 H 1275.18 4.83333 -3.74431 0
M  V30 13869 H 1279.35 5.16091 -4.67572 0
M  V30 13870 H 1276.98 5.4091 -5.34154 0
M  V30 13871 N 1278.56 0.518393 1.4883 0
M  V30 13872 C 1279.49 -0.239685 2.32267 0
M  V30 13873 C 1280.47 -0.94613 1.41359 0
M  V30 13874 O 1281.65 -0.934162 1.70256 0
M  V30 13875 C 1278.78 -1.29411 3.22289 0
M  V30 13876 C 1277.74 -0.706504 4.22129 0
M  V30 13877 C 1277.06 -1.86273 5.01205 0
M  V30 13878 C 1278.36 0.314079 5.21355 0
M  V30 13879 H 1280.06 0.4568 2.95895 0
M  V30 13880 H 1277.6 0.221126 1.42292 0
M  V30 13881 H 1279.56 -1.8323 3.7948 0
M  V30 13882 H 1278.28 -2.02001 2.56638 0
M  V30 13883 H 1276.94 -0.189924 3.66108 0
M  V30 13884 H 1276.59 -2.57674 4.31988 0
M  V30 13885 H 1276.29 -1.47554 5.68772 0
M  V30 13886 H 1277.81 -2.40492 5.61245 0
M  V30 13887 H 1279.22 -0.136604 5.73137 0
M  V30 13888 H 1277.62 0.618026 5.96909 0
M  V30 13889 H 1278.69 1.22394 4.69199 0
M  V30 13890 N 1280.03 -1.55556 0.252993 0
M  V30 13891 C 1281.45 -1.59276 -0.101714 0
M  V30 13892 C 1281.65 -1.27018 -1.56424 0
M  V30 13893 O 1280.71 -1.02042 -2.30963 0
M  V30 13894 C 1282.02 -2.99634 0.252969 0
M  V30 13895 C 1283.57 -3.12375 0.197767 0
M  V30 13896 C 1284.04 -4.54963 0.52657 0
M  V30 13897 N 1285.53 -4.60734 0.477296 0
M  V30 13898 C 1286.27 -5.69052 0.704793 0
M  V30 13899 N 1285.76 -6.85607 0.99574 0
M  V30 13900 N 1287.56 -5.58501 0.635086 0
M  V30 13901 H 1279.71 -1.74793 1.2067 0
M  V30 13902 H 1281.97 -0.813971 0.485958 0
M  V30 13903 H 1281.68 -3.27998 1.26926 0
M  V30 13904 H 1281.55 -3.74888 -0.416984 0
M  V30 13905 H 1283.94 -2.83788 -0.809209 0
M  V30 13906 H 1284.02 -2.39382 0.901659 0
M  V30 13907 H 1283.66 -4.84271 1.53113 0
M  V30 13908 H 1283.59 -5.26224 -0.198869 0
M  V30 13909 H 1286.08 -3.76995 0.261398 0
M  V30 13910 H 1286.4 -7.64096 1.15659 0
M  V30 13911 H 1284.74 -6.87276 1.03328 0
M  V30 13912 H 1287.93 -4.6632 0.407789 0
M  V30 13913 H 1288.11 -6.42845 0.815777 0
M  V30 13914 N 1281.51 0.0200419 -1.57587 0
M  V30 13915 C 1282.74 0.720556 -1.93947 0
M  V30 13916 C 1283.16 1.68407 -0.853499 0
M  V30 13917 O 1282.51 1.81713 0.169337 0
M  V30 13918 C 1282.56 1.46982 -3.3027 0
M  V30 13919 O 1282.28 0.544971 -4.34697 0
M  V30 13920 C 1283.79 2.26667 -3.80968 0
M  V30 13921 H 1281.01 0.201956 -0.639887 0
M  V30 13922 H 1283.55 -0.0251175 -2.04485 0
M  V30 13923 H 1281.7 2.16729 -3.21103 0
M  V30 13924 H 1282.12 1.07139 -5.13441 0
M  V30 13925 H 1283.59 2.74621 -4.78839 0
M  V30 13926 H 1284.07 3.0848 -3.12629 0
M  V30 13927 H 1284.68 1.61976 -3.93248 0
M  V30 13928 N 1282.99 1.54862 0.292472 0
M  V30 13929 C 1284.22 1.78291 1.04383 0
M  V30 13930 C 1284.63 0.546703 1.81129 0
M  V30 13931 O 1283.97 -0.493286 1.76953 0
M  V30 13932 C 1284.03 2.94321 2.06435 0
M  V30 13933 C 1283.7 4.32095 1.48806 0
M  V30 13934 C 1284.69 5.11808 0.91369 0
M  V30 13935 C 1282.38 4.78714 1.52112 0
M  V30 13936 C 1284.37 6.36266 0.380053 0
M  V30 13937 C 1282.06 6.03132 0.983613 0
M  V30 13938 C 1283.06 6.81744 0.41406 0
M  V30 13939 O 1282.75 8.03817 -0.115268 0
M  V30 13940 H 1282.48 0.598147 0.314954 0
M  V30 13941 H 1285.03 2.02655 0.334661 0
M  V30 13942 H 1283.26 2.65602 2.81056 0
M  V30 13943 H 1284.95 3.05249 2.67541 0
M  V30 13944 H 1285.72 4.76931 0.880988 0
M  V30 13945 H 1281.6 4.17549 1.95382 0
M  V30 13946 H 1285.14 6.9757 -0.0651481 0
M  V30 13947 H 1281.04 6.37494 1.01349 0
M  V30 13948 H 1281.81 8.185 -0.00277496 0
M  V30 13949 N 1284.47 -0.556076 1.47464 0
M  V30 13950 C 1285.43 -1.64515 1.59586 0
M  V30 13951 C 1286.43 -1.53751 0.470881 0
M  V30 13952 O 1287.62 -1.57889 0.735979 0
M  V30 13953 C 1284.75 -3.0406 1.54143 0
M  V30 13954 H 1285.95 -1.55116 2.56669 0
M  V30 13955 H 1283.5 -0.776087 1.35671 0
M  V30 13956 H 1284.23 -3.18991 0.584395 0
M  V30 13957 H 1284.02 -3.13282 2.3579 0
M  V30 13958 H 1285.51 -3.8329 1.65766 0
M  V30 13959 N 1285.95 -1.35615 -0.802897 0
M  V30 13960 C 1287.17 -1.32377 -1.59659 0
M  V30 13961 C 1287.6 0.0954235 -1.87858 0
M  V30 13962 O 1286.96 1.06336 -1.46842 0
M  V30 13963 C 1287 -2.13972 -2.90256 0
M  V30 13964 O 1286.11 -1.52296 -3.83249 0
M  V30 13965 H 1285.45 -0.453699 -0.484823 0
M  V30 13966 H 1287.98 -1.78708 -0.996217 0
M  V30 13967 H 1287.99 -2.26061 -3.39647 0
M  V30 13968 H 1286.66 -3.17145 -2.69057 0
M  V30 13969 H 1285.24 -1.49068 -3.41809 0
M  V30 13970 N 1287.43 1.02549 -1.19673 0
M  V30 13971 C 1288.65 1.79623 -1.0268 0
M  V30 13972 C 1289.07 1.83969 0.424345 0
M  V30 13973 O 1288.43 1.28621 1.29472 0
M  V30 13974 C 1288.48 3.24514 -1.59289 0
M  V30 13975 O 1288.2 3.20462 -2.98723 0
M  V30 13976 C 1289.7 4.18173 -1.47126 0
M  V30 13977 H 1286.92 0.565167 -0.3617 0
M  V30 13978 H 1289.46 1.29143 -1.58564 0
M  V30 13979 H 1287.62 3.72173 -1.07546 0
M  V30 13980 H 1288.03 4.11341 -3.25421 0
M  V30 13981 H 1289.51 5.17714 -1.9151 0
M  V30 13982 H 1289.98 4.37165 -0.422315 0
M  V30 13983 H 1290.59 3.7639 -1.98017 0
M  V30 13984 N 1288.9 1.00119 1.21713 0
M  V30 13985 C 1289.81 0.567582 2.27631 0
M  V30 13986 C 1290.83 -0.387593 1.69628 0
M  V30 13987 O 1292.01 -0.252372 1.99813 0
M  V30 13988 C 1289.07 -0.102745 3.46548 0
M  V30 13989 C 1288.13 0.896433 4.19836 0
M  V30 13990 C 1287.36 0.258 5.33076 0
M  V30 13991 O 1287.59 -0.946118 5.62499 0
M  V30 13992 O 1286.52 0.967021 5.94081 0
M  V30 13993 H 1290.35 1.44898 2.66905 0
M  V30 13994 H 1287.93 0.769862 1.28037 0
M  V30 13995 H 1289.81 -0.477846 4.18682 0
M  V30 13996 H 1288.49 -0.958576 3.09181 0
M  V30 13997 H 1287.4 1.32262 3.49939 0
M  V30 13998 H 1288.73 1.72173 4.61104 0
M  V30 13999 N 1290.38 -1.37203 0.775435 0
M  V30 14000 C 1291.31 -2.28873 0.122374 0
M  V30 14001 C 1292.33 -1.48811 -0.660239 0
M  V30 14002 O 1293.52 -1.7142 -0.497724 0
M  V30 14003 C 1290.62 -3.28062 -0.850212 0
M  V30 14004 C 1289.79 -4.37234 -0.120633 0
M  V30 14005 C 1288.85 -5.16472 -1.00712 0
M  V30 14006 O 1287.87 -5.6726 -0.469528 0
M  V30 14007 N 1289.08 -5.31556 -2.33299 0
M  V30 14008 H 1291.84 -2.85559 0.909741 0
M  V30 14009 H 1289.4 -1.49219 0.628107 0
M  V30 14010 H 1291.39 -3.77956 -1.44678 0
M  V30 14011 H 1289.96 -2.72118 -1.53853 0
M  V30 14012 H 1289.18 -3.88688 0.656879 0
M  V30 14013 H 1290.47 -5.07354 0.383358 0
M  V30 14014 H 1289.87 -4.91883 -2.79406 0
M  V30 14015 H 1288.43 -5.84745 -2.87953 0
M  V30 14016 N 1291.86 -0.526279 -1.48553 0
M  V30 14017 C 1292.77 0.24244 -2.33344 0
M  V30 14018 C 1293.79 0.942658 -1.46253 0
M  V30 14019 O 1294.96 0.91844 -1.79239 0
M  V30 14020 C 1292.03 1.27801 -3.22285 0
M  V30 14021 C 1291.09 0.588543 -4.25247 0
M  V30 14022 C 1290.32 1.57478 -5.09938 0
M  V30 14023 O 1290.54 2.80707 -4.96548 0
M  V30 14024 O 1289.48 1.11621 -5.9146 0
M  V30 14025 H 1293.3 -0.452262 -3.00314 0
M  V30 14026 H 1290.89 -0.287249 -1.46613 0
M  V30 14027 H 1292.77 1.87656 -3.7731 0
M  V30 14028 H 1291.45 1.95519 -2.57981 0
M  V30 14029 H 1290.35 -0.0504022 -3.74066 0
M  V30 14030 H 1291.69 -0.046627 -4.92178 0
M  V30 14031 N 1293.34 1.5542 -0.261239 0
M  V30 14032 C 1294.27 2.19334 0.665214 0
M  V30 14033 C 1295.28 1.17388 1.128 0
M  V30 14034 O 1296.47 1.44183 1.0523 0
M  V30 14035 C 1293.57 2.79425 1.91768 0
M  V30 14036 C 1292.74 4.06929 1.60399 0
M  V30 14037 C 1291.8 4.51199 2.70751 0
M  V30 14038 O 1290.83 5.17272 2.37526 0
M  V30 14039 N 1292.03 4.20179 4.00537 0
M  V30 14040 H 1294.8 2.99467 0.118262 0
M  V30 14041 H 1292.36 1.61693 -0.0817727 0
M  V30 14042 H 1294.35 3.05992 2.64861 0
M  V30 14043 H 1292.92 2.03366 2.37405 0
M  V30 14044 H 1292.14 3.87798 0.707559 0
M  V30 14045 H 1293.43 4.9003 1.36924 0
M  V30 14046 H 1292.83 3.67164 4.30357 0
M  V30 14047 H 1291.38 4.51549 4.7005 0
M  V30 14048 N 1294.82 -0.0116844 1.57596 0
M  V30 14049 C 1296.09 -0.735344 1.81251 0
M  V30 14050 C 1296.47 -1.92634 0.863446 0
M  V30 14051 O 1295.82 -2.28321 -0.0905028 0
M  V30 14052 C 1296.03 -1.15206 3.29437 0
M  V30 14053 C 1297.38 -1.56078 3.94873 0
M  V30 14054 O 1298.4 -1.24618 3.3369 0
M  V30 14055 O 1297.26 -2.14534 5.0263 0
M  V30 14056 H 1294.36 -0.357044 0.745955 0
M  V30 14057 H 1296.9 0.0128733 1.69695 0
M  V30 14058 H 1295.67 -0.302619 3.90128 0
M  V30 14059 H 1295.3 -1.95975 3.45947 0
M  V30 14060 N 1296.29 -1.55015 -0.284256 0
M  V30 14061 C 1297.26 -1.8636 -1.33426 0
M  V30 14062 C 1298.26 -0.737457 -1.42892 0
M  V30 14063 O 1299.45 -1.00569 -1.42238 0
M  V30 14064 C 1296.58 -2.05884 -2.71707 0
M  V30 14065 H 1297.77 -2.80212 -1.06869 0
M  V30 14066 H 1295.32 -1.47334 -0.521767 0
M  V30 14067 H 1296.06 -1.14376 -3.03461 0
M  V30 14068 H 1295.84 -2.87867 -2.66224 0
M  V30 14069 H 1297.33 -2.31447 -3.47595 0
M  V30 14070 N 1297.77 0.548248 -1.47757 0
M  V30 14071 C 1298.68 1.68178 -1.63565 0
M  V30 14072 C 1299.7 1.661 -0.518351 0
M  V30 14073 O 1300.87 1.85384 -0.787061 0
M  V30 14074 C 1297.94 3.04673 -1.65454 0
M  V30 14075 C 1297 3.17749 -2.88677 0
M  V30 14076 C 1296.23 4.47733 -2.90466 0
M  V30 14077 O 1296.46 5.33736 -2.01201 0
M  V30 14078 O 1295.39 4.64789 -3.82433 0
M  V30 14079 H 1299.22 1.57781 -2.59497 0
M  V30 14080 H 1296.8 0.719277 -1.30946 0
M  V30 14081 H 1298.68 3.85885 -1.69324 0
M  V30 14082 H 1297.36 3.15433 -0.726912 0
M  V30 14083 H 1296.26 2.359 -2.90348 0
M  V30 14084 H 1297.6 3.11897 -3.80763 0
M  V30 14085 N 1299.25 1.36039 0.795694 0
M  V30 14086 C 1300.16 1.31991 1.93948 0
M  V30 14087 C 1301.18 0.223064 1.72564 0
M  V30 14088 O 1302.35 0.454344 1.96208 0
M  V30 14089 C 1299.42 1.10228 3.28711 0
M  V30 14090 C 1298.48 2.29328 3.62914 0
M  V30 14091 C 1297.71 2.08595 4.91247 0
M  V30 14092 O 1297.93 1.05793 5.60503 0
M  V30 14093 O 1296.87 2.96222 5.23962 0
M  V30 14094 H 1300.69 2.28274 2.00311 0
M  V30 14095 H 1298.28 1.16521 0.935048 0
M  V30 14096 H 1300.16 0.999842 4.09367 0
M  V30 14097 H 1298.84 0.17003 3.23253 0
M  V30 14098 H 1297.74 2.4514 2.8259 0
M  V30 14099 H 1299.08 3.21038 3.73089 0
M  V30 14100 N 1300.73 -1.01913 1.20215 0
M  V30 14101 C 1301.68 -2.12516 0.945493 0
M  V30 14102 C 1302.67 -1.69091 -0.102243 0
M  V30 14103 O 1303.88 -1.79936 0.047888 0
M  V30 14104 H 1300.25 -0.694496 0.288409 0
M  V30 14105 H 1302.22 -2.31349 1.88468 0
M  V30 14106 C 1300.97 -3.43919 0.51137 0
M  V30 14107 H 1300.29 -3.77758 1.30916 0
M  V30 14108 H 1301.73 -4.22374 0.370981 0
M  V30 14109 C 1300.19 -3.27844 -0.775902 0
M  V30 14110 O 1300.72 -3.5734 -1.83496 0
M  V30 14111 N 1298.93 -2.81101 -0.73694 0
M  V30 14112 H 1298.48 -2.57296 0.125164 0
M  V30 14113 H 1298.43 -2.70726 -1.59859 0
M  V30 14114 N 1302.21 -1.00763 -1.2118 0
M  V30 14115 C 1303.45 -0.690459 -1.8994 0
M  V30 14116 C 1303.78 0.781464 -1.78656 0
M  V30 14117 O 1303.05 1.56135 -1.18316 0
M  V30 14118 H 1301.63 -0.252397 -0.703068 0
M  V30 14119 H 1304.29 -1.2773 -1.47211 0
M  V30 14120 H 1303.38 -0.96594 -2.96776 0
M  V30 14121 N 1303.68 1.3679 -0.7827 0
M  V30 14122 C 1304.93 1.99712 -0.352533 0
M  V30 14123 C 1305.26 1.61984 1.0712 0
M  V30 14124 O 1304.54 0.871342 1.7389 0
M  V30 14125 C 1304.82 3.5649 -0.508628 0
M  V30 14126 C 1304.67 4.04093 -1.97557 0
M  V30 14127 C 1305.99 4.40026 0.0804447 0
M  V30 14128 H 1303.11 0.725522 -0.129566 0
M  V30 14129 H 1305.75 1.62305 -0.987788 0
M  V30 14130 H 1303.9 3.88487 0.0321664 0
M  V30 14131 H 1305.58 3.82613 -2.57691 0
M  V30 14132 H 1303.82 3.55881 -2.48055 0
M  V30 14133 H 1304.49 5.13088 -2.03579 0
M  V30 14134 H 1306.97 4.14351 -0.381113 0
M  V30 14135 H 1305.84 5.48868 -0.0588424 0
M  V30 14136 H 1306.1 4.26285 1.17189 0
M  V30 14137 N 1305.16 0.53415 1.48272 0
M  V30 14138 C 1306.39 0.00574475 2.06899 0
M  V30 14139 C 1306.81 -1.27754 1.39012 0
M  V30 14140 O 1306.16 -1.76102 0.478993 0
M  V30 14141 C 1306.21 -0.217576 3.60845 0
M  V30 14142 O 1305.93 1.01487 4.26183 0
M  V30 14143 C 1307.44 -0.785888 4.36278 0
M  V30 14144 H 1304.66 0.0353967 0.670066 0
M  V30 14145 H 1307.2 0.740984 1.90603 0
M  V30 14146 H 1305.35 -0.902875 3.76732 0
M  V30 14147 H 1305.77 0.7982 5.18391 0
M  V30 14148 H 1307.24 -0.891551 5.44753 0
M  V30 14149 H 1307.72 -1.79178 4.00989 0
M  V30 14150 H 1308.33 -0.137022 4.25079 0
M  V30 14151 N 1306.64 -1.55279 0.269478 0
M  V30 14152 C 1307.89 -1.99077 -0.348224 0
M  V30 14153 C 1308.21 -1.15925 -1.568 0
M  V30 14154 O 1307.48 -0.247404 -1.94331 0
M  V30 14155 H 1306.06 -0.735307 -0.131653 0
M  V30 14156 H 1308.72 -1.91288 0.373506 0
M  V30 14157 H 1307.82 -3.05427 -0.641953 0
M  V30 14158 N 1308.12 0.00332656 -1.576 0
M  V30 14159 C 1309.36 0.68989 -1.90705 0
M  V30 14160 C 1309.7 1.73608 -0.870291 0
M  V30 14161 O 1308.97 1.94181 0.111416 0
M  V30 14162 C 1309.26 1.33605 -3.34397 0
M  V30 14163 C 1309.11 0.301638 -4.48787 0
M  V30 14164 C 1310.43 2.26313 -3.77453 0
M  V30 14165 H 1307.55 0.249328 -0.693545 0
M  V30 14166 H 1310.19 -0.0472847 -1.89941 0
M  V30 14167 H 1308.34 1.96437 -3.35179 0
M  V30 14168 H 1310.01 -0.326738 -4.60141 0
M  V30 14169 H 1308.25 -0.376451 -4.32163 0
M  V30 14170 H 1308.92 0.792741 -5.46278 0
M  V30 14171 H 1311.4 1.73502 -3.78201 0
M  V30 14172 H 1310.28 2.68492 -4.78752 0
M  V30 14173 H 1310.54 3.14082 -3.11135 0
M  V30 14174 N 1309.6 1.55164 0.276031 0
M  V30 14175 C 1310.82 1.7998 1.03063 0
M  V30 14176 C 1311.25 0.569769 1.79263 0
M  V30 14177 O 1310.6 -0.48054 1.74816 0
M  V30 14178 C 1310.65 3.02209 1.96728 0
M  V30 14179 O 1309.76 2.77083 3.05449 0
M  V30 14180 H 1309.1 0.594963 0.294814 0
M  V30 14181 H 1311.63 2.02301 0.305861 0
M  V30 14182 H 1311.64 3.3086 2.38738 0
M  V30 14183 H 1310.31 3.91386 1.40677 0
M  V30 14184 H 1308.89 2.5952 2.67776 0
M  V30 14185 N 1311.07 -0.540404 1.48045 0
M  V30 14186 C 1312.32 -1.29422 1.55224 0
M  V30 14187 C 1312.64 -1.93716 0.223365 0
M  V30 14188 O 1311.91 -1.808 -0.754204 0
M  V30 14189 H 1310.49 -0.480658 0.571819 0
M  V30 14190 H 1313.16 -0.629712 1.84447 0
M  V30 14191 H 1312.25 -2.07897 2.32777 0
M  V30 14192 N 1312.55 -1.36459 -0.788468 0
M  V30 14193 C 1313.96 -1.27515 -1.3637 0
M  V30 14194 C 1314.31 0.0846251 -1.96017 0
M  V30 14195 O 1313.44 0.98611 -1.92626 0
M  V30 14196 C 1314.03 -2.30903 -2.4793 0
M  V30 14197 C 1312.59 -2.25645 -3.01266 0
M  V30 14198 C 1311.74 -2.15631 -1.74352 0
M  V30 14199 H 1314.69 -1.47324 -0.590039 0
M  V30 14200 H 1314.71 -1.94601 -3.26972 0
M  V30 14201 H 1314.22 -3.29858 -2.04487 0
M  V30 14202 H 1312.33 -1.3016 -3.49126 0
M  V30 14203 H 1312.44 -3.18373 -3.58016 0
M  V30 14204 H 1310.8 -1.61901 -1.96622 0
M  V30 14205 H 1311.59 -3.16475 -1.33036 0
M  V30 14206 N 1314.03 1.01274 -1.20754 0
M  V30 14207 C 1315.28 1.74586 -1.01804 0
M  V30 14208 C 1315.6 1.89727 0.450419 0
M  V30 14209 O 1314.87 1.44257 1.32539 0
M  V30 14210 H 1313.45 0.646804 -0.373702 0
M  V30 14211 H 1316.11 1.22079 -1.5193 0
M  V30 14212 H 1315.21 2.748 -1.47958 0
M  V30 14213 N 1315.51 1.01404 1.20644 0
M  V30 14214 C 1316.46 0.582109 2.23339 0
M  V30 14215 C 1317.43 -0.39649 1.61298 0
M  V30 14216 O 1318.61 -0.296504 1.88482 0
M  V30 14217 C 1315.75 -0.076029 3.45016 0
M  V30 14218 C 1314.86 0.946829 4.21496 0
M  V30 14219 C 1314 0.26001 5.30563 0
M  V30 14220 C 1313.04 1.2698 5.98784 0
M  V30 14221 N 1312.18 0.609827 6.99447 0
M  V30 14222 H 1317.02 1.46248 2.59645 0
M  V30 14223 H 1314.55 0.732145 1.27585 0
M  V30 14224 H 1316.51 -0.474714 4.1449 0
M  V30 14225 H 1315.14 -0.920062 3.0941 0
M  V30 14226 H 1314.19 1.4637 3.51113 0
M  V30 14227 H 1315.5 1.71491 4.68393 0
M  V30 14228 H 1314.66 -0.19431 6.06389 0
M  V30 14229 H 1313.4 -0.540395 4.84697 0
M  V30 14230 H 1312.4 1.73453 5.21722 0
M  V30 14231 H 1313.63 2.07144 6.46737 0
M  V30 14232 H 1311.57 -0.170756 6.55778 0
M  V30 14233 H 1311.49 1.31601 7.44458 0
M  V30 14234 H 1312.76 0.179014 7.79294 0
M  V30 14235 N 1316.99 -1.36373 0.789944 0
M  V30 14236 C 1317.9 -2.3383 0.189873 0
M  V30 14237 C 1318.91 -1.61068 -0.65827 0
M  V30 14238 O 1320.09 -1.93049 -0.573932 0
M  V30 14239 C 1317.15 -3.40264 -0.664905 0
M  V30 14240 C 1316.22 -4.28825 0.201798 0
M  V30 14241 C 1315.45 -5.30176 -0.612278 0
M  V30 14242 O 1315.67 -5.39627 -1.84821 0
M  V30 14243 O 1314.61 -6.01899 -0.0118964 0
M  V30 14244 H 1318.43 -2.86915 0.995671 0
M  V30 14245 H 1316.02 -1.38852 0.551412 0
M  V30 14246 H 1317.9 -4.05339 -1.15231 0
M  V30 14247 H 1316.57 -2.89478 -1.44858 0
M  V30 14248 H 1315.48 -3.66789 0.735974 0
M  V30 14249 H 1316.81 -4.82965 0.949003 0
M  V30 14250 N 1318.47 -0.542005 -1.47987 0
M  V30 14251 C 1319.43 0.203537 -2.28294 0
M  V30 14252 C 1320.43 0.856762 -1.36074 0
M  V30 14253 O 1321.62 0.71496 -1.58852 0
M  V30 14254 C 1318.75 1.29581 -3.15312 0
M  V30 14255 H 1319.94 -0.501701 -2.95674 0
M  V30 14256 H 1317.5 -0.298378 -1.53426 0
M  V30 14257 H 1318.23 2.03393 -2.5259 0
M  V30 14258 H 1318.02 0.832398 -3.83163 0
M  V30 14259 H 1319.51 1.81988 -3.75859 0
M  V30 14260 N 1319.94 1.55134 -0.277709 0
M  V30 14261 C 1320.89 2.2263 0.608637 0
M  V30 14262 C 1321.86 1.20067 1.14774 0
M  V30 14263 O 1323.05 1.48617 1.19657 0
M  V30 14264 C 1320.19 2.95308 1.78571 0
M  V30 14265 C 1319.3 4.12595 1.28021 0
M  V30 14266 C 1318.43 4.7291 2.41929 0
M  V30 14267 C 1317.47 5.82386 1.88395 0
M  V30 14268 N 1316.61 6.36754 2.95786 0
M  V30 14269 H 1321.45 2.97988 0.0264138 0
M  V30 14270 H 1318.99 1.471 0.00127068 0
M  V30 14271 H 1320.94 3.35662 2.47764 0
M  V30 14272 H 1319.57 2.22368 2.33992 0
M  V30 14273 H 1318.63 3.77343 0.481297 0
M  V30 14274 H 1319.94 4.91537 0.848128 0
M  V30 14275 H 1319.09 5.15997 3.1911 0
M  V30 14276 H 1317.83 3.93251 2.88453 0
M  V30 14277 H 1316.84 5.38746 1.09694 0
M  V30 14278 H 1318.06 6.63916 1.42803 0
M  V30 14279 H 1316.01 5.59987 3.41687 0
M  V30 14280 H 1315.92 7.10975 2.57002 0
M  V30 14281 H 1317.19 6.845 3.72935 0
M  V30 14282 N 1321.42 0.00503138 1.57599 0
M  V30 14283 C 1322.35 -1.01302 2.05598 0
M  V30 14284 C 1323.37 -1.30388 0.974829 0
M  V30 14285 O 1324.56 -1.27275 1.25153 0
M  V30 14286 C 1321.66 -2.34654 2.44522 0
M  V30 14287 C 1320.83 -2.24436 3.7543 0
M  V30 14288 C 1319.89 -3.40517 4.01166 0
M  V30 14289 O 1318.91 -3.18479 4.71762 0
M  V30 14290 N 1320.12 -4.63532 3.49454 0
M  V30 14291 H 1322.88 -0.603656 2.93558 0
M  V30 14292 H 1320.44 -0.182248 1.60871 0
M  V30 14293 H 1322.43 -3.11093 2.5885 0
M  V30 14294 H 1321 -2.67315 1.62055 0
M  V30 14295 H 1320.22 -1.32875 3.71131 0
M  V30 14296 H 1321.51 -2.14786 4.61242 0
M  V30 14297 H 1320.91 -4.84334 2.92296 0
M  V30 14298 H 1319.47 -5.37221 3.69103 0
M  V30 14299 N 1322.9 -1.55308 -0.267798 0
M  V30 14300 C 1323.83 -1.8348 -1.35685 0
M  V30 14301 C 1324.81 -0.688228 -1.47317 0
M  V30 14302 O 1325.99 -0.931781 -1.6386 0
M  V30 14303 C 1323.12 -2.00103 -2.7327 0
M  V30 14304 C 1322.17 -3.22675 -2.78896 0
M  V30 14305 S 1323 -4.79895 -2.37615 0
M  V30 14306 C 1324.16 -4.99497 -3.77165 0
M  V30 14307 H 1324.39 -2.75565 -1.11585 0
M  V30 14308 H 1321.92 -1.47146 -0.467703 0
M  V30 14309 H 1323.88 -2.10364 -3.52501 0
M  V30 14310 H 1322.54 -1.08897 -2.94619 0
M  V30 14311 H 1321.73 -3.31209 -3.7989 0
M  V30 14312 H 1321.34 -3.11031 -2.07691 0
M  V30 14313 H 1323.63 -4.85558 -4.72483 0
M  V30 14314 H 1324.57 -6.01534 -3.73581 0
M  V30 14315 H 1324.98 -4.2745 -3.68709 0
M  V30 14316 N 1324.38 0.532545 -1.4833 0
M  V30 14317 C 1325.29 1.66433 -1.65339 0
M  V30 14318 C 1326.3 1.65541 -0.535939 0
M  V30 14319 O 1327.48 1.84539 -0.806679 0
M  V30 14320 C 1324.54 3.02901 -1.68676 0
M  V30 14321 C 1323.61 3.14669 -2.92031 0
M  V30 14322 C 1322.84 4.44627 -2.95199 0
M  V30 14323 O 1323.06 5.31572 -2.06851 0
M  V30 14324 O 1322 4.60707 -3.87341 0
M  V30 14325 H 1325.82 1.5502 -2.61156 0
M  V30 14326 H 1323.41 0.705348 -1.31701 0
M  V30 14327 H 1325.29 3.84068 -1.73407 0
M  V30 14328 H 1323.96 3.14644 -0.760327 0
M  V30 14329 H 1322.87 2.32807 -2.92834 0
M  V30 14330 H 1324.2 3.07841 -3.8405 0
M  V30 14331 N 1325.86 1.36875 0.78122 0
M  V30 14332 C 1326.8 1.31941 1.91557 0
M  V30 14333 C 1327.8 0.209783 1.68096 0
M  V30 14334 O 1329 0.377266 1.76002 0
M  V30 14335 H 1325.38 0.410955 0.629778 0
M  V30 14336 H 1327.35 2.27721 1.92836 0
M  V30 14337 C 1326.1 1.13379 3.28695 0
M  V30 14338 H 1325.42 1.98013 3.47319 0
M  V30 14339 H 1326.86 1.13976 4.08394 0
M  V30 14340 C 1325.32 -0.161119 3.36515 0
M  V30 14341 O 1325.85 -1.14806 3.84945 0
M  V30 14342 N 1324.06 -0.208594 2.8985 0
M  V30 14343 H 1323.6 0.595187 2.5063 0
M  V30 14344 H 1323.56 -1.07465 2.95463 0
M  V30 14345 N 1327.33 -1.00632 1.21289 0
M  V30 14346 C 1328.58 -1.74044 1.02728 0
M  V30 14347 C 1328.9 -1.89963 -0.440351 0
M  V30 14348 O 1328.17 -1.44958 -1.31772 0
M  V30 14349 H 1326.75 -0.644813 0.377127 0
M  V30 14350 H 1329.41 -1.21272 1.52575 0
M  V30 14351 H 1328.51 -2.74011 1.49413 0
M  V30 14352 N 1328.81 -1.02043 -1.20104 0
M  V30 14353 C 1329.74 -0.538603 -2.21753 0
M  V30 14354 C 1330.72 0.416016 -1.57188 0
M  V30 14355 O 1331.91 0.335114 -1.85497 0
M  V30 14356 C 1329.03 0.215706 -3.38012 0
M  V30 14357 C 1328.08 -0.68905 -4.20897 0
M  V30 14358 S 1328.91 -2.16041 -4.89986 0
M  V30 14359 C 1330.07 -1.41637 -6.09664 0
M  V30 14360 H 1330.3 -1.39988 -2.6228 0
M  V30 14361 H 1327.83 -0.829641 -1.30216 0
M  V30 14362 H 1329.79 0.644798 -4.05404 0
M  V30 14363 H 1328.45 1.0526 -2.95938 0
M  V30 14364 H 1327.65 -0.107195 -5.03886 0
M  V30 14365 H 1327.25 -1.05609 -3.5878 0
M  V30 14366 H 1329.54 -0.698414 -6.73891 0
M  V30 14367 H 1330.48 -2.22254 -6.72316 0
M  V30 14368 H 1330.89 -0.917572 -5.56993 0
M  V30 14369 N 1330.29 1.35952 -0.797165 0
M  V30 14370 C 1331.22 2.32506 -0.215277 0
M  V30 14371 C 1332.2 1.57023 0.654046 0
M  V30 14372 O 1333.39 1.85139 0.586268 0
M  V30 14373 C 1330.52 3.41266 0.644557 0
M  V30 14374 C 1329.47 4.27816 -0.125501 0
M  V30 14375 C 1328.8 5.27813 0.855428 0
M  V30 14376 C 1330.1 5.05367 -1.31913 0
M  V30 14377 H 1331.79 2.8142 -1.02193 0
M  V30 14378 H 1329.34 1.35303 -0.492862 0
M  V30 14379 H 1331.29 4.07808 1.06163 0
M  V30 14380 H 1330.01 2.90938 1.484 0
M  V30 14381 H 1328.67 3.62841 -0.523639 0
M  V30 14382 H 1328.32 4.73755 1.69011 0
M  V30 14383 H 1328.02 5.86589 0.344566 0
M  V30 14384 H 1329.54 5.97227 1.2709 0
M  V30 14385 H 1330.96 5.64907 -0.977418 0
M  V30 14386 H 1329.36 5.73593 -1.76382 0
M  V30 14387 H 1330.43 4.36558 -2.11057 0
M  V30 14388 N 1331.77 0.549846 1.47697 0
M  V30 14389 C 1333.01 0.0230845 2.02787 0
M  V30 14390 C 1333.35 -1.32035 1.42409 0
M  V30 14391 O 1332.62 -1.85745 0.576978 0
M  V30 14392 C 1332.91 -0.0778363 3.60016 0
M  V30 14393 C 1332.76 1.29217 4.3084 0
M  V30 14394 C 1334.08 -0.794909 4.32862 0
M  V30 14395 H 1331.2 0.00986307 0.736934 0
M  V30 14396 H 1333.84 0.710714 1.76207 0
M  V30 14397 H 1331.99 -0.663464 3.82793 0
M  V30 14398 H 1333.66 1.92044 4.19424 0
M  V30 14399 H 1331.9 1.86883 3.91481 0
M  V30 14400 H 1332.57 1.17435 5.39364 0
M  V30 14401 H 1335.05 -0.297743 4.15033 0
M  V30 14402 H 1333.93 -0.834466 5.4252 0
M  V30 14403 H 1334.19 -1.84948 4.01555 0
M  V30 14404 N 1333.25 -1.54984 0.285932 0
M  V30 14405 C 1334.47 -2.04239 -0.330774 0
M  V30 14406 C 1334.89 -1.16387 -1.48659 0
M  V30 14407 O 1334.25 -0.186255 -1.81547 0
M  V30 14408 C 1334.3 -3.52504 -0.801456 0
M  V30 14409 O 1334.02 -4.37014 0.30834 0
M  V30 14410 C 1335.52 -4.17692 -1.48487 0
M  V30 14411 H 1332.74 -0.666903 -0.0740351 0
M  V30 14412 H 1335.28 -2.00116 0.421178 0
M  V30 14413 H 1333.44 -3.57036 -1.50347 0
M  V30 14414 H 1333.85 -5.24471 -0.0553891 0
M  V30 14415 H 1335.33 -5.23004 -1.76552 0
M  V30 14416 H 1335.8 -3.66515 -2.41999 0
M  V30 14417 H 1336.41 -4.17193 -0.826428 0
M  V30 14418 N 1334.72 -0.0133892 -1.57594 0
M  V30 14419 C 1336 0.706416 -1.82398 0
M  V30 14420 C 1336.38 1.91236 -0.893983 0
M  V30 14421 O 1335.73 2.28436 0.0541675 0
M  V30 14422 C 1335.94 1.09951 -3.31228 0
M  V30 14423 C 1337.29 1.49776 -3.97306 0
M  V30 14424 O 1338.31 1.19293 -3.3563 0
M  V30 14425 O 1337.17 2.06511 -5.0598 0
M  V30 14426 H 1334.26 0.345131 -0.751541 0
M  V30 14427 H 1336.81 -0.0398687 -1.69653 0
M  V30 14428 H 1335.58 0.240514 -3.9056 0
M  V30 14429 H 1335.21 1.90447 -3.49021 0
M  V30 14430 N 1336.2 1.55448 0.259558 0
M  V30 14431 C 1337.43 1.81063 1.01148 0
M  V30 14432 C 1337.85 0.58875 1.78649 0
M  V30 14433 O 1337.21 -0.461971 1.75315 0
M  V30 14434 C 1337.26 3.04279 1.93512 0
M  V30 14435 O 1336.36 2.80307 3.02493 0
M  V30 14436 H 1335.7 0.598056 0.288487 0
M  V30 14437 H 1338.23 2.02614 0.284387 0
M  V30 14438 H 1338.24 3.33373 2.35215 0
M  V30 14439 H 1336.92 3.92856 1.36518 0
M  V30 14440 H 1335.5 2.62345 2.65008 0
M  V30 14441 N 1337.68 -0.524672 1.4861 0
M  V30 14442 C 1338.64 -1.61092 1.63039 0
M  V30 14443 C 1339.64 -1.52718 0.503387 0
M  V30 14444 O 1340.83 -1.56293 0.769304 0
M  V30 14445 C 1337.97 -3.00722 1.60558 0
M  V30 14446 H 1339.16 -1.49636 2.59902 0
M  V30 14447 H 1336.71 -0.747135 1.37287 0
M  V30 14448 H 1337.45 -3.1768 0.651926 0
M  V30 14449 H 1337.23 -3.0821 2.42382 0
M  V30 14450 H 1338.72 -3.79688 1.73859 0
M  V30 14451 N 1339.16 -1.37287 -0.77395 0
M  V30 14452 C 1340.41 -1.32112 -1.5294 0
M  V30 14453 C 1340.73 0.0946137 -1.9477 0
M  V30 14454 O 1340 1.03817 -1.66129 0
M  V30 14455 H 1338.58 -0.486047 -0.567245 0
M  V30 14456 H 1341.24 -1.71752 -0.921263 0
M  V30 14457 H 1340.34 -1.95873 -2.42982 0
M  V30 14458 N 1340.64 0.999871 -1.21821 0
M  V30 14459 C 1341.58 2.08864 -0.98206 0
M  V30 14460 C 1342.55 1.65835 0.0937677 0
M  V30 14461 O 1343.74 1.90722 -0.0544038 0
M  V30 14462 C 1340.88 3.40553 -0.558382 0
M  V30 14463 C 1339.99 3.96964 -1.70422 0
M  V30 14464 C 1339.13 5.16782 -1.2292 0
M  V30 14465 C 1338.17 5.65315 -2.34703 0
M  V30 14466 N 1337.3 6.76379 -1.88299 0
M  V30 14467 H 1342.14 2.28399 -1.9141 0
M  V30 14468 H 1339.68 1.11984 -0.953837 0
M  V30 14469 H 1341.64 4.16163 -0.293955 0
M  V30 14470 H 1340.27 3.2104 0.336656 0
M  V30 14471 H 1339.32 3.18291 -2.08315 0
M  V30 14472 H 1340.63 4.2897 -2.54531 0
M  V30 14473 H 1339.79 5.99657 -0.92174 0
M  V30 14474 H 1338.52 4.86383 -0.358222 0
M  V30 14475 H 1337.53 4.81033 -2.66246 0
M  V30 14476 H 1338.75 5.97742 -3.22306 0
M  V30 14477 H 1336.7 6.47775 -1.03552 0
M  V30 14478 H 1336.62 7.07666 -2.65978 0
M  V30 14479 H 1337.89 7.62776 -1.60601 0
M  V30 14480 N 1342.11 1.02678 1.19562 0
M  V30 14481 C 1343.05 0.563882 2.22155 0
M  V30 14482 C 1344.06 -0.359132 1.58789 0
M  V30 14483 O 1345.25 -0.155857 1.77818 0
M  V30 14484 C 1342.35 -0.197894 3.38322 0
M  V30 14485 C 1341.52 0.729542 4.31273 0
M  V30 14486 C 1340.58 0.013543 5.26198 0
M  V30 14487 O 1339.61 0.639417 5.65597 0
M  V30 14488 N 1340.81 -1.25791 5.66707 0
M  V30 14489 H 1343.57 1.44623 2.62496 0
M  V30 14490 H 1341.13 0.90555 1.34207 0
M  V30 14491 H 1343.13 -0.686381 3.98837 0
M  V30 14492 H 1341.7 -0.981632 2.96787 0
M  V30 14493 H 1340.92 1.39816 3.68572 0
M  V30 14494 H 1342.2 1.35994 4.90289 0
M  V30 14495 H 1341.6 -1.78716 5.36728 0
M  V30 14496 H 1340.16 -1.69093 6.29485 0
M  V30 14497 N 1343.59 -1.35528 0.804364 0
M  V30 14498 C 1344.52 -2.32388 0.227604 0
M  V30 14499 C 1345.5 -1.57368 -0.645709 0
M  V30 14500 O 1346.69 -1.85448 -0.576441 0
M  V30 14501 C 1343.82 -3.41603 -0.62645 0
M  V30 14502 C 1342.77 -4.27743 0.148187 0
M  V30 14503 C 1342.1 -5.28259 -0.827425 0
M  V30 14504 C 1343.4 -5.04661 1.34591 0
M  V30 14505 H 1345.09 -2.80874 1.03684 0
M  V30 14506 H 1342.64 -1.3504 0.500031 0
M  V30 14507 H 1344.59 -4.08365 -1.03999 0
M  V30 14508 H 1343.32 -2.91721 -1.46855 0
M  V30 14509 H 1341.97 -3.62558 0.542874 0
M  V30 14510 H 1341.62 -4.74645 -1.66496 0
M  V30 14511 H 1341.32 -5.86763 -0.313453 0
M  V30 14512 H 1342.85 -5.97893 -1.23921 0
M  V30 14513 H 1344.26 -5.6438 1.00736 0
M  V30 14514 H 1342.66 -5.7265 1.79422 0
M  V30 14515 H 1343.73 -4.35432 2.1337 0
M  V30 14516 N 1345.07 -0.557671 -1.47404 0
M  V30 14517 C 1346 0.227253 -2.28071 0
M  V30 14518 C 1347.02 0.878951 -1.37034 0
M  V30 14519 O 1348.21 0.752725 -1.61853 0
M  V30 14520 C 1345.31 1.33942 -3.11308 0
M  V30 14521 C 1344.48 0.784425 -4.30309 0
M  V30 14522 C 1343.54 1.78114 -4.95138 0
M  V30 14523 O 1342.56 1.32708 -5.53514 0
M  V30 14524 N 1343.77 3.11453 -4.89875 0
M  V30 14525 H 1346.53 -0.464709 -2.96075 0
M  V30 14526 H 1344.09 -0.393777 -1.57038 0
M  V30 14527 H 1346.08 2.00495 -3.51545 0
M  V30 14528 H 1344.65 1.93461 -2.45543 0
M  V30 14529 H 1343.87 -0.0578917 -3.94157 0
M  V30 14530 H 1345.16 0.39298 -5.0728 0
M  V30 14531 H 1344.56 3.50987 -4.43649 0
M  V30 14532 H 1343.12 3.73563 -5.34129 0
M  V30 14533 N 1346.55 1.54831 -0.294147 0
M  V30 14534 C 1347.97 1.59489 0.0594489 0
M  V30 14535 C 1348.17 1.31121 1.53002 0
M  V30 14536 O 1347.22 1.08129 2.28176 0
M  V30 14537 C 1348.53 2.98858 -0.332323 0
M  V30 14538 C 1350.08 3.1174 -0.280518 0
M  V30 14539 C 1350.56 4.53407 -0.64701 0
M  V30 14540 N 1352.05 4.59307 -0.599284 0
M  V30 14541 C 1352.78 5.66983 -0.85542 0
M  V30 14542 N 1352.28 6.82726 -1.17717 0
M  V30 14543 N 1354.07 5.56621 -0.78294 0
M  V30 14544 H 1346.22 1.71532 -1.25262 0
M  V30 14545 H 1348.49 0.800801 -0.507368 0
M  V30 14546 H 1348.19 3.24517 -1.35578 0
M  V30 14547 H 1348.07 3.75862 0.317443 0
M  V30 14548 H 1350.45 2.85834 0.733683 0
M  V30 14549 H 1350.53 2.36907 -0.96481 0
M  V30 14550 H 1350.18 4.80042 -1.65899 0
M  V30 14551 H 1350.11 5.26567 0.0592796 0
M  V30 14552 H 1352.6 3.76169 -0.361259 0
M  V30 14553 H 1352.91 7.60761 -1.35877 0
M  V30 14554 H 1351.26 6.84295 -1.21513 0
M  V30 14555 H 1354.45 4.65075 -0.531282 0
M  V30 14556 H 1354.62 6.40456 -0.985929 0
M  V30 14557 N 1348.03 0.0217466 1.57585 0
M  V30 14558 C 1348.96 -0.99116 2.06661 0
M  V30 14559 C 1349.97 -1.29346 0.988604 0
M  V30 14560 O 1351.16 -1.25941 1.26496 0
M  V30 14561 C 1348.26 -2.32047 2.46997 0
M  V30 14562 C 1347.43 -2.20441 3.77789 0
M  V30 14563 C 1346.49 -3.36243 4.04755 0
M  V30 14564 O 1345.52 -3.13458 4.75114 0
M  V30 14565 N 1346.72 -4.598 3.54351 0
M  V30 14566 H 1349.49 -0.572486 2.94181 0
M  V30 14567 H 1347.05 -0.165175 1.61055 0
M  V30 14568 H 1349.04 -3.0833 2.62135 0
M  V30 14569 H 1347.61 -2.65581 1.64881 0
M  V30 14570 H 1346.83 -1.28931 3.72519 0
M  V30 14571 H 1348.12 -2.09882 4.63494 0
M  V30 14572 H 1347.52 -4.81207 2.97416 0
M  V30 14573 H 1346.07 -5.33276 3.7478 0
M  V30 14574 N 1349.51 -1.55583 -0.251311 0
M  V30 14575 C 1350.44 -1.9296 -1.31486 0
M  V30 14576 C 1351.42 -0.794001 -1.50431 0
M  V30 14577 O 1352.6 -1.05393 -1.63113 0
M  V30 14578 C 1349.73 -2.22046 -2.67045 0
M  V30 14579 C 1348.69 -3.37816 -2.62801 0
M  V30 14580 C 1348.01 -3.52433 -4.02113 0
M  V30 14581 C 1349.31 -4.73626 -2.20171 0
M  V30 14582 H 1351.01 -2.82046 -1.00451 0
M  V30 14583 H 1348.55 -1.35702 -0.481775 0
M  V30 14584 H 1350.5 -2.46783 -3.41579 0
M  V30 14585 H 1349.23 -1.29782 -2.99707 0
M  V30 14586 H 1347.89 -3.13081 -1.90724 0
M  V30 14587 H 1347.54 -2.57597 -4.32034 0
M  V30 14588 H 1347.24 -4.30283 -4.00163 0
M  V30 14589 H 1348.76 -3.79486 -4.78354 0
M  V30 14590 H 1350.17 -4.97764 -2.84436 0
M  V30 14591 H 1348.57 -5.54547 -2.29341 0
M  V30 14592 H 1349.64 -4.70985 -1.1533 0
M  V30 14593 N 1350.98 0.516783 -1.48886 0
M  V30 14594 C 1352.21 1.30103 -1.61518 0
M  V30 14595 C 1352.63 1.85996 -0.28055 0
M  V30 14596 O 1351.99 1.65075 0.749671 0
M  V30 14597 C 1352.04 2.41837 -2.67483 0
M  V30 14598 O 1351.14 3.45249 -2.25559 0
M  V30 14599 H 1350.48 0.384774 -0.541152 0
M  V30 14600 H 1353.01 0.620424 -1.94966 0
M  V30 14601 H 1353.02 2.87832 -2.89165 0
M  V30 14602 H 1351.7 2.00519 -3.64369 0
M  V30 14603 H 1350.28 3.05281 -2.14144 0
M  V30 14604 N 1352.46 1.37696 0.766659 0
M  V30 14605 C 1353.69 1.36564 1.56093 0
M  V30 14606 C 1354.11 -0.0455828 1.88045 0
M  V30 14607 O 1353.47 -1.02405 1.49609 0
M  V30 14608 C 1353.52 2.21592 2.84481 0
M  V30 14609 O 1352.62 1.62404 3.79076 0
M  V30 14610 H 1351.96 0.466394 0.472623 0
M  V30 14611 H 1354.49 1.81287 0.948486 0
M  V30 14612 H 1354.5 2.34987 3.33534 0
M  V30 14613 H 1353.18 3.24167 2.60554 0
M  V30 14614 H 1351.75 1.58078 3.37736 0
M  V30 14615 N 1353.94 -0.993397 1.22349 0
M  V30 14616 C 1355.16 -1.77373 1.07488 0
M  V30 14617 C 1355.59 -1.84418 -0.37034 0
M  V30 14618 O 1354.95 -1.29629 -1.26752 0
M  V30 14619 C 1355 -3.18538 1.69014 0
M  V30 14620 O 1354.1 -4.01463 0.943474 0
M  V30 14621 H 1353.44 -0.546209 0.37756 0
M  V30 14622 H 1355.97 -1.24792 1.62136 0
M  V30 14623 H 1355.98 -3.6917 1.73717 0
M  V30 14624 H 1354.66 -3.12725 2.74182 0
M  V30 14625 H 1353.23 -3.59998 0.972415 0
M  V30 14626 N 1355.42 -1.03311 -1.19015 0
M  V30 14627 C 1356.64 -0.751686 -1.93299 0
M  V30 14628 C 1357.07 0.68392 -1.75226 0
M  V30 14629 O 1356.43 1.47274 -1.05736 0
M  V30 14630 C 1356.47 -1.11335 -3.42982 0
M  V30 14631 O 1355.58 -0.234434 -4.11733 0
M  V30 14632 H 1354.92 -0.277331 -0.60331 0
M  V30 14633 H 1357.45 -1.38092 -1.5097 0
M  V30 14634 H 1357.46 -1.07204 -3.93664 0
M  V30 14635 H 1356.13 -2.15922 -3.55458 0
M  V30 14636 H 1354.71 -0.3347 -3.71395 0
M  V30 14637 N 1356.9 1.35099 -0.81154 0
M  V30 14638 C 1358.12 2.03391 -0.405805 0
M  V30 14639 C 1358.55 1.60745 0.97686 0
M  V30 14640 O 1357.9 0.786518 1.63351 0
M  V30 14641 C 1357.95 3.57075 -0.502954 0
M  V30 14642 O 1357.06 4.09577 0.481681 0
M  V30 14643 H 1356.4 0.642203 -0.168733 0
M  V30 14644 H 1358.93 1.72591 -1.0988 0
M  V30 14645 H 1358.94 4.06277 -0.37456 0
M  V30 14646 H 1357.61 3.87463 -1.51145 0
M  V30 14647 H 1356.19 3.71583 0.313115 0
M  V30 14648 N 1358.37 0.56548 1.47106 0
M  V30 14649 C 1359.6 0.0495579 2.06541 0
M  V30 14650 C 1360.01 -1.25325 1.4174 0
M  V30 14651 O 1359.35 -1.76455 0.510818 0
M  V30 14652 C 1359.42 -0.20843 3.58895 0
M  V30 14653 C 1359.08 1.00618 4.45786 0
M  V30 14654 C 1360.08 1.91387 4.83391 0
M  V30 14655 C 1357.76 1.22318 4.87179 0
M  V30 14656 C 1359.76 3.02218 5.61198 0
M  V30 14657 C 1357.44 2.33457 5.64749 0
M  V30 14658 C 1358.44 3.23238 6.0167 0
M  V30 14659 O 1358.13 4.32449 6.77675 0
M  V30 14660 H 1357.86 0.0466 0.674392 0
M  V30 14661 H 1360.42 0.780887 1.89977 0
M  V30 14662 H 1358.65 -0.994169 3.73702 0
M  V30 14663 H 1360.33 -0.670745 4.0032 0
M  V30 14664 H 1361.1 1.75831 4.52005 0
M  V30 14665 H 1356.98 0.533514 4.57902 0
M  V30 14666 H 1360.52 3.72321 5.89935 0
M  V30 14667 H 1356.42 2.48983 5.95548 0
M  V30 14668 H 1357.19 4.306 6.96079 0
M  V30 14669 N 1359.85 -1.54672 0.302354 0
M  V30 14670 C 1361.08 -2.05041 -0.311891 0
M  V30 14671 C 1361.5 -1.17814 -1.46634 0
M  V30 14672 O 1360.86 -0.182517 -1.80379 0
M  V30 14673 C 1360.91 -3.52831 -0.744489 0
M  V30 14674 O 1360.01 -3.68621 -1.84913 0
M  V30 14675 H 1359.35 -0.661255 -0.0603102 0
M  V30 14676 H 1361.88 -1.99711 0.444593 0
M  V30 14677 H 1361.89 -3.94708 -1.03293 0
M  V30 14678 H 1360.57 -4.1578 0.0999976 0
M  V30 14679 H 1359.15 -3.38649 -1.56113 0
M  V30 14680 N 1361.33 -0.0301034 -1.57571 0
M  V30 14681 C 1362.58 0.647042 -1.91462 0
M  V30 14682 C 1362.9 1.72612 -0.907206 0
M  V30 14683 O 1362.17 1.95833 0.0511268 0
M  V30 14684 H 1360.75 0.241988 -0.706718 0
M  V30 14685 H 1363.41 -0.0781385 -1.94743 0
M  V30 14686 H 1362.51 1.09915 -2.92105 0
M  V30 14687 N 1362.81 1.55714 0.243056 0
M  V30 14688 C 1364.09 1.68483 0.993614 0
M  V30 14689 C 1364.47 0.571112 2.03228 0
M  V30 14690 O 1363.81 -0.42491 2.24515 0
M  V30 14691 C 1364.02 3.0894 1.62349 0
M  V30 14692 C 1365.37 3.67663 2.12389 0
M  V30 14693 O 1366.4 3.11764 1.72283 0
M  V30 14694 O 1365.25 4.65664 2.8604 0
M  V30 14695 H 1362.35 0.685415 0.462747 0
M  V30 14696 H 1364.89 1.68043 0.236538 0
M  V30 14697 H 1363.67 3.81451 0.87241 0
M  V30 14698 H 1363.29 3.13407 2.44667 0
M  V30 14699 N 1364.29 -0.50888 1.49158 0
M  V30 14700 C 1365.54 -1.26008 1.57496 0
M  V30 14701 C 1365.85 -1.9382 0.263281 0
M  V30 14702 O 1367.05 -2.70565 0.225117 0
M  V30 14703 C 1365.51 -2.28752 2.7785 0
M  V30 14704 C 1365.12 -1.66915 4.15744 0
M  V30 14705 C 1366.86 -3.0475 2.95513 0
M  V30 14706 C 1364.77 -2.67724 5.27331 0
M  V30 14707 H 1363.7 -0.473984 0.586392 0
M  V30 14708 H 1366.35 -0.534886 1.75531 0
M  V30 14709 H 1364.73 -3.044 2.53292 0
M  V30 14710 H 1365.91 -0.973131 4.50407 0
M  V30 14711 H 1364.22 -1.03336 4.03374 0
M  V30 14712 H 1366.82 -3.80121 3.76048 0
M  V30 14713 H 1367.16 -3.6189 2.05771 0
M  V30 14714 H 1367.69 -2.36217 3.20072 0
M  V30 14715 H 1364.43 -2.15375 6.19107 0
M  V30 14716 H 1363.95 -3.35589 4.97132 0
M  V30 14717 H 1365.63 -3.30304 5.56335 0
M  V30 14718 N 1365.76 -1.381 -0.759346 0
M  V30 14719 C 1366.99 -1.37389 -1.55367 0
M  V30 14720 C 1367.41 0.0356097 -1.88066 0
M  V30 14721 O 1366.77 1.0161 -1.5015 0
M  V30 14722 C 1366.82 -2.23098 -2.83302 0
M  V30 14723 O 1365.92 -1.64412 -3.7821 0
M  V30 14724 H 1365.27 -0.468894 -0.470143 0
M  V30 14725 H 1367.8 -1.81787 -0.938858 0
M  V30 14726 H 1367.81 -2.36753 -3.32283 0
M  V30 14727 H 1366.48 -3.25544 -2.58831 0
M  V30 14728 H 1365.06 -1.59867 -3.36893 0
M  V30 14729 N 1367.24 0.986894 -1.22875 0
M  V30 14730 C 1368.66 1.25185 -0.989997 0
M  V30 14731 C 1368.86 1.99057 0.31282 0
M  V30 14732 O 1367.91 2.30361 1.03392 0
M  V30 14733 C 1369.23 2.05775 -2.19265 0
M  V30 14734 C 1370.78 2.18938 -2.23686 0
M  V30 14735 C 1371.25 3.02917 -3.43519 0
M  V30 14736 N 1372.74 3.10503 -3.43718 0
M  V30 14737 C 1373.48 3.75789 -4.33094 0
M  V30 14738 N 1372.97 4.42952 -5.32696 0
M  V30 14739 N 1374.77 3.72611 -4.20854 0
M  V30 14740 H 1366.92 0.491816 -2.06628 0
M  V30 14741 H 1369.18 0.279856 -0.905751 0
M  V30 14742 H 1368.89 1.58864 -3.13776 0
M  V30 14743 H 1368.76 3.06529 -2.19818 0
M  V30 14744 H 1371.15 2.65061 -1.29718 0
M  V30 14745 H 1371.23 1.17595 -2.27168 0
M  V30 14746 H 1370.87 2.57493 -4.3779 0
M  V30 14747 H 1370.8 4.04415 -3.37277 0
M  V30 14748 H 1373.29 2.62709 -2.71647 0
M  V30 14749 H 1373.61 4.90527 -5.97162 0
M  V30 14750 H 1371.95 4.41681 -5.36603 0
M  V30 14751 H 1375.14 3.19305 -3.42289 0
M  V30 14752 H 1375.31 4.2321 -4.90711 0
M  V30 14753 N 1368.72 1.0394 1.18466 0
M  V30 14754 C 1369.67 0.59975 2.1997 0
M  V30 14755 C 1370.65 -0.357127 1.56887 0
M  V30 14756 O 1371.85 -0.176388 1.76119 0
M  V30 14757 C 1368.98 -0.0371434 3.4328 0
M  V30 14758 C 1368.06 0.942805 4.13488 0
M  V30 14759 N 1368.45 2.10936 4.59717 0
M  V30 14760 C 1366.75 0.768529 4.39329 0
M  V30 14761 C 1367.45 2.72829 5.1375 0
M  V30 14762 N 1366.43 2.00713 5.05188 0
M  V30 14763 H 1370.23 1.48875 2.53403 0
M  V30 14764 H 1367.74 0.907817 1.34657 0
M  V30 14765 H 1369.74 -0.369803 4.15257 0
M  V30 14766 H 1368.4 -0.921701 3.11343 0
M  V30 14767 H 1369.41 2.48831 4.54207 0
M  V30 14768 H 1366.09 -0.0660446 4.17448 0
M  V30 14769 H 1367.48 3.71684 5.59733 0
M  V30 14770 N 1370.2 -1.34667 0.818693 0
M  V30 14771 C 1371.15 -2.27031 0.210001 0
M  V30 14772 C 1372.13 -1.48338 -0.623258 0
M  V30 14773 O 1373.32 -1.70409 -0.478531 0
M  V30 14774 C 1370.45 -3.37457 -0.63069 0
M  V30 14775 C 1369.54 -4.23565 0.212964 0
M  V30 14776 N 1369.93 -4.89286 1.28191 0
M  V30 14777 C 1368.23 -4.46 -0.00340477 0
M  V30 14778 C 1368.93 -5.53216 1.79798 0
M  V30 14779 N 1367.91 -5.32302 1.10253 0
M  V30 14780 H 1371.71 -2.75345 1.02773 0
M  V30 14781 H 1369.22 -1.48336 0.661071 0
M  V30 14782 H 1371.22 -4.0259 -1.0829 0
M  V30 14783 H 1369.88 -2.90694 -1.44663 0
M  V30 14784 H 1370.89 -4.90417 1.66467 0
M  V30 14785 H 1367.57 -4.10005 -0.787516 0
M  V30 14786 H 1368.96 -6.15613 2.69203 0
M  V30 14787 N 1371.68 -0.573274 -1.46804 0
M  V30 14788 C 1372.62 0.178246 -2.31916 0
M  V30 14789 C 1373.62 0.89366 -1.4391 0
M  V30 14790 O 1374.82 0.81312 -1.60588 0
M  V30 14791 H 1371.2 0.0763519 -0.748114 0
M  V30 14792 H 1373.17 -0.558552 -2.93126 0
M  V30 14793 C 1371.92 1.18476 -3.26892 0
M  V30 14794 H 1371.24 0.643691 -3.94584 0
M  V30 14795 H 1372.68 1.68118 -3.89246 0
M  V30 14796 C 1371.14 2.24092 -2.51564 0
M  V30 14797 O 1371.67 3.3129 -2.27178 0
M  V30 14798 N 1369.88 1.98447 -2.1229 0
M  V30 14799 H 1369.42 1.11283 -2.32323 0
M  V30 14800 H 1369.38 2.69325 -1.62207 0
M  V30 14801 N 1373.15 1.5451 -0.310553 0
M  V30 14802 C 1374.38 2.05204 0.301013 0
M  V30 14803 C 1374.8 1.1859 1.46007 0
M  V30 14804 O 1374.16 0.192081 1.8028 0
M  V30 14805 C 1374.21 3.53221 0.725767 0
M  V30 14806 O 1373.31 3.69596 1.82955 0
M  V30 14807 H 1372.66 0.661566 0.0568026 0
M  V30 14808 H 1375.19 1.99473 -0.455178 0
M  V30 14809 H 1375.2 3.9525 1.01198 0
M  V30 14810 H 1373.87 4.15721 -0.122046 0
M  V30 14811 H 1372.45 3.39472 1.54315 0
M  V30 14812 N 1374.63 0.0384594 1.57553 0
M  V30 14813 C 1375.86 -0.648077 1.96488 0
M  V30 14814 C 1376.28 -1.65123 0.915414 0
M  V30 14815 O 1375.63 -1.82216 -0.101779 0
M  V30 14816 C 1375.68 -1.34623 3.35498 0
M  V30 14817 O 1375.41 -0.383261 4.3642 0
M  V30 14818 C 1376.91 -2.12372 3.89119 0
M  V30 14819 H 1374.13 -0.178068 0.646941 0
M  V30 14820 H 1376.67 0.100993 2.0425 0
M  V30 14821 H 1374.83 -2.04663 3.28926 0
M  V30 14822 H 1375.24 -0.880095 5.17063 0
M  V30 14823 H 1376.71 -2.5666 4.88702 0
M  V30 14824 H 1377.19 -2.96664 3.23863 0
M  V30 14825 H 1377.8 -1.4727 3.98988 0
M  V30 14826 N 1376.11 -1.55841 -0.234795 0
M  V30 14827 C 1377.07 -1.9051 -1.2743 0
M  V30 14828 C 1378.07 -0.782543 -1.40474 0
M  V30 14829 O 1379.26 -1.05043 -1.38966 0
M  V30 14830 C 1376.4 -2.14424 -2.65019 0
M  V30 14831 H 1377.59 -2.83471 -0.979003 0
M  V30 14832 H 1375.14 -1.48919 -0.47463 0
M  V30 14833 H 1375.88 -1.23972 -2.99669 0
M  V30 14834 H 1375.66 -2.96191 -2.56931 0
M  V30 14835 H 1377.15 -2.42388 -3.40056 0
M  V30 14836 N 1377.59 0.500963 -1.49426 0
M  V30 14837 C 1378.5 1.62889 -1.68833 0
M  V30 14838 C 1379.52 1.64367 -0.570932 0
M  V30 14839 O 1380.69 1.82786 -0.845641 0
M  V30 14840 C 1377.76 2.99255 -1.75063 0
M  V30 14841 C 1376.82 3.08404 -2.9864 0
M  V30 14842 C 1376.05 4.38266 -3.04564 0
M  V30 14843 O 1376.27 5.27065 -2.1808 0
M  V30 14844 O 1375.21 4.52387 -3.97026 0
M  V30 14845 H 1379.03 1.49446 -2.64385 0
M  V30 14846 H 1376.62 0.677254 -1.33168 0
M  V30 14847 H 1378.5 3.80303 -1.81515 0
M  V30 14848 H 1377.18 3.1296 -0.826896 0
M  V30 14849 H 1376.08 2.26544 -2.97706 0
M  V30 14850 H 1377.42 2.99626 -3.90494 0
M  V30 14851 N 1379.07 1.38501 0.752011 0
M  V30 14852 C 1380 1.38577 1.87933 0
M  V30 14853 C 1380.98 0.251454 1.68231 0
M  V30 14854 O 1382.16 0.45477 1.888 0
M  V30 14855 C 1379.29 1.21164 3.25479 0
M  V30 14856 C 1378.25 2.31816 3.59785 0
M  V30 14857 C 1377.57 1.99508 4.96085 0
M  V30 14858 C 1378.87 3.74082 3.645 0
M  V30 14859 H 1380.57 2.32913 1.88127 0
M  V30 14860 H 1378.11 1.12113 0.903698 0
M  V30 14861 H 1380.07 1.19842 4.04 0
M  V30 14862 H 1378.79 0.232899 3.25769 0
M  V30 14863 H 1377.45 2.32327 2.83584 0
M  V30 14864 H 1377.1 1.00114 4.92936 0
M  V30 14865 H 1376.8 2.73617 5.20007 0
M  V30 14866 H 1378.32 1.99807 5.76983 0
M  V30 14867 H 1379.74 3.75593 4.33131 0
M  V30 14868 H 1378.13 4.47409 3.99931 0
M  V30 14869 H 1379.2 4.06284 2.64692 0
M  V30 14870 N 1380.55 -0.980364 1.23396 0
M  V30 14871 C 1381.48 -2.07522 0.972991 0
M  V30 14872 C 1382.49 -1.62714 -0.0530191 0
M  V30 14873 O 1383.68 -1.77564 0.182513 0
M  V30 14874 C 1380.78 -3.35977 0.444126 0
M  V30 14875 C 1379.95 -4.09756 1.53031 0
M  V30 14876 C 1379.01 -5.16488 1.00631 0
M  V30 14877 O 1378.04 -5.43368 1.69529 0
M  V30 14878 N 1379.24 -5.80263 -0.165842 0
M  V30 14879 H 1382 -2.30487 1.91561 0
M  V30 14880 H 1379.57 -1.14706 1.14255 0
M  V30 14881 H 1381.56 -4.04624 0.078617 0
M  V30 14882 H 1380.13 -3.0998 -0.403912 0
M  V30 14883 H 1379.35 -3.35564 2.06858 0
M  V30 14884 H 1380.64 -4.55815 2.26076 0
M  V30 14885 H 1380.03 -5.60811 -0.742162 0
M  V30 14886 H 1378.59 -6.50084 -0.472614 0
M  V30 14887 N 1382.02 -1.04567 -1.17913 0
M  V30 14888 C 1382.97 -0.641119 -2.21717 0
M  V30 14889 C 1383.94 0.353585 -1.62293 0
M  V30 14890 O 1385.13 0.246427 -1.89202 0
M  V30 14891 C 1382.27 -0.0154726 -3.45097 0
M  V30 14892 C 1381.38 -1.05825 -4.18838 0
M  V30 14893 C 1380.51 -0.400588 -5.29687 0
M  V30 14894 C 1379.55 -1.42811 -5.95207 0
M  V30 14895 N 1378.69 -0.795059 -6.97584 0
M  V30 14896 H 1383.53 -1.5308 -2.55676 0
M  V30 14897 H 1381.07 -0.765715 -1.25599 0
M  V30 14898 H 1383.02 0.364653 -4.15603 0
M  V30 14899 H 1381.65 0.837704 -3.11741 0
M  V30 14900 H 1380.71 -1.55627 -3.47109 0
M  V30 14901 H 1382.02 -1.83849 -4.63682 0
M  V30 14902 H 1381.17 0.0334682 -6.06691 0
M  V30 14903 H 1379.91 0.411696 -4.85959 0
M  V30 14904 H 1378.92 -1.87225 -5.1694 0
M  V30 14905 H 1380.14 -2.24218 -6.41017 0
M  V30 14906 H 1378.09 -0.00317202 -6.56 0
M  V30 14907 H 1378 -1.51293 -7.40707 0
M  V30 14908 H 1379.27 -0.385567 -7.78546 0
M  V30 14909 N 1383.5 1.34231 -0.825823 0
M  V30 14910 C 1384.46 2.27776 -0.25512 0
M  V30 14911 C 1385.46 1.50409 0.568654 0
M  V30 14912 O 1386.65 1.69907 0.384337 0
M  V30 14913 C 1383.79 3.348 0.642013 0
M  V30 14914 H 1384.98 2.79763 -1.0804 0
M  V30 14915 H 1382.53 1.44412 -0.597904 0
M  V30 14916 H 1383.27 2.88032 1.49024 0
M  V30 14917 H 1383.05 3.92064 0.0527756 0
M  V30 14918 H 1384.54 4.0457 1.03502 0
M  V30 14919 N 1384.98 0.581051 1.46498 0
M  V30 14920 C 1385.89 -0.155669 2.34083 0
M  V30 14921 C 1386.91 -0.887728 1.49651 0
M  V30 14922 O 1388.08 -0.851284 1.82524 0
M  V30 14923 C 1385.15 -1.15752 3.26806 0
M  V30 14924 C 1384.21 -0.43031 4.27138 0
M  V30 14925 C 1383.44 -1.38443 5.15431 0
M  V30 14926 O 1383.66 -2.62084 5.06624 0
M  V30 14927 O 1382.6 -0.89592 5.95195 0
M  V30 14928 H 1386.42 0.56341 2.98428 0
M  V30 14929 H 1384.01 0.341466 1.45445 0
M  V30 14930 H 1385.89 -1.73523 3.84015 0
M  V30 14931 H 1384.57 -1.85809 2.65059 0
M  V30 14932 H 1383.47 0.1892 3.73621 0
M  V30 14933 H 1384.81 0.229263 4.91666 0
M  V30 14934 N 1386.46 -1.54343 0.318742 0
M  V30 14935 C 1387.42 -2.22828 -0.536679 0
M  V30 14936 C 1388.42 -1.22013 -1.04735 0
M  V30 14937 O 1389.61 -1.46626 -0.940549 0
M  V30 14938 C 1386.74 -2.92857 -1.74493 0
M  V30 14939 H 1387.94 -2.99836 0.0619325 0
M  V30 14940 H 1385.49 -1.56144 0.0697687 0
M  V30 14941 H 1386.22 -2.19973 -2.3829 0
M  V30 14942 H 1386.01 -3.66779 -1.38621 0
M  V30 14943 H 1387.5 -3.45049 -2.35225 0
M  V30 14944 N 1387.94 -0.0468143 -1.5753 0
M  V30 14945 C 1388.88 0.929065 -2.11275 0
M  V30 14946 C 1389.85 1.31166 -1.01905 0
M  V30 14947 O 1391.04 1.40189 -1.29428 0
M  V30 14948 C 1388.18 2.20012 -2.65873 0
M  V30 14949 C 1387.29 1.8724 -3.89314 0
M  V30 14950 C 1386.43 3.08772 -4.32242 0
M  V30 14951 C 1385.46 2.719 -5.48395 0
M  V30 14952 N 1384.6 3.86112 -5.86397 0
M  V30 14953 H 1389.44 0.463854 -2.94368 0
M  V30 14954 H 1386.98 0.217338 -1.45486 0
M  V30 14955 H 1388.94 2.94383 -2.95626 0
M  V30 14956 H 1387.57 2.64118 -1.85584 0
M  V30 14957 H 1386.62 1.03037 -3.6618 0
M  V30 14958 H 1387.93 1.56096 -4.73746 0
M  V30 14959 H 1387.08 3.91446 -4.63525 0
M  V30 14960 H 1385.82 3.4309 -3.46613 0
M  V30 14961 H 1384.83 1.87642 -5.16789 0
M  V30 14962 H 1386.05 2.38779 -6.35737 0
M  V30 14963 H 1384 4.2024 -5.03721 0
M  V30 14964 H 1383.92 3.58652 -6.65511 0
M  V30 14965 H 1385.18 4.69438 -6.22293 0
M  V30 14966 N 1389.41 1.55964 0.226527 0
M  V30 14967 C 1390.36 1.92007 1.28069 0
M  V30 14968 C 1391.33 0.776666 1.46823 0
M  V30 14969 O 1392.52 1.03213 1.60474 0
M  V30 14970 C 1389.66 2.23784 2.62707 0
M  V30 14971 C 1388.77 3.51034 2.51792 0
M  V30 14972 C 1387.9 3.72281 3.7892 0
M  V30 14973 C 1386.94 4.93062 3.62707 0
M  V30 14974 N 1386.08 5.10725 4.81772 0
M  V30 14975 H 1390.92 2.81898 0.96631 0
M  V30 14976 H 1388.46 1.39529 0.465847 0
M  V30 14977 H 1390.42 2.40217 3.41104 0
M  V30 14978 H 1389.05 1.37073 2.92251 0
M  V30 14979 H 1388.1 3.42822 1.64856 0
M  V30 14980 H 1389.41 4.39582 2.35731 0
M  V30 14981 H 1388.56 3.88783 4.6576 0
M  V30 14982 H 1387.3 2.82004 3.97901 0
M  V30 14983 H 1386.31 4.76515 2.7425 0
M  V30 14984 H 1387.53 5.84819 3.45201 0
M  V30 14985 H 1385.48 4.2339 5.01076 0
M  V30 14986 H 1385.4 5.93397 4.68419 0
M  V30 14987 H 1386.66 5.31658 5.70053 0
M  V30 14988 N 1390.89 -0.493031 1.4969 0
M  V30 14989 C 1391.8 -1.61991 1.69694 0
M  V30 14990 C 1392.82 -1.64061 0.579641 0
M  V30 14991 O 1393.99 -1.82335 0.855323 0
M  V30 14992 C 1391.06 -2.98323 1.76648 0
M  V30 14993 C 1390.12 -3.06816 3.00271 0
M  V30 14994 C 1389.35 -4.36644 3.06883 0
M  V30 14995 O 1389.58 -5.25901 2.20872 0
M  V30 14996 O 1388.51 -4.50275 3.99419 0
M  V30 14997 H 1392.34 -1.48042 2.65174 0
M  V30 14998 H 1389.92 -0.670182 1.33525 0
M  V30 14999 H 1391.8 -3.79335 1.83529 0
M  V30 15000 H 1390.48 -3.12517 0.843482 0
M  V30 15001 H 1389.39 -2.24962 2.98903 0
M  V30 15002 H 1390.72 -2.97551 3.92077 0
M  V30 15003 N 1392.37 -1.38898 -0.744656 0
M  V30 15004 C 1393.28 -1.39098 -1.88915 0
M  V30 15005 C 1394.3 -0.286956 -1.71617 0
M  V30 15006 O 1395.47 -0.526852 -1.94387 0
M  V30 15007 C 1392.54 -1.22352 -3.24393 0
M  V30 15008 C 1391.6 -2.4264 -3.54153 0
M  V30 15009 C 1390.83 -2.26683 -4.83167 0
M  V30 15010 O 1391.05 -1.26523 -5.56191 0
M  V30 15011 O 1389.99 -3.15464 -5.12607 0
M  V30 15012 H 1393.81 -2.35551 -1.91701 0
M  V30 15013 H 1391.4 -1.19911 -0.891158 0
M  V30 15014 H 1393.28 -1.15109 -4.05374 0
M  V30 15015 H 1391.96 -0.289886 -3.22399 0
M  V30 15016 H 1390.86 -2.55459 -2.73298 0
M  V30 15017 H 1392.2 -3.34664 -3.60917 0
M  V30 15018 N 1393.85 0.973806 -1.23914 0
M  V30 15019 C 1395.08 1.75107 -1.10206 0
M  V30 15020 C 1395.49 1.85604 0.345935 0
M  V30 15021 O 1394.85 1.33996 1.239 0
M  V30 15022 C 1394.9 3.17466 -1.72909 0
M  V30 15023 O 1394.62 3.07504 -3.12047 0
M  V30 15024 C 1396.12 4.11557 -1.6473 0
M  V30 15025 H 1393.34 0.549318 -0.385345 0
M  V30 15026 H 1395.89 1.22301 -1.63898 0
M  V30 15027 H 1394.04 3.67277 -1.23234 0
M  V30 15028 H 1394.45 3.97169 -3.42575 0
M  V30 15029 H 1395.93 5.09126 -2.13295 0
M  V30 15030 H 1396.41 4.3498 -0.607352 0
M  V30 15031 H 1397.01 3.67653 -2.13802 0
M  V30 15032 N 1395.33 1.05191 1.17357 0
M  V30 15033 C 1396.57 0.772902 1.88143 0
M  V30 15034 C 1396.93 -0.692542 1.79504 0
M  V30 15035 O 1396.22 -1.49992 1.19219 0
M  V30 15036 C 1396.41 1.18779 3.37085 0
M  V30 15037 C 1396.24 2.69203 3.60222 0
M  V30 15038 C 1395.01 3.36512 3.76945 0
M  V30 15039 C 1397.21 3.67423 3.59867 0
M  V30 15040 N 1395.19 4.758 3.87927 0
M  V30 15041 C 1396.56 4.92441 3.76699 0
M  V30 15042 C 1398.62 3.60893 3.43017 0
M  V30 15043 C 1397.32 6.11709 3.78425 0
M  V30 15044 C 1399.35 4.796 3.46031 0
M  V30 15045 C 1398.71 6.03441 3.63371 0
M  V30 15046 H 1394.81 0.335055 0.706585 0
M  V30 15047 H 1397.39 1.34385 1.40886 0
M  V30 15048 H 1395.56 0.644801 3.8301 0
M  V30 15049 H 1397.3 0.85862 3.95487 0
M  V30 15050 H 1394.05 2.86913 3.768 0
M  V30 15051 H 1394.48 5.48225 3.97213 0
M  V30 15052 H 1399.12 2.66112 3.28548 0
M  V30 15053 H 1396.84 7.06833 3.91679 0
M  V30 15054 H 1400.42 4.762 3.34252 0
M  V30 15055 H 1399.3 6.93759 3.65607 0
M  V30 15056 N 1396.8 -1.33791 0.83293 0
M  V30 15057 C 1397.75 -2.29332 0.25989 0
M  V30 15058 C 1398.72 -1.54056 -0.620965 0
M  V30 15059 O 1399.91 -1.82382 -0.560492 0
M  V30 15060 C 1397.05 -3.40461 -0.563964 0
M  V30 15061 C 1396.16 -4.30658 0.34025 0
M  V30 15062 C 1395.29 -5.28897 -0.494134 0
M  V30 15063 C 1394.33 -6.10733 0.408842 0
M  V30 15064 N 1393.47 -7.01032 -0.38706 0
M  V30 15065 H 1398.31 -2.77743 1.07996 0
M  V30 15066 H 1395.85 -1.3667 0.544043 0
M  V30 15067 H 1397.81 -4.03587 -1.05704 0
M  V30 15068 H 1396.44 -2.93258 -1.34905 0
M  V30 15069 H 1395.49 -3.68305 0.9516 0
M  V30 15070 H 1396.8 -4.87962 1.03415 0
M  V30 15071 H 1395.95 -5.97522 -1.05128 0
M  V30 15072 H 1394.69 -4.72155 -1.2215 0
M  V30 15073 H 1393.7 -5.41031 0.978046 0
M  V30 15074 H 1394.92 -6.69557 1.13448 0
M  V30 15075 H 1392.87 -6.46747 -1.09792 0
M  V30 15076 H 1392.79 -7.55592 0.248249 0
M  V30 15077 H 1394.05 -7.73973 -0.926631 0
M  V30 15078 N 1398.28 -0.588812 -1.46187 0
M  V30 15079 C 1399.21 0.128595 -2.33146 0
M  V30 15080 C 1400.19 0.877608 -1.45712 0
M  V30 15081 O 1401.38 0.851866 -1.74519 0
M  V30 15082 C 1398.51 1.13886 -3.28096 0
M  V30 15083 C 1397.46 0.504296 -4.25019 0
M  V30 15084 C 1396.79 1.62147 -5.09522 0
M  V30 15085 C 1398.09 -0.562466 -5.19263 0
M  V30 15086 H 1399.78 -0.597455 -2.93378 0
M  V30 15087 H 1397.33 -0.288764 -1.41075 0
M  V30 15088 H 1399.28 1.64916 -3.8779 0
M  V30 15089 H 1398.01 1.89527 -2.65983 0
M  V30 15090 H 1396.66 0.0150325 -3.66597 0
M  V30 15091 H 1396.31 2.36769 -4.4379 0
M  V30 15092 H 1396.01 1.20249 -5.75164 0
M  V30 15093 H 1397.54 2.13441 -5.7208 0
M  V30 15094 H 1398.95 -0.137003 -5.73136 0
M  V30 15095 H 1397.35 -0.902115 -5.93281 0
M  V30 15096 H 1398.42 -1.4464 -4.62825 0
M  V30 15097 N 1399.76 1.54172 -0.326923 0
M  V30 15098 C 1400.69 2.20703 0.580137 0
M  V30 15099 C 1401.67 1.18523 1.11315 0
M  V30 15100 O 1402.86 1.47276 1.17652 0
M  V30 15101 C 1399.98 2.87137 1.79638 0
M  V30 15102 C 1399.03 4.03064 1.39432 0
M  V30 15103 S 1399.86 5.33785 0.428179 0
M  V30 15104 C 1401.02 6.03715 1.65163 0
M  V30 15105 H 1401.25 2.97296 0.0149964 0
M  V30 15106 H 1398.78 1.54 -0.111004 0
M  V30 15107 H 1400.74 3.26035 2.49423 0
M  V30 15108 H 1399.4 2.1034 2.33272 0
M  V30 15109 H 1398.6 4.48424 2.3007 0
M  V30 15110 H 1398.2 3.65858 0.776144 0
M  V30 15111 H 1400.49 6.26098 2.58858 0
M  V30 15112 H 1401.43 6.97156 1.24014 0
M  V30 15113 H 1401.84 5.33666 1.84014 0
M  V30 15114 N 1401.24 0.0551678 1.57503 0
M  V30 15115 C 1402.15 -0.932959 2.15251 0
M  V30 15116 C 1403.16 -1.33885 1.11134 0
M  V30 15117 O 1404.34 -1.41495 1.43321 0
M  V30 15118 C 1401.41 -2.18807 2.68932 0
M  V30 15119 C 1400.47 -1.84016 3.87862 0
M  V30 15120 C 1399.7 -3.03543 4.38973 0
M  V30 15121 O 1399.92 -4.17041 3.89144 0
M  V30 15122 O 1398.86 -2.84325 5.30512 0
M  V30 15123 H 1402.68 -0.471816 3.00013 0
M  V30 15124 H 1400.27 -0.16696 1.48464 0
M  V30 15125 H 1402.15 -2.92439 3.0341 0
M  V30 15126 H 1400.82 -2.64051 1.87239 0
M  V30 15127 H 1399.73 -1.07687 3.58266 0
M  V30 15128 H 1401.06 -1.43567 4.70796 0
M  V30 15129 N 1402.72 -1.56081 -0.218252 0
M  V30 15130 C 1403.68 -1.91851 -1.25402 0
M  V30 15131 C 1404.68 -0.797399 -1.39636 0
M  V30 15132 O 1405.87 -1.06511 -1.37844 0
M  V30 15133 C 1403 -2.17223 -2.6273 0
M  V30 15134 H 1404.19 -2.84493 -0.948882 0
M  V30 15135 H 1401.75 -1.49414 -0.458809 0
M  V30 15136 H 1402.48 -1.27144 -2.98337 0
M  V30 15137 H 1402.27 -2.98899 -2.53775 0
M  V30 15138 H 1403.76 -2.45981 -3.37466 0
M  V30 15139 N 1404.2 0.485086 -1.49949 0
M  V30 15140 C 1405.47 1.24639 -1.50747 0
M  V30 15141 C 1405.85 2.09683 -0.244162 0
M  V30 15142 O 1405.2 2.1503 0.772949 0
M  V30 15143 C 1405.41 2.08946 -2.7954 0
M  V30 15144 C 1406.76 2.67604 -3.29656 0
M  V30 15145 O 1407.78 2.192 -2.80766 0
M  V30 15146 O 1406.64 3.55761 -4.14845 0
M  V30 15147 H 1403.74 0.564849 -0.604049 0
M  V30 15148 H 1406.28 0.498052 -1.62227 0
M  V30 15149 H 1405.05 1.46185 -3.62968 0
M  V30 15150 H 1404.68 2.90941 -2.70997 0
M  V30 15151 N 1405.67 1.39291 0.737279 0
M  V30 15152 C 1406.62 1.37829 1.85127 0
M  V30 15153 C 1407.59 0.238321 1.64381 0
M  V30 15154 O 1408.78 0.433081 1.8582 0
M  V30 15155 C 1405.92 1.22531 3.22615 0
M  V30 15156 C 1405.03 2.46052 3.55081 0
M  V30 15157 C 1404.16 2.2336 4.81958 0
M  V30 15158 C 1403.2 3.42569 5.0726 0
M  V30 15159 N 1402.34 3.19209 6.2534 0
M  V30 15160 H 1407.18 2.33056 1.85712 0
M  V30 15161 H 1404.72 1.15772 0.907484 0
M  V30 15162 H 1406.67 1.11673 4.01976 0
M  V30 15163 H 1405.3 0.30934 3.21314 0
M  V30 15164 H 1404.36 2.67521 2.70438 0
M  V30 15165 H 1405.67 3.3485 3.69698 0
M  V30 15166 H 1404.82 2.09732 5.69295 0
M  V30 15167 H 1403.56 1.31953 4.6951 0
M  V30 15168 H 1402.57 3.56698 4.18386 0
M  V30 15169 H 1403.79 4.34874 5.21595 0
M  V30 15170 H 1401.74 2.30464 6.14184 0
M  V30 15171 H 1401.65 4.01562 6.40534 0
M  V30 15172 H 1402.92 3.09269 7.15523 0
M  V30 15173 N 1407.15 -0.967221 1.24429 0
M  V30 15174 C 1408.11 -2.04344 1.03808 0
M  V30 15175 C 1409.11 -1.60799 -0.00476972 0
M  V30 15176 O 1410.3 -1.72591 0.236241 0
M  V30 15177 C 1407.44 -3.36041 0.573496 0
M  V30 15178 H 1408.63 -2.2407 1.9933 0
M  V30 15179 H 1406.18 -1.14253 1.06658 0
M  V30 15180 H 1406.92 -3.22008 -0.384898 0
M  V30 15181 H 1406.7 -3.68991 1.32619 0
M  V30 15182 H 1408.19 -4.15165 0.450272 0
M  V30 15183 N 1408.63 -1.05812 -1.16797 0
M  V30 15184 C 1409.56 -0.622584 -2.20582 0
M  V30 15185 C 1410.57 0.316905 -1.59686 0
M  V30 15186 O 1411.76 0.108657 -1.78169 0
M  V30 15187 C 1408.86 0.108124 -3.38727 0
M  V30 15188 C 1408.04 -0.84363 -4.29187 0
M  V30 15189 C 1407.1 -0.15305 -5.25977 0
M  V30 15190 O 1406.12 -0.78915 -5.63703 0
M  V30 15191 N 1407.32 1.10721 -5.69843 0
M  V30 15192 H 1410.09 -1.51532 -2.5857 0
M  V30 15193 H 1407.65 -0.940815 -1.31758 0
M  V30 15194 H 1409.64 0.580395 -4.00517 0
M  V30 15195 H 1408.21 0.902599 -2.99286 0
M  V30 15196 H 1407.43 -1.49538 -3.64735 0
M  V30 15197 H 1408.72 -1.48946 -4.86511 0
M  V30 15198 H 1408.12 1.64423 -5.41278 0
M  V30 15199 H 1406.67 1.52344 -6.33746 0
M  V30 15200 N 1410.11 1.33347 -0.840014 0
M  V30 15201 C 1411.34 2.01952 -0.449793 0
M  V30 15202 C 1411.75 1.63197 0.949317 0
M  V30 15203 O 1411.11 0.84589 1.61713 0
M  V30 15204 C 1411.16 3.57102 -0.562178 0
M  V30 15205 O 1410.88 3.94458 -1.90616 0
M  V30 15206 C 1412.38 4.42978 -0.169062 0
M  V30 15207 H 1409.6 0.646843 -0.178425 0
M  V30 15208 H 1412.14 1.70251 -1.1329 0
M  V30 15209 H 1410.3 3.87331 0.0730345 0
M  V30 15210 H 1410.71 4.89167 -1.8925 0
M  V30 15211 H 1412.19 5.51191 -0.298742 0
M  V30 15212 H 1412.66 4.30106 0.889137 0
M  V30 15213 H 1413.27 4.18109 -0.778756 0
M  V30 15214 N 1411.59 0.596556 1.45873 0
M  V30 15215 C 1412.83 0.0872856 2.01911 0
M  V30 15216 C 1413.15 -1.28257 1.46885 0
M  V30 15217 O 1412.42 -1.84489 0.658837 0
M  V30 15218 H 1411 0.0292769 0.746426 0
M  V30 15219 H 1413.67 0.775464 1.78809 0
M  V30 15220 H 1412.76 0.0287213 3.12087 0
M  V30 15221 N 1413.06 -1.53996 0.335095 0
M  V30 15222 C 1414 -2.22258 -0.559809 0
M  V30 15223 C 1415.01 -1.22636 -1.07071 0
M  V30 15224 O 1416.2 -1.4904 -0.982312 0
M  V30 15225 C 1413.3 -2.88256 -1.78218 0
M  V30 15226 C 1412.47 -4.14118 -1.40801 0
M  V30 15227 C 1411.53 -4.63603 -2.48915 0
M  V30 15228 O 1410.56 -5.28015 -2.12576 0
M  V30 15229 N 1411.76 -4.3881 -3.80034 0
M  V30 15230 H 1414.52 -2.9969 0.0247521 0
M  V30 15231 H 1412.08 -1.61119 0.158826 0
M  V30 15232 H 1414.08 -3.1828 -2.4996 0
M  V30 15233 H 1412.65 -2.14461 -2.27431 0
M  V30 15234 H 1411.87 -3.90732 -0.521729 0
M  V30 15235 H 1413.15 -4.96005 -1.13388 0
M  V30 15236 H 1412.55 -3.87278 -4.12349 0
M  V30 15237 H 1411.11 -4.73461 -4.47971 0
M  V30 15238 N 1414.54 -0.0635198 -1.57472 0
M  V30 15239 C 1415.79 0.608384 -1.93459 0
M  V30 15240 C 1416.12 1.6976 -0.943141 0
M  V30 15241 O 1415.4 1.94478 0.0289567 0
M  V30 15242 C 1415.68 1.19302 -3.39763 0
M  V30 15243 C 1415.53 0.11102 -4.49663 0
M  V30 15244 C 1416.85 2.101 -3.86712 0
M  V30 15245 H 1413.97 0.219688 -0.703496 0
M  V30 15246 H 1416.61 -0.127803 -1.8957 0
M  V30 15247 H 1414.76 1.82044 -3.43209 0
M  V30 15248 H 1416.43 -0.521606 -4.58342 0
M  V30 15249 H 1414.68 -0.559408 -4.30178 0
M  V30 15250 H 1415.35 0.560332 -5.49149 0
M  V30 15251 H 1417.82 1.57305 -3.8522 0
M  V30 15252 H 1416.7 2.47945 -4.89708 0
M  V30 15253 H 1416.96 3.00603 -3.24177 0
M  V30 15254 N 1416.02 1.56195 0.209972 0
M  V30 15255 C 1416.97 1.93355 1.26026 0
M  V30 15256 C 1417.94 0.792195 1.45991 0
M  V30 15257 O 1419.12 1.04909 1.5937 0
M  V30 15258 C 1416.26 2.26558 2.60318 0
M  V30 15259 C 1415.37 3.53685 2.48055 0
M  V30 15260 C 1414.51 3.76279 3.7495 0
M  V30 15261 C 1413.55 4.96881 3.57457 0
M  V30 15262 N 1412.69 5.15806 4.76328 0
M  V30 15263 H 1417.53 2.82907 0.936357 0
M  V30 15264 H 1415.06 1.40015 0.451022 0
M  V30 15265 H 1417.02 2.43821 3.38537 0
M  V30 15266 H 1415.65 1.40165 2.90781 0
M  V30 15267 H 1414.7 3.44551 1.61211 0
M  V30 15268 H 1416.01 4.42057 2.31056 0
M  V30 15269 H 1415.17 3.93702 4.6161 0
M  V30 15270 H 1413.91 2.86209 3.94887 0
M  V30 15271 H 1412.91 4.79397 2.69181 0
M  V30 15272 H 1414.14 5.88447 3.38979 0
M  V30 15273 H 1412.08 4.28681 4.96557 0
M  V30 15274 H 1412 5.98332 4.62099 0
M  V30 15275 H 1413.27 5.37674 5.64382 0
M  V30 15276 N 1417.5 -0.477127 1.50204 0
M  V30 15277 C 1418.43 -1.58405 1.71552 0
M  V30 15278 C 1419.41 -1.60463 0.564413 0
M  V30 15279 O 1420.59 -1.76826 0.802893 0
M  V30 15280 C 1417.72 -2.96765 1.8041 0
M  V30 15281 C 1416.68 -3.09573 2.95548 0
M  V30 15282 C 1416 -4.49522 2.89542 0
M  V30 15283 C 1417.3 -2.87356 4.36147 0
M  V30 15284 H 1419 -1.40792 2.64231 0
M  V30 15285 H 1416.54 -0.675886 1.27153 0
M  V30 15286 H 1418.5 -3.74125 1.9393 0
M  V30 15287 H 1417.22 -3.1552 0.843489 0
M  V30 15288 H 1415.88 -2.34645 2.81669 0
M  V30 15289 H 1415.53 -4.65186 1.91339 0
M  V30 15290 H 1415.23 -4.59028 3.66834 0
M  V30 15291 H 1416.75 -5.28909 3.05102 0
M  V30 15292 H 1418.17 -3.54469 4.50583 0
M  V30 15293 H 1416.56 -3.08313 5.14843 0
M  V30 15294 H 1417.63 -1.83264 4.48935 0
M  V30 15295 N 1418.98 -1.3968 -0.729882 0
M  V30 15296 C 1420.2 -1.40654 -1.52418 0
M  V30 15297 C 1420.63 -0.00428997 -1.881 0
M  V30 15298 O 1419.98 0.984023 -1.52272 0
M  V30 15299 C 1420.03 -2.29057 -2.78506 0
M  V30 15300 O 1419.14 -1.72397 -3.74637 0
M  V30 15301 H 1418.48 -0.478761 -0.460091 0
M  V30 15302 H 1421.01 -1.83738 -0.900087 0
M  V30 15303 H 1421.02 -2.43748 -3.27187 0
M  V30 15304 H 1419.69 -3.30961 -2.51868 0
M  V30 15305 H 1418.27 -1.66977 -3.33426 0
M  V30 15306 N 1420.45 0.960609 -1.2494 0
M  V30 15307 C 1421.7 1.70701 -1.09495 0
M  V30 15308 C 1422.03 1.90754 0.364214 0
M  V30 15309 O 1421.31 1.47417 1.26879 0
M  V30 15310 C 1421.59 3.09353 -1.84317 0
M  V30 15311 C 1421.44 2.96747 -3.38026 0
M  V30 15312 C 1422.76 4.09139 -1.62153 0
M  V30 15313 H 1419.88 0.61955 -0.399158 0
M  V30 15314 H 1422.52 1.11701 -1.53698 0
M  V30 15315 H 1420.67 3.59719 -1.46746 0
M  V30 15316 H 1422.35 2.53752 -3.85237 0
M  V30 15317 H 1420.59 2.32798 -3.66043 0
M  V30 15318 H 1421.26 3.95002 -3.85587 0
M  V30 15319 H 1423.74 3.67659 -1.94849 0
M  V30 15320 H 1422.61 5.04206 -2.16951 0
M  V30 15321 H 1422.87 4.38521 -0.561437 0
M  V30 15322 N 1421.93 1.0643 1.16234 0
M  V30 15323 C 1423.16 0.80148 1.9042 0
M  V30 15324 C 1423.57 -0.648064 1.77755 0
M  V30 15325 O 1422.91 -1.4555 1.12076 0
M  V30 15326 C 1422.98 1.11855 3.41656 0
M  V30 15327 C 1422.64 2.5668 3.78107 0
M  V30 15328 C 1423.64 3.54914 3.79911 0
M  V30 15329 C 1421.32 2.92015 4.08696 0
M  V30 15330 C 1423.32 4.86522 4.11795 0
M  V30 15331 C 1421 4.23823 4.40247 0
M  V30 15332 C 1422 5.20887 4.41776 0
M  V30 15333 O 1421.69 6.50329 4.72575 0
M  V30 15334 H 1421.42 0.290009 0.610632 0
M  V30 15335 H 1423.97 1.42157 1.48258 0
M  V30 15336 H 1422.2 0.441395 3.84173 0
M  V30 15337 H 1423.89 0.839759 3.97118 0
M  V30 15338 H 1424.66 3.28957 3.56388 0
M  V30 15339 H 1420.54 2.17119 4.0667 0
M  V30 15340 H 1424.08 5.62278 4.12903 0
M  V30 15341 H 1419.98 4.49538 4.63235 0
M  V30 15342 H 1420.75 6.55339 4.90381 0
M  V30 15343 N 1423.41 -1.329 0.847073 0
M  V30 15344 C 1424.66 -1.98207 0.456672 0
M  V30 15345 C 1425.01 -1.65853 -0.975219 0
M  V30 15346 O 1424.3 -0.932413 -1.67382 0
M  V30 15347 C 1424.5 -3.51913 0.623845 0
M  V30 15348 C 1424.33 -3.99203 2.07043 0
M  V30 15349 C 1423.1 -4.26649 2.70737 0
M  V30 15350 C 1425.3 -4.14825 3.04014 0
M  V30 15351 N 1423.28 -4.60134 4.06386 0
M  V30 15352 C 1424.65 -4.51762 4.2463 0
M  V30 15353 C 1426.7 -3.97137 3.0031 0
M  V30 15354 C 1425.41 -4.72859 5.4203 0
M  V30 15355 C 1427.43 -4.19414 4.16948 0
M  V30 15356 C 1426.79 -4.56661 5.36321 0
M  V30 15357 H 1422.89 -0.751664 0.215696 0
M  V30 15358 H 1425.48 -1.60863 1.09687 0
M  V30 15359 H 1423.65 -3.88398 0.0133985 0
M  V30 15360 H 1425.38 -4.04185 0.204083 0
M  V30 15361 H 1422.14 -4.1844 2.21822 0
M  V30 15362 H 1422.56 -4.81074 4.76337 0
M  V30 15363 H 1427.2 -3.67449 2.09144 0
M  V30 15364 H 1424.92 -5.01405 6.33734 0
M  V30 15365 H 1428.51 -4.07239 4.15509 0
M  V30 15366 H 1427.39 -4.73554 6.25073 0
M  V30 15367 N 1424.89 -0.604284 -1.45555 0
M  V30 15368 C 1426.17 -0.0303285 -1.95576 0
M  V30 15369 C 1426.55 1.43661 -1.54676 0
M  V30 15370 O 1425.89 2.13747 -0.807731 0
M  V30 15371 C 1426.1 -0.22497 -3.48274 0
M  V30 15372 C 1427.45 -0.104042 -4.24473 0
M  V30 15373 O 1428.48 -0.154919 -3.55863 0
M  V30 15374 O 1427.33 0.0136297 -5.46498 0
M  V30 15375 H 1424.43 0.0376106 -0.826144 0
M  V30 15376 H 1426.97 -0.674114 -1.55736 0
M  V30 15377 H 1425.75 -1.24391 -3.71002 0
M  V30 15378 H 1425.37 0.454234 -3.94997 0
M  V30 15379 N 1426.37 1.53816 -0.343257 0
M  V30 15380 C 1427.6 2.05028 0.254375 0
M  V30 15381 C 1428 1.21793 1.44786 0
M  V30 15382 O 1427.35 0.246075 1.82044 0
M  V30 15383 C 1427.41 3.5194 0.733364 0
M  V30 15384 C 1427.07 4.5573 -0.340434 0
M  V30 15385 C 1428.07 5.06261 -1.18304 0
M  V30 15386 C 1425.76 4.99862 -0.494277 0
M  V30 15387 C 1427.75 5.99504 -2.16503 0
M  V30 15388 C 1425.44 5.92916 -1.47967 0
M  V30 15389 C 1426.43 6.42625 -2.3135 0
M  V30 15390 O 1426.12 7.33848 -3.28211 0
M  V30 15391 H 1425.85 0.673922 0.0529695 0
M  V30 15392 H 1428.41 1.99387 -0.493352 0
M  V30 15393 H 1426.64 3.55044 1.53233 0
M  V30 15394 H 1428.33 3.86124 1.25151 0
M  V30 15395 H 1429.09 4.7293 -1.07527 0
M  V30 15396 H 1424.97 4.60772 0.144904 0
M  V30 15397 H 1428.52 6.38227 -2.81624 0
M  V30 15398 H 1424.41 6.25662 -1.588 0
M  V30 15399 H 1425.18 7.51781 -3.23679 0
M  V30 15400 N 1427.84 0.0718701 1.57436 0
M  V30 15401 C 1428.78 -0.931304 2.08331 0
M  V30 15402 C 1429.76 -1.29106 0.988448 0
M  V30 15403 O 1430.94 -1.40035 1.26184 0
M  V30 15404 C 1428.07 -2.23939 2.54104 0
M  V30 15405 C 1427.11 -2.03119 3.75026 0
M  V30 15406 S 1427.95 -1.29048 5.19718 0
M  V30 15407 C 1429.1 -2.61136 5.68822 0
M  V30 15408 H 1429.33 -0.498236 2.93095 0
M  V30 15409 H 1426.87 -0.140897 1.53756 0
M  V30 15410 H 1428.83 -2.9912 2.81136 0
M  V30 15411 H 1427.49 -2.64371 1.69608 0
M  V30 15412 H 1426.68 -2.99927 4.05043 0
M  V30 15413 H 1426.28 -1.36074 3.48367 0
M  V30 15414 H 1428.57 -3.57224 5.75671 0
M  V30 15415 H 1429.52 -2.35729 6.67711 0
M  V30 15416 H 1429.92 -2.68345 4.9664 0
M  V30 15417 N 1429.32 -1.56304 -0.201686 0
M  V30 15418 C 1430.27 -1.94021 -1.24999 0
M  V30 15419 C 1431.24 -0.799926 -1.45569 0
M  V30 15420 O 1432.42 -1.05752 -1.58811 0
M  V30 15421 C 1429.56 -2.27935 -2.59113 0
M  V30 15422 C 1428.68 -3.54995 -2.46176 0
M  V30 15423 C 1427.81 -3.78262 -3.72949 0
M  V30 15424 C 1426.85 -4.9877 -3.54817 0
M  V30 15425 N 1425.99 -5.18325 -4.73586 0
M  V30 15426 H 1430.83 -2.834 -0.92134 0
M  V30 15427 H 1428.37 -1.40252 -0.44359 0
M  V30 15428 H 1430.32 -2.45613 -3.37239 0
M  V30 15429 H 1428.95 -1.41705 -2.90034 0
M  V30 15430 H 1428.01 -3.45401 -1.59381 0
M  V30 15431 H 1429.32 -4.43277 -2.28708 0
M  V30 15432 H 1428.47 -3.96144 -4.59516 0
M  V30 15433 H 1427.21 -2.88299 -3.93364 0
M  V30 15434 H 1426.22 -4.80818 -2.66635 0
M  V30 15435 H 1427.44 -5.90237 -3.35854 0
M  V30 15436 H 1425.39 -4.31308 -4.94277 0
M  V30 15437 H 1425.3 -6.00774 -4.58919 0
M  V30 15438 H 1426.57 -5.40659 -5.61523 0
M  V30 15439 N 1430.8 0.469154 -1.50455 0
M  V30 15440 C 1431.76 1.5493 -1.68906 0
M  V30 15441 C 1432.76 1.50744 -0.559721 0
M  V30 15442 O 1433.95 1.5333 -0.826781 0
M  V30 15443 C 1431.09 2.94556 -1.71609 0
M  V30 15444 H 1432.28 1.39887 -2.65276 0
M  V30 15445 H 1429.83 0.695667 -1.39965 0
M  V30 15446 H 1430.57 3.15041 -0.769382 0
M  V30 15447 H 1430.35 2.99002 -2.53654 0
M  V30 15448 H 1431.84 3.72973 -1.87831 0
M  V30 15449 N 1432.28 1.40065 0.722464 0
M  V30 15450 C 1433.53 1.37277 1.47776 0
M  V30 15451 C 1433.84 -0.0242852 1.95585 0
M  V30 15452 O 1435.05 -0.174769 2.70937 0
M  V30 15453 C 1433.5 2.41233 2.67085 0
M  V30 15454 C 1433.11 3.86716 2.26174 0
M  V30 15455 C 1434.85 2.47541 3.44853 0
M  V30 15456 C 1432.76 4.82284 3.42281 0
M  V30 15457 H 1431.69 0.510405 0.55498 0
M  V30 15458 H 1434.34 1.6577 0.786928 0
M  V30 15459 H 1432.72 2.0583 3.38305 0
M  V30 15460 H 1433.9 4.31227 1.6242 0
M  V30 15461 H 1432.21 3.83819 1.61468 0
M  V30 15462 H 1434.81 3.16131 4.31237 0
M  V30 15463 H 1435.15 1.50379 3.8819 0
M  V30 15464 H 1435.69 2.81901 2.80672 0
M  V30 15465 H 1432.43 5.80754 3.03982 0
M  V30 15466 H 1431.95 4.42443 4.04975 0
M  V30 15467 H 1433.62 5.0178 4.08443 0
M  V30 15468 N 1433.76 -0.95397 1.25448 0
M  V30 15469 C 1435.01 -1.6953 1.10018 0
M  V30 15470 C 1435.33 -1.9166 -0.359385 0
M  V30 15471 O 1434.6 -1.50417 -1.25506 0
M  V30 15472 H 1433.18 -0.628238 0.404136 0
M  V30 15473 H 1435.84 -1.14691 1.57581 0
M  V30 15474 H 1434.93 -2.67427 1.60901 0
M  V30 15475 N 1435.24 -1.07045 -1.15668 0
M  V30 15476 C 1436.17 -0.709413 -2.22463 0
M  V30 15477 C 1437.15 0.30169 -1.67403 0
M  V30 15478 O 1438.33 0.175131 -1.93409 0
M  V30 15479 C 1435.46 -0.103121 -3.47147 0
M  V30 15480 C 1434.42 -1.04103 -4.15146 0
M  V30 15481 C 1433.74 -0.297656 -5.33871 0
M  V30 15482 C 1435.04 -2.37332 -4.65264 0
M  V30 15483 H 1436.74 -1.60227 -2.52918 0
M  V30 15484 H 1434.28 -0.771846 -1.21567 0
M  V30 15485 H 1436.23 0.161371 -4.21091 0
M  V30 15486 H 1434.96 0.824792 -3.16014 0
M  V30 15487 H 1433.62 -1.2904 -3.43139 0
M  V30 15488 H 1433.27 0.633618 -4.98993 0
M  V30 15489 H 1432.97 -0.922789 -5.80309 0
M  V30 15490 H 1434.49 -0.0408892 -6.10586 0
M  V30 15491 H 1435.9 -2.1674 -5.30751 0
M  V30 15492 H 1434.3 -2.95412 -5.22352 0
M  V30 15493 H 1435.37 -2.99859 -3.81068 0
M  V30 15494 N 1436.71 1.32449 -0.85411 0
M  V30 15495 C 1437.96 1.97271 -0.457223 0
M  V30 15496 C 1438.29 1.67595 0.987031 0
M  V30 15497 O 1437.54 0.956301 1.70744 0
M  V30 15498 C 1437.84 3.51577 -0.642499 0
M  V30 15499 C 1437.51 4.01239 -2.05714 0
M  V30 15500 C 1436.17 4.14512 -2.44405 0
M  V30 15501 C 1438.52 4.27573 -2.98046 0
M  V30 15502 C 1435.85 4.5146 -3.74701 0
M  V30 15503 C 1438.2 4.65979 -4.27839 0
M  V30 15504 C 1436.87 4.77458 -4.66465 0
M  V30 15505 H 1436.14 0.721865 -0.16731 0
M  V30 15506 H 1438.78 1.57862 -1.08406 0
M  V30 15507 H 1437.09 3.91742 0.0675706 0
M  V30 15508 H 1438.79 3.99757 -0.315473 0
M  V30 15509 H 1435.38 3.91393 -1.74669 0
M  V30 15510 H 1439.56 4.16827 -2.69386 0
M  V30 15511 H 1434.82 4.58542 -4.04412 0
M  V30 15512 H 1438.99 4.8531 -4.99447 0
M  V30 15513 H 1436.62 5.05845 -5.67472 0
M  V30 15514 N 1438.19 0.611994 1.45232 0
M  V30 15515 C 1439.44 0.106467 2.01419 0
M  V30 15516 C 1439.75 -1.2723 1.48566 0
M  V30 15517 O 1440.96 -1.8708 1.96757 0
M  V30 15518 C 1439.42 0.139639 3.59629 0
M  V30 15519 C 1439.02 1.51853 4.21479 0
M  V30 15520 C 1440.77 -0.310417 4.23364 0
M  V30 15521 C 1438.67 1.50785 5.71855 0
M  V30 15522 H 1437.6 0.0360345 0.753138 0
M  V30 15523 H 1440.26 0.767974 1.66657 0
M  V30 15524 H 1438.64 -0.588606 3.91601 0
M  V30 15525 H 1439.81 2.26884 4.01074 0
M  V30 15526 H 1438.13 1.91105 3.69956 0
M  V30 15527 H 1440.72 -0.337656 5.33633 0
M  V30 15528 H 1441.07 -1.33398 3.94348 0
M  V30 15529 H 1441.6 0.364704 3.96125 0
M  V30 15530 H 1438.34 2.50916 6.05575 0
M  V30 15531 H 1437.86 0.800195 5.94438 0
M  V30 15532 H 1439.54 1.23341 6.35135 0
M  V30 15533 N 1439.67 -1.53632 0.351409 0
M  V30 15534 C 1440.89 -2.0593 -0.246501 0
M  V30 15535 C 1441.32 -1.22419 -1.42812 0
M  V30 15536 O 1440.68 -0.239811 -1.79707 0
M  V30 15537 C 1440.73 -3.55021 -0.631862 0
M  V30 15538 O 1439.83 -3.74317 -1.73092 0
M  V30 15539 H 1439.17 -0.662839 -0.0392424 0
M  V30 15540 H 1441.7 -1.98196 0.507904 0
M  V30 15541 H 1441.71 -3.97795 -0.906831 0
M  V30 15542 H 1440.39 -4.15251 0.232224 0
M  V30 15543 H 1438.96 -3.43444 -1.4526 0
M  V30 15544 N 1441.15 -0.0802183 -1.57396 0
M  V30 15545 C 1442.39 0.586962 -1.93807 0
M  V30 15546 C 1442.72 1.69107 -0.960887 0
M  V30 15547 O 1441.98 1.95688 0.0220779 0
M  V30 15548 C 1442.28 1.19551 -3.36812 0
M  V30 15549 C 1441.94 0.216701 -4.50379 0
M  V30 15550 C 1440.6 -0.0525552 -4.81171 0
M  V30 15551 C 1442.96 -0.452467 -5.19232 0
M  V30 15552 C 1440.28 -0.997923 -5.78151 0
M  V30 15553 C 1442.64 -1.38621 -6.17225 0
M  V30 15554 C 1441.3 -1.66385 -6.4643 0
M  V30 15555 H 1440.57 0.214785 -0.709189 0
M  V30 15556 H 1443.22 -0.152888 -1.90889 0
M  V30 15557 H 1441.52 2.01129 -3.36236 0
M  V30 15558 H 1443.22 1.71918 -3.62278 0
M  V30 15559 H 1439.81 0.436747 -4.26369 0
M  V30 15560 H 1443.99 -0.257573 -4.95631 0
M  V30 15561 H 1439.25 -1.22019 -5.991 0
M  V30 15562 H 1443.42 -1.91063 -6.69677 0
M  V30 15563 H 1441.05 -2.39799 -7.21388 0
M  V30 15564 N 1442.63 1.56409 0.193394 0
M  V30 15565 C 1443.56 1.97707 1.24234 0
M  V30 15566 C 1444.54 0.849286 1.47381 0
M  V30 15567 O 1445.72 1.11374 1.59089 0
M  V30 15568 C 1442.85 2.31804 2.5862 0
M  V30 15569 C 1441.81 3.47337 2.50082 0
M  V30 15570 C 1441.13 3.67114 3.88756 0
M  V30 15571 C 1442.43 4.81472 2.02441 0
M  V30 15572 H 1444.13 2.8558 0.89914 0
M  V30 15573 H 1441.67 1.37396 0.431078 0
M  V30 15574 H 1443.62 2.5929 3.32185 0
M  V30 15575 H 1442.35 1.40816 2.94684 0
M  V30 15576 H 1441.01 3.19944 1.78973 0
M  V30 15577 H 1440.66 2.73454 4.22175 0
M  V30 15578 H 1440.36 4.44838 3.83918 0
M  V30 15579 H 1441.88 3.96978 4.6394 0
M  V30 15580 H 1443.29 5.07978 2.65766 0
M  V30 15581 H 1441.69 5.62677 2.08601 0
M  V30 15582 H 1442.76 4.74941 0.977704 0
M  V30 15583 N 1444.1 -0.461169 1.50702 0
M  V30 15584 C 1445.33 -1.24019 1.66235 0
M  V30 15585 C 1445.75 -1.84827 0.349388 0
M  V30 15586 O 1445.11 -1.67743 -0.687888 0
M  V30 15587 C 1445.16 -2.31743 2.76274 0
M  V30 15588 O 1444.26 -3.3664 2.38217 0
M  V30 15589 H 1443.6 -0.364424 0.55506 0
M  V30 15590 H 1446.13 -0.547636 1.97135 0
M  V30 15591 H 1446.14 -2.76902 2.99649 0
M  V30 15592 H 1444.82 -1.86858 3.7156 0
M  V30 15593 H 1443.4 -2.97123 2.25327 0
M  V30 15594 N 1445.58 -1.40446 -0.715026 0
M  V30 15595 C 1446.83 -1.38059 -1.47046 0
M  V30 15596 C 1447.14 0.0139125 -1.95595 0
M  V30 15597 O 1448.35 0.160398 -2.71026 0
M  V30 15598 C 1446.81 -2.42646 -2.65802 0
M  V30 15599 C 1446.41 -3.8791 -2.2412 0
M  V30 15600 C 1448.16 -2.49367 -3.43535 0
M  V30 15601 C 1446.06 -4.84092 -3.39719 0
M  V30 15602 H 1444.99 -0.513341 -0.552265 0
M  V30 15603 H 1447.65 -1.66185 -0.778126 0
M  V30 15604 H 1446.03 -2.07621 -3.37208 0
M  V30 15605 H 1447.2 -4.32082 -1.6013 0
M  V30 15606 H 1445.52 -3.8467 -1.5943 0
M  V30 15607 H 1448.11 -3.18414 -4.29554 0
M  V30 15608 H 1448.46 -1.52436 -3.87388 0
M  V30 15609 H 1448.99 -2.83386 -2.79173 0
M  V30 15610 H 1445.73 -5.82358 -3.00898 0
M  V30 15611 H 1445.25 -4.44584 -4.02623 0
M  V30 15612 H 1446.93 -5.03939 -4.05776 0
M  V30 15613 N 1447.06 0.947303 -1.25952 0
M  V30 15614 C 1448.31 1.69279 -1.11135 0
M  V30 15615 C 1448.63 1.9139 0.346407 0
M  V30 15616 O 1447.89 1.48786 1.27126 0
M  V30 15617 C 1448.19 3.07652 -1.81892 0
M  V30 15618 C 1447.85 3.05317 -3.31802 0
M  V30 15619 C 1446.52 3.04387 -3.72695 0
M  V30 15620 C 1448.87 2.98088 -4.27543 0
M  V30 15621 C 1446.2 2.93987 -5.07729 0
M  V30 15622 C 1448.55 2.89229 -5.62609 0
M  V30 15623 C 1447.21 2.86639 -6.02822 0
M  V30 15624 H 1446.48 0.619435 -0.40667 0
M  V30 15625 H 1449.13 1.10621 -1.56318 0
M  V30 15626 H 1447.43 3.69898 -1.29161 0
M  V30 15627 H 1449.13 3.6417 -1.67873 0
M  V30 15628 H 1445.72 3.06817 -2.99268 0
M  V30 15629 H 1449.91 2.9792 -3.96935 0
M  V30 15630 H 1445.16 2.90355 -5.38056 0
M  V30 15631 H 1449.34 2.82598 -6.36483 0
M  V30 15632 H 1446.96 2.78336 -7.07413 0
M  V30 15633 N 1448.54 1.07657 1.15099 0
M  V30 15634 C 1449.47 0.721201 2.22083 0
M  V30 15635 C 1450.45 -0.292808 1.67561 0
M  V30 15636 O 1451.63 -0.164872 1.93499 0
M  V30 15637 C 1448.76 0.12153 3.47087 0
M  V30 15638 C 1447.72 1.06303 4.14588 0
M  V30 15639 C 1447.04 0.325964 5.33706 0
M  V30 15640 C 1448.34 2.39796 4.63999 0
M  V30 15641 H 1450.04 1.61566 2.52065 0
M  V30 15642 H 1447.58 0.778282 1.21156 0
M  V30 15643 H 1449.54 -0.139037 4.21171 0
M  V30 15644 H 1448.26 -0.808022 3.16447 0
M  V30 15645 H 1446.92 1.30858 3.4245 0
M  V30 15646 H 1446.57 -0.607147 4.99322 0
M  V30 15647 H 1446.27 0.953552 5.79811 0
M  V30 15648 H 1447.79 0.0732695 6.10556 0
M  V30 15649 H 1449.21 2.19552 5.29594 0
M  V30 15650 H 1447.6 2.98178 5.20778 0
M  V30 15651 H 1448.67 3.01876 3.79472 0
M  V30 15652 N 1450.02 -1.31994 0.861122 0
M  V30 15653 C 1451.26 -1.97025 0.467678 0
M  V30 15654 C 1451.59 -1.68116 -0.978129 0
M  V30 15655 O 1450.85 -0.965342 -1.70234 0
M  V30 15656 C 1451.15 -3.51232 0.661135 0
M  V30 15657 C 1450.81 -4.00142 2.07839 0
M  V30 15658 C 1449.47 -4.1321 2.466 0
M  V30 15659 C 1451.83 -4.25986 3.00309 0
M  V30 15660 C 1449.15 -4.49467 3.7709 0
M  V30 15661 C 1451.51 -4.63704 4.30304 0
M  V30 15662 C 1450.17 -4.74978 4.68991 0
M  V30 15663 H 1449.44 -0.720967 0.171136 0
M  V30 15664 H 1452.09 -1.57285 1.09242 0
M  V30 15665 H 1450.39 -3.91772 -0.0467947 0
M  V30 15666 H 1452.09 -3.99584 0.336669 0
M  V30 15667 H 1448.68 -3.90461 1.76743 0
M  V30 15668 H 1452.86 -4.15393 2.71592 0
M  V30 15669 H 1448.12 -4.56391 4.06838 0
M  V30 15670 H 1452.29 -4.82654 5.02014 0
M  V30 15671 H 1449.92 -5.02828 5.70147 0
M  V30 15672 N 1451.49 -0.619688 -1.44906 0
M  V30 15673 C 1452.43 0.141137 -2.27763 0
M  V30 15674 C 1453.41 0.862176 -1.3786 0
M  V30 15675 O 1454.59 0.868593 -1.67295 0
M  V30 15676 C 1451.72 1.20547 -3.16522 0
M  V30 15677 C 1450.76 0.586228 -4.22452 0
M  V30 15678 S 1451.6 -0.615067 -5.31956 0
M  V30 15679 C 1452.75 0.449556 -6.24283 0
M  V30 15680 H 1452.98 -0.561806 -2.91944 0
M  V30 15681 H 1450.52 -0.407535 -1.48925 0
M  V30 15682 H 1452.48 1.81463 -3.68214 0
M  V30 15683 H 1451.14 1.88054 -2.51584 0
M  V30 15684 H 1450.33 1.38744 -4.84527 0
M  V30 15685 H 1449.93 0.0519375 -3.73964 0
M  V30 15686 H 1452.22 1.32531 -6.64411 0
M  V30 15687 H 1453.17 -0.135328 -7.07971 0
M  V30 15688 H 1453.57 0.770319 -5.59219 0
M  V30 15689 N 1452.97 1.53444 -0.359552 0
M  V30 15690 C 1454.21 2.03077 0.232169 0
M  V30 15691 C 1454.58 1.24125 1.46482 0
M  V30 15692 O 1455.78 1.63735 2.13177 0
M  V30 15693 C 1454.05 3.53554 0.522891 0
M  V30 15694 S 1455.61 4.25068 1.08914 0
M  V30 15695 H 1452.43 0.707738 0.0680317 0
M  V30 15696 H 1455.03 1.88971 -0.501022 0
M  V30 15697 H 1453.73 4.0862 -0.381812 0
M  V30 15698 H 1453.26 3.71811 1.28532 0
M  V30 15699 H 1455.28 4.35734 2.37382 0
M  V30 15700 N 1454.45 0.0885642 1.57351 0
M  V30 15701 C 1455.4 -0.890284 2.14888 0
M  V30 15702 C 1456.39 -1.29671 1.09004 0
M  V30 15703 O 1457.6 -1.272 1.27359 0
M  V30 15704 H 1453.97 -0.305107 0.687324 0
M  V30 15705 H 1455.94 -0.380243 2.95967 0
M  V30 15706 C 1454.69 -2.14216 2.73874 0
M  V30 15707 H 1454.02 -1.8383 3.55031 0
M  V30 15708 H 1455.46 -2.8078 3.17708 0
M  V30 15709 C 1453.92 -2.91186 1.69448 0
M  V30 15710 O 1454.45 -3.85494 1.12949 0
M  V30 15711 N 1452.65 -2.54603 1.40091 0
M  V30 15712 H 1452.2 -1.77984 1.86225 0
M  V30 15713 H 1452.16 -3.06403 0.704577 0
M  V30 15714 N 1455.93 -1.56509 -0.185096 0
M  V30 15715 C 1456.88 -1.91742 -1.23366 0
M  V30 15716 C 1457.86 -0.784182 -1.40497 0
M  V30 15717 O 1459.05 -1.04718 -1.42699 0
M  V30 15718 C 1456.18 -2.26903 -2.57624 0
M  V30 15719 C 1455.27 -3.46707 -2.44244 0
M  V30 15720 N 1455.66 -4.64338 -2.00558 0
M  V30 15721 C 1453.96 -3.51042 -2.7511 0
M  V30 15722 C 1454.66 -5.46489 -1.9931 0
M  V30 15723 N 1453.64 -4.87162 -2.41193 0
M  V30 15724 H 1457.44 -2.80184 -0.887378 0
M  V30 15725 H 1454.95 -1.57561 -0.393468 0
M  V30 15726 H 1456.95 -2.50332 -3.33376 0
M  V30 15727 H 1455.61 -1.39792 -2.93067 0
M  V30 15728 H 1456.62 -4.88817 -1.7111 0
M  V30 15729 H 1453.3 -2.74375 -3.14682 0
M  V30 15730 H 1454.69 -6.50726 -1.67349 0
M  V30 15731 N 1457.41 0.45317 -1.50944 0
M  V30 15732 C 1458.65 1.20568 -1.63068 0
M  V30 15733 C 1458.99 1.91229 -0.338375 0
M  V30 15734 O 1458.26 1.82916 0.661207 0
M  V30 15735 C 1458.54 2.23522 -2.8233 0
M  V30 15736 C 1458.4 1.57047 -4.21493 0
M  V30 15737 C 1459.72 3.24663 -2.97123 0
M  V30 15738 H 1456.83 0.436971 -0.593486 0
M  V30 15739 H 1459.48 0.497008 -1.83384 0
M  V30 15740 H 1457.63 2.83961 -2.65139 0
M  V30 15741 H 1459.3 1.00067 -4.50316 0
M  V30 15742 H 1457.54 0.873143 -4.24922 0
M  V30 15743 H 1458.21 2.31949 -5.00903 0
M  V30 15744 H 1460.69 2.74264 -3.12919 0
M  V30 15745 H 1459.56 3.9401 -3.82161 0
M  V30 15746 H 1459.83 3.89843 -2.08506 0
M  V30 15747 N 1458.88 1.40823 0.707568 0
M  V30 15748 C 1460.11 1.43061 1.50161 0
M  V30 15749 C 1460.53 0.0342144 1.88069 0
M  V30 15750 O 1459.89 -0.959674 1.53818 0
M  V30 15751 C 1459.94 2.33459 2.74826 0
M  V30 15752 O 1459.04 1.78336 3.71847 0
M  V30 15753 H 1458.39 0.48602 0.452417 0
M  V30 15754 H 1460.92 1.85147 0.870742 0
M  V30 15755 H 1460.93 2.48922 3.23267 0
M  V30 15756 H 1459.6 3.34927 2.46571 0
M  V30 15757 H 1458.18 1.7226 3.30728 0
M  V30 15758 N 1460.36 -0.94061 1.26453 0
M  V30 15759 C 1461.33 -2.02096 1.0812 0
M  V30 15760 C 1462.33 -1.60773 0.0293393 0
M  V30 15761 O 1463.52 -1.72051 0.272796 0
M  V30 15762 C 1460.65 -3.34749 0.644646 0
M  V30 15763 H 1461.84 -2.19792 2.04038 0
M  V30 15764 H 1459.39 -1.11965 1.09058 0
M  V30 15765 H 1460.13 -3.22752 -0.316509 0
M  V30 15766 H 1459.91 -3.66095 1.40416 0
M  V30 15767 H 1461.4 -4.14117 0.538233 0
M  V30 15768 N 1461.84 -1.08266 -1.14527 0
M  V30 15769 C 1462.77 -0.732968 -2.21698 0
M  V30 15770 C 1463.75 0.283917 -1.67714 0
M  V30 15771 O 1464.94 0.154607 -1.93584 0
M  V30 15772 C 1462.07 -0.139935 -3.47018 0
M  V30 15773 C 1461.02 -1.08501 -4.14019 0
M  V30 15774 C 1460.35 -0.354263 -5.33525 0
M  V30 15775 C 1461.65 -2.42254 -4.62721 0
M  V30 15776 H 1463.34 -1.629 -2.51205 0
M  V30 15777 H 1460.89 -0.784696 -1.20742 0
M  V30 15778 H 1462.84 0.1167 -4.21238 0
M  V30 15779 H 1461.56 0.791228 -3.16871 0
M  V30 15780 H 1460.22 -1.32672 -3.41751 0
M  V30 15781 H 1459.87 0.580658 -4.99637 0
M  V30 15782 H 1459.57 -0.984287 -5.79297 0
M  V30 15783 H 1461.09 -0.105648 -6.10509 0
M  V30 15784 H 1462.51 -2.22357 -5.28422 0
M  V30 15785 H 1460.91 -3.00935 -5.1919 0
M  V30 15786 H 1461.98 -3.03884 -3.77866 0
M  V30 15787 N 1463.32 1.31536 -0.86811 0
M  V30 15788 C 1464.28 2.26849 -0.327456 0
M  V30 15789 C 1465.28 1.52142 0.520514 0
M  V30 15790 O 1466.47 1.71044 0.330088 0
M  V30 15791 C 1463.6 3.36673 0.535174 0
M  V30 15792 H 1464.8 2.76184 -1.16886 0
M  V30 15793 H 1462.35 1.42437 -0.643545 0
M  V30 15794 H 1463.09 2.92627 1.39785 0
M  V30 15795 H 1462.87 3.92034 -0.0719835 0
M  V30 15796 H 1464.36 4.07658 0.905786 0
M  V30 15797 N 1464.8 0.627364 1.44575 0
M  V30 15798 C 1466.02 0.135576 2.06956 0
M  V30 15799 C 1466.45 -1.17922 1.46547 0
M  V30 15800 O 1465.81 -1.72255 0.565509 0
M  V30 15801 C 1465.85 0.030347 3.60587 0
M  V30 15802 O 1464.96 -1.01464 3.99724 0
M  V30 15803 H 1464.3 0.083058 0.658785 0
M  V30 15804 H 1466.83 0.862977 1.8551 0
M  V30 15805 H 1466.84 -0.161461 4.0768 0
M  V30 15806 H 1465.51 0.990285 4.03938 0
M  V30 15807 H 1464.09 -0.797701 3.64268 0
M  V30 15808 N 1466.28 -1.53251 0.367684 0
M  V30 15809 C 1467.22 -2.27318 -0.4929 0
M  V30 15810 C 1468.22 -1.30376 -1.08159 0
M  V30 15811 O 1469.42 -1.47996 -1.02455 0
M  V30 15812 H 1465.8 -0.730709 -0.177677 0
M  V30 15813 H 1467.77 -2.98005 0.153525 0
M  V30 15814 C 1466.52 -3.07678 -1.61955 0
M  V30 15815 H 1465.84 -3.82117 -1.17587 0
M  V30 15816 H 1467.28 -3.62678 -2.19638 0
M  V30 15817 C 1465.74 -2.18648 -2.5631 0
M  V30 15818 O 1466.27 -1.79869 -3.5918 0
M  V30 15819 N 1464.48 -1.83239 -2.25548 0
M  V30 15820 H 1464.02 -2.14973 -1.4193 0
M  V30 15821 H 1463.98 -1.23957 -2.88933 0
M  V30 15822 N 1467.75 -0.0969077 -1.57302 0
M  V30 15823 C 1468.98 0.573872 -1.9847 0
M  V30 15824 C 1469.39 1.62149 -0.974894 0
M  V30 15825 O 1468.73 1.83649 0.0434873 0
M  V30 15826 C 1468.8 1.2781 -3.36013 0
M  V30 15827 C 1468.46 0.381022 -4.55409 0
M  V30 15828 C 1469.46 -0.371559 -5.18571 0
M  V30 15829 C 1467.14 0.29855 -5.01412 0
M  V30 15830 C 1469.14 -1.19457 -6.26106 0
M  V30 15831 C 1466.82 -0.528116 -6.08814 0
M  V30 15832 C 1467.82 -1.27333 -6.71026 0
M  V30 15833 O 1467.51 -2.08631 -7.76356 0
M  V30 15834 H 1467.24 0.158369 -0.657187 0
M  V30 15835 H 1469.8 -0.173415 -2.04667 0
M  V30 15836 H 1468.03 2.07199 -3.26505 0
M  V30 15837 H 1469.71 1.84359 -3.61617 0
M  V30 15838 H 1470.48 -0.317586 -4.83959 0
M  V30 15839 H 1466.36 0.868247 -4.5275 0
M  V30 15840 H 1469.9 -1.77673 -6.74595 0
M  V30 15841 H 1465.8 -0.583563 -6.42857 0
M  V30 15842 H 1466.57 -2.01333 -7.93352 0
M  V30 15843 N 1469.23 1.56605 0.176793 0
M  V30 15844 C 1470.48 1.82848 0.89097 0
M  V30 15845 C 1470.83 0.676661 1.80108 0
M  V30 15846 O 1470.13 -0.32721 1.88785 0
M  V30 15847 C 1470.32 3.12888 1.7273 0
M  V30 15848 C 1470.15 4.40609 0.899652 0
M  V30 15849 C 1468.92 5.01996 0.57688 0
M  V30 15850 C 1471.12 5.13722 0.243765 0
M  V30 15851 N 1469.1 6.13317 -0.267482 0
M  V30 15852 C 1470.47 6.18276 -0.461997 0
M  V30 15853 C 1472.52 4.97638 0.161367 0
M  V30 15854 C 1471.23 7.0849 -1.24233 0
M  V30 15855 C 1473.25 5.88291 -0.605623 0
M  V30 15856 C 1472.62 6.92304 -1.29977 0
M  V30 15857 H 1468.71 0.720143 0.304824 0
M  V30 15858 H 1471.3 1.94055 0.15834 0
M  V30 15859 H 1469.47 3.02883 2.43139 0
M  V30 15860 H 1471.2 3.27148 2.38236 0
M  V30 15861 H 1467.96 4.6486 0.905666 0
M  V30 15862 H 1468.38 6.73578 -0.679811 0
M  V30 15863 H 1473.02 4.17236 0.683677 0
M  V30 15864 H 1470.74 7.88342 -1.77601 0
M  V30 15865 H 1474.33 5.77918 -0.670976 0
M  V30 15866 H 1473.21 7.61239 -1.88375 0
M  V30 15867 N 1470.71 -0.445159 1.51182 0
M  V30 15868 C 1471.64 -1.5473 1.74874 0
M  V30 15869 C 1472.62 -1.5923 0.598323 0
M  V30 15870 O 1473.81 -1.75083 0.840219 0
M  V30 15871 C 1470.94 -2.92872 1.86664 0
M  V30 15872 C 1469.89 -3.03235 3.02048 0
M  V30 15873 C 1469.22 -4.43279 2.99012 0
M  V30 15874 C 1470.52 -2.7804 4.42144 0
M  V30 15875 H 1472.21 -1.35156 2.67158 0
M  V30 15876 H 1469.76 -0.648763 1.28558 0
M  V30 15877 H 1471.71 -3.69927 2.01822 0
M  V30 15878 H 1470.43 -3.1366 0.910225 0
M  V30 15879 H 1469.09 -2.28617 2.86583 0
M  V30 15880 H 1468.74 -4.61023 2.01163 0
M  V30 15881 H 1468.44 -4.51144 3.76488 0
M  V30 15882 H 1469.96 -5.22319 3.16252 0
M  V30 15883 H 1471.38 -3.44831 4.58 0
M  V30 15884 H 1469.77 -2.97323 5.21267 0
M  V30 15885 H 1470.84 -1.737 4.52721 0
M  V30 15886 N 1472.19 -1.41197 -0.700089 0
M  V30 15887 C 1473.41 -1.43856 -1.494 0
M  V30 15888 C 1473.84 -0.0441877 -1.88048 0
M  V30 15889 O 1473.2 0.951503 -1.54325 0
M  V30 15890 C 1473.24 -2.34913 -2.73584 0
M  V30 15891 O 1472.35 -1.80305 -3.70896 0
M  V30 15892 H 1471.69 -0.488412 -0.449833 0
M  V30 15893 H 1474.22 -1.85606 -0.860911 0
M  V30 15894 H 1474.23 -2.50633 -3.21943 0
M  V30 15895 H 1472.9 -3.36229 -2.44791 0
M  V30 15896 H 1471.48 -1.74012 -3.29809 0
M  V30 15897 N 1473.67 0.933891 -1.2695 0
M  V30 15898 C 1474.6 2.05078 -1.11649 0
M  V30 15899 C 1475.58 1.70089 -0.0196463 0
M  V30 15900 O 1476.76 1.93239 -0.193007 0
M  V30 15901 C 1473.89 3.38963 -0.756387 0
M  V30 15902 C 1472.85 3.88041 -1.80577 0
M  V30 15903 C 1472.17 5.18661 -1.2998 0
M  V30 15904 C 1473.47 4.12116 -3.2087 0
M  V30 15905 H 1475.17 2.18137 -2.05077 0
M  V30 15906 H 1472.71 1.04817 -0.987392 0
M  V30 15907 H 1474.66 4.1657 -0.63619 0
M  V30 15908 H 1473.39 3.25901 0.213607 0
M  V30 15909 H 1472.05 3.12622 -1.91477 0
M  V30 15910 H 1471.7 5.01985 -0.319442 0
M  V30 15911 H 1471.4 5.52467 -2.00134 0
M  V30 15912 H 1472.92 5.98844 -1.19242 0
M  V30 15913 H 1474.33 4.80312 -3.13006 0
M  V30 15914 H 1472.73 4.57218 -3.88679 0
M  V30 15915 H 1473.8 3.17633 -3.66384 0
M  V30 15916 N 1475.14 1.08871 1.13951 0
M  V30 15917 C 1476.39 0.832367 1.85589 0
M  V30 15918 C 1476.74 -0.635083 1.81616 0
M  V30 15919 O 1476.04 -1.46123 1.2393 0
M  V30 15920 C 1476.23 1.29443 3.33135 0
M  V30 15921 C 1476.06 2.80527 3.51475 0
M  V30 15922 C 1474.83 3.48334 3.66048 0
M  V30 15923 C 1477.03 3.78686 3.47996 0
M  V30 15924 N 1475.01 4.87901 3.72593 0
M  V30 15925 C 1476.38 5.04176 3.60842 0
M  V30 15926 C 1478.44 3.71623 3.31362 0
M  V30 15927 C 1477.14 6.23438 3.58772 0
M  V30 15928 C 1479.17 4.90366 3.30598 0
M  V30 15929 C 1478.53 6.14696 3.43989 0
M  V30 15930 H 1474.63 0.357365 0.695568 0
M  V30 15931 H 1477.21 1.38799 1.36539 0
M  V30 15932 H 1475.38 0.766326 3.80765 0
M  V30 15933 H 1477.11 0.984006 3.92555 0
M  V30 15934 H 1473.87 2.98755 3.67481 0
M  V30 15935 H 1474.29 5.60584 3.79571 0
M  V30 15936 H 1478.93 2.7643 3.19916 0
M  V30 15937 H 1476.65 7.18937 3.68993 0
M  V30 15938 H 1480.24 4.86593 3.18933 0
M  V30 15939 H 1479.12 7.05039 3.43351 0
M  V30 15940 N 1476.62 -1.31073 0.875073 0
M  V30 15941 C 1477.85 -2.00688 0.503179 0
M  V30 15942 C 1478.26 -1.65657 -0.905714 0
M  V30 15943 O 1477.62 -0.888468 -1.59413 0
M  V30 15944 C 1477.67 -3.55486 0.65666 0
M  V30 15945 O 1477.39 -3.89265 2.01007 0
M  V30 15946 C 1478.89 -4.42374 0.28645 0
M  V30 15947 H 1476.11 -0.641885 0.195512 0
M  V30 15948 H 1478.66 -1.67188 1.17765 0
M  V30 15949 H 1476.81 -3.87389 0.0296852 0
M  V30 15950 H 1477.23 -4.83978 2.02153 0
M  V30 15951 H 1478.7 -5.50205 0.444776 0
M  V30 15952 H 1479.18 -4.32312 -0.774789 0
M  V30 15953 H 1479.78 -4.15898 0.889336 0
M  V30 15954 N 1478.1 -0.635022 -1.4424 0
M  V30 15955 C 1479.38 -0.0718064 -1.95468 0
M  V30 15956 C 1479.76 1.40348 -1.57689 0
M  V30 15957 O 1479.11 2.11986 -0.852888 0
M  V30 15958 C 1479.32 -0.298793 -3.47719 0
M  V30 15959 C 1480.66 -0.194056 -4.24156 0
M  V30 15960 O 1481.69 -0.230368 -3.55454 0
M  V30 15961 O 1480.55 -0.102294 -5.46404 0
M  V30 15962 H 1477.64 0.0200784 -0.826756 0
M  V30 15963 H 1480.19 -0.706996 -1.54271 0
M  V30 15964 H 1478.96 -1.32233 -3.6828 0
M  V30 15965 H 1478.58 0.370347 -3.95871 0
M  V30 15966 N 1479.58 1.53054 -0.375806 0
M  V30 15967 C 1480.86 1.93761 0.26757 0
M  V30 15968 C 1481.24 1.31019 1.65521 0
M  V30 15969 O 1480.58 0.473138 2.23548 0
M  V30 15970 C 1480.79 3.47643 0.307505 0
M  V30 15971 C 1482.14 4.21114 0.542951 0
M  V30 15972 O 1483.17 3.54077 0.388285 0
M  V30 15973 O 1482.02 5.39929 0.8449 0
M  V30 15974 H 1479.12 0.810805 0.16286 0
M  V30 15975 H 1481.66 1.64179 -0.429334 0
M  V30 15976 H 1480.44 3.85608 -0.665001 0
M  V30 15977 H 1480.06 3.83488 1.04988 0
M  V30 15978 N 1481.06 0.105248 1.57248 0
M  V30 15979 C 1482.47 -0.422304 1.81861 0
M  V30 15980 C 1482.82 -1.67508 1.02154 0
M  V30 15981 O 1481.94 -2.14905 0.253961 0
M  V30 15982 C 1482.54 -0.772943 3.29865 0
M  V30 15983 C 1481.1 -1.24519 3.55207 0
M  V30 15984 C 1480.24 -0.246936 2.76198 0
M  V30 15985 H 1483.2 0.330565 1.55219 0
M  V30 15986 H 1483.22 -1.6316 3.43743 0
M  V30 15987 H 1482.73 0.139033 3.87851 0
M  V30 15988 H 1480.83 -2.17453 3.02564 0
M  V30 15989 H 1480.94 -1.20001 4.63828 0
M  V30 15990 H 1479.31 -0.731171 2.43979 0
M  V30 15991 H 1480.09 0.657896 3.36937 0
M  V30 15992 N 1482.53 -1.56697 -0.168486 0
M  V30 15993 C 1483.78 -1.81346 -0.882973 0
M  V30 15994 C 1484.1 -0.682975 -1.83289 0
M  V30 15995 O 1485.3 -0.814479 -2.58995 0
M  V30 15996 C 1483.76 -3.21345 -1.62066 0
M  V30 15997 C 1483.37 -4.4227 -0.714241 0
M  V30 15998 C 1485.11 -3.55285 -2.32321 0
M  V30 15999 C 1483.02 -5.7329 -1.45233 0
M  V30 16000 H 1481.95 -0.676254 -0.333461 0
M  V30 16001 H 1484.6 -1.82996 -0.135871 0
M  V30 16002 H 1482.98 -3.1402 -2.41262 0
M  V30 16003 H 1484.15 -4.60782 0.0409556 0
M  V30 16004 H 1482.47 -4.16224 -0.121205 0
M  V30 16005 H 1485.07 -4.50421 -2.88141 0
M  V30 16006 H 1485.41 -2.80301 -3.07793 0
M  V30 16007 H 1485.94 -3.64176 -1.60066 0
M  V30 16008 H 1482.68 -6.51311 -0.739869 0
M  V30 16009 H 1482.2 -5.58751 -2.18077 0
M  V30 16010 H 1483.88 -6.15343 -1.99905 0
M  V30 16011 N 1484.01 0.437135 -1.51416 0
M  V30 16012 C 1485.26 1.18831 -1.64338 0
M  V30 16013 C 1485.59 1.9086 -0.358638 0
M  V30 16014 O 1484.87 1.83607 0.641769 0
M  V30 16015 C 1485.15 2.20515 -2.84685 0
M  V30 16016 C 1485 1.52568 -4.23135 0
M  V30 16017 C 1486.32 3.21494 -3.00549 0
M  V30 16018 H 1483.44 0.430652 -0.598087 0
M  V30 16019 H 1486.08 0.47753 -1.83901 0
M  V30 16020 H 1484.23 2.81132 -2.68136 0
M  V30 16021 H 1485.9 0.952851 -4.51352 0
M  V30 16022 H 1484.15 0.828025 -4.25824 0
M  V30 16023 H 1484.82 2.26623 -5.03335 0
M  V30 16024 H 1487.29 2.7093 -3.1581 0
M  V30 16025 H 1486.17 3.89934 -3.86319 0
M  V30 16026 H 1486.43 3.8761 -2.12629 0
M  V30 16027 N 1485.49 1.41566 0.692592 0
M  V30 16028 C 1486.44 1.43857 1.82779 0
M  V30 16029 C 1487.43 0.316262 1.66422 0
M  V30 16030 O 1488.64 0.488433 1.73246 0
M  V30 16031 H 1485.01 0.450174 0.602368 0
M  V30 16032 H 1486.98 2.39524 1.77964 0
M  V30 16033 C 1485.73 1.34054 3.20819 0
M  V30 16034 H 1485.06 2.19701 3.34023 0
M  V30 16035 H 1486.5 1.39717 4.00319 0
M  V30 16036 C 1484.96 0.053218 3.36858 0
M  V30 16037 O 1485.49 -0.900928 3.91467 0
M  V30 16038 N 1483.69 -0.0238376 2.9059 0
M  V30 16039 H 1483.24 0.753374 2.46337 0
M  V30 16040 H 1483.2 -0.884571 3.017 0
M  V30 16041 N 1486.97 -0.927146 1.27443 0
M  V30 16042 C 1488.22 -1.67159 1.13589 0
M  V30 16043 C 1488.54 -1.92379 -0.31865 0
M  V30 16044 O 1487.81 -1.53045 -1.22287 0
M  V30 16045 H 1486.39 -0.619524 0.417371 0
M  V30 16046 H 1489.05 -1.11323 1.59979 0
M  V30 16047 H 1488.15 -2.63954 1.66537 0
M  V30 16048 N 1488.45 -1.09474 -1.13372 0
M  V30 16049 C 1489.67 -0.852921 -1.88502 0
M  V30 16050 C 1490.09 0.595855 -1.79151 0
M  V30 16051 O 1489.45 1.41019 -1.15845 0
M  V30 16052 C 1489.5 -1.27993 -3.38083 0
M  V30 16053 O 1489.22 -2.67189 -3.47191 0
M  V30 16054 C 1490.72 -1.07056 -4.30179 0
M  V30 16055 H 1487.94 -0.30682 -0.596743 0
M  V30 16056 H 1490.48 -1.45685 -1.43513 0
M  V30 16057 H 1488.64 -0.719879 -3.80653 0
M  V30 16058 H 1489.05 -2.85202 -4.40182 0
M  V30 16059 H 1490.53 -1.4186 -5.3346 0
M  V30 16060 H 1491 -0.00838732 -4.39199 0
M  V30 16061 H 1491.61 -1.61659 -3.93378 0
M  V30 16062 N 1489.92 1.30607 -0.882012 0
M  V30 16063 C 1490.86 2.27177 -0.303861 0
M  V30 16064 C 1491.87 1.53587 0.539898 0
M  V30 16065 O 1493.06 1.74833 0.359931 0
M  V30 16066 C 1490.16 3.33781 0.586828 0
M  V30 16067 C 1489.33 4.3681 -0.227197 0
M  V30 16068 C 1488.39 5.22842 0.593519 0
M  V30 16069 O 1487.42 5.69197 0.0172694 0
M  V30 16070 N 1488.62 5.48414 1.90321 0
M  V30 16071 H 1491.38 2.77426 -1.13378 0
M  V30 16072 H 1488.94 1.43756 -0.744698 0
M  V30 16073 H 1490.94 3.88257 1.14186 0
M  V30 16074 H 1489.51 2.83483 1.31743 0
M  V30 16075 H 1488.73 3.82239 -0.963674 0
M  V30 16076 H 1490.01 5.02703 -0.785315 0
M  V30 16077 H 1489.41 5.1253 2.39435 0
M  V30 16078 H 1487.97 6.05778 2.40575 0
M  V30 16079 N 1491.4 0.642663 1.43901 0
M  V30 16080 C 1492.31 -0.0562462 2.34533 0
M  V30 16081 C 1493.33 -0.823457 1.53281 0
M  V30 16082 O 1494.5 -0.773103 1.85971 0
M  V30 16083 C 1491.57 -1.01787 3.31422 0
M  V30 16084 C 1490.63 -0.248759 4.28579 0
M  V30 16085 C 1489.86 -1.16458 5.20839 0
M  V30 16086 O 1490.09 -2.40361 5.17284 0
M  V30 16087 O 1489.02 -0.642671 5.98459 0
M  V30 16088 H 1492.85 0.689476 2.9577 0
M  V30 16089 H 1490.43 0.402847 1.43866 0
M  V30 16090 H 1492.31 -1.5708 3.91029 0
M  V30 16091 H 1490.99 -1.744 2.72702 0
M  V30 16092 H 1489.9 0.347495 3.72483 0
M  V30 16093 H 1491.23 0.437589 4.90251 0
M  V30 16094 N 1492.88 -1.52852 0.383918 0
M  V30 16095 C 1493.83 -2.23089 -0.470652 0
M  V30 16096 C 1494.82 -1.23278 -1.03399 0
M  V30 16097 O 1496.01 -1.48641 -0.960985 0
M  V30 16098 C 1493.14 -3.03721 -1.60025 0
M  V30 16099 C 1492.22 -4.10924 -1.04892 0
M  V30 16100 N 1492.61 -5.05312 -0.222083 0
M  V30 16101 C 1490.91 -4.25958 -1.32195 0
M  V30 16102 C 1491.61 -5.81642 0.0818929 0
M  V30 16103 N 1490.59 -5.41101 -0.520629 0
M  V30 16104 H 1494.39 -2.93421 0.167663 0
M  V30 16105 H 1491.9 -1.6125 0.192927 0
M  V30 16106 H 1493.9 -3.52572 -2.22482 0
M  V30 16107 H 1492.56 -2.34924 -2.24145 0
M  V30 16108 H 1493.57 -5.1771 0.140223 0
M  V30 16109 H 1490.25 -3.68389 -1.96457 0
M  V30 16110 H 1491.64 -6.67684 0.751481 0
M  V30 16111 N 1494.36 -0.113586 -1.5719 0
M  V30 16112 C 1495.59 0.553592 -1.99356 0
M  V30 16113 C 1496 1.60567 -0.993154 0
M  V30 16114 O 1495.36 1.82494 0.0147252 0
M  V30 16115 C 1495.41 1.18462 -3.41539 0
M  V30 16116 O 1495.13 0.174602 -4.37752 0
M  V30 16117 C 1496.63 1.93564 -3.98808 0
M  V30 16118 H 1493.85 0.146998 -0.6547 0
M  V30 16119 H 1496.4 -0.198329 -2.03536 0
M  V30 16120 H 1494.55 1.88736 -3.38316 0
M  V30 16121 H 1494.97 0.632395 -5.20674 0
M  V30 16122 H 1496.44 2.33051 -5.00391 0
M  V30 16123 H 1496.92 2.80874 -3.37648 0
M  V30 16124 H 1497.52 1.28066 -4.0556 0
M  V30 16125 N 1495.84 1.56784 0.160173 0
M  V30 16126 C 1496.78 1.97267 1.1981 0
M  V30 16127 C 1497.75 0.83824 1.43397 0
M  V30 16128 O 1498.94 1.09926 1.55952 0
M  V30 16129 C 1496.08 2.34725 2.52979 0
M  V30 16130 C 1495.19 3.61397 2.36677 0
M  V30 16131 C 1494.33 3.88018 3.62789 0
M  V30 16132 C 1493.37 5.08002 3.41468 0
M  V30 16133 N 1492.5 5.30699 4.59677 0
M  V30 16134 H 1497.34 2.85743 0.845878 0
M  V30 16135 H 1494.88 1.41379 0.406249 0
M  V30 16136 H 1496.84 2.54468 3.30608 0
M  V30 16137 H 1495.47 1.49345 2.86175 0
M  V30 16138 H 1494.52 3.49505 1.50167 0
M  V30 16139 H 1495.83 4.49185 2.16875 0
M  V30 16140 H 1494.99 4.08188 4.48851 0
M  V30 16141 H 1493.73 2.98627 3.85582 0
M  V30 16142 H 1492.73 4.87718 2.53793 0
M  V30 16143 H 1493.96 5.98934 3.20086 0
M  V30 16144 H 1491.9 4.44261 4.82668 0
M  V30 16145 H 1491.82 6.1273 4.42829 0
M  V30 16146 H 1493.09 5.55357 5.46991 0
M  V30 16147 N 1497.32 -0.429099 1.51646 0
M  V30 16148 C 1498.56 -1.17958 1.64966 0
M  V30 16149 C 1498.89 -1.90667 0.368755 0
M  V30 16150 O 1498.17 -1.83945 -0.632023 0
M  V30 16151 C 1498.45 -2.19002 2.8585 0
M  V30 16152 C 1498.31 -1.50321 4.23938 0
M  V30 16153 C 1499.62 -3.19895 3.0225 0
M  V30 16154 H 1496.74 -0.427474 0.600362 0
M  V30 16155 H 1499.39 -0.46777 1.84152 0
M  V30 16156 H 1497.54 -2.79707 2.69623 0
M  V30 16157 H 1499.21 -0.928902 4.51851 0
M  V30 16158 H 1497.45 -0.805431 4.26257 0
M  V30 16159 H 1498.12 -2.2395 5.0453 0
M  V30 16160 H 1500.6 -2.69251 3.17243 0
M  V30 16161 H 1499.47 -3.8788 3.88381 0
M  V30 16162 H 1499.73 -3.86477 2.14682 0
M  V30 16163 N 1498.79 -1.41931 -0.685074 0
M  V30 16164 C 1500.21 -1.24631 -0.996957 0
M  V30 16165 C 1500.41 -0.143146 -2.00991 0
M  V30 16166 O 1499.47 0.489012 -2.47719 0
M  V30 16167 C 1500.78 -2.59947 -1.51156 0
M  V30 16168 C 1502.33 -2.67216 -1.62986 0
M  V30 16169 C 1502.8 -4.02874 -2.17845 0
M  V30 16170 N 1504.29 -4.04775 -2.25192 0
M  V30 16171 C 1505.03 -5.0655 -2.68691 0
M  V30 16172 N 1504.52 -6.18712 -3.11717 0
M  V30 16173 N 1506.32 -4.93909 -2.68348 0
M  V30 16174 H 1498.47 -2.12395 -0.0142223 0
M  V30 16175 H 1500.73 -0.945496 -0.0688552 0
M  V30 16176 H 1500.44 -3.41477 -0.841793 0
M  V30 16177 H 1500.31 -2.83159 -2.49201 0
M  V30 16178 H 1502.7 -1.86038 -2.29071 0
M  V30 16179 H 1502.78 -2.47804 -0.634584 0
M  V30 16180 H 1502.42 -4.84505 -1.52372 0
M  V30 16181 H 1502.35 -4.19633 -3.18144 0
M  V30 16182 H 1504.84 -3.23798 -1.94841 0
M  V30 16183 H 1505.16 -6.9223 -3.43565 0
M  V30 16184 H 1503.5 -6.22232 -3.096 0
M  V30 16185 H 1506.69 -4.05364 -2.34089 0
M  V30 16186 H 1506.87 -5.73361 -3.01929 0
M  V30 16187 N 1500.27 0.920374 -1.27933 0
M  V30 16188 C 1501.2 2.03882 -1.13817 0
M  V30 16189 C 1502.18 1.70058 -0.0376853 0
M  V30 16190 O 1503.37 1.93023 -0.213492 0
M  V30 16191 C 1500.5 3.38142 -0.792296 0
M  V30 16192 C 1499.45 3.86104 -1.84683 0
M  V30 16193 C 1498.78 5.17253 -1.35474 0
M  V30 16194 C 1500.08 4.0869 -3.25223 0
M  V30 16195 H 1501.77 2.15949 -2.07379 0
M  V30 16196 H 1499.32 1.03764 -0.998454 0
M  V30 16197 H 1501.27 4.15872 -0.680337 0
M  V30 16198 H 1499.99 3.26109 0.179029 0
M  V30 16199 H 1498.65 3.10573 -1.94782 0
M  V30 16200 H 1498.3 5.01618 -0.372666 0
M  V30 16201 H 1498 5.50314 -2.05982 0
M  V30 16202 H 1499.53 5.97545 -1.25587 0
M  V30 16203 H 1500.94 4.76965 -3.18083 0
M  V30 16204 H 1499.34 4.5307 -3.93507 0
M  V30 16205 H 1500.41 3.13729 -3.69733 0
M  V30 16206 N 1501.75 1.10074 1.1279 0
M  V30 16207 C 1502.97 0.863106 1.88587 0
M  V30 16208 C 1503.4 -0.580595 1.78915 0
M  V30 16209 O 1502.76 -1.40859 1.14142 0
M  V30 16210 C 1502.81 1.31142 3.35908 0
M  V30 16211 O 1501.91 0.474088 4.09666 0
M  V30 16212 H 1501.25 0.312034 0.586115 0
M  V30 16213 H 1503.78 1.46659 1.42662 0
M  V30 16214 H 1503.79 1.29974 3.86744 0
M  V30 16215 H 1502.47 2.36279 3.42265 0
M  V30 16216 H 1501.04 0.550665 3.68812 0
M  V30 16217 N 1503.23 -1.30138 0.888926 0
M  V30 16218 C 1504.47 -1.96279 0.51012 0
M  V30 16219 C 1504.81 -1.69984 -0.939096 0
M  V30 16220 O 1504.08 -1.00677 -1.66416 0
M  V30 16221 C 1504.36 -3.51321 0.790305 0
M  V30 16222 C 1504.22 -3.87116 2.29044 0
M  V30 16223 C 1505.54 -4.39274 0.269477 0
M  V30 16224 H 1502.66 -0.712931 0.18681 0
M  V30 16225 H 1505.3 -1.53942 1.11364 0
M  V30 16226 H 1503.45 -3.87514 0.276647 0
M  V30 16227 H 1505.12 -3.60926 2.87281 0
M  V30 16228 H 1503.36 -3.35044 2.7555 0
M  V30 16229 H 1504.03 -4.95288 2.43708 0
M  V30 16230 H 1506.51 -4.10012 0.709173 0
M  V30 16231 H 1505.39 -5.46665 0.494815 0
M  V30 16232 H 1505.65 -4.3425 -0.829434 0
M  V30 16233 N 1504.71 -0.650285 -1.43559 0
M  V30 16234 C 1505.94 -0.169893 -2.059 0
M  V30 16235 C 1506.34 1.16848 -1.48806 0
M  V30 16236 O 1505.69 1.73177 -0.612827 0
M  V30 16237 C 1505.75 -0.00117055 -3.595 0
M  V30 16238 C 1505.41 -1.26438 -4.39161 0
M  V30 16239 C 1506.41 -2.19245 -4.7141 0
M  V30 16240 C 1504.09 -1.50514 -4.79219 0
M  V30 16241 C 1506.09 -3.34424 -5.42623 0
M  V30 16242 C 1503.78 -2.65987 -5.50177 0
M  V30 16243 C 1504.77 -3.57767 -5.81801 0
M  V30 16244 O 1504.46 -4.71223 -6.51309 0
M  V30 16245 H 1504.19 -0.0858397 -0.670528 0
M  V30 16246 H 1506.75 -0.890321 -1.85101 0
M  V30 16247 H 1504.98 0.774599 -3.78863 0
M  V30 16248 H 1506.67 0.436206 -4.03549 0
M  V30 16249 H 1507.43 -2.01885 -4.40985 0
M  V30 16250 H 1503.31 -0.799577 -4.54013 0
M  V30 16251 H 1506.86 -4.06082 -5.67224 0
M  V30 16252 H 1502.75 -2.83282 -5.80019 0
M  V30 16253 H 1503.52 -4.70451 -6.6979 0
M  V30 16254 N 1506.18 1.52647 -0.392018 0
M  V30 16255 C 1507.43 2.01215 0.188926 0
M  V30 16256 C 1507.75 1.28019 1.47092 0
M  V30 16257 O 1507.02 0.401048 1.91751 0
M  V30 16258 H 1505.6 0.743444 0.0728049 0
M  V30 16259 H 1508.26 1.87715 -0.524332 0
M  V30 16260 H 1507.36 3.09562 0.397216 0
M  V30 16261 N 1507.66 0.121921 1.57128 0
M  V30 16262 C 1508.63 -0.812905 2.143 0
M  V30 16263 C 1509.63 -1.19261 1.07858 0
M  V30 16264 O 1510.82 -1.11764 1.33621 0
M  V30 16265 C 1507.95 -2.09969 2.68562 0
M  V30 16266 H 1509.14 -0.315992 2.98231 0
M  V30 16267 H 1506.69 -0.12734 1.5578 0
M  V30 16268 H 1507.43 -2.64085 1.88228 0
M  V30 16269 H 1507.21 -1.83688 3.46412 0
M  V30 16270 H 1508.7 -2.76788 3.12695 0
M  V30 16271 N 1509.14 -1.56867 -0.151857 0
M  V30 16272 C 1510.07 -2.00932 -1.18949 0
M  V30 16273 C 1511.05 -0.888062 -1.45077 0
M  V30 16274 O 1512.24 -1.15553 -1.56081 0
M  V30 16275 C 1509.37 -2.3858 -2.52383 0
M  V30 16276 C 1508.32 -3.53845 -2.40785 0
M  V30 16277 C 1507.65 -3.77292 -3.78886 0
M  V30 16278 C 1508.95 -4.8667 -1.89605 0
M  V30 16279 H 1510.64 -2.87863 -0.823107 0
M  V30 16280 H 1508.19 -1.38491 -0.394499 0
M  V30 16281 H 1510.14 -2.68006 -3.25193 0
M  V30 16282 H 1508.86 -1.48579 -2.90847 0
M  V30 16283 H 1507.52 -3.24577 -1.70427 0
M  V30 16284 H 1507.17 -2.84551 -4.14777 0
M  V30 16285 H 1506.87 -4.54861 -3.71989 0
M  V30 16286 H 1508.39 -4.09139 -4.53252 0
M  V30 16287 H 1509.81 -5.14846 -2.52204 0
M  V30 16288 H 1508.21 -5.6801 -1.93609 0
M  V30 16289 H 1509.28 -4.77366 -0.851438 0
M  V30 16290 N 1510.62 0.421051 -1.51871 0
M  V30 16291 C 1511.87 1.16677 -1.65018 0
M  V30 16292 C 1512.19 1.91329 -0.376596 0
M  V30 16293 O 1511.46 1.86221 0.608146 0
M  V30 16294 H 1510.04 0.433698 -0.608206 0
M  V30 16295 H 1512.7 0.48115 -1.88868 0
M  V30 16296 H 1511.8 1.88742 -2.48562 0
M  V30 16297 N 1512.1 1.42293 0.677538 0
M  V30 16298 C 1513.35 1.41909 1.43334 0
M  V30 16299 C 1513.66 0.037951 1.95563 0
M  V30 16300 O 1514.86 -0.0884836 2.71356 0
M  V30 16301 C 1513.32 2.49608 2.59275 0
M  V30 16302 C 1512.93 3.93716 2.13757 0
M  V30 16303 C 1514.67 2.58387 3.36803 0
M  V30 16304 C 1512.58 4.92929 3.26764 0
M  V30 16305 H 1511.51 0.527803 0.538461 0
M  V30 16306 H 1514.16 1.6819 0.733791 0
M  V30 16307 H 1512.54 2.16488 3.31585 0
M  V30 16308 H 1513.72 4.36176 1.48618 0
M  V30 16309 H 1512.03 3.88762 1.49175 0
M  V30 16310 H 1514.63 3.29691 4.20961 0
M  V30 16311 H 1514.97 1.62653 3.8321 0
M  V30 16312 H 1515.5 2.90688 2.71561 0
M  V30 16313 H 1512.24 5.90131 2.85352 0
M  V30 16314 H 1511.76 4.55103 3.90694 0
M  V30 16315 H 1513.44 5.1452 3.92273 0
M  V30 16316 N 1513.57 -0.913576 1.28419 0
M  V30 16317 C 1514.8 -1.70178 1.18551 0
M  V30 16318 C 1515.22 -1.864 -0.252307 0
M  V30 16319 O 1514.58 -1.37427 -1.18252 0
M  V30 16320 C 1514.63 -3.07145 1.8893 0
M  V30 16321 O 1513.73 -3.9465 1.19688 0
M  V30 16322 H 1513.08 -0.521092 0.411533 0
M  V30 16323 H 1515.61 -1.14228 1.69744 0
M  V30 16324 H 1515.62 -3.57375 1.96843 0
M  V30 16325 H 1514.29 -2.94655 2.93515 0
M  V30 16326 H 1512.87 -3.53085 1.19939 0
M  V30 16327 N 1515.05 -1.1067 -1.12204 0
M  V30 16328 C 1515.98 -0.715581 -2.17743 0
M  V30 16329 C 1517 0.248892 -1.60886 0
M  V30 16330 O 1518.19 0.0329917 -1.7847 0
M  V30 16331 C 1515.29 -0.0356388 -3.38881 0
M  V30 16332 C 1514.46 -1.0249 -4.25223 0
M  V30 16333 C 1513.52 -0.375998 -5.24855 0
M  V30 16334 O 1512.54 -1.02753 -5.59849 0
M  V30 16335 N 1513.75 0.864525 -5.74026 0
M  V30 16336 H 1516.51 -1.62362 -2.5191 0
M  V30 16337 H 1514.07 -0.995851 -1.2765 0
M  V30 16338 H 1516.06 0.41 -4.02618 0
M  V30 16339 H 1514.63 0.77485 -3.02845 0
M  V30 16340 H 1513.85 -1.64874 -3.58065 0
M  V30 16341 H 1515.14 -1.69446 -4.79756 0
M  V30 16342 H 1514.54 1.41317 -5.47764 0
M  V30 16343 H 1513.1 1.25327 -6.39638 0
M  V30 16344 N 1516.53 1.29665 -0.895815 0
M  V30 16345 C 1517.78 1.9533 -0.518725 0
M  V30 16346 C 1518.1 1.70995 0.937322 0
M  V30 16347 O 1517.37 1.03955 1.66043 0
M  V30 16348 H 1515.95 0.722736 -0.188841 0
M  V30 16349 H 1518.61 1.57991 -1.14126 0
M  V30 16350 H 1517.71 3.04193 -0.698057 0
M  V30 16351 N 1518.01 0.657889 1.43212 0
M  V30 16352 C 1519.26 0.170493 2.00978 0
M  V30 16353 C 1519.57 -1.22439 1.52539 0
M  V30 16354 O 1520.78 -1.80725 2.02609 0
M  V30 16355 C 1519.23 0.253982 3.59003 0
M  V30 16356 C 1518.84 1.65185 4.16435 0
M  V30 16357 C 1520.58 -0.17557 4.24137 0
M  V30 16358 C 1518.49 1.68902 5.66768 0
M  V30 16359 H 1517.42 0.0599767 0.751611 0
M  V30 16360 H 1520.07 0.820606 1.64129 0
M  V30 16361 H 1518.45 -0.463723 3.93275 0
M  V30 16362 H 1519.63 2.39529 3.93653 0
M  V30 16363 H 1517.94 2.02779 3.63689 0
M  V30 16364 H 1520.54 -0.167714 5.34437 0
M  V30 16365 H 1520.88 -1.20784 3.98393 0
M  V30 16366 H 1521.42 0.490544 3.94764 0
M  V30 16367 H 1518.16 2.70055 5.97286 0
M  V30 16368 H 1517.68 0.988906 5.91592 0
M  V30 16369 H 1519.35 1.43485 6.30889 0
M  V30 16370 N 1519.49 -1.52437 0.400108 0
M  V30 16371 C 1520.45 -2.2536 -0.417808 0
M  V30 16372 C 1521.45 -1.27393 -0.981204 0
M  V30 16373 O 1522.64 -1.51406 -0.861503 0
M  V30 16374 C 1519.77 -3.01695 -1.58724 0
M  V30 16375 H 1520.96 -2.99086 0.220782 0
M  V30 16376 H 1518.52 -1.55555 0.152439 0
M  V30 16377 H 1519.25 -2.32295 -2.26295 0
M  V30 16378 H 1519.04 -3.73611 -1.18984 0
M  V30 16379 H 1520.53 -3.57033 -2.16604 0
M  V30 16380 N 1520.96 -0.130252 -1.57061 0
M  V30 16381 C 1522.21 0.525784 -1.95866 0
M  V30 16382 C 1522.54 1.65607 -1.01429 0
M  V30 16383 O 1521.82 1.94426 -0.0535544 0
M  V30 16384 C 1522.1 1.04784 -3.44517 0
M  V30 16385 C 1521.95 -0.0797972 -4.49729 0
M  V30 16386 C 1523.27 1.9351 -3.95275 0
M  V30 16387 H 1520.39 0.189652 -0.71218 0
M  V30 16388 H 1523.03 -0.208091 -1.88857 0
M  V30 16389 H 1521.18 1.67324 -3.50621 0
M  V30 16390 H 1522.86 -0.715535 -4.55717 0
M  V30 16391 H 1521.1 -0.741358 -4.27418 0
M  V30 16392 H 1521.77 0.326915 -5.51031 0
M  V30 16393 H 1524.25 1.40825 -3.91545 0
M  V30 16394 H 1523.12 2.26952 -4.99784 0
M  V30 16395 H 1523.38 2.86583 -3.36634 0
M  V30 16396 N 1522.44 1.56945 0.143535 0
M  V30 16397 C 1523.69 1.83538 0.855563 0
M  V30 16398 C 1524.02 0.711666 1.81013 0
M  V30 16399 O 1523.27 -0.299039 1.93402 0
M  V30 16400 C 1523.57 3.16482 1.66054 0
M  V30 16401 C 1523.24 4.42768 0.85246 0
M  V30 16402 C 1521.9 4.77064 0.629535 0
M  V30 16403 C 1524.25 5.20406 0.287567 0
M  V30 16404 C 1521.58 5.86457 -0.168934 0
M  V30 16405 C 1523.93 6.30637 -0.49796 0
M  V30 16406 C 1522.6 6.6348 -0.731429 0
M  V30 16407 H 1521.87 0.671615 0.313073 0
M  V30 16408 H 1524.51 1.9113 0.11904 0
M  V30 16409 H 1522.82 3.04357 2.46727 0
M  V30 16410 H 1524.52 3.34274 2.215 0
M  V30 16411 H 1521.11 4.15884 1.03628 0
M  V30 16412 H 1525.29 4.94282 0.447066 0
M  V30 16413 H 1520.55 6.10343 -0.359283 0
M  V30 16414 H 1524.72 6.89989 -0.942792 0
M  V30 16415 H 1522.35 7.48081 -1.35199 0
M  V30 16416 N 1523.92 -0.412991 1.52093 0
M  V30 16417 C 1525.17 -1.15801 1.65634 0
M  V30 16418 C 1525.49 -1.91127 0.386737 0
M  V30 16419 O 1524.76 -1.86541 -0.598262 0
M  V30 16420 H 1523.34 -0.430467 0.610498 0
M  V30 16421 H 1526 -0.471127 1.8912 0
M  V30 16422 H 1525.1 -1.87421 2.49559 0
M  V30 16423 N 1525.4 -1.4265 -0.669982 0
M  V30 16424 C 1526.63 -1.46571 -1.45604 0
M  V30 16425 C 1527.04 -0.0769961 -1.89043 0
M  V30 16426 O 1526.38 0.919604 -1.59025 0
M  V30 16427 C 1526.44 -2.33435 -2.73401 0
M  V30 16428 C 1526.11 -3.81236 -2.52008 0
M  V30 16429 C 1527.1 -4.72768 -2.16301 0
M  V30 16430 C 1524.79 -4.25552 -2.66853 0
M  V30 16431 C 1526.78 -6.0661 -1.95712 0
M  V30 16432 C 1524.47 -5.59452 -2.4588 0
M  V30 16433 C 1525.47 -6.49797 -2.10364 0
M  V30 16434 O 1525.16 -7.81222 -1.89597 0
M  V30 16435 H 1524.89 -0.500529 -0.454364 0
M  V30 16436 H 1527.44 -1.87875 -0.830199 0
M  V30 16437 H 1525.67 -1.86989 -3.38485 0
M  V30 16438 H 1527.36 -2.28755 -3.353 0
M  V30 16439 H 1528.13 -4.39814 -2.04423 0
M  V30 16440 H 1524.01 -3.55518 -2.93475 0
M  V30 16441 H 1527.55 -6.7709 -1.67914 0
M  V30 16442 H 1523.45 -5.91978 -2.57355 0
M  V30 16443 H 1524.21 -7.9263 -2.04157 0
M  V30 16444 N 1526.88 0.906753 -1.28902 0
M  V30 16445 C 1528.1 1.69547 -1.19452 0
M  V30 16446 C 1528.53 1.86531 0.242418 0
M  V30 16447 O 1527.89 1.38052 1.17521 0
M  V30 16448 C 1527.93 3.06139 -1.90556 0
M  V30 16449 O 1527.04 3.9401 -1.21779 0
M  V30 16450 H 1526.38 0.518902 -0.41429 0
M  V30 16451 H 1528.91 1.13327 -1.70347 0
M  V30 16452 H 1528.92 3.56326 -1.98736 0
M  V30 16453 H 1527.59 2.93094 -2.95074 0
M  V30 16454 H 1526.17 3.52444 -1.2181 0
M  V30 16455 N 1528.36 1.11264 1.11616 0
M  V30 16456 C 1529.29 0.713116 2.16772 0
M  V30 16457 C 1530.27 -0.289791 1.59997 0
M  V30 16458 O 1531.45 -0.186649 1.87574 0
M  V30 16459 C 1528.58 0.0535784 3.38658 0
M  V30 16460 C 1527.62 1.02134 4.14091 0
M  V30 16461 S 1528.46 2.54294 4.71269 0
M  V30 16462 C 1529.61 1.89636 5.96481 0
M  V30 16463 H 1529.85 1.60387 2.50326 0
M  V30 16464 H 1527.38 0.930494 1.23212 0
M  V30 16465 H 1529.34 -0.320604 4.09246 0
M  V30 16466 H 1528 -0.814107 3.03366 0
M  V30 16467 H 1527.19 0.50727 5.01441 0
M  V30 16468 H 1526.79 1.33785 3.49253 0
M  V30 16469 H 1529.08 1.23171 6.66209 0
M  V30 16470 H 1530.03 2.74977 6.52528 0
M  V30 16471 H 1530.44 1.35729 5.4794 0
M  V30 16472 N 1529.83 -1.29188 0.902679 0
M  V30 16473 C 1530.8 -2.25901 0.387485 0
M  V30 16474 C 1531.8 -1.53469 -0.479993 0
M  V30 16475 O 1532.99 -1.71859 -0.284623 0
M  V30 16476 C 1530.12 -3.37974 -0.445723 0
M  V30 16477 H 1531.31 -2.72988 1.24167 0
M  V30 16478 H 1528.86 -1.4068 0.681083 0
M  V30 16479 H 1529.6 -2.9623 -1.31977 0
M  V30 16480 H 1529.38 -3.91705 0.175899 0
M  V30 16481 H 1530.87 -4.09917 -0.797384 0
M  V30 16482 N 1531.31 -0.665475 -1.42861 0
M  V30 16483 C 1532.56 -0.184156 -2.01962 0
M  V30 16484 C 1532.89 1.20301 -1.52451 0
M  V30 16485 O 1532.17 1.80573 -0.722756 0
M  V30 16486 C 1532.45 -0.208497 -3.59496 0
M  V30 16487 C 1532.3 -1.63045 -4.19209 0
M  V30 16488 C 1533.62 0.448421 -4.3781 0
M  V30 16489 H 1530.74 -0.0683924 -0.73382 0
M  V30 16490 H 1533.38 -0.84849 -1.70002 0
M  V30 16491 H 1531.53 0.357179 -3.86855 0
M  V30 16492 H 1533.2 -2.24766 -4.02837 0
M  V30 16493 H 1531.45 -2.17401 -3.75392 0
M  V30 16494 H 1532.12 -1.59924 -5.28326 0
M  V30 16495 H 1534.59 -0.0330053 -4.16087 0
M  V30 16496 H 1533.47 0.400713 -5.47435 0
M  V30 16497 H 1533.73 1.52454 -4.14982 0
M  V30 16498 N 1532.79 1.52222 -0.408187 0
M  V30 16499 C 1534.01 2.06703 0.169901 0
M  V30 16500 C 1534.44 1.27635 1.3817 0
M  V30 16501 O 1533.8 0.306343 1.78693 0
M  V30 16502 C 1533.85 3.57121 0.499663 0
M  V30 16503 O 1532.95 3.80483 1.5908 0
M  V30 16504 H 1532.29 0.663839 0.0146145 0
M  V30 16505 H 1534.82 1.96174 -0.581113 0
M  V30 16506 H 1534.83 4.00886 0.758567 0
M  V30 16507 H 1533.51 4.14103 -0.386182 0
M  V30 16508 H 1532.08 3.48599 1.32413 0
M  V30 16509 N 1534.27 0.138579 1.5699 0
M  V30 16510 C 1535.52 -0.514545 1.95026 0
M  V30 16511 C 1535.83 -1.66565 1.02544 0
M  V30 16512 O 1537.04 -2.38284 1.30126 0
M  V30 16513 C 1535.49 -0.966746 3.46673 0
M  V30 16514 C 1535.1 0.156969 4.47725 0
M  V30 16515 C 1536.84 -1.59014 3.93592 0
M  V30 16516 C 1534.75 -0.313031 5.90571 0
M  V30 16517 H 1533.68 -0.195991 0.728082 0
M  V30 16518 H 1536.33 0.221575 1.82157 0
M  V30 16519 H 1534.71 -1.75788 3.54845 0
M  V30 16520 H 1535.89 0.933728 4.51241 0
M  V30 16521 H 1534.2 0.688238 4.10673 0
M  V30 16522 H 1536.8 -1.95326 4.97747 0
M  V30 16523 H 1537.14 -2.47595 3.34668 0
M  V30 16524 H 1537.68 -0.864061 3.88302 0
M  V30 16525 H 1534.41 0.5372 6.53295 0
M  V30 16526 H 1533.93 -1.05585 5.90434 0
M  V30 16527 H 1535.61 -0.767826 6.42428 0
M  V30 16528 N 1535.75 -1.57019 -0.13521 0
M  V30 16529 C 1536.99 -1.83626 -0.844147 0
M  V30 16530 C 1537.31 -0.721298 -1.81169 0
M  V30 16531 O 1536.58 0.256095 -1.94219 0
M  V30 16532 H 1535.16 -0.677464 -0.314725 0
M  V30 16533 H 1537.83 -1.9449 -0.126399 0
M  V30 16534 H 1536.92 -2.78976 -1.39925 0
M  V30 16535 N 1537.22 0.404919 -1.52309 0
M  V30 16536 C 1538.47 1.14921 -1.66246 0
M  V30 16537 C 1538.79 1.90919 -0.396868 0
M  V30 16538 O 1538.06 1.86856 0.588361 0
M  V30 16539 H 1536.64 0.427223 -0.612772 0
M  V30 16540 H 1539.31 0.461091 -1.89367 0
M  V30 16541 H 1538.4 1.86095 -2.5055 0
M  V30 16542 N 1538.7 1.43003 0.662408 0
M  V30 16543 C 1539.95 1.43422 1.41821 0
M  V30 16544 C 1540.26 0.0586909 1.95512 0
M  V30 16545 O 1541.47 -0.0596978 2.71434 0
M  V30 16546 C 1539.93 2.52344 2.56613 0
M  V30 16547 C 1539.53 3.95961 2.09569 0
M  V30 16548 C 1541.28 2.61945 3.34044 0
M  V30 16549 C 1539.19 4.96367 3.21518 0
M  V30 16550 H 1538.12 0.533485 0.532832 0
M  V30 16551 H 1540.77 1.68958 0.715911 0
M  V30 16552 H 1539.15 2.19993 3.2927 0
M  V30 16553 H 1540.32 4.37728 1.43984 0
M  V30 16554 H 1538.64 3.90322 1.45044 0
M  V30 16555 H 1541.23 3.34137 4.17441 0
M  V30 16556 H 1541.58 1.66708 3.81463 0
M  V30 16557 H 1542.11 2.93552 2.68463 0
M  V30 16558 H 1538.85 5.93124 2.79077 0
M  V30 16559 H 1538.37 4.59221 3.85845 0
M  V30 16560 H 1540.05 5.18652 3.86793 0
M  V30 16561 N 1540.18 -0.899904 1.29381 0
M  V30 16562 C 1541.11 -2.02045 1.17047 0
M  V30 16563 C 1542.09 -1.69977 0.0647354 0
M  V30 16564 O 1543.28 -1.92659 0.244173 0
M  V30 16565 C 1540.41 -3.36839 0.845991 0
M  V30 16566 C 1539.36 -3.83117 1.90802 0
M  V30 16567 C 1538.69 -5.15032 1.43686 0
M  V30 16568 C 1539.99 -4.03464 3.31684 0
M  V30 16569 H 1541.68 -2.12623 2.10789 0
M  V30 16570 H 1539.23 -1.02162 1.01484 0
M  V30 16571 H 1541.18 -4.14737 0.746413 0
M  V30 16572 H 1539.9 -3.26352 -0.127125 0
M  V30 16573 H 1538.56 -3.07435 1.99698 0
M  V30 16574 H 1538.21 -5.00961 0.452422 0
M  V30 16575 H 1537.91 -5.46967 2.14711 0
M  V30 16576 H 1539.43 -5.95472 1.35078 0
M  V30 16577 H 1540.85 -4.71845 3.25631 0
M  V30 16578 H 1539.25 -4.46752 4.00665 0
M  V30 16579 H 1540.32 -3.07807 3.74677 0
M  V30 16580 N 1541.66 -1.11854 -1.11024 0
M  V30 16581 C 1542.62 -0.784033 -2.15373 0
M  V30 16582 C 1543.62 0.198686 -1.59568 0
M  V30 16583 O 1544.81 -0.0263428 -1.7418 0
M  V30 16584 C 1541.94 -0.163987 -3.40505 0
M  V30 16585 H 1543.14 -1.70849 -2.46477 0
M  V30 16586 H 1540.69 -0.920988 -1.26283 0
M  V30 16587 H 1541.42 0.770483 -3.15014 0
M  V30 16588 H 1541.21 -0.871447 -3.82293 0
M  V30 16589 H 1542.7 0.0537739 -4.17565 0
M  V30 16590 N 1543.14 1.28707 -0.909517 0
M  V30 16591 C 1544.36 1.99821 -0.555557 0
M  V30 16592 C 1544.79 1.67549 0.854931 0
M  V30 16593 O 1544.14 0.905521 1.57067 0
M  V30 16594 C 1544.19 3.52361 -0.766438 0
M  V30 16595 O 1543.3 4.12022 0.17654 0
M  V30 16596 H 1542.64 0.627918 -0.215905 0
M  V30 16597 H 1545.17 1.63965 -1.2238 0
M  V30 16598 H 1545.18 4.02379 -0.674894 0
M  V30 16599 H 1543.85 3.75184 -1.7947 0
M  V30 16600 H 1542.43 3.72882 0.0366216 0
M  V30 16601 N 1544.61 0.673042 1.42506 0
M  V30 16602 C 1546.03 0.342429 1.55883 0
M  V30 16603 C 1546.23 -1.15229 1.65302 0
M  V30 16604 O 1545.29 -1.93767 1.61897 0
M  V30 16605 C 1546.6 1.0712 2.80973 0
M  V30 16606 C 1548.15 1.05336 2.94743 0
M  V30 16607 C 1548.62 1.76342 4.22691 0
M  V30 16608 N 1550.11 1.73201 4.29599 0
M  V30 16609 C 1550.85 2.25 5.27411 0
M  V30 16610 N 1550.34 2.85173 6.31386 0
M  V30 16611 N 1552.14 2.15385 5.19197 0
M  V30 16612 H 1544.29 1.64277 1.34636 0
M  V30 16613 H 1546.55 0.691984 0.647968 0
M  V30 16614 H 1546.26 2.1263 2.80145 0
M  V30 16615 H 1546.13 0.635313 3.71811 0
M  V30 16616 H 1548.52 0.00659669 2.95099 0
M  V30 16617 H 1548.6 1.52811 2.0514 0
M  V30 16618 H 1548.24 2.80985 4.23096 0
M  V30 16619 H 1548.17 1.26317 5.11225 0
M  V30 16620 H 1550.66 1.2931 3.55088 0
M  V30 16621 H 1550.98 3.22323 7.02373 0
M  V30 16622 H 1549.32 2.89242 6.31953 0
M  V30 16623 H 1552.51 1.68065 4.36889 0
M  V30 16624 H 1552.69 2.5606 5.95262 0
M  V30 16625 N 1546.09 -1.52004 0.416254 0
M  V30 16626 C 1547.33 -2.03799 -0.156638 0
M  V30 16627 C 1547.7 -1.29476 -1.41775 0
M  V30 16628 O 1548.9 -1.71534 -2.06953 0
M  V30 16629 C 1547.17 -3.55251 -0.391311 0
M  V30 16630 S 1548.73 -4.28818 -0.93063 0
M  V30 16631 H 1545.55 -0.709775 -0.0417176 0
M  V30 16632 H 1548.15 -1.86981 0.570812 0
M  V30 16633 H 1546.85 -4.06921 0.533206 0
M  V30 16634 H 1546.38 -3.76325 -1.14644 0
M  V30 16635 H 1548.4 -4.44244 -2.21046 0
M  V30 16636 N 1547.57 -0.146903 -1.56914 0
M  V30 16637 C 1548.5 0.788924 -2.19769 0
M  V30 16638 C 1549.48 1.25712 -1.14589 0
M  V30 16639 O 1550.67 1.3147 -1.42931 0
M  V30 16640 C 1547.8 2.02824 -2.81921 0
M  V30 16641 C 1546.75 1.69683 -3.92927 0
M  V30 16642 C 1546.08 3.00877 -4.42015 0
M  V30 16643 C 1547.38 0.943559 -5.13706 0
M  V30 16644 H 1549.07 0.265076 -2.98224 0
M  V30 16645 H 1546.62 0.126057 -1.43447 0
M  V30 16646 H 1548.57 2.68773 -3.2456 0
M  V30 16647 H 1547.29 2.57581 -2.00797 0
M  V30 16648 H 1545.95 1.06112 -3.50907 0
M  V30 16649 H 1545.6 3.53625 -3.57713 0
M  V30 16650 H 1545.3 2.79466 -5.16888 0
M  V30 16651 H 1546.82 3.67897 -4.87323 0
M  V30 16652 H 1548.24 1.50513 -5.5319 0
M  V30 16653 H 1546.64 0.829387 -5.94341 0
M  V30 16654 H 1547.71 -0.0647228 -4.84857 0
M  V30 16655 N 1549.05 1.57088 0.126881 0
M  V30 16656 C 1550 1.96188 1.16164 0
M  V30 16657 C 1550.98 0.835786 1.3749 0
M  V30 16658 O 1552.17 1.09942 1.38714 0
M  V30 16659 C 1549.3 2.36308 2.49025 0
M  V30 16660 C 1548.39 3.55533 2.31208 0
M  V30 16661 N 1548.78 4.71462 1.83186 0
M  V30 16662 C 1547.08 3.61011 2.61891 0
M  V30 16663 C 1547.78 5.5351 1.7889 0
M  V30 16664 N 1546.76 4.95778 2.22946 0
M  V30 16665 H 1550.56 2.83284 0.782778 0
M  V30 16666 H 1548.07 1.58913 0.334719 0
M  V30 16667 H 1550.07 2.62533 3.23855 0
M  V30 16668 H 1548.73 1.50573 2.87677 0
M  V30 16669 H 1549.74 4.94831 1.5285 0
M  V30 16670 H 1546.42 2.85865 3.04282 0
M  V30 16671 H 1547.81 6.56488 1.43083 0
M  V30 16672 N 1550.53 -0.396836 1.52522 0
M  V30 16673 C 1551.77 -1.14432 1.67431 0
M  V30 16674 C 1552.11 -1.89842 0.409115 0
M  V30 16675 O 1551.38 -1.85244 -0.592863 0
M  V30 16676 C 1551.66 -2.12889 2.90431 0
M  V30 16677 C 1551.52 -1.41295 4.27031 0
M  V30 16678 C 1552.84 -3.13412 3.08967 0
M  V30 16679 H 1549.95 -0.414643 0.609295 0
M  V30 16680 H 1552.6 -0.428604 1.85103 0
M  V30 16681 H 1550.75 -2.73924 2.75495 0
M  V30 16682 H 1552.42 -0.832848 4.53719 0
M  V30 16683 H 1550.66 -0.714834 4.2787 0
M  V30 16684 H 1551.33 -2.13198 5.09167 0
M  V30 16685 H 1553.81 -2.62462 3.22883 0
M  V30 16686 H 1552.68 -3.79555 3.96522 0
M  V30 16687 H 1552.95 -3.81836 2.22831 0
M  V30 16688 N 1552.01 -1.43353 -0.654814 0
M  V30 16689 C 1553.28 -1.35363 -1.41195 0
M  V30 16690 C 1553.66 -0.000661523 -2.111 0
M  V30 16691 O 1553.01 1.01583 -2.04678 0
M  V30 16692 C 1553.22 -2.53572 -2.39796 0
M  V30 16693 C 1554.57 -2.96587 -3.03844 0
M  V30 16694 O 1555.59 -2.53607 -2.50124 0
M  V30 16695 O 1554.45 -3.71039 -4.01239 0
M  V30 16696 H 1551.55 -0.534861 -0.630756 0
M  V30 16697 H 1554.09 -1.55399 -0.681857 0
M  V30 16698 H 1552.86 -3.43682 -1.87078 0
M  V30 16699 H 1552.49 -2.35628 -3.20258 0
M  V30 16700 N 1553.48 0.89303 -1.29857 0
M  V30 16701 C 1554.41 2.01422 -1.18117 0
M  V30 16702 C 1555.39 1.6994 -0.0737487 0
M  V30 16703 O 1556.58 1.92527 -0.254387 0
M  V30 16704 C 1553.71 3.36385 -0.863842 0
M  V30 16705 C 1552.66 3.821 -1.92831 0
M  V30 16706 C 1551.99 5.14263 -1.46415 0
M  V30 16707 C 1553.29 4.01699 -3.33819 0
M  V30 16708 H 1554.98 2.11502 -2.11913 0
M  V30 16709 H 1552.53 1.01622 -1.02024 0
M  V30 16710 H 1554.48 4.14335 -0.768397 0
M  V30 16711 H 1553.21 3.26415 0.109816 0
M  V30 16712 H 1551.87 3.06372 -2.01325 0
M  V30 16713 H 1551.51 5.00714 -0.478983 0
M  V30 16714 H 1551.21 5.45821 -2.17609 0
M  V30 16715 H 1552.74 5.94747 -1.38234 0
M  V30 16716 H 1554.15 4.70111 -3.28129 0
M  V30 16717 H 1552.55 4.44621 -4.03029 0
M  V30 16718 H 1553.62 3.05816 -3.76304 0
M  V30 16719 N 1554.96 1.12442 1.10429 0
M  V30 16720 C 1555.89 0.814745 2.18824 0
M  V30 16721 C 1556.87 -0.221476 1.68652 0
M  V30 16722 O 1558.06 -0.0826537 1.94024 0
M  V30 16723 C 1555.19 0.268632 3.4626 0
M  V30 16724 C 1554.14 1.23792 4.09707 0
M  V30 16725 C 1553.47 0.552034 5.31843 0
M  V30 16726 C 1554.77 2.5926 4.53411 0
M  V30 16727 H 1556.46 1.72111 2.44986 0
M  V30 16728 H 1554.01 0.828968 1.17746 0
M  V30 16729 H 1555.96 0.0397207 4.21381 0
M  V30 16730 H 1554.68 -0.673079 3.19589 0
M  V30 16731 H 1553.34 1.45264 3.36592 0
M  V30 16732 H 1552.99 -0.394821 5.01448 0
M  V30 16733 H 1552.69 1.19861 5.75245 0
M  V30 16734 H 1554.22 0.332161 6.09696 0
M  V30 16735 H 1555.63 2.41816 5.19806 0
M  V30 16736 H 1554.03 3.19997 5.07663 0
M  V30 16737 H 1555.1 3.17699 3.66327 0
M  V30 16738 N 1556.44 -1.28223 0.91633 0
M  V30 16739 C 1557.39 -2.24848 0.377829 0
M  V30 16740 C 1558.37 -1.52553 -0.511507 0
M  V30 16741 O 1559.57 -1.73489 -0.350808 0
M  V30 16742 C 1556.69 -3.41206 -0.378635 0
M  V30 16743 C 1555.78 -4.20818 0.526567 0
M  V30 16744 N 1556.17 -4.78429 1.64132 0
M  V30 16745 C 1554.47 -4.44796 0.327436 0
M  V30 16746 C 1555.17 -5.38355 2.20339 0
M  V30 16747 N 1554.15 -5.22657 1.49434 0
M  V30 16748 H 1557.95 -2.66963 1.22914 0
M  V30 16749 H 1555.46 -1.43024 0.769282 0
M  V30 16750 H 1557.46 -4.09514 -0.781283 0
M  V30 16751 H 1556.12 -3.00623 -1.22701 0
M  V30 16752 H 1557.13 -4.76718 2.02387 0
M  V30 16753 H 1553.81 -4.14717 -0.481214 0
M  V30 16754 H 1555.2 -5.93948 3.14126 0
M  V30 16755 N 1557.92 -0.68059 -1.42147 0
M  V30 16756 C 1559.14 -0.212293 -2.06311 0
M  V30 16757 C 1559.57 1.12402 -1.50822 0
M  V30 16758 O 1558.93 1.70037 -0.629051 0
M  V30 16759 C 1558.97 -0.164156 -3.60226 0
M  V30 16760 O 1558.08 0.865582 -4.03214 0
M  V30 16761 H 1557.42 -0.107451 -0.655248 0
M  V30 16762 H 1559.95 -0.931233 -1.82179 0
M  V30 16763 H 1559.96 0.0100422 -4.07999 0
M  V30 16764 H 1558.63 -1.13952 -3.99985 0
M  V30 16765 H 1557.21 0.661955 -3.66978 0
M  V30 16766 N 1559.4 1.51781 -0.424309 0
M  V30 16767 C 1560.64 2.01157 0.147925 0
M  V30 16768 C 1560.96 1.31369 1.44919 0
M  V30 16769 O 1562.16 1.71643 2.10359 0
M  V30 16770 C 1560.62 3.58526 0.31417 0
M  V30 16771 C 1560.23 4.37242 -0.975898 0
M  V30 16772 C 1561.97 4.16088 0.840876 0
M  V30 16773 C 1559.88 5.86287 -0.776009 0
M  V30 16774 H 1558.81 0.751684 0.0590568 0
M  V30 16775 H 1561.46 1.74998 -0.552079 0
M  V30 16776 H 1559.84 3.81077 1.07687 0
M  V30 16777 H 1561.02 4.26444 -1.74592 0
M  V30 16778 H 1559.33 3.9107 -1.43015 0
M  V30 16779 H 1561.93 5.25138 1.0067 0
M  V30 16780 H 1562.27 3.7442 1.81977 0
M  V30 16781 H 1562.8 3.97565 0.136836 0
M  V30 16782 H 1559.54 6.32343 -1.7269 0
M  V30 16783 H 1559.06 5.99783 -0.0455544 0
M  V30 16784 H 1560.74 6.45609 -0.424095 0
M  V30 16785 N 1560.87 0.155222 1.56834 0
M  V30 16786 C 1561.8 -0.777258 2.20184 0
M  V30 16787 C 1562.78 -1.25102 1.15254 0
M  V30 16788 O 1563.97 -1.3071 1.43627 0
M  V30 16789 C 1561.1 -2.01326 2.82993 0
M  V30 16790 C 1560.05 -1.67596 3.93822 0
M  V30 16791 C 1559.38 -2.98529 4.43604 0
M  V30 16792 C 1560.68 -0.916302 5.142 0
M  V30 16793 H 1562.37 -0.249257 2.98361 0
M  V30 16794 H 1559.92 -0.118448 1.43512 0
M  V30 16795 H 1561.87 -2.67048 3.2598 0
M  V30 16796 H 1560.6 -2.56513 2.0216 0
M  V30 16797 H 1559.26 -1.0425 3.51465 0
M  V30 16798 H 1558.9 -3.51723 3.59583 0
M  V30 16799 H 1558.6 -2.76721 5.18362 0
M  V30 16800 H 1560.13 -3.65308 4.89267 0
M  V30 16801 H 1561.54 -1.47577 5.5398 0
M  V30 16802 H 1559.94 -0.797856 5.94772 0
M  V30 16803 H 1561.01 0.0904351 4.84816 0
M  V30 16804 N 1562.35 -1.57153 -0.118549 0
M  V30 16805 C 1563.77 -1.52458 -0.472096 0
M  V30 16806 C 1563.97 -0.868289 -1.81832 0
M  V30 16807 O 1563.02 -0.450817 -2.48443 0
M  V30 16808 C 1564.34 -2.9722 -0.456175 0
M  V30 16809 C 1565.88 -3.08312 -0.539694 0
M  V30 16810 C 1566.36 -4.54635 -0.554158 0
M  V30 16811 N 1567.85 -4.59091 -0.615584 0
M  V30 16812 C 1568.59 -5.69724 -0.64823 0
M  V30 16813 N 1568.08 -6.89852 -0.638494 0
M  V30 16814 N 1569.87 -5.57833 -0.691272 0
M  V30 16815 H 1562.03 -1.98202 0.76353 0
M  V30 16816 H 1564.29 -0.905179 0.281699 0
M  V30 16817 H 1563.99 -3.48608 0.465364 0
M  V30 16818 H 1563.87 -3.5468 -1.28381 0
M  V30 16819 H 1566.26 -2.56926 -1.45165 0
M  V30 16820 H 1566.34 -2.53845 0.315638 0
M  V30 16821 H 1565.98 -5.06667 0.353759 0
M  V30 16822 H 1565.91 -5.06914 -1.42638 0
M  V30 16823 H 1568.4 -3.72624 -0.629253 0
M  V30 16824 H 1568.71 -7.69925 -0.66604 0
M  V30 16825 H 1567.06 -6.92354 -0.605912 0
M  V30 16826 H 1570.25 -4.62893 -0.696244 0
M  V30 16827 H 1570.42 -6.44063 -0.713246 0
M  V30 16828 N 1563.83 0.388742 -1.5273 0
M  V30 16829 C 1565.05 1.15946 -1.71963 0
M  V30 16830 C 1565.48 1.82949 -0.437173 0
M  V30 16831 O 1564.84 1.70834 0.607072 0
M  V30 16832 C 1564.89 2.18298 -2.87016 0
M  V30 16833 O 1563.99 3.24891 -2.54008 0
M  V30 16834 H 1563.33 0.337526 -0.571815 0
M  V30 16835 H 1565.86 0.452957 -1.99523 0
M  V30 16836 H 1565.87 2.6229 -3.12519 0
M  V30 16837 H 1564.55 1.68917 -3.80052 0
M  V30 16838 H 1563.12 2.86034 -2.39246 0
M  V30 16839 N 1565.31 1.43698 0.647203 0
M  V30 16840 C 1566.72 1.40586 1.22851 0
M  V30 16841 C 1567.07 0.112981 1.95874 0
M  V30 16842 O 1566.19 -0.787342 2.01569 0
M  V30 16843 C 1566.79 2.54672 2.23445 0
M  V30 16844 C 1565.35 2.54806 2.7704 0
M  V30 16845 C 1564.5 2.32076 1.51777 0
M  V30 16846 H 1567.45 1.52512 0.43885 0
M  V30 16847 H 1567.47 2.26505 3.05738 0
M  V30 16848 H 1566.98 3.48755 1.70269 0
M  V30 16849 H 1565.08 1.64619 3.34262 0
M  V30 16850 H 1565.19 3.52771 3.24175 0
M  V30 16851 H 1563.56 1.80858 1.79339 0
M  V30 16852 H 1564.34 3.28252 1.00527 0
M  V30 16853 N 1566.79 -0.886131 1.30328 0
M  V30 16854 C 1567.72 -1.99419 1.10938 0
M  V30 16855 C 1568.7 -1.62591 0.0173539 0
M  V30 16856 O 1569.88 -1.87726 0.170684 0
M  V30 16857 C 1567.01 -3.31561 0.691713 0
M  V30 16858 C 1566.05 -3.87376 1.78444 0
M  V30 16859 S 1566.89 -4.14812 3.38661 0
M  V30 16860 C 1568.04 -5.49976 2.98793 0
M  V30 16861 H 1568.28 -2.15561 2.04746 0
M  V30 16862 H 1565.81 -1.03438 1.14629 0
M  V30 16863 H 1567.77 -4.07943 0.457465 0
M  V30 16864 H 1566.43 -3.13279 -0.226981 0
M  V30 16865 H 1565.62 -4.82858 1.44445 0
M  V30 16866 H 1565.22 -3.1773 1.97291 0
M  V30 16867 H 1567.52 -6.30995 2.46682 0
M  V30 16868 H 1568.46 -5.88911 3.93178 0
M  V30 16869 H 1568.87 -5.1248 2.36694 0
M  V30 16870 N 1568.26 -1.13026 -1.09832 0
M  V30 16871 C 1569.49 -0.912803 -1.86233 0
M  V30 16872 C 1569.91 0.532955 -1.80392 0
M  V30 16873 O 1569.27 1.37783 -1.17837 0
M  V30 16874 C 1569.32 -1.40002 -3.32313 0
M  V30 16875 O 1568.42 -0.582537 -4.08265 0
M  V30 16876 H 1567.77 -0.327464 -0.577636 0
M  V30 16877 H 1570.3 -1.5039 -1.38723 0
M  V30 16878 H 1570.31 -1.40182 -3.83162 0
M  V30 16879 H 1568.98 -2.4527 -3.3588 0
M  V30 16880 H 1567.56 -0.648255 -3.67222 0
M  V30 16881 N 1569.74 1.27735 -0.923117 0
M  V30 16882 C 1570.99 1.9457 -0.561149 0
M  V30 16883 C 1571.32 1.72591 0.896805 0
M  V30 16884 O 1570.57 1.04546 1.65434 0
M  V30 16885 C 1570.87 3.47677 -0.827959 0
M  V30 16886 C 1570.54 3.8977 -2.26693 0
M  V30 16887 C 1569.2 4.00973 -2.66033 0
M  V30 16888 C 1571.55 4.11173 -3.20291 0
M  V30 16889 C 1568.88 4.30963 -3.98105 0
M  V30 16890 C 1571.23 4.42645 -4.51938 0
M  V30 16891 C 1569.9 4.52061 -4.91119 0
M  V30 16892 H 1569.17 0.711981 -0.205339 0
M  V30 16893 H 1571.81 1.51894 -1.16621 0
M  V30 16894 H 1570.12 3.91549 -0.140178 0
M  V30 16895 H 1571.81 3.97523 -0.526932 0
M  V30 16896 H 1568.4 3.81584 -1.95171 0
M  V30 16897 H 1572.59 4.01962 -2.91102 0
M  V30 16898 H 1567.84 4.36461 -4.28149 0
M  V30 16899 H 1572.02 4.58153 -5.2447 0
M  V30 16900 H 1569.65 4.75053 -5.93488 0
M  V30 16901 N 1571.22 0.688118 1.41784 0
M  V30 16902 C 1572.47 0.215944 2.01345 0
M  V30 16903 C 1572.8 -1.18197 1.54466 0
M  V30 16904 O 1572.05 -1.81032 0.743374 0
M  V30 16905 C 1572.35 0.213747 3.5676 0
M  V30 16906 C 1572.02 1.55816 4.23122 0
M  V30 16907 C 1570.68 1.92623 4.40964 0
M  V30 16908 C 1573.03 2.44297 4.604 0
M  V30 16909 C 1570.36 3.17511 4.93359 0
M  V30 16910 C 1572.71 3.68511 5.14182 0
M  V30 16911 C 1571.37 4.0547 5.30236 0
M  V30 16912 H 1570.64 0.0790193 0.736775 0
M  V30 16913 H 1573.29 0.885737 1.69785 0
M  V30 16914 H 1571.6 -0.539583 3.88067 0
M  V30 16915 H 1573.29 -0.169004 4.00644 0
M  V30 16916 H 1569.88 1.26186 4.09604 0
M  V30 16917 H 1574.07 2.17143 4.46277 0
M  V30 16918 H 1569.32 3.46151 5.03973 0
M  V30 16919 H 1573.5 4.37264 5.42008 0
M  V30 16920 H 1571.12 5.02316 5.70598 0
M  V30 16921 N 1572.7 -1.51554 0.432352 0
M  V30 16922 C 1573.61 -2.31371 -0.387885 0
M  V30 16923 C 1574.62 -1.40072 -1.03227 0
M  V30 16924 O 1575.8 -1.73145 -1.02873 0
M  V30 16925 C 1572.87 -3.13662 -1.47705 0
M  V30 16926 C 1571.93 -4.20734 -0.853315 0
M  V30 16927 C 1571.16 -4.99092 -1.89058 0
M  V30 16928 O 1571.38 -4.78022 -3.11209 0
M  V30 16929 O 1570.32 -5.83322 -1.48389 0
M  V30 16930 H 1574.14 -3.02554 0.263578 0
M  V30 16931 H 1571.73 -1.48122 0.195004 0
M  V30 16932 H 1573.61 -3.64837 -2.10884 0
M  V30 16933 H 1572.28 -2.45249 -2.11269 0
M  V30 16934 H 1571.19 -3.73649 -0.183616 0
M  V30 16935 H 1572.52 -4.91506 -0.261244 0
M  V30 16936 N 1574.18 -0.163538 -1.56749 0
M  V30 16937 C 1575.59 0.192717 -1.58432 0
M  V30 16938 C 1575.79 1.63438 -1.17856 0
M  V30 16939 O 1574.85 2.36425 -0.88654 0
M  V30 16940 C 1576.16 -0.0810427 -3.00591 0
M  V30 16941 C 1577.71 -0.0186378 -3.12994 0
M  V30 16942 C 1578.18 -0.265283 -4.57231 0
M  V30 16943 N 1579.68 -0.212787 -4.62711 0
M  V30 16944 C 1580.41 -0.37791 -5.72153 0
M  V30 16945 N 1579.91 -0.601663 -6.90182 0
M  V30 16946 N 1581.7 -0.314357 -5.6122 0
M  V30 16947 H 1573.85 -1.10467 -1.81413 0
M  V30 16948 H 1576.11 -0.438569 -0.840453 0
M  V30 16949 H 1575.82 -1.07944 -3.34725 0
M  V30 16950 H 1575.69 0.630888 -3.71887 0
M  V30 16951 H 1578.08 0.970324 -2.78691 0
M  V30 16952 H 1578.16 -0.763158 -2.44151 0
M  V30 16953 H 1577.81 -1.25142 -4.92242 0
M  V30 16954 H 1577.74 0.499756 -5.24223 0
M  V30 16955 H 1580.23 -0.0451754 -3.77873 0
M  V30 16956 H 1580.54 -0.717319 -7.69464 0
M  V30 16957 H 1578.88 -0.638184 -6.92064 0
M  V30 16958 H 1582.08 -0.140197 -4.6789 0
M  V30 16959 H 1582.25 -0.446472 -6.4646 0
M  V30 16960 N 1575.65 1.57214 0.110213 0
M  V30 16961 C 1576.88 1.89505 0.830391 0
M  V30 16962 C 1577.3 0.755702 1.73016 0
M  V30 16963 O 1576.65 -0.273072 1.80445 0
M  V30 16964 C 1576.71 3.21316 1.65646 0
M  V30 16965 O 1576.43 4.30865 0.7929 0
M  V30 16966 C 1577.93 3.67369 2.48102 0
M  V30 16967 H 1575.15 0.627277 0.238252 0
M  V30 16968 H 1577.69 2.04293 0.0919716 0
M  V30 16969 H 1575.85 3.08171 2.34754 0
M  V30 16970 H 1576.26 5.06466 1.36353 0
M  V30 16971 H 1577.73 4.62335 3.0158 0
M  V30 16972 H 1578.21 2.94459 3.25869 0
M  V30 16973 H 1578.82 3.83331 1.8422 0
M  V30 16974 N 1577.13 -0.380637 1.52934 0
M  V30 16975 C 1578.54 -0.958182 1.60237 0
M  V30 16976 C 1578.89 -1.90722 0.460393 0
M  V30 16977 O 1578.02 -2.12376 -0.415354 0
M  V30 16978 C 1578.61 -1.7446 2.90429 0
M  V30 16979 C 1577.17 -2.27172 3.00116 0
M  V30 16980 C 1576.32 -1.07969 2.55417 0
M  V30 16981 H 1579.27 -0.159908 1.57892 0
M  V30 16982 H 1579.29 -2.60456 2.77385 0
M  V30 16983 H 1578.8 -1.05362 3.73524 0
M  V30 16984 H 1576.91 -2.99557 2.21577 0
M  V30 16985 H 1577.02 -2.56086 4.04916 0
M  V30 16986 H 1575.38 -1.4422 2.09935 0
M  V30 16987 H 1576.17 -0.403925 3.40915 0
M  V30 16988 N 1578.61 -1.44039 -0.639573 0
M  V30 16989 C 1579.84 -1.50063 -1.43164 0
M  V30 16990 C 1580.26 -0.123906 -1.87691 0
M  V30 16991 O 1579.62 0.885192 -1.58221 0
M  V30 16992 C 1579.67 -2.46305 -2.63375 0
M  V30 16993 O 1578.77 -1.95874 -3.62915 0
M  V30 16994 H 1578.11 -0.507052 -0.428713 0
M  V30 16995 H 1580.64 -1.8909 -0.781415 0
M  V30 16996 H 1580.65 -2.64062 -3.11023 0
M  V30 16997 H 1579.33 -3.46309 -2.3031 0
M  V30 16998 H 1577.9 -1.87844 -3.22132 0
M  V30 16999 N 1580.09 0.879207 -1.30796 0
M  V30 17000 C 1581.34 1.62828 -1.19715 0
M  V30 17001 C 1581.66 1.93429 0.247031 0
M  V30 17002 O 1580.93 1.57478 1.16522 0
M  V30 17003 H 1579.51 0.603607 -0.440077 0
M  V30 17004 H 1582.17 1.05309 -1.64 0
M  V30 17005 H 1581.27 2.57591 -1.76219 0
M  V30 17006 N 1581.57 1.13606 1.09231 0
M  V30 17007 C 1582.52 0.810747 2.18013 0
M  V30 17008 C 1583.51 -0.207782 1.68121 0
M  V30 17009 O 1584.72 -0.0647274 1.79884 0
M  V30 17010 H 1581.09 0.244415 0.711172 0
M  V30 17011 H 1583.06 1.73632 2.42682 0
M  V30 17012 C 1581.81 0.295302 3.46444 0
M  V30 17013 H 1581.13 1.07037 3.85205 0
M  V30 17014 H 1582.57 0.106127 4.23867 0
M  V30 17015 C 1581.03 -0.979398 3.2235 0
M  V30 17016 O 1581.56 -2.05483 3.45166 0
M  V30 17017 N 1579.77 -0.911282 2.75942 0
M  V30 17018 H 1579.32 -0.035979 2.57575 0
M  V30 17019 H 1579.27 -1.76476 2.60199 0
M  V30 17020 N 1583.05 -1.27244 0.929878 0
M  V30 17021 C 1583.98 -2.29161 0.448066 0
M  V30 17022 C 1584.96 -1.62806 -0.492776 0
M  V30 17023 O 1586.14 -1.90098 -0.39706 0
M  V30 17024 C 1583.27 -3.46019 -0.298002 0
M  V30 17025 C 1582.23 -4.24384 0.555211 0
M  V30 17026 C 1581.55 -5.33741 -0.320153 0
M  V30 17027 C 1582.85 -4.89535 1.8208 0
M  V30 17028 H 1584.55 -2.69712 1.29983 0
M  V30 17029 H 1582.09 -1.29659 0.626466 0
M  V30 17030 H 1584.04 -4.16419 -0.646024 0
M  V30 17031 H 1582.77 -3.0439 -1.18381 0
M  V30 17032 H 1581.43 -3.55733 0.885971 0
M  V30 17033 H 1581.08 -4.88354 -1.20498 0
M  V30 17034 H 1580.78 -5.8708 0.247241 0
M  V30 17035 H 1582.3 -6.06982 -0.663697 0
M  V30 17036 H 1583.71 -5.52209 1.54071 0
M  V30 17037 H 1582.11 -5.52941 2.33186 0
M  V30 17038 H 1583.18 -4.13113 2.53901 0
M  V30 17039 N 1584.52 -0.695628 -1.41417 0
M  V30 17040 C 1585.77 -0.226954 -2.01526 0
M  V30 17041 C 1586.1 1.1704 -1.54968 0
M  V30 17042 O 1585.38 1.78999 -0.760895 0
M  V30 17043 C 1585.66 -0.284704 -3.58973 0
M  V30 17044 C 1585.51 -1.71901 -4.15656 0
M  V30 17045 C 1586.83 0.355454 -4.38662 0
M  V30 17046 H 1583.95 -0.0839425 -0.732204 0
M  V30 17047 H 1586.59 -0.884359 -1.68164 0
M  V30 17048 H 1584.74 0.275041 -3.87525 0
M  V30 17049 H 1586.42 -2.3326 -3.97979 0
M  V30 17050 H 1584.66 -2.25314 -3.70696 0
M  V30 17051 H 1585.33 -1.71095 -5.24815 0
M  V30 17052 H 1587.81 -0.121256 -4.15923 0
M  V30 17053 H 1586.68 0.284503 -5.48162 0
M  V30 17054 H 1586.94 1.43617 -4.18123 0
M  V30 17055 N 1586 1.51322 -0.440383 0
M  V30 17056 C 1586.95 2.2941 0.383883 0
M  V30 17057 C 1587.94 1.35388 1.01816 0
M  V30 17058 O 1589.15 1.52716 0.952775 0
M  V30 17059 H 1585.52 0.738354 0.142611 0
M  V30 17060 H 1587.5 2.96933 -0.295532 0
M  V30 17061 C 1586.24 3.15055 1.47091 0
M  V30 17062 H 1585.57 3.87292 0.992214 0
M  V30 17063 H 1587.01 3.72744 2.02084 0
M  V30 17064 C 1585.47 2.30628 2.45586 0
M  V30 17065 O 1586 1.96801 3.50189 0
M  V30 17066 N 1584.2 1.93792 2.16548 0
M  V30 17067 H 1583.75 2.215 1.31512 0
M  V30 17068 H 1583.71 1.37601 2.82689 0
M  V30 17069 N 1587.48 0.171848 1.5666 0
M  V30 17070 C 1588.9 -0.184312 1.58532 0
M  V30 17071 C 1589.1 -1.62811 1.18721 0
M  V30 17072 O 1588.15 -2.35951 0.899066 0
M  V30 17073 C 1589.46 0.0969826 3.00544 0
M  V30 17074 C 1591.01 0.0352364 3.1298 0
M  V30 17075 C 1591.49 0.289528 4.57084 0
M  V30 17076 N 1592.98 0.237322 4.62592 0
M  V30 17077 C 1593.71 0.408247 5.71945 0
M  V30 17078 N 1593.21 0.638256 6.89854 0
M  V30 17079 N 1595 0.344115 5.61046 0
M  V30 17080 H 1587.15 1.11427 1.80825 0
M  V30 17081 H 1589.42 0.44302 0.838115 0
M  V30 17082 H 1589.12 1.09717 3.34148 0
M  V30 17083 H 1589 -0.611157 3.72216 0
M  V30 17084 H 1591.38 -0.955531 2.79202 0
M  V30 17085 H 1591.46 0.776095 2.43743 0
M  V30 17086 H 1591.11 1.27751 4.91571 0
M  V30 17087 H 1591.04 -0.471948 5.24481 0
M  V30 17088 H 1593.53 0.0652142 3.77844 0
M  V30 17089 H 1593.84 0.758116 7.69072 0
M  V30 17090 H 1592.19 0.674877 6.91716 0
M  V30 17091 H 1595.38 0.165008 4.67809 0
M  V30 17092 H 1595.55 0.480749 6.46214 0
M  V30 17093 N 1588.96 -1.5727 -0.101874 0
M  V30 17094 C 1590.2 -1.85742 -0.8066 0
M  V30 17095 C 1590.53 -0.759408 -1.79062 0
M  V30 17096 O 1589.79 0.247657 -1.94127 0
M  V30 17097 C 1590.09 -3.20773 -1.57605 0
M  V30 17098 C 1589.75 -4.44873 -0.734768 0
M  V30 17099 C 1588.41 -4.78566 -0.502829 0
M  V30 17100 C 1590.77 -5.20986 -0.14949 0
M  V30 17101 C 1588.09 -5.85803 0.324363 0
M  V30 17102 C 1590.45 -6.29095 0.664987 0
M  V30 17103 C 1589.11 -6.61308 0.907082 0
M  V30 17104 H 1588.38 -0.679679 -0.295156 0
M  V30 17105 H 1591.03 -1.91378 -0.0683238 0
M  V30 17106 H 1589.33 -3.10791 -2.38571 0
M  V30 17107 H 1591.03 -3.40029 -2.12559 0
M  V30 17108 H 1587.62 -4.18485 -0.92565 0
M  V30 17109 H 1591.8 -4.95294 -0.315859 0
M  V30 17110 H 1587.06 -6.09176 0.520978 0
M  V30 17111 H 1591.23 -6.87246 1.1254 0
M  V30 17112 H 1588.86 -7.44234 1.54986 0
M  V30 17113 N 1590.44 0.372521 -1.53134 0
M  V30 17114 C 1591.66 1.14116 -1.73183 0
M  V30 17115 C 1592.09 1.82475 -0.456553 0
M  V30 17116 O 1591.44 1.71468 0.588919 0
M  V30 17117 C 1591.49 2.15241 -2.89316 0
M  V30 17118 O 1590.6 3.22178 -2.57439 0
M  V30 17119 H 1589.94 0.331442 -0.575362 0
M  V30 17120 H 1592.47 0.431769 -1.99992 0
M  V30 17121 H 1592.48 2.58961 -3.15283 0
M  V30 17122 H 1591.15 1.64877 -3.81822 0
M  V30 17123 H 1589.73 2.83481 -2.42267 0
M  V30 17124 N 1591.91 1.44376 0.631925 0
M  V30 17125 C 1592.86 1.51181 1.74393 0
M  V30 17126 C 1593.83 0.359599 1.62161 0
M  V30 17127 O 1595.02 0.569725 1.82096 0
M  V30 17128 C 1592.16 1.46124 3.12637 0
M  V30 17129 C 1591.27 2.71714 3.35851 0
M  V30 17130 C 1590.4 2.58496 4.64062 0
M  V30 17131 C 1589.44 3.79252 4.80452 0
M  V30 17132 N 1588.58 3.64715 5.99939 0
M  V30 17133 H 1593.42 2.4619 1.67912 0
M  V30 17134 H 1590.96 1.22184 0.819108 0
M  V30 17135 H 1592.91 1.41183 3.92585 0
M  V30 17136 H 1591.54 0.546831 3.18135 0
M  V30 17137 H 1590.6 2.86845 2.49848 0
M  V30 17138 H 1591.91 3.61351 3.43841 0
M  V30 17139 H 1591.06 2.51383 5.5217 0
M  V30 17140 H 1589.8 1.66417 4.58428 0
M  V30 17141 H 1588.81 3.8675 3.90774 0
M  V30 17142 H 1590.03 4.72367 4.879 0
M  V30 17143 H 1587.98 2.75388 5.95397 0
M  V30 17144 H 1587.89 4.47969 6.08982 0
M  V30 17145 H 1589.16 3.61493 6.90611 0
M  V30 17146 N 1593.39 -0.872258 1.31261 0
M  V30 17147 C 1594.3 -2.01185 1.20673 0
M  V30 17148 C 1595.32 -1.73558 0.123921 0
M  V30 17149 O 1596.49 -1.98487 0.341288 0
M  V30 17150 C 1593.56 -3.34481 0.91232 0
M  V30 17151 C 1592.62 -3.75446 2.08179 0
M  V30 17152 C 1591.85 -5.02382 1.80134 0
M  V30 17153 O 1592.08 -5.6564 0.735358 0
M  V30 17154 O 1591.01 -5.40059 2.65744 0
M  V30 17155 H 1594.84 -2.13049 2.16434 0
M  V30 17156 H 1592.42 -1.00021 1.10978 0
M  V30 17157 H 1594.3 -4.14419 0.763879 0
M  V30 17158 H 1592.98 -3.23696 -0.0152802 0
M  V30 17159 H 1591.88 -2.96159 2.28562 0
M  V30 17160 H 1593.22 -3.90853 2.99156 0
M  V30 17161 N 1594.87 -1.14184 -1.08627 0
M  V30 17162 C 1595.8 -0.849455 -2.17501 0
M  V30 17163 C 1596.78 0.194617 -1.68983 0
M  V30 17164 O 1597.97 0.0517757 -1.94131 0
M  V30 17165 C 1595.1 -0.323685 -3.45788 0
M  V30 17166 C 1594.05 -1.30294 -4.07685 0
M  V30 17167 C 1593.38 -0.636575 -5.30897 0
M  V30 17168 C 1594.68 -2.66441 -4.49229 0
M  V30 17169 H 1596.37 -1.75987 -2.42217 0
M  V30 17170 H 1593.92 -0.847595 -1.16412 0
M  V30 17171 H 1595.87 -0.106754 -4.21265 0
M  V30 17172 H 1594.59 0.62215 -3.20619 0
M  V30 17173 H 1593.25 -1.50601 -3.34238 0
M  V30 17174 H 1592.9 0.314995 -5.02013 0
M  V30 17175 H 1592.6 -1.28998 -5.73266 0
M  V30 17176 H 1594.12 -0.429117 -6.0909 0
M  V30 17177 H 1595.54 -2.50055 -5.15893 0
M  V30 17178 H 1593.93 -3.28033 -5.02508 0
M  V30 17179 H 1595 -3.23486 -3.61226 0
M  V30 17180 N 1596.35 1.26749 -0.936613 0
M  V30 17181 C 1597.63 1.89106 -0.49981 0
M  V30 17182 C 1598.01 1.84687 1.02244 0
M  V30 17183 O 1597.35 1.2981 1.88047 0
M  V30 17184 C 1597.56 3.32641 -1.05598 0
M  V30 17185 C 1598.91 4.09511 -1.12187 0
M  V30 17186 O 1599.94 3.41692 -1.00624 0
M  V30 17187 O 1598.79 5.30785 -1.30113 0
M  V30 17188 H 1595.89 0.810941 -0.162185 0
M  V30 17189 H 1598.43 1.34952 -1.02888 0
M  V30 17190 H 1597.21 3.30196 -2.09968 0
M  V30 17191 H 1596.83 3.94327 -0.509086 0
M  V30 17192 N 1597.83 0.703118 1.41046 0
M  V30 17193 C 1599.05 0.246552 2.05426 0
M  V30 17194 C 1599.47 -1.10704 1.52938 0
M  V30 17195 O 1598.83 -1.69329 0.680733 0
M  V30 17196 C 1598.88 0.203953 3.60924 0
M  V30 17197 O 1598.6 1.50408 4.11472 0
M  V30 17198 C 1600.1 -0.272686 4.42461 0
M  V30 17199 H 1597.32 0.113157 0.66139 0
M  V30 17200 H 1599.86 0.957823 1.80682 0
M  V30 17201 H 1598.02 -0.458194 3.84681 0
M  V30 17202 H 1598.43 1.39622 5.05575 0
M  V30 17203 H 1599.91 -0.251357 5.51427 0
M  V30 17204 H 1600.38 -1.31282 4.1912 0
M  V30 17205 H 1600.99 0.358733 4.23784 0
M  V30 17206 N 1599.3 -1.51086 0.448402 0
M  V30 17207 C 1600.55 -2.02476 -0.114511 0
M  V30 17208 C 1600.88 -1.33126 -1.4139 0
M  V30 17209 O 1600.16 -0.449665 -1.89231 0
M  V30 17210 C 1600.44 -3.58659 -0.321842 0
M  V30 17211 C 1600.29 -4.38612 0.996975 0
M  V30 17212 C 1601.61 -4.26473 -1.08667 0
M  V30 17213 H 1598.73 -0.735906 -0.0401431 0
M  V30 17214 H 1601.37 -1.80622 0.589563 0
M  V30 17215 H 1599.52 -3.77411 -0.92157 0
M  V30 17216 H 1601.2 -4.31484 1.63154 0
M  V30 17217 H 1599.44 -4.03255 1.599 0
M  V30 17218 H 1600.11 -5.46087 0.805817 0
M  V30 17219 H 1602.59 -4.12058 -0.578559 0
M  V30 17220 H 1601.46 -5.35611 -1.20051 0
M  V30 17221 H 1601.72 -3.88086 -2.11758 0
M  V30 17222 N 1600.78 -0.180154 -1.56567 0
M  V30 17223 C 1602.06 0.509347 -1.88852 0
M  V30 17224 C 1602.44 1.80697 -1.09141 0
M  V30 17225 O 1601.79 2.27726 -0.187974 0
M  V30 17226 C 1602 0.742669 -3.41006 0
M  V30 17227 C 1603.35 1.06873 -4.1093 0
M  V30 17228 O 1604.37 0.830907 -3.46373 0
M  V30 17229 O 1603.23 1.51784 -5.24999 0
M  V30 17230 H 1600.32 0.263629 -0.783855 0
M  V30 17231 H 1602.87 -0.219251 -1.68278 0
M  V30 17232 H 1601.64 -0.17431 -3.90912 0
M  V30 17233 H 1601.26 1.52427 -3.67222 0
M  V30 17234 N 1602.26 1.57322 0.0935319 0
M  V30 17235 C 1603.49 1.90754 0.814111 0
M  V30 17236 C 1603.91 0.774571 1.71412 0
M  V30 17237 O 1603.27 -0.273775 1.79221 0
M  V30 17238 C 1603.32 3.23055 1.60211 0
M  V30 17239 O 1602.42 3.10755 2.71118 0
M  V30 17240 H 1601.76 0.625237 0.223552 0
M  V30 17241 H 1604.29 2.04486 0.068288 0
M  V30 17242 H 1604.3 3.56401 1.986 0
M  V30 17243 H 1602.98 4.05101 0.941607 0
M  V30 17244 H 1601.55 2.88926 2.35745 0
M  V30 17245 N 1603.74 -0.364395 1.53329 0
M  V30 17246 C 1604.67 -1.46893 1.74636 0
M  V30 17247 C 1605.65 -1.51332 0.594757 0
M  V30 17248 O 1606.83 -1.69366 0.827489 0
M  V30 17249 C 1603.96 -2.85249 1.82622 0
M  V30 17250 C 1603.01 -2.98528 3.04603 0
M  V30 17251 S 1603.84 -2.6716 4.64097 0
M  V30 17252 C 1605 -4.07663 4.74933 0
M  V30 17253 H 1605.23 -1.28599 2.68048 0
M  V30 17254 H 1602.76 -0.558804 1.43933 0
M  V30 17255 H 1604.72 -3.64966 1.87909 0
M  V30 17256 H 1603.38 -3.00852 0.9026 0
M  V30 17257 H 1602.57 -3.99859 3.06804 0
M  V30 17258 H 1602.18 -2.26734 2.97435 0
M  V30 17259 H 1604.47 -5.01922 4.55061 0
M  V30 17260 H 1605.41 -4.10466 5.76995 0
M  V30 17261 H 1605.82 -3.94718 4.03557 0
M  V30 17262 N 1605.22 -1.44709 -0.62426 0
M  V30 17263 C 1606.47 -1.47131 -1.37968 0
M  V30 17264 C 1606.78 -0.110507 -1.95288 0
M  V30 17265 O 1607.98 -0.0122892 -2.71497 0
M  V30 17266 C 1606.44 -2.59059 -2.49833 0
M  V30 17267 C 1606.05 -4.01378 -1.98997 0
M  V30 17268 C 1607.79 -2.70709 -3.26981 0
M  V30 17269 C 1605.7 -5.04717 -3.08244 0
M  V30 17270 H 1604.63 -0.547424 -0.5185 0
M  V30 17271 H 1607.28 -1.70797 -0.670863 0
M  V30 17272 H 1605.66 -2.28646 -3.23322 0
M  V30 17273 H 1606.84 -4.41391 -1.32327 0
M  V30 17274 H 1605.15 -3.9403 -1.34644 0
M  V30 17275 H 1607.75 -3.45087 -4.08435 0
M  V30 17276 H 1608.09 -1.76763 -3.76909 0
M  V30 17277 H 1608.62 -3.00566 -2.60585 0
M  V30 17278 H 1605.36 -6.00315 -2.63253 0
M  V30 17279 H 1604.88 -4.6929 -3.73534 0
M  V30 17280 H 1606.56 -5.28725 -3.72906 0
M  V30 17281 N 1606.69 0.865285 -1.31722 0
M  V30 17282 C 1608.11 1.43445 -1.195 0
M  V30 17283 C 1608.46 1.95212 0.196688 0
M  V30 17284 O 1607.58 1.86666 1.09475 0
M  V30 17285 C 1608.18 2.6074 -2.16333 0
M  V30 17286 C 1606.74 3.13688 -2.08031 0
M  V30 17287 C 1605.88 1.86409 -2.05298 0
M  V30 17288 H 1608.83 0.6734 -1.43705 0
M  V30 17289 H 1608.85 3.37575 -1.75566 0
M  V30 17290 H 1608.37 2.23033 -3.17612 0
M  V30 17291 H 1606.47 3.56004 -1.09962 0
M  V30 17292 H 1606.58 3.75653 -2.97358 0
M  V30 17293 H 1604.94 2.05567 -1.50381 0
M  V30 17294 H 1605.73 1.50933 -3.08341 0
M  V30 17295 N 1608.17 1.14759 1.0802 0
M  V30 17296 C 1609.08 0.851934 2.18585 0
M  V30 17297 C 1610.1 -0.16914 1.73176 0
M  V30 17298 O 1611.27 0.00330114 2.014 0
M  V30 17299 C 1608.34 0.337977 3.45049 0
M  V30 17300 C 1607.4 1.4221 4.05061 0
M  V30 17301 C 1606.63 0.932574 5.25489 0
M  V30 17302 O 1606.86 -0.224457 5.69958 0
M  V30 17303 O 1605.79 1.7133 5.77001 0
M  V30 17304 H 1609.62 1.77605 2.46354 0
M  V30 17305 H 1607.2 0.926159 1.17229 0
M  V30 17306 H 1609.08 0.0574734 4.21361 0
M  V30 17307 H 1607.76 -0.558363 3.18848 0
M  V30 17308 H 1606.67 1.75612 3.3032 0
M  V30 17309 H 1608 2.29311 4.3552 0
M  V30 17310 N 1609.65 -1.26251 0.943322 0
M  V30 17311 C 1610.9 -1.93939 0.592909 0
M  V30 17312 C 1611.23 -1.73814 -0.866155 0
M  V30 17313 O 1610.5 -1.07645 -1.61997 0
M  V30 17314 C 1610.79 -3.47653 0.938601 0
M  V30 17315 C 1610.64 -3.77053 2.45257 0
M  V30 17316 C 1611.96 -4.37736 0.455546 0
M  V30 17317 H 1609.08 -0.704367 0.21688 0
M  V30 17318 H 1611.72 -1.4908 1.17793 0
M  V30 17319 H 1609.87 -3.85992 0.440756 0
M  V30 17320 H 1611.54 -3.48417 3.0233 0
M  V30 17321 H 1609.79 -3.23055 2.89513 0
M  V30 17322 H 1610.46 -4.84506 2.64495 0
M  V30 17323 H 1612.93 -4.06635 0.882435 0
M  V30 17324 H 1611.81 -5.44075 0.72623 0
M  V30 17325 H 1612.07 -4.37377 -0.644508 0
M  V30 17326 N 1611.13 -0.710588 -1.40671 0
M  V30 17327 C 1612.38 -0.244967 -2.00207 0
M  V30 17328 C 1612.69 1.16693 -1.56978 0
M  V30 17329 O 1613.9 1.73081 -2.09177 0
M  V30 17330 C 1612.35 -0.387049 -3.57813 0
M  V30 17331 C 1611.96 -1.80527 -4.10017 0
M  V30 17332 C 1613.71 0.0180338 -4.24496 0
M  V30 17333 C 1611.61 -1.89821 -5.60109 0
M  V30 17334 H 1610.54 -0.087831 -0.748867 0
M  V30 17335 H 1613.19 -0.880956 -1.6097 0
M  V30 17336 H 1611.58 0.317442 -3.94726 0
M  V30 17337 H 1612.75 -2.53974 -3.84492 0
M  V30 17338 H 1611.06 -2.16137 -3.55913 0
M  V30 17339 H 1613.66 -0.0307544 -5.34691 0
M  V30 17340 H 1614 1.05915 -4.02601 0
M  V30 17341 H 1614.54 -0.63672 -3.92671 0
M  V30 17342 H 1611.28 -2.92036 -5.86852 0
M  V30 17343 H 1610.8 -1.20779 -5.87514 0
M  V30 17344 H 1612.48 -1.66801 -6.25129 0
M  V30 17345 N 1612.61 1.50847 -0.456408 0
M  V30 17346 C 1613.55 2.28202 0.345341 0
M  V30 17347 C 1614.52 1.32611 1.00017 0
M  V30 17348 O 1615.71 1.61535 1.01543 0
M  V30 17349 C 1612.85 3.14087 1.42981 0
M  V30 17350 C 1611.96 4.24693 0.791217 0
M  V30 17351 C 1611.1 4.97857 1.85234 0
M  V30 17352 C 1610.14 6.00357 1.1932 0
M  V30 17353 N 1609.27 6.66856 2.19652 0
M  V30 17354 H 1614.11 2.9627 -0.320646 0
M  V30 17355 H 1611.65 1.46115 -0.169973 0
M  V30 17356 H 1613.61 3.62222 2.07006 0
M  V30 17357 H 1612.24 2.48095 2.06516 0
M  V30 17358 H 1611.29 3.8038 0.0387694 0
M  V30 17359 H 1612.6 4.98068 0.270177 0
M  V30 17360 H 1611.76 5.49636 2.56875 0
M  V30 17361 H 1610.5 4.24155 2.40715 0
M  V30 17362 H 1609.5 5.47853 0.462341 0
M  V30 17363 H 1610.73 6.76025 0.645473 0
M  V30 17364 H 1608.67 5.95955 2.74178 0
M  V30 17365 H 1608.59 7.36059 1.72492 0
M  V30 17366 H 1609.86 7.23259 2.90719 0
M  V30 17367 N 1614.09 0.188454 1.56469 0
M  V30 17368 C 1615.02 -0.774203 2.14666 0
M  V30 17369 C 1616 -1.21419 1.08149 0
M  V30 17370 O 1617.18 -1.30289 1.36224 0
M  V30 17371 C 1614.31 -2.04474 2.70015 0
M  V30 17372 C 1613.35 -1.74741 3.8906 0
M  V30 17373 S 1614.19 -0.901409 5.27859 0
M  V30 17374 C 1615.34 -2.18223 5.86626 0
M  V30 17375 H 1615.58 -0.279452 2.95984 0
M  V30 17376 H 1613.11 -0.0264561 1.54377 0
M  V30 17377 H 1615.07 -2.77442 3.0255 0
M  V30 17378 H 1613.73 -2.51061 1.88751 0
M  V30 17379 H 1612.92 -2.69055 4.26175 0
M  V30 17380 H 1612.52 -1.09858 3.57501 0
M  V30 17381 H 1614.81 -3.13538 6.00583 0
M  V30 17382 H 1615.76 -1.85551 6.83357 0
M  V30 17383 H 1616.17 -2.30766 5.15177 0
M  V30 17384 N 1615.56 -1.5737 -0.0851874 0
M  V30 17385 C 1616.81 -1.86587 -0.786855 0
M  V30 17386 C 1617.14 -0.778357 -1.78247 0
M  V30 17387 O 1616.39 0.227053 -1.94378 0
M  V30 17388 C 1616.69 -3.22427 -1.54194 0
M  V30 17389 C 1616.36 -4.45627 -0.687542 0
M  V30 17390 C 1615.02 -4.79072 -0.452042 0
M  V30 17391 C 1617.37 -5.21115 -0.094224 0
M  V30 17392 C 1614.7 -5.85426 0.386477 0
M  V30 17393 C 1617.05 -6.28354 0.731673 0
M  V30 17394 C 1615.72 -6.60309 0.977172 0
M  V30 17395 H 1614.99 -0.682772 -0.28793 0
M  V30 17396 H 1617.63 -1.9144 -0.0480218 0
M  V30 17397 H 1615.94 -3.13304 -2.35261 0
M  V30 17398 H 1617.64 -3.42264 -2.08941 0
M  V30 17399 H 1614.23 -4.19443 -0.881212 0
M  V30 17400 H 1618.41 -4.95601 -0.263309 0
M  V30 17401 H 1613.67 -6.08589 0.58556 0
M  V30 17402 H 1617.84 -6.86014 1.19823 0
M  V30 17403 H 1615.47 -7.42548 1.6287 0
M  V30 17404 N 1617.04 0.356258 -1.53521 0
M  V30 17405 C 1617.97 1.45965 -1.75413 0
M  V30 17406 C 1618.95 1.51015 -0.602774 0
M  V30 17407 O 1620.14 1.68925 -0.836459 0
M  V30 17408 C 1617.26 2.84276 -1.84132 0
M  V30 17409 C 1616.31 2.96909 -3.06182 0
M  V30 17410 S 1617.14 2.64695 -4.65507 0
M  V30 17411 C 1618.3 4.05138 -4.77089 0
M  V30 17412 H 1618.53 1.27176 -2.68726 0
M  V30 17413 H 1616.06 0.551163 -1.44227 0
M  V30 17414 H 1618.02 3.63965 -1.89842 0
M  V30 17415 H 1616.68 3.00369 -0.918542 0
M  V30 17416 H 1615.88 3.98226 -3.08921 0
M  V30 17417 H 1615.48 2.25154 -2.98633 0
M  V30 17418 H 1617.77 4.99502 -4.57717 0
M  V30 17419 H 1618.71 4.074 -5.79164 0
M  V30 17420 H 1619.12 3.92572 -4.05644 0
M  V30 17421 N 1618.52 1.45038 0.616577 0
M  V30 17422 C 1619.77 1.48292 1.3731 0
M  V30 17423 C 1620.09 0.122437 1.94615 0
M  V30 17424 O 1619.36 -0.847103 1.76638 0
M  V30 17425 H 1617.94 0.546079 0.509712 0
M  V30 17426 H 1620.6 1.80927 0.724673 0
M  V30 17427 H 1619.7 2.21664 2.19708 0
M  V30 17428 N 1620 -0.858287 1.32179 0
M  V30 17429 C 1621.22 -1.64997 1.25662 0
M  V30 17430 C 1621.65 -1.87303 -0.173021 0
M  V30 17431 O 1621.01 -1.42319 -1.12317 0
M  V30 17432 C 1621.05 -2.98855 2.01787 0
M  V30 17433 O 1620.16 -3.89218 1.36319 0
M  V30 17434 H 1619.5 -0.503169 0.433264 0
M  V30 17435 H 1622.03 -1.06926 1.74436 0
M  V30 17436 H 1622.04 -3.48704 2.11824 0
M  V30 17437 H 1620.71 -2.81941 3.05748 0
M  V30 17438 H 1619.29 -3.4768 1.34807 0
M  V30 17439 N 1621.48 -1.1533 -1.07409 0
M  V30 17440 C 1622.41 -0.872476 -2.16587 0
M  V30 17441 C 1623.39 0.176683 -1.6918 0
M  V30 17442 O 1624.57 0.0311826 -1.94175 0
M  V30 17443 C 1621.7 -0.360342 -3.45426 0
M  V30 17444 C 1620.66 -1.34611 -4.06281 0
M  V30 17445 C 1619.98 -0.692848 -5.30192 0
M  V30 17446 C 1621.28 -2.71191 -4.46378 0
M  V30 17447 H 1622.98 -1.78546 -2.40336 0
M  V30 17448 H 1620.52 -0.859895 -1.15507 0
M  V30 17449 H 1622.47 -0.151429 -4.21128 0
M  V30 17450 H 1621.2 0.588109 -3.21261 0
M  V30 17451 H 1619.86 -1.54137 -3.32622 0
M  V30 17452 H 1619.51 0.261732 -5.02319 0
M  V30 17453 H 1619.21 -1.35071 -5.71865 0
M  V30 17454 H 1620.73 -0.493695 -6.08601 0
M  V30 17455 H 1622.14 -2.55513 -5.13212 0
M  V30 17456 H 1620.54 -3.33345 -4.99 0
M  V30 17457 H 1621.61 -3.273 -3.57775 0
M  V30 17458 N 1622.95 1.25748 -0.950004 0
M  V30 17459 C 1624.2 1.93336 -0.602294 0
M  V30 17460 C 1624.53 1.74454 0.859994 0
M  V30 17461 O 1623.78 1.08032 1.6318 0
M  V30 17462 C 1624.08 3.45843 -0.901521 0
M  V30 17463 C 1623.75 3.84874 -2.3491 0
M  V30 17464 C 1622.41 3.9524 -2.74479 0
M  V30 17465 C 1624.76 4.04286 -3.28941 0
M  V30 17466 C 1622.09 4.22422 -4.07157 0
M  V30 17467 C 1624.44 4.32959 -4.61225 0
M  V30 17468 C 1623.11 4.41541 -5.00597 0
M  V30 17469 H 1622.38 0.707465 -0.220395 0
M  V30 17470 H 1625.02 1.49386 -1.19817 0
M  V30 17471 H 1623.33 3.91164 -0.2232 0
M  V30 17472 H 1625.03 3.96316 -0.611134 0
M  V30 17473 H 1621.62 3.77358 -2.03221 0
M  V30 17474 H 1625.8 3.95697 -2.99563 0
M  V30 17475 H 1621.06 4.27281 -4.37311 0
M  V30 17476 H 1625.23 4.46925 -5.3407 0
M  V30 17477 H 1622.86 4.62358 -6.03431 0
M  V30 17478 N 1624.43 0.718038 1.40292 0
M  V30 17479 C 1625.38 0.0559466 2.32533 0
M  V30 17480 C 1626.37 -0.744365 1.5217 0
M  V30 17481 O 1627.58 -0.647458 1.67952 0
M  V30 17482 H 1623.95 -0.000710627 0.752 0
M  V30 17483 H 1625.93 0.850579 2.8602 0
M  V30 17484 C 1624.67 -0.849927 3.37152 0
M  V30 17485 H 1624 -0.243507 3.99058 0
M  V30 17486 H 1625.44 -1.28111 4.04183 0
M  V30 17487 C 1623.9 -1.9765 2.7283 0
M  V30 17488 O 1624.43 -3.06757 2.59351 0
M  V30 17489 N 1622.63 -1.76086 2.31176 0
M  V30 17490 H 1622.18 -0.873485 2.42339 0
M  V30 17491 H 1622.14 -2.51643 1.88477 0
M  V30 17492 N 1625.91 -1.50602 0.464402 0
M  V30 17493 C 1627.16 -2.02587 -0.0930295 0
M  V30 17494 C 1627.49 -1.34618 -1.3997 0
M  V30 17495 O 1626.76 -0.469711 -1.88743 0
M  V30 17496 C 1627.05 -3.5898 -0.283783 0
M  V30 17497 C 1626.9 -4.3753 1.04344 0
M  V30 17498 C 1628.22 -4.27602 -1.04138 0
M  V30 17499 H 1625.34 -0.73629 -0.0323356 0
M  V30 17500 H 1627.98 -1.79986 0.608687 0
M  V30 17501 H 1626.13 -3.78368 -0.881488 0
M  V30 17502 H 1627.8 -4.29729 1.67721 0
M  V30 17503 H 1626.05 -4.01536 1.64168 0
M  V30 17504 H 1626.72 -5.45201 0.863691 0
M  V30 17505 H 1629.19 -4.12649 -0.534822 0
M  V30 17506 H 1628.07 -5.36854 -1.14364 0
M  V30 17507 H 1628.33 -3.9031 -2.0763 0
M  V30 17508 N 1627.39 -0.19675 -1.56367 0
M  V30 17509 C 1628.64 0.441807 -1.96802 0
M  V30 17510 C 1628.95 1.62645 -1.08656 0
M  V30 17511 O 1630.16 2.33291 -1.3888 0
M  V30 17512 C 1628.61 0.837415 -3.50022 0
M  V30 17513 C 1628.22 -0.323031 -4.46834 0
M  V30 17514 C 1629.96 1.44296 -3.99223 0
M  V30 17515 C 1627.87 0.0936285 -5.91326 0
M  V30 17516 H 1626.8 0.168834 -0.734854 0
M  V30 17517 H 1629.45 -0.289029 -1.81209 0
M  V30 17518 H 1627.83 1.62497 -3.61124 0
M  V30 17519 H 1629.01 -1.10056 -4.47464 0
M  V30 17520 H 1627.32 -0.840182 -4.07836 0
M  V30 17521 H 1629.92 1.76718 -5.04653 0
M  V30 17522 H 1630.26 2.35003 -3.43627 0
M  V30 17523 H 1630.8 0.71935 -3.91242 0
M  V30 17524 H 1627.54 -0.779297 -6.50851 0
M  V30 17525 H 1627.06 0.835984 -5.93946 0
M  V30 17526 H 1628.73 0.528864 -6.44835 0
M  V30 17527 N 1628.87 1.57413 0.0768405 0
M  V30 17528 C 1630.11 1.86633 0.775414 0
M  V30 17529 C 1630.44 0.788041 1.78367 0
M  V30 17530 O 1629.71 -0.183835 1.95036 0
M  V30 17531 H 1628.29 0.688678 0.289365 0
M  V30 17532 H 1630.95 1.94825 0.0541285 0
M  V30 17533 H 1630.04 2.83977 1.29474 0
M  V30 17534 N 1630.34 -0.348112 1.53707 0
M  V30 17535 C 1631.31 -1.41018 1.80683 0
M  V30 17536 C 1632.31 -1.4582 0.67774 0
M  V30 17537 O 1633.5 -1.46275 0.94601 0
M  V30 17538 C 1630.63 -2.79988 1.94473 0
M  V30 17539 H 1631.82 -1.18365 2.75554 0
M  V30 17540 H 1629.38 -0.582244 1.4505 0
M  V30 17541 H 1630.11 -3.07931 1.0173 0
M  V30 17542 H 1629.9 -2.77899 2.76612 0
M  V30 17543 H 1631.39 -3.56868 2.16876 0
M  V30 17544 N 1631.82 -1.45363 -0.608876 0
M  V30 17545 C 1633.06 -1.50852 -1.37925 0
M  V30 17546 C 1633.43 -0.146034 -1.91444 0
M  V30 17547 O 1634.63 -0.0756115 -2.68694 0
M  V30 17548 C 1632.9 -2.55668 -2.49737 0
M  V30 17549 S 1634.46 -2.80371 -3.37546 0
M  V30 17550 H 1631.28 -0.533283 -0.470244 0
M  V30 17551 H 1633.88 -1.82435 -0.702697 0
M  V30 17552 H 1632.58 -3.53334 -2.08767 0
M  V30 17553 H 1632.11 -2.25731 -3.22194 0
M  V30 17554 H 1634.13 -2.13653 -4.47847 0
M  V30 17555 N 1633.3 0.851265 -1.32632 0
M  V30 17556 C 1634.55 1.60057 -1.22738 0
M  V30 17557 C 1634.86 1.94485 0.208525 0
M  V30 17558 O 1636.07 2.68083 0.429361 0
M  V30 17559 C 1634.52 2.88634 -2.14985 0
M  V30 17560 C 1634.13 2.61617 -3.63676 0
M  V30 17561 C 1635.88 3.6665 -2.13935 0
M  V30 17562 C 1633.78 3.86215 -4.47875 0
M  V30 17563 H 1632.71 0.600617 -0.455824 0
M  V30 17564 H 1635.36 0.939671 -1.57615 0
M  V30 17565 H 1633.75 3.56199 -1.73027 0
M  V30 17566 H 1634.92 2.02342 -4.13998 0
M  V30 17567 H 1633.24 1.96926 -3.66891 0
M  V30 17568 H 1635.83 4.59114 -2.74078 0
M  V30 17569 H 1636.18 4.00636 -1.13121 0
M  V30 17570 H 1636.71 3.05993 -2.54192 0
M  V30 17571 H 1633.45 3.57367 -5.49517 0
M  V30 17572 H 1632.97 4.44874 -4.02302 0
M  V30 17573 H 1634.65 4.5392 -4.61049 0
M  V30 17574 N 1634.78 1.15898 1.06796 0
M  V30 17575 C 1636.02 0.938728 1.79766 0
M  V30 17576 C 1636.36 -0.53249 1.86757 0
M  V30 17577 O 1635.63 -1.39492 1.35544 0
M  V30 17578 C 1635.92 1.56062 3.24525 0
M  V30 17579 C 1635.77 3.10283 3.25645 0
M  V30 17580 C 1637.09 1.25108 4.21943 0
M  V30 17581 H 1634.21 0.342451 0.652607 0
M  V30 17582 H 1636.85 1.4315 1.24933 0
M  V30 17583 H 1635 1.14158 3.71349 0
M  V30 17584 H 1636.67 3.61132 2.87021 0
M  V30 17585 H 1634.91 3.43879 2.64443 0
M  V30 17586 H 1635.58 3.48913 4.27743 0
M  V30 17587 H 1638.06 1.61364 3.83537 0
M  V30 17588 H 1636.94 1.7123 5.21509 0
M  V30 17589 H 1637.2 0.169043 4.41777 0
M  V30 17590 N 1636.26 -1.25243 0.956659 0
M  V30 17591 C 1637.51 -1.92312 0.608196 0
M  V30 17592 C 1637.82 -1.75726 -0.859058 0
M  V30 17593 O 1639.02 -2.37386 -1.31757 0
M  V30 17594 C 1637.48 -3.44634 1.03708 0
M  V30 17595 C 1637.09 -3.69927 2.52702 0
M  V30 17596 C 1638.83 -4.17619 0.761242 0
M  V30 17597 C 1636.74 -5.15765 2.8938 0
M  V30 17598 H 1635.67 -0.720033 0.22376 0
M  V30 17599 H 1638.32 -1.42071 1.16138 0
M  V30 17600 H 1636.7 -3.93848 0.412287 0
M  V30 17601 H 1637.88 -3.31357 3.20217 0
M  V30 17602 H 1636.19 -3.10207 2.77778 0
M  V30 17603 H 1638.79 -5.25047 1.01141 0
M  V30 17604 H 1639.13 -4.152 -0.302375 0
M  V30 17605 H 1639.66 -3.74319 1.34648 0
M  V30 17606 H 1636.4 -5.23296 3.94767 0
M  V30 17607 H 1635.92 -5.55374 2.26539 0
M  V30 17608 H 1637.6 -5.83905 2.78683 0
M  V30 17609 N 1637.73 -0.725468 -1.3991 0
M  V30 17610 C 1638.66 -0.094211 -2.3331 0
M  V30 17611 C 1639.65 0.734728 -1.53414 0
M  V30 17612 O 1640.83 0.681647 -1.81844 0
M  V30 17613 C 1637.96 0.820958 -3.37457 0
M  V30 17614 C 1636.91 0.0968983 -4.2789 0
M  V30 17615 C 1636.24 1.12845 -5.22657 0
M  V30 17616 C 1637.54 -1.05483 -5.11537 0
M  V30 17617 H 1639.23 -0.874365 -2.86348 0
M  V30 17618 H 1636.78 -0.421913 -1.3768 0
M  V30 17619 H 1638.73 1.27203 -4.01743 0
M  V30 17620 H 1637.46 1.63312 -2.82837 0
M  V30 17621 H 1636.12 -0.334454 -3.65071 0
M  V30 17622 H 1635.76 1.93392 -4.64337 0
M  V30 17623 H 1635.46 0.648805 -5.84007 0
M  V30 17624 H 1636.99 1.57942 -5.89819 0
M  V30 17625 H 1638.4 -0.682657 -5.69221 0
M  V30 17626 H 1636.8 -1.46349 -5.81981 0
M  V30 17627 H 1637.87 -1.88095 -4.46932 0
M  V30 17628 N 1639.21 1.50354 -0.472382 0
M  V30 17629 C 1640.14 2.3142 0.310995 0
M  V30 17630 C 1641.12 1.38383 0.989151 0
M  V30 17631 O 1642.31 1.67303 0.986074 0
M  V30 17632 C 1639.44 3.18157 1.3926 0
M  V30 17633 C 1638.39 4.19756 0.835977 0
M  V30 17634 C 1637.72 4.9524 2.01597 0
M  V30 17635 C 1639.02 5.22074 -0.15361 0
M  V30 17636 H 1640.71 2.97159 -0.365595 0
M  V30 17637 H 1638.26 1.42905 -0.177266 0
M  V30 17638 H 1640.21 3.73666 1.94813 0
M  V30 17639 H 1638.94 2.50305 2.09798 0
M  V30 17640 H 1637.59 3.65351 0.302414 0
M  V30 17641 H 1637.24 4.2386 2.70836 0
M  V30 17642 H 1636.94 5.63966 1.64974 0
M  V30 17643 H 1638.47 5.53584 2.57637 0
M  V30 17644 H 1639.88 5.72446 0.312783 0
M  V30 17645 H 1638.28 5.98527 -0.43418 0
M  V30 17646 H 1639.35 4.72741 -1.07908 0
M  V30 17647 N 1640.69 0.205039 1.56261 0
M  V30 17648 C 1641.65 -0.698166 2.18308 0
M  V30 17649 C 1642.65 -1.13376 1.14029 0
M  V30 17650 O 1643.84 -1.04524 1.39357 0
M  V30 17651 C 1640.98 -1.95438 2.79315 0
M  V30 17652 H 1642.17 -0.157462 2.99486 0
M  V30 17653 H 1639.72 -0.0445849 1.56236 0
M  V30 17654 H 1640.46 -2.53736 2.01962 0
M  V30 17655 H 1640.24 -1.65068 3.55662 0
M  V30 17656 H 1641.73 -2.59824 3.26927 0
M  V30 17657 N 1642.17 -1.57451 -0.0684915 0
M  V30 17658 C 1643.4 -1.9164 -0.779855 0
M  V30 17659 C 1643.81 -0.801309 -1.70952 0
M  V30 17660 O 1643.17 0.225134 -1.81106 0
M  V30 17661 C 1643.22 -3.25594 -1.57068 0
M  V30 17662 O 1642.94 -4.32816 -0.678385 0
M  V30 17663 C 1644.44 -3.73818 -2.38275 0
M  V30 17664 H 1641.66 -0.633374 -0.221537 0
M  V30 17665 H 1644.21 -2.04465 -0.0377746 0
M  V30 17666 H 1642.36 -3.14287 -2.26501 0
M  V30 17667 H 1642.78 -5.09903 -1.22877 0
M  V30 17668 H 1644.25 -4.70168 -2.89216 0
M  V30 17669 H 1644.73 -3.02995 -3.17947 0
M  V30 17670 H 1645.33 -3.88081 -1.73992 0
M  V30 17671 N 1643.65 0.339955 -1.5389 0
M  V30 17672 C 1645.06 0.915362 -1.62721 0
M  V30 17673 C 1645.41 1.89434 -0.510798 0
M  V30 17674 O 1644.53 2.13403 0.3589 0
M  V30 17675 C 1645.13 1.66699 -2.94953 0
M  V30 17676 C 1643.69 2.19135 -3.06034 0
M  V30 17677 C 1642.84 1.01159 -2.5819 0
M  V30 17678 H 1645.79 0.11799 -1.58261 0
M  V30 17679 H 1645.81 2.53011 -2.84193 0
M  V30 17680 H 1645.32 0.954219 -3.76186 0
M  V30 17681 H 1643.42 2.93577 -2.29441 0
M  V30 17682 H 1643.53 2.4526 -4.11563 0
M  V30 17683 H 1641.9 1.38604 -2.13685 0
M  V30 17684 H 1642.68 0.313396 -3.41867 0
M  V30 17685 N 1645.13 1.45684 0.601159 0
M  V30 17686 C 1646.37 1.49308 1.3561 0
M  V30 17687 C 1646.69 0.141561 1.95087 0
M  V30 17688 O 1647.89 0.0554805 2.71443 0
M  V30 17689 C 1646.35 2.63001 2.4568 0
M  V30 17690 C 1645.96 4.04493 1.92586 0
M  V30 17691 C 1647.7 2.75877 3.22633 0
M  V30 17692 C 1645.61 5.09557 3.00176 0
M  V30 17693 H 1644.54 0.555604 0.509726 0
M  V30 17694 H 1647.19 1.71843 0.643606 0
M  V30 17695 H 1645.57 2.33761 3.19643 0
M  V30 17696 H 1646.75 4.4344 1.25289 0
M  V30 17697 H 1645.06 3.96123 1.28358 0
M  V30 17698 H 1647.66 3.51541 4.02893 0
M  V30 17699 H 1648 1.82737 3.74049 0
M  V30 17700 H 1648.53 3.04674 2.5577 0
M  V30 17701 H 1645.27 6.04427 2.53669 0
M  V30 17702 H 1644.79 4.75173 3.6602 0
M  V30 17703 H 1646.47 5.34591 3.64447 0
M  V30 17704 N 1646.6 -0.84422 1.33082 0
M  V30 17705 C 1647.57 -1.93519 1.22813 0
M  V30 17706 C 1648.57 -1.60113 0.148516 0
M  V30 17707 O 1649.76 -1.69553 0.399668 0
M  V30 17708 C 1646.89 -3.29045 0.891179 0
M  V30 17709 H 1648.08 -2.04051 2.1978 0
M  V30 17710 H 1645.63 -1.03567 1.17063 0
M  V30 17711 H 1646.37 -3.2421 -0.0762276 0
M  V30 17712 H 1646.15 -3.54671 1.67186 0
M  V30 17713 H 1647.64 -4.08984 0.843932 0
M  V30 17714 N 1648.08 -1.16463 -1.0618 0
M  V30 17715 C 1649.04 -0.874674 -2.11854 0
M  V30 17716 C 1650.04 0.130829 -1.60267 0
M  V30 17717 O 1651.23 -0.100195 -1.73912 0
M  V30 17718 C 1648.37 -0.30826 -3.39503 0
M  V30 17719 H 1649.56 -1.81149 -2.39009 0
M  V30 17720 H 1647.11 -0.973721 -1.22264 0
M  V30 17721 H 1647.85 0.636181 -3.17999 0
M  V30 17722 H 1647.63 -1.03281 -3.78253 0
M  V30 17723 H 1649.12 -0.123378 -4.17418 0
M  V30 17724 N 1649.56 1.24734 -0.963288 0
M  V30 17725 C 1650.81 1.91987 -0.618386 0
M  V30 17726 C 1651.12 1.76179 0.849726 0
M  V30 17727 O 1652.33 2.38082 1.30496 0
M  V30 17728 C 1650.78 3.44079 -1.05534 0
M  V30 17729 C 1650.39 3.68582 -2.5466 0
M  V30 17730 C 1652.14 4.17209 -0.783378 0
M  V30 17731 C 1650.04 5.14223 -2.92111 0
M  V30 17732 H 1648.97 0.718836 -0.227575 0
M  V30 17733 H 1651.62 1.41453 -1.1689 0
M  V30 17734 H 1650.01 3.93624 -0.433168 0
M  V30 17735 H 1651.18 3.29655 -3.2197 0
M  V30 17736 H 1649.49 3.08729 -2.79419 0
M  V30 17737 H 1652.09 5.24503 -1.03924 0
M  V30 17738 H 1652.43 4.15355 0.280352 0
M  V30 17739 H 1652.97 3.736 -1.36631 0
M  V30 17740 H 1649.71 5.21195 -3.97537 0
M  V30 17741 H 1649.23 5.54164 -2.29482 0
M  V30 17742 H 1650.91 5.82419 -2.81775 0
M  V30 17743 N 1651.04 0.732878 1.39523 0
M  V30 17744 C 1652.29 0.276787 1.99792 0
M  V30 17745 C 1652.6 -1.14181 1.58814 0
M  V30 17746 O 1653.81 -1.69731 2.11905 0
M  V30 17747 C 1652.26 0.443924 3.57152 0
M  V30 17748 C 1651.87 1.87027 4.07093 0
M  V30 17749 C 1653.61 0.0495022 4.24471 0
M  V30 17750 C 1651.52 1.98708 5.57018 0
M  V30 17751 H 1650.45 0.0997337 0.747375 0
M  V30 17752 H 1653.1 0.906454 1.59548 0
M  V30 17753 H 1651.48 -0.254605 3.95181 0
M  V30 17754 H 1652.66 2.60059 3.80403 0
M  V30 17755 H 1650.97 2.21772 3.52429 0
M  V30 17756 H 1653.57 0.115815 5.34575 0
M  V30 17757 H 1653.91 -0.994967 4.04235 0
M  V30 17758 H 1654.45 0.69911 3.91609 0
M  V30 17759 H 1651.18 3.01336 5.82131 0
M  V30 17760 H 1650.7 1.30111 5.85518 0
M  V30 17761 H 1652.38 1.76725 6.22396 0
M  V30 17762 N 1652.52 -1.50101 0.480349 0
M  V30 17763 C 1653.76 -2.01567 -0.073165 0
M  V30 17764 C 1654.08 -1.36657 -1.39944 0
M  V30 17765 O 1655.28 -1.79332 -2.03844 0
M  V30 17766 C 1653.74 -3.59445 -0.180889 0
M  V30 17767 C 1653.35 -4.33318 1.1375 0
M  V30 17768 C 1655.09 -4.18923 -0.685868 0
M  V30 17769 C 1653 -5.83003 0.99307 0
M  V30 17770 H 1651.93 -0.753358 -0.0311179 0
M  V30 17771 H 1654.58 -1.72829 0.616648 0
M  V30 17772 H 1652.96 -3.84811 -0.934693 0
M  V30 17773 H 1654.14 -4.1967 1.90299 0
M  V30 17774 H 1652.45 -3.85492 1.57431 0
M  V30 17775 H 1655.05 -5.28512 -0.811109 0
M  V30 17776 H 1655.39 -3.80916 -1.67955 0
M  V30 17777 H 1655.92 -3.97799 0.0108117 0
M  V30 17778 H 1652.66 -6.25499 1.9604 0
M  V30 17779 H 1652.18 -5.992 0.268128 0
M  V30 17780 H 1653.86 -6.4359 0.663417 0
M  V30 17781 N 1653.99 -0.213323 -1.5615 0
M  V30 17782 C 1655.4 0.29602 -1.84338 0
M  V30 17783 C 1655.76 1.60073 -1.13451 0
M  V30 17784 O 1654.88 2.12645 -0.4014 0
M  V30 17785 C 1655.48 0.54387 -3.34406 0
M  V30 17786 C 1654.03 0.997539 -3.62941 0
M  V30 17787 C 1653.18 0.0560823 -2.77243 0
M  V30 17788 H 1656.13 -0.436707 -1.52573 0
M  V30 17789 H 1656.15 1.39093 -3.54166 0
M  V30 17790 H 1655.67 -0.405885 -3.85972 0
M  V30 17791 H 1653.77 1.96094 -3.16825 0
M  V30 17792 H 1653.88 0.877642 -4.70993 0
M  V30 17793 H 1652.24 0.561362 -2.48437 0
M  V30 17794 H 1653.03 -0.888442 -3.31605 0
M  V30 17795 N 1655.47 1.57485 0.0601405 0
M  V30 17796 C 1656.88 1.76433 0.610583 0
M  V30 17797 C 1657.23 0.840353 1.77292 0
M  V30 17798 O 1656.36 0.0273238 2.16383 0
M  V30 17799 C 1656.95 3.19947 1.11441 0
M  V30 17800 C 1655.51 3.402 1.61062 0
M  V30 17801 C 1654.66 2.72089 0.535055 0
M  V30 17802 H 1657.61 1.57829 -0.166062 0
M  V30 17803 H 1657.63 3.24749 1.98288 0
M  V30 17804 H 1657.14 3.87172 0.268233 0
M  V30 17805 H 1655.25 2.78106 2.47967 0
M  V30 17806 H 1655.36 4.48696 1.67954 0
M  V30 17807 H 1653.72 2.34972 0.982855 0
M  V30 17808 H 1654.51 3.41977 -0.301135 0
M  V30 17809 N 1656.95 -0.331789 1.54068 0
M  V30 17810 C 1657.88 -1.41332 1.8587 0
M  V30 17811 C 1658.86 -1.54353 0.714787 0
M  V30 17812 O 1660.05 -1.68368 0.967777 0
M  V30 17813 C 1657.18 -2.78218 2.07875 0
M  V30 17814 C 1656.13 -2.79994 3.23709 0
M  V30 17815 C 1655.46 -4.19878 3.31069 0
M  V30 17816 C 1656.76 -2.44476 4.6155 0
M  V30 17817 H 1658.45 -1.14966 2.76447 0
M  V30 17818 H 1656 -0.551615 1.33016 0
M  V30 17819 H 1657.95 -3.53937 2.28706 0
M  V30 17820 H 1656.67 -3.06044 1.14038 0
M  V30 17821 H 1655.33 -2.0673 3.02751 0
M  V30 17822 H 1654.98 -4.44831 2.34807 0
M  V30 17823 H 1654.68 -4.21974 4.08915 0
M  V30 17824 H 1656.2 -4.97421 3.54125 0
M  V30 17825 H 1657.62 -3.09908 4.82317 0
M  V30 17826 H 1656.02 -2.57837 5.41886 0
M  V30 17827 H 1657.09 -1.3964 4.64358 0
M  V30 17828 N 1658.43 -1.46001 -0.593424 0
M  V30 17829 C 1659.68 -1.50457 -1.34933 0
M  V30 17830 C 1660 -0.153383 -1.94396 0
M  V30 17831 O 1659.27 0.818894 -1.77963 0
M  V30 17832 H 1657.85 -0.554119 -0.50096 0
M  V30 17833 H 1660.51 -1.82057 -0.695798 0
M  V30 17834 H 1659.61 -2.25131 -2.16154 0
M  V30 17835 N 1659.91 0.83715 -1.33527 0
M  V30 17836 C 1660.84 1.96231 -1.26553 0
M  V30 17837 C 1661.82 1.69474 -0.14576 0
M  V30 17838 O 1663 1.91274 -0.335815 0
M  V30 17839 C 1660.13 3.32419 -1.00574 0
M  V30 17840 C 1659.09 3.73577 -2.08864 0
M  V30 17841 C 1658.41 5.07591 -1.68095 0
M  V30 17842 C 1659.71 3.87179 -3.50556 0
M  V30 17843 H 1661.41 2.02324 -2.20693 0
M  V30 17844 H 1658.95 0.972038 -1.06242 0
M  V30 17845 H 1660.91 4.10703 -0.943439 0
M  V30 17846 H 1659.63 3.26587 -0.0287268 0
M  V30 17847 H 1658.29 2.97557 -2.14139 0
M  V30 17848 H 1657.94 4.98232 -0.690922 0
M  V30 17849 H 1657.64 5.361 -2.40563 0
M  V30 17850 H 1659.16 5.88349 -1.63334 0
M  V30 17851 H 1660.57 4.55771 -3.47772 0
M  V30 17852 H 1658.97 4.27127 -4.21524 0
M  V30 17853 H 1660.04 2.8958 -3.88936 0
M  V30 17854 N 1661.38 1.17024 1.05561 0
M  V30 17855 C 1662.63 0.950769 1.77886 0
M  V30 17856 C 1662.95 -0.522005 1.88506 0
M  V30 17857 O 1664.15 -0.859582 2.57533 0
M  V30 17858 C 1662.61 1.65189 3.19751 0
M  V30 17859 C 1662.22 3.16294 3.17273 0
M  V30 17860 C 1663.96 1.51466 3.96558 0
M  V30 17861 C 1661.87 3.79111 4.53904 0
M  V30 17862 H 1660.8 0.352089 0.666745 0
M  V30 17863 H 1663.45 1.40237 1.18346 0
M  V30 17864 H 1661.83 1.12801 3.79594 0
M  V30 17865 H 1663 3.75585 2.66969 0
M  V30 17866 H 1661.32 3.29986 2.53966 0
M  V30 17867 H 1663.92 1.95772 4.97571 0
M  V30 17868 H 1664.26 0.46467 4.13699 0
M  V30 17869 H 1664.79 2.0105 3.43254 0
M  V30 17870 H 1661.53 4.84091 4.41969 0
M  V30 17871 H 1661.05 3.24606 5.04372 0
M  V30 17872 H 1662.73 3.81099 5.2285 0
M  V30 17873 N 1662.86 -1.24221 0.969889 0
M  V30 17874 C 1664.09 -1.96118 0.649715 0
M  V30 17875 C 1664.5 -1.72127 -0.785436 0
M  V30 17876 O 1663.84 -1.00319 -1.53889 0
M  V30 17877 C 1663.91 -3.49374 0.847236 0
M  V30 17878 C 1663.57 -3.97067 2.26244 0
M  V30 17879 C 1664.57 -4.06568 3.24034 0
M  V30 17880 C 1662.25 -4.30333 2.59072 0
M  V30 17881 C 1664.25 -4.48672 4.52738 0
M  V30 17882 C 1661.93 -4.72121 3.88001 0
M  V30 17883 C 1662.93 -4.81256 4.84646 0
M  V30 17884 O 1662.62 -5.22109 6.11275 0
M  V30 17885 H 1662.35 -0.63149 0.24124 0
M  V30 17886 H 1664.9 -1.58948 1.30095 0
M  V30 17887 H 1663.13 -3.86451 0.138828 0
M  V30 17888 H 1664.82 -4.0248 0.525817 0
M  V30 17889 H 1665.59 -3.81083 3.00002 0
M  V30 17890 H 1661.47 -4.22441 1.84565 0
M  V30 17891 H 1665.01 -4.55717 5.28174 0
M  V30 17892 H 1660.91 -4.97054 4.11834 0
M  V30 17893 H 1661.68 -5.40252 6.14874 0
M  V30 17894 N 1664.34 -0.740267 -1.39132 0
M  V30 17895 C 1665.59 -0.290523 -2.00405 0
M  V30 17896 C 1665.92 1.12383 -1.58746 0
M  V30 17897 O 1665.17 1.78148 -0.81005 0
M  V30 17898 C 1665.47 -0.346009 -3.55721 0
M  V30 17899 C 1665.14 -1.71412 -4.17048 0
M  V30 17900 C 1663.8 -2.08857 -4.33512 0
M  V30 17901 C 1666.15 -2.61216 -4.51016 0
M  V30 17902 C 1663.48 -3.35603 -4.81235 0
M  V30 17903 C 1665.83 -3.8734 -5.0015 0
M  V30 17904 C 1664.49 -4.2487 -5.14822 0
M  V30 17905 H 1663.76 -0.10631 -0.733334 0
M  V30 17906 H 1666.41 -0.948141 -1.66381 0
M  V30 17907 H 1664.72 0.395183 -3.89802 0
M  V30 17908 H 1666.41 0.020191 -4.00995 0
M  V30 17909 H 1663 -1.41301 -4.04638 0
M  V30 17910 H 1667.19 -2.33556 -4.3791 0
M  V30 17911 H 1662.44 -3.64617 -4.90779 0
M  V30 17912 H 1666.62 -4.57079 -5.25406 0
M  V30 17913 H 1664.24 -5.23147 -5.51562 0
M  V30 17914 N 1665.82 1.49844 -0.488302 0
M  V30 17915 C 1667.07 2.02409 0.0606981 0
M  V30 17916 C 1667.39 1.36901 1.38161 0
M  V30 17917 O 1666.65 0.48951 1.89479 0
M  V30 17918 C 1666.95 3.56342 0.274851 0
M  V30 17919 C 1666.61 4.4042 -0.966481 0
M  V30 17920 C 1665.28 4.63116 -1.30678 0
M  V30 17921 C 1667.63 4.89418 -1.79218 0
M  V30 17922 C 1664.96 5.32055 -2.47253 0
M  V30 17923 C 1667.31 5.59639 -2.94935 0
M  V30 17924 C 1665.97 5.80584 -3.2936 0
M  V30 17925 H 1665.24 0.740667 0.022211 0
M  V30 17926 H 1667.89 1.80279 -0.645882 0
M  V30 17927 H 1666.19 3.7708 1.06384 0
M  V30 17928 H 1667.89 3.94594 0.71388 0
M  V30 17929 H 1664.48 4.22987 -0.691388 0
M  V30 17930 H 1668.66 4.71723 -1.54244 0
M  V30 17931 H 1663.92 5.46477 -2.74177 0
M  V30 17932 H 1668.09 5.96583 -3.59251 0
M  V30 17933 H 1665.72 6.33779 -4.19795 0
M  V30 17934 N 1667.3 0.221601 1.56034 0
M  V30 17935 C 1668.54 -0.410695 1.98598 0
M  V30 17936 C 1668.88 -1.59412 1.10912 0
M  V30 17937 O 1668.15 -1.93783 0.166819 0
M  V30 17938 C 1668.43 -0.845199 3.50041 0
M  V30 17939 C 1668.29 0.341866 4.48499 0
M  V30 17940 C 1669.61 -1.70135 4.05884 0
M  V30 17941 H 1666.72 -0.147808 0.722026 0
M  V30 17942 H 1669.37 0.317846 1.87323 0
M  V30 17943 H 1667.52 -1.46597 3.5978 0
M  V30 17944 H 1669.19 0.980014 4.5077 0
M  V30 17945 H 1667.43 0.989294 4.22369 0
M  V30 17946 H 1668.1 -0.00509234 5.52 0
M  V30 17947 H 1670.58 -1.17757 3.9909 0
M  V30 17948 H 1669.45 -1.97427 5.12166 0
M  V30 17949 H 1669.72 -2.66469 3.5277 0
M  V30 17950 N 1668.77 -1.57515 -0.0517878 0
M  V30 17951 C 1669.71 -2.01812 -1.08649 0
M  V30 17952 C 1670.72 -0.92719 -1.33817 0
M  V30 17953 O 1671.91 -1.20483 -1.31705 0
M  V30 17954 C 1669.01 -2.35903 -2.43316 0
M  V30 17955 C 1668.18 -3.67095 -2.37824 0
M  V30 17956 C 1667.24 -3.8863 -3.54758 0
M  V30 17957 O 1666.27 -4.59974 -3.3528 0
M  V30 17958 N 1667.47 -3.32516 -4.75829 0
M  V30 17959 H 1670.23 -2.91191 -0.709094 0
M  V30 17960 H 1667.79 -1.60109 -0.240125 0
M  V30 17961 H 1669.79 -2.47466 -3.20223 0
M  V30 17962 H 1668.36 -1.52312 -2.72983 0
M  V30 17963 H 1667.58 -3.66099 -1.46168 0
M  V30 17964 H 1668.86 -4.53199 -2.31275 0
M  V30 17965 H 1668.26 -2.74645 -4.94557 0
M  V30 17966 H 1666.82 -3.49496 -5.50178 0
M  V30 17967 N 1670.25 0.323614 -1.54242 0
M  V30 17968 C 1671.67 0.66795 -1.4495 0
M  V30 17969 C 1671.87 1.91649 -0.622338 0
M  V30 17970 O 1670.93 2.52209 -0.121119 0
M  V30 17971 C 1672.24 0.842006 -2.88671 0
M  V30 17972 C 1673.79 0.93935 -2.98572 0
M  V30 17973 C 1674.26 1.14557 -4.43442 0
M  V30 17974 N 1675.75 1.21231 -4.47054 0
M  V30 17975 C 1676.49 1.38976 -5.56303 0
M  V30 17976 N 1675.98 1.53764 -6.75521 0
M  V30 17977 N 1677.78 1.41684 -5.4395 0
M  V30 17978 H 1669.93 -0.497017 -2.06503 0
M  V30 17979 H 1672.19 -0.160563 -0.934304 0
M  V30 17980 H 1671.9 -0.00418568 -3.517 0
M  V30 17981 H 1671.77 1.73785 -3.34782 0
M  V30 17982 H 1674.16 1.77605 -2.35671 0
M  V30 17983 H 1674.24 0.0199775 -2.55792 0
M  V30 17984 H 1673.88 0.313732 -5.0693 0
M  V30 17985 H 1673.81 2.07882 -4.83831 0
M  V30 17986 H 1676.3 1.11247 -3.61154 0
M  V30 17987 H 1676.62 1.66996 -7.54541 0
M  V30 17988 H 1674.96 1.50862 -6.78429 0
M  V30 17989 H 1678.15 1.29726 -4.49765 0
M  V30 17990 H 1678.33 1.5517 -6.29147 0
M  V30 17991 N 1671.73 1.46313 0.585673 0
M  V30 17992 C 1672.98 1.5147 1.34399 0
M  V30 17993 C 1673.31 0.165209 1.93797 0
M  V30 17994 O 1672.56 -0.838796 1.76813 0
M  V30 17995 C 1672.86 2.55895 2.49504 0
M  V30 17996 C 1672.53 3.99997 2.08118 0
M  V30 17997 C 1671.19 4.3923 1.96545 0
M  V30 17998 C 1673.54 4.90532 1.76147 0
M  V30 17999 C 1670.87 5.66867 1.51256 0
M  V30 18000 C 1673.22 6.18603 1.32338 0
M  V30 18001 C 1671.88 6.56745 1.1934 0
M  V30 18002 H 1671.15 0.554268 0.491801 0
M  V30 18003 H 1673.8 1.79774 0.659803 0
M  V30 18004 H 1672.11 2.21241 3.23357 0
M  V30 18005 H 1673.8 2.57116 3.07722 0
M  V30 18006 H 1670.39 3.68983 2.18058 0
M  V30 18007 H 1674.58 4.60942 1.83974 0
M  V30 18008 H 1669.83 5.95194 1.39834 0
M  V30 18009 H 1674.01 6.88185 1.06653 0
M  V30 18010 H 1671.63 7.55542 0.840228 0
M  V30 18011 N 1673.21 -0.830057 1.33969 0
M  V30 18012 C 1674.44 -1.61539 1.28797 0
M  V30 18013 C 1674.85 -1.8867 -0.14158 0
M  V30 18014 O 1674.19 -1.47356 -1.0969 0
M  V30 18015 C 1674.25 -2.98503 2.0034 0
M  V30 18016 C 1673.92 -2.94302 3.49622 0
M  V30 18017 C 1674.91 -2.69391 4.44662 0
M  V30 18018 C 1672.6 -3.14159 3.9193 0
M  V30 18019 C 1674.59 -2.64379 5.79985 0
M  V30 18020 C 1672.28 -3.08772 5.27355 0
M  V30 18021 C 1673.28 -2.83914 6.21194 0
M  V30 18022 O 1672.97 -2.78446 7.54137 0
M  V30 18023 H 1672.7 -0.509067 0.444777 0
M  V30 18024 H 1675.25 -1.04137 1.77044 0
M  V30 18025 H 1673.48 -3.57795 1.46697 0
M  V30 18026 H 1675.17 -3.59449 1.88551 0
M  V30 18027 H 1675.94 -2.53792 4.13298 0
M  V30 18028 H 1671.82 -3.32526 3.19293 0
M  V30 18029 H 1675.36 -2.44896 6.53201 0
M  V30 18030 H 1671.26 -3.23922 5.58341 0
M  V30 18031 H 1672.02 -2.94224 7.63789 0
M  V30 18032 N 1674.69 -1.17582 -1.04939 0
M  V30 18033 C 1675.93 -0.967208 -1.7825 0
M  V30 18034 C 1676.27 0.502711 -1.87581 0
M  V30 18035 O 1675.54 1.37318 -1.37746 0
M  V30 18036 C 1675.82 -1.61205 -3.22001 0
M  V30 18037 C 1675.68 -3.15424 -3.20667 0
M  V30 18038 C 1677 -1.31804 -4.199 0
M  V30 18039 H 1674.12 -0.35279 -0.647077 0
M  V30 18040 H 1676.76 -1.45119 -1.2264 0
M  V30 18041 H 1674.91 -1.20052 -3.69486 0
M  V30 18042 H 1676.58 -3.65653 -2.8124 0
M  V30 18043 H 1674.82 -3.48042 -2.58938 0
M  V30 18044 H 1675.49 -3.55674 -4.22138 0
M  V30 18045 H 1677.97 -1.67446 -3.80921 0
M  V30 18046 H 1676.85 -1.79505 -5.18719 0
M  V30 18047 H 1677.11 -0.239304 -4.41452 0
M  V30 18048 N 1676.17 1.23705 -0.976463 0
M  V30 18049 C 1677.13 2.23257 -0.518533 0
M  V30 18050 C 1678.13 1.56006 0.3897 0
M  V30 18051 O 1679.32 1.73226 0.18394 0
M  V30 18052 C 1676.45 3.39997 0.247916 0
M  V30 18053 H 1677.64 2.65284 -1.39872 0
M  V30 18054 H 1675.2 1.3647 -0.761946 0
M  V30 18055 H 1675.93 3.03421 1.14482 0
M  V30 18056 H 1675.72 3.90013 -0.403975 0
M  V30 18057 H 1677.21 4.13868 0.557034 0
M  V30 18058 N 1677.64 0.747635 1.38738 0
M  V30 18059 C 1678.87 0.310484 2.05063 0
M  V30 18060 C 1679.29 -1.05078 1.56013 0
M  V30 18061 O 1678.65 -1.66842 0.709461 0
M  V30 18062 C 1678.7 0.335837 3.59033 0
M  V30 18063 O 1677.8 -0.672218 4.06884 0
M  V30 18064 H 1677.14 0.138591 0.649375 0
M  V30 18065 H 1679.67 1.01709 1.77529 0
M  V30 18066 H 1679.68 0.184631 4.07582 0
M  V30 18067 H 1678.36 1.32906 3.94092 0
M  V30 18068 H 1676.94 -0.486112 3.69718 0
M  V30 18069 N 1679.12 -1.49583 0.496242 0
M  V30 18070 C 1680.35 -2.07342 -0.0490986 0
M  V30 18071 C 1680.77 -1.35474 -1.30493 0
M  V30 18072 O 1680.13 -0.410005 -1.76603 0
M  V30 18073 C 1680.18 -3.59427 -0.290601 0
M  V30 18074 O 1679.28 -3.89111 -1.36626 0
M  V30 18075 H 1678.62 -0.663562 0.0241141 0
M  V30 18076 H 1681.15 -1.92452 0.6945 0
M  V30 18077 H 1681.16 -4.04627 -0.523549 0
M  V30 18078 H 1679.84 -4.11147 0.626959 0
M  V30 18079 H 1678.41 -3.55726 -1.11864 0
M  V30 18080 N 1680.6 -0.229873 -1.55915 0
M  V30 18081 C 1682.02 0.125347 -1.59107 0
M  V30 18082 C 1682.22 1.58293 -1.24682 0
M  V30 18083 O 1681.27 2.32452 -0.986018 0
M  V30 18084 C 1682.58 -0.208461 -2.99977 0
M  V30 18085 C 1684.13 -0.151373 -3.12634 0
M  V30 18086 C 1684.61 -0.458972 -4.55694 0
M  V30 18087 N 1686.1 -0.408847 -4.61392 0
M  V30 18088 C 1686.83 -0.620239 -5.70036 0
M  V30 18089 N 1686.33 -0.893851 -6.8701 0
M  V30 18090 N 1688.12 -0.552107 -5.59382 0
M  V30 18091 H 1680.27 -1.18062 -1.76565 0
M  V30 18092 H 1682.54 -0.473821 -0.821095 0
M  V30 18093 H 1682.24 -1.22043 -3.29846 0
M  V30 18094 H 1682.12 0.472591 -3.74228 0
M  V30 18095 H 1684.5 0.851249 -2.82556 0
M  V30 18096 H 1684.58 -0.866024 -2.40694 0
M  V30 18097 H 1684.23 -1.45907 -4.86491 0
M  V30 18098 H 1684.16 0.276965 -5.25871 0
M  V30 18099 H 1686.65 -0.205404 -3.77341 0
M  V30 18100 H 1686.96 -1.04303 -7.65729 0
M  V30 18101 H 1685.31 -0.931138 -6.88734 0
M  V30 18102 H 1688.5 -0.338518 -4.66874 0
M  V30 18103 H 1688.67 -0.720256 -6.43985 0
M  V30 18104 N 1682.08 1.5754 0.0434337 0
M  V30 18105 C 1683.01 2.02385 1.07577 0
M  V30 18106 C 1684.02 0.934273 1.33324 0
M  V30 18107 O 1685.21 1.2118 1.31064 0
M  V30 18108 C 1682.31 2.3719 2.42062 0
M  V30 18109 C 1681.48 3.68351 2.35874 0
M  V30 18110 C 1680.54 3.90506 3.52692 0
M  V30 18111 O 1679.57 4.61746 3.32836 0
M  V30 18112 N 1680.77 3.35035 4.74059 0
M  V30 18113 H 1683.54 2.91563 0.693641 0
M  V30 18114 H 1681.1 1.60234 0.231631 0
M  V30 18115 H 1683.09 2.49161 3.18906 0
M  V30 18116 H 1681.66 1.53758 2.72171 0
M  V30 18117 H 1680.88 3.66869 1.44224 0
M  V30 18118 H 1682.17 4.54419 2.28868 0
M  V30 18119 H 1681.57 2.77264 4.93094 0
M  V30 18120 H 1680.12 3.52409 5.48317 0
M  V30 18121 N 1683.56 -0.31543 1.54411 0
M  V30 18122 C 1684.49 -1.39353 1.87358 0
M  V30 18123 C 1685.47 -1.53586 0.731118 0
M  V30 18124 O 1686.65 -1.67332 0.98558 0
M  V30 18125 C 1683.78 -2.75998 2.10814 0
M  V30 18126 C 1682.74 -2.76545 3.2666 0
M  V30 18127 C 1682.06 -4.16343 3.35504 0
M  V30 18128 C 1683.36 -2.39567 4.64117 0
M  V30 18129 H 1685.06 -1.12028 2.77651 0
M  V30 18130 H 1682.6 -0.537476 1.33593 0
M  V30 18131 H 1684.55 -3.51491 2.32447 0
M  V30 18132 H 1683.28 -3.04817 1.17278 0
M  V30 18133 H 1681.94 -2.03507 3.04927 0
M  V30 18134 H 1681.59 -4.42316 2.39512 0
M  V30 18135 H 1681.29 -4.17613 4.13368 0
M  V30 18136 H 1682.81 -4.93637 3.59381 0
M  V30 18137 H 1684.22 -3.04775 4.85577 0
M  V30 18138 H 1682.62 -2.52075 5.4459 0
M  V30 18139 H 1683.69 -1.34707 4.65813 0
M  V30 18140 N 1685.03 -1.46622 -0.577906 0
M  V30 18141 C 1685.98 -1.57549 -1.68662 0
M  V30 18142 C 1686.95 -0.419536 -1.60714 0
M  V30 18143 O 1688.14 -0.636916 -1.79856 0
M  V30 18144 C 1685.28 -1.57627 -3.06998 0
M  V30 18145 C 1684.39 -2.83991 -3.25535 0
M  V30 18146 C 1683.52 -2.75541 -4.54148 0
M  V30 18147 C 1682.56 -3.96823 -4.66045 0
M  V30 18148 N 1681.7 -3.86731 -5.8599 0
M  V30 18149 H 1686.54 -2.52252 -1.58659 0
M  V30 18150 H 1684.08 -1.2514 -0.773195 0
M  V30 18151 H 1686.04 -1.55657 -3.87075 0
M  V30 18152 H 1684.67 -0.664527 -3.15886 0
M  V30 18153 H 1683.72 -2.9592 -2.3903 0
M  V30 18154 H 1685.03 -3.73864 -3.30193 0
M  V30 18155 H 1684.18 -2.71703 -5.42459 0
M  V30 18156 H 1682.92 -1.83317 -4.51936 0
M  V30 18157 H 1681.93 -4.00987 -3.76151 0
M  V30 18158 H 1683.15 -4.90149 -4.70033 0
M  V30 18159 H 1681.1 -2.97296 -5.84766 0
M  V30 18160 H 1681.02 -4.70263 -5.91937 0
M  V30 18161 H 1682.28 -3.86876 -6.76718 0
M  V30 18162 N 1686.51 0.822941 -1.34408 0
M  V30 18163 C 1687.93 1.11606 -1.14089 0
M  V30 18164 C 1688.13 2.01418 0.0576164 0
M  V30 18165 O 1687.18 2.41622 0.733146 0
M  V30 18166 C 1688.5 1.76279 -2.43611 0
M  V30 18167 C 1690.05 1.88773 -2.49667 0
M  V30 18168 C 1690.52 2.56862 -3.79191 0
M  V30 18169 N 1692.01 2.64362 -3.80351 0
M  V30 18170 C 1692.75 3.17775 -4.77291 0
M  V30 18171 N 1692.24 3.71751 -5.84613 0
M  V30 18172 N 1694.04 3.16175 -4.64747 0
M  V30 18173 H 1686.19 0.225555 -2.11199 0
M  V30 18174 H 1688.45 0.162621 -0.933948 0
M  V30 18175 H 1688.16 1.17749 -3.31403 0
M  V30 18176 H 1688.03 2.76147 -2.56949 0
M  V30 18177 H 1690.42 2.46451 -1.62314 0
M  V30 18178 H 1690.5 0.878079 -2.40257 0
M  V30 18179 H 1690.14 1.99839 -4.66933 0
M  V30 18180 H 1690.07 3.58332 -3.85883 0
M  V30 18181 H 1692.56 2.26102 -3.02797 0
M  V30 18182 H 1692.88 4.10759 -6.54597 0
M  V30 18183 H 1691.22 3.69995 -5.88327 0
M  V30 18184 H 1694.41 2.73274 -3.80051 0
M  V30 18185 H 1694.58 3.57498 -5.40462 0
M  V30 18186 N 1687.99 1.18137 1.04314 0
M  V30 18187 C 1688.92 0.929593 2.14198 0
M  V30 18188 C 1689.9 -0.131766 1.69589 0
M  V30 18189 O 1691.09 0.0203104 1.94189 0
M  V30 18190 C 1688.22 0.451799 3.44349 0
M  V30 18191 C 1687.17 1.45336 4.02569 0
M  V30 18192 C 1686.5 0.833176 5.28169 0
M  V30 18193 C 1687.8 2.8293 4.39031 0
M  V30 18194 H 1689.49 1.84856 2.35518 0
M  V30 18195 H 1687.04 0.890217 1.13186 0
M  V30 18196 H 1688.99 0.26303 4.20578 0
M  V30 18197 H 1687.71 -0.502725 3.22708 0
M  V30 18198 H 1686.37 1.62902 3.28418 0
M  V30 18199 H 1686.02 -0.128459 5.02836 0
M  V30 18200 H 1685.72 1.50185 5.68083 0
M  V30 18201 H 1687.24 0.654881 6.07078 0
M  V30 18202 H 1688.66 2.6903 5.06257 0
M  V30 18203 H 1687.06 3.46458 4.89987 0
M  V30 18204 H 1688.13 3.3667 3.48972 0
M  V30 18205 N 1689.47 -1.23186 0.98301 0
M  V30 18206 C 1690.38 -2.28448 0.533727 0
M  V30 18207 C 1691.39 -1.69034 -0.412732 0
M  V30 18208 O 1692.57 -1.99416 -0.282007 0
M  V30 18209 C 1689.64 -3.46357 -0.154179 0
M  V30 18210 C 1688.7 -4.21121 0.834009 0
M  V30 18211 C 1687.93 -5.334 0.178836 0
M  V30 18212 O 1688.15 -5.61032 -1.02952 0
M  V30 18213 O 1687.09 -5.95451 0.878722 0
M  V30 18214 H 1690.91 -2.69027 1.40919 0
M  V30 18215 H 1688.5 -1.29166 0.75077 0
M  V30 18216 H 1690.38 -4.17926 -0.539947 0
M  V30 18217 H 1689.05 -3.07724 -1.00437 0
M  V30 18218 H 1687.96 -3.51864 1.27053 0
M  V30 18219 H 1689.29 -4.6361 1.65309 0
M  V30 18220 N 1690.95 -0.754982 -1.38339 0
M  V30 18221 C 1692.17 -0.321355 -2.04895 0
M  V30 18222 C 1692.6 1.04249 -1.56569 0
M  V30 18223 O 1691.95 1.66464 -0.718299 0
M  V30 18224 C 1692 -0.354873 -3.5885 0
M  V30 18225 O 1691.11 0.65063 -4.07235 0
M  V30 18226 H 1690.45 -0.142033 -0.648631 0
M  V30 18227 H 1692.98 -1.02649 -1.76987 0
M  V30 18228 H 1692.99 -0.206243 -4.07478 0
M  V30 18229 H 1691.66 -1.34994 -3.93382 0
M  V30 18230 H 1690.24 0.466498 -3.69971 0
M  V30 18231 N 1692.42 1.49318 -0.504168 0
M  V30 18232 C 1693.67 2.02762 0.0392846 0
M  V30 18233 C 1694 1.38282 1.36352 0
M  V30 18234 O 1693.28 0.519587 1.87431 0
M  V30 18235 C 1693.56 3.59606 0.188507 0
M  V30 18236 C 1693.41 4.3461 -1.15908 0
M  V30 18237 C 1694.73 4.30213 0.927641 0
M  V30 18238 H 1691.85 0.736889 0.0128028 0
M  V30 18239 H 1694.49 1.78309 -0.656193 0
M  V30 18240 H 1692.64 3.80572 0.780861 0
M  V30 18241 H 1694.32 4.25132 -1.79055 0
M  V30 18242 H 1692.56 3.97043 -1.74756 0
M  V30 18243 H 1693.23 5.4272 -1.00794 0
M  V30 18244 H 1695.71 4.13922 0.425228 0
M  V30 18245 H 1694.58 5.39697 1.0009 0
M  V30 18246 H 1694.84 3.95678 1.97209 0
M  V30 18247 N 1693.9 0.238138 1.5579 0
M  V30 18248 C 1695.13 -0.396409 2.03576 0
M  V30 18249 C 1695.55 -1.5138 1.11649 0
M  V30 18250 O 1694.91 -1.80979 0.107774 0
M  V30 18251 C 1694.96 -0.889749 3.49451 0
M  V30 18252 O 1694.06 -1.99997 3.60659 0
M  V30 18253 H 1693.4 -0.0876017 0.658196 0
M  V30 18254 H 1695.93 0.361632 2.01379 0
M  V30 18255 H 1695.94 -1.19526 3.901 0
M  V30 18256 H 1694.62 -0.0720136 4.15838 0
M  V30 18257 H 1693.2 -1.69983 3.31904 0
M  V30 18258 N 1695.38 -1.57561 -0.0350783 0
M  V30 18259 C 1696.8 -1.54746 -0.390618 0
M  V30 18260 C 1697 -0.963454 -1.76974 0
M  V30 18261 O 1696.05 -0.581878 -2.45704 0
M  V30 18262 C 1697.37 -2.9922 -0.297984 0
M  V30 18263 C 1698.91 -3.10739 -0.375506 0
M  V30 18264 C 1699.39 -4.56933 -0.312387 0
M  V30 18265 N 1700.88 -4.61709 -0.371364 0
M  V30 18266 C 1701.61 -5.72359 -0.34532 0
M  V30 18267 N 1701.11 -6.92266 -0.271921 0
M  V30 18268 N 1702.9 -5.60713 -0.394605 0
M  V30 18269 H 1695.05 -1.93876 0.867519 0
M  V30 18270 H 1697.32 -0.888974 0.329285 0
M  V30 18271 H 1697.02 -3.45651 0.649499 0
M  V30 18272 H 1696.9 -3.60987 -1.094 0
M  V30 18273 H 1699.28 -2.6426 -1.31342 0
M  V30 18274 H 1699.37 -2.51815 0.449752 0
M  V30 18275 H 1699.01 -5.04079 0.621834 0
M  V30 18276 H 1698.94 -5.13762 -1.15567 0
M  V30 18277 H 1701.43 -3.75436 -0.430848 0
M  V30 18278 H 1701.74 -7.72373 -0.256983 0
M  V30 18279 H 1700.09 -6.94592 -0.238058 0
M  V30 18280 H 1703.28 -4.65933 -0.449896 0
M  V30 18281 H 1703.45 -6.46938 -0.37084 0
M  V30 18282 N 1696.86 0.307236 -1.54576 0
M  V30 18283 C 1698.08 1.06668 -1.77867 0
M  V30 18284 C 1698.51 1.80375 -0.533536 0
M  V30 18285 O 1697.87 1.73812 0.515663 0
M  V30 18286 C 1697.91 2.02777 -2.98184 0
M  V30 18287 O 1697.02 3.10969 -2.70872 0
M  V30 18288 H 1696.36 0.306741 -0.588902 0
M  V30 18289 H 1698.89 0.346557 -2.01644 0
M  V30 18290 H 1698.9 2.45355 -3.25983 0
M  V30 18291 H 1697.57 1.48534 -3.88472 0
M  V30 18292 H 1696.15 2.7295 -2.54072 0
M  V30 18293 N 1698.34 1.46926 0.570122 0
M  V30 18294 C 1699.75 1.469 1.15227 0
M  V30 18295 C 1700.1 0.216651 1.95 0
M  V30 18296 O 1699.22 -0.679388 2.05459 0
M  V30 18297 C 1699.82 2.66158 2.09632 0
M  V30 18298 C 1698.38 2.69133 2.63144 0
M  V30 18299 C 1697.52 2.39795 1.39262 0
M  V30 18300 H 1700.48 1.54623 0.35739 0
M  V30 18301 H 1700.5 2.42393 2.93302 0
M  V30 18302 H 1700.01 3.5729 1.51543 0
M  V30 18303 H 1698.11 1.82106 3.25066 0
M  V30 18304 H 1698.22 3.69459 3.05019 0
M  V30 18305 H 1696.59 1.9011 1.695 0
M  V30 18306 H 1697.37 3.33119 0.829855 0
M  V30 18307 N 1699.82 -0.815801 1.34842 0
M  V30 18308 C 1701.06 -1.57474 1.27788 0
M  V30 18309 C 1701.39 -1.9362 -0.149956 0
M  V30 18310 O 1700.67 -1.60605 -1.0971 0
M  V30 18311 C 1700.95 -2.86952 2.17556 0
M  V30 18312 C 1700.81 -2.5734 3.68912 0
M  V30 18313 C 1702.12 -3.88582 2.0662 0
M  V30 18314 H 1699.24 -0.57135 0.465541 0
M  V30 18315 H 1701.89 -0.939271 1.6516 0
M  V30 18316 H 1700.04 -3.41182 1.85815 0
M  V30 18317 H 1701.71 -2.09365 4.11052 0
M  V30 18318 H 1699.95 -1.90674 3.89648 0
M  V30 18319 H 1700.62 -3.49702 4.27098 0
M  V30 18320 H 1703.1 -3.43726 2.34503 0
M  V30 18321 H 1701.97 -4.7697 2.71644 0
M  V30 18322 H 1702.23 -4.29564 1.04532 0
M  V30 18323 N 1701.29 -1.18689 -1.03686 0
M  V30 18324 C 1702.52 -1.00814 -1.80333 0
M  V30 18325 C 1702.93 0.446495 -1.83856 0
M  V30 18326 O 1702.27 1.32192 -1.27558 0
M  V30 18327 C 1702.34 -1.49133 -3.27108 0
M  V30 18328 C 1702 -2.97112 -3.47237 0
M  V30 18329 C 1703 -3.94938 -3.38113 0
M  V30 18330 C 1700.68 -3.35628 -3.7371 0
M  V30 18331 C 1702.68 -5.29274 -3.55172 0
M  V30 18332 C 1700.36 -4.70126 -3.90416 0
M  V30 18333 C 1701.36 -5.66758 -3.81148 0
M  V30 18334 O 1701.05 -6.98821 -3.97371 0
M  V30 18335 H 1700.78 -0.356077 -0.574617 0
M  V30 18336 H 1703.34 -1.57754 -1.31541 0
M  V30 18337 H 1701.57 -0.865624 -3.76887 0
M  V30 18338 H 1703.25 -1.27591 -3.85325 0
M  V30 18339 H 1704.02 -3.66527 -3.17621 0
M  V30 18340 H 1699.9 -2.6097 -3.8002 0
M  V30 18341 H 1703.44 -6.04684 -3.47854 0
M  V30 18342 H 1699.34 -4.98236 -4.10404 0
M  V30 18343 H 1700.11 -7.05779 -4.14509 0
M  V30 18344 N 1702.77 1.22662 -0.989529 0
M  V30 18345 C 1704 1.95883 -0.681511 0
M  V30 18346 C 1704.42 1.72646 0.746646 0
M  V30 18347 O 1703.78 1.00358 1.5099 0
M  V30 18348 C 1703.83 3.46773 -0.988975 0
M  V30 18349 O 1702.93 4.12311 -0.0858485 0
M  V30 18350 H 1702.27 0.612916 -0.255401 0
M  V30 18351 H 1704.8 1.5585 -1.32559 0
M  V30 18352 H 1704.81 3.97273 -0.929426 0
M  V30 18353 H 1703.49 3.63011 -2.02967 0
M  V30 18354 H 1702.06 3.7236 -0.200592 0
M  V30 18355 N 1704.25 0.762308 1.37937 0
M  V30 18356 C 1705.2 0.115944 2.27705 0
M  V30 18357 C 1706.18 -0.684063 1.45634 0
M  V30 18358 O 1707.38 -0.548586 1.68284 0
M  V30 18359 C 1704.5 -0.76969 3.3456 0
M  V30 18360 C 1703.59 0.0376368 4.24083 0
M  V30 18361 N 1703.98 1.07849 4.94168 0
M  V30 18362 C 1702.28 -0.187824 4.45604 0
M  V30 18363 C 1702.98 1.56769 5.60177 0
M  V30 18364 N 1701.96 0.881477 5.36406 0
M  V30 18365 H 1705.76 0.912994 2.79359 0
M  V30 18366 H 1703.27 0.599168 1.50943 0
M  V30 18367 H 1705.27 -1.24844 3.97768 0
M  V30 18368 H 1703.93 -1.56559 2.84463 0
M  V30 18369 H 1704.94 1.46046 4.96881 0
M  V30 18370 H 1701.62 -0.95638 4.06398 0
M  V30 18371 H 1703.01 2.43517 6.26218 0
M  V30 18372 N 1705.73 -1.49049 0.51208 0
M  V30 18373 C 1706.97 -2.0248 -0.0284889 0
M  V30 18374 C 1707.3 -1.39082 -1.35965 0
M  V30 18375 O 1706.56 -0.519593 -1.88676 0
M  V30 18376 C 1706.86 -3.56734 -0.218125 0
M  V30 18377 C 1706.52 -4.38827 1.03643 0
M  V30 18378 C 1705.18 -4.60979 1.38029 0
M  V30 18379 C 1707.54 -4.86505 1.86982 0
M  V30 18380 C 1704.86 -5.28055 2.55686 0
M  V30 18381 C 1707.22 -5.54876 3.03801 0
M  V30 18382 C 1705.88 -5.75271 3.38555 0
M  V30 18383 H 1705.15 -0.740927 -0.0104248 0
M  V30 18384 H 1707.8 -1.79229 0.674481 0
M  V30 18385 H 1706.1 -3.78725 -1.00372 0
M  V30 18386 H 1707.8 -3.9568 -0.651013 0
M  V30 18387 H 1704.39 -4.21833 0.758594 0
M  V30 18388 H 1708.57 -4.69209 1.61729 0
M  V30 18389 H 1703.83 -5.42046 2.82837 0
M  V30 18390 H 1708 -5.90793 3.68696 0
M  V30 18391 H 1705.63 -6.2702 4.29825 0
M  V30 18392 N 1707.21 -0.246397 -1.55662 0
M  V30 18393 C 1708.15 0.66961 -2.22753 0
M  V30 18394 C 1709.15 1.18048 -1.21495 0
M  V30 18395 O 1710.35 1.13743 -1.39508 0
M  V30 18396 H 1706.73 0.234421 -0.714529 0
M  V30 18397 H 1708.7 0.0805962 -2.98291 0
M  V30 18398 C 1707.45 1.8558 -2.94033 0
M  V30 18399 H 1706.77 1.47184 -3.71721 0
M  V30 18400 H 1708.21 2.47397 -3.44341 0
M  V30 18401 C 1706.67 2.72664 -1.97879 0
M  V30 18402 O 1707.2 3.72177 -1.51154 0
M  V30 18403 N 1705.41 2.3922 -1.64991 0
M  V30 18404 H 1704.95 1.58348 -2.03184 0
M  V30 18405 H 1704.91 2.97762 -1.00922 0
M  V30 18406 N 1708.68 1.57577 0.026722 0
M  V30 18407 C 1709.59 2.10114 1.04351 0
M  V30 18408 C 1710.61 1.04029 1.39477 0
M  V30 18409 O 1711.79 1.35778 1.48749 0
M  V30 18410 C 1708.85 2.57203 2.32481 0
M  V30 18411 C 1707.91 3.77779 2.03915 0
M  V30 18412 C 1707.14 4.22613 3.25936 0
M  V30 18413 O 1707.37 3.66955 4.36692 0
M  V30 18414 O 1706.3 5.15026 3.11499 0
M  V30 18415 H 1710.13 2.97157 0.627021 0
M  V30 18416 H 1707.71 1.47396 0.243855 0
M  V30 18417 H 1709.59 2.87809 3.07805 0
M  V30 18418 H 1708.27 1.7327 2.73421 0
M  V30 18419 H 1707.18 3.52188 1.26152 0
M  V30 18420 H 1708.51 4.62703 1.67829 0
M  V30 18421 N 1710.16 -0.299034 1.54737 0
M  V30 18422 C 1711.39 -1.0529 1.78105 0
M  V30 18423 C 1711.8 -1.80868 0.541499 0
M  V30 18424 O 1711.16 -1.75834 -0.488726 0
M  V30 18425 C 1711.21 -2.03192 2.9899 0
M  V30 18426 O 1710.93 -1.30681 4.18156 0
M  V30 18427 C 1712.43 -2.90602 3.34762 0
M  V30 18428 H 1709.65 -0.312173 0.593961 0
M  V30 18429 H 1712.2 -0.337712 2.01692 0
M  V30 18430 H 1710.35 -2.70211 2.77606 0
M  V30 18431 H 1710.77 -1.96446 4.86322 0
M  V30 18432 H 1712.24 -3.55144 4.22584 0
M  V30 18433 H 1712.72 -3.59006 2.53004 0
M  V30 18434 H 1713.32 -2.29112 3.58313 0
M  V30 18435 N 1711.64 -1.47227 -0.562322 0
M  V30 18436 C 1712.57 -1.62204 -1.67965 0
M  V30 18437 C 1713.55 -0.471638 -1.63431 0
M  V30 18438 O 1714.74 -0.70036 -1.81131 0
M  V30 18439 C 1711.87 -1.63127 -3.06605 0
M  V30 18440 C 1710.82 -2.77343 -3.25983 0
M  V30 18441 C 1710.15 -2.63336 -4.65358 0
M  V30 18442 C 1711.45 -4.18983 -3.1185 0
M  V30 18443 H 1713.14 -2.55739 -1.55686 0
M  V30 18444 H 1710.69 -1.23075 -0.747561 0
M  V30 18445 H 1712.64 -1.72197 -3.84612 0
M  V30 18446 H 1711.36 -0.661501 -3.19831 0
M  V30 18447 H 1710.02 -2.67776 -2.50383 0
M  V30 18448 H 1709.67 -1.64398 -4.75376 0
M  V30 18449 H 1709.37 -3.39957 -4.79273 0
M  V30 18450 H 1710.89 -2.74327 -5.45506 0
M  V30 18451 H 1712.31 -4.29554 -3.79679 0
M  V30 18452 H 1710.7 -4.96351 -3.37277 0
M  V30 18453 H 1711.77 -4.37709 -2.08661 0
M  V30 18454 N 1713.12 0.808639 -1.35273 0
M  V30 18455 C 1714.05 1.93502 -1.30687 0
M  V30 18456 C 1715.03 1.69127 -0.181675 0
M  V30 18457 O 1716.21 1.90519 -0.376312 0
M  V30 18458 C 1713.34 3.30211 -1.07602 0
M  V30 18459 C 1712.3 3.69063 -2.16741 0
M  V30 18460 C 1711.62 5.03911 -1.78824 0
M  V30 18461 C 1712.92 3.79656 -3.5869 0
M  V30 18462 H 1714.62 1.97597 -2.24935 0
M  V30 18463 H 1712.16 0.949284 -1.0828 0
M  V30 18464 H 1714.12 4.0861 -1.03034 0
M  V30 18465 H 1712.84 3.26453 -0.0979944 0
M  V30 18466 H 1711.5 2.92948 -2.20402 0
M  V30 18467 H 1711.15 4.96655 -0.796449 0
M  V30 18468 H 1710.85 5.30877 -2.51881 0
M  V30 18469 H 1712.37 5.84752 -1.75777 0
M  V30 18470 H 1713.79 4.48292 -3.57362 0
M  V30 18471 H 1712.18 4.1809 -4.30489 0
M  V30 18472 H 1713.25 2.81265 -3.94991 0
M  V30 18473 N 1714.6 1.19237 1.03055 0
M  V30 18474 C 1715.84 0.992008 1.76078 0
M  V30 18475 C 1716.17 -0.478535 1.89037 0
M  V30 18476 O 1715.44 -1.34666 1.42274 0
M  V30 18477 H 1714.02 0.364059 0.652281 0
M  V30 18478 H 1716.68 1.50101 1.24321 0
M  V30 18479 H 1715.77 1.43862 2.76966 0
M  V30 18480 N 1716.07 -1.22136 0.99602 0
M  V30 18481 C 1717.32 -1.9125 0.674632 0
M  V30 18482 C 1717.65 -1.77331 -0.791655 0
M  V30 18483 O 1716.93 -1.14419 -1.57285 0
M  V30 18484 C 1717.21 -3.43359 1.08521 0
M  V30 18485 C 1717.06 -3.66312 2.61028 0
M  V30 18486 C 1718.38 -4.3541 0.640795 0
M  V30 18487 H 1715.5 -0.694534 0.246559 0
M  V30 18488 H 1718.14 -1.4395 1.2401 0
M  V30 18489 H 1716.29 -3.83775 0.604071 0
M  V30 18490 H 1717.97 -3.3528 3.16836 0
M  V30 18491 H 1716.21 -3.10485 3.02954 0
M  V30 18492 H 1716.88 -4.72852 2.84807 0
M  V30 18493 H 1719.36 -4.02527 1.05411 0
M  V30 18494 H 1718.23 -5.40505 0.956337 0
M  V30 18495 H 1718.49 -4.39717 -0.458421 0
M  V30 18496 N 1717.55 -0.769612 -1.37531 0
M  V30 18497 C 1718.78 -0.343069 -2.04543 0
M  V30 18498 C 1719.2 1.02583 -1.57665 0
M  V30 18499 O 1718.56 1.65692 -0.735915 0
M  V30 18500 C 1718.61 -0.392914 -3.58453 0
M  V30 18501 O 1717.71 0.607401 -4.07902 0
M  V30 18502 H 1717.05 -0.148905 -0.647088 0
M  V30 18503 H 1719.58 -1.04521 -1.75888 0
M  V30 18504 H 1719.59 -0.24945 -4.07237 0
M  V30 18505 H 1718.27 -1.39159 -3.91928 0
M  V30 18506 H 1716.85 0.427231 -3.70445 0
M  V30 18507 N 1719.03 1.48775 -0.519977 0
M  V30 18508 C 1720.28 2.02792 0.0177768 0
M  V30 18509 C 1720.61 1.3972 1.34878 0
M  V30 18510 O 1719.88 0.539438 1.8687 0
M  V30 18511 C 1720.17 3.59786 0.150355 0
M  V30 18512 C 1720.02 4.33356 -1.20511 0
M  V30 18513 C 1721.34 4.31172 0.881959 0
M  V30 18514 H 1718.46 0.736983 0.00498634 0
M  V30 18515 H 1721.1 1.77603 -0.675069 0
M  V30 18516 H 1719.25 3.81378 0.740452 0
M  V30 18517 H 1720.92 4.23209 -1.83554 0
M  V30 18518 H 1719.17 3.95167 -1.78957 0
M  V30 18519 H 1719.84 5.4162 -1.06544 0
M  V30 18520 H 1722.31 4.14349 0.381302 0
M  V30 18521 H 1721.19 5.40729 0.943601 0
M  V30 18522 H 1721.45 3.97747 1.93001 0
M  V30 18523 N 1720.51 0.254649 1.55529 0
M  V30 18524 C 1721.76 -0.368461 1.98306 0
M  V30 18525 C 1722.07 -1.585 1.14617 0
M  V30 18526 O 1723.28 -2.27975 1.47443 0
M  V30 18527 C 1721.73 -0.70693 3.52889 0
M  V30 18528 C 1721.34 0.488648 4.45327 0
M  V30 18529 C 1723.08 -1.2938 4.04303 0
M  V30 18530 C 1720.99 0.125903 5.91266 0
M  V30 18531 H 1719.92 -0.141444 0.740614 0
M  V30 18532 H 1722.57 0.356085 1.80012 0
M  V30 18533 H 1720.95 -1.48982 3.66907 0
M  V30 18534 H 1722.13 1.26587 4.43071 0
M  V30 18535 H 1720.44 0.990969 4.04436 0
M  V30 18536 H 1723.04 -1.57866 5.10864 0
M  V30 18537 H 1723.38 -2.22088 3.52112 0
M  V30 18538 H 1723.92 -0.573647 3.93642 0
M  V30 18539 H 1720.66 1.02032 6.4751 0
M  V30 18540 H 1720.18 -0.614969 5.96639 0
M  V30 18541 H 1721.85 -0.289174 6.46353 0
M  V30 18542 N 1721.99 -1.57589 -0.0183649 0
M  V30 18543 C 1723.4 -1.55152 -0.374183 0
M  V30 18544 C 1723.6 -0.98217 -1.75942 0
M  V30 18545 O 1722.66 -0.607905 -2.45073 0
M  V30 18546 C 1723.97 -2.99519 -0.266231 0
M  V30 18547 C 1725.52 -3.1112 -0.342527 0
M  V30 18548 C 1725.99 -4.57239 -0.263905 0
M  V30 18549 N 1727.49 -4.62077 -0.322372 0
M  V30 18550 C 1728.22 -5.72693 -0.284594 0
M  V30 18551 N 1727.72 -6.92516 -0.198482 0
M  V30 18552 N 1729.51 -5.611 -0.335111 0
M  V30 18553 H 1721.66 -1.92945 0.888033 0
M  V30 18554 H 1723.92 -0.885432 0.338695 0
M  V30 18555 H 1723.63 -3.44942 0.686123 0
M  V30 18556 H 1723.5 -3.62127 -1.05565 0
M  V30 18557 H 1725.89 -2.65638 -1.28532 0
M  V30 18558 H 1725.97 -2.51324 0.476435 0
M  V30 18559 H 1725.62 -5.03391 0.675263 0
M  V30 18560 H 1725.55 -5.14959 -1.10111 0
M  V30 18561 H 1728.04 -3.75872 -0.391004 0
M  V30 18562 H 1728.35 -7.72602 -0.175048 0
M  V30 18563 H 1726.69 -6.94806 -0.164374 0
M  V30 18564 H 1729.89 -4.66384 -0.400452 0
M  V30 18565 H 1730.06 -6.47295 -0.302203 0
M  V30 18566 N 1723.46 0.290824 -1.54893 0
M  V30 18567 C 1724.43 1.34215 -1.85793 0
M  V30 18568 C 1725.43 1.43204 -0.731393 0
M  V30 18569 O 1726.62 1.42663 -0.999647 0
M  V30 18570 C 1723.75 2.72577 -2.0473 0
M  V30 18571 H 1724.94 1.08056 -2.79757 0
M  V30 18572 H 1722.5 0.528008 -1.47111 0
M  V30 18573 H 1723.23 3.03943 -1.13088 0
M  V30 18574 H 1723.02 2.67442 -2.86736 0
M  V30 18575 H 1724.51 3.48573 -2.29971 0
M  V30 18576 N 1724.94 1.47523 0.554506 0
M  V30 18577 C 1726.19 1.54287 1.31156 0
M  V30 18578 C 1726.52 0.206279 1.93403 0
M  V30 18579 O 1725.77 -0.801103 1.78552 0
M  V30 18580 C 1726.07 2.6113 2.4402 0
M  V30 18581 C 1725.74 4.04322 1.99586 0
M  V30 18582 C 1724.4 4.43301 1.87184 0
M  V30 18583 C 1726.75 4.94158 1.65703 0
M  V30 18584 C 1724.08 5.69948 1.39198 0
M  V30 18585 C 1726.43 6.21271 1.19187 0
M  V30 18586 C 1725.1 6.59129 1.05383 0
M  V30 18587 H 1724.37 0.564575 0.479934 0
M  V30 18588 H 1727.01 1.81134 0.621521 0
M  V30 18589 H 1725.32 2.2805 3.18591 0
M  V30 18590 H 1727.01 2.63585 3.02199 0
M  V30 18591 H 1723.6 3.73526 2.10182 0
M  V30 18592 H 1727.79 4.6474 1.74156 0
M  V30 18593 H 1723.04 5.98027 1.27178 0
M  V30 18594 H 1727.22 6.90292 0.920312 0
M  V30 18595 H 1724.85 7.57155 0.679777 0
M  V30 18596 N 1726.42 -0.801453 1.357 0
M  V30 18597 C 1727.33 -1.94505 1.31167 0
M  V30 18598 C 1728.35 -1.72657 0.215747 0
M  V30 18599 O 1729.52 -1.96399 0.446022 0
M  V30 18600 C 1726.59 -3.29175 1.08834 0
M  V30 18601 C 1725.65 -3.63883 2.27788 0
M  V30 18602 C 1724.88 -4.92127 2.06511 0
M  V30 18603 O 1725.1 -5.60947 1.03416 0
M  V30 18604 O 1724.04 -5.25213 2.93998 0
M  V30 18605 H 1727.86 -2.01277 2.27423 0
M  V30 18606 H 1725.45 -0.939979 1.16124 0
M  V30 18607 H 1727.33 -4.09787 0.98248 0
M  V30 18608 H 1726.01 -3.23322 0.156326 0
M  V30 18609 H 1724.91 -2.83627 2.4394 0
M  V30 18610 H 1726.25 -3.74446 3.19454 0
M  V30 18611 N 1727.9 -1.19782 -1.02421 0
M  V30 18612 C 1728.81 -0.955253 -2.14271 0
M  V30 18613 C 1729.82 0.0863233 -1.73786 0
M  V30 18614 O 1731 -0.0993878 -2.01155 0
M  V30 18615 C 1728.07 -0.502219 -3.43043 0
M  V30 18616 C 1727.13 -1.61374 -3.97815 0
M  V30 18617 C 1726.36 -1.18223 -5.20441 0
M  V30 18618 O 1726.58 -0.0477334 -5.7038 0
M  V30 18619 O 1725.52 -1.98664 -5.68169 0
M  V30 18620 H 1729.34 -1.89157 -2.37599 0
M  V30 18621 H 1726.93 -0.981035 -1.12677 0
M  V30 18622 H 1728.81 -0.258445 -4.20607 0
M  V30 18623 H 1727.48 0.4056 -3.21149 0
M  V30 18624 H 1726.39 -1.91172 -3.21565 0
M  V30 18625 H 1727.72 -2.49829 -4.24083 0
M  V30 18626 N 1729.38 1.21606 -1.00248 0
M  V30 18627 C 1730.31 2.23246 -0.519009 0
M  V30 18628 C 1731.32 1.58034 0.391051 0
M  V30 18629 O 1732.51 1.77468 0.191652 0
M  V30 18630 C 1729.61 3.37854 0.266017 0
M  V30 18631 C 1728.78 4.32655 -0.642503 0
M  V30 18632 C 1727.84 5.26119 0.0924758 0
M  V30 18633 O 1726.87 5.66771 -0.525333 0
M  V30 18634 N 1728.07 5.64058 1.37183 0
M  V30 18635 H 1730.84 2.65357 -1.39305 0
M  V30 18636 H 1728.4 1.36004 -0.878327 0
M  V30 18637 H 1730.39 3.97373 0.766598 0
M  V30 18638 H 1728.96 2.94749 1.04123 0
M  V30 18639 H 1728.18 3.71314 -1.32361 0
M  V30 18640 H 1729.47 4.92929 -1.26089 0
M  V30 18641 H 1728.87 5.33018 1.89493 0
M  V30 18642 H 1727.42 6.2595 1.81741 0
M  V30 18643 N 1730.86 0.776895 1.37121 0
M  V30 18644 C 1731.77 0.167552 2.34001 0
M  V30 18645 C 1732.78 -0.673609 1.60432 0
M  V30 18646 O 1733.96 -0.592327 1.92493 0
M  V30 18647 C 1731.02 -0.697343 3.39615 0
M  V30 18648 C 1730.08 0.160869 4.28998 0
M  V30 18649 C 1729.32 -0.662841 5.29568 0
M  V30 18650 O 1729.54 -1.89962 5.37839 0
M  V30 18651 O 1728.47 -0.0693304 6.0186 0
M  V30 18652 H 1732.3 0.968247 2.87852 0
M  V30 18653 H 1729.88 0.538137 1.39372 0
M  V30 18654 H 1731.77 -1.19094 4.04221 0
M  V30 18655 H 1730.44 -1.47614 2.88083 0
M  V30 18656 H 1729.35 0.700941 3.67475 0
M  V30 18657 H 1730.68 0.902875 4.83848 0
M  V30 18658 N 1732.33 -1.48497 0.527859 0
M  V30 18659 C 1733.75 -1.58517 0.185573 0
M  V30 18660 C 1733.95 -1.53012 -1.31109 0
M  V30 18661 O 1733.01 -1.41807 -2.08919 0
M  V30 18662 C 1734.32 -2.9024 0.786219 0
M  V30 18663 C 1735.87 -3.03764 0.75476 0
M  V30 18664 C 1736.34 -4.38144 1.33394 0
M  V30 18665 N 1737.83 -4.44705 1.29582 0
M  V30 18666 C 1738.57 -5.47187 1.71388 0
M  V30 18667 N 1738.06 -6.56635 2.20913 0
M  V30 18668 N 1739.86 -5.38057 1.62638 0
M  V30 18669 H 1732.01 -1.50319 1.5006 0
M  V30 18670 H 1734.27 -0.713625 0.624054 0
M  V30 18671 H 1733.98 -2.99918 1.8369 0
M  V30 18672 H 1733.85 -3.76288 0.262084 0
M  V30 18673 H 1736.24 -2.937 -0.287157 0
M  V30 18674 H 1736.32 -2.19331 1.31634 0
M  V30 18675 H 1735.96 -4.48962 2.37478 0
M  V30 18676 H 1735.89 -5.2126 0.748063 0
M  V30 18677 H 1738.38 -3.66195 0.933246 0
M  V30 18678 H 1738.7 -7.30967 2.50813 0
M  V30 18679 H 1737.04 -6.57604 2.24906 0
M  V30 18680 H 1740.23 -4.51447 1.23746 0
M  V30 18681 H 1740.41 -6.17793 1.9554 0
M  V30 18682 N 1733.81 -0.262893 -1.55392 0
M  V30 18683 C 1735.06 0.357366 -1.99322 0
M  V30 18684 C 1735.39 1.56772 -1.15121 0
M  V30 18685 O 1734.64 1.94614 -0.205867 0
M  V30 18686 C 1734.94 0.795313 -3.48439 0
M  V30 18687 C 1734.61 -0.309047 -4.4984 0
M  V30 18688 C 1733.27 -0.612317 -4.77288 0
M  V30 18689 C 1735.62 -1.05382 -5.10435 0
M  V30 18690 C 1732.95 -1.66415 -5.62604 0
M  V30 18691 C 1735.3 -2.09528 -5.96892 0
M  V30 18692 C 1733.96 -2.40503 -6.22667 0
M  V30 18693 H 1733.23 0.13077 -0.72937 0
M  V30 18694 H 1735.88 -0.374057 -1.87811 0
M  V30 18695 H 1734.19 1.60621 -3.57363 0
M  V30 18696 H 1735.88 1.28577 -3.79828 0
M  V30 18697 H 1732.47 -0.0625469 -4.28554 0
M  V30 18698 H 1736.66 -0.832773 -4.89263 0
M  V30 18699 H 1731.91 -1.90929 -5.80824 0
M  V30 18700 H 1736.09 -2.67719 -6.42884 0
M  V30 18701 H 1733.71 -3.22143 -6.88569 0
M  V30 18702 N 1735.29 1.57597 0.0100073 0
M  V30 18703 C 1736.54 1.89308 0.696075 0
M  V30 18704 C 1736.85 0.863884 1.75489 0
M  V30 18705 O 1738.06 1.07087 2.49489 0
M  V30 18706 C 1736.51 3.36017 1.2892 0
M  V30 18707 C 1736.12 4.47211 0.265731 0
M  V30 18708 C 1737.87 3.76852 1.95404 0
M  V30 18709 C 1735.77 5.84991 0.868277 0
M  V30 18710 H 1734.7 0.706368 0.263744 0
M  V30 18711 H 1737.35 1.83435 -0.0488972 0
M  V30 18712 H 1735.74 3.36696 2.08451 0
M  V30 18713 H 1736.91 4.58033 -0.504256 0
M  V30 18714 H 1735.22 4.15332 -0.298096 0
M  V30 18715 H 1737.82 4.77121 2.41371 0
M  V30 18716 H 1738.16 3.09841 2.78036 0
M  V30 18717 H 1738.7 3.7843 1.22621 0
M  V30 18718 H 1735.44 6.5545 0.0809513 0
M  V30 18719 H 1734.96 5.77853 1.60766 0
M  V30 18720 H 1736.64 6.32331 1.36993 0
M  V30 18721 N 1736.77 -0.282606 1.55045 0
M  V30 18722 C 1737.72 -1.35115 1.83652 0
M  V30 18723 C 1738.7 -1.45126 0.694788 0
M  V30 18724 O 1739.89 -1.48968 0.955898 0
M  V30 18725 C 1737.02 -2.71309 2.10348 0
M  V30 18726 C 1736.11 -2.65447 3.30755 0
M  V30 18727 N 1736.5 -2.29202 4.50888 0
M  V30 18728 C 1734.8 -2.96523 3.33152 0
M  V30 18729 C 1735.5 -2.33094 5.32956 0
M  V30 18730 N 1734.47 -2.71185 4.71126 0
M  V30 18731 H 1738.28 -1.06085 2.74086 0
M  V30 18732 H 1735.79 -0.491228 1.54792 0
M  V30 18733 H 1737.79 -3.48378 2.28995 0
M  V30 18734 H 1736.45 -3.01235 1.21192 0
M  V30 18735 H 1737.46 -2.01343 4.7716 0
M  V30 18736 H 1734.14 -3.31224 2.54159 0
M  V30 18737 H 1735.53 -2.07714 6.38987 0
M  V30 18738 N 1738.25 -1.47815 -0.546675 0
M  V30 18739 C 1739.18 -1.57161 -1.66832 0
M  V30 18740 C 1740.19 -0.457035 -1.56253 0
M  V30 18741 O 1741.38 -0.727134 -1.63018 0
M  V30 18742 C 1738.48 -1.4697 -3.05374 0
M  V30 18743 C 1737.65 -2.7318 -3.41602 0
M  V30 18744 C 1736.71 -2.56676 -4.59351 0
M  V30 18745 O 1735.74 -3.30521 -4.63405 0
M  V30 18746 N 1736.94 -1.65194 -5.56499 0
M  V30 18747 H 1739.7 -2.53885 -1.59257 0
M  V30 18748 H 1737.27 -1.44328 -0.733565 0
M  V30 18749 H 1739.26 -1.33649 -3.81995 0
M  V30 18750 H 1737.83 -0.582878 -3.07118 0
M  V30 18751 H 1737.05 -3.01186 -2.54323 0
M  V30 18752 H 1738.34 -3.56945 -3.62585 0
M  V30 18753 H 1737.73 -1.04369 -5.55989 0
M  V30 18754 H 1736.29 -1.57819 -6.32405 0
M  V30 18755 N 1739.72 0.794246 -1.36123 0
M  V30 18756 C 1740.95 1.58813 -1.33391 0
M  V30 18757 C 1741.37 1.87915 0.0834599 0
M  V30 18758 O 1740.73 1.47516 1.05398 0
M  V30 18759 C 1740.78 2.88887 -2.15816 0
M  V30 18760 O 1739.88 3.82271 -1.54734 0
M  V30 18761 H 1739.22 0.481924 -0.456777 0
M  V30 18762 H 1741.75 0.984818 -1.79339 0
M  V30 18763 H 1741.76 3.38201 -2.2822 0
M  V30 18764 H 1740.44 2.67032 -3.18852 0
M  V30 18765 H 1739.02 3.40852 -1.51242 0
M  V30 18766 N 1741.2 1.20323 1.01785 0
M  V30 18767 C 1742.48 0.921703 1.72522 0
M  V30 18768 C 1742.86 -0.569838 2.03264 0
M  V30 18769 O 1742.21 -1.53115 1.69611 0
M  V30 18770 C 1742.42 1.79335 2.99399 0
M  V30 18771 C 1743.76 2.03442 3.72688 0
M  V30 18772 O 1744.79 1.76578 3.09352 0
M  V30 18773 O 1743.65 2.48803 4.86579 0
M  V30 18774 H 1740.74 0.344505 0.751828 0
M  V30 18775 H 1743.29 1.31191 1.07644 0
M  V30 18776 H 1742.06 2.80339 2.72994 0
M  V30 18777 H 1741.68 1.40314 3.72018 0
M  V30 18778 N 1742.68 -1.21073 1.00892 0
M  V30 18779 C 1743.61 -2.25847 0.592897 0
M  V30 18780 C 1744.59 -1.6561 -0.38824 0
M  V30 18781 O 1745.78 -1.92238 -0.275361 0
M  V30 18782 C 1742.91 -3.47214 -0.0773439 0
M  V30 18783 C 1741.86 -4.19994 0.82398 0
M  V30 18784 C 1741.19 -5.34696 0.0199341 0
M  V30 18785 C 1742.49 -4.76964 2.12844 0
M  V30 18786 H 1744.18 -2.609 1.46873 0
M  V30 18787 H 1741.73 -1.25412 0.707656 0
M  V30 18788 H 1743.68 -4.19684 -0.379889 0
M  V30 18789 H 1742.4 -3.11303 -0.987833 0
M  V30 18790 H 1741.06 -3.49379 1.11041 0
M  V30 18791 H 1740.71 -4.95028 -0.891966 0
M  V30 18792 H 1740.41 -5.84319 0.620102 0
M  V30 18793 H 1741.93 -6.09974 -0.276336 0
M  V30 18794 H 1743.35 -5.41293 1.88878 0
M  V30 18795 H 1741.74 -5.36992 2.67879 0
M  V30 18796 H 1742.81 -3.96129 2.79659 0
M  V30 18797 N 1744.16 -0.784156 -1.36707 0
M  V30 18798 C 1745.11 -0.177044 -2.3012 0
M  V30 18799 C 1746.08 0.6761 -1.51717 0
M  V30 18800 O 1747.26 0.625878 -1.80243 0
M  V30 18801 C 1744.4 0.686337 -3.38206 0
M  V30 18802 C 1743.51 -0.184772 -4.31605 0
M  V30 18803 C 1742.65 0.684485 -5.26772 0
M  V30 18804 C 1741.69 -0.188402 -6.1181 0
M  V30 18805 N 1740.82 0.639537 -6.99181 0
M  V30 18806 H 1745.66 -0.979125 -2.81455 0
M  V30 18807 H 1743.2 -0.494419 -1.38542 0
M  V30 18808 H 1745.16 1.20185 -3.99514 0
M  V30 18809 H 1743.79 1.4539 -2.88204 0
M  V30 18810 H 1742.84 -0.818204 -3.71496 0
M  V30 18811 H 1744.15 -0.857567 -4.91373 0
M  V30 18812 H 1743.31 1.26601 -5.93344 0
M  V30 18813 H 1742.05 1.39092 -4.67445 0
M  V30 18814 H 1741.05 -0.782364 -5.44205 0
M  V30 18815 H 1742.28 -0.89236 -6.73212 0
M  V30 18816 H 1740.22 1.33036 -6.42369 0
M  V30 18817 H 1740.14 0.0243097 -7.55996 0
M  V30 18818 H 1741.41 1.20505 -7.70129 0
M  V30 18819 N 1745.64 1.48215 -0.535727 0
M  V30 18820 C 1746.88 2.028 -0.00373305 0
M  V30 18821 C 1747.22 1.41143 1.33388 0
M  V30 18822 O 1746.49 0.559227 1.86287 0
M  V30 18823 C 1746.77 3.59925 0.112186 0
M  V30 18824 C 1746.63 4.32053 -1.251 0
M  V30 18825 C 1747.95 4.32083 0.836177 0
M  V30 18826 H 1745.06 0.736995 -0.00283063 0
M  V30 18827 H 1747.71 1.76877 -0.693868 0
M  V30 18828 H 1745.86 3.82142 0.69996 0
M  V30 18829 H 1747.53 4.21238 -1.88033 0
M  V30 18830 H 1745.77 3.93246 -1.83139 0
M  V30 18831 H 1746.44 5.4046 -1.12283 0
M  V30 18832 H 1748.92 4.1473 0.337333 0
M  V30 18833 H 1747.79 5.41699 0.886196 0
M  V30 18834 H 1748.06 3.99772 1.88771 0
M  V30 18835 N 1747.11 0.27113 1.5525 0
M  V30 18836 C 1748.39 -0.398374 1.915 0
M  V30 18837 C 1748.77 -1.74026 1.19491 0
M  V30 18838 O 1748.12 -2.26242 0.320425 0
M  V30 18839 C 1748.33 -0.542589 3.44756 0
M  V30 18840 C 1749.68 -0.827326 4.16462 0
M  V30 18841 O 1750.7 -0.627548 3.50628 0
M  V30 18842 O 1749.56 -1.20917 5.32955 0
M  V30 18843 H 1746.65 -0.217479 0.797892 0
M  V30 18844 H 1749.2 0.316988 1.66713 0
M  V30 18845 H 1747.97 0.401926 3.8923 0
M  V30 18846 H 1747.6 -1.30757 3.75484 0
M  V30 18847 N 1748.59 -1.576 -0.00164943 0
M  V30 18848 C 1749.5 -2.11748 -1.00995 0
M  V30 18849 C 1750.52 -1.06235 -1.37805 0
M  V30 18850 O 1751.69 -1.38127 -1.4657 0
M  V30 18851 C 1748.76 -2.60869 -2.2836 0
M  V30 18852 C 1747.82 -3.80976 -1.97879 0
M  V30 18853 C 1747.05 -4.27745 -3.19171 0
M  V30 18854 O 1747.28 -3.73856 -4.30799 0
M  V30 18855 O 1746.21 -5.19917 -3.03265 0
M  V30 18856 H 1750.04 -2.98117 -0.579667 0
M  V30 18857 H 1747.62 -1.47766 -0.220375 0
M  V30 18858 H 1749.5 -2.9267 -3.03187 0
M  V30 18859 H 1748.18 -1.77598 -2.7063 0
M  V30 18860 H 1747.09 -3.54151 -1.20533 0
M  V30 18861 H 1748.42 -4.65315 -1.60447 0
M  V30 18862 N 1750.07 0.274379 -1.55193 0
M  V30 18863 C 1751.02 1.35903 -1.88767 0
M  V30 18864 C 1752.01 1.512 -0.763874 0
M  V30 18865 O 1753.22 1.53 -0.948201 0
M  V30 18866 H 1749.59 0.454495 -0.599114 0
M  V30 18867 H 1751.56 1.04837 -2.79378 0
M  V30 18868 C 1750.31 2.71277 -2.17496 0
M  V30 18869 H 1749.64 2.60297 -3.03456 0
M  V30 18870 H 1751.08 3.46115 -2.44909 0
M  V30 18871 C 1749.54 3.22268 -0.982101 0
M  V30 18872 O 1750.07 4.01119 -0.216035 0
M  V30 18873 N 1748.27 2.79931 -0.780179 0
M  V30 18874 H 1747.82 2.15923 -1.40482 0
M  V30 18875 H 1747.78 3.14396 0.0163297 0
M  V30 18876 N 1751.55 1.48103 0.538828 0
M  V30 18877 C 1752.48 1.58044 1.65996 0
M  V30 18878 C 1753.49 0.465316 1.56009 0
M  V30 18879 O 1754.68 0.735769 1.62631 0
M  V30 18880 C 1751.78 1.48587 3.0459 0
M  V30 18881 C 1750.96 2.74987 3.40148 0
M  V30 18882 C 1750.01 2.59109 4.57984 0
M  V30 18883 O 1749.04 3.32974 4.61646 0
M  V30 18884 N 1750.24 1.68143 5.55615 0
M  V30 18885 H 1753.01 2.54726 1.57908 0
M  V30 18886 H 1750.57 1.44715 0.725901 0
M  V30 18887 H 1752.56 1.35673 3.81281 0
M  V30 18888 H 1751.13 0.599157 3.06804 0
M  V30 18889 H 1750.35 3.02531 2.52723 0
M  V30 18890 H 1751.64 3.58862 3.60687 0
M  V30 18891 H 1751.04 1.07317 5.55427 0
M  V30 18892 H 1749.59 1.61171 6.31559 0
M  V30 18893 N 1753.03 -0.787016 1.36542 0
M  V30 18894 C 1753.97 -1.89975 1.31065 0
M  V30 18895 C 1754.94 -1.65134 0.178905 0
M  V30 18896 O 1756.13 -1.8726 0.36581 0
M  V30 18897 C 1753.27 -3.26822 1.10821 0
M  V30 18898 C 1752.38 -3.6372 2.33091 0
M  V30 18899 C 1751.52 -4.89697 2.0584 0
M  V30 18900 C 1750.56 -5.1928 3.24059 0
M  V30 18901 N 1749.69 -6.36441 2.96457 0
M  V30 18902 H 1754.53 -1.93993 2.2621 0
M  V30 18903 H 1752.07 -0.948631 1.12425 0
M  V30 18904 H 1754.03 -4.05741 0.971091 0
M  V30 18905 H 1752.66 -3.22221 0.193302 0
M  V30 18906 H 1751.71 -2.79906 2.57598 0
M  V30 18907 H 1753.02 -3.81529 3.21305 0
M  V30 18908 H 1752.18 -5.76486 1.89072 0
M  V30 18909 H 1750.91 -4.73962 1.14941 0
M  V30 18910 H 1749.92 -4.30973 3.41383 0
M  V30 18911 H 1751.14 -5.36934 4.15787 0
M  V30 18912 H 1749.09 -6.22093 2.08172 0
M  V30 18913 H 1749.01 -6.54594 3.78209 0
M  V30 18914 H 1750.28 -7.26207 2.83273 0
M  V30 18915 N 1754.5 -1.20861 -1.01145 0
M  V30 18916 C 1755.47 -0.963742 -2.07954 0
M  V30 18917 C 1756.47 0.0627362 -1.60678 0
M  V30 18918 O 1757.66 -0.173867 -1.7333 0
M  V30 18919 C 1754.79 -0.451977 -3.3789 0
M  V30 18920 H 1755.98 -1.91123 -2.3111 0
M  V30 18921 H 1753.54 -1.0247 -1.18024 0
M  V30 18922 H 1754.27 0.500735 -3.20411 0
M  V30 18923 H 1754.06 -1.19231 -3.73532 0
M  V30 18924 H 1755.55 -0.300308 -4.16519 0
M  V30 18925 N 1755.98 1.20536 -1.01532 0
M  V30 18926 C 1757.21 1.93571 -0.722055 0
M  V30 18927 C 1757.62 1.74923 0.721011 0
M  V30 18928 O 1756.96 1.05961 1.5006 0
M  V30 18929 C 1757.03 3.45989 -0.97632 0
M  V30 18930 C 1756.69 3.88397 -2.40825 0
M  V30 18931 C 1757.69 3.94262 -3.38901 0
M  V30 18932 C 1755.37 4.20422 -2.74865 0
M  V30 18933 C 1757.37 4.3156 -4.69078 0
M  V30 18934 C 1755.05 4.57395 -4.05256 0
M  V30 18935 C 1756.05 4.62937 -5.02174 0
M  V30 18936 O 1755.74 4.99063 -6.30232 0
M  V30 18937 H 1755.47 0.622101 -0.264511 0
M  V30 18938 H 1758.02 1.5401 -1.35905 0
M  V30 18939 H 1756.25 3.85669 -0.282161 0
M  V30 18940 H 1757.94 4.00251 -0.674832 0
M  V30 18941 H 1758.71 3.69686 -3.13938 0
M  V30 18942 H 1754.59 4.153 -2.00117 0
M  V30 18943 H 1758.13 4.358 -5.44724 0
M  V30 18944 H 1754.03 4.81427 -4.29998 0
M  V30 18945 H 1754.8 5.1706 -6.34501 0
M  V30 18946 N 1757.46 0.791395 1.36289 0
M  V30 18947 C 1758.69 0.376149 2.03147 0
M  V30 18948 C 1759.1 -1.01287 1.59805 0
M  V30 18949 O 1758.44 -1.66134 0.78392 0
M  V30 18950 C 1758.5 0.362792 3.57665 0
M  V30 18951 C 1758.17 1.69972 4.24215 0
M  V30 18952 C 1759.16 2.65553 4.46965 0
M  V30 18953 C 1756.85 1.97956 4.61648 0
M  V30 18954 C 1758.84 3.87311 5.0623 0
M  V30 18955 C 1756.53 3.19981 5.2063 0
M  V30 18956 C 1757.53 4.14477 5.42861 0
M  V30 18957 O 1757.22 5.3435 6.00604 0
M  V30 18958 H 1756.95 0.152854 0.658492 0
M  V30 18959 H 1759.5 1.072 1.75206 0
M  V30 18960 H 1757.73 -0.389566 3.84733 0
M  V30 18961 H 1759.42 -0.0280568 4.0589 0
M  V30 18962 H 1760.19 2.4522 4.1844 0
M  V30 18963 H 1756.07 1.25222 4.43667 0
M  V30 18964 H 1759.61 4.61081 5.23498 0
M  V30 18965 H 1755.51 3.4019 5.48581 0
M  V30 18966 H 1756.28 5.3544 6.19069 0
M  V30 18967 N 1758.94 -1.47929 0.54358 0
M  V30 18968 C 1760.35 -1.86395 0.10663 0
M  V30 18969 C 1760.7 -1.45171 -1.31984 0
M  V30 18970 O 1759.83 -0.848558 -1.99069 0
M  V30 18971 C 1760.42 -3.38285 0.186733 0
M  V30 18972 C 1758.98 -3.75894 -0.195098 0
M  V30 18973 C 1758.13 -2.71983 0.540427 0
M  V30 18974 H 1761.08 -1.3964 0.754076 0
M  V30 18975 H 1761.1 -3.75769 -0.598151 0
M  V30 18976 H 1760.61 -3.68258 1.22505 0
M  V30 18977 H 1758.71 -3.51536 -1.23504 0
M  V30 18978 H 1758.83 -4.78853 0.153975 0
M  V30 18979 H 1757.19 -2.54696 -0.0149151 0
M  V30 18980 H 1757.97 -3.04799 1.57963 0
M  V30 18981 N 1760.42 -0.27936 -1.55104 0
M  V30 18982 C 1761.64 0.342295 -2.04556 0
M  V30 18983 C 1762.07 1.48367 -1.15624 0
M  V30 18984 O 1761.43 1.8063 -0.15572 0
M  V30 18985 C 1761.47 0.796785 -3.51687 0
M  V30 18986 O 1760.58 1.90364 -3.65835 0
M  V30 18987 H 1759.92 0.07012 -0.660287 0
M  V30 18988 H 1762.45 -0.414896 -2.00349 0
M  V30 18989 H 1762.46 1.09141 -3.93131 0
M  V30 18990 H 1761.13 -0.0382637 -4.15882 0
M  V30 18991 H 1759.71 1.61123 -3.36294 0
M  V30 18992 N 1761.9 1.57599 -0.0067085 0
M  V30 18993 C 1763.14 1.90036 0.675957 0
M  V30 18994 C 1763.46 0.882449 1.74563 0
M  V30 18995 O 1764.66 1.09728 2.48339 0
M  V30 18996 C 1763.12 3.37366 1.25349 0
M  V30 18997 C 1762.73 4.47468 0.218284 0
M  V30 18998 C 1764.47 3.78904 1.91396 0
M  V30 18999 C 1762.38 5.85879 0.806182 0
M  V30 19000 H 1761.31 0.709125 0.256237 0
M  V30 19001 H 1763.96 1.83373 -0.0683502 0
M  V30 19002 H 1762.34 3.38888 2.04868 0
M  V30 19003 H 1763.52 4.57472 -0.552808 0
M  V30 19004 H 1761.83 4.14992 -0.342131 0
M  V30 19005 H 1764.43 4.79654 2.36297 0
M  V30 19006 H 1764.77 3.12773 2.74734 0
M  V30 19007 H 1765.3 3.79709 1.186 0
M  V30 19008 H 1762.04 6.55499 0.0114275 0
M  V30 19009 H 1761.56 5.79526 1.54628 0
M  V30 19010 H 1763.24 6.33748 1.30278 0
M  V30 19011 N 1763.37 -0.266145 1.55336 0
M  V30 19012 C 1764.62 -0.998308 1.76527 0
M  V30 19013 C 1764.95 -1.85691 0.568535 0
M  V30 19014 O 1764.23 -1.89602 -0.433735 0
M  V30 19015 C 1764.51 -1.87509 3.07429 0
M  V30 19016 C 1764.36 -1.04596 4.3747 0
M  V30 19017 C 1765.68 -2.86099 3.34418 0
M  V30 19018 H 1762.8 -0.361514 0.642244 0
M  V30 19019 H 1765.44 -0.270186 1.88069 0
M  V30 19020 H 1763.59 -2.49591 2.97719 0
M  V30 19021 H 1765.27 -0.445323 4.59145 0
M  V30 19022 H 1763.51 -0.349641 4.32389 0
M  V30 19023 H 1764.18 -1.69279 5.25403 0
M  V30 19024 H 1766.66 -2.34153 3.43965 0
M  V30 19025 H 1765.53 -3.44584 4.27262 0
M  V30 19026 H 1765.79 -3.61577 2.5439 0
M  V30 19027 N 1764.85 -1.48386 -0.530967 0
M  V30 19028 C 1765.81 -1.62355 -1.61782 0
M  V30 19029 C 1766.81 -0.496909 -1.5293 0
M  V30 19030 O 1768 -0.762672 -1.56617 0
M  V30 19031 C 1765.14 -1.59282 -3.014 0
M  V30 19032 H 1766.33 -2.59265 -1.50737 0
M  V30 19033 H 1763.88 -1.36969 -0.752948 0
M  V30 19034 H 1764.62 -0.638453 -3.17953 0
M  V30 19035 H 1764.4 -2.41073 -3.09235 0
M  V30 19036 H 1765.89 -1.72248 -3.80421 0
M  V30 19037 N 1766.33 0.779763 -1.36958 0
M  V30 19038 C 1767.28 1.91417 -1.32145 0
M  V30 19039 C 1768.27 1.68074 -0.211572 0
M  V30 19040 O 1769.48 1.75962 -0.379139 0
M  V30 19041 H 1765.85 0.62934 -0.411624 0
M  V30 19042 H 1767.82 1.92594 -2.27926 0
M  V30 19043 C 1766.57 3.28574 -1.13729 0
M  V30 19044 H 1765.9 3.47109 -1.98383 0
M  V30 19045 H 1767.34 4.08272 -1.1441 0
M  V30 19046 C 1765.79 3.36531 0.157538 0
M  V30 19047 O 1766.32 3.85067 1.14397 0
M  V30 19048 N 1764.53 2.89872 0.205509 0
M  V30 19049 H 1764.08 2.50566 -0.597854 0
M  V30 19050 H 1764.04 2.95578 1.07151 0
M  V30 19051 N 1767.81 1.21396 1.00503 0
M  V30 19052 C 1769.22 0.971304 1.26641 0
M  V30 19053 C 1769.42 -0.342336 1.98571 0
M  V30 19054 O 1768.48 -1.068 2.28801 0
M  V30 19055 C 1769.79 2.16186 2.09008 0
M  V30 19056 C 1771.34 2.20411 2.22234 0
M  V30 19057 C 1771.82 3.38984 3.07983 0
M  V30 19058 N 1773.31 3.3907 3.15572 0
M  V30 19059 C 1774.04 4.27467 3.82177 0
M  V30 19060 N 1773.54 5.26062 4.50811 0
M  V30 19061 N 1775.33 4.15276 3.78817 0
M  V30 19062 H 1767.48 2.05875 0.522436 0
M  V30 19063 H 1769.74 0.901496 0.293272 0
M  V30 19064 H 1769.45 3.11383 1.63504 0
M  V30 19065 H 1769.32 2.15243 3.09758 0
M  V30 19066 H 1771.71 1.25769 2.66957 0
M  V30 19067 H 1771.79 2.25397 1.20954 0
M  V30 19068 H 1771.44 4.33919 2.63964 0
M  V30 19069 H 1771.37 3.31236 4.09378 0
M  V30 19070 H 1773.86 2.67718 2.66713 0
M  V30 19071 H 1774.17 5.89815 4.99338 0
M  V30 19072 H 1772.52 5.29987 4.49599 0
M  V30 19073 H 1775.71 3.37511 3.24351 0
M  V30 19074 H 1775.88 4.84375 4.30448 0
M  V30 19075 N 1769.29 -1.19996 1.0217 0
M  V30 19076 C 1770.53 -1.90049 0.724771 0
M  V30 19077 C 1770.89 -1.77683 -0.738 0
M  V30 19078 O 1770.18 -1.15363 -1.52977 0
M  V30 19079 C 1770.37 -3.39999 1.10162 0
M  V30 19080 C 1770.2 -3.66956 2.59948 0
M  V30 19081 C 1768.97 -3.85387 3.2681 0
M  V30 19082 C 1771.17 -3.69102 3.58146 0
M  V30 19083 N 1769.15 -3.9991 4.65774 0
M  V30 19084 C 1770.52 -3.8911 4.82694 0
M  V30 19085 C 1772.58 -3.52091 3.52046 0
M  V30 19086 C 1771.28 -3.9387 6.0188 0
M  V30 19087 C 1773.31 -3.58125 4.70639 0
M  V30 19088 C 1772.67 -3.7861 5.93998 0
M  V30 19089 H 1768.77 -0.714883 0.316964 0
M  V30 19090 H 1771.35 -1.4426 1.30756 0
M  V30 19091 H 1769.52 -3.84527 0.547118 0
M  V30 19092 H 1771.26 -3.97544 0.757692 0
M  V30 19093 H 1768.01 -3.83979 2.77231 0
M  V30 19094 H 1768.43 -4.11037 5.37939 0
M  V30 19095 H 1773.08 -3.35214 2.57665 0
M  V30 19096 H 1770.79 -4.0954 6.96637 0
M  V30 19097 H 1774.38 -3.46263 4.6754 0
M  V30 19098 H 1773.26 -3.83145 6.84229 0
M  V30 19099 N 1770.76 -0.798611 -1.35867 0
M  V30 19100 C 1771.69 -0.217751 -2.32482 0
M  V30 19101 C 1772.67 0.652374 -1.57093 0
M  V30 19102 O 1773.86 0.584297 -1.85202 0
M  V30 19103 C 1770.99 0.640925 -3.41335 0
M  V30 19104 C 1769.94 -0.130053 -4.27802 0
M  V30 19105 C 1769.27 0.849811 -5.27904 0
M  V30 19106 C 1770.57 -1.32451 -5.05227 0
M  V30 19107 H 1772.26 -1.02492 -2.81311 0
M  V30 19108 H 1769.81 -0.494302 -1.3525 0
M  V30 19109 H 1771.76 1.05729 -4.07921 0
M  V30 19110 H 1770.49 1.4809 -2.91096 0
M  V30 19111 H 1769.15 -0.5275 -3.62785 0
M  V30 19112 H 1768.79 1.68507 -4.73935 0
M  V30 19113 H 1768.49 0.338323 -5.86625 0
M  V30 19114 H 1770.02 1.26455 -5.97362 0
M  V30 19115 H 1771.43 -0.983429 -5.64802 0
M  V30 19116 H 1769.83 -1.76992 -5.73405 0
M  V30 19117 H 1770.9 -2.11522 -4.36333 0
M  V30 19118 N 1772.24 1.47639 -0.551417 0
M  V30 19119 C 1773.2 2.28419 0.188996 0
M  V30 19120 C 1774.2 1.36617 0.84808 0
M  V30 19121 O 1775.39 1.59304 0.704831 0
M  V30 19122 C 1772.53 3.16131 1.27571 0
M  V30 19123 H 1773.72 2.95348 -0.520518 0
M  V30 19124 H 1771.27 1.53232 -0.308141 0
M  V30 19125 H 1772.01 2.5388 2.0178 0
M  V30 19126 H 1771.79 3.83685 0.807984 0
M  V30 19127 H 1773.28 3.77011 1.79591 0
M  V30 19128 N 1773.72 0.287581 1.54954 0
M  V30 19129 C 1774.97 -0.326093 2.00161 0
M  V30 19130 C 1775.3 -1.54564 1.17574 0
M  V30 19131 O 1774.57 -1.92901 0.248859 0
M  V30 19132 C 1774.86 -0.695974 3.5331 0
M  V30 19133 C 1774.71 0.531783 4.46645 0
M  V30 19134 C 1776.03 -1.52767 4.12735 0
M  V30 19135 H 1773.15 -0.117051 0.727646 0
M  V30 19136 H 1775.79 0.39701 1.85806 0
M  V30 19137 H 1773.94 -1.31205 3.65674 0
M  V30 19138 H 1775.61 1.17032 4.46208 0
M  V30 19139 H 1773.86 1.16754 4.17793 0
M  V30 19140 H 1774.53 0.229034 5.51525 0
M  V30 19141 H 1777 -1.00724 4.03725 0
M  V30 19142 H 1775.88 -1.75527 5.20078 0
M  V30 19143 H 1776.14 -2.51267 3.63755 0
M  V30 19144 N 1775.2 -1.57593 0.0150662 0
M  V30 19145 C 1776.61 -1.5591 -0.341189 0
M  V30 19146 C 1776.81 -1.01927 -1.73819 0
M  V30 19147 O 1775.87 -0.659752 -2.43728 0
M  V30 19148 C 1777.18 -3.00016 -0.202639 0
M  V30 19149 C 1778.73 -3.11777 -0.276457 0
M  V30 19150 C 1779.21 -4.57696 -0.166859 0
M  V30 19151 N 1780.7 -4.62657 -0.224287 0
M  V30 19152 C 1781.43 -5.73168 -0.163053 0
M  V30 19153 N 1780.93 -6.92781 -0.0515442 0
M  V30 19154 N 1782.72 -5.61685 -0.216018 0
M  V30 19155 H 1774.87 -1.91018 0.92876 0
M  V30 19156 H 1777.14 -0.878048 0.3574 0
M  V30 19157 H 1776.84 -3.43409 0.759136 0
M  V30 19158 H 1776.72 -3.64285 -0.978599 0
M  V30 19159 H 1779.1 -2.68305 -1.22868 0
M  V30 19160 H 1779.18 -2.50257 0.529637 0
M  V30 19161 H 1778.83 -5.01846 0.781888 0
M  V30 19162 H 1778.76 -5.17179 -0.991635 0
M  V30 19163 H 1781.25 -3.76617 -0.311188 0
M  V30 19164 H 1781.56 -7.72799 -0.0111287 0
M  V30 19165 H 1779.91 -6.94998 -0.0169584 0
M  V30 19166 H 1783.1 -4.67128 -0.301435 0
M  V30 19167 H 1783.27 -6.4779 -0.164834 0
M  V30 19168 N 1776.68 0.257904 -1.55475 0
M  V30 19169 C 1777.61 1.32303 -1.92401 0
M  V30 19170 C 1778.59 1.50767 -0.787617 0
M  V30 19171 O 1779.77 1.63559 -1.047 0
M  V30 19172 C 1776.9 2.67984 -2.20912 0
M  V30 19173 C 1775.86 2.64231 -3.36699 0
M  V30 19174 C 1775.18 4.03604 -3.50725 0
M  V30 19175 C 1776.48 2.22177 -4.72689 0
M  V30 19176 H 1778.18 1.01646 -2.81618 0
M  V30 19177 H 1775.72 0.487523 -1.35496 0
M  V30 19178 H 1777.68 3.42622 -2.45332 0
M  V30 19179 H 1776.4 3.00254 -1.2851 0
M  V30 19180 H 1775.06 1.92049 -3.1227 0
M  V30 19181 H 1774.71 4.33122 -2.55763 0
M  V30 19182 H 1774.41 4.01983 -4.28583 0
M  V30 19183 H 1775.93 4.79959 -3.77455 0
M  V30 19184 H 1777.34 2.86543 -4.96554 0
M  V30 19185 H 1775.74 2.3169 -5.5357 0
M  V30 19186 H 1776.81 1.17326 -4.70492 0
M  V30 19187 N 1778.15 1.48666 0.52309 0
M  V30 19188 C 1779.06 1.66396 1.65377 0
M  V30 19189 C 1780.08 0.546469 1.65196 0
M  V30 19190 O 1781.26 0.818413 1.84022 0
M  V30 19191 C 1778.32 1.70602 3.01821 0
M  V30 19192 C 1777.38 2.94028 3.12803 0
M  V30 19193 C 1776.62 2.98024 4.42739 0
M  V30 19194 O 1776.84 2.10232 5.30244 0
M  V30 19195 O 1775.77 3.90266 4.58231 0
M  V30 19196 H 1779.6 2.62138 1.53354 0
M  V30 19197 H 1777.18 1.32148 0.696948 0
M  V30 19198 H 1779.07 1.75849 3.82956 0
M  V30 19199 H 1777.74 0.780346 3.14153 0
M  V30 19200 H 1776.65 2.9431 2.30938 0
M  V30 19201 H 1777.98 3.86003 3.0539 0
M  V30 19202 N 1779.63 -0.772489 1.37369 0
M  V30 19203 C 1780.87 -1.54405 1.33935 0
M  V30 19204 C 1781.24 -1.9185 -0.0757718 0
M  V30 19205 O 1782.44 -2.67772 -0.234832 0
M  V30 19206 C 1780.71 -2.77561 2.25154 0
M  V30 19207 S 1782.27 -3.67634 2.39564 0
M  V30 19208 H 1779.09 -0.52862 0.475481 0
M  V30 19209 H 1781.69 -0.908446 1.73111 0
M  V30 19210 H 1780.39 -2.4813 3.26894 0
M  V30 19211 H 1779.92 -3.46081 1.87059 0
M  V30 19212 H 1781.94 -4.69502 1.60567 0
M  V30 19213 N 1781.11 -1.21927 -0.998575 0
M  V30 19214 C 1782.36 -1.04194 -1.73987 0
M  V30 19215 C 1782.69 0.4227 -1.89544 0
M  V30 19216 O 1781.96 1.31353 -1.43446 0
M  V30 19217 C 1782.25 -1.74717 -3.14874 0
M  V30 19218 C 1782.1 -3.28741 -3.07001 0
M  V30 19219 C 1783.42 -1.49495 -4.13931 0
M  V30 19220 H 1780.54 -0.379918 -0.631531 0
M  V30 19221 H 1783.18 -1.5019 -1.16374 0
M  V30 19222 H 1781.33 -1.35615 -3.64062 0
M  V30 19223 H 1783 -3.77252 -2.65478 0
M  V30 19224 H 1781.25 -3.58711 -2.43944 0
M  V30 19225 H 1781.92 -3.73258 -4.06672 0
M  V30 19226 H 1784.39 -1.83451 -3.73477 0
M  V30 19227 H 1783.27 -2.01344 -5.10639 0
M  V30 19228 H 1783.53 -0.426324 -4.4004 0
M  V30 19229 N 1782.59 1.19452 -1.02805 0
M  V30 19230 C 1783.84 1.8874 -0.722599 0
M  V30 19231 C 1784.16 1.79957 0.751028 0
M  V30 19232 O 1783.43 1.20949 1.54104 0
M  V30 19233 H 1782.01 0.698683 -0.264294 0
M  V30 19234 H 1784.67 1.45021 -1.30211 0
M  V30 19235 H 1783.77 2.95094 -1.01617 0
M  V30 19236 N 1784.07 0.805805 1.35442 0
M  V30 19237 C 1785.01 0.203715 2.31706 0
M  V30 19238 C 1786.01 -0.646084 1.56595 0
M  V30 19239 O 1787.21 -0.539336 1.7173 0
M  V30 19240 H 1783.59 0.0471152 0.750523 0
M  V30 19241 H 1785.56 1.03076 2.80032 0
M  V30 19242 C 1784.31 -0.633791 3.41875 0
M  V30 19243 H 1783.63 0.0107715 3.99799 0
M  V30 19244 H 1785.07 -1.02147 4.11512 0
M  V30 19245 C 1783.53 -1.79899 2.84847 0
M  V30 19246 O 1784.06 -2.89643 2.78334 0
M  V30 19247 N 1782.27 -1.61027 2.41906 0
M  V30 19248 H 1781.81 -0.717599 2.47403 0
M  V30 19249 H 1781.77 -2.39147 2.04099 0
M  V30 19250 N 1785.54 -1.47344 0.559239 0
M  V30 19251 C 1786.78 -2.04364 0.0383239 0
M  V30 19252 C 1787.15 -1.42399 -1.28788 0
M  V30 19253 O 1788.35 -1.90478 -1.89661 0
M  V30 19254 C 1786.62 -3.57364 -0.0509258 0
M  V30 19255 S 1788.18 -4.35736 -0.51767 0
M  V30 19256 H 1785 -0.71052 0.0261238 0
M  V30 19257 H 1787.6 -1.80689 0.746433 0
M  V30 19258 H 1786.3 -3.99987 0.918631 0
M  V30 19259 H 1785.83 -3.85539 -0.782527 0
M  V30 19260 H 1787.85 -4.63291 -1.77697 0
M  V30 19261 N 1787.02 -0.295795 -1.54799 0
M  V30 19262 C 1788.27 0.315754 -1.99213 0
M  V30 19263 C 1788.58 1.55405 -1.18779 0
M  V30 19264 O 1789.79 2.23986 -1.53436 0
M  V30 19265 C 1788.25 0.613119 -3.54639 0
M  V30 19266 C 1787.85 -0.606546 -4.43875 0
M  V30 19267 C 1789.6 1.18615 -4.07591 0
M  V30 19268 C 1787.51 -0.282622 -5.90724 0
M  V30 19269 H 1786.44 0.121758 -0.744104 0
M  V30 19270 H 1789.09 -0.403686 -1.79005 0
M  V30 19271 H 1787.47 1.39202 -3.70728 0
M  V30 19272 H 1788.64 -1.3829 -4.39559 0
M  V30 19273 H 1786.96 -1.09785 -4.01667 0
M  V30 19274 H 1789.55 1.44266 -5.1487 0
M  V30 19275 H 1789.9 2.12674 -3.57876 0
M  V30 19276 H 1790.43 0.469078 -3.95025 0
M  V30 19277 H 1787.17 -1.19164 -6.44578 0
M  V30 19278 H 1786.69 0.456564 -5.9806 0
M  V30 19279 H 1788.37 0.117703 -6.46893 0
M  V30 19280 N 1788.5 1.57583 -0.0234236 0
M  V30 19281 C 1789.75 1.91848 0.657422 0
M  V30 19282 C 1790.08 0.899633 1.72105 0
M  V30 19283 O 1789.36 -0.0784409 1.94342 0
M  V30 19284 C 1789.64 3.36617 1.2791 0
M  V30 19285 C 1789.49 4.49235 0.225421 0
M  V30 19286 C 1790.81 3.81239 2.19874 0
M  V30 19287 H 1787.93 0.697677 0.23752 0
M  V30 19288 H 1790.57 1.89834 -0.0795169 0
M  V30 19289 H 1788.72 3.38465 1.90719 0
M  V30 19290 H 1790.39 4.59521 -0.404792 0
M  V30 19291 H 1788.64 4.31462 -0.449749 0
M  V30 19292 H 1789.31 5.47545 0.699906 0
M  V30 19293 H 1791.78 3.81092 1.67058 0
M  V30 19294 H 1790.66 4.8324 2.60328 0
M  V30 19295 H 1790.92 3.16421 3.08755 0
M  V30 19296 N 1789.98 -0.249655 1.5561 0
M  V30 19297 C 1790.91 -1.31281 1.931 0
M  V30 19298 C 1791.89 -1.50347 0.795601 0
M  V30 19299 O 1793.08 -1.63001 1.05566 0
M  V30 19300 C 1790.21 -2.66808 2.2233 0
M  V30 19301 C 1789.16 -2.62441 3.38096 0
M  V30 19302 C 1788.49 -4.01738 3.52861 0
M  V30 19303 C 1789.79 -2.19667 4.7386 0
M  V30 19304 H 1791.48 -1.00151 2.82153 0
M  V30 19305 H 1789.03 -0.480331 1.35753 0
M  V30 19306 H 1790.98 -3.41316 2.47146 0
M  V30 19307 H 1789.7 -2.99569 1.30101 0
M  V30 19308 H 1788.36 -1.90391 3.13284 0
M  V30 19309 H 1788.01 -4.31759 2.58056 0
M  V30 19310 H 1787.71 -3.99705 4.30708 0
M  V30 19311 H 1789.23 -4.7795 3.79995 0
M  V30 19312 H 1790.65 -2.83906 4.98067 0
M  V30 19313 H 1789.04 -2.28751 5.54791 0
M  V30 19314 H 1790.11 -1.14829 4.71108 0
M  V30 19315 N 1791.46 -1.48941 -0.515198 0
M  V30 19316 C 1792.7 -1.5771 -1.27019 0
M  V30 19317 C 1793.03 -0.257484 -1.92788 0
M  V30 19318 O 1792.29 0.753481 -1.80613 0
M  V30 19319 C 1792.59 -2.67508 -2.37011 0
M  V30 19320 C 1792.25 -4.09471 -1.88796 0
M  V30 19321 C 1790.91 -4.48108 -1.75365 0
M  V30 19322 C 1793.27 -4.98378 -1.52543 0
M  V30 19323 C 1790.59 -5.73438 -1.24038 0
M  V30 19324 C 1792.95 -6.24212 -1.02673 0
M  V30 19325 C 1791.61 -6.61691 -0.878703 0
M  V30 19326 H 1790.88 -0.577101 -0.464796 0
M  V30 19327 H 1793.53 -1.82718 -0.573279 0
M  V30 19328 H 1791.83 -2.36417 -3.12433 0
M  V30 19329 H 1793.53 -2.71505 -2.95104 0
M  V30 19330 H 1790.12 -3.78967 -2.00205 0
M  V30 19331 H 1794.3 -4.69194 -1.61773 0
M  V30 19332 H 1789.56 -6.01188 -1.11277 0
M  V30 19333 H 1793.73 -6.9249 -0.73697 0
M  V30 19334 H 1791.36 -7.58691 -0.478792 0
M  V30 19335 N 1792.94 0.765193 -1.37777 0
M  V30 19336 C 1793.9 1.8603 -1.33886 0
M  V30 19337 C 1794.9 1.58974 -0.241614 0
M  V30 19338 O 1796.09 1.66935 -0.497843 0
M  V30 19339 C 1793.22 3.2329 -1.08151 0
M  V30 19340 H 1794.41 1.9089 -2.31303 0
M  V30 19341 H 1791.97 0.965653 -1.22902 0
M  V30 19342 H 1792.7 3.24103 -0.112926 0
M  V30 19343 H 1792.49 3.4432 -1.8758 0
M  V30 19344 H 1793.98 4.03367 -1.08095 0
M  V30 19345 N 1794.41 1.22455 0.992094 0
M  V30 19346 C 1795.38 0.996703 2.06394 0
M  V30 19347 C 1796.38 -0.0371659 1.60757 0
M  V30 19348 O 1797.57 0.20142 1.73032 0
M  V30 19349 C 1794.7 0.505675 3.37129 0
M  V30 19350 H 1795.89 1.94776 2.28041 0
M  V30 19351 H 1793.44 1.04335 1.16378 0
M  V30 19352 H 1794.18 -0.449697 3.21167 0
M  V30 19353 H 1793.96 1.25158 3.71588 0
M  V30 19354 H 1795.45 0.366535 4.15988 0
M  V30 19355 N 1795.89 -1.18905 1.03437 0
M  V30 19356 C 1796.82 -2.24539 0.640669 0
M  V30 19357 C 1797.8 -1.66396 -0.353024 0
M  V30 19358 O 1798.99 -1.92779 -0.234522 0
M  V30 19359 C 1796.12 -3.473 -0.00367731 0
M  V30 19360 C 1795.07 -4.18151 0.912881 0
M  V30 19361 C 1794.4 -5.34534 0.133347 0
M  V30 19362 C 1795.7 -4.72342 2.22913 0
M  V30 19363 H 1797.39 -2.57726 1.52374 0
M  V30 19364 H 1794.94 -1.23883 0.734098 0
M  V30 19365 H 1796.89 -4.20396 -0.290783 0
M  V30 19366 H 1795.61 -3.13328 -0.921578 0
M  V30 19367 H 1794.27 -3.46945 1.18427 0
M  V30 19368 H 1793.92 -4.96809 -0.786762 0
M  V30 19369 H 1793.62 -5.82872 0.743905 0
M  V30 19370 H 1795.15 -6.10423 -0.146889 0
M  V30 19371 H 1796.56 -5.37165 2.00317 0
M  V30 19372 H 1794.96 -5.31189 2.79209 0
M  V30 19373 H 1796.03 -3.90108 2.87999 0
M  V30 19374 N 1797.37 -0.812977 -1.35013 0
M  V30 19375 C 1798.62 -0.396345 -1.98583 0
M  V30 19376 C 1798.94 1.0381 -1.6448 0
M  V30 19377 O 1798.2 1.73604 -0.903344 0
M  V30 19378 C 1798.5 -0.534083 -3.53387 0
M  V30 19379 C 1798.16 -1.93278 -4.07375 0
M  V30 19380 C 1796.83 -2.31543 -4.21831 0
M  V30 19381 C 1799.18 -2.84756 -4.36535 0
M  V30 19382 C 1796.51 -3.60641 -4.62769 0
M  V30 19383 C 1798.86 -4.13308 -4.78915 0
M  V30 19384 C 1797.52 -4.51563 -4.91576 0
M  V30 19385 H 1796.79 -0.145033 -0.726668 0
M  V30 19386 H 1799.44 -1.035 -1.61121 0
M  V30 19387 H 1797.74 0.188002 -3.91349 0
M  V30 19388 H 1799.44 -0.192396 -4.00538 0
M  V30 19389 H 1796.03 -1.62551 -3.96579 0
M  V30 19390 H 1800.22 -2.56441 -4.24914 0
M  V30 19391 H 1795.47 -3.9012 -4.70761 0
M  V30 19392 H 1799.65 -4.84287 -5.00439 0
M  V30 19393 H 1797.27 -5.51649 -5.23056 0
M  V30 19394 N 1798.85 1.47045 -0.567045 0
M  V30 19395 C 1799.81 2.28607 0.164758 0
M  V30 19396 C 1800.81 1.37509 0.833542 0
M  V30 19397 O 1802 1.60043 0.687895 0
M  V30 19398 C 1799.13 3.17466 1.24211 0
M  V30 19399 H 1800.33 2.9478 -0.551814 0
M  V30 19400 H 1797.88 1.52897 -0.324376 0
M  V30 19401 H 1798.61 2.56006 1.99076 0
M  V30 19402 H 1798.4 3.8452 0.767243 0
M  V30 19403 H 1799.89 3.78894 1.75582 0
M  V30 19404 N 1800.33 0.304 1.5464 0
M  V30 19405 C 1801.57 -0.304845 2.00496 0
M  V30 19406 C 1801.9 -1.53308 1.19206 0
M  V30 19407 O 1801.18 -1.92627 0.269305 0
M  V30 19408 C 1801.46 -0.658462 3.54029 0
M  V30 19409 C 1801.32 0.579125 4.46056 0
M  V30 19410 C 1802.63 -1.4838 4.14332 0
M  V30 19411 H 1799.75 -0.109327 0.728846 0
M  V30 19412 H 1802.4 0.416694 1.85374 0
M  V30 19413 H 1800.55 -1.27319 3.67045 0
M  V30 19414 H 1802.22 1.21758 4.44941 0
M  V30 19415 H 1800.46 1.21179 4.16531 0
M  V30 19416 H 1801.13 0.287518 5.51251 0
M  V30 19417 H 1803.61 -0.964367 4.04771 0
M  V30 19418 H 1802.48 -1.70001 5.21911 0
M  V30 19419 H 1802.74 -2.47394 3.66399 0
M  V30 19420 N 1801.8 -1.57568 0.0317802 0
M  V30 19421 C 1803.05 -1.91087 -0.645639 0
M  V30 19422 C 1803.37 -0.910108 -1.73137 0
M  V30 19423 O 1804.57 -1.13665 -2.46562 0
M  V30 19424 C 1803.03 -3.39317 -1.19966 0
M  V30 19425 C 1802.64 -4.47759 -0.147068 0
M  V30 19426 C 1804.38 -3.81901 -1.85343 0
M  V30 19427 C 1802.29 -5.87088 -0.712872 0
M  V30 19428 H 1801.22 -0.713112 -0.244923 0
M  V30 19429 H 1803.87 -1.83241 0.0975145 0
M  V30 19430 H 1802.25 -3.42105 -1.99451 0
M  V30 19431 H 1803.42 -4.56535 0.625518 0
M  V30 19432 H 1801.74 -4.14395 0.408109 0
M  V30 19433 H 1804.34 -4.83352 -2.28636 0
M  V30 19434 H 1804.68 -3.17104 -2.69724 0
M  V30 19435 H 1805.21 -3.81548 -1.12544 0
M  V30 19436 H 1801.95 -6.55434 0.0928582 0
M  V30 19437 H 1801.47 -5.81913 -1.45388 0
M  V30 19438 H 1803.15 -6.3574 -1.20179 0
M  V30 19439 N 1803.28 0.241399 -1.5574 0
M  V30 19440 C 1804.51 0.99028 -1.82231 0
M  V30 19441 C 1804.93 1.77949 -0.609559 0
M  V30 19442 O 1804.29 1.75843 0.44148 0
M  V30 19443 C 1804.34 1.89947 -3.06516 0
M  V30 19444 O 1803.44 2.99201 -2.83818 0
M  V30 19445 H 1802.78 0.281488 -0.601382 0
M  V30 19446 H 1805.31 0.260721 -2.02932 0
M  V30 19447 H 1805.32 2.31308 -3.36096 0
M  V30 19448 H 1804 1.31924 -3.94422 0
M  V30 19449 H 1802.58 2.61929 -2.6542 0
M  V30 19450 N 1804.76 1.49212 0.507292 0
M  V30 19451 C 1806.18 1.35835 0.837908 0
M  V30 19452 C 1806.38 0.386634 1.97756 0
M  V30 19453 O 1805.43 -0.183971 2.51829 0
M  V30 19454 C 1806.75 2.76407 1.18404 0
M  V30 19455 C 1808.29 2.85062 1.29262 0
M  V30 19456 C 1808.77 4.26387 1.67208 0
M  V30 19457 N 1810.26 4.29168 1.74268 0
M  V30 19458 C 1810.99 5.35479 2.05061 0
M  V30 19459 N 1810.49 6.52042 2.34121 0
M  V30 19460 N 1812.28 5.2289 2.06259 0
M  V30 19461 H 1804.43 2.1099 -0.244311 0
M  V30 19462 H 1806.7 0.946849 -0.0466977 0
M  V30 19463 H 1806.4 3.49183 0.420053 0
M  V30 19464 H 1806.28 3.11376 2.12896 0
M  V30 19465 H 1808.66 2.12528 2.04734 0
M  V30 19466 H 1808.75 2.53684 0.328359 0
M  V30 19467 H 1808.39 4.99445 0.922884 0
M  V30 19468 H 1808.32 4.55225 2.64723 0
M  V30 19469 H 1810.81 3.45099 1.53996 0
M  V30 19470 H 1811.12 7.2889 2.56787 0
M  V30 19471 H 1809.47 6.55279 2.31591 0
M  V30 19472 H 1812.66 4.30834 1.83028 0
M  V30 19473 H 1812.83 6.05838 2.29923 0
M  V30 19474 N 1806.24 -0.757876 1.38181 0
M  V30 19475 C 1807.19 -1.86207 1.31571 0
M  V30 19476 C 1808.17 -1.59642 0.200812 0
M  V30 19477 O 1809.36 -1.71535 0.436416 0
M  V30 19478 C 1806.49 -3.23861 1.13881 0
M  V30 19479 C 1805.58 -3.56332 2.29975 0
M  V30 19480 N 1805.97 -3.59889 3.55406 0
M  V30 19481 C 1804.27 -3.86574 2.22433 0
M  V30 19482 C 1804.97 -3.89504 4.32044 0
M  V30 19483 N 1803.95 -4.06115 3.61347 0
M  V30 19484 H 1807.75 -1.87229 2.26545 0
M  V30 19485 H 1805.26 -0.955018 1.31351 0
M  V30 19486 H 1807.26 -4.02874 1.0723 0
M  V30 19487 H 1805.92 -3.24093 0.198371 0
M  V30 19488 H 1806.93 -3.41754 3.89133 0
M  V30 19489 H 1803.61 -3.94547 1.36524 0
M  V30 19490 H 1805 -3.98915 5.40663 0
M  V30 19491 N 1807.72 -1.22979 -0.985586 0
M  V30 19492 C 1808.94 -1.08615 -1.76685 0
M  V30 19493 C 1809.37 0.35859 -1.8465 0
M  V30 19494 O 1808.72 1.25924 -1.30433 0
M  V30 19495 C 1808.77 -1.71039 -3.17456 0
M  V30 19496 O 1807.88 -0.969018 -4.00854 0
M  V30 19497 H 1807.22 -0.38103 -0.543794 0
M  V30 19498 H 1809.75 -1.62927 -1.23757 0
M  V30 19499 H 1809.76 -1.76064 -3.68056 0
M  V30 19500 H 1808.43 -2.76168 -3.10973 0
M  V30 19501 H 1807.01 -0.995318 -3.59371 0
M  V30 19502 N 1809.19 1.18355 -1.04066 0
M  V30 19503 C 1810.12 2.24196 -0.652568 0
M  V30 19504 C 1811.11 1.66581 0.344195 0
M  V30 19505 O 1812.29 1.929 0.224296 0
M  V30 19506 C 1809.42 3.47297 -0.0147409 0
M  V30 19507 C 1808.37 4.17661 -0.935044 0
M  V30 19508 C 1807.7 5.34455 -0.161692 0
M  V30 19509 C 1809 4.71153 -2.25415 0
M  V30 19510 H 1810.69 2.56914 -1.53738 0
M  V30 19511 H 1808.24 1.23492 -0.740658 0
M  V30 19512 H 1810.19 4.20544 0.268484 0
M  V30 19513 H 1808.92 3.13812 0.904949 0
M  V30 19514 H 1807.58 3.46312 -1.20265 0
M  V30 19515 H 1807.22 4.97219 0.760404 0
M  V30 19516 H 1806.92 5.82469 -0.774805 0
M  V30 19517 H 1808.45 6.10493 0.114515 0
M  V30 19518 H 1809.86 5.36095 -2.03163 0
M  V30 19519 H 1808.26 5.29701 -2.82022 0
M  V30 19520 H 1809.33 3.88576 -2.90064 0
M  V30 19521 N 1810.67 0.820125 1.3458 0
M  V30 19522 C 1811.9 0.418747 2.03129 0
M  V30 19523 C 1812.32 -0.966605 1.61364 0
M  V30 19524 O 1811.68 -1.62847 0.796903 0
M  V30 19525 C 1811.73 0.525681 3.56748 0
M  V30 19526 O 1810.83 -0.455592 4.09876 0
M  V30 19527 H 1810.17 0.172819 0.641116 0
M  V30 19528 H 1812.7 1.10977 1.71888 0
M  V30 19529 H 1812.71 0.400422 4.0603 0
M  V30 19530 H 1811.39 1.53609 3.86493 0
M  V30 19531 H 1809.97 -0.289449 3.71775 0
M  V30 19532 N 1812.15 -1.46743 0.574835 0
M  V30 19533 C 1813.11 -2.28691 -0.152633 0
M  V30 19534 C 1814.11 -1.37949 -0.826238 0
M  V30 19535 O 1815.3 -1.60405 -0.679398 0
M  V30 19536 C 1812.44 -3.1812 -1.22525 0
M  V30 19537 H 1813.63 -2.94483 0.567439 0
M  V30 19538 H 1811.18 -1.52723 0.33248 0
M  V30 19539 H 1811.92 -2.57058 -1.97716 0
M  V30 19540 H 1811.7 -3.84922 -0.746841 0
M  V30 19541 H 1813.19 -3.7982 -1.7357 0
M  V30 19542 N 1813.63 -0.312197 -1.54477 0
M  V30 19543 C 1814.88 0.293192 -1.99962 0
M  V30 19544 C 1815.2 1.53544 -1.20205 0
M  V30 19545 O 1814.47 1.93575 -0.300901 0
M  V30 19546 H 1813.05 0.111325 -0.738658 0
M  V30 19547 H 1815.71 -0.426116 -1.90185 0
M  V30 19548 H 1814.81 0.557482 -3.07081 0
M  V30 19549 N 1815.11 1.57549 -0.040136 0
M  V30 19550 C 1816.04 2.13912 0.936168 0
M  V30 19551 C 1817.02 1.05798 1.33194 0
M  V30 19552 O 1818.2 1.33685 1.40861 0
M  V30 19553 C 1815.33 2.67515 2.21479 0
M  V30 19554 C 1814.29 3.80513 1.95943 0
M  V30 19555 C 1813.61 4.20589 3.30165 0
M  V30 19556 C 1814.91 5.06124 1.28981 0
M  V30 19557 H 1816.61 2.9574 0.46674 0
M  V30 19558 H 1814.15 1.42262 0.223062 0
M  V30 19559 H 1816.11 3.05582 2.90168 0
M  V30 19560 H 1814.83 1.82864 2.70608 0
M  V30 19561 H 1813.49 3.42902 1.29669 0
M  V30 19562 H 1813.14 3.32904 3.77073 0
M  V30 19563 H 1812.84 4.96742 3.13881 0
M  V30 19564 H 1814.36 4.61248 4.00103 0
M  V30 19565 H 1815.77 5.41707 1.87687 0
M  V30 19566 H 1814.17 5.87347 1.2306 0
M  V30 19567 H 1815.24 4.84179 0.264286 0
M  V30 19568 N 1816.58 -0.233136 1.55866 0
M  V30 19569 C 1817.83 -0.96064 1.78604 0
M  V30 19570 C 1818.16 -1.84444 0.607795 0
M  V30 19571 O 1817.44 -1.9048 -0.39342 0
M  V30 19572 C 1817.72 -1.80946 3.11337 0
M  V30 19573 C 1817.57 -0.952929 4.3959 0
M  V30 19574 C 1818.89 -2.78941 3.40411 0
M  V30 19575 H 1816.01 -0.347809 0.649767 0
M  V30 19576 H 1818.65 -0.230233 1.886 0
M  V30 19577 H 1816.8 -2.43219 3.02946 0
M  V30 19578 H 1818.48 -0.347831 4.59987 0
M  V30 19579 H 1816.72 -0.257846 4.33033 0
M  V30 19580 H 1817.39 -1.58096 5.28876 0
M  V30 19581 H 1819.87 -2.26804 3.48854 0
M  V30 19582 H 1818.74 -3.35443 4.34475 0
M  V30 19583 H 1819 -3.561 2.62003 0
M  V30 19584 N 1818.06 -1.49479 -0.499372 0
M  V30 19585 C 1819.31 -1.58734 -1.25092 0
M  V30 19586 C 1819.63 -0.276701 -1.93027 0
M  V30 19587 O 1818.9 0.704058 -1.82811 0
M  V30 19588 H 1817.48 -0.584857 -0.464706 0
M  V30 19589 H 1820.14 -1.86113 -0.578608 0
M  V30 19590 H 1819.24 -2.38422 -2.01399 0
M  V30 19591 N 1819.54 0.750537 -1.38581 0
M  V30 19592 C 1820.47 1.87785 -1.38777 0
M  V30 19593 C 1821.45 1.68204 -0.253244 0
M  V30 19594 O 1822.64 1.88752 -0.456779 0
M  V30 19595 C 1819.77 3.2535 -1.21511 0
M  V30 19596 C 1818.72 3.59538 -2.32199 0
M  V30 19597 C 1818.05 4.95873 -2.00036 0
M  V30 19598 C 1819.35 3.64102 -3.74469 0
M  V30 19599 H 1821.04 1.87879 -2.33113 0
M  V30 19600 H 1818.59 0.902504 -1.12209 0
M  V30 19601 H 1820.54 4.03872 -1.20272 0
M  V30 19602 H 1819.26 3.25744 -0.236366 0
M  V30 19603 H 1817.92 2.83336 -2.32629 0
M  V30 19604 H 1817.57 4.9283 -1.00638 0
M  V30 19605 H 1817.27 5.19716 -2.7417 0
M  V30 19606 H 1818.8 5.7677 -2.00421 0
M  V30 19607 H 1820.21 4.32731 -3.76054 0
M  V30 19608 H 1818.61 3.99455 -4.47834 0
M  V30 19609 H 1819.68 2.64259 -4.06565 0
M  V30 19610 N 1821.02 1.235 0.979051 0
M  V30 19611 C 1822.24 1.09551 1.76106 0
M  V30 19612 C 1822.67 -0.348792 1.84838 0
M  V30 19613 O 1822.03 -1.25231 1.31099 0
M  V30 19614 C 1822.08 1.7272 3.16544 0
M  V30 19615 O 1821.18 0.990263 4.00334 0
M  V30 19616 H 1820.52 0.383909 0.541766 0
M  V30 19617 H 1823.05 1.63581 1.22892 0
M  V30 19618 H 1823.06 1.78014 3.67117 0
M  V30 19619 H 1821.74 2.77813 3.09504 0
M  V30 19620 H 1820.31 1.01436 3.58839 0
M  V30 19621 N 1822.5 -1.17802 1.04693 0
M  V30 19622 C 1823.74 -1.88217 0.755141 0
M  V30 19623 C 1824.08 -1.8053 -0.715731 0
M  V30 19624 O 1823.35 -1.20987 -1.52291 0
M  V30 19625 C 1823.63 -3.38447 1.22986 0
M  V30 19626 C 1823.49 -3.54911 2.7633 0
M  V30 19627 C 1824.81 -4.323 0.824891 0
M  V30 19628 H 1821.93 -0.683452 0.275795 0
M  V30 19629 H 1824.57 -1.38561 1.30004 0
M  V30 19630 H 1822.72 -3.80868 0.7663 0
M  V30 19631 H 1824.39 -3.2154 3.30771 0
M  V30 19632 H 1822.63 -2.97357 3.1585 0
M  V30 19633 H 1823.3 -4.60347 3.04606 0
M  V30 19634 H 1825.78 -3.97694 1.22389 0
M  V30 19635 H 1824.66 -5.35962 1.18472 0
M  V30 19636 H 1824.92 -4.41265 -0.27151 0
M  V30 19637 N 1823.98 -0.827251 -1.34143 0
M  V30 19638 C 1825.2 -0.429514 -2.02904 0
M  V30 19639 C 1825.63 0.958033 -1.61874 0
M  V30 19640 O 1824.98 1.62422 -0.805528 0
M  V30 19641 C 1825.03 -0.544592 -3.56464 0
M  V30 19642 O 1824.14 0.433849 -4.10112 0
M  V30 19643 H 1823.48 -0.176216 -0.64019 0
M  V30 19644 H 1826.01 -1.11887 -1.71297 0
M  V30 19645 H 1826.02 -0.421949 -4.05812 0
M  V30 19646 H 1824.69 -1.55657 -3.85673 0
M  V30 19647 H 1823.27 0.269729 -3.71923 0
M  V30 19648 N 1825.45 1.46436 -0.582609 0
M  V30 19649 C 1826.68 2.06469 -0.0736587 0
M  V30 19650 C 1827.09 1.43193 1.23662 0
M  V30 19651 O 1826.43 0.531376 1.75847 0
M  V30 19652 C 1826.5 3.59114 0.166531 0
M  V30 19653 C 1826.16 4.44581 -1.05814 0
M  V30 19654 C 1827.16 4.81125 -1.97016 0
M  V30 19655 C 1824.84 4.85718 -1.27996 0
M  V30 19656 C 1826.84 5.57632 -3.08747 0
M  V30 19657 C 1824.52 5.61986 -2.40032 0
M  V30 19658 C 1825.52 5.97856 -3.30237 0
M  V30 19659 O 1825.21 6.72582 -4.40328 0
M  V30 19660 H 1824.94 0.673802 -0.0544673 0
M  V30 19661 H 1827.5 1.89053 -0.803005 0
M  V30 19662 H 1825.73 3.74837 0.950489 0
M  V30 19663 H 1827.41 4.01075 0.62398 0
M  V30 19664 H 1828.18 4.49922 -1.81094 0
M  V30 19665 H 1824.06 4.57249 -0.586917 0
M  V30 19666 H 1827.6 5.85549 -3.7918 0
M  V30 19667 H 1823.5 5.92602 -2.55917 0
M  V30 19668 H 1824.27 6.91006 -4.38694 0
M  V30 19669 N 1826.93 0.320385 1.54309 0
M  V30 19670 C 1828.16 -0.28794 2.05391 0
M  V30 19671 C 1828.58 -1.45249 1.19517 0
M  V30 19672 O 1827.94 -1.80154 0.203556 0
M  V30 19673 C 1827.99 -0.703261 3.53676 0
M  V30 19674 O 1827.09 -1.80598 3.70753 0
M  V30 19675 H 1826.43 -0.052589 0.661914 0
M  V30 19676 H 1828.96 0.46787 1.99179 0
M  V30 19677 H 1828.97 -0.986793 3.95887 0
M  V30 19678 H 1827.65 0.148514 4.15635 0
M  V30 19679 H 1826.22 -1.5215 3.40448 0
M  V30 19680 N 1828.41 -1.57525 0.0484906 0
M  V30 19681 C 1829.34 -2.14405 -0.924811 0
M  V30 19682 C 1830.32 -1.06503 -1.32631 0
M  V30 19683 O 1831.51 -1.3443 -1.4015 0
M  V30 19684 C 1828.64 -2.68686 -2.20057 0
M  V30 19685 C 1827.59 -3.81547 -1.93922 0
M  V30 19686 C 1826.92 -4.22334 -3.27929 0
M  V30 19687 C 1828.22 -5.06801 -1.26295 0
M  V30 19688 H 1829.91 -2.95983 -0.45105 0
M  V30 19689 H 1827.46 -1.42378 -0.215514 0
M  V30 19690 H 1829.41 -3.07117 -2.88543 0
M  V30 19691 H 1828.13 -1.84296 -2.69634 0
M  V30 19692 H 1826.79 -3.43585 -1.27848 0
M  V30 19693 H 1826.44 -3.34899 -3.75302 0
M  V30 19694 H 1826.14 -4.984 -3.11242 0
M  V30 19695 H 1827.66 -4.63363 -3.97652 0
M  V30 19696 H 1829.08 -5.42695 -1.84812 0
M  V30 19697 H 1827.47 -5.87991 -1.19943 0
M  V30 19698 H 1828.54 -4.84313 -0.238605 0
M  V30 19699 N 1829.89 0.224867 -1.55988 0
M  V30 19700 C 1830.82 1.30204 -1.88626 0
M  V30 19701 C 1831.83 1.4321 -0.774248 0
M  V30 19702 O 1833.02 1.44167 -1.05253 0
M  V30 19703 C 1830.12 2.67806 -2.07685 0
M  V30 19704 C 1829.29 2.76789 -3.38684 0
M  V30 19705 C 1828.35 3.95383 -3.47216 0
M  V30 19706 O 1827.38 3.83876 -4.20271 0
M  V30 19707 N 1828.58 5.09541 -2.78116 0
M  V30 19708 H 1831.35 1.02533 -2.81615 0
M  V30 19709 H 1828.91 0.414916 -1.56493 0
M  V30 19710 H 1830.9 3.45518 -2.10712 0
M  V30 19711 H 1829.47 2.88091 -1.21336 0
M  V30 19712 H 1828.69 1.8558 -3.47784 0
M  V30 19713 H 1829.98 2.79758 -4.24986 0
M  V30 19714 H 1829.38 5.21785 -2.18535 0
M  V30 19715 H 1827.93 5.85307 -2.86808 0
M  V30 19716 N 1831.37 1.49742 0.491438 0
M  V30 19717 C 1832.61 1.59947 1.24679 0
M  V30 19718 C 1832.94 0.289598 1.92029 0
M  V30 19719 O 1832.22 -0.707544 1.81174 0
M  V30 19720 C 1832.5 2.7655 2.30634 0
M  V30 19721 C 1832.36 4.1736 1.67723 0
M  V30 19722 C 1833.67 2.88764 3.3212 0
M  V30 19723 H 1830.79 0.582173 0.451934 0
M  V30 19724 H 1833.44 1.8206 0.543517 0
M  V30 19725 H 1831.59 2.57826 2.90616 0
M  V30 19726 H 1833.26 4.47623 1.11495 0
M  V30 19727 H 1831.5 4.22562 0.981 0
M  V30 19728 H 1832.17 4.94838 2.44621 0
M  V30 19729 H 1834.65 3.05838 2.82139 0
M  V30 19730 H 1833.52 3.7201 4.03608 0
M  V30 19731 H 1833.78 1.98517 3.95023 0
M  V30 19732 N 1832.84 -0.743177 1.38977 0
M  V30 19733 C 1834.07 -1.53243 1.39011 0
M  V30 19734 C 1834.49 -1.88792 -0.0174858 0
M  V30 19735 O 1833.84 -1.53523 -0.986766 0
M  V30 19736 C 1833.9 -2.8251 2.25544 0
M  V30 19737 O 1833.62 -2.48474 3.60821 0
M  V30 19738 C 1835.12 -3.76588 2.33872 0
M  V30 19739 H 1832.34 -0.473832 0.475104 0
M  V30 19740 H 1834.88 -0.918958 1.82689 0
M  V30 19741 H 1833.04 -3.4021 1.853 0
M  V30 19742 H 1833.45 -3.31454 4.06495 0
M  V30 19743 H 1834.92 -4.64211 2.98684 0
M  V30 19744 H 1835.4 -4.17761 1.35544 0
M  V30 19745 H 1836.01 -3.24811 2.74551 0
M  V30 19746 N 1834.32 -1.24018 -0.972487 0
M  V30 19747 C 1835.55 -1.10392 -1.74989 0
M  V30 19748 C 1835.97 0.34396 -1.8564 0
M  V30 19749 O 1835.32 1.23757 -1.34128 0
M  V30 19750 C 1835.37 -1.73247 -3.17282 0
M  V30 19751 O 1835.09 -3.12374 -3.07171 0
M  V30 19752 C 1836.6 -1.65168 -4.11381 0
M  V30 19753 H 1833.82 -0.38593 -0.548907 0
M  V30 19754 H 1836.36 -1.64028 -1.22127 0
M  V30 19755 H 1834.51 -1.23625 -3.67145 0
M  V30 19756 H 1834.93 -3.42997 -3.96804 0
M  V30 19757 H 1836.4 -2.13837 -5.08898 0
M  V30 19758 H 1836.88 -0.61198 -4.34915 0
M  V30 19759 H 1837.49 -2.14194 -3.67425 0
M  V30 19760 N 1835.8 1.17245 -1.05316 0
M  V30 19761 C 1837.03 1.91176 -0.783273 0
M  V30 19762 C 1837.44 1.77128 0.664996 0
M  V30 19763 O 1836.78 1.10682 1.46612 0
M  V30 19764 C 1836.84 3.42708 -1.0859 0
M  V30 19765 C 1836.51 3.80539 -2.5306 0
M  V30 19766 C 1837.5 3.8328 -3.51272 0
M  V30 19767 C 1835.19 4.11464 -2.88102 0
M  V30 19768 C 1837.18 4.16418 -4.82571 0
M  V30 19769 C 1834.87 4.44271 -4.19603 0
M  V30 19770 C 1835.87 4.46726 -5.16648 0
M  V30 19771 O 1835.56 4.7876 -6.4579 0
M  V30 19772 H 1835.29 0.613371 -0.284169 0
M  V30 19773 H 1837.84 1.49608 -1.40736 0
M  V30 19774 H 1836.07 3.84576 -0.404716 0
M  V30 19775 H 1837.76 3.97901 -0.801827 0
M  V30 19776 H 1838.53 3.59511 -3.25541 0
M  V30 19777 H 1834.41 4.08723 -2.13228 0
M  V30 19778 H 1837.95 4.1825 -5.58313 0
M  V30 19779 H 1833.85 4.67503 -4.45097 0
M  V30 19780 H 1834.62 4.96612 -6.5063 0
M  V30 19781 N 1837.28 0.834353 1.33702 0
M  V30 19782 C 1838.21 0.279313 2.31823 0
M  V30 19783 C 1839.19 -0.610495 1.58767 0
M  V30 19784 O 1840.37 -0.534989 1.86686 0
M  V30 19785 C 1837.5 -0.550201 3.42914 0
M  V30 19786 C 1836.46 0.243432 4.27307 0
M  V30 19787 C 1835.78 -0.709548 5.29971 0
M  V30 19788 C 1837.08 1.45799 5.01537 0
M  V30 19789 H 1838.78 1.09915 2.78494 0
M  V30 19790 H 1836.32 0.529987 1.33892 0
M  V30 19791 H 1838.28 -0.948764 4.10581 0
M  V30 19792 H 1837 -1.4032 2.9492 0
M  V30 19793 H 1835.66 0.6235 3.61259 0
M  V30 19794 H 1835.31 -1.55882 4.78236 0
M  V30 19795 H 1835.01 -0.182671 5.87316 0
M  V30 19796 H 1836.53 -1.10572 6.00505 0
M  V30 19797 H 1837.95 1.13283 5.61996 0
M  V30 19798 H 1836.34 1.92133 5.68511 0
M  V30 19799 H 1837.41 2.23016 4.30571 0
M  V30 19800 N 1838.76 -1.46125 0.590367 0
M  V30 19801 C 1839.7 -2.32108 -0.151168 0
M  V30 19802 C 1840.7 -1.44943 -0.876804 0
M  V30 19803 O 1841.9 -1.61526 -0.794323 0
M  V30 19804 H 1838.28 -0.748954 -0.0676159 0
M  V30 19805 H 1840.25 -2.92454 0.592723 0
M  V30 19806 C 1839 -3.28253 -1.14653 0
M  V30 19807 H 1838.32 -3.95309 -0.597597 0
M  V30 19808 H 1839.76 -3.91181 -1.63564 0
M  V30 19809 C 1838.22 -2.54162 -2.21141 0
M  V30 19810 O 1838.75 -2.31029 -3.28616 0
M  V30 19811 N 1836.96 -2.14592 -1.95956 0
M  V30 19812 H 1836.5 -2.33606 -1.08564 0
M  V30 19813 H 1836.46 -1.65339 -2.67414 0
M  V30 19814 N 1840.23 -0.328564 -1.54137 0
M  V30 19815 C 1841.48 0.265652 -2.01658 0
M  V30 19816 C 1841.84 1.49385 -1.21251 0
M  V30 19817 O 1841.13 1.89425 -0.28787 0
M  V30 19818 C 1841.32 0.646813 -3.51498 0
M  V30 19819 C 1841.15 -0.542899 -4.46411 0
M  V30 19820 C 1839.92 -1.04356 -4.94407 0
M  V30 19821 C 1842.12 -1.39666 -4.94972 0
M  V30 19822 N 1840.1 -2.19716 -5.73235 0
M  V30 19823 C 1841.47 -2.39737 -5.71775 0
M  V30 19824 C 1843.53 -1.42385 -4.77107 0
M  V30 19825 C 1842.23 -3.42336 -6.32613 0
M  V30 19826 C 1844.26 -2.43857 -5.38783 0
M  V30 19827 C 1843.62 -3.42654 -6.15441 0
M  V30 19828 H 1839.72 0.0609186 -0.779624 0
M  V30 19829 H 1842.3 -0.464736 -1.89072 0
M  V30 19830 H 1840.47 1.34633 -3.64319 0
M  V30 19831 H 1842.2 1.22293 -3.8578 0
M  V30 19832 H 1838.96 -0.614041 -4.69602 0
M  V30 19833 H 1839.38 -2.77919 -6.17325 0
M  V30 19834 H 1844.03 -0.673681 -4.17398 0
M  V30 19835 H 1841.74 -4.18256 -6.91439 0
M  V30 19836 H 1845.33 -2.46769 -5.26874 0
M  V30 19837 H 1844.21 -4.19886 -6.62318 0
M  V30 19838 N 1841.71 1.57497 -0.0568439 0
M  V30 19839 C 1842.64 2.14892 0.913427 0
M  V30 19840 C 1843.62 1.07205 1.32065 0
M  V30 19841 O 1844.81 1.35172 1.39435 0
M  V30 19842 C 1841.94 2.69849 2.18629 0
M  V30 19843 C 1840.89 3.8257 1.91896 0
M  V30 19844 C 1840.22 4.24068 3.25685 0
M  V30 19845 C 1841.52 5.07463 1.23606 0
M  V30 19846 H 1843.21 2.96218 0.435347 0
M  V30 19847 H 1840.76 1.4249 0.20796 0
M  V30 19848 H 1842.71 3.08643 2.86911 0
M  V30 19849 H 1841.44 1.85723 2.68653 0
M  V30 19850 H 1840.09 3.44258 1.26024 0
M  V30 19851 H 1839.74 3.36884 3.73521 0
M  V30 19852 H 1839.44 5.00043 3.08594 0
M  V30 19853 H 1840.97 4.65466 3.95189 0
M  V30 19854 H 1842.38 5.43667 1.81931 0
M  V30 19855 H 1840.78 5.88619 1.16823 0
M  V30 19856 H 1841.85 4.84432 0.212918 0
M  V30 19857 N 1843.19 -0.216591 1.56105 0
M  V30 19858 C 1844.44 -0.941642 1.79613 0
M  V30 19859 C 1844.77 -1.83789 0.627323 0
M  V30 19860 O 1844.04 -1.90886 -0.373195 0
M  V30 19861 C 1844.33 -1.77634 3.13238 0
M  V30 19862 C 1844.18 -0.906251 4.40576 0
M  V30 19863 C 1845.5 -2.75315 3.4335 0
M  V30 19864 H 1842.62 -0.340898 0.65342 0
M  V30 19865 H 1845.26 -0.210217 1.88833 0
M  V30 19866 H 1843.41 -2.39993 3.05509 0
M  V30 19867 H 1845.08 -0.299023 4.6033 0
M  V30 19868 H 1843.33 -0.211902 4.33282 0
M  V30 19869 H 1844 -1.52478 5.30523 0
M  V30 19870 H 1846.47 -2.23091 3.5124 0
M  V30 19871 H 1845.35 -3.30816 4.38009 0
M  V30 19872 H 1845.61 -3.53301 2.65765 0
M  V30 19873 N 1844.67 -1.5 -0.48349 0
M  V30 19874 C 1846.08 -1.37151 -0.816192 0
M  V30 19875 C 1846.28 -0.418047 -1.97116 0
M  V30 19876 O 1845.34 0.143884 -2.5209 0
M  V30 19877 C 1846.65 -2.78256 -1.13992 0
M  V30 19878 C 1848.2 -2.87082 -1.2471 0
M  V30 19879 C 1848.68 -4.28993 -1.60403 0
M  V30 19880 N 1850.17 -4.31886 -1.67419 0
M  V30 19881 C 1850.9 -5.38673 -1.96516 0
M  V30 19882 N 1850.4 -6.55685 -2.23718 0
M  V30 19883 N 1852.19 -5.26105 -1.97914 0
M  V30 19884 H 1844.34 -2.10575 0.277847 0
M  V30 19885 H 1846.61 -0.945986 0.0617554 0
M  V30 19886 H 1846.31 -3.49807 -0.364448 0
M  V30 19887 H 1846.19 -3.14724 -2.07916 0
M  V30 19888 H 1848.57 -2.15758 -2.01327 0
M  V30 19889 H 1848.65 -2.54174 -0.287959 0
M  V30 19890 H 1848.3 -5.0085 -0.84331 0
M  V30 19891 H 1848.23 -4.59379 -2.57447 0
M  V30 19892 H 1850.72 -3.47506 -1.48487 0
M  V30 19893 H 1851.03 -7.32883 -2.45158 0
M  V30 19894 H 1849.38 -6.58881 -2.21136 0
M  V30 19895 H 1852.57 -4.33692 -1.76151 0
M  V30 19896 H 1852.74 -6.09419 -2.20256 0
M  V30 19897 N 1846.15 0.735796 -1.39369 0
M  V30 19898 C 1847.08 1.85854 -1.32414 0
M  V30 19899 C 1848.06 1.61391 -0.197947 0
M  V30 19900 O 1849.24 1.84666 -0.378263 0
M  V30 19901 C 1846.37 3.2182 -1.05592 0
M  V30 19902 C 1845.41 3.65144 -2.20391 0
M  V30 19903 S 1846.25 3.74604 -3.82664 0
M  V30 19904 C 1847.4 5.13361 -3.58066 0
M  V30 19905 H 1847.64 1.9147 -2.27435 0
M  V30 19906 H 1845.17 0.900577 -1.25415 0
M  V30 19907 H 1847.13 4.00332 -0.908013 0
M  V30 19908 H 1845.79 3.13861 -0.122598 0
M  V30 19909 H 1844.98 4.63813 -1.97214 0
M  V30 19910 H 1844.58 2.93835 -2.3138 0
M  V30 19911 H 1846.88 5.9967 -3.15282 0
M  V30 19912 H 1847.82 5.41566 -4.56193 0
M  V30 19913 H 1848.23 4.83 -2.92184 0
M  V30 19914 N 1847.63 1.24532 0.965897 0
M  V30 19915 C 1848.85 1.11412 1.74934 0
M  V30 19916 C 1849.28 -0.329168 1.85197 0
M  V30 19917 O 1848.63 -1.23833 1.3242 0
M  V30 19918 C 1848.68 1.76068 3.14694 0
M  V30 19919 O 1847.79 1.03267 3.99261 0
M  V30 19920 H 1847.13 0.389633 0.537663 0
M  V30 19921 H 1849.66 1.64875 1.2115 0
M  V30 19922 H 1849.67 1.81897 3.65209 0
M  V30 19923 H 1848.34 2.8108 3.0654 0
M  V30 19924 H 1846.92 1.05236 3.57743 0
M  V30 19925 N 1849.1 -1.16685 1.05936 0
M  V30 19926 C 1850.33 -1.91576 0.794558 0
M  V30 19927 C 1850.75 -1.76706 -0.644718 0
M  V30 19928 O 1850.11 -1.0899 -1.44882 0
M  V30 19929 C 1850.16 -3.40417 1.18947 0
M  V30 19930 O 1849.26 -4.11109 0.326091 0
M  V30 19931 H 1848.6 -0.596983 0.290702 0
M  V30 19932 H 1851.13 -1.47856 1.4142 0
M  V30 19933 H 1851.14 -3.91178 1.15947 0
M  V30 19934 H 1849.82 -3.5056 2.23786 0
M  V30 19935 H 1848.4 -3.70557 0.417347 0
M  V30 19936 N 1850.58 -0.841432 -1.33258 0
M  V30 19937 C 1851.49 -0.279006 -2.32935 0
M  V30 19938 C 1852.51 0.596298 -1.63463 0
M  V30 19939 O 1853.68 0.499812 -1.951 0
M  V30 19940 C 1850.75 0.534514 -3.42555 0
M  V30 19941 C 1849.81 -0.365366 -4.27742 0
M  V30 19942 C 1849.04 0.409423 -5.32127 0
M  V30 19943 O 1849.27 1.64085 -5.4629 0
M  V30 19944 O 1848.2 -0.217904 -6.01505 0
M  V30 19945 H 1852.03 -1.10448 -2.82904 0
M  V30 19946 H 1849.61 -0.60402 -1.36645 0
M  V30 19947 H 1851.49 0.996723 -4.09443 0
M  V30 19948 H 1850.17 1.33701 -2.94798 0
M  V30 19949 H 1849.07 -0.875469 -3.63712 0
M  V30 19950 H 1850.41 -1.1327 -4.78989 0
M  V30 19951 N 1852.06 1.4581 -0.598108 0
M  V30 19952 C 1852.99 2.27529 0.174933 0
M  V30 19953 C 1853.97 1.36565 0.882546 0
M  V30 19954 O 1855.15 1.65987 0.893332 0
M  V30 19955 C 1852.28 3.14698 1.25232 0
M  V30 19956 C 1851.33 4.21535 0.648877 0
M  V30 19957 S 1852.16 5.3281 -0.53603 0
M  V30 19958 C 1853.32 6.23547 0.542182 0
M  V30 19959 H 1853.55 2.92745 -0.518405 0
M  V30 19960 H 1851.08 1.49513 -0.385382 0
M  V30 19961 H 1853.04 3.65479 1.86909 0
M  V30 19962 H 1851.7 2.48764 1.91768 0
M  V30 19963 H 1850.89 4.82414 1.45922 0
M  V30 19964 H 1850.5 3.73846 0.107447 0
M  V30 19965 H 1852.79 6.6237 1.4238 0
M  V30 19966 H 1853.73 7.08094 -0.0302138 0
M  V30 19967 H 1854.14 5.58014 0.85325 0
M  V30 19968 N 1853.54 0.336733 1.53961 0
M  V30 19969 C 1854.45 -0.531812 2.28493 0
M  V30 19970 C 1855.46 -1.11784 1.33343 0
M  V30 19971 O 1856.64 -1.13499 1.66373 0
M  V30 19972 C 1853.7 -1.67031 3.03812 0
M  V30 19973 C 1852.77 -1.11475 4.14574 0
M  V30 19974 C 1852 -2.19898 4.86292 0
M  V30 19975 O 1852.22 -3.40492 4.57625 0
M  V30 19976 O 1851.16 -1.84576 5.72901 0
M  V30 19977 H 1854.98 0.0738624 3.0361 0
M  V30 19978 H 1852.57 0.101996 1.49051 0
M  V30 19979 H 1854.45 -2.33286 3.50936 0
M  V30 19980 H 1853.12 -2.26192 2.31558 0
M  V30 19981 H 1852.03 -0.416915 3.7177 0
M  V30 19982 H 1853.36 -0.568092 4.88911 0
M  V30 19983 N 1855.02 -1.57465 0.0651956 0
M  V30 19984 C 1856.24 -1.9756 -0.614633 0
M  V30 19985 C 1856.66 -0.943308 -1.63546 0
M  V30 19986 O 1856.02 0.0708362 -1.82362 0
M  V30 19987 C 1856.07 -3.37735 -1.28909 0
M  V30 19988 O 1855.79 -4.37008 -0.309131 0
M  V30 19989 C 1857.29 -3.92667 -2.05736 0
M  V30 19990 H 1854.51 -0.64987 -0.167061 0
M  V30 19991 H 1857.05 -2.0405 0.135647 0
M  V30 19992 H 1855.21 -3.32352 -1.9905 0
M  V30 19993 H 1855.62 -5.18483 -0.792206 0
M  V30 19994 H 1857.1 -4.92988 -2.48329 0
M  V30 19995 H 1857.57 -3.28851 -2.91124 0
M  V30 19996 H 1858.18 -4.01431 -1.40476 0
M  V30 19997 N 1856.49 0.20831 -1.56217 0
M  V30 19998 C 1857.44 1.27775 -1.94362 0
M  V30 19999 C 1858.44 1.47824 -0.827316 0
M  V30 20000 O 1859.64 1.48841 -1.01224 0
M  V30 20001 H 1856.02 0.428676 -0.617852 0
M  V30 20002 H 1857.99 0.928929 -2.83573 0
M  V30 20003 C 1856.74 2.61808 -2.28806 0
M  V30 20004 H 1856.06 2.47192 -3.14223 0
M  V30 20005 H 1857.5 3.35416 -2.59369 0
M  V30 20006 C 1855.96 3.17812 -1.1179 0
M  V30 20007 O 1856.49 3.99841 -0.385968 0
M  V30 20008 N 1854.69 2.7637 -0.898205 0
M  V30 20009 H 1854.24 2.0977 -1.49514 0
M  V30 20010 H 1854.2 3.14182 -0.117031 0
M  V30 20011 N 1857.97 1.50255 0.475528 0
M  V30 20012 C 1859.22 1.60263 1.22468 0
M  V30 20013 C 1859.53 0.306389 1.93185 0
M  V30 20014 O 1860.74 0.285331 2.69997 0
M  V30 20015 C 1859.2 2.82876 2.22506 0
M  V30 20016 C 1858.8 4.19359 1.57612 0
M  V30 20017 C 1860.55 3.02228 2.98091 0
M  V30 20018 C 1858.45 5.33164 2.55911 0
M  V30 20019 H 1857.38 0.596804 0.460804 0
M  V30 20020 H 1860.04 1.76679 0.495653 0
M  V30 20021 H 1858.42 2.6001 2.98682 0
M  V30 20022 H 1859.59 4.52463 0.872559 0
M  V30 20023 H 1857.91 4.05576 0.943247 0
M  V30 20024 H 1860.5 3.84422 3.7165 0
M  V30 20025 H 1860.85 2.13781 3.57216 0
M  V30 20026 H 1861.38 3.25255 2.29029 0
M  V30 20027 H 1858.12 6.23751 2.01531 0
M  V30 20028 H 1857.64 5.04484 3.24432 0
M  V30 20029 H 1859.32 5.63554 3.17829 0
M  V30 20030 N 1859.45 -0.728395 1.39758 0
M  V30 20031 C 1860.7 -1.49028 1.37544 0
M  V30 20032 C 1861.03 -1.94182 -0.0265175 0
M  V30 20033 O 1860.3 -1.67257 -0.992737 0
M  V30 20034 C 1860.59 -2.72535 2.35365 0
M  V30 20035 C 1860.44 -2.33358 3.84531 0
M  V30 20036 C 1861.76 -3.74656 2.30914 0
M  V30 20037 H 1858.88 -0.540587 0.500934 0
M  V30 20038 H 1861.52 -0.832335 1.70799 0
M  V30 20039 H 1859.67 -3.28674 2.07137 0
M  V30 20040 H 1861.34 -1.828 4.23535 0
M  V30 20041 H 1859.58 -1.65508 4.00986 0
M  V30 20042 H 1860.26 -3.21832 4.48473 0
M  V30 20043 H 1862.73 -3.28117 2.55888 0
M  V30 20044 H 1861.61 -4.58729 3.01428 0
M  V30 20045 H 1861.87 -4.22047 1.31639 0
M  V30 20046 N 1860.93 -1.25042 -0.959279 0
M  V30 20047 C 1861.89 -1.05107 -2.03679 0
M  V30 20048 C 1862.89 -0.0054691 -1.60799 0
M  V30 20049 O 1864.08 -0.247225 -1.72437 0
M  V30 20050 C 1861.21 -0.594881 -3.35669 0
M  V30 20051 H 1862.41 -2.00753 -2.22796 0
M  V30 20052 H 1859.96 -1.07384 -1.13571 0
M  V30 20053 H 1860.69 0.364387 -3.22246 0
M  V30 20054 H 1860.48 -1.34966 -3.68139 0
M  V30 20055 H 1861.97 -0.476698 -4.1487 0
M  V30 20056 N 1862.41 1.16121 -1.06553 0
M  V30 20057 C 1863.65 1.86991 -0.784989 0
M  V30 20058 C 1863.99 1.81645 0.686919 0
M  V30 20059 O 1863.26 1.23394 1.50347 0
M  V30 20060 C 1863.54 3.36448 -1.28355 0
M  V30 20061 C 1863.4 3.5047 -2.81941 0
M  V30 20062 C 1864.72 4.30933 -0.893561 0
M  V30 20063 H 1861.83 0.678978 -0.286633 0
M  V30 20064 H 1864.48 1.36475 -1.32192 0
M  V30 20065 H 1862.63 3.796 -0.826796 0
M  V30 20066 H 1864.3 3.16237 -3.35845 0
M  V30 20067 H 1862.54 2.92294 -3.20541 0
M  V30 20068 H 1863.21 4.55443 -3.11891 0
M  V30 20069 H 1865.69 3.95696 -1.287 0
M  V30 20070 H 1864.56 5.3401 -1.26984 0
M  V30 20071 H 1864.83 4.41642 0.201274 0
M  V30 20072 N 1863.88 0.848487 1.3281 0
M  V30 20073 C 1864.79 0.291355 2.32784 0
M  V30 20074 C 1865.81 -0.587621 1.63777 0
M  V30 20075 O 1866.99 -0.489458 1.95362 0
M  V30 20076 C 1864.05 -0.51634 3.42834 0
M  V30 20077 C 1863.11 0.388046 4.27543 0
M  V30 20078 C 1862.35 -0.381197 5.32337 0
M  V30 20079 O 1862.57 -1.61186 5.47152 0
M  V30 20080 O 1861.5 0.2498 6.01381 0
M  V30 20081 H 1865.33 1.11947 2.82315 0
M  V30 20082 H 1862.91 0.611259 1.36323 0
M  V30 20083 H 1864.8 -0.974995 4.09966 0
M  V30 20084 H 1863.47 -1.32136 2.95503 0
M  V30 20085 H 1862.38 0.894745 3.63243 0
M  V30 20086 H 1863.71 1.15808 4.78382 0
M  V30 20087 N 1865.36 -1.4549 0.605832 0
M  V30 20088 C 1866.78 -1.57311 0.269339 0
M  V30 20089 C 1866.98 -1.59746 -1.22814 0
M  V30 20090 O 1866.03 -1.52682 -2.01108 0
M  V30 20091 C 1867.35 -2.85664 0.938963 0
M  V30 20092 C 1868.9 -2.99336 0.914717 0
M  V30 20093 C 1869.37 -4.30457 1.56432 0
M  V30 20094 N 1870.86 -4.37211 1.52973 0
M  V30 20095 C 1871.6 -5.37333 2.00152 0
M  V30 20096 N 1871.09 -6.44001 2.5541 0
M  V30 20097 N 1872.89 -5.28679 1.90931 0
M  V30 20098 H 1865.04 -1.42153 1.57817 0
M  V30 20099 H 1867.3 -0.679542 0.661004 0
M  V30 20100 H 1867.01 -2.89759 1.9933 0
M  V30 20101 H 1866.88 -3.7437 0.461178 0
M  V30 20102 H 1869.27 -2.94809 -0.131069 0
M  V30 20103 H 1869.35 -2.12045 1.43075 0
M  V30 20104 H 1868.99 -4.35742 2.60942 0
M  V30 20105 H 1868.92 -5.16561 1.02332 0
M  V30 20106 H 1871.41 -3.60733 1.12605 0
M  V30 20107 H 1871.73 -7.16644 2.89208 0
M  V30 20108 H 1870.07 -6.44757 2.59448 0
M  V30 20109 H 1873.26 -4.44253 1.47502 0
M  V30 20110 H 1873.43 -6.06559 2.28013 0
M  V30 20111 N 1866.84 -0.344893 -1.5378 0
M  V30 20112 C 1867.77 0.503579 -2.28005 0
M  V30 20113 C 1868.75 1.10149 -1.29619 0
M  V30 20114 O 1869.94 1.12263 -1.58463 0
M  V30 20115 C 1867.07 1.65398 -3.05386 0
M  V30 20116 C 1866.02 1.18434 -4.11288 0
M  V30 20117 C 1865.35 2.42336 -4.76631 0
M  V30 20118 C 1866.65 0.283853 -5.21528 0
M  V30 20119 H 1868.34 -0.115619 -2.99177 0
M  V30 20120 H 1865.89 -0.0570472 -1.43887 0
M  V30 20121 H 1867.84 2.25401 -3.56051 0
M  V30 20122 H 1866.56 2.3001 -2.31869 0
M  V30 20123 H 1865.22 0.607115 -3.61538 0
M  V30 20124 H 1864.87 3.05358 -3.99707 0
M  V30 20125 H 1864.57 2.11594 -5.4818 0
M  V30 20126 H 1866.09 3.03063 -5.3008 0
M  V30 20127 H 1867.51 0.790766 -5.6782 0
M  V30 20128 H 1865.91 0.0682509 -6.00061 0
M  V30 20129 H 1866.98 -0.679653 -4.80113 0
M  V30 20130 N 1868.32 1.57428 -0.0735454 0
M  V30 20131 C 1869.27 2.12821 0.893071 0
M  V30 20132 C 1870.24 1.04117 1.29418 0
M  V30 20133 O 1871.42 1.31789 1.37972 0
M  V30 20134 C 1868.56 2.69569 2.15468 0
M  V30 20135 C 1867.67 3.92436 1.80605 0
M  V30 20136 C 1866.81 4.37421 3.01391 0
M  V30 20137 C 1865.85 5.52931 2.62553 0
M  V30 20138 N 1864.98 5.92866 3.76104 0
M  V30 20139 H 1869.82 2.95113 0.413823 0
M  V30 20140 H 1867.36 1.45834 0.192613 0
M  V30 20141 H 1869.32 3.0058 2.89323 0
M  V30 20142 H 1867.95 1.9004 2.6093 0
M  V30 20143 H 1867 3.67876 0.968068 0
M  V30 20144 H 1868.31 4.76327 1.48033 0
M  V30 20145 H 1867.47 4.70102 3.83522 0
M  V30 20146 H 1866.21 3.52386 3.37158 0
M  V30 20147 H 1865.21 5.19899 1.78844 0
M  V30 20148 H 1866.44 6.39698 2.27954 0
M  V30 20149 H 1864.38 5.10781 4.11629 0
M  V30 20150 H 1864.3 6.71502 3.47305 0
M  V30 20151 H 1865.57 6.30171 4.58808 0
M  V30 20152 N 1869.8 -0.200022 1.56326 0
M  V30 20153 C 1870.71 -1.26847 1.9735 0
M  V30 20154 C 1871.72 -1.50081 0.880432 0
M  V30 20155 O 1872.9 -1.62792 1.18578 0
M  V30 20156 C 1869.96 -2.59382 2.30048 0
M  V30 20157 C 1869.02 -2.44262 3.53036 0
M  V30 20158 C 1868.26 -3.70476 3.84165 0
M  V30 20159 O 1868.48 -4.74433 3.16654 0
M  V30 20160 O 1867.41 -3.663 4.77606 0
M  V30 20161 H 1871.24 -0.950324 2.88449 0
M  V30 20162 H 1868.83 -0.404628 1.43816 0
M  V30 20163 H 1870.71 -3.37616 2.52177 0
M  V30 20164 H 1869.38 -2.90833 1.42119 0
M  V30 20165 H 1868.29 -1.64154 3.36161 0
M  V30 20166 H 1869.62 -2.17744 4.41416 0
M  V30 20167 N 1871.27 -1.50505 -0.467553 0
M  V30 20168 C 1872.5 -1.65193 -1.24076 0
M  V30 20169 C 1872.91 -0.336102 -1.86191 0
M  V30 20170 O 1872.26 0.692299 -1.70156 0
M  V30 20171 C 1872.32 -2.68798 -2.38721 0
M  V30 20172 C 1871.98 -4.12256 -1.97216 0
M  V30 20173 C 1872.98 -4.98012 -1.49267 0
M  V30 20174 C 1870.66 -4.58192 -2.05829 0
M  V30 20175 C 1872.66 -6.27753 -1.10477 0
M  V30 20176 C 1870.34 -5.87938 -1.66651 0
M  V30 20177 C 1871.34 -6.72544 -1.19053 0
M  V30 20178 O 1871.03 -7.99867 -0.804197 0
M  V30 20179 H 1870.76 -0.55823 -0.381254 0
M  V30 20180 H 1873.32 -1.97502 -0.564089 0
M  V30 20181 H 1871.55 -2.31739 -3.09571 0
M  V30 20182 H 1873.24 -2.7267 -3.00675 0
M  V30 20183 H 1874 -4.63737 -1.42031 0
M  V30 20184 H 1869.88 -3.92482 -2.41825 0
M  V30 20185 H 1873.42 -6.93743 -0.732554 0
M  V30 20186 H 1869.32 -6.21733 -1.73546 0
M  V30 20187 H 1870.09 -8.13168 -0.932733 0
M  V30 20188 N 1872.75 0.720973 -1.40142 0
M  V30 20189 C 1873.98 1.51519 -1.41622 0
M  V30 20190 C 1874.4 1.88093 -0.0162669 0
M  V30 20191 O 1873.76 1.52895 0.974307 0
M  V30 20192 C 1873.81 2.77041 -2.30826 0
M  V30 20193 O 1872.91 3.73532 -1.74779 0
M  V30 20194 H 1872.25 0.457034 -0.481681 0
M  V30 20195 H 1874.78 0.88837 -1.84307 0
M  V30 20196 H 1874.79 3.25628 -2.45826 0
M  V30 20197 H 1873.47 2.49755 -3.32558 0
M  V30 20198 H 1872.05 3.32356 -1.69097 0
M  V30 20199 N 1874.23 1.25549 0.952634 0
M  V30 20200 C 1875.14 1.07855 2.08337 0
M  V30 20201 C 1876.16 0.0151456 1.73993 0
M  V30 20202 O 1877.33 0.216498 2.00233 0
M  V30 20203 C 1874.4 0.701369 3.39532 0
M  V30 20204 C 1873.46 1.84293 3.8773 0
M  V30 20205 C 1872.69 1.48365 5.12663 0
M  V30 20206 O 1872.91 0.3802 5.69131 0
M  V30 20207 O 1871.85 2.31452 5.5562 0
M  V30 20208 H 1875.67 2.02688 2.26167 0
M  V30 20209 H 1873.26 1.04506 1.06765 0
M  V30 20210 H 1875.14 0.503231 4.18384 0
M  V30 20211 H 1873.82 -0.217671 3.22967 0
M  V30 20212 H 1872.72 2.09595 3.09872 0
M  V30 20213 H 1874.06 2.74129 4.08796 0
M  V30 20214 N 1875.71 -1.15554 1.07168 0
M  V30 20215 C 1876.94 -1.90182 0.81477 0
M  V30 20216 C 1877.35 -1.77914 -0.631829 0
M  V30 20217 O 1876.71 -1.1298 -1.43324 0
M  V30 20218 C 1876.76 -3.40593 1.21155 0
M  V30 20219 O 1876.48 -3.52504 2.60139 0
M  V30 20220 C 1877.98 -4.32248 0.983675 0
M  V30 20221 H 1875.2 -0.602804 0.294735 0
M  V30 20222 H 1877.75 -1.46419 1.42764 0
M  V30 20223 H 1875.9 -3.82026 0.643041 0
M  V30 20224 H 1876.31 -4.45839 2.76275 0
M  V30 20225 H 1877.79 -5.3621 1.31084 0
M  V30 20226 H 1878.27 -4.39127 -0.0801022 0
M  V30 20227 H 1878.87 -3.96556 1.537 0
M  V30 20228 N 1877.19 -0.855519 -1.32358 0
M  V30 20229 C 1878.1 -0.303696 -2.32626 0
M  V30 20230 C 1879.11 0.578927 -1.64087 0
M  V30 20231 O 1880.29 0.479091 -1.95619 0
M  V30 20232 C 1877.35 0.498152 -3.43103 0
M  V30 20233 C 1876.42 -0.410714 -4.27331 0
M  V30 20234 C 1875.65 0.35296 -5.32532 0
M  V30 20235 O 1875.87 1.58282 -5.47999 0
M  V30 20236 O 1874.81 -0.281689 -6.0124 0
M  V30 20237 H 1878.63 -1.13443 -2.81717 0
M  V30 20238 H 1876.22 -0.618479 -1.35997 0
M  V30 20239 H 1878.1 0.95324 -4.10477 0
M  V30 20240 H 1876.77 1.30567 -2.96199 0
M  V30 20241 H 1875.68 -0.913997 -3.62763 0
M  V30 20242 H 1877.01 -1.18344 -4.77761 0
M  V30 20243 N 1878.67 1.45167 -0.61354 0
M  V30 20244 C 1879.61 2.30575 0.101811 0
M  V30 20245 C 1880.58 1.42455 0.85416 0
M  V30 20246 O 1881.77 1.71378 0.838711 0
M  V30 20247 C 1878.91 3.27459 1.08926 0
M  V30 20248 C 1878.02 4.30682 0.337164 0
M  V30 20249 C 1877.16 5.1467 1.31486 0
M  V30 20250 C 1876.19 6.09616 0.550918 0
M  V30 20251 N 1875.33 6.86363 1.4782 0
M  V30 20252 H 1880.17 2.9121 -0.632495 0
M  V30 20253 H 1877.71 1.43494 -0.323705 0
M  V30 20254 H 1879.67 3.82101 1.67495 0
M  V30 20255 H 1878.3 2.68564 1.79091 0
M  V30 20256 H 1877.35 3.78653 -0.364144 0
M  V30 20257 H 1878.66 4.98129 -0.258629 0
M  V30 20258 H 1877.81 5.73742 1.97243 0
M  V30 20259 H 1876.55 4.47255 1.94458 0
M  V30 20260 H 1875.56 5.49668 -0.120251 0
M  V30 20261 H 1876.78 6.7906 -0.07384 0
M  V30 20262 H 1874.73 6.21632 2.09545 0
M  V30 20263 H 1874.65 7.50183 0.935989 0
M  V30 20264 H 1875.91 7.49972 2.12516 0
M  V30 20265 N 1880.14 0.353044 1.53595 0
M  V30 20266 C 1881.05 -0.507548 2.29044 0
M  V30 20267 C 1882.07 -1.10364 1.34521 0
M  V30 20268 O 1883.25 -1.11728 1.67567 0
M  V30 20269 C 1880.31 -1.63799 3.05566 0
M  V30 20270 C 1879.37 -1.07071 4.15733 0
M  V30 20271 C 1878.6 -2.14728 4.88597 0
M  V30 20272 O 1878.83 -3.35619 4.61211 0
M  V30 20273 O 1877.76 -1.78489 5.74826 0
M  V30 20274 H 1881.59 0.10606 3.03515 0
M  V30 20275 H 1879.17 0.117799 1.48935 0
M  V30 20276 H 1881.05 -2.2955 3.5339 0
M  V30 20277 H 1879.73 -2.23723 2.33944 0
M  V30 20278 H 1878.64 -0.37746 3.72191 0
M  V30 20279 H 1879.97 -0.516205 4.89486 0
M  V30 20280 N 1881.62 -1.57387 0.0818932 0
M  V30 20281 C 1882.58 -2.12162 -0.86718 0
M  V30 20282 C 1883.58 -1.04788 -1.21967 0
M  V30 20283 O 1884.77 -1.30733 -1.15128 0
M  V30 20284 C 1881.91 -2.63132 -2.16736 0
M  V30 20285 H 1883.1 -2.9733 -0.391788 0
M  V30 20286 H 1880.65 -1.55406 -0.166944 0
M  V30 20287 H 1881.39 -1.81446 -2.6879 0
M  V30 20288 H 1881.17 -3.41625 -1.92445 0
M  V30 20289 H 1882.66 -3.05549 -2.84657 0
M  V30 20290 N 1883.1 0.191729 -1.56429 0
M  V30 20291 C 1884.51 0.756099 -1.70705 0
M  V30 20292 C 1884.86 1.83703 -0.689029 0
M  V30 20293 O 1883.99 2.15852 0.153863 0
M  V30 20294 C 1884.58 1.37827 -3.09498 0
M  V30 20295 C 1883.14 1.88968 -3.25527 0
M  V30 20296 C 1882.29 0.76089 -2.66657 0
M  V30 20297 H 1885.24 -0.0333918 -1.58665 0
M  V30 20298 H 1885.26 2.24771 -3.07015 0
M  V30 20299 H 1884.77 0.591316 -3.83569 0
M  V30 20300 H 1882.87 2.70372 -2.56378 0
M  V30 20301 H 1882.99 2.04916 -4.33066 0
M  V30 20302 H 1881.35 1.17606 -2.25923 0
M  V30 20303 H 1882.13 -0.0138776 -3.43297 0
M  V30 20304 N 1884.58 1.50751 0.459565 0
M  V30 20305 C 1885.82 1.63522 1.20963 0
M  V30 20306 C 1886.18 0.33668 1.89431 0
M  V30 20307 O 1885.47 -0.666172 1.79646 0
M  V30 20308 C 1885.67 2.7612 2.26919 0
M  V30 20309 C 1885.49 4.16798 1.68848 0
M  V30 20310 C 1884.26 4.83044 1.48313 0
M  V30 20311 C 1886.46 5.00651 1.177 0
M  V30 20312 N 1884.44 6.07902 0.856055 0
M  V30 20313 C 1885.82 6.16327 0.673854 0
M  V30 20314 C 1887.87 4.86341 1.06664 0
M  V30 20315 C 1886.57 7.19265 0.0712186 0
M  V30 20316 C 1888.6 5.89466 0.477928 0
M  V30 20317 C 1887.96 7.04398 -0.0147835 0
M  V30 20318 H 1884.06 0.652437 0.431103 0
M  V30 20319 H 1886.64 1.87909 0.509752 0
M  V30 20320 H 1884.82 2.53436 2.94321 0
M  V30 20321 H 1886.55 2.78188 2.93927 0
M  V30 20322 H 1883.3 4.40532 1.73864 0
M  V30 20323 H 1883.73 6.74675 0.560599 0
M  V30 20324 H 1888.37 3.97758 1.43348 0
M  V30 20325 H 1886.09 8.07514 -0.307801 0
M  V30 20326 H 1889.67 5.80459 0.394746 0
M  V30 20327 H 1888.55 7.82831 -0.463183 0
M  V30 20328 N 1886.06 -0.713531 1.40522 0
M  V30 20329 C 1886.99 -1.83847 1.36868 0
M  V30 20330 C 1888 -1.60482 0.273746 0
M  V30 20331 O 1889.19 -1.70318 0.534238 0
M  V30 20332 C 1886.29 -3.20288 1.10764 0
M  V30 20333 C 1885.46 -3.70833 2.31952 0
M  V30 20334 C 1884.52 -4.85893 2.01977 0
M  V30 20335 O 1883.55 -4.98438 2.74861 0
M  V30 20336 N 1884.75 -5.7184 0.998985 0
M  V30 20337 H 1887.51 -1.87479 2.3382 0
M  V30 20338 H 1885.08 -0.895151 1.34902 0
M  V30 20339 H 1887.07 -3.94861 0.886932 0
M  V30 20340 H 1885.64 -3.11791 0.224726 0
M  V30 20341 H 1884.86 -2.87368 2.6984 0
M  V30 20342 H 1886.15 -4.01339 3.12738 0
M  V30 20343 H 1885.54 -5.64317 0.395392 0
M  V30 20344 H 1884.1 -6.46388 0.838178 0
M  V30 20345 N 1887.53 -1.26053 -0.945962 0
M  V30 20346 C 1888.78 -1.10706 -1.68603 0
M  V30 20347 C 1889.1 0.350167 -1.9244 0
M  V30 20348 O 1890.3 0.624224 -2.64227 0
M  V30 20349 C 1888.76 -1.93306 -3.0358 0
M  V30 20350 C 1888.37 -3.43574 -2.87508 0
M  V30 20351 C 1890.11 -1.86555 -3.8131 0
M  V30 20352 C 1888.02 -4.18438 -4.17928 0
M  V30 20353 H 1886.95 -0.410689 -0.632337 0
M  V30 20354 H 1889.6 -1.50322 -1.0524 0
M  V30 20355 H 1887.98 -1.4652 -3.67897 0
M  V30 20356 H 1889.15 -3.98096 -2.3207 0
M  V30 20357 H 1887.47 -3.51511 -2.23224 0
M  V30 20358 H 1890.07 -2.39775 -4.77925 0
M  V30 20359 H 1890.41 -0.83525 -4.07835 0
M  V30 20360 H 1890.94 -2.31138 -3.23759 0
M  V30 20361 H 1887.68 -5.21917 -3.96589 0
M  V30 20362 H 1887.2 -3.68698 -4.73098 0
M  V30 20363 H 1888.88 -4.26626 -4.86415 0
M  V30 20364 N 1889.01 1.14984 -1.07779 0
M  V30 20365 C 1889.94 2.19494 -0.659934 0
M  V30 20366 C 1890.96 1.60201 0.289756 0
M  V30 20367 O 1892.15 1.78328 0.0784004 0
M  V30 20368 C 1889.25 3.38862 0.0506161 0
M  V30 20369 C 1888.42 4.27693 -0.916355 0
M  V30 20370 C 1887.48 5.25642 -0.242303 0
M  V30 20371 O 1886.5 5.62282 -0.884715 0
M  V30 20372 N 1887.71 5.7164 1.01033 0
M  V30 20373 H 1890.47 2.5596 -1.55899 0
M  V30 20374 H 1888.03 1.30143 -0.963043 0
M  V30 20375 H 1890.02 4.01444 0.512331 0
M  V30 20376 H 1888.59 3.00775 0.851671 0
M  V30 20377 H 1887.81 3.62145 -1.55708 0
M  V30 20378 H 1889.1 4.83913 -1.57182 0
M  V30 20379 H 1888.5 5.43991 1.55212 0
M  V30 20380 H 1887.06 6.36241 1.41565 0
M  V30 20381 N 1890.49 0.862526 1.31902 0
M  V30 20382 C 1891.4 0.316029 2.32462 0
M  V30 20383 C 1892.42 -0.570217 1.64391 0
M  V30 20384 O 1893.59 -0.46871 1.9587 0
M  V30 20385 C 1890.66 -0.479949 3.43362 0
M  V30 20386 C 1889.72 0.43337 4.27107 0
M  V30 20387 C 1888.95 -0.324714 5.32711 0
M  V30 20388 O 1889.17 -1.55373 5.48831 0
M  V30 20389 O 1888.11 0.313571 6.01083 0
M  V30 20390 H 1891.93 1.14935 2.81111 0
M  V30 20391 H 1889.52 0.625683 1.35667 0
M  V30 20392 H 1891.4 -0.931458 4.10977 0
M  V30 20393 H 1890.08 -1.28994 2.96888 0
M  V30 20394 H 1888.98 0.933222 3.62273 0
M  V30 20395 H 1890.32 1.20876 4.77127 0
M  V30 20396 N 1891.97 -1.4484 0.62123 0
M  V30 20397 C 1893.2 -2.065 0.128561 0
M  V30 20398 C 1893.61 -1.46351 -1.19277 0
M  V30 20399 O 1892.97 -0.582692 -1.72948 0
M  V30 20400 C 1893.02 -3.615 -0.00297622 0
M  V30 20401 O 1892.74 -4.19407 1.26609 0
M  V30 20402 C 1894.24 -4.40174 -0.525505 0
M  V30 20403 H 1891.46 -0.666783 0.0751128 0
M  V30 20404 H 1894.01 -1.85868 0.852829 0
M  V30 20405 H 1892.16 -3.81427 -0.677635 0
M  V30 20406 H 1892.57 -5.12738 1.10454 0
M  V30 20407 H 1894.05 -5.49085 -0.566585 0
M  V30 20408 H 1894.53 -4.10918 -1.55057 0
M  V30 20409 H 1895.13 -4.25143 0.115568 0
M  V30 20410 N 1893.45 -0.361184 -1.53405 0
M  V30 20411 C 1894.41 0.475026 -2.24223 0
M  V30 20412 C 1895.41 1.01331 -1.24855 0
M  V30 20413 O 1896.6 0.899756 -1.49164 0
M  V30 20414 C 1893.73 1.6635 -2.97557 0
M  V30 20415 H 1894.92 -0.144595 -2.99551 0
M  V30 20416 H 1892.48 -0.112802 -1.55892 0
M  V30 20417 H 1893.21 2.32133 -2.26461 0
M  V30 20418 H 1893 1.28454 -3.70462 0
M  V30 20419 H 1894.49 2.2562 -3.51405 0
M  V30 20420 N 1894.92 1.57341 -0.0902386 0
M  V30 20421 C 1896.34 1.8145 0.439638 0
M  V30 20422 C 1896.69 1.00551 1.68475 0
M  V30 20423 O 1895.81 0.233442 2.15137 0
M  V30 20424 C 1896.41 3.29113 0.804384 0
M  V30 20425 C 1894.97 3.54003 1.27903 0
M  V30 20426 C 1894.11 2.7595 0.27328 0
M  V30 20427 H 1897.06 1.55527 -0.315738 0
M  V30 20428 H 1897.08 3.4217 1.66432 0
M  V30 20429 H 1896.6 3.87966 -0.102017 0
M  V30 20430 H 1894.7 3.00475 2.20331 0
M  V30 20431 H 1894.81 4.62662 1.24422 0
M  V30 20432 H 1893.17 2.43271 0.754419 0
M  V30 20433 H 1893.96 3.3755 -0.625715 0
M  V30 20434 N 1896.4 -0.183431 1.56529 0
M  V30 20435 C 1897.81 -0.747035 1.71103 0
M  V30 20436 C 1898.16 -1.83335 0.698762 0
M  V30 20437 O 1897.29 -2.15931 -0.142414 0
M  V30 20438 C 1897.88 -1.36183 3.10225 0
M  V30 20439 C 1896.44 -1.87239 3.26525 0
M  V30 20440 C 1895.59 -0.746737 2.67056 0
M  V30 20441 H 1898.54 0.0418058 1.58645 0
M  V30 20442 H 1898.56 -2.2314 3.08203 0
M  V30 20443 H 1898.07 -0.570966 3.83877 0
M  V30 20444 H 1896.18 -2.69008 2.57809 0
M  V30 20445 H 1896.29 -2.02616 4.34147 0
M  V30 20446 H 1894.65 -1.16406 2.26543 0
M  V30 20447 H 1895.44 0.0320833 3.43285 0
M  V30 20448 N 1897.88 -1.50992 -0.451564 0
M  V30 20449 C 1899.11 -1.67021 -1.22958 0
M  V30 20450 C 1899.53 -0.36115 -1.846 0
M  V30 20451 O 1898.89 0.677193 -1.68178 0
M  V30 20452 C 1898.94 -2.77744 -2.29979 0
M  V30 20453 O 1898.04 -2.40356 -3.35116 0
M  V30 20454 H 1897.38 -0.557369 -0.360882 0
M  V30 20455 H 1899.91 -1.97479 -0.535073 0
M  V30 20456 H 1899.92 -3.01406 -2.74988 0
M  V30 20457 H 1898.6 -3.72742 -1.84488 0
M  V30 20458 H 1897.17 -2.27214 -2.95683 0
M  V30 20459 N 1899.36 0.706069 -1.40899 0
M  V30 20460 C 1900.58 1.50008 -1.43221 0
M  V30 20461 C 1901.01 1.88065 -0.0362158 0
M  V30 20462 O 1900.37 1.5392 0.958036 0
M  V30 20463 C 1900.41 2.74578 -2.33751 0
M  V30 20464 O 1899.52 3.71657 -1.78731 0
M  V30 20465 H 1898.86 0.451899 -0.486501 0
M  V30 20466 H 1901.39 0.868772 -1.85239 0
M  V30 20467 H 1901.4 3.23002 -2.49266 0
M  V30 20468 H 1900.07 2.46214 -3.35189 0
M  V30 20469 H 1898.65 3.30544 -1.72612 0
M  V30 20470 N 1900.84 1.26553 0.939264 0
M  V30 20471 C 1902.08 1.13385 1.68865 0
M  V30 20472 C 1902.44 -0.319227 1.89733 0
M  V30 20473 O 1901.73 -1.23093 1.46829 0
M  V30 20474 C 1901.92 1.83848 3.06488 0
M  V30 20475 C 1901.75 3.35858 2.99048 0
M  V30 20476 C 1900.52 4.05152 3.0196 0
M  V30 20477 C 1902.72 4.3202 2.7904 0
M  V30 20478 N 1900.7 5.4382 2.84839 0
M  V30 20479 C 1902.07 5.57876 2.70508 0
M  V30 20480 C 1904.13 4.22248 2.63838 0
M  V30 20481 C 1902.83 6.75076 2.48325 0
M  V30 20482 C 1904.86 5.39157 2.4303 0
M  V30 20483 C 1904.22 6.63962 2.35231 0
M  V30 20484 H 1900.32 0.469707 0.62522 0
M  V30 20485 H 1902.9 1.59865 1.11136 0
M  V30 20486 H 1901.07 1.3984 3.62353 0
M  V30 20487 H 1902.81 1.63286 3.70297 0
M  V30 20488 H 1899.56 3.56528 3.11745 0
M  V30 20489 H 1899.99 6.16638 2.7944 0
M  V30 20490 H 1904.63 3.2649 2.68634 0
M  V30 20491 H 1902.35 7.70929 2.4227 0
M  V30 20492 H 1905.93 5.33468 2.3217 0
M  V30 20493 H 1904.81 7.529 2.19344 0
M  V30 20494 N 1902.31 -1.14411 1.08387 0
M  V30 20495 C 1903.73 -1.67013 0.83448 0
M  V30 20496 C 1904.08 -1.85509 -0.638802 0
M  V30 20497 O 1903.2 -1.56611 -1.49338 0
M  V30 20498 C 1903.8 -3.03377 1.50825 0
M  V30 20499 C 1902.36 -3.53013 1.3061 0
M  V30 20500 C 1901.5 -2.28494 1.57117 0
M  V30 20501 H 1904.45 -0.984794 1.24449 0
M  V30 20502 H 1904.47 -3.68824 0.935352 0
M  V30 20503 H 1903.99 -2.89883 2.5805 0
M  V30 20504 H 1902.09 -3.7173 0.254538 0
M  V30 20505 H 1902.2 -4.33799 2.0336 0
M  V30 20506 H 1900.56 -2.34558 0.99271 0
M  V30 20507 H 1901.35 -2.17576 2.65547 0
M  V30 20508 N 1903.79 -0.869509 -1.31443 0
M  V30 20509 C 1904.72 -0.282169 -2.27456 0
M  V30 20510 C 1905.74 0.55453 -1.53065 0
M  V30 20511 O 1906.93 0.376597 -1.74482 0
M  V30 20512 C 1904.03 0.618652 -3.33206 0
M  V30 20513 C 1903.2 -0.185505 -4.37006 0
M  V30 20514 C 1902.26 0.643383 -5.22252 0
M  V30 20515 O 1901.28 0.0715827 -5.69155 0
M  V30 20516 N 1902.49 1.95545 -5.46573 0
M  V30 20517 H 1905.25 -1.10726 -2.78496 0
M  V30 20518 H 1902.81 -0.730947 -1.4446 0
M  V30 20519 H 1904.8 1.17886 -3.8715 0
M  V30 20520 H 1903.37 1.34442 -2.82213 0
M  V30 20521 H 1902.59 -0.927156 -3.83142 0
M  V30 20522 H 1903.88 -0.73731 -5.03429 0
M  V30 20523 H 1903.28 2.44315 -5.10222 0
M  V30 20524 H 1901.84 2.46345 -6.03455 0
M  V30 20525 N 1905.27 1.44508 -0.628902 0
M  V30 20526 C 1906.52 2.02365 -0.132699 0
M  V30 20527 C 1906.85 1.4934 1.24142 0
M  V30 20528 O 1906.12 0.676567 1.82354 0
M  V30 20529 C 1906.41 3.5991 -0.11694 0
M  V30 20530 C 1906.26 4.23223 -1.52324 0
M  V30 20531 C 1907.58 4.36527 0.559696 0
M  V30 20532 H 1904.7 0.735323 -0.049695 0
M  V30 20533 H 1907.34 1.72106 -0.80495 0
M  V30 20534 H 1905.49 3.8582 0.455515 0
M  V30 20535 H 1907.16 4.08427 -2.14441 0
M  V30 20536 H 1905.41 3.80803 -2.07777 0
M  V30 20537 H 1906.08 5.32225 -1.46427 0
M  V30 20538 H 1908.55 4.16036 0.0728971 0
M  V30 20539 H 1907.43 5.46238 0.539902 0
M  V30 20540 H 1907.69 4.10968 1.62965 0
M  V30 20541 N 1906.75 0.369315 1.53212 0
M  V30 20542 C 1908 -0.218776 2.00912 0
M  V30 20543 C 1908.32 -1.48977 1.25821 0
M  V30 20544 O 1907.59 -1.92325 0.372538 0
M  V30 20545 H 1906.17 -0.0838334 0.742281 0
M  V30 20546 H 1908.83 0.496408 1.88472 0
M  V30 20547 H 1907.93 -0.443127 3.08938 0
M  V30 20548 N 1908.23 -1.57291 0.0985816 0
M  V30 20549 C 1909.64 -1.575 -0.258064 0
M  V30 20550 C 1909.84 -1.10997 -1.68172 0
M  V30 20551 O 1908.9 -0.78802 -2.39889 0
M  V30 20552 C 1910.21 -3.00669 -0.0433215 0
M  V30 20553 C 1911.76 -3.12804 -0.110802 0
M  V30 20554 C 1912.24 -4.57937 0.0759907 0
M  V30 20555 N 1913.73 -4.63195 0.021273 0
M  V30 20556 C 1914.46 -5.73227 0.141 0
M  V30 20557 N 1913.96 -6.9208 0.315756 0
M  V30 20558 N 1915.75 -5.6204 0.0820222 0
M  V30 20559 H 1907.9 -1.85826 1.02871 0
M  V30 20560 H 1910.16 -0.857869 0.403441 0
M  V30 20561 H 1909.87 -3.38903 0.940103 0
M  V30 20562 H 1909.74 -3.6896 -0.784124 0
M  V30 20563 H 1912.13 -2.7444 -1.08473 0
M  V30 20564 H 1912.21 -2.47098 0.661548 0
M  V30 20565 H 1911.86 -4.96995 1.04681 0
M  V30 20566 H 1911.79 -5.21708 -0.716096 0
M  V30 20567 H 1914.28 -3.77737 -0.111114 0
M  V30 20568 H 1914.59 -7.71772 0.398531 0
M  V30 20569 H 1912.94 -6.94111 0.351469 0
M  V30 20570 H 1916.13 -4.6807 -0.0533968 0
M  V30 20571 H 1916.3 -6.47753 0.178778 0
M  V30 20572 N 1909.71 0.175127 -1.56624 0
M  V30 20573 C 1910.95 0.89369 -1.82047 0
M  V30 20574 C 1911.28 1.82061 -0.675831 0
M  V30 20575 O 1910.56 1.91808 0.322453 0
M  V30 20576 C 1910.84 1.69266 -3.17838 0
M  V30 20577 C 1910.7 0.789122 -4.42824 0
M  V30 20578 C 1912.01 2.66115 -3.50529 0
M  V30 20579 H 1909.13 0.323454 -0.662228 0
M  V30 20580 H 1911.78 0.160077 -1.89324 0
M  V30 20581 H 1909.93 2.31808 -3.11765 0
M  V30 20582 H 1911.6 0.17687 -4.60961 0
M  V30 20583 H 1909.84 0.0969508 -4.33692 0
M  V30 20584 H 1910.51 1.38358 -5.34379 0
M  V30 20585 H 1912.99 2.137 -3.57031 0
M  V30 20586 H 1911.86 3.19087 -4.46626 0
M  V30 20587 H 1912.12 3.4613 -2.75038 0
M  V30 20588 N 1911.18 1.5123 0.44355 0
M  V30 20589 C 1912.09 1.74928 1.56324 0
M  V30 20590 C 1913.11 0.633267 1.62067 0
M  V30 20591 O 1914.29 0.914808 1.79425 0
M  V30 20592 C 1911.35 1.86361 2.92354 0
M  V30 20593 C 1910.41 3.10196 2.96778 0
M  V30 20594 C 1909.64 3.21073 4.26319 0
M  V30 20595 O 1909.87 2.38043 5.18355 0
M  V30 20596 O 1908.8 4.14008 4.369 0
M  V30 20597 H 1912.63 2.69898 1.39243 0
M  V30 20598 H 1910.21 1.35656 0.62592 0
M  V30 20599 H 1912.09 1.95901 3.73096 0
M  V30 20600 H 1910.77 0.945775 3.09575 0
M  V30 20601 H 1909.68 3.06138 2.15013 0
M  V30 20602 H 1911.01 4.01648 2.84499 0
M  V30 20603 N 1912.66 -0.698586 1.41271 0
M  V30 20604 C 1913.91 -1.45861 1.40466 0
M  V30 20605 C 1914.24 -1.94496 0.0127551 0
M  V30 20606 O 1913.49 -1.69692 -0.974843 0
M  V30 20607 C 1913.79 -2.688 2.35545 0
M  V30 20608 C 1913.46 -2.38839 3.82449 0
M  V30 20609 C 1912.12 -2.30378 4.22468 0
M  V30 20610 C 1914.47 -2.14065 4.75211 0
M  V30 20611 C 1911.8 -1.95236 5.53263 0
M  V30 20612 C 1914.15 -1.80432 6.06323 0
M  V30 20613 C 1912.81 -1.70465 6.45367 0
M  V30 20614 H 1912.08 -0.533744 0.514002 0
M  V30 20615 H 1914.73 -0.798723 1.74048 0
M  V30 20616 H 1913.04 -3.39708 1.95207 0
M  V30 20617 H 1914.73 -3.26933 2.32197 0
M  V30 20618 H 1911.32 -2.46317 3.50751 0
M  V30 20619 H 1915.51 -2.19548 4.45098 0
M  V30 20620 H 1910.76 -1.86069 5.82399 0
M  V30 20621 H 1914.94 -1.60281 6.77704 0
M  V30 20622 H 1912.56 -1.43002 7.46629 0
M  V30 20623 N 1914.14 -1.27049 -0.93254 0
M  V30 20624 C 1915.56 -1.04349 -1.20762 0
M  V30 20625 C 1915.76 0.225981 -2.00229 0
M  V30 20626 O 1914.81 0.932788 -2.34639 0
M  V30 20627 C 1916.12 -2.28004 -1.96048 0
M  V30 20628 C 1917.67 -2.32993 -2.09006 0
M  V30 20629 C 1918.15 -3.56364 -2.87696 0
M  V30 20630 N 1919.64 -3.56892 -2.95266 0
M  V30 20631 C 1920.37 -4.49022 -3.56604 0
M  V30 20632 N 1919.87 -5.51451 -4.19374 0
M  V30 20633 N 1921.66 -4.36656 -3.53961 0
M  V30 20634 H 1913.81 -2.0857 -0.401516 0
M  V30 20635 H 1916.08 -0.917061 -0.240213 0
M  V30 20636 H 1915.78 -3.20386 -1.45072 0
M  V30 20637 H 1915.66 -2.32937 -2.96682 0
M  V30 20638 H 1918.04 -1.41119 -2.5917 0
M  V30 20639 H 1918.12 -2.32065 -1.07607 0
M  V30 20640 H 1917.77 -4.48571 -2.38216 0
M  V30 20641 H 1917.7 -3.54541 -3.89369 0
M  V30 20642 H 1920.19 -2.82812 -2.5065 0
M  V30 20643 H 1920.5 -6.17924 -4.64101 0
M  V30 20644 H 1918.85 -5.55298 -4.17934 0
M  V30 20645 H 1922.04 -3.55848 -3.04122 0
M  V30 20646 H 1922.21 -5.08647 -4.01475 0
M  V30 20647 N 1915.62 1.13835 -1.08993 0
M  V30 20648 C 1916.57 2.21179 -0.719905 0
M  V30 20649 C 1917.56 1.67118 0.277123 0
M  V30 20650 O 1918.77 1.79462 0.139054 0
M  V30 20651 H 1915.14 0.72067 -0.214799 0
M  V30 20652 H 1917.11 2.49654 -1.63448 0
M  V30 20653 C 1915.86 3.47368 -0.151794 0
M  V30 20654 H 1915.18 3.89302 -0.910172 0
M  V30 20655 H 1916.62 4.23943 0.0692336 0
M  V30 20656 C 1915.08 3.18024 1.11185 0
M  V30 20657 O 1915.61 3.36374 2.1958 0
M  V30 20658 N 1913.82 2.71938 1.0246 0
M  V30 20659 H 1913.37 2.57206 0.142456 0
M  V30 20660 H 1913.32 2.52679 1.87084 0
M  V30 20661 N 1917.1 0.876467 1.3098 0
M  V30 20662 C 1918.33 0.504582 2.00344 0
M  V30 20663 C 1918.73 -0.909186 1.65923 0
M  V30 20664 O 1918.08 -1.60812 0.887988 0
M  V30 20665 C 1918.14 0.589519 3.54634 0
M  V30 20666 C 1917.8 1.96607 4.12547 0
M  V30 20667 C 1918.8 2.9344 4.29172 0
M  V30 20668 C 1916.48 2.26914 4.48124 0
M  V30 20669 C 1918.48 4.18721 4.80574 0
M  V30 20670 C 1916.17 3.52443 4.99227 0
M  V30 20671 C 1917.16 4.48161 5.15403 0
M  V30 20672 O 1916.85 5.71464 5.65406 0
M  V30 20673 H 1916.58 0.194422 0.647438 0
M  V30 20674 H 1919.14 1.18126 1.68034 0
M  V30 20675 H 1917.37 -0.144102 3.86431 0
M  V30 20676 H 1919.06 0.230131 4.05247 0
M  V30 20677 H 1919.82 2.71335 4.01998 0
M  V30 20678 H 1915.7 1.53184 4.34805 0
M  V30 20679 H 1919.25 4.9344 4.93115 0
M  V30 20680 H 1915.14 3.74389 5.25836 0
M  V30 20681 H 1915.91 5.73727 5.83764 0
M  V30 20682 N 1918.57 -1.44173 0.636557 0
M  V30 20683 C 1919.81 -2.03874 0.146599 0
M  V30 20684 C 1920.18 -1.49026 -1.21059 0
M  V30 20685 O 1921.38 -2.00264 -1.79298 0
M  V30 20686 C 1919.65 -3.57131 0.138577 0
M  V30 20687 S 1921.21 -4.37867 -0.285968 0
M  V30 20688 H 1918.03 -0.708136 0.0637502 0
M  V30 20689 H 1920.63 -1.76479 0.841163 0
M  V30 20690 H 1919.33 -3.94555 1.12936 0
M  V30 20691 H 1918.86 -3.89145 -0.577061 0
M  V30 20692 H 1920.88 -4.72059 -1.52889 0
M  V30 20693 N 1920.05 -0.377435 -1.53014 0
M  V30 20694 C 1920.98 0.455103 -2.29022 0
M  V30 20695 C 1921.96 1.07375 -1.31926 0
M  V30 20696 O 1923.15 1.08877 -1.60809 0
M  V30 20697 C 1920.28 1.58883 -3.08826 0
M  V30 20698 C 1919.23 1.09683 -4.13707 0
M  V30 20699 C 1918.56 2.32172 -4.81664 0
M  V30 20700 C 1919.86 0.173165 -5.22013 0
M  V30 20701 H 1921.55 -0.179053 -2.98864 0
M  V30 20702 H 1919.1 -0.0875549 -1.43734 0
M  V30 20703 H 1921.05 2.17798 -3.60752 0
M  V30 20704 H 1919.77 2.2504 -2.36695 0
M  V30 20705 H 1918.43 0.530291 -3.62744 0
M  V30 20706 H 1918.08 2.96811 -4.06094 0
M  V30 20707 H 1917.78 1.99919 -5.52545 0
M  V30 20708 H 1919.31 2.91751 -5.3639 0
M  V30 20709 H 1920.72 0.670145 -5.6937 0
M  V30 20710 H 1919.12 -0.0590463 -6.00071 0
M  V30 20711 H 1920.19 -0.781339 -4.78564 0
M  V30 20712 N 1921.53 1.57237 -0.106922 0
M  V30 20713 C 1922.95 1.57634 0.249708 0
M  V30 20714 C 1923.15 1.11888 1.67581 0
M  V30 20715 O 1922.2 0.80073 2.39467 0
M  V30 20716 C 1923.52 3.00688 0.0273757 0
M  V30 20717 C 1925.06 3.12858 0.0942116 0
M  V30 20718 C 1925.54 4.5789 -0.100275 0
M  V30 20719 N 1927.03 4.63177 -0.045837 0
M  V30 20720 C 1927.76 5.73144 -0.171398 0
M  V30 20721 N 1927.26 6.91903 -0.352455 0
M  V30 20722 N 1929.05 5.61989 -0.111827 0
M  V30 20723 H 1921.2 1.85278 -1.03855 0
M  V30 20724 H 1923.47 0.855717 -0.407985 0
M  V30 20725 H 1923.17 3.38399 -0.958063 0
M  V30 20726 H 1923.05 3.6937 0.764546 0
M  V30 20727 H 1925.43 2.75012 1.07016 0
M  V30 20728 H 1925.52 2.46743 -0.674643 0
M  V30 20729 H 1925.16 4.96433 -1.07315 0
M  V30 20730 H 1925.09 5.22081 0.688418 0
M  V30 20731 H 1927.58 3.7779 0.0910806 0
M  V30 20732 H 1927.89 7.7155 -0.439454 0
M  V30 20733 H 1926.24 6.93915 -0.388274 0
M  V30 20734 H 1929.43 4.68091 0.0285732 0
M  V30 20735 H 1929.6 6.47649 -0.213127 0
M  V30 20736 N 1923.01 -0.166818 1.56715 0
M  V30 20737 C 1924.24 -0.896867 1.86118 0
M  V30 20738 C 1924.65 -1.76139 0.690784 0
M  V30 20739 O 1923.99 -1.80351 -0.349191 0
M  V30 20740 C 1924.05 -1.82064 3.09989 0
M  V30 20741 C 1923.72 -1.13527 4.42674 0
M  V30 20742 C 1924.71 -0.498585 5.17504 0
M  V30 20743 C 1922.4 -1.13069 4.89409 0
M  V30 20744 C 1924.39 0.13354 6.3726 0
M  V30 20745 C 1922.08 -0.494741 6.09094 0
M  V30 20746 C 1923.08 0.136265 6.82864 0
M  V30 20747 O 1922.76 0.762174 8.00279 0
M  V30 20748 H 1922.5 -0.265765 0.621567 0
M  V30 20749 H 1925.05 -0.170384 2.04692 0
M  V30 20750 H 1923.28 -2.58756 2.87372 0
M  V30 20751 H 1924.97 -2.42092 3.25801 0
M  V30 20752 H 1925.74 -0.494073 4.82477 0
M  V30 20753 H 1921.61 -1.61124 4.31926 0
M  V30 20754 H 1925.16 0.626661 6.9478 0
M  V30 20755 H 1921.06 -0.496852 6.43585 0
M  V30 20756 H 1921.82 0.66187 8.1582 0
M  V30 20757 N 1924.49 -1.51463 -0.435524 0
M  V30 20758 C 1925.9 -1.39679 -0.772145 0
M  V30 20759 C 1926.1 -0.480546 -1.95686 0
M  V30 20760 O 1925.16 0.063611 -2.5242 0
M  V30 20761 C 1926.47 -2.81742 -1.05082 0
M  V30 20762 C 1928.02 -2.90905 -1.15514 0
M  V30 20763 C 1928.49 -4.33879 -1.46674 0
M  V30 20764 N 1929.99 -4.36993 -1.53594 0
M  V30 20765 C 1930.72 -5.44653 -1.79279 0
M  V30 20766 N 1930.22 -6.6247 -2.02744 0
M  V30 20767 N 1932.01 -5.32135 -1.81076 0
M  V30 20768 H 1924.16 -2.09584 0.344699 0
M  V30 20769 H 1926.42 -0.943543 0.0918199 0
M  V30 20770 H 1926.13 -3.50789 -0.252975 0
M  V30 20771 H 1926 -3.21179 -1.97798 0
M  V30 20772 H 1928.39 -2.22054 -1.94361 0
M  V30 20773 H 1928.47 -2.54961 -0.20695 0
M  V30 20774 H 1928.12 -5.03279 -0.683541 0
M  V30 20775 H 1928.05 -4.67337 -2.42702 0
M  V30 20776 H 1930.54 -3.52054 -1.37356 0
M  V30 20777 H 1930.85 -7.40311 -2.21718 0
M  V30 20778 H 1929.19 -6.65582 -2.00063 0
M  V30 20779 H 1932.39 -4.39076 -1.62264 0
M  V30 20780 H 1932.56 -6.16118 -2.00756 0
M  V30 20781 N 1925.96 0.691085 -1.4164 0
M  V30 20782 C 1926.87 1.83467 -1.46209 0
M  V30 20783 C 1927.89 1.70397 -0.352267 0
M  V30 20784 O 1929.07 1.92234 -0.60068 0
M  V30 20785 C 1926.13 3.19485 -1.34648 0
M  V30 20786 C 1925.19 3.44631 -2.55984 0
M  V30 20787 C 1924.43 4.7416 -2.44964 0
M  V30 20788 O 1924.65 5.50955 -1.47664 0
M  V30 20789 O 1923.58 5.0019 -3.34804 0
M  V30 20790 H 1927.41 1.82568 -2.42698 0
M  V30 20791 H 1924.99 0.844729 -1.23226 0
M  V30 20792 H 1926.88 4.00684 -1.30501 0
M  V30 20793 H 1925.55 3.21058 -0.41276 0
M  V30 20794 H 1924.46 2.63345 -2.65707 0
M  V30 20795 H 1925.79 3.47877 -3.48199 0
M  V30 20796 N 1927.44 1.27542 0.925789 0
M  V30 20797 C 1928.72 1.04714 1.6521 0
M  V30 20798 C 1929.1 -0.417492 2.0693 0
M  V30 20799 O 1928.45 -1.40112 1.80502 0
M  V30 20800 C 1928.66 2.0105 2.85272 0
M  V30 20801 C 1930.01 2.30526 3.56571 0
M  V30 20802 O 1931.03 1.99038 2.95402 0
M  V30 20803 O 1929.89 2.84211 4.66783 0
M  V30 20804 H 1926.98 0.399325 0.724202 0
M  V30 20805 H 1929.53 1.38814 0.976156 0
M  V30 20806 H 1928.3 2.99817 2.51447 0
M  V30 20807 H 1927.92 1.67523 3.60585 0
M  V30 20808 N 1928.92 -1.13255 1.09595 0
M  V30 20809 C 1929.85 -2.20827 0.758791 0
M  V30 20810 C 1930.83 -1.68034 -0.264325 0
M  V30 20811 O 1932.02 -1.93751 -0.132005 0
M  V30 20812 C 1929.15 -3.46831 0.180424 0
M  V30 20813 C 1928.1 -4.12724 1.13325 0
M  V30 20814 C 1927.43 -5.33075 0.416504 0
M  V30 20815 C 1928.73 -4.59862 2.47637 0
M  V30 20816 H 1930.42 -2.49287 1.65821 0
M  V30 20817 H 1927.97 -1.19818 0.798734 0
M  V30 20818 H 1929.92 -4.21346 -0.0675313 0
M  V30 20819 H 1928.64 -3.17773 -0.754194 0
M  V30 20820 H 1927.3 -3.40179 1.36651 0
M  V30 20821 H 1926.95 -5.00281 -0.522308 0
M  V30 20822 H 1926.65 -5.78109 1.05183 0
M  V30 20823 H 1928.17 -6.10344 0.17689 0
M  V30 20824 H 1929.59 -5.25791 2.28509 0
M  V30 20825 H 1927.99 -5.15642 3.06974 0
M  V30 20826 H 1929.06 -3.74294 3.08273 0
M  V30 20827 N 1930.4 -0.883401 -1.30514 0
M  V30 20828 C 1931.68 -0.421186 -1.91011 0
M  V30 20829 C 1932.06 1.09793 -1.80301 0
M  V30 20830 O 1931.4 1.93254 -1.21923 0
M  V30 20831 C 1931.61 -0.917533 -3.36723 0
M  V30 20832 C 1932.96 -0.951573 -4.138 0
M  V30 20833 O 1933.99 -0.86409 -3.4556 0
M  V30 20834 O 1932.84 -1.08053 -5.35711 0
M  V30 20835 H 1929.94 -0.128514 -0.816954 0
M  V30 20836 H 1932.48 -0.972198 -1.39091 0
M  V30 20837 H 1931.26 -1.96135 -3.38595 0
M  V30 20838 H 1930.88 -0.345595 -3.96095 0
M  V30 20839 N 1931.88 1.43833 -0.644194 0
M  V30 20840 C 1933.12 2.01914 -0.153927 0
M  V30 20841 C 1933.45 1.50758 1.22891 0
M  V30 20842 O 1932.71 0.687354 1.83232 0
M  V30 20843 C 1933.01 3.57249 -0.103941 0
M  V30 20844 C 1932.67 4.27713 -1.42731 0
M  V30 20845 C 1931.33 4.46679 -1.78972 0
M  V30 20846 C 1933.69 4.67695 -2.30024 0
M  V30 20847 C 1931.01 5.0289 -3.0219 0
M  V30 20848 C 1933.37 5.2527 -3.52525 0
M  V30 20849 C 1932.03 5.42453 -3.88974 0
M  V30 20850 H 1931.3 0.738856 -0.0563257 0
M  V30 20851 H 1933.95 1.72428 -0.833108 0
M  V30 20852 H 1932.25 3.86224 0.65866 0
M  V30 20853 H 1933.95 3.99935 0.292124 0
M  V30 20854 H 1930.54 4.1329 -1.1353 0
M  V30 20855 H 1934.72 4.52743 -2.03317 0
M  V30 20856 H 1929.98 5.14379 -3.3049 0
M  V30 20857 H 1934.15 5.55198 -4.2039 0
M  V30 20858 H 1931.78 5.85775 -4.84532 0
M  V30 20859 N 1933.35 0.385544 1.52811 0
M  V30 20860 C 1934.6 -0.198138 2.0183 0
M  V30 20861 C 1934.93 -1.46774 1.27165 0
M  V30 20862 O 1934.21 -1.90928 0.371034 0
M  V30 20863 C 1934.49 -0.469873 3.57021 0
M  V30 20864 C 1934.34 0.814756 4.42359 0
M  V30 20865 C 1935.66 -1.26209 4.21615 0
M  V30 20866 H 1932.78 -0.0705386 0.733617 0
M  V30 20867 H 1935.42 0.514372 1.82905 0
M  V30 20868 H 1933.57 -1.07684 3.73278 0
M  V30 20869 H 1935.25 1.45172 4.37862 0
M  V30 20870 H 1933.49 1.43088 4.09522 0
M  V30 20871 H 1934.16 0.57932 5.48952 0
M  V30 20872 H 1936.64 -0.748451 4.09313 0
M  V30 20873 H 1935.51 -1.42096 5.30188 0
M  V30 20874 H 1935.77 -2.27624 3.78998 0
M  V30 20875 N 1934.83 -1.57178 0.115259 0
M  V30 20876 C 1935.76 -2.18134 -0.833042 0
M  V30 20877 C 1936.74 -1.12033 -1.27995 0
M  V30 20878 O 1937.93 -1.40254 -1.34323 0
M  V30 20879 C 1935.06 -2.77778 -2.08463 0
M  V30 20880 C 1934.01 -3.89429 -1.77565 0
M  V30 20881 C 1933.34 -4.35863 -3.09722 0
M  V30 20882 C 1934.64 -5.11701 -1.04687 0
M  V30 20883 H 1936.33 -2.9763 -0.325107 0
M  V30 20884 H 1933.88 -1.43164 -0.154933 0
M  V30 20885 H 1935.83 -3.19079 -2.75258 0
M  V30 20886 H 1934.56 -1.95566 -2.61575 0
M  V30 20887 H 1933.21 -3.48698 -1.13161 0
M  V30 20888 H 1932.86 -3.50515 -3.6076 0
M  V30 20889 H 1932.56 -5.11152 -2.89823 0
M  V30 20890 H 1934.09 -4.79812 -3.77641 0
M  V30 20891 H 1935.5 -5.50045 -1.61628 0
M  V30 20892 H 1933.9 -5.92549 -0.948964 0
M  V30 20893 H 1934.97 -4.84889 -0.032977 0
M  V30 20894 N 1936.31 0.158505 -1.56801 0
M  V30 20895 C 1937.73 0.510743 -1.51207 0
M  V30 20896 C 1937.93 1.83983 -0.821733 0
M  V30 20897 O 1936.98 2.4951 -0.387444 0
M  V30 20898 C 1938.3 0.531668 -2.95962 0
M  V30 20899 C 1939.84 0.617983 -3.06839 0
M  V30 20900 C 1940.32 0.66968 -4.53078 0
M  V30 20901 N 1941.81 0.73222 -4.57376 0
M  V30 20902 C 1942.55 0.793011 -5.6789 0
M  V30 20903 N 1942.04 0.81385 -6.88003 0
M  V30 20904 N 1943.83 0.833013 -5.55893 0
M  V30 20905 H 1935.99 -0.712841 -2.00081 0
M  V30 20906 H 1938.25 -0.258572 -0.912055 0
M  V30 20907 H 1937.95 -0.376495 -3.49679 0
M  V30 20908 H 1937.83 1.37366 -3.51298 0
M  V30 20909 H 1940.22 1.51657 -2.53149 0
M  V30 20910 H 1940.3 -0.250933 -2.54566 0
M  V30 20911 H 1939.94 -0.2247 -5.07403 0
M  V30 20912 H 1939.87 1.55492 -5.0312 0
M  V30 20913 H 1942.36 0.72388 -3.70902 0
M  V30 20914 H 1942.67 0.861766 -7.6798 0
M  V30 20915 H 1941.02 0.781915 -6.90587 0
M  V30 20916 H 1944.21 0.813822 -4.60971 0
M  V30 20917 H 1944.38 0.876926 -6.42039 0
M  V30 20918 N 1937.79 1.51692 0.427485 0
M  V30 20919 C 1938.74 1.70099 1.51823 0
M  V30 20920 C 1939.72 0.554908 1.51028 0
M  V30 20921 O 1940.92 0.811233 1.57315 0
M  V30 20922 C 1938.04 1.8384 2.89927 0
M  V30 20923 C 1937.13 3.04263 2.9544 0
M  V30 20924 N 1937.52 4.27277 2.7068 0
M  V30 20925 C 1935.82 3.0372 3.26604 0
M  V30 20926 C 1936.52 5.08613 2.8229 0
M  V30 20927 N 1935.5 4.43468 3.14384 0
M  V30 20928 H 1939.3 2.62867 1.31447 0
M  V30 20929 H 1936.81 1.49473 0.63494 0
M  V30 20930 H 1938.81 1.95139 3.6841 0
M  V30 20931 H 1937.47 0.922599 3.11317 0
M  V30 20932 H 1938.48 4.56058 2.45421 0
M  V30 20933 H 1935.16 2.21808 3.53705 0
M  V30 20934 H 1936.55 6.16564 2.67017 0
M  V30 20935 N 1939.27 -0.683564 1.42004 0
M  V30 20936 C 1940.52 -1.43934 1.413 0
M  V30 20937 C 1940.83 -1.95578 0.0296606 0
M  V30 20938 O 1942.04 -2.71316 -0.0999859 0
M  V30 20939 C 1940.49 -2.60331 2.48507 0
M  V30 20940 C 1940.1 -2.15424 3.92806 0
M  V30 20941 C 1941.84 -3.37895 2.56957 0
M  V30 20942 C 1939.75 -3.28851 4.91539 0
M  V30 20943 H 1938.68 -0.540693 0.525516 0
M  V30 20944 H 1941.33 -0.740914 1.67877 0
M  V30 20945 H 1939.71 -3.325 2.15081 0
M  V30 20946 H 1940.89 -1.50466 4.35542 0
M  V30 20947 H 1939.2 -1.50822 3.88126 0
M  V30 20948 H 1941.8 -4.22355 3.27903 0
M  V30 20949 H 1942.14 -3.83896 1.61027 0
M  V30 20950 H 1942.68 -2.72791 2.89534 0
M  V30 20951 H 1939.41 -2.87851 5.88916 0
M  V30 20952 H 1938.93 -3.92619 4.53443 0
M  V30 20953 H 1940.61 -3.9445 5.12853 0
M  V30 20954 N 1940.75 -1.28031 -0.919012 0
M  V30 20955 C 1941.69 -1.11355 -2.04213 0
M  V30 20956 C 1942.69 -0.0342517 -1.69365 0
M  V30 20957 O 1943.89 -0.192628 -1.78966 0
M  V30 20958 H 1940.27 -0.343397 -0.669016 0
M  V30 20959 H 1942.24 -2.06485 -2.15421 0
M  V30 20960 C 1940.99 -0.786653 -3.38684 0
M  V30 20961 H 1940.31 -1.6091 -3.65989 0
M  V30 20962 H 1941.75 -0.709897 -4.18015 0
M  V30 20963 C 1940.21 0.509383 -3.33027 0
M  V30 20964 O 1940.74 1.54125 -3.70956 0
M  V30 20965 N 1938.95 0.508188 -2.86122 0
M  V30 20966 H 1938.49 -0.331947 -2.55452 0
M  V30 20967 H 1938.45 1.37539 -2.82719 0
M  V30 20968 N 1942.22 1.12672 -1.10194 0
M  V30 20969 C 1943.47 1.84399 -0.844081 0
M  V30 20970 C 1943.8 1.83739 0.628782 0
M  V30 20971 O 1943.08 1.28115 1.46345 0
M  V30 20972 C 1943.36 3.32194 -1.38994 0
M  V30 20973 C 1943.21 3.41323 -2.92948 0
M  V30 20974 C 1944.53 4.27872 -1.03021 0
M  V30 20975 H 1941.65 0.669515 -0.308089 0
M  V30 20976 H 1944.29 1.322 -1.36467 0
M  V30 20977 H 1942.44 3.76778 -0.947144 0
M  V30 20978 H 1944.12 3.05393 -3.45735 0
M  V30 20979 H 1942.36 2.81948 -3.29678 0
M  V30 20980 H 1943.03 4.45289 -3.26223 0
M  V30 20981 H 1945.51 3.91401 -1.41224 0
M  V30 20982 H 1944.38 5.29699 -1.43909 0
M  V30 20983 H 1944.64 4.42058 0.0606669 0
M  V30 20984 N 1943.7 0.89031 1.30043 0
M  V30 20985 C 1944.93 0.526566 2.00087 0
M  V30 20986 C 1945.34 -0.88632 1.66703 0
M  V30 20987 O 1944.7 -1.58365 0.907012 0
M  V30 20988 C 1944.75 0.698102 3.54695 0
M  V30 20989 O 1944.47 2.05537 3.86893 0
M  V30 20990 C 1945.97 0.338058 4.42009 0
M  V30 20991 H 1943.19 0.20299 0.639559 0
M  V30 20992 H 1945.74 1.19708 1.65802 0
M  V30 20993 H 1943.89 0.0748931 3.87328 0
M  V30 20994 H 1944.31 2.07787 4.81586 0
M  V30 20995 H 1945.78 0.508957 5.49649 0
M  V30 20996 H 1946.26 -0.724284 4.33187 0
M  V30 20997 H 1946.86 0.937813 4.14831 0
M  V30 20998 N 1945.18 -1.43489 0.651812 0
M  V30 20999 C 1946.43 -2.01049 0.161972 0
M  V30 21000 C 1946.74 -1.52018 -1.23085 0
M  V30 21001 O 1947.95 -2.01842 -1.81583 0
M  V30 21002 C 1946.4 -3.59107 0.238761 0
M  V30 21003 C 1946.01 -4.17131 1.63419 0
M  V30 21004 C 1947.76 -4.24059 -0.193548 0
M  V30 21005 C 1945.66 -5.67479 1.66498 0
M  V30 21006 H 1944.59 -0.751858 0.0567901 0
M  V30 21007 H 1947.24 -1.64475 0.813641 0
M  V30 21008 H 1945.63 -3.93075 -0.48039 0
M  V30 21009 H 1946.8 -3.94665 2.37858 0
M  V30 21010 H 1945.11 -3.64546 2.01235 0
M  V30 21011 H 1947.71 -5.34361 -0.190368 0
M  V30 21012 H 1948.05 -3.97877 -1.22472 0
M  V30 21013 H 1948.59 -3.94968 0.473805 0
M  V30 21014 H 1945.33 -5.98426 2.6752 0
M  V30 21015 H 1944.85 -5.92006 0.963819 0
M  V30 21016 H 1946.53 -6.31492 1.40809 0
M  V30 21017 N 1946.66 -0.393643 -1.52605 0
M  V30 21018 C 1947.61 0.454246 -2.28121 0
M  V30 21019 C 1948.6 1.05931 -1.32193 0
M  V30 21020 O 1949.81 0.999286 -1.49714 0
M  V30 21021 H 1946.18 0.165249 -0.733619 0
M  V30 21022 H 1948.15 -0.204084 -2.97701 0
M  V30 21023 C 1946.9 1.5671 -3.10383 0
M  V30 21024 H 1946.22 1.11084 -3.84058 0
M  V30 21025 H 1947.66 2.13451 -3.66353 0
M  V30 21026 C 1946.12 2.52562 -2.22967 0
M  V30 21027 O 1946.65 3.56075 -1.85939 0
M  V30 21028 N 1944.86 2.22405 -1.87041 0
M  V30 21029 H 1944.41 1.38261 -2.17351 0
M  V30 21030 H 1944.36 2.86787 -1.28843 0
M  V30 21031 N 1948.14 1.57115 -0.123593 0
M  V30 21032 C 1949.38 1.94966 0.532239 0
M  V30 21033 C 1949.7 1.00808 1.66922 0
M  V30 21034 O 1948.97 0.0652202 1.95791 0
M  V30 21035 H 1947.55 0.719838 0.199607 0
M  V30 21036 H 1950.22 1.93936 -0.19361 0
M  V30 21037 H 1949.31 2.98115 0.923802 0
M  V30 21038 N 1949.61 -0.150187 1.56883 0
M  V30 21039 C 1950.86 -0.86163 1.82812 0
M  V30 21040 C 1951.18 -1.81849 0.703977 0
M  V30 21041 O 1950.45 -1.93966 -0.274616 0
M  V30 21042 H 1949.03 -0.321175 0.67443 0
M  V30 21043 H 1951.69 -0.144952 1.9436 0
M  V30 21044 H 1950.79 -1.4258 2.77628 0
M  V30 21045 N 1951.09 -1.51916 -0.419434 0
M  V30 21046 C 1952 -1.77393 -1.53522 0
M  V30 21047 C 1953.02 -0.65897 -1.61039 0
M  V30 21048 O 1954.19 -0.943237 -1.77947 0
M  V30 21049 C 1951.26 -1.90988 -2.89352 0
M  V30 21050 C 1950.32 -3.14878 -2.91805 0
M  V30 21051 C 1949.55 -3.27815 -4.21157 0
M  V30 21052 O 1949.78 -2.4626 -5.14502 0
M  V30 21053 O 1948.71 -4.20906 -4.30258 0
M  V30 21054 H 1952.54 -2.72079 -1.34932 0
M  V30 21055 H 1950.12 -1.36635 -0.604259 0
M  V30 21056 H 1952 -2.01812 -3.69932 0
M  V30 21057 H 1950.68 -0.994906 -3.08031 0
M  V30 21058 H 1949.59 -3.0952 -2.10115 0
M  V30 21059 H 1950.92 -4.06123 -2.78073 0
M  V30 21060 N 1952.57 0.676023 -1.42365 0
M  V30 21061 C 1953.52 1.78959 -1.45747 0
M  V30 21062 C 1954.49 1.6319 -0.309563 0
M  V30 21063 O 1955.67 1.83761 -0.51346 0
M  V30 21064 C 1952.81 3.16982 -1.36441 0
M  V30 21065 C 1951.93 3.44047 -2.61257 0
M  V30 21066 C 1951.06 4.71791 -2.44103 0
M  V30 21067 C 1950.1 4.91887 -3.64299 0
M  V30 21068 N 1949.24 6.10871 -3.46094 0
M  V30 21069 H 1954.08 1.75403 -2.4091 0
M  V30 21070 H 1951.61 0.856293 -1.19608 0
M  V30 21071 H 1953.57 3.96741 -1.29044 0
M  V30 21072 H 1952.2 3.19666 -0.448744 0
M  V30 21073 H 1951.25 2.58551 -2.79026 0
M  V30 21074 H 1952.57 3.5479 -3.50607 0
M  V30 21075 H 1951.72 5.59639 -2.34285 0
M  V30 21076 H 1950.46 4.63329 -1.52241 0
M  V30 21077 H 1949.46 4.02482 -3.74551 0
M  V30 21078 H 1950.69 5.02195 -4.5714 0
M  V30 21079 H 1948.63 6.03584 -2.56949 0
M  V30 21080 H 1948.55 6.2247 -4.29031 0
M  V30 21081 H 1949.82 7.014 -3.40085 0
M  V30 21082 N 1954.05 1.28517 0.912209 0
M  V30 21083 C 1955.29 1.15932 1.66396 0
M  V30 21084 C 1955.63 -0.291123 1.92006 0
M  V30 21085 O 1954.9 -1.21159 1.52154 0
M  V30 21086 C 1955.19 1.95993 3.0209 0
M  V30 21087 C 1955.04 3.49109 2.83625 0
M  V30 21088 C 1956.36 1.77655 4.0265 0
M  V30 21089 H 1953.48 0.42252 0.603859 0
M  V30 21090 H 1956.12 1.5785 1.05752 0
M  V30 21091 H 1954.27 1.60372 3.53855 0
M  V30 21092 H 1955.94 3.94644 2.38859 0
M  V30 21093 H 1954.18 3.74664 2.18653 0
M  V30 21094 H 1954.85 4.00386 3.79993 0
M  V30 21095 H 1957.33 2.08743 3.59952 0
M  V30 21096 H 1956.21 2.36043 4.95555 0
M  V30 21097 H 1956.47 0.728445 4.36057 0
M  V30 21098 N 1955.53 -1.12086 1.1079 0
M  V30 21099 C 1956.77 -1.83314 0.850901 0
M  V30 21100 C 1957.1 -1.84703 -0.625275 0
M  V30 21101 O 1956.37 -1.31277 -1.45406 0
M  V30 21102 H 1954.95 -0.678817 0.311797 0
M  V30 21103 H 1957.61 -1.35707 1.39891 0
M  V30 21104 H 1956.7 -2.87393 1.21704 0
M  V30 21105 N 1957 -0.897194 -1.29569 0
M  V30 21106 C 1958.25 -0.517823 -1.9494 0
M  V30 21107 C 1958.57 0.940096 -1.71527 0
M  V30 21108 O 1959.77 1.42687 -2.30982 0
M  V30 21109 C 1958.23 -0.875183 -3.49097 0
M  V30 21110 C 1957.84 -2.3517 -3.81312 0
M  V30 21111 C 1959.58 -0.565601 -4.20715 0
M  V30 21112 C 1957.49 -2.65005 -5.28702 0
M  V30 21113 H 1956.42 -0.189928 -0.729687 0
M  V30 21114 H 1959.07 -1.09385 -1.47334 0
M  V30 21115 H 1957.45 -0.228115 -3.95342 0
M  V30 21116 H 1958.62 -3.04411 -3.45934 0
M  V30 21117 H 1956.94 -2.63005 -3.22827 0
M  V30 21118 H 1959.54 -0.765387 -5.29194 0
M  V30 21119 H 1959.88 0.49573 -4.13338 0
M  V30 21120 H 1960.41 -1.1704 -3.80193 0
M  V30 21121 H 1957.15 -3.69927 -5.41142 0
M  V30 21122 H 1956.67 -2.00386 -5.65337 0
M  V30 21123 H 1958.35 -2.51141 -5.96269 0
M  V30 21124 N 1958.48 1.43142 -0.659413 0
M  V30 21125 C 1959.73 2.02038 -0.175593 0
M  V30 21126 C 1960.06 1.5194 1.20946 0
M  V30 21127 O 1959.34 0.715095 1.80877 0
M  V30 21128 C 1959.62 3.59581 -0.193256 0
M  V30 21129 C 1959.47 4.19896 -1.61267 0
M  V30 21130 C 1960.79 4.37616 0.466976 0
M  V30 21131 H 1957.91 0.734103 -0.0652811 0
M  V30 21132 H 1960.55 1.7036 -0.841276 0
M  V30 21133 H 1958.7 3.867 0.373574 0
M  V30 21134 H 1960.37 4.03786 -2.23056 0
M  V30 21135 H 1958.62 3.7631 -2.15807 0
M  V30 21136 H 1959.29 5.28999 -1.57683 0
M  V30 21137 H 1961.76 4.16097 -0.0153667 0
M  V30 21138 H 1960.64 5.47261 0.423915 0
M  V30 21139 H 1960.9 4.14332 1.54211 0
M  V30 21140 N 1959.96 0.40173 1.52394 0
M  V30 21141 C 1961.21 -0.17611 2.01331 0
M  V30 21142 C 1961.53 -1.46274 1.28953 0
M  V30 21143 O 1960.8 -1.91492 0.413249 0
M  V30 21144 H 1959.38 -0.0680697 0.743892 0
M  V30 21145 H 1962.04 0.536274 1.87377 0
M  V30 21146 H 1961.14 -0.377497 3.09809 0
M  V30 21147 N 1961.44 -1.57047 0.131923 0
M  V30 21148 C 1962.85 -1.58012 -0.224598 0
M  V30 21149 C 1963.05 -1.1454 -1.6578 0
M  V30 21150 O 1962.11 -0.838726 -2.38163 0
M  V30 21151 C 1963.42 -3.00693 0.0204646 0
M  V30 21152 C 1964.97 -3.12968 -0.0444267 0
M  V30 21153 C 1965.45 -4.57673 0.173109 0
M  V30 21154 N 1966.94 -4.63046 0.119519 0
M  V30 21155 C 1967.67 -5.72799 0.262558 0
M  V30 21156 N 1967.17 -6.91255 0.462486 0
M  V30 21157 N 1968.96 -5.6174 0.201221 0
M  V30 21158 H 1961.11 -1.83602 1.06789 0
M  V30 21159 H 1963.38 -0.849118 0.421547 0
M  V30 21160 H 1963.08 -3.36832 1.01178 0
M  V30 21161 H 1962.96 -3.7054 -0.705686 0
M  V30 21162 H 1965.34 -2.7668 -1.02628 0
M  V30 21163 H 1965.42 -2.45639 0.713812 0
M  V30 21164 H 1965.07 -4.94663 1.15199 0
M  V30 21165 H 1965 -5.2311 -0.605272 0
M  V30 21166 H 1967.49 -3.77887 -0.0309659 0
M  V30 21167 H 1967.8 -7.70753 0.562145 0
M  V30 21168 H 1966.15 -6.93209 0.498621 0
M  V30 21169 H 1969.34 -4.68077 0.0458997 0
M  V30 21170 H 1969.51 -6.47228 0.316135 0
M  V30 21171 N 1962.92 0.141865 -1.5696 0
M  V30 21172 C 1964.14 0.868403 -1.87793 0
M  V30 21173 C 1964.56 1.74504 -0.720691 0
M  V30 21174 O 1963.92 1.79859 0.309372 0
M  V30 21175 C 1963.97 1.72086 -3.17913 0
M  V30 21176 O 1963.69 0.879548 -4.2918 0
M  V30 21177 C 1965.19 2.55454 -3.62296 0
M  V30 21178 H 1962.41 0.250842 -0.62235 0
M  V30 21179 H 1964.95 0.133113 -2.04066 0
M  V30 21180 H 1963.11 2.40915 -3.03379 0
M  V30 21181 H 1963.52 1.4653 -5.03616 0
M  V30 21182 H 1965 3.10834 -4.56165 0
M  V30 21183 H 1965.47 3.31735 -2.87834 0
M  V30 21184 H 1966.08 1.91906 -3.79542 0
M  V30 21185 N 1964.39 1.52136 0.411372 0
M  V30 21186 C 1965.64 1.65757 1.15624 0
M  V30 21187 C 1965.96 0.388771 1.91085 0
M  V30 21188 O 1965.23 -0.596276 1.86605 0
M  V30 21189 H 1963.81 0.610955 0.429817 0
M  V30 21190 H 1966.48 1.8917 0.469114 0
M  V30 21191 H 1965.57 2.49759 1.87155 0
M  V30 21192 N 1965.87 -0.668464 1.42721 0
M  V30 21193 C 1966.84 -1.76365 1.46384 0
M  V30 21194 C 1967.84 -1.56932 0.350554 0
M  V30 21195 O 1969.03 -1.63109 0.611658 0
M  V30 21196 C 1966.16 -3.15071 1.30164 0
M  V30 21197 H 1967.35 -1.74503 2.43903 0
M  V30 21198 H 1964.9 -0.878695 1.29262 0
M  V30 21199 H 1965.64 -3.22555 0.335926 0
M  V30 21200 H 1965.42 -3.3058 2.10853 0
M  V30 21201 H 1966.91 -3.94963 1.35625 0
M  V30 21202 N 1967.35 -1.28999 -0.905381 0
M  V30 21203 C 1968.6 -1.1641 -1.65207 0
M  V30 21204 C 1968.92 0.285952 -1.92892 0
M  V30 21205 O 1968.19 1.19672 -1.55098 0
M  V30 21206 H 1966.77 -0.427826 -0.612351 0
M  V30 21207 H 1969.43 -1.61845 -1.08592 0
M  V30 21208 H 1968.53 -1.70993 -2.6109 0
M  V30 21209 N 1968.83 1.11497 -1.11383 0
M  V30 21210 C 1969.78 2.1752 -0.771611 0
M  V30 21211 C 1970.75 1.64106 0.256616 0
M  V30 21212 O 1971.93 1.90331 0.133672 0
M  V30 21213 C 1969.07 3.44396 -0.220313 0
M  V30 21214 C 1968.18 4.11817 -1.30503 0
M  V30 21215 C 1967.32 5.26375 -0.714331 0
M  V30 21216 C 1966.36 5.85679 -1.77894 0
M  V30 21217 N 1965.5 6.91634 -1.20778 0
M  V30 21218 H 1970.34 2.46138 -1.67989 0
M  V30 21219 H 1967.87 1.20832 -0.838927 0
M  V30 21220 H 1969.83 4.17035 0.117286 0
M  V30 21221 H 1968.46 3.16164 0.651161 0
M  V30 21222 H 1967.51 3.37258 -1.75959 0
M  V30 21223 H 1968.82 4.5195 -2.11051 0
M  V30 21224 H 1967.98 6.05819 -0.326754 0
M  V30 21225 H 1966.72 4.87546 0.12248 0
M  V30 21226 H 1965.72 5.04914 -2.17583 0
M  V30 21227 H 1966.95 6.26576 -2.61877 0
M  V30 21228 H 1964.89 6.54824 -0.392602 0
M  V30 21229 H 1964.81 7.30419 -1.94998 0
M  V30 21230 H 1966.08 7.74884 -0.847072 0
M  V30 21231 N 1970.31 0.904053 1.29092 0
M  V30 21232 C 1971.53 0.547082 2.00054 0
M  V30 21233 C 1971.96 -0.862026 1.67185 0
M  V30 21234 O 1971.32 -1.57449 0.898855 0
M  V30 21235 C 1971.36 0.751495 3.52682 0
M  V30 21236 O 1970.47 -0.194004 4.11943 0
M  V30 21237 H 1969.81 0.213241 0.628828 0
M  V30 21238 H 1972.34 1.21683 1.64482 0
M  V30 21239 H 1972.35 0.657831 4.02662 0
M  V30 21240 H 1971.02 1.77878 3.75942 0
M  V30 21241 H 1969.6 -0.0524281 3.72863 0
M  V30 21242 N 1971.79 -1.4279 0.666995 0
M  V30 21243 C 1973.01 -2.06504 0.192596 0
M  V30 21244 C 1973.44 -1.49743 -1.13836 0
M  V30 21245 O 1972.79 -0.612797 -1.7063 0
M  V30 21246 C 1972.84 -3.60366 0.129775 0
M  V30 21247 O 1971.95 -4.0237 -0.904018 0
M  V30 21248 H 1971.29 -0.656244 0.101194 0
M  V30 21249 H 1973.82 -1.83059 0.913807 0
M  V30 21250 H 1973.83 -4.07971 -0.0489739 0
M  V30 21251 H 1972.5 -4.01054 1.1013 0
M  V30 21252 H 1971.08 -3.66329 -0.696943 0
M  V30 21253 N 1973.26 -0.409806 -1.52179 0
M  V30 21254 C 1974.19 0.406421 -2.29936 0
M  V30 21255 C 1975.17 1.04553 -1.34174 0
M  V30 21256 O 1976.36 1.05441 -1.63082 0
M  V30 21257 C 1973.49 1.52297 -3.12127 0
M  V30 21258 C 1972.44 1.00883 -4.15941 0
M  V30 21259 C 1971.77 2.21903 -4.8648 0
M  V30 21260 C 1973.07 0.0623996 -5.22263 0
M  V30 21261 H 1974.76 -0.242406 -2.98417 0
M  V30 21262 H 1972.31 -0.118023 -1.43516 0
M  V30 21263 H 1974.26 2.10097 -3.65291 0
M  V30 21264 H 1972.99 2.19968 -2.41416 0
M  V30 21265 H 1971.65 0.453228 -3.63788 0
M  V30 21266 H 1971.29 2.88131 -4.12298 0
M  V30 21267 H 1970.99 1.88153 -5.56662 0
M  V30 21268 H 1972.52 2.80308 -5.42457 0
M  V30 21269 H 1973.93 0.549223 -5.70663 0
M  V30 21270 H 1972.33 -0.186317 -5.99811 0
M  V30 21271 H 1973.4 -0.882673 -4.76799 0
M  V30 21272 N 1974.74 1.56975 -0.14025 0
M  V30 21273 C 1975.97 2.00267 0.519675 0
M  V30 21274 C 1976.38 1.02026 1.58859 0
M  V30 21275 O 1975.74 0.0162519 1.82493 0
M  V30 21276 C 1975.79 3.435 1.12648 0
M  V30 21277 O 1975.51 4.37985 0.100277 0
M  V30 21278 C 1977.01 4.02036 1.86767 0
M  V30 21279 H 1974.23 0.657101 0.135865 0
M  V30 21280 H 1976.78 2.0317 -0.232847 0
M  V30 21281 H 1974.93 3.4147 1.82967 0
M  V30 21282 H 1975.35 5.21672 0.543929 0
M  V30 21283 H 1976.82 5.04274 2.24525 0
M  V30 21284 H 1977.3 3.42367 2.75103 0
M  V30 21285 H 1977.9 4.07676 1.21163 0
M  V30 21286 N 1976.22 -0.133539 1.57033 0
M  V30 21287 C 1977.15 -1.16595 2.02306 0
M  V30 21288 C 1978.13 -1.44031 0.904933 0
M  V30 21289 O 1979.32 -1.54721 1.17367 0
M  V30 21290 C 1976.45 -2.49581 2.41509 0
M  V30 21291 C 1975.4 -2.36639 3.56631 0
M  V30 21292 C 1974.73 -3.74457 3.81688 0
M  V30 21293 C 1976.03 -1.83912 4.88849 0
M  V30 21294 H 1977.72 -0.789456 2.88804 0
M  V30 21295 H 1975.27 -0.378309 1.38942 0
M  V30 21296 H 1977.22 -3.22043 2.71783 0
M  V30 21297 H 1975.94 -2.89093 1.51964 0
M  V30 21298 H 1974.6 -1.66628 3.26544 0
M  V30 21299 H 1974.25 -4.11428 2.89372 0
M  V30 21300 H 1973.95 -3.66655 4.59171 0
M  V30 21301 H 1975.47 -4.48446 4.14401 0
M  V30 21302 H 1976.89 -2.46178 5.17754 0
M  V30 21303 H 1975.28 -1.86967 5.70231 0
M  V30 21304 H 1976.35 -0.795669 4.78327 0
M  V30 21305 N 1977.7 -1.52352 -0.403298 0
M  V30 21306 C 1978.95 -1.66368 -1.14744 0
M  V30 21307 C 1979.27 -0.398899 -1.90876 0
M  V30 21308 O 1978.54 0.586372 -1.86918 0
M  V30 21309 H 1977.12 -0.613226 -0.426571 0
M  V30 21310 H 1979.78 -1.89416 -0.459075 0
M  V30 21311 H 1978.87 -2.50748 -1.85828 0
M  V30 21312 N 1979.18 0.660885 -1.43074 0
M  V30 21313 C 1980.11 1.78579 -1.50438 0
M  V30 21314 C 1981.09 1.66253 -0.359703 0
M  V30 21315 O 1982.27 1.85465 -0.575893 0
M  V30 21316 C 1979.4 3.16963 -1.41956 0
M  V30 21317 C 1978.36 3.44043 -2.54594 0
M  V30 21318 C 1977.68 4.82147 -2.31166 0
M  V30 21319 C 1978.98 3.3955 -3.96867 0
M  V30 21320 H 1980.68 1.72673 -2.4459 0
M  V30 21321 H 1978.22 0.829317 -1.17721 0
M  V30 21322 H 1980.17 3.95406 -1.45713 0
M  V30 21323 H 1978.9 3.23581 -0.443048 0
M  V30 21324 H 1977.56 2.67969 -2.50177 0
M  V30 21325 H 1977.21 4.85432 -1.31776 0
M  V30 21326 H 1976.91 5.01228 -3.06667 0
M  V30 21327 H 1978.43 5.62857 -2.36695 0
M  V30 21328 H 1979.84 4.0794 -4.02813 0
M  V30 21329 H 1978.24 3.70166 -4.72332 0
M  V30 21330 H 1979.31 2.37868 -4.22548 0
M  V30 21331 N 1980.65 1.29477 0.898527 0
M  V30 21332 C 1981.9 1.17516 1.64913 0
M  V30 21333 C 1982.23 -0.273086 1.92573 0
M  V30 21334 O 1981.48 -1.21353 1.53531 0
M  V30 21335 C 1981.78 1.93505 3.00484 0
M  V30 21336 C 1981.45 3.43216 2.92427 0
M  V30 21337 C 1980.11 3.84044 2.89937 0
M  V30 21338 C 1982.46 4.38611 2.81548 0
M  V30 21339 C 1979.79 5.18582 2.74389 0
M  V30 21340 C 1982.14 5.73241 2.67539 0
M  V30 21341 C 1980.81 6.13326 2.63416 0
M  V30 21342 H 1980.08 0.430023 0.603458 0
M  V30 21343 H 1982.72 1.60427 1.04572 0
M  V30 21344 H 1981.03 1.43189 3.64698 0
M  V30 21345 H 1982.73 1.81654 3.57495 0
M  V30 21346 H 1979.32 3.10763 2.95168 0
M  V30 21347 H 1983.5 4.0802 2.82548 0
M  V30 21348 H 1978.76 5.48748 2.69602 0
M  V30 21349 H 1982.93 6.46808 2.58093 0
M  V30 21350 H 1980.56 7.17523 2.51126 0
M  V30 21351 N 1982.13 -1.10905 1.11972 0
M  V30 21352 C 1983.55 -1.3478 0.854776 0
M  V30 21353 C 1983.75 -1.94737 -0.517653 0
M  V30 21354 O 1982.8 -2.18391 -1.26734 0
M  V30 21355 C 1984.12 -2.27414 1.96732 0
M  V30 21356 C 1985.67 -2.40964 1.99764 0
M  V30 21357 C 1986.14 -3.36923 3.10237 0
M  V30 21358 N 1987.63 -3.44488 3.09648 0
M  V30 21359 C 1988.37 -4.18695 3.91768 0
M  V30 21360 N 1987.86 -4.95829 4.83865 0
M  V30 21361 N 1989.66 -4.14263 3.79924 0
M  V30 21362 H 1981.81 -0.703538 2.0041 0
M  V30 21363 H 1984.07 -0.372318 0.871828 0
M  V30 21364 H 1983.78 -1.90561 2.956 0
M  V30 21365 H 1983.65 -3.27681 1.86829 0
M  V30 21366 H 1986.04 -2.77089 1.01518 0
M  V30 21367 H 1986.12 -1.40529 2.13741 0
M  V30 21368 H 1985.76 -3.01524 4.08712 0
M  V30 21369 H 1985.69 -4.37225 2.93499 0
M  V30 21370 H 1988.18 -2.89475 2.42925 0
M  V30 21371 H 1988.5 -5.49836 5.43047 0
M  V30 21372 H 1986.84 -4.9497 4.87883 0
M  V30 21373 H 1990.03 -3.53095 3.07314 0
M  V30 21374 H 1990.2 -4.71837 4.44155 0
M  V30 21375 N 1983.61 -0.910886 -1.2861 0
M  V30 21376 C 1984.86 -0.53847 -1.94379 0
M  V30 21377 C 1985.17 0.92185 -1.72515 0
M  V30 21378 O 1986.38 1.40229 -2.32482 0
M  V30 21379 C 1984.83 -0.91216 -3.48149 0
M  V30 21380 C 1984.44 -2.39201 -3.78796 0
M  V30 21381 C 1986.19 -0.610192 -4.20092 0
M  V30 21382 C 1984.09 -2.70598 -5.25862 0
M  V30 21383 H 1983.02 -0.197657 -0.727632 0
M  V30 21384 H 1985.67 -1.10941 -1.46165 0
M  V30 21385 H 1984.06 -0.270034 -3.95078 0
M  V30 21386 H 1985.23 -3.08063 -3.42686 0
M  V30 21387 H 1983.55 -2.66414 -3.20019 0
M  V30 21388 H 1986.14 -0.821472 -5.28352 0
M  V30 21389 H 1986.49 0.451862 -4.1384 0
M  V30 21390 H 1987.02 -1.21066 -3.7893 0
M  V30 21391 H 1983.76 -3.75645 -5.37188 0
M  V30 21392 H 1983.28 -2.0637 -5.6318 0
M  V30 21393 H 1984.96 -2.57451 -5.93572 0
M  V30 21394 N 1985.09 1.42434 -0.674558 0
M  V30 21395 C 1986.04 2.32595 0.0155851 0
M  V30 21396 C 1987.03 1.49809 0.790806 0
M  V30 21397 O 1988.24 1.65882 0.698798 0
M  V30 21398 H 1984.61 0.751622 0.0238347 0
M  V30 21399 H 1986.58 2.88501 -0.762224 0
M  V30 21400 C 1985.33 3.34379 0.953202 0
M  V30 21401 H 1984.65 3.9812 0.366105 0
M  V30 21402 H 1986.09 4.00052 1.40479 0
M  V30 21403 C 1984.55 2.66623 2.05946 0
M  V30 21404 O 1985.08 2.49795 3.14588 0
M  V30 21405 N 1983.29 2.25652 1.83111 0
M  V30 21406 H 1982.84 2.39538 0.947593 0
M  V30 21407 H 1982.79 1.80649 2.57319 0
M  V30 21408 N 1986.57 0.417871 1.51959 0
M  V30 21409 C 1987.48 -0.409946 2.3099 0
M  V30 21410 C 1988.49 -1.04559 1.39081 0
M  V30 21411 O 1989.67 -1.0452 1.72155 0
M  V30 21412 C 1986.73 -1.50691 3.12239 0
M  V30 21413 C 1985.79 -0.893424 4.199 0
M  V30 21414 C 1985.03 -1.93812 4.97265 0
M  V30 21415 O 1985.25 -3.15756 4.75031 0
M  V30 21416 O 1984.18 -1.53948 5.81879 0
M  V30 21417 H 1988.01 0.234696 3.02792 0
M  V30 21418 H 1985.6 0.180861 1.48301 0
M  V30 21419 H 1987.48 -2.14355 3.62808 0
M  V30 21420 H 1986.15 -2.136 2.43222 0
M  V30 21421 H 1985.06 -0.219262 3.73457 0
M  V30 21422 H 1986.39 -0.308133 4.91235 0
M  V30 21423 N 1988.04 -1.56898 0.148573 0
M  V30 21424 C 1989.27 -2.00974 -0.512287 0
M  V30 21425 C 1989.69 -1.02801 -1.57523 0
M  V30 21426 O 1989.05 -0.00400411 -1.813 0
M  V30 21427 C 1989.1 -3.43785 -1.08832 0
M  V30 21428 O 1988.2 -3.4862 -2.20313 0
M  V30 21429 H 1987.55 -0.652102 -0.125133 0
M  V30 21430 H 1990.08 -2.03119 0.245769 0
M  V30 21431 H 1990.09 -3.82618 -1.41659 0
M  V30 21432 H 1988.76 -4.14744 -0.309923 0
M  V30 21433 H 1987.34 -3.2163 -1.88702 0
M  V30 21434 N 1989.52 0.125209 -1.57102 0
M  V30 21435 C 1990.49 1.13792 -1.98957 0
M  V30 21436 C 1991.49 1.34656 -0.878887 0
M  V30 21437 O 1992.68 1.31278 -1.14506 0
M  V30 21438 C 1989.81 2.49371 -2.32437 0
M  V30 21439 H 1991 0.778319 -2.89624 0
M  V30 21440 H 1988.55 0.369299 -1.51875 0
M  V30 21441 H 1989.29 2.90263 -1.4463 0
M  V30 21442 H 1989.07 2.35583 -3.13437 0
M  V30 21443 H 1990.56 3.22268 -2.65581 0
M  V30 21444 N 1991 1.52564 0.395213 0
M  V30 21445 C 1991.91 1.79813 1.5068 0
M  V30 21446 C 1992.93 0.684507 1.5997 0
M  V30 21447 O 1994.1 0.971428 1.76423 0
M  V30 21448 C 1991.17 1.95567 2.86277 0
M  V30 21449 C 1990.23 3.19481 2.86759 0
M  V30 21450 C 1989.46 3.34474 4.15888 0
M  V30 21451 O 1989.68 2.54414 5.10519 0
M  V30 21452 O 1988.62 4.27698 4.23507 0
M  V30 21453 H 1992.44 2.74191 1.30586 0
M  V30 21454 H 1990.03 1.37579 0.582445 0
M  V30 21455 H 1991.91 2.07672 3.66675 0
M  V30 21456 H 1990.59 1.04378 3.0641 0
M  V30 21457 H 1989.49 3.12823 2.05164 0
M  V30 21458 H 1990.83 4.10496 2.71577 0
M  V30 21459 N 1992.48 -0.653289 1.43422 0
M  V30 21460 C 1993.73 -1.41039 1.44749 0
M  V30 21461 C 1994.05 -1.94864 0.0728692 0
M  V30 21462 O 1993.32 -1.74425 -0.891782 0
M  V30 21463 H 1991.9 -0.523445 0.53293 0
M  V30 21464 H 1994.56 -0.770483 1.79024 0
M  V30 21465 H 1993.66 -2.25278 2.16001 0
M  V30 21466 N 1993.96 -1.29952 -0.891648 0
M  V30 21467 C 1994.87 -1.17673 -2.02954 0
M  V30 21468 C 1995.88 -0.0981428 -1.73723 0
M  V30 21469 O 1997.06 -0.311785 -1.98972 0
M  V30 21470 C 1994.12 -0.862565 -3.35799 0
M  V30 21471 C 1993.18 -2.02583 -3.78495 0
M  V30 21472 C 1992.42 -1.72656 -5.05001 0
M  V30 21473 O 1992.64 -0.651307 -5.66669 0
M  V30 21474 O 1991.57 -2.57698 -5.43944 0
M  V30 21475 H 1995.4 -2.13248 -2.16239 0
M  V30 21476 H 1992.99 -1.09481 -1.01658 0
M  V30 21477 H 1994.87 -0.702274 -4.15507 0
M  V30 21478 H 1993.54 0.0633315 -3.23638 0
M  V30 21479 H 1992.45 -2.2414 -2.99519 0
M  V30 21480 H 1993.78 -2.93321 -3.95251 0
M  V30 21481 N 1995.44 1.1031 -1.12559 0
M  V30 21482 C 1996.68 1.81665 -0.876399 0
M  V30 21483 C 1997 1.86186 0.599506 0
M  V30 21484 O 1998.2 2.53759 0.965337 0
M  V30 21485 C 1996.66 3.26308 -1.51826 0
M  V30 21486 C 1996.27 3.30081 -3.02904 0
M  V30 21487 C 1998.01 4.02482 -1.34939 0
M  V30 21488 C 1995.92 4.69192 -3.60018 0
M  V30 21489 H 1994.85 0.680734 -0.324218 0
M  V30 21490 H 1997.5 1.24044 -1.35223 0
M  V30 21491 H 1995.88 3.83934 -0.970087 0
M  V30 21492 H 1997.06 2.82272 -3.64224 0
M  V30 21493 H 1995.37 2.67393 -3.19202 0
M  V30 21494 H 1997.97 5.05241 -1.7503 0
M  V30 21495 H 1998.31 4.15266 -0.293208 0
M  V30 21496 H 1998.84 3.51274 -1.86685 0
M  V30 21497 H 1995.58 4.61608 -4.65401 0
M  V30 21498 H 1995.1 5.17363 -3.03473 0
M  V30 21499 H 1996.78 5.38161 -3.59153 0
M  V30 21500 N 1996.91 0.917694 1.28125 0
M  V30 21501 C 1998.16 0.548771 1.94091 0
M  V30 21502 C 1998.48 -0.912688 1.73001 0
M  V30 21503 O 1999.68 -1.38994 2.33223 0
M  V30 21504 C 1998.14 0.930611 3.4766 0
M  V30 21505 C 1997.75 2.41207 3.77523 0
M  V30 21506 C 1999.49 0.632461 4.19762 0
M  V30 21507 C 1997.4 2.73383 5.24419 0
M  V30 21508 H 1996.33 0.201513 0.726573 0
M  V30 21509 H 1998.98 1.11715 1.45575 0
M  V30 21510 H 1997.36 0.290982 3.94929 0
M  V30 21511 H 1998.53 3.09876 3.41048 0
M  V30 21512 H 1996.85 2.68108 3.18602 0
M  V30 21513 H 1999.45 0.849481 5.27909 0
M  V30 21514 H 1999.79 -0.429909 4.14074 0
M  V30 21515 H 2000.32 1.23073 3.78283 0
M  V30 21516 H 1997.06 3.78489 5.35188 0
M  V30 21517 H 1996.58 2.09354 5.62077 0
M  V30 21518 H 1998.26 2.60595 5.92198 0
M  V30 21519 N 1998.39 -1.42074 0.682102 0
M  V30 21520 C 1999.64 -2.0066 0.204581 0
M  V30 21521 C 1999.95 -1.54595 -1.19832 0
M  V30 21522 O 2001.16 -2.05648 -1.7726 0
M  V30 21523 C 1999.62 -3.5852 0.31488 0
M  V30 21524 C 1999.22 -4.13571 1.7223 0
M  V30 21525 C 2000.97 -4.24374 -0.103556 0
M  V30 21526 C 1998.87 -5.6382 1.78497 0
M  V30 21527 H 1997.8 -0.750485 0.0727253 0
M  V30 21528 H 2000.46 -1.62712 0.848346 0
M  V30 21529 H 1998.84 -3.94006 -0.396905 0
M  V30 21530 H 2000.01 -3.89531 2.46176 0
M  V30 21531 H 1998.33 -3.60195 2.08922 0
M  V30 21532 H 2000.92 -5.34645 -0.0769789 0
M  V30 21533 H 2001.27 -4.00385 -1.14005 0
M  V30 21534 H 2001.8 -3.93874 0.557477 0
M  V30 21535 H 1998.54 -5.92616 2.80154 0
M  V30 21536 H 1998.06 -5.89828 1.08918 0
M  V30 21537 H 1999.74 -6.28363 1.54172 0
M  V30 21538 N 1999.87 -0.425924 -1.51735 0
M  V30 21539 C 2001.15 0.203721 -1.94536 0
M  V30 21540 C 2001.53 1.61124 -1.3639 0
M  V30 21541 O 2000.87 2.21871 -0.54638 0
M  V30 21542 C 2001.08 0.193041 -3.48466 0
M  V30 21543 C 2002.43 0.404204 -4.22672 0
M  V30 21544 O 2003.46 0.271662 -3.55163 0
M  V30 21545 O 2002.32 0.666926 -5.42415 0
M  V30 21546 H 1999.41 0.136115 -0.815722 0
M  V30 21547 H 2001.96 -0.48308 -1.62679 0
M  V30 21548 H 2000.73 -0.791421 -3.83213 0
M  V30 21549 H 2000.35 0.923235 -3.86733 0
M  V30 21550 N 2001.35 1.56817 -0.156891 0
M  V30 21551 C 2002.6 1.96051 0.490764 0
M  V30 21552 C 2002.92 1.04326 1.64746 0
M  V30 21553 O 2002.19 0.106736 1.95609 0
M  V30 21554 H 2000.77 0.72391 0.184293 0
M  V30 21555 H 2003.43 1.93482 -0.234704 0
M  V30 21556 H 2002.52 3.00007 0.86036 0
M  V30 21557 N 2002.83 -0.116876 1.57166 0
M  V30 21558 C 2004.07 -0.822873 1.84151 0
M  V30 21559 C 2004.39 -1.80944 0.742867 0
M  V30 21560 O 2005.59 -2.56177 0.89919 0
M  V30 21561 C 2004.05 -1.51414 3.26499 0
M  V30 21562 C 2003.66 -0.568446 4.44379 0
M  V30 21563 C 2005.4 -2.20514 3.62731 0
M  V30 21564 C 2003.31 -1.26306 5.77755 0
M  V30 21565 H 2002.24 -0.311047 0.686852 0
M  V30 21566 H 2004.89 -0.0756323 1.83344 0
M  V30 21567 H 2003.27 -2.30807 3.21782 0
M  V30 21568 H 2004.45 0.192429 4.60398 0
M  V30 21569 H 2002.76 0.0157058 4.16397 0
M  V30 21570 H 2005.36 -2.73177 4.5965 0
M  V30 21571 H 2005.7 -2.98411 2.90269 0
M  V30 21572 H 2006.23 -1.48006 3.69241 0
M  V30 21573 H 2002.97 -0.525332 6.53392 0
M  V30 21574 H 2002.49 -1.99589 5.65618 0
M  V30 21575 H 2004.17 -1.79566 6.21583 0
M  V30 21576 N 2004.3 -1.52772 -0.387116 0
M  V30 21577 C 2005.25 -1.78325 -1.49341 0
M  V30 21578 C 2006.25 -0.651278 -1.5638 0
M  V30 21579 O 2007.45 -0.833795 -1.59524 0
M  V30 21580 H 2003.83 -0.56428 -0.497084 0
M  V30 21581 H 2005.8 -2.70965 -1.24983 0
M  V30 21582 C 2004.55 -1.97079 -2.86453 0
M  V30 21583 H 2003.87 -2.83612 -2.81788 0
M  V30 21584 H 2005.31 -2.18947 -3.63095 0
M  V30 21585 C 2003.77 -0.743842 -3.28586 0
M  V30 21586 O 2004.3 0.0778266 -4.01625 0
M  V30 21587 N 2002.5 -0.573415 -2.84886 0
M  V30 21588 H 2002.05 -1.24319 -2.25616 0
M  V30 21589 H 2002.01 0.24616 -3.13435 0
M  V30 21590 N 2005.78 0.645673 -1.43767 0
M  V30 21591 C 2007.03 1.40137 -1.45067 0
M  V30 21592 C 2007.34 1.9543 -0.0815041 0
M  V30 21593 O 2008.55 2.71486 0.0280161 0
M  V30 21594 C 2007.01 2.53651 -2.55322 0
M  V30 21595 C 2006.61 2.04934 -3.98379 0
M  V30 21596 C 2008.36 3.30964 -2.65826 0
M  V30 21597 C 2006.26 3.15703 -5.00086 0
M  V30 21598 H 2005.19 0.52657 -0.539667 0
M  V30 21599 H 2007.85 0.696144 -1.69782 0
M  V30 21600 H 2006.23 3.26681 -2.23821 0
M  V30 21601 H 2007.4 1.38865 -4.39378 0
M  V30 21602 H 2005.72 1.40478 -3.91988 0
M  V30 21603 H 2008.31 4.13513 -3.38986 0
M  V30 21604 H 2008.66 3.79492 -1.71149 0
M  V30 21605 H 2009.19 2.65018 -2.96665 0
M  V30 21606 H 2005.93 2.72136 -5.96341 0
M  V30 21607 H 2005.45 3.80459 -4.63693 0
M  V30 21608 H 2007.13 3.80714 -5.23131 0
M  V30 21609 N 2007.26 1.30423 0.884744 0
M  V30 21610 C 2008.22 1.16804 1.97204 0
M  V30 21611 C 2009.22 0.0992103 1.60494 0
M  V30 21612 O 2010.41 0.34734 1.70702 0
M  V30 21613 C 2007.54 0.789574 3.3163 0
M  V30 21614 H 2008.74 2.13401 2.10713 0
M  V30 21615 H 2006.29 1.13823 1.07117 0
M  V30 21616 H 2007.03 -0.175888 3.23823 0
M  V30 21617 H 2006.81 1.562 3.59644 0
M  V30 21618 H 2008.3 0.717768 4.11385 0
M  V30 21619 N 2008.74 -1.09711 1.13142 0
M  V30 21620 C 2009.68 -2.16265 0.806118 0
M  V30 21621 C 2010.65 -1.64493 -0.230476 0
M  V30 21622 O 2011.84 -1.9052 -0.103375 0
M  V30 21623 C 2008.98 -3.44002 0.275075 0
M  V30 21624 C 2008.09 -4.09688 1.37038 0
M  V30 21625 C 2007.23 -5.25172 0.797983 0
M  V30 21626 C 2006.27 -5.82775 1.87189 0
M  V30 21627 N 2005.4 -6.89625 1.31766 0
M  V30 21628 H 2010.24 -2.43434 1.71883 0
M  V30 21629 H 2007.78 -1.19482 0.858044 0
M  V30 21630 H 2009.74 -4.17169 -0.0509244 0
M  V30 21631 H 2008.37 -3.1716 -0.600779 0
M  V30 21632 H 2007.42 -3.34415 1.81302 0
M  V30 21633 H 2008.73 -4.48535 2.18215 0
M  V30 21634 H 2007.89 -6.05223 0.423093 0
M  V30 21635 H 2006.63 -4.87679 -0.0448997 0
M  V30 21636 H 2005.63 -5.01388 2.25588 0
M  V30 21637 H 2006.86 -6.2233 2.71812 0
M  V30 21638 H 2004.8 -6.54117 0.496729 0
M  V30 21639 H 2004.72 -7.27224 2.06594 0
M  V30 21640 H 2005.99 -7.73438 0.970242 0
M  V30 21641 N 2010.22 -0.924476 -1.27637 0
M  V30 21642 C 2011.47 -0.559056 -1.93797 0
M  V30 21643 C 2011.78 0.903501 -1.73483 0
M  V30 21644 O 2012.98 1.37756 -2.33956 0
M  V30 21645 C 2011.44 -0.949035 -3.47162 0
M  V30 21646 C 2011.05 -2.43205 -3.76238 0
M  V30 21647 C 2012.79 -0.654714 -4.19421 0
M  V30 21648 C 2010.7 -2.7616 -5.22962 0
M  V30 21649 H 2009.63 -0.205363 -0.725494 0
M  V30 21650 H 2012.28 -1.12485 -1.4498 0
M  V30 21651 H 2010.66 -0.311922 -3.9477 0
M  V30 21652 H 2011.84 -3.1168 -3.39399 0
M  V30 21653 H 2010.15 -2.69794 -3.17176 0
M  V30 21654 H 2012.75 -0.877465 -5.27451 0
M  V30 21655 H 2013.09 0.407944 -4.14296 0
M  V30 21656 H 2013.62 -1.25078 -3.77625 0
M  V30 21657 H 2010.36 -3.81322 -5.33173 0
M  V30 21658 H 2009.88 -2.12332 -5.60959 0
M  V30 21659 H 2011.56 -2.63732 -5.90808 0
M  V30 21660 N 2011.69 1.41711 -0.689627 0
M  V30 21661 C 2012.94 2.00925 -0.217655 0
M  V30 21662 C 2013.26 1.5487 1.18491 0
M  V30 21663 O 2012.53 0.776746 1.79843 0
M  V30 21664 H 2011.11 0.742971 -0.0774783 0
M  V30 21665 H 2013.78 1.73421 -0.889456 0
M  V30 21666 H 2012.87 3.11248 -0.230451 0
M  V30 21667 N 2013.17 0.433965 1.51507 0
M  V30 21668 C 2014.1 -0.369789 2.30553 0
M  V30 21669 C 2015.08 -1.02405 1.35821 0
M  V30 21670 O 2016.27 -1.02833 1.64739 0
M  V30 21671 C 2013.4 -1.47312 3.1451 0
M  V30 21672 C 2012.35 -0.942531 4.17493 0
M  V30 21673 C 2011.68 -2.14135 4.89949 0
M  V30 21674 C 2012.98 0.0206958 5.22296 0
M  V30 21675 H 2014.67 0.289851 2.97994 0
M  V30 21676 H 2012.22 0.14084 1.4331 0
M  V30 21677 H 2014.17 -2.04259 3.68587 0
M  V30 21678 H 2012.9 -2.161 2.44884 0
M  V30 21679 H 2011.55 -0.395296 3.64463 0
M  V30 21680 H 2011.2 -2.81535 4.1683 0
M  V30 21681 H 2010.9 -1.79273 5.59584 0
M  V30 21682 H 2012.43 -2.71642 5.46848 0
M  V30 21683 H 2013.84 -0.458366 5.71465 0
M  V30 21684 H 2012.24 0.281718 5.99438 0
M  V30 21685 H 2013.31 0.958416 4.75334 0
M  V30 21686 N 2014.65 -1.56732 0.165206 0
M  V30 21687 C 2015.6 -2.14257 -0.779625 0
M  V30 21688 C 2016.58 -1.07517 -1.19704 0
M  V30 21689 O 2017.78 -1.33654 -1.16042 0
M  V30 21690 C 2014.91 -2.78206 -2.01137 0
M  V30 21691 C 2013.99 -3.92096 -1.61623 0
M  V30 21692 N 2014.38 -4.97171 -0.930308 0
M  V30 21693 C 2012.68 -4.03142 -1.90768 0
M  V30 21694 C 2013.38 -5.77017 -0.736666 0
M  V30 21695 N 2012.36 -5.28407 -1.27621 0
M  V30 21696 H 2016.16 -2.92864 -0.246531 0
M  V30 21697 H 2013.67 -1.62361 -0.0356946 0
M  V30 21698 H 2015.67 -3.17791 -2.69842 0
M  V30 21699 H 2014.33 -2.01078 -2.54947 0
M  V30 21700 H 2015.34 -5.14539 -0.589031 0
M  V30 21701 H 2012.02 -3.3711 -2.46299 0
M  V30 21702 H 2013.41 -6.71618 -0.194698 0
M  V30 21703 N 2016.13 0.10854 -1.57226 0
M  V30 21704 C 2017.41 0.845372 -1.76388 0
M  V30 21705 C 2017.79 1.97577 -0.743397 0
M  V30 21706 O 2017.13 2.27333 0.230685 0
M  V30 21707 C 2017.34 1.3524 -3.21732 0
M  V30 21708 C 2018.69 1.80056 -3.84532 0
M  V30 21709 O 2019.72 1.44895 -3.25398 0
M  V30 21710 O 2018.57 2.45026 -4.88492 0
M  V30 21711 H 2015.67 0.402224 -0.722596 0
M  V30 21712 H 2018.21 0.0914662 -1.69453 0
M  V30 21713 H 2016.99 0.541866 -3.8753 0
M  V30 21714 H 2016.61 2.16871 -3.33246 0
M  V30 21715 N 2017.61 1.52975 0.379009 0
M  V30 21716 C 2018.54 1.81436 1.46981 0
M  V30 21717 C 2019.52 0.666985 1.56478 0
M  V30 21718 O 2020.7 0.915545 1.71264 0
M  V30 21719 C 2017.83 1.99221 2.84479 0
M  V30 21720 C 2016.79 3.14946 2.89816 0
M  V30 21721 C 2016.11 3.18001 4.2986 0
M  V30 21722 C 2017.41 4.53814 2.58554 0
M  V30 21723 H 2019.11 2.72781 1.23413 0
M  V30 21724 H 2016.65 1.31257 0.592257 0
M  V30 21725 H 2018.61 2.17714 3.60803 0
M  V30 21726 H 2017.33 1.04573 3.09406 0
M  V30 21727 H 2015.99 2.96251 2.15942 0
M  V30 21728 H 2015.64 2.21017 4.51841 0
M  V30 21729 H 2015.34 3.95746 4.34349 0
M  V30 21730 H 2016.86 3.38662 5.08075 0
M  V30 21731 H 2018.27 4.72559 3.24593 0
M  V30 21732 H 2016.67 5.33701 2.74379 0
M  V30 21733 H 2017.74 4.59845 1.53853 0
M  V30 21734 N 2019.08 -0.63804 1.44107 0
M  V30 21735 C 2020.5 -0.955442 1.27842 0
M  V30 21736 C 2020.7 -2.00412 0.209151 0
M  V30 21737 O 2019.76 -2.49193 -0.407303 0
M  V30 21738 C 2021.07 -1.42528 2.64776 0
M  V30 21739 C 2022.62 -1.54112 2.72431 0
M  V30 21740 C 2023.09 -2.04482 4.09819 0
M  V30 21741 N 2024.58 -2.11762 4.1196 0
M  V30 21742 C 2025.32 -2.51891 5.1511 0
M  V30 21743 N 2024.81 -2.91207 6.28626 0
M  V30 21744 N 2026.61 -2.51964 5.02464 0
M  V30 21745 H 2018.76 0.0556164 2.12327 0
M  V30 21746 H 2021.02 -0.037732 0.947249 0
M  V30 21747 H 2020.73 -0.729067 3.4406 0
M  V30 21748 H 2020.6 -2.39756 2.91199 0
M  V30 21749 H 2022.99 -2.22831 1.93469 0
M  V30 21750 H 2023.07 -0.552769 2.49756 0
M  V30 21751 H 2022.71 -1.3636 4.89253 0
M  V30 21752 H 2022.64 -3.04176 4.29866 0
M  V30 21753 H 2025.13 -1.8409 3.30029 0
M  V30 21754 H 2025.45 -3.2062 7.03152 0
M  V30 21755 H 2023.79 -2.88975 6.32075 0
M  V30 21756 H 2026.98 -2.20635 4.12841 0
M  V30 21757 H 2027.16 -2.82915 5.82978 0
M  V30 21758 N 2020.56 -1.3089 -0.877815 0
M  V30 21759 C 2021.81 -1.20125 -1.63022 0
M  V30 21760 C 2022.14 0.242414 -1.92983 0
M  V30 21761 O 2021.39 1.18896 -1.55442 0
M  V30 21762 C 2021.69 -1.98261 -2.97367 0
M  V30 21763 C 2021.36 -3.47825 -2.8693 0
M  V30 21764 C 2020.02 -3.88608 -2.8379 0
M  V30 21765 C 2022.37 -4.43035 -2.74535 0
M  V30 21766 C 2019.7 -5.22882 -2.66104 0
M  V30 21767 C 2022.05 -5.77425 -2.58386 0
M  V30 21768 C 2020.72 -6.17439 -2.53625 0
M  V30 21769 H 2019.99 -0.439569 -0.59654 0
M  V30 21770 H 2022.63 -1.6207 -1.02007 0
M  V30 21771 H 2020.94 -1.48972 -3.62373 0
M  V30 21772 H 2022.63 -1.87319 -3.5456 0
M  V30 21773 H 2019.22 -3.1542 -2.90187 0
M  V30 21774 H 2023.41 -4.12463 -2.76021 0
M  V30 21775 H 2018.66 -5.52968 -2.60837 0
M  V30 21776 H 2022.84 -6.50833 -2.4777 0
M  V30 21777 H 2020.47 -7.21428 -2.39679 0
M  V30 21778 N 2022.04 1.0911 -1.13723 0
M  V30 21779 C 2022.99 2.15834 -0.817576 0
M  V30 21780 C 2023.96 1.64613 0.221749 0
M  V30 21781 O 2025.14 1.90572 0.0932703 0
M  V30 21782 C 2022.28 3.43851 -0.293315 0
M  V30 21783 C 2021.4 4.08956 -1.39208 0
M  V30 21784 C 2020.53 5.24741 -0.825823 0
M  V30 21785 C 2019.57 5.81774 -1.90277 0
M  V30 21786 N 2018.71 6.88916 -1.35421 0
M  V30 21787 H 2023.55 2.42519 -1.73172 0
M  V30 21788 H 2021.08 1.19026 -0.864368 0
M  V30 21789 H 2023.04 4.1719 0.0288002 0
M  V30 21790 H 2021.67 3.17474 0.583951 0
M  V30 21791 H 2020.72 3.33449 -1.83073 0
M  V30 21792 H 2022.04 4.47372 -2.2059 0
M  V30 21793 H 2021.19 6.0499 -0.455184 0
M  V30 21794 H 2019.93 4.87696 0.0190362 0
M  V30 21795 H 2018.93 5.00185 -2.28244 0
M  V30 21796 H 2020.16 6.2088 -2.75109 0
M  V30 21797 H 2018.1 6.53844 -0.531412 0
M  V30 21798 H 2018.02 7.26118 -2.10448 0
M  V30 21799 H 2019.29 7.72913 -1.01125 0
M  V30 21800 N 2023.52 0.931232 1.27145 0
M  V30 21801 C 2024.77 0.569326 1.93498 0
M  V30 21802 C 2025.08 -0.894288 1.73959 0
M  V30 21803 O 2026.29 -1.36513 2.34684 0
M  V30 21804 C 2024.74 0.967432 3.46654 0
M  V30 21805 C 2024.35 2.45197 3.74943 0
M  V30 21806 C 2026.09 0.676947 4.19068 0
M  V30 21807 C 2024 2.7893 5.2149 0
M  V30 21808 H 2022.93 0.209208 0.724395 0
M  V30 21809 H 2025.58 1.13252 1.44382 0
M  V30 21810 H 2023.96 0.332853 3.94599 0
M  V30 21811 H 2025.14 3.13476 3.37742 0
M  V30 21812 H 2023.45 2.71472 3.1574 0
M  V30 21813 H 2026.05 0.905425 5.26978 0
M  V30 21814 H 2026.39 -0.385967 4.14507 0
M  V30 21815 H 2026.93 1.27079 3.76956 0
M  V30 21816 H 2023.67 3.84144 5.31144 0
M  V30 21817 H 2023.19 2.15304 5.59825 0
M  V30 21818 H 2024.86 2.66862 5.89401 0
M  V30 21819 N 2025 -1.41343 0.697132 0
M  V30 21820 C 2026.23 -2.05528 0.237841 0
M  V30 21821 C 2026.64 -1.52468 -1.11351 0
M  V30 21822 O 2026 -0.673549 -1.69616 0
M  V30 21823 C 2026.05 -3.61007 0.188651 0
M  V30 21824 O 2025.77 -4.12106 1.48662 0
M  V30 21825 C 2027.27 -4.42341 -0.291439 0
M  V30 21826 H 2024.49 -0.661864 0.110352 0
M  V30 21827 H 2027.03 -1.81086 0.950155 0
M  V30 21828 H 2025.19 -3.84483 -0.474496 0
M  V30 21829 H 2025.6 -5.06162 1.37477 0
M  V30 21830 H 2027.08 -5.51316 -0.274731 0
M  V30 21831 H 2027.55 -4.1856 -1.33057 0
M  V30 21832 H 2028.16 -4.23933 0.340765 0
M  V30 21833 N 2026.48 -0.441993 -1.51275 0
M  V30 21834 C 2027.72 0.124439 -2.01316 0
M  V30 21835 C 2028.04 1.43376 -1.33051 0
M  V30 21836 O 2029.24 2.08342 -1.74086 0
M  V30 21837 C 2027.7 0.272307 -3.58868 0
M  V30 21838 C 2027.31 -1.02686 -4.36073 0
M  V30 21839 C 2029.05 0.792259 -4.17041 0
M  V30 21840 C 2026.96 -0.844378 -5.85341 0
M  V30 21841 H 2025.89 0.0502803 -0.752322 0
M  V30 21842 H 2028.54 -0.572465 -1.74342 0
M  V30 21843 H 2026.92 1.03232 -3.82308 0
M  V30 21844 H 2028.1 -1.79557 -4.24377 0
M  V30 21845 H 2026.41 -1.4757 -3.89374 0
M  V30 21846 H 2029.01 0.94535 -5.26277 0
M  V30 21847 H 2029.35 1.77595 -3.76518 0
M  V30 21848 H 2029.88 0.0904292 -3.97697 0
M  V30 21849 H 2026.62 -1.80058 -6.30285 0
M  V30 21850 H 2026.14 -0.115549 -5.99689 0
M  V30 21851 H 2027.82 -0.499412 -6.4507 0
M  V30 21852 N 2027.95 1.56642 -0.173515 0
M  V30 21853 C 2029.2 1.96124 0.470974 0
M  V30 21854 C 2029.52 1.06229 1.6424 0
M  V30 21855 O 2030.72 1.35402 2.35327 0
M  V30 21856 C 2029.18 3.4874 0.889284 0
M  V30 21857 C 2028.79 4.47264 -0.256662 0
M  V30 21858 C 2030.53 3.97037 1.50207 0
M  V30 21859 C 2028.44 5.91122 0.181401 0
M  V30 21860 H 2027.37 0.732267 0.179724 0
M  V30 21861 H 2030.02 1.81619 -0.262096 0
M  V30 21862 H 2028.4 3.58672 1.6784 0
M  V30 21863 H 2029.57 4.49049 -1.03401 0
M  V30 21864 H 2027.89 4.09038 -0.779546 0
M  V30 21865 H 2030.49 5.01974 1.8419 0
M  V30 21866 H 2030.83 3.401 2.40078 0
M  V30 21867 H 2031.36 3.90131 0.777351 0
M  V30 21868 H 2028.1 6.51936 -0.682591 0
M  V30 21869 H 2027.62 5.92639 0.924063 0
M  V30 21870 H 2029.3 6.43979 0.624532 0
M  V30 21871 N 2029.43 -0.1002 1.57281 0
M  V30 21872 C 2030.84 -0.655287 1.74822 0
M  V30 21873 C 2031.19 -1.79373 0.794961 0
M  V30 21874 O 2030.32 -2.16382 -0.0277532 0
M  V30 21875 C 2030.91 -1.19548 3.17008 0
M  V30 21876 C 2029.47 -1.69668 3.35991 0
M  V30 21877 C 2028.62 -0.604127 2.70639 0
M  V30 21878 H 2031.57 0.125841 1.582 0
M  V30 21879 H 2031.59 -2.06489 3.19598 0
M  V30 21880 H 2031.1 -0.366679 3.86364 0
M  V30 21881 H 2029.2 -2.54964 2.71706 0
M  V30 21882 H 2029.32 -1.79318 4.44277 0
M  V30 21883 H 2027.68 -1.04234 2.32395 0
M  V30 21884 H 2028.46 0.214006 3.42632 0
M  V30 21885 N 2030.91 -1.53174 -0.370891 0
M  V30 21886 C 2031.84 -1.75513 -1.47403 0
M  V30 21887 C 2032.85 -0.635818 -1.49871 0
M  V30 21888 O 2034.04 -0.911956 -1.53446 0
M  V30 21889 C 2031.14 -1.81519 -2.86189 0
M  V30 21890 C 2030.32 -3.11087 -3.07479 0
M  V30 21891 C 2029.38 -3.08403 -4.26349 0
M  V30 21892 O 2028.4 -3.82218 -4.2178 0
M  V30 21893 N 2029.6 -2.28851 -5.33486 0
M  V30 21894 H 2032.37 -2.70697 -1.2862 0
M  V30 21895 H 2029.93 -1.51886 -0.56057 0
M  V30 21896 H 2031.92 -1.77207 -3.6384 0
M  V30 21897 H 2030.49 -0.936423 -2.98245 0
M  V30 21898 H 2029.71 -3.28744 -2.17534 0
M  V30 21899 H 2031 -3.96726 -3.18569 0
M  V30 21900 H 2030.4 -1.68381 -5.4006 0
M  V30 21901 H 2028.95 -2.30363 -6.09734 0
M  V30 21902 N 2032.39 0.630389 -1.44443 0
M  V30 21903 C 2033.66 1.38877 -1.3774 0
M  V30 21904 C 2034.04 2.11068 -0.0364918 0
M  V30 21905 O 2033.39 2.06373 0.98094 0
M  V30 21906 C 2033.6 2.35458 -2.57606 0
M  V30 21907 C 2034.95 2.98766 -3.01702 0
M  V30 21908 O 2035.97 2.45783 -2.57816 0
M  V30 21909 O 2034.83 3.94883 -3.77796 0
M  V30 21910 H 2031.93 0.621587 -0.54549 0
M  V30 21911 H 2034.47 0.655382 -1.56534 0
M  V30 21912 H 2033.25 1.81218 -3.46808 0
M  V30 21913 H 2032.87 3.16213 -2.41029 0
M  V30 21914 N 2033.87 1.31354 0.870861 0
M  V30 21915 C 2035.28 1.18891 1.43951 0
M  V30 21916 C 2035.63 -0.204961 1.95126 0
M  V30 21917 O 2034.75 -1.10266 1.862 0
M  V30 21918 C 2035.35 2.15226 2.61655 0
M  V30 21919 C 2033.91 2.06699 3.14567 0
M  V30 21920 C 2033.05 2.04505 1.87277 0
M  V30 21921 H 2036 1.43418 0.679486 0
M  V30 21922 H 2036.03 1.74134 3.38316 0
M  V30 21923 H 2035.54 3.16664 2.24378 0
M  V30 21924 H 2033.64 1.08452 3.56467 0
M  V30 21925 H 2033.75 2.95763 3.7691 0
M  V30 21926 H 2032.12 1.49508 2.06202 0
M  V30 21927 H 2032.9 3.07698 1.52239 0
M  V30 21928 N 2035.34 -1.08505 1.143 0
M  V30 21929 C 2036.59 -1.8114 0.911938 0
M  V30 21930 C 2036.92 -1.85946 -0.560156 0
M  V30 21931 O 2036.2 -1.33458 -1.41489 0
M  V30 21932 C 2036.48 -3.26806 1.51227 0
M  V30 21933 C 2036.33 -3.30215 3.05414 0
M  V30 21934 C 2037.65 -4.23754 1.1883 0
M  V30 21935 H 2034.77 -0.657619 0.332725 0
M  V30 21936 H 2037.41 -1.27044 1.41279 0
M  V30 21937 H 2035.56 -3.73003 1.08633 0
M  V30 21938 H 2037.24 -2.92351 3.56832 0
M  V30 21939 H 2035.48 -2.69518 3.39915 0
M  V30 21940 H 2036.15 -4.32875 3.42525 0
M  V30 21941 H 2038.63 -3.8589 1.55653 0
M  V30 21942 H 2037.5 -5.23993 1.63469 0
M  V30 21943 H 2037.76 -4.41979 0.103442 0
M  V30 21944 N 2036.82 -0.937962 -1.26649 0
M  V30 21945 C 2037.75 -0.462649 -2.28871 0
M  V30 21946 C 2038.73 0.4824 -1.63116 0
M  V30 21947 O 2039.92 0.384947 -1.90347 0
M  V30 21948 C 2037.05 0.275964 -3.46202 0
M  V30 21949 C 2036 -0.582222 -4.24021 0
M  V30 21950 C 2035.33 0.286161 -5.33934 0
M  V30 21951 C 2036.63 -1.85193 -4.88365 0
M  V30 21952 H 2038.32 -1.31698 -2.68879 0
M  V30 21953 H 2035.87 -0.634709 -1.29257 0
M  V30 21954 H 2037.82 0.619496 -4.16822 0
M  V30 21955 H 2036.54 1.1644 -3.05138 0
M  V30 21956 H 2035.2 -0.908604 -3.55162 0
M  V30 21957 H 2034.85 1.17386 -4.89111 0
M  V30 21958 H 2034.55 -0.284618 -5.8691 0
M  V30 21959 H 2036.08 0.625035 -6.07393 0
M  V30 21960 H 2037.49 -1.57584 -5.51217 0
M  V30 21961 H 2035.89 -2.36702 -5.51445 0
M  V30 21962 H 2036.96 -2.56526 -4.11488 0
M  V30 21963 N 2038.3 1.40971 -0.704618 0
M  V30 21964 C 2039.55 2.0108 -0.239427 0
M  V30 21965 C 2039.87 1.55835 1.16386 0
M  V30 21966 O 2039.13 0.76445 1.80152 0
M  V30 21967 C 2039.43 3.56487 -0.255368 0
M  V30 21968 C 2039.09 4.21275 -1.60743 0
M  V30 21969 C 2037.76 4.38686 -1.97756 0
M  V30 21970 C 2040.11 4.57518 -2.49654 0
M  V30 21971 C 2037.44 4.8962 -3.23247 0
M  V30 21972 C 2039.79 5.09846 -3.74486 0
M  V30 21973 C 2038.45 5.25468 -4.11631 0
M  V30 21974 H 2037.72 0.735802 -0.0876124 0
M  V30 21975 H 2040.37 1.6874 -0.905491 0
M  V30 21976 H 2038.67 3.8867 0.494257 0
M  V30 21977 H 2040.37 4.00814 0.122235 0
M  V30 21978 H 2036.96 4.08103 -1.30957 0
M  V30 21979 H 2041.15 4.43712 -2.22336 0
M  V30 21980 H 2036.4 4.99899 -3.52009 0
M  V30 21981 H 2040.58 5.36868 -4.4356 0
M  V30 21982 H 2038.2 5.64697 -5.08941 0
M  V30 21983 N 2039.78 0.45001 1.51039 0
M  V30 21984 C 2041 -0.112834 2.07093 0
M  V30 21985 C 2041.43 -1.34598 1.31397 0
M  V30 21986 O 2040.79 -1.7778 0.355505 0
M  V30 21987 C 2040.83 -0.400989 3.58364 0
M  V30 21988 O 2039.94 -1.48527 3.84725 0
M  V30 21989 H 2039.28 0.00369778 0.66399 0
M  V30 21990 H 2041.81 0.634991 1.94497 0
M  V30 21991 H 2041.82 -0.647726 4.02826 0
M  V30 21992 H 2040.49 0.500232 4.12881 0
M  V30 21993 H 2039.07 -1.2275 3.52118 0
M  V30 21994 N 2041.26 -1.56548 0.18182 0
M  V30 21995 C 2042.5 -1.96807 -0.459512 0
M  V30 21996 C 2042.83 -1.06933 -1.63065 0
M  V30 21997 O 2042.1 -0.137842 -1.95414 0
M  V30 21998 H 2040.68 -0.72675 -0.172753 0
M  V30 21999 H 2043.34 -1.93084 0.265455 0
M  V30 22000 H 2042.43 -3.01338 -0.812522 0
M  V30 22001 N 2042.73 0.0918577 -1.57332 0
M  V30 22002 C 2043.96 0.81208 -1.9084 0
M  V30 22003 C 2044.38 1.71329 -0.776394 0
M  V30 22004 O 2043.74 1.7925 0.271867 0
M  V30 22005 C 2043.79 1.59867 -3.23226 0
M  V30 22006 O 2042.89 2.70787 -3.11044 0
M  V30 22007 H 2042.24 0.222886 -0.625474 0
M  V30 22008 H 2044.77 0.0661119 -2.04493 0
M  V30 22009 H 2044.78 1.98221 -3.56613 0
M  V30 22010 H 2043.45 0.937296 -4.05201 0
M  V30 22011 H 2042.03 2.35438 -2.89177 0
M  V30 22012 N 2044.21 1.53368 0.362763 0
M  V30 22013 C 2045.14 1.82984 1.45048 0
M  V30 22014 C 2046.12 0.683544 1.55762 0
M  V30 22015 O 2047.31 0.933658 1.70283 0
M  V30 22016 C 2044.44 2.02227 2.8235 0
M  V30 22017 C 2043.39 3.18002 2.86459 0
M  V30 22018 C 2042.72 3.22543 4.26463 0
M  V30 22019 C 2044.02 4.56531 2.53726 0
M  V30 22020 H 2045.71 2.74075 1.20513 0
M  V30 22021 H 2043.26 1.31877 0.578302 0
M  V30 22022 H 2045.21 2.21529 3.58473 0
M  V30 22023 H 2043.94 1.07849 3.08279 0
M  V30 22024 H 2042.59 2.98525 2.12787 0
M  V30 22025 H 2042.24 2.25797 4.49472 0
M  V30 22026 H 2041.94 4.00331 4.30127 0
M  V30 22027 H 2043.47 3.44032 5.04455 0
M  V30 22028 H 2044.88 4.75975 3.19563 0
M  V30 22029 H 2043.28 5.36581 2.68703 0
M  V30 22030 H 2044.35 4.61451 1.48967 0
M  V30 22031 N 2045.69 -0.62272 1.44776 0
M  V30 22032 C 2047.11 -0.941829 1.28848 0
M  V30 22033 C 2047.31 -2.00178 0.230395 0
M  V30 22034 O 2046.36 -2.49611 -0.38085 0
M  V30 22035 C 2047.68 -1.39711 2.66273 0
M  V30 22036 C 2049.22 -1.51214 2.7405 0
M  V30 22037 C 2049.7 -2.00123 4.11964 0
M  V30 22038 N 2051.19 -2.07381 4.14183 0
M  V30 22039 C 2051.92 -2.46413 5.17753 0
M  V30 22040 N 2051.42 -2.84523 6.31679 0
M  V30 22041 N 2053.21 -2.46621 5.05109 0
M  V30 22042 H 2045.36 0.0781334 2.12256 0
M  V30 22043 H 2047.63 -0.0276831 0.947596 0
M  V30 22044 H 2047.33 -0.692534 3.44814 0
M  V30 22045 H 2047.21 -2.36654 2.93726 0
M  V30 22046 H 2049.59 -2.20767 1.95822 0
M  V30 22047 H 2049.68 -0.526248 2.50328 0
M  V30 22048 H 2049.32 -1.31163 4.90672 0
M  V30 22049 H 2049.25 -2.99599 4.33068 0
M  V30 22050 H 2051.74 -1.8058 3.31963 0
M  V30 22051 H 2052.05 -3.13144 7.06513 0
M  V30 22052 H 2050.4 -2.82254 6.35104 0
M  V30 22053 H 2053.59 -2.16244 4.15158 0
M  V30 22054 H 2053.76 -2.76715 5.85946 0
M  V30 22055 N 2047.17 -1.31814 -0.863883 0
M  V30 22056 C 2048.1 -1.14307 -1.97507 0
M  V30 22057 C 2049.08 -0.0449482 -1.62538 0
M  V30 22058 O 2050.26 -0.202523 -1.87409 0
M  V30 22059 C 2047.39 -0.74789 -3.3034 0
M  V30 22060 C 2046.44 -1.84993 -3.84291 0
M  V30 22061 S 2047.27 -3.45653 -4.09004 0
M  V30 22062 C 2048.43 -3.08085 -5.44825 0
M  V30 22063 H 2048.66 -2.08375 -2.12054 0
M  V30 22064 H 2046.19 -1.16369 -1.01478 0
M  V30 22065 H 2048.15 -0.52664 -4.07108 0
M  V30 22066 H 2046.81 0.173775 -3.13619 0
M  V30 22067 H 2046 -1.5262 -4.80337 0
M  V30 22068 H 2045.61 -2.02655 -3.14336 0
M  V30 22069 H 2047.9 -2.57356 -6.26717 0
M  V30 22070 H 2048.84 -4.03117 -5.82153 0
M  V30 22071 H 2049.25 -2.45359 -5.08389 0
M  V30 22072 N 2048.65 1.07897 -1.14873 0
M  V30 22073 C 2049.59 2.17052 -0.836135 0
M  V30 22074 C 2050.59 1.68352 0.188148 0
M  V30 22075 O 2051.79 1.79947 0.0437298 0
M  V30 22076 H 2048.17 0.708271 -0.252698 0
M  V30 22077 H 2050.14 2.40639 -1.76452 0
M  V30 22078 C 2048.89 3.46076 -0.335713 0
M  V30 22079 H 2048.21 3.8393 -1.11525 0
M  V30 22080 H 2049.65 4.23714 -0.155587 0
M  V30 22081 C 2048.11 3.23471 0.941711 0
M  V30 22082 O 2048.64 3.47541 2.0144 0
M  V30 22083 N 2046.85 2.76987 0.879016 0
M  V30 22084 H 2046.39 2.57599 0.00591639 0
M  V30 22085 H 2046.35 2.62241 1.73427 0
M  V30 22086 N 2050.12 0.944665 1.2615 0
M  V30 22087 C 2051.05 0.47478 2.28622 0
M  V30 22088 C 2052.04 -0.473742 1.6337 0
M  V30 22089 O 2053.22 -0.374847 1.90548 0
M  V30 22090 C 2050.35 -0.2576 3.46343 0
M  V30 22091 C 2049.3 0.604701 4.23707 0
M  V30 22092 C 2048.63 -0.257841 5.34078 0
M  V30 22093 C 2049.93 1.8778 4.87377 0
M  V30 22094 H 2051.62 1.33122 2.68177 0
M  V30 22095 H 2049.17 0.641555 1.28919 0
M  V30 22096 H 2051.12 -0.597382 4.17144 0
M  V30 22097 H 2049.85 -1.14821 3.05751 0
M  V30 22098 H 2048.51 0.927426 3.54675 0
M  V30 22099 H 2048.15 -1.1479 4.89727 0
M  V30 22100 H 2047.85 0.315739 5.86751 0
M  V30 22101 H 2049.38 -0.592815 6.07715 0
M  V30 22102 H 2050.79 1.60505 5.50374 0
M  V30 22103 H 2049.19 2.39623 5.50182 0
M  V30 22104 H 2050.26 2.58705 4.10122 0
M  V30 22105 N 2051.6 -1.40596 0.712085 0
M  V30 22106 C 2052.88 -1.94794 0.177392 0
M  V30 22107 C 2053.26 -1.65047 -1.31616 0
M  V30 22108 O 2052.61 -0.966262 -2.07064 0
M  V30 22109 C 2052.82 -3.45594 0.486369 0
M  V30 22110 C 2054.17 -4.22487 0.423115 0
M  V30 22111 O 2055.19 -3.53689 0.422227 0
M  V30 22112 O 2054.05 -5.45052 0.397587 0
M  V30 22113 H 2051.14 -0.826632 0.0246541 0
M  V30 22114 H 2053.69 -1.50223 0.789377 0
M  V30 22115 H 2052.46 -3.60591 1.51953 0
M  V30 22116 H 2052.08 -3.97295 -0.155756 0
M  V30 22117 N 2053.08 -0.458013 -1.50798 0
M  V30 22118 C 2054.49 0.00023852 -1.867 0
M  V30 22119 C 2054.84 1.40078 -1.37378 0
M  V30 22120 O 2053.97 2.036 -0.733219 0
M  V30 22121 C 2054.56 0.00720883 -3.38799 0
M  V30 22122 C 2053.12 0.409942 -3.74161 0
M  V30 22123 C 2052.27 -0.383856 -2.7463 0
M  V30 22124 H 2055.22 -0.672909 -1.43728 0
M  V30 22125 H 2055.24 0.812262 -3.71729 0
M  V30 22126 H 2054.75 -1.01225 -3.74667 0
M  V30 22127 H 2052.85 1.43423 -3.4389 0
M  V30 22128 H 2052.97 0.120374 -4.78949 0
M  V30 22129 H 2051.33 0.16068 -2.54193 0
M  V30 22130 H 2052.11 -1.40258 -3.13341 0
M  V30 22131 N 2054.56 1.56449 -0.190119 0
M  V30 22132 C 2055.81 1.97438 0.449957 0
M  V30 22133 C 2056.13 1.07682 1.61972 0
M  V30 22134 O 2055.39 0.114859 1.95363 0
M  V30 22135 C 2055.69 3.44349 0.956988 0
M  V30 22136 C 2055.35 4.50792 -0.098868 0
M  V30 22137 C 2054.02 4.79625 -0.389003 0
M  V30 22138 C 2056.37 5.14795 -0.814559 0
M  V30 22139 C 2053.7 5.69754 -1.39989 0
M  V30 22140 C 2056.05 6.06017 -1.81456 0
M  V30 22141 C 2054.71 6.33209 -2.11195 0
M  V30 22142 H 2053.98 0.722476 0.164651 0
M  V30 22143 H 2056.63 1.89352 -0.286039 0
M  V30 22144 H 2054.93 3.49481 1.77116 0
M  V30 22145 H 2056.63 3.73416 1.46155 0
M  V30 22146 H 2053.22 4.2838 0.137435 0
M  V30 22147 H 2057.41 4.92615 -0.603633 0
M  V30 22148 H 2052.66 5.89098 -1.63627 0
M  V30 22149 H 2056.84 6.54672 -2.37438 0
M  V30 22150 H 2054.46 7.02847 -2.89672 0
M  V30 22151 N 2056.04 -0.0835127 1.57379 0
M  V30 22152 C 2057.26 -0.801948 1.91268 0
M  V30 22153 C 2057.69 -1.70915 0.785469 0
M  V30 22154 O 2057.05 -1.79392 -0.262357 0
M  V30 22155 C 2057.09 -1.58151 3.24069 0
M  V30 22156 O 2056.2 -2.69134 3.12475 0
M  V30 22157 H 2055.54 -0.219566 0.626647 0
M  V30 22158 H 2058.07 -0.0552662 2.04525 0
M  V30 22159 H 2058.08 -1.96327 3.57659 0
M  V30 22160 H 2056.75 -0.915794 4.05692 0
M  V30 22161 H 2055.33 -2.33901 2.90422 0
M  V30 22162 N 2057.52 -1.53558 -0.354624 0
M  V30 22163 C 2058.45 -1.77067 -1.45533 0
M  V30 22164 C 2059.46 -0.651678 -1.49188 0
M  V30 22165 O 2060.65 -0.92818 -1.5247 0
M  V30 22166 C 2057.75 -1.84544 -2.84248 0
M  V30 22167 C 2056.92 -3.14331 -3.04162 0
M  V30 22168 C 2055.98 -3.12908 -4.23054 0
M  V30 22169 O 2055.01 -3.8667 -4.17702 0
M  V30 22170 N 2056.21 -2.34497 -5.31029 0
M  V30 22171 H 2058.97 -2.72046 -1.25742 0
M  V30 22172 H 2056.54 -1.52472 -0.544429 0
M  V30 22173 H 2058.53 -1.81056 -3.6194 0
M  V30 22174 H 2057.1 -0.968003 -2.97235 0
M  V30 22175 H 2056.32 -3.31033 -2.14035 0
M  V30 22176 H 2057.61 -4.00082 -3.14343 0
M  V30 22177 H 2057 -1.741 -5.38243 0
M  V30 22178 H 2055.56 -2.36817 -6.07257 0
M  V30 22179 N 2058.99 0.615033 -1.45104 0
M  V30 22180 C 2060.22 1.39902 -1.52023 0
M  V30 22181 C 2060.63 1.88611 -0.149112 0
M  V30 22182 O 2059.97 1.6242 0.858222 0
M  V30 22183 C 2060.04 2.6429 -2.43703 0
M  V30 22184 C 2059.7 2.3727 -3.90579 0
M  V30 22185 C 2060.7 1.98094 -4.80682 0
M  V30 22186 C 2058.38 2.50412 -4.3543 0
M  V30 22187 C 2060.38 1.72411 -6.13639 0
M  V30 22188 C 2058.06 2.24342 -5.68431 0
M  V30 22189 C 2059.06 1.85402 -6.57354 0
M  V30 22190 O 2058.75 1.59633 -7.87891 0
M  V30 22191 H 2058.48 0.434923 -0.517511 0
M  V30 22192 H 2061.04 0.757868 -1.90907 0
M  V30 22193 H 2059.27 3.31099 -1.99775 0
M  V30 22194 H 2060.95 3.26322 -2.41389 0
M  V30 22195 H 2061.72 1.87483 -4.47297 0
M  V30 22196 H 2057.6 2.79689 -3.66463 0
M  V30 22197 H 2061.14 1.41942 -6.83007 0
M  V30 22198 H 2057.04 2.34567 -6.01372 0
M  V30 22199 H 2057.81 1.73747 -7.99846 0
M  V30 22200 N 2060.47 1.3227 0.85688 0
M  V30 22201 C 2061.7 1.25837 1.64863 0
M  V30 22202 C 2062.12 -0.171028 1.87321 0
M  V30 22203 O 2061.48 -1.12165 1.42438 0
M  V30 22204 C 2061.53 2.02105 2.9864 0
M  V30 22205 O 2060.63 1.36733 3.89073 0
M  V30 22206 H 2059.97 0.433799 0.502707 0
M  V30 22207 H 2062.5 1.7455 1.0674 0
M  V30 22208 H 2062.51 2.12195 3.48479 0
M  V30 22209 H 2061.19 3.06048 2.81616 0
M  V30 22210 H 2059.76 1.35177 3.47537 0
M  V30 22211 N 2061.95 -1.07287 1.15444 0
M  V30 22212 C 2063.23 -1.76634 0.840221 0
M  V30 22213 C 2063.61 -2.00384 -0.664037 0
M  V30 22214 O 2062.95 -1.62284 -1.60861 0
M  V30 22215 C 2063.16 -3.07439 1.65174 0
M  V30 22216 C 2064.51 -3.81773 1.85835 0
M  V30 22217 O 2065.54 -3.17252 1.61955 0
M  V30 22218 O 2064.4 -4.97656 2.25834 0
M  V30 22219 H 2061.49 -0.76708 0.309059 0
M  V30 22220 H 2064.04 -1.13646 1.26026 0
M  V30 22221 H 2062.81 -2.85774 2.67299 0
M  V30 22222 H 2062.43 -3.78159 1.22807 0
M  V30 22223 N 2063.43 -0.951342 -1.25647 0
M  V30 22224 C 2064.34 -0.475416 -2.29732 0
M  V30 22225 C 2065.35 0.455617 -1.67929 0
M  V30 22226 O 2066.53 0.332666 -1.98634 0
M  V30 22227 C 2063.59 0.242274 -3.45852 0
M  V30 22228 C 2062.66 -0.726566 -4.23107 0
M  V30 22229 C 2061.89 -0.043031 -5.33683 0
M  V30 22230 O 2062.11 1.17196 -5.5823 0
M  V30 22231 O 2061.05 -0.726899 -5.97495 0
M  V30 22232 H 2064.87 -1.34027 -2.72526 0
M  V30 22233 H 2062.46 -0.717655 -1.31035 0
M  V30 22234 H 2064.34 0.646132 -4.16417 0
M  V30 22235 H 2063.01 1.08236 -3.05068 0
M  V30 22236 H 2061.92 -1.18057 -3.54984 0
M  V30 22237 H 2063.25 -1.53457 -4.67666 0
M  V30 22238 N 2064.91 1.40216 -0.719531 0
M  V30 22239 C 2065.82 2.34494 -0.0706489 0
M  V30 22240 C 2066.83 1.5751 0.739372 0
M  V30 22241 O 2068.01 1.89879 0.671417 0
M  V30 22242 C 2065.07 3.36441 0.837178 0
M  V30 22243 C 2064.13 4.29297 0.0166603 0
M  V30 22244 C 2063.37 5.26374 0.881251 0
M  V30 22245 O 2063.59 5.29524 2.1204 0
M  V30 22246 O 2062.52 6.01059 0.318141 0
M  V30 22247 H 2066.35 2.91609 -0.848392 0
M  V30 22248 H 2063.93 1.41478 -0.480047 0
M  V30 22249 H 2065.82 3.98951 1.35707 0
M  V30 22250 H 2064.49 2.81733 1.594 0
M  V30 22251 H 2063.4 3.70059 -0.54839 0
M  V30 22252 H 2064.73 4.87168 -0.70203 0
M  V30 22253 N 2066.38 0.466004 1.50553 0
M  V30 22254 C 2067.63 -0.0908736 2.02596 0
M  V30 22255 C 2067.96 -1.39827 1.34767 0
M  V30 22256 O 2067.24 -1.88693 0.471719 0
M  V30 22257 C 2067.52 -0.279963 3.5901 0
M  V30 22258 C 2067.37 1.0481 4.37419 0
M  V30 22259 C 2068.69 -1.03683 4.27712 0
M  V30 22260 H 2065.81 -0.031552 0.736324 0
M  V30 22261 H 2068.45 0.610602 1.79921 0
M  V30 22262 H 2066.6 -0.877461 3.78461 0
M  V30 22263 H 2068.28 1.68178 4.29551 0
M  V30 22264 H 2066.52 1.64595 4.01361 0
M  V30 22265 H 2067.19 0.869493 5.45109 0
M  V30 22266 H 2069.67 -0.53043 4.12705 0
M  V30 22267 H 2068.54 -1.13792 5.36975 0
M  V30 22268 H 2068.8 -2.07215 3.90531 0
M  V30 22269 N 2067.86 -1.56346 0.198413 0
M  V30 22270 C 2069.11 -1.98727 -0.433488 0
M  V30 22271 C 2069.46 -1.08324 -1.59008 0
M  V30 22272 O 2068.76 -0.12833 -1.9117 0
M  V30 22273 C 2068.95 -3.44852 -0.938713 0
M  V30 22274 C 2068.78 -4.49388 0.167393 0
M  V30 22275 C 2067.55 -5.01406 0.62613 0
M  V30 22276 C 2069.75 -5.04925 0.977522 0
M  V30 22277 N 2067.73 -5.89612 1.70971 0
M  V30 22278 C 2069.1 -5.89832 1.91044 0
M  V30 22279 C 2071.15 -4.87349 1.01957 0
M  V30 22280 C 2069.86 -6.59043 2.88191 0
M  V30 22281 C 2071.88 -5.57302 1.97911 0
M  V30 22282 C 2071.25 -6.41959 2.89946 0
M  V30 22283 H 2067.34 -0.77179 -0.125952 0
M  V30 22284 H 2069.93 -1.92298 0.304871 0
M  V30 22285 H 2068.1 -3.51774 -1.6465 0
M  V30 22286 H 2069.83 -3.74192 -1.5415 0
M  V30 22287 H 2066.59 -4.73094 0.218876 0
M  V30 22288 H 2067.01 -6.38418 2.2528 0
M  V30 22289 H 2071.65 -4.21572 0.321996 0
M  V30 22290 H 2069.37 -7.24017 3.58922 0
M  V30 22291 H 2072.96 -5.45678 2.01809 0
M  V30 22292 H 2071.84 -6.95135 3.62984 0
M  V30 22293 N 2069.34 0.0751653 -1.57421 0
M  V30 22294 C 2070.57 0.787972 -1.91308 0
M  V30 22295 C 2070.98 1.7129 -0.794055 0
M  V30 22296 O 2070.34 1.81009 0.23281 0
M  V30 22297 C 2070.39 1.58447 -3.24926 0
M  V30 22298 O 2070.11 0.696727 -4.32524 0
M  V30 22299 C 2071.61 2.39857 -3.72805 0
M  V30 22300 H 2068.83 0.22422 -0.632429 0
M  V30 22301 H 2071.38 0.0464417 -2.04447 0
M  V30 22302 H 2069.53 2.27831 -3.13324 0
M  V30 22303 H 2069.95 1.25038 -5.09378 0
M  V30 22304 H 2071.42 2.91207 -4.68938 0
M  V30 22305 H 2071.9 3.19229 -3.01645 0
M  V30 22306 H 2072.5 1.75636 -3.8734 0
M  V30 22307 N 2070.82 1.53744 0.346476 0
M  V30 22308 C 2072.04 1.75095 1.1116 0
M  V30 22309 C 2072.47 0.487459 1.81674 0
M  V30 22310 O 2071.83 -0.55973 1.72443 0
M  V30 22311 C 2071.87 2.92927 2.103 0
M  V30 22312 O 2070.98 2.62871 3.17762 0
M  V30 22313 H 2070.32 0.580905 0.321629 0
M  V30 22314 H 2072.85 2.00696 0.397762 0
M  V30 22315 H 2072.86 3.19633 2.53572 0
M  V30 22316 H 2071.53 3.84566 1.58372 0
M  V30 22317 H 2070.11 2.47043 2.79328 0
M  V30 22318 N 2072.3 -0.607329 1.45428 0
M  V30 22319 C 2073.23 -1.72873 1.56962 0
M  V30 22320 C 2074.21 -1.64804 0.421159 0
M  V30 22321 O 2075.39 -1.83199 0.64433 0
M  V30 22322 C 2072.52 -3.11476 1.53622 0
M  V30 22323 C 2071.48 -3.34357 2.67188 0
M  V30 22324 C 2070.8 -4.73236 2.48902 0
M  V30 22325 C 2072.1 -3.24586 4.09196 0
M  V30 22326 H 2073.8 -1.63477 2.5083 0
M  V30 22327 H 2071.34 -0.785054 1.20718 0
M  V30 22328 H 2073.3 -3.89725 1.60288 0
M  V30 22329 H 2072.02 -3.21714 0.562838 0
M  V30 22330 H 2070.68 -2.58499 2.5995 0
M  V30 22331 H 2070.33 -4.80206 1.49702 0
M  V30 22332 H 2070.03 -4.895 3.25059 0
M  V30 22333 H 2071.55 -5.53684 2.57422 0
M  V30 22334 H 2072.96 -3.92709 4.17676 0
M  V30 22335 H 2071.36 -3.52381 4.85745 0
M  V30 22336 H 2072.43 -2.22022 4.31085 0
M  V30 22337 N 2073.77 -1.32722 -0.849853 0
M  V30 22338 C 2074.68 -1.2407 -1.99108 0
M  V30 22339 C 2075.7 -0.153362 -1.73323 0
M  V30 22340 O 2076.88 -0.374928 -1.97879 0
M  V30 22341 C 2073.94 -0.96896 -3.32884 0
M  V30 22342 C 2073 -2.14522 -3.71859 0
M  V30 22343 C 2072.24 -1.88635 -4.99252 0
M  V30 22344 O 2072.46 -0.831259 -5.6431 0
M  V30 22345 O 2071.39 -2.74872 -5.35471 0
M  V30 22346 H 2075.22 -2.20019 -2.09345 0
M  V30 22347 H 2072.8 -1.1266 -0.981232 0
M  V30 22348 H 2074.69 -0.834109 -4.13062 0
M  V30 22349 H 2073.36 -0.0396635 -3.23676 0
M  V30 22350 H 2072.27 -2.33556 -2.92237 0
M  V30 22351 H 2073.6 -3.05747 -3.8572 0
M  V30 22352 N 2075.25 1.06673 -1.16011 0
M  V30 22353 C 2076.18 2.16027 -0.886249 0
M  V30 22354 C 2077.16 1.69289 0.165907 0
M  V30 22355 O 2078.35 1.94191 0.0188181 0
M  V30 22356 C 2075.48 3.45189 -0.382329 0
M  V30 22357 C 2074.43 4.05415 -1.37195 0
M  V30 22358 C 2073.76 5.2974 -0.726594 0
M  V30 22359 C 2075.06 4.44642 -2.74027 0
M  V30 22360 H 2076.75 2.39195 -1.80073 0
M  V30 22361 H 2074.3 1.14957 -0.867232 0
M  V30 22362 H 2076.25 4.21023 -0.17824 0
M  V30 22363 H 2074.98 3.21629 0.567641 0
M  V30 22364 H 2073.63 3.31634 -1.56252 0
M  V30 22365 H 2073.28 5.02475 0.229742 0
M  V30 22366 H 2072.98 5.70993 -1.38709 0
M  V30 22367 H 2074.51 6.08274 -0.532437 0
M  V30 22368 H 2075.92 5.11574 -2.58775 0
M  V30 22369 H 2074.32 4.96868 -3.36515 0
M  V30 22370 H 2075.39 3.55684 -3.29571 0
M  V30 22371 N 2076.73 0.957992 1.25141 0
M  V30 22372 C 2077.69 0.485333 2.24003 0
M  V30 22373 C 2078.69 -0.412817 1.55411 0
M  V30 22374 O 2079.88 -0.209635 1.72934 0
M  V30 22375 C 2077.02 -0.298362 3.39592 0
M  V30 22376 H 2078.21 1.35918 2.67332 0
M  V30 22377 H 2075.76 0.741602 1.37586 0
M  V30 22378 H 2076.5 -1.18973 3.01688 0
M  V30 22379 H 2076.28 0.346033 3.9057 0
M  V30 22380 H 2077.77 -0.618412 4.12996 0
M  V30 22381 N 2078.21 -1.39832 0.726957 0
M  V30 22382 C 2079.16 -2.27926 0.057957 0
M  V30 22383 C 2080.14 -1.43846 -0.720905 0
M  V30 22384 O 2081.33 -1.66833 -0.591236 0
M  V30 22385 C 2078.46 -3.32493 -0.854584 0
M  V30 22386 C 2077.55 -4.24042 -0.0703022 0
M  V30 22387 N 2077.94 -4.96753 0.952379 0
M  V30 22388 C 2076.24 -4.44982 -0.301167 0
M  V30 22389 C 2076.94 -5.63985 1.42462 0
M  V30 22390 N 2075.92 -5.38475 0.744679 0
M  V30 22391 H 2079.72 -2.81592 0.841603 0
M  V30 22392 H 2077.23 -1.52419 0.56056 0
M  V30 22393 H 2079.23 -3.94462 -1.34927 0
M  V30 22394 H 2077.89 -2.80387 -1.63748 0
M  V30 22395 H 2078.9 -5.00437 1.33353 0
M  V30 22396 H 2075.58 -4.03833 -1.0595 0
M  V30 22397 H 2076.97 -6.32213 2.27501 0
M  V30 22398 N 2079.69 -0.473982 -1.50304 0
M  V30 22399 C 2080.62 0.308532 -2.31453 0
M  V30 22400 C 2081.6 0.987678 -1.38488 0
M  V30 22401 O 2082.78 0.984294 -1.67408 0
M  V30 22402 C 2079.91 1.38921 -3.18305 0
M  V30 22403 C 2078.87 0.831509 -4.19845 0
M  V30 22404 C 2078.19 2.0107 -4.95454 0
M  V30 22405 C 2079.49 -0.159166 -5.22057 0
M  V30 22406 H 2081.19 -0.368757 -2.9712 0
M  V30 22407 H 2078.73 -0.178787 -1.42886 0
M  V30 22408 H 2080.69 1.94415 -3.73873 0
M  V30 22409 H 2079.41 2.09531 -2.50528 0
M  V30 22410 H 2078.07 0.298526 -3.65383 0
M  V30 22411 H 2077.72 2.70384 -4.24148 0
M  V30 22412 H 2077.42 1.64374 -5.64141 0
M  V30 22413 H 2078.94 2.57048 -5.53858 0
M  V30 22414 H 2080.35 0.306691 -5.72479 0
M  V30 22415 H 2078.75 -0.440549 -5.98481 0
M  V30 22416 H 2079.82 -1.08411 -4.72626 0
M  V30 22417 N 2081.16 1.56239 -0.206702 0
M  V30 22418 C 2082.11 2.19624 0.709491 0
M  V30 22419 C 2083.08 1.1471 1.20128 0
M  V30 22420 O 2084.27 1.43008 1.26307 0
M  V30 22421 C 2081.41 2.8686 1.91847 0
M  V30 22422 C 2080.52 4.0633 1.46696 0
M  V30 22423 C 2079.65 4.6139 2.63235 0
M  V30 22424 C 2078.69 5.73193 2.14747 0
M  V30 22425 N 2077.83 6.22608 3.24505 0
M  V30 22426 H 2082.67 2.97558 0.162225 0
M  V30 22427 H 2080.21 1.46941 0.0683253 0
M  V30 22428 H 2082.17 3.24019 2.62807 0
M  V30 22429 H 2080.8 2.1147 2.43886 0
M  V30 22430 H 2079.85 3.74757 0.652809 0
M  V30 22431 H 2081.16 4.87159 1.07131 0
M  V30 22432 H 2080.31 5.00914 3.42301 0
M  V30 22433 H 2079.05 3.79693 3.0608 0
M  V30 22434 H 2078.06 5.33186 1.34139 0
M  V30 22435 H 2079.28 6.56716 1.72919 0
M  V30 22436 H 2077.23 5.43829 3.66859 0
M  V30 22437 H 2077.15 6.98521 2.89145 0
M  V30 22438 H 2078.41 6.66788 4.0375 0
M  V30 22439 N 2082.64 -0.0668159 1.57458 0
M  V30 22440 C 2083.92 -0.798309 1.78568 0
M  V30 22441 C 2084.3 -1.95537 0.79552 0
M  V30 22442 O 2083.65 -2.27864 -0.170331 0
M  V30 22443 C 2083.86 -1.26662 3.25204 0
M  V30 22444 C 2085.21 -1.69798 3.89171 0
M  V30 22445 O 2086.23 -1.36216 3.29125 0
M  V30 22446 O 2085.09 -2.31989 4.94817 0
M  V30 22447 H 2082.18 -0.382924 0.733006 0
M  V30 22448 H 2084.73 -0.0465065 1.69636 0
M  V30 22449 H 2083.5 -0.438929 3.8883 0
M  V30 22450 H 2083.12 -2.07959 3.38879 0
M  V30 22451 N 2084.12 -1.53926 -0.338317 0
M  V30 22452 C 2085.37 -1.71424 -1.07797 0
M  V30 22453 C 2085.7 -0.480153 -1.8848 0
M  V30 22454 O 2084.95 0.538111 -1.88156 0
M  V30 22455 C 2085.25 -2.93279 -2.0426 0
M  V30 22456 C 2084.92 -4.28665 -1.39847 0
M  V30 22457 C 2083.58 -4.65475 -1.2201 0
M  V30 22458 C 2085.93 -5.12746 -0.934908 0
M  V30 22459 C 2083.26 -5.83979 -0.564424 0
M  V30 22460 C 2085.61 -6.31921 -0.293119 0
M  V30 22461 C 2084.27 -6.67421 -0.102472 0
M  V30 22462 H 2083.54 -0.627283 -0.394458 0
M  V30 22463 H 2086.19 -1.88149 -0.356684 0
M  V30 22464 H 2084.5 -2.71179 -2.82788 0
M  V30 22465 H 2086.19 -3.04011 -2.61492 0
M  V30 22466 H 2082.78 -3.99696 -1.54729 0
M  V30 22467 H 2086.97 -4.84836 -1.06055 0
M  V30 22468 H 2082.22 -6.10055 -0.40538 0
M  V30 22469 H 2086.4 -6.96361 0.0741496 0
M  V30 22470 H 2084.02 -7.59106 0.407635 0
M  V30 22471 N 2085.6 0.599608 -1.45748 0
M  V30 22472 C 2086.85 1.3604 -1.50403 0
M  V30 22473 C 2087.18 1.93632 -0.148419 0
M  V30 22474 O 2086.45 1.75516 0.838118 0
M  V30 22475 C 2086.74 2.50237 -2.58946 0
M  V30 22476 C 2086.59 1.9779 -4.03979 0
M  V30 22477 C 2087.91 3.52344 -2.63708 0
M  V30 22478 H 2085.03 0.49329 -0.547571 0
M  V30 22479 H 2087.67 0.675178 -1.77599 0
M  V30 22480 H 2085.82 3.0869 -2.35888 0
M  V30 22481 H 2087.49 1.43925 -4.38273 0
M  V30 22482 H 2085.73 1.28734 -4.14258 0
M  V30 22483 H 2086.41 2.80147 -4.75628 0
M  V30 22484 H 2088.88 3.03746 -2.8439 0
M  V30 22485 H 2087.76 4.29728 -3.41504 0
M  V30 22486 H 2088.02 4.08481 -1.69103 0
M  V30 22487 N 2087.08 1.33171 0.842803 0
M  V30 22488 C 2088.3 1.27579 1.63519 0
M  V30 22489 C 2088.73 -0.151151 1.87492 0
M  V30 22490 O 2088.09 -1.10648 1.4362 0
M  V30 22491 C 2088.13 2.05261 2.9648 0
M  V30 22492 O 2087.24 1.40852 3.87601 0
M  V30 22493 H 2086.58 0.439106 0.498078 0
M  V30 22494 H 2089.11 1.75672 1.04883 0
M  V30 22495 H 2089.12 2.15879 3.46209 0
M  V30 22496 H 2087.79 3.09018 2.78354 0
M  V30 22497 H 2086.37 1.38855 3.46083 0
M  V30 22498 N 2088.56 -1.06056 1.16576 0
M  V30 22499 C 2089.52 -2.11761 0.876928 0
M  V30 22500 C 2090.52 -1.60281 -0.129123 0
M  V30 22501 O 2091.71 -1.73901 0.102046 0
M  V30 22502 C 2088.84 -3.3947 0.311872 0
M  V30 22503 H 2090.03 -2.38816 1.81403 0
M  V30 22504 H 2087.59 -1.2216 0.975021 0
M  V30 22505 H 2088.32 -3.18066 -0.632797 0
M  V30 22506 H 2088.11 -3.78143 1.03683 0
M  V30 22507 H 2089.6 -4.17404 0.12782 0
M  V30 22508 N 2090.03 -0.964615 -1.24631 0
M  V30 22509 C 2090.96 -0.511091 -2.27838 0
M  V30 22510 C 2091.94 0.447692 -1.64103 0
M  V30 22511 O 2093.13 0.344485 -1.9112 0
M  V30 22512 C 2090.26 0.202467 -3.46709 0
M  V30 22513 C 2089.21 -0.672032 -4.22691 0
M  V30 22514 C 2088.54 0.172842 -5.34421 0
M  V30 22515 C 2089.84 -1.9551 -4.84327 0
M  V30 22516 H 2091.53 -1.37371 -2.66025 0
M  V30 22517 H 2089.08 -0.661983 -1.27882 0
M  V30 22518 H 2091.03 0.530942 -4.18042 0
M  V30 22519 H 2089.76 1.09942 -3.07539 0
M  V30 22520 H 2088.42 -0.983734 -3.53155 0
M  V30 22521 H 2088.06 1.06985 -4.91491 0
M  V30 22522 H 2087.76 -0.409046 -5.86175 0
M  V30 22523 H 2089.29 0.496057 -6.08582 0
M  V30 22524 H 2090.7 -1.69241 -5.4775 0
M  V30 22525 H 2089.1 -2.48346 -5.46301 0
M  V30 22526 H 2090.17 -2.65197 -4.05954 0
M  V30 22527 N 2091.51 1.39445 -0.734362 0
M  V30 22528 C 2092.92 1.8335 -0.352097 0
M  V30 22529 C 2093.27 1.61344 1.11635 0
M  V30 22530 O 2092.4 1.10427 1.86105 0
M  V30 22531 C 2092.99 3.32848 -0.632286 0
M  V30 22532 C 2091.55 3.75174 -0.303522 0
M  V30 22533 C 2090.7 2.62452 -0.895228 0
M  V30 22534 H 2093.65 1.28446 -0.932054 0
M  V30 22535 H 2093.67 3.80378 0.0961584 0
M  V30 22536 H 2093.18 3.48832 -1.70111 0
M  V30 22537 H 2091.28 3.64777 0.759492 0
M  V30 22538 H 2091.4 4.72615 -0.785637 0
M  V30 22539 H 2089.76 2.52658 -0.321907 0
M  V30 22540 H 2090.54 2.81242 -1.9687 0
M  V30 22541 N 2092.99 0.481946 1.5005 0
M  V30 22542 C 2094.27 -0.131379 1.95158 0
M  V30 22543 C 2094.65 -1.55951 1.42276 0
M  V30 22544 O 2093.99 -2.19691 0.62835 0
M  V30 22545 C 2094.2 -0.0635771 3.48942 0
M  V30 22546 C 2095.55 -0.247054 4.23881 0
M  V30 22547 O 2096.58 -0.139659 3.55926 0
M  V30 22548 O 2095.44 -0.465153 5.44517 0
M  V30 22549 H 2092.53 -0.105746 0.820211 0
M  V30 22550 H 2095.08 0.543125 1.60774 0
M  V30 22551 H 2093.85 0.933103 3.80012 0
M  V30 22552 H 2093.47 -0.779065 3.89893 0
M  V30 22553 N 2094.47 -1.56127 0.214985 0
M  V30 22554 C 2095.41 -2.19998 -0.697834 0
M  V30 22555 C 2096.38 -1.15346 -1.19518 0
M  V30 22556 O 2097.57 -1.43676 -1.25547 0
M  V30 22557 C 2094.71 -2.87874 -1.90323 0
M  V30 22558 C 2093.82 -4.07102 -1.44539 0
M  V30 22559 C 2092.96 -4.6278 -2.60784 0
M  V30 22560 C 2092 -5.74324 -2.11705 0
M  V30 22561 N 2091.13 -6.24321 -3.21198 0
M  V30 22562 H 2095.97 -2.9764 -0.146443 0
M  V30 22563 H 2093.51 -1.46975 -0.0605317 0
M  V30 22564 H 2095.47 -3.25408 -2.61085 0
M  V30 22565 H 2094.1 -2.12761 -2.42761 0
M  V30 22566 H 2093.15 -3.75098 -0.632926 0
M  V30 22567 H 2094.46 -4.87721 -1.04546 0
M  V30 22568 H 2093.62 -5.02723 -3.39639 0
M  V30 22569 H 2092.36 -3.8131 -3.04062 0
M  V30 22570 H 2091.36 -5.33889 -1.31309 0
M  V30 22571 H 2092.59 -6.57624 -1.69434 0
M  V30 22572 H 2090.53 -5.45767 -3.6397 0
M  V30 22573 H 2090.45 -7.00044 -2.85437 0
M  V30 22574 H 2091.72 -6.6892 -4.00208 0
M  V30 22575 N 2095.95 0.0584645 -1.57492 0
M  V30 22576 C 2096.88 1.0681 -2.07639 0
M  V30 22577 C 2097.86 1.3955 -0.972622 0
M  V30 22578 O 2099.04 1.48946 -1.24615 0
M  V30 22579 C 2096.17 2.37774 -2.53142 0
M  V30 22580 C 2095.13 2.19354 -3.67516 0
M  V30 22581 C 2094.45 3.5582 -3.9912 0
M  V30 22582 C 2095.75 1.60379 -4.97067 0
M  V30 22583 H 2097.45 0.650765 -2.92242 0
M  V30 22584 H 2094.99 0.311587 -1.40589 0
M  V30 22585 H 2096.94 3.08709 -2.86839 0
M  V30 22586 H 2095.67 2.81513 -1.65583 0
M  V30 22587 H 2094.33 1.50858 -3.34122 0
M  V30 22588 H 2093.98 3.97153 -3.08672 0
M  V30 22589 H 2093.68 3.4433 -4.76142 0
M  V30 22590 H 2095.2 4.28164 -4.35325 0
M  V30 22591 H 2096.61 2.21195 -5.2891 0
M  V30 22592 H 2095.01 1.59548 -5.78502 0
M  V30 22593 H 2096.08 0.566547 -4.81579 0
M  V30 22594 N 2097.42 1.54103 0.330149 0
M  V30 22595 C 2098.7 1.62635 1.0867 0
M  V30 22596 C 2099.08 0.456041 2.06115 0
M  V30 22597 O 2098.43 -0.550367 2.21773 0
M  V30 22598 C 2098.64 2.99332 1.79448 0
M  V30 22599 C 2099.99 3.55151 2.32708 0
M  V30 22600 O 2101.01 3.01594 1.89525 0
M  V30 22601 O 2099.87 4.4886 3.11749 0
M  V30 22602 H 2096.96 0.658337 0.500521 0
M  V30 22603 H 2099.51 1.66449 0.330568 0
M  V30 22604 H 2098.28 3.75947 1.08532 0
M  V30 22605 H 2097.9 2.99167 2.61887 0
M  V30 22606 N 2098.9 -0.59187 1.46064 0
M  V30 22607 C 2099.85 -1.69625 1.52352 0
M  V30 22608 C 2100.84 -1.56219 0.385282 0
M  V30 22609 O 2102.03 -1.65289 0.633129 0
M  V30 22610 C 2099.16 -3.08403 1.50807 0
M  V30 22611 C 2098.24 -3.27138 2.69891 0
M  V30 22612 N 2098.63 -3.1607 3.94884 0
M  V30 22613 C 2096.93 -3.58053 2.65921 0
M  V30 22614 C 2097.63 -3.36563 4.74447 0
M  V30 22615 N 2096.61 -3.6129 4.06165 0
M  V30 22616 H 2100.41 -1.59585 2.468 0
M  V30 22617 H 2097.93 -0.795623 1.41575 0
M  V30 22618 H 2099.92 -3.87653 1.53398 0
M  V30 22619 H 2098.58 -3.19581 0.574291 0
M  V30 22620 H 2099.59 -2.94133 4.2627 0
M  V30 22621 H 2096.27 -3.75972 1.81524 0
M  V30 22622 H 2097.66 -3.33266 5.83424 0
M  V30 22623 N 2100.38 -1.33616 -0.835729 0
M  V30 22624 C 2101.29 -1.26175 -1.9778 0
M  V30 22625 C 2102.31 -0.171736 -1.7315 0
M  V30 22626 O 2103.48 -0.395895 -1.97471 0
M  V30 22627 C 2100.55 -1.00421 -3.31838 0
M  V30 22628 C 2099.61 -2.18454 -3.69563 0
M  V30 22629 C 2098.84 -1.93919 -4.97223 0
M  V30 22630 O 2099.06 -0.891065 -5.63397 0
M  V30 22631 O 2098 -2.80536 -5.32525 0
M  V30 22632 H 2101.82 -2.22227 -2.07 0
M  V30 22633 H 2099.41 -1.13694 -0.969228 0
M  V30 22634 H 2101.29 -0.877873 -4.12155 0
M  V30 22635 H 2099.97 -0.0739914 -3.23615 0
M  V30 22636 H 2098.87 -2.36642 -2.89743 0
M  V30 22637 H 2100.21 -3.09821 -3.82455 0
M  V30 22638 N 2101.86 1.05436 -1.17136 0
M  V30 22639 C 2103.1 1.79971 -0.969015 0
M  V30 22640 C 2103.46 1.85543 0.49375 0
M  V30 22641 O 2104.66 2.56144 0.815091 0
M  V30 22642 C 2102.93 3.20104 -1.5896 0
M  V30 22643 S 2104.49 4.11146 -1.53311 0
M  V30 22644 H 2101.31 0.619855 -0.348283 0
M  V30 22645 H 2103.91 1.26524 -1.49037 0
M  V30 22646 H 2102.62 3.13649 -2.64674 0
M  V30 22647 H 2102.15 3.78627 -1.06795 0
M  V30 22648 H 2104.16 4.9326 -0.539375 0
M  V30 22649 N 2103.34 0.971211 1.24118 0
M  V30 22650 C 2104.3 0.509064 2.23475 0
M  V30 22651 C 2105.3 -0.39631 1.5584 0
M  V30 22652 O 2106.49 -0.191281 1.73147 0
M  V30 22653 C 2103.62 -0.262327 3.39889 0
M  V30 22654 H 2104.81 1.38746 2.65875 0
M  V30 22655 H 2102.37 0.756154 1.36792 0
M  V30 22656 H 2103.1 -1.15767 3.02933 0
M  V30 22657 H 2102.89 0.387439 3.90181 0
M  V30 22658 H 2104.38 -0.574574 4.13628 0
M  V30 22659 N 2104.81 -1.39054 0.741747 0
M  V30 22660 C 2105.72 -2.34352 0.107946 0
M  V30 22661 C 2106.74 -1.58666 -0.71422 0
M  V30 22662 O 2107.92 -1.90923 -0.641124 0
M  V30 22663 C 2104.98 -3.3773 -0.783547 0
M  V30 22664 C 2104.04 -4.29269 0.0516392 0
M  V30 22665 C 2103.28 -5.27709 -0.797398 0
M  V30 22666 O 2103.5 -5.3283 -2.03588 0
M  V30 22667 O 2102.43 -6.01489 -0.222478 0
M  V30 22668 H 2106.26 -2.90223 0.894677 0
M  V30 22669 H 2103.84 -1.40696 0.502494 0
M  V30 22670 H 2105.73 -4.01059 -1.29342 0
M  V30 22671 H 2104.4 -2.84233 -1.54898 0
M  V30 22672 H 2103.31 -3.6914 0.607193 0
M  V30 22673 H 2104.64 -4.85989 0.779446 0
M  V30 22674 N 2106.29 -0.489897 -1.49792 0
M  V30 22675 C 2107.54 0.0584284 -2.02016 0
M  V30 22676 C 2107.86 1.38507 -1.37262 0
M  V30 22677 O 2107.13 1.88757 -0.524191 0
M  V30 22678 H 2105.71 0.0245828 -0.746595 0
M  V30 22679 H 2108.37 -0.644608 -1.83932 0
M  V30 22680 H 2107.47 0.196227 -3.11483 0
M  V30 22681 N 2107.77 1.56011 -0.223262 0
M  V30 22682 C 2109.02 1.97956 0.407171 0
M  V30 22683 C 2109.34 1.11219 1.60173 0
M  V30 22684 O 2108.61 0.189604 1.9498 0
M  V30 22685 H 2107.19 0.731075 0.153424 0
M  V30 22686 H 2109.85 1.92312 -0.316554 0
M  V30 22687 H 2108.95 3.03386 0.732342 0
M  V30 22688 N 2109.25 -0.0501116 1.5752 0
M  V30 22689 C 2110.16 -1.07459 2.08542 0
M  V30 22690 C 2111.17 -1.41006 1.01947 0
M  V30 22691 O 2112.35 -1.50749 1.33555 0
M  V30 22692 C 2109.42 -2.36274 2.53723 0
M  V30 22693 C 2108.48 -2.095 3.74711 0
M  V30 22694 C 2107.71 -3.32174 4.17728 0
M  V30 22695 O 2107.93 -4.42091 3.60432 0
M  V30 22696 O 2106.87 -3.1911 5.10346 0
M  V30 22697 H 2110.69 -0.671065 2.96193 0
M  V30 22698 H 2108.28 -0.265709 1.47018 0
M  V30 22699 H 2110.16 -3.12043 2.83208 0
M  V30 22700 H 2108.83 -2.75963 1.69192 0
M  V30 22701 H 2107.74 -1.31366 3.50277 0
M  V30 22702 H 2109.07 -1.74679 4.60161 0
M  V30 22703 N 2110.73 -1.54276 -0.321972 0
M  V30 22704 C 2111.67 -1.84499 -1.41644 0
M  V30 22705 C 2112.67 -0.717018 -1.53477 0
M  V30 22706 O 2113.87 -0.900704 -1.55844 0
M  V30 22707 H 2110.25 -0.584855 -0.472704 0
M  V30 22708 H 2112.22 -2.76022 -1.13378 0
M  V30 22709 C 2110.97 -2.09051 -2.77836 0
M  V30 22710 H 2110.29 -2.95308 -2.69505 0
M  V30 22711 H 2111.73 -2.3415 -3.53482 0
M  V30 22712 C 2110.19 -0.882537 -3.25135 0
M  V30 22713 O 2110.72 -0.0925862 -4.01593 0
M  V30 22714 N 2108.93 -0.693729 -2.82198 0
M  V30 22715 H 2108.47 -1.33776 -2.2014 0
M  V30 22716 H 2108.43 0.113 -3.14197 0
M  V30 22717 N 2112.2 0.584116 -1.46376 0
M  V30 22718 C 2113.13 1.70354 -1.59693 0
M  V30 22719 C 2114.12 1.64113 -0.447325 0
M  V30 22720 O 2115.3 1.82151 -0.673394 0
M  V30 22721 C 2112.43 3.08993 -1.58558 0
M  V30 22722 C 2111.38 3.30064 -2.72473 0
M  V30 22723 C 2110.71 4.69216 -2.56399 0
M  V30 22724 C 2112.01 3.18035 -4.14308 0
M  V30 22725 H 2113.7 1.59465 -2.53399 0
M  V30 22726 H 2111.25 0.765749 -1.21952 0
M  V30 22727 H 2113.2 3.87126 -1.66468 0
M  V30 22728 H 2111.93 3.20778 -0.613949 0
M  V30 22729 H 2110.59 2.5433 -2.64029 0
M  V30 22730 H 2110.23 4.77764 -1.57323 0
M  V30 22731 H 2109.93 4.84267 -3.32805 0
M  V30 22732 H 2111.46 5.49519 -2.66198 0
M  V30 22733 H 2112.87 3.86014 -4.2387 0
M  V30 22734 H 2111.27 3.44608 -4.91289 0
M  V30 22735 H 2112.34 2.15135 -4.34563 0
M  V30 22736 N 2113.68 1.34058 0.828631 0
M  V30 22737 C 2114.91 1.29306 1.62156 0
M  V30 22738 C 2115.33 -0.131256 1.87641 0
M  V30 22739 O 2114.69 -1.09118 1.44786 0
M  V30 22740 C 2114.74 2.08394 2.94286 0
M  V30 22741 O 2113.84 1.44955 3.86085 0
M  V30 22742 H 2113.18 0.444364 0.493393 0
M  V30 22743 H 2115.71 1.76775 1.03014 0
M  V30 22744 H 2115.72 2.19539 3.43899 0
M  V30 22745 H 2114.4 3.11953 2.7506 0
M  V30 22746 H 2112.98 1.42518 3.44591 0
M  V30 22747 N 2115.16 -1.04814 1.17694 0
M  V30 22748 C 2116.41 -1.78147 0.969105 0
M  V30 22749 C 2116.74 -1.87634 -0.500715 0
M  V30 22750 O 2116.02 -1.37892 -1.37172 0
M  V30 22751 C 2116.3 -3.2183 1.61548 0
M  V30 22752 C 2116.15 -3.20332 3.15765 0
M  V30 22753 C 2117.47 -4.19759 1.32251 0
M  V30 22754 H 2114.59 -0.646701 0.353479 0
M  V30 22755 H 2117.23 -1.22485 1.45249 0
M  V30 22756 H 2115.38 -3.69358 1.20445 0
M  V30 22757 H 2117.05 -2.8085 3.65952 0
M  V30 22758 H 2115.3 -2.58568 3.48318 0
M  V30 22759 H 2115.97 -4.21759 3.56123 0
M  V30 22760 H 2118.44 -3.80743 1.67851 0
M  V30 22761 H 2117.32 -5.18527 1.80057 0
M  V30 22762 H 2117.58 -4.41426 0.244002 0
M  V30 22763 N 2116.64 -0.977779 -1.23601 0
M  V30 22764 C 2117.89 -0.643936 -1.91567 0
M  V30 22765 C 2118.21 0.824798 -1.76698 0
M  V30 22766 O 2117.48 1.58974 -1.14473 0
M  V30 22767 H 2116.06 -0.235177 -0.709014 0
M  V30 22768 H 2118.72 -1.24103 -1.50282 0
M  V30 22769 H 2117.82 -0.893282 -2.99043 0
M  V30 22770 N 2118.12 1.38658 -0.749111 0
M  V30 22771 C 2119.05 2.29065 -0.0786741 0
M  V30 22772 C 2120.06 1.47524 0.688517 0
M  V30 22773 O 2121.25 1.70439 0.530347 0
M  V30 22774 C 2118.35 3.2638 0.912663 0
M  V30 22775 C 2117.52 4.36924 0.204051 0
M  V30 22776 C 2116.58 5.14456 1.1055 0
M  V30 22777 O 2115.61 5.66261 0.577696 0
M  V30 22778 N 2116.81 5.27007 2.434 0
M  V30 22779 H 2119.58 2.87243 -0.855081 0
M  V30 22780 H 2117.14 1.50391 -0.599516 0
M  V30 22781 H 2119.13 3.75126 1.51864 0
M  V30 22782 H 2117.7 2.69132 1.59018 0
M  V30 22783 H 2116.92 3.89871 -0.582584 0
M  V30 22784 H 2118.21 5.07993 -0.286467 0
M  V30 22785 H 2117.61 4.86461 2.88742 0
M  V30 22786 H 2116.16 5.79143 2.99059 0
M  V30 22787 N 2119.6 0.497834 1.49531 0
M  V30 22788 C 2121.01 0.153598 1.58859 0
M  V30 22789 C 2121.21 -1.34166 1.50339 0
M  V30 22790 O 2120.27 -2.11733 1.37569 0
M  V30 22791 C 2121.58 0.727583 2.91765 0
M  V30 22792 C 2123.13 0.693405 3.05223 0
M  V30 22793 C 2123.6 1.2454 4.40742 0
M  V30 22794 N 2125.09 1.20596 4.47226 0
M  V30 22795 C 2125.83 1.60329 5.50529 0
M  V30 22796 N 2125.33 2.07639 6.60952 0
M  V30 22797 N 2127.12 1.51765 5.41224 0
M  V30 22798 H 2119.27 1.47001 1.53312 0
M  V30 22799 H 2121.53 0.609549 0.726054 0
M  V30 22800 H 2121.24 1.77611 3.03558 0
M  V30 22801 H 2121.11 0.186218 3.7674 0
M  V30 22802 H 2123.5 -0.346272 2.93061 0
M  V30 22803 H 2123.58 1.27188 2.21939 0
M  V30 22804 H 2123.22 2.28384 4.53655 0
M  V30 22805 H 2123.15 0.642891 5.22661 0
M  V30 22806 H 2125.65 0.859277 3.68001 0
M  V30 22807 H 2125.96 2.36035 7.35872 0
M  V30 22808 H 2124.3 2.11611 6.62001 0
M  V30 22809 H 2127.49 1.14625 4.53849 0
M  V30 22810 H 2127.67 1.83053 6.21607 0
M  V30 22811 N 2121.07 -1.5589 0.231532 0
M  V30 22812 C 2122.01 -2.18025 -0.70695 0
M  V30 22813 C 2123.02 -1.15214 -1.1502 0
M  V30 22814 O 2124.21 -1.42149 -1.07963 0
M  V30 22815 C 2121.31 -2.75714 -1.97066 0
M  V30 22816 C 2120.48 -4.03794 -1.68135 0
M  V30 22817 C 2119.54 -4.4595 -2.79312 0
M  V30 22818 O 2118.57 -5.12645 -2.47354 0
M  V30 22819 N 2119.77 -4.12459 -4.08483 0
M  V30 22820 H 2122.53 -2.99186 -0.175389 0
M  V30 22821 H 2120.09 -1.6182 0.0509009 0
M  V30 22822 H 2122.09 -3.00882 -2.70652 0
M  V30 22823 H 2120.66 -1.98799 -2.41242 0
M  V30 22824 H 2119.88 -3.86377 -0.781436 0
M  V30 22825 H 2121.16 -4.87328 -1.46251 0
M  V30 22826 H 2120.56 -3.58884 -4.37286 0
M  V30 22827 H 2119.12 -4.42496 -4.78581 0
M  V30 22828 N 2122.55 0.0417572 -1.57545 0
M  V30 22829 C 2123.48 1.04602 -2.0876 0
M  V30 22830 C 2124.46 1.3851 -0.987368 0
M  V30 22831 O 2125.65 1.47615 -1.26188 0
M  V30 22832 C 2122.78 2.35076 -2.55649 0
M  V30 22833 C 2121.73 2.15444 -3.69821 0
M  V30 22834 C 2121.06 3.51566 -4.02871 0
M  V30 22835 C 2122.36 1.55098 -4.9874 0
M  V30 22836 H 2124.05 0.619732 -2.92916 0
M  V30 22837 H 2121.6 0.296659 -1.40911 0
M  V30 22838 H 2123.55 3.0565 -2.90097 0
M  V30 22839 H 2122.27 2.79741 -1.6856 0
M  V30 22840 H 2120.93 1.47306 -3.35703 0
M  V30 22841 H 2120.58 3.93857 -3.12867 0
M  V30 22842 H 2120.28 3.3926 -4.79767 0
M  V30 22843 H 2121.81 4.23523 -4.39842 0
M  V30 22844 H 2123.22 2.15573 -5.31226 0
M  V30 22845 H 2121.62 1.53403 -5.80162 0
M  V30 22846 H 2122.69 0.515437 -4.82153 0
M  V30 22847 N 2124.03 1.54445 0.313786 0
M  V30 22848 C 2125.28 1.73373 1.05212 0
M  V30 22849 C 2125.61 0.511165 1.87352 0
M  V30 22850 O 2124.88 -0.491833 1.88179 0
M  V30 22851 C 2125.17 3.01517 1.96874 0
M  V30 22852 C 2125.02 4.34046 1.17999 0
M  V30 22853 C 2126.34 3.25462 2.96248 0
M  V30 22854 H 2123.46 0.630823 0.381092 0
M  V30 22855 H 2126.1 1.87149 0.327891 0
M  V30 22856 H 2124.25 2.89903 2.58628 0
M  V30 22857 H 2125.92 4.57559 0.586302 0
M  V30 22858 H 2124.16 4.31109 0.482437 0
M  V30 22859 H 2124.84 5.19949 1.85355 0
M  V30 22860 H 2127.31 3.36602 2.44619 0
M  V30 22861 H 2126.19 4.16464 3.57559 0
M  V30 22862 H 2126.45 2.43151 3.69229 0
M  V30 22863 N 2125.51 -0.576345 1.46683 0
M  V30 22864 C 2126.75 -1.3453 1.53886 0
M  V30 22865 C 2127.11 -1.91071 0.188643 0
M  V30 22866 O 2128.31 -2.68459 0.135445 0
M  V30 22867 C 2126.58 -2.4398 2.61168 0
M  V30 22868 S 2128.14 -3.31217 2.87821 0
M  V30 22869 H 2124.96 -0.458249 0.543626 0
M  V30 22870 H 2127.56 -0.661885 1.83955 0
M  V30 22871 H 2126.27 -2.00844 3.57896 0
M  V30 22872 H 2125.8 -3.17086 2.32852 0
M  V30 22873 H 2127.81 -4.42977 2.23576 0
M  V30 22874 N 2126.99 -1.34495 -0.82151 0
M  V30 22875 C 2127.92 -1.28835 -1.94741 0
M  V30 22876 C 2128.9 -0.165528 -1.69293 0
M  V30 22877 O 2130.08 -0.358115 -1.9087 0
M  V30 22878 C 2127.21 -1.04446 -3.31222 0
M  V30 22879 C 2126.17 -2.13209 -3.71114 0
M  V30 22880 C 2125.49 -1.74007 -5.05594 0
M  V30 22881 C 2126.79 -3.55051 -3.83062 0
M  V30 22882 H 2128.49 -2.23039 -1.99734 0
M  V30 22883 H 2126.03 -1.07369 -0.959573 0
M  V30 22884 H 2127.98 -0.991306 -4.09574 0
M  V30 22885 H 2126.71 -0.0668391 -3.26532 0
M  V30 22886 H 2125.37 -2.17597 -2.95038 0
M  V30 22887 H 2125.02 -0.749021 -4.97392 0
M  V30 22888 H 2124.72 -2.46803 -5.33256 0
M  V30 22889 H 2126.24 -1.7019 -5.86402 0
M  V30 22890 H 2127.65 -3.53068 -4.51681 0
M  V30 22891 H 2126.05 -4.2648 -4.22179 0
M  V30 22892 H 2127.12 -3.92289 -2.85021 0
M  V30 22893 N 2128.46 1.04188 -1.18248 0
M  V30 22894 C 2129.43 2.10339 -0.910507 0
M  V30 22895 C 2130.43 1.60466 0.103607 0
M  V30 22896 O 2131.62 1.73717 -0.129699 0
M  V30 22897 C 2128.75 3.38931 -0.36584 0
M  V30 22898 H 2129.94 2.359 -1.85179 0
M  V30 22899 H 2127.5 1.20593 -0.994332 0
M  V30 22900 H 2128.23 3.19033 0.582115 0
M  V30 22901 H 2128.02 3.76446 -1.09686 0
M  V30 22902 H 2129.51 4.17148 -0.194209 0
M  V30 22903 N 2129.94 0.98432 1.23081 0
M  V30 22904 C 2131.36 0.6936 1.43741 0
M  V30 22905 C 2131.56 -0.738828 1.87466 0
M  V30 22906 O 2130.61 -1.51079 2.02315 0
M  V30 22907 C 2131.93 1.69187 2.48589 0
M  V30 22908 C 2133.48 1.70635 2.62398 0
M  V30 22909 C 2133.95 2.69302 3.7046 0
M  V30 22910 N 2135.44 2.67844 3.77907 0
M  V30 22911 C 2136.18 3.40857 4.6109 0
M  V30 22912 N 2135.67 4.23441 5.48333 0
M  V30 22913 N 2137.47 3.29603 4.55322 0
M  V30 22914 H 2129.62 1.90957 0.930015 0
M  V30 22915 H 2131.88 0.823061 0.470398 0
M  V30 22916 H 2131.59 2.71646 2.23386 0
M  V30 22917 H 2131.46 1.47784 3.47044 0
M  V30 22918 H 2133.85 0.688782 2.86949 0
M  V30 22919 H 2133.93 1.96104 1.64246 0
M  V30 22920 H 2133.57 3.71203 3.46656 0
M  V30 22921 H 2133.5 2.41106 4.68162 0
M  V30 22922 H 2135.99 2.07913 3.15564 0
M  V30 22923 H 2136.31 4.75999 6.08806 0
M  V30 22924 H 2134.65 4.27531 5.47944 0
M  V30 22925 H 2137.84 2.64533 3.86186 0
M  V30 22926 H 2138.01 3.86764 5.19921 0
M  V30 22927 N 2131.42 -1.38259 0.756453 0
M  V30 22928 C 2132.38 -2.28779 0.138891 0
M  V30 22929 C 2133.38 -1.47321 -0.644449 0
M  V30 22930 O 2134.57 -1.67732 -0.470292 0
M  V30 22931 C 2131.71 -3.311 -0.811535 0
M  V30 22932 H 2132.9 -2.84898 0.936651 0
M  V30 22933 H 2130.45 -1.47267 0.52365 0
M  V30 22934 H 2131.19 -2.80076 -1.63487 0
M  V30 22935 H 2130.97 -3.91288 -0.252199 0
M  V30 22936 H 2132.46 -3.9878 -1.23953 0
M  V30 22937 N 2132.9 -0.505757 -1.49264 0
M  V30 22938 C 2133.83 0.259368 -2.32055 0
M  V30 22939 C 2134.81 0.95808 -1.40552 0
M  V30 22940 O 2135.99 0.948562 -1.69458 0
M  V30 22941 C 2133.12 1.32138 -3.2118 0
M  V30 22942 C 2132.08 0.742267 -4.21514 0
M  V30 22943 C 2131.4 1.90515 -4.99608 0
M  V30 22944 C 2132.7 -0.269866 -5.21602 0
M  V30 22945 H 2134.4 -0.431697 -2.96271 0
M  V30 22946 H 2131.94 -0.209055 -1.42474 0
M  V30 22947 H 2133.9 1.86441 -3.77912 0
M  V30 22948 H 2132.62 2.0417 -2.54916 0
M  V30 22949 H 2131.28 0.220956 -3.65934 0
M  V30 22950 H 2130.93 2.61327 -4.29788 0
M  V30 22951 H 2130.63 1.52371 -5.67501 0
M  V30 22952 H 2132.15 2.45242 -5.59186 0
M  V30 22953 H 2133.57 0.18519 -5.73001 0
M  V30 22954 H 2131.96 -0.567397 -5.97412 0
M  V30 22955 H 2133.03 -1.18411 -4.7022 0
M  V30 22956 N 2134.38 1.55765 -0.239796 0
M  V30 22957 C 2135.31 2.24064 0.657067 0
M  V30 22958 C 2136.29 1.2185 1.18687 0
M  V30 22959 O 2137.47 1.50484 1.22753 0
M  V30 22960 C 2134.6 2.93465 1.8573 0
M  V30 22961 C 2133.56 4.02307 1.46057 0
M  V30 22962 C 2132.88 4.59097 2.74106 0
M  V30 22963 C 2134.18 5.18402 0.636932 0
M  V30 22964 H 2135.88 2.99272 0.0875675 0
M  V30 22965 H 2133.42 1.43943 0.0406772 0
M  V30 22966 H 2135.38 3.39943 2.49032 0
M  V30 22967 H 2134.1 2.15734 2.45207 0
M  V30 22968 H 2132.76 3.56588 0.850935 0
M  V30 22969 H 2132.41 3.78075 3.31766 0
M  V30 22970 H 2132.11 5.32566 2.48288 0
M  V30 22971 H 2133.63 5.08304 3.38318 0
M  V30 22972 H 2135.04 5.61149 1.17408 0
M  V30 22973 H 2133.44 5.98216 0.475092 0
M  V30 22974 H 2134.51 4.83617 -0.352445 0
M  V30 22975 N 2135.85 -0.0334016 1.57565 0
M  V30 22976 C 2137.27 -0.388971 1.54788 0
M  V30 22977 C 2137.47 -1.76871 0.965337 0
M  V30 22978 O 2136.53 -2.45642 0.584492 0
M  V30 22979 C 2137.84 -0.2948 2.99251 0
M  V30 22980 C 2139.39 -0.372199 3.10779 0
M  V30 22981 C 2139.86 -0.307524 4.56966 0
M  V30 22982 N 2141.35 -0.36645 4.61748 0
M  V30 22983 C 2142.09 -0.339229 5.72396 0
M  V30 22984 N 2141.58 -0.264554 6.92295 0
M  V30 22985 N 2143.38 -0.388638 5.60755 0
M  V30 22986 H 2135.53 0.869581 1.93783 0
M  V30 22987 H 2137.79 0.330231 0.888623 0
M  V30 22988 H 2137.5 0.653177 3.45581 0
M  V30 22989 H 2137.37 -1.09016 3.61103 0
M  V30 22990 H 2139.76 -1.31061 2.64399 0
M  V30 22991 H 2139.84 0.452431 2.51767 0
M  V30 22992 H 2139.48 0.627198 5.04013 0
M  V30 22993 H 2139.41 -1.1502 5.13885 0
M  V30 22994 H 2141.9 -0.426853 3.75482 0
M  V30 22995 H 2142.22 -0.248764 7.724 0
M  V30 22996 H 2140.56 -0.230666 6.94617 0
M  V30 22997 H 2143.75 -0.444937 4.65981 0
M  V30 22998 H 2143.93 -0.363955 6.46977 0
M  V30 22999 N 2137.33 -1.54609 -0.305591 0
M  V30 23000 C 2138.28 -1.85242 -1.37673 0
M  V30 23001 C 2139.25 -0.700952 -1.50585 0
M  V30 23002 O 2140.43 -0.949135 -1.65518 0
M  V30 23003 C 2137.57 -2.10127 -2.73753 0
M  V30 23004 C 2136.69 -3.37767 -2.69328 0
M  V30 23005 C 2135.82 -3.52519 -3.97371 0
M  V30 23006 C 2134.86 -4.73968 -3.87325 0
M  V30 23007 N 2134 -4.8555 -5.07135 0
M  V30 23008 H 2138.84 -2.76616 -1.10849 0
M  V30 23009 H 2136.38 -1.36978 -0.536239 0
M  V30 23010 H 2138.33 -2.22549 -3.52885 0
M  V30 23011 H 2136.96 -1.22025 -2.98847 0
M  V30 23012 H 2136.02 -3.33989 -1.82086 0
M  V30 23013 H 2137.33 -4.27018 -2.57793 0
M  V30 23014 H 2136.48 -3.64581 -4.84939 0
M  V30 23015 H 2135.22 -2.61393 -4.11734 0
M  V30 23016 H 2134.23 -4.61944 -2.98141 0
M  V30 23017 H 2135.45 -5.66496 -3.74511 0
M  V30 23018 H 2133.4 -3.97345 -5.2197 0
M  V30 23019 H 2133.31 -5.68794 -4.98005 0
M  V30 23020 H 2134.58 -5.01963 -5.96367 0
M  V30 23021 N 2138.81 0.568558 -1.46987 0
M  V30 23022 C 2140.04 1.35191 -1.56624 0
M  V30 23023 C 2140.45 1.87602 -0.212353 0
M  V30 23024 O 2139.81 1.64388 0.792639 0
M  V30 23025 C 2139.86 2.52969 -2.58242 0
M  V30 23026 O 2139.58 2.02726 -3.88373 0
M  V30 23027 C 2141.08 3.45334 -2.77955 0
M  V30 23028 H 2138.3 0.412505 -0.529227 0
M  V30 23029 H 2140.85 0.689847 -1.92513 0
M  V30 23030 H 2139 3.15136 -2.25318 0
M  V30 23031 H 2139.42 2.79532 -4.43804 0
M  V30 23032 H 2140.89 4.2442 -3.52947 0
M  V30 23033 H 2141.37 3.98165 -1.85368 0
M  V30 23034 H 2141.97 2.88992 -3.12032 0
M  V30 23035 N 2140.29 1.34929 0.814366 0
M  V30 23036 C 2141.24 1.27211 1.92577 0
M  V30 23037 C 2142.21 0.145599 1.65461 0
M  V30 23038 O 2143.39 0.328007 1.87959 0
M  V30 23039 C 2140.53 1.04214 3.28989 0
M  V30 23040 C 2139.64 2.25716 3.68343 0
M  V30 23041 C 2138.78 1.95932 4.93745 0
M  V30 23042 C 2137.82 3.13531 5.25704 0
M  V30 23043 N 2136.95 2.83574 6.42285 0
M  V30 23044 H 2141.79 2.22255 1.98511 0
M  V30 23045 H 2139.33 1.10491 0.97109 0
M  V30 23046 H 2141.29 0.889147 4.07615 0
M  V30 23047 H 2139.92 0.128343 3.22545 0
M  V30 23048 H 2138.97 2.51906 2.85039 0
M  V30 23049 H 2140.28 3.13553 3.87925 0
M  V30 23050 H 2139.44 1.77419 5.80179 0
M  V30 23051 H 2138.18 1.05369 4.76181 0
M  V30 23052 H 2137.18 3.32631 4.37763 0
M  V30 23053 H 2138.41 4.04885 5.45202 0
M  V30 23054 H 2136.35 1.95596 6.26161 0
M  V30 23055 H 2136.27 3.64944 6.62081 0
M  V30 23056 H 2137.54 2.68584 7.31767 0
M  V30 23057 N 2141.77 -1.0356 1.18799 0
M  V30 23058 C 2143.02 -1.76246 0.980824 0
M  V30 23059 C 2143.33 -1.89365 -0.489935 0
M  V30 23060 O 2144.53 -2.58955 -0.815746 0
M  V30 23061 C 2142.99 -3.16901 1.70592 0
M  V30 23062 C 2142.6 -3.11859 3.21633 0
M  V30 23063 C 2144.34 -3.9393 1.58175 0
M  V30 23064 C 2142.25 -4.47404 3.8676 0
M  V30 23065 H 2141.18 -0.660673 0.363355 0
M  V30 23066 H 2143.83 -1.15949 1.42225 0
M  V30 23067 H 2142.21 -3.77625 1.19228 0
M  V30 23068 H 2143.39 -2.60556 3.80062 0
M  V30 23069 H 2141.7 -2.48328 3.34249 0
M  V30 23070 H 2144.3 -4.94177 2.0419 0
M  V30 23071 H 2144.64 -4.1285 0.534821 0
M  V30 23072 H 2145.17 -3.39792 2.06848 0
M  V30 23073 H 2141.91 -4.33688 4.91523 0
M  V30 23074 H 2141.43 -4.9879 3.3312 0
M  V30 23075 H 2143.11 -5.16306 3.89919 0
M  V30 23076 N 2143.25 -0.990834 -1.22557 0
M  V30 23077 C 2144.18 -0.559304 -2.26703 0
M  V30 23078 C 2145.16 0.412782 -1.65016 0
M  V30 23079 O 2146.34 0.303868 -1.91808 0
M  V30 23080 C 2143.47 0.12888 -3.47061 0
M  V30 23081 C 2142.43 -0.76154 -4.2117 0
M  V30 23082 C 2141.75 0.0594442 -5.34667 0
M  V30 23083 C 2143.05 -2.0574 -4.80071 0
M  V30 23084 H 2144.75 -1.42983 -2.63052 0
M  V30 23085 H 2142.29 -0.68896 -1.26449 0
M  V30 23086 H 2144.24 0.44215 -4.19074 0
M  V30 23087 H 2142.97 1.03394 -3.09802 0
M  V30 23088 H 2141.63 -1.05842 -3.50989 0
M  V30 23089 H 2141.28 0.965355 -4.9365 0
M  V30 23090 H 2140.98 -0.533291 -5.85175 0
M  V30 23091 H 2142.5 0.366857 -6.09497 0
M  V30 23092 H 2143.91 -1.80821 -5.44037 0
M  V30 23093 H 2142.31 -2.59878 -5.4091 0
M  V30 23094 H 2143.38 -2.73748 -4.00237 0
M  V30 23095 N 2144.72 1.37856 -0.763775 0
M  V30 23096 C 2145.97 2.00179 -0.324977 0
M  V30 23097 C 2146.3 1.60492 1.09343 0
M  V30 23098 O 2145.58 0.847295 1.75075 0
M  V30 23099 C 2145.86 3.57157 -0.459452 0
M  V30 23100 C 2145.71 4.06777 -1.9197 0
M  V30 23101 C 2147.03 4.39874 0.141077 0
M  V30 23102 H 2144.15 0.727238 -0.119555 0
M  V30 23103 H 2146.79 1.6365 -0.965327 0
M  V30 23104 H 2144.94 3.88405 0.0857008 0
M  V30 23105 H 2146.62 3.86128 -2.52394 0
M  V30 23106 H 2144.86 3.59266 -2.43127 0
M  V30 23107 H 2145.53 5.15845 -1.96489 0
M  V30 23108 H 2148.01 4.14837 -0.323975 0
M  V30 23109 H 2146.88 5.48897 0.0168029 0
M  V30 23110 H 2147.14 4.2463 1.23052 0
M  V30 23111 N 2146.2 0.513665 1.48994 0
M  V30 23112 C 2147.13 -0.247058 2.32189 0
M  V30 23113 C 2148.11 -0.950613 1.41058 0
M  V30 23114 O 2149.3 -0.939562 1.69958 0
M  V30 23115 C 2146.43 -1.30433 3.21876 0
M  V30 23116 C 2145.38 -0.719902 4.21902 0
M  V30 23117 C 2144.71 -1.87863 5.00611 0
M  V30 23118 C 2146.01 0.297524 5.21452 0
M  V30 23119 H 2147.7 0.447403 2.96038 0
M  V30 23120 H 2145.25 0.216608 1.42362 0
M  V30 23121 H 2147.2 -1.84434 3.78896 0
M  V30 23122 H 2145.92 -2.02815 2.55995 0
M  V30 23123 H 2144.58 -0.201546 3.66046 0
M  V30 23124 H 2144.23 -2.59044 4.31167 0
M  V30 23125 H 2143.93 -1.49359 5.68301 0
M  V30 23126 H 2145.46 -2.42273 5.60478 0
M  V30 23127 H 2146.87 -0.1548 5.73091 0
M  V30 23128 H 2145.27 0.599071 5.97102 0
M  V30 23129 H 2146.34 1.20903 4.69585 0
M  V30 23130 N 2147.68 -1.55636 0.248053 0
M  V30 23131 C 2148.96 -1.90888 -0.426759 0
M  V30 23132 C 2149.34 -1.16894 -1.75781 0
M  V30 23133 O 2148.68 -0.286804 -2.26693 0
M  V30 23134 C 2148.89 -3.43913 -0.593709 0
M  V30 23135 C 2150.24 -4.15188 -0.889059 0
M  V30 23136 O 2151.27 -3.49658 -0.67953 0
M  V30 23137 O 2150.13 -5.31102 -1.28815 0
M  V30 23138 H 2147.22 -0.794576 -0.2293 0
M  V30 23139 H 2149.77 -1.67165 0.292205 0
M  V30 23140 H 2148.54 -3.89784 0.3441 0
M  V30 23141 H 2148.16 -3.73502 -1.36317 0
M  V30 23142 N 2149.16 0.0250451 -1.5758 0
M  V30 23143 C 2150.07 1.04128 -2.10225 0
M  V30 23144 C 2151.08 1.39367 -1.04178 0
M  V30 23145 O 2152.26 1.48605 -1.35936 0
M  V30 23146 C 2149.32 2.32208 -2.5745 0
M  V30 23147 C 2148.39 2.03512 -3.77996 0
M  V30 23148 C 2147.62 3.25486 -4.22959 0
M  V30 23149 O 2147.84 4.36301 -3.6742 0
M  V30 23150 O 2146.78 3.1095 -5.15358 0
M  V30 23151 H 2150.6 0.623859 -2.97223 0
M  V30 23152 H 2148.19 0.242286 -1.47422 0
M  V30 23153 H 2150.07 3.07498 -2.88137 0
M  V30 23154 H 2148.74 2.73237 -1.73561 0
M  V30 23155 H 2147.65 1.25777 -3.52322 0
M  V30 23156 H 2148.98 1.67337 -4.62882 0
M  V30 23157 N 2150.64 1.54769 0.297388 0
M  V30 23158 C 2151.6 1.85222 1.35002 0
M  V30 23159 C 2152.6 0.725316 1.43512 0
M  V30 23160 O 2153.79 0.993591 1.43085 0
M  V30 23161 C 2150.92 2.03573 2.73443 0
M  V30 23162 H 2152.11 2.79296 1.09241 0
M  V30 23163 H 2149.67 1.46886 0.53424 0
M  V30 23164 H 2150.4 1.11799 3.0442 0
M  V30 23165 H 2150.19 2.85599 2.68655 0
M  V30 23166 H 2151.68 2.28492 3.49545 0
M  V30 23167 N 2152.11 -0.560755 1.47286 0
M  V30 23168 C 2153.34 -1.34358 1.57339 0
M  V30 23169 C 2153.76 -1.87487 0.222299 0
M  V30 23170 O 2153.11 -1.64806 -0.78391 0
M  V30 23171 C 2153.16 -2.51596 2.5958 0
M  V30 23172 O 2152.89 -2.00664 3.89443 0
M  V30 23173 C 2154.39 -3.43856 2.79783 0
M  V30 23174 H 2151.61 -0.409692 0.531407 0
M  V30 23175 H 2154.15 -0.679628 1.92876 0
M  V30 23176 H 2152.31 -3.13936 2.26986 0
M  V30 23177 H 2152.72 -2.77175 4.4528 0
M  V30 23178 H 2154.19 -4.22542 3.55193 0
M  V30 23179 H 2154.67 -3.97177 1.87477 0
M  V30 23180 H 2155.28 -2.87333 3.1356 0
M  V30 23181 N 2153.59 -1.35359 -0.807199 0
M  V30 23182 C 2154.55 -1.28103 -1.90059 0
M  V30 23183 C 2155.55 -0.192614 -1.59642 0
M  V30 23184 O 2156.74 -0.446274 -1.68387 0
M  V30 23185 C 2153.88 -0.981581 -3.26463 0
M  V30 23186 H 2155.07 -2.25323 -1.97912 0
M  V30 23187 H 2152.62 -1.19874 -1.00299 0
M  V30 23188 H 2153.36 -0.013209 -3.24297 0
M  V30 23189 H 2153.14 -1.76903 -3.49925 0
M  V30 23190 H 2154.63 -0.956397 -4.06501 0
M  V30 23191 N 2155.07 1.02928 -1.19346 0
M  V30 23192 C 2156.03 2.09361 -0.932765 0
M  V30 23193 C 2157.03 1.60567 0.086582 0
M  V30 23194 O 2158.22 1.73569 -0.148116 0
M  V30 23195 C 2155.35 3.38524 -0.401767 0
M  V30 23196 H 2156.55 2.33922 -1.87671 0
M  V30 23197 H 2154.1 1.19532 -1.00707 0
M  V30 23198 H 2154.84 3.19632 0.548245 0
M  V30 23199 H 2154.62 3.75261 -1.13672 0
M  V30 23200 H 2156.11 4.16919 -0.238443 0
M  V30 23201 N 2156.55 0.997319 1.2203 0
M  V30 23202 C 2157.79 0.676667 1.91178 0
M  V30 23203 C 2158.13 -0.789768 1.77416 0
M  V30 23204 O 2157.4 -1.57163 1.14586 0
M  V30 23205 C 2157.68 1.08886 3.43243 0
M  V30 23206 C 2157.54 2.61418 3.66034 0
M  V30 23207 C 2158.86 0.645428 4.35342 0
M  V30 23208 H 2155.98 0.247298 0.694271 0
M  V30 23209 H 2158.62 1.24163 1.43818 0
M  V30 23210 H 2156.77 0.608155 3.8371 0
M  V30 23211 H 2158.44 3.17192 3.34943 0
M  V30 23212 H 2156.68 3.03284 3.10163 0
M  V30 23213 H 2157.35 2.8531 4.72549 0
M  V30 23214 H 2159.83 1.05839 4.02414 0
M  V30 23215 H 2158.71 0.962088 5.40403 0
M  V30 23216 H 2158.97 -0.453741 4.39765 0
M  V30 23217 N 2158.03 -1.37449 0.771075 0
M  V30 23218 C 2159.3 -1.93866 0.259851 0
M  V30 23219 C 2159.68 -1.7048 -1.24498 0
M  V30 23220 O 2159.03 -1.05322 -2.0278 0
M  V30 23221 C 2159.24 -3.4322 0.63251 0
M  V30 23222 C 2160.59 -4.20312 0.601925 0
M  V30 23223 O 2161.61 -3.5158 0.571859 0
M  V30 23224 O 2160.47 -5.42875 0.628405 0
M  V30 23225 H 2157.57 -0.824843 0.0596922 0
M  V30 23226 H 2160.11 -1.4674 0.852382 0
M  V30 23227 H 2158.88 -3.53822 1.6711 0
M  V30 23228 H 2158.51 -3.97598 0.0128904 0
M  V30 23229 N 2159.5 -0.52156 -1.4872 0
M  V30 23230 C 2160.43 0.234741 -2.32317 0
M  V30 23231 C 2161.42 0.943119 -1.4156 0
M  V30 23232 O 2162.6 0.930536 -1.70454 0
M  V30 23233 C 2159.73 1.28724 -3.22564 0
M  V30 23234 C 2158.68 0.697518 -4.22278 0
M  V30 23235 C 2158.01 1.85205 -5.016 0
M  V30 23236 C 2159.31 -0.325174 -5.21287 0
M  V30 23237 H 2161 -0.463097 -2.95797 0
M  V30 23238 H 2158.55 -0.224154 -1.42245 0
M  V30 23239 H 2160.5 1.82422 -3.79869 0
M  V30 23240 H 2159.23 2.01455 -2.57067 0
M  V30 23241 H 2157.89 0.182131 -3.66147 0
M  V30 23242 H 2157.53 2.56754 -4.32535 0
M  V30 23243 H 2157.23 1.46343 -5.69085 0
M  V30 23244 H 2158.76 2.39297 -5.61755 0
M  V30 23245 H 2160.17 0.124406 -5.73165 0
M  V30 23246 H 2158.57 -0.630729 -5.96776 0
M  V30 23247 H 2159.64 -1.23392 -4.68938 0
M  V30 23248 N 2160.98 1.55502 -0.256304 0
M  V30 23249 C 2161.89 2.25422 0.649785 0
M  V30 23250 C 2162.91 1.27356 1.1856 0
M  V30 23251 O 2164.08 1.60253 1.21988 0
M  V30 23252 C 2161.15 2.94725 1.82587 0
M  V30 23253 C 2160.21 4.08224 1.32859 0
M  V30 23254 C 2159.44 4.74213 2.44862 0
M  V30 23255 O 2159.67 4.39321 3.63804 0
M  V30 23256 O 2158.6 5.6254 2.14086 0
M  V30 23257 H 2162.43 3.03584 0.083948 0
M  V30 23258 H 2160.01 1.4938 -0.0244329 0
M  V30 23259 H 2161.89 3.38344 2.512 0
M  V30 23260 H 2160.57 2.19495 2.37915 0
M  V30 23261 H 2159.48 3.69102 0.609468 0
M  V30 23262 H 2160.81 4.853 0.82129 0
M  V30 23263 N 2162.46 -0.0166879 1.57591 0
M  V30 23264 C 2163.69 -0.716426 1.941 0
M  V30 23265 C 2164.1 -1.68225 0.857081 0
M  V30 23266 O 2163.46 -1.81748 -0.165469 0
M  V30 23267 C 2163.51 -1.46279 3.30583 0
M  V30 23268 O 2163.23 -0.535718 4.34812 0
M  V30 23269 C 2164.73 -2.25856 3.8145 0
M  V30 23270 H 2161.95 -0.200593 0.640315 0
M  V30 23271 H 2164.5 0.0294696 2.04479 0
M  V30 23272 H 2162.65 -2.16045 3.21564 0
M  V30 23273 H 2163.07 -1.06046 5.13668 0
M  V30 23274 H 2164.54 -2.73602 4.79423 0
M  V30 23275 H 2165.02 -3.07813 3.13285 0
M  V30 23276 H 2165.62 -1.61139 3.93592 0
M  V30 23277 N 2163.94 -1.54924 -0.289176 0
M  V30 23278 C 2165.22 -1.65459 -1.04319 0
M  V30 23279 C 2165.6 -0.510528 -2.04834 0
M  V30 23280 O 2164.94 0.491374 -2.23154 0
M  V30 23281 C 2165.15 -3.03984 -1.71449 0
M  V30 23282 C 2166.5 -3.61196 -2.2321 0
M  V30 23283 O 2167.53 -3.06513 -1.81462 0
M  V30 23284 O 2166.38 -4.56967 -2.99739 0
M  V30 23285 H 2163.48 -0.671376 -0.482891 0
M  V30 23286 H 2166.02 -1.67267 -0.286321 0
M  V30 23287 H 2164.8 -3.78693 -0.985267 0
M  V30 23288 H 2164.42 -3.06005 -2.53863 0
M  V30 23289 N 2165.42 0.552936 -1.47582 0
M  V30 23290 C 2166.69 1.31381 -1.44908 0
M  V30 23291 C 2167.07 2.10578 -0.148323 0
M  V30 23292 O 2166.42 2.11283 0.870167 0
M  V30 23293 C 2166.63 2.21471 -2.69725 0
M  V30 23294 C 2167.98 2.82353 -3.17115 0
M  V30 23295 O 2169 2.31771 -2.70482 0
M  V30 23296 O 2167.86 3.74302 -3.98196 0
M  V30 23297 H 2164.96 0.591798 -0.577672 0
M  V30 23298 H 2167.5 0.571486 -1.59788 0
M  V30 23299 H 2166.27 1.62579 -3.55926 0
M  V30 23300 H 2165.9 3.02992 -2.57452 0
M  V30 23301 N 2166.89 1.35785 0.800009 0
M  V30 23302 C 2167.82 1.31917 1.92666 0
M  V30 23303 C 2168.81 0.19244 1.69008 0
M  V30 23304 O 2169.99 0.388435 1.90276 0
M  V30 23305 C 2167.12 1.09703 3.29519 0
M  V30 23306 C 2166.07 2.19086 3.67675 0
M  V30 23307 C 2165.4 1.82029 5.02762 0
M  V30 23308 C 2166.7 3.611 3.77365 0
M  V30 23309 H 2168.39 2.26189 1.96161 0
M  V30 23310 H 2165.94 1.08882 0.94237 0
M  V30 23311 H 2167.89 1.05634 4.07945 0
M  V30 23312 H 2166.62 0.118779 3.26384 0
M  V30 23313 H 2165.28 2.22263 2.91539 0
M  V30 23314 H 2164.92 0.828056 4.96137 0
M  V30 23315 H 2164.62 2.55256 5.29262 0
M  V30 23316 H 2166.15 1.79497 5.83621 0
M  V30 23317 H 2167.56 3.60209 4.46007 0
M  V30 23318 H 2165.96 4.33143 4.1534 0
M  V30 23319 H 2167.03 3.96774 2.78744 0
M  V30 23320 N 2168.37 -1.02294 1.19891 0
M  V30 23321 C 2169.62 -1.75196 0.999463 0
M  V30 23322 C 2169.93 -1.89874 -0.469823 0
M  V30 23323 O 2171.14 -2.59806 -0.788235 0
M  V30 23324 C 2169.6 -3.15074 1.73944 0
M  V30 23325 C 2169.2 -3.0843 3.24923 0
M  V30 23326 C 2170.95 -3.9223 1.62345 0
M  V30 23327 C 2168.86 -4.43277 3.91484 0
M  V30 23328 H 2167.79 -0.656782 0.370342 0
M  V30 23329 H 2170.44 -1.14434 1.43447 0
M  V30 23330 H 2168.82 -3.76339 1.23227 0
M  V30 23331 H 2169.99 -2.5651 3.82804 0
M  V30 23332 H 2168.31 -2.44769 3.36864 0
M  V30 23333 H 2170.9 -4.91983 2.09419 0
M  V30 23334 H 2171.25 -4.1226 0.578579 0
M  V30 23335 H 2171.78 -3.37579 2.1044 0
M  V30 23336 H 2168.52 -4.28451 4.96095 0
M  V30 23337 H 2168.04 -4.95228 3.38392 0
M  V30 23338 H 2169.72 -5.12142 3.95373 0
M  V30 23339 N 2169.85 -1.00378 -1.21499 0
M  V30 23340 C 2170.78 -0.521384 -2.23191 0
M  V30 23341 C 2171.8 0.389369 -1.58075 0
M  V30 23342 O 2172.98 0.189763 -1.77488 0
M  V30 23343 C 2170.08 0.262422 -3.37882 0
M  V30 23344 C 2169.26 -0.647107 -4.32587 0
M  V30 23345 C 2168.32 0.0868769 -5.26128 0
M  V30 23346 O 2167.34 -0.531365 -5.66714 0
M  V30 23347 N 2168.54 1.36582 -5.64203 0
M  V30 23348 H 2171.31 -1.39587 -2.65208 0
M  V30 23349 H 2168.87 -0.879774 -1.3591 0
M  V30 23350 H 2170.86 0.762368 -3.97454 0
M  V30 23351 H 2169.43 1.03809 -2.9486 0
M  V30 23352 H 2168.65 -1.32756 -3.71173 0
M  V30 23353 H 2169.94 -1.26613 -4.92795 0
M  V30 23354 H 2169.34 1.88926 -5.3322 0
M  V30 23355 H 2167.9 1.81075 -6.26143 0
M  V30 23356 N 2171.33 1.37038 -0.778354 0
M  V30 23357 C 2172.55 2.0432 -0.356086 0
M  V30 23358 C 2172.98 1.58315 1.01577 0
M  V30 23359 O 2172.34 0.74645 1.65221 0
M  V30 23360 C 2172.38 3.58196 -0.41573 0
M  V30 23361 O 2171.49 4.08281 0.581416 0
M  V30 23362 H 2170.83 0.646127 -0.153022 0
M  V30 23363 H 2173.36 1.75219 -1.05639 0
M  V30 23364 H 2173.37 4.0707 -0.275375 0
M  V30 23365 H 2172.04 3.91034 -1.41652 0
M  V30 23366 H 2170.62 3.70709 0.403635 0
M  V30 23367 N 2172.81 0.529439 1.48441 0
M  V30 23368 C 2174.04 -0.000824174 2.069 0
M  V30 23369 C 2174.45 -1.28195 1.38605 0
M  V30 23370 O 2173.81 -1.76253 0.4734 0
M  V30 23371 C 2173.86 -0.229032 3.60774 0
M  V30 23372 O 2173.58 1.00134 4.26503 0
M  V30 23373 C 2175.08 -0.799736 4.36027 0
M  V30 23374 H 2172.3 0.0332691 0.670175 0
M  V30 23375 H 2174.84 0.734929 1.90838 0
M  V30 23376 H 2173 -0.914832 3.76443 0
M  V30 23377 H 2173.41 0.781737 5.18642 0
M  V30 23378 H 2174.89 -0.908842 5.44467 0
M  V30 23379 H 2175.36 -1.8045 4.00418 0
M  V30 23380 H 2175.97 -0.150518 4.25034 0
M  V30 23381 N 2174.29 -1.55364 0.264547 0
M  V30 23382 C 2175.53 -1.98537 -0.355827 0
M  V30 23383 C 2175.85 -1.15624 -1.57767 0
M  V30 23384 O 2177.05 -1.48892 -2.27032 0
M  V30 23385 C 2175.51 -3.53332 -0.684446 0
M  V30 23386 C 2175.12 -4.45007 0.516993 0
M  V30 23387 C 2176.86 -4.05119 -1.26803 0
M  V30 23388 C 2174.77 -5.91174 0.163548 0
M  V30 23389 H 2173.7 -0.7415 -0.136725 0
M  V30 23390 H 2176.35 -1.79782 0.367539 0
M  V30 23391 H 2174.73 -3.67848 -1.46643 0
M  V30 23392 H 2175.91 -4.42256 1.29406 0
M  V30 23393 H 2174.22 -4.03797 1.0167 0
M  V30 23394 H 2176.82 -5.11859 -1.5461 0
M  V30 23395 H 2177.16 -3.53519 -2.19841 0
M  V30 23396 H 2177.69 -3.93999 -0.548571 0
M  V30 23397 H 2174.43 -6.46848 1.06153 0
M  V30 23398 H 2173.95 -5.97019 -0.576966 0
M  V30 23399 H 2175.63 -6.46524 -0.248012 0
M  V30 23400 N 2175.76 0.00833021 -1.57598 0
M  V30 23401 C 2177.18 0.364296 -1.55387 0
M  V30 23402 C 2177.38 1.75313 -0.993353 0
M  V30 23403 O 2176.44 2.44681 -0.623498 0
M  V30 23404 C 2177.75 0.247154 -2.99683 0
M  V30 23405 C 2179.3 0.32271 -3.11332 0
M  V30 23406 C 2179.77 0.234786 -4.57398 0
M  V30 23407 N 2181.26 0.292944 -4.62273 0
M  V30 23408 C 2182 0.248123 -5.72863 0
M  V30 23409 N 2181.49 0.154382 -6.92628 0
M  V30 23410 N 2183.29 0.299377 -5.61302 0
M  V30 23411 H 2175.44 -0.900301 -1.92376 0
M  V30 23412 H 2177.7 -0.344326 -0.883257 0
M  V30 23413 H 2177.41 -0.708073 -3.44498 0
M  V30 23414 H 2177.28 1.03257 -3.62792 0
M  V30 23415 H 2179.67 1.26838 -2.66451 0
M  V30 23416 H 2179.75 -0.492428 -2.51016 0
M  V30 23417 H 2179.39 -0.707303 -5.02951 0
M  V30 23418 H 2179.32 1.0683 -5.1565 0
M  V30 23419 H 2181.81 0.367063 -3.76113 0
M  V30 23420 H 2182.13 0.12585 -7.72698 0
M  V30 23421 H 2180.47 0.12013 -6.94896 0
M  V30 23422 H 2183.66 0.370748 -4.66629 0
M  V30 23423 H 2183.84 0.260981 -6.47474 0
M  V30 23424 N 2177.24 1.55075 0.280956 0
M  V30 23425 C 2178.47 1.79322 1.03205 0
M  V30 23426 C 2178.88 0.56257 1.80224 0
M  V30 23427 O 2178.24 -0.468172 1.76393 0
M  V30 23428 C 2178.29 3.01341 1.99689 0
M  V30 23429 O 2178.01 4.19652 1.25792 0
M  V30 23430 C 2179.51 3.38131 2.86675 0
M  V30 23431 H 2176.73 0.597563 0.30522 0
M  V30 23432 H 2179.28 2.02073 0.31415 0
M  V30 23433 H 2177.43 2.8074 2.66953 0
M  V30 23434 H 2177.85 4.88582 1.90757 0
M  V30 23435 H 2179.32 4.267 3.50188 0
M  V30 23436 H 2179.8 2.57177 3.56029 0
M  V30 23437 H 2180.4 3.60962 2.24914 0
M  V30 23438 N 2178.72 -0.545102 1.47873 0
M  V30 23439 C 2179.65 -1.66665 1.57339 0
M  V30 23440 C 2180.66 -1.56204 0.458698 0
M  V30 23441 O 2181.85 -1.62941 0.728868 0
M  V30 23442 C 2178.95 -3.05217 1.47295 0
M  V30 23443 C 2178.13 -3.41311 2.73543 0
M  V30 23444 C 2177.19 -4.59078 2.57165 0
M  V30 23445 O 2176.21 -4.63053 3.31014 0
M  V30 23446 N 2177.41 -5.56323 1.65786 0
M  V30 23447 H 2180.18 -1.58986 2.54054 0
M  V30 23448 H 2177.74 -0.732029 1.44405 0
M  V30 23449 H 2179.73 -3.81853 1.34055 0
M  V30 23450 H 2178.3 -3.07056 0.586146 0
M  V30 23451 H 2177.52 -2.54003 3.01457 0
M  V30 23452 H 2178.81 -3.62205 3.5733 0
M  V30 23453 H 2178.21 -5.55877 1.04961 0
M  V30 23454 H 2176.76 -6.32237 1.58492 0
M  V30 23455 N 2180.2 -1.36208 -0.792797 0
M  V30 23456 C 2181.44 -1.30249 -1.55053 0
M  V30 23457 C 2181.77 0.119193 -1.94134 0
M  V30 23458 O 2181.03 1.08769 -1.62689 0
M  V30 23459 C 2181.33 -2.16771 -2.84157 0
M  V30 23460 C 2180.99 -3.65368 -2.64229 0
M  V30 23461 C 2179.65 -4.0587 -2.58502 0
M  V30 23462 C 2182.01 -4.59598 -2.45804 0
M  V30 23463 C 2179.33 -5.38747 -2.32312 0
M  V30 23464 C 2181.69 -5.92688 -2.21141 0
M  V30 23465 C 2180.35 -6.32318 -2.13845 0
M  V30 23466 H 2179.62 -0.476617 -0.567378 0
M  V30 23467 H 2182.27 -1.6823 -0.914933 0
M  V30 23468 H 2180.57 -1.71716 -3.52166 0
M  V30 23469 H 2182.27 -2.09488 -3.41929 0
M  V30 23470 H 2178.86 -3.33236 -2.6954 0
M  V30 23471 H 2183.04 -4.29182 -2.49231 0
M  V30 23472 H 2178.3 -5.68437 -2.25143 0
M  V30 23473 H 2182.47 -6.65272 -2.05878 0
M  V30 23474 H 2180.1 -7.3521 -1.93314 0
M  V30 23475 N 2181.68 1.01656 -1.20431 0
M  V30 23476 C 2182.59 2.13658 -0.968877 0
M  V30 23477 C 2183.6 1.73837 0.075256 0
M  V30 23478 O 2184.78 2.01087 -0.112194 0
M  V30 23479 C 2181.84 3.42716 -0.524052 0
M  V30 23480 C 2180.9 3.9678 -1.63904 0
M  V30 23481 C 2180.14 5.19678 -1.21534 0
M  V30 23482 O 2180.36 5.70338 -0.0840508 0
M  V30 23483 O 2179.29 5.66893 -2.02278 0
M  V30 23484 H 2183.12 2.3639 -1.90666 0
M  V30 23485 H 2180.7 1.1205 -0.98819 0
M  V30 23486 H 2182.59 4.20434 -0.285221 0
M  V30 23487 H 2181.26 3.21401 0.385143 0
M  V30 23488 H 2180.17 3.20341 -1.93215 0
M  V30 23489 H 2181.5 4.22484 -2.52524 0
M  V30 23490 N 2183.15 1.01021 1.20965 0
M  V30 23491 C 2184.43 0.611192 1.85806 0
M  V30 23492 C 2184.81 -0.910997 1.90431 0
M  V30 23493 O 2184.16 -1.80009 1.40744 0
M  V30 23494 C 2184.37 1.25159 3.25785 0
M  V30 23495 C 2185.72 1.36299 4.02129 0
M  V30 23496 O 2186.74 1.20731 3.35116 0
M  V30 23497 O 2185.6 1.61393 5.22125 0
M  V30 23498 H 2182.69 0.210041 0.799882 0
M  V30 23499 H 2185.24 1.10718 1.28606 0
M  V30 23500 H 2184.01 2.292 3.17148 0
M  V30 23501 H 2183.63 0.742281 3.9061 0
M  V30 23502 N 2184.63 -1.36623 0.78561 0
M  V30 23503 C 2185.87 -2.01176 0.361609 0
M  V30 23504 C 2186.24 -1.61005 -1.04602 0
M  V30 23505 O 2187.44 -2.1812 -1.57089 0
M  V30 23506 C 2185.71 -3.53657 0.515881 0
M  V30 23507 S 2187.27 -4.38434 0.179194 0
M  V30 23508 H 2184.08 -0.697408 0.13836 0
M  V30 23509 H 2186.69 -1.66582 1.02327 0
M  V30 23510 H 2185.39 -3.80381 1.54072 0
M  V30 23511 H 2184.92 -3.93067 -0.161844 0
M  V30 23512 H 2186.94 -4.85592 -1.02055 0
M  V30 23513 N 2186.11 -0.537304 -1.48158 0
M  V30 23514 C 2187.34 -0.0101482 -2.06898 0
M  V30 23515 C 2187.75 1.27458 -1.39283 0
M  V30 23516 O 2187.11 1.76 -0.48274 0
M  V30 23517 C 2187.16 0.209896 -3.6089 0
M  V30 23518 O 2186.88 -1.02394 -4.25966 0
M  V30 23519 C 2188.38 0.776601 -4.36444 0
M  V30 23520 H 2185.6 -0.0368227 -0.669989 0
M  V30 23521 H 2188.15 -0.745039 -1.90445 0
M  V30 23522 H 2186.3 0.894855 -3.76923 0
M  V30 23523 H 2186.72 -0.809231 -5.1822 0
M  V30 23524 H 2188.19 0.879955 -5.44941 0
M  V30 23525 H 2188.67 1.78324 -4.01369 0
M  V30 23526 H 2189.27 0.127975 -4.25107 0
M  V30 23527 N 2187.59 1.55221 -0.272782 0
M  V30 23528 C 2188.83 1.99841 0.345178 0
M  V30 23529 C 2189.17 1.16093 1.55679 0
M  V30 23530 O 2188.44 0.230441 1.9313 0
M  V30 23531 C 2188.73 3.5263 0.729656 0
M  V30 23532 C 2188.58 4.47133 -0.489138 0
M  V30 23533 C 2189.9 4.11259 1.56698 0
M  V30 23534 H 2187.02 0.726495 0.123989 0
M  V30 23535 H 2189.66 1.86176 -0.379262 0
M  V30 23536 H 2187.81 3.64405 1.34689 0
M  V30 23537 H 2189.48 4.47304 -1.12769 0
M  V30 23538 H 2187.72 4.18888 -1.12762 0
M  V30 23539 H 2188.39 5.51718 -0.176396 0
M  V30 23540 H 2190.87 4.02745 1.04572 0
M  V30 23541 H 2189.75 5.1838 1.80481 0
M  V30 23542 H 2190.01 3.61341 2.54726 0
M  V30 23543 N 2189.07 2.77022e-05 1.576 0
M  V30 23544 C 2190 -0.990304 2.1146 0
M  V30 23545 C 2190.98 -1.35844 1.02374 0
M  V30 23546 O 2192.16 -1.44218 1.30057 0
M  V30 23547 C 2189.29 -2.28215 2.61792 0
M  V30 23548 C 2188.25 -2.05563 3.75404 0
M  V30 23549 C 2187.57 -3.40761 4.12051 0
M  V30 23550 C 2188.87 -1.4182 5.02677 0
M  V30 23551 H 2190.57 -0.541853 2.94456 0
M  V30 23552 H 2188.11 -0.259194 1.41648 0
M  V30 23553 H 2190.07 -2.97851 2.98099 0
M  V30 23554 H 2188.79 -2.75174 1.75918 0
M  V30 23555 H 2187.45 -1.38353 3.39491 0
M  V30 23556 H 2187.1 -3.85423 3.232 0
M  V30 23557 H 2186.8 -3.26421 4.88593 0
M  V30 23558 H 2188.32 -4.11712 4.50916 0
M  V30 23559 H 2189.73 -2.01413 5.36755 0
M  V30 23560 H 2188.13 -1.37967 5.84025 0
M  V30 23561 H 2189.2 -0.387421 4.8335 0
M  V30 23562 N 2190.54 -1.55222 -0.272728 0
M  V30 23563 C 2191.77 -1.79867 -1.02252 0
M  V30 23564 C 2192.19 -0.57212 -1.79923 0
M  V30 23565 O 2191.54 0.458811 -1.76639 0
M  V30 23566 C 2191.6 -3.02396 -1.98088 0
M  V30 23567 O 2191.32 -4.20314 -1.23564 0
M  V30 23568 C 2192.82 -3.39646 -2.84878 0
M  V30 23569 H 2190.04 -0.599174 -0.302046 0
M  V30 23570 H 2192.58 -2.02236 -0.303429 0
M  V30 23571 H 2190.74 -2.82152 -2.6546 0
M  V30 23572 H 2191.15 -4.89586 -1.88163 0
M  V30 23573 H 2192.62 -4.28551 -3.4792 0
M  V30 23574 H 2193.1 -2.59061 -3.5466 0
M  V30 23575 H 2193.71 -3.6215 -2.22997 0
M  V30 23576 N 2192.02 0.537252 -1.4816 0
M  V30 23577 C 2193.27 1.28991 -1.55062 0
M  V30 23578 C 2193.58 1.94287 -0.226245 0
M  V30 23579 O 2194.79 2.70945 -0.173442 0
M  V30 23580 C 2193.25 2.34013 -2.73434 0
M  V30 23581 C 2192.85 1.74818 -4.12483 0
M  V30 23582 C 2194.6 3.10334 -2.89643 0
M  V30 23583 C 2192.51 2.77738 -5.22126 0
M  V30 23584 H 2191.44 0.485088 -0.57724 0
M  V30 23585 H 2194.09 0.568286 -1.74479 0
M  V30 23586 H 2192.47 3.09178 -2.47437 0
M  V30 23587 H 2193.64 1.05891 -4.48468 0
M  V30 23588 H 2191.96 1.11015 -4.01329 0
M  V30 23589 H 2194.55 3.87228 -3.68725 0
M  V30 23590 H 2194.9 3.65751 -1.98827 0
M  V30 23591 H 2195.43 2.42282 -3.15506 0
M  V30 23592 H 2192.17 2.27151 -6.14884 0
M  V30 23593 H 2191.69 3.45015 -4.90637 0
M  V30 23594 H 2193.37 3.40861 -5.4993 0
M  V30 23595 N 2193.5 1.36626 0.785562 0
M  V30 23596 C 2194.46 1.3111 1.87997 0
M  V30 23597 C 2195.46 0.217987 1.59316 0
M  V30 23598 O 2196.65 0.473006 1.67655 0
M  V30 23599 C 2193.79 1.03339 3.2486 0
M  V30 23600 H 2194.98 2.28444 1.94303 0
M  V30 23601 H 2192.53 1.21455 0.983792 0
M  V30 23602 H 2193.27 0.0648002 3.24235 0
M  V30 23603 H 2193.05 1.82447 3.47067 0
M  V30 23604 H 2194.54 1.02095 4.04928 0
M  V30 23605 N 2194.98 -1.01016 1.20969 0
M  V30 23606 C 2195.93 -2.08088 0.931857 0
M  V30 23607 C 2196.91 -1.60518 -0.11087 0
M  V30 23608 O 2198.1 -1.76732 0.0973702 0
M  V30 23609 C 2195.23 -3.39745 0.492779 0
M  V30 23610 C 2194.32 -3.93998 1.56929 0
M  V30 23611 N 2194.71 -4.21681 2.79319 0
M  V30 23612 C 2193.01 -4.22217 1.43696 0
M  V30 23613 C 2193.71 -4.65521 3.48805 0
M  V30 23614 N 2192.69 -4.68185 2.76232 0
M  V30 23615 H 2196.49 -2.27408 1.86179 0
M  V30 23616 H 2194 -1.19043 1.10465 0
M  V30 23617 H 2196 -4.15991 0.275117 0
M  V30 23618 H 2194.66 -3.21834 -0.430453 0
M  V30 23619 H 2195.67 -4.10391 3.1591 0
M  V30 23620 H 2192.35 -4.13471 0.57862 0
M  V30 23621 H 2193.74 -4.95706 4.53569 0
M  V30 23622 N 2196.46 -1.01661 -1.20428 0
M  V30 23623 C 2197.87 -0.731467 -1.41851 0
M  V30 23624 C 2198.07 0.688865 -1.89359 0
M  V30 23625 O 2197.13 1.45662 -2.06249 0
M  V30 23626 C 2198.44 -1.75718 -2.44016 0
M  V30 23627 C 2199.99 -1.77532 -2.57782 0
M  V30 23628 C 2200.46 -2.7903 -3.63189 0
M  V30 23629 N 2201.96 -2.7777 -3.70673 0
M  V30 23630 C 2202.69 -3.52962 -4.51891 0
M  V30 23631 N 2202.19 -4.3783 -5.36914 0
M  V30 23632 N 2203.98 -3.41559 -4.46424 0
M  V30 23633 H 2196.13 -1.93355 -0.879059 0
M  V30 23634 H 2198.39 -0.835244 -0.448411 0
M  V30 23635 H 2198.1 -2.77473 -2.16105 0
M  V30 23636 H 2197.97 -1.56933 -3.43004 0
M  V30 23637 H 2200.36 -0.764619 -2.85022 0
M  V30 23638 H 2200.44 -2.0039 -1.58989 0
M  V30 23639 H 2200.09 -3.80264 -3.36693 0
M  V30 23640 H 2200.02 -2.53433 -4.61605 0
M  V30 23641 H 2202.51 -2.16206 -3.09941 0
M  V30 23642 H 2202.82 -4.91973 -5.95972 0
M  V30 23643 H 2201.16 -4.41908 -5.36416 0
M  V30 23644 H 2204.36 -2.74679 -3.79037 0
M  V30 23645 H 2204.53 -4.00413 -5.09484 0
M  V30 23646 N 2197.93 1.36205 -0.792844 0
M  V30 23647 C 2198.86 2.32573 -0.207894 0
M  V30 23648 C 2199.85 1.56815 0.659028 0
M  V30 23649 O 2201.03 1.84952 0.592143 0
M  V30 23650 C 2198.16 3.4106 0.655389 0
M  V30 23651 C 2197.11 4.27854 -0.111917 0
M  V30 23652 C 2196.44 5.27539 0.872181 0
M  V30 23653 C 2197.74 5.05784 -1.30308 0
M  V30 23654 H 2199.43 2.81743 -1.01299 0
M  V30 23655 H 2196.98 1.35459 -0.488564 0
M  V30 23656 H 2198.93 4.07469 1.07457 0
M  V30 23657 H 2197.66 2.90466 1.49323 0
M  V30 23658 H 2196.32 3.63005 -0.512116 0
M  V30 23659 H 2195.96 4.73217 1.70514 0
M  V30 23660 H 2195.66 5.86477 0.363188 0
M  V30 23661 H 2197.19 5.96821 1.28986 0
M  V30 23662 H 2198.6 5.65214 -0.959478 0
M  V30 23663 H 2197 5.7415 -1.7456 0
M  V30 23664 H 2198.07 4.37226 -2.0967 0
M  V30 23665 N 2199.41 0.545154 1.47871 0
M  V30 23666 C 2200.36 -0.222471 2.31534 0
M  V30 23667 C 2201.35 -0.92096 1.42178 0
M  V30 23668 O 2202.56 -0.843617 1.59007 0
M  V30 23669 H 2198.94 -0.0906147 0.746521 0
M  V30 23670 H 2200.91 0.502511 2.94138 0
M  V30 23671 C 2199.66 -1.24693 3.24572 0
M  V30 23672 H 2198.98 -0.718875 3.93284 0
M  V30 23673 H 2200.42 -1.75516 3.85967 0
M  V30 23674 C 2198.88 -2.28852 2.47241 0
M  V30 23675 O 2199.41 -3.35565 2.20814 0
M  V30 23676 N 2197.61 -2.02462 2.08465 0
M  V30 23677 H 2197.16 -1.15696 2.30157 0
M  V30 23678 H 2197.12 -2.72372 1.57038 0
M  V30 23679 N 2200.89 -1.55074 0.28101 0
M  V30 23680 C 2202.12 -2.04133 -0.337257 0
M  V30 23681 C 2202.53 -1.15915 -1.49028 0
M  V30 23682 O 2201.89 -0.180491 -1.81605 0
M  V30 23683 C 2201.94 -3.52248 -0.812644 0
M  V30 23684 O 2201.66 -4.37109 0.294464 0
M  V30 23685 C 2203.16 -4.17218 -1.49812 0
M  V30 23686 H 2200.38 -0.666665 -0.0761521 0
M  V30 23687 H 2202.93 -2.00249 0.414822 0
M  V30 23688 H 2201.08 -3.56557 -1.5148 0
M  V30 23689 H 2201.5 -5.24451 -0.0720403 0
M  V30 23690 H 2202.97 -5.22441 -1.78211 0
M  V30 23691 H 2203.45 -3.65745 -2.43161 0
M  V30 23692 H 2204.05 -4.16929 -0.839669 0
M  V30 23693 N 2202.37 -0.00838561 -1.57598 0
M  V30 23694 C 2203.62 0.673935 -1.90108 0
M  V30 23695 C 2203.93 1.74469 -0.884306 0
M  V30 23696 O 2205.14 2.48222 -1.09992 0
M  V30 23697 C 2203.59 1.24989 -3.37499 0
M  V30 23698 C 2203.2 0.213522 -4.47491 0
M  V30 23699 C 2204.95 1.90992 -3.79107 0
M  V30 23700 C 2202.85 0.799947 -5.85965 0
M  V30 23701 H 2201.78 0.255482 -0.709398 0
M  V30 23702 H 2204.43 -0.0703015 -1.83365 0
M  V30 23703 H 2202.82 2.04507 -3.39106 0
M  V30 23704 H 2203.99 -0.557676 -4.57413 0
M  V30 23705 H 2202.3 -0.346547 -4.14955 0
M  V30 23706 H 2204.9 2.35787 -4.79905 0
M  V30 23707 H 2205.24 2.74401 -3.13065 0
M  V30 23708 H 2205.78 1.18196 -3.79835 0
M  V30 23709 H 2202.52 0.00445186 -6.555 0
M  V30 23710 H 2202.04 1.54011 -5.7969 0
M  V30 23711 H 2203.72 1.29604 -6.33886 0
M  V30 23712 N 2203.85 1.55365 0.264492 0
M  V30 23713 C 2204.78 1.83768 1.35294 0
M  V30 23714 C 2205.76 0.691361 1.4717 0
M  V30 23715 O 2206.94 0.935267 1.63661 0
M  V30 23716 C 2204.07 2.00684 2.72844 0
M  V30 23717 C 2203.12 3.23268 2.78208 0
M  V30 23718 S 2203.95 4.804 2.36593 0
M  V30 23719 C 2205.1 5.00298 3.76101 0
M  V30 23720 H 2205.34 2.75802 1.10998 0
M  V30 23721 H 2202.87 1.47245 0.46457 0
M  V30 23722 H 2204.83 2.11114 3.52053 0
M  V30 23723 H 2203.49 1.09524 2.94386 0
M  V30 23724 H 2202.68 3.32017 3.79185 0
M  V30 23725 H 2202.28 3.11473 2.07028 0
M  V30 23726 H 2204.58 4.86562 4.71448 0
M  V30 23727 H 2205.52 6.02328 3.72299 0
M  V30 23728 H 2205.93 4.28234 3.67799 0
M  V30 23729 N 2205.33 -0.529387 1.48443 0
M  V30 23730 C 2206.6 -1.29059 1.4698 0
M  V30 23731 C 2206.98 -2.10316 0.181806 0
M  V30 23732 O 2206.33 -2.1264 -0.836444 0
M  V30 23733 C 2206.54 -2.17152 2.73214 0
M  V30 23734 C 2207.89 -2.77273 3.21566 0
M  V30 23735 O 2208.91 -2.27439 2.74135 0
M  V30 23736 O 2207.77 -3.67919 4.04101 0
M  V30 23737 H 2204.87 -0.582532 0.587014 0
M  V30 23738 H 2207.41 -0.545993 1.60677 0
M  V30 23739 H 2206.18 -1.56896 3.58468 0
M  V30 23740 H 2205.81 -2.98858 2.6224 0
M  V30 23741 N 2206.8 -1.37041 -0.778305 0
M  V30 23742 C 2208.03 -1.3487 -1.56504 0
M  V30 23743 C 2208.44 0.069447 -1.89073 0
M  V30 23744 O 2207.78 1.03985 -1.51436 0
M  V30 23745 C 2207.85 -2.1159 -2.90637 0
M  V30 23746 C 2207.51 -3.60603 -2.80739 0
M  V30 23747 C 2208.51 -4.54623 -2.52218 0
M  V30 23748 C 2206.19 -4.03638 -2.98967 0
M  V30 23749 C 2208.19 -5.89656 -2.42043 0
M  V30 23750 C 2205.87 -5.38759 -2.88413 0
M  V30 23751 C 2206.87 -6.3158 -2.59991 0
M  V30 23752 O 2206.56 -7.64218 -2.49451 0
M  V30 23753 H 2206.29 -0.463888 -0.491715 0
M  V30 23754 H 2208.85 -1.80891 -0.973021 0
M  V30 23755 H 2207.08 -1.60249 -3.51933 0
M  V30 23756 H 2208.76 -2.02137 -3.51988 0
M  V30 23757 H 2209.53 -4.22685 -2.37828 0
M  V30 23758 H 2205.41 -3.31755 -3.20093 0
M  V30 23759 H 2208.95 -6.62075 -2.19779 0
M  V30 23760 H 2204.85 -5.703 -3.0237 0
M  V30 23761 H 2205.62 -7.74465 -2.6485 0
M  V30 23762 N 2208.28 1.00373 -1.21503 0
M  V30 23763 C 2209.51 1.77742 -1.05903 0
M  V30 23764 C 2209.92 1.84705 0.391093 0
M  V30 23765 O 2209.28 1.30935 1.27131 0
M  V30 23766 C 2209.33 3.21588 -1.65116 0
M  V30 23767 O 2209.05 3.15022 -3.04455 0
M  V30 23768 C 2210.55 4.15451 -1.54645 0
M  V30 23769 H 2207.77 0.558551 -0.371835 0
M  V30 23770 H 2210.32 1.26262 -1.60867 0
M  V30 23771 H 2208.47 3.70173 -1.14241 0
M  V30 23772 H 2208.89 4.05404 -3.32788 0
M  V30 23773 H 2210.36 5.14176 -2.00817 0
M  V30 23774 H 2210.84 4.36332 -0.501099 0
M  V30 23775 H 2211.44 3.72757 -2.04773 0
M  V30 23776 N 2209.76 1.02298 1.19887 0
M  V30 23777 C 2211.18 0.738979 1.41461 0
M  V30 23778 C 2211.38 -0.678813 1.89722 0
M  V30 23779 O 2210.43 -1.44566 2.07019 0
M  V30 23780 C 2211.74 1.7701 2.4308 0
M  V30 23781 C 2213.29 1.78896 2.56837 0
M  V30 23782 C 2213.77 2.80952 3.61704 0
M  V30 23783 N 2215.26 2.79732 3.69194 0
M  V30 23784 C 2215.99 3.55353 4.50013 0
M  V30 23785 N 2215.49 4.40672 5.34584 0
M  V30 23786 N 2217.28 3.43922 4.44606 0
M  V30 23787 H 2209.43 1.93819 0.868793 0
M  V30 23788 H 2211.7 0.83761 0.443975 0
M  V30 23789 H 2211.4 2.78615 2.14631 0
M  V30 23790 H 2211.28 1.5875 3.42167 0
M  V30 23791 H 2213.66 0.779724 2.84613 0
M  V30 23792 H 2213.74 2.01231 1.57924 0
M  V30 23793 H 2213.39 3.82044 3.34671 0
M  V30 23794 H 2213.32 2.55878 4.60254 0
M  V30 23795 H 2215.81 2.17847 3.0879 0
M  V30 23796 H 2216.12 4.95127 5.93354 0
M  V30 23797 H 2214.47 4.44747 5.34065 0
M  V30 23798 H 2217.66 2.76685 3.77575 0
M  V30 23799 H 2217.83 4.03109 5.07353 0
M  V30 23800 N 2211.24 -1.35782 0.800057 0
M  V30 23801 C 2212.48 -1.99247 0.377936 0
M  V30 23802 C 2212.82 -1.63335 -1.05049 0
M  V30 23803 O 2212.09 -0.893415 -1.72767 0
M  V30 23804 C 2212.37 -3.55813 0.553984 0
M  V30 23805 C 2212.23 -4.01545 2.02687 0
M  V30 23806 C 2213.55 -4.40093 -0.0244028 0
M  V30 23807 H 2210.67 -0.723813 0.138795 0
M  V30 23808 H 2213.31 -1.61033 1.00838 0
M  V30 23809 H 2211.46 -3.88496 0.0173081 0
M  V30 23810 H 2213.13 -3.79301 2.62543 0
M  V30 23811 H 2211.37 -3.52693 2.52567 0
M  V30 23812 H 2212.04 -5.10454 2.10096 0
M  V30 23813 H 2214.52 -4.13832 0.433848 0
M  V30 23814 H 2213.4 -5.48749 0.128733 0
M  V30 23815 H 2213.66 -4.27743 -1.11751 0
M  V30 23816 N 2212.72 -0.552988 -1.4758 0
M  V30 23817 C 2213.96 -0.025235 -2.01684 0
M  V30 23818 C 2214.28 1.33112 -1.4332 0
M  V30 23819 O 2215.48 1.94855 -1.89061 0
M  V30 23820 C 2213.94 0.00535725 -3.599 0
M  V30 23821 C 2213.55 -1.3475 -4.27255 0
M  V30 23822 C 2215.29 0.480725 -4.21769 0
M  V30 23823 C 2213.2 -1.27624 -5.77465 0
M  V30 23824 H 2212.13 -0.00566359 -0.753979 0
M  V30 23825 H 2214.78 -0.70021 -1.69615 0
M  V30 23826 H 2213.16 0.745892 -3.88912 0
M  V30 23827 H 2214.34 -2.10541 -4.09889 0
M  V30 23828 H 2212.65 -1.76046 -3.77355 0
M  V30 23829 H 2215.25 0.552366 -5.31839 0
M  V30 23830 H 2215.59 1.49177 -3.88654 0
M  V30 23831 H 2216.12 -0.204822 -3.97272 0
M  V30 23832 H 2212.86 -2.26315 -6.15192 0
M  V30 23833 H 2212.38 -0.560065 -5.97179 0
M  V30 23834 H 2214.06 -0.976533 -6.39588 0
M  V30 23835 N 2214.19 1.54923 -0.28923 0
M  V30 23836 C 2215.44 2.00196 0.323963 0
M  V30 23837 C 2215.77 1.17738 1.54439 0
M  V30 23838 O 2215.05 0.250912 1.92875 0
M  V30 23839 C 2215.33 3.53384 0.692214 0
M  V30 23840 C 2215.18 4.46589 -0.536535 0
M  V30 23841 C 2216.5 4.12898 1.52327 0
M  V30 23842 H 2213.62 0.72777 0.116277 0
M  V30 23843 H 2216.26 1.85764 -0.398987 0
M  V30 23844 H 2214.41 3.65813 1.30816 0
M  V30 23845 H 2216.09 4.46083 -1.17507 0
M  V30 23846 H 2214.33 4.17668 -1.17199 0
M  V30 23847 H 2215 5.515 -0.234903 0
M  V30 23848 H 2217.48 4.03832 1.00295 0
M  V30 23849 H 2216.35 5.20265 1.74973 0
M  V30 23850 H 2216.61 3.64022 2.50879 0
M  V30 23851 N 2215.67 0.0167433 1.57591 0
M  V30 23852 C 2216.6 -0.96782 2.12498 0
M  V30 23853 C 2217.58 -1.3475 1.03809 0
M  V30 23854 O 2218.77 -1.4283 1.31579 0
M  V30 23855 C 2215.9 -2.25426 2.64198 0
M  V30 23856 C 2214.85 -2.0157 3.77563 0
M  V30 23857 C 2214.18 -3.36372 4.15642 0
M  V30 23858 C 2215.48 -1.36481 5.04153 0
M  V30 23859 H 2217.17 -0.510591 2.95014 0
M  V30 23860 H 2214.72 -0.244156 1.41915 0
M  V30 23861 H 2216.67 -2.94672 3.01241 0
M  V30 23862 H 2215.39 -2.73292 1.78826 0
M  V30 23863 H 2214.05 -1.34745 3.40939 0
M  V30 23864 H 2213.7 -3.81973 3.27269 0
M  V30 23865 H 2213.4 -3.2122 4.92028 0
M  V30 23866 H 2214.93 -4.06907 4.55258 0
M  V30 23867 H 2216.34 -1.95708 5.38861 0
M  V30 23868 H 2214.74 -1.31765 5.85455 0
M  V30 23869 H 2215.81 -0.336134 4.83734 0
M  V30 23870 N 2217.15 -1.55503 -0.256249 0
M  V30 23871 C 2218.43 -1.67635 -1.00786 0
M  V30 23872 C 2218.81 -0.553862 -2.03705 0
M  V30 23873 O 2218.16 0.443929 -2.24146 0
M  V30 23874 C 2218.37 -3.07552 -1.64962 0
M  V30 23875 C 2219.71 -3.65849 -2.15499 0
M  V30 23876 O 2220.74 -3.10293 -1.7492 0
M  V30 23877 O 2219.6 -4.63222 -2.89978 0
M  V30 23878 H 2216.69 -0.681468 -0.468541 0
M  V30 23879 H 2219.24 -1.67837 -0.250776 0
M  V30 23880 H 2218.01 -3.80697 -0.904718 0
M  V30 23881 H 2217.63 -3.11321 -2.47315 0
M  V30 23882 N 2218.63 0.521507 -1.48721 0
M  V30 23883 C 2219.58 1.62524 -1.63874 0
M  V30 23884 C 2220.55 1.58996 -0.480587 0
M  V30 23885 O 2221.73 1.77293 -0.705116 0
M  V30 23886 C 2218.87 3.00756 -1.69232 0
M  V30 23887 C 2217.98 3.14455 -2.96212 0
M  V30 23888 C 2217.12 4.43298 -2.92678 0
M  V30 23889 C 2216.16 4.50556 -4.14326 0
M  V30 23890 N 2215.29 5.70798 -4.0882 0
M  V30 23891 H 2220.13 1.48913 -2.58126 0
M  V30 23892 H 2217.67 0.724856 -1.28001 0
M  V30 23893 H 2219.63 3.8085 -1.70321 0
M  V30 23894 H 2218.26 3.13119 -0.784641 0
M  V30 23895 H 2217.31 2.27558 -3.0483 0
M  V30 23896 H 2218.62 3.15679 -3.86197 0
M  V30 23897 H 2217.78 5.31691 -2.92215 0
M  V30 23898 H 2216.52 4.44608 -2.00437 0
M  V30 23899 H 2215.52 3.60568 -4.15055 0
M  V30 23900 H 2216.75 4.50977 -5.07737 0
M  V30 23901 H 2214.69 5.7299 -3.19404 0
M  V30 23902 H 2214.61 5.73552 -4.92519 0
M  V30 23903 H 2215.88 6.61455 -4.12429 0
M  V30 23904 N 2220.11 1.37452 0.771027 0
M  V30 23905 C 2221.35 1.32438 1.52659 0
M  V30 23906 C 2221.68 -0.0904681 1.9479 0
M  V30 23907 O 2220.95 -1.03463 1.6635 0
M  V30 23908 H 2219.53 0.487254 0.566209 0
M  V30 23909 H 2222.19 1.71948 0.917606 0
M  V30 23910 H 2221.28 1.96389 2.42565 0
M  V30 23911 N 2221.58 -0.997276 1.22033 0
M  V30 23912 C 2222.49 -2.1209 1.00275 0
M  V30 23913 C 2223.51 -1.73935 -0.0475905 0
M  V30 23914 O 2224.69 -2.00883 0.144171 0
M  V30 23915 C 2221.75 -3.41839 0.578509 0
M  V30 23916 C 2220.81 -3.94122 1.70196 0
M  V30 23917 C 2220.05 -5.17679 1.29787 0
M  V30 23918 O 2220.27 -5.70132 0.174776 0
M  V30 23919 O 2219.2 -5.63603 2.11271 0
M  V30 23920 H 2223.03 -2.33327 1.94402 0
M  V30 23921 H 2220.61 -1.10464 1.00589 0
M  V30 23922 H 2222.5 -4.19927 0.352072 0
M  V30 23923 H 2221.17 -3.21973 -0.333962 0
M  V30 23924 H 2220.08 -3.17227 1.98287 0
M  V30 23925 H 2221.41 -4.18413 2.59213 0
M  V30 23926 N 2223.06 -1.02932 -1.19343 0
M  V30 23927 C 2224.31 -0.721289 -1.88362 0
M  V30 23928 C 2224.62 0.753223 -1.80516 0
M  V30 23929 O 2225.83 1.17432 -2.4479 0
M  V30 23930 C 2224.29 -1.23984 -3.3787 0
M  V30 23931 C 2223.89 -2.74217 -3.54273 0
M  V30 23932 C 2225.64 -1.00782 -4.12363 0
M  V30 23933 C 2223.55 -3.19488 -4.97676 0
M  V30 23934 H 2222.48 -0.26611 -0.70548 0
M  V30 23935 H 2225.13 -1.24368 -1.34926 0
M  V30 23936 H 2223.51 -0.645369 -3.90706 0
M  V30 23937 H 2224.68 -3.39323 -3.11763 0
M  V30 23938 H 2223 -2.95704 -2.93169 0
M  V30 23939 H 2225.59 -1.32133 -5.18117 0
M  V30 23940 H 2225.94 0.0553576 -4.16263 0
M  V30 23941 H 2226.47 -1.56632 -3.65666 0
M  V30 23942 H 2223.21 -4.25137 -4.98938 0
M  V30 23943 H 2222.73 -2.5911 -5.40946 0
M  V30 23944 H 2224.41 -3.12855 -5.66331 0
M  V30 23945 N 2224.54 1.35356 -0.807246 0
M  V30 23946 C 2225.47 2.28525 -0.175758 0
M  V30 23947 C 2226.49 1.50311 0.625328 0
M  V30 23948 O 2227.67 1.72535 0.45758 0
M  V30 23949 C 2224.77 3.29957 0.773413 0
M  V30 23950 C 2223.95 4.37396 0.0185527 0
M  V30 23951 C 2223.01 5.18682 0.886304 0
M  V30 23952 O 2222.03 5.68201 0.337006 0
M  V30 23953 N 2223.23 5.36856 2.20829 0
M  V30 23954 H 2226 2.83358 -0.976141 0
M  V30 23955 H 2223.56 1.47713 -0.662763 0
M  V30 23956 H 2225.55 3.81229 1.35817 0
M  V30 23957 H 2224.12 2.75634 1.4746 0
M  V30 23958 H 2223.34 3.87049 -0.747417 0
M  V30 23959 H 2224.63 5.06321 -0.501666 0
M  V30 23960 H 2224.03 4.9827 2.6785 0
M  V30 23961 H 2222.59 5.91306 2.74227 0
M  V30 23962 N 2226.02 0.560807 1.47284 0
M  V30 23963 C 2226.93 -0.187913 2.33846 0
M  V30 23964 C 2227.94 -0.908267 1.48413 0
M  V30 23965 O 2229.12 -0.876357 1.81334 0
M  V30 23966 C 2226.19 -1.20245 3.2518 0
M  V30 23967 C 2225.25 -0.489133 4.26504 0
M  V30 23968 C 2224.48 -1.45533 5.13474 0
M  V30 23969 O 2224.7 -2.69041 5.02964 0
M  V30 23970 O 2223.64 -0.977859 5.93904 0
M  V30 23971 H 2227.46 0.52223 2.99176 0
M  V30 23972 H 2225.05 0.321389 1.45902 0
M  V30 23973 H 2226.93 -1.78799 3.81587 0
M  V30 23974 H 2225.6 -1.89445 2.62474 0
M  V30 23975 H 2224.51 0.137693 3.73847 0
M  V30 23976 H 2225.84 0.161485 4.91935 0
M  V30 23977 N 2227.5 -1.54768 0.297442 0
M  V30 23978 C 2228.73 -2.04183 -0.315129 0
M  V30 23979 C 2229.13 -1.17441 -1.48338 0
M  V30 23980 O 2228.48 -0.191923 -1.82695 0
M  V30 23981 C 2228.54 -3.49608 -0.837521 0
M  V30 23982 C 2228.2 -4.5654 0.204992 0
M  V30 23983 C 2229.2 -5.0955 1.03222 0
M  V30 23984 C 2226.89 -5.01109 0.345666 0
M  V30 23985 C 2228.88 -6.05667 1.98611 0
M  V30 23986 C 2226.57 -5.97047 1.303 0
M  V30 23987 C 2227.56 -6.49209 2.1217 0
M  V30 23988 O 2227.25 -7.43268 3.06281 0
M  V30 23989 H 2226.98 -0.672052 -0.0729528 0
M  V30 23990 H 2229.54 -2.00764 0.433942 0
M  V30 23991 H 2227.77 -3.50339 -1.63706 0
M  V30 23992 H 2229.46 -3.82239 -1.36559 0
M  V30 23993 H 2230.22 -4.75914 0.934395 0
M  V30 23994 H 2226.1 -4.60139 -0.281629 0
M  V30 23995 H 2229.65 -6.46306 2.62553 0
M  V30 23996 H 2225.54 -6.301 1.40156 0
M  V30 23997 H 2226.31 -7.61058 3.01219 0
M  V30 23998 N 2228.97 -0.0251005 -1.5758 0
M  V30 23999 C 2230.22 0.653118 -1.91256 0
M  V30 24000 C 2230.54 1.72899 -0.901721 0
M  V30 24001 O 2229.81 1.95816 0.0573441 0
M  V30 24002 H 2228.39 0.24423 -0.705947 0
M  V30 24003 H 2231.06 -0.0719551 -1.94767 0
M  V30 24004 H 2230.15 1.10842 -2.91754 0
M  V30 24005 N 2230.45 1.55637 0.247999 0
M  V30 24006 C 2231.42 1.89423 1.29041 0
M  V30 24007 C 2232.42 0.770606 1.41132 0
M  V30 24008 O 2233.61 1.03861 1.39852 0
M  V30 24009 C 2230.74 2.12169 2.66828 0
M  V30 24010 H 2231.93 2.8263 1.003 0
M  V30 24011 H 2229.48 1.48512 0.487239 0
M  V30 24012 H 2230.22 1.21427 3.00709 0
M  V30 24013 H 2230 2.94002 2.59433 0
M  V30 24014 H 2231.49 2.39496 3.42098 0
M  V30 24015 N 2231.93 -0.513613 1.48996 0
M  V30 24016 C 2233.34 -1.09534 1.51192 0
M  V30 24017 C 2233.69 -1.94031 0.29094 0
M  V30 24018 O 2232.82 -2.07903 -0.600453 0
M  V30 24019 C 2233.41 -1.99317 2.73967 0
M  V30 24020 C 2231.97 -2.52677 2.78983 0
M  V30 24021 C 2231.12 -1.30005 2.44937 0
M  V30 24022 H 2234.07 -0.298098 1.55875 0
M  V30 24023 H 2234.09 -2.83834 2.53414 0
M  V30 24024 H 2233.6 -1.37792 3.62815 0
M  V30 24025 H 2231.7 -3.17877 1.94383 0
M  V30 24026 H 2231.82 -2.90692 3.80835 0
M  V30 24027 H 2230.18 -1.62118 1.96443 0
M  V30 24028 H 2230.96 -0.702072 3.36044 0
M  V30 24029 N 2233.41 -1.37859 -0.763727 0
M  V30 24030 C 2234.63 -1.36896 -1.55802 0
M  V30 24031 C 2235.06 0.0415805 -1.88054 0
M  V30 24032 O 2234.42 1.02086 -1.49827 0
M  V30 24033 C 2234.47 -2.22197 -2.84008 0
M  V30 24034 O 2233.57 -1.6321 -3.7873 0
M  V30 24035 H 2232.91 -0.467399 -0.47163 0
M  V30 24036 H 2235.44 -1.81488 -0.944625 0
M  V30 24037 H 2235.45 -2.35696 -3.33033 0
M  V30 24038 H 2234.13 -3.24721 -2.59864 0
M  V30 24039 H 2232.7 -1.58797 -3.37399 0
M  V30 24040 N 2234.89 0.990791 -1.22561 0
M  V30 24041 C 2236.16 1.70426 -0.959905 0
M  V30 24042 C 2236.54 2.04482 0.524419 0
M  V30 24043 O 2235.89 1.7298 1.49299 0
M  V30 24044 C 2236.1 2.9533 -1.8596 0
M  V30 24045 C 2237.45 3.68064 -2.11693 0
M  V30 24046 O 2238.47 3.05342 -1.83425 0
M  V30 24047 O 2237.33 4.80916 -2.5958 0
M  V30 24048 H 2234.43 0.743967 -0.361167 0
M  V30 24049 H 2236.97 1.04695 -1.33556 0
M  V30 24050 H 2235.75 2.66682 -2.86351 0
M  V30 24051 H 2235.37 3.68801 -1.48566 0
M  V30 24052 N 2236.37 1.03564 1.18795 0
M  V30 24053 C 2237.3 0.643058 2.24471 0
M  V30 24054 C 2238.28 -0.351253 1.66434 0
M  V30 24055 O 2239.46 -0.232471 1.92804 0
M  V30 24056 C 2236.59 1.85533e-05 3.473 0
M  V30 24057 C 2235.55 0.91733 4.18054 0
M  V30 24058 C 2234.87 0.139035 5.34519 0
M  V30 24059 C 2236.17 2.23415 4.72105 0
M  V30 24060 H 2237.87 1.52648 2.57564 0
M  V30 24061 H 2235.41 0.735416 1.23805 0
M  V30 24062 H 2237.36 -0.286309 4.20426 0
M  V30 24063 H 2236.09 -0.918243 3.13426 0
M  V30 24064 H 2234.75 1.18796 3.46818 0
M  V30 24065 H 2234.4 -0.781475 4.96892 0
M  V30 24066 H 2234.1 0.750107 5.82793 0
M  V30 24067 H 2235.62 -0.140393 6.10439 0
M  V30 24068 H 2237.03 2.00888 5.36951 0
M  V30 24069 H 2235.43 2.79774 5.30892 0
M  V30 24070 H 2236.5 2.88414 3.89802 0
M  V30 24071 N 2237.84 -1.34926 0.814413 0
M  V30 24072 C 2238.77 -2.32213 0.244868 0
M  V30 24073 C 2239.75 -1.57843 -0.633996 0
M  V30 24074 O 2240.94 -1.85871 -0.562644 0
M  V30 24075 C 2238.07 -3.4206 -0.601046 0
M  V30 24076 C 2237.02 -4.27621 0.179971 0
M  V30 24077 C 2236.35 -5.2886 -0.788144 0
M  V30 24078 C 2237.65 -5.03647 1.38338 0
M  V30 24079 H 2239.34 -2.80095 1.05768 0
M  V30 24080 H 2236.89 -1.34664 0.510052 0
M  V30 24081 H 2238.84 -4.09127 -1.00961 0
M  V30 24082 H 2237.57 -2.92805 -1.44683 0
M  V30 24083 H 2236.23 -3.62145 0.569803 0
M  V30 24084 H 2235.87 -4.75869 -1.62964 0
M  V30 24085 H 2235.57 -5.8698 -0.269839 0
M  V30 24086 H 2237.1 -5.98797 -1.19475 0
M  V30 24087 H 2238.51 -5.63616 1.04928 0
M  V30 24088 H 2236.91 -5.71301 1.83672 0
M  V30 24089 H 2237.98 -4.33835 2.166 0
M  V30 24090 N 2239.32 -0.56861 -1.46985 0
M  V30 24091 C 2240.25 0.210297 -2.28233 0
M  V30 24092 C 2241.27 0.868743 -1.37683 0
M  V30 24093 O 2242.46 0.740676 -1.62408 0
M  V30 24094 C 2239.56 1.31625 -3.12295 0
M  V30 24095 C 2238.73 0.752425 -4.3088 0
M  V30 24096 C 2237.79 1.7443 -4.96448 0
M  V30 24097 O 2236.81 1.28591 -5.54485 0
M  V30 24098 N 2238.02 3.07804 -4.92176 0
M  V30 24099 H 2240.78 -0.4867 -2.95722 0
M  V30 24100 H 2238.34 -0.405436 -1.56741 0
M  V30 24101 H 2240.33 1.97877 -3.53025 0
M  V30 24102 H 2238.9 1.91631 -2.46974 0
M  V30 24103 H 2238.12 -0.087182 -3.94104 0
M  V30 24104 H 2239.41 0.35527 -5.07558 0
M  V30 24105 H 2238.81 3.47681 -4.46245 0
M  V30 24106 H 2237.37 3.69583 -5.36891 0
M  V30 24107 N 2240.8 1.54608 -0.305646 0
M  V30 24108 C 2241.73 2.2115 0.602122 0
M  V30 24109 C 2242.74 1.20571 1.09392 0
M  V30 24110 O 2243.93 1.47138 1.01057 0
M  V30 24111 C 2241.03 2.84802 1.83687 0
M  V30 24112 C 2240.21 4.11356 1.48678 0
M  V30 24113 C 2239.27 4.58768 2.57717 0
M  V30 24114 O 2238.29 5.23862 2.22614 0
M  V30 24115 N 2239.49 4.31478 3.88339 0
M  V30 24116 H 2242.26 2.99682 0.0324439 0
M  V30 24117 H 2239.82 1.61393 -0.128049 0
M  V30 24118 H 2241.81 3.13452 2.55988 0
M  V30 24119 H 2240.38 2.10082 2.31483 0
M  V30 24120 H 2239.6 3.89665 0.5962 0
M  V30 24121 H 2240.89 4.9375 1.22833 0
M  V30 24122 H 2240.29 3.79339 4.19665 0
M  V30 24123 H 2238.84 4.64826 4.56924 0
M  V30 24124 N 2242.28 0.033457 1.57564 0
M  V30 24125 C 2243.69 -0.32297 1.56298 0
M  V30 24126 C 2243.89 -1.72618 1.03949 0
M  V30 24127 O 2242.95 -2.42942 0.688151 0
M  V30 24128 C 2244.26 -0.167612 3.00232 0
M  V30 24129 C 2245.81 -0.240052 3.12078 0
M  V30 24130 C 2246.29 -0.113432 4.5786 0
M  V30 24131 N 2247.78 -0.170277 4.62887 0
M  V30 24132 C 2248.51 -0.096151 5.73319 0
M  V30 24133 N 2248.01 0.0293099 6.92794 0
M  V30 24134 N 2249.8 -0.150453 5.61899 0
M  V30 24135 H 2241.95 0.950989 1.89921 0
M  V30 24136 H 2244.21 0.367623 0.873818 0
M  V30 24137 H 2243.92 0.799162 3.425 0
M  V30 24138 H 2243.79 -0.936019 3.65402 0
M  V30 24139 H 2246.18 -1.19729 2.6972 0
M  V30 24140 H 2246.26 0.558807 2.49622 0
M  V30 24141 H 2245.91 0.840403 5.00899 0
M  V30 24142 H 2245.84 -0.931211 5.18301 0
M  V30 24143 H 2248.33 -0.267214 3.76954 0
M  V30 24144 H 2248.64 0.0790611 7.7276 0
M  V30 24145 H 2246.99 0.0641521 6.9497 0
M  V30 24146 H 2250.18 -0.246899 4.67448 0
M  V30 24147 H 2250.35 -0.0892226 6.47939 0
M  V30 24148 N 2243.76 -1.55766 -0.239741 0
M  V30 24149 C 2245 -1.77581 -0.96486 0
M  V30 24150 C 2245.32 -0.598732 -1.85581 0
M  V30 24151 O 2244.59 0.385193 -1.92076 0
M  V30 24152 H 2243.17 -0.65494 -0.359253 0
M  V30 24153 H 2245.84 -1.93212 -0.255967 0
M  V30 24154 H 2244.93 -2.69011 -1.58238 0
M  V30 24155 N 2245.23 0.505704 -1.49266 0
M  V30 24156 C 2246.16 1.6165 -1.68498 0
M  V30 24157 C 2247.14 1.61511 -0.533688 0
M  V30 24158 O 2248.33 1.78326 -0.769002 0
M  V30 24159 C 2245.46 3.00154 -1.74714 0
M  V30 24160 C 2244.41 3.15157 -2.89586 0
M  V30 24161 C 2243.74 4.54965 -2.80911 0
M  V30 24162 C 2245.04 2.95627 -4.30584 0
M  V30 24163 H 2246.73 1.45809 -2.61496 0
M  V30 24164 H 2244.28 0.700028 -1.2584 0
M  V30 24165 H 2246.23 3.77757 -1.86755 0
M  V30 24166 H 2244.96 3.17072 -0.783123 0
M  V30 24167 H 2243.62 2.39977 -2.7714 0
M  V30 24168 H 2243.26 4.68753 -1.82427 0
M  V30 24169 H 2242.96 4.65945 -3.58007 0
M  V30 24170 H 2244.49 5.34636 -2.94953 0
M  V30 24171 H 2245.9 3.63003 -4.43736 0
M  V30 24172 H 2244.3 3.18082 -5.08866 0
M  V30 24173 H 2245.37 1.91798 -4.45356 0
M  V30 24174 N 2246.71 1.38262 0.756405 0
M  V30 24175 C 2247.96 1.34315 1.51545 0
M  V30 24176 C 2248.29 -0.0676802 1.94382 0
M  V30 24177 O 2247.54 -1.04418 1.65516 0
M  V30 24178 C 2247.84 2.24229 2.78309 0
M  V30 24179 C 2247.51 3.72246 2.54449 0
M  V30 24180 C 2246.17 4.12581 2.4765 0
M  V30 24181 C 2248.52 4.65953 2.33532 0
M  V30 24182 C 2245.85 5.44717 2.17946 0
M  V30 24183 C 2248.2 5.98343 2.05349 0
M  V30 24184 C 2246.87 6.37766 1.97005 0
M  V30 24185 H 2246.14 0.491492 0.554542 0
M  V30 24186 H 2248.78 1.70596 0.870009 0
M  V30 24187 H 2247.09 1.80993 3.47489 0
M  V30 24188 H 2248.78 2.1848 3.36255 0
M  V30 24189 H 2245.37 3.40265 2.6061 0
M  V30 24190 H 2249.56 4.35639 2.37765 0
M  V30 24191 H 2244.81 5.74207 2.09992 0
M  V30 24192 H 2248.99 6.70497 1.88167 0
M  V30 24193 H 2246.62 7.40077 1.73753 0
M  V30 24194 N 2248.19 -0.984277 1.23084 0
M  V30 24195 C 2249.42 -1.75779 1.08559 0
M  V30 24196 C 2249.83 -1.85623 -0.366138 0
M  V30 24197 O 2249.17 -1.33184 -1.26521 0
M  V30 24198 C 2249.23 -3.20315 1.63214 0
M  V30 24199 C 2248.9 -3.33991 3.11927 0
M  V30 24200 C 2249.89 -3.20622 4.09264 0
M  V30 24201 C 2247.58 -3.58765 3.51558 0
M  V30 24202 C 2249.57 -3.31825 5.44216 0
M  V30 24203 C 2247.26 -3.69608 4.86655 0
M  V30 24204 C 2248.26 -3.56147 5.82793 0
M  V30 24205 O 2247.95 -3.66613 7.15437 0
M  V30 24206 H 2247.68 -0.558593 0.380723 0
M  V30 24207 H 2250.23 -1.24558 1.63323 0
M  V30 24208 H 2248.46 -3.72767 1.02866 0
M  V30 24209 H 2250.15 -3.79413 1.44223 0
M  V30 24210 H 2250.92 -3.01385 3.7999 0
M  V30 24211 H 2246.8 -3.68315 2.77245 0
M  V30 24212 H 2250.34 -3.21236 6.19236 0
M  V30 24213 H 2246.24 -3.88354 5.15608 0
M  V30 24214 H 2247.01 -3.83432 7.23133 0
M  V30 24215 N 2249.67 -1.04192 -1.18244 0
M  V30 24216 C 2250.89 -0.76603 -1.92735 0
M  V30 24217 C 2251.32 0.670879 -1.75729 0
M  V30 24218 O 2250.68 1.46484 -1.06827 0
M  V30 24219 C 2250.72 -1.13881 -3.42146 0
M  V30 24220 O 2249.83 -0.265026 -4.11548 0
M  V30 24221 H 2249.17 -0.281807 -0.601233 0
M  V30 24222 H 2251.7 -1.3921 -1.49939 0
M  V30 24223 H 2251.71 -1.10127 -3.92856 0
M  V30 24224 H 2250.38 -2.18558 -3.53844 0
M  V30 24225 H 2248.96 -0.362291 -3.71136 0
M  V30 24226 N 2251.15 1.34492 -0.821557 0
M  V30 24227 C 2252.08 2.27426 -0.187744 0
M  V30 24228 C 2253.06 1.48822 0.655044 0
M  V30 24229 O 2254.24 1.78044 0.61908 0
M  V30 24230 C 2251.37 3.30563 0.737937 0
M  V30 24231 C 2250.41 4.26491 -0.0271463 0
M  V30 24232 S 2251.25 5.17589 -1.37338 0
M  V30 24233 C 2252.4 6.24262 -0.452537 0
M  V30 24234 H 2252.64 2.80835 -0.975647 0
M  V30 24235 H 2250.17 1.41519 -0.617385 0
M  V30 24236 H 2252.13 3.90475 1.26647 0
M  V30 24237 H 2250.79 2.76004 1.49935 0
M  V30 24238 H 2249.98 4.99439 0.676513 0
M  V30 24239 H 2249.58 3.70826 -0.486185 0
M  V30 24240 H 2251.88 6.76562 0.356438 0
M  V30 24241 H 2252.82 6.98672 -1.15165 0
M  V30 24242 H 2253.23 5.64485 -0.0415747 0
M  V30 24243 N 2252.62 0.576397 1.46681 0
M  V30 24244 C 2253.59 -0.150199 2.28707 0
M  V30 24245 C 2254.59 -0.82477 1.38037 0
M  V30 24246 O 2255.78 -0.677691 1.60477 0
M  V30 24247 C 2252.91 -1.22187 3.1825 0
M  V30 24248 H 2254.1 0.570573 2.94422 0
M  V30 24249 H 2251.66 0.334105 1.52687 0
M  V30 24250 H 2252.39 -1.97442 2.57269 0
M  V30 24251 H 2252.18 -0.742744 3.85001 0
M  V30 24252 H 2253.67 -1.73166 3.80004 0
M  V30 24253 N 2254.1 -1.54444 0.313841 0
M  V30 24254 C 2255.05 -2.2399 -0.556511 0
M  V30 24255 C 2256.02 -1.22713 -1.11941 0
M  V30 24256 O 2257.2 -1.51369 -1.16155 0
M  V30 24257 C 2254.34 -2.99395 -1.7163 0
M  V30 24258 C 2253.46 -4.1547 -1.18357 0
M  V30 24259 C 2252.59 -4.78428 -2.30825 0
M  V30 24260 C 2251.63 -5.86625 -1.74751 0
M  V30 24261 N 2250.77 -6.43484 -2.80844 0
M  V30 24262 H 2255.61 -2.97969 0.0431417 0
M  V30 24263 H 2253.15 -1.47063 0.0330618 0
M  V30 24264 H 2255.1 -3.41353 -2.39862 0
M  V30 24265 H 2253.73 -2.27769 -2.28738 0
M  V30 24266 H 2252.79 -3.78363 -0.393096 0
M  V30 24267 H 2254.1 -4.93382 -0.733176 0
M  V30 24268 H 2253.25 -5.23305 -3.0698 0
M  V30 24269 H 2251.99 -3.99876 -2.79197 0
M  V30 24270 H 2251 -5.41159 -0.9709 0
M  V30 24271 H 2252.22 -6.67068 -1.27269 0
M  V30 24272 H 2250.17 -5.67809 -3.28525 0
M  V30 24273 H 2250.08 -7.1678 -2.40339 0
M  V30 24274 H 2251.35 -6.93017 -3.56857 0
M  V30 24275 N 2255.58 -0.0418125 -1.57545 0
M  V30 24276 C 2256.86 0.673401 -1.83643 0
M  V30 24277 C 2257.24 1.89592 -0.928331 0
M  V30 24278 O 2256.59 2.28496 0.0129553 0
M  V30 24279 C 2256.8 1.03958 -3.33157 0
M  V30 24280 C 2258.14 1.42585 -3.99943 0
M  V30 24281 O 2259.17 1.1322 -3.37727 0
M  V30 24282 O 2258.03 1.97351 -5.09622 0
M  V30 24283 H 2255.12 0.331519 -0.757644 0
M  V30 24284 H 2257.67 -0.0704628 -1.69554 0
M  V30 24285 H 2256.44 0.170029 -3.9093 0
M  V30 24286 H 2256.06 1.8412 -3.524 0
M  V30 24287 N 2257.06 1.55891 0.231477 0
M  V30 24288 C 2258.02 1.90781 1.27024 0
M  V30 24289 C 2259.02 0.785531 1.40307 0
M  V30 24290 O 2260.21 1.05338 1.38742 0
M  V30 24291 C 2257.34 2.14988 2.64562 0
M  V30 24292 H 2258.54 2.83678 0.972968 0
M  V30 24293 H 2256.09 1.4902 0.47146 0
M  V30 24294 H 2256.82 1.2461 2.99404 0
M  V30 24295 H 2256.61 2.96737 2.563 0
M  V30 24296 H 2258.1 2.43111 3.39539 0
M  V30 24297 N 2258.54 -0.497781 1.49532 0
M  V30 24298 C 2259.78 -1.24923 1.58867 0
M  V30 24299 C 2260.11 -1.92997 0.278755 0
M  V30 24300 O 2259.38 -1.82886 -0.702112 0
M  V30 24301 H 2257.96 -0.464083 0.585351 0
M  V30 24302 H 2260.62 -0.576627 1.86175 0
M  V30 24303 H 2259.71 -2.01145 2.38636 0
M  V30 24304 N 2260.01 -1.38661 -0.749062 0
M  V30 24305 C 2260.94 -1.38976 -1.87637 0
M  V30 24306 C 2261.93 -0.255034 -1.68177 0
M  V30 24307 O 2263.11 -0.458787 -1.88703 0
M  V30 24308 C 2260.24 -1.21857 -3.2522 0
M  V30 24309 C 2259.19 -2.32581 -3.59291 0
M  V30 24310 C 2258.52 -2.00563 -4.9566 0
M  V30 24311 C 2259.82 -3.74857 -3.63703 0
M  V30 24312 H 2261.51 -2.33313 -1.87631 0
M  V30 24313 H 2259.06 -1.12305 -0.90131 0
M  V30 24314 H 2261.01 -1.20702 -4.03744 0
M  V30 24315 H 2259.74 -0.239832 -3.25718 0
M  V30 24316 H 2258.4 -2.3293 -2.83089 0
M  V30 24317 H 2258.04 -1.01162 -4.92722 0
M  V30 24318 H 2257.74 -2.74723 -5.19424 0
M  V30 24319 H 2259.27 -2.01034 -5.76557 0
M  V30 24320 H 2260.68 -3.76514 -4.32331 0
M  V30 24321 H 2259.08 -4.48259 -3.98978 0
M  V30 24322 H 2260.15 -4.06846 -2.63826 0
M  V30 24323 N 2261.49 0.977736 -1.23605 0
M  V30 24324 C 2262.74 1.72193 -1.07132 0
M  V30 24325 C 2263.07 1.90234 0.390467 0
M  V30 24326 O 2262.35 1.45655 1.28899 0
M  V30 24327 C 2262.63 3.11864 -1.80037 0
M  V30 24328 C 2262.48 3.01377 -3.33904 0
M  V30 24329 C 2263.8 4.11334 -1.56499 0
M  V30 24330 H 2260.92 0.624992 -0.390582 0
M  V30 24331 H 2263.56 1.13808 -1.52144 0
M  V30 24332 H 2261.71 3.61707 -1.41775 0
M  V30 24333 H 2263.39 2.59036 -3.81704 0
M  V30 24334 H 2261.63 2.3782 -3.628 0
M  V30 24335 H 2262.3 4.00278 -3.80107 0
M  V30 24336 H 2264.78 3.70309 -1.89764 0
M  V30 24337 H 2263.65 5.07148 -2.09982 0
M  V30 24338 H 2263.91 4.39253 -0.500951 0
M  V30 24339 O 2263.01 1.17345 1.10961 0
M  V30 24340 H 2263.7 0.910494 1.70967 0
M  V30 END ATOM
M  V30 BEGIN BOND
M  V30 END BOND
M  V30 END CTAB
M  END
$$$$
